drugbank_target|Q9UHC9 Niemann-Pick C1-like protein 1 (DB00973)
 OpenBabel12092119403D

  0  0  0     0  0            999 V3000
M  V30 BEGIN CTAB
M  V30 COUNTS 20948 21195 0 0 0
M  V30 BEGIN ATOM
M  V30 1 H -0.908 1.98254 -0.117106 0
M  V30 2 N 0 1.576 0 0
M  V30 3 C 0.933 2.03868 1.02534 0
M  V30 4 C 1.911 0.928543 1.3348 0
M  V30 5 O 3.095 1.19667 1.45644 0
M  V30 6 C 0.222 2.43627 2.35294 0
M  V30 7 C -0.732 3.65373 2.2001 0
M  V30 8 S 0.101 5.13292 1.52614 0
M  V30 9 C 1.257 5.56322 2.86805 0
M  V30 10 H 1.49 2.90518 0.631377 0
M  V30 11 H -0.977 1.52953 0.210867 0
M  V30 12 H 0.981 2.67203 3.11629 0
M  V30 13 H -0.358 1.57376 2.7183 0
M  V30 14 H -1.165 3.90944 3.18086 0
M  V30 15 H -1.563 3.418 1.51819 0
M  V30 16 H 0.729 5.58782 3.83104 0
M  V30 17 H 1.672 6.56266 2.65933 0
M  V30 18 H 2.08 4.83886 2.90714 0
M  V30 19 N 1.4781 -0.272755 1.55222 0
M  V30 20 C 2.4411 -1.32041 1.87344 0
M  V30 21 C 3.4411 -1.42342 0.74803 0
M  V30 22 O 4.6311 -1.41488 1.0162 0
M  V30 23 C 1.7631 -2.70173 2.07893 0
M  V30 24 H 2.9561 -1.04789 2.80997 0
M  V30 25 H 0.5091 -0.51083 1.47717 0
M  V30 26 H 1.2441 -3.02605 1.16622 0
M  V30 27 H 1.0291 -2.64082 2.89833 0
M  V30 28 H 2.5191 -3.45869 2.34017 0
M  V30 29 N 2.9562 -1.48159 -0.537278 0
M  V30 30 C 3.8662 -1.64807 -1.6696 0
M  V30 31 C 4.8822 -0.530651 -1.65711 0
M  V30 32 O 6.0582 -0.800784 -1.84796 0
M  V30 33 C 3.1232 -1.67708 -3.03438 0
M  V30 34 C 2.1842 -2.91025 -3.156 0
M  V30 35 C 1.4172 -2.93778 -4.45567 0
M  V30 36 O 1.6402 -2.05153 -5.3223 0
M  V30 37 O 0.5742 -3.85868 -4.61941 0
M  V30 38 H 4.4002 -2.6066 -1.55853 0
M  V30 39 H 1.9852 -1.31475 -0.709549 0
M  V30 40 H 3.8672 -1.7218 -3.84619 0
M  V30 41 H 2.5422 -0.750278 -3.14885 0
M  V30 42 H 1.4492 -2.92089 -2.33741 0
M  V30 43 H 2.7822 -3.83065 -3.09066 0
M  V30 44 N 4.4343 0.785586 -1.36625 0
M  V30 45 C 5.3973 1.87999 -1.31107 0
M  V30 46 C 6.3973 1.59316 -0.217959 0
M  V30 47 O 7.5873 1.67656 -0.472977 0
M  V30 48 C 4.7193 3.24861 -1.03334 0
M  V30 49 H 5.9123 1.94307 -2.2844 0
M  V30 50 H 3.4653 0.983813 -1.21453 0
M  V30 51 H 4.2003 3.24235 -0.0647432 0
M  V30 52 H 3.9853 3.4707 -1.82441 0
M  V30 53 H 5.4753 4.04929 -1.02088 0
M  V30 54 N 5.9124 1.20967 1.01018 0
M  V30 55 C 7.1604 1.02172 1.74371 0
M  V30 56 C 7.4814 -0.446414 1.89821 0
M  V30 57 O 6.7514 -1.32234 1.44537 0
M  V30 58 H 5.3314 0.375066 0.646014 0
M  V30 59 H 7.9934 1.52187 1.21758 0
M  V30 60 H 7.0894 1.48538 2.74487 0
M  V30 61 N 7.3905 -1.2043 1.01659 0
M  V30 62 C 8.3205 -2.25466 0.607226 0
M  V30 63 C 9.3015 -1.65853 -0.377716 0
M  V30 64 O 10.4865 -1.92409 -0.263149 0
M  V30 65 C 7.6165 -3.47256 -0.0552949 0
M  V30 66 C 6.5705 -4.19462 0.850632 0
M  V30 67 C 5.8965 -5.34673 0.0538859 0
M  V30 68 C 7.1965 -4.75603 2.15868 0
M  V30 69 H 8.8905 -2.59962 1.48526 0
M  V30 70 H 6.4365 -1.2496 0.715605 0
M  V30 71 H 8.3895 -4.19917 -0.353233 0
M  V30 72 H 7.1135 -3.11924 -0.968045 0
M  V30 73 H 5.7725 -3.48667 1.13257 0
M  V30 74 H 5.4205 -4.95585 -0.860514 0
M  V30 75 H 5.1205 -5.83913 0.657192 0
M  V30 76 H 6.6445 -6.10138 -0.237598 0
M  V30 77 H 8.0585 -5.40083 1.92311 0
M  V30 78 H 6.4555 -5.3528 2.71284 0
M  V30 79 H 7.5255 -3.94346 2.82169 0
M  V30 80 N 8.8686 -0.792821 -1.36206 0
M  V30 81 C 10.2846 -0.474903 -1.52371 0
M  V30 82 C 10.4846 1.00622 -1.74578 0
M  V30 83 O 9.5406 1.79162 -1.77924 0
M  V30 84 C 10.8536 -1.3083 -2.70747 0
M  V30 85 C 12.4016 -1.30234 -2.84619 0
M  V30 86 C 12.8766 -2.11956 -4.06004 0
M  V30 87 N 14.3676 -2.09419 -4.13156 0
M  V30 88 C 15.1026 -2.69419 -5.06163 0
M  V30 89 N 14.5986 -3.3829 -6.04592 0
M  V30 90 N 16.3916 -2.59134 -4.98804 0
M  V30 91 H 8.5426 -1.75222 -1.20046 0
M  V30 92 H 10.8056 -0.745024 -0.586211 0
M  V30 93 H 10.5116 -2.35881 -2.6087 0
M  V30 94 H 10.3856 -0.95196 -3.6499 0
M  V30 95 H 12.7726 -0.259748 -2.93955 0
M  V30 96 H 12.8536 -1.69847 -1.91274 0
M  V30 97 H 12.4976 -3.16248 -3.97429 0
M  V30 98 H 12.4276 -1.69711 -4.98503 0
M  V30 99 H 14.9186 -1.59297 -3.42685 0
M  V30 100 H 15.2316 -3.81394 -6.7213 0
M  V30 101 H 13.5766 -3.42393 -6.04807 0
M  V30 102 H 16.7676 -2.04927 -4.20859 0
M  V30 103 H 16.9406 -3.06185 -5.711 0
M  V30 104 N 10.3467 1.47872 -0.545128 0
M  V30 105 C 11.5947 2.02093 -0.016553 0
M  V30 106 C 11.9157 1.42305 1.3332 0
M  V30 107 O 11.1857 0.593853 1.86682 0
M  V30 108 H 9.7657 0.746993 -0.00313038 0
M  V30 109 H 12.4277 1.81414 -0.712397 0
M  V30 110 H 11.5237 3.11996 0.0805422 0
M  V30 111 N 11.8248 0.280983 1.55075 0
M  V30 112 C 13.0708 -0.327573 2.00745 0
M  V30 113 C 13.4258 -1.53045 1.16598 0
M  V30 114 O 12.7188 -1.90221 0.229451 0
M  V30 115 C 12.9128 -0.754656 3.49342 0
M  V30 116 C 12.7418 0.40529 4.4787 0
M  V30 117 C 11.5118 0.890947 4.97383 0
M  V30 118 C 13.7098 1.24371 4.99035 0
M  V30 119 N 11.6918 2.01975 5.79724 0
M  V30 120 C 13.0628 2.22031 5.7888 0
M  V30 121 C 15.1178 1.27638 4.81262 0
M  V30 122 C 13.8208 3.22709 6.42846 0
M  V30 123 C 15.8468 2.27164 5.46031 0
M  V30 124 C 15.2088 3.23556 6.25692 0
M  V30 125 H 11.3078 -0.0848774 0.77738 0
M  V30 126 H 13.8918 0.406342 1.90413 0
M  V30 127 H 12.0628 -1.45778 3.60005 0
M  V30 128 H 13.7948 -1.34105 3.81835 0
M  V30 129 H 10.5498 0.469262 4.71269 0
M  V30 130 H 10.9738 2.58794 6.25584 0
M  V30 131 H 15.6158 0.544936 4.19274 0
M  V30 132 H 13.3338 3.96784 7.0398 0
M  V30 133 H 16.9198 2.30441 5.34217 0
M  V30 134 H 15.7998 3.99309 6.74924 0
M  V30 135 N 13.3029 -1.57598 0.00835791 0
M  V30 136 C 14.2329 -2.1198 -0.979113 0
M  V30 137 C 15.2139 -1.03091 -1.35301 0
M  V30 138 O 16.3989 -1.30818 -1.43528 0
M  V30 139 C 13.5289 -2.62995 -2.26828 0
M  V30 140 C 12.4829 -3.76485 -2.03576 0
M  V30 141 C 11.8089 -4.13846 -3.38579 0
M  V30 142 C 13.1089 -5.0342 -1.39161 0
M  V30 143 H 14.8029 -2.94738 -0.526281 0
M  V30 144 H 12.3489 -1.41783 -0.251704 0
M  V30 145 H 14.3019 -2.99669 -2.96271 0
M  V30 146 H 13.0259 -1.7737 -2.7424 0
M  V30 147 H 11.6849 -3.40217 -1.36557 0
M  V30 148 H 11.3329 -3.25232 -3.83709 0
M  V30 149 H 11.0329 -4.90312 -3.23834 0
M  V30 150 H 12.5569 -4.53086 -4.09323 0
M  V30 151 H 13.9709 -5.37812 -1.98573 0
M  V30 152 H 12.3679 -5.84746 -1.34878 0
M  V30 153 H 13.4379 -4.83548 -0.361868 0
M  V30 154 N 14.781 0.264519 -1.55364 0
M  V30 155 C 15.711 1.33121 -1.91836 0
M  V30 156 C 16.692 1.51101 -0.781192 0
M  V30 157 O 17.877 1.64003 -1.04003 0
M  V30 158 C 15.007 2.68921 -2.19769 0
M  V30 159 C 13.961 2.65661 -3.35571 0
M  V30 160 C 13.287 4.05093 -3.49004 0
M  V30 161 C 14.587 2.24187 -4.71739 0
M  V30 162 H 16.281 1.02844 -2.81182 0
M  V30 163 H 13.827 0.493286 -1.35287 0
M  V30 164 H 15.78 3.43663 -2.43872 0
M  V30 165 H 14.504 3.00799 -1.27231 0
M  V30 166 H 13.163 1.93377 -3.1145 0
M  V30 167 H 12.811 4.34206 -2.53917 0
M  V30 168 H 12.511 4.03804 -4.26868 0
M  V30 169 H 14.035 4.81561 -3.75408 0
M  V30 170 H 15.449 2.88654 -4.9533 0
M  V30 171 H 13.846 2.34044 -5.52579 0
M  V30 172 H 14.916 1.19327 -4.69988 0
M  V30 173 N 16.2591 1.48442 0.529413 0
M  V30 174 C 17.5051 1.57699 1.28463 0
M  V30 175 C 17.8601 0.247913 1.90796 0
M  V30 176 O 17.1531 -0.749279 1.76342 0
M  V30 177 C 17.3471 2.6523 2.39558 0
M  V30 178 C 17.1761 4.08464 1.88114 0
M  V30 179 C 15.9461 4.75596 1.70693 0
M  V30 180 C 18.1441 4.94613 1.40935 0
M  V30 181 N 16.1261 6.03245 1.13881 0
M  V30 182 C 17.4971 6.12511 0.960734 0
M  V30 183 C 19.5521 4.80833 1.29243 0
M  V30 184 C 18.2551 7.18149 0.406792 0
M  V30 185 C 20.2811 5.86593 0.752487 0
M  V30 186 C 19.6431 7.037 0.313946 0
M  V30 187 H 15.7421 0.631608 0.46108 0
M  V30 188 H 18.3261 1.85325 0.596886 0
M  V30 189 H 16.4971 2.39425 3.05827 0
M  V30 190 H 18.2291 2.64169 3.06589 0
M  V30 191 H 14.9841 4.31938 1.94232 0
M  V30 192 H 15.4081 6.71324 0.874831 0
M  V30 193 H 20.0501 3.90635 1.61754 0
M  V30 194 H 17.7681 8.0807 0.0693671 0
M  V30 195 H 21.3541 5.77985 0.665192 0
M  V30 196 H 20.2341 7.8414 -0.0973632 0
M  V30 197 N 17.7372 -0.778329 1.37039 0
M  V30 198 C 18.7002 -1.87301 1.32102 0
M  V30 199 C 19.7002 -1.59198 0.226405 0
M  V30 200 O 20.8902 -1.67403 0.481861 0
M  V30 201 C 18.0222 -3.24309 1.05055 0
M  V30 202 H 19.2152 -1.93093 2.29467 0
M  V30 203 H 16.7682 -0.977358 1.21973 0
M  V30 204 H 17.5032 -3.24196 0.0819373 0
M  V30 205 H 17.2882 -3.46098 1.84279 0
M  V30 206 H 18.7782 -4.04382 1.04234 0
M  V30 207 N 19.2153 -1.21501 -1.00376 0
M  V30 208 C 20.1453 -0.999478 -2.11028 0
M  V30 209 C 21.1263 0.0759671 -1.6993 0
M  V30 210 O 22.3113 -0.0841106 -1.94018 0
M  V30 211 C 19.4413 -0.564709 -3.42678 0
M  V30 212 C 18.3953 -1.58486 -3.97576 0
M  V30 213 C 17.7213 -1.00628 -5.25146 0
M  V30 214 C 19.0213 -2.97204 -4.29496 0
M  V30 215 H 20.7153 -1.92495 -2.29317 0
M  V30 216 H 18.2613 -0.92693 -1.102 0
M  V30 217 H 20.2143 -0.401091 -4.19487 0
M  V30 218 H 18.9383 0.396411 -3.24185 0
M  V30 219 H 17.5973 -1.73606 -3.22888 0
M  V30 220 H 17.2453 -0.0368439 -5.02987 0
M  V30 221 H 16.9453 -1.68771 -5.62841 0
M  V30 222 H 18.4693 -0.854015 -6.04598 0
M  V30 223 H 19.8833 -2.8552 -4.97143 0
M  V30 224 H 18.2803 -3.62372 -4.78338 0
M  V30 225 H 19.3503 -3.47956 -3.3772 0
M  V30 226 N 20.6934 1.19889 -1.02296 0
M  V30 227 C 21.6234 2.25141 -0.619174 0
M  V30 228 C 22.6044 1.66051 0.368915 0
M  V30 229 O 23.7894 1.92546 0.252941 0
M  V30 230 C 20.9194 3.4728 0.0368783 0
M  V30 231 C 19.8734 4.19005 -0.872865 0
M  V30 232 C 19.1994 5.34637 -0.0822402 0
M  V30 233 C 20.4994 4.74452 -2.18387 0
M  V30 234 H 22.1934 2.59171 -1.49903 0
M  V30 235 H 19.7394 1.24579 -0.722222 0
M  V30 236 H 21.6924 4.20098 0.330958 0
M  V30 237 H 20.4164 3.12433 0.95149 0
M  V30 238 H 19.0754 3.48061 -1.15105 0
M  V30 239 H 18.7234 4.96034 0.83422 0
M  V30 240 H 18.4234 5.83557 -0.688149 0
M  V30 241 H 19.9474 6.10255 0.205238 0
M  V30 242 H 21.3614 5.39055 -1.95172 0
M  V30 243 H 19.7584 5.33834 -2.74119 0
M  V30 244 H 20.8284 3.92844 -2.84257 0
M  V30 245 N 22.1715 0.800033 1.35784 0
M  V30 246 C 23.1015 0.220184 2.3246 0
M  V30 247 C 24.0825 -0.65073 1.57161 0
M  V30 248 O 25.2675 -0.582359 1.85263 0
M  V30 249 C 22.3975 -0.637353 3.41402 0
M  V30 250 C 21.3515 0.134531 4.27789 0
M  V30 251 C 20.6775 -0.844285 5.27992 0
M  V30 252 C 21.9775 1.32979 5.05088 0
M  V30 253 H 23.6715 1.02787 2.81203 0
M  V30 254 H 21.2175 0.495717 1.35199 0
M  V30 255 H 23.1705 -1.05302 4.08031 0
M  V30 256 H 21.8945 -1.47785 2.91251 0
M  V30 257 H 20.5535 0.531296 3.6273 0
M  V30 258 H 20.2015 -1.68011 4.74111 0
M  V30 259 H 19.9015 -0.332184 5.8666 0
M  V30 260 H 21.4255 -1.2583 5.97494 0
M  V30 261 H 22.8395 0.98934 5.64699 0
M  V30 262 H 21.2365 1.77593 5.7322 0
M  V30 263 H 22.3065 2.11978 4.36111 0
M  V30 264 N 23.6496 -1.47581 0.552962 0
M  V30 265 C 25.0656 -1.5818 0.212424 0
M  V30 266 C 25.2656 -1.55213 -1.28496 0
M  V30 267 O 24.3216 -1.45329 -2.06484 0
M  V30 268 C 25.6346 -2.88865 0.835318 0
M  V30 269 C 27.1826 -3.0244 0.806156 0
M  V30 270 C 27.6576 -4.35819 1.40804 0
M  V30 271 N 29.1486 -4.42444 1.37103 0
M  V30 272 C 29.8836 -5.44202 1.80641 0
M  V30 273 N 29.3796 -6.52795 2.32015 0
M  V30 274 N 31.1726 -5.35222 1.71738 0
M  V30 275 H 23.3236 -1.47753 1.52587 0
M  V30 276 H 25.5866 -0.702941 0.636064 0
M  V30 277 H 25.2926 -2.9676 1.88749 0
M  V30 278 H 25.1666 -3.7579 0.325848 0
M  V30 279 H 27.5536 -2.94144 -0.237317 0
M  V30 280 H 27.6346 -2.17068 1.35334 0
M  V30 281 H 27.2786 -4.44871 2.45056 0
M  V30 282 H 27.2086 -5.19916 0.836338 0
M  V30 283 H 29.6996 -3.6456 0.995202 0
M  V30 284 H 30.0126 -7.26609 2.63171 0
M  V30 285 H 28.3576 -6.53696 2.36023 0
M  V30 286 H 31.5486 -4.49284 1.31382 0
M  V30 287 H 31.7216 -6.14389 2.05987 0
M  V30 288 N 25.1277 -0.289203 -1.54924 0
M  V30 289 C 26.0577 0.58549 -2.2604 0
M  V30 290 C 27.0387 1.14753 -1.25562 0
M  V30 291 O 28.2237 1.17906 -1.54311 0
M  V30 292 C 25.3537 1.76305 -2.99222 0
M  V30 293 C 24.3077 1.33191 -4.06748 0
M  V30 294 C 23.6337 2.5937 -4.6758 0
M  V30 295 C 24.9337 0.471775 -5.20165 0
M  V30 296 H 26.6277 -0.00763532 -2.99399 0
M  V30 297 H 24.1737 -0.00511229 -1.43999 0
M  V30 298 H 26.1267 2.38097 -3.47689 0
M  V30 299 H 24.8507 2.38223 -2.23422 0
M  V30 300 H 23.5097 0.737121 -3.59113 0
M  V30 301 H 23.1577 3.19576 -3.88433 0
M  V30 302 H 22.8577 2.31228 -5.40192 0
M  V30 303 H 24.3817 3.21985 -5.18804 0
M  V30 304 H 25.7957 0.995056 -5.64599 0
M  V30 305 H 24.1927 0.284639 -5.99425 0
M  V30 306 H 25.2627 -0.506041 -4.82252 0
M  V30 307 N 26.6058 1.57591 -0.0167156 0
M  V30 308 C 27.5688 2.08393 0.954204 0
M  V30 309 C 28.5688 0.996531 1.26198 0
M  V30 310 O 29.7588 1.25858 1.20438 0
M  V30 311 C 26.8908 2.5394 2.27436 0
M  V30 312 H 28.0838 2.95455 0.514451 0
M  V30 313 H 25.6368 1.54582 0.231089 0
M  V30 314 H 26.3718 1.70171 2.76066 0
M  V30 315 H 26.1568 3.33371 2.06412 0
M  V30 316 H 27.6468 2.93512 2.97053 0
M  V30 317 N 28.0839 -0.256276 1.55502 0
M  V30 318 C 29.0159 -1.33981 1.85962 0
M  V30 319 C 30.0289 -1.44743 0.745212 0
M  V30 320 O 31.2179 -1.4626 1.02324 0
M  V30 321 C 28.3179 -2.7194 2.02242 0
M  V30 322 C 27.4909 -2.83562 3.33033 0
M  V30 323 C 26.5499 -4.02304 3.39172 0
M  V30 324 O 25.5759 -3.92273 4.12444 0
M  V30 325 N 26.7779 -5.15045 2.67784 0
M  V30 326 H 29.5429 -1.08191 2.7949 0
M  V30 327 H 27.1039 -0.446388 1.55624 0
M  V30 328 H 29.0959 -3.49697 2.03701 0
M  V30 329 H 27.6659 -2.90479 1.15502 0
M  V30 330 H 26.8859 -1.92555 3.43971 0
M  V30 331 H 28.1739 -2.88271 4.19258 0
M  V30 332 H 27.5719 -5.26085 2.07968 0
M  V30 333 H 26.1289 -5.90972 2.74947 0
M  V30 334 N 29.562 -1.4872 -0.521534 0
M  V30 335 C 30.787 -1.61101 -1.30618 0
M  V30 336 C 31.212 -0.274611 -1.86085 0
M  V30 337 O 30.57 0.754937 -1.64834 0
M  V30 338 C 30.618 -2.66709 -2.4269 0
M  V30 339 O 29.722 -2.24456 -3.45967 0
M  V30 340 H 29.063 -0.539921 -0.386499 0
M  V30 341 H 31.593 -1.94767 -0.626645 0
M  V30 342 H 31.603 -2.88245 -2.88754 0
M  V30 343 H 30.278 -3.63727 -2.01682 0
M  V30 344 H 28.855 -2.13168 -3.05964 0
M  V30 345 N 31.0401 0.771051 -1.3745 0
M  V30 346 C 31.9501 1.91538 -1.35464 0
M  V30 347 C 32.9661 1.72134 -0.254123 0
M  V30 348 O 34.1421 1.95358 -0.489626 0
M  V30 349 C 31.2071 3.26671 -1.16134 0
M  V30 350 C 30.2681 3.58723 -2.35831 0
M  V30 351 C 29.5011 4.87409 -2.17413 0
M  V30 352 O 29.7241 5.58506 -1.15876 0
M  V30 353 O 28.6581 5.18539 -3.05615 0
M  V30 354 H 32.4841 1.96165 -2.31847 0
M  V30 355 H 30.0691 0.9139 -1.18187 0
M  V30 356 H 31.9511 4.07499 -1.07345 0
M  V30 357 H 30.6261 3.22894 -0.228251 0
M  V30 358 H 29.5331 2.78127 -2.50192 0
M  V30 359 H 30.8661 3.67243 -3.27709 0
M  V30 360 N 32.5182 1.22032 0.997298 0
M  V30 361 C 33.9292 1.0397 1.55071 0
M  V30 362 C 34.2802 -0.398192 1.92117 0
M  V30 363 O 33.4052 -1.28254 1.74298 0
M  V30 364 C 34.0002 1.88109 2.81781 0
M  V30 365 C 32.5592 1.74357 3.33581 0
M  V30 366 C 31.7062 1.84846 2.06706 0
M  V30 367 H 34.6572 1.35941 0.818883 0
M  V30 368 H 34.6782 1.39589 3.53971 0
M  V30 369 H 34.1902 2.92754 2.54787 0
M  V30 370 H 32.2912 0.72427 3.65493 0
M  V30 371 H 32.4042 2.56772 4.04481 0
M  V30 372 H 30.7682 1.28238 2.20062 0
M  V30 373 H 31.5512 2.91014 1.82114 0
M  V30 374 N 33.9963 -1.19345 1.0293 0
M  V30 375 C 35.2263 -1.92717 0.744563 0
M  V30 376 C 35.6343 -1.75751 -0.700579 0
M  V30 377 O 34.9773 -1.07703 -1.48815 0
M  V30 378 C 35.0393 -3.44828 1.01657 0
M  V30 379 C 34.7033 -3.85564 2.45335 0
M  V30 380 C 35.7003 -3.90286 3.43472 0
M  V30 381 C 33.3853 -4.1719 2.79746 0
M  V30 382 C 35.3793 -4.26065 4.74075 0
M  V30 383 C 33.0663 -4.52642 4.10559 0
M  V30 384 C 34.0643 -4.57054 5.07534 0
M  V30 385 O 33.7523 -4.91685 6.36004 0
M  V30 386 H 33.4843 -0.618977 0.271742 0
M  V30 387 H 36.0383 -1.52415 1.37691 0
M  V30 388 H 34.2683 -3.85314 0.327084 0
M  V30 389 H 35.9573 -3.99437 0.721427 0
M  V30 390 H 36.7233 -3.66002 3.18225 0
M  V30 391 H 32.6023 -4.1294 2.04943 0
M  V30 392 H 36.1463 -4.29423 5.49765 0
M  V30 393 H 32.0433 -4.76383 4.35579 0
M  V30 394 H 32.8113 -5.09631 6.40483 0
M  V30 395 N 35.4744 -0.807222 -1.35358 0
M  V30 396 C 36.7024 -0.400377 -2.02989 0
M  V30 397 C 37.1174 0.988859 -1.60832 0
M  V30 398 O 36.4744 1.63729 -0.806175 0
M  V30 399 C 36.5254 -0.474867 -3.58368 0
M  V30 400 O 36.2464 -1.80933 -3.98992 0
M  V30 401 C 37.7474 -0.0609112 -4.43258 0
M  V30 402 H 34.9674 -0.162587 -0.651004 0
M  V30 403 H 37.5114 -1.09102 -1.72965 0
M  V30 404 H 35.6664 0.167534 -3.87038 0
M  V30 405 H 36.0804 -1.77256 -4.9364 0
M  V30 406 H 37.5544 -0.164145 -5.51756 0
M  V30 407 H 38.0314 0.993831 -4.27808 0
M  V30 408 H 38.6374 -0.676492 -4.19885 0
M  V30 409 N 36.9525 1.47285 -0.560781 0
M  V30 410 C 38.1805 2.06855 -0.0430262 0
M  V30 411 C 38.5955 1.41291 1.25229 0
M  V30 412 O 37.9525 0.510648 1.7521 0
M  V30 413 C 38.0035 3.61178 0.152518 0
M  V30 414 O 37.7245 4.24285 -1.0915 0
M  V30 415 C 39.2255 4.37624 0.707145 0
M  V30 416 H 36.4455 0.669319 -0.0474652 0
M  V30 417 H 38.9895 1.89237 -0.77521 0
M  V30 418 H 37.1445 3.78298 0.834843 0
M  V30 419 H 37.5585 5.16868 -0.891482 0
M  V30 420 H 39.0325 5.46271 0.793244 0
M  V30 421 H 39.5095 4.04152 1.71923 0
M  V30 422 H 40.1155 4.25257 0.0604027 0
M  V30 423 N 38.4306 0.297415 1.54768 0
M  V30 424 C 39.6796 -0.313669 1.99246 0
M  V30 425 C 39.9926 -1.55281 1.18942 0
M  V30 426 O 41.1986 -2.23825 1.5367 0
M  V30 427 C 39.6546 -0.609407 3.54703 0
M  V30 428 C 39.2626 0.611192 4.43811 0
M  V30 429 C 41.0066 -1.18188 4.07715 0
M  V30 430 C 38.9136 0.288805 5.90694 0
M  V30 431 H 37.8436 -0.120979 0.744231 0
M  V30 432 H 40.4946 0.40556 1.78962 0
M  V30 433 H 38.8766 -1.38813 3.70873 0
M  V30 434 H 40.0506 1.3875 4.39414 0
M  V30 435 H 38.3656 1.10205 4.01552 0
M  V30 436 H 40.9626 -1.43727 5.15021 0
M  V30 437 H 41.3056 -2.12299 3.58099 0
M  V30 438 H 41.8386 -0.464944 3.95074 0
M  V30 439 H 38.5776 1.19838 6.44453 0
M  V30 440 H 38.0976 -0.450305 5.98107 0
M  V30 441 H 39.7766 -0.110933 6.46905 0
M  V30 442 N 39.9087 -1.5758 0.0250728 0
M  V30 443 C 40.8587 -2.06468 -0.967201 0
M  V30 444 C 41.8427 -0.964376 -1.28797 0
M  V30 445 O 43.0347 -1.22797 -1.27475 0
M  V30 446 C 40.1637 -2.59203 -2.25097 0
M  V30 447 C 39.2497 -3.76157 -1.95874 0
M  V30 448 N 39.6407 -4.86919 -1.36905 0
M  V30 449 C 37.9387 -3.84566 -2.25887 0
M  V30 450 C 38.6397 -5.68172 -1.24724 0
M  V30 451 N 37.6157 -5.14953 -1.74138 0
M  V30 452 H 41.4177 -2.89508 -0.506176 0
M  V30 453 H 38.9317 -1.61399 -0.18004 0
M  V30 454 H 40.9287 -2.92517 -2.97052 0
M  V30 455 H 39.5887 -1.77592 -2.71829 0
M  V30 456 H 40.5997 -5.07256 -1.04459 0
M  V30 457 H 37.2767 -3.13854 -2.75321 0
M  V30 458 H 38.6667 -6.67221 -0.791605 0
M  V30 459 N 41.3868 0.248026 -1.55636 0
M  V30 460 C 42.3188 1.32993 -1.8667 0
M  V30 461 C 43.3318 1.44345 -0.752877 0
M  V30 462 O 44.5208 1.45715 -1.03098 0
M  V30 463 C 41.6208 2.70863 -2.03682 0
M  V30 464 C 40.7938 2.81792 -3.34532 0
M  V30 465 C 39.8528 4.005 -3.41301 0
M  V30 466 O 38.8788 3.9008 -4.14519 0
M  V30 467 N 40.0808 5.13618 -2.70512 0
M  V30 468 H 42.8458 1.06707 -2.8006 0
M  V30 469 H 40.4068 0.438129 -1.55859 0
M  V30 470 H 42.3988 3.48612 -2.05553 0
M  V30 471 H 40.9688 2.89862 -1.17041 0
M  V30 472 H 40.1888 1.90729 -3.44987 0
M  V30 473 H 41.4768 2.86043 -4.20781 0
M  V30 474 H 40.8748 5.24975 -2.10755 0
M  V30 475 H 39.4318 5.89505 -2.78077 0
M  V30 476 N 42.8649 1.48995 0.513639 0
M  V30 477 C 44.2759 1.5119 1.09537 0
M  V30 478 C 44.6269 0.290906 1.94031 0
M  V30 479 O 43.7519 -0.60049 2.07902 0
M  V30 480 C 44.3469 2.73964 1.99322 0
M  V30 481 C 42.9059 2.78978 2.52682 0
M  V30 482 C 42.0529 2.44934 1.30009 0
M  V30 483 H 45.0039 1.55875 0.298125 0
M  V30 484 H 45.0249 2.53409 2.83838 0
M  V30 485 H 44.5369 3.62813 1.37799 0
M  V30 486 H 42.6379 1.94378 3.1788 0
M  V30 487 H 42.7509 3.8083 2.90698 0
M  V30 488 H 41.1149 1.9644 1.62122 0
M  V30 489 H 41.8979 3.36043 0.702131 0
M  V30 490 N 44.343 -0.763751 1.37857 0
M  V30 491 C 45.591 -1.51957 1.33243 0
M  V30 492 C 45.912 -1.94835 -0.0801709 0
M  V30 493 O 45.182 -1.66894 -1.02582 0
M  V30 494 H 43.762 -0.563626 0.49024 0
M  V30 495 H 46.424 -0.908504 1.7243 0
M  V30 496 H 45.52 -2.41523 1.97669 0
M  V30 497 N 45.8211 -1.22559 -0.990812 0
M  V30 498 C 47.0511 -1.07623 -1.76355 0
M  V30 499 C 47.4591 0.37601 -1.85426 0
M  V30 500 O 46.8021 1.27228 -1.32509 0
M  V30 501 C 46.8641 -1.61507 -3.21179 0
M  V30 502 C 46.5281 -3.10146 -3.35646 0
M  V30 503 C 47.5251 -4.07553 -3.22796 0
M  V30 504 C 45.2101 -3.49644 -3.60631 0
M  V30 505 C 47.2041 -5.42442 -3.34716 0
M  V30 506 C 44.8911 -4.84682 -3.72192 0
M  V30 507 C 45.8891 -5.8089 -3.59243 0
M  V30 508 O 45.5771 -7.13476 -3.70415 0
M  V30 509 H 45.3091 -0.377745 -0.560611 0
M  V30 510 H 47.8631 -1.62658 -1.25425 0
M  V30 511 H 46.0931 -1.00881 -3.73309 0
M  V30 512 H 47.7821 -1.42202 -3.80175 0
M  V30 513 H 48.5481 -3.78381 -3.03403 0
M  V30 514 H 44.4271 -2.75282 -3.69785 0
M  V30 515 H 47.9711 -6.17518 -3.24526 0
M  V30 516 H 43.8681 -5.13534 -3.91092 0
M  V30 517 H 44.6361 -7.21083 -3.87275 0
M  V30 518 N 47.2992 1.18797 -1.03562 0
M  V30 519 C 48.5392 1.90346 -0.744832 0
M  V30 520 C 48.9032 1.78231 0.713972 0
M  V30 521 O 50.1042 2.44441 1.11813 0
M  V30 522 C 48.3752 3.36942 -1.19184 0
M  V30 523 S 49.9342 4.26638 -1.02593 0
M  V30 524 H 46.7522 0.657343 -0.270963 0
M  V30 525 H 49.3542 1.43579 -1.32685 0
M  V30 526 H 48.0582 3.43287 -2.24905 0
M  V30 527 H 47.5892 3.88745 -0.603397 0
M  V30 528 H 49.6042 4.96164 0.0596033 0
M  V30 529 N 48.7773 0.814389 1.34928 0
M  V30 530 C 49.7403 0.235759 2.27984 0
M  V30 531 C 50.7403 -0.581412 1.49921 0
M  V30 532 O 51.9303 -0.398758 1.69575 0
M  V30 533 C 49.0623 -0.670433 3.34242 0
M  V30 534 H 50.2553 1.05659 2.80671 0
M  V30 535 H 47.8083 0.585614 1.44915 0
M  V30 536 H 48.5433 -1.51466 2.86755 0
M  V30 537 H 48.3283 -0.0860822 3.92005 0
M  V30 538 H 49.8183 -1.06935 4.03676 0
M  V30 539 N 50.2554 -1.46986 0.568584 0
M  V30 540 C 51.5024 -2.02441 0.0487986 0
M  V30 541 C 51.8304 -1.44169 -1.30559 0
M  V30 542 O 51.0854 -0.591213 -1.86556 0
M  V30 543 C 51.3844 -3.57306 -0.081836 0
M  V30 544 C 51.0504 -4.34552 1.20313 0
M  V30 545 C 49.7124 -4.55376 1.5552 0
M  V30 546 C 52.0644 -4.79016 2.05411 0
M  V30 547 C 49.3924 -5.17913 2.7565 0
M  V30 548 C 51.7444 -5.42879 3.24754 0
M  V30 549 C 50.4084 -5.61933 3.60261 0
M  V30 550 H 49.6784 -0.740785 0.0178567 0
M  V30 551 H 52.3254 -1.76525 0.742384 0
M  V30 552 H 50.6304 -3.8228 -0.858463 0
M  V30 553 H 52.3274 -3.97876 -0.499546 0
M  V30 554 H 48.9174 -4.18631 0.919014 0
M  V30 555 H 53.1014 -4.62696 1.79516 0
M  V30 556 H 48.3574 -5.30858 3.03315 0
M  V30 557 H 52.5314 -5.76293 3.90973 0
M  V30 558 H 50.1584 -6.10161 4.53439 0
M  V30 559 N 51.7335 -0.305618 -1.54608 0
M  V30 560 C 52.9635 0.304333 -2.04346 0
M  V30 561 C 53.3715 1.47715 -1.18224 0
M  V30 562 O 52.7145 1.82591 -0.201577 0
M  V30 563 C 52.7765 0.819031 -3.50046 0
M  V30 564 C 52.4405 -0.22912 -4.56425 0
M  V30 565 C 53.4375 -1.05914 -5.08997 0
M  V30 566 C 51.1225 -0.372148 -5.0092 0
M  V30 567 C 53.1165 -2.01809 -6.04609 0
M  V30 568 C 50.8035 -1.33454 -5.9635 0
M  V30 569 C 51.8015 -2.15599 -6.48079 0
M  V30 570 O 51.4895 -3.10205 -7.41639 0
M  V30 571 H 51.2215 0.0693996 -0.672428 0
M  V30 572 H 53.7755 -0.444548 -2.00532 0
M  V30 573 H 52.0055 1.61852 -3.51199 0
M  V30 574 H 53.6945 1.34537 -3.82955 0
M  V30 575 H 54.4605 -0.959538 -4.75413 0
M  V30 576 H 50.3395 0.257304 -4.60281 0
M  V30 577 H 53.8835 -2.65966 -6.44909 0
M  V30 578 H 49.7805 -1.43485 -6.29351 0
M  V30 579 H 50.5485 -3.05237 -7.59455 0
M  V30 580 N 53.2116 1.57565 -0.0334293 0
M  V30 581 C 54.4886 1.83282 0.683163 0
M  V30 582 C 54.8686 0.91823 1.90084 0
M  V30 583 O 54.2166 -0.025113 2.28486 0
M  V30 584 C 54.4266 3.32599 1.0573 0
M  V30 585 C 55.7746 3.99179 1.44711 0
M  V30 586 O 56.7986 3.3712 1.15015 0
M  V30 587 O 55.6576 5.08565 2.0006 0
M  V30 588 H 52.7516 0.755869 0.335546 0
M  V30 589 H 55.2976 1.69589 -0.0614402 0
M  V30 590 H 54.0696 3.90834 0.190828 0
M  V30 591 H 53.6926 3.51415 1.85993 0
M  V30 592 N 54.6897 -0.239769 1.55765 0
M  V30 593 C 55.5997 -1.31831 1.94056 0
M  V30 594 C 56.6157 -1.52275 0.841925 0
M  V30 595 O 57.7917 -1.65759 1.14394 0
M  V30 596 C 54.8567 -2.65156 2.23368 0
M  V30 597 C 53.9177 -2.53173 3.46701 0
M  V30 598 C 53.1507 -3.8014 3.74606 0
M  V30 599 O 53.3737 -4.82343 3.04469 0
M  V30 600 O 52.3077 -3.78344 4.68123 0
M  V30 601 H 56.1337 -1.02347 2.85935 0
M  V30 602 H 53.7187 -0.441123 1.42739 0
M  V30 603 H 55.6007 -3.43929 2.43497 0
M  V30 604 H 54.2757 -2.94358 1.34666 0
M  V30 605 H 53.1827 -1.72662 3.31871 0
M  V30 606 H 54.5157 -2.28915 4.35728 0
M  V30 607 N 56.1678 -1.49265 -0.50573 0
M  V30 608 C 57.4078 -1.60128 -1.27038 0
M  V30 609 C 57.7718 -0.279557 -1.89954 0
M  V30 610 O 58.9728 -0.263329 -2.67507 0
M  V30 611 C 57.2438 -2.72507 -2.31246 0
M  V30 612 S 58.8028 -3.0329 -3.17113 0
M  V30 613 H 55.6208 -0.564863 -0.4318 0
M  V30 614 H 58.2228 -1.86902 -0.573397 0
M  V30 615 H 56.9268 -3.67068 -1.83546 0
M  V30 616 H 56.4578 -2.4771 -3.05619 0
M  V30 617 H 58.4728 -2.44448 -4.31809 0
M  V30 618 N 57.6459 0.756429 -1.3826 0
M  V30 619 C 58.8939 1.51248 -1.34047 0
M  V30 620 C 59.2149 1.94875 0.0698372 0
M  V30 621 O 58.4849 1.67436 1.01696 0
M  V30 622 H 57.0649 0.561018 -0.493222 0
M  V30 623 H 59.7269 0.899347 -1.7291 0
M  V30 624 H 58.8229 2.40472 -1.98947 0
M  V30 625 N 59.124 1.23083 0.984299 0
M  V30 626 C 60.071 1.00854 2.07598 0
M  V30 627 C 61.041 -0.0726709 1.65941 0
M  V30 628 O 62.226 0.0786535 1.90638 0
M  V30 629 C 59.366 0.601645 3.39815 0
M  V30 630 C 58.479 1.75456 3.94765 0
M  V30 631 C 57.614 1.29482 5.15177 0
M  V30 632 C 56.653 2.41873 5.62284 0
M  V30 633 N 55.79 1.96885 6.73929 0
M  V30 634 H 60.63 1.943 2.25946 0
M  V30 635 H 58.167 0.968001 1.10762 0
M  V30 636 H 60.125 0.346854 4.15756 0
M  V30 637 H 58.755 -0.295803 3.21442 0
M  V30 638 H 57.807 2.12346 3.15616 0
M  V30 639 H 59.119 2.59965 4.25699 0
M  V30 640 H 58.273 0.997923 5.98437 0
M  V30 641 H 57.012 0.420046 4.85888 0
M  V30 642 H 56.017 2.72342 4.77608 0
M  V30 643 H 57.242 3.29881 5.93595 0
M  V30 644 H 55.188 1.11782 6.46406 0
M  V30 645 H 55.105 2.74956 7.04227 0
M  V30 646 H 56.373 1.70289 7.60672 0
M  V30 647 N 60.6021 -1.18246 1.0419 0
M  V30 648 C 61.5501 -2.23968 0.627792 0
M  V30 649 C 62.5441 -1.65828 -0.346019 0
M  V30 650 O 63.7501 -1.78733 -0.213175 0
M  V30 651 H 60.1251 -0.728939 0.184802 0
M  V30 652 H 62.0961 -2.56202 1.52981 0
M  V30 653 C 60.8451 -3.47699 0.00796591 0
M  V30 654 H 60.1681 -3.92734 0.748347 0
M  V30 655 H 61.6081 -4.23294 -0.24455 0
M  V30 656 C 60.0671 -3.13153 -1.24246 0
M  V30 657 O 60.5971 -3.27003 -2.33307 0
M  V30 658 N 58.8031 -2.67467 -1.13622 0
M  V30 659 H 58.3501 -2.56396 -0.248734 0
M  V30 660 H 58.3081 -2.44724 -1.97377 0
M  V30 661 N 62.0802 -0.821533 -1.34494 0
M  V30 662 C 63.4912 -0.467956 -1.8074 0
M  V30 663 C 63.8422 1.01151 -1.68116 0
M  V30 664 O 62.9672 1.78707 -1.22036 0
M  V30 665 C 63.5622 -0.842627 -3.28154 0
M  V30 666 C 62.1212 -0.541439 -3.72485 0
M  V30 667 C 61.2682 -1.06028 -2.56229 0
M  V30 668 H 64.2192 -1.01183 -1.22261 0
M  V30 669 H 64.2402 -0.145876 -3.8022 0
M  V30 670 H 63.7522 -1.91945 -3.37311 0
M  V30 671 H 61.8532 0.526034 -3.68868 0
M  V30 672 H 61.9662 -1.08453 -4.66663 0
M  V30 673 H 60.3302 -0.481892 -2.501 0
M  V30 674 H 61.1132 -2.14352 -2.68157 0
M  V30 675 N 63.5583 1.46682 -0.576371 0
M  V30 676 C 64.4683 2.34032 0.163141 0
M  V30 677 C 65.4843 1.49367 0.892501 0
M  V30 678 O 66.6603 1.82252 0.857106 0
M  V30 679 C 63.7253 3.26435 1.16795 0
M  V30 680 C 62.7863 4.26998 0.443944 0
M  V30 681 C 62.0193 5.14986 1.40088 0
M  V30 682 O 62.2423 5.05785 2.637 0
M  V30 683 O 61.1763 5.94906 0.914917 0
M  V30 684 H 65.0023 2.98607 -0.55388 0
M  V30 685 H 62.5873 1.45554 -0.336821 0
M  V30 686 H 64.4693 3.83459 1.74748 0
M  V30 687 H 63.1443 2.64465 1.86655 0
M  V30 688 H 62.0513 3.7368 -0.177271 0
M  V30 689 H 63.3843 4.91736 -0.213566 0
M  V30 690 N 65.0364 0.313813 1.54444 0
M  V30 691 C 65.9664 -0.549454 2.26943 0
M  V30 692 C 66.9474 -1.12741 1.27372 0
M  V30 693 O 68.1324 -1.15436 1.56167 0
M  V30 694 C 65.2624 -1.71523 3.01989 0
M  V30 695 C 64.2164 -1.26703 4.08816 0
M  V30 696 C 63.5424 -2.51898 4.71647 0
M  V30 697 C 64.8424 -0.388962 5.2085 0
M  V30 698 H 66.5364 0.0552661 2.99349 0
M  V30 699 H 64.0824 0.0280207 1.43973 0
M  V30 700 H 66.0354 -2.32535 3.51433 0
M  V30 701 H 64.7594 -2.34639 2.27183 0
M  V30 702 H 63.4184 -0.679896 3.6024 0
M  V30 703 H 63.0664 -3.13356 3.93468 0
M  V30 704 H 62.7664 -2.22605 5.43802 0
M  V30 705 H 64.2904 -3.1369 5.23861 0
M  V30 706 H 65.7044 -0.905107 5.6611 0
M  V30 707 H 64.1014 -0.18924 5.99802 0
M  V30 708 H 65.1714 0.582699 4.81386 0
M  V30 709 N 66.5145 -1.57545 0.0417849 0
M  V30 710 C 67.7395 -1.97035 -0.647455 0
M  V30 711 C 68.1645 -0.918775 -1.64135 0
M  V30 712 O 67.5225 0.119006 -1.80909 0
M  V30 713 C 67.5705 -3.35609 -1.31905 0
M  V30 714 O 66.6745 -3.3287 -2.43457 0
M  V30 715 H 66.0155 -0.64211 -0.169086 0
M  V30 716 H 68.5455 -2.04318 0.107399 0
M  V30 717 H 68.5555 -3.72126 -1.67291 0
M  V30 718 H 67.2305 -4.11685 -0.590586 0
M  V30 719 H 65.8075 -3.08087 -2.10088 0
M  V30 720 N 67.9926 0.231505 -1.5589 0
M  V30 721 C 69.2406 0.955461 -1.78088 0
M  V30 722 C 69.5616 1.85262 -0.608533 0
M  V30 723 O 68.8316 1.92277 0.375035 0
M  V30 724 H 67.4116 0.355787 -0.656829 0
M  V30 725 H 70.0736 0.245751 -1.93344 0
M  V30 726 H 69.1696 1.56814 -2.69844 0
M  V30 727 N 69.4707 1.49531 0.497807 0
M  V30 728 C 70.6957 1.63159 1.28039 0
M  V30 729 C 71.1207 0.30418 1.85624 0
M  V30 730 O 70.4787 -0.728618 1.66015 0
M  V30 731 C 70.5267 2.70537 2.38416 0
M  V30 732 O 69.6307 2.29931 3.42353 0
M  V30 733 H 68.9717 0.546001 0.377861 0
M  V30 734 H 71.5017 1.9574 0.59558 0
M  V30 735 H 71.5117 2.92802 2.84132 0
M  V30 736 H 70.1867 3.6689 1.95869 0
M  V30 737 H 68.7637 2.18009 3.02533 0
M  V30 738 N 70.9488 -0.749086 1.3866 0
M  V30 739 C 71.8788 -1.8764 1.38973 0
M  V30 740 C 72.8598 -1.68178 0.255004 0
M  V30 741 O 74.0448 -1.88704 0.458754 0
M  V30 742 C 71.1748 -3.25222 1.21851 0
M  V30 743 C 70.1288 -3.59295 2.32575 0
M  V30 744 C 69.4548 -4.95663 2.00555 0
M  V30 745 C 70.7548 -3.63709 3.7485 0
M  V30 746 H 72.4488 -1.87635 2.3331 0
M  V30 747 H 69.9948 -0.901329 1.12303 0
M  V30 748 H 71.9478 -4.03746 1.20695 0
M  V30 749 H 70.6718 -3.25719 0.239775 0
M  V30 750 H 69.3308 -2.83093 2.32925 0
M  V30 751 H 68.9788 -4.92724 1.01154 0
M  V30 752 H 68.6788 -5.19429 2.74714 0
M  V30 753 H 70.2028 -5.7656 2.01024 0
M  V30 754 H 71.6168 -4.32338 3.76506 0
M  V30 755 H 70.0138 -3.98986 4.48252 0
M  V30 756 H 71.0838 -2.63834 4.06841 0
M  V30 757 N 72.4269 -1.23603 -0.977757 0
M  V30 758 C 73.3599 -0.962772 -2.06896 0
M  V30 759 C 74.3379 0.0998743 -1.62293 0
M  V30 760 O 75.5219 -0.0349421 -1.88468 0
M  V30 761 C 72.6489 -0.45095 -3.35685 0
M  V30 762 C 71.6949 -1.50061 -3.99229 0
M  V30 763 S 72.5279 -3.07884 -4.38142 0
M  V30 764 C 73.6839 -2.58378 -5.7008 0
M  V30 765 H 73.9169 -1.88677 -2.29757 0
M  V30 766 H 71.4499 -1.06876 -1.11431 0
M  V30 767 H 73.4079 -0.162261 -4.10179 0
M  V30 768 H 72.0689 0.452179 -3.10828 0
M  V30 769 H 71.2619 -1.09269 -4.92013 0
M  V30 770 H 70.8639 -1.73878 -3.31123 0
M  V30 771 H 73.1559 -2.00563 -6.47133 0
M  V30 772 H 74.0989 -3.49711 -6.15717 0
M  V30 773 H 74.5069 -1.99143 -5.28207 0
M  V30 774 N 73.905 1.17692 -1.04816 0
M  V30 775 C 75.133 1.91786 -0.776254 0
M  V30 776 C 75.548 1.76604 0.667577 0
M  V30 777 O 74.905 1.10067 1.45573 0
M  V30 778 C 74.956 3.42967 -1.14263 0
M  V30 779 O 74.677 3.57678 -2.52978 0
M  V30 780 C 76.178 4.34144 -0.896311 0
M  V30 781 H 73.398 0.608624 -0.282519 0
M  V30 782 H 75.942 1.49268 -1.39783 0
M  V30 783 H 74.097 3.83245 -0.565874 0
M  V30 784 H 74.511 4.51319 -2.67229 0
M  V30 785 H 75.985 5.38744 -1.20244 0
M  V30 786 H 76.462 4.38876 0.168636 0
M  V30 787 H 77.068 3.99574 -1.45672 0
M  V30 788 N 75.3831 0.828654 1.34056 0
M  V30 789 C 76.3131 0.269443 2.3194 0
M  V30 790 C 77.2941 -0.617247 1.58506 0
M  V30 791 O 78.4791 -0.542931 1.86456 0
M  V30 792 C 75.6091 -0.564793 3.42677 0
M  V30 793 C 74.5631 0.225241 4.27407 0
M  V30 794 C 73.8891 -0.7321 5.29664 0
M  V30 795 C 75.1891 1.43663 5.02154 0
M  V30 796 H 76.8831 1.08728 2.7896 0
M  V30 797 H 74.4291 0.524283 1.34117 0
M  V30 798 H 76.3821 -0.966233 4.10173 0
M  V30 799 H 75.1061 -1.41574 2.9432 0
M  V30 800 H 73.7651 0.608117 3.61521 0
M  V30 801 H 73.4131 -1.57916 4.77568 0
M  V30 802 H 73.1131 -0.20767 5.87233 0
M  V30 803 H 74.6371 -1.13128 6.00029 0
M  V30 804 H 76.0511 1.1089 5.62473 0
M  V30 805 H 74.4481 1.89711 5.69324 0
M  V30 806 H 75.5181 2.21181 4.31517 0
M  V30 807 N 76.8612 -1.46375 0.584142 0
M  V30 808 C 78.0862 -2.07268 0.0740405 0
M  V30 809 C 78.5112 -1.42979 -1.22223 0
M  V30 810 O 77.8692 -0.514092 -1.73859 0
M  V30 811 C 77.9172 -3.60518 -0.0767769 0
M  V30 812 O 77.0212 -3.96533 -1.13292 0
M  V30 813 H 76.3622 -0.660961 0.0634524 0
M  V30 814 H 78.8922 -1.87991 0.807492 0
M  V30 815 H 78.9022 -4.07021 -0.282489 0
M  V30 816 H 77.5772 -4.06702 0.86986 0
M  V30 817 H 76.1542 -3.61738 -0.905553 0
M  V30 818 N 78.3393 -0.321999 -1.54275 0
M  V30 819 C 79.2873 0.560206 -2.25753 0
M  V30 820 C 80.2813 1.11984 -1.27106 0
M  V30 821 O 81.4873 1.06806 -1.44888 0
M  V30 822 H 77.8623 0.199304 -0.725108 0
M  V30 823 H 79.8333 -0.0649365 -2.98329 0
M  V30 824 C 78.5823 1.71023 -3.02731 0
M  V30 825 H 77.9053 1.28885 -3.78456 0
M  V30 826 H 79.3453 2.30314 -3.55993 0
M  V30 827 C 77.8043 2.62692 -2.10938 0
M  V30 828 O 78.3343 3.64364 -1.6912 0
M  V30 829 N 76.5403 2.30891 -1.76459 0
M  V30 830 H 76.0873 1.48253 -2.10663 0
M  V30 831 H 76.0453 2.92487 -1.1532 0
M  V30 832 N 79.8174 1.5752 -0.0501392 0
M  V30 833 C 81.0634 1.92936 0.624798 0
M  V30 834 C 81.3964 0.928685 1.70555 0
M  V30 835 O 80.6714 -0.0454779 1.94447 0
M  V30 836 C 80.9544 3.38737 1.22185 0
M  V30 837 C 80.8074 4.49552 0.149218 0
M  V30 838 C 82.1264 3.84913 2.13378 0
M  V30 839 H 79.2454 0.701604 0.225657 0
M  V30 840 H 81.8874 1.89671 -0.111693 0
M  V30 841 H 80.0374 3.4165 1.84953 0
M  V30 842 H 81.7094 4.58768 -0.482648 0
M  V30 843 H 79.9524 4.30638 -0.522841 0
M  V30 844 H 80.6234 5.48653 0.606966 0
M  V30 845 H 83.0994 3.8387 1.60572 0
M  V30 846 H 81.9754 4.87584 2.52097 0
M  V30 847 H 82.2364 3.21611 3.03346 0
M  V30 848 N 81.2955 -0.223234 1.56011 0
M  V30 849 C 82.5205 -0.968978 1.83373 0
M  V30 850 C 82.9455 -1.77227 0.630254 0
M  V30 851 O 82.3035 -1.76345 -0.420959 0
M  V30 852 C 82.3515 -1.86363 3.08709 0
M  V30 853 O 81.4555 -2.95873 2.87285 0
M  V30 854 H 80.7965 -0.274461 0.604622 0
M  V30 855 H 83.3265 -0.237056 2.03222 0
M  V30 856 H 83.3365 -2.27376 3.38768 0
M  V30 857 H 82.0115 -1.27319 3.95933 0
M  V30 858 H 80.5885 -2.58818 2.68454 0
M  V30 859 N 82.7736 -1.49793 -0.48987 0
M  V30 860 C 84.0136 -1.61466 -1.25332 0
M  V30 861 C 84.3776 -0.299688 -1.89647 0
M  V30 862 O 85.5786 -0.291687 -2.67213 0
M  V30 863 C 83.8496 -2.74944 -2.28343 0
M  V30 864 S 85.4086 -3.06637 -3.13878 0
M  V30 865 H 82.2266 -0.569411 -0.425784 0
M  V30 866 H 84.8286 -1.875 -0.553541 0
M  V30 867 H 83.5326 -3.68994 -1.79643 0
M  V30 868 H 83.0636 -2.50938 -3.02975 0
M  V30 869 H 85.0786 -2.49015 -4.29192 0
M  V30 870 N 84.2517 0.741722 -1.39055 0
M  V30 871 C 85.1817 1.869 -1.39966 0
M  V30 872 C 86.1627 1.6804 -0.26392 0
M  V30 873 O 87.3477 1.88458 -0.468755 0
M  V30 874 C 84.4777 3.24572 -1.23574 0
M  V30 875 C 83.4317 3.58056 -2.34477 0
M  V30 876 C 82.7577 4.94593 -2.0318 0
M  V30 877 C 84.0577 3.61716 -3.76774 0
M  V30 878 H 85.7517 1.86395 -2.34302 0
M  V30 879 H 83.2977 0.895361 -1.1278 0
M  V30 880 H 85.2507 4.031 -1.22834 0
M  V30 881 H 83.9747 3.25587 -0.257045 0
M  V30 882 H 82.6337 2.81854 -2.34423 0
M  V30 883 H 82.2817 4.92181 -1.03765 0
M  V30 884 H 81.9817 5.17964 -2.77465 0
M  V30 885 H 83.5057 5.75486 -2.04079 0
M  V30 886 H 84.9197 4.30335 -3.78794 0
M  V30 887 H 83.3167 3.96603 -4.50362 0
M  V30 888 H 84.3867 2.61672 -4.08235 0
M  V30 889 N 85.7298 1.2412 0.971189 0
M  V30 890 C 86.9548 1.10667 1.75407 0
M  V30 891 C 87.3798 -0.337048 1.85056 0
M  V30 892 O 86.7378 -1.24396 1.31892 0
M  V30 893 C 86.7858 1.74726 3.15441 0
M  V30 894 O 85.8898 1.01566 3.99697 0
M  V30 895 H 85.2308 0.387341 0.539317 0
M  V30 896 H 87.7608 1.64358 1.2185 0
M  V30 897 H 87.7708 1.80341 3.6598 0
M  V30 898 H 86.4458 2.79773 3.07734 0
M  V30 899 H 85.0228 1.03713 3.58187 0
M  V30 900 N 87.2079 -1.17134 1.05439 0
M  V30 901 C 88.1559 -2.23289 0.651511 0
M  V30 902 C 89.1499 -1.66186 -0.328411 0
M  V30 903 O 90.3559 -1.78949 -0.194206 0
M  V30 904 H 86.7309 -0.726938 0.192523 0
M  V30 905 H 88.7019 -2.54565 1.55689 0
M  V30 906 C 87.4509 -3.47671 0.0448436 0
M  V30 907 H 86.7739 -3.91918 0.78996 0
M  V30 908 H 88.2139 -4.2353 -0.19964 0
M  V30 909 C 86.6729 -3.14453 -1.20918 0
M  V30 910 O 87.2029 -3.29459 -2.29825 0
M  V30 911 N 85.4089 -2.68657 -1.10779 0
M  V30 912 H 84.9559 -2.56646 -0.221526 0
M  V30 913 H 84.9139 -2.46804 -1.9477 0
M  V30 914 N 88.686 -0.835752 -1.33615 0
M  V30 915 C 89.914 -0.443344 -2.02094 0
M  V30 916 C 90.329 0.954522 -1.62894 0
M  V30 917 O 89.686 1.61982 -0.840723 0
M  V30 918 C 89.737 -0.550775 -3.5728 0
M  V30 919 O 89.458 -1.89356 -3.95065 0
M  V30 920 C 90.959 -0.154919 -4.43029 0
M  V30 921 H 88.179 -0.176359 -0.647409 0
M  V30 922 H 90.723 -1.12746 -1.70612 0
M  V30 923 H 88.878 0.0853997 -3.87306 0
M  V30 924 H 89.292 -1.87687 -4.89769 0
M  V30 925 H 90.766 -0.281144 -5.51284 0
M  V30 926 H 91.243 0.902863 -4.2982 0
M  V30 927 H 91.849 -0.765404 -4.18356 0
M  V30 928 N 90.1641 1.46063 -0.591896 0
M  V30 929 C 91.5751 1.85944 -0.167822 0
M  V30 930 C 91.9261 1.49429 1.27143 0
M  V30 931 O 91.0511 0.913515 1.96173 0
M  V30 932 C 91.6461 3.37489 -0.297794 0
M  V30 933 C 90.2051 3.76332 0.0714732 0
M  V30 934 C 89.3521 2.7006 -0.629509 0
M  V30 935 H 92.3031 1.37087 -0.799555 0
M  V30 936 H 92.3241 3.77532 0.474349 0
M  V30 937 H 91.8361 3.64034 -1.3454 0
M  V30 938 H 89.9371 3.55405 1.11886 0
M  V30 939 H 90.0501 4.78088 -0.311245 0
M  V30 940 H 88.4141 2.54607 -0.0687867 0
M  V30 941 H 89.1971 2.99444 -1.67894 0
M  V30 942 N 91.6422 0.330177 1.54103 0
M  V30 943 C 92.6052 -0.520144 2.2322 0
M  V30 944 C 93.6052 -1.03828 1.22786 0
M  V30 945 O 94.7952 -0.929652 1.4732 0
M  V30 946 C 91.9272 -1.72317 2.94142 0
M  V30 947 H 93.1202 0.0841605 2.99782 0
M  V30 948 H 90.6732 0.0813433 1.56088 0
M  V30 949 H 91.4082 -2.36653 2.21734 0
M  V30 950 H 91.1932 -1.35898 3.67796 0
M  V30 951 H 92.6832 -2.3266 3.46784 0
M  V30 952 N 93.1203 -1.57491 0.0584922 0
M  V30 953 C 94.5363 -1.56792 -0.298091 0
M  V30 954 C 94.7363 -1.06679 -1.70944 0
M  V30 955 O 93.7923 -0.726672 -2.41818 0
M  V30 956 C 95.1053 -3.00461 -0.119879 0
M  V30 957 C 96.6533 -3.1242 -0.190428 0
M  V30 958 C 97.1283 -4.57982 -0.0406567 0
M  V30 959 N 98.6193 -4.63099 -0.0966958 0
M  V30 960 C 99.3543 -5.734 -0.00502943 0
M  V30 961 N 98.8503 -6.9266 0.139402 0
M  V30 962 N 100.643 -5.62067 -0.0611391 0
M  V30 963 H 92.7943 -1.88386 0.98105 0
M  V30 964 H 95.0573 -0.867865 0.381463 0
M  V30 965 H 94.7633 -3.41187 0.85349 0
M  V30 966 H 94.6373 -3.66843 -0.877833 0
M  V30 967 H 97.0243 -2.71589 -1.15427 0
M  V30 968 H 97.1053 -2.48702 0.598405 0
M  V30 969 H 96.7493 -4.995 0.919897 0
M  V30 970 H 96.6793 -5.19715 -0.848727 0
M  V30 971 H 99.1703 -3.77331 -0.207277 0
M  V30 972 H 99.4833 -7.72536 0.201855 0
M  V30 973 H 97.8283 -6.94781 0.174586 0
M  V30 974 H 101.019 -4.67782 -0.172583 0
M  V30 975 H 101.192 -6.47999 0.0137562 0
M  V30 976 N 94.5984 0.214957 -1.56127 0
M  V30 977 C 95.5454 1.26642 -1.92952 0
M  V30 978 C 96.5154 1.46244 -0.78753 0
M  V30 979 O 97.7004 1.59704 -1.04399 0
M  V30 980 C 94.8404 2.6104 -2.25726 0
M  V30 981 C 93.9534 2.49183 -3.52891 0
M  V30 982 C 93.0884 3.76149 -3.7508 0
M  V30 983 C 92.1274 3.59041 -4.95738 0
M  V30 984 N 91.2644 4.77972 -5.14283 0
M  V30 985 H 96.1044 0.945384 -2.82607 0
M  V30 986 H 93.6414 0.455489 -1.3987 0
M  V30 987 H 95.5994 3.39313 -2.42739 0
M  V30 988 H 94.2294 2.91227 -1.39236 0
M  V30 989 H 93.2814 1.6231 -3.44034 0
M  V30 990 H 94.5934 2.32466 -4.41318 0
M  V30 991 H 93.7474 4.62865 -3.92226 0
M  V30 992 H 92.4864 3.95799 -2.84947 0
M  V30 993 H 91.4914 2.7071 -4.78535 0
M  V30 994 H 92.7164 3.40856 -5.87362 0
M  V30 995 H 90.6624 4.97923 -4.27093 0
M  V30 996 H 90.5794 4.64006 -5.96853 0
M  V30 997 H 91.8474 5.66096 -5.35869 0
M  V30 998 N 96.0765 1.50051 0.48192 0
M  V30 999 C 97.3255 1.59741 1.23149 0
M  V30 1000 C 97.6385 0.298163 1.93314 0
M  V30 1001 O 98.8445 0.273835 2.70116 0
M  V30 1002 C 97.3005 2.81926 2.23708 0
M  V30 1003 C 96.9085 4.18685 1.59396 0
M  V30 1004 C 98.6525 3.00956 2.99375 0
M  V30 1005 C 96.5595 5.3207 2.58178 0
M  V30 1006 H 95.4895 0.594838 0.46334 0
M  V30 1007 H 98.1405 1.76467 0.503169 0
M  V30 1008 H 96.5225 2.58736 2.99786 0
M  V30 1009 H 97.6965 4.52088 0.891811 0
M  V30 1010 H 96.0115 4.05171 0.960503 0
M  V30 1011 H 98.6085 3.82836 3.73283 0
M  V30 1012 H 98.9515 2.12258 3.58123 0
M  V30 1013 H 99.4845 3.24277 2.30411 0
M  V30 1014 H 96.2235 6.22888 2.04184 0
M  V30 1015 H 95.7435 5.03098 3.26577 0
M  V30 1016 H 97.4225 5.62196 3.20225 0
M  V30 1017 N 97.5546 -0.734337 1.39446 0
M  V30 1018 C 98.7826 -1.52358 1.39981 0
M  V30 1019 C 99.1976 -1.88799 -0.0054975 0
M  V30 1020 O 98.5546 -1.54146 -0.976998 0
M  V30 1021 C 98.6056 -2.81072 2.27333 0
M  V30 1022 O 98.3266 -2.46178 3.62392 0
M  V30 1023 C 99.8276 -3.75096 2.36259 0
M  V30 1024 H 97.0476 -0.470806 0.478103 0
M  V30 1025 H 99.5916 -0.907339 1.83269 0
M  V30 1026 H 97.7466 -3.39026 1.87457 0
M  V30 1027 H 98.1606 -3.28866 4.08592 0
M  V30 1028 H 99.6346 -4.62305 3.01626 0
M  V30 1029 H 100.112 -4.16892 1.38194 0
M  V30 1030 H 100.718 -3.23061 2.76608 0
M  V30 1031 N 99.0327 -1.24633 -0.964593 0
M  V30 1032 C 100.281 -1.08573 -1.70459 0
M  V30 1033 C 100.602 0.375655 -1.91347 0
M  V30 1034 O 99.8717 1.26779 -1.49345 0
M  V30 1035 H 98.4517 -0.398784 -0.631649 0
M  V30 1036 H 101.114 -1.56601 -1.16026 0
M  V30 1037 H 100.21 -1.58623 -2.68785 0
M  V30 1038 N 100.511 1.16574 -1.06058 0
M  V30 1039 C 101.788 1.83048 -0.689416 0
M  V30 1040 C 102.168 1.94122 0.829443 0
M  V30 1041 O 101.516 1.48249 1.7388 0
M  V30 1042 C 101.726 3.20186 -1.38859 0
M  V30 1043 C 103.074 3.95989 -1.53226 0
M  V30 1044 O 104.098 3.29696 -1.3483 0
M  V30 1045 O 102.957 5.14813 -1.83384 0
M  V30 1046 H 100.051 0.790258 -0.243764 0
M  V30 1047 H 102.597 1.23797 -1.16071 0
M  V30 1048 H 101.369 3.07146 -2.4244 0
M  V30 1049 H 100.992 3.87112 -0.907216 0
M  V30 1050 N 101.989 0.842826 1.3317 0
M  V30 1051 C 102.939 0.250877 2.26616 0
M  V30 1052 C 103.923 -0.596427 1.49437 0
M  V30 1053 O 105.115 -0.447747 1.71243 0
M  V30 1054 C 102.244 -0.569779 3.38539 0
M  V30 1055 C 101.33 0.289254 4.23112 0
M  V30 1056 N 101.721 1.36987 4.86897 0
M  V30 1057 C 100.019 0.0769631 4.45934 0
M  V30 1058 C 100.72 1.89737 5.49886 0
M  V30 1059 N 99.6959 1.19827 5.30229 0
M  V30 1060 H 103.498 1.07718 2.73448 0
M  V30 1061 H 101.012 0.687693 1.47121 0
M  V30 1062 H 103.009 -1.01018 4.04476 0
M  V30 1063 H 101.669 -1.39401 2.93253 0
M  V30 1064 H 102.68 1.75277 4.87338 0
M  V30 1065 H 99.3569 -0.713507 4.11358 0
M  V30 1066 H 100.747 2.80253 6.10662 0
M  V30 1067 N 103.467 -1.45747 0.599634 0
M  V30 1068 C 104.397 -2.33235 -0.111306 0
M  V30 1069 C 105.378 -1.46359 -0.866781 0
M  V30 1070 O 106.563 -1.75146 -0.838904 0
M  V30 1071 C 103.693 -3.28932 -1.11451 0
M  V30 1072 C 102.647 -4.25381 -0.472772 0
M  V30 1073 C 101.973 -5.1071 -1.58365 0
M  V30 1074 C 103.273 -5.18831 0.600948 0
M  V30 1075 H 104.967 -2.92927 0.61919 0
M  V30 1076 H 102.513 -1.40857 0.299215 0
M  V30 1077 H 104.466 -3.89002 -1.62036 0
M  V30 1078 H 103.19 -2.67381 -1.8755 0
M  V30 1079 H 101.849 -3.66598 0.0121472 0
M  V30 1080 H 101.497 -4.45533 -2.33473 0
M  V30 1081 H 101.197 -5.7604 -1.15982 0
M  V30 1082 H 102.721 -5.73647 -2.09194 0
M  V30 1083 H 104.135 -5.73019 0.179491 0
M  V30 1084 H 102.532 -5.92595 0.946076 0
M  V30 1085 H 103.602 -4.6174 1.48068 0
M  V30 1086 N 104.945 -0.338344 -1.53925 0
M  V30 1087 C 106.194 0.260732 -2.00008 0
M  V30 1088 C 106.507 1.52073 -1.23017 0
M  V30 1089 O 107.713 2.19672 -1.5955 0
M  V30 1090 C 106.169 0.51515 -3.56194 0
M  V30 1091 C 105.777 -0.728645 -4.42035 0
M  V30 1092 C 107.521 1.07337 -4.10706 0
M  V30 1093 C 105.428 -0.445315 -5.89721 0
M  V30 1094 H 104.358 0.101205 -0.747177 0
M  V30 1095 H 107.009 -0.452866 -1.77824 0
M  V30 1096 H 105.391 1.28932 -3.74423 0
M  V30 1097 H 106.565 -1.50352 -4.35581 0
M  V30 1098 H 104.88 -1.20813 -3.98489 0
M  V30 1099 H 107.477 1.30022 -5.18651 0
M  V30 1100 H 107.82 2.0273 -3.63602 0
M  V30 1101 H 108.353 0.360034 -3.96167 0
M  V30 1102 H 105.092 -1.36883 -6.41049 0
M  V30 1103 H 104.612 0.291569 -5.99091 0
M  V30 1104 H 106.291 -0.0606218 -6.46972 0
M  V30 1105 N 106.423 1.57458 -0.0668435 0
M  V30 1106 C 107.353 2.15468 0.899764 0
M  V30 1107 C 108.334 1.08042 1.31381 0
M  V30 1108 O 109.519 1.36054 1.38574 0
M  V30 1109 C 106.649 2.71232 2.16911 0
M  V30 1110 C 105.603 3.83781 1.89463 0
M  V30 1111 C 104.929 4.26127 3.22986 0
M  V30 1112 C 106.229 5.08238 1.20381 0
M  V30 1113 H 107.923 2.96488 0.416529 0
M  V30 1114 H 105.469 1.4262 0.198908 0
M  V30 1115 H 107.422 3.10458 2.84945 0
M  V30 1116 H 106.146 1.87426 2.67468 0
M  V30 1117 H 104.805 3.45051 1.23836 0
M  V30 1118 H 104.453 3.39249 3.71374 0
M  V30 1119 H 104.153 5.01993 3.05413 0
M  V30 1120 H 105.677 4.67966 3.92225 0
M  V30 1121 H 107.091 5.44811 1.78475 0
M  V30 1122 H 105.488 5.89349 1.13083 0
M  V30 1123 H 106.558 4.84558 0.182153 0
M  V30 1124 N 107.901 -0.206675 1.56239 0
M  V30 1125 C 108.831 -1.25909 1.96645 0
M  V30 1126 C 109.812 -1.48097 0.836734 0
M  V30 1127 O 110.997 -1.6003 1.10019 0
M  V30 1128 C 108.127 -2.6058 2.29599 0
M  V30 1129 C 107.081 -2.53024 3.452 0
M  V30 1130 C 106.407 -3.91861 3.63798 0
M  V30 1131 C 107.707 -2.06524 4.79734 0
M  V30 1132 H 109.401 -0.923369 2.84806 0
M  V30 1133 H 106.947 -0.442735 1.37025 0
M  V30 1134 H 108.9 -3.34375 2.56459 0
M  V30 1135 H 107.624 -2.95869 1.38307 0
M  V30 1136 H 106.283 -1.81684 3.18412 0
M  V30 1137 H 105.931 -4.24483 2.69857 0
M  V30 1138 H 105.631 -3.87683 4.4156 0
M  V30 1139 H 107.155 -4.67296 3.93022 0
M  V30 1140 H 108.569 -2.70072 5.05702 0
M  V30 1141 H 106.966 -2.13374 5.60885 0
M  V30 1142 H 108.036 -1.01802 4.74093 0
M  V30 1143 N 109.379 -1.50304 -0.473955 0
M  V30 1144 C 110.311 -1.65109 -1.58971 0
M  V30 1145 C 111.324 -0.532676 -1.53839 0
M  V30 1146 O 112.513 -0.805751 -1.59279 0
M  V30 1147 C 109.613 -1.61684 -2.97845 0
M  V30 1148 C 108.786 -2.8951 -3.27876 0
M  V30 1149 C 107.845 -2.78768 -4.4629 0
M  V30 1150 O 106.871 -3.52722 -4.46739 0
M  V30 1151 N 108.073 -1.9213 -5.47783 0
M  V30 1152 H 110.838 -2.61347 -1.46689 0
M  V30 1153 H 108.399 -1.47732 -0.662324 0
M  V30 1154 H 110.391 -1.52114 -3.75024 0
M  V30 1155 H 108.961 -0.731925 -3.03911 0
M  V30 1156 H 108.181 -3.13228 -2.39336 0
M  V30 1157 H 109.469 -3.74199 -3.4475 0
M  V30 1158 H 108.867 -1.31353 -5.50239 0
M  V30 1159 H 107.424 -1.88466 -6.23958 0
M  V30 1160 N 110.857 0.726932 -1.39834 0
M  V30 1161 C 111.804 1.841 -1.39197 0
M  V30 1162 C 112.774 1.642 -0.250502 0
M  V30 1163 O 113.959 1.85494 -0.446846 0
M  V30 1164 C 111.099 3.21697 -1.24919 0
M  V30 1165 C 110.212 3.53247 -2.48678 0
M  V30 1166 C 109.347 4.80289 -2.26928 0
M  V30 1167 C 108.386 5.04707 -3.4632 0
M  V30 1168 N 107.523 6.22956 -3.23836 0
M  V30 1169 H 112.363 1.83979 -2.34427 0
M  V30 1170 H 109.9 0.898876 -1.16442 0
M  V30 1171 H 111.858 4.01137 -1.1465 0
M  V30 1172 H 110.488 3.21076 -0.333153 0
M  V30 1173 H 109.54 2.68447 -2.69519 0
M  V30 1174 H 110.852 3.67205 -3.37582 0
M  V30 1175 H 110.006 5.67725 -2.13947 0
M  V30 1176 H 108.745 4.68519 -1.35431 0
M  V30 1177 H 107.75 4.1573 -3.5979 0
M  V30 1178 H 108.975 5.18357 -4.38729 0
M  V30 1179 H 106.921 6.12459 -2.35011 0
M  V30 1180 H 106.838 6.37539 -4.063 0
M  V30 1181 H 108.106 7.1321 -3.14566 0
M  V30 1182 N 112.336 1.25143 0.95797 0
M  V30 1183 C 113.585 1.0909 1.69654 0
M  V30 1184 C 113.898 -0.368548 1.92097 0
M  V30 1185 O 115.104 -0.649455 2.63618 0
M  V30 1186 C 113.56 1.90395 3.05414 0
M  V30 1187 C 113.168 3.4081 2.90779 0
M  V30 1188 C 114.912 1.82901 3.83076 0
M  V30 1189 C 112.819 4.14423 4.21909 0
M  V30 1190 H 111.749 0.404625 0.636235 0
M  V30 1191 H 114.4 1.4931 1.06672 0
M  V30 1192 H 112.782 1.42996 3.69281 0
M  V30 1193 H 113.956 3.95859 2.35865 0
M  V30 1194 H 112.271 3.49361 2.26575 0
M  V30 1195 H 114.868 2.35196 4.80195 0
M  V30 1196 H 115.211 0.796224 4.08615 0
M  V30 1197 H 115.744 2.28033 3.25954 0
M  V30 1198 H 112.483 5.18102 4.01561 0
M  V30 1199 H 112.003 3.64159 4.76601 0
M  V30 1200 H 113.682 4.21956 4.90471 0
M  V30 1201 N 113.814 -1.1601 1.06675 0
M  V30 1202 C 115.054 -1.88304 0.795037 0
M  V30 1203 C 115.418 -1.80062 -0.666466 0
M  V30 1204 O 116.619 -2.47319 -1.05293 0
M  V30 1205 C 114.89 -3.33664 1.28076 0
M  V30 1206 S 116.449 -4.23768 1.13868 0
M  V30 1207 H 113.267 -0.649928 0.288296 0
M  V30 1208 H 115.869 -1.4001 1.36445 0
M  V30 1209 H 114.573 -3.37203 2.33927 0
M  V30 1210 H 114.104 -3.87009 0.706253 0
M  V30 1211 H 116.119 -4.96148 0.0719668 0
M  V30 1212 N 115.292 -0.849877 -1.32721 0
M  V30 1213 C 116.703 -0.506188 -1.79707 0
M  V30 1214 C 117.054 0.975627 -1.70223 0
M  V30 1215 O 116.179 1.76078 -1.25799 0
M  V30 1216 C 116.774 -0.912044 -3.26293 0
M  V30 1217 C 115.333 -0.620326 -3.71253 0
M  V30 1218 C 114.48 -1.11439 -2.53922 0
M  V30 1219 H 117.431 -1.03754 -1.20087 0
M  V30 1220 H 117.452 -0.226493 -3.79825 0
M  V30 1221 H 116.964 -1.99057 -3.33164 0
M  V30 1222 H 115.065 0.447674 -3.69901 0
M  V30 1223 H 115.178 -1.18327 -4.64258 0
M  V30 1224 H 113.542 -0.534834 -2.49021 0
M  V30 1225 H 114.325 -2.19992 -2.6355 0
M  V30 1226 N 116.77 1.45427 -0.607355 0
M  V30 1227 C 118.186 1.57283 -0.270985 0
M  V30 1228 C 118.386 1.59875 1.22647 0
M  V30 1229 O 117.442 1.52893 2.00948 0
M  V30 1230 C 118.755 2.85566 -0.941952 0
M  V30 1231 C 120.303 2.9924 -0.917849 0
M  V30 1232 C 120.778 4.30293 -1.56882 0
M  V30 1233 N 122.269 4.37051 -1.5343 0
M  V30 1234 C 123.004 5.37123 -2.00715 0
M  V30 1235 N 122.5 6.43734 -2.56084 0
M  V30 1236 N 124.293 5.28479 -1.91484 0
M  V30 1237 H 116.444 1.41988 -1.57966 0
M  V30 1238 H 118.707 0.67885 -0.661715 0
M  V30 1239 H 118.413 2.8955 -1.99633 0
M  V30 1240 H 118.287 3.74322 -0.465096 0
M  V30 1241 H 120.674 2.94822 0.127984 0
M  V30 1242 H 120.755 2.11895 -1.43297 0
M  V30 1243 H 120.399 4.35469 -2.61398 0
M  V30 1244 H 120.329 5.16454 -1.02873 0
M  V30 1245 H 122.82 3.60615 -1.12982 0
M  V30 1246 H 123.133 7.16341 -2.89958 0
M  V30 1247 H 121.478 6.44485 -2.60122 0
M  V30 1248 H 124.669 4.44098 -1.47967 0
M  V30 1249 H 124.842 6.0632 -2.28648 0
M  V30 1250 N 118.248 0.346503 1.53744 0
M  V30 1251 C 119.178 -0.501193 2.28058 0
M  V30 1252 C 120.159 -1.10014 1.29734 0
M  V30 1253 O 121.344 -1.12097 1.58581 0
M  V30 1254 C 118.474 -1.65078 3.05559 0
M  V30 1255 C 117.428 -1.18003 4.11411 0
M  V30 1256 C 116.754 -2.41837 4.76884 0
M  V30 1257 C 118.054 -0.278394 5.21558 0
M  V30 1258 H 119.748 0.11875 2.99164 0
M  V30 1259 H 117.294 0.0585531 1.43881 0
M  V30 1260 H 119.247 -2.25028 3.56287 0
M  V30 1261 H 117.971 -2.29767 2.32109 0
M  V30 1262 H 116.63 -0.603331 3.61601 0
M  V30 1263 H 116.278 -3.0494 4.00026 0
M  V30 1264 H 115.978 -2.1102 5.48402 0
M  V30 1265 H 117.502 -3.02508 5.30397 0
M  V30 1266 H 118.916 -0.784823 5.67903 0
M  V30 1267 H 117.313 -0.0619707 6.00068 0
M  V30 1268 H 118.383 0.684677 4.80042 0
M  V30 1269 N 119.726 -1.57421 0.075193 0
M  V30 1270 C 120.956 -1.97659 -0.601203 0
M  V30 1271 C 121.364 -0.952427 -1.63479 0
M  V30 1272 O 120.707 0.0688241 -1.83571 0
M  V30 1273 C 120.769 -3.34218 -1.32434 0
M  V30 1274 C 120.433 -4.5484 -0.443826 0
M  V30 1275 C 121.43 -5.19034 0.299969 0
M  V30 1276 C 119.115 -5.00952 -0.367709 0
M  V30 1277 C 121.109 -6.27695 1.10807 0
M  V30 1278 C 118.796 -6.09484 0.444058 0
M  V30 1279 C 119.794 -6.72719 1.18061 0
M  V30 1280 O 119.482 -7.79161 1.97898 0
M  V30 1281 H 119.214 -0.65494 -0.167422 0
M  V30 1282 H 121.768 -2.04886 0.145157 0
M  V30 1283 H 119.998 -3.23615 -2.11685 0
M  V30 1284 H 121.687 -3.59038 -1.89331 0
M  V30 1285 H 122.453 -4.84351 0.250776 0
M  V30 1286 H 118.332 -4.51509 -0.930638 0
M  V30 1287 H 121.876 -6.76982 1.68347 0
M  V30 1288 H 117.773 -6.43601 0.494803 0
M  V30 1289 H 118.541 -7.96055 1.90367 0
M  V30 1290 N 121.204 0.198386 -1.56346 0
M  V30 1291 C 122.432 0.935572 -1.84539 0
M  V30 1292 C 122.847 1.76989 -0.657281 0
M  V30 1293 O 122.204 1.78626 0.374043 0
M  V30 1294 C 122.255 1.8344 -3.11499 0
M  V30 1295 O 121.976 1.03377 -4.25728 0
M  V30 1296 C 123.477 2.68355 -3.52846 0
M  V30 1297 H 120.697 0.273126 -0.612897 0
M  V30 1298 H 123.241 0.20663 -2.03453 0
M  V30 1299 H 121.396 2.51701 -2.94492 0
M  V30 1300 H 121.81 1.64599 -4.98003 0
M  V30 1301 H 123.284 3.27085 -4.44657 0
M  V30 1302 H 123.761 3.41901 -2.75681 0
M  V30 1303 H 124.367 2.05471 -3.72373 0
M  V30 1304 N 122.682 1.50554 0.465978 0
M  V30 1305 C 123.93 1.61479 1.21528 0
M  V30 1306 C 124.251 0.319596 1.92363 0
M  V30 1307 O 123.521 -0.663194 1.84333 0
M  V30 1308 H 122.101 0.595055 0.451573 0
M  V30 1309 H 124.763 1.87355 0.53704 0
M  V30 1310 H 123.859 2.42846 1.96042 0
M  V30 1311 N 124.16 -0.719506 1.40217 0
M  V30 1312 C 125.571 -1.29848 1.34151 0
M  V30 1313 C 125.922 -1.96196 0.0131349 0
M  V30 1314 O 125.047 -1.973 -0.88892 0
M  V30 1315 C 125.642 -2.36118 2.42968 0
M  V30 1316 C 124.201 -2.8965 2.40374 0
M  V30 1317 C 123.348 -1.63393 2.24049 0
M  V30 1318 H 126.299 -0.51591 1.5008 0
M  V30 1319 H 126.32 -3.16871 2.10649 0
M  V30 1320 H 125.832 -1.878 3.39636 0
M  V30 1321 H 123.933 -3.42208 1.47392 0
M  V30 1322 H 124.046 -3.4171 3.35814 0
M  V30 1323 H 122.41 -1.88312 1.71495 0
M  V30 1324 H 123.193 -1.17104 3.2271 0
M  V30 1325 N 125.638 -1.25649 -0.95132 0
M  V30 1326 C 126.586 -1.06118 -2.06982 0
M  V30 1327 C 127.58 0.00889169 -1.69398 0
M  V30 1328 O 128.786 -0.146988 -1.79399 0
M  V30 1329 H 125.161 -0.326248 -0.677544 0
M  V30 1330 H 127.132 -2.00932 -2.2061 0
M  V30 1331 C 125.881 -0.700145 -3.40578 0
M  V30 1332 H 125.204 -1.51537 -3.69968 0
M  V30 1333 H 126.644 -0.603211 -4.19687 0
M  V30 1334 C 125.103 0.59403 -3.31622 0
M  V30 1335 O 125.633 1.63522 -3.66911 0
M  V30 1336 N 123.839 0.58089 -2.84735 0
M  V30 1337 H 123.386 -0.266783 -2.56215 0
M  V30 1338 H 123.344 1.44695 -2.79125 0
M  V30 1339 N 127.117 1.15442 -1.07289 0
M  V30 1340 C 128.345 1.90096 -0.81676 0
M  V30 1341 C 128.76 1.7798 0.629966 0
M  V30 1342 O 128.117 1.1313 1.43206 0
M  V30 1343 C 128.168 3.40466 -1.21512 0
M  V30 1344 O 127.889 3.52232 -2.60508 0
M  V30 1345 C 129.39 4.32145 -0.988198 0
M  V30 1346 H 126.61 0.602495 -0.295366 0
M  V30 1347 H 129.154 1.4627 -1.42918 0
M  V30 1348 H 127.309 3.81958 -0.647039 0
M  V30 1349 H 127.723 4.45549 -2.76742 0
M  V30 1350 H 129.197 5.36072 -1.31645 0
M  V30 1351 H 129.674 4.39135 0.0755063 0
M  V30 1352 H 130.28 3.96395 -1.54115 0
M  V30 1353 N 128.595 0.856903 1.32268 0
M  V30 1354 C 129.527 0.260412 2.27716 0
M  V30 1355 C 130.54 -0.569137 1.52528 0
M  V30 1356 O 131.729 -0.39326 1.74114 0
M  V30 1357 C 128.829 -0.650477 3.32599 0
M  V30 1358 C 128.002 0.14372 4.37164 0
M  V30 1359 C 127.061 -0.69328 5.21613 0
M  V30 1360 O 126.087 -0.12599 5.69061 0
M  V30 1361 N 127.289 -2.00761 5.44679 0
M  V30 1362 H 130.054 1.08059 2.79541 0
M  V30 1363 H 127.615 0.717103 1.45152 0
M  V30 1364 H 129.607 -1.21581 3.86005 0
M  V30 1365 H 128.177 -1.37133 2.80915 0
M  V30 1366 H 127.397 0.890486 3.8401 0
M  V30 1367 H 128.685 0.68915 5.04111 0
M  V30 1368 H 128.083 -2.49181 5.07863 0
M  V30 1369 H 126.64 -2.52103 6.01072 0
M  V30 1370 N 130.073 -1.45103 0.615059 0
M  V30 1371 C 131.036 -2.29025 -0.0895485 0
M  V30 1372 C 132.036 -1.40174 -0.787906 0
M  V30 1373 O 133.226 -1.62217 -0.634933 0
M  V30 1374 C 130.358 -3.21376 -1.13711 0
M  V30 1375 H 131.551 -2.92807 0.648382 0
M  V30 1376 H 129.104 -1.51749 0.374444 0
M  V30 1377 H 129.839 -2.6241 -1.90556 0
M  V30 1378 H 129.624 -3.86834 -0.640475 0
M  V30 1379 H 131.114 -3.84459 -1.63036 0
M  V30 1380 N 131.551 -0.354651 -1.53558 0
M  V30 1381 C 132.791 0.238651 -2.03002 0
M  V30 1382 C 133.155 1.46878 -1.23656 0
M  V30 1383 O 134.356 2.13699 -1.63053 0
M  V30 1384 C 132.627 0.534175 -3.53386 0
M  V30 1385 S 134.186 1.10271 -4.24719 0
M  V30 1386 H 131.004 0.0702908 -0.707517 0
M  V30 1387 H 133.606 -0.494987 -1.8913 0
M  V30 1388 H 132.31 -0.368765 -4.0874 0
M  V30 1389 H 131.841 1.29718 -3.71398 0
M  V30 1390 H 133.856 2.38772 -4.34974 0
M  V30 1391 N 133.029 1.57378 -0.0835403 0
M  V30 1392 C 134.269 1.95808 0.586381 0
M  V30 1393 C 134.633 0.963706 1.66062 0
M  V30 1394 O 135.834 1.23608 2.38693 0
M  V30 1395 C 134.105 3.38808 1.13771 0
M  V30 1396 S 135.664 3.99225 1.82112 0
M  V30 1397 H 132.482 0.684675 0.191679 0
M  V30 1398 H 135.084 1.94843 -0.160194 0
M  V30 1399 H 133.788 4.08954 0.344197 0
M  V30 1400 H 133.319 3.43344 1.92038 0
M  V30 1401 H 135.334 3.87087 3.10449 0
M  V30 1402 N 134.507 -0.190092 1.56449 0
M  V30 1403 C 135.732 -0.929864 1.85387 0
M  V30 1404 C 136.157 -1.7585 0.667704 0
M  V30 1405 O 135.515 -1.77198 -0.383459 0
M  V30 1406 C 135.563 -1.79773 3.12593 0
M  V30 1407 O 134.667 -2.89713 2.93496 0
M  V30 1408 H 134.008 -0.261574 0.610307 0
M  V30 1409 H 136.538 -0.193896 2.03679 0
M  V30 1410 H 136.548 -2.20139 3.43515 0
M  V30 1411 H 135.223 -1.18892 3.98544 0
M  V30 1412 H 133.8 -2.53065 2.73884 0
M  V30 1413 N 135.985 -1.50799 -0.457987 0
M  V30 1414 C 136.948 -1.7005 -1.53674 0
M  V30 1415 C 137.948 -0.570881 -1.50325 0
M  V30 1416 O 139.138 -0.838126 -1.52712 0
M  V30 1417 C 136.27 -1.73788 -2.93276 0
M  V30 1418 H 137.463 -2.66306 -1.37917 0
M  V30 1419 H 135.016 -1.40477 -0.685271 0
M  V30 1420 H 135.751 -0.792717 -3.14462 0
M  V30 1421 H 135.536 -2.55864 -2.97113 0
M  V30 1422 H 137.026 -1.90591 -3.71571 0
M  V30 1423 N 137.463 0.71206 -1.40597 0
M  V30 1424 C 138.41 1.82613 -1.41142 0
M  V30 1425 C 139.38 1.63925 -0.267903 0
M  V30 1426 O 140.565 1.85009 -0.466495 0
M  V30 1427 C 137.705 3.20354 -1.28324 0
M  V30 1428 C 136.818 3.50589 -2.52411 0
M  V30 1429 C 135.953 4.77855 -2.32009 0
M  V30 1430 C 134.992 5.01005 -3.51654 0
M  V30 1431 N 134.129 6.19487 -3.30425 0
M  V30 1432 H 138.969 1.81482 -2.36365 0
M  V30 1433 H 136.506 0.886475 -1.17388 0
M  V30 1434 H 138.464 3.99899 -1.18899 0
M  V30 1435 H 137.094 3.20705 -0.367189 0
M  V30 1436 H 136.146 2.65573 -2.72351 0
M  V30 1437 H 137.458 3.63604 -3.41458 0
M  V30 1438 H 136.612 5.65424 -2.19956 0
M  V30 1439 H 135.351 4.67056 -1.40392 0
M  V30 1440 H 134.356 4.1189 -3.64179 0
M  V30 1441 H 135.581 5.13674 -4.44202 0
M  V30 1442 H 133.527 6.09932 -2.41494 0
M  V30 1443 H 133.444 6.33194 -4.13039 0
M  V30 1444 H 134.712 7.09834 -3.22113 0
M  V30 1445 N 138.941 1.26152 0.944643 0
M  V30 1446 C 139.873 1.03199 2.04652 0
M  V30 1447 C 140.886 -0.00642356 1.62799 0
M  V30 1448 O 142.075 0.233263 1.76969 0
M  V30 1449 C 139.175 0.540111 3.34568 0
M  V30 1450 C 138.348 1.64697 4.05208 0
M  V30 1451 C 137.407 1.15374 5.13396 0
M  V30 1452 O 136.433 1.85013 5.38293 0
M  V30 1453 N 137.635 0.00031529 5.805 0
M  V30 1454 H 140.4 1.9808 2.2491 0
M  V30 1455 H 137.961 1.17491 1.11389 0
M  V30 1456 H 139.953 0.194401 4.04233 0
M  V30 1457 H 138.523 -0.315021 3.11009 0
M  V30 1458 H 137.743 2.16379 3.29506 0
M  V30 1459 H 139.031 2.3903 4.49157 0
M  V30 1460 H 138.429 -0.581336 5.62705 0
M  V30 1461 H 136.986 -0.286346 6.51171 0
M  V30 1462 N 140.419 -1.14872 1.07899 0
M  V30 1463 C 141.349 -2.2193 0.725887 0
M  V30 1464 C 142.33 -1.67622 -0.28927 0
M  V30 1465 O 143.515 -1.93533 -0.160787 0
M  V30 1466 C 140.645 -3.47061 0.128856 0
M  V30 1467 C 139.599 -4.14363 1.07178 0
M  V30 1468 C 138.925 -5.33636 0.337229 0
M  V30 1469 C 140.225 -4.63492 2.40775 0
M  V30 1470 H 141.919 -2.51724 1.62097 0
M  V30 1471 H 139.465 -1.20991 0.780838 0
M  V30 1472 H 141.418 -4.21199 -0.130147 0
M  V30 1473 H 140.142 -3.16617 -0.80134 0
M  V30 1474 H 138.801 -3.42173 1.3158 0
M  V30 1475 H 138.449 -4.99449 -0.596606 0
M  V30 1476 H 138.149 -5.79609 0.965788 0
M  V30 1477 H 139.673 -6.10539 0.0861567 0
M  V30 1478 H 141.087 -5.2913 2.20669 0
M  V30 1479 H 139.484 -5.20148 2.99276 0
M  V30 1480 H 140.554 -3.78834 3.02676 0
M  V30 1481 N 141.898 -0.863906 -1.31812 0
M  V30 1482 C 143.144 -0.472535 -1.97218 0
M  V30 1483 C 143.477 0.971394 -1.68159 0
M  V30 1484 O 142.752 1.68309 -0.974798 0
M  V30 1485 C 143.035 -0.723054 -3.52766 0
M  V30 1486 C 142.888 -2.21608 -3.91421 0
M  V30 1487 C 144.207 -0.185522 -4.39709 0
M  V30 1488 H 141.326 -0.173158 -0.71637 0
M  V30 1489 H 143.968 -1.08403 -1.56041 0
M  V30 1490 H 142.118 -0.202577 -3.87971 0
M  V30 1491 H 143.79 -2.80334 -3.66347 0
M  V30 1492 H 142.033 -2.691 -3.40246 0
M  V30 1493 H 142.704 -2.34203 -4.99853 0
M  V30 1494 H 145.18 -0.630726 -4.11292 0
M  V30 1495 H 144.056 -0.390306 -5.47511 0
M  V30 1496 H 144.317 0.912229 -4.32586 0
M  V30 1497 N 143.376 1.44774 -0.622745 0
M  V30 1498 C 144.601 2.06999 -0.128968 0
M  V30 1499 C 145.026 1.4617 1.1839 0
M  V30 1500 O 144.384 0.560007 1.72434 0
M  V30 1501 C 144.432 3.60595 -0.0188351 0
M  V30 1502 O 143.536 3.99398 1.02739 0
M  V30 1503 H 142.877 0.659047 -0.0809544 0
M  V30 1504 H 145.407 1.85784 -0.85705 0
M  V30 1505 H 145.417 4.07627 0.174476 0
M  V30 1506 H 144.092 4.04252 -0.977384 0
M  V30 1507 H 142.669 3.64011 0.809326 0
M  V30 1508 N 144.854 0.36279 1.53368 0
M  V30 1509 C 145.784 -0.476976 2.28576 0
M  V30 1510 C 146.765 -1.08631 1.30894 0
M  V30 1511 O 147.95 -1.10409 1.59761 0
M  V30 1512 C 145.08 -1.61828 3.07293 0
M  V30 1513 C 144.034 -1.13633 4.1264 0
M  V30 1514 C 143.36 -2.36766 4.79423 0
M  V30 1515 C 144.66 -0.223061 5.21823 0
M  V30 1516 H 146.354 0.150474 2.99022 0
M  V30 1517 H 143.9 0.0738103 1.43811 0
M  V30 1518 H 145.853 -2.21237 3.58653 0
M  V30 1519 H 144.577 -2.27292 2.34533 0
M  V30 1520 H 143.236 -0.564945 3.62221 0
M  V30 1521 H 142.884 -3.0068 4.03238 0
M  V30 1522 H 142.584 -2.05192 5.50609 0
M  V30 1523 H 144.108 -2.96865 5.33576 0
M  V30 1524 H 145.522 -0.724545 5.68703 0
M  V30 1525 H 143.919 0.001678 6.001 0
M  V30 1526 H 144.989 0.735553 4.79289 0
M  V30 1527 N 146.332 -1.57332 0.0918853 0
M  V30 1528 C 147.242 -2.17368 -0.882505 0
M  V30 1529 C 148.258 -1.14226 -1.31257 0
M  V30 1530 O 149.434 -1.46582 -1.38115 0
M  V30 1531 C 146.499 -2.73962 -2.12476 0
M  V30 1532 C 145.56 -3.92048 -1.7492 0
M  V30 1533 C 144.793 -4.45933 -2.93223 0
M  V30 1534 O 145.016 -3.98764 -4.07852 0
M  V30 1535 O 143.95 -5.36999 -2.71875 0
M  V30 1536 H 147.776 -3.01031 -0.40172 0
M  V30 1537 H 145.361 -1.48813 -0.132291 0
M  V30 1538 H 147.243 -3.10147 -2.85283 0
M  V30 1539 H 145.918 -1.93347 -2.59613 0
M  V30 1540 H 144.825 -3.6068 -0.993025 0
M  V30 1541 H 146.158 -4.74017 -1.32548 0
M  V30 1542 N 147.81 0.181792 -1.56548 0
M  V30 1543 C 148.773 1.20894 -1.94724 0
M  V30 1544 C 149.773 1.37738 -0.829747 0
M  V30 1545 O 150.963 1.35323 -1.09697 0
M  V30 1546 C 148.095 2.57593 -2.23291 0
M  V30 1547 H 149.288 0.882275 -2.86629 0
M  V30 1548 H 146.841 0.423838 -1.50444 0
M  V30 1549 H 147.576 2.95291 -1.34067 0
M  V30 1550 H 147.361 2.46735 -3.04736 0
M  V30 1551 H 148.851 3.31637 -2.53785 0
M  V30 1552 N 149.288 1.51039 0.449983 0
M  V30 1553 C 150.513 1.6715 1.22783 0
M  V30 1554 C 150.938 0.363081 1.84563 0
M  V30 1555 O 150.296 -0.675433 1.68249 0
M  V30 1556 C 150.344 2.77985 2.29689 0
M  V30 1557 O 149.448 2.40707 3.34864 0
M  V30 1558 H 148.789 0.557746 0.360299 0
M  V30 1559 H 151.319 1.97535 0.533005 0
M  V30 1560 H 151.329 3.01693 2.74673 0
M  V30 1561 H 150.004 3.72935 1.84098 0
M  V30 1562 H 148.581 2.27523 2.95445 0
M  V30 1563 N 150.766 -0.704594 1.40972 0
M  V30 1564 C 151.696 -1.83124 1.44872 0
M  V30 1565 C 152.677 -1.67281 0.30838 0
M  V30 1566 O 153.862 -1.87149 0.518556 0
M  V30 1567 C 150.992 -3.21181 1.32136 0
M  V30 1568 C 149.946 -3.51714 2.43888 0
M  V30 1569 C 149.272 -4.89032 2.16222 0
M  V30 1570 C 150.572 -3.516 3.86232 0
M  V30 1571 H 152.266 -1.80117 2.39161 0
M  V30 1572 H 149.812 -0.865145 1.15114 0
M  V30 1573 H 151.765 -3.99702 1.33479 0
M  V30 1574 H 150.489 -3.24791 0.343279 0
M  V30 1575 H 149.148 -2.75539 2.41813 0
M  V30 1576 H 148.796 -4.89256 1.16778 0
M  V30 1577 H 148.496 -5.10426 2.911 0
M  V30 1578 H 150.02 -5.69873 2.19265 0
M  V30 1579 H 151.434 -4.2014 3.9007 0
M  V30 1580 H 149.831 -3.84523 4.60719 0
M  V30 1581 H 150.901 -2.50757 4.15029 0
M  V30 1582 N 152.244 -1.26651 -0.937939 0
M  V30 1583 C 153.469 -1.15279 -1.72411 0
M  V30 1584 C 153.894 0.287866 -1.85884 0
M  V30 1585 O 153.252 1.20855 -1.35143 0
M  V30 1586 C 153.3 -1.83028 -3.10698 0
M  V30 1587 O 152.404 -1.12128 -3.96864 0
M  V30 1588 H 151.745 -0.401504 -0.528858 0
M  V30 1589 H 154.275 -1.67531 -1.1745 0
M  V30 1590 H 154.285 -1.89981 -3.6107 0
M  V30 1591 H 152.96 -2.87833 -3.00208 0
M  V30 1592 H 151.537 -1.13173 -3.55312 0
M  V30 1593 N 153.722 1.14298 -1.08507 0
M  V30 1594 C 154.971 1.84708 -0.810305 0
M  V30 1595 C 155.284 1.83903 0.666271 0
M  V30 1596 O 156.49 2.50112 1.05624 0
M  V30 1597 C 154.946 3.31572 -1.39957 0
M  V30 1598 C 154.554 3.40791 -2.90801 0
M  V30 1599 C 156.298 4.07087 -1.20334 0
M  V30 1600 C 154.205 4.81872 -3.4286 0
M  V30 1601 H 153.135 0.691985 -0.299454 0
M  V30 1602 H 155.786 1.28841 -1.30661 0
M  V30 1603 H 154.168 3.87183 -0.830976 0
M  V30 1604 H 155.342 2.95225 -3.53806 0
M  V30 1605 H 153.657 2.78732 -3.0935 0
M  V30 1606 H 156.254 5.11225 -1.56693 0
M  V30 1607 H 156.597 4.16054 -0.143237 0
M  V30 1608 H 157.13 3.57779 -1.73893 0
M  V30 1609 H 153.869 4.78094 -4.48449 0
M  V30 1610 H 153.389 5.27972 -2.84615 0
M  V30 1611 H 155.068 5.50765 -3.39509 0
M  V30 1612 N 155.201 0.870884 1.31352 0
M  V30 1613 C 156.429 0.49677 2.00848 0
M  V30 1614 C 156.844 -0.910998 1.65367 0
M  V30 1615 O 156.201 -1.59696 0.883374 0
M  V30 1616 C 156.252 0.645308 3.55694 0
M  V30 1617 O 155.973 1.99764 3.89905 0
M  V30 1618 C 157.474 0.272326 4.42463 0
M  V30 1619 H 154.694 0.193462 0.642506 0
M  V30 1620 H 157.238 1.1723 1.67563 0
M  V30 1621 H 155.393 0.0173176 3.87396 0
M  V30 1622 H 155.807 2.00607 4.84621 0
M  V30 1623 H 157.281 0.427208 5.50344 0
M  V30 1624 H 157.758 -0.788587 4.32062 0
M  V30 1625 H 158.364 0.876054 4.1618 0
M  V30 1626 N 156.679 -1.44442 0.630414 0
M  V30 1627 C 157.626 -2.30678 -0.0749355 0
M  V30 1628 C 158.596 -1.4344 -0.837502 0
M  V30 1629 O 159.781 -1.72343 -0.818684 0
M  V30 1630 C 156.921 -3.28706 -1.05103 0
M  V30 1631 C 156.034 -4.31046 -0.286954 0
M  V30 1632 C 155.169 -5.16167 -1.2548 0
M  V30 1633 C 154.208 -6.10216 -0.479843 0
M  V30 1634 N 153.345 -6.88039 -1.39811 0
M  V30 1635 H 158.185 -2.90454 0.666386 0
M  V30 1636 H 155.722 -1.43107 0.340404 0
M  V30 1637 H 157.68 -3.84027 -1.63031 0
M  V30 1638 H 156.31 -2.70632 -1.75949 0
M  V30 1639 H 155.362 -3.78203 0.408243 0
M  V30 1640 H 156.674 -4.97794 0.316657 0
M  V30 1641 H 155.828 -5.76002 -1.90544 0
M  V30 1642 H 154.567 -4.49491 -1.89233 0
M  V30 1643 H 153.572 -5.49491 0.184295 0
M  V30 1644 H 154.797 -6.78928 0.152965 0
M  V30 1645 H 152.743 -6.24032 -2.02287 0
M  V30 1646 H 152.66 -7.51223 -0.848508 0
M  V30 1647 H 153.928 -7.52397 -2.03762 0
M  V30 1648 N 158.157 -0.370918 -1.53173 0
M  V30 1649 C 159.12 0.460778 -2.24521 0
M  V30 1650 C 160.12 1.00536 -1.25496 0
M  V30 1651 O 161.31 0.890266 -1.49733 0
M  V30 1652 C 158.442 1.64457 -2.98608 0
M  V30 1653 H 159.635 -0.163613 -2.99453 0
M  V30 1654 H 157.188 -0.122699 -1.55818 0
M  V30 1655 H 157.923 2.30691 -2.2793 0
M  V30 1656 H 157.708 1.26099 -3.7127 0
M  V30 1657 H 159.198 2.23384 -3.5283 0
M  V30 1658 N 159.635 1.57281 -0.100228 0
M  V30 1659 C 160.565 2.17328 0.853857 0
M  V30 1660 C 161.546 1.10804 1.2906 0
M  V30 1661 O 162.731 1.38963 1.35657 0
M  V30 1662 C 159.861 2.75772 2.11109 0
M  V30 1663 C 158.815 3.87713 1.81279 0
M  V30 1664 C 158.141 4.32882 3.13874 0
M  V30 1665 C 159.441 5.10677 1.09574 0
M  V30 1666 H 161.135 2.97305 0.353545 0
M  V30 1667 H 158.681 1.43009 0.168612 0
M  V30 1668 H 160.634 3.16433 2.78296 0
M  V30 1669 H 159.358 1.93057 2.63432 0
M  V30 1670 H 158.017 3.476 1.16489 0
M  V30 1671 H 157.665 3.47051 3.64095 0
M  V30 1672 H 157.365 5.08358 2.94696 0
M  V30 1673 H 158.889 4.7618 3.82211 0
M  V30 1674 H 160.303 5.48474 1.66879 0
M  V30 1675 H 158.7 5.91615 1.00557 0
M  V30 1676 H 159.77 4.84835 0.0793299 0
M  V30 1677 N 161.113 -0.173488 1.56642 0
M  V30 1678 C 162.043 -1.2171 1.99271 0
M  V30 1679 C 163.024 -1.46289 0.867959 0
M  V30 1680 O 164.209 -1.5766 1.13388 0
M  V30 1681 C 161.339 -2.55651 2.35074 0
M  V30 1682 C 160.293 -2.45645 3.50489 0
M  V30 1683 C 159.619 -3.84056 3.72028 0
M  V30 1684 C 160.919 -1.96302 4.84007 0
M  V30 1685 H 162.613 -0.86275 2.867 0
M  V30 1686 H 160.159 -0.413571 1.37933 0
M  V30 1687 H 162.112 -3.2886 2.63494 0
M  V30 1688 H 160.836 -2.92869 1.44552 0
M  V30 1689 H 159.495 -1.7489 3.22194 0
M  V30 1690 H 159.143 -4.18664 2.788 0
M  V30 1691 H 158.843 -3.7823 4.49684 0
M  V30 1692 H 160.367 -4.58854 4.02846 0
M  V30 1693 H 161.781 -2.59284 5.11317 0
M  V30 1694 H 160.178 -2.01429 5.65284 0
M  V30 1695 H 161.248 -0.917226 4.76146 0
M  V30 1696 N 162.591 -1.51276 -0.441967 0
M  V30 1697 C 163.819 -1.67516 -1.21434 0
M  V30 1698 C 164.234 -0.37055 -1.85128 0
M  V30 1699 O 163.591 0.650498 -1.70513 0
M  V30 1700 C 163.642 -2.78748 -2.30177 0
M  V30 1701 O 163.363 -4.04154 -1.69089 0
M  V30 1702 C 164.864 -3.06217 -3.20541 0
M  V30 1703 H 162.084 -0.562276 -0.366178 0
M  V30 1704 H 164.628 -1.97666 -0.524244 0
M  V30 1705 H 162.783 -2.5121 -2.94911 0
M  V30 1706 H 163.197 -4.65894 -2.40922 0
M  V30 1707 H 164.671 -3.8764 -3.92987 0
M  V30 1708 H 165.148 -2.18439 -3.81026 0
M  V30 1709 H 165.754 -3.35397 -2.61513 0
M  V30 1710 N 164.069 0.697108 -1.41344 0
M  V30 1711 C 165.485 1.00751 -1.2378 0
M  V30 1712 C 165.685 2.01105 -0.126066 0
M  V30 1713 O 164.741 2.47295 0.51004 0
M  V30 1714 C 166.054 1.53359 -2.58653 0
M  V30 1715 C 167.602 1.6525 -2.65822 0
M  V30 1716 C 168.077 2.2126 -4.01009 0
M  V30 1717 N 169.568 2.28622 -4.02847 0
M  V30 1718 C 170.303 2.72984 -5.04249 0
M  V30 1719 N 169.799 3.16962 -6.16041 0
M  V30 1720 N 171.592 2.72534 -4.91611 0
M  V30 1721 H 163.743 0.0322662 -2.12375 0
M  V30 1722 H 166.006 0.0768853 -0.944877 0
M  V30 1723 H 165.712 0.870773 -3.4075 0
M  V30 1724 H 165.586 2.51597 -2.81032 0
M  V30 1725 H 167.973 2.30644 -1.84086 0
M  V30 1726 H 168.054 0.655614 -2.47256 0
M  V30 1727 H 167.698 1.56482 -4.83193 0
M  V30 1728 H 167.628 3.21698 -4.16915 0
M  V30 1729 H 170.119 1.97585 -3.22131 0
M  V30 1730 H 170.432 3.49434 -6.89287 0
M  V30 1731 H 168.777 3.14875 -6.1958 0
M  V30 1732 H 171.968 2.37525 -4.0336 0
M  V30 1733 H 172.141 3.06789 -5.70775 0
M  V30 1734 N 165.547 1.27147 0.931209 0
M  V30 1735 C 166.787 1.14511 1.69312 0
M  V30 1736 C 167.151 -0.304638 1.89568 0
M  V30 1737 O 168.352 -0.553343 2.63043 0
M  V30 1738 C 166.623 1.90349 3.02493 0
M  V30 1739 S 168.182 1.93884 3.93642 0
M  V30 1740 H 165 0.408858 0.581684 0
M  V30 1741 H 167.602 1.61006 1.10893 0
M  V30 1742 H 166.306 2.94877 2.85439 0
M  V30 1743 H 165.837 1.44333 3.65966 0
M  V30 1744 H 167.852 1.03273 4.85334 0
M  V30 1745 N 167.025 -1.13721 1.09112 0
M  V30 1746 C 168.436 -1.6648 0.845068 0
M  V30 1747 C 168.787 -1.85911 -0.62701 0
M  V30 1748 O 167.912 -1.57556 -1.48341 0
M  V30 1749 C 168.507 -3.02413 1.52748 0
M  V30 1750 C 167.066 -3.52176 1.32849 0
M  V30 1751 C 166.213 -2.27492 1.58564 0
M  V30 1752 H 169.164 -0.976872 1.25072 0
M  V30 1753 H 169.185 -3.68223 0.958752 0
M  V30 1754 H 168.697 -2.88238 2.59885 0
M  V30 1755 H 166.798 -3.7156 0.278137 0
M  V30 1756 H 166.911 -4.32499 2.0611 0
M  V30 1757 H 165.275 -2.33923 1.00758 0
M  V30 1758 H 166.058 -2.15886 2.66924 0
M  V30 1759 N 168.503 -0.877838 -1.30888 0
M  V30 1760 C 169.466 -0.344265 -2.266 0
M  V30 1761 C 170.466 0.50922 -1.52524 0
M  V30 1762 O 171.656 0.317398 -1.71284 0
M  V30 1763 C 168.788 0.510198 -3.37061 0
M  V30 1764 H 169.981 -1.1893 -2.7531 0
M  V30 1765 H 167.534 -0.654088 -1.41956 0
M  V30 1766 H 168.269 1.37612 -2.93655 0
M  V30 1767 H 168.054 -0.101047 -3.9197 0
M  V30 1768 H 169.544 0.875537 -4.08319 0
M  V30 1769 N 169.982 1.44106 -0.638065 0
M  V30 1770 C 171.222 2.03858 -0.148733 0
M  V30 1771 C 171.586 1.49153 1.20903 0
M  V30 1772 O 172.787 2.00452 1.79088 0
M  V30 1773 C 171.058 3.57117 -0.142314 0
M  V30 1774 S 172.617 4.37897 0.281385 0
M  V30 1775 H 169.435 0.708069 -0.0644912 0
M  V30 1776 H 172.037 1.7639 -0.843009 0
M  V30 1777 H 170.741 3.94436 -1.13349 0
M  V30 1778 H 170.272 3.89205 0.572988 0
M  V30 1779 H 172.287 4.72218 1.52395 0
M  V30 1780 N 171.46 0.379036 1.52974 0
M  V30 1781 C 172.685 -0.209353 2.06341 0
M  V30 1782 C 173.11 -1.40583 1.24972 0
M  V30 1783 O 172.468 -1.79246 0.272155 0
M  V30 1784 C 172.516 -0.567786 3.56102 0
M  V30 1785 O 171.62 -1.66318 3.77375 0
M  V30 1786 H 170.961 -0.0272919 0.663439 0
M  V30 1787 H 173.491 0.543536 1.97248 0
M  V30 1788 H 173.501 -0.835003 3.99364 0
M  V30 1789 H 172.176 0.307013 4.14765 0
M  V30 1790 H 170.753 -1.39048 3.46006 0
M  V30 1791 N 172.938 -1.57226 0.108567 0
M  V30 1792 C 174.215 -1.86333 -0.594939 0
M  V30 1793 C 174.595 -1.00788 -1.85486 0
M  V30 1794 O 173.943 -0.0839293 -2.28346 0
M  V30 1795 C 174.153 -3.37265 -0.897405 0
M  V30 1796 C 175.501 -4.05629 -1.25501 0
M  V30 1797 O 176.525 -3.42224 -0.987998 0
M  V30 1798 O 175.384 -5.17531 -1.75567 0
M  V30 1799 H 172.478 -0.771018 -0.2991 0
M  V30 1800 H 175.024 -1.69102 0.142283 0
M  V30 1801 H 173.796 -3.913 -0.00413806 0
M  V30 1802 H 173.419 -3.59889 -1.69014 0
M  V30 1803 N 174.416 0.165178 -1.56732 0
M  V30 1804 C 175.364 1.22369 -1.97809 0
M  V30 1805 C 176.358 1.45488 -0.867741 0
M  V30 1806 O 177.564 1.45995 -1.05288 0
M  V30 1807 H 173.939 0.411486 -0.629431 0
M  V30 1808 H 175.91 0.850425 -2.86025 0
M  V30 1809 C 174.659 2.55403 -2.35934 0
M  V30 1810 H 173.982 2.38438 -3.20916 0
M  V30 1811 H 175.422 3.2814 -2.68514 0
M  V30 1812 C 173.881 3.14611 -1.20506 0
M  V30 1813 O 174.411 3.98626 -0.496016 0
M  V30 1814 N 172.617 2.7379 -0.97403 0
M  V30 1815 H 172.164 2.0557 -1.55238 0
M  V30 1816 H 172.122 3.1374 -0.203573 0
M  V30 1817 N 175.894 1.51508 0.433938 0
M  V30 1818 C 177.141 1.64345 1.18309 0
M  V30 1819 C 177.469 0.361315 1.91115 0
M  V30 1820 O 176.724 -0.654753 1.84422 0
M  V30 1821 C 177.023 2.79928 2.22205 0
M  V30 1822 C 176.689 4.19078 1.66387 0
M  V30 1823 C 175.351 4.56932 1.50887 0
M  V30 1824 C 177.703 5.05894 1.25381 0
M  V30 1825 C 175.031 5.79305 0.928608 0
M  V30 1826 C 177.383 6.2885 0.687823 0
M  V30 1827 C 176.047 6.65473 0.519755 0
M  V30 1828 H 175.317 0.601381 0.432923 0
M  V30 1829 H 177.964 1.85549 0.473676 0
M  V30 1830 H 176.269 2.52959 2.99197 0
M  V30 1831 H 177.966 2.87059 2.79997 0
M  V30 1832 H 174.556 3.89234 1.79428 0
M  V30 1833 H 178.74 4.77253 1.36175 0
M  V30 1834 H 173.996 6.06324 0.786186 0
M  V30 1835 H 178.17 6.95461 0.361581 0
M  V30 1836 H 175.797 7.6017 0.0679979 0
M  V30 1837 N 177.372 -0.689602 1.41712 0
M  V30 1838 C 178.618 -1.45181 1.41599 0
M  V30 1839 C 178.951 -1.94181 0.0270081 0
M  V30 1840 O 178.226 -1.6993 -0.946265 0
M  V30 1841 C 178.509 -2.65945 2.42787 0
M  V30 1842 C 178.362 -2.22672 3.90816 0
M  V30 1843 C 179.681 -3.68149 2.41151 0
M  V30 1844 H 176.8 -0.526576 0.515642 0
M  V30 1845 H 179.442 -0.784947 1.73028 0
M  V30 1846 H 177.592 -3.2284 2.16116 0
M  V30 1847 H 179.264 -1.71058 4.28412 0
M  V30 1848 H 177.507 -1.54394 4.05395 0
M  V30 1849 H 178.178 -3.0935 4.57172 0
M  V30 1850 H 180.654 -3.2094 2.64834 0
M  V30 1851 H 179.53 -4.50248 3.13955 0
M  V30 1852 H 179.791 -4.18259 1.43221 0
M  V30 1853 N 178.85 -1.27639 -0.924453 0
M  V30 1854 C 179.798 -1.10485 -2.04685 0
M  V30 1855 C 180.792 -0.0270421 -1.69378 0
M  V30 1856 O 181.998 -0.185008 -1.79047 0
M  V30 1857 H 178.373 -0.340546 -0.670472 0
M  V30 1858 H 180.344 -2.05566 -2.16298 0
M  V30 1859 C 179.093 -0.772229 -3.39016 0
M  V30 1860 H 178.416 -1.59351 -3.66671 0
M  V30 1861 H 179.856 -0.692097 -4.18313 0
M  V30 1862 C 178.315 0.523554 -3.32807 0
M  V30 1863 O 178.845 1.55702 -3.70297 0
M  V30 1864 N 177.051 0.520363 -2.85903 0
M  V30 1865 H 176.598 -0.32107 -2.55591 0
M  V30 1866 H 176.556 1.38742 -2.82131 0
M  V30 1867 N 180.328 1.1314 -1.09713 0
M  V30 1868 C 181.258 2.20748 -0.761102 0
M  V30 1869 C 182.239 1.68061 0.262566 0
M  V30 1870 O 183.424 1.93765 0.129977 0
M  V30 1871 C 180.554 3.46812 -0.184054 0
M  V30 1872 C 179.508 4.12606 -1.13757 0
M  V30 1873 C 178.834 5.33031 -0.422083 0
M  V30 1874 C 180.134 4.59603 -2.48118 0
M  V30 1875 H 181.828 2.49113 -1.66082 0
M  V30 1876 H 179.374 1.19734 -0.799987 0
M  V30 1877 H 181.327 4.21353 0.0631215 0
M  V30 1878 H 180.051 3.17851 0.750868 0
M  V30 1879 H 178.71 3.40036 -1.37007 0
M  V30 1880 H 178.358 5.00335 0.517072 0
M  V30 1881 H 178.058 5.77999 -1.05788 0
M  V30 1882 H 179.582 6.10325 -0.183277 0
M  V30 1883 H 180.996 5.25552 -2.29059 0
M  V30 1884 H 179.393 5.15321 -3.07514 0
M  V30 1885 H 180.463 3.73971 -3.08665 0
M  V30 1886 N 181.806 0.884767 1.30421 0
M  V30 1887 C 182.756 0.322846 2.25703 0
M  V30 1888 C 183.74 -0.548582 1.51259 0
M  V30 1889 O 184.932 -0.39304 1.72581 0
M  V30 1890 C 182.061 -0.461787 3.4018 0
M  V30 1891 C 181.147 0.423717 4.21978 0
M  V30 1892 N 181.538 1.52408 4.82292 0
M  V30 1893 C 179.836 0.218795 4.45463 0
M  V30 1894 C 180.537 2.07136 5.43571 0
M  V30 1895 N 179.513 1.36635 5.26148 0
M  V30 1896 H 183.315 1.16363 2.69883 0
M  V30 1897 H 180.829 0.73415 1.44859 0
M  V30 1898 H 182.826 -0.880985 4.07485 0
M  V30 1899 H 181.486 -1.30001 2.9754 0
M  V30 1900 H 182.497 1.90693 4.81515 0
M  V30 1901 H 179.174 -0.582275 4.1342 0
M  V30 1902 H 180.564 2.99538 6.01437 0
M  V30 1903 N 183.284 -1.43765 0.645699 0
M  V30 1904 C 184.524 -2.03776 0.159542 0
M  V30 1905 C 184.888 -1.49792 -1.2011 0
M  V30 1906 O 186.089 -2.01398 -1.78023 0
M  V30 1907 C 184.36 -3.57036 0.161251 0
M  V30 1908 S 185.919 -4.3804 -0.258159 0
M  V30 1909 H 182.737 -0.707717 0.0682454 0
M  V30 1910 H 185.339 -1.75941 0.852352 0
M  V30 1911 H 184.043 -3.9383 1.15439 0
M  V30 1912 H 183.574 -3.89503 -0.552339 0
M  V30 1913 H 185.589 -4.7302 -1.49889 0
M  V30 1914 N 184.763 -0.387143 -1.52771 0
M  V30 1915 C 185.713 0.465942 -2.23188 0
M  V30 1916 C 186.697 1.03138 -1.23496 0
M  V30 1917 O 187.889 0.957845 -1.48843 0
M  V30 1918 C 185.018 1.59384 -3.04059 0
M  V30 1919 C 184.104 1.04024 -4.11144 0
M  V30 1920 N 184.495 0.211416 -5.05358 0
M  V30 1921 C 182.793 1.31295 -4.26237 0
M  V30 1922 C 183.494 -0.0941698 -5.81624 0
M  V30 1923 N 182.47 0.509207 -5.4121 0
M  V30 1924 H 186.272 -0.173856 -2.93385 0
M  V30 1925 H 183.786 -0.19633 -1.61209 0
M  V30 1926 H 185.783 2.21738 -3.53041 0
M  V30 1927 H 184.443 2.23648 -2.35397 0
M  V30 1928 H 185.454 -0.151151 -5.17679 0
M  V30 1929 H 182.131 1.95679 -3.68803 0
M  V30 1930 H 183.521 -0.765572 -6.67524 0
M  V30 1931 N 186.241 1.57166 -0.116904 0
M  V30 1932 C 187.189 2.16457 0.851418 0
M  V30 1933 C 188.183 1.11323 1.27686 0
M  V30 1934 O 189.389 1.2963 1.24884 0
M  V30 1935 H 185.764 0.69271 0.292672 0
M  V30 1936 H 187.735 2.96605 0.32685 0
M  V30 1937 C 186.484 2.77689 2.09246 0
M  V30 1938 H 185.807 3.58285 1.77402 0
M  V30 1939 H 187.247 3.22716 2.7501 0
M  V30 1940 C 185.706 1.74667 2.88085 0
M  V30 1941 O 186.236 1.19877 3.83396 0
M  V30 1942 N 184.442 1.44656 2.52038 0
M  V30 1943 H 183.989 1.89402 1.74599 0
M  V30 1944 H 183.947 0.759675 3.05084 0
M  V30 1945 N 187.719 -0.156864 1.56817 0
M  V30 1946 C 188.947 -0.886316 1.86955 0
M  V30 1947 C 189.362 -1.75185 0.703975 0
M  V30 1948 O 188.719 -1.79555 -0.326552 0
M  V30 1949 C 188.77 -1.75117 3.16253 0
M  V30 1950 O 188.491 -0.920537 4.2832 0
M  V30 1951 C 189.992 -2.58905 3.59837 0
M  V30 1952 H 187.212 -0.25678 0.619923 0
M  V30 1953 H 189.756 -0.152615 2.0393 0
M  V30 1954 H 187.911 -2.43805 3.01062 0
M  V30 1955 H 188.325 -1.51337 5.02192 0
M  V30 1956 H 189.799 -3.1518 4.53172 0
M  V30 1957 H 190.276 -3.34472 2.84649 0
M  V30 1958 H 190.882 -1.95526 3.7769 0
M  V30 1959 N 189.197 -1.51736 -0.425897 0
M  V30 1960 C 190.437 -1.66636 -1.18371 0
M  V30 1961 C 190.801 -0.379854 -1.88205 0
M  V30 1962 O 192.002 -0.404758 -2.65735 0
M  V30 1963 C 190.273 -2.84382 -2.16476 0
M  V30 1964 S 191.832 -3.19673 -3.0059 0
M  V30 1965 H 188.65 -0.586957 -0.40125 0
M  V30 1966 H 191.252 -1.89679 -0.473518 0
M  V30 1967 H 189.956 -3.76281 -1.63831 0
M  V30 1968 H 189.487 -2.63562 -2.92059 0
M  V30 1969 H 191.502 -2.66994 -4.18245 0
M  V30 1970 N 190.675 0.682077 -1.42076 0
M  V30 1971 C 191.9 1.47558 -1.45744 0
M  V30 1972 C 192.325 1.87977 -0.0680981 0
M  V30 1973 O 191.683 1.55522 0.9318 0
M  V30 1974 C 191.731 2.70575 -2.38373 0
M  V30 1975 O 190.835 3.68573 -1.85007 0
M  V30 1976 H 190.176 0.443585 -0.494093 0
M  V30 1977 H 192.706 0.837238 -1.86686 0
M  V30 1978 H 192.716 3.18729 -2.54707 0
M  V30 1979 H 191.391 2.40495 -3.39315 0
M  V30 1980 H 189.968 3.2757 -1.78192 0
M  V30 1981 N 192.153 1.28127 0.917671 0
M  V30 1982 C 193.564 1.13622 1.48145 0
M  V30 1983 C 193.915 -0.275207 1.9426 0
M  V30 1984 O 193.04 -1.1691 1.82102 0
M  V30 1985 C 193.635 2.05648 2.69248 0
M  V30 1986 C 192.194 1.95219 3.21818 0
M  V30 1987 C 191.341 1.97618 1.94532 0
M  V30 1988 H 194.292 1.40874 0.730772 0
M  V30 1989 H 194.313 1.61818 3.44377 0
M  V30 1990 H 193.825 3.08365 2.35653 0
M  V30 1991 H 191.926 0.955244 3.60147 0
M  V30 1992 H 192.039 2.81976 3.87333 0
M  V30 1993 H 190.403 1.41973 2.11461 0
M  V30 1994 H 191.186 3.02007 1.63238 0
M  V30 1995 N 193.631 -1.12557 1.10312 0
M  V30 1996 C 194.579 -2.20325 0.745629 0
M  V30 1997 C 195.573 -1.67429 -0.25763 0
M  V30 1998 O 196.779 -1.79612 -0.118132 0
M  V30 1999 H 193.154 -0.718118 0.223182 0
M  V30 2000 H 195.125 -2.47733 1.66346 0
M  V30 2001 C 193.874 -3.47168 0.192262 0
M  V30 2002 H 193.197 -3.88215 0.955475 0
M  V30 2003 H 194.637 -4.23995 -0.0198274 0
M  V30 2004 C 193.096 -3.19298 -1.07472 0
M  V30 2005 O 193.626 -3.3891 -2.15645 0
M  V30 2006 N 191.832 -2.73113 -0.992847 0
M  V30 2007 H 191.379 -2.57354 -0.112474 0
M  V30 2008 H 191.337 -2.54842 -1.84127 0
M  V30 2009 N 195.109 -0.891671 -1.2995 0
M  V30 2010 C 196.041 -0.320695 -2.26945 0
M  V30 2011 C 197.054 0.528497 -1.53983 0
M  V30 2012 O 198.243 0.346959 -1.75096 0
M  V30 2013 C 195.343 0.562066 -3.34207 0
M  V30 2014 C 194.516 -0.259576 -4.36629 0
M  V30 2015 C 193.575 0.554739 -5.23268 0
M  V30 2016 O 192.601 -0.0249311 -5.69195 0
M  V30 2017 N 193.803 1.8625 -5.4981 0
M  V30 2018 H 196.568 -1.15432 -2.76578 0
M  V30 2019 H 194.129 -0.755336 -1.432 0
M  V30 2020 H 196.121 1.11304 -3.89093 0
M  V30 2021 H 194.691 1.29637 -2.84452 0
M  V30 2022 H 193.911 -0.991986 -3.81514 0
M  V30 2023 H 195.199 -0.822564 -5.02107 0
M  V30 2024 H 194.597 2.35628 -5.14292 0
M  V30 2025 H 193.154 2.36078 -6.07545 0
M  V30 2026 N 196.587 1.43421 -0.653314 0
M  V30 2027 C 197.812 2.06678 -0.172846 0
M  V30 2028 C 198.237 1.48648 1.15262 0
M  V30 2029 O 197.595 0.596457 1.71208 0
M  V30 2030 C 197.643 3.60474 -0.0953184 0
M  V30 2031 O 196.747 4.01487 0.942442 0
M  V30 2032 H 196.088 0.657181 -0.0949155 0
M  V30 2033 H 198.618 1.83925 -0.896265 0
M  V30 2034 H 198.628 4.07905 0.0879728 0
M  V30 2035 H 197.303 4.02088 -1.06291 0
M  V30 2036 H 195.88 3.65646 0.731932 0
M  V30 2037 N 198.065 0.39524 1.52563 0
M  V30 2038 C 198.995 -0.428384 2.29537 0
M  V30 2039 C 199.976 -1.05831 1.33169 0
M  V30 2040 O 201.161 -1.06995 1.62067 0
M  V30 2041 C 198.291 -1.55274 3.10656 0
M  V30 2042 C 197.245 -1.04855 4.14957 0
M  V30 2043 C 196.571 -2.26543 4.84337 0
M  V30 2044 C 197.871 -0.112324 5.22179 0
M  V30 2045 H 199.565 0.213867 2.98635 0
M  V30 2046 H 197.111 0.104298 1.43622 0
M  V30 2047 H 199.064 -2.1358 3.63265 0
M  V30 2048 H 197.788 -2.22266 2.39302 0
M  V30 2049 H 196.447 -0.487985 3.63338 0
M  V30 2050 H 196.095 -2.92059 4.09525 0
M  V30 2051 H 195.795 -1.93466 5.54837 0
M  V30 2052 H 197.319 -2.85481 5.39753 0
M  V30 2053 H 198.733 -0.603752 5.70112 0
M  V30 2054 H 197.13 0.128968 5.99961 0
M  V30 2055 H 198.2 0.837052 4.77621 0
M  V30 2056 N 199.544 -1.57102 0.125237 0
M  V30 2057 C 200.791 -1.95407 -0.531248 0
M  V30 2058 C 201.119 -1.0089 -1.66287 0
M  V30 2059 O 200.374 -0.0339431 -1.95671 0
M  V30 2060 C 200.673 -3.40096 -1.09862 0
M  V30 2061 C 200.339 -4.50815 -0.0876989 0
M  V30 2062 C 199.001 -4.80824 0.19026 0
M  V30 2063 C 201.353 -5.17724 0.600902 0
M  V30 2064 C 198.681 -5.75058 1.163 0
M  V30 2065 C 201.033 -6.13005 1.56231 0
M  V30 2066 C 199.697 -6.41403 1.8482 0
M  V30 2067 H 198.967 -0.715046 -0.194397 0
M  V30 2068 H 201.614 -1.90373 0.207463 0
M  V30 2069 H 199.919 -3.41855 -1.91422 0
M  V30 2070 H 201.616 -3.6705 -1.61478 0
M  V30 2071 H 198.206 -4.27444 -0.314528 0
M  V30 2072 H 202.39 -4.94691 0.399333 0
M  V30 2073 H 197.646 -5.95362 1.39117 0
M  V30 2074 H 201.82 -6.63934 2.10153 0
M  V30 2075 H 199.447 -7.14229 2.60349 0
M  V30 2076 N 201.022 0.148545 -1.56898 0
M  V30 2077 C 202.271 0.85984 -1.82454 0
M  V30 2078 C 202.584 1.82406 -0.706229 0
M  V30 2079 O 203.79 2.57938 -0.847349 0
M  V30 2080 C 202.246 1.57967 -3.2338 0
M  V30 2081 C 201.854 0.65794 -4.43142 0
M  V30 2082 C 203.598 2.27784 -3.58211 0
M  V30 2083 C 201.505 1.3793 -5.75091 0
M  V30 2084 H 200.435 0.324834 -0.68044 0
M  V30 2085 H 203.086 0.112588 -1.83154 0
M  V30 2086 H 201.468 2.37249 -3.17063 0
M  V30 2087 H 202.642 -0.0995497 -4.60692 0
M  V30 2088 H 200.957 0.0682643 -4.16344 0
M  V30 2089 H 203.554 2.8239 -4.54048 0
M  V30 2090 H 203.897 3.04204 -2.84193 0
M  V30 2091 H 204.43 1.55421 -3.66182 0
M  V30 2092 H 201.169 0.656982 -6.52199 0
M  V30 2093 H 200.689 2.10954 -5.61479 0
M  V30 2094 H 202.368 1.92063 -6.17835 0
M  V30 2095 N 202.5 1.5196 0.417844 0
M  V30 2096 C 203.448 1.75278 1.52907 0
M  V30 2097 C 204.442 0.619611 1.57662 0
M  V30 2098 O 205.648 0.801457 1.61173 0
M  V30 2099 H 202.023 0.554141 0.508362 0
M  V30 2100 H 203.994 2.68389 1.30422 0
M  V30 2101 C 202.743 1.91262 2.90369 0
M  V30 2102 H 202.066 2.77872 2.8745 0
M  V30 2103 H 203.506 2.11581 3.67436 0
M  V30 2104 C 201.965 0.677431 3.30019 0
M  V30 2105 O 202.495 -0.158799 4.01386 0
M  V30 2106 N 200.701 0.515851 2.85985 0
M  V30 2107 H 200.248 1.19744 2.28077 0
M  V30 2108 H 200.206 -0.309315 3.12875 0
M  V30 2109 N 203.978 -0.674533 1.42435 0
M  V30 2110 C 205.224 -1.43671 1.43131 0
M  V30 2111 C 205.557 -1.94142 0.0476021 0
M  V30 2112 O 204.832 -1.70924 -0.928188 0
M  V30 2113 C 205.115 -2.63355 2.45594 0
M  V30 2114 C 204.968 -2.18514 3.93156 0
M  V30 2115 C 206.287 -3.65571 2.45043 0
M  V30 2116 H 203.406 -0.521077 0.521198 0
M  V30 2117 H 206.048 -0.766551 1.7385 0
M  V30 2118 H 204.198 -3.2053 2.19528 0
M  V30 2119 H 205.87 -1.66504 4.30202 0
M  V30 2120 H 204.113 -1.50086 4.07009 0
M  V30 2121 H 204.784 -3.04484 4.60428 0
M  V30 2122 H 207.26 -3.18113 2.68223 0
M  V30 2123 H 206.136 -4.46893 3.18713 0
M  V30 2124 H 206.397 -4.16716 1.47649 0
M  V30 2125 N 205.456 -1.28612 -0.910864 0
M  V30 2126 C 206.684 -1.18792 -1.69399 0
M  V30 2127 C 207.099 0.253039 -1.87097 0
M  V30 2128 O 206.456 1.17071 -1.40003 0
M  V30 2129 C 206.507 -1.88511 -3.08457 0
M  V30 2130 O 206.228 -3.26979 -2.91576 0
M  V30 2131 C 207.729 -1.85029 -4.02839 0
M  V30 2132 H 204.949 -0.412233 -0.529438 0
M  V30 2133 H 207.493 -1.69788 -1.13984 0
M  V30 2134 H 205.648 -1.41379 -3.60681 0
M  V30 2135 H 206.062 -3.61936 -3.79608 0
M  V30 2136 H 207.536 -2.38395 -4.97867 0
M  V30 2137 H 208.013 -0.823303 -4.31414 0
M  V30 2138 H 208.619 -2.31853 -3.56545 0
M  V30 2139 N 206.934 1.1197 -1.10907 0
M  V30 2140 C 208.35 1.35591 -0.841852 0
M  V30 2141 C 208.55 1.94233 0.536246 0
M  V30 2142 O 207.606 2.1717 1.28816 0
M  V30 2143 C 208.919 2.29284 -1.94549 0
M  V30 2144 C 210.467 2.42862 -1.97451 0
M  V30 2145 C 210.942 3.39873 -3.07002 0
M  V30 2146 N 212.433 3.47433 -3.06341 0
M  V30 2147 C 213.168 4.22421 -3.87748 0
M  V30 2148 N 212.664 5.00432 -4.79103 0
M  V30 2149 N 214.457 4.17876 -3.75946 0
M  V30 2150 H 206.608 0.722664 -1.99728 0
M  V30 2151 H 208.871 0.380635 -0.868229 0
M  V30 2152 H 208.577 1.93378 -2.93765 0
M  V30 2153 H 208.451 3.29452 -1.83688 0
M  V30 2154 H 210.838 2.78046 -0.988645 0
M  V30 2155 H 210.919 1.42566 -2.12388 0
M  V30 2156 H 210.563 3.05417 -4.05811 0
M  V30 2157 H 210.493 4.40011 -2.89306 0
M  V30 2158 H 212.984 2.91784 -2.40147 0
M  V30 2159 H 213.297 5.55002 -5.37766 0
M  V30 2160 H 211.642 4.99612 -4.83128 0
M  V30 2161 H 214.833 3.56016 -3.03924 0
M  V30 2162 H 215.006 4.76061 -4.39624 0
M  V30 2163 N 208.412 0.89855 1.29475 0
M  V30 2164 C 209.658 0.524658 1.95896 0
M  V30 2165 C 209.991 -0.926468 1.70676 0
M  V30 2166 O 209.266 -1.65665 1.01908 0
M  V30 2167 C 209.549 0.81633 3.50725 0
M  V30 2168 C 209.402 2.31907 3.85408 0
M  V30 2169 C 210.721 0.302038 4.39062 0
M  V30 2170 H 207.84 0.19209 0.711527 0
M  V30 2171 H 210.482 1.12502 1.53112 0
M  V30 2172 H 208.632 0.305369 3.87298 0
M  V30 2173 H 210.304 2.89949 3.58786 0
M  V30 2174 H 208.547 2.78027 3.32992 0
M  V30 2175 H 209.218 2.47373 4.93468 0
M  V30 2176 H 211.694 0.739551 4.09475 0
M  V30 2177 H 210.57 0.535331 5.46283 0
M  V30 2178 H 210.831 -0.797216 4.34853 0
M  V30 2179 N 209.89 -1.43072 0.660911 0
M  V30 2180 C 210.853 -2.29194 -0.0166406 0
M  V30 2181 C 211.853 -1.42609 -0.742912 0
M  V30 2182 O 213.043 -1.64155 -0.583004 0
M  V30 2183 C 210.175 -3.24831 -1.0343 0
M  V30 2184 H 211.368 -2.90596 0.741208 0
M  V30 2185 H 208.921 -1.5048 0.422532 0
M  V30 2186 H 209.656 -2.68339 -1.82111 0
M  V30 2187 H 209.441 -3.88676 -0.517082 0
M  V30 2188 H 210.931 -3.89451 -1.50723 0
M  V30 2189 N 211.368 -0.403325 -1.52352 0
M  V30 2190 C 212.3 0.4603 -2.2453 0
M  V30 2191 C 213.313 1.01505 -1.27282 0
M  V30 2192 O 214.502 0.914982 -1.53266 0
M  V30 2193 C 211.602 1.65208 -2.95905 0
M  V30 2194 C 210.775 1.22224 -4.19976 0
M  V30 2195 C 209.834 2.28028 -4.74226 0
M  V30 2196 O 208.86 1.88857 -5.36956 0
M  V30 2197 N 210.062 3.6012 -4.55295 0
M  V30 2198 H 212.827 -0.158156 -2.99282 0
M  V30 2199 H 210.388 -0.230402 -1.60252 0
M  V30 2200 H 212.38 2.35541 -3.29093 0
M  V30 2201 H 210.95 2.17658 -2.24374 0
M  V30 2202 H 210.17 0.34725 -3.92668 0
M  V30 2203 H 211.458 0.911924 -5.00561 0
M  V30 2204 H 210.856 3.94698 -4.05253 0
M  V30 2205 H 209.413 4.26447 -4.92936 0
M  V30 2206 N 212.846 1.57033 -0.133567 0
M  V30 2207 C 213.776 2.1909 0.807567 0
M  V30 2208 C 214.757 1.13517 1.26681 0
M  V30 2209 O 215.942 1.41809 1.32679 0
M  V30 2210 C 213.072 2.80188 2.05212 0
M  V30 2211 C 212.026 3.91471 1.73015 0
M  V30 2212 C 211.352 4.39443 3.04622 0
M  V30 2213 C 212.652 5.12886 0.987168 0
M  V30 2214 H 214.346 2.97988 0.290403 0
M  V30 2215 H 211.892 1.43335 0.138239 0
M  V30 2216 H 213.845 3.22264 2.71521 0
M  V30 2217 H 212.569 1.98601 2.59278 0
M  V30 2218 H 211.228 3.49993 1.0909 0
M  V30 2219 H 210.876 3.54695 3.56651 0
M  V30 2220 H 210.576 5.14495 2.83847 0
M  V30 2221 H 212.1 4.8418 3.72024 0
M  V30 2222 H 213.514 5.51891 1.55208 0
M  V30 2223 H 211.911 5.93615 0.87985 0
M  V30 2224 H 212.981 4.84894 -0.0235286 0
M  V30 2225 N 214.325 -0.140222 1.56975 0
M  V30 2226 C 215.573 -0.850005 1.83356 0
M  V30 2227 C 215.894 -1.81399 0.71551 0
M  V30 2228 O 215.164 -1.94136 -0.262294 0
M  V30 2229 H 213.744 -0.316886 0.676456 0
M  V30 2230 H 216.406 -0.132608 1.94448 0
M  V30 2231 H 215.502 -1.40814 2.78528 0
M  V30 2232 N 215.803 -1.52179 -0.40978 0
M  V30 2233 C 216.766 -1.74853 -1.48186 0
M  V30 2234 C 217.766 -0.618417 -1.48433 0
M  V30 2235 O 218.956 -0.886286 -1.49969 0
M  V30 2236 C 216.088 -1.8303 -2.87598 0
M  V30 2237 H 217.281 -2.70559 -1.29374 0
M  V30 2238 H 214.834 -1.42586 -0.640233 0
M  V30 2239 H 215.569 -0.89236 -3.11781 0
M  V30 2240 H 215.354 -2.65187 -2.88822 0
M  V30 2241 H 216.844 -2.02316 -3.65319 0
M  V30 2242 N 217.281 0.66697 -1.42791 0
M  V30 2243 C 218.529 1.42417 -1.43394 0
M  V30 2244 C 218.85 1.94925 -0.0542373 0
M  V30 2245 O 218.12 1.73564 0.908415 0
M  V30 2246 H 216.7 0.528515 -0.527902 0
M  V30 2247 H 219.362 0.787562 -1.78279 0
M  V30 2248 H 218.458 2.27333 -2.13837 0
M  V30 2249 N 218.759 1.29093 0.90403 0
M  V30 2250 C 219.691 1.09658 2.01266 0
M  V30 2251 C 220.704 0.0453729 1.62737 0
M  V30 2252 O 221.893 0.289446 1.76138 0
M  V30 2253 C 218.993 0.646278 3.32681 0
M  V30 2254 C 218.166 1.77505 3.99763 0
M  V30 2255 C 217.225 1.31649 5.09465 0
M  V30 2256 O 216.251 2.02045 5.32134 0
M  V30 2257 N 217.453 0.184997 5.80205 0
M  V30 2258 H 220.218 2.05135 2.18494 0
M  V30 2259 H 217.779 1.20975 1.07594 0
M  V30 2260 H 219.771 0.322906 4.0341 0
M  V30 2261 H 218.341 -0.215916 3.11853 0
M  V30 2262 H 217.561 2.26752 3.22455 0
M  V30 2263 H 218.849 2.53198 4.41325 0
M  V30 2264 H 218.247 -0.402021 5.6427 0
M  V30 2265 H 216.804 -0.0790358 6.51752 0
M  V30 2266 N 220.237 -1.11381 1.11499 0
M  V30 2267 C 221.167 -2.19509 0.796125 0
M  V30 2268 C 222.148 -1.68458 -0.235796 0
M  V30 2269 O 223.333 -1.93947 -0.0991344 0
M  V30 2270 C 220.463 -3.46475 0.239205 0
M  V30 2271 C 219.417 -4.10744 1.20307 0
M  V30 2272 C 218.743 -5.32293 0.50683 0
M  V30 2273 C 220.043 -4.55597 2.55399 0
M  V30 2274 H 221.737 -2.46439 1.70024 0
M  V30 2275 H 219.283 -1.18446 0.818935 0
M  V30 2276 H 221.236 -4.214 0.00392006 0
M  V30 2277 H 219.96 -3.19006 -0.700206 0
M  V30 2278 H 218.619 -3.37813 1.42399 0
M  V30 2279 H 218.267 -5.01095 -0.437408 0
M  V30 2280 H 217.967 -5.76243 1.1497 0
M  V30 2281 H 219.491 -6.09956 0.280351 0
M  V30 2282 H 220.905 -5.21841 2.37391 0
M  V30 2283 H 219.302 -5.10363 3.15673 0
M  V30 2284 H 220.372 -3.69013 3.14575 0
M  V30 2285 N 221.715 -0.905404 -1.28997 0
M  V30 2286 C 223.126 -0.581953 -1.77398 0
M  V30 2287 C 223.477 0.902552 -1.74208 0
M  V30 2288 O 222.602 1.70584 -1.33154 0
M  V30 2289 C 223.197 -1.04961 -3.22131 0
M  V30 2290 C 221.756 -0.777229 -3.68288 0
M  V30 2291 C 220.903 -1.22109 -2.48967 0
M  V30 2292 H 223.854 -1.08754 -1.15578 0
M  V30 2293 H 223.875 -0.387387 -3.78523 0
M  V30 2294 H 223.387 -2.13008 -3.24421 0
M  V30 2295 H 221.488 0.290383 -3.71467 0
M  V30 2296 H 221.601 -1.37911 -4.58822 0
M  V30 2297 H 219.965 -0.639971 -2.46529 0
M  V30 2298 H 220.748 -2.30972 -2.53982 0
M  V30 2299 N 223.193 1.4272 -0.668489 0
M  V30 2300 C 224.156 2.292 0.00448567 0
M  V30 2301 C 225.156 1.43001 0.735339 0
M  V30 2302 O 226.346 1.64461 0.57429 0
M  V30 2303 C 223.478 3.25375 1.01705 0
M  V30 2304 H 224.671 2.90199 -0.756608 0
M  V30 2305 H 222.224 1.50254 -0.430506 0
M  V30 2306 H 222.959 2.69301 1.80686 0
M  V30 2307 H 222.744 3.88944 0.496463 0
M  V30 2308 H 224.234 3.90245 1.48655 0
M  V30 2309 N 224.671 0.411399 1.52136 0
M  V30 2310 C 225.917 -0.163888 2.02137 0
M  V30 2311 C 226.25 -1.44597 1.29636 0
M  V30 2312 O 225.525 -1.90272 0.403353 0
M  V30 2313 C 225.808 -0.40927 3.57767 0
M  V30 2314 C 225.661 0.889643 4.40914 0
M  V30 2315 C 226.98 -1.19042 4.23694 0
M  V30 2316 H 224.099 -0.0580896 0.734707 0
M  V30 2317 H 226.741 0.54531 1.82007 0
M  V30 2318 H 224.891 -1.0134 3.7505 0
M  V30 2319 H 226.563 1.52575 4.35337 0
M  V30 2320 H 224.806 1.50011 4.07037 0
M  V30 2321 H 225.477 0.672314 5.4789 0
M  V30 2322 H 227.953 -0.678942 4.10524 0
M  V30 2323 H 226.829 -1.33086 5.32522 0
M  V30 2324 H 227.09 -2.21166 3.82803 0
M  V30 2325 N 226.149 -1.5696 0.141893 0
M  V30 2326 C 227.395 -1.9625 -0.511248 0
M  V30 2327 C 227.728 -1.02654 -1.64851 0
M  V30 2328 O 227.003 -0.0679676 -1.94381 0
M  V30 2329 C 227.286 -3.45285 -1.02227 0
M  V30 2330 C 227.139 -4.49658 0.113138 0
M  V30 2331 C 228.458 -3.96698 -1.90574 0
M  V30 2332 H 225.577 -0.713567 -0.184367 0
M  V30 2333 H 228.219 -1.88698 0.222087 0
M  V30 2334 H 226.369 -3.51852 -1.64719 0
M  V30 2335 H 228.041 -4.55174 0.749302 0
M  V30 2336 H 226.284 -4.26857 0.773026 0
M  V30 2337 H 226.955 -5.51258 -0.286053 0
M  V30 2338 H 229.431 -3.92578 -1.37918 0
M  V30 2339 H 228.307 -5.01453 -2.2324 0
M  V30 2340 H 228.568 -3.3875 -2.84079 0
M  V30 2341 N 227.627 0.131896 -1.57047 0
M  V30 2342 C 228.59 1.14638 -1.98471 0
M  V30 2343 C 229.59 1.35029 -0.873148 0
M  V30 2344 O 230.78 1.31764 -1.13946 0
M  V30 2345 C 227.912 2.50358 -2.31373 0
M  V30 2346 H 229.105 0.79064 -2.8929 0
M  V30 2347 H 226.658 0.375761 -1.51716 0
M  V30 2348 H 227.393 2.90876 -1.43393 0
M  V30 2349 H 227.178 2.36915 -3.12432 0
M  V30 2350 H 228.668 3.23395 -2.64207 0
M  V30 2351 N 229.106 1.52395 0.401703 0
M  V30 2352 C 230.336 1.70429 1.1678 0
M  V30 2353 C 230.744 0.416702 1.84554 0
M  V30 2354 O 230.087 -0.617697 1.73003 0
M  V30 2355 C 230.149 2.78919 2.26814 0
M  V30 2356 C 229.813 4.20437 1.79113 0
M  V30 2357 C 230.81 5.04028 1.27482 0
M  V30 2358 C 228.495 4.66704 1.85722 0
M  V30 2359 C 230.489 6.31961 0.830913 0
M  V30 2360 C 228.176 5.94625 1.40942 0
M  V30 2361 C 229.174 6.77082 0.897128 0
M  V30 2362 O 228.862 8.02607 0.455822 0
M  V30 2363 H 228.594 0.574272 0.356634 0
M  V30 2364 H 231.148 1.99767 0.477724 0
M  V30 2365 H 229.378 2.44973 2.99207 0
M  V30 2366 H 231.067 2.8548 2.88541 0
M  V30 2367 H 231.833 4.69471 1.21744 0
M  V30 2368 H 227.712 4.0262 2.24539 0
M  V30 2369 H 231.256 6.96271 0.430368 0
M  V30 2370 H 227.153 6.28688 1.46362 0
M  V30 2371 H 227.921 8.16453 0.578457 0
M  V30 2372 N 230.584 -0.659388 1.43143 0
M  V30 2373 C 231.494 -1.80167 1.50256 0
M  V30 2374 C 232.51 -1.69571 0.390106 0
M  V30 2375 O 233.686 -1.90849 0.643319 0
M  V30 2376 C 230.751 -3.16409 1.41725 0
M  V30 2377 C 229.812 -3.38848 2.63591 0
M  V30 2378 C 229.045 -4.68591 2.55458 0
M  V30 2379 O 229.268 -5.47532 1.59891 0
M  V30 2380 O 228.202 -4.92614 3.45854 0
M  V30 2381 H 232.028 -1.77121 2.46702 0
M  V30 2382 H 229.613 -0.817092 1.25076 0
M  V30 2383 H 231.495 -3.9768 1.39387 0
M  V30 2384 H 230.17 -3.20059 0.484118 0
M  V30 2385 H 229.077 -2.57366 2.71502 0
M  V30 2386 H 230.41 -3.4004 3.55856 0
M  V30 2387 N 232.062 -1.29571 -0.897171 0
M  V30 2388 C 233.025 -1.14913 -1.98312 0
M  V30 2389 C 234.025 -0.0838629 -1.60581 0
M  V30 2390 O 235.215 -0.331006 -1.71026 0
M  V30 2391 C 232.347 -0.757835 -3.3237 0
M  V30 2392 H 233.54 -2.11377 -2.12743 0
M  V30 2393 H 231.093 -1.12793 -1.08201 0
M  V30 2394 H 231.828 0.206837 -3.2364 0
M  V30 2395 H 231.613 -1.52755 -3.61121 0
M  V30 2396 H 233.103 -0.678408 -4.12053 0
M  V30 2397 N 233.54 1.10788 -1.12088 0
M  V30 2398 C 234.787 1.82671 -0.873931 0
M  V30 2399 C 235.115 1.85004 0.600311 0
M  V30 2400 O 234.37 1.30365 1.45957 0
M  V30 2401 C 234.669 3.29294 -1.38926 0
M  V30 2402 C 234.335 3.47113 -2.87791 0
M  V30 2403 C 232.997 3.51684 -3.28439 0
M  V30 2404 C 235.349 3.52808 -3.83635 0
M  V30 2405 C 232.677 3.59513 -4.63646 0
M  V30 2406 C 235.029 3.62169 -5.18668 0
M  V30 2407 C 233.693 3.65003 -5.58864 0
M  V30 2408 H 232.963 0.668441 -0.319794 0
M  V30 2409 H 235.61 1.30613 -1.40045 0
M  V30 2410 H 233.915 3.83894 -0.783122 0
M  V30 2411 H 235.612 3.83416 -1.17443 0
M  V30 2412 H 232.202 3.4423 -2.5535 0
M  V30 2413 H 236.386 3.4853 -3.53328 0
M  V30 2414 H 231.642 3.59987 -4.94185 0
M  V30 2415 H 235.816 3.6552 -5.92763 0
M  V30 2416 H 233.443 3.70822 -6.63623 0
M  V30 2417 N 235.018 0.912232 1.28515 0
M  V30 2418 C 236.248 0.559604 1.98877 0
M  V30 2419 C 236.656 -0.863113 1.68366 0
M  V30 2420 O 235.999 -1.58304 0.931969 0
M  V30 2421 C 236.061 0.68703 3.52874 0
M  V30 2422 C 235.725 2.07901 4.06972 0
M  V30 2423 C 236.722 3.05157 4.20922 0
M  V30 2424 C 234.407 2.39178 4.417 0
M  V30 2425 C 236.401 4.31806 4.68852 0
M  V30 2426 C 234.088 3.66068 4.89324 0
M  V30 2427 C 235.086 4.62195 5.02856 0
M  V30 2428 O 234.774 5.86829 5.49442 0
M  V30 2429 H 234.506 0.212191 0.641834 0
M  V30 2430 H 237.06 1.22712 1.64715 0
M  V30 2431 H 235.29 -0.0375486 3.86682 0
M  V30 2432 H 236.979 0.341727 4.04459 0
M  V30 2433 H 237.745 2.82311 3.94367 0
M  V30 2434 H 233.624 1.65109 4.30418 0
M  V30 2435 H 237.168 5.06842 4.79329 0
M  V30 2436 H 233.065 3.88739 5.15318 0
M  V30 2437 H 233.833 5.89597 5.6773 0
M  V30 2438 N 236.496 -1.42363 0.676048 0
M  V30 2439 C 237.428 -2.29164 -0.0404605 0
M  V30 2440 C 238.441 -1.43747 -0.764245 0
M  V30 2441 O 239.63 -1.67453 -0.618195 0
M  V30 2442 C 236.73 -3.21196 -1.08103 0
M  V30 2443 C 235.903 -4.35273 -0.430812 0
M  V30 2444 C 234.962 -5.08017 -1.37133 0
M  V30 2445 O 233.988 -5.62494 -0.87116 0
M  V30 2446 N 235.19 -5.13647 -2.70456 0
M  V30 2447 H 237.955 -2.91298 0.704667 0
M  V30 2448 H 235.516 -1.53303 0.520559 0
M  V30 2449 H 237.508 -3.66728 -1.71152 0
M  V30 2450 H 236.078 -2.60505 -1.72788 0
M  V30 2451 H 235.298 -3.92372 0.379209 0
M  V30 2452 H 236.586 -5.08795 0.0221132 0
M  V30 2453 H 235.984 -4.708 -3.1363 0
M  V30 2454 H 234.541 -5.62821 -3.28749 0
M  V30 2455 N 237.974 -0.419461 -1.51915 0
M  V30 2456 C 238.924 0.418496 -2.24126 0
M  V30 2457 C 239.908 1.00495 -1.25656 0
M  V30 2458 O 241.1 0.926058 -1.50842 0
M  V30 2459 C 238.229 1.52899 -3.07371 0
M  V30 2460 C 237.315 0.952797 -4.13258 0
M  V30 2461 N 237.706 0.104175 -5.05693 0
M  V30 2462 C 236.004 1.22224 -4.28926 0
M  V30 2463 C 236.705 -0.21752 -5.81293 0
M  V30 2464 N 235.681 0.394293 -5.42168 0
M  V30 2465 H 239.483 -0.236048 -2.92951 0
M  V30 2466 H 236.997 -0.230481 -1.60756 0
M  V30 2467 H 238.994 2.14199 -3.57665 0
M  V30 2468 H 237.654 2.18605 -2.40088 0
M  V30 2469 H 238.665 -0.260924 -5.17242 0
M  V30 2470 H 235.342 1.87812 -3.72871 0
M  V30 2471 H 236.732 -0.906992 -6.6575 0
M  V30 2472 N 239.452 1.56882 -0.150215 0
M  V30 2473 C 240.677 2.01027 0.510184 0
M  V30 2474 C 241.102 1.02966 1.57415 0
M  V30 2475 O 240.46 0.00590158 1.81299 0
M  V30 2476 C 240.508 3.43899 1.08472 0
M  V30 2477 O 239.612 3.4885 2.19948 0
M  V30 2478 H 238.953 0.652233 0.124451 0
M  V30 2479 H 241.483 2.03093 -0.247894 0
M  V30 2480 H 241.493 3.82766 1.41259 0
M  V30 2481 H 240.168 4.14776 0.305582 0
M  V30 2482 H 238.745 3.21827 1.88366 0
M  V30 2483 N 240.93 -0.123565 1.57115 0
M  V30 2484 C 242.177 -0.832153 1.84612 0
M  V30 2485 C 242.505 -1.80093 0.734627 0
M  V30 2486 O 241.76 -1.93766 -0.27442 0
M  V30 2487 C 242.059 -1.62016 3.18568 0
M  V30 2488 C 241.725 -0.796084 4.43817 0
M  V30 2489 C 240.387 -0.568816 4.77826 0
M  V30 2490 C 242.739 -0.221364 5.2073 0
M  V30 2491 C 240.067 0.243499 5.86194 0
M  V30 2492 C 242.419 0.578117 6.29953 0
M  V30 2493 C 241.083 0.815744 6.62497 0
M  V30 2494 H 240.353 -0.304507 0.675542 0
M  V30 2495 H 243 -0.0947248 1.91266 0
M  V30 2496 H 241.305 -2.42837 3.0747 0
M  V30 2497 H 243.002 -2.17231 3.37064 0
M  V30 2498 H 239.592 -0.983307 4.17168 0
M  V30 2499 H 243.776 -0.384173 4.94811 0
M  V30 2500 H 239.032 0.436871 6.09837 0
M  V30 2501 H 243.206 1.03046 6.88734 0
M  V30 2502 H 240.833 1.44701 7.46301 0
M  V30 2503 N 242.408 -1.52605 -0.393616 0
M  V30 2504 C 243.371 -1.76415 -1.46323 0
M  V30 2505 C 244.371 -0.634126 -1.47768 0
M  V30 2506 O 245.561 -0.902142 -1.4902 0
M  V30 2507 C 242.693 -1.8607 -2.85641 0
M  V30 2508 H 243.886 -2.71916 -1.26498 0
M  V30 2509 H 241.439 -1.43257 -0.625073 0
M  V30 2510 H 242.174 -0.925378 -3.10817 0
M  V30 2511 H 241.959 -2.68235 -2.85993 0
M  V30 2512 H 243.449 -2.06179 -3.63153 0
M  V30 2513 N 243.887 0.651787 -1.4349 0
M  V30 2514 C 244.797 1.79368 -1.5121 0
M  V30 2515 C 245.813 1.69361 -0.399093 0
M  V30 2516 O 246.989 1.90505 -0.653431 0
M  V30 2517 C 244.054 3.15653 -1.43401 0
M  V30 2518 C 243.115 3.37446 -2.65384 0
M  V30 2519 C 242.348 4.67229 -2.57939 0
M  V30 2520 O 242.571 5.46676 -1.62792 0
M  V30 2521 O 241.505 4.90773 -3.48462 0
M  V30 2522 H 245.331 1.7581 -2.47638 0
M  V30 2523 H 242.916 0.810447 -1.25507 0
M  V30 2524 H 244.798 3.96935 -1.41494 0
M  V30 2525 H 243.473 3.19798 -0.501085 0
M  V30 2526 H 242.38 2.55923 -2.72863 0
M  V30 2527 H 243.713 3.38148 -3.57654 0
M  V30 2528 N 245.365 1.30045 0.890287 0
M  V30 2529 C 246.297 1.11786 2.00091 0
M  V30 2530 C 247.31 0.0626307 1.62679 0
M  V30 2531 O 248.499 0.308112 1.75821 0
M  V30 2532 C 245.599 0.681527 3.31977 0
M  V30 2533 C 244.772 1.81735 3.97858 0
M  V30 2534 C 243.831 1.37045 5.08041 0
M  V30 2535 O 242.857 2.07677 5.29961 0
M  V30 2536 N 244.059 0.246525 5.79976 0
M  V30 2537 H 246.824 2.07441 2.16306 0
M  V30 2538 H 244.385 1.2211 1.06305 0
M  V30 2539 H 246.377 0.365675 4.03045 0
M  V30 2540 H 244.947 -0.182828 3.12065 0
M  V30 2541 H 244.167 2.30159 3.20032 0
M  V30 2542 H 245.455 2.57865 4.38615 0
M  V30 2543 H 244.853 -0.34215 5.64664 0
M  V30 2544 H 243.41 -0.00990438 6.51799 0
M  V30 2545 N 246.843 -1.10192 1.12674 0
M  V30 2546 C 248.068 -1.86523 0.906853 0
M  V30 2547 C 248.493 -1.80221 -0.538711 0
M  V30 2548 O 247.851 -1.17396 -1.38158 0
M  V30 2549 C 247.899 -3.32758 1.3894 0
M  V30 2550 O 247.003 -4.08449 0.5695 0
M  V30 2551 H 246.344 -0.578678 0.325619 0
M  V30 2552 H 248.874 -1.39203 1.49946 0
M  V30 2553 H 248.884 -3.83608 1.38958 0
M  V30 2554 H 247.559 -3.36661 2.44197 0
M  V30 2555 H 246.136 -3.67427 0.636528 0
M  V30 2556 N 248.321 -0.919034 -1.28029 0
M  V30 2557 C 249.551 -0.570143 -1.98577 0
M  V30 2558 C 249.959 0.854172 -1.68821 0
M  V30 2559 O 249.302 1.57807 -0.940351 0
M  V30 2560 C 249.364 -0.705734 -3.52505 0
M  V30 2561 C 249.028 -2.10057 -4.05863 0
M  V30 2562 C 250.025 -3.07385 -4.19298 0
M  V30 2563 C 247.71 -2.41517 -4.40426 0
M  V30 2564 C 249.704 -4.34287 -4.66555 0
M  V30 2565 C 247.391 -3.68657 -4.87376 0
M  V30 2566 C 248.389 -4.64856 -5.00398 0
M  V30 2567 O 248.077 -5.89735 -5.46322 0
M  V30 2568 H 247.809 -0.215592 -0.6407 0
M  V30 2569 H 250.363 -1.23583 -1.64062 0
M  V30 2570 H 248.593 0.0170414 -3.86696 0
M  V30 2571 H 250.282 -0.363172 -4.04272 0
M  V30 2572 H 251.048 -2.84398 -3.92865 0
M  V30 2573 H 246.927 -1.67389 -4.29537 0
M  V30 2574 H 250.471 -5.09377 -4.76635 0
M  V30 2575 H 246.368 -3.91466 -5.13249 0
M  V30 2576 H 247.136 -5.92599 -5.64596 0
M  V30 2577 N 249.799 1.42003 -0.683588 0
M  V30 2578 C 251.076 1.95112 -0.138075 0
M  V30 2579 C 251.456 1.62359 1.34918 0
M  V30 2580 O 250.804 0.924311 2.08971 0
M  V30 2581 C 251.014 3.46505 -0.416581 0
M  V30 2582 C 252.362 4.23254 -0.337834 0
M  V30 2583 O 253.386 3.54468 -0.35082 0
M  V30 2584 O 252.245 5.45743 -0.287596 0
M  V30 2585 H 249.339 0.826961 -0.00797996 0
M  V30 2586 H 251.885 1.51784 -0.758924 0
M  V30 2587 H 250.657 3.63582 -1.4465 0
M  V30 2588 H 250.28 3.969 0.235839 0
M  V30 2589 N 251.277 0.427512 1.51691 0
M  V30 2590 C 252.502 -0.143601 2.06902 0
M  V30 2591 C 252.927 -1.36536 1.29382 0
M  V30 2592 O 252.285 -1.78289 0.329043 0
M  V30 2593 C 252.333 -0.454207 3.57728 0
M  V30 2594 O 251.437 -1.54228 3.82475 0
M  V30 2595 H 250.778 -0.00617128 0.663971 0
M  V30 2596 H 253.308 0.606014 1.95419 0
M  V30 2597 H 253.318 -0.707525 4.01818 0
M  V30 2598 H 251.993 0.438812 4.13579 0
M  V30 2599 H 250.57 -1.2797 3.50254 0
M  V30 2600 N 252.755 -1.56801 0.158532 0
M  V30 2601 C 253.995 -1.98383 -0.49229 0
M  V30 2602 C 254.359 -1.04184 -1.61275 0
M  V30 2603 O 255.56 -1.34856 -2.32524 0
M  V30 2604 C 253.831 -3.4385 -0.974766 0
M  V30 2605 S 255.39 -4.07459 -1.62857 0
M  V30 2606 H 252.208 -0.693041 -0.158794 0
M  V30 2607 H 254.81 -1.93856 0.252974 0
M  V30 2608 H 253.514 -4.10131 -0.148688 0
M  V30 2609 H 253.045 -3.52115 -1.75438 0
M  V30 2610 H 255.06 -4.01458 -2.91627 0
M  V30 2611 N 254.233 0.115231 -1.57178 0
M  V30 2612 C 255.458 0.840354 -1.89612 0
M  V30 2613 C 255.883 1.72464 -0.750845 0
M  V30 2614 O 255.241 1.78826 0.298478 0
M  V30 2615 C 255.289 1.64654 -3.20814 0
M  V30 2616 O 254.393 2.7538 -3.06985 0
M  V30 2617 H 253.734 0.232158 -0.622092 0
M  V30 2618 H 256.264 0.0964977 -2.04372 0
M  V30 2619 H 256.274 2.03499 -3.53627 0
M  V30 2620 H 254.949 0.997416 -4.03763 0
M  V30 2621 H 253.526 2.3971 -2.85646 0
M  V30 2622 N 255.711 1.52812 0.385517 0
M  V30 2623 C 257.127 1.4214 0.725829 0
M  V30 2624 C 257.327 0.544589 1.94001 0
M  V30 2625 O 256.383 0.0193693 2.52493 0
M  V30 2626 C 257.696 2.85042 0.957668 0
M  V30 2627 C 259.244 2.94543 1.05892 0
M  V30 2628 C 259.719 4.38464 1.32337 0
M  V30 2629 N 261.21 4.41804 1.39151 0
M  V30 2630 C 261.945 5.5025 1.61285 0
M  V30 2631 N 261.441 6.68775 1.80866 0
M  V30 2632 N 263.234 5.37798 1.63492 0
M  V30 2633 H 255.385 2.08338 -0.413383 0
M  V30 2634 H 257.648 0.940016 -0.122775 0
M  V30 2635 H 257.354 3.51431 0.137568 0
M  V30 2636 H 257.228 3.27505 1.87137 0
M  V30 2637 H 259.615 2.28321 1.86959 0
M  V30 2638 H 259.696 2.55504 0.123057 0
M  V30 2639 H 259.34 5.05254 0.517793 0
M  V30 2640 H 259.27 4.75059 2.27214 0
M  V30 2641 H 261.761 3.56377 1.25713 0
M  V30 2642 H 262.074 7.47197 1.97271 0
M  V30 2643 H 260.419 6.71797 1.78083 0
M  V30 2644 H 263.61 4.44171 1.47749 0
M  V30 2645 H 263.783 6.22382 1.80402 0
M  V30 2646 N 257.189 -0.644168 1.43834 0
M  V30 2647 C 258.435 -1.40603 1.46146 0
M  V30 2648 C 258.768 -1.93997 0.0887717 0
M  V30 2649 O 258.043 -1.72854 -0.891724 0
M  V30 2650 C 258.326 -2.58086 2.51124 0
M  V30 2651 C 258.179 -2.10126 3.97702 0
M  V30 2652 C 259.498 -3.60291 2.52742 0
M  V30 2653 H 256.617 -0.509905 0.532134 0
M  V30 2654 H 259.259 -0.729502 1.75437 0
M  V30 2655 H 257.409 -3.15801 2.26278 0
M  V30 2656 H 259.081 -1.57342 4.33637 0
M  V30 2657 H 257.324 -1.41419 4.10101 0
M  V30 2658 H 257.995 -2.94649 4.66783 0
M  V30 2659 H 260.471 -3.12352 2.7491 0
M  V30 2660 H 259.347 -4.40032 3.28121 0
M  V30 2661 H 259.608 -4.1349 1.56455 0
M  V30 2662 N 258.668 -1.30515 -0.883378 0
M  V30 2663 C 260.084 -1.08881 -1.16692 0
M  V30 2664 C 260.284 0.149409 -2.00945 0
M  V30 2665 O 259.34 0.84257 -2.38027 0
M  V30 2666 C 260.653 -2.35319 -1.87204 0
M  V30 2667 C 262.201 -2.40799 -1.99962 0
M  V30 2668 C 262.676 -3.67083 -2.73887 0
M  V30 2669 N 264.167 -3.679 -2.81432 0
M  V30 2670 C 264.902 -4.62303 -3.3921 0
M  V30 2671 N 264.398 -5.67052 -3.98025 0
M  V30 2672 N 266.191 -4.49845 -3.3704 0
M  V30 2673 H 258.342 -2.09951 -0.321633 0
M  V30 2674 H 260.605 -0.92556 -0.205043 0
M  V30 2675 H 260.311 -3.25689 -1.3274 0
M  V30 2676 H 260.185 -2.44089 -2.87577 0
M  V30 2677 H 262.572 -1.50907 -2.53597 0
M  V30 2678 H 262.653 -2.36003 -0.98673 0
M  V30 2679 H 262.297 -4.57334 -2.20925 0
M  V30 2680 H 262.227 -3.69141 -3.75556 0
M  V30 2681 H 264.718 -2.92171 -2.39676 0
M  V30 2682 H 265.031 -6.35184 -4.40183 0
M  V30 2683 H 263.376 -5.70842 -3.96439 0
M  V30 2684 H 266.567 -3.67194 -2.90321 0
M  V30 2685 H 266.74 -5.23597 -3.81772 0
M  V30 2686 N 260.146 1.09593 -1.13257 0
M  V30 2687 C 261.392 1.82003 -0.89458 0
M  V30 2688 C 261.725 1.85402 0.577906 0
M  V30 2689 O 261 1.32099 1.42759 0
M  V30 2690 C 261.283 3.28237 -1.48096 0
M  V30 2691 C 261.136 3.3312 -3.02244 0
M  V30 2692 C 262.455 4.24871 -1.14774 0
M  V30 2693 H 259.574 0.66077 -0.326424 0
M  V30 2694 H 262.216 1.28389 -1.40058 0
M  V30 2695 H 260.366 3.74024 -1.05062 0
M  V30 2696 H 262.038 2.95748 -3.54021 0
M  V30 2697 H 260.281 2.72756 -3.37323 0
M  V30 2698 H 260.952 4.3613 -3.38371 0
M  V30 2699 H 263.428 3.87361 -1.51957 0
M  V30 2700 H 262.304 5.25532 -1.58452 0
M  V30 2701 H 262.565 4.42058 -0.0611849 0
M  V30 2702 N 261.624 0.925811 1.2754 0
M  V30 2703 C 263.035 0.610102 1.7645 0
M  V30 2704 C 263.386 -0.874723 1.75622 0
M  V30 2705 O 262.511 -1.68444 1.35851 0
M  V30 2706 C 263.106 1.10073 3.20421 0
M  V30 2707 C 261.665 0.835723 3.67005 0
M  V30 2708 C 260.812 1.26054 2.46993 0
M  V30 2709 H 263.763 1.10579 1.13833 0
M  V30 2710 H 263.784 0.447557 3.77859 0
M  V30 2711 H 263.296 2.18143 3.20991 0
M  V30 2712 H 261.397 -0.231249 3.71882 0
M  V30 2713 H 261.51 1.45193 4.56569 0
M  V30 2714 H 259.874 0.679111 2.45479 0
M  V30 2715 H 260.657 2.34984 2.50275 0
M  V30 2716 N 263.102 -1.41638 0.69111 0
M  V30 2717 C 264.065 -2.29178 0.0319786 0
M  V30 2718 C 265.065 -1.44153 -0.712496 0
M  V30 2719 O 266.255 -1.65354 -0.548053 0
M  V30 2720 C 263.387 -3.26952 -0.965161 0
M  V30 2721 H 264.58 -2.88959 0.802681 0
M  V30 2722 H 262.133 -1.4955 0.454356 0
M  V30 2723 H 262.868 -2.72142 -1.76378 0
M  V30 2724 H 262.653 -3.89685 -0.434522 0
M  V30 2725 H 264.143 -3.92561 -1.42428 0
M  V30 2726 N 264.58 -0.43555 -1.51462 0
M  V30 2727 C 265.543 0.365137 -2.26273 0
M  V30 2728 C 266.543 0.951227 -1.29647 0
M  V30 2729 O 267.733 0.825958 -1.53374 0
M  V30 2730 C 264.865 1.51645 -3.05314 0
M  V30 2731 H 266.058 -0.290474 -2.9849 0
M  V30 2732 H 263.611 -0.188676 -1.55157 0
M  V30 2733 H 264.346 2.20816 -2.3751 0
M  V30 2734 H 264.131 1.10238 -3.76284 0
M  V30 2735 H 265.621 2.08218 -3.61987 0
M  V30 2736 N 266.058 1.56714 -0.166846 0
M  V30 2737 C 267.021 2.16539 0.751232 0
M  V30 2738 C 268.021 1.11228 1.16125 0
M  V30 2739 O 269.211 1.36765 1.07894 0
M  V30 2740 C 266.343 2.74462 2.02196 0
M  V30 2741 H 267.536 2.99013 0.230499 0
M  V30 2742 H 265.089 1.56081 0.0826982 0
M  V30 2743 H 265.824 1.95709 2.58589 0
M  V30 2744 H 265.609 3.51527 1.73698 0
M  V30 2745 H 267.099 3.20489 2.67725 0
M  V30 2746 N 267.536 -0.106894 1.57237 0
M  V30 2747 C 268.764 -0.826389 1.8968 0
M  V30 2748 C 269.179 -1.72856 0.759353 0
M  V30 2749 O 268.536 -1.80503 -0.269263 0
M  V30 2750 C 268.587 -1.64967 3.21665 0
M  V30 2751 O 268.308 -0.783804 4.31031 0
M  V30 2752 C 269.809 -2.47326 3.67892 0
M  V30 2753 H 267.029 -0.236927 0.627779 0
M  V30 2754 H 269.573 -0.0876593 2.04312 0
M  V30 2755 H 267.728 -2.34103 3.08666 0
M  V30 2756 H 268.142 -1.35284 5.06753 0
M  V30 2757 H 269.616 -3.00604 4.6297 0
M  V30 2758 H 270.093 -3.25247 2.95146 0
M  V30 2759 H 270.699 -1.83411 3.83719 0
M  V30 2760 N 269.014 -1.53014 -0.377408 0
M  V30 2761 C 269.944 -1.81589 -1.46791 0
M  V30 2762 C 270.925 -0.668622 -1.56408 0
M  V30 2763 O 272.11 -0.917337 -1.71168 0
M  V30 2764 C 269.24 -1.99519 -2.8427 0
M  V30 2765 C 268.194 -3.15249 -2.89486 0
M  V30 2766 C 267.52 -3.18451 -4.29527 0
M  V30 2767 C 268.82 -4.54084 -2.58079 0
M  V30 2768 H 270.514 -2.7291 -1.23127 0
M  V30 2769 H 268.06 -1.31319 -0.590883 0
M  V30 2770 H 270.013 -2.18092 -3.60575 0
M  V30 2771 H 268.737 -1.04897 -3.09296 0
M  V30 2772 H 267.396 -2.96477 -2.15631 0
M  V30 2773 H 267.044 -2.2149 -4.5161 0
M  V30 2774 H 266.744 -3.962 -4.33934 0
M  V30 2775 H 268.268 -3.39193 -5.07721 0
M  V30 2776 H 269.682 -4.72899 -3.24098 0
M  V30 2777 H 268.079 -5.33987 -2.7382 0
M  V30 2778 H 269.149 -4.60006 -1.53372 0
M  V30 2779 N 270.492 0.636531 -1.44174 0
M  V30 2780 C 271.455 1.73063 -1.50273 0
M  V30 2781 C 272.455 1.56113 -0.385397 0
M  V30 2782 O 273.645 1.61707 -0.64781 0
M  V30 2783 C 270.777 3.12096 -1.37145 0
M  V30 2784 H 271.97 1.69031 -2.47727 0
M  V30 2785 H 269.523 0.849706 -1.31186 0
M  V30 2786 H 270.258 3.21728 -0.407636 0
M  V30 2787 H 270.043 3.25805 -2.18159 0
M  V30 2788 H 271.533 3.91846 -1.44382 0
M  V30 2789 N 271.97 1.30982 0.876444 0
M  V30 2790 C 273.216 1.20474 1.63138 0
M  V30 2791 C 273.549 -0.238096 1.92735 0
M  V30 2792 O 272.824 -1.1692 1.55435 0
M  V30 2793 C 273.107 2.04244 2.96574 0
M  V30 2794 C 272.96 3.56793 2.73896 0
M  V30 2795 C 274.279 1.88684 3.97601 0
M  V30 2796 H 271.398 0.439001 0.591985 0
M  V30 2797 H 274.04 1.60704 1.01361 0
M  V30 2798 H 272.19 1.70063 3.493 0
M  V30 2799 H 273.862 4.01077 2.27892 0
M  V30 2800 H 272.105 3.80548 2.08245 0
M  V30 2801 H 272.776 4.10706 3.68815 0
M  V30 2802 H 275.252 2.18584 3.54062 0
M  V30 2803 H 274.128 2.4961 4.88862 0
M  V30 2804 H 274.389 0.848343 4.33884 0
M  V30 2805 N 273.449 -1.08991 1.13837 0
M  V30 2806 C 274.697 -1.80899 0.901098 0
M  V30 2807 C 275.018 -1.86356 -0.574134 0
M  V30 2808 O 274.288 -1.35235 -1.41733 0
M  V30 2809 H 272.868 -0.669966 0.330386 0
M  V30 2810 H 275.53 -1.318 1.43578 0
M  V30 2811 H 274.626 -2.83929 1.29578 0
M  V30 2812 N 274.927 -0.932562 -1.27047 0
M  V30 2813 C 276.155 -0.592031 -1.98249 0
M  V30 2814 C 276.57 0.831062 -1.69525 0
M  V30 2815 O 275.927 1.55299 -0.958561 0
M  V30 2816 C 275.978 -0.814279 -3.5221 0
M  V30 2817 O 275.699 -2.18139 -3.7993 0
M  V30 2818 C 277.2 -0.483121 -4.4066 0
M  V30 2819 H 274.42 -0.223896 -0.632544 0
M  V30 2820 H 276.964 -1.25091 -1.61779 0
M  V30 2821 H 275.119 -0.20213 -3.86872 0
M  V30 2822 H 275.533 -2.235 -4.74498 0
M  V30 2823 H 277.007 -0.689298 -5.47679 0
M  V30 2824 H 277.484 0.581546 -4.35333 0
M  V30 2825 H 278.09 -1.07362 -4.11526 0
M  V30 2826 N 276.405 1.4127 -0.698611 0
M  V30 2827 C 277.338 2.28195 0.0153898 0
M  V30 2828 C 278.316 1.42402 0.784883 0
M  V30 2829 O 279.5 1.71828 0.775067 0
M  V30 2830 C 276.627 3.22685 1.02918 0
M  V30 2831 C 275.673 4.25041 0.352501 0
M  V30 2832 S 276.506 5.27757 -0.907322 0
M  V30 2833 C 277.662 6.25812 0.104796 0
M  V30 2834 H 277.895 2.88403 -0.721858 0
M  V30 2835 H 275.428 1.46452 -0.488996 0
M  V30 2836 H 277.386 3.77655 1.60893 0
M  V30 2837 H 276.047 2.61566 1.73902 0
M  V30 2838 H 275.24 4.91437 1.11828 0
M  V30 2839 H 274.842 3.73682 -0.154254 0
M  V30 2840 H 277.134 6.70705 0.957103 0
M  V30 2841 H 278.077 7.06149 -0.525323 0
M  V30 2842 H 278.485 5.62615 0.460931 0
M  V30 2843 N 277.883 0.443576 1.51229 0
M  V30 2844 C 279.123 -0.119889 2.04048 0
M  V30 2845 C 279.487 -1.39418 1.32009 0
M  V30 2846 O 280.688 -2.03829 1.75235 0
M  V30 2847 C 278.959 -0.327233 3.55899 0
M  V30 2848 S 280.518 -0.853208 4.30425 0
M  V30 2849 H 277.336 -0.028921 0.710412 0
M  V30 2850 H 279.938 0.604413 1.85922 0
M  V30 2851 H 278.642 0.606445 4.05895 0
M  V30 2852 H 278.173 -1.07844 3.7833 0
M  V30 2853 H 280.188 -2.13005 4.48155 0
M  V30 2854 N 279.361 -1.56624 0.175154 0
M  V30 2855 C 280.609 -1.96609 -0.467885 0
M  V30 2856 C 280.93 -1.06238 -1.63519 0
M  V30 2857 O 280.2 -0.129523 -1.95471 0
M  V30 2858 H 278.78 -0.726008 -0.175845 0
M  V30 2859 H 281.442 -1.93195 0.257234 0
M  V30 2860 H 280.538 -3.00989 -0.825342 0
M  V30 2861 N 280.839 0.0985539 -1.57292 0
M  V30 2862 C 282.085 0.803867 -1.86188 0
M  V30 2863 C 282.418 1.78549 -0.763794 0
M  V30 2864 O 281.693 1.93153 0.22855 0
M  V30 2865 C 281.976 1.53568 -3.25713 0
M  V30 2866 C 281.829 0.572277 -4.46145 0
M  V30 2867 C 283.148 2.48708 -3.63087 0
M  V30 2868 H 280.267 0.290781 -0.677211 0
M  V30 2869 H 282.909 0.0675783 -1.8988 0
M  V30 2870 H 281.059 2.16332 -3.22696 0
M  V30 2871 H 282.731 -0.0480894 -4.61275 0
M  V30 2872 H 280.974 -0.114618 -4.33649 0
M  V30 2873 H 281.645 1.12139 -5.40489 0
M  V30 2874 H 284.121 1.96039 -3.67026 0
M  V30 2875 H 282.997 2.96932 -4.61652 0
M  V30 2876 H 283.258 3.32309 -2.91588 0
M  V30 2877 N 282.317 1.53212 0.369288 0
M  V30 2878 C 283.547 1.72868 1.13139 0
M  V30 2879 C 283.955 0.455754 1.83629 0
M  V30 2880 O 283.298 -0.580861 1.74275 0
M  V30 2881 C 283.36 2.83667 2.20847 0
M  V30 2882 C 283.024 4.24142 1.70155 0
M  V30 2883 C 284.021 5.06619 1.16763 0
M  V30 2884 C 281.706 4.70539 1.7578 0
M  V30 2885 C 283.7 6.33581 0.696678 0
M  V30 2886 C 281.387 5.97481 1.28297 0
M  V30 2887 C 282.385 6.78833 0.753307 0
M  V30 2888 O 282.073 8.03393 0.285475 0
M  V30 2889 H 281.805 0.581707 0.344373 0
M  V30 2890 H 284.359 2.00736 0.435243 0
M  V30 2891 H 282.589 2.51265 2.93944 0
M  V30 2892 H 284.278 2.91536 2.82421 0
M  V30 2893 H 285.044 4.71948 1.11758 0
M  V30 2894 H 280.923 4.07293 2.15949 0
M  V30 2895 H 284.467 6.97027 0.282581 0
M  V30 2896 H 280.364 6.31651 1.32994 0
M  V30 2897 H 281.132 8.17497 0.405145 0
M  V30 2898 N 283.795 -0.628877 1.44509 0
M  V30 2899 C 285.043 -1.38565 1.4712 0
M  V30 2900 C 285.364 -1.94712 0.105899 0
M  V30 2901 O 284.634 -1.75912 -0.862079 0
M  V30 2902 H 283.214 -0.514333 0.541729 0
M  V30 2903 H 285.876 -0.740018 1.80305 0
M  V30 2904 H 284.972 -2.21583 2.19789 0
M  V30 2905 N 285.273 -1.31445 -0.869486 0
M  V30 2906 C 286.498 -1.24256 -1.66058 0
M  V30 2907 C 286.923 0.188928 -1.87149 0
M  V30 2908 O 286.281 1.13522 -1.4136 0
M  V30 2909 C 286.329 -1.9924 -3.00559 0
M  V30 2910 O 285.433 -1.33007 -3.90362 0
M  V30 2911 H 284.774 -0.428973 -0.506831 0
M  V30 2912 H 287.304 -1.73521 -1.08404 0
M  V30 2913 H 287.314 -2.08854 -3.50491 0
M  V30 2914 H 285.989 -3.03342 -2.84528 0
M  V30 2915 H 284.566 -1.31848 -3.48813 0
M  V30 2916 N 286.751 1.08385 -1.14413 0
M  V30 2917 C 287.714 2.13486 -0.834048 0
M  V30 2918 C 288.714 1.59988 0.161418 0
M  V30 2919 O 289.904 1.74071 -0.0669575 0
M  V30 2920 C 287.036 3.4003 -0.243354 0
M  V30 2921 H 288.229 2.42425 -1.7655 0
M  V30 2922 H 285.782 1.24101 -0.950189 0
M  V30 2923 H 286.517 3.16726 0.696807 0
M  V30 2924 H 286.302 3.80157 -0.960367 0
M  V30 2925 H 287.792 4.17577 -0.0436242 0
M  V30 2926 N 288.23 0.939286 1.26551 0
M  V30 2927 C 289.16 0.465044 2.28822 0
M  V30 2928 C 290.141 -0.480692 1.63167 0
M  V30 2929 O 291.326 -0.382955 1.90387 0
M  V30 2930 C 288.456 -0.27234 3.46231 0
M  V30 2931 C 287.41 0.58666 4.2396 0
M  V30 2932 C 286.736 -0.280573 5.33963 0
M  V30 2933 C 288.036 1.85704 4.88171 0
M  V30 2934 H 289.73 1.31979 2.68741 0
M  V30 2935 H 287.276 0.636061 1.29191 0
M  V30 2936 H 289.229 -0.615133 4.16886 0
M  V30 2937 H 287.953 -1.16121 3.0526 0
M  V30 2938 H 286.612 0.91232 3.55067 0
M  V30 2939 H 286.26 -1.16874 4.89234 0
M  V30 2940 H 285.96 0.29076 5.8688 0
M  V30 2941 H 287.484 -0.618678 6.07458 0
M  V30 2942 H 288.898 1.58161 5.51052 0
M  V30 2943 H 287.295 2.37279 5.51197 0
M  V30 2944 H 288.365 2.56957 4.11219 0
M  V30 2945 N 289.708 -1.40897 0.706093 0
M  V30 2946 C 290.948 -2.02916 0.245827 0
M  V30 2947 C 291.312 -1.54751 -1.13649 0
M  V30 2948 O 292.513 -2.08768 -1.69321 0
M  V30 2949 C 290.784 -3.56031 0.312537 0
M  V30 2950 S 292.343 -4.38741 -0.0721388 0
M  V30 2951 H 289.161 -0.704186 0.0982007 0
M  V30 2952 H 291.763 -1.72168 0.926207 0
M  V30 2953 H 290.467 -3.88579 1.32039 0
M  V30 2954 H 289.998 -3.91495 -0.386641 0
M  V30 2955 H 292.013 -4.78952 -1.29692 0
M  V30 2956 N 291.186 -0.45159 -1.50991 0
M  V30 2957 C 292.134 0.366864 -2.29689 0
M  V30 2958 C 293.128 1.00809 -1.36139 0
M  V30 2959 O 294.334 0.941427 -1.53418 0
M  V30 2960 H 290.709 0.137133 -0.739391 0
M  V30 2961 H 292.68 -0.317538 -2.96706 0
M  V30 2962 C 291.429 1.44751 -3.16137 0
M  V30 2963 H 290.752 0.963473 -3.88017 0
M  V30 2964 H 292.192 1.99315 -3.74232 0
M  V30 2965 C 290.651 2.43869 -2.32442 0
M  V30 2966 O 291.181 3.4872 -1.99392 0
M  V30 2967 N 289.387 2.15105 -1.95392 0
M  V30 2968 H 288.934 1.29866 -2.22469 0
M  V30 2969 H 288.892 2.81661 -1.39693 0
M  V30 2970 N 292.664 1.56529 -0.183458 0
M  V30 2971 C 293.627 2.17324 0.728223 0
M  V30 2972 C 294.627 1.12453 1.14939 0
M  V30 2973 O 295.817 1.37902 1.06437 0
M  V30 2974 C 292.949 2.76591 1.99274 0
M  V30 2975 H 294.142 2.99241 0.198772 0
M  V30 2976 H 291.695 1.5616 0.0661391 0
M  V30 2977 H 292.43 1.98441 2.56499 0
M  V30 2978 H 292.215 3.5335 1.69959 0
M  V30 2979 H 293.705 3.23311 2.6431 0
M  V30 2980 N 294.142 -0.090211 1.57342 0
M  V30 2981 C 295.074 -1.13541 1.99101 0
M  V30 2982 C 296.087 -1.3604 0.894258 0
M  V30 2983 O 297.276 -1.34606 1.17233 0
M  V30 2984 C 294.376 -2.49001 2.29895 0
M  V30 2985 C 293.549 -2.46712 3.61182 0
M  V30 2986 C 292.608 -3.64136 3.79857 0
M  V30 2987 O 291.634 -3.46405 4.51655 0
M  V30 2988 N 292.836 -4.83802 3.20806 0
M  V30 2989 H 295.601 -0.779942 2.89373 0
M  V30 2990 H 293.162 -0.279125 1.59476 0
M  V30 2991 H 295.154 -3.26166 2.39578 0
M  V30 2992 H 293.724 -2.76619 1.45605 0
M  V30 2993 H 292.944 -1.55058 3.62423 0
M  V30 2994 H 294.232 -2.42265 4.4742 0
M  V30 2995 H 293.63 -5.01112 2.62494 0
M  V30 2996 H 292.187 -5.58543 3.35966 0
M  V30 2997 N 295.62 -1.53406 -0.361157 0
M  V30 2998 C 297.036 -1.43277 -0.703124 0
M  V30 2999 C 297.236 -0.575384 -1.9311 0
M  V30 3000 O 296.292 -0.0595362 -2.5243 0
M  V30 3001 C 297.605 -2.8653 -0.9122 0
M  V30 3002 C 299.153 -2.96191 -1.01193 0
M  V30 3003 C 299.628 -4.40514 -1.25345 0
M  V30 3004 N 301.119 -4.43962 -1.32105 0
M  V30 3005 C 301.854 -5.52746 -1.5251 0
M  V30 3006 N 301.35 -6.71567 -1.70203 0
M  V30 3007 N 303.143 -5.40331 -1.54916 0
M  V30 3008 H 295.294 -2.07654 0.446475 0
M  V30 3009 H 297.557 -0.937944 0.137715 0
M  V30 3010 H 297.263 -3.51605 -0.0816414 0
M  V30 3011 H 297.137 -3.30441 -1.81903 0
M  V30 3012 H 299.524 -2.31266 -1.83303 0
M  V30 3013 H 299.605 -2.55667 -0.0823929 0
M  V30 3014 H 299.249 -5.06014 -0.437346 0
M  V30 3015 H 299.179 -4.78614 -2.19627 0
M  V30 3016 H 301.67 -3.58332 -1.20028 0
M  V30 3017 H 301.983 -7.50241 -1.85359 0
M  V30 3018 H 300.328 -6.74545 -1.67373 0
M  V30 3019 H 303.519 -4.46465 -1.40663 0
M  V30 3020 H 303.692 -6.25173 -1.70477 0
M  V30 3021 N 297.098 0.621204 -1.44841 0
M  V30 3022 C 298.344 1.38073 -1.49357 0
M  V30 3023 C 298.699 1.91973 -0.128115 0
M  V30 3024 O 297.992 1.71311 0.858087 0
M  V30 3025 C 298.186 2.55675 -2.4973 0
M  V30 3026 C 298.015 2.13289 -3.95901 0
M  V30 3027 C 296.785 2.001 -4.63991 0
M  V30 3028 C 298.983 1.7159 -4.84831 0
M  V30 3029 N 296.965 1.51381 -5.94943 0
M  V30 3030 C 298.336 1.34188 -6.05304 0
M  V30 3031 C 300.391 1.59059 -4.7181 0
M  V30 3032 C 299.094 0.855085 -7.14199 0
M  V30 3033 C 301.12 1.11784 -5.8074 0
M  V30 3034 C 300.482 0.753385 -7.0036 0
M  V30 3035 H 296.581 0.499675 -0.601539 0
M  V30 3036 H 299.165 0.711609 -1.8123 0
M  V30 3037 H 297.336 3.20201 -2.19832 0
M  V30 3038 H 299.068 3.22509 -2.4448 0
M  V30 3039 H 295.823 2.20863 -4.18947 0
M  V30 3040 H 296.247 1.29293 -6.64539 0
M  V30 3041 H 300.889 1.85865 -3.79755 0
M  V30 3042 H 298.607 0.574552 -8.06055 0
M  V30 3043 H 302.193 1.02533 -5.72694 0
M  V30 3044 H 301.073 0.393183 -7.83214 0
M  V30 3045 N 298.576 1.31904 0.862503 0
M  V30 3046 C 299.506 1.22782 1.98612 0
M  V30 3047 C 300.487 0.113362 1.69722 0
M  V30 3048 O 301.672 0.299218 1.91881 0
M  V30 3049 C 298.802 0.942058 3.34279 0
M  V30 3050 C 297.756 2.0169 3.77499 0
M  V30 3051 C 297.082 1.58369 5.10709 0
M  V30 3052 C 298.382 3.43096 3.93805 0
M  V30 3053 H 300.076 2.16788 2.06502 0
M  V30 3054 H 297.622 1.04366 0.992154 0
M  V30 3055 H 299.575 0.864818 4.1243 0
M  V30 3056 H 298.299 -0.0336603 3.26583 0
M  V30 3057 H 296.958 2.08416 3.01593 0
M  V30 3058 H 296.606 0.595628 4.99461 0
M  V30 3059 H 296.306 2.30279 5.40597 0
M  V30 3060 H 297.83 1.52067 5.91361 0
M  V30 3061 H 299.244 3.39003 4.62331 0
M  V30 3062 H 297.641 4.13288 4.35101 0
M  V30 3063 H 298.711 3.83334 2.96957 0
M  V30 3064 N 300.054 -1.07777 1.14986 0
M  V30 3065 C 301.002 -2.16964 0.838406 0
M  V30 3066 C 301.996 -1.68372 -0.186386 0
M  V30 3067 O 303.202 -1.79951 -0.0418465 0
M  V30 3068 H 299.577 -0.708006 0.253439 0
M  V30 3069 H 301.548 -2.40454 1.76704 0
M  V30 3070 C 300.297 -3.4604 0.339335 0
M  V30 3071 H 299.62 -3.83813 1.11927 0
M  V30 3072 H 301.06 -4.23698 0.160021 0
M  V30 3073 C 299.519 -3.23569 -0.938325 0
M  V30 3074 O 300.049 -3.47752 -2.01077 0
M  V30 3075 N 298.255 -2.77079 -0.876117 0
M  V30 3076 H 297.802 -2.576 -0.00322037 0
M  V30 3077 H 297.76 -2.62422 -1.73153 0
M  V30 3078 N 301.532 -0.945985 -1.26051 0
M  V30 3079 C 302.779 -0.596118 -1.93527 0
M  V30 3080 C 303.107 0.865559 -1.74179 0
M  V30 3081 O 302.362 1.63524 -1.0751 0
M  V30 3082 C 302.661 -0.890475 -3.46129 0
M  V30 3083 C 302.327 -2.3368 -3.85622 0
M  V30 3084 C 300.989 -2.73216 -3.96114 0
M  V30 3085 C 303.341 -3.27648 -4.05334 0
M  V30 3086 C 300.669 -4.05806 -4.2372 0
M  V30 3087 C 303.021 -4.59841 -4.3443 0
M  V30 3088 C 301.685 -4.99185 -4.43137 0
M  V30 3089 H 300.955 -0.218135 -0.708165 0
M  V30 3090 H 303.602 -1.1934 -1.49768 0
M  V30 3091 H 301.907 -0.210711 -3.91233 0
M  V30 3092 H 303.604 -0.598478 -3.96509 0
M  V30 3093 H 300.194 -2.02015 -3.78005 0
M  V30 3094 H 304.378 -2.98298 -3.96651 0
M  V30 3095 H 299.634 -4.35945 -4.28675 0
M  V30 3096 H 303.808 -5.32641 -4.48628 0
M  V30 3097 H 301.435 -6.01952 -4.64282 0
M  V30 3098 N 303.011 1.40521 -0.713556 0
M  V30 3099 C 303.943 2.29191 -0.0203126 0
M  V30 3100 C 304.956 1.45723 0.725864 0
M  V30 3101 O 306.145 1.69033 0.573581 0
M  V30 3102 C 303.245 3.2395 0.995486 0
M  V30 3103 C 302.418 4.36262 0.315256 0
M  V30 3104 C 301.477 5.11474 1.23616 0
M  V30 3105 O 300.503 5.64606 0.721719 0
M  V30 3106 N 301.705 5.20638 2.56743 0
M  V30 3107 H 304.47 2.89327 -0.781652 0
M  V30 3108 H 302.031 1.51869 -0.561022 0
M  V30 3109 H 304.023 3.71137 1.61368 0
M  V30 3110 H 302.593 2.64995 1.6582 0
M  V30 3111 H 301.813 3.91228 -0.483106 0
M  V30 3112 H 303.101 5.08558 -0.157004 0
M  V30 3113 H 302.499 4.7895 3.01037 0
M  V30 3114 H 301.056 5.71339 3.13712 0
M  V30 3115 N 304.489 0.459591 1.5075 0
M  V30 3116 C 305.737 -0.0991532 2.01857 0
M  V30 3117 C 306.058 -1.41247 1.34441 0
M  V30 3118 O 305.328 -1.89775 0.486022 0
M  V30 3119 H 303.908 -0.039633 0.745948 0
M  V30 3120 H 306.57 0.607387 1.85194 0
M  V30 3121 H 305.666 -0.258998 3.11023 0
M  V30 3122 N 305.967 -1.56429 0.191757 0
M  V30 3123 C 307.244 -1.89224 -0.495332 0
M  V30 3124 C 307.624 -1.10478 -1.79883 0
M  V30 3125 O 306.972 -0.204852 -2.2758 0
M  V30 3126 C 307.182 -3.41548 -0.717367 0
M  V30 3127 C 308.53 -4.11711 -1.03823 0
M  V30 3128 O 309.554 -3.4698 -0.805204 0
M  V30 3129 O 308.413 -5.2611 -1.47887 0
M  V30 3130 H 305.507 -0.785788 -0.25781 0
M  V30 3131 H 308.053 -1.68111 0.231721 0
M  V30 3132 H 306.825 -3.90772 0.203287 0
M  V30 3133 H 306.448 -3.68342 -1.497 0
M  V30 3134 N 307.445 0.0818655 -1.57387 0
M  V30 3135 C 308.673 0.796108 -1.9097 0
M  V30 3136 C 309.088 1.71626 -0.786757 0
M  V30 3137 O 308.445 1.80908 0.240513 0
M  V30 3138 C 308.496 1.59829 -3.24248 0
M  V30 3139 O 308.217 0.715131 -4.32224 0
M  V30 3140 C 309.718 2.41442 -3.7178 0
M  V30 3141 H 306.938 0.22691 -0.631469 0
M  V30 3142 H 309.482 0.0551439 -2.04426 0
M  V30 3143 H 307.637 2.29163 -3.12351 0
M  V30 3144 H 308.051 1.27205 -5.08841 0
M  V30 3145 H 309.525 2.932 -4.67694 0
M  V30 3146 H 310.002 3.2051 -3.00283 0
M  V30 3147 H 310.608 1.77283 -3.86589 0
M  V30 3148 N 308.923 1.53595 0.353017 0
M  V30 3149 C 310.171 1.70049 1.09215 0
M  V30 3150 C 310.492 0.461406 1.89463 0
M  V30 3151 O 309.762 -0.524633 1.88744 0
M  V30 3152 H 308.342 0.626912 0.40619 0
M  V30 3153 H 311.004 1.90822 0.396585 0
M  V30 3154 H 310.1 2.56718 1.77488 0
M  V30 3155 N 310.401 -0.613514 1.45168 0
M  V30 3156 C 311.349 -1.74572 1.53712 0
M  V30 3157 C 312.343 -1.64426 0.407505 0
M  V30 3158 O 313.549 -1.70291 0.583176 0
M  V30 3159 H 309.924 -0.576641 0.48269 0
M  V30 3160 H 311.895 -1.64492 2.48968 0
M  V30 3161 C 310.644 -3.12943 1.51532 0
M  V30 3162 H 309.967 -3.21407 2.37776 0
M  V30 3163 H 311.407 -3.9201 1.61569 0
M  V30 3164 C 309.866 -3.36053 0.238798 0
M  V30 3165 O 310.396 -3.95837 -0.6838 0
M  V30 3166 N 308.602 -2.9028 0.136359 0
M  V30 3167 H 308.149 -2.41811 0.887999 0
M  V30 3168 H 308.107 -3.06116 -0.716944 0
M  V30 3169 N 311.879 -1.3236 -0.855495 0
M  V30 3170 C 313.127 -1.22629 -1.60644 0
M  V30 3171 C 313.448 0.212136 -1.93843 0
M  V30 3172 O 312.718 1.13666 -1.59552 0
M  V30 3173 H 311.298 -0.450882 -0.595579 0
M  V30 3174 H 313.96 -1.65871 -1.02337 0
M  V30 3175 H 313.056 -1.80832 -2.54374 0
M  V30 3176 N 313.357 1.07166 -1.15556 0
M  V30 3177 C 314.287 2.16403 -0.877046 0
M  V30 3178 C 315.268 1.69217 0.173111 0
M  V30 3179 O 316.453 1.94181 0.027084 0
M  V30 3180 C 313.583 3.45349 -0.367632 0
M  V30 3181 C 312.537 4.05995 -1.35468 0
M  V30 3182 C 311.863 5.30045 -0.704038 0
M  V30 3183 C 313.163 4.45804 -2.72132 0
M  V30 3184 H 314.857 2.39959 -1.79053 0
M  V30 3185 H 312.403 1.15325 -0.862331 0
M  V30 3186 H 314.356 4.21095 -0.160317 0
M  V30 3187 H 313.08 3.21385 0.581326 0
M  V30 3188 H 311.739 3.32296 -1.54839 0
M  V30 3189 H 311.387 5.02373 0.251128 0
M  V30 3190 H 311.087 5.71579 -1.36277 0
M  V30 3191 H 312.611 6.08495 -0.50654 0
M  V30 3192 H 314.025 5.12671 -2.56595 0
M  V30 3193 H 312.422 4.98296 -3.34397 0
M  V30 3194 H 313.492 3.57083 -3.28054 0
M  V30 3195 N 314.835 0.952656 1.25548 0
M  V30 3196 C 315.798 0.475794 2.24207 0
M  V30 3197 C 316.798 -0.419428 1.55234 0
M  V30 3198 O 317.988 -0.216994 1.72843 0
M  V30 3199 C 315.12 -0.312814 3.39462 0
M  V30 3200 H 316.313 1.34779 2.67908 0
M  V30 3201 H 313.866 0.735739 1.37901 0
M  V30 3202 H 314.601 -1.20257 3.01179 0
M  V30 3203 H 314.386 0.329404 3.90714 0
M  V30 3204 H 315.876 -0.635986 4.12729 0
M  V30 3205 N 316.313 -1.40141 0.720998 0
M  V30 3206 C 317.724 -1.83678 0.334553 0
M  V30 3207 C 318.075 -1.6027 -1.13173 0
M  V30 3208 O 317.2 -1.08643 -1.87152 0
M  V30 3209 C 317.795 -3.33437 0.600437 0
M  V30 3210 C 316.354 -3.75447 0.267642 0
M  V30 3211 C 315.501 -2.63296 0.870097 0
M  V30 3212 H 318.452 -1.29331 0.919732 0
M  V30 3213 H 318.473 -3.80269 -0.132517 0
M  V30 3214 H 317.985 -3.50442 1.66768 0
M  V30 3215 H 316.086 -3.64035 -0.794329 0
M  V30 3216 H 316.199 -4.73344 0.74042 0
M  V30 3217 H 314.563 -2.52954 0.297739 0
M  V30 3218 H 315.346 -2.83112 1.94172 0
M  V30 3219 N 317.792 -0.46758 -1.50504 0
M  V30 3220 C 318.722 0.318381 -2.31319 0
M  V30 3221 C 319.703 0.993564 -1.38066 0
M  V30 3222 O 320.888 0.991411 -1.66987 0
M  V30 3223 C 318.018 1.40275 -3.17711 0
M  V30 3224 C 316.972 0.849373 -4.19487 0
M  V30 3225 C 316.298 2.03177 -4.94594 0
M  V30 3226 C 317.598 -0.136942 -5.2212 0
M  V30 3227 H 319.292 -0.356106 -2.97275 0
M  V30 3228 H 316.838 -0.172703 -1.42961 0
M  V30 3229 H 318.791 1.96004 -3.73042 0
M  V30 3230 H 317.515 2.10596 -2.49634 0
M  V30 3231 H 316.174 0.314076 -3.65252 0
M  V30 3232 H 315.822 2.72187 -4.22993 0
M  V30 3233 H 315.522 1.66774 -5.63436 0
M  V30 3234 H 317.046 2.59403 -5.52759 0
M  V30 3235 H 318.46 0.331056 -5.72343 0
M  V30 3236 H 316.857 -0.41507 -5.98663 0
M  V30 3237 H 317.927 -1.06398 -4.73083 0
M  V30 3238 N 319.27 1.56325 -0.20005 0
M  V30 3239 C 320.547 1.89484 0.48529 0
M  V30 3240 C 320.927 1.1143 1.79294 0
M  V30 3241 O 320.275 0.216919 2.27468 0
M  V30 3242 C 320.485 3.41923 0.699243 0
M  V30 3243 C 321.833 4.12256 1.01638 0
M  V30 3244 O 322.857 3.47402 0.786792 0
M  V30 3245 O 321.716 5.26887 1.45095 0
M  V30 3246 H 318.81 0.787144 0.253639 0
M  V30 3247 H 321.356 1.67985 -0.240633 0
M  V30 3248 H 320.128 3.90658 -0.224008 0
M  V30 3249 H 319.751 3.69131 1.47744 0
M  V30 3250 N 320.748 -0.0735177 1.57428 0
M  V30 3251 C 321.997 -0.771809 1.86349 0
M  V30 3252 C 322.31 -1.78828 0.792452 0
M  V30 3253 O 323.516 -2.53602 0.96945 0
M  V30 3254 C 321.972 -1.42358 3.30548 0
M  V30 3255 C 321.58 -0.445761 4.45777 0
M  V30 3256 C 323.324 -2.10434 3.6867 0
M  V30 3257 C 321.231 -1.10335 5.81016 0
M  V30 3258 H 320.161 -0.291999 0.695164 0
M  V30 3259 H 322.812 -0.0250749 1.83483 0
M  V30 3260 H 321.194 -2.21852 3.28021 0
M  V30 3261 H 322.368 0.319239 4.59693 0
M  V30 3262 H 320.683 0.130457 4.16196 0
M  V30 3263 H 323.28 -2.60405 4.67004 0
M  V30 3264 H 323.623 -2.90298 2.98383 0
M  V30 3265 H 324.156 -1.37773 3.7318 0
M  V30 3266 H 320.895 -0.345061 6.54591 0
M  V30 3267 H 320.415 -1.83925 5.70904 0
M  V30 3268 H 322.094 -1.62367 6.26295 0
M  V30 3269 N 322.226 -1.5378 -0.344866 0
M  V30 3270 C 323.454 -1.74899 -1.10534 0
M  V30 3271 C 323.869 -0.487534 -1.82397 0
M  V30 3272 O 323.226 0.540741 -1.74305 0
M  V30 3273 C 323.277 -2.92822 -2.11984 0
M  V30 3274 O 322.998 -4.14089 -1.43044 0
M  V30 3275 C 324.499 -3.25982 -3.00417 0
M  V30 3276 H 321.719 -0.584426 -0.329678 0
M  V30 3277 H 324.263 -2.006 -0.397474 0
M  V30 3278 H 322.418 -2.69457 -2.78338 0
M  V30 3279 H 322.832 -4.80272 -2.10805 0
M  V30 3280 H 324.306 -4.11848 -3.67539 0
M  V30 3281 H 324.783 -2.42228 -3.66363 0
M  V30 3282 H 325.389 -3.51349 -2.39654 0
M  V30 3283 N 323.704 0.605807 -1.45491 0
M  V30 3284 C 324.951 1.36476 -1.49601 0
M  V30 3285 C 325.279 1.94007 -0.138452 0
M  V30 3286 O 324.534 1.75638 0.863114 0
M  V30 3287 C 324.833 2.53012 -2.52428 0
M  V30 3288 C 324.499 2.13617 -3.97087 0
M  V30 3289 C 323.161 2.02587 -4.36477 0
M  V30 3290 C 325.513 1.82899 -4.88055 0
M  V30 3291 C 322.841 1.59064 -5.64726 0
M  V30 3292 C 325.193 1.40861 -6.16718 0
M  V30 3293 C 323.857 1.28391 -6.55036 0
M  V30 3294 H 323.127 0.499402 -0.547429 0
M  V30 3295 H 325.774 0.684546 -1.78847 0
M  V30 3296 H 324.079 3.26379 -2.16758 0
M  V30 3297 H 325.776 3.1124 -2.52845 0
M  V30 3298 H 322.366 2.23129 -3.65939 0
M  V30 3299 H 326.55 1.90317 -4.58359 0
M  V30 3300 H 321.806 1.48034 -5.93208 0
M  V30 3301 H 325.98 1.16138 -6.86648 0
M  V30 3302 H 323.607 0.944403 -7.54311 0
M  V30 3303 N 325.182 1.32811 0.848464 0
M  V30 3304 C 326.132 1.18842 1.94578 0
M  V30 3305 C 327.116 0.0937517 1.60627 0
M  V30 3306 O 328.308 0.320887 1.74067 0
M  V30 3307 C 325.437 0.91999 3.30743 0
M  V30 3308 C 324.523 2.05665 3.70894 0
M  V30 3309 N 324.914 3.30579 3.8282 0
M  V30 3310 C 323.212 1.9612 4.00566 0
M  V30 3311 C 323.913 4.05067 4.17487 0
M  V30 3312 N 322.889 3.33419 4.2934 0
M  V30 3313 H 326.691 2.13536 2.0194 0
M  V30 3314 H 324.205 1.2468 1.0406 0
M  V30 3315 H 326.202 0.800859 4.09136 0
M  V30 3316 H 324.862 -0.0185076 3.24695 0
M  V30 3317 H 325.873 3.65441 3.66978 0
M  V30 3318 H 322.55 1.09871 4.02784 0
M  V30 3319 H 323.94 5.12815 4.34131 0
M  V30 3320 N 326.66 -1.06551 1.16123 0
M  V30 3321 C 327.59 -2.15935 0.88851 0
M  V30 3322 C 328.571 -1.69306 -0.164135 0
M  V30 3323 O 329.756 -1.94193 -0.0167857 0
M  V30 3324 C 326.886 -3.45149 0.385942 0
M  V30 3325 C 325.84 -4.05271 1.3762 0
M  V30 3326 C 325.166 -5.29664 0.732137 0
M  V30 3327 C 326.466 -4.44355 2.74493 0
M  V30 3328 H 328.16 -2.39006 1.80323 0
M  V30 3329 H 325.706 -1.14866 0.868435 0
M  V30 3330 H 327.659 -4.21004 0.182647 0
M  V30 3331 H 326.383 -3.21689 -0.564274 0
M  V30 3332 H 325.042 -3.3147 1.56599 0
M  V30 3333 H 324.69 -5.02499 -0.224483 0
M  V30 3334 H 324.39 -5.70848 1.39307 0
M  V30 3335 H 325.914 -6.08218 0.538802 0
M  V30 3336 H 327.328 -5.11303 2.59311 0
M  V30 3337 H 325.725 -4.96515 3.37035 0
M  V30 3338 H 326.795 -3.55339 3.29943 0
M  V30 3339 N 328.138 -0.959301 -1.25041 0
M  V30 3340 C 329.068 -0.501388 -2.28053 0
M  V30 3341 C 330.049 0.454673 -1.63911 0
M  V30 3342 O 331.234 0.352618 -1.90972 0
M  V30 3343 C 328.364 0.217224 -3.4662 0
M  V30 3344 C 327.318 -0.654034 -4.22973 0
M  V30 3345 C 326.644 0.195589 -5.34342 0
M  V30 3346 C 327.944 -1.93447 -4.85155 0
M  V30 3347 H 329.638 -1.36238 -2.66608 0
M  V30 3348 H 327.184 -0.656534 -1.28163 0
M  V30 3349 H 329.137 0.548732 -4.17812 0
M  V30 3350 H 327.861 1.1125 -3.07068 0
M  V30 3351 H 326.52 -0.968693 -3.5357 0
M  V30 3352 H 326.168 1.09076 -4.91031 0
M  V30 3353 H 325.868 -0.384091 -5.86343 0
M  V30 3354 H 327.392 0.521958 -6.08365 0
M  V30 3355 H 328.806 -1.66908 -5.48466 0
M  V30 3356 H 327.203 -2.46018 -5.47353 0
M  V30 3357 H 328.273 -2.63466 -4.07079 0
M  V30 3358 N 329.616 1.39756 -0.72842 0
M  V30 3359 C 330.526 2.34444 -0.0855374 0
M  V30 3360 C 331.542 1.57976 0.729356 0
M  V30 3361 O 332.718 1.90301 0.659346 0
M  V30 3362 C 329.783 3.36965 0.815798 0
M  V30 3363 C 328.844 4.29299 -0.0105996 0
M  V30 3364 C 328.077 5.26923 0.84781 0
M  V30 3365 O 328.3 5.30859 2.08673 0
M  V30 3366 O 327.234 6.01249 0.279969 0
M  V30 3367 H 331.06 2.91065 -0.866892 0
M  V30 3368 H 328.645 1.4117 -0.48902 0
M  V30 3369 H 330.527 3.99804 1.33171 0
M  V30 3370 H 329.202 2.82739 1.57608 0
M  V30 3371 H 328.109 3.69703 -0.571877 0
M  V30 3372 H 329.442 4.86712 -0.73295 0
M  V30 3373 N 331.094 0.475555 1.50254 0
M  V30 3374 C 332.505 0.0215174 1.86688 0
M  V30 3375 C 332.856 -1.38467 1.39001 0
M  V30 3376 O 331.981 -2.02732 0.756894 0
M  V30 3377 C 332.576 0.0322715 3.38785 0
M  V30 3378 C 331.135 -0.366314 3.74613 0
M  V30 3379 C 330.282 0.415832 2.74164 0
M  V30 3380 H 333.233 0.689612 1.42934 0
M  V30 3381 H 333.254 -0.76889 3.7265 0
M  V30 3382 H 332.766 1.05584 3.73462 0
M  V30 3383 H 330.867 -1.39406 3.45538 0
M  V30 3384 H 330.98 -0.064555 4.79057 0
M  V30 3385 H 329.344 -0.131048 2.54363 0
M  V30 3386 H 330.127 1.43899 3.11686 0
M  V30 3387 N 332.573 -1.56217 0.208337 0
M  V30 3388 C 333.821 -1.97558 -0.426076 0
M  V30 3389 C 334.142 -1.09683 -1.61229 0
M  V30 3390 O 333.412 -0.170956 -1.95153 0
M  V30 3391 H 331.992 -0.729575 -0.160405 0
M  V30 3392 H 334.654 -1.92606 0.298155 0
M  V30 3393 H 333.75 -3.02672 -0.761312 0
M  V30 3394 N 334.051 0.0651679 -1.57465 0
M  V30 3395 C 334.983 1.10359 -2.00882 0
M  V30 3396 C 335.996 1.346 -0.915788 0
M  V30 3397 O 337.185 1.32723 -1.1936 0
M  V30 3398 C 334.285 2.45312 -2.33828 0
M  V30 3399 C 333.458 2.40934 -3.65061 0
M  V30 3400 C 332.517 3.58047 -3.85602 0
M  V30 3401 O 331.543 3.39175 -4.57109 0
M  V30 3402 N 332.745 4.78637 -3.28462 0
M  V30 3403 H 335.51 0.733807 -2.90578 0
M  V30 3404 H 333.071 0.253719 -1.599 0
M  V30 3405 H 335.063 3.22314 -2.44737 0
M  V30 3406 H 333.633 2.74267 -1.49988 0
M  V30 3407 H 332.853 1.49273 -3.64844 0
M  V30 3408 H 334.141 2.35117 -4.51218 0
M  V30 3409 H 333.539 4.96872 -2.70433 0
M  V30 3410 H 332.096 5.53127 -3.44809 0
M  V30 3411 N 335.529 1.53961 0.336706 0
M  V30 3412 C 336.492 1.81724 1.39675 0
M  V30 3413 C 337.492 0.688532 1.45313 0
M  V30 3414 O 338.682 0.956829 1.45569 0
M  V30 3415 C 335.814 1.96543 2.78538 0
M  V30 3416 H 337.007 2.76424 1.16318 0
M  V30 3417 H 334.56 1.45478 0.571474 0
M  V30 3418 H 335.295 1.0401 3.07168 0
M  V30 3419 H 335.08 2.78665 2.75841 0
M  V30 3420 H 336.57 2.19516 3.5525 0
M  V30 3421 N 337.007 -0.598083 1.45811 0
M  V30 3422 C 338.253 -1.35882 1.50545 0
M  V30 3423 C 338.586 -1.93616 0.150445 0
M  V30 3424 O 337.861 -1.75604 -0.83628 0
M  V30 3425 C 338.144 -2.49966 2.59208 0
M  V30 3426 C 337.997 -1.97367 4.04186 0
M  V30 3427 C 339.316 -3.52068 2.64076 0
M  V30 3428 H 336.435 -0.492717 0.548087 0
M  V30 3429 H 339.077 -0.673319 1.77669 0
M  V30 3430 H 337.227 -3.08443 2.3621 0
M  V30 3431 H 338.899 -1.43466 4.38423 0
M  V30 3432 H 337.142 -1.283 4.14393 0
M  V30 3433 H 337.813 -2.79649 4.75921 0
M  V30 3434 H 340.289 -3.03448 2.84708 0
M  V30 3435 H 339.165 -4.2937 3.41954 0
M  V30 3436 H 339.426 -4.08304 1.69531 0
M  V30 3437 N 338.485 -1.33259 -0.841409 0
M  V30 3438 C 339.733 -1.24326 -1.59334 0
M  V30 3439 C 340.054 0.191564 -1.94057 0
M  V30 3440 O 339.324 1.11967 -1.60749 0
M  V30 3441 H 337.904 -0.457174 -0.590763 0
M  V30 3442 H 340.566 -1.66947 -1.00571 0
M  V30 3443 H 339.662 -1.8352 -2.52442 0
M  V30 3444 N 339.963 1.05934 -1.16686 0
M  V30 3445 C 341.188 1.83029 -0.975455 0
M  V30 3446 C 341.613 1.82096 0.471452 0
M  V30 3447 O 340.971 1.22443 1.33706 0
M  V30 3448 C 341.019 3.27372 -1.51195 0
M  V30 3449 O 340.123 4.06054 -0.720701 0
M  V30 3450 H 339.464 0.566194 -0.346872 0
M  V30 3451 H 341.994 1.33541 -1.55009 0
M  V30 3452 H 342.004 3.78186 -1.53099 0
M  V30 3453 H 340.679 3.27366 -2.56523 0
M  V30 3454 H 339.256 3.64812 -0.772458 0
M  V30 3455 N 341.441 0.965919 1.2453 0
M  V30 3456 C 342.689 0.625593 1.92174 0
M  V30 3457 C 343.01 -0.841652 1.75901 0
M  V30 3458 O 342.28 -1.60061 1.12948 0
M  V30 3459 H 340.86 0.228388 0.71123 0
M  V30 3460 H 343.522 1.2266 1.51461 0
M  V30 3461 H 342.618 0.864653 2.99884 0
M  V30 3462 N 342.919 -1.39368 0.735821 0
M  V30 3463 C 344.168 -1.99733 0.281004 0
M  V30 3464 C 344.481 -1.59055 -1.13846 0
M  V30 3465 O 345.687 -2.12262 -1.69284 0
M  V30 3466 C 344.143 -3.57057 0.451462 0
M  V30 3467 C 343.751 -4.06697 1.87886 0
M  V30 3468 C 345.495 -4.2446 0.0584616 0
M  V30 3469 C 343.402 -5.56598 1.99883 0
M  V30 3470 H 342.332 -0.747163 0.101311 0
M  V30 3471 H 344.983 -1.59357 0.909819 0
M  V30 3472 H 343.365 -3.95234 -0.246263 0
M  V30 3473 H 344.539 -3.79853 2.60861 0
M  V30 3474 H 342.854 -3.5196 2.22515 0
M  V30 3475 H 345.451 -5.34549 0.127099 0
M  V30 3476 H 345.794 -4.04444 -0.986433 0
M  V30 3477 H 346.327 -3.9146 0.707374 0
M  V30 3478 H 343.066 -5.81494 3.02564 0
M  V30 3479 H 342.586 -5.85242 1.31346 0
M  V30 3480 H 344.265 -6.22022 1.78039 0
M  V30 3481 N 344.397 -0.483516 -1.5 0
M  V30 3482 C 345.329 0.340634 -2.26655 0
M  V30 3483 C 346.342 0.946152 -1.32483 0
M  V30 3484 O 347.531 0.832453 -1.579 0
M  V30 3485 C 344.631 1.4929 -3.04246 0
M  V30 3486 C 343.804 0.997903 -4.25865 0
M  V30 3487 C 342.863 2.02569 -4.85646 0
M  V30 3488 O 341.889 1.60128 -5.46212 0
M  V30 3489 N 343.091 3.3548 -4.73744 0
M  V30 3490 H 345.856 -0.316577 -2.98023 0
M  V30 3491 H 343.417 -0.315024 -1.58806 0
M  V30 3492 H 345.409 2.17766 -3.41116 0
M  V30 3493 H 343.979 2.05458 -2.35597 0
M  V30 3494 H 343.199 0.138617 -3.93956 0
M  V30 3495 H 344.487 0.645305 -5.04691 0
M  V30 3496 H 343.885 3.72661 -4.25605 0
M  V30 3497 H 342.442 3.99718 -5.14848 0
M  V30 3498 N 345.875 1.56104 -0.216619 0
M  V30 3499 C 347.286 1.844 0.292128 0
M  V30 3500 C 347.637 1.13788 1.59833 0
M  V30 3501 O 346.762 0.405888 2.12559 0
M  V30 3502 C 347.357 3.3452 0.53681 0
M  V30 3503 C 345.916 3.63151 0.989876 0
M  V30 3504 C 345.063 2.77255 0.0502302 0
M  V30 3505 H 348.014 1.52481 -0.439926 0
M  V30 3506 H 348.035 3.54459 1.38345 0
M  V30 3507 H 347.547 3.85885 -0.414031 0
M  V30 3508 H 345.648 3.17238 1.95425 0
M  V30 3509 H 345.761 4.71177 0.867698 0
M  V30 3510 H 344.125 2.48555 0.556117 0
M  V30 3511 H 344.908 3.31416 -0.89544 0
M  V30 3512 N 347.353 -0.0568162 1.57498 0
M  V30 3513 C 348.283 -1.06593 2.0775 0
M  V30 3514 C 349.264 -1.39448 0.974082 0
M  V30 3515 O 350.449 -1.48815 1.24771 0
M  V30 3516 C 347.579 -2.37509 2.5339 0
M  V30 3517 C 346.533 -2.1897 3.67745 0
M  V30 3518 C 345.859 -3.55402 3.99492 0
M  V30 3519 C 347.159 -1.59859 4.97235 0
M  V30 3520 H 348.853 -0.647706 2.9231 0
M  V30 3521 H 346.399 -0.310116 1.40621 0
M  V30 3522 H 348.352 -3.08409 2.87162 0
M  V30 3523 H 347.076 -2.8134 1.65878 0
M  V30 3524 H 345.735 -1.50508 3.3428 0
M  V30 3525 H 345.383 -3.9683 3.09088 0
M  V30 3526 H 345.083 -3.43831 4.76502 0
M  V30 3527 H 346.607 -4.27708 4.35773 0
M  V30 3528 H 348.021 -2.20642 5.29141 0
M  V30 3529 H 346.418 -1.58942 5.78669 0
M  V30 3530 H 347.488 -0.561506 4.81638 0
M  V30 3531 N 348.832 -1.54138 -0.328536 0
M  V30 3532 C 349.78 -1.83894 -1.42428 0
M  V30 3533 C 350.774 -0.710478 -1.53781 0
M  V30 3534 O 351.98 -0.894062 -1.56226 0
M  V30 3535 H 348.355 -0.582837 -0.475189 0
M  V30 3536 H 350.326 -2.75537 -1.14552 0
M  V30 3537 C 349.075 -2.07866 -2.78724 0
M  V30 3538 H 348.398 -2.94158 -2.7076 0
M  V30 3539 H 349.838 -2.32644 -3.54476 0
M  V30 3540 C 348.297 -0.868689 -3.25508 0
M  V30 3541 O 348.827 -0.0754908 -4.01629 0
M  V30 3542 N 347.033 -0.681711 -2.82491 0
M  V30 3543 H 346.58 -1.32838 -2.20708 0
M  V30 3544 H 346.538 0.126374 -3.14146 0
M  V30 3545 N 350.31 0.590341 -1.46126 0
M  V30 3546 C 351.22 1.72793 -1.58681 0
M  V30 3547 C 352.236 1.67516 -0.470566 0
M  V30 3548 O 353.412 1.87562 -0.733642 0
M  V30 3549 C 350.477 3.09287 -1.5666 0
M  V30 3550 C 349.538 3.25886 -2.79458 0
M  V30 3551 C 348.771 4.55869 -2.77524 0
M  V30 3552 O 348.994 5.3928 -1.85832 0
M  V30 3553 O 347.928 4.75552 -3.68964 0
M  V30 3554 H 351.754 1.65149 -2.54872 0
M  V30 3555 H 349.339 0.756486 -1.28832 0
M  V30 3556 H 351.221 3.90577 -1.58202 0
M  V30 3557 H 349.896 3.17385 -0.636271 0
M  V30 3558 H 348.803 2.44119 -2.83472 0
M  V30 3559 H 350.136 3.22675 -3.71674 0
M  V30 3560 N 351.788 1.33704 0.83433 0
M  V30 3561 C 353.036 1.25169 1.58673 0
M  V30 3562 C 353.357 -0.18127 1.94156 0
M  V30 3563 O 352.627 -1.11113 1.6134 0
M  V30 3564 H 351.207 0.4603 0.58833 0
M  V30 3565 H 353.869 1.67478 0.996847 0
M  V30 3566 H 352.965 1.84856 2.51465 0
M  V30 3567 N 353.266 -1.05314 1.17247 0
M  V30 3568 C 354.512 -1.78557 0.961513 0
M  V30 3569 C 354.845 -1.87419 -0.508697 0
M  V30 3570 O 354.12 -1.37307 -1.37757 0
M  V30 3571 C 354.403 -3.22514 1.60176 0
M  V30 3572 C 354.256 -3.21673 3.14399 0
M  V30 3573 C 355.575 -4.20318 1.30463 0
M  V30 3574 H 352.694 -0.6482 0.350723 0
M  V30 3575 H 355.336 -1.23102 1.44727 0
M  V30 3576 H 353.486 -3.69867 1.18871 0
M  V30 3577 H 355.158 -2.82405 3.64753 0
M  V30 3578 H 353.401 -2.60048 3.47214 0
M  V30 3579 H 354.072 -4.23271 3.54324 0
M  V30 3580 H 356.548 -3.81454 1.66229 0
M  V30 3581 H 355.424 -5.19289 1.77848 0
M  V30 3582 H 355.685 -4.41526 0.22521 0
M  V30 3583 N 354.744 -0.972509 -1.24016 0
M  V30 3584 C 355.707 -0.511403 -2.23422 0
M  V30 3585 C 356.707 0.394679 -1.55881 0
M  V30 3586 O 357.897 0.189469 -1.73167 0
M  V30 3587 C 355.029 0.258769 -3.39916 0
M  V30 3588 H 356.222 -1.39024 -2.6573 0
M  V30 3589 H 353.775 -0.757585 -1.36713 0
M  V30 3590 H 354.51 1.1545 -3.03054 0
M  V30 3591 H 354.295 -0.391522 -3.9014 0
M  V30 3592 H 355.785 0.570244 -4.13688 0
M  V30 3593 N 356.222 1.38976 -0.743202 0
M  V30 3594 C 357.638 1.53984 -0.419664 0
M  V30 3595 C 357.838 1.70837 1.0685 0
M  V30 3596 O 356.894 1.7135 1.8546 0
M  V30 3597 C 358.207 2.75287 -1.20985 0
M  V30 3598 C 359.755 2.89129 -1.19889 0
M  V30 3599 C 360.23 4.13381 -1.97181 0
M  V30 3600 N 361.721 4.20437 -1.94389 0
M  V30 3601 C 362.456 5.15547 -2.50996 0
M  V30 3602 N 361.952 6.16395 -3.16274 0
M  V30 3603 N 363.745 5.07822 -2.40984 0
M  V30 3604 H 355.896 1.26285 -1.7078 0
M  V30 3605 H 358.159 0.612689 -0.723406 0
M  V30 3606 H 357.865 2.69204 -2.26323 0
M  V30 3607 H 357.739 3.68184 -0.819759 0
M  V30 3608 H 360.126 2.947 -0.153606 0
M  V30 3609 H 360.207 1.97272 -1.62841 0
M  V30 3610 H 359.851 4.08572 -3.01714 0
M  V30 3611 H 359.781 5.04298 -1.51629 0
M  V30 3612 H 362.272 3.48205 -1.46839 0
M  V30 3613 H 362.585 6.85443 -3.56915 0
M  V30 3614 H 360.93 6.16758 -3.20367 0
M  V30 3615 H 364.121 4.27973 -1.89622 0
M  V30 3616 H 364.294 5.81767 -2.85397 0
M  V30 3617 N 357.7 0.491464 1.49741 0
M  V30 3618 C 358.94 -0.0549118 2.04326 0
M  V30 3619 C 359.304 -1.35148 1.36378 0
M  V30 3620 O 360.505 -1.9815 1.81631 0
M  V30 3621 C 358.776 -0.213841 3.5676 0
M  V30 3622 S 360.335 -0.715839 4.32922 0
M  V30 3623 H 357.153 -0.00630513 0.710972 0
M  V30 3624 H 359.755 0.663257 1.83905 0
M  V30 3625 H 358.459 0.73527 4.0376 0
M  V30 3626 H 357.99 -0.957529 3.81569 0
M  V30 3627 H 360.005 -1.9864 4.54705 0
M  V30 3628 N 359.178 -1.55987 0.224894 0
M  V30 3629 C 360.126 -2.21808 -0.700283 0
M  V30 3630 C 361.12 -1.19854 -1.19714 0
M  V30 3631 O 362.326 -1.37925 -1.15658 0
M  V30 3632 H 358.701 -0.711226 -0.244258 0
M  V30 3633 H 360.672 -2.98152 -0.121749 0
M  V30 3634 C 359.421 -2.91444 -1.8962 0
M  V30 3635 H 358.744 -3.69655 -1.52299 0
M  V30 3636 H 360.184 -3.40894 -2.52125 0
M  V30 3637 C 358.643 -1.94098 -2.75368 0
M  V30 3638 O 359.173 -1.46004 -3.74227 0
M  V30 3639 N 357.379 -1.61675 -2.41474 0
M  V30 3640 H 356.926 -2.00979 -1.61137 0
M  V30 3641 H 356.884 -0.968036 -2.99126 0
M  V30 3642 N 360.656 0.0484629 -1.57525 0
M  V30 3643 C 361.566 1.07241 -2.08654 0
M  V30 3644 C 362.582 1.409 -1.02095 0
M  V30 3645 O 363.758 1.50609 -1.33712 0
M  V30 3646 C 360.823 2.36008 -2.5397 0
M  V30 3647 C 359.884 2.09108 -3.7493 0
M  V30 3648 C 359.117 3.31736 -4.18075 0
M  V30 3649 O 359.34 4.41714 -3.60895 0
M  V30 3650 O 358.274 3.18576 -5.10679 0
M  V30 3651 H 362.1 0.667965 -2.96263 0
M  V30 3652 H 359.685 0.26417 -1.47046 0
M  V30 3653 H 361.567 3.11747 -2.83535 0
M  V30 3654 H 360.242 2.75786 -1.69481 0
M  V30 3655 H 359.149 1.31 -3.50414 0
M  V30 3656 H 360.482 1.74198 -4.60343 0
M  V30 3657 N 362.134 1.5431 0.320358 0
M  V30 3658 C 363.359 1.76954 1.08175 0
M  V30 3659 C 363.784 0.518193 1.80821 0
M  V30 3660 O 363.142 -0.530411 1.73368 0
M  V30 3661 C 363.19 2.96451 2.05303 0
M  V30 3662 O 362.294 2.68221 3.13259 0
M  V30 3663 H 361.635 0.586275 0.311733 0
M  V30 3664 H 364.165 2.01342 0.363676 0
M  V30 3665 H 364.175 3.23887 2.48116 0
M  V30 3666 H 362.85 3.87196 1.51829 0
M  V30 3667 H 361.427 2.51744 2.75099 0
M  V30 3668 N 363.613 -0.582584 1.46437 0
M  V30 3669 C 364.545 -1.70618 1.53043 0
M  V30 3670 C 365.558 -1.57322 0.418769 0
M  V30 3671 O 366.747 -1.64744 0.687136 0
M  V30 3672 C 363.847 -3.08869 1.39474 0
M  V30 3673 C 363.02 -3.48166 2.64762 0
M  V30 3674 C 362.079 -4.65478 2.4539 0
M  V30 3675 O 361.105 -4.71333 3.19114 0
M  V30 3676 N 362.307 -5.60365 1.51564 0
M  V30 3677 H 365.072 -1.65405 2.49923 0
M  V30 3678 H 362.633 -0.768567 1.42494 0
M  V30 3679 H 364.625 -3.85143 1.24287 0
M  V30 3680 H 363.195 -3.08449 0.507758 0
M  V30 3681 H 362.415 -2.61598 2.9489 0
M  V30 3682 H 363.703 -3.71188 3.4799 0
M  V30 3683 H 363.101 -5.5837 0.907705 0
M  V30 3684 H 361.658 -6.36068 1.4234 0
M  V30 3685 N 365.091 -1.34144 -0.827227 0
M  V30 3686 C 366.339 -1.26009 -1.58007 0
M  V30 3687 C 366.66 0.170971 -1.94249 0
M  V30 3688 O 365.93 1.10256 -1.61927 0
M  V30 3689 H 364.51 -0.463414 -0.585881 0
M  V30 3690 H 367.172 -1.68005 -0.987951 0
M  V30 3691 H 366.268 -1.86187 -2.50481 0
M  V30 3692 N 366.569 1.04691 -1.17803 0
M  V30 3693 C 367.846 1.7472 -0.879328 0
M  V30 3694 C 368.226 2.01812 0.619271 0
M  V30 3695 O 367.574 1.65824 1.57209 0
M  V30 3696 C 367.784 3.03686 -1.71976 0
M  V30 3697 C 369.132 3.77542 -1.94286 0
M  V30 3698 O 370.156 3.13569 -1.68976 0
M  V30 3699 O 369.015 4.92506 -2.36855 0
M  V30 3700 H 366.109 0.760011 -0.326056 0
M  V30 3701 H 368.655 1.10813 -1.28525 0
M  V30 3702 H 367.427 2.79754 -2.73594 0
M  V30 3703 H 367.05 3.75332 -1.31194 0
M  V30 3704 N 368.047 0.979072 1.23499 0
M  V30 3705 C 369.324 0.563674 1.87302 0
M  V30 3706 C 369.704 -0.959199 1.88049 0
M  V30 3707 O 369.052 -1.83535 1.36114 0
M  V30 3708 C 369.262 1.16822 3.28867 0
M  V30 3709 C 370.61 1.26014 4.0547 0
M  V30 3710 O 371.634 1.12158 3.38082 0
M  V30 3711 O 370.493 1.48044 5.26066 0
M  V30 3712 H 367.587 0.189602 0.804972 0
M  V30 3713 H 370.133 1.07407 1.31384 0
M  V30 3714 H 368.905 2.21049 3.22883 0
M  V30 3715 H 368.528 0.642564 3.92373 0
M  V30 3716 N 369.525 -1.3858 0.750561 0
M  V30 3717 C 370.771 -2.00481 0.305825 0
M  V30 3718 C 371.104 -1.5944 -1.10872 0
M  V30 3719 O 370.379 -0.83052 -1.75877 0
M  V30 3720 C 370.662 -3.5758 0.425287 0
M  V30 3721 C 370.515 -4.08594 1.88072 0
M  V30 3722 C 371.834 -4.39719 -0.183122 0
M  V30 3723 H 368.953 -0.728348 0.112598 0
M  V30 3724 H 371.595 -1.64566 0.949638 0
M  V30 3725 H 369.745 -3.88306 -0.122828 0
M  V30 3726 H 371.417 -3.88523 2.48691 0
M  V30 3727 H 369.66 -3.61574 2.39681 0
M  V30 3728 H 370.331 -5.177 1.91548 0
M  V30 3729 H 372.807 -4.15128 0.284303 0
M  V30 3730 H 371.683 -5.48856 -0.0692757 0
M  V30 3731 H 371.944 -4.23434 -1.27106 0
M  V30 3732 N 371.003 -0.499398 -1.49478 0
M  V30 3733 C 371.966 0.268838 -2.27618 0
M  V30 3734 C 372.966 0.895383 -1.33565 0
M  V30 3735 O 374.156 0.760164 -1.56739 0
M  V30 3736 C 371.288 1.38559 -3.11471 0
M  V30 3737 H 372.481 -0.416812 -2.96989 0
M  V30 3738 H 370.034 -0.254313 -1.54217 0
M  V30 3739 H 370.769 2.10544 -2.46661 0
M  V30 3740 H 370.554 0.941797 -3.80621 0
M  V30 3741 H 372.044 1.92678 -3.70493 0
M  V30 3742 N 372.481 1.55866 -0.233164 0
M  V30 3743 C 373.709 2.02998 0.399905 0
M  V30 3744 C 374.124 1.11274 1.52524 0
M  V30 3745 O 373.481 0.124528 1.82075 0
M  V30 3746 C 373.532 3.4958 0.920639 0
M  V30 3747 O 373.253 4.37808 -0.159834 0
M  V30 3748 C 374.754 4.12411 1.62578 0
M  V30 3749 H 371.974 0.664006 0.0966281 0
M  V30 3750 H 374.518 2.0143 -0.353013 0
M  V30 3751 H 372.673 3.51727 1.62379 0
M  V30 3752 H 373.087 5.23981 0.23337 0
M  V30 3753 H 374.561 5.16711 1.94201 0
M  V30 3754 H 375.038 3.5809 2.54299 0
M  V30 3755 H 375.644 4.14148 0.967553 0
M  V30 3756 N 373.959 -0.0401083 1.57549 0
M  V30 3757 C 375.199 -0.738098 1.90608 0
M  V30 3758 C 375.563 -1.73107 0.830539 0
M  V30 3759 O 376.764 -2.4765 1.04513 0
M  V30 3760 C 375.035 -1.39985 3.28845 0
M  V30 3761 S 376.594 -2.12852 3.83718 0
M  V30 3762 H 373.412 -0.24477 0.667539 0
M  V30 3763 H 376.014 0.00693599 1.95499 0
M  V30 3764 H 374.718 -0.663775 4.04997 0
M  V30 3765 H 374.249 -2.18366 3.2723 0
M  V30 3766 H 376.264 -3.39842 3.61555 0
M  V30 3767 N 375.437 -1.54477 -0.31217 0
M  V30 3768 C 376.662 -1.77526 -1.07235 0
M  V30 3769 C 377.087 -0.527775 -1.80544 0
M  V30 3770 O 376.445 0.52121 -1.73646 0
M  V30 3771 C 376.493 -2.97535 -2.03728 0
M  V30 3772 O 375.597 -2.69878 -3.11833 0
M  V30 3773 H 374.938 -0.58792 -0.30862 0
M  V30 3774 H 377.468 -2.01532 -0.352993 0
M  V30 3775 H 377.478 -3.25198 -2.46395 0
M  V30 3776 H 376.153 -3.87996 -1.49774 0
M  V30 3777 H 374.73 -2.53199 -2.7376 0
M  V30 3778 N 376.915 0.57481 -1.46744 0
M  V30 3779 C 378.155 1.34369 -1.54027 0
M  V30 3780 C 378.519 1.91051 -0.190642 0
M  V30 3781 O 379.72 2.68444 -0.138255 0
M  V30 3782 C 377.991 2.43706 -2.61423 0
M  V30 3783 S 379.55 3.30915 -2.88167 0
M  V30 3784 H 376.368 0.45768 -0.544105 0
M  V30 3785 H 378.97 0.659959 -1.84024 0
M  V30 3786 H 377.674 2.0047 -3.58106 0
M  V30 3787 H 377.205 3.16842 -2.33184 0
M  V30 3788 H 379.22 4.42742 -2.24039 0
M  V30 3789 N 378.394 1.34581 0.820102 0
M  V30 3790 C 379.326 1.22236 1.93884 0
M  V30 3791 C 380.339 0.148776 1.62119 0
M  V30 3792 O 381.528 0.400877 1.7394 0
M  V30 3793 C 378.628 0.856542 3.27897 0
M  V30 3794 C 377.801 2.02569 3.87666 0
M  V30 3795 C 376.86 1.63782 5.00062 0
M  V30 3796 O 375.886 2.35477 5.18208 0
M  V30 3797 N 377.088 0.553611 5.77854 0
M  V30 3798 H 379.853 2.18615 2.05006 0
M  V30 3799 H 377.414 1.27573 0.99683 0
M  V30 3800 H 379.406 0.578806 4.0054 0
M  V30 3801 H 377.976 -0.0171518 3.12595 0
M  V30 3802 H 377.196 2.468 3.07382 0
M  V30 3803 H 378.484 2.80752 4.24329 0
M  V30 3804 H 377.882 -0.0423528 5.65684 0
M  V30 3805 H 376.439 0.335614 6.50935 0
M  V30 3806 N 379.872 -1.04064 1.18357 0
M  V30 3807 C 381.149 -1.74252 0.888581 0
M  V30 3808 C 381.529 -2.02138 -0.60856 0
M  V30 3809 O 380.877 -1.66656 -1.56327 0
M  V30 3810 C 381.087 -3.0277 1.73584 0
M  V30 3811 C 382.435 -3.76506 1.96286 0
M  V30 3812 O 383.459 -3.12668 1.70637 0
M  V30 3813 O 382.318 -4.91243 2.39464 0
M  V30 3814 H 379.412 -0.758271 0.330082 0
M  V30 3815 H 381.958 -1.1013 1.2911 0
M  V30 3816 H 380.73 -2.78299 2.75073 0
M  V30 3817 H 380.353 -3.74631 1.33183 0
M  V30 3818 N 381.35 -0.985608 -1.22978 0
M  V30 3819 C 382.59 -0.665487 -1.93263 0
M  V30 3820 C 382.954 0.78706 -1.75127 0
M  V30 3821 O 384.155 1.21826 -2.39608 0
M  V30 3822 C 382.426 -1.0515 -3.41582 0
M  V30 3823 S 383.985 -0.848637 -4.30516 0
M  V30 3824 H 380.803 -0.24355 -0.667985 0
M  V30 3825 H 383.405 -1.26635 -1.48942 0
M  V30 3826 H 382.109 -2.10517 -3.52293 0
M  V30 3827 H 381.64 -0.442134 -3.90908 0
M  V30 3828 H 383.655 0.264717 -4.95493 0
M  V30 3829 N 382.828 1.3818 -0.7579 0
M  V30 3830 C 383.791 2.28764 -0.141286 0
M  V30 3831 C 384.791 1.47388 0.642907 0
M  V30 3832 O 385.981 1.67781 0.468536 0
M  V30 3833 C 383.113 3.31184 0.808069 0
M  V30 3834 H 384.306 2.848 -0.939633 0
M  V30 3835 H 381.859 1.47212 -0.525191 0
M  V30 3836 H 382.594 2.80247 1.63193 0
M  V30 3837 H 382.379 3.91314 0.248104 0
M  V30 3838 H 383.869 3.98909 1.23536 0
M  V30 3839 N 384.306 0.507319 1.49211 0
M  V30 3840 C 385.269 -0.256763 2.27757 0
M  V30 3841 C 386.269 -0.888287 1.34038 0
M  V30 3842 O 387.459 -0.751841 1.5714 0
M  V30 3843 C 384.591 -1.36905 3.12202 0
M  V30 3844 H 385.784 0.432557 2.96764 0
M  V30 3845 H 383.337 0.262488 1.5408 0
M  V30 3846 H 384.072 -2.09233 2.47775 0
M  V30 3847 H 383.857 -0.921599 3.81115 0
M  V30 3848 H 385.347 -1.9071 3.7151 0
M  V30 3849 N 385.784 -1.5574 0.241426 0
M  V30 3850 C 387.009 -2.0366 -0.392111 0
M  V30 3851 C 387.434 -1.11969 -1.51144 0
M  V30 3852 O 386.792 -0.111594 -1.80956 0
M  V30 3853 C 386.84 -3.49638 -0.882371 0
M  V30 3854 O 385.944 -3.6108 -1.99235 0
M  V30 3855 H 385.285 -0.658379 -0.0862122 0
M  V30 3856 H 387.815 -2.01302 0.365881 0
M  V30 3857 H 387.825 -3.90351 -1.18702 0
M  V30 3858 H 386.5 -4.15852 -0.0632361 0
M  V30 3859 H 385.077 -3.32262 -1.69282 0
M  V30 3860 N 387.262 0.0317525 -1.57568 0
M  V30 3861 C 388.502 0.727979 -1.90997 0
M  V30 3862 C 388.866 1.72664 -0.839708 0
M  V30 3863 O 390.067 2.47092 -1.05825 0
M  V30 3864 C 388.338 1.38239 -3.29583 0
M  V30 3865 S 389.897 2.10814 -3.84841 0
M  V30 3866 H 386.715 0.241226 -0.668828 0
M  V30 3867 H 389.317 -0.0173037 -1.95492 0
M  V30 3868 H 388.021 0.642288 -4.05343 0
M  V30 3869 H 387.552 2.16628 -3.28384 0
M  V30 3870 H 389.567 3.3792 -3.63352 0
M  V30 3871 N 388.74 1.54641 0.303973 0
M  V30 3872 C 390.151 1.64811 0.877163 0
M  V30 3873 C 390.502 0.554838 1.88191 0
M  V30 3874 O 389.627 -0.309033 2.14182 0
M  V30 3875 C 390.222 2.9876 1.59775 0
M  V30 3876 C 388.781 3.11061 2.11938 0
M  V30 3877 C 387.928 2.60479 0.951097 0
M  V30 3878 H 390.879 1.58493 0.0810486 0
M  V30 3879 H 390.9 2.90017 2.46314 0
M  V30 3880 H 390.412 3.7831 0.866226 0
M  V30 3881 H 388.513 2.36225 2.88146 0
M  V30 3882 H 388.626 4.17171 2.35595 0
M  V30 3883 H 386.99 2.16859 1.33583 0
M  V30 3884 H 387.773 3.42504 0.233581 0
M  V30 3885 N 390.218 -0.567019 1.47046 0
M  V30 3886 C 391.181 -1.65696 1.58359 0
M  V30 3887 C 392.181 -1.54097 0.459441 0
M  V30 3888 O 393.371 -1.58432 0.724225 0
M  V30 3889 C 390.503 -3.05197 1.51879 0
M  V30 3890 H 391.696 -1.57019 2.5551 0
M  V30 3891 H 389.249 -0.786148 1.3509 0
M  V30 3892 H 389.984 -3.19417 0.560673 0
M  V30 3893 H 389.769 -3.15025 2.33455 0
M  V30 3894 H 391.259 -3.84511 1.62913 0
M  V30 3895 N 391.696 -1.35014 -0.812953 0
M  V30 3896 C 392.945 -1.27269 -1.56479 0
M  V30 3897 C 393.258 0.152771 -1.95002 0
M  V30 3898 O 394.464 0.352451 -2.69203 0
M  V30 3899 C 392.92 -2.23159 -2.82362 0
M  V30 3900 C 392.528 -3.71016 -2.511 0
M  V30 3901 C 394.272 -2.24342 -3.60376 0
M  V30 3902 C 392.179 -4.58746 -3.73237 0
M  V30 3903 H 391.109 -0.472829 -0.587324 0
M  V30 3904 H 393.76 -1.6024 -0.894171 0
M  V30 3905 H 392.142 -1.83151 -3.51101 0
M  V30 3906 H 393.316 -4.1962 -1.90409 0
M  V30 3907 H 391.631 -3.72378 -1.86343 0
M  V30 3908 H 394.228 -2.87107 -4.51081 0
M  V30 3909 H 394.571 -1.24542 -3.97234 0
M  V30 3910 H 395.104 -2.62846 -2.98591 0
M  V30 3911 H 391.843 -5.59521 -3.41492 0
M  V30 3912 H 391.363 -4.14871 -4.33176 0
M  V30 3913 H 393.042 -4.73852 -4.40537 0
M  V30 3914 N 393.175 1.03435 -1.18907 0
M  V30 3915 C 394.138 2.09756 -0.923844 0
M  V30 3916 C 395.138 1.60528 0.093416 0
M  V30 3917 O 396.328 1.73631 -0.140727 0
M  V30 3918 C 393.46 3.38692 -0.387354 0
M  V30 3919 H 394.653 2.34719 -1.86674 0
M  V30 3920 H 392.206 1.19959 -1.00197 0
M  V30 3921 H 392.941 3.19396 0.561845 0
M  V30 3922 H 392.726 3.75742 -1.12074 0
M  V30 3923 H 394.216 4.17016 -0.220694 0
M  V30 3924 N 394.653 0.992116 1.22453 0
M  V30 3925 C 396.069 0.702713 1.43297 0
M  V30 3926 C 396.269 -0.726909 1.87932 0
M  V30 3927 O 395.325 -1.49792 2.0327 0
M  V30 3928 C 396.638 1.70762 2.47509 0
M  V30 3929 C 398.186 1.72298 2.61309 0
M  V30 3930 C 398.661 2.71649 3.68742 0
M  V30 3931 N 400.152 2.70239 3.76199 0
M  V30 3932 C 400.887 3.43778 4.58917 0
M  V30 3933 N 400.383 4.26914 5.45633 0
M  V30 3934 N 402.176 3.32487 4.5322 0
M  V30 3935 H 394.327 1.91543 0.917871 0
M  V30 3936 H 396.59 0.826031 0.465162 0
M  V30 3937 H 396.296 2.73059 2.21657 0
M  V30 3938 H 396.17 1.49985 3.46099 0
M  V30 3939 H 398.557 0.706989 2.86506 0
M  V30 3940 H 398.638 1.97143 1.62997 0
M  V30 3941 H 398.282 3.73397 3.44292 0
M  V30 3942 H 398.212 2.44074 4.66622 0
M  V30 3943 H 400.703 2.09912 3.14237 0
M  V30 3944 H 401.016 4.79855 6.05771 0
M  V30 3945 H 399.361 4.31002 5.45218 0
M  V30 3946 H 402.552 2.6698 3.84499 0
M  V30 3947 H 402.725 3.90058 5.17454 0
M  V30 3948 N 396.131 -1.37776 0.765217 0
M  V30 3949 C 397.542 -1.82521 0.392819 0
M  V30 3950 C 397.893 -1.63789 -1.08017 0
M  V30 3951 O 397.018 -1.14542 -1.83601 0
M  V30 3952 C 397.613 -3.31358 0.706214 0
M  V30 3953 C 396.172 -3.74406 0.386952 0
M  V30 3954 C 395.319 -2.60394 0.953422 0
M  V30 3955 H 398.27 -1.2634 0.960412 0
M  V30 3956 H 398.291 -3.80498 -0.0114706 0
M  V30 3957 H 397.803 -3.44959 1.77833 0
M  V30 3958 H 395.904 -3.66377 -0.678112 0
M  V30 3959 H 396.017 -4.70749 0.890636 0
M  V30 3960 H 394.381 -2.51878 0.378064 0
M  V30 3961 H 395.164 -2.76791 2.03081 0
M  V30 3962 N 397.609 -0.515225 -1.4894 0
M  V30 3963 C 398.541 0.292481 -2.27326 0
M  V30 3964 C 399.554 0.917838 -1.3446 0
M  V30 3965 O 400.743 0.798772 -1.5963 0
M  V30 3966 C 397.843 1.42803 -3.07344 0
M  V30 3967 C 397.016 0.907347 -4.27885 0
M  V30 3968 C 396.075 1.92222 -4.89834 0
M  V30 3969 O 395.101 1.48506 -5.49486 0
M  V30 3970 N 396.303 3.25355 -4.80754 0
M  V30 3971 H 399.068 -0.379721 -2.97285 0
M  V30 3972 H 396.629 -0.348638 -1.58102 0
M  V30 3973 H 398.621 2.10481 -3.45658 0
M  V30 3974 H 397.191 2.00414 -2.39902 0
M  V30 3975 H 396.411 0.0550218 -3.94162 0
M  V30 3976 H 397.699 0.538108 -5.05946 0
M  V30 3977 H 397.097 3.6355 -4.33414 0
M  V30 3978 H 395.654 3.88707 -5.23211 0
M  V30 3979 N 399.087 1.5561 -0.249682 0
M  V30 3980 C 400.05 2.20217 0.635394 0
M  V30 3981 C 401.05 1.17227 1.10066 0
M  V30 3982 O 402.24 1.42292 1.00492 0
M  V30 3983 C 399.372 2.84794 1.87363 0
M  V30 3984 H 400.565 2.99814 0.0716752 0
M  V30 3985 H 398.118 1.563 -0.000153234 0
M  V30 3986 H 398.853 2.09142 2.47851 0
M  V30 3987 H 398.638 3.60241 1.5482 0
M  V30 3988 H 400.128 3.3423 2.5036 0
M  V30 3989 N 400.565 -0.0233959 1.57583 0
M  V30 3990 C 401.495 -1.02162 2.09965 0
M  V30 3991 C 402.476 -1.3735 1.00344 0
M  V30 3992 O 403.661 -1.46135 1.27899 0
M  V30 3993 C 400.791 -2.32081 2.58371 0
M  V30 3994 C 399.745 -2.1112 3.72307 0
M  V30 3995 C 399.071 -3.46848 4.06941 0
M  V30 3996 C 400.371 -1.49276 5.00514 0
M  V30 3997 H 402.065 -0.585557 2.93618 0
M  V30 3998 H 399.611 -0.280218 1.41247 0
M  V30 3999 H 401.564 -3.02249 2.93639 0
M  V30 4000 H 400.288 -2.77758 1.71808 0
M  V30 4001 H 398.947 -1.43384 3.37397 0
M  V30 4002 H 398.595 -3.90184 3.17436 0
M  V30 4003 H 398.295 -3.33646 4.83688 0
M  V30 4004 H 399.819 -4.18369 4.44747 0
M  V30 4005 H 401.233 -2.09368 5.33702 0
M  V30 4006 H 399.63 -1.46632 5.8191 0
M  V30 4007 H 400.7 -0.459217 4.82721 0
M  V30 4008 N 402.043 -1.548 -0.295768 0
M  V30 4009 C 403.32 -1.65014 -1.05023 0
M  V30 4010 C 403.7 -0.501805 -2.05049 0
M  V30 4011 O 403.048 0.500869 -2.22943 0
M  V30 4012 C 403.258 -3.03252 -1.72741 0
M  V30 4013 C 404.606 -3.60242 -2.24746 0
M  V30 4014 O 405.63 -3.05737 -1.82765 0
M  V30 4015 O 404.489 -4.55687 -3.01681 0
M  V30 4016 H 401.583 -0.669314 -0.485744 0
M  V30 4017 H 404.129 -1.67144 -0.293438 0
M  V30 4018 H 402.901 -3.7827 -1.00138 0
M  V30 4019 H 402.524 -3.04922 -2.55163 0
M  V30 4020 N 403.521 0.559213 -1.47345 0
M  V30 4021 C 404.746 1.34676 -1.57725 0
M  V30 4022 C 405.171 1.86723 -0.227164 0
M  V30 4023 O 404.529 1.6286 0.796642 0
M  V30 4024 C 404.577 2.49399 -2.60447 0
M  V30 4025 O 403.681 3.51567 -2.15578 0
M  V30 4026 H 403.022 0.400115 -0.52991 0
M  V30 4027 H 405.552 0.676009 -1.93109 0
M  V30 4028 H 405.562 2.95996 -2.80803 0
M  V30 4029 H 404.237 2.10873 -3.58477 0
M  V30 4030 H 402.814 3.11289 -2.05313 0
M  V30 4031 N 404.999 1.35443 0.805782 0
M  V30 4032 C 406.227 1.31878 1.59423 0
M  V30 4033 C 406.642 -0.103562 1.88516 0
M  V30 4034 O 405.999 -1.05575 1.48863 0
M  V30 4035 C 406.05 2.12426 2.92502 0
M  V30 4036 O 405.771 3.49115 2.6467 0
M  V30 4037 C 407.272 2.16455 3.86862 0
M  V30 4038 H 404.492 0.453002 0.495005 0
M  V30 4039 H 407.036 1.78309 1.00131 0
M  V30 4040 H 405.191 1.69593 3.48306 0
M  V30 4041 H 405.605 3.90957 3.49647 0
M  V30 4042 H 407.079 2.77204 4.77349 0
M  V30 4043 H 407.556 1.16352 4.23508 0
M  V30 4044 H 408.162 2.59453 3.36993 0
M  V30 4045 N 406.477 -1.02803 1.19454 0
M  V30 4046 C 407.724 -1.76217 0.997693 0
M  V30 4047 C 408.052 -1.887 -0.47144 0
M  V30 4048 O 407.307 -1.4011 -1.3663 0
M  V30 4049 C 407.606 -3.18941 1.6128 0
M  V30 4050 C 407.272 -3.26463 3.11019 0
M  V30 4051 C 405.934 -3.28223 3.51885 0
M  V30 4052 C 408.286 -3.25542 4.07028 0
M  V30 4053 C 405.614 -3.26719 4.8731 0
M  V30 4054 C 407.966 -3.25579 5.42385 0
M  V30 4055 C 406.63 -3.25637 5.82681 0
M  V30 4056 H 405.9 -0.644823 0.365082 0
M  V30 4057 H 408.547 -1.20655 1.4871 0
M  V30 4058 H 406.852 -3.77587 1.04572 0
M  V30 4059 H 408.549 -3.74415 1.43577 0
M  V30 4060 H 405.139 -3.25822 2.78457 0
M  V30 4061 H 409.323 -3.23362 3.76498 0
M  V30 4062 H 404.579 -3.25089 5.1781 0
M  V30 4063 H 408.753 -3.23817 6.16535 0
M  V30 4064 H 406.38 -3.24226 6.87591 0
M  V30 4065 N 407.956 -0.998596 -1.21925 0
M  V30 4066 C 409.186 -0.695276 -1.94549 0
M  V30 4067 C 409.594 0.745079 -1.73911 0
M  V30 4068 O 408.937 1.51507 -1.03881 0
M  V30 4069 C 408.999 -0.928485 -3.47303 0
M  V30 4070 C 408.663 -2.35443 -3.91683 0
M  V30 4071 C 409.66 -3.33428 -3.98901 0
M  V30 4072 C 407.345 -2.69038 -4.24174 0
M  V30 4073 C 409.339 -4.63079 -4.37992 0
M  V30 4074 C 407.026 -3.98906 -4.62944 0
M  V30 4075 C 408.024 -4.95738 -4.69822 0
M  V30 4076 O 407.712 -6.23285 -5.07711 0
M  V30 4077 H 407.444 -0.255902 -0.625692 0
M  V30 4078 H 409.998 -1.33767 -1.5587 0
M  V30 4079 H 408.228 -0.228917 -3.86022 0
M  V30 4080 H 409.917 -0.619539 -4.01144 0
M  V30 4081 H 410.683 -3.08807 -3.73983 0
M  V30 4082 H 406.562 -1.94367 -4.18022 0
M  V30 4083 H 410.106 -5.38658 -4.43275 0
M  V30 4084 H 406.003 -4.23314 -4.87314 0
M  V30 4085 H 406.771 -6.27306 -5.25766 0
M  V30 4086 N 409.434 1.37368 -0.772513 0
M  V30 4087 C 410.364 2.32856 -0.173304 0
M  V30 4088 C 411.345 1.55818 0.682262 0
M  V30 4089 O 412.53 1.84052 0.619566 0
M  V30 4090 C 409.66 3.40048 0.706007 0
M  V30 4091 C 408.614 4.27973 -0.0483144 0
M  V30 4092 C 407.94 5.26184 0.950491 0
M  V30 4093 C 409.24 5.07665 -1.22776 0
M  V30 4094 H 410.934 2.83217 -0.971002 0
M  V30 4095 H 408.48 1.3617 -0.468377 0
M  V30 4096 H 410.433 4.05827 1.13501 0
M  V30 4097 H 409.157 2.88214 1.53623 0
M  V30 4098 H 407.816 3.63726 -0.458107 0
M  V30 4099 H 407.464 4.7063 1.77529 0
M  V30 4100 H 407.164 5.85872 0.450314 0
M  V30 4101 H 408.688 5.94838 1.37842 0
M  V30 4102 H 410.102 5.66578 -0.875366 0
M  V30 4103 H 408.499 5.76681 -1.66007 0
M  V30 4104 H 409.569 4.40294 -2.03149 0
M  V30 4105 N 410.912 0.523116 1.48665 0
M  V30 4106 C 412.16 -0.0134497 2.02096 0
M  V30 4107 C 412.481 -1.35418 1.40311 0
M  V30 4108 O 411.751 -1.87543 0.566074 0
M  V30 4109 H 410.331 -0.00795915 0.746958 0
M  V30 4110 H 412.993 0.685388 1.82451 0
M  V30 4111 H 412.089 -0.126849 3.11842 0
M  V30 4112 N 412.39 -1.55475 0.257931 0
M  V30 4113 C 413.322 -2.19192 -0.669881 0
M  V30 4114 C 414.335 -1.17148 -1.1305 0
M  V30 4115 O 415.524 -1.43959 -1.05537 0
M  V30 4116 C 412.624 -2.79016 -1.92363 0
M  V30 4117 C 411.797 -4.06586 -1.61265 0
M  V30 4118 C 410.856 -4.50622 -2.7171 0
M  V30 4119 O 409.882 -5.16765 -2.38627 0
M  V30 4120 N 411.084 -4.19325 -4.01431 0
M  V30 4121 H 413.849 -2.99441 -0.124635 0
M  V30 4122 H 411.41 -1.6171 0.0783311 0
M  V30 4123 H 413.402 -3.05427 -2.65511 0
M  V30 4124 H 411.972 -2.0286 -2.37837 0
M  V30 4125 H 411.192 -3.87646 -0.715811 0
M  V30 4126 H 412.48 -4.89737 -1.37967 0
M  V30 4127 H 411.878 -3.66247 -4.31138 0
M  V30 4128 H 410.435 -4.50547 -4.7101 0
M  V30 4129 N 413.868 0.0150385 -1.57593 0
M  V30 4130 C 414.801 1.04475 -2.0288 0
M  V30 4131 C 415.779 1.3436 -0.915764 0
M  V30 4132 O 416.963 1.46779 -1.18271 0
M  V30 4133 C 414.09 2.37608 -2.41371 0
M  V30 4134 C 413.136 2.23487 -3.63257 0
M  V30 4135 S 413.969 1.57505 -5.11813 0
M  V30 4136 C 415.125 2.921 -5.5356 0
M  V30 4137 H 415.358 0.65907 -2.89903 0
M  V30 4138 H 412.891 0.225452 -1.52745 0
M  V30 4139 H 414.849 3.14165 -2.64217 0
M  V30 4140 H 413.51 2.7332 -1.54775 0
M  V30 4141 H 412.703 3.21802 -3.87891 0
M  V30 4142 H 412.305 1.55074 -3.40335 0
M  V30 4143 H 414.597 3.88419 -5.55101 0
M  V30 4144 H 415.54 2.72184 -6.53698 0
M  V30 4145 H 415.948 2.95318 -4.8109 0
M  V30 4146 N 415.346 1.54954 0.287554 0
M  V30 4147 C 416.757 1.65732 0.859634 0
M  V30 4148 C 417.108 0.574767 1.87592 0
M  V30 4149 O 416.233 -0.286299 2.14498 0
M  V30 4150 C 416.828 3.00438 1.56597 0
M  V30 4151 C 415.387 3.13292 2.08627 0
M  V30 4152 C 414.534 2.61473 0.923416 0
M  V30 4153 H 417.485 1.5857 0.0642338 0
M  V30 4154 H 417.506 2.92613 2.43224 0
M  V30 4155 H 417.018 3.79207 0.826053 0
M  V30 4156 H 415.119 2.39268 2.85625 0
M  V30 4157 H 415.232 4.19647 2.31157 0
M  V30 4158 H 413.596 2.18264 1.31275 0
M  V30 4159 H 414.379 3.42733 0.197241 0
M  V30 4160 N 416.824 -0.551391 1.4764 0
M  V30 4161 C 418.072 -1.30572 1.54258 0
M  V30 4162 C 418.393 -1.93877 0.208963 0
M  V30 4163 O 417.663 -1.80234 -0.767619 0
M  V30 4164 H 416.243 -0.484894 0.568231 0
M  V30 4165 H 418.905 -0.643402 1.83974 0
M  V30 4166 H 418.001 -2.09621 2.31226 0
M  V30 4167 N 418.302 -1.35869 -0.798587 0
M  V30 4168 C 419.527 -1.32883 -1.59238 0
M  V30 4169 C 419.952 0.0894587 -1.87887 0
M  V30 4170 O 419.31 1.05869 -1.47178 0
M  V30 4171 C 419.358 -2.14892 -2.89575 0
M  V30 4172 O 418.462 -1.53512 -3.82763 0
M  V30 4173 H 417.803 -0.455236 -0.48338 0
M  V30 4174 H 420.333 -1.79024 -0.990539 0
M  V30 4175 H 420.343 -2.27139 -3.38928 0
M  V30 4176 H 419.018 -3.17998 -2.68049 0
M  V30 4177 H 417.595 -1.50153 -3.41334 0
M  V30 4178 N 419.78 1.02168 -1.19998 0
M  V30 4179 C 420.71 2.12488 -0.96804 0
M  V30 4180 C 421.691 1.69799 0.101185 0
M  V30 4181 O 422.876 1.94121 -0.0552993 0
M  V30 4182 C 420.006 3.43479 -0.513776 0
M  V30 4183 C 418.96 3.99884 -1.52566 0
M  V30 4184 C 418.286 5.26582 -0.928214 0
M  V30 4185 C 419.586 4.33861 -2.90795 0
M  V30 4186 H 421.28 2.32149 -1.89069 0
M  V30 4187 H 418.826 1.11564 -0.910468 0
M  V30 4188 H 420.779 4.20036 -0.338774 0
M  V30 4189 H 419.503 3.23561 0.444493 0
M  V30 4190 H 418.162 3.25429 -1.68794 0
M  V30 4191 H 417.81 5.02986 0.0378289 0
M  V30 4192 H 417.51 5.65284 -1.60397 0
M  V30 4193 H 419.034 6.05799 -0.764167 0
M  V30 4194 H 420.448 5.01327 -2.78109 0
M  V30 4195 H 418.845 4.83664 -3.55231 0
M  V30 4196 H 419.915 3.42848 -3.42904 0
M  V30 4197 N 421.258 1.00505 1.21394 0
M  V30 4198 C 422.504 0.688793 1.90745 0
M  V30 4199 C 422.837 -0.778486 1.77914 0
M  V30 4200 O 422.112 -1.56433 1.15581 0
M  V30 4201 C 422.395 1.11063 3.42545 0
M  V30 4202 C 422.248 2.63737 3.64367 0
M  V30 4203 C 423.567 0.673059 4.34923 0
M  V30 4204 H 420.686 0.251702 0.692687 0
M  V30 4205 H 423.328 1.25074 1.43026 0
M  V30 4206 H 421.478 0.632508 3.83317 0
M  V30 4207 H 423.15 3.19313 3.32922 0
M  V30 4208 H 421.393 3.05248 3.08231 0
M  V30 4209 H 422.064 2.88305 4.70727 0
M  V30 4210 H 424.54 1.08392 4.01734 0
M  V30 4211 H 423.416 0.996383 5.39781 0
M  V30 4212 H 423.677 -0.425808 4.40045 0
M  V30 4213 N 422.737 -1.36956 0.779787 0
M  V30 4214 C 423.667 -2.32761 0.185651 0
M  V30 4215 C 424.648 -1.56177 -0.673989 0
M  V30 4216 O 425.833 -1.84378 -0.609797 0
M  V30 4217 C 422.963 -3.40418 -0.687964 0
M  V30 4218 C 421.917 -4.27941 0.0710102 0
M  V30 4219 C 421.243 -5.26681 -0.922573 0
M  V30 4220 C 422.543 -5.07006 1.25467 0
M  V30 4221 H 424.237 -2.82698 0.986008 0
M  V30 4222 H 421.783 -1.3592 0.475592 0
M  V30 4223 H 423.736 -4.06423 -1.11348 0
M  V30 4224 H 422.46 -2.89025 -1.52093 0
M  V30 4225 H 421.119 -3.63478 0.47739 0
M  V30 4226 H 420.767 -4.71565 -1.7503 0
M  V30 4227 H 420.467 -5.86103 -0.419237 0
M  V30 4228 H 421.991 -5.9556 -1.34686 0
M  V30 4229 H 423.405 -5.66105 0.905401 0
M  V30 4230 H 421.802 -5.75793 1.69063 0
M  V30 4231 H 422.872 -4.3921 2.05481 0
M  V30 4232 N 424.215 -0.530993 -1.48385 0
M  V30 4233 C 425.464 0.00474348 -2.01699 0
M  V30 4234 C 425.777 1.35227 -1.41325 0
M  V30 4235 O 426.983 1.97643 -1.86144 0
M  V30 4236 C 425.439 0.0588473 -3.59852 0
M  V30 4237 C 425.047 -1.28385 -4.2921 0
M  V30 4238 C 426.791 0.543358 -4.21008 0
M  V30 4239 C 424.698 -1.19028 -5.79298 0
M  V30 4240 H 423.628 0.00554317 -0.75398 0
M  V30 4241 H 426.279 -0.674924 -1.70637 0
M  V30 4242 H 424.661 0.803612 -3.8776 0
M  V30 4243 H 425.835 -2.04426 -4.12973 0
M  V30 4244 H 424.15 -1.70418 -3.7993 0
M  V30 4245 H 426.747 0.631351 -5.3096 0
M  V30 4246 H 427.09 1.54937 -3.86394 0
M  V30 4247 H 427.623 -0.145754 -3.97533 0
M  V30 4248 H 424.362 -2.17147 -6.18488 0
M  V30 4249 H 423.882 -0.471246 -5.97946 0
M  V30 4250 H 425.561 -0.881365 -6.40969 0
M  V30 4251 N 425.693 1.55336 -0.266172 0
M  V30 4252 C 426.942 1.98574 0.353749 0
M  V30 4253 C 427.255 1.15789 1.57646 0
M  V30 4254 O 428.461 1.49129 2.26876 0
M  V30 4255 C 426.917 3.53403 0.680747 0
M  V30 4256 C 426.525 4.44953 -0.52165 0
M  V30 4257 C 428.269 4.05251 1.26379 0
M  V30 4258 C 426.176 5.91156 -0.169736 0
M  V30 4259 H 425.106 0.741643 0.135949 0
M  V30 4260 H 427.757 1.79743 -0.369421 0
M  V30 4261 H 426.139 3.68001 1.46257 0
M  V30 4262 H 427.313 4.42121 -1.29869 0
M  V30 4263 H 425.628 4.03691 -1.02093 0
M  V30 4264 H 428.225 5.12021 1.54074 0
M  V30 4265 H 428.568 3.53749 2.19471 0
M  V30 4266 H 429.101 3.94057 0.544447 0
M  V30 4267 H 425.84 6.46736 -1.0683 0
M  V30 4268 H 425.36 5.97079 0.570717 0
M  V30 4269 H 427.039 6.4655 0.241245 0
M  V30 4270 N 427.171 -0.0066808 1.57599 0
M  V30 4271 C 428.42 -0.692078 1.89455 0
M  V30 4272 C 428.733 -1.75306 0.867586 0
M  V30 4273 O 429.939 -2.49262 1.07614 0
M  V30 4274 C 428.395 -1.2821 3.36289 0
M  V30 4275 C 428.003 -0.256291 4.47266 0
M  V30 4276 C 429.747 -1.94608 3.77264 0
M  V30 4277 C 427.654 -0.855927 5.85173 0
M  V30 4278 H 426.584 -0.262252 0.706923 0
M  V30 4279 H 429.235 0.052769 1.83424 0
M  V30 4280 H 427.617 -2.0774 3.37135 0
M  V30 4281 H 428.791 0.513923 4.57925 0
M  V30 4282 H 427.106 0.306862 4.15268 0
M  V30 4283 H 429.703 -2.40364 4.77629 0
M  V30 4284 H 430.046 -2.77382 3.10427 0
M  V30 4285 H 430.579 -1.21822 3.78688 0
M  V30 4286 H 427.318 -0.0671161 6.55466 0
M  V30 4287 H 426.838 -1.59546 5.78191 0
M  V30 4288 H 428.517 -1.35658 6.32618 0
M  V30 4289 N 428.649 -1.55105 -0.279332 0
M  V30 4290 C 429.579 -1.90557 -1.34945 0
M  V30 4291 C 430.56 -0.766738 -1.51839 0
M  V30 4292 O 431.745 -1.02434 -1.64988 0
M  V30 4293 C 428.875 -2.17193 -2.71006 0
M  V30 4294 C 427.829 -3.33021 -2.68851 0
M  V30 4295 C 427.155 -3.45123 -4.08405 0
M  V30 4296 C 428.455 -4.69578 -2.28678 0
M  V30 4297 H 430.149 -2.80188 -1.05522 0
M  V30 4298 H 427.695 -1.34811 -0.506173 0
M  V30 4299 H 429.648 -2.40581 -3.45975 0
M  V30 4300 H 428.372 -1.24355 -3.01999 0
M  V30 4301 H 427.031 -3.0959 -1.9634 0
M  V30 4302 H 426.679 -2.49762 -4.3661 0
M  V30 4303 H 426.379 -4.22995 -4.07859 0
M  V30 4304 H 427.903 -3.70796 -4.85121 0
M  V30 4305 H 429.317 -4.92553 -2.93368 0
M  V30 4306 H 427.714 -5.5032 -2.39306 0
M  V30 4307 H 428.784 -4.68828 -1.23807 0
M  V30 4308 N 430.127 0.543554 -1.4793 0
M  V30 4309 C 431.367 1.31072 -1.56843 0
M  V30 4310 C 431.731 1.90604 -0.231124 0
M  V30 4311 O 432.932 2.68091 -0.195165 0
M  V30 4312 C 431.203 2.38106 -2.66533 0
M  V30 4313 S 432.762 3.24729 -2.95122 0
M  V30 4314 H 429.58 0.446035 -0.553691 0
M  V30 4315 H 432.182 0.620777 -1.85382 0
M  V30 4316 H 430.886 1.92828 -3.62278 0
M  V30 4317 H 430.417 3.11824 -2.39852 0
M  V30 4318 H 432.432 4.37891 -2.3338 0
M  V30 4319 N 431.605 1.3629 0.791371 0
M  V30 4320 C 432.83 1.33726 1.58531 0
M  V30 4321 C 433.255 -0.0794933 1.87932 0
M  V30 4322 O 432.613 -1.05087 1.47738 0
M  V30 4323 C 432.661 2.16425 2.88431 0
M  V30 4324 O 431.765 1.5554 3.81944 0
M  V30 4325 H 431.106 0.457793 0.480959 0
M  V30 4326 H 433.636 1.79547 0.981031 0
M  V30 4327 H 433.646 2.28933 3.37718 0
M  V30 4328 H 432.321 3.19415 2.66359 0
M  V30 4329 H 430.898 1.51961 3.40532 0
M  V30 4330 N 433.083 -1.0153 1.20538 0
M  V30 4331 C 434.329 -1.75408 1.01783 0
M  V30 4332 C 434.662 -1.88943 -0.448814 0
M  V30 4333 O 433.937 -1.4162 -1.33319 0
M  V30 4334 C 434.22 -3.17255 1.70356 0
M  V30 4335 C 434.073 -3.11508 3.24473 0
M  V30 4336 C 435.392 -4.15955 1.43769 0
M  V30 4337 H 432.511 -0.636713 0.371167 0
M  V30 4338 H 435.153 -1.18436 1.4857 0
M  V30 4339 H 433.303 -3.65898 1.30578 0
M  V30 4340 H 434.975 -2.70658 3.73553 0
M  V30 4341 H 433.218 -2.4887 3.55311 0
M  V30 4342 H 433.889 -4.11784 3.67611 0
M  V30 4343 H 436.365 -3.75973 1.7828 0
M  V30 4344 H 435.241 -5.13368 1.94279 0
M  V30 4345 H 435.502 -4.40586 0.365564 0
M  V30 4346 N 434.561 -1.01147 -1.20859 0
M  V30 4347 C 435.808 -0.697865 -1.90095 0
M  V30 4348 C 436.136 0.772014 -1.78522 0
M  V30 4349 O 435.391 1.57595 -1.16027 0
M  V30 4350 C 435.69 -1.0727 -3.40922 0
M  V30 4351 C 435.356 -2.53792 -3.72693 0
M  V30 4352 C 434.018 -2.93829 -3.81075 0
M  V30 4353 C 436.37 -3.48674 -3.87397 0
M  V30 4354 C 433.698 -4.27696 -4.01613 0
M  V30 4355 C 436.05 -4.82223 -4.09444 0
M  V30 4356 C 434.714 -5.21973 -4.16054 0
M  V30 4357 H 433.984 -0.255367 -0.695607 0
M  V30 4358 H 436.631 -1.27111 -1.43231 0
M  V30 4359 H 434.936 -0.417799 -3.89566 0
M  V30 4360 H 436.633 -0.807818 -3.92779 0
M  V30 4361 H 433.223 -2.21768 -3.66765 0
M  V30 4362 H 437.407 -3.18904 -3.80281 0
M  V30 4363 H 432.663 -4.58055 -4.04964 0
M  V30 4364 H 436.837 -5.55672 -4.19763 0
M  V30 4365 H 434.464 -6.25717 -4.31721 0
M  V30 4366 N 436.039 1.36541 -0.78704 0
M  V30 4367 C 437.002 2.28413 -0.189778 0
M  V30 4368 C 438.002 1.48719 0.611499 0
M  V30 4369 O 439.192 1.68737 0.432842 0
M  V30 4370 C 436.324 3.32824 0.737638 0
M  V30 4371 H 437.517 2.82743 -0.999831 0
M  V30 4372 H 435.07 1.46065 -0.556298 0
M  V30 4373 H 435.805 2.83646 1.57212 0
M  V30 4374 H 435.59 3.91752 0.165044 0
M  V30 4375 H 437.08 4.0144 1.15047 0
M  V30 4376 N 437.518 0.538854 1.48102 0
M  V30 4377 C 438.764 0.00801365 2.02798 0
M  V30 4378 C 439.097 -1.3309 1.41424 0
M  V30 4379 O 438.372 -1.86169 0.563158 0
M  V30 4380 C 438.655 -0.104589 3.59948 0
M  V30 4381 C 438.508 1.26012 4.31788 0
M  V30 4382 C 439.827 -0.827055 4.32259 0
M  V30 4383 H 436.946 0.00438624 0.736987 0
M  V30 4384 H 439.588 0.6976 1.7673 0
M  V30 4385 H 437.738 -0.691893 3.82289 0
M  V30 4386 H 439.41 1.88922 4.2084 0
M  V30 4387 H 437.653 1.83968 3.92859 0
M  V30 4388 H 438.324 1.13424 5.40221 0
M  V30 4389 H 440.8 -0.328578 4.14801 0
M  V30 4390 H 439.676 -0.87476 5.41885 0
M  V30 4391 H 439.937 -1.87927 4.0017 0
M  V30 4392 N 438.996 -1.55193 0.274407 0
M  V30 4393 C 440.242 -1.99877 -0.343086 0
M  V30 4394 C 440.575 -1.16256 -1.55558 0
M  V30 4395 O 439.85 -0.232462 -1.93106 0
M  V30 4396 C 440.133 -3.52706 -0.725965 0
M  V30 4397 C 439.986 -4.47081 0.493818 0
M  V30 4398 C 441.305 -4.11422 -1.56268 0
M  V30 4399 H 438.424 -0.726625 -0.123229 0
M  V30 4400 H 441.066 -1.86136 0.38121 0
M  V30 4401 H 439.216 -3.64546 -1.34307 0
M  V30 4402 H 440.888 -4.47186 1.13237 0
M  V30 4403 H 439.131 -4.1877 1.13201 0
M  V30 4404 H 439.802 -5.51699 0.18217 0
M  V30 4405 H 442.278 -4.02855 -1.04151 0
M  V30 4406 H 441.154 -5.18568 -1.79939 0
M  V30 4407 H 441.415 -3.61607 -2.54348 0
M  V30 4408 N 440.474 -0.00167713 -1.576 0
M  V30 4409 C 441.702 0.693759 -1.94922 0
M  V30 4410 C 442.117 1.67215 -0.876626 0
M  V30 4411 O 441.474 1.81929 0.144279 0
M  V30 4412 C 441.525 1.42416 -3.32265 0
M  V30 4413 O 441.246 0.485014 -4.35407 0
M  V30 4414 C 442.747 2.21395 -3.84056 0
M  V30 4415 H 439.967 0.193118 -0.642609 0
M  V30 4416 H 442.511 -0.0532952 -2.04431 0
M  V30 4417 H 440.666 2.12284 -3.24059 0
M  V30 4418 H 441.08 1.00053 -5.14868 0
M  V30 4419 H 442.554 2.67996 -4.82578 0
M  V30 4420 H 443.031 3.04142 -3.16851 0
M  V30 4421 H 443.637 1.56542 -3.95443 0
M  V30 4422 N 441.952 1.55251 0.271103 0
M  V30 4423 C 443.201 1.75151 1.00025 0
M  V30 4424 C 443.514 0.561041 1.87381 0
M  V30 4425 O 444.72 0.642506 2.63788 0
M  V30 4426 C 443.176 3.09999 1.82835 0
M  V30 4427 C 442.784 4.3662 1.00336 0
M  V30 4428 C 444.528 3.39249 2.55168 0
M  V30 4429 C 442.435 5.62506 1.82595 0
M  V30 4430 H 441.365 0.652877 0.377183 0
M  V30 4431 H 444.016 1.81708 0.255843 0
M  V30 4432 H 442.398 2.97485 2.61378 0
M  V30 4433 H 443.572 4.60055 0.261959 0
M  V30 4434 H 441.887 4.14527 0.394486 0
M  V30 4435 H 444.484 4.3051 3.1712 0
M  V30 4436 H 444.827 2.59467 3.2555 0
M  V30 4437 H 445.36 3.52869 1.83653 0
M  V30 4438 H 442.099 6.45041 1.16631 0
M  V30 4439 H 441.619 5.43211 2.54327 0
M  V30 4440 H 443.298 6.00875 2.39913 0
M  V30 4441 N 443.43 -0.535701 1.48216 0
M  V30 4442 C 444.36 -1.65014 1.65204 0
M  V30 4443 C 445.341 -1.62554 0.501011 0
M  V30 4444 O 446.526 -1.7984 0.732886 0
M  V30 4445 C 443.656 -3.03616 1.68626 0
M  V30 4446 C 442.61 -3.20932 2.83172 0
M  V30 4447 C 441.936 -4.60537 2.71679 0
M  V30 4448 C 443.236 -3.04249 4.24535 0
M  V30 4449 H 444.93 -1.51053 2.58502 0
M  V30 4450 H 442.476 -0.725262 1.24402 0
M  V30 4451 H 444.429 -3.81446 1.79099 0
M  V30 4452 H 443.153 -3.18587 0.719026 0
M  V30 4453 H 441.812 -2.45517 2.72244 0
M  V30 4454 H 441.46 -4.72336 1.72937 0
M  V30 4455 H 441.16 -4.73069 3.48538 0
M  V30 4456 H 442.684 -5.40475 2.84112 0
M  V30 4457 H 444.098 -3.71877 4.36326 0
M  V30 4458 H 442.495 -3.28278 5.02348 0
M  V30 4459 H 443.565 -2.00739 4.41397 0
M  V30 4460 N 444.908 -1.36708 -0.784132 0
M  V30 4461 C 445.838 -1.34153 -1.91116 0
M  V30 4462 C 446.819 -0.212121 -1.68772 0
M  V30 4463 O 448.004 -0.410581 -1.8981 0
M  V30 4464 C 445.134 -1.13535 -3.28218 0
M  V30 4465 C 444.088 -2.23356 -3.65097 0
M  V30 4466 C 443.414 -1.87875 -5.00607 0
M  V30 4467 C 444.714 -3.65473 -3.73131 0
M  V30 4468 H 446.408 -2.28459 -1.93512 0
M  V30 4469 H 443.954 -1.09973 -0.929618 0
M  V30 4470 H 445.907 -1.10381 -4.06687 0
M  V30 4471 H 444.631 -0.156804 -3.26223 0
M  V30 4472 H 443.29 -2.25645 -2.88929 0
M  V30 4473 H 442.938 -0.885814 -4.95139 0
M  V30 4474 H 442.638 -2.61406 -5.26252 0
M  V30 4475 H 444.162 -1.86286 -5.81489 0
M  V30 4476 H 445.576 -3.65382 -4.41779 0
M  V30 4477 H 443.973 -4.37953 -4.10265 0
M  V30 4478 H 445.043 -3.99995 -2.74102 0
M  V30 4479 N 446.386 1.0089 -1.21074 0
M  V30 4480 C 447.632 1.74866 -1.02712 0
M  V30 4481 C 447.965 1.89178 0.438787 0
M  V30 4482 O 447.24 1.42325 1.32567 0
M  V30 4483 C 447.523 3.16347 -1.72036 0
M  V30 4484 C 447.376 3.09782 -3.26121 0
M  V30 4485 C 448.695 4.15187 -1.45973 0
M  V30 4486 H 445.814 0.634736 -0.374539 0
M  V30 4487 H 448.456 1.17646 -1.49196 0
M  V30 4488 H 446.606 3.65201 -1.32517 0
M  V30 4489 H 448.278 2.68673 -3.74983 0
M  V30 4490 H 446.521 2.46982 -3.56626 0
M  V30 4491 H 447.192 4.09829 -3.6979 0
M  V30 4492 H 449.668 3.75022 -1.80272 0
M  V30 4493 H 448.544 5.12331 -1.96999 0
M  V30 4494 H 448.805 4.40386 -0.388924 0
M  V30 4495 N 447.864 1.01787 1.20321 0
M  V30 4496 C 449.112 0.706538 1.89347 0
M  V30 4497 C 449.433 -0.766289 1.79313 0
M  V30 4498 O 448.703 -1.55126 1.19635 0
M  V30 4499 H 447.283 0.258348 0.700903 0
M  V30 4500 H 449.945 1.28974 1.46122 0
M  V30 4501 H 449.041 0.991066 2.95946 0
M  V30 4502 N 449.342 -1.36122 0.79427 0
M  V30 4503 C 450.589 -1.99111 0.368905 0
M  V30 4504 C 450.917 -1.63032 -1.0607 0
M  V30 4505 O 450.172 -0.879303 -1.74833 0
M  V30 4506 C 450.471 -3.5409 0.48527 0
M  V30 4507 C 450.137 -4.10003 1.87638 0
M  V30 4508 C 448.799 -4.24986 2.257 0
M  V30 4509 C 451.151 -4.40423 2.78706 0
M  V30 4510 C 448.479 -4.67701 3.54221 0
M  V30 4511 C 450.831 -4.84573 4.0666 0
M  V30 4512 C 449.495 -4.97761 4.44737 0
M  V30 4513 H 448.765 -0.7286 0.134992 0
M  V30 4514 H 451.412 -1.62534 1.01267 0
M  V30 4515 H 449.717 -3.91052 -0.241984 0
M  V30 4516 H 451.414 -4.00766 0.137109 0
M  V30 4517 H 448.004 -3.98784 1.57064 0
M  V30 4518 H 452.188 -4.28412 2.50553 0
M  V30 4519 H 447.444 -4.761 3.83587 0
M  V30 4520 H 451.618 -5.07074 4.77336 0
M  V30 4521 H 449.245 -5.30618 5.44379 0
M  V30 4522 N 450.82 -0.546701 -1.47814 0
M  V30 4523 C 452.236 -0.205717 -1.58269 0
M  V30 4524 C 452.436 1.29153 -1.54667 0
M  V30 4525 O 451.492 2.07098 -1.44453 0
M  V30 4526 C 452.805 -0.823065 -2.89216 0
M  V30 4527 C 454.353 -0.793328 -3.02779 0
M  V30 4528 C 454.828 -1.38955 -4.36412 0
M  V30 4529 N 456.319 -1.35227 -4.43021 0
M  V30 4530 C 457.054 -1.78333 -5.44963 0
M  V30 4531 N 456.55 -2.29246 -6.53772 0
M  V30 4532 N 458.343 -1.69467 -5.35945 0
M  V30 4533 H 450.494 -1.5196 -1.48398 0
M  V30 4534 H 452.757 -0.633078 -0.705632 0
M  V30 4535 H 452.463 -1.8749 -2.97558 0
M  V30 4536 H 452.337 -0.309915 -3.75925 0
M  V30 4537 H 454.724 0.249784 -2.94041 0
M  V30 4538 H 454.805 -1.34412 -2.17639 0
M  V30 4539 H 454.449 -2.43168 -4.45906 0
M  V30 4540 H 454.379 -0.814291 -5.20266 0
M  V30 4541 H 456.87 -0.979739 -3.64979 0
M  V30 4542 H 457.183 -2.60089 -7.27718 0
M  V30 4543 H 455.528 -2.3325 -6.5469 0
M  V30 4544 H 458.719 -1.29477 -4.49837 0
M  V30 4545 H 458.892 -2.03381 -6.15256 0
M  V30 4546 N 452.299 1.55045 -0.282633 0
M  V30 4547 C 453.545 2.00056 0.332481 0
M  V30 4548 C 453.878 1.1708 1.54939 0
M  V30 4549 O 453.153 0.2427 1.9298 0
M  V30 4550 C 453.436 3.53086 0.70725 0
M  V30 4551 C 453.289 4.46813 -0.517521 0
M  V30 4552 C 454.608 4.12245 1.54084 0
M  V30 4553 H 451.727 0.727268 0.119373 0
M  V30 4554 H 454.369 1.85932 -0.391076 0
M  V30 4555 H 452.519 3.65253 1.32372 0
M  V30 4556 H 454.191 4.46579 -1.15607 0
M  V30 4557 H 452.434 4.18163 -1.1542 0
M  V30 4558 H 453.105 5.51595 -0.211426 0
M  V30 4559 H 455.581 4.03401 1.02013 0
M  V30 4560 H 454.457 5.19515 1.77186 0
M  V30 4561 H 454.718 3.62951 2.52427 0
M  V30 4562 N 453.777 0.010035 1.57597 0
M  V30 4563 C 454.74 -0.963029 2.07986 0
M  V30 4564 C 455.74 -1.26619 0.991173 0
M  V30 4565 O 456.93 -1.2097 1.25347 0
M  V30 4566 C 454.062 -2.2851 2.52974 0
M  V30 4567 H 455.255 -0.526971 2.95234 0
M  V30 4568 H 452.808 -0.237639 1.54483 0
M  V30 4569 H 453.543 -2.76784 1.69 0
M  V30 4570 H 453.328 -2.07824 3.32493 0
M  V30 4571 H 454.818 -2.98294 2.9225 0
M  V30 4572 N 455.255 -1.55392 -0.262866 0
M  V30 4573 C 456.666 -1.67079 -0.833158 0
M  V30 4574 C 457.017 -0.604539 -1.86654 0
M  V30 4575 O 456.142 0.252138 -2.14926 0
M  V30 4576 C 456.737 -3.02891 -1.51797 0
M  V30 4577 C 455.296 -3.16571 -2.03617 0
M  V30 4578 C 454.443 -2.62909 -0.881701 0
M  V30 4579 H 457.394 -1.58652 -0.0389986 0
M  V30 4580 H 457.415 -2.96445 -2.38538 0
M  V30 4581 H 456.927 -3.80473 -0.765619 0
M  V30 4582 H 455.028 -2.43782 -2.81782 0
M  V30 4583 H 455.141 -4.23271 -2.24452 0
M  V30 4584 H 453.505 -2.20324 -1.27786 0
M  V30 4585 H 454.288 -3.43003 -0.14269 0
M  V30 4586 N 456.733 0.527833 -1.48498 0
M  V30 4587 C 457.696 1.61439 -1.62696 0
M  V30 4588 C 458.696 1.52824 -0.500136 0
M  V30 4589 O 459.886 1.56456 -0.765976 0
M  V30 4590 C 457.018 3.01063 -1.59918 0
M  V30 4591 H 458.211 1.50189 -2.59583 0
M  V30 4592 H 455.764 0.750055 -1.37127 0
M  V30 4593 H 456.499 3.17818 -0.645163 0
M  V30 4594 H 456.284 3.08725 -2.41726 0
M  V30 4595 H 457.774 3.80057 -1.73051 0
M  V30 4596 N 458.211 1.37122 0.776871 0
M  V30 4597 C 459.627 1.1781 1.07671 0
M  V30 4598 C 459.827 0.0107454 2.01497 0
M  V30 4599 O 458.883 -0.650756 2.4397 0
M  V30 4600 C 460.196 2.49451 1.67913 0
M  V30 4601 C 461.744 2.55927 1.80195 0
M  V30 4602 C 462.219 3.87686 2.43851 0
M  V30 4603 N 463.71 3.891 2.51307 0
M  V30 4604 C 464.445 4.87797 3.014 0
M  V30 4605 N 463.941 5.96888 3.51705 0
M  V30 4606 N 465.734 4.75205 3.00227 0
M  V30 4607 H 457.885 2.11843 0.153778 0
M  V30 4608 H 460.148 0.938927 0.130844 0
M  V30 4609 H 459.854 3.35207 1.06439 0
M  V30 4610 H 459.728 2.66169 2.67271 0
M  V30 4611 H 462.115 1.70582 2.40803 0
M  V30 4612 H 462.196 2.43097 0.796069 0
M  V30 4613 H 461.84 4.73444 1.83884 0
M  V30 4614 H 461.77 3.97817 3.45035 0
M  V30 4615 H 464.261 3.10293 2.157 0
M  V30 4616 H 464.574 6.68155 3.88316 0
M  V30 4617 H 462.919 6.0054 3.49824 0
M  V30 4618 H 466.11 3.89103 2.60224 0
M  V30 4619 H 466.283 5.52279 3.38957 0
M  V30 4620 N 459.689 -1.00246 1.21608 0
M  V30 4621 C 460.966 -1.71336 0.943568 0
M  V30 4622 C 461.346 -2.03972 -0.543943 0
M  V30 4623 O 460.694 -1.71545 -1.50946 0
M  V30 4624 C 460.904 -2.97094 1.83128 0
M  V30 4625 C 462.252 -3.70071 2.08165 0
M  V30 4626 O 463.276 -3.07081 1.80498 0
M  V30 4627 O 462.135 -4.83376 2.54971 0
M  V30 4628 H 459.229 -0.747386 0.354039 0
M  V30 4629 H 461.775 -1.05967 1.32549 0
M  V30 4630 H 460.547 -2.69407 2.83788 0
M  V30 4631 H 460.17 -3.70204 1.45034 0
M  V30 4632 N 461.167 -1.02423 -1.1978 0
M  V30 4633 C 462.114 -0.601023 -2.22837 0
M  V30 4634 C 463.084 0.382801 -1.61629 0
M  V30 4635 O 464.269 0.280514 -1.88727 0
M  V30 4636 C 461.409 0.0467755 -3.45068 0
M  V30 4637 C 460.522 -0.98253 -4.20678 0
M  V30 4638 C 459.657 -0.304982 -5.30324 0
M  V30 4639 C 458.696 -1.32052 -5.97686 0
M  V30 4640 N 457.833 -0.669105 -6.98904 0
M  V30 4641 H 462.673 -1.48444 -2.58396 0
M  V30 4642 H 460.21 -0.742936 -1.2696 0
M  V30 4643 H 462.168 0.439556 -4.14878 0
M  V30 4644 H 460.798 0.893796 -3.10179 0
M  V30 4645 H 459.85 -1.49341 -3.49859 0
M  V30 4646 H 461.162 -1.75455 -4.66923 0
M  V30 4647 H 460.316 0.142893 -6.06532 0
M  V30 4648 H 459.055 0.499283 -4.85138 0
M  V30 4649 H 458.06 -1.7787 -5.20233 0
M  V30 4650 H 459.285 -2.1262 -6.44957 0
M  V30 4651 H 457.231 0.115152 -6.55899 0
M  V30 4652 H 457.148 -1.37908 -7.43315 0
M  V30 4653 H 458.416 -0.245076 -7.79115 0
M  V30 4654 N 462.645 1.35699 -0.801477 0
M  V30 4655 C 463.87 2.03687 -0.390678 0
M  V30 4656 C 464.295 1.60015 0.988778 0
M  V30 4657 O 463.653 0.774357 1.63931 0
M  V30 4658 C 463.701 3.57439 -0.476404 0
M  V30 4659 O 462.805 4.09208 0.512106 0
M  V30 4660 H 462.146 0.64344 -0.163956 0
M  V30 4661 H 464.676 1.73403 -1.08594 0
M  V30 4662 H 464.686 4.06544 -0.344357 0
M  V30 4663 H 463.361 3.88576 -1.48262 0
M  V30 4664 H 461.938 3.7134 0.340721 0
M  V30 4665 N 464.123 0.554532 1.47522 0
M  V30 4666 C 465.07 -0.19466 2.29978 0
M  V30 4667 C 466.04 -0.910882 1.38896 0
M  V30 4668 O 467.225 -0.907102 1.67858 0
M  V30 4669 C 464.365 -1.22035 3.22802 0
M  V30 4670 C 463.478 -0.510474 4.28973 0
M  V30 4671 C 462.613 -1.52123 5.08952 0
M  V30 4672 C 461.652 -0.796173 6.069 0
M  V30 4673 N 460.789 -1.75363 6.79847 0
M  V30 4674 H 465.629 0.51461 2.93523 0
M  V30 4675 H 463.166 0.265607 1.44682 0
M  V30 4676 H 465.124 -1.8276 3.7504 0
M  V30 4677 H 463.754 -1.89769 2.61127 0
M  V30 4678 H 462.806 0.211234 3.79813 0
M  V30 4679 H 464.118 0.0576503 4.98767 0
M  V30 4680 H 463.272 -2.20207 5.65326 0
M  V30 4681 H 462.011 -2.12327 4.39054 0
M  V30 4682 H 461.016 -0.101388 5.49707 0
M  V30 4683 H 462.241 -0.199911 6.78806 0
M  V30 4684 H 460.187 -2.3443 6.12682 0
M  V30 4685 H 460.104 -1.23759 7.45801 0
M  V30 4686 H 461.372 -2.4257 7.40797 0
M  V30 4687 N 465.601 -1.54893 0.290851 0
M  V30 4688 C 466.534 -2.19289 -0.631489 0
M  V30 4689 C 467.512 -1.15893 -1.14051 0
M  V30 4690 O 468.696 -1.4449 -1.21058 0
M  V30 4691 C 465.823 -2.82866 -1.86291 0
M  V30 4692 C 464.869 -3.997 -1.48801 0
M  V30 4693 S 465.702 -5.32641 -0.552644 0
M  V30 4694 C 466.858 -5.99696 -1.79209 0
M  V30 4695 H 467.091 -2.9718 -0.0843791 0
M  V30 4696 H 464.624 -1.54218 0.075031 0
M  V30 4697 H 466.582 -3.20124 -2.56964 0
M  V30 4698 H 465.243 -2.04839 -2.38117 0
M  V30 4699 H 464.436 -4.42932 -2.40473 0
M  V30 4700 H 464.038 -3.63947 -0.861321 0
M  V30 4701 H 466.33 -6.19886 -2.734 0
M  V30 4702 H 467.273 -6.94071 -1.40251 0
M  V30 4703 H 467.681 -5.29226 -1.96419 0
M  V30 4704 N 467.08 -0.0183926 -1.57589 0
M  V30 4705 C 468.326 0.663543 -1.91638 0
M  V30 4706 C 468.659 1.72392 -0.894134 0
M  V30 4707 O 467.934 1.94316 0.0846449 0
M  V30 4708 C 468.217 1.28984 -3.36207 0
M  V30 4709 C 468.07 0.239761 -4.49161 0
M  V30 4710 C 469.389 2.2109 -3.80536 0
M  V30 4711 H 466.508 0.239746 -0.696915 0
M  V30 4712 H 469.15 -0.073456 -1.89858 0
M  V30 4713 H 467.3 1.91799 -3.37854 0
M  V30 4714 H 468.972 -0.390119 -4.59647 0
M  V30 4715 H 467.215 -0.435972 -4.31604 0
M  V30 4716 H 467.886 0.717383 -5.47319 0
M  V30 4717 H 470.362 1.68273 -3.80557 0
M  V30 4718 H 469.238 2.61869 -4.82406 0
M  V30 4719 H 469.499 3.09764 -3.15434 0
M  V30 4720 N 468.558 1.5553 0.254621 0
M  V30 4721 C 469.835 1.6774 1.00611 0
M  V30 4722 C 470.215 0.555993 2.03647 0
M  V30 4723 O 469.563 -0.441583 2.24193 0
M  V30 4724 C 469.773 3.07725 1.6464 0
M  V30 4725 C 471.121 3.66074 2.15116 0
M  V30 4726 O 472.145 3.10476 1.74595 0
M  V30 4727 O 471.004 4.63526 2.89493 0
M  V30 4728 H 468.098 0.681958 0.467828 0
M  V30 4729 H 470.644 1.67863 0.24902 0
M  V30 4730 H 469.416 3.80792 0.900734 0
M  V30 4731 H 469.039 3.1158 2.46989 0
M  V30 4732 N 470.036 -0.519951 1.48776 0
M  V30 4733 C 471.447 -1.10177 1.50725 0
M  V30 4734 C 471.798 -1.94153 0.282678 0
M  V30 4735 O 470.923 -2.07645 -0.609298 0
M  V30 4736 C 471.518 -2.00482 2.73116 0
M  V30 4737 C 470.077 -2.53862 2.77905 0
M  V30 4738 C 469.224 -1.31047 2.44381 0
M  V30 4739 H 472.175 -0.30473 1.55747 0
M  V30 4740 H 472.196 -2.8491 2.52203 0
M  V30 4741 H 471.708 -1.39335 3.62225 0
M  V30 4742 H 469.809 -3.18702 1.93029 0
M  V30 4743 H 469.922 -2.9231 3.79594 0
M  V30 4744 H 468.286 -1.62953 1.95751 0
M  V30 4745 H 469.069 -0.71637 3.35743 0
M  V30 4746 N 471.514 -1.37532 -0.769588 0
M  V30 4747 C 472.461 -1.3347 -1.88293 0
M  V30 4748 C 473.431 -0.199891 -1.64893 0
M  V30 4749 O 474.616 -0.389594 -1.8678 0
M  V30 4750 C 471.756 -1.14968 -3.25387 0
M  V30 4751 C 470.869 -2.37698 -3.60727 0
M  V30 4752 C 470.004 -2.12051 -4.8704 0
M  V30 4753 C 469.043 -3.30636 -5.15117 0
M  V30 4754 N 468.18 -3.04527 -6.3262 0
M  V30 4755 H 473.02 -2.28658 -1.911 0
M  V30 4756 H 470.557 -1.13622 -0.934257 0
M  V30 4757 H 472.515 -1.02261 -4.04473 0
M  V30 4758 H 471.145 -0.234263 -3.21949 0
M  V30 4759 H 470.197 -2.61137 -2.76608 0
M  V30 4760 H 471.509 -3.26131 -3.77413 0
M  V30 4761 H 470.663 -1.96388 -5.74035 0
M  V30 4762 H 469.402 -1.20959 -4.72462 0
M  V30 4763 H 468.407 -3.46836 -4.26597 0
M  V30 4764 H 469.632 -4.22582 -5.31603 0
M  V30 4765 H 467.578 -2.16067 -6.19396 0
M  V30 4766 H 467.495 -3.86503 -6.49732 0
M  V30 4767 H 468.763 -2.92485 -7.22546 0
M  V30 4768 N 472.992 0.995999 -1.22138 0
M  V30 4769 C 473.939 2.08551 -0.988687 0
M  V30 4770 C 474.909 1.65864 0.0885021 0
M  V30 4771 O 476.094 1.90704 -0.0604589 0
M  V30 4772 C 473.234 3.40374 -0.569191 0
M  V30 4773 C 472.347 3.96421 -1.71681 0
M  V30 4774 C 471.482 5.1639 -1.2456 0
M  V30 4775 C 470.521 5.64567 -2.36497 0
M  V30 4776 N 469.658 6.75777 -1.90445 0
M  V30 4777 H 474.498 2.2779 -1.92135 0
M  V30 4778 H 472.035 1.1168 -0.957388 0
M  V30 4779 H 473.993 4.16068 -0.307166 0
M  V30 4780 H 472.623 3.21145 0.326462 0
M  V30 4781 H 471.675 3.17628 -2.09324 0
M  V30 4782 H 472.987 4.2816 -2.55891 0
M  V30 4783 H 472.141 5.99362 -0.940774 0
M  V30 4784 H 470.88 4.86266 -0.373662 0
M  V30 4785 H 469.885 4.80185 -2.67772 0
M  V30 4786 H 471.11 5.96716 -3.24202 0
M  V30 4787 H 469.056 6.47443 -1.05609 0
M  V30 4788 H 468.973 7.06818 -2.68223 0
M  V30 4789 H 470.241 7.62262 -1.63022 0
M  V30 4790 N 474.47 1.03057 1.19235 0
M  V30 4791 C 475.718 0.726581 1.88587 0
M  V30 4792 C 476.039 -0.747227 1.80115 0
M  V30 4793 O 475.309 -1.53849 1.21274 0
M  V30 4794 H 473.889 0.265768 0.698124 0
M  V30 4795 H 476.551 1.30516 1.44746 0
M  V30 4796 H 475.647 1.0224 2.94879 0
M  V30 4797 N 475.948 -1.35272 0.808662 0
M  V30 4798 C 477.176 -2.02946 0.402537 0
M  V30 4799 C 477.591 -1.60937 -0.987147 0
M  V30 4800 O 476.948 -0.807917 -1.63643 0
M  V30 4801 C 476.999 -3.58317 0.47868 0
M  V30 4802 O 476.72 -3.98799 1.81358 0
M  V30 4803 C 478.221 -4.43251 0.0656281 0
M  V30 4804 H 475.441 -0.650831 0.163279 0
M  V30 4805 H 477.985 -1.72849 1.09286 0
M  V30 4806 H 476.14 -3.87055 -0.163415 0
M  V30 4807 H 476.554 -4.93451 1.77781 0
M  V30 4808 H 478.028 -5.51738 0.170017 0
M  V30 4809 H 478.505 -4.27913 -0.989278 0
M  V30 4810 H 479.111 -4.19813 0.68096 0
M  V30 4811 N 477.426 -0.562348 -1.47226 0
M  V30 4812 C 478.651 -0.0432632 -2.07355 0
M  V30 4813 C 479.076 1.24332 -1.41149 0
M  V30 4814 O 478.434 1.74603 -0.488226 0
M  V30 4815 C 478.482 0.130288 -3.60365 0
M  V30 4816 O 477.586 1.19166 -3.94808 0
M  V30 4817 H 476.927 -0.0536334 -0.66183 0
M  V30 4818 H 479.457 -0.779495 -1.89169 0
M  V30 4819 H 479.467 0.342881 -4.06557 0
M  V30 4820 H 478.142 -0.809389 -4.07948 0
M  V30 4821 H 476.719 0.959153 -3.60354 0
M  V30 4822 N 478.904 1.54736 -0.299062 0
M  V30 4823 C 479.834 2.26409 0.571085 0
M  V30 4824 C 480.815 1.2629 1.13951 0
M  V30 4825 O 482 1.55059 1.16921 0
M  V30 4826 C 479.13 3.00338 1.74396 0
M  V30 4827 C 478.084 4.07588 1.30599 0
M  V30 4828 C 477.41 4.69222 2.56387 0
M  V30 4829 C 478.71 5.20455 0.438645 0
M  V30 4830 H 480.404 2.99388 -0.0266991 0
M  V30 4831 H 477.95 1.43993 -0.0142812 0
M  V30 4832 H 479.903 3.49198 2.35878 0
M  V30 4833 H 478.627 2.24934 2.36796 0
M  V30 4834 H 477.286 3.59575 0.71424 0
M  V30 4835 H 476.934 3.9046 3.17097 0
M  V30 4836 H 476.634 5.41653 2.27784 0
M  V30 4837 H 478.158 5.20844 3.18675 0
M  V30 4838 H 479.572 5.65221 0.959085 0
M  V30 4839 H 477.969 5.99594 0.246466 0
M  V30 4840 H 479.039 4.8192 -0.536738 0
M  V30 4841 N 480.382 0.0267497 1.57577 0
M  V30 4842 C 481.607 -0.666227 1.96408 0
M  V30 4843 C 482.032 -1.65004 0.903071 0
M  V30 4844 O 481.39 -1.80787 -0.136263 0
M  V30 4845 C 481.438 -1.35101 3.34335 0
M  V30 4846 O 480.542 -2.46623 3.30531 0
M  V30 4847 H 479.883 -0.175206 0.640468 0
M  V30 4848 H 482.413 0.0878977 2.04411 0
M  V30 4849 H 482.423 -1.70834 3.70513 0
M  V30 4850 H 481.098 -0.629844 4.11103 0
M  V30 4851 H 479.675 -2.13019 3.06068 0
M  V30 4852 N 481.861 -1.55662 -0.24637 0
M  V30 4853 C 483.138 -1.68272 -0.997198 0
M  V30 4854 C 483.518 -0.566785 -2.03349 0
M  V30 4855 O 482.866 0.429688 -2.24424 0
M  V30 4856 C 483.076 -3.08594 -1.63006 0
M  V30 4857 C 484.424 -3.6721 -2.13171 0
M  V30 4858 O 485.448 -3.11397 -1.72946 0
M  V30 4859 O 484.307 -4.65054 -2.87031 0
M  V30 4860 H 481.401 -0.684429 -0.464205 0
M  V30 4861 H 483.947 -1.67993 -0.240114 0
M  V30 4862 H 482.719 -3.81264 -0.880527 0
M  V30 4863 H 482.342 -3.12886 -2.45333 0
M  V30 4864 N 483.339 0.512053 -1.4905 0
M  V30 4865 C 484.286 1.6148 -1.64902 0
M  V30 4866 C 485.256 1.58687 -0.490673 0
M  V30 4867 O 486.441 1.76842 -0.71636 0
M  V30 4868 C 483.581 2.99676 -1.71139 0
M  V30 4869 C 482.694 3.12568 -2.98203 0
M  V30 4870 C 481.829 4.4143 -2.95487 0
M  V30 4871 C 480.868 4.47916 -4.17179 0
M  V30 4872 N 480.005 5.68191 -4.12437 0
M  V30 4873 H 484.845 1.47271 -2.59066 0
M  V30 4874 H 482.382 0.716713 -1.28459 0
M  V30 4875 H 484.34 3.79761 -1.72736 0
M  V30 4876 H 482.97 3.12614 -0.804508 0
M  V30 4877 H 482.022 2.25618 -3.06269 0
M  V30 4878 H 483.334 3.1322 -3.88194 0
M  V30 4879 H 482.488 5.29825 -2.95585 0
M  V30 4880 H 481.227 4.43326 -2.03256 0
M  V30 4881 H 480.232 3.57925 -4.17337 0
M  V30 4882 H 481.457 4.47744 -5.1059 0
M  V30 4883 H 479.403 5.7095 -3.23036 0
M  V30 4884 H 479.32 5.70413 -4.96151 0
M  V30 4885 H 480.588 6.58823 -4.16621 0
M  V30 4886 N 484.817 1.37938 0.762283 0
M  V30 4887 C 485.747 1.37176 1.88958 0
M  V30 4888 C 486.728 0.238945 1.68413 0
M  V30 4889 O 487.913 0.440726 1.89133 0
M  V30 4890 C 485.043 1.18742 3.2637 0
M  V30 4891 C 483.997 2.29136 3.61498 0
M  V30 4892 C 483.323 1.95816 4.97554 0
M  V30 4893 C 484.623 3.71363 3.6727 0
M  V30 4894 H 486.317 2.31509 1.89853 0
M  V30 4895 H 483.863 1.11438 0.912005 0
M  V30 4896 H 485.816 1.16837 4.04879 0
M  V30 4897 H 484.54 0.208683 3.25933 0
M  V30 4898 H 483.199 2.30213 2.85303 0
M  V30 4899 H 482.847 0.964475 4.93667 0
M  V30 4900 H 482.547 2.69745 5.22026 0
M  V30 4901 H 484.071 1.95513 5.78452 0
M  V30 4902 H 485.485 3.72364 4.35911 0
M  V30 4903 H 483.882 4.44425 4.03245 0
M  V30 4904 H 484.952 4.04305 2.67704 0
M  V30 4905 N 486.295 -0.989507 1.22664 0
M  V30 4906 C 487.52 -1.77031 1.08051 0
M  V30 4907 C 487.945 -1.84535 -0.364483 0
M  V30 4908 O 487.303 -1.3003 -1.2634 0
M  V30 4909 C 487.351 -3.18 1.70024 0
M  V30 4910 O 486.455 -4.01161 0.956216 0
M  V30 4911 H 485.796 -0.545008 0.379292 0
M  V30 4912 H 488.326 -1.24277 1.62531 0
M  V30 4913 H 488.336 -3.68616 1.74888 0
M  V30 4914 H 487.011 -3.11853 2.75174 0
M  V30 4915 H 485.588 -3.59687 0.98384 0
M  V30 4916 N 487.773 -1.03688 -1.18687 0
M  V30 4917 C 489.02 -0.73803 -1.88572 0
M  V30 4918 C 489.348 0.733973 -1.8012 0
M  V30 4919 O 488.603 1.55098 -1.19344 0
M  V30 4920 C 488.902 -1.14477 -3.3857 0
M  V30 4921 C 488.568 -2.61641 -3.67226 0
M  V30 4922 C 487.23 -3.01846 -3.74757 0
M  V30 4923 C 489.582 -3.56812 -3.79914 0
M  V30 4924 C 486.91 -4.36118 -3.92451 0
M  V30 4925 C 489.262 -4.90799 -3.99123 0
M  V30 4926 C 487.926 -5.3068 -4.04888 0
M  V30 4927 H 487.196 -0.270064 -0.690034 0
M  V30 4928 H 489.843 -1.3012 -1.40503 0
M  V30 4929 H 488.148 -0.500337 -3.88592 0
M  V30 4930 H 489.845 -0.89095 -3.90977 0
M  V30 4931 H 486.435 -2.29498 -3.61979 0
M  V30 4932 H 490.619 -3.26899 -3.73431 0
M  V30 4933 H 485.875 -4.66542 -3.95157 0
M  V30 4934 H 490.049 -5.64451 -4.07882 0
M  V30 4935 H 487.676 -6.34733 -4.18351 0
M  V30 4936 N 489.251 1.34841 -0.815825 0
M  V30 4937 C 490.476 2.03261 -0.41226 0
M  V30 4938 C 490.901 1.61055 0.971751 0
M  V30 4939 O 490.259 0.7917 1.63101 0
M  V30 4940 C 490.307 3.56914 -0.514289 0
M  V30 4941 O 489.411 4.09728 0.468675 0
M  V30 4942 H 488.752 0.641664 -0.170771 0
M  V30 4943 H 491.282 1.72241 -1.10427 0
M  V30 4944 H 491.292 4.06156 -0.387457 0
M  V30 4945 H 489.967 3.86982 -1.52375 0
M  V30 4946 H 488.544 3.71681 0.301316 0
M  V30 4947 N 490.729 0.570148 1.46925 0
M  V30 4948 C 491.957 0.0561966 2.06824 0
M  V30 4949 C 492.372 -1.24326 1.42086 0
M  V30 4950 O 491.729 -1.74882 0.521794 0
M  V30 4951 C 491.78 -0.129517 3.61268 0
M  V30 4952 O 491.501 1.1185 4.23581 0
M  V30 4953 C 493.002 -0.679266 4.38065 0
M  V30 4954 H 490.222 0.0517261 0.669003 0
M  V30 4955 H 492.766 0.787243 1.8874 0
M  V30 4956 H 490.921 -0.810739 3.78822 0
M  V30 4957 H 491.335 0.924375 5.1629 0
M  V30 4958 H 492.809 -0.758445 5.46765 0
M  V30 4959 H 493.286 -1.69346 4.05239 0
M  V30 4960 H 493.892 -0.0333237 4.25287 0
M  V30 4961 N 492.207 -1.54576 0.307264 0
M  V30 4962 C 493.157 -2.20467 -0.581249 0
M  V30 4963 C 494.141 -1.17972 -1.09414 0
M  V30 4964 O 495.333 -1.43667 -1.03387 0
M  V30 4965 C 492.462 -2.95369 -1.74963 0
M  V30 4966 C 491.548 -4.05186 -1.25241 0
M  V30 4967 N 491.939 -5.03577 -0.47364 0
M  V30 4968 C 490.237 -4.18841 -1.53259 0
M  V30 4969 C 490.938 -5.81328 -0.208083 0
M  V30 4970 N 489.914 -5.37834 -0.789651 0
M  V30 4971 H 493.716 -2.93892 0.0212221 0
M  V30 4972 H 491.23 -1.62011 0.112325 0
M  V30 4973 H 493.227 -3.41046 -2.39777 0
M  V30 4974 H 491.887 -2.23461 -2.35574 0
M  V30 4975 H 492.898 -5.17766 -0.117963 0
M  V30 4976 H 489.575 -3.58141 -2.14573 0
M  V30 4977 H 490.965 -6.706 0.417793 0
M  V30 4978 N 493.685 -0.035106 -1.57561 0
M  V30 4979 C 494.913 0.652258 -1.9635 0
M  V30 4980 C 495.328 1.65317 -0.911897 0
M  V30 4981 O 494.685 1.82194 0.105657 0
M  V30 4982 C 494.736 1.35337 -3.35211 0
M  V30 4983 O 494.457 0.392548 -4.36338 0
M  V30 4984 C 495.958 2.13199 -3.88666 0
M  V30 4985 H 493.178 0.179444 -0.646561 0
M  V30 4986 H 495.722 -0.0966459 -2.04271 0
M  V30 4987 H 493.877 2.05362 -3.28489 0
M  V30 4988 H 494.291 0.891097 -5.16875 0
M  V30 4989 H 495.765 2.577 -4.88154 0
M  V30 4990 H 496.242 2.97353 -3.23231 0
M  V30 4991 H 496.848 1.48118 -3.98674 0
M  V30 4992 N 495.163 1.55791 0.238111 0
M  V30 4993 C 496.093 1.94068 1.29846 0
M  V30 4994 C 497.074 0.806726 1.49753 0
M  V30 4995 O 498.259 1.06772 1.62214 0
M  V30 4996 C 495.389 2.24302 2.65153 0
M  V30 4997 C 494.343 3.40032 2.59927 0
M  V30 4998 C 493.669 3.55829 3.99111 0
M  V30 4999 C 494.969 4.75476 2.16148 0
M  V30 5000 H 496.663 2.82887 0.980563 0
M  V30 5001 H 494.209 1.36105 0.470253 0
M  V30 5002 H 496.162 2.4967 3.39475 0
M  V30 5003 H 494.886 1.32318 2.98596 0
M  V30 5004 H 493.545 3.14687 1.88063 0
M  V30 5005 H 493.193 2.6125 4.29834 0
M  V30 5006 H 492.893 4.3366 3.96501 0
M  V30 5007 H 494.417 3.83528 4.7512 0
M  V30 5008 H 495.831 5.00158 2.80205 0
M  V30 5009 H 494.228 5.56472 2.24631 0
M  V30 5010 H 495.298 4.71946 1.11333 0
M  V30 5011 N 496.642 -0.504142 1.49319 0
M  V30 5012 C 497.572 -1.61473 1.68667 0
M  V30 5013 C 498.553 -1.61455 0.535378 0
M  V30 5014 O 499.738 -1.78245 0.770868 0
M  V30 5015 C 496.868 -2.99971 1.75028 0
M  V30 5016 C 495.822 -3.14854 2.89916 0
M  V30 5017 C 495.148 -4.54671 2.81387 0
M  V30 5018 C 496.448 -2.95176 4.30893 0
M  V30 5019 H 498.142 -1.45535 2.61648 0
M  V30 5020 H 495.688 -0.698711 1.25913 0
M  V30 5021 H 497.641 -3.77562 1.8715 0
M  V30 5022 H 496.365 -3.1699 0.786441 0
M  V30 5023 H 495.024 -2.39687 2.77391 0
M  V30 5024 H 494.672 -4.68562 1.82917 0
M  V30 5025 H 494.372 -4.6557 3.58494 0
M  V30 5026 H 495.896 -5.34327 2.95512 0
M  V30 5027 H 497.31 -3.62538 4.44116 0
M  V30 5028 H 495.707 -3.17549 5.09198 0
M  V30 5029 H 496.777 -1.91332 4.45556 0
M  V30 5030 N 498.12 -1.38341 -0.754957 0
M  V30 5031 C 499.368 -1.34208 -1.51105 0
M  V30 5032 C 499.689 0.0677634 -1.94882 0
M  V30 5033 O 498.959 1.01517 -1.67544 0
M  V30 5034 H 497.539 -0.493819 -0.560493 0
M  V30 5035 H 500.201 -1.73005 -0.897507 0
M  V30 5036 H 499.297 -1.99203 -2.4026 0
M  V30 5037 N 499.598 0.982988 -1.23187 0
M  V30 5038 C 500.53 2.07729 -0.968572 0
M  V30 5039 C 501.543 1.62702 0.0564821 0
M  V30 5040 O 502.732 1.77603 -0.178733 0
M  V30 5041 C 499.832 3.36071 -0.436974 0
M  V30 5042 C 499.005 4.10081 -1.52159 0
M  V30 5043 C 498.064 5.16701 -0.99532 0
M  V30 5044 O 497.09 5.43727 -1.68373 0
M  V30 5045 N 498.292 5.80226 0.178192 0
M  V30 5046 H 501.057 2.30894 -1.9107 0
M  V30 5047 H 498.618 1.14949 -1.1401 0
M  V30 5048 H 500.61 4.04639 -0.0700051 0
M  V30 5049 H 499.18 3.09893 0.410509 0
M  V30 5050 H 498.4 3.36004 -2.06144 0
M  V30 5051 H 499.688 4.56295 -2.25105 0
M  V30 5052 H 499.086 5.60651 0.754096 0
M  V30 5053 H 497.643 6.49982 0.486449 0
M  V30 5054 N 501.076 1.04316 1.18135 0
M  V30 5055 C 502.323 0.74802 1.88178 0
M  V30 5056 C 502.651 -0.72441 1.80506 0
M  V30 5057 O 501.906 -1.54463 1.20165 0
M  V30 5058 C 502.205 1.16271 3.37958 0
M  V30 5059 C 501.871 2.63585 3.65833 0
M  V30 5060 C 500.533 3.03829 3.73151 0
M  V30 5061 C 502.885 3.58822 3.78016 0
M  V30 5062 C 500.213 4.38194 3.90132 0
M  V30 5063 C 502.565 4.92909 3.96514 0
M  V30 5064 C 501.229 5.3282 4.02068 0
M  V30 5065 H 500.499 0.27372 0.688592 0
M  V30 5066 H 503.146 1.30863 1.39811 0
M  V30 5067 H 501.451 0.520938 3.88321 0
M  V30 5068 H 503.148 0.911672 3.90499 0
M  V30 5069 H 499.738 2.31414 3.60757 0
M  V30 5070 H 503.922 3.28875 3.71692 0
M  V30 5071 H 499.178 4.68631 3.92677 0
M  V30 5072 H 503.352 5.66606 4.04883 0
M  V30 5073 H 500.979 6.36943 4.14979 0
M  V30 5074 N 502.554 -1.34406 0.822964 0
M  V30 5075 C 503.801 -1.98284 0.411057 0
M  V30 5076 C 504.129 -1.65245 -1.02588 0
M  V30 5077 O 503.384 -0.91619 -1.72929 0
M  V30 5078 C 503.683 -3.52981 0.560268 0
M  V30 5079 C 503.349 -4.05931 1.96293 0
M  V30 5080 C 502.011 -4.20103 2.34664 0
M  V30 5081 C 504.363 -4.34412 2.87985 0
M  V30 5082 C 501.691 -4.60082 3.64062 0
M  V30 5083 C 504.043 -4.75838 4.16847 0
M  V30 5084 C 502.707 -4.88215 4.55195 0
M  V30 5085 H 501.977 -0.725573 0.150416 0
M  V30 5086 H 504.624 -1.60349 1.04692 0
M  V30 5087 H 502.929 -3.91477 -0.158982 0
M  V30 5088 H 504.626 -4.00385 0.222087 0
M  V30 5089 H 501.216 -3.95363 1.65487 0
M  V30 5090 H 505.4 -4.23001 2.59584 0
M  V30 5091 H 500.656 -4.67856 3.93599 0
M  V30 5092 H 504.83 -4.96834 4.87984 0
M  V30 5093 H 502.457 -5.18952 5.55512 0
M  V30 5094 N 504.032 -0.577932 -1.46621 0
M  V30 5095 C 504.964 0.195801 -2.28362 0
M  V30 5096 C 505.977 0.859983 -1.38232 0
M  V30 5097 O 507.166 0.730349 -1.62875 0
M  V30 5098 C 504.266 1.29639 -3.13124 0
M  V30 5099 C 503.439 0.725049 -4.31349 0
M  V30 5100 C 502.498 1.71274 -4.97546 0
M  V30 5101 O 501.524 1.25067 -5.5529 0
M  V30 5102 N 502.726 3.04672 -4.94121 0
M  V30 5103 H 505.491 -0.505468 -2.95407 0
M  V30 5104 H 503.052 -0.415381 -1.56481 0
M  V30 5105 H 505.044 1.95631 -3.54275 0
M  V30 5106 H 503.614 1.90059 -2.48186 0
M  V30 5107 H 502.834 -0.112205 -3.9404 0
M  V30 5108 H 504.122 0.323034 -5.07774 0
M  V30 5109 H 503.52 3.4484 -4.48444 0
M  V30 5110 H 502.077 3.66166 -5.39227 0
M  V30 5111 N 505.51 1.54411 -0.315457 0
M  V30 5112 C 506.758 2.00023 0.288971 0
M  V30 5113 C 507.079 1.20529 1.5329 0
M  V30 5114 O 506.349 0.304986 1.93511 0
M  V30 5115 H 504.929 0.738891 0.109766 0
M  V30 5116 H 507.591 1.90094 -0.430129 0
M  V30 5117 H 506.687 3.07198 0.550999 0
M  V30 5118 N 506.988 0.0434614 1.5754 0
M  V30 5119 C 508.234 -0.627109 1.93491 0
M  V30 5120 C 508.589 -1.68904 0.921362 0
M  V30 5121 O 507.882 -1.91504 -0.0605799 0
M  V30 5122 C 508.076 -1.2738 3.3393 0
M  V30 5123 C 507.905 -0.27603 4.48852 0
M  V30 5124 C 506.675 0.129244 5.05135 0
M  V30 5125 C 508.873 0.475462 5.12098 0
M  V30 5126 N 506.855 1.12068 6.03584 0
M  V30 5127 C 508.226 1.32021 6.05781 0
M  V30 5128 C 510.281 0.534611 4.95022 0
M  V30 5129 C 508.984 2.2188 6.84223 0
M  V30 5130 C 511.01 1.42059 5.74085 0
M  V30 5131 C 510.372 2.25309 6.67394 0
M  V30 5132 H 506.471 -0.201354 0.755633 0
M  V30 5133 H 509.055 0.113991 1.94366 0
M  V30 5134 H 507.226 -1.98496 3.33847 0
M  V30 5135 H 508.958 -1.90255 3.57191 0
M  V30 5136 H 505.713 -0.248145 4.72949 0
M  V30 5137 H 506.137 1.61306 6.57502 0
M  V30 5138 H 510.779 -0.0947817 4.22694 0
M  V30 5139 H 508.497 2.85868 7.55847 0
M  V30 5140 H 512.083 1.47083 5.62901 0
M  V30 5141 H 510.963 2.92754 7.27506 0
M  V30 5142 N 508.466 -1.55915 -0.229846 0
M  V30 5143 C 509.714 -1.7819 -0.953565 0
M  V30 5144 C 510.035 -0.610504 -1.85197 0
M  V30 5145 O 509.305 0.372988 -1.92316 0
M  V30 5146 H 507.885 -0.657208 -0.355087 0
M  V30 5147 H 510.547 -1.9337 -0.243693 0
M  V30 5148 H 509.643 -2.70011 -1.56527 0
M  V30 5149 N 509.944 0.496216 -1.49584 0
M  V30 5150 C 511.172 1.27394 -1.63029 0
M  V30 5151 C 511.587 1.86344 -0.303569 0
M  V30 5152 O 510.944 1.68057 0.711547 0
M  V30 5153 C 510.995 2.40077 -2.70269 0
M  V30 5154 O 510.716 1.83549 -3.97796 0
M  V30 5155 C 512.217 3.31372 -2.94462 0
M  V30 5156 H 509.437 0.386211 -0.54871 0
M  V30 5157 H 511.981 0.595163 -1.95648 0
M  V30 5158 H 510.136 3.03775 -2.40415 0
M  V30 5159 H 510.55 2.57561 -4.56905 0
M  V30 5160 H 512.024 4.06707 -3.73221 0
M  V30 5161 H 512.501 3.88654 -2.0456 0
M  V30 5162 H 513.107 2.73435 -3.25751 0
M  V30 5163 N 511.423 1.38739 0.74761 0
M  V30 5164 C 512.669 1.3648 1.50814 0
M  V30 5165 C 513.024 -0.0431982 1.92351 0
M  V30 5166 O 512.317 -1.0071 1.62997 0
M  V30 5167 C 512.511 2.25992 2.7688 0
M  V30 5168 C 512.34 3.75354 2.47668 0
M  V30 5169 C 511.11 4.44348 2.40589 0
M  V30 5170 C 513.308 4.67642 2.14046 0
M  V30 5171 N 511.29 5.79114 2.03715 0
M  V30 5172 C 512.661 5.90965 1.87512 0
M  V30 5173 C 514.716 4.55787 2.00407 0
M  V30 5174 C 513.419 7.03759 1.48714 0
M  V30 5175 C 515.445 5.68491 1.63011 0
M  V30 5176 C 514.807 6.90879 1.37353 0
M  V30 5177 H 510.906 0.554695 0.551214 0
M  V30 5178 H 513.49 1.7418 0.870033 0
M  V30 5179 H 511.661 1.9047 3.3849 0
M  V30 5180 H 513.393 2.14815 3.42982 0
M  V30 5181 H 510.148 3.97634 2.57262 0
M  V30 5182 H 510.572 6.504 1.87906 0
M  V30 5183 H 515.214 3.61712 2.18916 0
M  V30 5184 H 512.932 7.97746 1.28945 0
M  V30 5185 H 516.518 5.613 1.53081 0
M  V30 5186 H 515.398 7.76609 1.08848 0
M  V30 5187 N 512.901 -0.976442 1.23707 0
M  V30 5188 C 514.147 -1.72081 1.07312 0
M  V30 5189 C 514.48 -1.90275 -0.388476 0
M  V30 5190 O 513.755 -1.4579 -1.28746 0
M  V30 5191 C 514.038 -3.11675 1.80363 0
M  V30 5192 C 513.891 -3.01027 3.3422 0
M  V30 5193 C 515.21 -4.1117 1.5693 0
M  V30 5194 H 512.329 -0.624583 0.391236 0
M  V30 5195 H 514.971 -1.13649 1.52263 0
M  V30 5196 H 513.121 -3.61559 1.42153 0
M  V30 5197 H 514.793 -2.58637 3.81975 0
M  V30 5198 H 513.036 -2.3744 3.63049 0
M  V30 5199 H 513.707 -3.9988 3.80525 0
M  V30 5200 H 516.183 -3.7011 1.90151 0
M  V30 5201 H 515.059 -5.06928 2.10513 0
M  V30 5202 H 515.32 -4.392 0.505548 0
M  V30 5203 N 514.379 -1.04941 -1.1758 0
M  V30 5204 C 515.342 -0.652456 -2.19717 0
M  V30 5205 C 516.342 0.294745 -1.58076 0
M  V30 5206 O 517.532 0.0789579 -1.74021 0
M  V30 5207 C 514.664 0.0420712 -3.40874 0
M  V30 5208 H 515.857 -1.55642 -2.5635 0
M  V30 5209 H 513.41 -0.842995 -1.31618 0
M  V30 5210 H 514.145 0.95943 -3.09783 0
M  V30 5211 H 513.93 -0.638844 -3.86861 0
M  V30 5212 H 515.42 0.306 -4.16477 0
M  V30 5213 N 515.857 1.33968 -0.830081 0
M  V30 5214 C 517.082 2.02813 -0.433796 0
M  V30 5215 C 517.507 1.62076 0.954614 0
M  V30 5216 O 516.865 0.808955 1.62252 0
M  V30 5217 C 516.913 3.56348 -0.552115 0
M  V30 5218 O 516.017 4.10202 0.425191 0
M  V30 5219 H 515.358 0.639817 -0.177567 0
M  V30 5220 H 517.888 1.7106 -1.12248 0
M  V30 5221 H 517.898 4.05722 -0.430513 0
M  V30 5222 H 516.573 3.85344 -1.56471 0
M  V30 5223 H 515.15 3.71979 0.261878 0
M  V30 5224 N 517.335 0.585699 1.46312 0
M  V30 5225 C 518.581 0.0808731 2.03239 0
M  V30 5226 C 518.936 -1.26609 1.44872 0
M  V30 5227 O 518.229 -1.81779 0.60556 0
M  V30 5228 C 518.423 -0.0401312 3.57377 0
M  V30 5229 C 518.252 1.29356 4.30694 0
M  V30 5230 C 517.022 1.86849 4.69484 0
M  V30 5231 C 519.22 2.21742 4.64042 0
M  V30 5232 N 517.202 3.13926 5.27564 0
M  V30 5233 C 518.573 3.33408 5.22723 0
M  V30 5234 C 520.628 2.21386 4.45974 0
M  V30 5235 C 519.331 4.44852 5.65242 0
M  V30 5236 C 521.357 3.31862 4.89511 0
M  V30 5237 C 520.719 4.42248 5.48266 0
M  V30 5238 H 516.818 0.072443 0.778637 0
M  V30 5239 H 519.402 0.779254 1.78426 0
M  V30 5240 H 517.573 -0.707686 3.81898 0
M  V30 5241 H 519.305 -0.549615 4.00951 0
M  V30 5242 H 516.06 1.40307 4.52339 0
M  V30 5243 H 516.484 3.78775 5.61122 0
M  V30 5244 H 521.126 1.37314 3.99881 0
M  V30 5245 H 518.844 5.29665 6.10312 0
M  V30 5246 H 522.43 3.32708 4.7728 0
M  V30 5247 H 521.31 5.26323 5.81338 0
M  V30 5248 N 518.813 -1.54241 0.323641 0
M  V30 5249 C 520.224 -1.85975 -0.164405 0
M  V30 5250 C 520.575 -1.24529 -1.51615 0
M  V30 5251 O 519.7 -0.551351 -2.09258 0
M  V30 5252 C 520.295 -3.37424 -0.305091 0
M  V30 5253 C 518.854 -3.69107 -0.737358 0
M  V30 5254 C 518.001 -2.76942 0.140884 0
M  V30 5255 H 520.952 -1.49088 0.543922 0
M  V30 5256 H 520.973 -3.63147 -1.13598 0
M  V30 5257 H 520.485 -3.82116 0.678876 0
M  V30 5258 H 518.586 -3.29947 -1.73107 0
M  V30 5259 H 518.699 -4.76035 -0.541053 0
M  V30 5260 H 517.063 -2.51795 -0.383572 0
M  V30 5261 H 517.846 -3.24461 1.12162 0
M  V30 5262 N 520.291 -0.0518155 -1.57515 0
M  V30 5263 C 521.221 0.920283 -2.146 0
M  V30 5264 C 522.202 1.32406 -1.06783 0
M  V30 5265 O 523.387 1.39866 -1.34726 0
M  V30 5266 C 520.517 2.1949 -2.6915 0
M  V30 5267 C 519.471 1.93116 -3.81956 0
M  V30 5268 C 518.797 3.27037 -4.23026 0
M  V30 5269 C 520.097 1.25225 -5.07066 0
M  V30 5270 H 521.791 0.444801 -2.96077 0
M  V30 5271 H 519.337 0.212508 -1.42423 0
M  V30 5272 H 521.29 2.87894 -3.07725 0
M  V30 5273 H 520.014 2.69244 -1.84865 0
M  V30 5274 H 518.673 1.27123 -3.43854 0
M  V30 5275 H 518.321 3.74595 -3.3569 0
M  V30 5276 H 518.021 3.10189 -4.99056 0
M  V30 5277 H 519.545 3.96673 -4.64202 0
M  V30 5278 H 520.959 1.83666 -5.43083 0
M  V30 5279 H 519.356 1.18702 -5.88243 0
M  V30 5280 H 520.426 0.228382 -4.84362 0
M  V30 5281 N 521.769 1.56035 0.221574 0
M  V30 5282 C 522.997 1.8313 0.962864 0
M  V30 5283 C 523.412 0.630934 1.77946 0
M  V30 5284 O 522.769 -0.400519 1.78051 0
M  V30 5285 C 522.82 3.08742 1.88045 0
M  V30 5286 O 522.541 4.24147 1.09686 0
M  V30 5287 C 524.042 3.48824 2.73563 0
M  V30 5288 H 521.262 0.608775 0.282194 0
M  V30 5289 H 523.806 2.03124 0.23681 0
M  V30 5290 H 521.961 2.90723 2.56045 0
M  V30 5291 H 522.375 4.95505 1.71974 0
M  V30 5292 H 523.849 4.39752 3.3365 0
M  V30 5293 H 524.326 2.70575 3.45956 0
M  V30 5294 H 524.932 3.69282 2.10976 0
M  V30 5295 N 523.247 -0.488276 1.49845 0
M  V30 5296 C 524.496 -1.23826 1.59217 0
M  V30 5297 C 524.809 -1.93439 0.289966 0
M  V30 5298 O 526.015 -2.70229 0.262382 0
M  V30 5299 C 524.471 -2.24902 2.80976 0
M  V30 5300 C 524.079 -1.6117 4.18005 0
M  V30 5301 C 525.823 -3.00648 2.99685 0
M  V30 5302 C 523.73 -2.60431 5.3097 0
M  V30 5303 H 522.66 -0.465858 0.592868 0
M  V30 5304 H 525.311 -0.510645 1.76252 0
M  V30 5305 H 523.693 -3.0088 2.57463 0
M  V30 5306 H 524.867 -0.910968 4.51706 0
M  V30 5307 H 523.182 -0.97767 4.0476 0
M  V30 5308 H 525.779 -3.74903 3.81251 0
M  V30 5309 H 526.122 -3.5902 2.10738 0
M  V30 5310 H 526.655 -2.31784 3.23297 0
M  V30 5311 H 523.394 -2.06823 6.22017 0
M  V30 5312 H 522.914 -3.28707 5.01709 0
M  V30 5313 H 524.593 -3.22606 5.60834 0
M  V30 5314 N 524.725 -1.39134 -0.740242 0
M  V30 5315 C 525.655 -1.40165 -1.86751 0
M  V30 5316 C 526.636 -0.265708 -1.68012 0
M  V30 5317 O 527.821 -0.47076 -1.88408 0
M  V30 5318 C 524.951 -1.2392 -3.2444 0
M  V30 5319 C 523.905 -2.34858 -3.57807 0
M  V30 5320 C 523.231 -2.03707 -4.94376 0
M  V30 5321 C 524.531 -3.77159 -3.61315 0
M  V30 5322 H 526.225 -2.345 -1.86145 0
M  V30 5323 H 523.771 -1.12875 -0.89416 0
M  V30 5324 H 525.724 -1.23263 -4.02969 0
M  V30 5325 H 524.448 -0.26051 -3.25559 0
M  V30 5326 H 523.107 -2.34723 -2.81604 0
M  V30 5327 H 522.755 -1.04289 -4.9207 0
M  V30 5328 H 522.455 -2.78016 -5.17669 0
M  V30 5329 H 523.979 -2.04691 -5.75268 0
M  V30 5330 H 525.393 -3.79252 -4.29931 0
M  V30 5331 H 523.79 -4.50784 -3.96124 0
M  V30 5332 H 524.86 -4.08513 -2.61238 0
M  V30 5333 N 526.204 0.969867 -1.24223 0
M  V30 5334 C 527.45 1.7151 -1.08223 0
M  V30 5335 C 527.783 1.90478 0.37838 0
M  V30 5336 O 527.058 1.4647 1.27971 0
M  V30 5337 C 527.341 3.10714 -1.82013 0
M  V30 5338 C 527.194 2.9925 -3.35811 0
M  V30 5339 C 528.513 4.10332 -1.59108 0
M  V30 5340 H 525.632 0.622499 -0.394543 0
M  V30 5341 H 528.274 1.1284 -1.52863 0
M  V30 5342 H 526.424 3.608 -1.44068 0
M  V30 5343 H 528.096 2.56608 -3.83341 0
M  V30 5344 H 526.339 2.35512 -3.64303 0
M  V30 5345 H 527.01 3.97857 -3.82641 0
M  V30 5346 H 529.486 3.69097 -1.92111 0
M  V30 5347 H 528.362 5.05804 -2.13198 0
M  V30 5348 H 528.623 4.38926 -0.528832 0
M  V30 5349 N 527.682 1.05563 1.17022 0
M  V30 5350 C 528.612 0.681026 2.23348 0
M  V30 5351 C 529.593 -0.322983 1.67005 0
M  V30 5352 O 530.778 -0.199746 1.9317 0
M  V30 5353 C 527.908 0.0589053 3.4725 0
M  V30 5354 C 526.862 0.988082 4.16438 0
M  V30 5355 C 526.188 0.229646 5.34207 0
M  V30 5356 C 527.488 2.31388 4.68249 0
M  V30 5357 H 529.182 1.56993 2.54938 0
M  V30 5358 H 526.728 0.756302 1.2254 0
M  V30 5359 H 528.681 -0.214982 4.20851 0
M  V30 5360 H 527.405 -0.864968 3.14938 0
M  V30 5361 H 526.064 1.24659 3.44754 0
M  V30 5362 H 525.712 -0.697111 4.98146 0
M  V30 5363 H 525.412 0.848815 5.81437 0
M  V30 5364 H 526.936 -0.0368694 6.10589 0
M  V30 5365 H 528.35 2.09964 5.33468 0
M  V30 5366 H 526.747 2.88736 5.26072 0
M  V30 5367 H 527.817 2.94982 3.84855 0
M  V30 5368 N 529.16 -1.33526 0.837174 0
M  V30 5369 C 530.385 -2.0258 0.444545 0
M  V30 5370 C 530.81 -1.6258 -0.946006 0
M  V30 5371 O 530.168 -0.817548 -1.6182 0
M  V30 5372 C 530.216 -3.5605 0.571006 0
M  V30 5373 O 529.32 -4.10422 -0.403431 0
M  V30 5374 H 528.661 -0.638866 0.180958 0
M  V30 5375 H 531.191 -1.70462 1.13154 0
M  V30 5376 H 531.201 -4.05488 0.452024 0
M  V30 5377 H 529.876 -3.84509 1.58512 0
M  V30 5378 H 528.453 -3.72113 -0.242147 0
M  V30 5379 N 530.638 -0.59345 -1.46 0
M  V30 5380 C 531.884 -0.0832754 -2.02629 0
M  V30 5381 C 532.217 1.27749 -1.46266 0
M  V30 5382 O 531.492 1.8395 -0.631866 0
M  V30 5383 C 531.775 -0.0290756 -3.60088 0
M  V30 5384 C 531.628 -1.41951 -4.26814 0
M  V30 5385 C 532.947 0.666055 -4.35031 0
M  V30 5386 H 530.066 -0.031736 -0.736316 0
M  V30 5387 H 532.708 -0.762711 -1.74019 0
M  V30 5388 H 530.858 0.549532 -3.84594 0
M  V30 5389 H 532.53 -2.04411 -4.13538 0
M  V30 5390 H 530.773 -1.98422 -3.8576 0
M  V30 5391 H 531.444 -1.33395 -5.3564 0
M  V30 5392 H 533.92 0.174401 -4.15734 0
M  V30 5393 H 532.796 0.673041 -5.44758 0
M  V30 5394 H 533.057 1.72946 -4.06869 0
M  V30 5395 N 532.116 1.54067 -0.331816 0
M  V30 5396 C 533.365 1.99895 0.269209 0
M  V30 5397 C 533.678 1.22371 1.52593 0
M  V30 5398 O 534.884 1.58618 2.20347 0
M  V30 5399 C 533.34 3.55972 0.530244 0
M  V30 5400 C 532.948 4.4234 -0.709901 0
M  V30 5401 C 534.692 4.10247 1.09077 0
M  V30 5402 C 532.599 5.89905 -0.420312 0
M  V30 5403 H 531.529 0.746741 0.104371 0
M  V30 5404 H 534.18 1.78014 -0.445324 0
M  V30 5405 H 532.562 3.73873 1.30518 0
M  V30 5406 H 533.736 4.36215 -1.48504 0
M  V30 5407 H 532.051 3.98997 -1.19123 0
M  V30 5408 H 534.648 5.18095 1.32219 0
M  V30 5409 H 534.991 3.62739 2.0427 0
M  V30 5410 H 535.524 3.96011 0.376824 0
M  V30 5411 H 532.263 6.41623 -1.34164 0
M  V30 5412 H 531.783 5.98962 0.316962 0
M  V30 5413 H 533.462 6.46991 -0.0331956 0
M  V30 5414 N 533.594 0.0601682 1.57485 0
M  V30 5415 C 535.005 -0.474217 1.80577 0
M  V30 5416 C 535.356 -1.70365 0.973147 0
M  V30 5417 O 534.481 -2.15544 0.192306 0
M  V30 5418 C 535.076 -0.867102 3.27516 0
M  V30 5419 C 533.635 -1.34642 3.51495 0
M  V30 5420 C 532.782 -0.32594 2.75378 0
M  V30 5421 H 535.733 0.285973 1.56102 0
M  V30 5422 H 535.754 -1.72938 3.38929 0
M  V30 5423 H 535.266 0.0278927 3.8809 0
M  V30 5424 H 533.367 -2.2603 2.96212 0
M  V30 5425 H 533.48 -1.33237 4.60201 0
M  V30 5426 H 531.844 -0.800749 2.41785 0
M  V30 5427 H 532.627 0.561125 3.38683 0
M  V30 5428 N 535.072 -1.5615 -0.213296 0
M  V30 5429 C 536.318 -1.79812 -0.937849 0
M  V30 5430 C 536.651 -0.631201 -1.83656 0
M  V30 5431 O 535.926 0.369165 -1.90964 0
M  V30 5432 C 536.209 -3.13613 -1.76972 0
M  V30 5433 C 536.062 -4.40766 -0.89695 0
M  V30 5434 C 537.381 -3.43931 -2.7459 0
M  V30 5435 H 534.5 -0.654138 -0.339518 0
M  V30 5436 H 537.142 -1.88877 -0.20623 0
M  V30 5437 H 535.292 -3.06015 -2.39347 0
M  V30 5438 H 536.964 -4.60392 -0.289306 0
M  V30 5439 H 535.207 -4.33326 -0.202756 0
M  V30 5440 H 535.878 -5.30843 -1.51358 0
M  V30 5441 H 538.354 -3.5171 -2.22349 0
M  V30 5442 H 537.23 -4.38706 -3.29891 0
M  V30 5443 H 537.491 -2.6651 -3.52739 0
M  V30 5444 N 536.55 0.480323 -1.50102 0
M  V30 5445 C 537.796 1.23489 -1.60867 0
M  V30 5446 C 538.129 1.91809 -0.303827 0
M  V30 5447 O 537.404 1.81694 0.694092 0
M  V30 5448 C 537.687 2.28578 -2.78252 0
M  V30 5449 C 537.54 1.64624 -4.18592 0
M  V30 5450 C 538.859 3.2997 -2.91218 0
M  V30 5451 H 535.978 0.447605 -0.585507 0
M  V30 5452 H 538.62 0.530005 -1.82458 0
M  V30 5453 H 536.77 2.88697 -2.59974 0
M  V30 5454 H 538.442 1.08173 -4.48438 0
M  V30 5455 H 536.685 0.949645 -4.23278 0
M  V30 5456 H 537.356 2.40946 -4.96638 0
M  V30 5457 H 539.832 2.79864 -3.07921 0
M  V30 5458 H 538.708 4.00839 -3.74993 0
M  V30 5459 H 538.969 3.93541 -2.0144 0
M  V30 5460 N 538.028 1.39524 0.732853 0
M  V30 5461 C 538.991 1.38189 1.82857 0
M  V30 5462 C 539.991 0.278624 1.58368 0
M  V30 5463 O 541.181 0.536639 1.65728 0
M  V30 5464 C 538.313 1.15661 3.2068 0
M  V30 5465 H 539.506 2.35692 1.85444 0
M  V30 5466 H 537.059 1.2512 0.936728 0
M  V30 5467 H 537.794 0.188482 3.23752 0
M  V30 5468 H 537.579 1.95559 3.39852 0
M  V30 5469 H 539.069 1.17472 4.00737 0
M  V30 5470 N 539.506 -0.963266 1.24736 0
M  V30 5471 C 540.436 -2.07628 1.06832 0
M  V30 5472 C 541.417 -1.70088 -0.0200566 0
M  V30 5473 O 542.602 -1.93636 0.147854 0
M  V30 5474 C 539.732 -3.40636 0.677069 0
M  V30 5475 C 538.686 -3.9215 1.71471 0
M  V30 5476 C 538.012 -5.21553 1.1784 0
M  V30 5477 C 539.312 -4.19493 3.11164 0
M  V30 5478 H 541.006 -2.22864 1.9993 0
M  V30 5479 H 538.552 -1.07093 0.96266 0
M  V30 5480 H 540.505 -4.17941 0.538792 0
M  V30 5481 H 539.229 -3.25313 -0.289612 0
M  V30 5482 H 537.888 -3.17005 1.84128 0
M  V30 5483 H 537.536 -5.02593 0.202195 0
M  V30 5484 H 537.236 -5.56988 1.87185 0
M  V30 5485 H 538.76 -6.01463 1.05233 0
M  V30 5486 H 540.174 -4.87487 3.01711 0
M  V30 5487 H 538.571 -4.66165 3.77902 0
M  V30 5488 H 539.641 -3.26097 3.58871 0
M  V30 5489 N 540.985 -1.06182 -1.16461 0
M  V30 5490 C 541.948 -0.675723 -2.19013 0
M  V30 5491 C 542.948 0.277963 -1.58379 0
M  V30 5492 O 544.138 0.0604962 -1.74095 0
M  V30 5493 C 541.27 0.00591459 -3.40899 0
M  V30 5494 H 542.463 -1.58353 -2.54685 0
M  V30 5495 H 540.016 -0.856908 -1.30716 0
M  V30 5496 H 540.751 0.92652 -3.10783 0
M  V30 5497 H 540.536 -0.67984 -3.86161 0
M  V30 5498 H 542.026 0.26181 -4.16778 0
M  V30 5499 N 542.463 1.3308 -0.844243 0
M  V30 5500 C 543.426 2.27403 -0.286485 0
M  V30 5501 C 544.426 1.51179 0.547872 0
M  V30 5502 O 545.616 1.70421 0.360886 0
M  V30 5503 C 542.748 3.35653 0.595813 0
M  V30 5504 H 543.941 2.78248 -1.11885 0
M  V30 5505 H 541.494 1.43574 -0.617749 0
M  V30 5506 H 542.229 2.90058 1.4504 0
M  V30 5507 H 542.014 3.921 -0.00125994 0
M  V30 5508 H 543.504 4.05958 0.979168 0
M  V30 5509 N 543.941 0.601185 1.45683 0
M  V30 5510 C 545.189 0.0936957 2.01883 0
M  V30 5511 C 545.51 -1.2779 1.47291 0
M  V30 5512 O 544.78 -1.84279 0.664691 0
M  V30 5513 H 543.36 0.0316466 0.746329 0
M  V30 5514 H 546.022 0.781137 1.78562 0
M  V30 5515 H 545.118 0.0386297 3.12076 0
M  V30 5516 N 545.419 -1.53889 0.339982 0
M  V30 5517 C 546.349 -2.27843 -0.510856 0
M  V30 5518 C 547.33 -1.29267 -1.10563 0
M  V30 5519 O 548.515 -1.58104 -1.12768 0
M  V30 5520 C 545.645 -3.04857 -1.66372 0
M  V30 5521 C 544.599 -4.10907 -1.19746 0
M  V30 5522 C 543.925 -4.75855 -2.43857 0
M  V30 5523 C 545.225 -5.21435 -0.300501 0
M  V30 5524 H 546.919 -2.99212 0.106067 0
M  V30 5525 H 544.465 -1.43904 0.0524533 0
M  V30 5526 H 546.418 -3.5533 -2.26537 0
M  V30 5527 H 545.142 -2.31133 -2.30749 0
M  V30 5528 H 543.801 -3.61342 -0.618654 0
M  V30 5529 H 543.449 -3.9873 -3.06633 0
M  V30 5530 H 543.149 -5.47502 -2.13343 0
M  V30 5531 H 544.673 -5.2911 -3.04754 0
M  V30 5532 H 546.087 -5.67565 -0.80889 0
M  V30 5533 H 544.484 -6.00036 -0.0874076 0
M  V30 5534 H 545.554 -4.80328 0.664321 0
M  V30 5535 N 546.897 -0.0685191 -1.57451 0
M  V30 5536 C 548.143 0.602239 -1.93652 0
M  V30 5537 C 548.476 1.6946 -0.948526 0
M  V30 5538 O 547.751 1.94487 0.022782 0
M  V30 5539 C 548.034 1.18223 -3.4014 0
M  V30 5540 C 547.887 0.0967431 -4.49696 0
M  V30 5541 C 549.206 2.08872 -3.87377 0
M  V30 5542 H 546.325 0.217453 -0.70419 0
M  V30 5543 H 548.967 -0.133821 -1.89528 0
M  V30 5544 H 547.117 1.80953 -3.43785 0
M  V30 5545 H 548.789 -0.536155 -4.58174 0
M  V30 5546 H 547.032 -0.573063 -4.29998 0
M  V30 5547 H 547.703 0.542894 -5.49324 0
M  V30 5548 H 550.179 1.56081 -3.85717 0
M  V30 5549 H 549.055 2.46389 -4.90493 0
M  V30 5550 H 549.316 2.99572 -3.25129 0
M  V30 5551 N 548.375 1.56261 0.205012 0
M  V30 5552 C 549.622 1.8004 0.926927 0
M  V30 5553 C 549.95 0.640086 1.83666 0
M  V30 5554 O 549.205 -0.374702 1.92079 0
M  V30 5555 C 549.504 3.09722 1.78345 0
M  V30 5556 C 549.17 4.39082 1.02555 0
M  V30 5557 C 547.832 4.74226 0.816256 0
M  V30 5558 C 550.184 5.18877 0.491559 0
M  V30 5559 C 547.512 5.86668 0.0613287 0
M  V30 5560 C 549.864 6.32105 -0.250107 0
M  V30 5561 C 548.528 6.6584 -0.470508 0
M  V30 5562 H 547.798 0.658812 0.339187 0
M  V30 5563 H 550.445 1.90515 0.19395 0
M  V30 5564 H 548.75 2.9444 2.5848 0
M  V30 5565 H 550.447 3.25324 2.34446 0
M  V30 5566 H 547.037 4.11497 1.19868 0
M  V30 5567 H 551.221 4.92147 0.640684 0
M  V30 5568 H 546.477 6.11283 -0.119501 0
M  V30 5569 H 550.651 6.93157 -0.671307 0
M  V30 5570 H 548.278 7.5281 -1.05739 0
M  V30 5571 N 549.853 -0.472356 1.50355 0
M  V30 5572 C 551.081 -1.24784 1.65035 0
M  V30 5573 C 551.496 -1.85837 0.333176 0
M  V30 5574 O 550.853 -1.69168 -0.68472 0
M  V30 5575 C 550.904 -2.35747 2.74054 0
M  V30 5576 O 550.625 -1.77197 4.00665 0
M  V30 5577 C 552.126 -3.26645 2.99696 0
M  V30 5578 H 549.346 -0.377432 0.554785 0
M  V30 5579 H 551.89 -0.563962 1.9657 0
M  V30 5580 H 550.045 -2.99912 2.45217 0
M  V30 5581 H 550.459 -2.5026 4.60945 0
M  V30 5582 H 551.933 -4.00718 3.79644 0
M  V30 5583 H 552.41 -3.8535 2.10718 0
M  V30 5584 H 553.016 -2.68218 3.3006 0
M  V30 5585 N 551.331 -1.39911 -0.725443 0
M  V30 5586 C 552.241 -1.41688 -1.8698 0
M  V30 5587 C 553.257 -0.310579 -1.71206 0
M  V30 5588 O 554.433 -0.55359 -1.93642 0
M  V30 5589 C 551.498 -1.26811 -3.22676 0
M  V30 5590 C 550.559 -2.47497 -3.50776 0
M  V30 5591 C 549.792 -2.3332 -4.79997 0
M  V30 5592 O 550.015 -1.34175 -5.54394 0
M  V30 5593 O 548.949 -3.22498 -5.08211 0
M  V30 5594 H 552.775 -2.38171 -1.88436 0
M  V30 5595 H 550.36 -1.21128 -0.874548 0
M  V30 5596 H 552.242 -1.20684 -4.03749 0
M  V30 5597 H 550.917 -0.334289 -3.21969 0
M  V30 5598 H 549.824 -2.59201 -2.69751 0
M  V30 5599 H 551.157 -3.39606 -3.5627 0
M  V30 5600 N 552.809 0.956637 -1.25245 0
M  V30 5601 C 553.739 2.07058 -1.07931 0
M  V30 5602 C 554.72 1.70096 0.0110361 0
M  V30 5603 O 555.905 1.93555 -0.158121 0
M  V30 5604 C 553.035 3.40272 -0.695124 0
M  V30 5605 C 551.989 3.91235 -1.73549 0
M  V30 5606 C 551.315 5.20921 -1.20604 0
M  V30 5607 C 552.615 4.17837 -3.13385 0
M  V30 5608 H 554.309 2.218 -2.01109 0
M  V30 5609 H 551.855 1.06581 -0.968326 0
M  V30 5610 H 553.808 4.1765 -0.560949 0
M  V30 5611 H 552.532 3.25462 0.272355 0
M  V30 5612 H 551.191 3.16025 -1.85807 0
M  V30 5613 H 550.839 5.02479 -0.228846 0
M  V30 5614 H 550.539 5.55987 -1.90136 0
M  V30 5615 H 552.063 6.00897 -1.08421 0
M  V30 5616 H 553.477 4.8588 -3.04292 0
M  V30 5617 H 551.874 4.64154 -3.80369 0
M  V30 5618 H 552.944 3.2419 -3.60595 0
M  V30 5619 N 554.287 1.06798 1.15896 0
M  V30 5620 C 555.515 0.808694 1.90441 0
M  V30 5621 C 555.93 -0.637506 1.77711 0
M  V30 5622 O 555.287 -1.43684 1.12522 0
M  V30 5623 C 555.338 1.20068 3.40978 0
M  V30 5624 O 555.059 2.59013 3.53333 0
M  V30 5625 C 556.56 0.96987 4.3256 0
M  V30 5626 H 553.78 0.292809 0.603742 0
M  V30 5627 H 556.324 1.42296 1.46874 0
M  V30 5628 H 554.479 0.630842 3.82229 0
M  V30 5629 H 554.893 2.7485 4.46719 0
M  V30 5630 H 556.367 1.29371 5.36626 0
M  V30 5631 H 556.844 -0.0941209 4.39099 0
M  V30 5632 H 557.45 1.52433 3.97044 0
M  V30 5633 N 555.766 -1.3263 0.851289 0
M  V30 5634 C 556.994 -2.01563 0.466899 0
M  V30 5635 C 557.409 -1.63996 -0.935447 0
M  V30 5636 O 556.766 -0.85957 -1.6099 0
M  V30 5637 C 556.817 -3.56613 0.592433 0
M  V30 5638 O 556.538 -3.92828 1.93954 0
M  V30 5639 C 558.039 -4.42818 0.206612 0
M  V30 5640 H 555.259 -0.645307 0.183902 0
M  V30 5641 H 557.803 -1.69285 1.1473 0
M  V30 5642 H 555.958 -3.87379 -0.0401936 0
M  V30 5643 H 556.372 -4.87545 1.9339 0
M  V30 5644 H 557.846 -5.50918 0.345462 0
M  V30 5645 H 558.323 -4.30844 -0.85264 0
M  V30 5646 H 558.929 -4.17434 0.814176 0
M  V30 5647 N 557.244 -0.608902 -1.45362 0
M  V30 5648 C 558.521 -0.0365378 -1.95566 0
M  V30 5649 C 558.901 1.43169 -1.55131 0
M  V30 5650 O 558.249 2.1349 -0.814513 0
M  V30 5651 C 558.459 -0.236026 -3.48201 0
M  V30 5652 C 559.807 -0.117518 -4.24437 0
M  V30 5653 O 560.831 -0.166217 -3.55812 0
M  V30 5654 O 559.69 -0.00372127 -5.465 0
M  V30 5655 H 556.784 0.0349874 -0.82626 0
M  V30 5656 H 559.33 -0.679055 -1.55521 0
M  V30 5657 H 558.102 -1.25569 -3.70605 0
M  V30 5658 H 557.725 0.441691 -3.95139 0
M  V30 5659 N 558.722 1.53707 -0.348139 0
M  V30 5660 C 560.133 1.86213 0.134797 0
M  V30 5661 C 560.484 1.26925 1.49614 0
M  V30 5662 O 559.609 0.584573 2.08355 0
M  V30 5663 C 560.204 3.37866 0.251371 0
M  V30 5664 C 558.763 3.70233 0.678543 0
M  V30 5665 C 557.91 2.76683 -0.184925 0
M  V30 5666 H 560.861 1.48204 -0.567571 0
M  V30 5667 H 560.882 3.64908 1.07806 0
M  V30 5668 H 560.394 3.80988 -0.739581 0
M  V30 5669 H 558.495 3.32659 1.67835 0
M  V30 5670 H 558.608 4.76836 0.465251 0
M  V30 5671 H 556.972 2.52374 0.343465 0
M  V30 5672 H 557.755 3.22635 -1.1731 0
M  V30 5673 N 560.2 0.0768682 1.57412 0
M  V30 5674 C 561.446 -0.591961 1.93968 0
M  V30 5675 C 561.779 -1.68954 0.9575 0
M  V30 5676 O 561.054 -1.94496 -0.0124675 0
M  V30 5677 C 561.337 -1.16418 3.40762 0
M  V30 5678 C 561.19 -0.0728933 4.49741 0
M  V30 5679 C 562.509 -2.06814 3.88479 0
M  V30 5680 H 559.628 -0.213716 0.705333 0
M  V30 5681 H 562.27 0.14387 1.89455 0
M  V30 5682 H 560.42 -1.79128 3.4474 0
M  V30 5683 H 562.092 0.560446 4.57883 0
M  V30 5684 H 560.335 0.595859 4.29688 0
M  V30 5685 H 561.006 -0.513755 5.49604 0
M  V30 5686 H 563.482 -1.54033 3.8654 0
M  V30 5687 H 562.358 -2.43785 4.91793 0
M  V30 5688 H 562.619 -2.97844 3.26713 0
M  V30 5689 N 561.678 -1.56367 -0.196722 0
M  V30 5690 C 562.588 -1.97617 -1.2643 0
M  V30 5691 C 563.604 -0.883598 -1.49895 0
M  V30 5692 O 564.78 -1.18921 -1.62541 0
M  V30 5693 C 561.845 -2.30595 -2.58895 0
M  V30 5694 C 560.906 -3.53551 -2.43516 0
M  V30 5695 C 560.139 -3.84946 -3.69665 0
M  V30 5696 O 560.362 -3.17655 -4.73763 0
M  V30 5697 O 559.296 -4.78379 -3.65291 0
M  V30 5698 H 563.122 -2.88648 -0.944233 0
M  V30 5699 H 560.707 -1.43901 -0.401592 0
M  V30 5700 H 562.589 -2.52889 -3.37083 0
M  V30 5701 H 561.264 -1.42732 -2.90533 0
M  V30 5702 H 560.171 -3.36507 -1.63445 0
M  V30 5703 H 561.504 -4.41875 -2.16812 0
M  V30 5704 N 563.156 0.464375 -1.50603 0
M  V30 5705 C 564.086 1.56944 -1.72889 0
M  V30 5706 C 565.067 1.59979 -0.577997 0
M  V30 5707 O 566.252 1.76138 -0.817855 0
M  V30 5708 C 563.382 2.95225 -1.8292 0
M  V30 5709 C 562.336 3.07056 -2.98162 0
M  V30 5710 C 561.662 4.47051 -2.93343 0
M  V30 5711 C 562.962 2.83648 -4.38567 0
M  V30 5712 H 564.656 1.38547 -2.65415 0
M  V30 5713 H 562.202 0.665082 -1.27721 0
M  V30 5714 H 564.155 3.72467 -1.97095 0
M  V30 5715 H 562.879 3.14793 -0.870209 0
M  V30 5716 H 561.538 2.32248 -2.83648 0
M  V30 5717 H 561.186 4.63547 -1.95276 0
M  V30 5718 H 560.886 4.55902 -3.70712 0
M  V30 5719 H 562.41 5.26304 -3.09575 0
M  V30 5720 H 563.824 3.50636 -4.53572 0
M  V30 5721 H 562.221 3.03937 -5.17438 0
M  V30 5722 H 563.291 1.79451 -4.50472 0
M  V30 5723 N 564.634 1.40294 0.718013 0
M  V30 5724 C 565.88 1.39648 1.47885 0
M  V30 5725 C 566.235 -0.0023879 1.924 0
M  V30 5726 O 565.528 -0.972304 1.65096 0
M  V30 5727 C 565.722 2.31814 2.72024 0
M  V30 5728 C 565.551 3.80523 2.3965 0
M  V30 5729 C 564.321 4.49351 2.3111 0
M  V30 5730 C 566.519 4.72077 2.04079 0
M  V30 5731 N 564.501 5.83305 1.91385 0
M  V30 5732 C 565.872 5.94809 1.74935 0
M  V30 5733 C 567.927 4.59935 1.90694 0
M  V30 5734 C 566.63 7.06755 1.33753 0
M  V30 5735 C 568.656 5.7182 1.50915 0
M  V30 5736 C 568.018 6.93637 1.22668 0
M  V30 5737 H 564.117 0.566263 0.539324 0
M  V30 5738 H 566.701 1.75986 0.832891 0
M  V30 5739 H 564.872 1.97607 3.34374 0
M  V30 5740 H 566.604 2.22042 3.38348 0
M  V30 5741 H 563.359 4.03002 2.4877 0
M  V30 5742 H 563.783 6.54239 1.74068 0
M  V30 5743 H 568.425 3.66274 2.11194 0
M  V30 5744 H 566.143 8.00302 1.11995 0
M  V30 5745 H 569.729 5.64421 1.4114 0
M  V30 5746 H 568.609 7.78743 0.923502 0
M  V30 5747 N 566.112 -0.949982 1.2575 0
M  V30 5748 C 567.337 -1.73503 1.13628 0
M  V30 5749 C 567.762 -1.85601 -0.30559 0
M  V30 5750 O 567.12 -1.33984 -1.22139 0
M  V30 5751 C 567.168 -3.1243 1.80055 0
M  V30 5752 O 566.272 -3.97916 1.08336 0
M  V30 5753 H 565.613 -0.532665 0.396439 0
M  V30 5754 H 568.143 -1.19043 1.66403 0
M  V30 5755 H 568.153 -3.62866 1.86527 0
M  V30 5756 H 566.828 -3.02941 2.84956 0
M  V30 5757 H 565.405 -3.56375 1.09777 0
M  V30 5758 N 567.59 -1.07411 -1.15328 0
M  V30 5759 C 568.553 -0.698914 -2.18284 0
M  V30 5760 C 569.553 0.261149 -1.58665 0
M  V30 5761 O 570.743 0.0420277 -1.74149 0
M  V30 5762 C 567.875 -0.0302427 -3.40887 0
M  V30 5763 H 569.068 -1.61045 -2.52991 0
M  V30 5764 H 566.621 -0.870724 -1.298 0
M  V30 5765 H 567.356 0.893505 -3.11748 0
M  V30 5766 H 567.141 -0.720759 -3.85419 0
M  V30 5767 H 568.631 0.21759 -4.17033 0
M  V30 5768 N 569.068 1.32177 -0.85831 0
M  V30 5769 C 570.479 1.79381 -0.517621 0
M  V30 5770 C 570.83 1.70841 0.964769 0
M  V30 5771 O 569.955 1.26917 1.75274 0
M  V30 5772 C 570.55 3.25706 -0.932801 0
M  V30 5773 C 569.109 3.70851 -0.643953 0
M  V30 5774 C 568.256 2.53208 -1.13054 0
M  V30 5775 H 571.207 1.19424 -1.04516 0
M  V30 5776 H 571.228 3.79673 -0.250674 0
M  V30 5777 H 570.74 3.31889 -2.01174 0
M  V30 5778 H 568.841 3.70178 0.424112 0
M  V30 5779 H 568.954 4.63495 -1.21281 0
M  V30 5780 H 567.318 2.48676 -0.550679 0
M  V30 5781 H 568.101 2.62143 -2.21666 0
M  V30 5782 N 570.547 0.616602 1.45037 0
M  V30 5783 C 571.495 -0.109318 2.32343 0
M  V30 5784 C 572.489 -0.850543 1.465 0
M  V30 5785 O 573.695 -0.765088 1.62931 0
M  V30 5786 H 570.07 -0.0541091 0.750051 0
M  V30 5787 H 572.041 0.645326 2.91338 0
M  V30 5788 C 570.79 -1.0872 3.30266 0
M  V30 5789 H 570.113 -0.526267 3.96321 0
M  V30 5790 H 571.553 -1.56489 3.94065 0
M  V30 5791 C 570.012 -2.16525 2.58105 0
M  V30 5792 O 570.542 -3.244 2.36913 0
M  V30 5793 N 568.748 -1.92057 2.18088 0
M  V30 5794 H 568.295 -1.04337 2.35524 0
M  V30 5795 H 568.253 -2.64391 1.70131 0
M  V30 5796 N 572.025 -1.5352 0.356285 0
M  V30 5797 C 573.25 -2.06007 -0.239961 0
M  V30 5798 C 573.675 -1.22872 -1.42422 0
M  V30 5799 O 573.033 -0.245516 -1.7963 0
M  V30 5800 C 573.081 -3.5522 -0.620587 0
M  V30 5801 O 572.185 -3.74864 -1.71902 0
M  V30 5802 H 571.526 -0.662961 -0.0371377 0
M  V30 5803 H 574.056 -1.98033 0.514194 0
M  V30 5804 H 574.066 -3.98081 -0.894197 0
M  V30 5805 H 572.741 -4.15175 0.245407 0
M  V30 5806 H 571.318 -3.43904 -1.44169 0
M  V30 5807 N 573.503 -0.0852151 -1.57369 0
M  V30 5808 C 574.435 0.907099 -2.10486 0
M  V30 5809 C 575.448 1.25259 -1.03991 0
M  V30 5810 O 576.637 1.20743 -1.31467 0
M  V30 5811 C 573.737 2.21908 -2.56145 0
M  V30 5812 C 572.91 2.05042 -3.86363 0
M  V30 5813 C 571.969 3.19664 -4.17973 0
M  V30 5814 O 570.995 2.94062 -4.87356 0
M  V30 5815 N 572.197 4.45151 -3.72587 0
M  V30 5816 H 574.962 0.453505 -2.96249 0
M  V30 5817 H 572.523 0.100157 -1.6159 0
M  V30 5818 H 574.515 2.97519 -2.74343 0
M  V30 5819 H 573.085 2.58723 -1.75446 0
M  V30 5820 H 572.305 1.13819 -3.77411 0
M  V30 5821 H 573.593 1.91039 -4.71574 0
M  V30 5822 H 572.991 4.68834 -3.16561 0
M  V30 5823 H 571.548 5.17744 -3.9596 0
M  V30 5824 N 574.981 1.5647 0.188427 0
M  V30 5825 C 575.944 1.9421 1.21718 0
M  V30 5826 C 576.944 0.823901 1.38089 0
M  V30 5827 O 578.134 1.09122 1.35787 0
M  V30 5828 C 575.266 2.22197 2.58537 0
M  V30 5829 H 576.459 2.86252 0.894418 0
M  V30 5830 H 574.012 1.50263 0.430211 0
M  V30 5831 H 574.747 1.32814 2.95856 0
M  V30 5832 H 574.532 3.03688 2.48025 0
M  V30 5833 H 576.022 2.52376 3.3271 0
M  V30 5834 N 576.459 -0.456382 1.50847 0
M  V30 5835 C 577.875 -0.791345 1.386 0
M  V30 5836 C 578.075 -1.9633 0.453498 0
M  V30 5837 O 577.131 -2.52308 -0.0984353 0
M  V30 5838 C 578.444 -1.08959 2.80265 0
M  V30 5839 C 579.992 -1.19517 2.89283 0
M  V30 5840 C 580.467 -1.52647 4.31814 0
M  V30 5841 N 581.958 -1.59609 4.34832 0
M  V30 5842 C 582.693 -1.86777 5.42127 0
M  V30 5843 N 582.189 -2.11866 6.59609 0
M  V30 5844 N 583.982 -1.88402 5.29586 0
M  V30 5845 H 576.133 0.315746 2.1004 0
M  V30 5846 H 578.396 0.0787916 0.94472 0
M  V30 5847 H 578.102 -0.301355 3.50407 0
M  V30 5848 H 577.976 -2.02211 3.18419 0
M  V30 5849 H 580.363 -1.97406 2.19351 0
M  V30 5850 H 580.444 -0.242111 2.54652 0
M  V30 5851 H 580.088 -0.752922 5.02288 0
M  V30 5852 H 580.018 -2.49127 4.63943 0
M  V30 5853 H 582.509 -1.42201 3.50125 0
M  V30 5854 H 582.822 -2.31912 7.37182 0
M  V30 5855 H 581.167 -2.09228 6.62758 0
M  V30 5856 H 584.358 -1.68307 4.36795 0
M  V30 5857 H 584.531 -2.09238 6.13289 0
M  V30 5858 N 577.937 -1.40673 -0.710563 0
M  V30 5859 C 579.162 -1.42741 -1.50465 0
M  V30 5860 C 579.587 -0.0302116 -1.88076 0
M  V30 5861 O 578.945 0.962945 -1.53613 0
M  V30 5862 C 578.993 -2.32873 -2.75322 0
M  V30 5863 O 578.097 -1.77544 -3.72226 0
M  V30 5864 H 577.438 -0.485056 -0.45345 0
M  V30 5865 H 579.968 -1.84961 -0.874681 0
M  V30 5866 H 579.978 -2.48233 -3.23797 0
M  V30 5867 H 578.653 -3.34401 -2.47283 0
M  V30 5868 H 577.23 -1.71556 -3.31093 0
M  V30 5869 N 579.415 0.9433 -1.26252 0
M  V30 5870 C 580.325 2.07532 -1.09397 0
M  V30 5871 C 581.341 1.73977 -0.0280449 0
M  V30 5872 O 582.517 2.00067 -0.231337 0
M  V30 5873 C 579.582 3.39002 -0.726523 0
M  V30 5874 C 578.643 3.86353 -1.87163 0
M  V30 5875 C 577.876 5.11549 -1.52162 0
M  V30 5876 O 578.099 5.68834 -0.422385 0
M  V30 5877 O 577.033 5.53889 -2.35565 0
M  V30 5878 H 580.859 2.24658 -2.04359 0
M  V30 5879 H 578.444 1.05988 -1.05295 0
M  V30 5880 H 580.326 4.18 -0.534236 0
M  V30 5881 H 579.001 3.2312 0.193721 0
M  V30 5882 H 577.908 3.0831 -2.11886 0
M  V30 5883 H 579.241 4.06752 -2.77152 0
M  V30 5884 N 580.893 1.08022 1.14757 0
M  V30 5885 C 581.84 0.706657 2.19716 0
M  V30 5886 C 582.81 -0.30525 1.63271 0
M  V30 5887 O 583.995 -0.19015 1.8985 0
M  V30 5888 C 581.135 0.117914 3.44898 0
M  V30 5889 C 580.248 1.18212 4.15512 0
M  V30 5890 C 579.383 0.557659 5.28265 0
M  V30 5891 C 578.422 1.60418 5.90705 0
M  V30 5892 N 577.559 1.0018 6.94916 0
M  V30 5893 H 582.399 1.60603 2.51019 0
M  V30 5894 H 579.936 0.802664 1.23271 0
M  V30 5895 H 581.894 -0.241112 4.16503 0
M  V30 5896 H 580.524 -0.744788 3.1409 0
M  V30 5897 H 579.576 1.65863 3.42335 0
M  V30 5898 H 580.888 1.97533 4.5802 0
M  V30 5899 H 580.042 0.146654 6.06523 0
M  V30 5900 H 578.781 -0.267249 4.86967 0
M  V30 5901 H 577.786 2.02489 5.11154 0
M  V30 5902 H 579.011 2.43149 6.34078 0
M  V30 5903 H 576.957 0.197917 6.55701 0
M  V30 5904 H 576.874 1.73216 7.35889 0
M  V30 5905 H 578.142 0.616523 7.77058 0
M  V30 5906 N 582.371 -1.3172 0.865308 0
M  V30 5907 C 583.334 -2.26918 0.322627 0
M  V30 5908 C 584.334 -1.52031 -0.523751 0
M  V30 5909 O 585.524 -1.70973 -0.333727 0
M  V30 5910 C 582.656 -3.36558 -0.542338 0
M  V30 5911 H 583.849 -2.76432 1.16298 0
M  V30 5912 H 581.402 -1.42573 0.640512 0
M  V30 5913 H 582.137 -2.92329 -1.40407 0
M  V30 5914 H 581.922 -3.92048 0.0636395 0
M  V30 5915 H 583.412 -4.07465 -0.91446 0
M  V30 5916 N 583.85 -0.624285 -1.44708 0
M  V30 5917 C 585.096 -0.126051 -2.02107 0
M  V30 5918 C 585.425 1.2496 -1.49048 0
M  V30 5919 O 584.68 1.84163 -0.662005 0
M  V30 5920 C 584.979 -0.0546353 -3.57358 0
M  V30 5921 C 584.644 -1.36815 -4.29642 0
M  V30 5922 C 583.307 -1.72792 -4.49106 0
M  V30 5923 C 585.659 -2.23549 -4.70824 0
M  V30 5924 C 582.986 -2.95222 -5.07012 0
M  V30 5925 C 585.339 -3.45243 -5.30085 0
M  V30 5926 C 584.003 -3.81452 -5.47769 0
M  V30 5927 H 583.273 -0.0461252 -0.739563 0
M  V30 5928 H 585.92 -0.809236 -1.73562 0
M  V30 5929 H 584.225 0.711891 -3.85278 0
M  V30 5930 H 585.922 0.347282 -3.99493 0
M  V30 5931 H 582.512 -1.07817 -4.14817 0
M  V30 5932 H 586.696 -1.9705 -4.55505 0
M  V30 5933 H 581.952 -3.23361 -5.18891 0
M  V30 5934 H 586.125 -4.12689 -5.60946 0
M  V30 5935 H 583.753 -4.76403 -5.92405 0
M  V30 5936 N 585.328 1.53329 -0.364422 0
M  V30 5937 C 586.278 2.22472 0.499024 0
M  V30 5938 C 587.262 1.21952 1.0496 0
M  V30 5939 O 588.454 1.47405 0.979836 0
M  V30 5940 C 585.583 3.01659 1.6388 0
M  V30 5941 C 584.669 4.09555 1.10116 0
M  V30 5942 N 585.06 5.04988 0.286414 0
M  V30 5943 C 583.358 4.2424 1.37608 0
M  V30 5944 C 584.059 5.81699 -0.00781682 0
M  V30 5945 N 583.035 5.40394 0.589494 0
M  V30 5946 H 586.837 2.93611 -0.130284 0
M  V30 5947 H 584.351 1.61483 -0.172377 0
M  V30 5948 H 586.348 3.4971 2.26954 0
M  V30 5949 H 585.008 2.32051 2.27118 0
M  V30 5950 H 586.019 5.17847 -0.0742839 0
M  V30 5951 H 582.696 3.65858 2.01133 0
M  V30 5952 H 584.086 6.68587 -0.666394 0
M  V30 5953 N 586.806 0.0935595 1.57322 0
M  V30 5954 C 588.083 -0.612692 1.85756 0
M  V30 5955 C 588.463 -1.86439 0.99013 0
M  V30 5956 O 587.811 -2.28416 0.0621362 0
M  V30 5957 C 588.021 -0.929547 3.36393 0
M  V30 5958 C 589.369 -1.29366 4.04413 0
M  V30 5959 O 590.393 -1.02061 3.41265 0
M  V30 5960 O 589.252 -1.80498 5.15832 0
M  V30 5961 H 586.346 -0.306444 0.768128 0
M  V30 5962 H 588.892 0.126141 1.69231 0
M  V30 5963 H 587.664 -0.0414766 3.91278 0
M  V30 5964 H 587.287 -1.72441 3.5826 0
M  V30 5965 N 588.284 -1.56567 -0.180126 0
M  V30 5966 C 589.216 -1.92275 -1.24751 0
M  V30 5967 C 590.229 -0.814922 -1.40936 0
M  V30 5968 O 591.418 -1.09336 -1.41095 0
M  V30 5969 C 588.518 -2.15265 -2.61752 0
M  V30 5970 C 587.691 -3.46467 -2.66981 0
M  V30 5971 C 586.75 -3.58391 -3.85283 0
M  V30 5972 O 585.776 -4.31086 -3.7169 0
M  V30 5973 N 586.978 -2.92587 -5.01371 0
M  V30 5974 H 589.743 -2.84435 -0.944302 0
M  V30 5975 H 587.304 -1.57617 -0.369952 0
M  V30 5976 H 589.296 -2.20515 -3.39345 0
M  V30 5977 H 587.866 -1.29533 -2.845 0
M  V30 5978 H 587.086 -3.52953 -1.75549 0
M  V30 5979 H 588.374 -4.32819 -2.67479 0
M  V30 5980 H 587.772 -2.3338 -5.15316 0
M  V30 5981 H 586.329 -3.03444 -5.76858 0
M  V30 5982 N 589.762 0.448376 -1.51087 0
M  V30 5983 C 590.712 1.54156 -1.67988 0
M  V30 5984 C 591.696 1.5178 -0.534015 0
M  V30 5985 O 592.888 1.58419 -0.789448 0
M  V30 5986 C 590.017 2.92437 -1.79822 0
M  V30 5987 C 589.103 2.99611 -3.00157 0
M  V30 5988 N 589.494 2.7655 -4.23502 0
M  V30 5989 C 587.792 3.30764 -2.99184 0
M  V30 5990 C 588.493 2.89281 -5.0467 0
M  V30 5991 N 587.469 3.20473 -4.39088 0
M  V30 5992 H 591.271 1.35061 -2.61028 0
M  V30 5993 H 588.785 0.655504 -1.48583 0
M  V30 5994 H 590.782 3.71068 -1.90037 0
M  V30 5995 H 589.442 3.1256 -0.879554 0
M  V30 5996 H 590.453 2.5169 -4.52628 0
M  V30 5997 H 587.13 3.56732 -2.16907 0
M  V30 5998 H 588.52 2.75499 -6.12821 0
M  V30 5999 N 591.24 1.41047 0.703093 0
M  V30 6000 C 592.487 1.4 1.46309 0
M  V30 6001 C 592.815 0.00654574 1.94499 0
M  V30 6002 O 592.07 -0.980255 1.6938 0
M  V30 6003 C 592.369 2.34686 2.6955 0
M  V30 6004 C 592.035 3.81684 2.40058 0
M  V30 6005 C 590.697 4.21731 2.31725 0
M  V30 6006 C 593.049 4.74525 2.15581 0
M  V30 6007 C 590.377 5.52637 1.97001 0
M  V30 6008 C 592.729 6.05744 1.82366 0
M  V30 6009 C 591.393 6.44819 1.72524 0
M  V30 6010 H 590.663 0.512295 0.535382 0
M  V30 6011 H 593.31 1.73792 0.804275 0
M  V30 6012 H 591.615 1.94122 3.40329 0
M  V30 6013 H 593.312 2.31152 3.27673 0
M  V30 6014 H 589.902 3.49963 2.47435 0
M  V30 6015 H 594.086 4.44395 2.20968 0
M  V30 6016 H 589.342 5.81802 1.87928 0
M  V30 6017 H 593.516 6.77189 1.62444 0
M  V30 6018 H 591.143 7.46168 1.45385 0
M  V30 6019 N 592.718 -0.936591 1.26751 0
M  V30 6020 C 593.966 -1.67998 1.12343 0
M  V30 6021 C 594.287 -1.92137 -0.332938 0
M  V30 6022 O 593.557 -1.52132 -1.23421 0
M  V30 6023 H 592.137 -0.622609 0.412756 0
M  V30 6024 H 594.799 -1.12509 1.59147 0
M  V30 6025 H 593.895 -2.65185 1.64571 0
M  V30 6026 N 594.196 -1.08629 -1.14182 0
M  V30 6027 C 595.607 -0.838003 -1.66836 0
M  V30 6028 C 595.958 0.634885 -1.85644 0
M  V30 6029 O 595.083 1.49008 -1.56926 0
M  V30 6030 C 595.678 -1.51465 -3.03058 0
M  V30 6031 C 594.237 -1.31355 -3.52736 0
M  V30 6032 C 593.384 -1.57599 -2.28162 0
M  V30 6033 H 596.335 -1.24656 -0.982165 0
M  V30 6034 H 596.356 -0.943134 -3.68626 0
M  V30 6035 H 595.868 -2.58661 -2.89337 0
M  V30 6036 H 593.969 -0.262384 -3.71675 0
M  V30 6037 H 594.082 -2.04275 -4.33369 0
M  V30 6038 H 592.446 -0.997659 -2.34348 0
M  V30 6039 H 593.229 -2.66006 -2.17015 0
M  V30 6040 N 595.674 1.31259 -0.872281 0
M  V30 6041 C 596.921 1.96622 -0.484365 0
M  V30 6042 C 597.249 1.68939 0.963841 0
M  V30 6043 O 596.504 0.97974 1.6941 0
M  V30 6044 C 596.803 3.50659 -0.690889 0
M  V30 6045 C 596.469 3.98366 -2.11224 0
M  V30 6046 C 595.131 4.11104 -2.50094 0
M  V30 6047 C 597.483 4.23425 -3.0391 0
M  V30 6048 C 594.811 4.46254 -3.80887 0
M  V30 6049 C 597.163 4.60039 -4.3422 0
M  V30 6050 C 595.827 4.70984 -4.73001 0
M  V30 6051 H 595.097 0.71949 -0.177242 0
M  V30 6052 H 597.744 1.56353 -1.10571 0
M  V30 6053 H 596.049 3.91798 0.0135782 0
M  V30 6054 H 597.746 3.99284 -0.370534 0
M  V30 6055 H 594.336 3.88949 -1.80047 0
M  V30 6056 H 598.52 4.13075 -2.75104 0
M  V30 6057 H 593.776 4.52926 -4.10692 0
M  V30 6058 H 597.95 4.78381 -5.06088 0
M  V30 6059 H 595.577 4.97977 -5.7439 0
M  V30 6060 N 597.152 0.631951 1.44375 0
M  V30 6061 C 598.399 0.136767 2.02038 0
M  V30 6062 C 598.727 -1.24168 1.49709 0
M  V30 6063 O 597.982 -1.83809 0.671763 0
M  V30 6064 C 598.281 0.0735861 3.57324 0
M  V30 6065 C 597.947 1.39092 4.28911 0
M  V30 6066 C 596.609 1.75171 4.48184 0
M  V30 6067 C 598.961 2.26042 4.69632 0
M  V30 6068 C 596.289 2.97907 5.05439 0
M  V30 6069 C 598.641 3.4805 5.28246 0
M  V30 6070 C 597.305 3.84351 5.45738 0
M  V30 6071 H 596.575 0.0500466 0.739308 0
M  V30 6072 H 599.222 0.818429 1.7313 0
M  V30 6073 H 597.527 -0.691449 3.8565 0
M  V30 6074 H 599.224 -0.326091 3.99672 0
M  V30 6075 H 595.814 1.10015 4.1424 0
M  V30 6076 H 599.998 1.99463 4.54454 0
M  V30 6077 H 595.254 3.26108 5.17169 0
M  V30 6078 H 599.428 4.15658 5.5875 0
M  V30 6079 H 597.055 4.79538 5.8987 0
M  V30 6080 N 598.631 -1.53133 0.372548 0
M  V30 6081 C 600.047 -1.59585 0.02178 0
M  V30 6082 C 600.247 -1.38736 -1.46132 0
M  V30 6083 O 599.303 -1.19599 -2.22379 0
M  V30 6084 C 600.616 -2.9678 0.483959 0
M  V30 6085 C 602.164 -3.09909 0.438775 0
M  V30 6086 C 602.639 -4.49527 0.876876 0
M  V30 6087 N 604.13 -4.55663 0.832214 0
M  V30 6088 C 604.865 -5.61896 1.14281 0
M  V30 6089 N 604.361 -6.75852 1.52303 0
M  V30 6090 N 606.154 -5.51916 1.06515 0
M  V30 6091 H 598.305 -1.64936 1.33827 0
M  V30 6092 H 600.568 -0.773947 0.547458 0
M  V30 6093 H 600.274 -3.17198 1.51915 0
M  V30 6094 H 600.148 -3.7699 -0.125784 0
M  V30 6095 H 602.535 -2.89197 -0.587294 0
M  V30 6096 H 602.616 -2.31691 1.0841 0
M  V30 6097 H 602.26 -4.70979 1.90109 0
M  V30 6098 H 602.19 -5.26186 0.208727 0
M  V30 6099 H 604.681 -3.73844 0.552195 0
M  V30 6100 H 604.994 -7.52862 1.7441 0
M  V30 6101 H 603.339 -6.77226 1.56175 0
M  V30 6102 H 606.53 -4.6177 0.767235 0
M  V30 6103 H 606.703 -6.34609 1.31053 0
M  V30 6104 N 600.109 -0.101901 -1.5727 0
M  V30 6105 C 601.337 0.568392 -1.98939 0
M  V30 6106 C 601.752 1.61301 -0.981194 0
M  V30 6107 O 601.109 1.82478 0.0282869 0
M  V30 6108 C 601.16 1.20997 -3.40649 0
M  V30 6109 O 600.881 0.207129 -4.3761 0
M  V30 6110 C 602.382 1.96523 -3.97358 0
M  V30 6111 H 599.602 0.15186 -0.65359 0
M  V30 6112 H 602.146 -0.183198 -2.03678 0
M  V30 6113 H 600.301 1.91245 -3.36904 0
M  V30 6114 H 600.715 0.671071 -5.20189 0
M  V30 6115 H 602.189 2.36764 -4.98645 0
M  V30 6116 H 602.666 2.83376 -3.35552 0
M  V30 6117 H 603.272 1.31076 -4.04598 0
M  V30 6118 N 601.587 1.56661 0.17182 0
M  V30 6119 C 602.535 1.97289 1.23207 0
M  V30 6120 C 603.529 0.861566 1.45854 0
M  V30 6121 O 604.735 1.04668 1.4644 0
M  V30 6122 H 601.11 0.627681 0.41415 0
M  V30 6123 H 603.081 2.85662 0.862542 0
M  V30 6124 C 601.83 2.34849 2.564 0
M  V30 6125 H 601.153 3.19903 2.39797 0
M  V30 6126 H 602.593 2.67121 3.29276 0
M  V30 6127 C 601.052 1.19172 3.15119 0
M  V30 6128 O 601.582 0.479113 3.98833 0
M  V30 6129 N 599.788 0.962415 2.74201 0
M  V30 6130 H 599.335 1.54365 2.06226 0
M  V30 6131 H 599.293 0.190272 3.13824 0
M  V30 6132 N 603.065 -0.440357 1.51323 0
M  V30 6133 C 603.997 -1.55254 1.68609 0
M  V30 6134 C 605.01 -1.52614 0.566812 0
M  V30 6135 O 606.199 -1.57445 0.841032 0
M  V30 6136 C 603.299 -2.94169 1.68279 0
M  V30 6137 C 602.472 -3.21346 2.96742 0
M  V30 6138 C 601.531 -4.3997 2.8864 0
M  V30 6139 O 600.557 -4.38771 3.62586 0
M  V30 6140 N 601.759 -5.43367 2.04285 0
M  V30 6141 H 604.524 -1.40831 2.6455 0
M  V30 6142 H 602.085 -0.629251 1.49171 0
M  V30 6143 H 604.077 -3.71543 1.60431 0
M  V30 6144 H 602.647 -3.02205 0.799441 0
M  V30 6145 H 601.867 -2.32299 3.18482 0
M  V30 6146 H 603.155 -3.3633 3.81785 0
M  V30 6147 H 602.553 -5.47176 1.43578 0
M  V30 6148 H 601.11 -6.19605 2.02318 0
M  V30 6149 N 604.543 -1.41418 -0.695603 0
M  V30 6150 C 605.789 -1.40982 -1.4578 0
M  V30 6151 C 606.122 -0.0187763 -1.94191 0
M  V30 6152 O 605.397 0.95346 -1.69527 0
M  V30 6153 C 605.68 -2.41657 -2.66972 0
M  V30 6154 C 605.533 -3.89869 -2.24327 0
M  V30 6155 C 606.852 -2.39589 -3.69168 0
M  V30 6156 H 603.971 -0.513405 -0.528757 0
M  V30 6157 H 606.613 -1.72693 -0.792275 0
M  V30 6158 H 604.763 -2.14746 -3.23754 0
M  V30 6159 H 606.435 -4.27683 -1.72872 0
M  V30 6160 H 604.678 -4.04737 -1.56111 0
M  V30 6161 H 605.349 -4.55857 -3.11285 0
M  V30 6162 H 607.825 -2.63471 -3.2206 0
M  V30 6163 H 606.701 -3.12044 -4.51575 0
M  V30 6164 H 606.962 -1.41447 -4.18862 0
M  V30 6165 N 606.021 0.929856 -1.27246 0
M  V30 6166 C 607.27 1.67182 -1.12842 0
M  V30 6167 C 607.583 1.9287 0.325666 0
M  V30 6168 O 608.789 2.64999 0.590572 0
M  V30 6169 C 607.245 3.01097 -1.97151 0
M  V30 6170 C 606.853 2.83115 -3.47203 0
M  V30 6171 C 608.597 3.78907 -1.91389 0
M  V30 6172 C 606.504 4.12573 -4.23719 0
M  V30 6173 H 605.434 0.627064 -0.418697 0
M  V30 6174 H 608.085 1.0332 -1.51649 0
M  V30 6175 H 606.467 3.66004 -1.51186 0
M  V30 6176 H 607.641 2.26989 -4.01015 0
M  V30 6177 H 605.956 2.18736 -3.54321 0
M  V30 6178 H 608.553 4.74837 -2.45834 0
M  V30 6179 H 608.896 4.0674 -0.887047 0
M  V30 6180 H 609.429 3.20794 -2.35237 0
M  V30 6181 H 606.168 3.8992 -5.26918 0
M  V30 6182 H 605.688 4.68371 -3.74685 0
M  V30 6183 H 607.367 4.8095 -4.32777 0
M  V30 6184 N 607.499 1.09233 1.13605 0
M  V30 6185 C 608.429 0.751738 2.21068 0
M  V30 6186 C 609.41 -0.269688 1.67948 0
M  V30 6187 O 610.595 -0.13819 1.93708 0
M  V30 6188 C 607.725 0.16935 3.46887 0
M  V30 6189 C 606.679 1.12007 4.13084 0
M  V30 6190 C 606.005 0.399483 5.33206 0
M  V30 6191 C 607.305 2.46168 4.6065 0
M  V30 6192 H 608.999 1.65024 2.49815 0
M  V30 6193 H 606.545 0.794905 1.20072 0
M  V30 6194 H 608.498 -0.0809824 4.21322 0
M  V30 6195 H 607.222 -0.764335 3.1753 0
M  V30 6196 H 605.881 1.35564 3.40614 0
M  V30 6197 H 605.529 -0.538277 5.00112 0
M  V30 6198 H 605.229 1.03337 5.78442 0
M  V30 6199 H 606.753 0.157403 6.10397 0
M  V30 6200 H 608.167 2.26829 5.26518 0
M  V30 6201 H 606.564 3.05326 5.1662 0
M  V30 6202 H 607.634 3.07076 3.75276 0
M  V30 6203 N 608.977 -1.30795 0.87923 0
M  V30 6204 C 610.205 -2.00527 0.509548 0
M  V30 6205 C 610.62 -1.65944 -0.90045 0
M  V30 6206 O 609.977 -0.893525 -1.5913 0
M  V30 6207 C 610.028 -3.55276 0.667943 0
M  V30 6208 O 609.749 -3.88625 2.02242 0
M  V30 6209 C 611.25 -4.4228 0.300494 0
M  V30 6210 H 608.47 -0.641261 0.197549 0
M  V30 6211 H 611.014 -1.66813 1.18295 0
M  V30 6212 H 609.169 -3.87377 0.0419843 0
M  V30 6213 H 609.583 -4.83334 2.03688 0
M  V30 6214 H 611.057 -5.50061 0.462242 0
M  V30 6215 H 611.534 -4.32556 -0.76106 0
M  V30 6216 H 612.14 -4.15613 0.902536 0
M  V30 6217 N 610.455 -0.639598 -1.44038 0
M  V30 6218 C 611.418 0.0506628 -2.29144 0
M  V30 6219 C 612.418 0.764001 -1.41491 0
M  V30 6220 O 613.608 0.607309 -1.63271 0
M  V30 6221 C 610.74 1.0824 -3.2326 0
M  V30 6222 H 611.933 -0.697987 -2.91664 0
M  V30 6223 H 609.486 -0.400146 -1.51091 0
M  V30 6224 H 610.221 1.86075 -2.65606 0
M  V30 6225 H 610.006 0.574725 -3.87865 0
M  V30 6226 H 611.496 1.56487 -3.87171 0
M  V30 6227 N 611.933 1.52934 -0.380664 0
M  V30 6228 C 613.344 1.86457 0.0952684 0
M  V30 6229 C 613.695 1.3007 1.46889 0
M  V30 6230 O 612.82 0.628636 2.07068 0
M  V30 6231 C 613.415 3.38323 0.179648 0
M  V30 6232 C 611.974 3.71589 0.599858 0
M  V30 6233 C 611.121 2.76228 -0.243572 0
M  V30 6234 H 614.072 1.46966 -0.59888 0
M  V30 6235 H 614.093 3.67113 1.00042 0
M  V30 6236 H 613.605 3.79333 -0.820228 0
M  V30 6237 H 611.706 3.36144 1.60742 0
M  V30 6238 H 611.819 4.77715 0.364003 0
M  V30 6239 H 610.183 2.53045 0.289855 0
M  V30 6240 H 610.966 3.20074 -1.24127 0
M  V30 6241 N 613.412 0.11024 1.57214 0
M  V30 6242 C 614.36 -0.860586 2.16094 0
M  V30 6243 C 615.354 -1.28156 1.1078 0
M  V30 6244 O 616.56 -1.25433 1.29099 0
M  V30 6245 H 612.935 -0.295606 0.691463 0
M  V30 6246 H 614.906 -0.33942 2.96463 0
M  V30 6247 C 613.655 -2.10421 2.768 0
M  V30 6248 H 612.978 -1.7892 3.5753 0
M  V30 6249 H 614.418 -2.76375 3.21547 0
M  V30 6250 C 612.877 -2.88823 1.73444 0
M  V30 6251 O 613.407 -3.839 1.18251 0
M  V30 6252 N 611.613 -2.52649 1.43586 0
M  V30 6253 H 611.16 -1.754 1.8866 0
M  V30 6254 H 611.118 -3.05403 0.746735 0
M  V30 6255 N 614.89 -1.56749 -0.16351 0
M  V30 6256 C 616.306 -1.51043 -0.515567 0
M  V30 6257 C 616.506 -0.815855 -1.84245 0
M  V30 6258 O 615.562 -0.379477 -2.49632 0
M  V30 6259 C 616.875 -2.95791 -0.541114 0
M  V30 6260 C 618.423 -3.0664 -0.627776 0
M  V30 6261 C 618.898 -4.52861 -0.684141 0
M  V30 6262 N 620.389 -4.5714 -0.746818 0
M  V30 6263 C 621.124 -5.67634 -0.811137 0
M  V30 6264 N 620.62 -6.8774 -0.835811 0
M  V30 6265 N 622.413 -5.55624 -0.850756 0
M  V30 6266 H 614.564 -2.00307 0.70645 0
M  V30 6267 H 616.827 -0.912876 0.255659 0
M  V30 6268 H 616.533 -3.49797 0.365329 0
M  V30 6269 H 616.407 -3.50858 -1.38487 0
M  V30 6270 H 618.794 -2.52663 -1.52464 0
M  V30 6271 H 618.875 -2.54645 0.242805 0
M  V30 6272 H 618.519 -5.07472 0.2085 0
M  V30 6273 H 618.449 -5.02621 -1.57098 0
M  V30 6274 H 620.94 -3.70669 -0.735717 0
M  V30 6275 H 621.253 -7.67701 -0.886279 0
M  V30 6276 H 619.598 -6.90334 -0.803958 0
M  V30 6277 H 622.789 -4.60709 -0.828535 0
M  V30 6278 H 622.962 -6.41756 -0.897418 0
M  V30 6279 N 616.368 0.432326 -1.51554 0
M  V30 6280 C 617.593 1.20824 -1.68571 0
M  V30 6281 C 618.018 1.84126 -0.384596 0
M  V30 6282 O 617.376 1.69025 0.655751 0
M  V30 6283 C 617.424 2.26429 -2.80646 0
M  V30 6284 O 616.528 3.32032 -2.44598 0
M  V30 6285 H 615.869 0.353765 -0.561913 0
M  V30 6286 H 618.399 0.509916 -1.98144 0
M  V30 6287 H 618.409 2.71133 -3.04878 0
M  V30 6288 H 617.084 1.79733 -3.75058 0
M  V30 6289 H 615.661 2.92769 -2.30956 0
M  V30 6290 N 617.846 1.41785 0.688094 0
M  V30 6291 C 619.071 1.45117 1.48175 0
M  V30 6292 C 619.496 0.060129 1.88004 0
M  V30 6293 O 618.854 -0.938385 1.55126 0
M  V30 6294 C 618.902 2.37224 2.71583 0
M  V30 6295 O 618.006 1.83443 3.69354 0
M  V30 6296 H 617.347 0.492208 0.445676 0
M  V30 6297 H 619.877 1.86329 0.845145 0
M  V30 6298 H 619.887 2.53353 3.19806 0
M  V30 6299 H 618.562 3.38293 2.41931 0
M  V30 6300 H 617.139 1.76802 3.28322 0
M  V30 6301 N 619.324 -0.923095 1.27737 0
M  V30 6302 C 620.554 -1.70277 1.17001 0
M  V30 6303 C 620.962 -1.87188 -0.275199 0
M  V30 6304 O 620.305 -1.39195 -1.19877 0
M  V30 6305 C 620.367 -3.11976 1.78637 0
M  V30 6306 C 620.031 -3.18386 3.27841 0
M  V30 6307 C 621.028 -3.00287 4.2441 0
M  V30 6308 C 618.713 -3.41198 3.68632 0
M  V30 6309 C 620.707 -3.04896 5.59747 0
M  V30 6310 C 618.394 -3.4544 5.04097 0
M  V30 6311 C 619.392 -3.27309 5.99465 0
M  V30 6312 O 619.08 -3.31295 7.32461 0
M  V30 6313 H 618.812 -0.539366 0.407505 0
M  V30 6314 H 621.366 -1.16446 1.69202 0
M  V30 6315 H 619.596 -3.67308 1.20919 0
M  V30 6316 H 621.285 -3.7193 1.6255 0
M  V30 6317 H 622.051 -2.825 3.94232 0
M  V30 6318 H 617.93 -3.54359 2.94873 0
M  V30 6319 H 621.474 -2.90662 6.34162 0
M  V30 6320 H 617.371 -3.62753 5.33929 0
M  V30 6321 H 618.139 -3.47719 7.40968 0
M  V30 6322 N 620.802 -1.09834 -1.13024 0
M  V30 6323 C 622.218 -0.828875 -1.36388 0
M  V30 6324 C 622.418 0.554756 -1.93713 0
M  V30 6325 O 621.474 1.30882 -2.15931 0
M  V30 6326 C 622.787 -1.92352 -2.3113 0
M  V30 6327 C 624.335 -1.95124 -2.44735 0
M  V30 6328 C 624.81 -3.03745 -3.42787 0
M  V30 6329 N 626.301 -3.03012 -3.5034 0
M  V30 6330 C 627.036 -3.83699 -4.26101 0
M  V30 6331 N 626.532 -4.74306 -5.04981 0
M  V30 6332 N 628.325 -3.71942 -4.21445 0
M  V30 6333 H 620.476 -1.99029 -0.74169 0
M  V30 6334 H 622.739 -0.864557 -0.388903 0
M  V30 6335 H 622.445 -2.91906 -1.96172 0
M  V30 6336 H 622.319 -1.80536 -3.3119 0
M  V30 6337 H 624.706 -0.962069 -2.78977 0
M  V30 6338 H 624.787 -2.11018 -1.44586 0
M  V30 6339 H 624.431 -4.02878 -3.09276 0
M  V30 6340 H 624.361 -2.85094 -4.42752 0
M  V30 6341 H 626.852 -2.37352 -2.94062 0
M  V30 6342 H 627.165 -5.32446 -5.60108 0
M  V30 6343 H 625.51 -4.78339 -5.04199 0
M  V30 6344 H 628.701 -3.00513 -3.589 0
M  V30 6345 H 628.874 -4.35062 -4.80235 0
M  V30 6346 N 622.28 1.30327 -0.886154 0
M  V30 6347 C 623.51 1.99964 -0.519421 0
M  V30 6348 C 623.918 1.66593 0.89686 0
M  V30 6349 O 623.261 0.899886 1.60149 0
M  V30 6350 C 623.323 3.54187 -0.615795 0
M  V30 6351 C 622.987 4.11078 -1.9966 0
M  V30 6352 C 623.984 4.26985 -2.96614 0
M  V30 6353 C 621.669 4.46429 -2.30231 0
M  V30 6354 C 623.663 4.77456 -4.22273 0
M  V30 6355 C 621.35 4.966 -3.56135 0
M  V30 6356 C 622.348 5.12066 -4.5197 0
M  V30 6357 O 622.036 5.61154 -5.7564 0
M  V30 6358 H 621.768 0.645979 -0.199217 0
M  V30 6359 H 624.322 1.67154 -1.19368 0
M  V30 6360 H 622.552 3.86528 0.115448 0
M  V30 6361 H 624.241 4.05065 -0.26017 0
M  V30 6362 H 625.007 3.99975 -2.74308 0
M  V30 6363 H 620.886 4.33658 -1.56404 0
M  V30 6364 H 624.43 4.89444 -4.97082 0
M  V30 6365 H 620.327 5.23045 -3.78277 0
M  V30 6366 H 621.095 5.79494 -5.78039 0
M  V30 6367 N 623.758 0.647228 1.43697 0
M  V30 6368 C 625.035 0.0883758 1.954 0
M  V30 6369 C 625.415 -1.39006 1.58873 0
M  V30 6370 O 624.763 -2.11255 0.87083 0
M  V30 6371 C 624.973 0.328263 3.47453 0
M  V30 6372 C 626.321 0.230009 4.23977 0
M  V30 6373 O 627.345 0.260496 3.55246 0
M  V30 6374 O 626.204 0.148615 5.46298 0
M  V30 6375 H 623.298 -0.0130683 0.826897 0
M  V30 6376 H 625.844 0.72005 1.53666 0
M  V30 6377 H 624.616 1.3535 3.67146 0
M  V30 6378 H 624.239 -0.336772 3.96171 0
M  V30 6379 N 625.236 -1.5273 0.388769 0
M  V30 6380 C 626.461 -2.0647 -0.19621 0
M  V30 6381 C 626.886 -1.25865 -1.39784 0
M  V30 6382 O 626.244 -0.283562 -1.79069 0
M  V30 6383 C 626.292 -3.56456 -0.5451 0
M  V30 6384 O 625.396 -3.78426 -1.63912 0
M  V30 6385 H 624.737 -0.663599 -0.023067 0
M  V30 6386 H 627.267 -1.96898 0.556084 0
M  V30 6387 H 627.277 -3.99888 -0.809557 0
M  V30 6388 H 625.952 -4.14561 0.333417 0
M  V30 6389 H 624.529 -3.46884 -1.36842 0
M  V30 6390 N 626.714 -0.118576 -1.57153 0
M  V30 6391 C 627.644 0.828436 -2.1831 0
M  V30 6392 C 628.625 1.27758 -1.12303 0
M  V30 6393 O 629.81 1.34026 -1.40537 0
M  V30 6394 C 626.94 2.07876 -2.78217 0
M  V30 6395 C 625.894 1.76742 -3.89803 0
M  V30 6396 C 625.22 3.08801 -4.36516 0
M  V30 6397 C 626.52 1.03606 -5.11921 0
M  V30 6398 H 628.214 0.318824 -2.97698 0
M  V30 6399 H 625.76 0.151911 -1.43196 0
M  V30 6400 H 627.713 2.74584 -3.19659 0
M  V30 6401 H 626.437 2.61161 -1.96118 0
M  V30 6402 H 625.096 1.12424 -3.48936 0
M  V30 6403 H 624.744 3.6002 -3.51276 0
M  V30 6404 H 624.444 2.88743 -5.11763 0
M  V30 6405 H 625.968 3.76627 -4.80608 0
M  V30 6406 H 627.382 1.60467 -5.50385 0
M  V30 6407 H 625.779 0.936454 -5.92748 0
M  V30 6408 H 626.849 0.0227421 -4.84895 0
M  V30 6409 N 628.193 1.56834 0.155195 0
M  V30 6410 C 629.123 2.00678 1.19376 0
M  V30 6411 C 630.104 0.884973 1.45266 0
M  V30 6412 O 631.289 1.1522 1.56326 0
M  V30 6413 C 628.419 2.38042 2.5289 0
M  V30 6414 C 627.373 3.53332 2.41538 0
M  V30 6415 C 626.699 3.76485 3.79688 0
M  V30 6416 C 627.999 4.86265 1.9064 0
M  V30 6417 H 629.693 2.87688 0.829232 0
M  V30 6418 H 627.239 1.38407 0.397445 0
M  V30 6419 H 629.192 2.67314 3.25763 0
M  V30 6420 H 627.916 1.4796 2.91162 0
M  V30 6421 H 626.575 3.24213 1.71117 0
M  V30 6422 H 626.223 2.83667 4.15382 0
M  V30 6423 H 625.923 4.54068 3.72956 0
M  V30 6424 H 627.447 4.08174 4.54122 0
M  V30 6425 H 628.861 5.14308 2.53299 0
M  V30 6426 H 627.258 5.67597 1.94818 0
M  V30 6427 H 628.328 4.77184 0.861596 0
M  V30 6428 N 629.671 -0.424282 1.51781 0
M  V30 6429 C 630.601 -1.52305 1.7699 0
M  V30 6430 C 631.582 -1.5839 0.620209 0
M  V30 6431 O 632.767 -1.73908 0.864268 0
M  V30 6432 C 629.897 -2.90271 1.90683 0
M  V30 6433 C 628.851 -2.99043 3.06198 0
M  V30 6434 C 628.177 -4.39116 3.05092 0
M  V30 6435 C 629.477 -2.7192 4.45934 0
M  V30 6436 H 631.171 -1.31461 2.68995 0
M  V30 6437 H 628.717 -0.630985 1.29439 0
M  V30 6438 H 630.67 -3.6711 2.06901 0
M  V30 6439 H 629.394 -3.12376 0.953365 0
M  V30 6440 H 628.053 -2.24646 2.89706 0
M  V30 6441 H 627.701 -4.58207 2.07498 0
M  V30 6442 H 627.401 -4.45912 3.82669 0
M  V30 6443 H 628.925 -5.17911 3.2342 0
M  V30 6444 H 630.339 -3.38487 4.62709 0
M  V30 6445 H 628.736 -2.90111 5.25315 0
M  V30 6446 H 629.806 -1.67445 4.55072 0
M  V30 6447 N 631.149 -1.42148 -0.680565 0
M  V30 6448 C 632.397 -1.42029 -1.43779 0
M  V30 6449 C 632.718 -0.0356347 -1.94967 0
M  V30 6450 O 631.988 0.924936 -1.7269 0
M  V30 6451 H 630.568 -0.522835 -0.533529 0
M  V30 6452 H 633.23 -1.7752 -0.804538 0
M  V30 6453 H 632.326 -2.11658 -2.29363 0
M  V30 6454 N 632.627 0.916307 -1.28225 0
M  V30 6455 C 634.038 1.48024 -1.13779 0
M  V30 6456 C 634.389 1.94289 0.273139 0
M  V30 6457 O 633.514 1.82226 1.16716 0
M  V30 6458 C 634.109 2.69029 -2.05935 0
M  V30 6459 C 632.668 3.2161 -1.95561 0
M  V30 6460 C 631.815 1.94321 -1.97825 0
M  V30 6461 H 634.766 0.729272 -1.40951 0
M  V30 6462 H 634.787 3.44204 -1.62184 0
M  V30 6463 H 634.299 2.35325 -3.08616 0
M  V30 6464 H 632.4 3.60045 -0.959076 0
M  V30 6465 H 632.513 3.87032 -2.82388 0
M  V30 6466 H 630.877 2.1131 -1.42198 0
M  V30 6467 H 631.66 1.62917 -3.0218 0
M  V30 6468 N 634.105 1.10431 1.1244 0
M  V30 6469 C 635.052 0.753103 2.18167 0
M  V30 6470 C 636.022 -0.270549 1.63882 0
M  V30 6471 O 637.207 -0.149837 1.90211 0
M  V30 6472 C 634.347 0.191046 3.44571 0
M  V30 6473 C 633.46 1.26999 4.12911 0
M  V30 6474 C 632.595 0.669586 5.26963 0
M  V30 6475 C 631.634 1.72912 5.87169 0
M  V30 6476 N 630.771 1.14898 6.92635 0
M  V30 6477 H 635.611 1.65892 2.47556 0
M  V30 6478 H 633.148 0.828631 1.21541 0
M  V30 6479 H 635.106 -0.152712 4.1692 0
M  V30 6480 H 633.736 -0.677997 3.15599 0
M  V30 6481 H 632.788 1.73087 3.3874 0
M  V30 6482 H 634.1 2.07204 4.53727 0
M  V30 6483 H 633.254 0.275274 6.06075 0
M  V30 6484 H 631.993 -0.163895 4.87425 0
M  V30 6485 H 630.998 2.13286 5.06744 0
M  V30 6486 H 632.223 2.56544 6.28778 0
M  V30 6487 H 630.169 0.336956 6.55134 0
M  V30 6488 H 630.086 1.88786 7.32049 0
M  V30 6489 H 631.354 0.78121 7.75576 0
M  V30 6490 N 635.583 -1.29855 0.893053 0
M  V30 6491 C 636.531 -2.29867 0.355512 0
M  V30 6492 C 637.525 -1.60502 -0.541801 0
M  V30 6493 O 638.731 -1.74902 -0.425339 0
M  V30 6494 H 635.106 -0.745805 0.0963247 0
M  V30 6495 H 637.077 -2.72655 1.21252 0
M  V30 6496 C 635.826 -3.453 -0.407801 0
M  V30 6497 H 635.149 -3.98864 0.273426 0
M  V30 6498 H 636.589 -4.17334 -0.748887 0
M  V30 6499 C 635.048 -2.96051 -1.60795 0
M  V30 6500 O 635.578 -2.96763 -2.7073 0
M  V30 6501 N 633.784 -2.51963 -1.44786 0
M  V30 6502 H 633.331 -2.51583 -0.553498 0
M  V30 6503 H 633.289 -2.1937 -2.2522 0
M  V30 6504 N 637.061 -0.65484 -1.43351 0
M  V30 6505 C 638.308 -0.168892 -2.01794 0
M  V30 6506 C 638.636 1.2177 -1.51665 0
M  V30 6507 O 637.891 1.82717 -0.70092 0
M  V30 6508 C 638.19 -0.130424 -3.57162 0
M  V30 6509 C 637.856 -1.45898 -4.26643 0
M  V30 6510 C 636.518 -1.82279 -4.4534 0
M  V30 6511 C 638.87 -2.33485 -4.65976 0
M  V30 6512 C 636.198 -3.0591 -5.00635 0
M  V30 6513 C 638.55 -3.5641 -5.22642 0
M  V30 6514 C 637.214 -3.92985 -5.39555 0
M  V30 6515 H 636.484 -0.061802 -0.738418 0
M  V30 6516 H 639.131 -0.845869 -1.71806 0
M  V30 6517 H 637.436 0.630008 -3.86702 0
M  V30 6518 H 639.133 0.262465 -4.0014 0
M  V30 6519 H 635.723 -1.16591 -4.12437 0
M  V30 6520 H 639.907 -2.06668 -4.51223 0
M  V30 6521 H 635.163 -3.34295 -5.11915 0
M  V30 6522 H 639.337 -4.24495 -5.52066 0
M  V30 6523 H 636.964 -4.88862 -5.82167 0
M  V30 6524 N 638.539 1.52521 -0.396863 0
M  V30 6525 C 639.764 2.06571 0.185258 0
M  V30 6526 C 640.189 1.26605 1.39115 0
M  V30 6527 O 639.547 0.293055 1.78916 0
M  V30 6528 C 639.595 3.5674 0.526189 0
M  V30 6529 O 638.699 3.7929 1.61903 0
M  V30 6530 H 638.04 0.663712 0.0195474 0
M  V30 6531 H 640.57 1.966 -0.566519 0
M  V30 6532 H 640.58 4.00311 0.788338 0
M  V30 6533 H 639.255 4.14379 -0.355397 0
M  V30 6534 H 637.832 3.47605 1.35 0
M  V30 6535 N 640.017 0.126909 1.57088 0
M  V30 6536 C 641.265 -0.528123 1.95078 0
M  V30 6537 C 641.586 -1.66708 1.0116 0
M  V30 6538 O 640.856 -1.95777 0.0693527 0
M  V30 6539 H 639.436 -0.198087 0.720257 0
M  V30 6540 H 642.098 0.197703 1.93895 0
M  V30 6541 H 641.194 -0.917507 2.98309 0
M  V30 6542 N 641.495 -1.56914 -0.146875 0
M  V30 6543 C 642.744 -1.82546 -0.857898 0
M  V30 6544 C 643.057 -0.708169 -1.8233 0
M  V30 6545 O 644.263 -0.850093 -2.57848 0
M  V30 6546 C 642.719 -3.23548 -1.57623 0
M  V30 6547 C 642.327 -4.43212 -0.653224 0
M  V30 6548 C 644.071 -3.58453 -2.27402 0
M  V30 6549 C 641.978 -5.75237 -1.37318 0
M  V30 6550 H 640.908 -0.680786 -0.32411 0
M  V30 6551 H 643.559 -1.83166 -0.110639 0
M  V30 6552 H 641.941 -3.17315 -2.36912 0
M  V30 6553 H 643.115 -4.60682 0.104452 0
M  V30 6554 H 641.43 -4.16351 -0.0638336 0
M  V30 6555 H 644.027 -4.54349 -2.81907 0
M  V30 6556 H 644.37 -2.84516 -3.03901 0
M  V30 6557 H 644.903 -3.66347 -1.55032 0
M  V30 6558 H 641.642 -6.52269 -0.650041 0
M  V30 6559 H 641.162 -5.61703 -2.10357 0
M  V30 6560 H 642.841 -6.18039 -1.91406 0
M  V30 6561 N 642.974 0.416227 -1.52004 0
M  V30 6562 C 643.904 1.51365 -1.77795 0
M  V30 6563 C 644.885 1.58059 -0.628601 0
M  V30 6564 O 646.07 1.73447 -0.873478 0
M  V30 6565 C 643.2 2.89256 -1.92219 0
M  V30 6566 C 642.154 2.97415 -3.0778 0
M  V30 6567 C 641.48 4.37492 -3.07417 0
M  V30 6568 C 642.78 2.69551 -4.47369 0
M  V30 6569 H 644.474 1.30033 -2.69688 0
M  V30 6570 H 642.02 0.624112 -1.29772 0
M  V30 6571 H 643.973 3.66008 -2.08845 0
M  V30 6572 H 642.697 3.11866 -0.969917 0
M  V30 6573 H 641.356 2.23107 -2.90893 0
M  V30 6574 H 641.004 4.571 -2.09925 0
M  V30 6575 H 640.704 4.43877 -3.85029 0
M  V30 6576 H 642.228 5.16188 -3.26162 0
M  V30 6577 H 643.642 3.36028 -4.64497 0
M  V30 6578 H 642.039 2.87321 -5.26846 0
M  V30 6579 H 643.109 1.65029 -4.55953 0
M  V30 6580 N 644.452 1.42507 0.673017 0
M  V30 6581 C 645.729 1.33554 1.42908 0
M  V30 6582 C 646.109 -0.0262211 2.11084 0
M  V30 6583 O 645.457 -1.04181 2.03368 0
M  V30 6584 C 645.667 2.50498 2.43006 0
M  V30 6585 C 647.015 2.92694 3.07596 0
M  V30 6586 O 648.039 2.50401 2.53333 0
M  V30 6587 O 646.898 3.65899 4.05931 0
M  V30 6588 H 643.992 0.526785 0.637516 0
M  V30 6589 H 646.538 1.54518 0.701591 0
M  V30 6590 H 645.31 3.41272 1.9144 0
M  V30 6591 H 644.933 2.3153 3.23233 0
M  V30 6592 N 645.93 -0.909495 1.28709 0
M  V30 6593 C 646.86 -2.0291 1.15542 0
M  V30 6594 C 647.841 -1.7002 0.0521017 0
M  V30 6595 O 649.026 -1.92835 0.229849 0
M  V30 6596 C 646.156 -3.37458 0.820935 0
M  V30 6597 C 645.11 -3.84524 1.87949 0
M  V30 6598 C 644.436 -5.16086 1.39854 0
M  V30 6599 C 645.736 -4.05918 3.28676 0
M  V30 6600 H 647.43 -2.14183 2.09203 0
M  V30 6601 H 644.976 -1.02913 1.00722 0
M  V30 6602 H 646.929 -4.1528 0.715571 0
M  V30 6603 H 645.653 -3.26249 -0.151374 0
M  V30 6604 H 644.312 -3.08911 1.97408 0
M  V30 6605 H 643.96 -5.01284 0.41518 0
M  V30 6606 H 643.66 -5.48547 2.1064 0
M  V30 6607 H 645.184 -5.96459 1.30649 0
M  V30 6608 H 646.598 -4.74252 3.22115 0
M  V30 6609 H 644.995 -4.49717 3.97334 0
M  V30 6610 H 646.065 -3.10583 3.72379 0
M  V30 6611 N 647.408 -1.11026 -1.11852 0
M  V30 6612 C 648.685 -0.768347 -1.79877 0
M  V30 6613 C 649.065 0.744261 -1.97545 0
M  V30 6614 O 648.413 1.67271 -1.55669 0
M  V30 6615 C 648.623 -1.52648 -3.13846 0
M  V30 6616 C 649.971 -1.70297 -3.88953 0
M  V30 6617 O 650.995 -1.49037 -3.23522 0
M  V30 6618 O 649.854 -2.05593 -5.06353 0
M  V30 6619 H 646.948 -0.277891 -0.778913 0
M  V30 6620 H 649.494 -1.21343 -1.18633 0
M  V30 6621 H 648.266 -2.55564 -2.96315 0
M  V30 6622 H 647.889 -1.07466 -3.82801 0
M  V30 6623 N 648.886 1.2938 -0.899927 0
M  V30 6624 C 649.816 2.30144 -0.39446 0
M  V30 6625 C 650.797 1.61611 0.530639 0
M  V30 6626 O 651.982 1.89119 0.441319 0
M  V30 6627 C 649.112 3.45229 0.37868 0
M  V30 6628 C 648.066 4.25564 -0.456012 0
M  V30 6629 C 647.392 5.32848 0.444637 0
M  V30 6630 C 648.692 4.93651 -1.70605 0
M  V30 6631 H 650.386 2.72673 -1.23653 0
M  V30 6632 H 647.932 1.31086 -0.596034 0
M  V30 6633 H 649.885 4.14797 0.743037 0
M  V30 6634 H 648.609 3.01545 1.25453 0
M  V30 6635 H 647.268 3.57704 -0.802704 0
M  V30 6636 H 646.916 4.85408 1.31863 0
M  V30 6637 H 646.616 5.87497 -0.110154 0
M  V30 6638 H 648.14 6.05268 0.805182 0
M  V30 6639 H 649.554 5.55655 -1.41141 0
M  V30 6640 H 647.951 5.58233 -2.20217 0
M  V30 6641 H 649.021 4.18926 -2.4419 0
M  V30 6642 N 650.364 0.662433 1.43002 0
M  V30 6643 C 651.294 -0.00979809 2.33498 0
M  V30 6644 C 652.275 -0.802329 1.49989 0
M  V30 6645 O 653.46 -0.761964 1.78627 0
M  V30 6646 C 650.59 -0.970446 3.33466 0
M  V30 6647 C 649.544 -0.287383 4.27034 0
M  V30 6648 C 648.87 -1.36012 5.17112 0
M  V30 6649 C 650.17 0.82595 5.15728 0
M  V30 6650 H 651.864 0.745959 2.89958 0
M  V30 6651 H 649.41 0.360172 1.39423 0
M  V30 6652 H 651.363 -1.44971 3.95679 0
M  V30 6653 H 650.087 -1.75748 2.75282 0
M  V30 6654 H 648.746 0.17152 3.66199 0
M  V30 6655 H 648.394 -2.13882 4.55262 0
M  V30 6656 H 648.094 -0.908276 5.80538 0
M  V30 6657 H 649.618 -1.84056 5.82199 0
M  V30 6658 H 651.032 0.42845 5.71697 0
M  V30 6659 H 649.429 1.20282 5.87922 0
M  V30 6660 H 650.499 1.68003 4.54866 0
M  V30 6661 N 651.842 -1.52309 0.404946 0
M  V30 6662 C 652.772 -2.29805 -0.41376 0
M  V30 6663 C 653.753 -1.3384 -1.0498 0
M  V30 6664 O 654.938 -1.62745 -1.05961 0
M  V30 6665 C 652.068 -3.11639 -1.53292 0
M  V30 6666 C 651.022 -4.15616 -1.02211 0
M  V30 6667 C 650.348 -4.8577 -2.23455 0
M  V30 6668 C 651.648 -5.2224 -0.0790725 0
M  V30 6669 H 653.342 -2.98493 0.232878 0
M  V30 6670 H 650.888 -1.43552 0.113441 0
M  V30 6671 H 652.841 -3.64618 -2.11262 0
M  V30 6672 H 651.565 -2.40712 -2.20738 0
M  V30 6673 H 650.224 -3.63641 -0.46484 0
M  V30 6674 H 649.872 -4.11376 -2.89445 0
M  V30 6675 H 649.572 -5.56058 -1.89929 0
M  V30 6676 H 651.096 -5.4156 -2.82038 0
M  V30 6677 H 652.51 -5.70485 -0.567438 0
M  V30 6678 H 650.907 -5.99867 0.167167 0
M  V30 6679 H 651.977 -4.77078 0.867447 0
M  V30 6680 N 653.32 -0.135238 -1.57019 0
M  V30 6681 C 654.23 0.822226 -2.19719 0
M  V30 6682 C 655.246 1.28057 -1.17802 0
M  V30 6683 O 656.422 1.3402 -1.50335 0
M  V30 6684 C 653.487 2.0484 -2.79717 0
M  V30 6685 C 652.548 1.64042 -3.96723 0
M  V30 6686 C 651.781 2.80814 -4.53849 0
M  V30 6687 O 652.004 3.967 -4.0986 0
M  V30 6688 O 650.938 2.56963 -5.44292 0
M  V30 6689 H 654.764 0.318552 -3.02025 0
M  V30 6690 H 652.349 0.0912021 -1.49121 0
M  V30 6691 H 654.231 2.76622 -3.17897 0
M  V30 6692 H 652.906 2.54182 -2.00432 0
M  V30 6693 H 651.813 0.893182 -3.63281 0
M  V30 6694 H 653.146 1.19426 -4.77492 0
M  V30 6695 N 654.798 1.5699 0.138552 0
M  V30 6696 C 655.728 2.01933 1.17241 0
M  V30 6697 C 656.709 0.90033 1.44319 0
M  V30 6698 O 657.894 1.16872 1.55095 0
M  V30 6699 C 655.024 2.40711 2.50351 0
M  V30 6700 C 653.978 3.55874 2.37776 0
M  V30 6701 C 653.304 3.80491 3.75674 0
M  V30 6702 C 654.604 4.8826 1.85472 0
M  V30 6703 H 656.298 2.88551 0.798672 0
M  V30 6704 H 653.844 1.3882 0.382743 0
M  V30 6705 H 655.797 2.70754 3.22909 0
M  V30 6706 H 654.521 1.5104 2.89576 0
M  V30 6707 H 653.18 3.2601 1.67669 0
M  V30 6708 H 652.828 2.88057 4.12349 0
M  V30 6709 H 652.528 4.57998 3.68119 0
M  V30 6710 H 654.052 4.12967 4.49767 0
M  V30 6711 H 655.466 5.16965 2.4783 0
M  V30 6712 H 653.863 5.69631 1.88787 0
M  V30 6713 H 654.933 4.78071 0.810935 0
M  V30 6714 N 656.276 -0.40816 1.52223 0
M  V30 6715 C 657.206 -1.5042 1.78595 0
M  V30 6716 C 658.187 -1.57723 0.636974 0
M  V30 6717 O 659.372 -1.72982 0.882664 0
M  V30 6718 C 656.502 -2.88232 1.93751 0
M  V30 6719 C 655.456 -2.95779 3.09352 0
M  V30 6720 C 654.782 -4.35855 3.09732 0
M  V30 6721 C 656.082 -2.67175 4.48793 0
M  V30 6722 H 657.776 -1.28601 2.70374 0
M  V30 6723 H 655.322 -0.617221 1.30101 0
M  V30 6724 H 657.275 -3.64895 2.10783 0
M  V30 6725 H 655.999 -3.11347 0.986443 0
M  V30 6726 H 654.658 -2.21561 2.92072 0
M  V30 6727 H 654.306 -4.55981 2.12346 0
M  V30 6728 H 654.006 -4.41829 3.87377 0
M  V30 6729 H 655.53 -5.14451 3.28895 0
M  V30 6730 H 656.944 -3.3356 4.66273 0
M  V30 6731 H 655.341 -2.84523 5.28362 0
M  V30 6732 H 656.411 -1.62609 4.56822 0
M  V30 6733 N 657.755 -1.42862 -0.66545 0
M  V30 6734 C 658.665 -1.49491 -1.80803 0
M  V30 6735 C 659.681 -0.382914 -1.69734 0
M  V30 6736 O 660.857 -0.635223 -1.9112 0
M  V30 6737 C 657.922 -1.40383 -3.17007 0
M  V30 6738 C 656.983 -2.62152 -3.39963 0
M  V30 6739 C 656.216 -2.53469 -4.69669 0
M  V30 6740 O 656.439 -1.57568 -5.48205 0
M  V30 6741 O 655.373 -3.43763 -4.94075 0
M  V30 6742 H 659.199 -2.45949 -1.78165 0
M  V30 6743 H 656.784 -1.24728 -0.822387 0
M  V30 6744 H 658.666 -1.377 -3.98267 0
M  V30 6745 H 657.341 -0.470546 -3.20262 0
M  V30 6746 H 656.248 -2.70409 -2.58515 0
M  V30 6747 H 657.581 -3.54411 -3.41546 0
M  V30 6748 N 659.233 0.902656 -1.29189 0
M  V30 6749 C 660.163 2.02294 -1.16616 0
M  V30 6750 C 661.144 1.6999 -0.0611175 0
M  V30 6751 O 662.329 1.9271 -0.240072 0
M  V30 6752 C 659.459 3.37018 -0.83882 0
M  V30 6753 C 658.413 3.83522 -1.89986 0
M  V30 6754 C 657.739 5.15337 -1.42589 0
M  V30 6755 C 659.039 4.04169 -3.30824 0
M  V30 6756 H 660.733 2.13071 -2.10336 0
M  V30 6757 H 658.279 1.02378 -1.01266 0
M  V30 6758 H 660.232 4.14895 -0.737584 0
M  V30 6759 H 658.956 3.26325 0.134071 0
M  V30 6760 H 657.615 3.07859 -1.99043 0
M  V30 6761 H 657.263 5.01056 -0.441759 0
M  V30 6762 H 656.963 5.47423 -2.13547 0
M  V30 6763 H 658.487 5.95758 -1.3381 0
M  V30 6764 H 659.901 4.72537 -3.24626 0
M  V30 6765 H 658.298 4.47604 -3.99713 0
M  V30 6766 H 659.368 3.08604 -3.74021 0
M  V30 6767 N 660.711 1.11618 1.11262 0
M  V30 6768 C 661.643 0.734015 2.17129 0
M  V30 6769 C 662.656 -0.235243 1.61091 0
M  V30 6770 O 663.845 -0.0178597 1.78491 0
M  V30 6771 C 660.945 0.0643682 3.38839 0
M  V30 6772 C 660.118 1.06092 4.24339 0
M  V30 6773 C 659.177 0.420482 5.24517 0
M  V30 6774 O 658.203 1.07495 5.58957 0
M  V30 6775 N 659.405 -0.815828 5.74739 0
M  V30 6776 H 662.17 1.64492 2.50524 0
M  V30 6777 H 659.731 1.00664 1.26801 0
M  V30 6778 H 661.723 -0.375851 4.02951 0
M  V30 6779 H 660.293 -0.749147 3.03491 0
M  V30 6780 H 659.513 1.67903 3.56654 0
M  V30 6781 H 660.801 1.73507 4.78302 0
M  V30 6782 H 660.199 -1.36668 5.48943 0
M  V30 6783 H 658.756 -1.199 6.40677 0
M  V30 6784 N 662.189 -1.289 0.906776 0
M  V30 6785 C 663.099 -2.31256 0.394707 0
M  V30 6786 C 664.115 -1.66231 -0.514121 0
M  V30 6787 O 665.291 -1.97347 -0.401994 0
M  V30 6788 C 662.356 -3.44792 -0.363191 0
M  V30 6789 C 661.417 -4.25391 0.578012 0
M  V30 6790 C 660.65 -5.33506 -0.143811 0
M  V30 6791 O 660.873 -5.53786 -1.36665 0
M  V30 6792 O 659.807 -5.99673 0.5173 0
M  V30 6793 H 663.633 -2.77051 1.24405 0
M  V30 6794 H 661.218 -1.33466 0.671346 0
M  V30 6795 H 663.1 -4.139 -0.791503 0
M  V30 6796 H 661.775 -3.01093 -1.18848 0
M  V30 6797 H 660.682 -3.58899 1.05558 0
M  V30 6798 H 662.015 -4.72752 1.36992 0
M  V30 6799 N 663.667 -0.670007 -1.42649 0
M  V30 6800 C 665.083 -0.33911 -1.55956 0
M  V30 6801 C 665.283 1.1558 -1.65056 0
M  V30 6802 O 664.339 1.94111 -1.61485 0
M  V30 6803 C 665.652 -1.06522 -2.812 0
M  V30 6804 C 667.2 -1.04708 -2.94966 0
M  V30 6805 C 667.675 -1.75442 -4.23065 0
M  V30 6806 N 669.166 -1.72286 -4.29967 0
M  V30 6807 C 669.901 -2.23877 -5.27889 0
M  V30 6808 N 669.397 -2.83829 -6.31991 0
M  V30 6809 N 671.19 -2.14279 -5.19654 0
M  V30 6810 H 663.341 -1.6399 -1.34986 0
M  V30 6811 H 665.604 -0.690603 -0.649439 0
M  V30 6812 H 665.31 -2.12033 -2.80597 0
M  V30 6813 H 665.184 -0.627398 -3.71946 0
M  V30 6814 H 667.571 -0.000315966 -2.951 0
M  V30 6815 H 667.652 -1.52374 -2.05465 0
M  V30 6816 H 667.296 -2.80084 -4.23693 0
M  V30 6817 H 667.226 -1.25229 -5.11493 0
M  V30 6818 H 669.717 -1.28554 -3.55362 0
M  V30 6819 H 670.03 -3.20827 -7.03057 0
M  V30 6820 H 668.375 -2.87896 -6.32567 0
M  V30 6821 H 671.566 -1.67135 -4.37245 0
M  V30 6822 H 671.739 -2.54792 -5.95806 0
M  V30 6823 N 665.145 1.52092 -0.413018 0
M  V30 6824 C 666.075 2.30021 0.401567 0
M  V30 6825 C 667.056 1.34395 1.04269 0
M  V30 6826 O 668.241 1.63304 1.05097 0
M  V30 6827 C 665.371 3.12447 1.51638 0
M  V30 6828 C 664.325 4.16153 1.00005 0
M  V30 6829 C 663.651 4.86948 2.20875 0
M  V30 6830 C 664.951 5.22275 0.0513757 0
M  V30 6831 H 666.645 2.98365 -0.248704 0
M  V30 6832 H 664.191 1.4349 -0.121052 0
M  V30 6833 H 666.144 3.65733 2.09326 0
M  V30 6834 H 664.868 2.41879 2.19458 0
M  V30 6835 H 663.527 3.63882 0.445549 0
M  V30 6836 H 663.175 4.12905 2.8726 0
M  V30 6837 H 662.875 5.57057 1.86978 0
M  V30 6838 H 664.399 5.43048 2.79162 0
M  V30 6839 H 665.813 5.70778 0.537176 0
M  V30 6840 H 664.21 5.9977 -0.198977 0
M  V30 6841 H 665.28 4.76611 -0.892736 0
M  V30 6842 N 666.623 0.143563 1.56945 0
M  V30 6843 C 668.039 -0.212877 1.58174 0
M  V30 6844 C 668.239 -1.64926 1.15766 0
M  V30 6845 O 667.295 -2.37535 0.856361 0
M  V30 6846 C 668.608 0.0427573 3.0067 0
M  V30 6847 C 670.156 -0.0212221 3.12993 0
M  V30 6848 C 670.631 0.207036 4.57532 0
M  V30 6849 N 672.122 0.153845 4.62944 0
M  V30 6850 C 672.857 0.305018 5.72588 0
M  V30 6851 N 672.353 0.513722 6.90893 0
M  V30 6852 N 674.146 0.242862 5.61575 0
M  V30 6853 H 666.297 1.08148 1.82805 0
M  V30 6854 H 668.56 0.427831 0.84597 0
M  V30 6855 H 668.266 1.03672 3.36073 0
M  V30 6856 H 668.14 -0.678195 3.71053 0
M  V30 6857 H 670.527 -1.00574 2.77433 0
M  V30 6858 H 670.608 0.732004 2.45103 0
M  V30 6859 H 670.252 1.18863 4.93795 0
M  V30 6860 H 670.182 -0.566473 5.23544 0
M  V30 6861 H 672.673 -0.00294866 3.779 0
M  V30 6862 H 672.986 0.619273 7.70315 0
M  V30 6863 H 671.331 0.550001 6.9282 0
M  V30 6864 H 674.522 0.0806015 4.68031 0
M  V30 6865 H 674.695 0.364112 6.46976 0
M  V30 6866 N 668.101 -1.57061 -0.130224 0
M  V30 6867 C 669.051 -1.95941 -1.16582 0
M  V30 6868 C 670.035 -0.832858 -1.37667 0
M  V30 6869 O 671.227 -1.09647 -1.38948 0
M  V30 6870 C 668.356 -2.35777 -2.49528 0
M  V30 6871 C 667.442 -3.5504 -2.31964 0
M  V30 6872 N 667.833 -4.71071 -1.84189 0
M  V30 6873 C 666.131 -3.60453 -2.62659 0
M  V30 6874 C 666.832 -5.53128 -1.80068 0
M  V30 6875 N 665.808 -4.95303 -2.24001 0
M  V30 6876 H 669.61 -2.83117 -0.788806 0
M  V30 6877 H 667.124 -1.58842 -0.3381 0
M  V30 6878 H 669.121 -2.61843 -3.24413 0
M  V30 6879 H 667.781 -1.49961 -2.87996 0
M  V30 6880 H 668.792 -4.94504 -1.53903 0
M  V30 6881 H 665.469 -2.85217 -3.0489 0
M  V30 6882 H 666.859 -6.56182 -1.4448 0
M  V30 6883 N 669.579 0.400081 -1.52437 0
M  V30 6884 C 670.509 1.4947 -1.7939 0
M  V30 6885 C 671.49 1.57383 -0.645329 0
M  V30 6886 O 672.675 1.72511 -0.891826 0
M  V30 6887 C 669.805 2.87201 -1.95276 0
M  V30 6888 C 668.759 2.94134 -3.10917 0
M  V30 6889 C 668.085 4.34207 -3.1204 0
M  V30 6890 C 669.385 2.64791 -4.50203 0
M  V30 6891 H 671.079 1.27165 -2.71052 0
M  V30 6892 H 668.625 0.610312 -1.30427 0
M  V30 6893 H 670.578 3.63772 -2.12715 0
M  V30 6894 H 669.302 3.10819 -1.00294 0
M  V30 6895 H 667.961 2.20009 -2.93243 0
M  V30 6896 H 667.609 4.54848 -2.14761 0
M  V30 6897 H 667.309 4.39768 -3.89715 0
M  V30 6898 H 668.833 5.127 -3.31619 0
M  V30 6899 H 670.247 3.31083 -4.68035 0
M  V30 6900 H 668.644 2.81717 -5.29864 0
M  V30 6901 H 669.714 1.60184 -4.57678 0
M  V30 6902 N 671.057 1.43213 0.657864 0
M  V30 6903 C 671.989 1.43974 1.78337 0
M  V30 6904 C 673.002 0.336482 1.59285 0
M  V30 6905 O 674.191 0.600631 1.68091 0
M  V30 6906 C 671.291 1.23242 3.15697 0
M  V30 6907 C 670.464 2.46319 3.61449 0
M  V30 6908 C 669.523 2.2088 4.77597 0
M  V30 6909 O 668.549 2.942 4.87273 0
M  V30 6910 N 669.751 1.22251 5.67481 0
M  V30 6911 H 672.516 2.40993 1.78164 0
M  V30 6912 H 670.077 1.3831 0.841549 0
M  V30 6913 H 672.069 1.04113 3.91079 0
M  V30 6914 H 670.639 0.346849 3.1067 0
M  V30 6915 H 669.859 2.80904 2.76563 0
M  V30 6916 H 671.147 3.28239 3.88763 0
M  V30 6917 H 670.545 0.616433 5.62331 0
M  V30 6918 H 669.102 1.09107 6.42603 0
M  V30 6919 N 672.536 -0.895792 1.29666 0
M  V30 6920 C 673.782 -1.64908 1.18039 0
M  V30 6921 C 674.115 -1.9236 -0.266682 0
M  V30 6922 O 673.39 -1.53682 -1.19214 0
M  V30 6923 C 673.673 -2.99574 1.99819 0
M  V30 6924 C 673.526 -2.79163 3.52687 0
M  V30 6925 C 674.845 -4.00358 1.82761 0
M  V30 6926 H 671.964 -0.598437 0.430165 0
M  V30 6927 H 674.606 -1.03736 1.59182 0
M  V30 6928 H 672.756 -3.51786 1.64859 0
M  V30 6929 H 674.428 -2.33821 3.9765 0
M  V30 6930 H 672.671 -2.13871 3.77414 0
M  V30 6931 H 673.342 -3.74871 4.05186 0
M  V30 6932 H 675.818 -3.57268 2.13304 0
M  V30 6933 H 674.694 -4.92514 2.42325 0
M  V30 6934 H 674.955 -4.35096 0.783839 0
M  V30 6935 N 674.014 -1.12206 -1.10668 0
M  V30 6936 C 675.26 -0.887096 -1.83036 0
M  V30 6937 C 675.615 0.580887 -1.83422 0
M  V30 6938 O 674.908 1.42379 -1.28213 0
M  V30 6939 C 675.102 -1.39276 -3.29146 0
M  V30 6940 C 674.931 -2.90837 -3.42992 0
M  V30 6941 C 673.701 -3.59047 -3.55546 0
M  V30 6942 C 675.899 -3.8885 -3.36601 0
M  V30 6943 N 673.881 -4.98747 -3.57945 0
M  V30 6944 C 675.252 -5.14666 -3.45716 0
M  V30 6945 C 677.307 -3.81296 -3.20184 0
M  V30 6946 C 676.01 -6.33814 -3.40106 0
M  V30 6947 C 678.036 -4.99965 -3.15895 0
M  V30 6948 C 677.398 -6.24637 -3.25589 0
M  V30 6949 H 673.497 -0.377857 -0.684652 0
M  V30 6950 H 676.081 -1.42791 -1.32358 0
M  V30 6951 H 674.252 -0.879026 -3.78322 0
M  V30 6952 H 675.984 -1.10011 -3.89461 0
M  V30 6953 H 672.739 -3.09533 -3.5845 0
M  V30 6954 H 673.163 -5.71606 -3.62762 0
M  V30 6955 H 677.805 -2.85806 -3.11569 0
M  V30 6956 H 675.523 -7.29574 -3.47487 0
M  V30 6957 H 679.109 -4.95847 -3.04347 0
M  V30 6958 H 677.989 -7.14921 -3.22269 0
M  V30 6959 N 675.492 1.28418 -0.913599 0
M  V30 6960 C 676.717 1.99643 -0.561899 0
M  V30 6961 C 677.142 1.67819 0.849608 0
M  V30 6962 O 676.5 0.910503 1.56779 0
M  V30 6963 C 676.548 3.52116 -0.777622 0
M  V30 6964 O 675.652 4.12076 0.163457 0
M  V30 6965 H 674.993 0.627229 -0.217898 0
M  V30 6966 H 677.523 1.63575 -1.229 0
M  V30 6967 H 677.533 4.02163 -0.687666 0
M  V30 6968 H 676.208 3.74613 -1.8066 0
M  V30 6969 H 674.785 3.72892 0.0247827 0
M  V30 6970 N 676.97 0.677563 1.42291 0
M  V30 6971 C 678.381 0.277912 1.8462 0
M  V30 6972 C 678.732 -1.18048 1.56714 0
M  V30 6973 O 677.857 -1.90404 1.02836 0
M  V30 6974 C 678.452 0.497619 3.35126 0
M  V30 6975 C 677.011 0.152063 3.76093 0
M  V30 6976 C 676.158 0.78872 2.65847 0
M  V30 6977 H 679.109 0.879527 1.32098 0
M  V30 6978 H 679.13 -0.24939 3.79682 0
M  V30 6979 H 678.642 1.55913 3.55405 0
M  V30 6980 H 676.743 -0.905896 3.6142 0
M  V30 6981 H 676.856 0.594514 4.75397 0
M  V30 6982 H 675.22 0.219813 2.5375 0
M  V30 6983 H 676.003 1.85374 2.88949 0
M  V30 6984 N 678.448 -1.51871 0.421078 0
M  V30 6985 C 679.358 -2.31077 -0.405069 0
M  V30 6986 C 680.374 -1.39301 -1.04265 0
M  V30 6987 O 681.55 -1.72376 -1.04157 0
M  V30 6988 C 678.615 -3.12556 -1.50032 0
M  V30 6989 C 677.676 -4.20088 -0.884559 0
M  V30 6990 C 676.909 -4.97673 -1.92762 0
M  V30 6991 O 677.132 -4.75696 -3.14753 0
M  V30 6992 O 676.066 -5.82203 -1.52719 0
M  V30 6993 H 679.892 -3.02742 0.241086 0
M  V30 6994 H 677.477 -1.48263 0.183991 0
M  V30 6995 H 679.359 -3.6326 -2.13589 0
M  V30 6996 H 678.034 -2.43672 -2.13086 0
M  V30 6997 H 676.941 -3.73502 -0.211379 0
M  V30 6998 H 678.274 -4.91298 -0.297763 0
M  V30 6999 N 679.926 -0.151884 -1.56866 0
M  V30 7000 C 680.889 0.771861 -2.15812 0
M  V30 7001 C 681.889 1.17181 -1.10115 0
M  V30 7002 O 683.079 1.09194 -1.35729 0
M  V30 7003 C 680.211 2.04806 -2.7252 0
M  V30 7004 H 681.404 0.259021 -2.98779 0
M  V30 7005 H 678.957 0.097588 -1.55995 0
M  V30 7006 H 679.692 2.60445 -1.93233 0
M  V30 7007 H 679.477 1.77044 -3.49854 0
M  V30 7008 H 680.967 2.70771 -3.1792 0
M  V30 7009 N 681.404 1.57128 0.121893 0
M  V30 7010 C 682.336 1.96773 1.17529 0
M  V30 7011 C 683.349 0.866668 1.37814 0
M  V30 7012 O 684.538 1.14497 1.3694 0
M  V30 7013 C 681.638 2.24832 2.53582 0
M  V30 7014 C 680.811 3.56138 2.53939 0
M  V30 7015 C 679.87 3.72443 3.71716 0
M  V30 7016 O 678.896 4.44584 3.55434 0
M  V30 7017 N 680.098 3.10993 4.90167 0
M  V30 7018 H 682.863 2.87743 0.838086 0
M  V30 7019 H 680.424 1.58881 0.311199 0
M  V30 7020 H 682.416 2.32958 3.30927 0
M  V30 7021 H 680.986 1.40002 2.79496 0
M  V30 7022 H 680.206 3.59226 1.62329 0
M  V30 7023 H 681.494 4.42448 2.51231 0
M  V30 7024 H 680.892 2.52345 5.06299 0
M  V30 7025 H 679.449 3.24644 5.65198 0
M  V30 7026 N 682.882 -0.391992 1.52647 0
M  V30 7027 C 684.298 -0.731848 1.41831 0
M  V30 7028 C 684.498 -1.9423 0.536361 0
M  V30 7029 O 683.554 -2.52499 0.00866571 0
M  V30 7030 C 684.867 -0.969743 2.84634 0
M  V30 7031 C 686.415 -1.0714 2.94092 0
M  V30 7032 C 686.89 -1.34195 4.37899 0
M  V30 7033 N 688.381 -1.41023 4.41211 0
M  V30 7034 C 689.116 -1.63616 5.49561 0
M  V30 7035 N 688.612 -1.83699 6.68002 0
M  V30 7036 N 690.405 -1.65771 5.371 0
M  V30 7037 H 682.556 0.404547 2.08512 0
M  V30 7038 H 684.819 0.11879 0.940528 0
M  V30 7039 H 684.525 -0.152465 3.51369 0
M  V30 7040 H 684.399 -1.88523 3.26709 0
M  V30 7041 H 686.786 -1.87925 2.27526 0
M  V30 7042 H 686.867 -0.133887 2.55449 0
M  V30 7043 H 686.511 -0.539207 5.0503 0
M  V30 7044 H 686.441 -2.29226 4.74092 0
M  V30 7045 H 688.932 -1.27223 3.55841 0
M  V30 7046 H 689.245 -2.00437 7.46354 0
M  V30 7047 H 687.59 -1.8093 6.71036 0
M  V30 7048 H 690.781 -1.4963 4.43541 0
M  V30 7049 H 690.954 -1.83038 6.21612 0
M  V30 7050 N 684.36 -1.4356 -0.65026 0
M  V30 7051 C 685.308 -1.49219 -1.78427 0
M  V30 7052 C 686.302 -0.365528 -1.65409 0
M  V30 7053 O 687.508 -0.539649 -1.7172 0
M  V30 7054 H 683.883 -0.467858 -0.588738 0
M  V30 7055 H 685.854 -2.44701 -1.70774 0
M  V30 7056 C 684.603 -1.43519 -3.16698 0
M  V30 7057 H 683.926 -2.2952 -3.27354 0
M  V30 7058 H 685.366 -1.5154 -3.95995 0
M  V30 7059 C 683.825 -0.153197 -3.36552 0
M  V30 7060 O 684.355 0.784317 -3.93969 0
M  V30 7061 N 682.561 -0.0624402 -2.90533 0
M  V30 7062 H 682.108 -0.826172 -2.43992 0
M  V30 7063 H 682.066 0.794616 -3.04193 0
M  V30 7064 N 685.838 0.888903 -1.30139 0
M  V30 7065 C 687.087 1.63507 -1.18103 0
M  V30 7066 C 687.4 1.93808 0.264141 0
M  V30 7067 O 688.606 2.66744 0.505966 0
M  V30 7068 C 687.062 2.94673 -2.0663 0
M  V30 7069 C 686.67 2.71926 -3.56034 0
M  V30 7070 C 688.414 3.72626 -2.03346 0
M  V30 7071 C 686.321 3.98884 -4.3663 0
M  V30 7072 H 685.251 0.613426 -0.438435 0
M  V30 7073 H 687.902 0.984427 -1.54859 0
M  V30 7074 H 686.284 3.61009 -1.62754 0
M  V30 7075 H 687.458 2.14116 -4.08033 0
M  V30 7076 H 685.773 2.07353 -3.61101 0
M  V30 7077 H 688.37 4.66775 -2.60816 0
M  V30 7078 H 688.713 4.03712 -1.016 0
M  V30 7079 H 689.246 3.13147 -2.45324 0
M  V30 7080 H 685.985 3.72959 -5.39056 0
M  V30 7081 H 685.505 4.56214 -3.89396 0
M  V30 7082 H 687.184 4.66938 -4.47859 0
M  V30 7083 N 687.317 1.12792 1.10072 0
M  V30 7084 C 688.542 0.908838 1.86427 0
M  V30 7085 C 688.967 -0.536793 1.80278 0
M  V30 7086 O 688.325 -1.38033 1.17543 0
M  V30 7087 C 688.373 1.39295 3.3261 0
M  V30 7088 O 687.477 0.573846 4.08388 0
M  V30 7089 H 686.818 0.326234 0.578331 0
M  V30 7090 H 689.348 1.50094 1.39043 0
M  V30 7091 H 689.358 1.39366 3.83459 0
M  V30 7092 H 688.033 2.44555 3.36401 0
M  V30 7093 H 686.61 0.640438 3.67359 0
M  V30 7094 N 688.795 -1.27931 0.920396 0
M  V30 7095 C 689.725 -2.29487 0.431024 0
M  V30 7096 C 690.706 -1.62435 -0.504861 0
M  V30 7097 O 691.891 -1.89797 -0.411176 0
M  V30 7098 C 689.021 -3.45788 -0.323709 0
M  V30 7099 C 687.975 -4.24784 0.523658 0
M  V30 7100 C 687.301 -5.33488 -0.359809 0
M  V30 7101 C 688.601 -4.90874 1.78437 0
M  V30 7102 H 690.295 -2.70671 1.27975 0
M  V30 7103 H 687.841 -1.30121 0.616813 0
M  V30 7104 H 689.794 -4.15927 -0.676952 0
M  V30 7105 H 688.518 -3.03502 -1.2064 0
M  V30 7106 H 687.177 -3.56382 0.85951 0
M  V30 7107 H 686.825 -4.87445 -1.24124 0
M  V30 7108 H 686.525 -5.87247 0.203605 0
M  V30 7109 H 688.049 -6.06472 -0.708787 0
M  V30 7110 H 689.463 -5.53339 1.49963 0
M  V30 7111 H 687.86 -5.54659 2.29071 0
M  V30 7112 H 688.93 -4.14988 2.50824 0
M  V30 7113 N 690.273 -0.685099 -1.4193 0
M  V30 7114 C 691.205 0.0258679 -2.29185 0
M  V30 7115 C 692.218 0.755076 -1.44231 0
M  V30 7116 O 693.407 0.60752 -1.67844 0
M  V30 7117 C 690.507 1.06055 -3.21878 0
M  V30 7118 C 689.68 0.403088 -4.35539 0
M  V30 7119 C 688.739 1.33895 -5.0888 0
M  V30 7120 O 687.765 0.835326 -5.63037 0
M  V30 7121 N 688.967 2.6718 -5.15359 0
M  V30 7122 H 691.732 -0.723201 -2.90843 0
M  V30 7123 H 689.293 -0.53031 -1.52968 0
M  V30 7124 H 691.285 1.68813 -3.6781 0
M  V30 7125 H 689.855 1.71126 -2.616 0
M  V30 7126 H 689.075 -0.404185 -3.92122 0
M  V30 7127 H 690.363 -0.0545098 -5.08771 0
M  V30 7128 H 689.761 3.10626 -4.72788 0
M  V30 7129 H 688.318 3.25159 -5.64903 0
M  V30 7130 N 691.751 1.51645 -0.429126 0
M  V30 7131 C 693.028 1.94579 0.199614 0
M  V30 7132 C 693.408 1.3673 1.60836 0
M  V30 7133 O 692.756 0.551062 2.21756 0
M  V30 7134 C 692.966 3.48506 0.185685 0
M  V30 7135 C 694.314 4.22756 0.395282 0
M  V30 7136 O 695.338 3.55219 0.264165 0
M  V30 7137 O 694.197 5.42555 0.655475 0
M  V30 7138 H 691.291 0.816007 0.134393 0
M  V30 7139 H 693.837 1.62577 -0.486513 0
M  V30 7140 H 692.609 3.83045 -0.799508 0
M  V30 7141 H 692.232 3.86927 0.91507 0
M  V30 7142 N 693.229 0.160201 1.56784 0
M  V30 7143 C 694.478 -0.487619 1.95717 0
M  V30 7144 C 694.791 -1.65136 1.0483 0
M  V30 7145 O 695.997 -2.36468 1.33398 0
M  V30 7146 C 694.453 -0.91888 3.47972 0
M  V30 7147 C 694.061 0.218655 4.47466 0
M  V30 7148 C 695.805 -1.53575 3.95746 0
M  V30 7149 C 693.712 -0.231614 5.90946 0
M  V30 7150 H 692.642 -0.185939 0.730714 0
M  V30 7151 H 695.293 0.246657 1.81835 0
M  V30 7152 H 693.675 -1.70881 3.57234 0
M  V30 7153 H 694.849 0.995825 4.49911 0
M  V30 7154 H 693.164 0.744767 4.09685 0
M  V30 7155 H 695.761 -1.88448 5.00391 0
M  V30 7156 H 696.104 -2.42959 3.38048 0
M  V30 7157 H 696.637 -0.810467 3.89456 0
M  V30 7158 H 693.376 0.62718 6.52493 0
M  V30 7159 H 692.896 -0.974379 5.91833 0
M  V30 7160 H 694.575 -0.67922 6.43425 0
M  V30 7161 N 694.707 -1.5719 -0.113559 0
M  V30 7162 C 695.947 -1.86958 -0.82621 0
M  V30 7163 C 696.311 -0.748884 -1.76793 0
M  V30 7164 O 697.512 -0.92847 -2.52256 0
M  V30 7165 C 695.783 -3.21957 -1.55173 0
M  V30 7166 S 697.342 -3.73371 -2.3052 0
M  V30 7167 H 694.16 -0.655394 -0.275643 0
M  V30 7168 H 696.762 -1.95318 -0.0842684 0
M  V30 7169 H 695.466 -4.01459 -0.851977 0
M  V30 7170 H 694.997 -3.16688 -2.33393 0
M  V30 7171 H 697.012 -3.45308 -3.56338 0
M  V30 7172 N 696.185 0.383891 -1.52853 0
M  V30 7173 C 697.415 1.14783 -1.7178 0
M  V30 7174 C 697.823 1.84055 -0.438211 0
M  V30 7175 O 697.166 1.73713 0.597465 0
M  V30 7176 C 697.228 2.23543 -2.81547 0
M  V30 7177 C 696.892 1.74195 -4.22499 0
M  V30 7178 C 697.889 1.21591 -5.05481 0
M  V30 7179 C 695.574 1.80262 -4.6884 0
M  V30 7180 C 697.568 0.757104 -6.32888 0
M  V30 7181 C 695.255 1.33993 -5.96229 0
M  V30 7182 C 696.253 0.818049 -6.78083 0
M  V30 7183 O 695.941 0.362123 -8.03084 0
M  V30 7184 H 695.673 0.349908 -0.578395 0
M  V30 7185 H 698.227 0.454377 -2.00311 0
M  V30 7186 H 696.457 2.96328 -2.48449 0
M  V30 7187 H 698.146 2.8519 -2.88828 0
M  V30 7188 H 698.912 1.16257 -4.7086 0
M  V30 7189 H 694.791 2.19825 -4.05213 0
M  V30 7190 H 698.335 0.34908 -6.96726 0
M  V30 7191 H 694.232 1.39015 -6.30353 0
M  V30 7192 H 695 0.483134 -8.17073 0
M  V30 7193 N 697.663 1.43903 0.642637 0
M  V30 7194 C 698.626 1.49538 1.73698 0
M  V30 7195 C 699.626 0.378776 1.56275 0
M  V30 7196 O 700.816 0.64095 1.6198 0
M  V30 7197 C 697.948 1.35821 3.12675 0
M  V30 7198 H 699.141 2.47008 1.70079 0
M  V30 7199 H 696.694 1.30824 0.85526 0
M  V30 7200 H 697.429 0.393994 3.21898 0
M  V30 7201 H 697.214 2.16776 3.26727 0
M  V30 7202 H 698.704 1.4272 3.92455 0
M  V30 7203 N 699.141 -0.881989 1.30609 0
M  V30 7204 C 700.552 -1.44956 1.17664 0
M  V30 7205 C 700.903 -1.94945 -0.221531 0
M  V30 7206 O 700.028 -1.85257 -1.11844 0
M  V30 7207 C 700.623 -2.63474 2.12995 0
M  V30 7208 C 699.182 -3.16312 2.04019 0
M  V30 7209 C 698.329 -1.89008 2.02907 0
M  V30 7210 H 701.28 -0.691645 1.42835 0
M  V30 7211 H 701.301 -3.39783 1.71253 0
M  V30 7212 H 700.813 -2.2706 3.14746 0
M  V30 7213 H 698.914 -3.57376 1.0542 0
M  V30 7214 H 699.027 -3.79409 2.9255 0
M  V30 7215 H 697.391 -2.07465 1.47751 0
M  V30 7216 H 698.174 -1.54848 3.06394 0
M  V30 7217 N 700.619 -1.13374 -1.09472 0
M  V30 7218 C 701.549 -0.833268 -2.18126 0
M  V30 7219 C 702.53 0.207169 -1.68834 0
M  V30 7220 O 703.715 0.0662012 -1.94087 0
M  V30 7221 C 700.845 -0.297979 -3.46019 0
M  V30 7222 C 699.799 -1.27261 -4.08642 0
M  V30 7223 C 699.125 -0.597104 -5.31356 0
M  V30 7224 C 700.425 -2.63095 -4.51197 0
M  V30 7225 H 702.119 -1.74182 -2.43518 0
M  V30 7226 H 699.665 -0.838921 -1.17039 0
M  V30 7227 H 701.618 -0.0754444 -4.21332 0
M  V30 7228 H 700.342 0.645959 -3.20148 0
M  V30 7229 H 699.001 -1.48113 -3.35348 0
M  V30 7230 H 698.649 0.352293 -5.01765 0
M  V30 7231 H 698.349 -1.24734 -5.74208 0
M  V30 7232 H 699.873 -0.38384 -6.09392 0
M  V30 7233 H 701.287 -2.46214 -5.17737 0
M  V30 7234 H 699.684 -3.2429 -5.04932 0
M  V30 7235 H 700.754 -3.20793 -3.6362 0
M  V30 7236 N 702.098 1.27442 -0.927168 0
M  V30 7237 C 703.046 2.28844 -0.416333 0
M  V30 7238 C 704.04 1.61882 0.499057 0
M  V30 7239 O 705.246 1.75969 0.378817 0
M  V30 7240 H 701.621 0.742989 -0.116065 0
M  V30 7241 H 703.592 2.69344 -1.28438 0
M  V30 7242 C 702.341 3.4626 0.316107 0
M  V30 7243 H 701.664 3.97999 -0.379082 0
M  V30 7244 H 703.104 4.19173 0.637975 0
M  V30 7245 C 701.563 3.00211 1.5289 0
M  V30 7246 O 702.093 3.03837 2.62766 0
M  V30 7247 N 700.299 2.55713 1.38054 0
M  V30 7248 H 699.846 2.52962 0.4866 0
M  V30 7249 H 699.804 2.25264 2.19325 0
M  V30 7250 N 703.576 0.692616 1.41565 0
M  V30 7251 C 704.987 0.297478 1.84315 0
M  V30 7252 C 705.338 -1.16379 1.57957 0
M  V30 7253 O 704.463 -1.89303 1.0485 0
M  V30 7254 C 705.058 0.533136 3.34579 0
M  V30 7255 C 703.617 0.191944 3.7591 0
M  V30 7256 C 702.764 0.816873 2.64995 0
M  V30 7257 H 705.715 0.893488 1.31158 0
M  V30 7258 H 705.736 -0.209105 3.79925 0
M  V30 7259 H 705.248 1.59674 3.53731 0
M  V30 7260 H 703.349 -0.867512 3.6236 0
M  V30 7261 H 703.462 0.644902 4.7474 0
M  V30 7262 H 701.826 0.246715 2.53502 0
M  V30 7263 H 702.609 1.88429 2.86966 0
M  V30 7264 N 705.054 -1.51416 0.437162 0
M  V30 7265 C 706.331 -1.94682 -0.189292 0
M  V30 7266 C 706.711 -1.37581 -1.60108 0
M  V30 7267 O 706.059 -0.562815 -2.2146 0
M  V30 7268 C 706.269 -3.48599 -0.167201 0
M  V30 7269 C 707.617 -4.2296 -0.372856 0
M  V30 7270 O 708.641 -3.55354 -0.245323 0
M  V30 7271 O 707.5 -5.42895 -0.626693 0
M  V30 7272 H 704.594 -0.816708 -0.130063 0
M  V30 7273 H 707.14 -1.62316 0.495128 0
M  V30 7274 H 705.912 -3.82616 0.81981 0
M  V30 7275 H 705.535 -3.87406 -0.894537 0
M  V30 7276 N 706.532 -0.168513 -1.56696 0
M  V30 7277 C 707.48 0.779791 -2.19139 0
M  V30 7278 C 708.474 1.23957 -1.1546 0
M  V30 7279 O 709.68 1.20555 -1.33666 0
M  V30 7280 H 706.055 0.269739 -0.701958 0
M  V30 7281 H 708.026 0.229156 -2.97519 0
M  V30 7282 C 706.775 2.00003 -2.84419 0
M  V30 7283 H 706.098 1.65527 -3.63924 0
M  V30 7284 H 707.538 2.64251 -3.31583 0
M  V30 7285 C 705.997 2.82187 -1.84044 0
M  V30 7286 O 706.527 3.79247 -1.32418 0
M  V30 7287 N 704.733 2.47145 -1.52864 0
M  V30 7288 H 704.28 1.68277 -1.9504 0
M  V30 7289 H 704.238 3.02422 -0.859569 0
M  V30 7290 N 708.01 1.57248 0.105221 0
M  V30 7291 C 709.238 1.89768 0.82437 0
M  V30 7292 C 709.653 0.761192 1.72775 0
M  V30 7293 O 709.01 -0.267342 1.80531 0
M  V30 7294 C 709.061 3.2184 1.64625 0
M  V30 7295 O 708.782 4.31115 0.779217 0
M  V30 7296 C 710.283 3.68155 2.46935 0
M  V30 7297 H 707.503 0.628031 0.236259 0
M  V30 7298 H 710.047 2.04321 0.085485 0
M  V30 7299 H 708.202 3.08915 2.33775 0
M  V30 7300 H 708.616 5.06897 1.34745 0
M  V30 7301 H 710.09 4.6329 3.00111 0
M  V30 7302 H 710.567 2.95492 3.24932 0
M  V30 7303 H 711.173 3.83914 1.83002 0
M  V30 7304 N 709.488 -0.375779 1.53054 0
M  V30 7305 C 710.713 -1.14484 1.7294 0
M  V30 7306 C 711.138 -1.82572 0.452668 0
M  V30 7307 O 710.496 -1.71343 -0.592567 0
M  V30 7308 C 710.544 -2.15857 2.88857 0
M  V30 7309 O 709.648 -3.22725 2.56753 0
M  V30 7310 H 708.989 -0.332666 0.574656 0
M  V30 7311 H 711.519 -0.436025 1.999 0
M  V30 7312 H 711.529 -2.59631 3.14731 0
M  V30 7313 H 710.204 -1.65689 3.81471 0
M  V30 7314 H 708.781 -2.83996 2.41663 0
M  V30 7315 N 710.966 -1.44241 -0.634997 0
M  V30 7316 C 711.896 -1.53632 -1.7584 0
M  V30 7317 C 712.877 -0.389603 -1.65578 0
M  V30 7318 O 714.062 -0.609219 -1.84397 0
M  V30 7319 C 711.192 -1.47644 -3.14354 0
M  V30 7320 C 710.146 -2.60752 -3.394 0
M  V30 7321 C 709.472 -2.39817 -4.77904 0
M  V30 7322 C 710.772 -4.02921 -3.32343 0
M  V30 7323 H 712.466 -2.47662 -1.68238 0
M  V30 7324 H 710.012 -1.19197 -0.807969 0
M  V30 7325 H 711.965 -1.52815 -3.92716 0
M  V30 7326 H 710.689 -0.501284 -3.2273 0
M  V30 7327 H 709.348 -2.54965 -2.63417 0
M  V30 7328 H 708.996 -1.40502 -4.82978 0
M  V30 7329 H 708.696 -3.15649 -4.9562 0
M  V30 7330 H 710.22 -2.46799 -5.585 0
M  V30 7331 H 711.634 -4.10098 -4.00615 0
M  V30 7332 H 710.031 -4.78925 -3.61595 0
M  V30 7333 H 711.101 -4.26766 -2.30215 0
M  V30 7334 N 712.444 0.87505 -1.31075 0
M  V30 7335 C 713.674 1.65818 -1.2324 0
M  V30 7336 C 714.082 1.8808 0.205536 0
M  V30 7337 O 713.425 1.43548 1.14628 0
M  V30 7338 C 713.487 3.05131 -1.90093 0
M  V30 7339 C 713.151 3.05999 -3.39432 0
M  V30 7340 C 714.148 2.84328 -4.35263 0
M  V30 7341 C 711.833 3.27281 -3.81041 0
M  V30 7342 C 713.827 2.83912 -5.70678 0
M  V30 7343 C 711.514 3.26493 -5.16571 0
M  V30 7344 C 712.512 3.04834 -6.112 0
M  V30 7345 O 712.2 3.03882 -7.44252 0
M  V30 7346 H 711.932 0.52387 -0.427242 0
M  V30 7347 H 714.486 1.10086 -1.73408 0
M  V30 7348 H 712.716 3.62568 -1.34468 0
M  V30 7349 H 714.405 3.65641 -1.76242 0
M  V30 7350 H 715.171 2.67673 -4.04445 0
M  V30 7351 H 711.05 3.43171 -3.07822 0
M  V30 7352 H 714.594 2.66925 -6.44513 0
M  V30 7353 H 710.491 3.42687 -5.47025 0
M  V30 7354 H 711.259 3.19979 -7.53363 0
M  V30 7355 N 713.922 1.13953 1.08869 0
M  V30 7356 C 715.199 0.815768 1.77777 0
M  V30 7357 C 715.579 -0.691624 1.99449 0
M  V30 7358 O 714.927 -1.63085 1.60049 0
M  V30 7359 C 715.137 1.60916 3.09689 0
M  V30 7360 C 716.485 1.80549 3.84301 0
M  V30 7361 O 717.509 1.57562 3.19457 0
M  V30 7362 O 716.368 2.18946 5.00724 0
M  V30 7363 H 713.462 0.298445 0.771271 0
M  V30 7364 H 716.008 1.24446 1.15374 0
M  V30 7365 H 714.78 2.6333 2.89435 0
M  V30 7366 H 714.403 1.17578 3.79817 0
M  V30 7367 N 715.4 -1.26948 0.933913 0
M  V30 7368 C 716.64 -1.9585 0.585003 0
M  V30 7369 C 717.004 -1.71722 -0.858802 0
M  V30 7370 O 718.205 -2.34366 -1.31629 0
M  V30 7371 C 716.476 -3.45638 0.909352 0
M  V30 7372 S 718.035 -4.33656 0.669892 0
M  V30 7373 H 714.853 -0.677485 0.215721 0
M  V30 7374 H 717.455 -1.54051 1.20368 0
M  V30 7375 H 716.159 -3.60697 1.9577 0
M  V30 7376 H 715.69 -3.92401 0.280115 0
M  V30 7377 H 717.705 -4.93975 -0.469378 0
M  V30 7378 N 716.879 -0.700114 -1.41195 0
M  V30 7379 C 718.119 -0.237223 -2.03019 0
M  V30 7380 C 718.483 1.14304 -1.54268 0
M  V30 7381 O 719.684 1.70204 -2.08048 0
M  V30 7382 C 717.955 -0.297442 -3.5616 0
M  V30 7383 S 719.514 0.0907367 -4.38706 0
M  V30 7384 H 716.332 -0.0952147 -0.704596 0
M  V30 7385 H 718.934 -0.918901 -1.72559 0
M  V30 7386 H 717.638 -1.30391 -3.89135 0
M  V30 7387 H 717.169 0.403233 -3.91328 0
M  V30 7388 H 719.184 1.31721 -4.78397 0
M  V30 7389 N 718.357 1.51182 -0.445186 0
M  V30 7390 C 719.606 2.01342 0.120189 0
M  V30 7391 C 719.919 1.33353 1.43095 0
M  V30 7392 O 721.125 1.74525 2.07974 0
M  V30 7393 C 719.581 3.58925 0.264732 0
M  V30 7394 C 719.189 4.35855 -1.03606 0
M  V30 7395 C 720.933 4.17208 0.783455 0
M  V30 7396 C 718.84 5.85162 -0.856731 0
M  V30 7397 H 717.77 0.752426 0.0486922 0
M  V30 7398 H 720.421 1.74221 -0.576143 0
M  V30 7399 H 718.803 3.82525 1.02425 0
M  V30 7400 H 719.977 4.23997 -1.80452 0
M  V30 7401 H 718.292 3.89062 -1.48391 0
M  V30 7402 H 720.889 5.26475 0.934239 0
M  V30 7403 H 721.232 3.76892 1.768 0
M  V30 7404 H 721.765 3.97715 0.0820346 0
M  V30 7405 H 718.504 6.29904 -1.81388 0
M  V30 7406 H 718.024 5.99663 -0.128206 0
M  V30 7407 H 719.703 6.44963 -0.513027 0
M  V30 7408 N 719.835 0.176821 1.56605 0
M  V30 7409 C 720.783 -0.768159 2.1955 0
M  V30 7410 C 721.777 -1.23343 1.16116 0
M  V30 7411 O 722.983 -1.19844 1.34303 0
M  V30 7412 H 719.358 -0.266013 0.703378 0
M  V30 7413 H 721.329 -0.213374 2.97636 0
M  V30 7414 C 720.078 -1.98492 2.85475 0
M  V30 7415 H 719.401 -1.63595 3.64797 0
M  V30 7416 H 720.841 -2.62489 3.3298 0
M  V30 7417 C 719.3 -2.81207 1.85538 0
M  V30 7418 O 719.83 -3.7854 1.34427 0
M  V30 7419 N 718.036 -2.46331 1.54173 0
M  V30 7420 H 717.583 -1.67241 1.95929 0
M  V30 7421 H 717.541 -3.01961 0.875595 0
M  V30 7422 N 721.313 -1.57302 -0.09688 0
M  V30 7423 C 722.538 -1.9058 -0.818169 0
M  V30 7424 C 722.963 -0.770921 -1.71576 0
M  V30 7425 O 722.321 0.277588 -1.79162 0
M  V30 7426 C 722.369 -3.22714 -1.60898 0
M  V30 7427 O 721.473 -3.10178 -2.71779 0
M  V30 7428 H 720.814 -0.624759 -0.224882 0
M  V30 7429 H 723.344 -2.04471 -0.07264 0
M  V30 7430 H 723.354 -3.55978 -1.99358 0
M  V30 7431 H 722.029 -4.04899 -0.950227 0
M  V30 7432 H 720.606 -2.88424 -2.3636 0
M  V30 7433 N 722.791 0.367657 -1.53252 0
M  V30 7434 C 723.721 1.45632 -1.8252 0
M  V30 7435 C 724.702 1.55979 -0.678568 0
M  V30 7436 O 725.887 1.70581 -0.928217 0
M  V30 7437 C 723.017 2.82994 -2.01325 0
M  V30 7438 C 721.971 2.87473 -3.17086 0
M  V30 7439 C 721.297 4.2749 -3.21179 0
M  V30 7440 C 722.597 2.55182 -4.55719 0
M  V30 7441 H 724.291 1.21387 -2.73689 0
M  V30 7442 H 721.837 0.58251 -1.31692 0
M  V30 7443 H 723.79 3.59179 -2.20383 0
M  V30 7444 H 722.514 3.08622 -1.06864 0
M  V30 7445 H 721.173 2.13739 -2.97844 0
M  V30 7446 H 720.821 4.5019 -2.24361 0
M  V30 7447 H 720.521 4.31403 -3.98955 0
M  V30 7448 H 722.045 5.0555 -3.42419 0
M  V30 7449 H 723.459 3.21081 -4.74953 0
M  V30 7450 H 721.856 2.70414 -5.3572 0
M  V30 7451 H 722.926 1.5044 -4.60973 0
M  V30 7452 N 724.269 1.44576 0.627338 0
M  V30 7453 C 725.199 1.54562 1.75022 0
M  V30 7454 C 726.18 0.398378 1.65369 0
M  V30 7455 O 727.365 0.61899 1.84071 0
M  V30 7456 C 724.495 1.49309 3.13567 0
M  V30 7457 C 723.449 2.62549 3.38012 0
M  V30 7458 C 722.775 2.42348 4.76625 0
M  V30 7459 C 724.075 4.04678 3.30202 0
M  V30 7460 H 725.769 2.4855 1.66922 0
M  V30 7461 H 723.315 1.19624 0.801636 0
M  V30 7462 H 725.268 1.54895 3.919 0
M  V30 7463 H 723.992 0.518392 3.2246 0
M  V30 7464 H 722.651 2.56358 2.62061 0
M  V30 7465 H 722.299 1.43062 4.82226 0
M  V30 7466 H 721.999 3.18273 4.93939 0
M  V30 7467 H 723.523 2.49758 5.57183 0
M  V30 7468 H 724.937 4.12217 3.98435 0
M  V30 7469 H 723.334 4.80836 3.5905 0
M  V30 7470 H 724.404 4.2798 2.27949 0
M  V30 7471 N 725.747 -0.868086 1.31537 0
M  V30 7472 C 726.679 -1.98165 1.15166 0
M  V30 7473 C 727.692 -1.6255 0.0902335 0
M  V30 7474 O 728.881 -1.75272 0.33791 0
M  V30 7475 C 725.981 -3.30772 0.737776 0
M  V30 7476 C 725.154 -3.94716 1.88462 0
M  V30 7477 C 724.213 -5.05641 1.45648 0
M  V30 7478 O 723.239 -5.2636 2.16642 0
M  V30 7479 N 724.441 -5.79474 0.34493 0
M  V30 7480 H 727.206 -2.12754 2.11083 0
M  V30 7481 H 724.767 -1.04217 1.23897 0
M  V30 7482 H 726.759 -4.02366 0.434032 0
M  V30 7483 H 725.329 -3.1233 -0.129834 0
M  V30 7484 H 724.549 -3.16079 2.35558 0
M  V30 7485 H 725.837 -4.34175 2.65273 0
M  V30 7486 H 725.235 -5.65164 -0.246259 0
M  V30 7487 H 723.792 -6.51722 0.100728 0
M  V30 7488 N 727.225 -1.14528 -1.08264 0
M  V30 7489 C 728.455 -0.936604 -1.8415 0
M  V30 7490 C 728.863 0.518298 -1.81962 0
M  V30 7491 O 728.206 1.37096 -1.22272 0
M  V30 7492 C 728.268 -1.36182 -3.32708 0
M  V30 7493 C 727.932 -2.83257 -3.58629 0
M  V30 7494 C 728.929 -3.81366 -3.5335 0
M  V30 7495 C 726.614 -3.20704 -3.86593 0
M  V30 7496 C 728.608 -5.14929 -3.75668 0
M  V30 7497 C 726.295 -4.54443 -4.08564 0
M  V30 7498 C 727.293 -5.51365 -4.03095 0
M  V30 7499 O 726.981 -6.8269 -4.24488 0
M  V30 7500 H 726.713 -0.333254 -0.588148 0
M  V30 7501 H 729.267 -1.5247 -1.3763 0
M  V30 7502 H 727.497 -0.717063 -3.79994 0
M  V30 7503 H 729.186 -1.12372 -3.90035 0
M  V30 7504 H 729.952 -3.53781 -3.31759 0
M  V30 7505 H 725.831 -2.45857 -3.89969 0
M  V30 7506 H 729.375 -5.90568 -3.71315 0
M  V30 7507 H 725.272 -4.81747 -4.29639 0
M  V30 7508 H 726.04 -6.8897 -4.41886 0
M  V30 7509 N 728.703 1.26451 -0.940633 0
M  V30 7510 C 729.95 1.93778 -0.587909 0
M  V30 7511 C 730.278 1.73811 0.872935 0
M  V30 7512 O 729.533 1.06816 1.63978 0
M  V30 7513 C 729.832 3.46503 -0.875794 0
M  V30 7514 C 729.498 3.86609 -2.32043 0
M  V30 7515 C 728.16 3.97269 -2.71534 0
M  V30 7516 C 730.512 4.0672 -3.25927 0
M  V30 7517 C 727.84 4.25436 -4.04006 0
M  V30 7518 C 730.192 4.36375 -4.57995 0
M  V30 7519 C 728.856 4.45249 -4.97302 0
M  V30 7520 H 728.126 0.709084 -0.215131 0
M  V30 7521 H 730.773 1.50272 -1.18704 0
M  V30 7522 H 729.078 3.91319 -0.194124 0
M  V30 7523 H 730.775 3.96759 -0.581665 0
M  V30 7524 H 727.365 3.78858 -2.00411 0
M  V30 7525 H 731.549 3.97912 -2.96614 0
M  V30 7526 H 726.805 4.30519 -4.34124 0
M  V30 7527 H 730.979 4.50882 -5.30734 0
M  V30 7528 H 728.606 4.66829 -5.99979 0
M  V30 7529 N 730.181 0.707592 1.40822 0
M  V30 7530 C 731.113 0.0105968 2.29198 0
M  V30 7531 C 732.126 -0.732035 1.45414 0
M  V30 7532 O 733.315 -0.580741 1.68789 0
M  V30 7533 C 730.415 -1.00921 3.23525 0
M  V30 7534 C 729.588 -0.333747 4.36125 0
M  V30 7535 C 728.647 -1.25783 5.10945 0
M  V30 7536 O 727.673 -0.745646 5.64295 0
M  V30 7537 N 728.875 -2.58947 5.19545 0
M  V30 7538 H 731.64 0.76938 2.89656 0
M  V30 7539 H 729.201 0.554579 1.52105 0
M  V30 7540 H 731.193 -1.6294 3.70449 0
M  V30 7541 H 729.763 -1.66942 2.6429 0
M  V30 7542 H 728.983 0.466518 3.9143 0
M  V30 7543 H 730.271 0.135444 5.0862 0
M  V30 7544 H 729.669 -3.03065 4.7767 0
M  V30 7545 H 728.226 -3.16131 5.70004 0
M  V30 7546 N 731.66 -1.50943 0.453197 0
M  V30 7547 C 732.608 -2.29728 -0.364419 0
M  V30 7548 C 733.602 -1.36246 -1.00664 0
M  V30 7549 O 734.808 -1.53518 -0.939794 0
M  V30 7550 H 731.183 -0.739536 -0.136347 0
M  V30 7551 H 733.154 -2.96672 0.320696 0
M  V30 7552 C 731.903 -3.1629 -1.44415 0
M  V30 7553 H 731.226 -3.88119 -0.959343 0
M  V30 7554 H 732.666 -3.74444 -1.98917 0
M  V30 7555 C 731.125 -2.32702 -2.43622 0
M  V30 7556 O 731.655 -1.99763 -3.48508 0
M  V30 7557 N 729.861 -1.95621 -2.14897 0
M  V30 7558 H 729.408 -2.22607 -1.29629 0
M  V30 7559 H 729.366 -1.39993 -2.81513 0
M  V30 7560 N 733.138 -0.185124 -1.56509 0
M  V30 7561 C 734.086 0.756505 -2.19954 0
M  V30 7562 C 735.08 1.22725 -1.16769 0
M  V30 7563 O 736.286 1.1913 -1.34937 0
M  V30 7564 H 732.661 0.262279 -0.704779 0
M  V30 7565 H 734.632 0.197587 -2.97745 0
M  V30 7566 C 733.381 1.96975 -2.86524 0
M  V30 7567 H 732.704 1.61658 -3.65659 0
M  V30 7568 H 734.144 2.60719 -3.34367 0
M  V30 7569 C 732.603 2.80219 -1.87027 0
M  V30 7570 O 733.133 3.77821 -1.36433 0
M  V30 7571 N 731.339 2.4551 -1.55477 0
M  V30 7572 H 730.886 1.66199 -1.96813 0
M  V30 7573 H 730.844 3.01493 -0.891597 0
M  V30 7574 N 734.616 1.57351 0.0885366 0
M  V30 7575 C 736.032 1.53331 0.442916 0
M  V30 7576 C 736.232 0.902831 1.80142 0
M  V30 7577 O 735.288 0.498147 2.47537 0
M  V30 7578 C 736.601 2.98036 0.399372 0
M  V30 7579 C 738.149 3.09286 0.480759 0
M  V30 7580 C 738.624 4.5561 0.467296 0
M  V30 7581 N 740.115 4.60182 0.52786 0
M  V30 7582 C 740.85 5.70857 0.539388 0
M  V30 7583 N 740.346 6.90944 0.506729 0
M  V30 7584 N 742.139 5.59051 0.584691 0
M  V30 7585 H 734.29 1.96709 -0.801215 0
M  V30 7586 H 736.553 0.899639 -0.298922 0
M  V30 7587 H 736.259 3.47656 -0.531806 0
M  V30 7588 H 736.133 3.57066 1.21589 0
M  V30 7589 H 738.52 2.5965 1.40236 0
M  V30 7590 H 738.601 2.53197 -0.364023 0
M  V30 7591 H 738.245 5.05899 -0.450384 0
M  V30 7592 H 738.175 5.09544 1.32938 0
M  V30 7593 H 740.666 3.73757 0.558028 0
M  V30 7594 H 740.979 7.71055 0.518989 0
M  V30 7595 H 739.324 6.93384 0.473675 0
M  V30 7596 H 742.515 4.64138 0.607781 0
M  V30 7597 H 742.688 6.45307 0.590206 0
M  V30 7598 N 736.094 -0.359525 1.53444 0
M  V30 7599 C 737.322 -1.12198 1.73837 0
M  V30 7600 C 737.737 -1.82854 0.470107 0
M  V30 7601 O 737.094 -1.73781 -0.557349 0
M  V30 7602 C 737.145 -2.14769 2.90786 0
M  V30 7603 O 736.866 -1.46989 4.12706 0
M  V30 7604 C 738.367 -3.03514 3.231 0
M  V30 7605 H 735.587 -0.33524 0.581253 0
M  V30 7606 H 738.131 -0.416598 2.00212 0
M  V30 7607 H 736.286 -2.80896 2.66788 0
M  V30 7608 H 736.7 -2.15378 4.78239 0
M  V30 7609 H 738.174 -3.71453 4.08322 0
M  V30 7610 H 738.651 -3.68658 2.38721 0
M  V30 7611 H 739.257 -2.42996 3.49046 0
M  V30 7612 N 737.572 -1.44907 -0.619662 0
M  V30 7613 C 738.502 -1.55488 -1.742 0
M  V30 7614 C 739.483 -0.407143 -1.65156 0
M  V30 7615 O 740.668 -0.628743 -1.8374 0
M  V30 7616 C 737.798 -1.5097 -3.1277 0
M  V30 7617 C 736.752 -2.64337 -3.36615 0
M  V30 7618 C 736.078 -2.44872 -4.75333 0
M  V30 7619 C 737.378 -4.06423 -3.28051 0
M  V30 7620 H 739.072 -2.49432 -1.65602 0
M  V30 7621 H 736.618 -1.20047 -0.795281 0
M  V30 7622 H 738.571 -1.56971 -3.91073 0
M  V30 7623 H 737.295 -0.535486 -3.2218 0
M  V30 7624 H 735.954 -2.57744 -2.60698 0
M  V30 7625 H 735.602 -1.45617 -4.81461 0
M  V30 7626 H 735.302 -3.20888 -4.92244 0
M  V30 7627 H 736.826 -2.52709 -5.55851 0
M  V30 7628 H 738.24 -4.14324 -3.96243 0
M  V30 7629 H 736.637 -4.82733 -3.56495 0
M  V30 7630 H 737.707 -4.29183 -2.25676 0
M  V30 7631 N 739.05 0.861098 -1.31996 0
M  V30 7632 C 739.98 1.98482 -1.22993 0
M  V30 7633 C 740.961 1.6971 -0.115168 0
M  V30 7634 O 742.146 1.91849 -0.30126 0
M  V30 7635 C 739.276 3.34179 -0.945615 0
M  V30 7636 C 738.23 3.77284 -2.02091 0
M  V30 7637 C 737.556 5.1054 -1.58912 0
M  V30 7638 C 738.856 3.93439 -3.43515 0
M  V30 7639 H 740.55 2.06271 -2.17008 0
M  V30 7640 H 738.096 0.991043 -1.04472 0
M  V30 7641 H 740.049 4.12338 -0.869206 0
M  V30 7642 H 738.773 3.26586 0.0301849 0
M  V30 7643 H 737.432 3.01371 -2.08737 0
M  V30 7644 H 737.08 4.99397 -0.600942 0
M  V30 7645 H 736.78 5.40352 -2.30854 0
M  V30 7646 H 738.304 5.91199 -1.52696 0
M  V30 7647 H 739.718 4.6197 -3.39495 0
M  V30 7648 H 738.115 4.34661 -4.13751 0
M  V30 7649 H 739.185 2.96548 -3.8365 0
M  V30 7650 N 740.528 1.15101 1.07655 0
M  V30 7651 C 741.458 0.867864 2.16773 0
M  V30 7652 C 742.439 -0.180283 1.69142 0
M  V30 7653 O 743.624 -0.0353152 1.94168 0
M  V30 7654 C 740.754 0.35299 3.45501 0
M  V30 7655 C 739.708 1.33746 4.06566 0
M  V30 7656 C 739.034 0.681562 5.30338 0
M  V30 7657 C 740.334 2.7024 4.46954 0
M  V30 7658 H 742.028 1.78034 2.40716 0
M  V30 7659 H 739.574 0.857435 1.15689 0
M  V30 7660 H 741.527 0.142465 4.21159 0
M  V30 7661 H 740.251 -0.594945 3.21135 0
M  V30 7662 H 738.91 1.53429 3.32949 0
M  V30 7663 H 738.558 -0.272422 5.02262 0
M  V30 7664 H 738.258 1.33853 5.72151 0
M  V30 7665 H 739.782 0.48074 6.08705 0
M  V30 7666 H 741.196 2.5442 5.13754 0
M  V30 7667 H 739.593 3.32282 4.99709 0
M  V30 7668 H 740.663 3.26537 3.58471 0
M  V30 7669 N 742.006 -1.2595 0.947325 0
M  V30 7670 C 742.936 -2.28521 0.479604 0
M  V30 7671 C 743.917 -1.63469 -0.470293 0
M  V30 7672 O 745.102 -1.90627 -0.370824 0
M  V30 7673 C 742.232 -3.46397 -0.250289 0
M  V30 7674 C 741.186 -4.23578 0.613643 0
M  V30 7675 C 740.512 -5.34131 -0.246568 0
M  V30 7676 C 741.812 -4.86979 1.88809 0
M  V30 7677 H 743.506 -2.67895 1.33688 0
M  V30 7678 H 741.052 -1.28783 0.644274 0
M  V30 7679 H 743.005 -4.17269 -0.588576 0
M  V30 7680 H 741.729 -3.05993 -1.14175 0
M  V30 7681 H 740.388 -3.54478 0.93491 0
M  V30 7682 H 740.036 -4.89968 -1.13756 0
M  V30 7683 H 739.736 -5.86683 0.328123 0
M  V30 7684 H 741.26 -6.07839 -0.579986 0
M  V30 7685 H 742.674 -5.50034 1.61666 0
M  V30 7686 H 741.071 -5.49675 2.40784 0
M  V30 7687 H 742.141 -4.09575 2.5957 0
M  V30 7688 N 743.484 -0.715051 -1.40445 0
M  V30 7689 C 744.712 -0.263959 -2.05209 0
M  V30 7690 C 745.127 1.09403 -1.53871 0
M  V30 7691 O 744.484 1.68746 -0.695064 0
M  V30 7692 C 744.535 -0.234545 -3.60738 0
M  V30 7693 O 744.256 -1.53891 -4.10182 0
M  V30 7694 C 745.757 0.235164 -4.42676 0
M  V30 7695 H 742.977 -0.11876 -0.660407 0
M  V30 7696 H 745.521 -0.973107 -1.79864 0
M  V30 7697 H 743.676 0.425563 -3.85055 0
M  V30 7698 H 744.09 -1.43903 -5.04373 0
M  V30 7699 H 745.564 0.204598 -5.51621 0
M  V30 7700 H 746.041 1.27724 -4.20218 0
M  V30 7701 H 746.647 -0.394649 -4.23465 0
M  V30 7702 N 744.962 1.50701 -0.461195 0
M  V30 7703 C 745.925 2.2686 0.326679 0
M  V30 7704 C 746.925 1.31243 0.929085 0
M  V30 7705 O 748.115 1.54754 0.799807 0
M  V30 7706 C 745.247 3.07844 1.46441 0
M  V30 7707 H 746.44 2.97954 -0.341095 0
M  V30 7708 H 743.993 1.54814 -0.214984 0
M  V30 7709 H 744.728 2.41223 2.16753 0
M  V30 7710 H 744.513 3.78101 1.03836 0
M  V30 7711 H 746.003 3.65469 2.02044 0
M  V30 7712 N 746.441 0.193421 1.56409 0
M  V30 7713 C 747.389 -0.744829 2.20352 0
M  V30 7714 C 748.383 -1.22104 1.17418 0
M  V30 7715 O 749.589 -1.18413 1.35567 0
M  V30 7716 H 745.964 -0.258538 0.70616 0
M  V30 7717 H 747.935 -0.181794 2.97846 0
M  V30 7718 C 746.684 -1.95453 2.87565 0
M  V30 7719 H 746.007 -1.59716 3.66512 0
M  V30 7720 H 747.447 -2.58942 3.35745 0
M  V30 7721 C 745.906 -2.79223 1.8851 0
M  V30 7722 O 746.436 -3.77093 1.38434 0
M  V30 7723 N 744.642 -2.44682 1.56777 0
M  V30 7724 H 744.189 -1.65153 1.97692 0
M  V30 7725 H 744.147 -3.01016 0.907573 0
M  V30 7726 N 747.919 -1.57396 -0.0801906 0
M  V30 7727 C 748.851 -1.9982 -1.12271 0
M  V30 7728 C 749.864 -0.902902 -1.35468 0
M  V30 7729 O 751.053 -1.18088 -1.33856 0
M  V30 7730 C 748.153 -2.31476 -2.47532 0
M  V30 7731 C 747.326 -3.62745 -2.44407 0
M  V30 7732 C 746.385 -3.82168 -3.6171 0
M  V30 7733 O 745.411 -4.53852 -3.43522 0
M  V30 7734 N 746.613 -3.2388 -4.81749 0
M  V30 7735 H 749.378 -2.89864 -0.761501 0
M  V30 7736 H 746.939 -1.5965 -0.268965 0
M  V30 7737 H 748.931 -2.4165 -3.24634 0
M  V30 7738 H 747.501 -1.47364 -2.75686 0
M  V30 7739 H 746.721 -3.63403 -1.52747 0
M  V30 7740 H 748.009 -4.48954 -2.39412 0
M  V30 7741 H 747.407 -2.6568 -4.9943 0
M  V30 7742 H 745.964 -3.39515 -5.56392 0
M  V30 7743 N 749.397 0.351382 -1.53633 0
M  V30 7744 C 750.625 1.11275 -1.74429 0
M  V30 7745 C 751.04 1.82602 -0.479798 0
M  V30 7746 O 750.397 1.74074 0.548125 0
M  V30 7747 C 750.448 2.13223 -2.91921 0
M  V30 7748 O 750.169 1.44798 -4.13479 0
M  V30 7749 C 751.67 3.01797 -3.24706 0
M  V30 7750 H 748.89 0.332153 -0.583023 0
M  V30 7751 H 751.434 0.405974 -2.0043 0
M  V30 7752 H 749.589 2.79477 -2.68274 0
M  V30 7753 H 750.003 2.12839 -4.79374 0
M  V30 7754 H 751.477 3.69282 -4.10286 0
M  V30 7755 H 751.954 3.67387 -2.40673 0
M  V30 7756 H 752.56 2.41141 -3.5033 0
M  V30 7757 N 750.875 1.45233 0.611969 0
M  V30 7758 C 751.805 1.5641 1.73373 0
M  V30 7759 C 752.786 0.415896 1.64937 0
M  V30 7760 O 753.971 0.638478 1.83404 0
M  V30 7761 C 751.101 1.52627 3.11965 0
M  V30 7762 C 750.055 2.66119 3.35208 0
M  V30 7763 C 749.381 2.4739 4.74028 0
M  V30 7764 C 750.681 4.08157 3.25891 0
M  V30 7765 H 752.375 2.50307 1.64277 0
M  V30 7766 H 749.921 1.20467 0.788904 0
M  V30 7767 H 751.874 1.59043 3.90235 0
M  V30 7768 H 750.598 0.552564 3.21892 0
M  V30 7769 H 749.257 2.59123 2.59327 0
M  V30 7770 H 748.905 1.48168 4.80682 0
M  V30 7771 H 748.605 3.23494 4.90536 0
M  V30 7772 H 750.129 2.55653 5.54503 0
M  V30 7773 H 751.543 4.1642 3.9404 0
M  V30 7774 H 749.94 4.84617 3.5393 0
M  V30 7775 H 751.01 4.30374 2.23397 0
M  V30 7776 N 752.353 -0.854086 1.3245 0
M  V30 7777 C 753.286 -1.96654 1.15768 0
M  V30 7778 C 754.264 -1.625 0.0569975 0
M  V30 7779 O 755.448 -1.87254 0.216412 0
M  V30 7780 C 752.575 -3.29776 0.772361 0
M  V30 7781 C 751.621 -3.82909 1.87837 0
M  V30 7782 S 752.454 -4.0643 3.48675 0
M  V30 7783 C 753.61 -5.42526 3.12116 0
M  V30 7784 H 753.843 -2.10504 2.09942 0
M  V30 7785 H 751.376 -1.00612 1.17118 0
M  V30 7786 H 753.334 -4.06706 0.556809 0
M  V30 7787 H 751.995 -3.13739 -0.150519 0
M  V30 7788 H 751.188 -4.79192 1.56177 0
M  V30 7789 H 750.79 -3.12825 2.0498 0
M  V30 7790 H 753.082 -6.24792 2.61996 0
M  V30 7791 H 754.025 -5.79148 4.07422 0
M  V30 7792 H 754.433 -5.06556 2.49121 0
M  V30 7793 N 753.831 -1.1567 -1.07043 0
M  V30 7794 C 755.079 -0.931673 -1.79344 0
M  V30 7795 C 755.4 0.542421 -1.87304 0
M  V30 7796 O 754.67 1.39418 -1.37621 0
M  V30 7797 H 753.25 -0.34171 -0.664262 0
M  V30 7798 H 755.912 -1.45795 -1.29344 0
M  V30 7799 H 755.008 -1.34379 -2.81689 0
M  V30 7800 N 755.309 1.25446 -0.953992 0
M  V30 7801 C 756.241 2.25111 -0.431004 0
M  V30 7802 C 757.254 1.56377 0.452764 0
M  V30 7803 O 758.443 1.76579 0.261144 0
M  V30 7804 C 755.543 3.3655 0.39839 0
M  V30 7805 C 754.716 4.34843 -0.472229 0
M  V30 7806 C 753.775 5.25351 0.29886 0
M  V30 7807 O 752.801 5.68396 -0.302522 0
M  V30 7808 N 754.003 5.5824 1.59211 0
M  V30 7809 H 756.768 2.70619 -1.28785 0
M  V30 7810 H 754.329 1.39346 -0.824281 0
M  V30 7811 H 756.321 3.94059 0.921941 0
M  V30 7812 H 754.891 2.90436 1.15609 0
M  V30 7813 H 754.111 3.76222 -1.17689 0
M  V30 7814 H 755.399 4.97497 -1.06648 0
M  V30 7815 H 754.797 5.25172 2.10264 0
M  V30 7816 H 753.354 6.18336 2.06164 0
M  V30 7817 N 756.787 0.722489 1.40064 0
M  V30 7818 C 758.015 0.274838 2.05066 0
M  V30 7819 C 758.43 -1.08586 1.54449 0
M  V30 7820 O 757.787 -1.68375 0.704003 0
M  V30 7821 C 757.838 0.253673 3.60609 0
M  V30 7822 O 757.559 1.56064 4.0936 0
M  V30 7823 C 759.06 -0.211684 4.42794 0
M  V30 7824 H 756.28 0.12226 0.659768 0
M  V30 7825 H 758.824 0.982632 1.79345 0
M  V30 7826 H 756.979 -0.405137 3.85276 0
M  V30 7827 H 757.393 1.46576 5.03603 0
M  V30 7828 H 758.867 -0.175341 5.51721 0
M  V30 7829 H 759.344 -1.25493 4.2089 0
M  V30 7830 H 759.95 0.4171 4.2325 0
M  V30 7831 N 758.265 -1.50454 0.469181 0
M  V30 7832 C 759.49 -2.0722 -0.0864892 0
M  V30 7833 C 759.915 -1.33098 -1.32916 0
M  V30 7834 O 759.273 -0.378084 -1.77314 0
M  V30 7835 C 759.321 -3.58845 -0.355384 0
M  V30 7836 O 758.425 -3.86583 -1.43622 0
M  V30 7837 H 757.766 -0.663889 0.0121414 0
M  V30 7838 H 760.296 -1.93674 0.659674 0
M  V30 7839 H 760.306 -4.03617 -0.596447 0
M  V30 7840 H 758.981 -4.12211 0.552698 0
M  V30 7841 H 757.558 -3.5365 -1.18262 0
M  V30 7842 N 759.743 -0.201713 -1.56304 0
M  V30 7843 C 760.675 0.748466 -2.16635 0
M  V30 7844 C 761.688 1.172 -1.12996 0
M  V30 7845 O 762.877 1.10658 -1.40061 0
M  V30 7846 C 759.977 2.02296 -2.719 0
M  V30 7847 C 759.15 1.75818 -4.00508 0
M  V30 7848 C 758.209 2.87779 -4.40533 0
M  V30 7849 O 757.235 2.57101 -5.07826 0
M  V30 7850 N 758.437 4.16287 -4.04581 0
M  V30 7851 H 761.202 0.232505 -2.98797 0
M  V30 7852 H 758.763 -0.0199822 -1.61888 0
M  V30 7853 H 760.755 2.7635 -2.95657 0
M  V30 7854 H 759.325 2.44996 -1.94154 0
M  V30 7855 H 758.545 0.855095 -3.84814 0
M  V30 7856 H 759.833 1.55532 -4.84445 0
M  V30 7857 H 759.231 4.44061 -3.50466 0
M  V30 7858 H 757.788 4.86946 -4.33274 0
M  V30 7859 N 761.222 1.57436 0.0718424 0
M  V30 7860 C 762.468 1.87525 0.772149 0
M  V30 7861 C 762.801 0.79399 1.77227 0
M  V30 7862 O 762.076 -0.195733 1.93513 0
M  V30 7863 C 762.359 3.28272 1.48018 0
M  V30 7864 C 762.212 4.47052 0.49647 0
M  V30 7865 C 763.531 3.67256 2.42509 0
M  V30 7866 H 760.65 0.682049 0.279245 0
M  V30 7867 H 763.292 1.89967 0.03534 0
M  V30 7868 H 761.442 3.26321 2.10824 0
M  V30 7869 H 763.114 4.61127 -0.126375 0
M  V30 7870 H 761.357 4.33392 -0.188205 0
M  V30 7871 H 762.028 5.42315 1.02949 0
M  V30 7872 H 764.504 3.70301 1.89781 0
M  V30 7873 H 763.38 4.66626 2.89053 0
M  V30 7874 H 763.641 2.97186 3.27312 0
M  V30 7875 N 762.7 -0.34323 1.53817 0
M  V30 7876 C 763.977 -1.10047 1.61706 0
M  V30 7877 C 764.357 -2.06495 0.438514 0
M  V30 7878 O 763.705 -2.21297 -0.569188 0
M  V30 7879 C 763.915 -1.81985 2.97796 0
M  V30 7880 C 765.263 -2.35717 3.53161 0
M  V30 7881 O 766.287 -1.9208 2.99973 0
M  V30 7882 O 765.146 -3.15551 4.46195 0
M  V30 7883 H 762.24 -0.506096 0.654061 0
M  V30 7884 H 764.786 -0.344697 1.66162 0
M  V30 7885 H 763.558 -1.11722 3.75012 0
M  V30 7886 H 763.181 -2.64419 2.96931 0
M  V30 7887 N 764.178 -1.45556 -0.604258 0
M  V30 7888 C 765.424 -1.50958 -1.3632 0
M  V30 7889 C 765.779 -0.15051 -1.9181 0
M  V30 7890 O 765.072 0.838035 -1.72301 0
M  V30 7891 C 765.266 -2.52697 -2.52743 0
M  V30 7892 C 765.095 -3.98364 -2.08654 0
M  V30 7893 C 763.865 -4.66295 -1.94671 0
M  V30 7894 C 766.063 -4.86801 -1.6592 0
M  V30 7895 N 764.045 -5.96669 -1.44428 0
M  V30 7896 C 765.416 -6.06829 -1.27115 0
M  V30 7897 C 767.471 -4.73634 -1.53542 0
M  V30 7898 C 766.174 -7.15149 -0.771676 0
M  V30 7899 C 768.2 -5.82005 -1.04998 0
M  V30 7900 C 767.562 -7.01191 -0.671599 0
M  V30 7901 H 763.661 -0.607329 -0.492621 0
M  V30 7902 H 766.245 -1.82048 -0.69041 0
M  V30 7903 H 764.416 -2.23554 -3.17614 0
M  V30 7904 H 766.148 -2.48227 -3.19633 0
M  V30 7905 H 762.903 -4.21496 -2.15959 0
M  V30 7906 H 763.327 -6.66003 -1.21528 0
M  V30 7907 H 767.969 -3.81898 -1.81421 0
M  V30 7908 H 765.687 -8.06671 -0.480442 0
M  V30 7909 H 769.273 -5.73851 -0.958423 0
M  V30 7910 H 768.153 -7.83619 -0.301752 0
M  V30 7911 N 765.656 0.84705 -1.32902 0
M  V30 7912 C 766.603 1.95624 -1.22473 0
M  V30 7913 C 767.573 1.65767 -0.105178 0
M  V30 7914 O 768.758 1.88704 -0.282042 0
M  V30 7915 C 765.898 3.31434 -0.961542 0
M  V30 7916 C 765.011 3.73741 -2.1666 0
M  V30 7917 C 764.146 4.98379 -1.83825 0
M  V30 7918 C 763.185 5.33199 -3.00609 0
M  V30 7919 N 762.322 6.49014 -2.67816 0
M  V30 7920 H 767.162 2.03875 -2.17345 0
M  V30 7921 H 764.699 0.997764 -1.08088 0
M  V30 7922 H 766.657 4.09663 -0.789411 0
M  V30 7923 H 765.287 3.22762 -0.0495938 0
M  V30 7924 H 764.339 2.91102 -2.44875 0
M  V30 7925 H 765.651 3.95462 -3.03993 0
M  V30 7926 H 764.805 5.84336 -1.63208 0
M  V30 7927 H 763.544 4.78611 -0.937172 0
M  V30 7928 H 762.549 4.4575 -3.21849 0
M  V30 7929 H 763.774 5.5492 -3.9146 0
M  V30 7930 H 761.72 6.30748 -1.80258 0
M  V30 7931 H 761.637 6.7079 -3.48679 0
M  V30 7932 H 762.905 7.38103 -2.50647 0
M  V30 7933 N 767.134 1.16236 1.06428 0
M  V30 7934 C 768.411 0.853294 1.76006 0
M  V30 7935 C 768.791 -0.649162 2.00871 0
M  V30 7936 O 768.139 -1.59653 1.63472 0
M  V30 7937 C 768.349 1.67448 3.06206 0
M  V30 7938 C 769.697 1.8866 3.80385 0
M  V30 7939 O 770.721 1.64303 3.16043 0
M  V30 7940 O 769.58 2.29518 4.95968 0
M  V30 7941 H 766.674 0.314737 0.764767 0
M  V30 7942 H 769.22 1.26865 1.12709 0
M  V30 7943 H 767.992 2.69411 2.83784 0
M  V30 7944 H 767.615 1.25608 3.77238 0
M  V30 7945 N 768.612 -1.24939 0.960631 0
M  V30 7946 C 769.562 -2.23388 0.456266 0
M  V30 7947 C 770.546 -1.54249 -0.45782 0
M  V30 7948 O 771.738 -1.7461 -0.289894 0
M  V30 7949 C 768.867 -3.42321 -0.259024 0
M  V30 7950 C 767.953 -4.18718 0.673478 0
M  V30 7951 N 768.344 -4.72394 1.8077 0
M  V30 7952 C 766.642 -4.43378 0.482859 0
M  V30 7953 C 767.343 -5.30316 2.3904 0
M  V30 7954 N 766.319 -5.17109 1.67629 0
M  V30 7955 H 770.121 -2.62499 1.32179 0
M  V30 7956 H 767.635 -1.40245 0.818851 0
M  V30 7957 H 769.632 -4.11997 -0.637527 0
M  V30 7958 H 768.292 -3.04732 -1.12108 0
M  V30 7959 H 769.303 -4.69345 2.18942 0
M  V30 7960 H 765.98 -4.16147 -0.335821 0
M  V30 7961 H 767.37 -5.82594 3.34715 0
M  V30 7962 N 770.09 -0.729906 -1.39679 0
M  V30 7963 C 771.337 -0.275622 -2.00615 0
M  V30 7964 C 771.665 1.13559 -1.57907 0
M  V30 7965 O 770.92 1.78745 -0.796789 0
M  V30 7966 C 771.219 -0.319564 -3.55968 0
M  V30 7967 C 770.885 -1.68308 -4.1831 0
M  V30 7968 C 769.547 -2.05629 -4.35052 0
M  V30 7969 C 771.899 -2.57857 -4.52945 0
M  V30 7970 C 769.227 -3.32018 -4.83716 0
M  V30 7971 C 771.579 -3.83613 -5.03015 0
M  V30 7972 C 770.243 -4.21033 -5.17965 0
M  V30 7973 H 769.513 -0.100857 -0.734104 0
M  V30 7974 H 772.16 -0.93575 -1.67081 0
M  V30 7975 H 770.465 0.42414 -3.89497 0
M  V30 7976 H 772.162 0.0499905 -4.00969 0
M  V30 7977 H 768.752 -1.3829 -4.05677 0
M  V30 7978 H 772.936 -2.30295 -4.39634 0
M  V30 7979 H 768.192 -3.6096 -4.93475 0
M  V30 7980 H 772.366 -4.53162 -5.28788 0
M  V30 7981 H 769.993 -5.19034 -5.55435 0
M  V30 7982 N 771.568 1.50203 -0.477153 0
M  V30 7983 C 772.498 2.31517 0.303646 0
M  V30 7984 C 773.479 1.38696 0.984753 0
M  V30 7985 O 774.664 1.67615 0.980758 0
M  V30 7986 C 771.794 3.18598 1.38249 0
M  V30 7987 C 770.748 4.2002 0.822645 0
M  V30 7988 C 770.074 4.95878 2.00024 0
M  V30 7989 C 771.374 5.22023 -0.170185 0
M  V30 7990 H 773.068 2.97042 -0.375027 0
M  V30 7991 H 770.614 1.42848 -0.181802 0
M  V30 7992 H 772.567 3.74282 1.93625 0
M  V30 7993 H 771.291 2.5097 2.09002 0
M  V30 7994 H 769.95 3.65445 0.290813 0
M  V30 7995 H 769.598 4.24717 2.69489 0
M  V30 7996 H 769.298 5.64487 1.63183 0
M  V30 7997 H 770.822 5.54399 2.55878 0
M  V30 7998 H 772.236 5.72543 0.294606 0
M  V30 7999 H 770.633 5.98386 -0.453181 0
M  V30 8000 H 771.703 4.72396 -1.09408 0
M  V30 8001 N 773.046 0.209999 1.56195 0
M  V30 8002 C 774.276 -0.429373 2.02089 0
M  V30 8003 C 774.684 -1.54703 1.0892 0
M  V30 8004 O 774.027 -1.83485 0.0889535 0
M  V30 8005 C 774.089 -1.03266 3.44349 0
M  V30 8006 C 773.753 -0.0518873 4.56971 0
M  V30 8007 C 774.75 0.744249 5.14545 0
M  V30 8008 C 772.435 0.0635185 5.0226 0
M  V30 8009 C 774.429 1.64261 6.15871 0
M  V30 8010 C 772.116 0.965423 6.03426 0
M  V30 8011 C 773.114 1.75352 6.60106 0
M  V30 8012 O 772.802 2.64029 7.59305 0
M  V30 8013 H 772.534 -0.110604 0.66689 0
M  V30 8014 H 775.088 0.320436 2.02885 0
M  V30 8015 H 773.318 -1.83134 3.40586 0
M  V30 8016 H 775.007 -1.57823 3.73961 0
M  V30 8017 H 775.773 0.665476 4.80413 0
M  V30 8018 H 771.652 -0.539762 4.57829 0
M  V30 8019 H 775.196 2.25819 6.60039 0
M  V30 8020 H 771.093 1.04526 6.36981 0
M  V30 8021 H 771.861 2.57974 7.76783 0
M  V30 8022 N 774.524 -1.57472 -0.0634922 0
M  V30 8023 C 775.764 -1.89491 -0.766312 0
M  V30 8024 C 776.128 -0.80475 -1.74321 0
M  V30 8025 O 777.329 -1.00825 -2.49174 0
M  V30 8026 C 775.6 -3.26731 -1.44851 0
M  V30 8027 S 777.159 -3.80516 -2.18525 0
M  V30 8028 H 773.977 -0.663832 -0.254653 0
M  V30 8029 H 776.579 -1.95488 -0.0220867 0
M  V30 8030 H 775.283 -4.03967 -0.723824 0
M  V30 8031 H 774.814 -3.23953 -2.232 0
M  V30 8032 H 776.829 -3.5647 -3.45172 0
M  V30 8033 N 776.003 0.335068 -1.53997 0
M  V30 8034 C 776.966 1.39481 -1.81872 0
M  V30 8035 C 777.966 1.4524 -0.690078 0
M  V30 8036 O 779.156 1.45467 -0.958377 0
M  V30 8037 C 776.288 2.78329 -1.9684 0
M  V30 8038 H 777.481 1.16024 -2.76547 0
M  V30 8039 H 775.034 0.569926 -1.45539 0
M  V30 8040 H 775.769 3.07058 -1.04337 0
M  V30 8041 H 775.554 2.75544 -2.78958 0
M  V30 8042 H 777.044 3.55016 -2.19894 0
M  V30 8043 N 777.481 1.45874 0.596531 0
M  V30 8044 C 778.429 1.55739 1.72766 0
M  V30 8045 C 779.423 0.426666 1.63939 0
M  V30 8046 O 780.629 0.60301 1.69599 0
M  V30 8047 H 777.004 0.489386 0.570968 0
M  V30 8048 H 778.975 2.50871 1.61575 0
M  V30 8049 C 777.724 1.55174 3.11153 0
M  V30 8050 H 777.047 2.41511 3.1861 0
M  V30 8051 H 778.487 1.66133 3.90097 0
M  V30 8052 C 776.946 0.278001 3.35751 0
M  V30 8053 O 777.476 -0.637557 3.96608 0
M  V30 8054 N 775.682 0.170227 2.90101 0
M  V30 8055 H 775.229 0.916159 2.40758 0
M  V30 8056 H 775.187 -0.68117 3.06932 0
M  V30 8057 N 778.959 -0.83999 1.33349 0
M  V30 8058 C 779.922 -1.93128 1.23426 0
M  V30 8059 C 780.922 -1.60065 0.153599 0
M  V30 8060 O 782.112 -1.69425 0.405049 0
M  V30 8061 C 779.244 -3.28761 0.901622 0
M  V30 8062 H 780.437 -2.03352 2.20427 0
M  V30 8063 H 777.99 -1.03194 1.17391 0
M  V30 8064 H 778.725 -3.24233 -0.0659337 0
M  V30 8065 H 778.51 -3.54138 1.68311 0
M  V30 8066 H 780 -4.08714 0.856913 0
M  V30 8067 N 780.437 -1.16799 -1.0581 0
M  V30 8068 C 781.848 -0.95945 -1.60161 0
M  V30 8069 C 782.199 0.49543 -1.89842 0
M  V30 8070 O 781.324 1.36957 -1.67546 0
M  V30 8071 C 781.919 -1.73527 -2.90987 0
M  V30 8072 C 780.478 -1.57158 -3.42021 0
M  V30 8073 C 779.625 -1.74089 -2.15843 0
M  V30 8074 H 782.576 -1.31598 -0.886992 0
M  V30 8075 H 782.597 -1.21397 -3.60615 0
M  V30 8076 H 782.109 -2.79411 -2.69353 0
M  V30 8077 H 780.21 -0.537361 -3.68705 0
M  V30 8078 H 780.323 -2.35858 -4.17022 0
M  V30 8079 H 778.687 -1.16874 -2.26302 0
M  V30 8080 H 779.47 -2.81371 -1.96686 0
M  V30 8081 N 781.915 1.24427 -0.967243 0
M  V30 8082 C 782.845 2.2773 -0.515899 0
M  V30 8083 C 783.826 1.64197 0.444227 0
M  V30 8084 O 785.011 1.91193 0.340451 0
M  V30 8085 C 782.141 3.46751 0.195149 0
M  V30 8086 C 781.095 4.22548 -0.680953 0
M  V30 8087 C 780.421 5.34456 0.161561 0
M  V30 8088 C 781.721 4.83914 -1.96532 0
M  V30 8089 H 783.415 2.65735 -1.37933 0
M  V30 8090 H 780.961 1.27742 -0.664681 0
M  V30 8091 H 782.914 4.18153 0.522117 0
M  V30 8092 H 781.638 3.07771 1.09292 0
M  V30 8093 H 780.297 3.52946 -0.991186 0
M  V30 8094 H 779.945 4.91716 1.05947 0
M  V30 8095 H 779.645 5.86087 -0.421418 0
M  V30 8096 H 781.169 6.08685 0.483211 0
M  V30 8097 H 782.583 5.47392 -1.70396 0
M  V30 8098 H 780.98 5.45775 -2.49499 0
M  V30 8099 H 782.05 4.05393 -2.66053 0
M  V30 8100 N 783.393 0.737304 1.3929 0
M  V30 8101 C 784.621 0.296573 2.04763 0
M  V30 8102 C 785.036 -1.06941 1.55592 0
M  V30 8103 O 784.393 -1.67619 0.721822 0
M  V30 8104 C 784.444 0.291906 3.6032 0
M  V30 8105 O 784.165 1.60397 4.07682 0
M  V30 8106 C 785.666 -0.164708 4.42994 0
M  V30 8107 H 782.886 0.129251 0.658434 0
M  V30 8108 H 785.43 1.0016 1.78293 0
M  V30 8109 H 783.585 -0.364251 3.85684 0
M  V30 8110 H 783.999 1.51909 5.0202 0
M  V30 8111 H 785.473 -0.116814 5.51876 0
M  V30 8112 H 785.95 -1.21022 4.22197 0
M  V30 8113 H 786.556 0.461968 4.22784 0
M  V30 8114 N 784.871 -1.49948 0.485112 0
M  V30 8115 C 786.118 -2.02396 -0.0650059 0
M  V30 8116 C 786.446 -1.36606 -1.38452 0
M  V30 8117 O 785.701 -0.485476 -1.89583 0
M  V30 8118 C 786 -3.56282 -0.282434 0
M  V30 8119 C 785.666 -4.40625 0.957106 0
M  V30 8120 C 784.328 -4.63393 1.29692 0
M  V30 8121 C 786.68 -4.89799 1.78176 0
M  V30 8122 C 784.008 -5.3258 2.4612 0
M  V30 8123 C 786.36 -5.60266 2.93743 0
M  V30 8124 C 785.024 -5.81284 3.28124 0
M  V30 8125 H 784.294 -0.740618 -0.0237873 0
M  V30 8126 H 786.941 -1.80416 0.642044 0
M  V30 8127 H 785.246 -3.76853 -1.07186 0
M  V30 8128 H 786.943 -3.94442 -0.722276 0
M  V30 8129 H 783.533 -4.23133 0.682384 0
M  V30 8130 H 787.717 -4.7205 1.53239 0
M  V30 8131 H 782.973 -5.47059 2.73014 0
M  V30 8132 H 787.147 -5.97347 3.5798 0
M  V30 8133 H 784.774 -6.34671 4.18446 0
M  V30 8134 N 786.349 -0.21828 -1.56081 0
M  V30 8135 C 787.296 0.693189 -2.20144 0
M  V30 8136 C 788.266 1.19274 -1.15598 0
M  V30 8137 O 789.451 1.25243 -1.4394 0
M  V30 8138 C 786.591 1.89715 -2.88275 0
M  V30 8139 C 785.704 1.4368 -4.07407 0
M  V30 8140 C 784.839 2.59807 -4.63329 0
M  V30 8141 C 783.878 2.10492 -5.74769 0
M  V30 8142 N 783.015 3.1988 -6.24997 0
M  V30 8143 H 787.855 0.14016 -2.9767 0
M  V30 8144 H 785.392 0.0574292 -1.46988 0
M  V30 8145 H 787.35 2.60398 -3.25958 0
M  V30 8146 H 785.98 2.42311 -2.13273 0
M  V30 8147 H 785.032 0.625007 -3.7523 0
M  V30 8148 H 786.344 1.03517 -4.8794 0
M  V30 8149 H 785.498 3.38577 -5.03438 0
M  V30 8150 H 784.237 3.03256 -3.81951 0
M  V30 8151 H 783.242 1.30182 -5.34165 0
M  V30 8152 H 784.467 1.68045 -6.5798 0
M  V30 8153 H 782.413 3.62817 -5.46534 0
M  V30 8154 H 782.33 2.83958 -7.00645 0
M  V30 8155 H 783.598 3.98796 -6.69763 0
M  V30 8156 N 787.827 1.57504 0.0551401 0
M  V30 8157 C 789.104 1.79155 0.785048 0
M  V30 8158 C 789.484 0.809995 1.94942 0
M  V30 8159 O 788.832 -0.153432 2.27984 0
M  V30 8160 C 789.042 3.26134 1.24247 0
M  V30 8161 C 790.39 3.90419 1.66908 0
M  V30 8162 O 791.414 3.30126 1.33772 0
M  V30 8163 O 790.273 4.96523 2.28314 0
M  V30 8164 H 787.367 0.735825 0.377479 0
M  V30 8165 H 789.913 1.69666 0.0339285 0
M  V30 8166 H 788.685 3.89145 0.410089 0
M  V30 8167 H 788.308 3.40411 2.05441 0
M  V30 8168 N 789.305 -0.326896 1.54172 0
M  V30 8169 C 790.553 -1.06313 1.71878 0
M  V30 8170 C 790.874 -1.88652 0.493498 0
M  V30 8171 O 790.144 -1.89608 -0.492522 0
M  V30 8172 H 788.724 -0.39549 0.633716 0
M  V30 8173 H 791.386 -0.364139 1.91468 0
M  V30 8174 H 790.482 -1.73105 2.59694 0
M  V30 8175 N 790.784 -1.46188 -0.588786 0
M  V30 8176 C 792.012 -1.54743 -1.37339 0
M  V30 8177 C 792.427 -0.186446 -1.87877 0
M  V30 8178 O 791.784 0.815247 -1.63279 0
M  V30 8179 C 791.835 -2.54727 -2.56508 0
M  V30 8180 O 791.556 -3.85539 -2.08066 0
M  V30 8181 C 793.057 -2.73163 -3.49137 0
M  V30 8182 H 790.277 -0.523484 -0.419768 0
M  V30 8183 H 792.821 -1.91543 -0.716345 0
M  V30 8184 H 790.976 -2.20948 -3.18215 0
M  V30 8185 H 791.39 -4.39905 -2.85629 0
M  V30 8186 H 792.864 -3.47057 -4.2925 0
M  V30 8187 H 793.341 -1.79856 -4.00685 0
M  V30 8188 H 793.947 -3.08014 -2.9327 0
M  V30 8189 N 792.262 0.832906 -1.33792 0
M  V30 8190 C 793.225 1.92471 -1.24449 0
M  V30 8191 C 794.225 1.59981 -0.162085 0
M  V30 8192 O 795.415 1.69208 -0.414029 0
M  V30 8193 C 792.547 3.28278 -0.919044 0
M  V30 8194 H 793.74 2.0218 -2.21502 0
M  V30 8195 H 791.293 1.0257 -1.17936 0
M  V30 8196 H 792.028 3.24263 0.048738 0
M  V30 8197 H 791.813 3.53241 -1.70187 0
M  V30 8198 H 793.303 4.08253 -0.878576 0
M  V30 8199 N 793.74 1.17359 1.05189 0
M  V30 8200 C 794.67 0.91365 2.14883 0
M  V30 8201 C 795.651 -0.144365 1.69486 0
M  V30 8202 O 796.836 0.00587861 1.94199 0
M  V30 8203 C 793.966 0.426196 3.44675 0
M  V30 8204 C 792.92 1.4234 4.03638 0
M  V30 8205 C 792.246 0.793902 5.28773 0
M  V30 8206 C 793.546 2.7966 4.41121 0
M  V30 8207 H 795.24 1.831 2.36885 0
M  V30 8208 H 792.786 0.881781 1.13845 0
M  V30 8209 H 794.739 0.231767 4.20762 0
M  V30 8210 H 793.463 -0.526693 3.22325 0
M  V30 8211 H 792.122 1.60457 3.2962 0
M  V30 8212 H 791.77 -0.165824 5.02727 0
M  V30 8213 H 791.47 1.45959 5.69183 0
M  V30 8214 H 792.994 0.609747 6.07548 0
M  V30 8215 H 794.408 2.6526 5.08242 0
M  V30 8216 H 792.805 3.42807 4.92548 0
M  V30 8217 H 793.875 3.34068 3.51464 0
M  V30 8218 N 795.218 -1.23913 0.973828 0
M  V30 8219 C 796.181 -2.23367 0.51378 0
M  V30 8220 C 797.181 -1.55923 -0.39302 0
M  V30 8221 O 798.371 -1.73187 -0.187626 0
M  V30 8222 C 795.503 -3.39944 -0.255152 0
M  V30 8223 H 796.696 -2.65581 1.39307 0
M  V30 8224 H 794.249 -1.36632 0.759039 0
M  V30 8225 H 794.984 -3.03177 -1.15127 0
M  V30 8226 H 794.769 -3.90098 0.395673 0
M  V30 8227 H 796.259 -4.13749 -0.565842 0
M  V30 8228 N 796.696 -0.74468 -1.38897 0
M  V30 8229 C 797.626 -0.126355 -2.33158 0
M  V30 8230 C 798.607 0.713517 -1.54412 0
M  V30 8231 O 799.792 0.656523 -1.82766 0
M  V30 8232 C 796.922 0.774375 -3.38557 0
M  V30 8233 C 795.876 0.0379214 -4.27983 0
M  V30 8234 C 795.202 1.05631 -5.24162 0
M  V30 8235 C 796.502 -1.12523 -5.10035 0
M  V30 8236 H 798.196 -0.913744 -2.85116 0
M  V30 8237 H 795.742 -0.440847 -1.37086 0
M  V30 8238 H 797.695 1.21655 -4.03458 0
M  V30 8239 H 796.419 1.59399 -2.85061 0
M  V30 8240 H 795.078 -0.384733 -3.64576 0
M  V30 8241 H 794.726 1.86975 -4.66958 0
M  V30 8242 H 794.426 0.568261 -5.84846 0
M  V30 8243 H 795.95 1.49799 -5.9194 0
M  V30 8244 H 797.364 -0.761037 -5.68226 0
M  V30 8245 H 795.761 -1.54355 -5.79909 0
M  V30 8246 H 796.831 -1.94237 -4.44297 0
M  V30 8247 N 798.174 1.49689 -0.493057 0
M  V30 8248 C 799.399 2.07331 0.0535114 0
M  V30 8249 C 799.824 1.35196 1.30781 0
M  V30 8250 O 799.182 0.406246 1.7669 0
M  V30 8251 C 799.23 3.59364 0.29825 0
M  V30 8252 O 798.334 3.88819 1.37454 0
M  V30 8253 H 797.675 0.663612 -0.0227018 0
M  V30 8254 H 800.205 1.926 -0.690402 0
M  V30 8255 H 800.215 4.04515 0.532159 0
M  V30 8256 H 798.89 4.1128 -0.618207 0
M  V30 8257 H 797.467 3.55487 1.12621 0
M  V30 8258 N 799.652 0.226554 1.55963 0
M  V30 8259 C 800.892 -0.405574 2.00336 0
M  V30 8260 C 801.256 -1.56593 1.11097 0
M  V30 8261 O 802.457 -2.26441 1.44838 0
M  V30 8262 C 800.728 -0.82435 3.47763 0
M  V30 8263 S 802.287 -1.44988 4.14154 0
M  V30 8264 H 799.105 -0.128512 0.699289 0
M  V30 8265 H 801.707 0.337017 1.92573 0
M  V30 8266 H 800.411 0.0297636 4.10389 0
M  V30 8267 H 799.942 -1.59963 3.5941 0
M  V30 8268 H 801.957 -2.73897 4.13757 0
M  V30 8269 N 801.13 -1.57531 -0.0467866 0
M  V30 8270 C 802.063 -2.00734 -1.08541 0
M  V30 8271 C 803.041 -0.888508 -1.36177 0
M  V30 8272 O 804.225 -1.1529 -1.49132 0
M  V30 8273 C 801.352 -2.36535 -2.42423 0
M  V30 8274 C 800.398 -3.58681 -2.3076 0
M  V30 8275 S 801.231 -5.08536 -1.67785 0
M  V30 8276 C 802.387 -5.47562 -3.03194 0
M  V30 8277 H 802.62 -2.88516 -0.717345 0
M  V30 8278 H 800.153 -1.5226 -0.256181 0
M  V30 8279 H 802.111 -2.57834 -3.19424 0
M  V30 8280 H 800.772 -1.49236 -2.76382 0
M  V30 8281 H 799.965 -3.81329 -3.29552 0
M  V30 8282 H 799.567 -3.37142 -1.61899 0
M  V30 8283 H 801.859 -5.47163 -3.99524 0
M  V30 8284 H 802.802 -6.48082 -2.85299 0
M  V30 8285 H 803.21 -4.75042 -3.04951 0
M  V30 8286 N 802.608 0.318715 -1.54344 0
M  V30 8287 C 803.571 1.37545 -1.83342 0
M  V30 8288 C 804.571 1.445 -0.705444 0
M  V30 8289 O 805.761 1.44443 -0.973752 0
M  V30 8290 C 802.893 2.76225 -1.99781 0
M  V30 8291 H 804.086 1.13084 -2.77762 0
M  V30 8292 H 801.639 0.554457 -1.46135 0
M  V30 8293 H 802.374 3.05934 -1.07588 0
M  V30 8294 H 802.159 2.7257 -2.81865 0
M  V30 8295 H 803.649 3.52664 -2.23647 0
M  V30 8296 N 804.086 1.46499 0.581025 0
M  V30 8297 C 805.363 1.42372 1.34125 0
M  V30 8298 C 805.743 0.108073 2.10823 0
M  V30 8299 O 805.091 -0.910366 2.09582 0
M  V30 8300 C 805.301 2.65445 2.26583 0
M  V30 8301 C 806.649 3.11664 2.88359 0
M  V30 8302 O 807.673 2.66006 2.36896 0
M  V30 8303 O 806.532 3.90974 3.81839 0
M  V30 8304 H 803.626 0.566262 0.602724 0
M  V30 8305 H 806.172 1.58667 0.601903 0
M  V30 8306 H 804.944 3.52756 1.69348 0
M  V30 8307 H 804.567 2.51618 3.07854 0
M  V30 8308 N 805.565 -0.825799 1.34232 0
M  V30 8309 C 806.795 -1.61129 1.29309 0
M  V30 8310 C 807.203 -1.88714 -0.135589 0
M  V30 8311 O 806.546 -1.47703 -1.09222 0
M  V30 8312 C 806.608 -2.97866 2.01287 0
M  V30 8313 C 806.272 -2.9319 3.50555 0
M  V30 8314 C 807.269 -2.67978 4.45515 0
M  V30 8315 C 804.954 -3.12913 3.92926 0
M  V30 8316 C 806.948 -2.62536 5.80822 0
M  V30 8317 C 804.635 -3.07096 5.28333 0
M  V30 8318 C 805.633 -2.8194 6.22092 0
M  V30 8319 O 805.321 -2.7605 7.55018 0
M  V30 8320 H 805.053 -0.507652 0.446391 0
M  V30 8321 H 807.607 -1.03575 1.77374 0
M  V30 8322 H 805.837 -3.57327 1.47832 0
M  V30 8323 H 807.526 -3.58848 1.89691 0
M  V30 8324 H 808.292 -2.52478 4.14101 0
M  V30 8325 H 804.171 -3.3151 3.20347 0
M  V30 8326 H 807.715 -2.42821 6.53975 0
M  V30 8327 H 803.612 -3.22148 5.59367 0
M  V30 8328 H 804.38 -2.91798 7.6472 0
M  V30 8329 N 807.043 -1.17915 -1.04565 0
M  V30 8330 C 808.291 -0.969505 -1.77327 0
M  V30 8331 C 808.612 0.502569 -1.88412 0
M  V30 8332 O 807.882 1.36467 -1.40547 0
M  V30 8333 H 806.462 -0.355723 -0.656864 0
M  V30 8334 H 809.124 -1.48506 -1.26223 0
M  V30 8335 H 808.22 -1.40324 -2.78775 0
M  V30 8336 N 808.521 1.23394 -0.980386 0
M  V30 8337 C 809.484 2.23092 -0.525619 0
M  V30 8338 C 810.484 1.56129 0.384745 0
M  V30 8339 O 811.674 1.73284 0.178439 0
M  V30 8340 C 808.806 3.40074 0.23712 0
M  V30 8341 H 809.999 2.64839 -1.40714 0
M  V30 8342 H 807.552 1.36227 -0.766275 0
M  V30 8343 H 808.287 3.03783 1.13518 0
M  V30 8344 H 808.072 3.89883 -0.416356 0
M  V30 8345 H 809.562 4.14043 0.543892 0
M  V30 8346 N 809.999 0.752036 1.385 0
M  V30 8347 C 811.41 0.375385 1.82887 0
M  V30 8348 C 811.761 -1.09575 1.62751 0
M  V30 8349 O 810.886 -1.84685 1.12785 0
M  V30 8350 C 811.481 0.674563 3.32017 0
M  V30 8351 C 810.04 0.351208 3.74758 0
M  V30 8352 C 809.187 0.928531 2.61292 0
M  V30 8353 H 812.138 0.948313 1.27251 0
M  V30 8354 H 812.159 -0.0477781 3.8047 0
M  V30 8355 H 811.671 1.74533 3.46641 0
M  V30 8356 H 809.772 -0.713042 3.65714 0
M  V30 8357 H 809.885 0.845675 4.71577 0
M  V30 8358 H 808.249 0.354012 2.52228 0
M  V30 8359 H 809.032 2.0043 2.78716 0
M  V30 8360 N 811.477 -1.49425 0.500989 0
M  V30 8361 C 812.723 -2.02753 -0.0436 0
M  V30 8362 C 813.056 -1.37991 -1.36646 0
M  V30 8363 O 812.331 -0.515597 -1.87542 0
M  V30 8364 C 812.614 -3.59565 -0.19616 0
M  V30 8365 C 812.467 -4.34855 1.14982 0
M  V30 8366 C 813.786 -4.30014 -0.936795 0
M  V30 8367 H 810.905 -0.73686 -0.0143711 0
M  V30 8368 H 813.547 -1.78448 0.652397 0
M  V30 8369 H 811.697 -3.80405 -0.788959 0
M  V30 8370 H 813.369 -4.25512 1.7815 0
M  V30 8371 H 811.612 -3.97414 1.73911 0
M  V30 8372 H 812.283 -5.42933 0.996385 0
M  V30 8373 H 814.759 -4.1383 -0.434036 0
M  V30 8374 H 813.635 -5.39483 -1.01238 0
M  V30 8375 H 813.896 -3.95257 -1.9805 0
M  V30 8376 N 812.955 -0.234822 -1.55841 0
M  V30 8377 C 814.202 0.39326 -1.98645 0
M  V30 8378 C 814.53 1.58823 -1.12274 0
M  V30 8379 O 813.785 1.94954 -0.170731 0
M  V30 8380 C 814.084 0.858032 -3.46947 0
M  V30 8381 C 813.75 -0.227858 -4.50324 0
M  V30 8382 C 812.412 -0.526128 -4.78315 0
M  V30 8383 C 814.764 -0.961576 -5.12253 0
M  V30 8384 C 812.092 -1.5624 -5.65514 0
M  V30 8385 C 814.444 -1.98728 -6.00575 0
M  V30 8386 C 813.108 -2.29233 -6.26904 0
M  V30 8387 H 812.378 0.143904 -0.726892 0
M  V30 8388 H 815.025 -0.34012 -1.88455 0
M  V30 8389 H 813.33 1.67041 -3.54408 0
M  V30 8390 H 815.027 1.35407 -3.77447 0
M  V30 8391 H 811.617 0.0147624 -4.28597 0
M  V30 8392 H 815.801 -0.744388 -4.90686 0
M  V30 8393 H 811.057 -1.80422 -5.84173 0
M  V30 8394 H 815.231 -2.5608 -6.47608 0
M  V30 8395 H 812.858 -3.09671 -6.94268 0
M  V30 8396 N 814.433 1.57553 0.0384317 0
M  V30 8397 C 815.844 1.77258 0.586211 0
M  V30 8398 C 816.195 0.864706 1.76117 0
M  V30 8399 O 815.32 0.057141 2.16325 0
M  V30 8400 C 815.915 3.21453 1.07021 0
M  V30 8401 C 814.474 3.42387 1.56358 0
M  V30 8402 C 813.621 2.72801 0.497508 0
M  V30 8403 H 816.572 1.57585 -0.187796 0
M  V30 8404 H 816.593 3.27451 1.93794 0
M  V30 8405 H 816.105 3.87505 0.214851 0
M  V30 8406 H 814.206 2.81497 2.44111 0
M  V30 8407 H 814.319 4.50968 1.61754 0
M  V30 8408 H 812.683 2.36305 0.95038 0
M  V30 8409 H 813.466 3.41529 -0.348234 0
M  V30 8410 N 815.911 -0.310526 1.54511 0
M  V30 8411 C 817.158 -1.04691 1.73338 0
M  V30 8412 C 817.486 -1.87584 0.514038 0
M  V30 8413 O 816.741 -1.89096 -0.504119 0
M  V30 8414 C 817.04 -1.98942 2.96912 0
M  V30 8415 C 816.706 -1.321 4.31115 0
M  V30 8416 C 815.368 -1.13603 4.67598 0
M  V30 8417 C 817.72 -0.842362 5.14348 0
M  V30 8418 C 815.048 -0.459102 5.84901 0
M  V30 8419 C 817.4 -0.179202 6.32346 0
M  V30 8420 C 816.064 0.0178111 6.67498 0
M  V30 8421 H 815.334 -0.38309 0.634289 0
M  V30 8422 H 817.981 -0.322723 1.88761 0
M  V30 8423 H 816.286 -2.77856 2.76231 0
M  V30 8424 H 817.983 -2.55972 3.08674 0
M  V30 8425 H 814.573 -1.47502 4.02419 0
M  V30 8426 H 818.757 -0.973013 4.86668 0
M  V30 8427 H 814.013 -0.295385 6.10686 0
M  V30 8428 H 818.187 0.199619 6.96114 0
M  V30 8429 H 815.814 0.544356 7.58249 0
M  V30 8430 N 817.389 -1.46805 -0.573248 0
M  V30 8431 C 818.319 -1.60951 -1.69165 0
M  V30 8432 C 819.3 -0.45948 -1.63777 0
M  V30 8433 O 820.485 -0.68688 -1.81647 0
M  V30 8434 C 817.615 -1.60844 -3.07809 0
M  V30 8435 C 816.569 -2.74913 -3.28035 0
M  V30 8436 C 815.895 -2.59871 -4.67302 0
M  V30 8437 C 817.195 -4.16654 -3.14955 0
M  V30 8438 H 818.889 -2.54574 -1.57582 0
M  V30 8439 H 816.435 -1.22516 -0.756686 0
M  V30 8440 H 818.388 -1.69334 -3.85881 0
M  V30 8441 H 817.112 -0.637714 -3.20314 0
M  V30 8442 H 815.771 -2.65908 -2.52366 0
M  V30 8443 H 815.419 -1.60861 -4.76585 0
M  V30 8444 H 815.119 -3.36386 -4.81786 0
M  V30 8445 H 816.643 -2.70265 -5.4753 0
M  V30 8446 H 818.057 -4.26721 -3.82861 0
M  V30 8447 H 816.454 -4.93831 -3.40956 0
M  V30 8448 H 817.524 -4.36146 -2.11908 0
M  V30 8449 N 818.867 0.818669 -1.34668 0
M  V30 8450 C 819.83 1.9114 -1.26483 0
M  V30 8451 C 820.83 1.598 -0.179044 0
M  V30 8452 O 822.02 1.6876 -0.431952 0
M  V30 8453 C 819.152 3.27285 -0.95381 0
M  V30 8454 H 820.345 1.9982 -2.23634 0
M  V30 8455 H 817.898 1.01314 -1.19018 0
M  V30 8456 H 818.633 3.24297 0.0143428 0
M  V30 8457 H 818.418 3.51416 -1.73924 0
M  V30 8458 H 819.908 4.07299 -0.921827 0
M  V30 8459 N 820.346 1.18468 1.03938 0
M  V30 8460 C 821.595 0.975193 1.76558 0
M  V30 8461 C 821.908 -0.495978 1.89207 0
M  V30 8462 O 823.114 -0.824009 2.58694 0
M  V30 8463 C 821.57 1.69579 3.17444 0
M  V30 8464 C 821.178 3.20636 3.12884 0
M  V30 8465 C 822.922 1.56917 3.94433 0
M  V30 8466 C 820.829 3.8533 4.48636 0
M  V30 8467 H 819.759 0.361244 0.66183 0
M  V30 8468 H 822.41 1.41854 1.16403 0
M  V30 8469 H 820.792 1.18022 3.78004 0
M  V30 8470 H 821.966 3.79228 2.61768 0
M  V30 8471 H 820.281 3.33454 2.49394 0
M  V30 8472 H 822.878 2.02611 4.94826 0
M  V30 8473 H 823.221 0.521638 4.13019 0
M  V30 8474 H 823.754 2.05762 3.40451 0
M  V30 8475 H 820.493 4.90136 4.35255 0
M  V30 8476 H 820.013 3.31526 4.99851 0
M  V30 8477 H 821.692 3.88269 5.17549 0
M  V30 8478 N 821.824 -1.22873 0.986916 0
M  V30 8479 C 823.072 -1.91084 0.658121 0
M  V30 8480 C 823.393 -1.77304 -0.811675 0
M  V30 8481 O 822.663 -1.15649 -1.58121 0
M  V30 8482 H 821.243 -0.707251 0.240427 0
M  V30 8483 H 823.905 -1.49357 1.25213 0
M  V30 8484 H 823.001 -2.98373 0.915428 0
M  V30 8485 N 823.302 -0.75937 -1.38099 0
M  V30 8486 C 824.55 -0.317485 -1.99591 0
M  V30 8487 C 824.871 1.10628 -1.60581 0
M  V30 8488 O 824.141 1.7575 -0.865378 0
M  V30 8489 H 822.721 -0.114397 -0.738189 0
M  V30 8490 H 825.383 -0.974749 -1.68774 0
M  V30 8491 H 824.479 -0.385227 -3.09713 0
M  V30 8492 N 824.78 1.49157 -0.508906 0
M  V30 8493 C 826.01 2.06579 0.0293308 0
M  V30 8494 C 826.418 1.36852 1.30645 0
M  V30 8495 O 825.761 0.443079 1.78276 0
M  V30 8496 C 825.823 3.57838 0.345296 0
M  V30 8497 C 825.487 4.49302 -0.835256 0
M  V30 8498 C 826.484 4.90345 -1.72793 0
M  V30 8499 C 824.169 4.91494 -1.0363 0
M  V30 8500 C 826.163 5.72327 -2.80573 0
M  V30 8501 C 823.85 5.7325 -2.11726 0
M  V30 8502 C 824.848 6.13572 -3.00032 0
M  V30 8503 O 824.536 6.93691 -4.06261 0
M  V30 8504 H 824.268 0.675679 -0.0208193 0
M  V30 8505 H 826.822 1.9282 -0.707789 0
M  V30 8506 H 825.052 3.69634 1.13612 0
M  V30 8507 H 826.741 3.97467 0.823089 0
M  V30 8508 H 827.507 4.58388 -1.58446 0
M  V30 8509 H 823.386 4.59605 -0.358308 0
M  V30 8510 H 826.93 6.03719 -3.49527 0
M  V30 8511 H 822.827 6.0462 -2.26065 0
M  V30 8512 H 823.595 7.12011 -4.03711 0
M  V30 8513 N 826.258 0.243083 1.55714 0
M  V30 8514 C 827.205 -0.658078 2.21219 0
M  V30 8515 C 828.175 -1.1742 1.17481 0
M  V30 8516 O 829.36 -1.22937 1.45915 0
M  V30 8517 C 826.5 -1.85104 2.91257 0
M  V30 8518 C 825.613 -1.3718 4.09641 0
M  V30 8519 C 824.748 -2.52403 4.67404 0
M  V30 8520 C 823.787 -2.01321 5.78045 0
M  V30 8521 N 822.924 -3.09896 6.30007 0
M  V30 8522 H 827.764 -0.0927854 2.97856 0
M  V30 8523 H 825.301 -0.0340375 1.47061 0
M  V30 8524 H 827.259 -2.55179 3.3006 0
M  V30 8525 H 825.889 -2.38887 2.17101 0
M  V30 8526 H 824.941 -0.565232 3.76177 0
M  V30 8527 H 826.253 -0.957409 4.89525 0
M  V30 8528 H 825.407 -3.30525 5.08761 0
M  V30 8529 H 824.146 -2.97142 3.86728 0
M  V30 8530 H 823.151 -1.21667 5.36169 0
M  V30 8531 H 824.376 -1.57556 6.6057 0
M  V30 8532 H 822.322 -3.54077 5.52237 0
M  V30 8533 H 822.239 -2.72776 7.05074 0
M  V30 8534 H 823.507 -3.8809 6.76023 0
M  V30 8535 N 827.736 -1.57571 -0.0300757 0
M  V30 8536 C 828.984 -1.88852 -0.719666 0
M  V30 8537 C 829.305 -0.840645 -1.75949 0
M  V30 8538 O 828.575 0.125854 -1.95495 0
M  V30 8539 H 827.155 -0.696965 -0.268792 0
M  V30 8540 H 829.817 -1.949 0.00373285 0
M  V30 8541 H 828.913 -2.87695 -1.20987 0
M  V30 8542 N 829.214 0.302327 -1.54673 0
M  V30 8543 C 830.161 1.37282 -1.85532 0
M  V30 8544 C 831.131 1.50437 -0.704129 0
M  V30 8545 O 832.316 1.65317 -0.952627 0
M  V30 8546 C 829.456 2.73309 -2.10704 0
M  V30 8547 C 828.569 2.68614 -3.38335 0
M  V30 8548 C 827.704 3.96626 -3.53357 0
M  V30 8549 C 826.743 3.86324 -4.74784 0
M  V30 8550 N 825.88 5.06109 -4.86619 0
M  V30 8551 H 830.72 1.10265 -2.76849 0
M  V30 8552 H 828.257 0.533346 -1.37091 0
M  V30 8553 H 830.215 3.52414 -2.23294 0
M  V30 8554 H 828.845 2.98589 -1.22656 0
M  V30 8555 H 827.897 1.81381 -3.34373 0
M  V30 8556 H 829.209 2.56891 -4.27561 0
M  V30 8557 H 828.363 4.84168 -3.65604 0
M  V30 8558 H 827.102 4.11182 -2.62261 0
M  V30 8559 H 826.107 2.97166 -4.62572 0
M  V30 8560 H 827.332 3.73315 -5.67286 0
M  V30 8561 H 825.278 5.2113 -3.98446 0
M  V30 8562 H 825.195 4.96804 -5.69844 0
M  V30 8563 H 826.463 5.95306 -5.03221 0
M  V30 8564 N 830.692 1.47107 0.565454 0
M  V30 8565 C 831.969 1.43787 1.32607 0
M  V30 8566 C 832.349 0.130428 2.10697 0
M  V30 8567 O 831.697 -0.888086 2.10536 0
M  V30 8568 C 831.907 2.67833 2.23755 0
M  V30 8569 C 833.255 3.14704 2.85037 0
M  V30 8570 O 834.279 2.68503 2.34061 0
M  V30 8571 O 833.138 3.95002 3.77671 0
M  V30 8572 H 830.232 0.572623 0.596684 0
M  V30 8573 H 832.778 1.59296 0.58504 0
M  V30 8574 H 831.55 3.54532 1.65597 0
M  V30 8575 H 831.173 2.54869 3.05168 0
M  V30 8576 N 832.17 -0.811516 1.35101 0
M  V30 8577 C 833.4 -1.59749 1.31011 0
M  V30 8578 C 833.808 -1.88847 -0.115566 0
M  V30 8579 O 833.151 -1.48854 -1.07649 0
M  V30 8580 C 833.213 -2.95714 2.04435 0
M  V30 8581 C 832.877 -2.89456 3.53645 0
M  V30 8582 C 833.874 -2.63237 4.48333 0
M  V30 8583 C 831.559 -3.08728 3.96222 0
M  V30 8584 C 833.553 -2.56361 5.83573 0
M  V30 8585 C 831.24 -3.01475 5.3156 0
M  V30 8586 C 832.238 -2.75326 6.25048 0
M  V30 8587 O 831.926 -2.68026 7.57903 0
M  V30 8588 H 831.658 -0.502889 0.45175 0
M  V30 8589 H 834.212 -1.01687 1.78462 0
M  V30 8590 H 832.442 -3.55739 1.51613 0
M  V30 8591 H 834.131 -3.56816 1.93487 0
M  V30 8592 H 834.897 -2.48072 4.16756 0
M  V30 8593 H 830.776 -3.28094 3.23845 0
M  V30 8594 H 834.32 -2.35871 6.56514 0
M  V30 8595 H 830.217 -3.16197 5.62752 0
M  V30 8596 H 830.985 -2.8367 7.67772 0
M  V30 8597 N 833.648 -1.19017 -1.03309 0
M  V30 8598 C 834.873 -1.01598 -1.80811 0
M  V30 8599 C 835.298 0.430773 -1.83101 0
M  V30 8600 O 834.656 1.30946 -1.25391 0
M  V30 8601 C 834.704 -1.5845 -3.23923 0
M  V30 8602 O 833.808 -0.810972 -4.04348 0
M  V30 8603 H 833.149 -0.359398 -0.558327 0
M  V30 8604 H 835.679 -1.57945 -1.30055 0
M  V30 8605 H 835.689 -1.61486 -3.74682 0
M  V30 8606 H 834.364 -2.63752 -3.21571 0
M  V30 8607 H 832.941 -0.85353 -3.63 0
M  V30 8608 N 835.127 1.22348 -0.993418 0
M  V30 8609 C 836.037 2.27987 -0.553076 0
M  V30 8610 C 837.053 1.69378 0.398386 0
M  V30 8611 O 838.229 1.99648 0.26509 0
M  V30 8612 C 835.294 3.46475 0.124809 0
M  V30 8613 C 834.355 4.20399 -0.869682 0
M  V30 8614 C 833.588 5.33229 -0.224052 0
M  V30 8615 O 833.811 5.61885 0.981915 0
M  V30 8616 O 832.745 5.94685 -0.929174 0
M  V30 8617 H 836.571 2.67822 -1.43195 0
M  V30 8618 H 834.156 1.28525 -0.761694 0
M  V30 8619 H 836.038 4.18369 0.504496 0
M  V30 8620 H 834.713 3.08565 0.978243 0
M  V30 8621 H 833.62 3.50774 -1.30031 0
M  V30 8622 H 834.953 4.62191 -1.69233 0
M  V30 8623 N 836.605 0.766683 1.37694 0
M  V30 8624 C 837.568 0.155849 2.2867 0
M  V30 8625 C 838.568 -0.633509 1.47795 0
M  V30 8626 O 839.758 -0.457844 1.68076 0
M  V30 8627 C 836.89 -0.786965 3.31692 0
M  V30 8628 H 838.083 0.957748 2.84196 0
M  V30 8629 H 835.636 0.534554 1.46875 0
M  V30 8630 H 836.371 -1.61406 2.8128 0
M  V30 8631 H 836.156 -0.223182 3.91464 0
M  V30 8632 H 837.646 -1.20994 3.99688 0
M  V30 8633 N 838.083 -1.48885 0.516809 0
M  V30 8634 C 838.993 -2.33185 -0.257293 0
M  V30 8635 C 840.009 -1.4565 -0.951952 0
M  V30 8636 O 841.185 -1.78651 -0.929834 0
M  V30 8637 C 838.25 -3.21465 -1.29851 0
M  V30 8638 C 837.311 -4.24863 -0.615608 0
M  V30 8639 C 836.544 -5.08925 -1.60722 0
M  V30 8640 O 836.767 -4.9475 -2.83863 0
M  V30 8641 O 835.701 -5.90737 -1.15384 0
M  V30 8642 H 839.527 -3.00596 0.433131 0
M  V30 8643 H 837.112 -1.46792 0.277908 0
M  V30 8644 H 838.994 -3.76108 -1.90055 0
M  V30 8645 H 837.669 -2.5673 -1.97158 0
M  V30 8646 H 836.576 -3.74091 0.0265829 0
M  V30 8647 H 837.909 -4.92198 0.0152871 0
M  V30 8648 N 839.561 -0.251338 -1.55583 0
M  V30 8649 C 840.524 0.63305 -2.20284 0
M  V30 8650 C 841.524 1.09941 -1.17344 0
M  V30 8651 O 842.714 1.00341 -1.42399 0
M  V30 8652 C 839.846 1.8706 -2.84993 0
M  V30 8653 H 841.039 0.0684846 -2.99822 0
M  V30 8654 H 838.592 -0.00181653 -1.563 0
M  V30 8655 H 839.327 2.47629 -2.09405 0
M  V30 8656 H 839.112 1.54436 -3.60405 0
M  V30 8657 H 840.602 2.50004 -3.34496 0
M  V30 8658 N 841.039 1.57585 0.0217189 0
M  V30 8659 C 841.969 2.10073 1.01939 0
M  V30 8660 C 842.95 1.0049 1.37243 0
M  V30 8661 O 844.135 1.28055 1.45999 0
M  V30 8662 C 841.265 2.58618 2.31806 0
M  V30 8663 C 840.219 3.72531 2.10724 0
M  V30 8664 C 839.545 4.07309 3.46415 0
M  V30 8665 C 840.845 5.00672 1.48743 0
M  V30 8666 H 842.539 2.9368 0.582432 0
M  V30 8667 H 840.085 1.41277 0.278715 0
M  V30 8668 H 842.038 2.9396 3.01936 0
M  V30 8669 H 840.762 1.72104 2.77575 0
M  V30 8670 H 839.421 3.37549 1.43025 0
M  V30 8671 H 839.069 3.17851 3.89846 0
M  V30 8672 H 838.769 4.84042 3.33132 0
M  V30 8673 H 840.293 4.45192 4.17895 0
M  V30 8674 H 841.707 5.33925 2.088 0
M  V30 8675 H 840.104 5.82065 1.46013 0
M  V30 8676 H 841.174 4.82769 0.45408 0
M  V30 8677 N 842.517 -0.29412 1.54831 0
M  V30 8678 C 843.766 -1.02614 1.73647 0
M  V30 8679 C 844.079 -1.88193 0.533162 0
M  V30 8680 O 845.285 -2.64713 0.603275 0
M  V30 8681 C 843.741 -1.87417 3.07251 0
M  V30 8682 C 843.349 -1.06806 4.35082 0
M  V30 8683 C 845.093 -2.60176 3.35423 0
M  V30 8684 C 843 -1.90926 5.59733 0
M  V30 8685 H 841.93 -0.386834 0.647206 0
M  V30 8686 H 844.581 -0.282789 1.81308 0
M  V30 8687 H 842.963 -2.65765 2.93572 0
M  V30 8688 H 844.137 -0.330226 4.59615 0
M  V30 8689 H 842.452 -0.455979 4.13896 0
M  V30 8690 H 845.049 -3.23476 4.25755 0
M  V30 8691 H 845.392 -3.29365 2.54606 0
M  V30 8692 H 845.925 -1.88871 3.50103 0
M  V30 8693 H 842.664 -1.26194 6.43238 0
M  V30 8694 H 842.184 -2.62363 5.39375 0
M  V30 8695 H 843.863 -2.48807 5.97247 0
M  V30 8696 N 843.995 -1.47404 -0.557645 0
M  V30 8697 C 844.928 -1.54399 -1.68036 0
M  V30 8698 C 845.906 -0.396175 -1.577 0
M  V30 8699 O 847.09 -0.603911 -1.78564 0
M  V30 8700 C 844.217 -1.44611 -3.06277 0
M  V30 8701 C 843.263 -2.63889 -3.35059 0
M  V30 8702 S 844.096 -4.26086 -3.24362 0
M  V30 8703 C 845.252 -4.1885 -4.65097 0
M  V30 8704 H 845.485 -2.49384 -1.61849 0
M  V30 8705 H 843.018 -1.35597 -0.738429 0
M  V30 8706 H 844.976 -1.39651 -3.86015 0
M  V30 8707 H 843.637 -0.510114 -3.0993 0
M  V30 8708 H 842.83 -2.53103 -4.35838 0
M  V30 8709 H 842.432 -2.65969 -2.62938 0
M  V30 8710 H 844.724 -3.87077 -5.56037 0
M  V30 8711 H 845.667 -5.19714 -4.8094 0
M  V30 8712 H 846.075 -3.49717 -4.43123 0
M  V30 8713 N 845.473 0.80434 -1.35529 0
M  V30 8714 C 846.701 1.59283 -1.32048 0
M  V30 8715 C 847.116 1.88527 0.101556 0
M  V30 8716 O 846.473 1.48975 1.05417 0
M  V30 8717 C 846.524 2.92276 -2.12737 0
M  V30 8718 O 846.245 2.64299 -3.49396 0
M  V30 8719 C 847.746 3.86631 -2.16867 0
M  V30 8720 H 844.966 0.494523 -0.453528 0
M  V30 8721 H 847.51 0.999415 -1.78415 0
M  V30 8722 H 845.665 3.48125 -1.69964 0
M  V30 8723 H 846.079 3.4923 -3.91329 0
M  V30 8724 H 847.553 4.77053 -2.77712 0
M  V30 8725 H 848.03 4.23384 -1.16803 0
M  V30 8726 H 848.636 3.36717 -2.59811 0
M  V30 8727 N 846.951 1.19563 1.02676 0
M  V30 8728 C 848.198 0.999568 1.7611 0
M  V30 8729 C 848.526 -0.469432 1.8875 0
M  V30 8730 O 847.781 -1.36481 1.40255 0
M  V30 8731 C 848.08 1.61619 3.18769 0
M  V30 8732 C 847.746 3.11366 3.26132 0
M  V30 8733 C 846.408 3.52234 3.27848 0
M  V30 8734 C 848.76 4.07374 3.25109 0
M  V30 8735 C 846.088 4.87658 3.26201 0
M  V30 8736 C 848.44 5.42731 3.25002 0
M  V30 8737 C 847.104 5.83027 3.25017 0
M  V30 8738 H 846.374 0.365768 0.644434 0
M  V30 8739 H 849.021 1.48838 1.20497 0
M  V30 8740 H 847.326 1.04974 3.77476 0
M  V30 8741 H 849.023 1.43975 3.74262 0
M  V30 8742 H 845.613 2.78804 3.25525 0
M  V30 8743 H 849.797 3.76842 3.22961 0
M  V30 8744 H 845.053 5.18156 3.24537 0
M  V30 8745 H 849.227 6.16879 3.23161 0
M  V30 8746 H 846.854 6.87936 3.23494 0
M  V30 8747 N 848.429 -1.21819 0.999893 0
M  V30 8748 C 849.654 -1.95298 0.698094 0
M  V30 8749 C 850.079 -1.73273 -0.731982 0
M  V30 8750 O 849.437 -1.01634 -1.50134 0
M  V30 8751 C 849.485 -3.45922 1.01834 0
M  V30 8752 O 848.589 -4.12223 0.120801 0
M  V30 8753 H 847.93 -0.610729 0.260588 0
M  V30 8754 H 850.46 -1.5472 1.33876 0
M  V30 8755 H 850.47 -3.96471 0.963074 0
M  V30 8756 H 849.145 -3.61278 2.06037 0
M  V30 8757 H 847.722 -3.72177 0.232153 0
M  V30 8758 N 849.908 -0.773975 -1.37286 0
M  V30 8759 C 850.838 -0.175782 -2.32837 0
M  V30 8760 C 851.819 0.680603 -1.5589 0
M  V30 8761 O 853.004 0.617607 -1.84117 0
M  V30 8762 C 850.134 0.702388 -3.40123 0
M  V30 8763 C 849.088 -0.0528687 -4.27967 0
M  V30 8764 C 848.414 0.944891 -5.26285 0
M  V30 8765 C 849.714 -1.23316 -5.07534 0
M  V30 8766 H 851.408 -0.974016 -2.83114 0
M  V30 8767 H 848.954 -0.469826 -1.3612 0
M  V30 8768 H 850.907 1.13069 -4.05947 0
M  V30 8769 H 849.631 1.53316 -2.88378 0
M  V30 8770 H 848.29 -0.461978 -3.63678 0
M  V30 8771 H 847.938 1.77028 -4.70819 0
M  V30 8772 H 847.638 0.444079 -5.8592 0
M  V30 8773 H 849.162 1.37209 -5.94984 0
M  V30 8774 H 850.576 -0.881395 -5.66484 0
M  V30 8775 H 848.973 -1.66621 -5.76504 0
M  V30 8776 H 850.043 -2.03617 -4.40077 0
M  V30 8777 N 851.386 1.48609 -0.524698 0
M  V30 8778 C 852.334 2.31205 0.254398 0
M  V30 8779 C 853.328 1.40894 0.940491 0
M  V30 8780 O 854.534 1.57827 0.865478 0
M  V30 8781 H 850.909 0.745199 0.100907 0
M  V30 8782 H 852.88 2.94804 -0.461876 0
M  V30 8783 C 851.629 3.2282 1.2916 0
M  V30 8784 H 850.952 3.92255 0.773074 0
M  V30 8785 H 852.392 3.83508 1.80825 0
M  V30 8786 C 850.851 2.4406 2.32242 0
M  V30 8787 O 851.381 2.16163 3.3858 0
M  V30 8788 N 849.587 2.05651 2.05319 0
M  V30 8789 H 849.134 2.28539 1.18861 0
M  V30 8790 H 849.092 1.53265 2.74513 0
M  V30 8791 N 852.864 0.259585 1.55447 0
M  V30 8792 C 853.812 -0.6507 2.23313 0
M  V30 8793 C 854.806 -1.17014 1.22491 0
M  V30 8794 O 856.012 -1.12557 1.40467 0
M  V30 8795 H 852.387 -0.228354 0.71649 0
M  V30 8796 H 854.358 -0.0553039 2.98349 0
M  V30 8797 C 853.107 -1.83081 2.95596 0
M  V30 8798 H 852.43 -1.44027 3.72956 0
M  V30 8799 H 853.87 -2.44469 3.46426 0
M  V30 8800 C 852.329 -2.70976 2.00184 0
M  V30 8801 O 852.859 -3.70882 1.54304 0
M  V30 8802 N 851.065 -2.37813 1.67014 0
M  V30 8803 H 850.612 -1.5662 2.04519 0
M  V30 8804 H 850.57 -2.96896 1.03443 0
M  V30 8805 N 854.342 -1.57594 -0.0133615 0
M  V30 8806 C 855.572 -1.93969 -0.711295 0
M  V30 8807 C 855.98 -0.859084 -1.68572 0
M  V30 8808 O 855.323 0.171842 -1.82894 0
M  V30 8809 C 855.385 -3.2625 -1.51001 0
M  V30 8810 C 855.049 -4.51628 -0.698645 0
M  V30 8811 C 856.046 -5.19899 0.00791185 0
M  V30 8812 C 853.731 -4.98095 -0.648553 0
M  V30 8813 C 855.725 -6.32928 0.753691 0
M  V30 8814 C 853.412 -6.11017 0.10096 0
M  V30 8815 C 854.41 -6.78289 0.800828 0
M  V30 8816 O 854.098 -7.89048 1.53814 0
M  V30 8817 H 853.83 -0.6445 -0.203951 0
M  V30 8818 H 856.384 -2.05378 0.0298267 0
M  V30 8819 H 854.614 -3.11211 -2.29531 0
M  V30 8820 H 856.303 -3.47835 -2.09202 0
M  V30 8821 H 857.069 -4.84995 -0.0217192 0
M  V30 8822 H 852.948 -4.45568 -1.18282 0
M  V30 8823 H 856.492 -6.85371 1.3005 0
M  V30 8824 H 852.389 -6.45364 0.132459 0
M  V30 8825 H 853.157 -8.05492 1.45345 0
M  V30 8826 N 855.82 0.285905 -1.54985 0
M  V30 8827 C 857.231 0.857869 -1.65824 0
M  V30 8828 C 857.582 1.87531 -0.576763 0
M  V30 8829 O 856.707 2.14528 0.284016 0
M  V30 8830 C 857.302 1.56277 -3.00604 0
M  V30 8831 C 855.861 2.08294 -3.13513 0
M  V30 8832 C 855.008 0.920633 -2.61571 0
M  V30 8833 H 857.959 0.0625463 -1.58577 0
M  V30 8834 H 857.98 2.42912 -2.92872 0
M  V30 8835 H 857.492 0.822017 -3.79295 0
M  V30 8836 H 855.593 2.8537 -2.39572 0
M  V30 8837 H 855.706 2.3071 -4.19892 0
M  V30 8838 H 854.07 1.31043 -2.18403 0
M  V30 8839 H 854.853 0.193594 -3.42754 0
M  V30 8840 N 857.298 1.47698 0.54982 0
M  V30 8841 C 858.261 1.60282 1.63837 0
M  V30 8842 C 859.261 0.477394 1.5355 0
M  V30 8843 O 860.451 0.742665 1.57576 0
M  V30 8844 C 857.583 1.55431 3.03404 0
M  V30 8845 H 858.776 2.57325 1.54026 0
M  V30 8846 H 856.329 1.35999 0.770329 0
M  V30 8847 H 857.064 0.597912 3.1874 0
M  V30 8848 H 856.849 2.37116 3.12279 0
M  V30 8849 H 858.339 1.6739 3.82584 0
M  V30 8850 N 858.776 -0.797141 1.35954 0
M  V30 8851 C 860.024 -1.55161 1.29497 0
M  V30 8852 C 860.345 -1.94582 -0.127659 0
M  V30 8853 O 859.615 -1.64343 -1.06622 0
M  V30 8854 H 858.195 -0.575413 0.47635 0
M  V30 8855 H 860.857 -0.950282 1.70164 0
M  V30 8856 H 859.953 -2.46272 1.9172 0
M  V30 8857 N 860.254 -1.20106 -1.0204 0
M  V30 8858 C 861.531 -0.918029 -1.72718 0
M  V30 8859 C 861.911 0.574163 -2.03142 0
M  V30 8860 O 861.259 1.53476 -1.69285 0
M  V30 8861 C 861.469 -1.78698 -2.9978 0
M  V30 8862 C 862.817 -2.02648 -3.7312 0
M  V30 8863 O 863.841 -1.75919 -3.09727 0
M  V30 8864 O 862.7 -2.47767 -4.87107 0
M  V30 8865 H 859.794 -0.342904 -0.752559 0
M  V30 8866 H 862.34 -1.30961 -1.07923 0
M  V30 8867 H 861.112 -2.79757 -2.7359 0
M  V30 8868 H 860.735 -1.39522 -3.72316 0
M  V30 8869 N 861.732 1.21287 -1.00634 0
M  V30 8870 C 863.143 1.72136 -0.722914 0
M  V30 8871 C 863.494 1.8091 0.759338 0
M  V30 8872 O 862.619 1.46458 1.59308 0
M  V30 8873 C 863.214 3.12633 -1.30561 0
M  V30 8874 C 861.773 3.60833 -1.07127 0
M  V30 8875 C 860.92 2.38326 -1.4176 0
M  V30 8876 H 863.871 1.06445 -1.17708 0
M  V30 8877 H 863.892 3.74174 -0.690937 0
M  V30 8878 H 863.404 3.06215 -2.38441 0
M  V30 8879 H 861.505 3.72599 -0.00968671 0
M  V30 8880 H 861.618 4.46226 -1.74411 0
M  V30 8881 H 859.982 2.40575 -0.836412 0
M  V30 8882 H 860.765 2.34558 -2.50674 0
M  V30 8883 N 863.21 0.781244 1.36873 0
M  V30 8884 C 864.626 0.461968 1.52768 0
M  V30 8885 C 864.826 -1.02099 1.73719 0
M  V30 8886 O 863.882 -1.80665 1.76399 0
M  V30 8887 C 865.195 1.2853 2.71846 0
M  V30 8888 C 866.743 1.27817 2.85713 0
M  V30 8889 C 867.218 2.08506 4.07786 0
M  V30 8890 N 868.709 2.05909 4.14917 0
M  V30 8891 C 869.444 2.65118 5.08429 0
M  V30 8892 N 868.94 3.33152 6.07438 0
M  V30 8893 N 870.733 2.54896 5.00983 0
M  V30 8894 H 862.884 1.74198 1.21527 0
M  V30 8895 H 865.147 0.740027 0.592506 0
M  V30 8896 H 864.853 2.3366 2.62861 0
M  V30 8897 H 864.727 0.920981 3.65784 0
M  V30 8898 H 867.114 0.234817 2.94164 0
M  V30 8899 H 867.195 1.68219 1.92707 0
M  V30 8900 H 866.839 3.12867 4.00096 0
M  V30 8901 H 866.769 1.65479 4.99924 0
M  V30 8902 H 869.26 1.56386 3.44023 0
M  V30 8903 H 869.573 3.75681 6.75339 0
M  V30 8904 H 867.918 3.37253 6.07689 0
M  V30 8905 H 871.109 2.01352 4.22581 0
M  V30 8906 H 871.282 3.01332 5.73675 0
M  V30 8907 N 864.689 -1.48329 0.532571 0
M  V30 8908 C 865.619 -2.32485 -0.217511 0
M  V30 8909 C 866.6 -1.42255 -0.932598 0
M  V30 8910 O 867.785 -1.7114 -0.917873 0
M  V30 8911 C 864.915 -3.23509 -1.26329 0
M  V30 8912 C 863.869 -4.22784 -0.666191 0
M  V30 8913 C 863.195 -5.0296 -1.81482 0
M  V30 8914 C 864.495 -5.21031 0.363813 0
M  V30 8915 H 866.189 -2.95445 0.485014 0
M  V30 8916 H 863.735 -1.42075 0.234694 0
M  V30 8917 H 865.688 -3.81211 -1.79601 0
M  V30 8918 H 864.412 -2.58554 -1.99543 0
M  V30 8919 H 863.071 -3.66272 -0.15498 0
M  V30 8920 H 862.719 -4.34427 -2.5354 0
M  V30 8921 H 862.419 -5.70154 -1.4212 0
M  V30 8922 H 863.943 -5.63514 -2.35126 0
M  V30 8923 H 865.357 -5.73241 -0.0819079 0
M  V30 8924 H 863.754 -5.96292 0.674956 0
M  V30 8925 H 864.824 -4.6801 1.26865 0
M  V30 8926 N 866.167 -0.267825 -1.55308 0
M  V30 8927 C 867.13 0.60965 -2.20943 0
M  V30 8928 C 868.13 1.0869 -1.18504 0
M  V30 8929 O 869.32 0.988248 -1.43455 0
M  V30 8930 C 866.452 1.84027 -2.86961 0
M  V30 8931 H 867.645 0.0366806 -2.99878 0
M  V30 8932 H 865.198 -0.0183941 -1.56289 0
M  V30 8933 H 865.933 2.45394 -2.1202 0
M  V30 8934 H 865.718 1.50605 -3.62023 0
M  V30 8935 H 867.208 2.46442 -3.37129 0
M  V30 8936 N 867.645 1.57599 0.00500368 0
M  V30 8937 C 868.577 2.04949 1.02609 0
M  V30 8938 C 869.59 0.966507 1.31006 0
M  V30 8939 O 870.779 1.2434 1.2807 0
M  V30 8940 C 867.879 2.43023 2.36206 0
M  V30 8941 C 867.052 3.73993 2.26821 0
M  V30 8942 C 866.111 3.9899 3.43065 0
M  V30 8943 O 865.137 4.69725 3.21477 0
M  V30 8944 N 866.339 3.46496 4.65748 0
M  V30 8945 H 869.104 2.93167 0.622336 0
M  V30 8946 H 866.665 1.60752 0.192488 0
M  V30 8947 H 868.657 2.56863 3.12735 0
M  V30 8948 H 867.227 1.60349 2.68341 0
M  V30 8949 H 866.447 3.70277 1.35235 0
M  V30 8950 H 867.735 4.59865 2.17719 0
M  V30 8951 H 867.133 2.89206 4.86186 0
M  V30 8952 H 865.69 3.65675 5.3956 0
M  V30 8953 N 869.123 -0.277682 1.55134 0
M  V30 8954 C 870.086 -1.32635 1.86924 0
M  V30 8955 C 871.086 -1.42578 0.743507 0
M  V30 8956 O 872.276 -1.4181 1.01171 0
M  V30 8957 C 869.408 -2.70832 2.07034 0
M  V30 8958 H 870.601 -1.0568 2.80663 0
M  V30 8959 H 868.154 -0.515517 1.47554 0
M  V30 8960 H 868.889 -3.02974 1.15661 0
M  V30 8961 H 868.674 -2.65001 2.88993 0
M  V30 8962 H 870.164 -3.46611 2.32918 0
M  V30 8963 N 870.601 -1.47988 -0.541979 0
M  V30 8964 C 871.548 -1.61615 -1.6477 0
M  V30 8965 C 872.518 -0.458602 -1.59644 0
M  V30 8966 O 873.703 -0.680585 -1.78249 0
M  V30 8967 C 870.843 -1.65066 -3.03063 0
M  V30 8968 C 869.956 -2.91845 -3.18513 0
M  V30 8969 C 869.091 -2.86534 -4.47294 0
M  V30 8970 C 868.13 -4.0807 -4.5623 0
M  V30 8971 N 867.267 -4.00905 -5.76385 0
M  V30 8972 H 872.107 -2.56046 -1.52461 0
M  V30 8973 H 869.644 -1.26989 -0.742449 0
M  V30 8974 H 871.602 -1.65049 -3.83164 0
M  V30 8975 H 870.232 -0.74136 -3.14171 0
M  V30 8976 H 869.284 -3.01661 -2.31743 0
M  V30 8977 H 870.596 -3.81804 -3.20978 0
M  V30 8978 H 869.75 -2.84851 -5.35672 0
M  V30 8979 H 868.489 -1.94283 -4.47332 0
M  V30 8980 H 867.494 -4.10041 -3.66261 0
M  V30 8981 H 868.719 -5.01465 -4.5794 0
M  V30 8982 H 866.665 -3.11467 -5.77342 0
M  V30 8983 H 866.582 -4.84557 -5.80293 0
M  V30 8984 H 867.85 -4.03263 -6.67083 0
M  V30 8985 N 872.079 0.78992 -1.36375 0
M  V30 8986 C 873.009 1.91683 -1.33341 0
M  V30 8987 C 873.99 1.68861 -0.204965 0
M  V30 8988 O 875.175 1.89982 -0.402531 0
M  V30 8989 C 872.305 3.28696 -1.12143 0
M  V30 8990 C 871.259 3.66041 -2.21806 0
M  V30 8991 C 870.585 5.01399 -1.85751 0
M  V30 8992 C 871.885 3.74677 -3.63888 0
M  V30 8993 H 873.579 1.94478 -2.27637 0
M  V30 8994 H 871.125 0.934271 -1.09578 0
M  V30 8995 H 873.078 4.07151 -1.08656 0
M  V30 8996 H 871.802 3.26287 -0.142974 0
M  V30 8997 H 870.461 2.89883 -2.24418 0
M  V30 8998 H 870.109 4.9551 -0.864817 0
M  V30 8999 H 869.809 5.27355 -2.59173 0
M  V30 9000 H 871.333 5.82274 -1.83819 0
M  V30 9001 H 872.747 4.43324 -3.63506 0
M  V30 9002 H 871.144 4.12118 -4.3621 0
M  V30 9003 H 872.214 2.75795 -3.9883 0
M  V30 9004 N 873.557 1.20646 1.01402 0
M  V30 9005 C 874.803 1.02974 1.75408 0
M  V30 9006 C 875.158 -0.433294 1.87458 0
M  V30 9007 O 874.451 -1.31741 1.39122 0
M  V30 9008 C 874.645 1.64991 3.17037 0
M  V30 9009 C 874.474 3.17174 3.18796 0
M  V30 9010 C 873.244 3.86165 3.2589 0
M  V30 9011 C 875.442 4.14369 3.04636 0
M  V30 9012 N 873.424 5.25614 3.1718 0
M  V30 9013 C 874.795 5.4051 3.03724 0
M  V30 9014 C 876.85 4.05534 2.88872 0
M  V30 9015 C 875.553 6.58836 2.88664 0
M  V30 9016 C 877.579 5.23486 2.75166 0
M  V30 9017 C 876.941 6.48535 2.74922 0
M  V30 9018 H 873.04 0.431068 0.65246 0
M  V30 9019 H 875.624 1.52858 1.20593 0
M  V30 9020 H 873.795 1.17688 3.70141 0
M  V30 9021 H 875.527 1.40612 3.79487 0
M  V30 9022 H 872.282 3.37038 3.32719 0
M  V30 9023 H 872.706 5.98625 3.16192 0
M  V30 9024 H 877.348 3.09661 2.87872 0
M  V30 9025 H 875.066 7.5488 2.88413 0
M  V30 9026 H 878.652 5.18464 2.63982 0
M  V30 9027 H 877.532 7.3827 2.64439 0
M  V30 9028 N 875.035 -1.20752 1.01276 0
M  V30 9029 C 875.945 -2.27079 0.589277 0
M  V30 9030 C 876.961 -1.6999 -0.371389 0
M  V30 9031 O 878.137 -2.00044 -0.233294 0
M  V30 9032 C 875.202 -3.4663 -0.0696715 0
M  V30 9033 C 874.263 -4.18962 0.936454 0
M  V30 9034 C 873.496 -5.32806 0.308856 0
M  V30 9035 O 873.719 -5.63376 -0.8924 0
M  V30 9036 O 872.653 -5.93131 1.02367 0
M  V30 9037 H 876.479 -2.6551 1.47438 0
M  V30 9038 H 874.064 -1.27297 0.782045 0
M  V30 9039 H 875.946 -4.19119 -0.437873 0
M  V30 9040 H 874.621 -3.10082 -0.929029 0
M  V30 9041 H 873.528 -3.48661 1.35595 0
M  V30 9042 H 874.861 -4.59441 1.76565 0
M  V30 9043 N 876.513 -0.788492 -1.36457 0
M  V30 9044 C 877.423 -0.187385 -2.3385 0
M  V30 9045 C 878.439 0.659984 -1.60998 0
M  V30 9046 O 879.615 0.575986 -1.92988 0
M  V30 9047 C 876.68 0.668525 -3.40194 0
M  V30 9048 C 875.741 -0.197234 -4.28847 0
M  V30 9049 C 874.974 0.61792 -5.30111 0
M  V30 9050 O 875.197 1.85396 -5.3943 0
M  V30 9051 O 874.131 0.0183016 -6.01897 0
M  V30 9052 H 877.957 -0.992617 -2.87021 0
M  V30 9053 H 875.542 -0.549934 -1.3891 0
M  V30 9054 H 877.424 1.15663 -4.05216 0
M  V30 9055 H 876.099 1.45166 -2.89324 0
M  V30 9056 H 875.006 -0.73207 -3.66867 0
M  V30 9057 H 876.339 -0.943863 -4.83065 0
M  V30 9058 N 877.991 1.48044 -0.54043 0
M  V30 9059 C 878.954 2.28273 0.205966 0
M  V30 9060 C 879.954 1.35983 0.858209 0
M  V30 9061 O 881.144 1.58776 0.716651 0
M  V30 9062 C 878.276 3.15174 1.29917 0
M  V30 9063 H 879.469 2.95727 -0.498555 0
M  V30 9064 H 877.022 1.53457 -0.296745 0
M  V30 9065 H 877.757 2.52374 2.03661 0
M  V30 9066 H 877.542 3.83074 0.836475 0
M  V30 9067 H 879.032 3.75666 1.82387 0
M  V30 9068 N 879.47 0.276058 1.55163 0
M  V30 9069 C 880.717 -0.340455 1.99618 0
M  V30 9070 C 881.045 -1.5579 1.16446 0
M  V30 9071 O 880.3 -1.94433 0.222359 0
M  V30 9072 C 880.599 -0.765744 3.491 0
M  V30 9073 C 880.265 0.347174 4.49561 0
M  V30 9074 C 878.927 0.65276 4.76752 0
M  V30 9075 C 881.279 1.09705 5.09523 0
M  V30 9076 C 878.607 1.71179 5.61173 0
M  V30 9077 C 880.959 2.14581 5.95095 0
M  V30 9078 C 879.623 2.45773 6.20606 0
M  V30 9079 H 878.893 -0.124581 0.730452 0
M  V30 9080 H 881.54 0.389966 1.87487 0
M  V30 9081 H 879.845 -1.57585 3.58712 0
M  V30 9082 H 881.542 -1.25352 3.80904 0
M  V30 9083 H 878.132 0.0988779 4.28486 0
M  V30 9084 H 882.316 0.874223 4.8854 0
M  V30 9085 H 877.572 1.95846 5.79184 0
M  V30 9086 H 881.746 2.7316 6.40591 0
M  V30 9087 H 879.373 3.27969 6.85813 0
M  V30 9088 N 880.948 -1.576 0.00335426 0
M  V30 9089 C 881.878 -2.11668 -0.985839 0
M  V30 9090 C 882.859 -1.02661 -1.35627 0
M  V30 9091 O 884.044 -1.30361 -1.43943 0
M  V30 9092 C 881.174 -2.62273 -2.27662 0
M  V30 9093 C 880.128 -3.75837 -2.0477 0
M  V30 9094 C 879.454 -4.12769 -3.39891 0
M  V30 9095 C 880.754 -5.02975 -1.40759 0
M  V30 9096 H 882.448 -2.9457 -0.535637 0
M  V30 9097 H 879.994 -1.41702 -0.256204 0
M  V30 9098 H 881.947 -2.98727 -2.97221 0
M  V30 9099 H 880.671 -1.76498 -2.74802 0
M  V30 9100 H 879.33 -3.39782 -1.37636 0
M  V30 9101 H 878.978 -3.24013 -3.8474 0
M  V30 9102 H 878.678 -4.89281 -3.25389 0
M  V30 9103 H 880.202 -4.51784 -4.1076 0
M  V30 9104 H 881.616 -5.37179 -2.00279 0
M  V30 9105 H 880.013 -5.84315 -1.36734 0
M  V30 9106 H 881.083 -4.83431 -0.377218 0
M  V30 9107 N 882.426 0.269451 -1.5528 0
M  V30 9108 C 883.336 1.35511 -1.91505 0
M  V30 9109 C 884.352 1.53854 -0.812712 0
M  V30 9110 O 885.528 1.67912 -1.1121 0
M  V30 9111 C 882.593 2.6937 -2.18267 0
M  V30 9112 C 881.654 2.59743 -3.41807 0
M  V30 9113 C 880.887 3.87219 -3.67283 0
M  V30 9114 O 881.11 4.88066 -2.95208 0
M  V30 9115 O 880.044 3.87209 -4.60818 0
M  V30 9116 H 883.87 1.07785 -2.8393 0
M  V30 9117 H 881.455 0.468282 -1.41871 0
M  V30 9118 H 883.337 3.48513 -2.36889 0
M  V30 9119 H 882.012 2.96874 -1.29024 0
M  V30 9120 H 880.919 1.78964 -3.28516 0
M  V30 9121 H 882.252 2.37188 -4.3128 0
M  V30 9122 N 883.904 1.48273 0.534124 0
M  V30 9123 C 884.814 1.65162 1.66609 0
M  V30 9124 C 885.83 0.534177 1.65598 0
M  V30 9125 O 887.006 0.804715 1.84625 0
M  V30 9126 C 884.071 1.68354 3.03081 0
M  V30 9127 C 883.132 2.91696 3.1498 0
M  V30 9128 C 882.365 2.94725 4.44941 0
M  V30 9129 O 882.588 2.06285 5.31792 0
M  V30 9130 O 881.522 3.8685 4.61119 0
M  V30 9131 H 885.348 2.60991 1.55298 0
M  V30 9132 H 882.933 1.31626 0.706749 0
M  V30 9133 H 884.815 1.72998 3.84252 0
M  V30 9134 H 883.49 0.756978 3.14725 0
M  V30 9135 H 882.397 2.92586 2.33119 0
M  V30 9136 H 883.73 3.83722 3.0825 0
M  V30 9137 N 885.382 -0.782676 1.36792 0
M  V30 9138 C 886.315 -1.90241 1.2603 0
M  V30 9139 C 887.293 -1.61969 0.143055 0
M  V30 9140 O 888.477 -1.85843 0.315366 0
M  V30 9141 C 885.604 -3.25218 0.946082 0
M  V30 9142 C 884.65 -3.72414 2.0787 0
M  V30 9143 S 885.483 -3.87376 3.69729 0
M  V30 9144 C 886.639 -5.25219 3.40435 0
M  V30 9145 H 886.872 -1.99079 2.20805 0
M  V30 9146 H 884.405 -0.942625 1.22286 0
M  V30 9147 H 886.363 -4.03183 0.771612 0
M  V30 9148 H 885.024 -3.14096 0.0159991 0
M  V30 9149 H 884.217 -4.7024 1.81358 0
M  V30 9150 H 883.819 -3.01519 2.21274 0
M  V30 9151 H 886.111 -6.10025 2.94746 0
M  V30 9152 H 887.054 -5.56738 4.37549 0
M  V30 9153 H 887.462 -4.92638 2.75622 0
M  V30 9154 N 886.86 -1.21182 -1.00761 0
M  V30 9155 C 888.276 -0.968607 -1.26847 0
M  V30 9156 C 888.476 0.346561 -1.98497 0
M  V30 9157 O 887.532 1.07287 -2.28573 0
M  V30 9158 C 888.845 -2.1574 -2.09467 0
M  V30 9159 C 890.393 -2.19937 -2.22703 0
M  V30 9160 C 890.868 -3.38328 -3.08704 0
M  V30 9161 N 892.359 -3.38398 -3.16293 0
M  V30 9162 C 893.094 -4.26653 -3.83086 0
M  V30 9163 N 892.59 -5.25101 -4.5193 0
M  V30 9164 N 894.383 -4.14469 -3.797 0
M  V30 9165 H 886.534 -2.05763 -0.526816 0
M  V30 9166 H 888.797 -0.90087 -0.29519 0
M  V30 9167 H 888.503 -3.11034 -1.64167 0
M  V30 9168 H 888.377 -2.14584 -3.10216 0
M  V30 9169 H 890.764 -1.25201 -2.67224 0
M  V30 9170 H 890.845 -2.25139 -1.21433 0
M  V30 9171 H 890.489 -4.33356 -2.64886 0
M  V30 9172 H 890.419 -3.30364 -4.10082 0
M  V30 9173 H 892.91 -2.67149 -2.67282 0
M  V30 9174 H 893.223 -5.8875 -5.00592 0
M  V30 9175 H 891.568 -5.29029 -4.50726 0
M  V30 9176 H 894.759 -3.3682 -3.25069 0
M  V30 9177 H 894.932 -4.83458 -4.31477 0
M  V30 9178 N 888.338 1.20213 -1.01915 0
M  V30 9179 C 889.301 2.21307 -0.596327 0
M  V30 9180 C 890.301 1.57274 0.334879 0
M  V30 9181 O 891.491 1.73764 0.12322 0
M  V30 9182 C 888.623 3.40657 0.128808 0
M  V30 9183 H 889.816 2.60228 -1.49068 0
M  V30 9184 H 887.369 1.33721 -0.809226 0
M  V30 9185 H 888.104 3.07241 1.03796 0
M  V30 9186 H 887.889 3.88361 -0.540183 0
M  V30 9187 H 889.379 4.15564 0.411892 0
M  V30 9188 N 889.816 0.795718 1.36037 0
M  V30 9189 C 891.063 0.371024 1.99072 0
M  V30 9190 C 891.391 -1.05896 1.63145 0
M  V30 9191 O 890.646 -1.7474 0.881163 0
M  V30 9192 C 890.945 0.489038 3.54038 0
M  V30 9193 C 890.611 1.88075 4.09803 0
M  V30 9194 C 889.273 2.26152 4.24745 0
M  V30 9195 C 891.625 2.79174 4.40126 0
M  V30 9196 C 888.953 3.54718 4.67324 0
M  V30 9197 C 891.305 4.07175 4.8414 0
M  V30 9198 C 889.969 4.45266 4.97287 0
M  V30 9199 H 889.239 0.135767 0.728456 0
M  V30 9200 H 891.886 1.0144 1.62426 0
M  V30 9201 H 890.191 -0.237823 3.91078 0
M  V30 9202 H 891.888 0.141374 4.00751 0
M  V30 9203 H 888.478 1.57488 3.98617 0
M  V30 9204 H 892.662 2.51009 4.28145 0
M  V30 9205 H 887.918 3.84093 4.75691 0
M  V30 9206 H 892.092 4.77875 5.06565 0
M  V30 9207 H 889.719 5.44943 5.30038 0
M  V30 9208 N 891.294 -1.47756 0.548274 0
M  V30 9209 C 892.226 -2.27921 -0.24177 0
M  V30 9210 C 893.239 -1.36471 -0.887658 0
M  V30 9211 O 894.428 -1.6137 -0.763016 0
M  V30 9212 C 891.528 -3.10449 -1.35922 0
M  V30 9213 C 890.701 -4.298 -0.811808 0
M  V30 9214 C 889.76 -4.93994 -1.81264 0
M  V30 9215 O 888.786 -5.52657 -1.3623 0
M  V30 9216 N 889.988 -4.87882 -3.14566 0
M  V30 9217 H 892.753 -2.96365 0.445848 0
M  V30 9218 H 890.314 -1.57286 0.383769 0
M  V30 9219 H 892.306 -3.50261 -2.02729 0
M  V30 9220 H 890.876 -2.44306 -1.95021 0
M  V30 9221 H 890.096 -3.94186 0.0327929 0
M  V30 9222 H 891.384 -5.0702 -0.425272 0
M  V30 9223 H 890.782 -4.41405 -3.53805 0
M  V30 9224 H 889.339 -5.3174 -3.76956 0
M  V30 9225 N 892.772 -0.284283 -1.55015 0
M  V30 9226 C 894.188 0.069603 -1.59448 0
M  V30 9227 C 894.388 1.53833 -1.30144 0
M  V30 9228 O 893.444 2.2886 -1.06674 0
M  V30 9229 C 894.757 -0.313287 -2.99064 0
M  V30 9230 C 896.305 -0.260662 -3.11913 0
M  V30 9231 C 896.78 -0.618127 -4.5381 0
M  V30 9232 N 898.271 -0.570026 -4.59679 0
M  V30 9233 C 899.006 -0.8193 -5.67517 0
M  V30 9234 N 898.502 -1.13367 -6.83462 0
M  V30 9235 N 900.295 -0.747482 -5.57108 0
M  V30 9236 H 892.446 -1.24167 -1.72326 0
M  V30 9237 H 894.709 -0.502259 -0.804015 0
M  V30 9238 H 894.415 -1.33509 -3.25374 0
M  V30 9239 H 894.289 0.341369 -3.75652 0
M  V30 9240 H 896.676 0.751869 -2.85361 0
M  V30 9241 H 896.757 -0.949706 -2.37517 0
M  V30 9242 H 896.401 -1.62839 -4.81088 0
M  V30 9243 H 896.331 0.092807 -5.26518 0
M  V30 9244 H 898.822 -0.3373 -3.76392 0
M  V30 9245 H 899.135 -1.3103 -7.61611 0
M  V30 9246 H 897.48 -1.17154 -6.85055 0
M  V30 9247 H 900.671 -0.501658 -4.65404 0
M  V30 9248 H 900.844 -0.945128 -6.4107 0
M  V30 9249 N 894.251 1.57596 -0.0117121 0
M  V30 9250 C 895.667 1.55837 0.344506 0
M  V30 9251 C 895.867 1.01557 1.74036 0
M  V30 9252 O 894.923 0.654563 2.43868 0
M  V30 9253 C 896.236 2.99973 0.209023 0
M  V30 9254 C 897.784 3.11717 0.283092 0
M  V30 9255 C 898.259 4.57659 0.176599 0
M  V30 9256 N 899.75 4.62608 0.234133 0
M  V30 9257 C 900.485 5.73132 0.175252 0
M  V30 9258 N 899.981 6.92768 0.0662888 0
M  V30 9259 N 901.774 5.61638 0.227972 0
M  V30 9260 H 893.925 1.91215 -0.924692 0
M  V30 9261 H 896.188 0.878807 -0.355531 0
M  V30 9262 H 895.894 3.4357 -0.751826 0
M  V30 9263 H 895.768 3.64075 0.98635 0
M  V30 9264 H 898.155 2.68043 1.23439 0
M  V30 9265 H 898.236 2.50369 -0.52431 0
M  V30 9266 H 897.88 5.02011 -0.771205 0
M  V30 9267 H 897.81 5.16967 1.00264 0
M  V30 9268 H 900.301 3.76549 0.319203 0
M  V30 9269 H 900.614 7.72795 0.0275765 0
M  V30 9270 H 898.959 6.94993 0.0317502 0
M  V30 9271 H 902.15 4.67063 0.311377 0
M  V30 9272 H 902.323 6.47754 0.178621 0
M  V30 9273 N 895.729 -0.261212 1.5542 0
M  V30 9274 C 896.662 -1.34906 1.84054 0
M  V30 9275 C 897.64 -1.47024 0.694466 0
M  V30 9276 O 898.824 -1.63463 0.938719 0
M  V30 9277 C 895.951 -2.7242 2.01259 0
M  V30 9278 C 894.997 -2.77526 3.23855 0
M  V30 9279 S 895.83 -2.35578 4.80898 0
M  V30 9280 C 896.986 -3.75045 5.01091 0
M  V30 9281 H 897.219 -1.10416 2.76035 0
M  V30 9282 H 894.752 -0.461461 1.47343 0
M  V30 9283 H 896.71 -3.51606 2.11857 0
M  V30 9284 H 895.371 -2.94155 1.10145 0
M  V30 9285 H 894.564 -3.78483 3.32816 0
M  V30 9286 H 894.166 -2.0637 3.11909 0
M  V30 9287 H 896.458 -4.7042 4.87556 0
M  V30 9288 H 897.401 -3.71027 6.03112 0
M  V30 9289 H 897.809 -3.66894 4.29009 0
M  V30 9290 N 897.207 -1.48554 -0.526253 0
M  V30 9291 C 898.17 -1.62868 -1.61266 0
M  V30 9292 C 899.17 -0.501762 -1.52771 0
M  V30 9293 O 900.36 -0.76764 -1.56374 0
M  V30 9294 C 897.492 -1.60238 -3.00893 0
M  V30 9295 H 898.685 -2.59742 -1.49913 0
M  V30 9296 H 896.238 -1.37207 -0.748595 0
M  V30 9297 H 896.973 -0.648545 -3.17749 0
M  V30 9298 H 896.758 -2.42054 -3.08468 0
M  V30 9299 H 898.248 -1.73455 -3.79872 0
M  V30 9300 N 898.685 0.775411 -1.37205 0
M  V30 9301 C 899.933 1.53081 -1.3195 0
M  V30 9302 C 900.254 1.9476 0.0966864 0
M  V30 9303 O 899.524 1.66019 1.03993 0
M  V30 9304 H 898.104 0.567762 -0.485444 0
M  V30 9305 H 900.766 0.92309 -1.71654 0
M  V30 9306 H 899.862 2.4319 -1.95614 0
M  V30 9307 N 900.163 1.21714 1.00117 0
M  V30 9308 C 901.096 0.923113 2.08696 0
M  V30 9309 C 902.074 -0.130827 1.62073 0
M  V30 9310 O 903.258 -0.00103064 1.885 0
M  V30 9311 C 900.385 0.386807 3.36484 0
M  V30 9312 C 899.431 1.42414 4.0202 0
M  V30 9313 S 900.264 2.99466 4.43937 0
M  V30 9314 C 901.42 2.47452 5.74907 0
M  V30 9315 H 901.653 1.84258 2.33315 0
M  V30 9316 H 899.186 1.0473 1.1345 0
M  V30 9317 H 901.144 0.0839547 4.10414 0
M  V30 9318 H 899.805 -0.511413 3.09909 0
M  V30 9319 H 898.998 0.998593 4.94008 0
M  V30 9320 H 898.6 1.67527 3.34381 0
M  V30 9321 H 900.892 1.88177 6.50842 0
M  V30 9322 H 901.835 3.37898 6.22279 0
M  V30 9323 H 902.243 1.89027 5.31911 0
M  V30 9324 N 901.641 -1.19671 1.02551 0
M  V30 9325 C 902.888 -1.89268 0.720002 0
M  V30 9326 C 903.216 -1.79411 -0.751127 0
M  V30 9327 O 902.471 -1.17859 -1.5623 0
M  V30 9328 C 902.77 -3.39647 1.11241 0
M  V30 9329 C 902.436 -3.69706 2.58125 0
M  V30 9330 C 901.098 -3.7762 2.98256 0
M  V30 9331 C 903.45 -3.83301 3.53171 0
M  V30 9332 C 900.778 -3.96594 4.32354 0
M  V30 9333 C 903.13 -4.03788 4.86968 0
M  V30 9334 C 901.794 -4.09934 5.26793 0
M  V30 9335 H 901.064 -0.692579 0.263467 0
M  V30 9336 H 903.711 -1.41738 1.28774 0
M  V30 9337 H 902.016 -3.89052 0.463234 0
M  V30 9338 H 903.713 -3.91809 0.853602 0
M  V30 9339 H 900.303 -3.64152 2.26033 0
M  V30 9340 H 904.487 -3.76534 3.2332 0
M  V30 9341 H 899.743 -3.9959 4.6275 0
M  V30 9342 H 903.917 -4.1325 5.60533 0
M  V30 9343 H 901.544 -4.24389 6.30712 0
M  V30 9344 N 903.119 -0.802921 -1.35613 0
M  V30 9345 C 904.051 -0.168461 -2.2858 0
M  V30 9346 C 905.064 0.630123 -1.50111 0
M  V30 9347 O 906.253 0.463086 -1.72388 0
M  V30 9348 C 903.353 0.783943 -3.29708 0
M  V30 9349 C 902.526 0.0325165 -4.37388 0
M  V30 9350 C 901.585 0.902859 -5.18396 0
M  V30 9351 O 900.611 0.355144 -5.68091 0
M  V30 9352 N 901.813 2.22542 -5.36149 0
M  V30 9353 H 904.578 -0.96709 -2.83668 0
M  V30 9354 H 902.139 -0.658043 -1.47924 0
M  V30 9355 H 904.131 1.37034 -3.80794 0
M  V30 9356 H 902.701 1.48339 -2.75162 0
M  V30 9357 H 901.921 -0.735057 -3.87286 0
M  V30 9358 H 903.209 -0.485499 -5.06478 0
M  V30 9359 H 902.607 2.69439 -4.97412 0
M  V30 9360 H 901.164 2.76113 -5.90428 0
M  V30 9361 N 904.597 1.47463 -0.556102 0
M  V30 9362 C 905.843 2.02775 -0.0316806 0
M  V30 9363 C 906.176 1.42967 1.3143 0
M  V30 9364 O 905.451 0.584847 1.85499 0
M  V30 9365 C 905.734 3.60046 0.0625742 0
M  V30 9366 C 905.587 4.30288 -1.31043 0
M  V30 9367 C 906.906 4.33195 0.776553 0
M  V30 9368 H 904.025 0.736886 -0.0129869 0
M  V30 9369 H 906.667 1.75904 -0.718177 0
M  V30 9370 H 904.817 3.83071 0.647231 0
M  V30 9371 H 906.489 4.18607 -1.9382 0
M  V30 9372 H 904.732 3.90685 -1.8854 0
M  V30 9373 H 905.403 5.38861 -1.1972 0
M  V30 9374 H 907.879 4.15156 0.280147 0
M  V30 9375 H 906.755 5.42869 0.81146 0
M  V30 9376 H 907.016 4.02336 1.83244 0
M  V30 9377 N 906.075 0.2925 1.54862 0
M  V30 9378 C 907.303 -0.322113 2.04377 0
M  V30 9379 C 907.718 -1.48164 1.17016 0
M  V30 9380 O 907.075 -1.81466 0.19395 0
M  V30 9381 C 907.126 -0.786506 3.5284 0
M  V30 9382 O 906.847 0.326863 4.36879 0
M  V30 9383 C 908.348 -1.46715 4.18318 0
M  V30 9384 H 905.568 -0.0712074 0.667211 0
M  V30 9385 H 908.112 0.429657 1.99935 0
M  V30 9386 H 906.267 -1.48832 3.5767 0
M  V30 9387 H 906.681 -0.0331558 5.2449 0
M  V30 9388 H 908.155 -1.74333 5.23748 0
M  V30 9389 H 908.632 -2.40443 3.67538 0
M  V30 9390 H 909.238 -0.808735 4.1754 0
M  V30 9391 N 907.553 -1.57587 0.0200696 0
M  V30 9392 C 908.8 -1.91424 -0.660525 0
M  V30 9393 C 909.128 -0.895626 -1.72652 0
M  V30 9394 O 908.383 0.096771 -1.95461 0
M  V30 9395 C 908.682 -3.32002 -1.32323 0
M  V30 9396 C 908.348 -4.49223 -0.388487 0
M  V30 9397 C 907.01 -4.81021 -0.131184 0
M  V30 9398 C 909.362 -5.20581 0.253906 0
M  V30 9399 C 906.69 -5.81539 0.776471 0
M  V30 9400 C 909.042 -6.22067 1.14956 0
M  V30 9401 C 907.706 -6.52311 1.41584 0
M  V30 9402 H 906.976 -0.700472 -0.241703 0
M  V30 9403 H 909.623 -1.91333 0.0798991 0
M  V30 9404 H 907.928 -3.28312 -2.13819 0
M  V30 9405 H 909.625 -3.5545 -1.85623 0
M  V30 9406 H 906.215 -4.24391 -0.599207 0
M  V30 9407 H 910.399 -4.96253 0.068164 0
M  V30 9408 H 905.655 -6.03322 0.990575 0
M  V30 9409 H 909.829 -6.76484 1.65357 0
M  V30 9410 H 907.456 -7.30017 2.12083 0
M  V30 9411 N 909.032 0.252966 -1.55557 0
M  V30 9412 C 909.965 1.33928 -1.84766 0
M  V30 9413 C 910.943 1.46653 -0.702254 0
M  V30 9414 O 912.127 1.62963 -0.947375 0
M  V30 9415 C 909.254 2.71348 -2.02701 0
M  V30 9416 C 908.3 2.75804 -3.25322 0
M  V30 9417 S 909.133 2.33025 -4.82141 0
M  V30 9418 C 910.289 3.72382 -5.03073 0
M  V30 9419 H 910.522 1.08951 -2.76617 0
M  V30 9420 H 908.055 0.45364 -1.47585 0
M  V30 9421 H 910.013 3.50478 -2.13718 0
M  V30 9422 H 908.674 2.93566 -1.11703 0
M  V30 9423 H 907.867 3.76713 -3.34819 0
M  V30 9424 H 907.469 2.04713 -3.12999 0
M  V30 9425 H 909.761 4.67828 -4.90044 0
M  V30 9426 H 910.704 3.67824 -6.05071 0
M  V30 9427 H 911.112 3.64614 -4.30949 0
M  V30 9428 N 910.51 1.48831 0.518367 0
M  V30 9429 C 911.473 1.63721 1.604 0
M  V30 9430 C 912.473 0.509857 1.52503 0
M  V30 9431 O 913.663 0.775922 1.55965 0
M  V30 9432 C 910.795 1.61831 3.00039 0
M  V30 9433 H 911.988 2.60534 1.48533 0
M  V30 9434 H 909.541 1.37602 0.741309 0
M  V30 9435 H 910.276 0.665387 3.17401 0
M  V30 9436 H 910.061 2.43686 3.0718 0
M  V30 9437 H 911.551 1.75467 3.78947 0
M  V30 9438 N 911.988 -0.768124 1.37614 0
M  V30 9439 C 912.898 -1.91249 1.35871 0
M  V30 9440 C 913.914 -1.7208 0.257786 0
M  V30 9441 O 915.09 -1.95253 0.493782 0
M  V30 9442 C 912.155 -3.26423 1.16829 0
M  V30 9443 C 911.216 -3.5822 2.36594 0
M  V30 9444 C 910.449 -4.86945 2.1845 0
M  V30 9445 O 910.672 -5.58258 1.17064 0
M  V30 9446 O 909.606 -5.17888 3.06718 0
M  V30 9447 H 913.432 -1.95671 2.32264 0
M  V30 9448 H 911.017 -0.911382 1.18382 0
M  V30 9449 H 912.899 -4.07269 1.08212 0
M  V30 9450 H 911.574 -3.22845 0.235123 0
M  V30 9451 H 910.481 -2.77594 2.50783 0
M  V30 9452 H 911.814 -3.66545 3.2849 0
M  V30 9453 N 913.466 -1.22244 -0.994698 0
M  V30 9454 C 914.882 -0.982006 -1.25813 0
M  V30 9455 C 915.082 0.325488 -1.98854 0
M  V30 9456 O 914.138 1.04857 -2.29698 0
M  V30 9457 C 915.451 -2.1795 -2.07167 0
M  V30 9458 C 916.999 -2.22287 -2.20358 0
M  V30 9459 C 917.474 -3.41583 -3.05098 0
M  V30 9460 N 918.965 -3.41734 -3.12686 0
M  V30 9461 C 919.7 -4.30692 -3.78539 0
M  V30 9462 N 919.196 -5.29865 -4.46335 0
M  V30 9463 N 920.989 -4.18473 -3.75283 0
M  V30 9464 H 913.14 -2.0631 -0.504963 0
M  V30 9465 H 915.403 -0.90395 -0.285618 0
M  V30 9466 H 915.109 -3.12758 -1.60858 0
M  V30 9467 H 914.983 -2.17862 -3.07922 0
M  V30 9468 H 917.37 -1.28028 -2.65881 0
M  V30 9469 H 917.451 -2.26414 -1.19039 0
M  V30 9470 H 917.095 -4.36141 -2.60275 0
M  V30 9471 H 917.025 -3.34695 -4.06555 0
M  V30 9472 H 919.516 -2.69969 -2.64433 0
M  V30 9473 H 919.829 -5.94027 -4.9432 0
M  V30 9474 H 918.174 -5.3378 -4.45089 0
M  V30 9475 H 921.365 -3.40249 -3.21478 0
M  V30 9476 H 921.538 -4.88007 -4.26326 0
M  V30 9477 N 914.944 1.19125 -1.03184 0
M  V30 9478 C 916.169 1.93379 -0.749628 0
M  V30 9479 C 916.594 1.75153 0.685785 0
M  V30 9480 O 915.952 1.05579 1.47386 0
M  V30 9481 C 916 3.43101 -1.1097 0
M  V30 9482 O 915.104 4.11758 -0.230053 0
M  V30 9483 H 914.445 0.603605 -0.276689 0
M  V30 9484 H 916.975 1.51116 -1.37931 0
M  V30 9485 H 916.985 3.93778 -1.06785 0
M  V30 9486 H 915.66 3.55688 -2.15544 0
M  V30 9487 H 914.237 3.7143 -0.330748 0
M  V30 9488 N 916.422 0.810101 1.35185 0
M  V30 9489 C 917.352 0.237453 2.32289 0
M  V30 9490 C 918.333 -0.639032 1.5764 0
M  V30 9491 O 919.518 -0.568575 1.8569 0
M  V30 9492 C 916.648 -0.611964 3.41866 0
M  V30 9493 C 915.602 0.166318 4.27677 0
M  V30 9494 C 914.928 -0.805024 5.28605 0
M  V30 9495 C 916.228 1.36729 5.04086 0
M  V30 9496 H 917.922 1.04874 2.80432 0
M  V30 9497 H 915.468 0.505751 1.34826 0
M  V30 9498 H 917.421 -1.02267 4.08802 0
M  V30 9499 H 916.145 -1.45617 2.92341 0
M  V30 9500 H 914.804 0.558238 3.62325 0
M  V30 9501 H 914.452 -1.64483 4.75347 0
M  V30 9502 H 914.152 -0.288577 5.86891 0
M  V30 9503 H 915.676 -1.21386 5.98413 0
M  V30 9504 H 917.09 1.03128 5.63948 0
M  V30 9505 H 915.487 1.81848 5.71884 0
M  V30 9506 H 916.557 2.15214 4.34524 0
M  V30 9507 N 917.9 -1.47166 0.563914 0
M  V30 9508 C 918.81 -2.33885 -0.182977 0
M  V30 9509 C 919.826 -1.48605 -0.905132 0
M  V30 9510 O 921.002 -1.81518 -0.872527 0
M  V30 9511 C 918.067 -3.25433 -1.19558 0
M  V30 9512 C 917.128 -4.26607 -0.480129 0
M  V30 9513 C 916.361 -5.1378 -1.44449 0
M  V30 9514 O 916.584 -5.03531 -2.67979 0
M  V30 9515 O 915.518 -5.94109 -0.965321 0
M  V30 9516 H 919.344 -2.99065 0.528544 0
M  V30 9517 H 916.929 -1.45834 0.324468 0
M  V30 9518 H 918.811 -3.81964 -1.77993 0
M  V30 9519 H 917.486 -2.62873 -1.8889 0
M  V30 9520 H 916.393 -3.73817 0.145583 0
M  V30 9521 H 917.726 -4.919 0.171868 0
M  V30 9522 N 919.378 -0.300708 -1.54705 0
M  V30 9523 C 920.655 0.361757 -1.92226 0
M  V30 9524 C 921.035 1.71714 -1.2279 0
M  V30 9525 O 920.383 2.2559 -0.363542 0
M  V30 9526 C 920.593 0.476699 -3.45729 0
M  V30 9527 C 921.941 0.7477 -4.17965 0
M  V30 9528 O 922.965 0.560521 -3.51762 0
M  V30 9529 O 921.824 1.10724 -5.35166 0
M  V30 9530 H 918.918 0.202213 -0.801897 0
M  V30 9531 H 921.464 -0.348746 -1.66078 0
M  V30 9532 H 920.236 -0.476132 -3.88392 0
M  V30 9533 H 919.859 1.23568 -3.77911 0
M  V30 9534 N 920.856 1.57574 -0.0284266 0
M  V30 9535 C 921.766 2.13637 0.96936 0
M  V30 9536 C 922.782 1.08845 1.35752 0
M  V30 9537 O 923.958 1.40899 1.43908 0
M  V30 9538 C 921.023 2.65179 2.2334 0
M  V30 9539 C 920.084 3.84683 1.90572 0
M  V30 9540 C 919.317 4.33758 3.1095 0
M  V30 9541 O 919.54 3.82009 4.23586 0
M  V30 9542 O 918.474 5.2561 2.93288 0
M  V30 9543 H 922.3 2.99169 0.52267 0
M  V30 9544 H 919.885 1.48159 0.192135 0
M  V30 9545 H 921.767 2.98402 2.97547 0
M  V30 9546 H 920.442 1.82731 2.67191 0
M  V30 9547 H 919.349 3.56386 1.13753 0
M  V30 9548 H 920.682 4.68292 1.51538 0
M  V30 9549 N 922.334 -0.244713 1.55689 0
M  V30 9550 C 923.583 -0.970373 1.76824 0
M  V30 9551 C 923.896 -1.86402 0.592764 0
M  V30 9552 O 925.102 -2.62659 0.687186 0
M  V30 9553 C 923.558 -1.77547 3.13058 0
M  V30 9554 C 923.166 -0.929104 4.3826 0
M  V30 9555 C 924.91 -2.49373 3.43531 0
M  V30 9556 C 922.817 -1.73021 5.65524 0
M  V30 9557 H 921.747 -0.366048 0.659185 0
M  V30 9558 H 924.398 -0.224964 1.82116 0
M  V30 9559 H 922.78 -2.56291 3.01879 0
M  V30 9560 H 923.954 -0.183836 4.60433 0
M  V30 9561 H 922.269 -0.324071 4.15137 0
M  V30 9562 H 924.866 -3.09767 4.35831 0
M  V30 9563 H 925.209 -3.21099 2.64955 0
M  V30 9564 H 925.742 -1.77637 3.55935 0
M  V30 9565 H 922.481 -1.05666 6.46927 0
M  V30 9566 H 922.001 -2.45071 5.47449 0
M  V30 9567 H 923.68 -2.2968 6.0486 0
M  V30 9568 N 923.813 -1.49104 -0.510467 0
M  V30 9569 C 924.761 -1.65547 -1.63392 0
M  V30 9570 C 925.755 -0.521522 -1.61172 0
M  V30 9571 O 926.961 -0.700865 -1.65795 0
M  V30 9572 H 923.336 -0.521843 -0.541464 0
M  V30 9573 H 925.307 -2.59864 -1.46673 0
M  V30 9574 C 924.056 -1.73051 -3.01577 0
M  V30 9575 H 923.379 -2.59676 -3.03987 0
M  V30 9576 H 924.819 -1.88594 -3.79748 0
M  V30 9577 C 923.278 -0.47328 -3.33559 0
M  V30 9578 O 923.808 0.405239 -3.99651 0
M  V30 9579 N 922.014 -0.339074 -2.88615 0
M  V30 9580 H 921.561 -1.05497 -2.35007 0
M  V30 9581 H 921.519 0.501061 -3.10382 0
M  V30 9582 N 925.291 0.760815 -1.38019 0
M  V30 9583 C 926.707 1.06289 -1.19058 0
M  V30 9584 C 926.907 2.01471 -0.0342603 0
M  V30 9585 O 925.963 2.44713 0.62224 0
M  V30 9586 C 927.276 1.6499 -2.51394 0
M  V30 9587 C 928.824 1.77196 -2.58013 0
M  V30 9588 C 929.299 2.3931 -3.90506 0
M  V30 9589 N 930.79 2.46749 -3.92007 0
M  V30 9590 C 931.525 2.95687 -4.91281 0
M  V30 9591 N 931.021 3.44715 -6.00952 0
M  V30 9592 N 932.814 2.94661 -4.78677 0
M  V30 9593 H 924.965 0.129045 -2.12008 0
M  V30 9594 H 927.228 0.119878 -0.94039 0
M  V30 9595 H 926.934 1.0252 -3.36426 0
M  V30 9596 H 926.808 2.64146 -2.6927 0
M  V30 9597 H 929.195 2.38796 -1.7338 0
M  V30 9598 H 929.276 0.767645 -2.4401 0
M  V30 9599 H 928.92 1.78346 -4.75558 0
M  V30 9600 H 928.85 3.40369 -4.01817 0
M  V30 9601 H 931.341 2.12064 -3.12789 0
M  V30 9602 H 931.654 3.80492 -6.72641 0
M  V30 9603 H 929.999 3.42791 -6.04582 0
M  V30 9604 H 933.19 2.55665 -3.92113 0
M  V30 9605 H 933.363 3.32489 -5.56197 0
M  V30 9606 N 926.769 1.22769 0.988202 0
M  V30 9607 C 927.997 1.08155 1.76381 0
M  V30 9608 C 928.412 -0.367573 1.85187 0
M  V30 9609 O 927.769 -1.25455 1.32541 0
M  V30 9610 C 927.82 1.69193 3.19462 0
M  V30 9611 O 927.541 3.08437 3.11125 0
M  V30 9612 C 929.042 1.59915 4.13451 0
M  V30 9613 H 926.262 0.378908 0.553778 0
M  V30 9614 H 928.806 1.6246 1.24206 0
M  V30 9615 H 926.961 1.18939 3.6869 0
M  V30 9616 H 927.375 3.37916 4.0114 0
M  V30 9617 H 928.849 2.07339 5.1158 0
M  V30 9618 H 929.326 0.556546 4.3566 0
M  V30 9619 H 929.932 2.09497 3.70123 0
M  V30 9620 N 928.247 -1.18576 1.03814 0
M  V30 9621 C 929.475 -1.92437 0.759966 0
M  V30 9622 C 929.89 -1.76031 -0.682526 0
M  V30 9623 O 929.247 -1.08829 -1.46501 0
M  V30 9624 C 929.298 -3.43923 1.11351 0
M  V30 9625 O 929.019 -3.5981 2.49937 0
M  V30 9626 C 930.52 -4.34888 0.859472 0
M  V30 9627 H 927.74 -0.610998 0.277349 0
M  V30 9628 H 930.284 -1.50448 1.38512 0
M  V30 9629 H 928.439 -3.83711 0.533362 0
M  V30 9630 H 928.853 -4.53569 2.63393 0
M  V30 9631 H 930.327 -5.39744 1.15672 0
M  V30 9632 H 930.804 -4.38717 -0.205839 0
M  V30 9633 H 931.41 -4.00795 1.42279 0
M  V30 9634 N 929.725 -0.817259 -1.34754 0
M  V30 9635 C 930.688 -0.240611 -2.27934 0
M  V30 9636 C 931.688 0.578219 -1.50044 0
M  V30 9637 O 932.878 0.395148 -1.69659 0
M  V30 9638 C 930.01 0.663318 -3.34384 0
M  V30 9639 H 931.203 -1.06257 -2.80445 0
M  V30 9640 H 928.756 -0.588697 -1.4479 0
M  V30 9641 H 929.491 1.50855 -2.87077 0
M  V30 9642 H 929.276 0.0777388 -3.92023 0
M  V30 9643 H 930.766 1.06076 -4.03903 0
M  V30 9644 N 931.203 1.46865 -0.571711 0
M  V30 9645 C 932.113 2.33979 0.170571 0
M  V30 9646 C 933.129 1.49083 0.897239 0
M  V30 9647 O 934.305 1.81979 0.862888 0
M  V30 9648 C 931.37 3.26063 1.17831 0
M  V30 9649 C 930.431 4.26855 0.457499 0
M  V30 9650 C 929.664 5.14539 1.41722 0
M  V30 9651 O 929.887 5.04945 2.65305 0
M  V30 9652 O 928.821 5.94612 0.9338 0
M  V30 9653 H 932.647 2.98781 -0.544396 0
M  V30 9654 H 930.232 1.4566 -0.332198 0
M  V30 9655 H 932.114 3.82903 1.75965 0
M  V30 9656 H 930.789 2.63871 1.87493 0
M  V30 9657 H 929.696 3.73734 -0.165406 0
M  V30 9658 H 931.029 4.91802 -0.197953 0
M  V30 9659 N 932.681 0.308908 1.54543 0
M  V30 9660 C 933.958 -0.351558 1.92415 0
M  V30 9661 C 934.338 -1.71061 1.23699 0
M  V30 9662 O 933.686 -2.25394 0.3755 0
M  V30 9663 C 933.896 -0.458357 3.45977 0
M  V30 9664 C 935.244 -0.725524 4.18355 0
M  V30 9665 O 936.268 -0.541859 3.52054 0
M  V30 9666 O 935.127 -1.07884 5.35745 0
M  V30 9667 H 932.221 -0.197957 0.802958 0
M  V30 9668 H 934.767 0.357548 1.65891 0
M  V30 9669 H 933.539 0.496723 3.88134 0
M  V30 9670 H 933.162 -1.21562 3.78561 0
M  V30 9671 N 934.159 -1.57557 0.0367827 0
M  V30 9672 C 935.089 -2.13712 -0.940719 0
M  V30 9673 C 936.07 -1.05515 -1.33419 0
M  V30 9674 O 937.255 -1.33385 -1.41146 0
M  V30 9675 C 934.385 -2.67043 -2.22048 0
M  V30 9676 C 933.339 -3.80096 -1.96752 0
M  V30 9677 C 932.665 -4.19886 -3.31059 0
M  V30 9678 C 933.965 -5.05848 -1.30058 0
M  V30 9679 H 935.659 -2.9564 -0.473033 0
M  V30 9680 H 933.205 -1.42214 -0.226089 0
M  V30 9681 H 935.158 -3.04964 -2.90818 0
M  V30 9682 H 933.882 -1.82287 -2.70996 0
M  V30 9683 H 932.541 -3.42625 -1.30398 0
M  V30 9684 H 932.189 -3.32101 -3.77781 0
M  V30 9685 H 931.889 -4.96073 -3.14937 0
M  V30 9686 H 933.413 -4.60395 -4.01084 0
M  V30 9687 H 934.827 -5.41306 -1.8884 0
M  V30 9688 H 933.224 -5.87084 -1.24309 0
M  V30 9689 H 934.294 -4.84122 -0.274591 0
M  V30 9690 N 935.637 0.236453 -1.55816 0
M  V30 9691 C 937.048 0.80468 -1.68469 0
M  V30 9692 C 937.399 1.85601 -0.636133 0
M  V30 9693 O 936.524 2.15323 0.215622 0
M  V30 9694 C 937.119 1.46634 -3.05424 0
M  V30 9695 C 935.678 1.98214 -3.19981 0
M  V30 9696 C 934.825 0.83695 -2.64368 0
M  V30 9697 H 937.776 0.0120647 -1.58695 0
M  V30 9698 H 937.797 2.33472 -3.00451 0
M  V30 9699 H 937.309 0.700931 -3.81718 0
M  V30 9700 H 935.41 2.77604 -2.4853 0
M  V30 9701 H 935.523 2.17235 -4.2702 0
M  V30 9702 H 933.887 1.24028 -2.22462 0
M  V30 9703 H 934.67 0.084451 -3.43196 0
M  V30 9704 N 937.115 1.49373 0.502552 0
M  V30 9705 C 938.364 1.58028 1.25339 0
M  V30 9706 C 938.677 0.271494 1.93707 0
M  V30 9707 O 939.883 0.236584 2.70467 0
M  V30 9708 C 938.339 2.78817 2.27572 0
M  V30 9709 C 937.947 4.16448 1.65151 0
M  V30 9710 C 939.691 2.96802 3.03494 0
M  V30 9711 C 937.598 5.28461 2.65486 0
M  V30 9712 H 936.528 0.588396 0.471494 0
M  V30 9713 H 939.179 1.75756 0.52744 0
M  V30 9714 H 937.561 2.5458 3.03323 0
M  V30 9715 H 938.735 4.50816 0.954029 0
M  V30 9716 H 937.05 4.03809 1.01625 0
M  V30 9717 H 939.647 3.77656 3.78524 0
M  V30 9718 H 939.99 2.07303 3.61014 0
M  V30 9719 H 940.523 3.21071 2.34858 0
M  V30 9720 H 937.262 6.20015 2.12749 0
M  V30 9721 H 936.782 4.9855 3.33479 0
M  V30 9722 H 938.461 5.5773 3.27943 0
M  V30 9723 N 938.594 -0.753485 1.38421 0
M  V30 9724 C 939.841 -1.51261 1.34634 0
M  V30 9725 C 940.169 -1.94396 -0.0635771 0
M  V30 9726 O 939.424 -1.65736 -1.04068 0
M  V30 9727 C 939.723 -2.77836 2.24816 0
M  V30 9728 C 939.389 -2.53662 3.72782 0
M  V30 9729 C 938.051 -2.46779 4.13103 0
M  V30 9730 C 940.403 -2.32548 4.66445 0
M  V30 9731 C 937.731 -2.16796 5.45176 0
M  V30 9732 C 940.083 -2.04085 5.98775 0
M  V30 9733 C 938.747 -1.95658 6.3818 0
M  V30 9734 H 938.017 -0.553503 0.492661 0
M  V30 9735 H 940.664 -0.866406 1.7078 0
M  V30 9736 H 938.969 -3.47106 1.81726 0
M  V30 9737 H 940.666 -3.35793 2.19189 0
M  V30 9738 H 937.256 -2.59891 3.40815 0
M  V30 9739 H 941.44 -2.36845 4.3614 0
M  V30 9740 H 936.696 -2.0878 5.74648 0
M  V30 9741 H 940.87 -1.86751 6.70893 0
M  V30 9742 H 938.497 -1.7219 7.40442 0
M  V30 9743 N 940.072 -1.23292 -0.981677 0
M  V30 9744 C 941.035 -1.01417 -2.05542 0
M  V30 9745 C 942.035 0.0235354 -1.60783 0
M  V30 9746 O 943.225 -0.216082 -1.72855 0
M  V30 9747 C 940.357 -0.534239 -3.36688 0
M  V30 9748 H 941.55 -1.96702 -2.26381 0
M  V30 9749 H 939.103 -1.05318 -1.1549 0
M  V30 9750 H 939.838 0.422452 -3.21537 0
M  V30 9751 H 939.623 -1.28304 -3.70514 0
M  V30 9752 H 941.113 -0.40179 -4.15663 0
M  V30 9753 N 941.55 1.18024 -1.04442 0
M  V30 9754 C 942.778 1.92032 -0.770161 0
M  V30 9755 C 943.193 1.76391 0.673181 0
M  V30 9756 O 942.55 1.09604 1.45922 0
M  V30 9757 C 942.601 3.43328 -1.13173 0
M  V30 9758 O 942.322 3.5848 -2.51841 0
M  V30 9759 C 943.823 4.34427 -0.882523 0
M  V30 9760 H 941.043 0.609518 -0.280586 0
M  V30 9761 H 943.587 1.49711 -1.39308 0
M  V30 9762 H 941.742 3.83423 -0.553704 0
M  V30 9763 H 942.156 4.52166 -2.65794 0
M  V30 9764 H 943.63 5.39123 -1.18533 0
M  V30 9765 H 944.107 4.3882 0.18257 0
M  V30 9766 H 944.713 4.00035 -1.44403 0
M  V30 9767 N 943.028 0.824394 1.34319 0
M  V30 9768 C 944.253 0.425194 2.02995 0
M  V30 9769 C 944.678 -0.961476 1.6167 0
M  V30 9770 O 944.036 -1.62593 0.80207 0
M  V30 9771 C 944.084 0.537004 3.56579 0
M  V30 9772 O 943.188 -0.442576 4.10018 0
M  V30 9773 H 942.529 0.174853 0.640564 0
M  V30 9774 H 945.059 1.11522 1.71534 0
M  V30 9775 H 945.069 0.413311 4.05901 0
M  V30 9776 H 943.744 1.54836 3.86004 0
M  V30 9777 H 942.321 -0.277644 3.71865 0
M  V30 9778 N 944.506 -1.46559 0.579492 0
M  V30 9779 C 945.736 -2.06484 0.0692642 0
M  V30 9780 C 946.144 -1.4293 -1.23967 0
M  V30 9781 O 945.487 -0.527632 -1.75959 0
M  V30 9782 C 945.549 -3.59078 -0.174174 0
M  V30 9783 C 945.213 -4.44805 1.04867 0
M  V30 9784 C 946.21 -4.81543 1.95991 0
M  V30 9785 C 943.895 -4.8599 1.26961 0
M  V30 9786 C 945.889 -5.58288 3.0756 0
M  V30 9787 C 943.576 -5.62495 2.38836 0
M  V30 9788 C 944.574 -5.98558 3.28964 0
M  V30 9789 O 944.262 -6.73518 4.38896 0
M  V30 9790 H 943.994 -0.673917 0.0530331 0
M  V30 9791 H 946.548 -1.89223 0.79898 0
M  V30 9792 H 944.778 -3.74634 -0.958464 0
M  V30 9793 H 946.467 -4.00941 -0.632515 0
M  V30 9794 H 947.233 -4.50307 1.80136 0
M  V30 9795 H 943.112 -4.57372 0.577184 0
M  V30 9796 H 946.656 -5.86355 3.77933 0
M  V30 9797 H 942.553 -5.93145 2.54655 0
M  V30 9798 H 943.321 -6.91938 4.37223 0
M  V30 9799 N 945.984 -0.3171 -1.54377 0
M  V30 9800 C 947.233 0.288271 -1.99629 0
M  V30 9801 C 947.546 1.53754 -1.2091 0
M  V30 9802 O 948.752 2.2185 -1.56508 0
M  V30 9803 C 947.208 0.564188 -3.5545 0
M  V30 9804 C 946.816 -0.667659 -4.42997 0
M  V30 9805 C 948.56 1.12987 -4.09187 0
M  V30 9806 C 946.467 -0.364003 -5.90279 0
M  V30 9807 H 945.397 0.111492 -0.745711 0
M  V30 9808 H 948.048 -0.428317 -1.78431 0
M  V30 9809 H 946.43 1.34079 -3.72611 0
M  V30 9810 H 947.604 -1.44335 -4.37612 0
M  V30 9811 H 945.919 -1.1531 -4.00116 0
M  V30 9812 H 948.516 1.37157 -5.1681 0
M  V30 9813 H 948.859 2.07722 -3.60773 0
M  V30 9814 H 949.392 0.414595 -3.95634 0
M  V30 9815 H 946.131 -1.28035 -6.42874 0
M  V30 9816 H 945.651 0.374102 -5.98632 0
M  V30 9817 H 947.33 0.0285433 -6.46994 0
M  V30 9818 N 947.462 1.57535 -0.0451378 0
M  V30 9819 C 948.708 1.92736 0.630921 0
M  V30 9820 C 949.041 0.923265 1.70849 0
M  V30 9821 O 948.316 -0.0516512 1.94431 0
M  V30 9822 C 948.599 3.38348 1.23259 0
M  V30 9823 C 948.452 4.49503 0.16349 0
M  V30 9824 C 949.771 3.84233 2.14599 0
M  V30 9825 H 946.89 0.700884 0.227883 0
M  V30 9826 H 949.532 1.89706 -0.10567 0
M  V30 9827 H 947.682 3.41061 1.86037 0
M  V30 9828 H 949.354 4.58919 -0.46808 0
M  V30 9829 H 947.597 4.30802 -0.509166 0
M  V30 9830 H 948.268 5.48457 0.624382 0
M  V30 9831 H 950.744 3.83358 1.6179 0
M  V30 9832 H 949.62 4.86781 2.53644 0
M  V30 9833 H 949.881 3.20646 3.04366 0
M  V30 9834 N 948.94 -0.228186 1.55939 0
M  V30 9835 C 950.189 -0.951563 1.77843 0
M  V30 9836 C 950.502 -1.85763 0.612501 0
M  V30 9837 O 951.708 -2.61916 0.715006 0
M  V30 9838 C 950.164 -1.74216 3.14923 0
M  V30 9839 C 949.772 -0.882569 4.39221 0
M  V30 9840 C 951.516 -2.45715 3.46156 0
M  V30 9841 C 949.423 -1.67014 5.67327 0
M  V30 9842 H 948.353 -0.359035 0.663031 0
M  V30 9843 H 951.004 -0.205636 1.82344 0
M  V30 9844 H 949.386 -2.53075 3.0458 0
M  V30 9845 H 950.56 -0.13499 4.60602 0
M  V30 9846 H 948.875 -0.280022 4.15457 0
M  V30 9847 H 951.472 -3.05127 4.39092 0
M  V30 9848 H 951.815 -3.1827 2.68346 0
M  V30 9849 H 952.348 -1.73852 3.57799 0
M  V30 9850 H 949.087 -0.987985 6.48012 0
M  V30 9851 H 948.607 -2.3925 5.50018 0
M  V30 9852 H 950.286 -2.23252 6.07262 0
M  V30 9853 N 950.418 -1.49637 -0.494624 0
M  V30 9854 C 951.665 -1.59445 -1.24834 0
M  V30 9855 C 951.993 -0.284028 -1.92415 0
M  V30 9856 O 951.248 0.728519 -1.81634 0
M  V30 9857 C 951.547 -2.70749 -2.33302 0
M  V30 9858 C 951.213 -4.12034 -1.83135 0
M  V30 9859 C 949.875 -4.50482 -1.69173 0
M  V30 9860 C 952.227 -5.00432 -1.4566 0
M  V30 9861 C 949.555 -5.75093 -1.16124 0
M  V30 9862 C 951.907 -6.25568 -0.940608 0
M  V30 9863 C 950.571 -6.62839 -0.787432 0
M  V30 9864 H 949.841 -0.583451 -0.456799 0
M  V30 9865 H 952.488 -1.8349 -0.548044 0
M  V30 9866 H 950.793 -2.407 -3.09145 0
M  V30 9867 H 952.49 -2.75546 -2.91334 0
M  V30 9868 H 949.08 -3.8169 -1.94964 0
M  V30 9869 H 953.264 -4.71379 -1.55291 0
M  V30 9870 H 948.52 -6.02665 -1.02982 0
M  V30 9871 H 952.694 -6.93439 -0.641467 0
M  V30 9872 H 950.321 -7.59279 -0.374191 0
M  V30 9873 N 951.896 0.746133 -1.38819 0
M  V30 9874 C 952.826 1.87344 -1.39372 0
M  V30 9875 C 953.807 1.68123 -0.258583 0
M  V30 9876 O 954.992 1.88606 -0.462769 0
M  V30 9877 C 952.122 3.24962 -1.22543 0
M  V30 9878 C 951.076 3.58799 -2.33339 0
M  V30 9879 C 950.402 4.95235 -2.01609 0
M  V30 9880 C 951.702 3.62911 -3.75624 0
M  V30 9881 H 953.396 1.87138 -2.33709 0
M  V30 9882 H 950.942 0.898937 -1.12495 0
M  V30 9883 H 952.895 4.03488 -1.21554 0
M  V30 9884 H 951.619 3.25667 -0.246707 0
M  V30 9885 H 950.278 2.82596 -2.33527 0
M  V30 9886 H 949.926 4.92508 -1.02202 0
M  V30 9887 H 949.626 5.18843 -2.75819 0
M  V30 9888 H 951.15 5.76131 -2.02251 0
M  V30 9889 H 952.564 4.31535 -3.77426 0
M  V30 9890 H 950.961 3.98031 -4.491 0
M  V30 9891 H 952.031 2.62967 -4.07402 0
M  V30 9892 N 953.375 1.23811 0.975125 0
M  V30 9893 C 954.605 1.0986 1.7497 0
M  V30 9894 C 955.013 -0.352366 1.8589 0
M  V30 9895 O 954.356 -1.2553 1.34119 0
M  V30 9896 C 954.418 1.65584 3.19096 0
M  V30 9897 C 954.082 3.14395 3.3167 0
M  V30 9898 C 955.079 4.1163 3.17579 0
M  V30 9899 C 952.764 3.54208 3.56149 0
M  V30 9900 C 954.758 5.46661 3.27781 0
M  V30 9901 C 952.445 4.89382 3.65989 0
M  V30 9902 C 953.443 5.85418 3.51817 0
M  V30 9903 O 953.131 7.18135 3.61299 0
M  V30 9904 H 952.863 0.384854 0.555755 0
M  V30 9905 H 955.417 1.64242 1.23343 0
M  V30 9906 H 953.647 1.05627 3.71994 0
M  V30 9907 H 955.336 1.47032 3.78334 0
M  V30 9908 H 956.102 3.82214 2.98559 0
M  V30 9909 H 951.981 2.79968 3.66249 0
M  V30 9910 H 955.525 6.21601 3.16636 0
M  V30 9911 H 951.422 5.18473 3.84521 0
M  V30 9912 H 952.19 7.25956 3.78061 0
M  V30 9913 N 954.853 -1.17469 1.05066 0
M  V30 9914 C 956.102 -1.87032 0.755114 0
M  V30 9915 C 956.415 -1.81844 -0.720572 0
M  V30 9916 O 957.621 -2.46866 -1.13002 0
M  V30 9917 C 956.077 -3.35581 1.30052 0
M  V30 9918 C 955.685 -3.49274 2.80556 0
M  V30 9919 C 957.429 -4.1048 1.08196 0
M  V30 9920 C 955.336 -4.91838 3.28404 0
M  V30 9921 H 954.266 -0.70057 0.278779 0
M  V30 9922 H 956.917 -1.32663 1.26779 0
M  V30 9923 H 955.299 -3.89479 0.715667 0
M  V30 9924 H 956.473 -3.05598 3.44886 0
M  V30 9925 H 954.788 -2.87793 3.00939 0
M  V30 9926 H 957.385 -5.15652 1.41447 0
M  V30 9927 H 957.728 -4.16295 0.0196603 0
M  V30 9928 H 958.261 -3.62784 1.63195 0
M  V30 9929 H 955 -4.91196 4.34058 0
M  V30 9930 H 954.52 -5.36189 2.68815 0
M  V30 9931 H 956.199 -5.60602 3.23009 0
M  V30 9932 N 956.331 -0.831506 -1.3388 0
M  V30 9933 C 957.556 -0.435954 -2.02766 0
M  V30 9934 C 957.981 0.952889 -1.62178 0
M  V30 9935 O 957.339 1.62166 -0.810681 0
M  V30 9936 C 957.387 -0.555907 -3.56289 0
M  V30 9937 O 956.491 0.420826 -4.10247 0
M  V30 9938 H 955.832 -0.178248 -0.639628 0
M  V30 9939 H 958.362 -1.1243 -1.70941 0
M  V30 9940 H 958.372 -0.434831 -4.05676 0
M  V30 9941 H 957.047 -1.56881 -3.85177 0
M  V30 9942 H 955.624 0.257919 -3.72007 0
M  V30 9943 N 957.809 1.4625 -0.587256 0
M  V30 9944 C 958.739 2.33132 0.131076 0
M  V30 9945 C 959.72 1.45619 0.879158 0
M  V30 9946 O 960.905 1.74428 0.853723 0
M  V30 9947 C 958.035 3.27975 1.14236 0
M  V30 9948 C 956.989 4.24965 0.508819 0
M  V30 9949 C 956.315 5.09349 1.62689 0
M  V30 9950 C 957.615 5.19322 -0.55694 0
M  V30 9951 H 959.309 2.93442 -0.594333 0
M  V30 9952 H 956.855 1.41106 -0.287263 0
M  V30 9953 H 958.808 3.87614 1.65328 0
M  V30 9954 H 957.532 2.65781 1.8981 0
M  V30 9955 H 956.191 3.66595 0.0189337 0
M  V30 9956 H 955.839 4.43537 2.37242 0
M  V30 9957 H 955.539 5.75036 1.20861 0
M  V30 9958 H 957.063 5.71852 2.14049 0
M  V30 9959 H 958.477 5.73151 -0.130903 0
M  V30 9960 H 956.874 5.93376 -0.895801 0
M  V30 9961 H 957.944 4.62979 -1.44148 0
M  V30 9962 N 959.287 0.325282 1.54207 0
M  V30 9963 C 960.25 -0.527228 2.23054 0
M  V30 9964 C 961.25 -1.04217 1.22456 0
M  V30 9965 O 962.44 -0.934325 1.47024 0
M  V30 9966 C 959.572 -1.7325 2.93594 0
M  V30 9967 H 960.765 0.0746423 2.99807 0
M  V30 9968 H 958.318 0.0763872 1.56113 0
M  V30 9969 H 959.053 -2.37356 2.20981 0
M  V30 9970 H 958.838 -1.37065 3.67363 0
M  V30 9971 H 960.328 -2.3376 3.46043 0
M  V30 9972 N 960.765 -1.57509 0.0534917 0
M  V30 9973 C 961.695 -2.14698 -0.917999 0
M  V30 9974 C 962.676 -1.06924 -1.32292 0
M  V30 9975 O 963.861 -1.34875 -1.39723 0
M  V30 9976 C 960.991 -2.69383 -2.19203 0
M  V30 9977 C 959.945 -3.82161 -1.9271 0
M  V30 9978 C 959.271 -4.23373 -3.26587 0
M  V30 9979 C 960.571 -5.07199 -1.24686 0
M  V30 9980 H 962.265 -2.96125 -0.44165 0
M  V30 9981 H 959.811 -1.42446 -0.210993 0
M  V30 9982 H 961.764 -3.08031 -2.87567 0
M  V30 9983 H 960.488 -1.85151 -2.69048 0
M  V30 9984 H 959.147 -3.43989 -1.26757 0
M  V30 9985 H 958.795 -3.36089 -3.74237 0
M  V30 9986 H 958.495 -4.99385 -3.09658 0
M  V30 9987 H 960.019 -4.64623 -3.96178 0
M  V30 9988 H 961.433 -5.43279 -1.83088 0
M  V30 9989 H 959.83 -5.88369 -1.18076 0
M  V30 9990 H 960.9 -4.84386 -0.223227 0
M  V30 9991 N 962.243 0.219913 -1.56058 0
M  V30 9992 C 963.491 0.942199 -1.78793 0
M  V30 9993 C 963.812 1.84804 -0.622284 0
M  V30 9994 O 963.082 1.9255 0.360735 0
M  V30 9995 H 961.662 0.350895 -0.659455 0
M  V30 9996 H 964.324 0.231376 -1.93522 0
M  V30 9997 H 963.42 1.54804 -2.71002 0
M  V30 9998 N 963.721 1.49897 0.486681 0
M  V30 9999 C 964.946 1.64106 1.26823 0
M  V30 10000 C 965.371 0.317967 1.85393 0
M  V30 10001 O 964.729 -0.71626 1.66551 0
M  V30 10002 C 964.777 2.72301 2.36399 0
M  V30 10003 O 963.881 2.32469 3.40634 0
M  V30 10004 H 963.222 0.548794 0.373793 0
M  V30 10005 H 965.752 1.96177 0.581017 0
M  V30 10006 H 965.762 2.94906 2.81948 0
M  V30 10007 H 964.437 3.68335 1.93137 0
M  V30 10008 H 963.014 2.20251 3.00905 0
M  V30 10009 N 965.199 -0.738761 1.39212 0
M  V30 10010 C 966.429 -1.5258 1.39295 0
M  V30 10011 C 966.837 -1.89194 -0.0153 0
M  V30 10012 O 966.18 -1.5435 -0.996073 0
M  V30 10013 C 966.242 -2.84462 2.19822 0
M  V30 10014 C 965.906 -2.70303 3.68491 0
M  V30 10015 C 966.903 -2.39102 4.61656 0
M  V30 10016 C 964.588 -2.87291 4.1203 0
M  V30 10017 C 966.582 -2.25066 5.96342 0
M  V30 10018 C 964.269 -2.72874 5.46793 0
M  V30 10019 C 965.267 -2.41807 6.38763 0
M  V30 10020 O 964.955 -2.27475 7.71045 0
M  V30 10021 H 964.687 -0.478236 0.477772 0
M  V30 10022 H 967.241 -0.920846 1.83602 0
M  V30 10023 H 965.471 -3.47202 1.70257 0
M  V30 10024 H 967.16 -3.46058 2.12129 0
M  V30 10025 H 967.926 -2.25632 4.2932 0
M  V30 10026 H 963.805 -3.10466 3.40781 0
M  V30 10027 H 967.349 -2.00739 6.68094 0
M  V30 10028 H 963.246 -2.85922 5.78722 0
M  V30 10029 H 964.014 -2.42574 7.81729 0
M  V30 10030 N 966.677 -1.24326 -0.968545 0
M  V30 10031 C 967.902 -1.1104 -1.75171 0
M  V30 10032 C 968.327 0.333109 -1.85127 0
M  V30 10033 O 967.685 1.24115 -1.32156 0
M  V30 10034 C 967.733 -1.75397 -3.15068 0
M  V30 10035 O 966.837 -1.02417 -3.9948 0
M  V30 10036 H 966.178 -0.388488 -0.538491 0
M  V30 10037 H 968.708 -1.64617 -1.215 0
M  V30 10038 H 968.718 -1.8112 -3.65595 0
M  V30 10039 H 967.393 -2.80427 -3.07138 0
M  V30 10040 H 965.97 -1.04475 -3.57966 0
M  V30 10041 N 968.156 1.1691 -1.05688 0
M  V30 10042 C 969.381 1.91745 -0.790478 0
M  V30 10043 C 969.806 1.76568 0.648478 0
M  V30 10044 O 969.164 1.08682 1.45114 0
M  V30 10045 C 969.212 3.4067 -1.18222 0
M  V30 10046 O 968.316 4.11177 -0.317341 0
M  V30 10047 H 967.657 0.5976 -0.28943 0
M  V30 10048 H 970.187 1.48157 -1.41105 0
M  V30 10049 H 970.197 3.91424 -1.15114 0
M  V30 10050 H 968.872 3.51036 -2.2304 0
M  V30 10051 H 967.449 3.70645 -0.409459 0
M  V30 10052 N 969.634 0.838594 1.33437 0
M  V30 10053 C 970.88 0.444042 1.98494 0
M  V30 10054 C 971.235 -0.985759 1.65229 0
M  V30 10055 O 970.528 -1.67972 0.921736 0
M  V30 10056 C 970.722 0.601425 3.52303 0
M  V30 10057 C 970.551 2.04497 4.00513 0
M  V30 10058 C 969.321 2.68015 4.28364 0
M  V30 10059 C 971.519 3.01367 4.16752 0
M  V30 10060 N 969.501 4.03448 4.62713 0
M  V30 10061 C 970.872 4.21745 4.54457 0
M  V30 10062 C 972.927 2.97776 3.99041 0
M  V30 10063 C 971.63 5.39009 4.76301 0
M  V30 10064 C 973.656 4.14269 4.22061 0
M  V30 10065 C 973.018 5.33402 4.60067 0
M  V30 10066 H 969.117 0.210906 0.753022 0
M  V30 10067 H 971.701 1.0866 1.61558 0
M  V30 10068 H 969.872 -0.0113326 3.88398 0
M  V30 10069 H 971.604 0.178343 4.04307 0
M  V30 10070 H 968.359 2.19153 4.19844 0
M  V30 10071 H 968.783 4.73264 4.84098 0
M  V30 10072 H 973.425 2.06801 3.68773 0
M  V30 10073 H 971.143 6.30529 5.0543 0
M  V30 10074 H 974.729 4.12908 4.09876 0
M  V30 10075 H 973.609 6.22045 4.77525 0
M  V30 10076 N 971.112 -1.45937 0.595003 0
M  V30 10077 C 972.337 -2.07207 0.0894416 0
M  V30 10078 C 972.762 -1.43884 -1.21157 0
M  V30 10079 O 972.12 -0.526998 -1.73472 0
M  V30 10080 C 972.168 -3.60565 -0.0499828 0
M  V30 10081 O 971.272 -3.97364 -1.10342 0
M  V30 10082 H 970.613 -0.660471 0.0683627 0
M  V30 10083 H 973.143 -1.87386 0.82144 0
M  V30 10084 H 973.153 -4.0722 -0.252234 0
M  V30 10085 H 971.828 -4.06044 0.90006 0
M  V30 10086 H 970.405 -3.62401 -0.878645 0
M  V30 10087 N 972.59 -0.333456 -1.54032 0
M  V30 10088 C 974.006 0.0188405 -1.59589 0
M  V30 10089 C 974.206 1.49615 -1.34972 0
M  V30 10090 O 973.262 2.2535 -1.13901 0
M  V30 10091 C 974.575 -0.408273 -2.97915 0
M  V30 10092 C 976.123 -0.359763 -3.10926 0
M  V30 10093 C 976.598 -0.76219 -4.51613 0
M  V30 10094 N 978.089 -0.715981 -4.57633 0
M  V30 10095 C 978.824 -0.999436 -5.64623 0
M  V30 10096 N 978.32 -1.35053 -6.79509 0
M  V30 10097 N 980.113 -0.924343 -5.54448 0
M  V30 10098 H 972.264 -1.29587 -1.68289 0
M  V30 10099 H 974.527 -0.527584 -0.787629 0
M  V30 10100 H 974.233 -1.43793 -3.20962 0
M  V30 10101 H 974.107 0.221685 -3.76548 0
M  V30 10102 H 976.494 0.660703 -2.87609 0
M  V30 10103 H 976.575 -1.02479 -2.34375 0
M  V30 10104 H 976.219 -1.78062 -4.75664 0
M  V30 10105 H 976.149 -0.0747478 -5.26547 0
M  V30 10106 H 978.64 -0.456875 -3.75128 0
M  V30 10107 H 978.953 -1.55194 -7.57057 0
M  V30 10108 H 977.298 -1.38889 -6.80981 0
M  V30 10109 H 980.489 -0.649469 -4.63573 0
M  V30 10110 H 980.662 -1.1486 -6.37739 0
M  V30 10111 N 974.068 1.57479 -0.061844 0
M  V30 10112 C 975.314 1.93395 0.610443 0
M  V30 10113 C 975.647 0.941334 1.6986 0
M  V30 10114 O 974.922 -0.0310262 1.94475 0
M  V30 10115 C 975.205 3.39636 1.19664 0
M  V30 10116 C 975.058 4.49651 0.115805 0
M  V30 10117 C 976.377 3.86488 2.10512 0
M  V30 10118 H 973.496 0.703262 0.220436 0
M  V30 10119 H 976.138 1.89583 -0.125785 0
M  V30 10120 H 974.288 3.43015 1.82409 0
M  V30 10121 H 975.96 4.58397 -0.516728 0
M  V30 10122 H 974.203 4.30237 -0.55483 0
M  V30 10123 H 974.874 5.49089 0.566176 0
M  V30 10124 H 977.35 3.85052 1.57715 0
M  V30 10125 H 976.226 4.89444 2.48466 0
M  V30 10126 H 976.487 3.23856 3.00948 0
M  V30 10127 N 975.546 -0.211634 1.56173 0
M  V30 10128 C 976.479 -1.28982 1.88252 0
M  V30 10129 C 977.457 -1.4474 0.740889 0
M  V30 10130 O 978.641 -1.60394 0.990249 0
M  V30 10131 C 975.768 -2.65879 2.09824 0
M  V30 10132 C 974.814 -2.67082 3.3252 0
M  V30 10133 S 975.647 -2.2016 4.8815 0
M  V30 10134 C 976.803 -3.58913 5.12769 0
M  V30 10135 H 977.036 -1.01578 2.79409 0
M  V30 10136 H 974.569 -0.414351 1.48736 0
M  V30 10137 H 976.527 -3.44688 2.22935 0
M  V30 10138 H 975.188 -2.90502 1.19447 0
M  V30 10139 H 974.381 -3.67703 3.44689 0
M  V30 10140 H 973.983 -1.96343 3.18317 0
M  V30 10141 H 976.275 -4.54671 5.02276 0
M  V30 10142 H 977.218 -3.51652 6.14611 0
M  V30 10143 H 977.626 -3.5306 4.40465 0
M  V30 10144 N 977.024 -1.50153 -0.478725 0
M  V30 10145 C 978.27 -1.60998 -1.23318 0
M  V30 10146 C 978.603 -0.305868 -1.91776 0
M  V30 10147 O 977.878 0.692158 -1.81767 0
M  V30 10148 C 978.161 -2.78495 -2.28282 0
M  V30 10149 C 978.014 -4.18767 -1.64178 0
M  V30 10150 C 979.333 -2.91569 -3.2966 0
M  V30 10151 H 976.452 -0.585983 -0.446982 0
M  V30 10152 H 979.094 -1.82514 -0.528063 0
M  V30 10153 H 977.244 -2.60281 -2.8842 0
M  V30 10154 H 978.916 -4.48552 -1.07696 0
M  V30 10155 H 977.159 -4.23379 -0.94514 0
M  V30 10156 H 977.83 -4.96894 -2.40417 0
M  V30 10157 H 980.306 -3.08219 -2.79536 0
M  V30 10158 H 979.182 -3.75419 -4.0044 0
M  V30 10159 H 979.443 -2.01859 -3.93326 0
M  V30 10160 N 978.502 0.731368 -1.39602 0
M  V30 10161 C 979.779 1.48308 -1.27531 0
M  V30 10162 C 980.159 2.10795 0.113482 0
M  V30 10163 O 979.507 1.98886 1.12501 0
M  V30 10164 C 979.717 2.53156 -2.40235 0
M  V30 10165 C 981.065 3.19436 -2.79725 0
M  V30 10166 O 982.089 2.6347 -2.39712 0
M  V30 10167 O 980.948 4.20714 -3.48801 0
M  V30 10168 H 978.042 0.658753 -0.499973 0
M  V30 10169 H 980.588 0.764884 -1.51485 0
M  V30 10170 H 979.36 2.05387 -3.33064 0
M  V30 10171 H 978.983 3.3253 -2.17966 0
M  V30 10172 N 979.98 1.24838 0.961938 0
M  V30 10173 C 981.205 1.11967 1.7458 0
M  V30 10174 C 981.63 -0.323287 1.85301 0
M  V30 10175 O 980.988 -1.23412 1.32812 0
M  V30 10176 C 981.036 1.77066 3.14134 0
M  V30 10177 O 980.14 1.04534 3.98932 0
M  V30 10178 H 979.481 0.391338 0.536424 0
M  V30 10179 H 982.011 1.65259 1.20626 0
M  V30 10180 H 982.021 1.83056 3.64629 0
M  V30 10181 H 980.696 2.82052 3.05646 0
M  V30 10182 H 979.273 1.06372 3.57407 0
M  V30 10183 N 981.458 -1.16348 1.06306 0
M  V30 10184 C 982.405 -2.20741 0.673962 0
M  V30 10185 C 983.375 -1.628 -0.329454 0
M  V30 10186 O 984.56 -1.89547 -0.218313 0
M  V30 10187 C 981.7 -3.45036 0.0667008 0
M  V30 10188 C 980.813 -4.17221 1.12031 0
M  V30 10189 C 979.948 -5.29034 0.479176 0
M  V30 10190 C 978.987 -5.93021 1.51631 0
M  V30 10191 N 978.124 -6.96327 0.898528 0
M  V30 10192 H 982.964 -2.53376 1.56859 0
M  V30 10193 H 980.501 -1.24449 0.784276 0
M  V30 10194 H 982.459 -4.16099 -0.302916 0
M  V30 10195 H 981.089 -3.1295 -0.791333 0
M  V30 10196 H 980.141 -3.4476 1.60763 0
M  V30 10197 H 981.453 -4.60902 1.90712 0
M  V30 10198 H 980.607 -6.06674 0.0565993 0
M  V30 10199 H 979.346 -4.86517 -0.33951 0
M  V30 10200 H 978.351 -5.14104 1.94878 0
M  V30 10201 H 979.576 -6.37618 2.3371 0
M  V30 10202 H 977.522 -6.55923 0.100555 0
M  V30 10203 H 977.439 -7.38379 1.62272 0
M  V30 10204 H 978.707 -7.77888 0.5011 0
M  V30 10205 N 982.937 -0.845659 -1.3299 0
M  V30 10206 C 983.9 -0.288905 -2.27372 0
M  V30 10207 C 984.9 0.546263 -1.51237 0
M  V30 10208 O 986.09 0.359072 -1.70459 0
M  V30 10209 C 983.222 0.59224 -3.35716 0
M  V30 10210 H 984.415 -1.12181 -2.78128 0
M  V30 10211 H 981.968 -0.619276 -1.43508 0
M  V30 10212 H 982.703 1.44732 -2.90212 0
M  V30 10213 H 982.488 -0.00543255 -3.921 0
M  V30 10214 H 983.978 0.974848 -4.06062 0
M  V30 10215 N 984.415 1.45619 -0.602734 0
M  V30 10216 C 985.643 2.06647 -0.102253 0
M  V30 10217 C 986.058 1.4482 1.21131 0
M  V30 10218 O 985.415 0.560621 1.73676 0
M  V30 10219 C 985.466 3.61467 0.0490113 0
M  V30 10220 O 985.187 4.20985 -1.21257 0
M  V30 10221 C 986.688 4.39469 0.581517 0
M  V30 10222 H 983.908 0.667685 -0.0666155 0
M  V30 10223 H 986.452 1.86939 -0.829091 0
M  V30 10224 H 984.607 3.80534 0.726153 0
M  V30 10225 H 985.021 5.14103 -1.03915 0
M  V30 10226 H 986.495 5.48318 0.636462 0
M  V30 10227 H 986.972 4.0891 1.60277 0
M  V30 10228 H 987.578 4.25256 -0.061419 0
M  V30 10229 N 985.893 0.34162 1.53853 0
M  V30 10230 C 986.823 -0.508431 2.27897 0
M  V30 10231 C 987.804 -1.10425 1.29384 0
M  V30 10232 O 988.989 -1.126 1.58224 0
M  V30 10233 C 986.119 -1.66048 3.05034 0
M  V30 10234 C 985.073 -1.19309 4.11035 0
M  V30 10235 C 984.399 -2.4335 4.76114 0
M  V30 10236 C 985.699 -0.294952 5.21467 0
M  V30 10237 H 987.393 0.109251 2.99201 0
M  V30 10238 H 984.939 0.0539847 1.43899 0
M  V30 10239 H 986.892 -2.26158 3.5557 0
M  V30 10240 H 985.616 -2.30503 2.31379 0
M  V30 10241 H 984.275 -0.614809 3.61408 0
M  V30 10242 H 983.923 -3.06208 3.99056 0
M  V30 10243 H 983.623 -2.1276 5.47729 0
M  V30 10244 H 985.147 -3.0419 5.29434 0
M  V30 10245 H 986.561 -0.80285 5.67651 0
M  V30 10246 H 984.958 -0.0810221 6.00045 0
M  V30 10247 H 986.028 0.669433 4.80257 0
M  V30 10248 N 987.371 -1.57444 0.0701946 0
M  V30 10249 C 988.619 -1.93047 -0.598106 0
M  V30 10250 C 988.94 -0.950841 -1.70247 0
M  V30 10251 O 988.21 0.00127177 -1.959 0
M  V30 10252 H 986.79 -0.712648 -0.223924 0
M  V30 10253 H 989.452 -1.94481 0.127674 0
M  V30 10254 H 988.548 -2.94807 -1.02445 0
M  V30 10255 N 988.849 0.203349 -1.56283 0
M  V30 10256 C 989.779 1.2549 -1.96912 0
M  V30 10257 C 990.76 1.47919 -0.839884 0
M  V30 10258 O 991.945 1.59795 -1.10359 0
M  V30 10259 C 989.075 2.6009 -2.30153 0
M  V30 10260 C 988.029 2.52289 -3.45738 0
M  V30 10261 C 987.355 3.91086 -3.64632 0
M  V30 10262 C 988.655 2.05503 -4.80173 0
M  V30 10263 H 990.349 0.917306 -2.85002 0
M  V30 10264 H 987.895 0.439818 -1.37119 0
M  V30 10265 H 989.848 3.33829 -2.5717 0
M  V30 10266 H 988.572 2.95574 -1.38937 0
M  V30 10267 H 987.231 1.81006 -3.18798 0
M  V30 10268 H 986.879 4.23908 -2.7076 0
M  V30 10269 H 986.579 3.86742 -4.42385 0
M  V30 10270 H 988.103 4.66459 -3.94016 0
M  V30 10271 H 989.517 2.68995 -5.06275 0
M  V30 10272 H 987.914 2.1218 -5.61337 0
M  V30 10273 H 988.984 1.00793 -4.74309 0
M  V30 10274 N 990.327 1.50405 0.470755 0
M  V30 10275 C 991.575 1.61092 1.2204 0
M  V30 10276 C 991.896 0.313487 1.92464 0
M  V30 10277 O 991.166 -0.669043 1.84121 0
M  V30 10278 H 989.746 0.593618 0.45346 0
M  V30 10279 H 992.408 1.87184 0.542985 0
M  V30 10280 H 991.504 2.42222 1.96812 0
M  V30 10281 N 991.805 -0.723954 1.39988 0
M  V30 10282 C 993.053 -1.48078 1.3754 0
M  V30 10283 C 993.374 -1.94985 -0.0243358 0
M  V30 10284 O 992.644 -1.69764 -0.977602 0
M  V30 10285 H 991.224 -0.549354 0.506181 0
M  V30 10286 H 993.886 -0.858746 1.74962 0
M  V30 10287 H 992.982 -2.35763 2.04505 0
M  V30 10288 N 993.283 -1.25346 -0.955304 0
M  V30 10289 C 994.529 -1.10218 -1.70235 0
M  V30 10290 C 994.862 0.356124 -1.90907 0
M  V30 10291 O 994.137 1.26253 -1.47954 0
M  V30 10292 C 994.42 -1.85627 -3.08569 0
M  V30 10293 C 994.273 -3.39281 -2.95311 0
M  V30 10294 C 995.592 -1.63886 -4.08448 0
M  V30 10295 H 992.711 -0.401781 -0.617852 0
M  V30 10296 H 995.353 -1.5417 -1.11048 0
M  V30 10297 H 993.503 -1.48269 -3.59094 0
M  V30 10298 H 995.175 -3.8631 -2.52116 0
M  V30 10299 H 993.418 -3.67027 -2.31244 0
M  V30 10300 H 994.089 -3.87258 -3.93364 0
M  V30 10301 H 996.565 -1.96406 -3.6683 0
M  V30 10302 H 995.441 -2.19087 -5.03281 0
M  V30 10303 H 995.702 -0.580021 -4.38279 0
M  V30 10304 N 994.761 1.15782 -1.06922 0
M  V30 10305 C 995.724 2.18578 -0.689654 0
M  V30 10306 C 996.724 1.58553 0.267872 0
M  V30 10307 O 997.914 1.7413 0.0494097 0
M  V30 10308 C 995.046 3.40896 -0.0157919 0
M  V30 10309 H 996.239 2.53672 -1.59971 0
M  V30 10310 H 993.792 1.30168 -0.865214 0
M  V30 10311 H 994.527 3.11367 0.906712 0
M  V30 10312 H 994.312 3.85721 -0.704415 0
M  V30 10313 H 995.802 4.16937 0.235266 0
M  V30 10314 N 996.239 0.8527 1.3254 0
M  V30 10315 C 997.485 0.455798 1.97612 0
M  V30 10316 C 997.818 -0.985616 1.6733 0
M  V30 10317 O 997.093 -1.69129 0.960493 0
M  V30 10318 C 997.376 0.69312 3.53366 0
M  V30 10319 C 997.229 2.18281 3.93285 0
M  V30 10320 C 998.548 0.148236 4.3985 0
M  V30 10321 H 995.667 0.167078 0.717812 0
M  V30 10322 H 998.309 1.07076 1.56954 0
M  V30 10323 H 996.459 0.169677 3.88129 0
M  V30 10324 H 998.131 2.77218 3.68711 0
M  V30 10325 H 996.374 2.66206 3.42515 0
M  V30 10326 H 997.045 2.29957 5.01821 0
M  V30 10327 H 999.521 0.595834 4.11812 0
M  V30 10328 H 998.397 0.343873 5.47822 0
M  V30 10329 H 998.658 -0.948872 4.31797 0
M  V30 10330 N 997.718 -1.45297 0.610449 0
M  V30 10331 C 998.964 -2.02518 0.106917 0
M  V30 10332 C 999.297 -1.47747 -1.26034 0
M  V30 10333 O 998.572 -0.65329 -1.832 0
M  V30 10334 C 998.855 -3.6003 0.0710975 0
M  V30 10335 C 998.708 -4.25128 1.46922 0
M  V30 10336 C 1000.03 -4.35778 -0.61524 0
M  V30 10337 H 997.146 -0.735896 0.040327 0
M  V30 10338 H 999.788 -1.73117 0.782968 0
M  V30 10339 H 997.938 -3.85209 -0.504611 0
M  V30 10340 H 999.61 -4.11125 2.09223 0
M  V30 10341 H 997.853 -3.83418 2.02911 0
M  V30 10342 H 998.524 -5.34046 1.39637 0
M  V30 10343 H 1001 -4.1591 -0.125871 0
M  V30 10344 H 999.876 -5.45506 -0.609419 0
M  V30 10345 H 1000.14 -4.08859 -1.68186 0
M  V30 10346 N 999.196 -0.349774 -1.5367 0
M  V30 10347 C 1000.13 0.496338 -2.28164 0
M  V30 10348 C 1001.11 1.09737 -1.29968 0
M  V30 10349 O 1002.29 1.11759 -1.58819 0
M  V30 10350 C 999.422 1.64428 -3.0591 0
M  V30 10351 C 998.376 1.17127 -4.11661 0
M  V30 10352 C 997.702 2.40822 -4.77398 0
M  V30 10353 C 999.002 0.267293 -5.21616 0
M  V30 10354 H 1000.7 -0.125117 -2.99138 0
M  V30 10355 H 998.242 -0.0616152 -1.43868 0
M  V30 10356 H 1000.19 2.2427 -3.56765 0
M  V30 10357 H 998.919 2.29272 -2.32598 0
M  V30 10358 H 997.578 0.595634 -3.61729 0
M  V30 10359 H 997.226 3.04088 -4.00674 0
M  V30 10360 H 996.926 2.09852 -5.48849 0
M  V30 10361 H 998.45 3.01378 -5.3104 0
M  V30 10362 H 999.864 0.772734 -5.68068 0
M  V30 10363 H 998.261 0.0491991 -6.0008 0
M  V30 10364 H 999.331 -0.694892 -4.79895 0
M  V30 10365 N 1000.67 1.57404 -0.0785433 0
M  V30 10366 C 1001.92 1.93361 0.58786 0
M  V30 10367 C 1002.24 0.959856 1.6974 0
M  V30 10368 O 1001.51 0.0091173 1.95898 0
M  V30 10369 H 1000.09 0.713825 0.220141 0
M  V30 10370 H 1002.75 1.94411 -0.137986 0
M  V30 10371 H 1001.85 2.95346 1.00881 0
M  V30 10372 N 1002.15 -0.195058 1.56388 0
M  V30 10373 C 1003.11 -1.2254 1.93692 0
M  V30 10374 C 1004.11 -1.38437 0.81804 0
M  V30 10375 O 1005.3 -1.36248 1.08545 0
M  V30 10376 C 1002.44 -2.59476 2.21099 0
M  V30 10377 H 1003.63 -0.906544 2.8587 0
M  V30 10378 H 1001.18 -0.436577 1.50079 0
M  V30 10379 H 1001.92 -2.96417 1.31558 0
M  V30 10380 H 1001.7 -2.4931 3.02634 0
M  V30 10381 H 1003.19 -3.33777 2.50964 0
M  V30 10382 N 1003.63 -1.50653 -0.462772 0
M  V30 10383 C 1004.88 -1.62297 -1.21603 0
M  V30 10384 C 1005.21 -0.326191 -1.91441 0
M  V30 10385 O 1004.48 0.67284 -1.82491 0
M  V30 10386 C 1004.77 -2.80901 -2.25315 0
M  V30 10387 C 1004.62 -4.20484 -1.59728 0
M  V30 10388 C 1005.94 -2.95049 -3.26549 0
M  V30 10389 H 1003.06 -0.590691 -0.440741 0
M  V30 10390 H 1005.7 -1.83064 -0.508675 0
M  V30 10391 H 1003.85 -2.63325 -2.85643 0
M  V30 10392 H 1005.52 -4.49669 -1.02932 0
M  V30 10393 H 1003.76 -4.24357 -0.900181 0
M  V30 10394 H 1004.44 -4.99416 -2.35133 0
M  V30 10395 H 1006.91 -3.11166 -2.76251 0
M  V30 10396 H 1005.79 -3.79645 -3.96435 0
M  V30 10397 H 1006.05 -2.06019 -3.91163 0
M  V30 10398 N 1005.11 0.71652 -1.4037 0
M  V30 10399 C 1006.04 1.84012 -1.34963 0
M  V30 10400 C 1007.02 1.61102 -0.22017 0
M  V30 10401 O 1008.2 1.84127 -0.403676 0
M  V30 10402 C 1005.33 3.20334 -1.10017 0
M  V30 10403 C 1004.38 3.62072 -2.25402 0
M  V30 10404 S 1005.21 3.69295 -3.8779 0
M  V30 10405 C 1006.37 5.08378 -3.65107 0
M  V30 10406 H 1006.6 1.88318 -2.30052 0
M  V30 10407 H 1004.13 0.883208 -1.26644 0
M  V30 10408 H 1006.09 3.99042 -0.963097 0
M  V30 10409 H 1004.75 3.13662 -0.16584 0
M  V30 10410 H 1003.94 4.61051 -2.03587 0
M  V30 10411 H 1003.55 2.90619 -2.35408 0
M  V30 10412 H 1005.84 5.95268 -3.23516 0
M  V30 10413 H 1006.78 5.35228 -4.63613 0
M  V30 10414 H 1007.19 4.78927 -2.98813 0
M  V30 10415 N 1006.59 1.25851 0.948643 0
M  V30 10416 C 1007.55 1.0683 2.0278 0
M  V30 10417 C 1008.55 0.0191016 1.60789 0
M  V30 10418 O 1009.74 0.261836 1.72221 0
M  V30 10419 C 1006.87 0.623318 3.35153 0
M  V30 10420 H 1008.06 2.02635 2.21086 0
M  V30 10421 H 1005.62 1.08343 1.12657 0
M  V30 10422 H 1006.35 -0.337053 3.22544 0
M  V30 10423 H 1006.14 1.38082 3.66982 0
M  V30 10424 H 1007.63 0.511854 4.14451 0
M  V30 10425 N 1008.06 -1.15214 1.07534 0
M  V30 10426 C 1009.03 -2.18209 0.701237 0
M  V30 10427 C 1010.03 -1.58693 -0.25946 0
M  V30 10428 O 1011.22 -1.74154 -0.0401744 0
M  V30 10429 C 1008.35 -3.40883 0.0338703 0
M  V30 10430 H 1009.54 -2.5282 1.61314 0
M  V30 10431 H 1007.1 -1.29707 0.872105 0
M  V30 10432 H 1007.83 -3.11843 -0.890187 0
M  V30 10433 H 1007.62 -3.85342 0.72486 0
M  V30 10434 H 1009.11 -4.17056 -0.213152 0
M  V30 10435 N 1009.54 -0.859717 -1.32086 0
M  V30 10436 C 1010.48 -0.252764 -2.26796 0
M  V30 10437 C 1011.45 0.612178 -1.50636 0
M  V30 10438 O 1012.64 0.567865 -1.79743 0
M  V30 10439 C 1009.76 0.643017 -3.3254 0
M  V30 10440 C 1008.81 -0.149211 -4.26239 0
M  V30 10441 S 1009.64 -1.52097 -5.13446 0
M  V30 10442 C 1010.8 -0.631035 -6.22711 0
M  V30 10443 H 1011.03 -1.05563 -2.77928 0
M  V30 10444 H 1008.57 -0.657639 -1.39694 0
M  V30 10445 H 1010.52 1.15418 -3.9394 0
M  V30 10446 H 1009.18 1.41974 -2.80183 0
M  V30 10447 H 1008.38 0.53328 -5.01171 0
M  V30 10448 H 1007.98 -0.592128 -3.69283 0
M  V30 10449 H 1010.27 0.162638 -6.77305 0
M  V30 10450 H 1011.21 -1.35116 -6.95089 0
M  V30 10451 H 1011.62 -0.203131 -5.64134 0
M  V30 10452 N 1011.02 1.44971 -0.618145 0
M  V30 10453 C 1012.27 2.0176 -0.11725 0
M  V30 10454 C 1012.59 1.48773 1.26062 0
M  V30 10455 O 1011.86 0.686152 1.83491 0
M  V30 10456 H 1010.44 0.745909 -0.0403545 0
M  V30 10457 H 1013.1 1.77638 -0.801923 0
M  V30 10458 H 1012.2 3.1201 -0.0750477 0
M  V30 10459 N 1012.5 0.357919 1.53482 0
M  V30 10460 C 1013.75 -0.234163 2.01142 0
M  V30 10461 C 1014.07 -1.49399 1.2454 0
M  V30 10462 O 1013.33 -1.92981 0.325111 0
M  V30 10463 C 1013.63 -0.579617 3.52669 0
M  V30 10464 C 1013.29 0.584988 4.47089 0
M  V30 10465 C 1011.96 0.904558 4.72622 0
M  V30 10466 C 1014.31 1.3656 5.02992 0
M  V30 10467 C 1011.64 2.00685 5.5131 0
M  V30 10468 C 1013.99 2.45824 5.82884 0
M  V30 10469 C 1012.65 2.78325 6.06706 0
M  V30 10470 H 1011.92 -0.0856863 0.736029 0
M  V30 10471 H 1014.57 0.488801 1.85157 0
M  V30 10472 H 1012.87 -1.38349 3.66561 0
M  V30 10473 H 1014.57 -1.04985 3.87013 0
M  V30 10474 H 1011.16 0.32587 4.27359 0
M  V30 10475 H 1015.34 1.13196 4.83219 0
M  V30 10476 H 1010.6 2.26272 5.67988 0
M  V30 10477 H 1014.77 3.06732 6.25211 0
M  V30 10478 H 1012.4 3.63862 6.67464 0
M  V30 10479 N 1013.98 -1.5736 0.0868897 0
M  V30 10480 C 1015.22 -1.94054 -0.578741 0
M  V30 10481 C 1015.55 -0.968047 -1.68698 0
M  V30 10482 O 1014.81 0.0137824 -1.95695 0
M  V30 10483 C 1015.11 -3.37316 -1.18123 0
M  V30 10484 C 1014.77 -4.50467 -0.197607 0
M  V30 10485 C 1013.43 -4.81145 0.072952 0
M  V30 10486 C 1015.79 -5.19036 0.474473 0
M  V30 10487 C 1013.11 -5.77723 1.02242 0
M  V30 10488 C 1015.47 -6.16632 1.41236 0
M  V30 10489 C 1014.13 -6.45719 1.69124 0
M  V30 10490 H 1013.4 -0.710093 -0.211776 0
M  V30 10491 H 1016.05 -1.90822 0.160978 0
M  V30 10492 H 1014.35 -3.37085 -1.99701 0
M  V30 10493 H 1016.05 -3.63003 -1.7038 0
M  V30 10494 H 1012.64 -4.2655 -0.418669 0
M  V30 10495 H 1016.82 -4.95518 0.278581 0
M  V30 10496 H 1012.08 -5.98578 1.24557 0
M  V30 10497 H 1016.25 -6.68862 1.939 0
M  V30 10498 H 1013.88 -7.20365 2.42855 0
M  V30 10499 N 1015.45 0.186762 -1.56489 0
M  V30 10500 C 1016.68 0.925916 -1.85584 0
M  V30 10501 C 1017.1 1.75708 -0.671446 0
M  V30 10502 O 1016.46 1.7728 0.379687 0
M  V30 10503 C 1016.51 1.79107 -3.12975 0
M  V30 10504 O 1015.61 2.89088 -2.94112 0
M  V30 10505 H 1014.96 0.260275 -0.610863 0
M  V30 10506 H 1017.49 0.189561 -2.0372 0
M  V30 10507 H 1017.5 2.19408 -3.43983 0
M  V30 10508 H 1016.17 1.18044 -3.98796 0
M  V30 10509 H 1014.75 2.52482 -2.74422 0
M  V30 10510 N 1016.93 1.50896 0.454776 0
M  V30 10511 C 1018.16 1.66239 1.22671 0
M  V30 10512 C 1018.57 0.351876 1.85899 0
M  V30 10513 O 1017.91 -0.677848 1.70736 0
M  V30 10514 C 1017.98 2.70812 2.36434 0
M  V30 10515 C 1017.64 4.13913 1.93714 0
M  V30 10516 C 1018.64 4.99259 1.45039 0
M  V30 10517 C 1016.32 4.59921 2.01937 0
M  V30 10518 C 1018.32 6.28667 1.05151 0
M  V30 10519 C 1016 5.89329 1.6166 0
M  V30 10520 C 1017 6.73529 1.13347 0
M  V30 10521 O 1016.69 8.0052 0.736354 0
M  V30 10522 H 1016.42 0.561443 0.376508 0
M  V30 10523 H 1018.97 1.97974 0.547325 0
M  V30 10524 H 1017.2 2.34355 3.07595 0
M  V30 10525 H 1018.89 2.7521 2.98353 0
M  V30 10526 H 1019.66 4.64925 1.38095 0
M  V30 10527 H 1015.54 3.94518 2.38488 0
M  V30 10528 H 1019.08 6.94339 0.673711 0
M  V30 10529 H 1014.98 6.23182 1.68269 0
M  V30 10530 H 1015.75 8.1393 0.863759 0
M  V30 10531 N 1018.41 -0.709066 1.40748 0
M  V30 10532 C 1019.34 -1.83583 1.4429 0
M  V30 10533 C 1020.32 -1.67378 0.303067 0
M  V30 10534 O 1021.51 -1.87312 0.512612 0
M  V30 10535 C 1018.64 -3.21599 1.31116 0
M  V30 10536 C 1017.59 -3.52486 2.4277 0
M  V30 10537 C 1016.92 -4.89716 2.14668 0
M  V30 10538 C 1018.22 -3.52824 3.85113 0
M  V30 10539 H 1019.91 -1.80876 2.38588 0
M  V30 10540 H 1017.46 -0.868795 1.14839 0
M  V30 10541 H 1019.41 -4.00123 1.32209 0
M  V30 10542 H 1018.13 -3.24898 0.332965 0
M  V30 10543 H 1016.79 -2.76305 2.40937 0
M  V30 10544 H 1016.44 -4.89625 1.15224 0
M  V30 10545 H 1016.14 -5.11347 2.89478 0
M  V30 10546 H 1017.66 -5.70566 2.17455 0
M  V30 10547 H 1019.08 -4.21377 3.88734 0
M  V30 10548 H 1017.48 -3.85984 4.59496 0
M  V30 10549 H 1018.55 -2.52073 4.14231 0
M  V30 10550 N 1019.89 -1.26353 -0.941956 0
M  V30 10551 C 1021.14 -1.1163 -1.68473 0
M  V30 10552 C 1021.46 0.34108 -1.91994 0
M  V30 10553 O 1020.73 1.24065 -1.51607 0
M  V30 10554 H 1019.31 -0.410113 -0.624353 0
M  V30 10555 H 1021.97 -1.58669 -1.13182 0
M  V30 10556 H 1021.07 -1.63445 -2.6588 0
M  V30 10557 N 1021.37 1.14642 -1.08144 0
M  V30 10558 C 1022.62 1.84964 -0.804437 0
M  V30 10559 C 1022.93 1.8369 0.672106 0
M  V30 10560 O 1024.14 2.49775 1.06417 0
M  V30 10561 C 1022.59 3.32015 -1.38904 0
M  V30 10562 C 1022.2 3.41713 -2.89718 0
M  V30 10563 C 1023.94 4.07467 -1.19041 0
M  V30 10564 C 1021.85 4.82958 -3.41329 0
M  V30 10565 H 1020.78 0.692932 -0.297256 0
M  V30 10566 H 1023.43 1.29255 -1.30251 0
M  V30 10567 H 1021.81 3.87445 -0.818679 0
M  V30 10568 H 1022.99 2.96347 -3.52867 0
M  V30 10569 H 1021.3 2.79713 -3.08463 0
M  V30 10570 H 1023.9 5.1172 -1.55069 0
M  V30 10571 H 1024.24 4.16097 -0.130027 0
M  V30 10572 H 1024.78 3.58329 -1.72757 0
M  V30 10573 H 1021.51 4.79515 -4.46929 0
M  V30 10574 H 1021.03 5.28873 -2.82937 0
M  V30 10575 H 1022.71 5.51841 -3.37759 0
M  V30 10576 N 1022.85 0.866709 1.31628 0
M  V30 10577 C 1024.26 0.558188 1.49521 0
M  V30 10578 C 1024.46 -0.90844 1.7986 0
M  V30 10579 O 1023.52 -1.6908 1.87531 0
M  V30 10580 C 1024.83 1.45559 2.63122 0
M  V30 10581 C 1026.38 1.45728 2.77006 0
M  V30 10582 C 1026.85 2.34017 3.937 0
M  V30 10583 N 1028.34 2.31879 4.00982 0
M  V30 10584 C 1029.08 2.96915 4.90539 0
M  V30 10585 N 1028.58 3.71109 5.85021 0
M  V30 10586 N 1030.37 2.86241 4.83759 0
M  V30 10587 H 1022.52 1.81574 1.10203 0
M  V30 10588 H 1024.78 0.77621 0.544244 0
M  V30 10589 H 1024.49 2.49904 2.47469 0
M  V30 10590 H 1024.36 1.15174 3.59186 0
M  V30 10591 H 1026.75 0.421419 2.92075 0
M  V30 10592 H 1026.83 1.80134 1.81619 0
M  V30 10593 H 1026.47 3.37678 3.79389 0
M  V30 10594 H 1026.4 1.96937 4.88388 0
M  V30 10595 H 1028.9 1.77948 3.33381 0
M  V30 10596 H 1029.21 4.1787 6.5008 0
M  V30 10597 H 1027.55 3.75217 5.8501 0
M  V30 10598 H 1030.74 2.27819 4.08921 0
M  V30 10599 H 1030.92 3.37206 5.5335 0
M  V30 10600 N 1024.32 -1.44642 0.625825 0
M  V30 10601 C 1025.55 -2.06971 0.133373 0
M  V30 10602 C 1025.97 -1.46421 -1.18078 0
M  V30 10603 O 1025.33 -0.563676 -1.72315 0
M  V30 10604 C 1025.38 -3.6059 0.0265097 0
M  V30 10605 O 1024.48 -3.99615 -1.01889 0
M  V30 10606 H 1023.82 -0.658873 0.0823568 0
M  V30 10607 H 1026.35 -1.85601 0.861002 0
M  V30 10608 H 1026.36 -4.07663 -0.1658 0
M  V30 10609 H 1025.04 -4.04043 0.985986 0
M  V30 10610 H 1023.62 -3.64183 -0.801577 0
M  V30 10611 N 1025.8 -0.366053 -1.5329 0
M  V30 10612 C 1027.03 0.226839 -2.06156 0
M  V30 10613 C 1027.45 1.41637 -1.23776 0
M  V30 10614 O 1026.81 1.7947 -0.256948 0
M  V30 10615 C 1026.86 0.597956 -3.55608 0
M  V30 10616 O 1025.96 1.69512 -3.75951 0
M  V30 10617 H 1025.3 0.0329156 -0.663184 0
M  V30 10618 H 1027.83 -0.526793 -1.97702 0
M  V30 10619 H 1027.84 0.868831 -3.98642 0
M  V30 10620 H 1026.52 -0.271838 -4.15011 0
M  V30 10621 H 1025.09 1.41976 -3.44815 0
M  V30 10622 N 1027.28 1.57312 -0.0952337 0
M  V30 10623 C 1028.21 2.17056 0.860753 0
M  V30 10624 C 1029.19 1.10394 1.29411 0
M  V30 10625 O 1030.38 1.38532 1.36098 0
M  V30 10626 C 1027.51 2.751 2.11984 0
M  V30 10627 C 1026.46 3.87136 1.8251 0
M  V30 10628 C 1025.79 4.31883 3.15247 0
M  V30 10629 C 1027.09 5.10326 1.11194 0
M  V30 10630 H 1028.78 2.97192 0.362983 0
M  V30 10631 H 1026.33 1.42955 0.173151 0
M  V30 10632 H 1028.28 3.15547 2.79299 0
M  V30 10633 H 1027 1.92219 2.64044 0
M  V30 10634 H 1025.66 3.47229 1.17592 0
M  V30 10635 H 1025.31 3.45893 3.65195 0
M  V30 10636 H 1025.01 5.0742 2.96309 0
M  V30 10637 H 1026.53 4.74964 3.83721 0
M  V30 10638 H 1027.95 5.47942 1.6862 0
M  V30 10639 H 1026.34 5.91293 1.02435 0
M  V30 10640 H 1027.41 4.84807 0.0947227 0
M  V30 10641 N 1028.76 -0.17846 1.56586 0
M  V30 10642 C 1030 -0.897562 1.81856 0
M  V30 10643 C 1030.34 -1.82204 0.671955 0
M  V30 10644 O 1029.61 -1.91739 -0.326535 0
M  V30 10645 C 1029.89 -1.69942 3.17477 0
M  V30 10646 C 1029.75 -0.798545 4.42655 0
M  V30 10647 C 1031.07 -2.66861 3.49962 0
M  V30 10648 H 1028.19 -0.324863 0.661539 0
M  V30 10649 H 1030.83 -0.164106 1.8929 0
M  V30 10650 H 1028.98 -2.32471 3.11271 0
M  V30 10651 H 1030.65 -0.18668 4.60922 0
M  V30 10652 H 1028.89 -0.106181 4.3367 0
M  V30 10653 H 1029.56 -1.39496 5.34083 0
M  V30 10654 H 1032.04 -2.1446 3.56576 0
M  V30 10655 H 1030.92 -3.20037 4.45946 0
M  V30 10656 H 1031.18 -3.46715 2.74301 0
M  V30 10657 N 1030.24 -1.51135 -0.446768 0
M  V30 10658 C 1031.48 -1.62571 -1.19388 0
M  V30 10659 C 1031.8 -0.3432 -1.92566 0
M  V30 10660 O 1033 -0.336804 -2.69403 0
M  V30 10661 C 1031.46 -2.87071 -2.17068 0
M  V30 10662 C 1031.07 -4.22291 -1.49581 0
M  V30 10663 C 1032.81 -3.07862 -2.9227 0
M  V30 10664 C 1030.72 -5.3795 -2.45689 0
M  V30 10665 H 1029.65 -0.60549 -0.449331 0
M  V30 10666 H 1032.3 -1.77593 -0.461846 0
M  V30 10667 H 1030.68 -2.65662 -2.93666 0
M  V30 10668 H 1031.86 -4.54046 -0.786054 0
M  V30 10669 H 1030.17 -4.07302 -0.865677 0
M  V30 10670 H 1032.77 -3.91444 -3.64246 0
M  V30 10671 H 1033.11 -2.20559 -3.53072 0
M  V30 10672 H 1033.64 -3.29566 -2.2278 0
M  V30 10673 H 1030.38 -6.27484 -1.89591 0
M  V30 10674 H 1029.9 -5.10583 -3.14746 0
M  V30 10675 H 1031.58 -5.69517 -3.07017 0
M  V30 10676 N 1031.71 0.701592 -1.41122 0
M  V30 10677 C 1032.64 1.82815 -1.45262 0
M  V30 10678 C 1033.62 1.67215 -0.311939 0
M  V30 10679 O 1034.81 1.87038 -0.522538 0
M  V30 10680 C 1031.94 3.20899 -1.32819 0
M  V30 10681 C 1030.89 3.51194 -2.44636 0
M  V30 10682 C 1030.22 4.8857 -2.17263 0
M  V30 10683 C 1031.52 3.50777 -3.86979 0
M  V30 10684 H 1033.21 1.79608 -2.39544 0
M  V30 10685 H 1030.76 0.862693 -1.15298 0
M  V30 10686 H 1032.71 3.99417 -1.34329 0
M  V30 10687 H 1031.44 3.24717 -0.350191 0
M  V30 10688 H 1030.1 2.75024 -2.42399 0
M  V30 10689 H 1029.74 4.89007 -1.17819 0
M  V30 10690 H 1029.44 5.09805 -2.92186 0
M  V30 10691 H 1030.97 5.69405 -2.20478 0
M  V30 10692 H 1032.38 4.19309 -3.90964 0
M  V30 10693 H 1030.78 3.83542 -4.61536 0
M  V30 10694 H 1031.85 2.49873 -4.15562 0
M  V30 10695 N 1033.19 1.2685 0.935242 0
M  V30 10696 C 1034.12 1.04717 2.0388 0
M  V30 10697 C 1035.14 0.00567507 1.62799 0
M  V30 10698 O 1036.33 0.246408 1.76791 0
M  V30 10699 C 1033.43 0.56496 3.34158 0
M  V30 10700 C 1032.6 1.67704 4.03973 0
M  V30 10701 C 1031.66 1.19186 5.12524 0
M  V30 10702 O 1030.68 1.89008 5.36903 0
M  V30 10703 N 1031.89 0.0434554 5.80484 0
M  V30 10704 H 1034.65 1.99746 2.23431 0
M  V30 10705 H 1032.21 1.18316 1.10512 0
M  V30 10706 H 1034.2 0.224436 4.04077 0
M  V30 10707 H 1032.77 -0.291899 3.11234 0
M  V30 10708 H 1031.99 2.18821 3.27889 0
M  V30 10709 H 1033.28 2.42361 4.47368 0
M  V30 10710 H 1032.68 -0.539502 5.63122 0
M  V30 10711 H 1031.24 -0.237946 6.51366 0
M  V30 10712 N 1034.67 -1.14067 1.0875 0
M  V30 10713 C 1035.92 -1.85459 0.82053 0
M  V30 10714 C 1036.25 -1.82923 -0.65213 0
M  V30 10715 O 1035.52 -1.26241 -1.47965 0
M  V30 10716 C 1035.81 -3.33937 1.34752 0
M  V30 10717 C 1035.66 -3.45026 2.88578 0
M  V30 10718 C 1036.98 -4.2915 0.975636 0
M  V30 10719 H 1034.1 -0.673384 0.299538 0
M  V30 10720 H 1036.74 -1.33927 1.34772 0
M  V30 10721 H 1034.89 -3.77953 0.899086 0
M  V30 10722 H 1036.56 -3.09771 3.41818 0
M  V30 10723 H 1034.81 -2.86124 3.26061 0
M  V30 10724 H 1035.48 -4.49408 3.20526 0
M  V30 10725 H 1037.95 -3.93168 1.36228 0
M  V30 10726 H 1036.83 -5.31489 1.37152 0
M  V30 10727 H 1037.09 -4.41945 -0.116956 0
M  V30 10728 N 1036.15 -0.873678 -1.31166 0
M  V30 10729 C 1037.39 -0.487178 -1.96861 0
M  V30 10730 C 1037.73 0.95887 -1.68877 0
M  V30 10731 O 1037 1.6758 -0.987279 0
M  V30 10732 C 1037.29 -0.74925 -3.52219 0
M  V30 10733 C 1037.14 -2.2451 -3.89763 0
M  V30 10734 C 1038.46 -0.218194 -4.39559 0
M  V30 10735 H 1035.58 -0.178477 -0.715063 0
M  V30 10736 H 1038.22 -1.0956 -1.55231 0
M  V30 10737 H 1036.37 -0.231403 -3.8781 0
M  V30 10738 H 1038.04 -2.83049 -3.64254 0
M  V30 10739 H 1036.28 -2.71621 -3.38237 0
M  V30 10740 H 1036.95 -2.37911 -4.98099 0
M  V30 10741 H 1039.43 -0.661274 -4.10812 0
M  V30 10742 H 1038.31 -0.430983 -5.47205 0
M  V30 10743 H 1038.57 0.880056 -4.33252 0
M  V30 10744 N 1037.63 1.44308 -0.633487 0
M  V30 10745 C 1039.04 1.85387 -0.221009 0
M  V30 10746 C 1039.39 1.5301 1.22811 0
M  V30 10747 O 1038.51 0.969325 1.93476 0
M  V30 10748 C 1039.11 3.36497 -0.394331 0
M  V30 10749 C 1037.67 3.76382 -0.0363405 0
M  V30 10750 C 1036.81 2.68146 -0.706598 0
M  V30 10751 H 1039.77 1.34741 -0.83849 0
M  V30 10752 H 1039.79 3.78735 0.366026 0
M  V30 10753 H 1039.3 3.60031 -1.44911 0
M  V30 10754 H 1037.4 3.58463 1.01661 0
M  V30 10755 H 1037.51 4.77 -0.448045 0
M  V30 10756 H 1035.88 2.54306 -0.14168 0
M  V30 10757 H 1036.66 2.94512 -1.76401 0
M  V30 10758 N 1039.1 0.374177 1.53094 0
M  V30 10759 C 1040.35 -0.212816 2.01379 0
M  V30 10760 C 1040.68 -1.48069 1.26118 0
M  V30 10761 O 1039.93 -1.92625 0.345561 0
M  V30 10762 C 1040.23 -0.542179 3.53264 0
M  V30 10763 C 1039.9 0.632375 4.46444 0
M  V30 10764 C 1038.56 0.954635 4.71636 0
M  V30 10765 C 1040.91 1.41887 5.01515 0
M  V30 10766 C 1038.24 2.06521 5.4915 0
M  V30 10767 C 1040.59 2.51993 5.80243 0
M  V30 10768 C 1039.26 2.84744 6.03719 0
M  V30 10769 H 1038.53 -0.0778749 0.736897 0
M  V30 10770 H 1041.17 0.508412 1.84628 0
M  V30 10771 H 1039.48 -1.34454 3.68007 0
M  V30 10772 H 1041.18 -1.00874 3.88105 0
M  V30 10773 H 1037.77 0.371179 4.2699 0
M  V30 10774 H 1041.95 1.18315 4.81991 0
M  V30 10775 H 1037.21 2.32284 5.65557 0
M  V30 10776 H 1041.38 3.13346 6.21922 0
M  V30 10777 H 1039.01 3.70921 6.63568 0
M  V30 10778 N 1040.58 -1.57259 0.103575 0
M  V30 10779 C 1041.51 -2.17509 -0.84923 0
M  V30 10780 C 1042.49 -1.11079 -1.28824 0
M  V30 10781 O 1043.68 -1.39252 -1.35361 0
M  V30 10782 C 1040.81 -2.76221 -2.10522 0
M  V30 10783 C 1039.76 -3.88098 -1.80454 0
M  V30 10784 C 1039.09 -4.33549 -3.12952 0
M  V30 10785 C 1040.39 -5.10909 -1.08486 0
M  V30 10786 H 1042.08 -2.9738 -0.347217 0
M  V30 10787 H 1039.63 -1.43045 -0.165568 0
M  V30 10788 H 1041.58 -3.17024 -2.77621 0
M  V30 10789 H 1040.31 -1.93617 -2.63021 0
M  V30 10790 H 1038.96 -3.47847 -1.15749 0
M  V30 10791 H 1038.61 -3.47825 -3.63355 0
M  V30 10792 H 1038.31 -5.08984 -2.93614 0
M  V30 10793 H 1039.84 -4.76992 -3.81196 0
M  V30 10794 H 1041.25 -5.48828 -1.65711 0
M  V30 10795 H 1039.65 -5.91828 -0.992973 0
M  V30 10796 H 1040.72 -4.84851 -0.0690108 0
M  V30 10797 N 1042.06 0.170153 -1.56679 0
M  V30 10798 C 1043.31 0.887906 -1.8233 0
M  V30 10799 C 1043.64 1.81845 -0.681608 0
M  V30 10800 O 1042.91 1.9191 0.316362 0
M  V30 10801 C 1043.2 1.68256 -3.18374 0
M  V30 10802 C 1043.05 0.775059 -4.43072 0
M  V30 10803 C 1044.37 2.65001 -3.51372 0
M  V30 10804 H 1041.49 0.32135 -0.663252 0
M  V30 10805 H 1044.13 0.154065 -1.89374 0
M  V30 10806 H 1042.28 2.30817 -3.12499 0
M  V30 10807 H 1043.95 0.162234 -4.61015 0
M  V30 10808 H 1042.2 0.0831809 -4.3372 0
M  V30 10809 H 1042.87 1.36661 -5.34816 0
M  V30 10810 H 1045.34 2.12566 -3.57708 0
M  V30 10811 H 1044.22 3.17667 -4.47637 0
M  V30 10812 H 1044.48 3.45255 -2.76136 0
M  V30 10813 N 1043.54 1.5137 0.438746 0
M  V30 10814 C 1044.47 1.75528 1.53987 0
M  V30 10815 C 1045.45 0.605067 1.58975 0
M  V30 10816 O 1046.63 0.847634 1.74725 0
M  V30 10817 C 1043.76 1.87904 2.92078 0
M  V30 10818 C 1042.72 3.0333 3.01951 0
M  V30 10819 C 1042.04 3.00888 4.42007 0
M  V30 10820 C 1043.34 4.43319 2.76163 0
M  V30 10821 H 1045.04 2.67728 1.34022 0
M  V30 10822 H 1042.58 1.28831 0.643308 0
M  V30 10823 H 1044.54 2.03388 3.69068 0
M  V30 10824 H 1043.26 0.923514 3.13271 0
M  V30 10825 H 1041.92 2.87549 2.274 0
M  V30 10826 H 1041.57 2.03116 4.60166 0
M  V30 10827 H 1041.27 3.78397 4.49544 0
M  V30 10828 H 1042.79 3.18464 5.20973 0
M  V30 10829 H 1044.21 4.59458 3.42887 0
M  V30 10830 H 1042.6 5.22523 2.9511 0
M  V30 10831 H 1043.67 4.53453 1.71779 0
M  V30 10832 N 1045.02 -0.694098 1.41492 0
M  V30 10833 C 1046.24 -1.48789 1.44488 0
M  V30 10834 C 1046.67 -1.88028 0.0521588 0
M  V30 10835 O 1046.02 -1.54727 -0.944952 0
M  V30 10836 C 1046.07 -2.72586 2.3607 0
M  V30 10837 O 1045.18 -3.70128 1.81876 0
M  V30 10838 H 1044.52 -0.447758 0.490315 0
M  V30 10839 H 1047.05 -0.853036 1.85969 0
M  V30 10840 H 1047.06 -3.20877 2.51995 0
M  V30 10841 H 1045.73 -2.43363 3.37264 0
M  V30 10842 H 1044.31 -3.29069 1.75408 0
M  V30 10843 N 1046.49 -1.27344 -0.928501 0
M  V30 10844 C 1047.74 -1.13804 -1.67859 0
M  V30 10845 C 1048.07 0.31555 -1.91619 0
M  V30 10846 O 1047.35 1.23087 -1.50599 0
M  V30 10847 C 1047.63 -1.9213 -3.04562 0
M  V30 10848 C 1047.48 -3.45468 -2.88048 0
M  V30 10849 C 1048.8 -1.72513 -4.04879 0
M  V30 10850 H 1045.92 -0.414796 -0.609191 0
M  V30 10851 H 1048.56 -1.5649 -1.07753 0
M  V30 10852 H 1046.71 -1.55853 -3.55868 0
M  V30 10853 H 1048.39 -3.9157 -2.43865 0
M  V30 10854 H 1046.63 -3.71849 -2.23407 0
M  V30 10855 H 1047.3 -3.95515 -3.85061 0
M  V30 10856 H 1049.78 -2.04143 -3.62581 0
M  V30 10857 H 1048.65 -2.29713 -4.98521 0
M  V30 10858 H 1048.91 -0.672856 -4.3695 0
M  V30 10859 N 1047.97 1.13488 -1.09353 0
M  V30 10860 C 1049.22 1.84383 -0.827488 0
M  V30 10861 C 1049.54 1.83892 0.648745 0
M  V30 10862 O 1048.81 1.29415 1.47066 0
M  V30 10863 H 1047.39 0.682732 -0.303127 0
M  V30 10864 H 1050.05 1.37477 -1.38152 0
M  V30 10865 H 1049.15 2.88919 -1.18035 0
M  V30 10866 N 1049.45 0.880621 1.30701 0
M  V30 10867 C 1050.41 0.349087 2.26526 0
M  V30 10868 C 1051.41 -0.505973 1.52632 0
M  V30 10869 O 1052.6 -0.313751 1.71351 0
M  V30 10870 C 1049.74 -0.503023 3.37168 0
M  V30 10871 H 1050.93 1.19516 2.75056 0
M  V30 10872 H 1048.48 0.657107 1.41816 0
M  V30 10873 H 1049.22 -1.36986 2.93948 0
M  V30 10874 H 1049 0.109389 3.91947 0
M  V30 10875 H 1050.49 -0.866845 4.08504 0
M  V30 10876 N 1050.93 -1.4397 0.641131 0
M  V30 10877 C 1052.21 -1.95436 0.0800918 0
M  V30 10878 C 1052.59 -1.58282 -1.39678 0
M  V30 10879 O 1051.93 -0.861867 -2.11623 0
M  V30 10880 C 1052.14 -3.47589 0.313531 0
M  V30 10881 C 1053.49 -4.2407 0.212034 0
M  V30 10882 O 1054.52 -3.55353 0.245434 0
M  V30 10883 O 1053.38 -5.46356 0.125455 0
M  V30 10884 H 1050.47 -0.826834 -0.0165735 0
M  V30 10885 H 1053.02 -1.5397 0.71353 0
M  V30 10886 H 1051.79 -3.67716 1.33793 0
M  V30 10887 H 1051.41 -3.96025 -0.353563 0
M  V30 10888 N 1052.41 -0.382291 -1.52893 0
M  V30 10889 C 1053.36 0.471187 -2.27778 0
M  V30 10890 C 1054.35 1.0691 -1.31402 0
M  V30 10891 O 1055.56 1.01038 -1.48967 0
M  V30 10892 H 1051.93 0.170696 -0.732371 0
M  V30 10893 H 1053.9 -0.181954 -2.97845 0
M  V30 10894 C 1052.65 1.59012 -3.09209 0
M  V30 10895 H 1051.97 1.13935 -3.83222 0
M  V30 10896 H 1053.41 2.16167 -3.64757 0
M  V30 10897 C 1051.87 2.54212 -2.21084 0
M  V30 10898 O 1052.4 3.57447 -1.83288 0
M  V30 10899 N 1050.61 2.23789 -1.85383 0
M  V30 10900 H 1050.16 1.39872 -2.16318 0
M  V30 10901 H 1050.11 2.87737 -1.26708 0
M  V30 10902 N 1053.89 1.57202 -0.111913 0
M  V30 10903 C 1055.13 1.94125 0.547573 0
M  V30 10904 C 1055.45 0.997026 1.68282 0
M  V30 10905 O 1056.65 1.26063 2.40459 0
M  V30 10906 C 1055.11 3.44982 1.02545 0
M  V30 10907 C 1054.72 4.47927 -0.0809529 0
M  V30 10908 C 1056.46 3.90837 1.65671 0
M  V30 10909 C 1054.37 5.89955 0.413224 0
M  V30 10910 H 1053.3 0.724651 0.208321 0
M  V30 10911 H 1055.95 1.82507 -0.190625 0
M  V30 10912 H 1054.33 3.5181 1.81785 0
M  V30 10913 H 1055.51 4.52761 -0.857003 0
M  V30 10914 H 1053.82 4.11782 -0.618434 0
M  V30 10915 H 1056.42 4.9436 2.03746 0
M  V30 10916 H 1056.76 3.30417 2.53239 0
M  V30 10917 H 1057.29 3.8678 0.929844 0
M  V30 10918 H 1054.03 6.54113 -0.426238 0
M  V30 10919 H 1053.55 5.88557 1.15591 0
M  V30 10920 H 1055.23 6.41032 0.876756 0
M  V30 10921 N 1055.36 -0.161842 1.56767 0
M  V30 10922 C 1056.61 -0.876925 1.82527 0
M  V30 10923 C 1056.94 -1.81831 0.690492 0
M  V30 10924 O 1056.19 -1.9304 -0.32159 0
M  V30 10925 C 1056.49 -1.69736 3.14522 0
M  V30 10926 C 1056.16 -0.904075 4.41743 0
M  V30 10927 C 1054.82 -0.685168 4.76297 0
M  V30 10928 C 1057.17 -0.348282 5.20035 0
M  V30 10929 C 1054.5 0.10048 5.86614 0
M  V30 10930 C 1056.85 0.424327 6.31175 0
M  V30 10931 C 1055.52 0.653948 6.64289 0
M  V30 10932 H 1054.79 -0.320889 0.667915 0
M  V30 10933 H 1057.43 -0.141338 1.90978 0
M  V30 10934 H 1055.74 -2.50262 3.01456 0
M  V30 10935 H 1057.44 -2.25386 3.31666 0
M  V30 10936 H 1054.03 -1.08474 4.14646 0
M  V30 10937 H 1058.21 -0.504721 4.93727 0
M  V30 10938 H 1053.47 0.288029 6.10721 0
M  V30 10939 H 1057.64 0.862203 6.91042 0
M  V30 10940 H 1055.27 1.26459 7.49608 0
M  V30 10941 N 1056.84 -1.516 -0.430713 0
M  V30 10942 C 1058.09 -1.63829 -1.17657 0
M  V30 10943 C 1058.4 -0.363605 -1.92191 0
M  V30 10944 O 1059.61 -0.365358 -2.6903 0
M  V30 10945 C 1058.07 -2.89357 -2.14011 0
M  V30 10946 C 1057.67 -4.23854 -1.45094 0
M  V30 10947 C 1059.42 -3.10944 -2.88988 0
M  V30 10948 C 1057.32 -5.40526 -2.3997 0
M  V30 10949 H 1056.25 -0.610221 -0.442884 0
M  V30 10950 H 1058.91 -1.78073 -0.442984 0
M  V30 10951 H 1057.29 -2.68762 -2.90832 0
M  V30 10952 H 1058.46 -4.54854 -0.737853 0
M  V30 10953 H 1056.78 -4.08197 -0.822429 0
M  V30 10954 H 1059.37 -3.95286 -3.60074 0
M  V30 10955 H 1059.72 -2.24291 -3.50712 0
M  V30 10956 H 1060.25 -3.3191 -2.19272 0
M  V30 10957 H 1056.99 -6.29459 -1.82925 0
M  V30 10958 H 1056.51 -5.13893 -3.09313 0
M  V30 10959 H 1058.19 -5.72741 -3.00959 0
M  V30 10960 N 1058.32 0.686584 -1.41858 0
M  V30 10961 C 1059.57 1.44665 -1.41698 0
M  V30 10962 C 1059.89 1.94478 -0.0292442 0
M  V30 10963 O 1059.15 1.70512 0.960421 0
M  V30 10964 C 1059.45 2.66793 -2.37816 0
M  V30 10965 C 1059.11 2.35587 -3.8446 0
M  V30 10966 C 1057.78 2.26788 -4.24406 0
M  V30 10967 C 1060.13 2.10028 -4.77009 0
M  V30 10968 C 1057.46 1.90538 -5.54898 0
M  V30 10969 C 1059.81 1.75285 -6.07831 0
M  V30 10970 C 1058.47 1.64987 -6.46789 0
M  V30 10971 H 1057.74 0.529367 -0.518509 0
M  V30 10972 H 1060.39 0.783938 -1.74719 0
M  V30 10973 H 1058.69 3.38041 -1.9808 0
M  V30 10974 H 1060.39 3.24953 -2.34961 0
M  V30 10975 H 1056.98 2.43334 -3.52826 0
M  V30 10976 H 1061.17 2.15766 -4.46944 0
M  V30 10977 H 1056.42 1.81125 -5.83955 0
M  V30 10978 H 1060.6 1.5453 -6.79039 0
M  V30 10979 H 1058.22 1.36667 -7.47814 0
M  V30 10980 N 1059.8 1.27835 0.921735 0
M  V30 10981 C 1061.04 1.14692 1.67253 0
M  V30 10982 C 1061.38 -0.305384 1.91784 0
M  V30 10983 O 1060.65 -1.22286 1.51249 0
M  V30 10984 C 1060.93 1.93743 3.03539 0
M  V30 10985 C 1060.79 3.46991 2.86212 0
M  V30 10986 C 1062.11 1.74658 4.03959 0
M  V30 10987 H 1059.23 0.418021 0.606983 0
M  V30 10988 H 1061.87 1.5706 1.06922 0
M  V30 10989 H 1060.02 1.57738 3.55037 0
M  V30 10990 H 1061.69 3.92858 2.41785 0
M  V30 10991 H 1059.93 3.73029 2.21432 0
M  V30 10992 H 1060.6 3.97551 3.82958 0
M  V30 10993 H 1063.08 2.06063 3.61493 0
M  V30 10994 H 1061.96 2.32353 4.97296 0
M  V30 10995 H 1062.22 0.696019 4.36587 0
M  V30 10996 N 1061.28 -1.12907 1.09954 0
M  V30 10997 C 1062.21 -2.20585 0.765799 0
M  V30 10998 C 1063.19 -1.68117 -0.258989 0
M  V30 10999 O 1064.37 -1.93792 -0.125853 0
M  V30 11000 C 1061.5 -3.46772 0.191435 0
M  V30 11001 C 1060.46 -4.12363 1.14635 0
M  V30 11002 C 1059.78 -5.3294 0.433426 0
M  V30 11003 C 1061.08 -4.59073 2.49096 0
M  V30 11004 H 1062.78 -2.48759 1.66612 0
M  V30 11005 H 1060.32 -1.19563 0.802534 0
M  V30 11006 H 1062.27 -4.21365 -0.0541535 0
M  V30 11007 H 1061 -3.18011 -0.744101 0
M  V30 11008 H 1059.66 -3.39744 1.37731 0
M  V30 11009 H 1059.31 -5.00444 -0.506422 0
M  V30 11010 H 1059.01 -5.77772 1.07018 0
M  V30 11011 H 1060.53 -6.10284 0.196267 0
M  V30 11012 H 1061.94 -5.25063 2.30177 0
M  V30 11013 H 1060.34 -5.14665 3.0861 0
M  V30 11014 H 1061.41 -3.73313 3.0946 0
M  V30 11015 N 1062.75 -0.88754 -1.30232 0
M  V30 11016 C 1063.66 -0.360333 -2.31816 0
M  V30 11017 C 1064.68 0.538741 -1.6545 0
M  V30 11018 O 1065.86 0.431246 -1.96729 0
M  V30 11019 C 1062.92 0.414336 -3.44215 0
M  V30 11020 C 1061.98 -0.514799 -4.26202 0
M  V30 11021 C 1061.21 0.222994 -5.33234 0
M  V30 11022 O 1061.44 1.44871 -5.51696 0
M  V30 11023 O 1060.37 -0.428221 -6.00375 0
M  V30 11024 H 1064.2 -1.20279 -2.78867 0
M  V30 11025 H 1061.78 -0.651459 -1.34448 0
M  V30 11026 H 1063.66 0.852859 -4.12679 0
M  V30 11027 H 1062.34 1.23305 -2.99295 0
M  V30 11028 H 1061.25 -1.00219 -3.60426 0
M  V30 11029 H 1062.58 -1.29959 -4.74733 0
M  V30 11030 N 1064.23 1.43628 -0.648757 0
M  V30 11031 C 1065.46 2.05918 -0.167701 0
M  V30 11032 C 1065.87 1.48681 1.17006 0
M  V30 11033 O 1065.21 0.610984 1.73242 0
M  V30 11034 C 1065.28 3.595 0.00265514 0
M  V30 11035 C 1064.94 4.39295 -1.2597 0
M  V30 11036 C 1065.94 4.71643 -2.18743 0
M  V30 11037 C 1063.62 4.79379 -1.50004 0
M  V30 11038 C 1065.62 5.42978 -3.33846 0
M  V30 11039 C 1063.3 5.50459 -2.65401 0
M  V30 11040 C 1064.3 5.82181 -3.57148 0
M  V30 11041 O 1063.99 6.5181 -4.7053 0
M  V30 11042 H 1063.72 0.670619 -0.0851261 0
M  V30 11043 H 1066.27 1.85196 -0.888351 0
M  V30 11044 H 1064.5 3.7878 0.77863 0
M  V30 11045 H 1066.19 4.03503 0.440501 0
M  V30 11046 H 1066.96 4.41199 -2.01416 0
M  V30 11047 H 1062.84 4.54098 -0.794745 0
M  V30 11048 H 1066.38 5.67656 -4.05479 0
M  V30 11049 H 1062.28 5.8032 -2.82664 0
M  V30 11050 H 1063.05 6.7029 -4.69738 0
M  V30 11051 N 1065.71 0.390394 1.52688 0
M  V30 11052 C 1066.64 -0.479319 2.24132 0
M  V30 11053 C 1067.66 -1.0258 1.26416 0
M  V30 11054 O 1068.84 -0.927943 1.52484 0
M  V30 11055 C 1065.94 -1.67711 2.94493 0
M  V30 11056 C 1065.12 -1.2578 4.18925 0
M  V30 11057 C 1064.18 -2.3204 4.72275 0
M  V30 11058 O 1063.2 -1.93402 5.35336 0
M  V30 11059 N 1064.4 -3.63967 4.52226 0
M  V30 11060 H 1067.17 0.132777 2.99406 0
M  V30 11061 H 1064.73 0.216807 1.60442 0
M  V30 11062 H 1066.72 -2.38323 3.27084 0
M  V30 11063 H 1065.29 -2.19552 2.22521 0
M  V30 11064 H 1064.51 -0.380528 3.92359 0
M  V30 11065 H 1065.8 -0.954329 4.9977 0
M  V30 11066 H 1065.2 -3.98119 4.01892 0
M  V30 11067 H 1063.76 -4.30611 4.89303 0
M  V30 11068 N 1067.19 -1.57141 0.120249 0
M  V30 11069 C 1068.6 -1.5784 -0.236335 0
M  V30 11070 C 1068.8 -1.13304 -1.66626 0
M  V30 11071 O 1067.86 -0.821004 -2.3878 0
M  V30 11072 C 1069.17 -3.007 -0.00188211 0
M  V30 11073 C 1070.72 -3.12927 -0.0676838 0
M  V30 11074 C 1071.2 -4.57789 0.139092 0
M  V30 11075 N 1072.69 -4.63122 0.085104 0
M  V30 11076 C 1073.42 -5.72978 0.219983 0
M  V30 11077 N 1072.92 -6.91579 0.411102 0
M  V30 11078 N 1074.71 -5.61874 0.159469 0
M  V30 11079 H 1066.86 -1.84391 1.05422 0
M  V30 11080 H 1069.13 -0.852228 0.415225 0
M  V30 11081 H 1068.83 -3.37575 0.986718 0
M  V30 11082 H 1068.71 -3.70005 -0.733203 0
M  V30 11083 H 1071.09 -2.75909 -1.04681 0
M  V30 11084 H 1071.17 -2.46162 0.695538 0
M  V30 11085 H 1070.82 -4.95506 1.1152 0
M  V30 11086 H 1070.75 -5.22646 -0.644131 0
M  V30 11087 H 1073.24 -3.77854 -0.0590479 0
M  V30 11088 H 1073.55 -7.71149 0.504851 0
M  V30 11089 H 1071.9 -6.9356 0.447091 0
M  V30 11090 H 1075.09 -4.68099 0.0111131 0
M  V30 11091 H 1075.26 -6.47445 0.268028 0
M  V30 11092 N 1068.67 0.153526 -1.5685 0
M  V30 11093 C 1069.6 1.19162 -2.00805 0
M  V30 11094 C 1070.58 1.45172 -0.886518 0
M  V30 11095 O 1071.76 1.56203 -1.15387 0
M  V30 11096 C 1068.89 2.52637 -2.38311 0
M  V30 11097 C 1067.85 2.41161 -3.53589 0
M  V30 11098 C 1067.17 3.79287 -3.76889 0
M  V30 11099 C 1068.47 1.90122 -4.86468 0
M  V30 11100 H 1070.17 0.82617 -2.87776 0
M  V30 11101 H 1067.71 0.395972 -1.38449 0
M  V30 11102 H 1069.67 3.25478 -2.6766 0
M  V30 11103 H 1068.39 2.91005 -1.4827 0
M  V30 11104 H 1067.05 1.70772 -3.24395 0
M  V30 11105 H 1066.7 4.15079 -2.84109 0
M  V30 11106 H 1066.4 3.72472 -4.54465 0
M  V30 11107 H 1067.92 4.53687 -4.08657 0
M  V30 11108 H 1069.33 2.52752 -5.14577 0
M  V30 11109 H 1067.73 1.94214 -5.67804 0
M  V30 11110 H 1068.8 0.856517 -4.77275 0
M  V30 11111 N 1070.14 1.51827 0.422667 0
M  V30 11112 C 1071.56 1.57533 1.00201 0
M  V30 11113 C 1071.91 0.407623 1.91919 0
M  V30 11114 O 1071.03 -0.473763 2.1115 0
M  V30 11115 C 1071.63 2.85508 1.82403 0
M  V30 11116 C 1070.19 2.93737 2.35362 0
M  V30 11117 C 1069.33 2.52343 1.14971 0
M  V30 11118 H 1072.28 1.57391 0.20339 0
M  V30 11119 H 1072.3 2.70097 2.68007 0
M  V30 11120 H 1071.82 3.70477 1.15623 0
M  V30 11121 H 1069.92 2.13231 3.05554 0
M  V30 11122 H 1070.03 3.977 2.67155 0
M  V30 11123 H 1068.39 2.05878 1.49955 0
M  V30 11124 H 1069.18 3.39672 0.497786 0
M  V30 11125 N 1071.62 -0.679052 1.4222 0
M  V30 11126 C 1073.04 -0.991665 1.25053 0
M  V30 11127 C 1073.24 -2.00928 0.151665 0
M  V30 11128 O 1072.29 -2.47925 -0.478507 0
M  V30 11129 C 1073.61 -1.50053 2.60585 0
M  V30 11130 C 1075.16 -1.61852 2.67905 0
M  V30 11131 C 1075.63 -2.16135 4.03794 0
M  V30 11132 N 1077.12 -2.23474 4.05726 0
M  V30 11133 C 1077.86 -2.66541 5.07685 0
M  V30 11134 N 1077.35 -3.09092 6.20028 0
M  V30 11135 N 1079.15 -2.66252 4.95042 0
M  V30 11136 H 1071.3 -0.00521851 2.12399 0
M  V30 11137 H 1073.56 -0.0648465 0.94578 0
M  V30 11138 H 1073.27 -0.82731 3.41831 0
M  V30 11139 H 1073.14 -2.47998 2.84213 0
M  V30 11140 H 1075.53 -2.28281 1.87008 0
M  V30 11141 H 1075.61 -0.624074 2.4807 0
M  V30 11142 H 1075.25 -1.50316 4.85147 0
M  V30 11143 H 1075.18 -3.16363 4.20978 0
M  V30 11144 H 1077.67 -1.93467 3.24621 0
M  V30 11145 H 1077.99 -3.40627 6.93681 0
M  V30 11146 H 1076.33 -3.06959 6.23539 0
M  V30 11147 H 1079.52 -2.32369 4.06352 0
M  V30 11148 H 1079.69 -2.99496 5.74636 0
M  V30 11149 N 1073.1 -1.28322 -0.914942 0
M  V30 11150 C 1074.52 -1.06003 -1.19313 0
M  V30 11151 C 1074.72 0.198366 -2.00521 0
M  V30 11152 O 1073.77 0.900364 -2.35902 0
M  V30 11153 C 1075.09 -2.30684 -1.92887 0
M  V30 11154 C 1076.63 -2.35851 -2.05775 0
M  V30 11155 C 1077.11 -3.60295 -2.82757 0
M  V30 11156 N 1078.6 -3.60928 -2.9032 0
M  V30 11157 C 1079.33 -4.53894 -3.50383 0
M  V30 11158 N 1078.83 -5.57178 -4.11734 0
M  V30 11159 N 1080.62 -4.41492 -3.4791 0
M  V30 11160 H 1072.77 -2.09104 -0.372735 0
M  V30 11161 H 1075.04 -0.920285 -0.227552 0
M  V30 11162 H 1074.74 -3.22355 -1.40643 0
M  V30 11163 H 1074.62 -2.37003 -2.93444 0
M  V30 11164 H 1077 -1.44678 -2.57201 0
M  V30 11165 H 1077.09 -2.33526 -1.04399 0
M  V30 11166 H 1076.73 -4.51811 -2.32011 0
M  V30 11167 H 1076.66 -3.59873 -3.84446 0
M  V30 11168 H 1079.15 -2.8624 -2.46729 0
M  V30 11169 H 1079.46 -6.24261 -4.55541 0
M  V30 11170 H 1077.81 -5.61005 -4.10242 0
M  V30 11171 H 1081 -3.60005 -2.99189 0
M  V30 11172 H 1081.17 -5.14132 -3.94427 0
M  V30 11173 N 1074.58 1.12322 -1.10551 0
M  V30 11174 C 1075.99 1.6539 -0.8662 0
M  V30 11175 C 1076.34 1.86695 0.603284 0
M  V30 11176 O 1075.47 1.59432 1.46323 0
M  V30 11177 C 1076.06 3.00443 -1.56587 0
M  V30 11178 C 1074.62 3.50456 -1.37323 0
M  V30 11179 C 1073.77 2.25454 -1.61449 0
M  V30 11180 H 1076.72 0.960866 -1.26305 0
M  V30 11181 H 1076.74 3.66972 -1.00557 0
M  V30 11182 H 1076.25 2.84905 -2.63535 0
M  V30 11183 H 1074.35 3.71176 -0.325431 0
M  V30 11184 H 1074.46 4.29839 -2.11601 0
M  V30 11185 H 1072.83 2.32621 -1.03729 0
M  V30 11186 H 1073.61 2.12469 -2.69651 0
M  V30 11187 N 1076.06 0.894434 1.2976 0
M  V30 11188 C 1077.3 0.516646 1.95385 0
M  V30 11189 C 1077.63 -0.939141 1.70895 0
M  V30 11190 O 1076.9 -1.66153 1.03778 0
M  V30 11191 H 1075.48 0.188072 0.722937 0
M  V30 11192 H 1078.14 1.13958 1.58113 0
M  V30 11193 H 1077.23 0.694819 3.04267 0
M  V30 11194 N 1077.53 -1.43282 0.656365 0
M  V30 11195 C 1078.44 -2.34576 -0.033864 0
M  V30 11196 C 1079.46 -1.5406 -0.808793 0
M  V30 11197 O 1080.64 -1.867 -0.755322 0
M  V30 11198 C 1077.7 -3.32378 -0.986197 0
M  V30 11199 C 1076.76 -4.28797 -0.207851 0
M  V30 11200 C 1076 -5.21927 -1.11482 0
M  V30 11201 O 1076.22 -5.19554 -2.35414 0
M  V30 11202 O 1075.15 -5.99045 -0.585536 0
M  V30 11203 H 1078.98 -2.95099 0.717668 0
M  V30 11204 H 1076.56 -1.43475 0.416556 0
M  V30 11205 H 1078.45 -3.9251 -1.53341 0
M  V30 11206 H 1077.12 -2.74354 -1.7179 0
M  V30 11207 H 1076.03 -3.72134 0.383022 0
M  V30 11208 H 1077.36 -4.89811 0.48435 0
M  V30 11209 N 1079.01 -0.398486 -1.52479 0
M  V30 11210 C 1080.42 0.0735015 -1.86555 0
M  V30 11211 C 1080.78 1.45361 -1.31775 0
M  V30 11212 O 1079.9 2.0632 -0.652759 0
M  V30 11213 C 1080.5 0.140152 -3.3851 0
M  V30 11214 C 1079.05 0.556451 -3.72264 0
M  V30 11215 C 1078.2 -0.275792 -2.75925 0
M  V30 11216 H 1081.15 -0.615991 -1.46257 0
M  V30 11217 H 1081.17 0.957507 -3.68255 0
M  V30 11218 H 1080.69 -0.864442 -3.7835 0
M  V30 11219 H 1078.79 1.56808 -3.37997 0
M  V30 11220 H 1078.9 0.308227 -4.78107 0
M  V30 11221 H 1077.26 0.260304 -2.53366 0
M  V30 11222 H 1078.05 -1.27854 -3.18604 0
M  V30 11223 N 1080.49 1.57075 -0.12858 0
M  V30 11224 C 1081.91 1.57964 0.227961 0
M  V30 11225 C 1082.11 1.14186 1.66023 0
M  V30 11226 O 1081.16 0.833655 2.38341 0
M  V30 11227 C 1082.48 3.00697 -0.0140648 0
M  V30 11228 C 1084.02 3.12958 0.0510876 0
M  V30 11229 C 1084.5 4.57709 -0.163368 0
M  V30 11230 N 1085.99 4.6307 -0.109663 0
M  V30 11231 C 1086.73 5.72853 -0.250366 0
M  V30 11232 N 1086.22 6.91351 -0.447772 0
M  V30 11233 N 1088.01 5.61781 -0.189265 0
M  V30 11234 H 1080.17 1.83829 -1.06398 0
M  V30 11235 H 1082.43 0.850014 -0.419739 0
M  V30 11236 H 1082.13 3.37047 -1.00461 0
M  V30 11237 H 1082.01 3.70389 0.713571 0
M  V30 11238 H 1084.4 2.7646 1.03216 0
M  V30 11239 H 1084.48 2.4579 -0.708583 0
M  V30 11240 H 1084.12 4.94907 -1.14146 0
M  V30 11241 H 1084.05 5.2298 0.616405 0
M  V30 11242 H 1086.54 3.7788 0.0390086 0
M  V30 11243 H 1086.85 7.70871 -0.54574 0
M  V30 11244 H 1085.2 6.93314 -0.483866 0
M  V30 11245 H 1088.39 4.68086 -0.0359374 0
M  V30 11246 H 1088.56 6.47294 -0.302359 0
M  V30 11247 N 1081.97 -0.145205 1.5693 0
M  V30 11248 C 1082.88 -1.19864 2.01667 0
M  V30 11249 C 1083.9 -1.46909 0.932402 0
M  V30 11250 O 1085.07 -1.58543 1.24201 0
M  V30 11251 C 1082.14 -2.51174 2.38982 0
M  V30 11252 C 1081.2 -2.3176 3.61366 0
M  V30 11253 C 1080.43 -3.56809 3.96892 0
M  V30 11254 O 1080.65 -4.63063 3.33059 0
M  V30 11255 O 1079.59 -3.49366 4.9013 0
M  V30 11256 H 1083.41 -0.848821 2.91597 0
M  V30 11257 H 1081 -0.354063 1.45144 0
M  V30 11258 H 1082.88 -3.28587 2.63835 0
M  V30 11259 H 1081.56 -2.85683 1.52207 0
M  V30 11260 H 1080.46 -1.52293 3.41698 0
M  V30 11261 H 1081.8 -2.02167 4.48764 0
M  V30 11262 N 1083.45 -1.52049 -0.414609 0
M  V30 11263 C 1084.69 -1.66084 -1.16379 0
M  V30 11264 C 1085.03 -0.386932 -1.90306 0
M  V30 11265 O 1084.3 0.614441 -1.8454 0
M  V30 11266 C 1084.58 -2.87927 -2.16264 0
M  V30 11267 C 1084.44 -4.25353 -1.46269 0
M  V30 11268 C 1085.76 -3.05289 -3.16996 0
M  V30 11269 H 1082.88 -0.604414 -0.421726 0
M  V30 11270 H 1085.52 -1.8459 -0.450177 0
M  V30 11271 H 1083.67 -2.7228 -2.77121 0
M  V30 11272 H 1085.34 -4.52717 -0.885743 0
M  V30 11273 H 1083.58 -4.27006 -0.76472 0
M  V30 11274 H 1084.25 -5.06644 -2.19126 0
M  V30 11275 H 1086.73 -3.19798 -2.66212 0
M  V30 11276 H 1085.61 -3.92065 -3.84156 0
M  V30 11277 H 1085.87 -2.1836 -3.84411 0
M  V30 11278 N 1084.93 0.6715 -1.42579 0
M  V30 11279 C 1085.88 1.77767 -1.42769 0
M  V30 11280 C 1086.86 1.58106 -0.298568 0
M  V30 11281 O 1088.05 1.68528 -0.541037 0
M  V30 11282 C 1085.18 3.16248 -1.33574 0
M  V30 11283 C 1084.27 3.41521 -2.51445 0
M  V30 11284 N 1084.66 3.37361 -3.76857 0
M  V30 11285 C 1082.96 3.7217 -2.45776 0
M  V30 11286 C 1083.66 3.62209 -4.5517 0
M  V30 11287 N 1082.63 3.83134 -3.85628 0
M  V30 11288 H 1086.43 1.72949 -2.37626 0
M  V30 11289 H 1083.95 0.872467 -1.36974 0
M  V30 11290 H 1085.95 3.9552 -1.31793 0
M  V30 11291 H 1084.61 3.22261 -0.397223 0
M  V30 11292 H 1085.62 3.17187 -4.09406 0
M  V30 11293 H 1082.29 3.85408 -1.6052 0
M  V30 11294 H 1083.68 3.64925 -5.64162 0
M  V30 11295 N 1086.4 1.28806 0.908124 0
M  V30 11296 C 1087.65 1.15663 1.65242 0
M  V30 11297 C 1087.97 -0.292883 1.93395 0
M  V30 11298 O 1089.17 -0.545509 2.65963 0
M  V30 11299 C 1087.63 2.02233 2.97707 0
M  V30 11300 C 1087.24 3.51958 2.77181 0
M  V30 11301 C 1088.98 1.97792 3.75604 0
M  V30 11302 C 1086.89 4.3066 4.05322 0
M  V30 11303 H 1085.82 0.42928 0.619867 0
M  V30 11304 H 1088.47 1.5338 1.00731 0
M  V30 11305 H 1086.85 1.57377 3.63385 0
M  V30 11306 H 1088.02 4.0481 2.20149 0
M  V30 11307 H 1086.34 3.57983 2.12691 0
M  V30 11308 H 1088.94 2.53858 4.70596 0
M  V30 11309 H 1089.28 0.955956 4.05175 0
M  V30 11310 H 1089.81 2.40648 3.16755 0
M  V30 11311 H 1086.55 5.3346 3.8092 0
M  V30 11312 H 1086.07 3.8258 4.61944 0
M  V30 11313 H 1087.75 4.40878 4.73535 0
M  V30 11314 N 1087.88 -1.11734 1.11145 0
M  V30 11315 C 1089.13 -1.83043 0.856717 0
M  V30 11316 C 1089.45 -1.84901 -0.619407 0
M  V30 11317 O 1088.72 -1.31738 -1.44989 0
M  V30 11318 H 1087.3 -0.677823 0.31395 0
M  V30 11319 H 1089.96 -1.35262 1.40322 0
M  V30 11320 H 1089.06 -2.87005 1.22616 0
M  V30 11321 N 1089.36 -0.901303 -1.29284 0
M  V30 11322 C 1090.78 -0.597634 -1.47988 0
M  V30 11323 C 1090.98 0.860434 -1.82205 0
M  V30 11324 O 1090.03 1.64049 -1.91948 0
M  V30 11325 C 1091.34 -1.52484 -2.5917 0
M  V30 11326 C 1092.89 -1.53021 -2.73045 0
M  V30 11327 C 1093.37 -2.44373 -3.87357 0
M  V30 11328 N 1094.86 -2.42429 -3.94693 0
M  V30 11329 C 1095.59 -3.09817 -4.82495 0
M  V30 11330 N 1095.09 -3.86489 -5.74976 0
M  V30 11331 N 1096.88 -2.98966 -4.76 0
M  V30 11332 H 1089.03 -1.84432 -1.0535 0
M  V30 11333 H 1091.3 -0.790367 -0.523473 0
M  V30 11334 H 1091 -2.56378 -2.40756 0
M  V30 11335 H 1090.88 -1.24657 -3.56006 0
M  V30 11336 H 1093.26 -0.498709 -2.90855 0
M  V30 11337 H 1093.34 -1.84886 -1.76779 0
M  V30 11338 H 1092.99 -3.47618 -3.70302 0
M  V30 11339 H 1092.92 -2.09817 -4.82995 0
M  V30 11340 H 1095.41 -1.86724 -3.28546 0
M  V30 11341 H 1095.72 -4.34959 -6.38773 0
M  V30 11342 H 1094.07 -3.90596 -5.74857 0
M  V30 11343 H 1097.26 -2.38581 -4.02737 0
M  V30 11344 H 1097.43 -3.51758 -5.44215 0
M  V30 11345 N 1090.84 1.42931 -0.663954 0
M  V30 11346 C 1091.8 2.29197 0.0117626 0
M  V30 11347 C 1092.8 1.42767 0.739875 0
M  V30 11348 O 1093.99 1.64278 0.579509 0
M  V30 11349 C 1091.12 3.2505 1.02738 0
M  V30 11350 H 1092.32 2.90438 -0.747391 0
M  V30 11351 H 1089.87 1.5039 -0.425733 0
M  V30 11352 H 1090.6 2.68726 1.8154 0
M  V30 11353 H 1090.39 3.88785 0.508809 0
M  V30 11354 H 1091.88 3.89771 1.49893 0
M  V30 11355 N 1092.32 0.406567 1.52266 0
M  V30 11356 C 1093.25 -0.411314 2.29849 0
M  V30 11357 C 1094.23 -1.04838 1.33952 0
M  V30 11358 O 1095.41 -1.05788 1.62857 0
M  V30 11359 C 1092.54 -1.52961 3.11802 0
M  V30 11360 C 1091.5 -1.01768 4.15725 0
M  V30 11361 C 1090.82 -2.22938 4.86007 0
M  V30 11362 C 1092.12 -0.073515 5.22248 0
M  V30 11363 H 1093.82 0.236054 2.98468 0
M  V30 11364 H 1091.36 0.114968 1.4354 0
M  V30 11365 H 1093.31 -2.10874 3.64843 0
M  V30 11366 H 1092.04 -2.20482 2.40947 0
M  V30 11367 H 1090.7 -0.46097 3.6369 0
M  V30 11368 H 1090.35 -2.89007 4.11684 0
M  V30 11369 H 1090.05 -1.89338 5.5626 0
M  V30 11370 H 1091.57 -2.81462 5.41859 0
M  V30 11371 H 1092.98 -0.561367 5.70545 0
M  V30 11372 H 1091.38 0.173551 5.99849 0
M  V30 11373 H 1092.45 0.872524 4.76985 0
M  V30 11374 N 1093.79 -1.57004 0.136909 0
M  V30 11375 C 1095.04 -1.9541 -0.51569 0
M  V30 11376 C 1095.36 -1.02219 -1.66061 0
M  V30 11377 O 1094.63 -0.0818172 -1.95729 0
M  V30 11378 H 1093.21 -0.721504 -0.193497 0
M  V30 11379 H 1095.88 -1.93765 0.210046 0
M  V30 11380 H 1094.97 -2.98887 -0.898494 0
M  V30 11381 N 1095.27 0.136881 -1.57004 0
M  V30 11382 C 1096.69 0.489856 -1.51897 0
M  V30 11383 C 1096.89 1.82833 -0.847009 0
M  V30 11384 O 1095.94 2.48952 -0.421792 0
M  V30 11385 C 1097.26 0.490831 -2.96667 0
M  V30 11386 C 1098.81 0.575639 -3.07661 0
M  V30 11387 C 1099.28 0.607178 -4.53957 0
M  V30 11388 N 1100.77 0.66912 -4.58342 0
M  V30 11389 C 1101.51 0.714675 -5.68929 0
M  V30 11390 N 1101 0.718959 -6.89059 0
M  V30 11391 N 1102.8 0.756326 -5.56988 0
M  V30 11392 H 1094.95 -0.740347 -1.99079 0
M  V30 11393 H 1097.21 -0.271116 -0.908405 0
M  V30 11394 H 1096.92 -0.424648 -3.49127 0
M  V30 11395 H 1096.79 1.32512 -3.53158 0
M  V30 11396 H 1099.18 1.48154 -2.55215 0
M  V30 11397 H 1099.26 -0.285991 -2.54196 0
M  V30 11398 H 1098.9 -0.294604 -5.07045 0
M  V30 11399 H 1098.83 1.48544 -5.05215 0
M  V30 11400 H 1101.32 0.672697 -3.71864 0
M  V30 11401 H 1101.64 0.755848 -7.69095 0
M  V30 11402 H 1099.98 0.686671 -6.91599 0
M  V30 11403 H 1103.17 0.750219 -4.62049 0
M  V30 11404 H 1103.34 0.788363 -6.43186 0
M  V30 11405 N 1096.75 1.52266 0.40654 0
M  V30 11406 C 1098 1.66699 1.15496 0
M  V30 11407 C 1098.33 0.397019 1.90098 0
M  V30 11408 O 1097.6 -0.604646 1.84863 0
M  V30 11409 C 1097.89 2.8907 2.14734 0
M  V30 11410 C 1097.74 4.26123 1.44012 0
M  V30 11411 C 1099.06 3.06966 3.15373 0
M  V30 11412 H 1096.18 0.606642 0.418515 0
M  V30 11413 H 1098.82 1.84826 0.440381 0
M  V30 11414 H 1096.97 2.73745 2.75673 0
M  V30 11415 H 1098.64 4.5318 0.861722 0
M  V30 11416 H 1096.89 4.27406 0.742064 0
M  V30 11417 H 1097.56 5.07799 2.16436 0
M  V30 11418 H 1100.03 3.21205 2.64512 0
M  V30 11419 H 1098.91 3.94097 3.82072 0
M  V30 11420 H 1099.17 2.20395 3.83247 0
M  V30 11421 N 1098.23 -0.663929 1.42933 0
M  V30 11422 C 1099.19 -1.75899 1.46943 0
M  V30 11423 C 1100.19 -1.5682 0.355535 0
M  V30 11424 O 1101.38 -1.62914 0.616833 0
M  V30 11425 C 1098.51 -3.14657 1.31164 0
M  V30 11426 H 1099.71 -1.73727 2.44456 0
M  V30 11427 H 1097.26 -0.874587 1.2954 0
M  V30 11428 H 1097.99 -3.22447 0.346165 0
M  V30 11429 H 1097.78 -3.29909 2.11902 0
M  V30 11430 H 1099.27 -3.9453 1.36878 0
M  V30 11431 N 1099.71 -1.29285 -0.901281 0
M  V30 11432 C 1101.12 -1.15499 -1.46686 0
M  V30 11433 C 1101.47 0.250446 -1.94595 0
M  V30 11434 O 1100.59 1.14581 -1.83576 0
M  V30 11435 C 1101.19 -2.0906 -2.66607 0
M  V30 11436 C 1099.75 -1.99301 -3.19306 0
M  V30 11437 C 1098.89 -2.00079 -1.91999 0
M  V30 11438 H 1101.85 -1.41793 -0.712773 0
M  V30 11439 H 1101.87 -1.6619 -3.42288 0
M  V30 11440 H 1101.38 -3.11341 -2.31707 0
M  V30 11441 H 1099.48 -1.00103 -3.58901 0
M  V30 11442 H 1099.59 -2.86885 -3.8371 0
M  V30 11443 H 1097.96 -1.44655 -2.09636 0
M  V30 11444 H 1098.74 -3.04061 -1.59379 0
M  V30 11445 N 1101.18 1.11143 -1.11736 0
M  V30 11446 C 1102.41 1.87285 -0.891007 0
M  V30 11447 C 1102.83 1.79758 0.553971 0
M  V30 11448 O 1102.19 1.16221 1.39149 0
M  V30 11449 C 1102.24 3.33924 -1.36114 0
M  V30 11450 O 1101.34 4.08917 -0.534851 0
M  V30 11451 H 1100.69 0.581418 -0.320701 0
M  V30 11452 H 1103.22 1.40469 -1.4876 0
M  V30 11453 H 1103.23 3.84772 -1.35701 0
M  V30 11454 H 1101.9 3.38719 -2.41334 0
M  V30 11455 H 1100.48 3.67954 -0.605355 0
M  V30 11456 N 1102.66 0.908147 1.28804 0
M  V30 11457 C 1103.6 0.336764 2.25701 0
M  V30 11458 C 1104.57 -0.555849 1.52804 0
M  V30 11459 O 1105.76 -0.500763 1.81727 0
M  V30 11460 C 1102.88 -0.519154 3.34698 0
M  V30 11461 C 1101.93 0.307304 4.25391 0
M  V30 11462 S 1102.76 1.71048 5.07447 0
M  V30 11463 C 1103.92 0.861715 6.1994 0
M  V30 11464 H 1104.15 1.15806 2.73818 0
M  V30 11465 H 1101.69 0.709033 1.37157 0
M  V30 11466 H 1103.64 -1.00718 3.97952 0
M  V30 11467 H 1102.3 -1.31477 2.85259 0
M  V30 11468 H 1101.5 -0.346906 5.02805 0
M  V30 11469 H 1101.1 0.728777 3.66831 0
M  V30 11470 H 1103.39 0.088851 6.77442 0
M  V30 11471 H 1104.33 1.60821 6.89596 0
M  V30 11472 H 1104.74 0.412366 5.62992 0
M  V30 11473 N 1104.14 -1.42577 0.671525 0
M  V30 11474 C 1105.07 -2.33499 0.00506984 0
M  V30 11475 C 1106.05 -1.50497 -0.792763 0
M  V30 11476 O 1107.24 -1.79109 -0.750574 0
M  V30 11477 C 1104.37 -3.34077 -0.949194 0
M  V30 11478 C 1103.32 -4.27208 -0.260187 0
M  V30 11479 C 1102.65 -5.17968 -1.32716 0
M  V30 11480 C 1103.95 -5.15192 0.858772 0
M  V30 11481 H 1105.64 -2.89477 0.764407 0
M  V30 11482 H 1103.19 -1.39191 0.369043 0
M  V30 11483 H 1105.14 -3.96594 -1.42448 0
M  V30 11484 H 1103.86 -2.76396 -1.73991 0
M  V30 11485 H 1102.52 -3.66082 0.194834 0
M  V30 11486 H 1102.17 -4.56615 -2.10979 0
M  V30 11487 H 1101.87 -5.81104 -0.871293 0
M  V30 11488 H 1103.39 -5.83359 -1.80345 0
M  V30 11489 H 1104.81 -5.71412 0.464844 0
M  V30 11490 H 1103.21 -5.87144 1.24023 0
M  V30 11491 H 1104.28 -4.53787 1.70895 0
M  V30 11492 N 1105.62 -0.414636 -1.52048 0
M  V30 11493 C 1106.55 0.399119 -2.30064 0
M  V30 11494 C 1107.53 1.04126 -1.34506 0
M  V30 11495 O 1108.71 1.04923 -1.63416 0
M  V30 11496 C 1105.84 1.51305 -3.12608 0
M  V30 11497 C 1104.8 0.995621 -4.16259 0
M  V30 11498 C 1104.12 2.20357 -4.87183 0
M  V30 11499 C 1105.42 0.0458178 -5.2228 0
M  V30 11500 H 1107.12 -0.251879 -2.98339 0
M  V30 11501 H 1104.66 -0.122579 -1.43477 0
M  V30 11502 H 1106.62 2.08936 -3.65956 0
M  V30 11503 H 1105.34 2.19201 -2.42113 0
M  V30 11504 H 1104 0.441676 -3.6393 0
M  V30 11505 H 1103.65 2.8682 -4.13211 0
M  V30 11506 H 1103.35 1.86385 -5.57256 0
M  V30 11507 H 1104.87 2.78584 -5.43345 0
M  V30 11508 H 1106.29 0.531102 -5.70835 0
M  V30 11509 H 1104.68 -0.20536 -5.99749 0
M  V30 11510 H 1105.75 -0.897807 -4.76516 0
M  V30 11511 N 1107.1 1.56929 -0.145233 0
M  V30 11512 C 1108.34 1.97959 0.509092 0
M  V30 11513 C 1108.7 1.02813 1.62153 0
M  V30 11514 O 1109.9 1.3288 2.33659 0
M  V30 11515 C 1108.17 3.43012 1.00388 0
M  V30 11516 S 1109.73 4.06064 1.66305 0
M  V30 11517 H 1106.55 0.69167 0.164663 0
M  V30 11518 H 1109.15 1.94064 -0.236529 0
M  V30 11519 H 1107.86 4.0999 0.183454 0
M  V30 11520 H 1107.39 3.50615 1.78417 0
M  V30 11521 H 1109.4 3.98971 2.9502 0
M  V30 11522 N 1108.58 -0.128553 1.57075 0
M  V30 11523 C 1109.8 -0.8564 1.88893 0
M  V30 11524 C 1110.23 -1.73095 0.736196 0
M  V30 11525 O 1109.58 -1.78567 -0.313629 0
M  V30 11526 C 1109.63 -1.67368 3.19406 0
M  V30 11527 O 1108.74 -2.77973 3.04639 0
M  V30 11528 H 1108.08 -0.237424 0.620102 0
M  V30 11529 H 1110.61 -0.113821 2.04283 0
M  V30 11530 H 1110.62 -2.0649 3.51889 0
M  V30 11531 H 1109.29 -1.03161 4.02903 0
M  V30 11532 H 1107.87 -2.42123 2.83603 0
M  V30 11533 N 1110.05 -1.5248 -0.398459 0
M  V30 11534 C 1110.98 -1.79549 -1.49279 0
M  V30 11535 C 1111.96 -0.647004 -1.57315 0
M  V30 11536 O 1113.15 -0.893661 -1.72416 0
M  V30 11537 C 1110.28 -1.95582 -2.86993 0
M  V30 11538 C 1109.23 -3.1123 -2.93803 0
M  V30 11539 C 1108.56 -3.12501 -4.33874 0
M  V30 11540 C 1109.86 -4.50485 -2.64312 0
M  V30 11541 H 1111.55 -2.71187 -1.26877 0
M  V30 11542 H 1109.1 -1.30492 -0.608924 0
M  V30 11543 H 1111.05 -2.13102 -3.63546 0
M  V30 11544 H 1109.78 -1.00625 -3.10712 0
M  V30 11545 H 1108.44 -2.93477 -2.19697 0
M  V30 11546 H 1108.08 -2.15245 -4.54619 0
M  V30 11547 H 1107.78 -3.90183 -4.39353 0
M  V30 11548 H 1109.31 -3.32164 -5.12347 0
M  V30 11549 H 1110.72 -4.68387 -3.30585 0
M  V30 11550 H 1109.12 -5.30163 -2.81153 0
M  V30 11551 H 1110.19 -4.57848 -1.59696 0
M  V30 11552 N 1111.53 0.65634 -1.43283 0
M  V30 11553 C 1112.76 1.44906 -1.48382 0
M  V30 11554 C 1113.18 1.87823 -0.101993 0
M  V30 11555 O 1112.54 1.57178 0.903597 0
M  V30 11556 C 1112.59 2.66231 -2.43215 0
M  V30 11557 O 1111.69 3.65176 -1.91625 0
M  V30 11558 H 1111.03 0.434601 -0.502014 0
M  V30 11559 H 1113.56 0.803429 -1.88165 0
M  V30 11560 H 1113.57 3.14083 -2.60414 0
M  V30 11561 H 1112.25 2.34336 -3.43598 0
M  V30 11562 H 1110.82 3.24302 -1.84072 0
M  V30 11563 N 1113.01 1.29761 0.894412 0
M  V30 11564 C 1113.92 1.1724 2.03204 0
M  V30 11565 C 1114.94 0.0944452 1.73743 0
M  V30 11566 O 1116.11 0.307549 1.99038 0
M  V30 11567 C 1113.18 0.855416 3.35981 0
M  V30 11568 C 1112.24 2.01777 3.78926 0
M  V30 11569 C 1111.47 1.71581 5.05367 0
M  V30 11570 O 1111.69 0.639245 5.66807 0
M  V30 11571 O 1110.63 2.56539 5.44492 0
M  V30 11572 H 1114.45 2.12787 2.16692 0
M  V30 11573 H 1112.04 1.09264 1.0189 0
M  V30 11574 H 1113.92 0.693429 4.15656 0
M  V30 11575 H 1112.6 -0.0702195 3.23624 0
M  V30 11576 H 1111.5 2.23502 2.99996 0
M  V30 11577 H 1112.84 2.92479 3.95875 0
M  V30 11578 N 1114.49 -1.10549 1.12324 0
M  V30 11579 C 1115.45 -2.15039 0.793156 0
M  V30 11580 C 1116.45 -1.59651 -0.19192 0
M  V30 11581 O 1117.64 -1.74167 0.0337262 0
M  V30 11582 C 1114.77 -3.40433 0.17842 0
M  V30 11583 H 1115.97 -2.4575 1.71892 0
M  V30 11584 H 1113.52 -1.25892 0.926333 0
M  V30 11585 H 1114.25 -3.15338 -0.757122 0
M  V30 11586 H 1114.04 -3.81921 0.887645 0
M  V30 11587 H 1115.53 -4.17584 -0.0360724 0
M  V30 11588 N 1115.97 -0.914965 -1.28321 0
M  V30 11589 C 1117.21 -0.544639 -1.94208 0
M  V30 11590 C 1117.53 0.916368 -1.72806 0
M  V30 11591 O 1118.73 1.39491 -2.32926 0
M  V30 11592 C 1117.19 -0.923209 -3.47858 0
M  V30 11593 C 1116.8 -2.40403 -3.78035 0
M  V30 11594 C 1118.54 -0.623526 -4.19896 0
M  V30 11595 C 1116.45 -2.72266 -5.25 0
M  V30 11596 H 1115.38 -0.199966 -0.727 0
M  V30 11597 H 1118.03 -1.11405 -1.45812 0
M  V30 11598 H 1116.41 -0.282576 -3.94991 0
M  V30 11599 H 1117.59 -3.09149 -3.41706 0
M  V30 11600 H 1115.9 -2.67429 -3.19172 0
M  V30 11601 H 1118.5 -0.838243 -5.28089 0
M  V30 11602 H 1118.84 0.438721 -4.13982 0
M  V30 11603 H 1119.37 -1.22268 -3.78544 0
M  V30 11604 H 1116.11 -3.77349 -5.35993 0
M  V30 11605 H 1115.63 -2.08157 -5.62522 0
M  V30 11606 H 1117.31 -2.59334 -5.92752 0
M  V30 11607 N 1117.44 1.42219 -0.679077 0
M  V30 11608 C 1118.68 2.03349 -0.207058 0
M  V30 11609 C 1119.05 1.52554 1.16581 0
M  V30 11610 O 1120.25 2.05499 1.73274 0
M  V30 11611 C 1118.52 3.56562 -0.244537 0
M  V30 11612 S 1120.08 4.38523 0.155853 0
M  V30 11613 H 1116.9 0.705932 -0.0847444 0
M  V30 11614 H 1119.5 1.73904 -0.893183 0
M  V30 11615 H 1118.2 3.91028 -1.246 0
M  V30 11616 H 1117.73 3.90686 0.461282 0
M  V30 11617 H 1119.75 4.76389 1.38808 0
M  V30 11618 N 1118.92 0.422693 1.51826 0
M  V30 11619 C 1120.17 -0.148641 2.01954 0
M  V30 11620 C 1120.5 -1.43982 1.30765 0
M  V30 11621 O 1119.75 -1.91428 0.406668 0
M  V30 11622 C 1120.05 -0.429516 3.5481 0
M  V30 11623 C 1119.72 0.774088 4.44206 0
M  V30 11624 C 1118.38 1.1042 4.6836 0
M  V30 11625 C 1120.73 1.5777 4.96747 0
M  V30 11626 C 1118.06 2.23887 5.42302 0
M  V30 11627 C 1120.41 2.70325 5.71933 0
M  V30 11628 C 1119.07 3.03807 5.94355 0
M  V30 11629 H 1118.34 -0.0543917 0.739001 0
M  V30 11630 H 1120.99 0.566892 1.82917 0
M  V30 11631 H 1119.3 -1.22678 3.72099 0
M  V30 11632 H 1120.99 -0.884761 3.91118 0
M  V30 11633 H 1117.58 0.506834 4.25593 0
M  V30 11634 H 1121.77 1.33589 4.77983 0
M  V30 11635 H 1117.02 2.50159 5.5788 0
M  V30 11636 H 1121.2 3.32974 6.11638 0
M  V30 11637 H 1118.82 3.91844 6.51431 0
M  V30 11638 N 1120.4 -1.5685 0.153553 0
M  V30 11639 C 1121.65 -1.96334 -0.495915 0
M  V30 11640 C 1121.97 -1.03873 -1.64441 0
M  V30 11641 O 1121.23 -0.069231 -1.95578 0
M  V30 11642 C 1121.53 -3.42022 -1.0371 0
M  V30 11643 C 1121.19 -4.509 -0.00637049 0
M  V30 11644 C 1119.86 -4.80402 0.276956 0
M  V30 11645 C 1122.21 -5.16556 0.694187 0
M  V30 11646 C 1119.54 -5.72866 1.26653 0
M  V30 11647 C 1121.89 -6.10087 1.67263 0
M  V30 11648 C 1120.55 -6.37965 1.96359 0
M  V30 11649 H 1119.82 -0.718436 -0.181468 0
M  V30 11650 H 1122.47 -1.89968 0.241768 0
M  V30 11651 H 1120.77 -3.45252 -1.85225 0
M  V30 11652 H 1122.47 -3.69903 -1.54831 0
M  V30 11653 H 1119.06 -4.27942 -0.237378 0
M  V30 11654 H 1123.25 -4.9389 0.488496 0
M  V30 11655 H 1118.5 -5.92756 1.49833 0
M  V30 11656 H 1122.68 -6.60036 2.22094 0
M  V30 11657 H 1120.3 -7.09416 2.73189 0
M  V30 11658 N 1121.88 0.120221 -1.57141 0
M  V30 11659 C 1122.81 1.14876 -2.03287 0
M  V30 11660 C 1123.79 1.43259 -0.917112 0
M  V30 11661 O 1124.97 1.53721 -1.18674 0
M  V30 11662 C 1122.1 2.47525 -2.43616 0
M  V30 11663 C 1121.06 2.33607 -3.58625 0
M  V30 11664 C 1120.38 3.71207 -3.84849 0
M  V30 11665 C 1121.68 1.79761 -4.90391 0
M  V30 11666 H 1123.38 0.764943 -2.89463 0
M  V30 11667 H 1120.92 0.366516 -1.39258 0
M  V30 11668 H 1122.88 3.19728 -2.74504 0
M  V30 11669 H 1121.6 2.87794 -1.54409 0
M  V30 11670 H 1120.26 1.63853 -3.27945 0
M  V30 11671 H 1119.91 4.0896 -2.9285 0
M  V30 11672 H 1119.61 3.62749 -4.62263 0
M  V30 11673 H 1121.13 4.44917 -4.18188 0
M  V30 11674 H 1122.55 2.4178 -5.19822 0
M  V30 11675 H 1120.94 1.82126 -5.71795 0
M  V30 11676 H 1122.01 0.755087 -4.78985 0
M  V30 11677 N 1123.36 1.52689 0.390367 0
M  V30 11678 C 1124.6 1.67335 1.13329 0
M  V30 11679 C 1124.93 0.415068 1.90531 0
M  V30 11680 O 1124.2 -0.570504 1.87409 0
M  V30 11681 H 1122.78 0.616821 0.421356 0
M  V30 11682 H 1125.44 1.89799 0.443 0
M  V30 11683 H 1124.53 2.52314 1.83696 0
M  V30 11684 N 1124.83 -0.648732 1.43629 0
M  V30 11685 C 1125.8 -1.74331 1.488 0
M  V30 11686 C 1126.8 -1.56434 0.372147 0
M  V30 11687 O 1127.99 -1.6225 0.634078 0
M  V30 11688 C 1125.12 -3.13248 1.34494 0
M  V30 11689 H 1126.31 -1.71125 2.46285 0
M  V30 11690 H 1123.87 -0.860798 1.30461 0
M  V30 11691 H 1124.6 -3.22062 0.380345 0
M  V30 11692 H 1124.39 -3.27643 2.15389 0
M  V30 11693 H 1125.88 -3.93056 1.41055 0
M  V30 11694 N 1126.31 -1.30234 -0.887518 0
M  V30 11695 C 1127.24 -1.18969 -2.00919 0
M  V30 11696 C 1128.22 -0.080952 -1.69907 0
M  V30 11697 O 1129.41 -0.262546 -1.92417 0
M  V30 11698 C 1126.54 -0.878094 -3.36016 0
M  V30 11699 C 1125.49 -1.94449 -3.81279 0
M  V30 11700 C 1124.82 -1.48594 -5.13638 0
M  V30 11701 C 1126.12 -3.35519 -4.00281 0
M  V30 11702 H 1127.81 -2.12808 -2.10602 0
M  V30 11703 H 1125.36 -1.02454 -1.01189 0
M  V30 11704 H 1127.31 -0.785954 -4.14006 0
M  V30 11705 H 1126.04 0.0959779 -3.26459 0
M  V30 11706 H 1124.69 -2.02622 -3.05516 0
M  V30 11707 H 1124.34 -0.500204 -5.00507 0
M  V30 11708 H 1124.04 -2.19921 -5.44893 0
M  V30 11709 H 1125.57 -1.40754 -5.94156 0
M  V30 11710 H 1126.98 -3.30119 -4.68716 0
M  V30 11711 H 1125.38 -4.0491 -4.42909 0
M  V30 11712 H 1126.45 -3.77597 -3.04218 0
M  V30 11713 N 1127.79 1.09952 -1.12909 0
M  V30 11714 C 1129.02 1.8579 -0.910483 0
M  V30 11715 C 1129.43 1.80898 0.540484 0
M  V30 11716 O 1128.79 1.20126 1.3739 0
M  V30 11717 C 1128.84 3.33987 -1.38329 0
M  V30 11718 O 1128.56 3.38811 -2.77739 0
M  V30 11719 C 1130.06 4.26683 -1.20234 0
M  V30 11720 H 1127.28 0.587026 -0.325025 0
M  V30 11721 H 1129.83 1.38965 -1.5003 0
M  V30 11722 H 1127.98 3.78259 -0.836592 0
M  V30 11723 H 1128.4 4.31204 -2.98603 0
M  V30 11724 H 1129.87 5.28846 -1.58197 0
M  V30 11725 H 1130.35 4.38966 -0.14344 0
M  V30 11726 H 1130.95 3.88221 -1.73679 0
M  V30 11727 N 1129.27 0.921757 1.27833 0
M  V30 11728 C 1130.68 0.604496 1.76643 0
M  V30 11729 C 1131.03 -0.880294 1.75343 0
M  V30 11730 O 1130.16 -1.68875 1.35315 0
M  V30 11731 C 1130.75 1.09055 3.20768 0
M  V30 11732 C 1129.31 0.824066 3.67268 0
M  V30 11733 C 1128.46 1.25269 2.47392 0
M  V30 11734 H 1131.41 1.10217 1.14184 0
M  V30 11735 H 1131.43 0.435558 3.77999 0
M  V30 11736 H 1130.94 2.17122 3.21682 0
M  V30 11737 H 1129.04 -0.243055 3.71806 0
M  V30 11738 H 1129.15 1.43743 4.57028 0
M  V30 11739 H 1127.52 0.671313 2.45694 0
M  V30 11740 H 1128.3 2.34188 2.5102 0
M  V30 11741 N 1130.75 -1.41857 0.686609 0
M  V30 11742 C 1131.68 -2.28174 -0.0347358 0
M  V30 11743 C 1132.66 -1.41732 -0.796928 0
M  V30 11744 O 1133.84 -1.71165 -0.789607 0
M  V30 11745 C 1130.97 -3.21801 -1.0565 0
M  V30 11746 C 1130.01 -4.24727 -0.388523 0
M  V30 11747 S 1130.85 -5.28508 0.862546 0
M  V30 11748 C 1132 -6.25701 -0.157849 0
M  V30 11749 H 1132.24 -2.89005 0.697381 0
M  V30 11750 H 1129.77 -1.46861 0.476562 0
M  V30 11751 H 1131.73 -3.76278 -1.64089 0
M  V30 11752 H 1130.39 -2.60082 -1.76114 0
M  V30 11753 H 1129.58 -4.90471 -1.15991 0
M  V30 11754 H 1129.18 -3.73799 0.122567 0
M  V30 11755 H 1131.48 -6.6987 -1.01393 0
M  V30 11756 H 1132.42 -7.06569 0.465437 0
M  V30 11757 H 1132.83 -5.62204 -0.508614 0
M  V30 11758 N 1132.22 -0.430739 -1.51599 0
M  V30 11759 C 1133.64 0.0339139 -1.86669 0
M  V30 11760 C 1133.99 1.42533 -1.34829 0
M  V30 11761 O 1133.11 2.04889 -0.696376 0
M  V30 11762 C 1133.71 0.0683174 -3.38731 0
M  V30 11763 C 1132.27 0.477363 -3.73361 0
M  V30 11764 C 1131.41 -0.334258 -2.75278 0
M  V30 11765 H 1134.36 -0.646875 -1.44918 0
M  V30 11766 H 1134.38 0.879179 -3.70204 0
M  V30 11767 H 1133.9 -0.944501 -3.76432 0
M  V30 11768 H 1132 1.49603 -3.41247 0
M  V30 11769 H 1132.11 0.206744 -4.78654 0
M  V30 11770 H 1130.47 0.206503 -2.53861 0
M  V30 11771 H 1131.26 -1.34583 -3.1582 0
M  V30 11772 N 1133.7 1.56767 -0.161869 0
M  V30 11773 C 1134.67 2.16299 0.758104 0
M  V30 11774 C 1135.67 1.10859 1.16478 0
M  V30 11775 O 1136.86 1.36422 1.08327 0
M  V30 11776 C 1133.99 2.73819 2.03067 0
M  V30 11777 H 1135.18 2.98938 0.239992 0
M  V30 11778 H 1132.73 1.56054 0.0876532 0
M  V30 11779 H 1133.47 1.94887 2.59209 0
M  V30 11780 H 1133.25 3.50974 1.74813 0
M  V30 11781 H 1134.74 3.19638 2.68741 0
M  V30 11782 N 1135.18 -0.111886 1.57202 0
M  V30 11783 C 1136.43 -0.819623 1.85499 0
M  V30 11784 C 1136.76 -1.7919 0.748629 0
M  V30 11785 O 1136.03 -1.92952 -0.244918 0
M  V30 11786 C 1136.32 -1.56324 3.24399 0
M  V30 11787 C 1136.17 -0.610081 4.45643 0
M  V30 11788 C 1137.49 -2.51777 3.60966 0
M  V30 11789 H 1134.61 -0.296512 0.674722 0
M  V30 11790 H 1137.25 -0.0836741 1.89816 0
M  V30 11791 H 1135.4 -2.1906 3.2085 0
M  V30 11792 H 1137.07 0.00898038 4.61299 0
M  V30 11793 H 1135.32 0.0778488 4.3373 0
M  V30 11794 H 1135.99 -1.16718 5.39519 0
M  V30 11795 H 1138.46 -1.99143 3.65351 0
M  V30 11796 H 1137.34 -3.00835 4.59118 0
M  V30 11797 H 1137.6 -3.34769 2.8876 0
M  V30 11798 N 1136.66 -1.52894 -0.382264 0
M  V30 11799 C 1138.07 -1.42295 -0.722802 0
M  V30 11800 C 1138.27 -0.548717 -1.93885 0
M  V30 11801 O 1137.33 -0.0247431 -2.52488 0
M  V30 11802 C 1138.64 -2.85246 -0.9516 0
M  V30 11803 C 1140.19 -2.94768 -1.05265 0
M  V30 11804 C 1140.67 -4.38745 -1.31404 0
M  V30 11805 N 1142.16 -4.421 -1.38211 0
M  V30 11806 C 1142.89 -5.50592 -1.60113 0
M  V30 11807 N 1142.39 -6.69158 -1.79442 0
M  V30 11808 N 1144.18 -5.38145 -1.62347 0
M  V30 11809 H 1136.33 -2.0825 0.417816 0
M  V30 11810 H 1138.6 -0.939753 0.124776 0
M  V30 11811 H 1138.3 -3.51459 -0.130088 0
M  V30 11812 H 1138.18 -3.27903 -1.86439 0
M  V30 11813 H 1140.56 -2.28718 -1.86472 0
M  V30 11814 H 1140.64 -2.55529 -0.117619 0
M  V30 11815 H 1140.29 -5.05363 -0.507038 0
M  V30 11816 H 1140.22 -4.75542 -2.26202 0
M  V30 11817 H 1142.71 -3.56644 -1.24954 0
M  V30 11818 H 1143.02 -7.47615 -1.95681 0
M  V30 11819 H 1141.37 -6.72175 -1.76653 0
M  V30 11820 H 1144.56 -4.44485 -1.46803 0
M  V30 11821 H 1144.73 -6.22764 -1.79077 0
M  V30 11822 N 1138.14 0.641106 -1.43971 0
M  V30 11823 C 1139.37 1.42829 -1.49692 0
M  V30 11824 C 1139.78 1.88427 -0.118594 0
M  V30 11825 O 1139.14 1.60234 0.873581 0
M  V30 11826 C 1139.19 2.65524 -2.45314 0
M  V30 11827 O 1138.91 2.2183 -3.77787 0
M  V30 11828 C 1140.41 3.58758 -2.60399 0
M  V30 11829 H 1137.63 0.438367 -0.508011 0
M  V30 11830 H 1140.17 0.784933 -1.88836 0
M  V30 11831 H 1138.33 3.25973 -2.09332 0
M  V30 11832 H 1138.74 3.01303 -4.29321 0
M  V30 11833 H 1140.22 4.41483 -3.31357 0
M  V30 11834 H 1140.69 4.06909 -1.65294 0
M  V30 11835 H 1141.3 3.04184 -2.97241 0
M  V30 11836 N 1139.62 1.30703 0.880598 0
M  V30 11837 C 1140.86 1.19778 1.63277 0
M  V30 11838 C 1141.19 -0.246521 1.92931 0
M  V30 11839 O 1140.45 -1.19226 1.55189 0
M  V30 11840 C 1140.74 1.97628 2.97789 0
M  V30 11841 C 1140.41 3.47213 2.87669 0
M  V30 11842 C 1139.07 3.88004 2.84617 0
M  V30 11843 C 1141.42 4.4245 2.75477 0
M  V30 11844 C 1138.75 5.22315 2.67216 0
M  V30 11845 C 1141.1 5.76874 2.59614 0
M  V30 11846 C 1139.77 6.16898 2.54939 0
M  V30 11847 H 1139.04 0.438298 0.597475 0
M  V30 11848 H 1141.69 1.61853 1.02352 0
M  V30 11849 H 1139.99 1.48201 3.6269 0
M  V30 11850 H 1141.69 1.86563 3.54958 0
M  V30 11851 H 1138.28 3.14802 2.90857 0
M  V30 11852 H 1142.46 4.11875 2.76899 0
M  V30 11853 H 1137.72 5.52412 2.62014 0
M  V30 11854 H 1141.89 6.50304 2.49155 0
M  V30 11855 H 1139.52 7.20916 2.41214 0
M  V30 11856 N 1141.09 -1.09351 1.1349 0
M  V30 11857 C 1142.06 -2.14185 0.815919 0
M  V30 11858 C 1143.06 -1.59845 -0.174976 0
M  V30 11859 O 1144.25 -1.74122 0.0521971 0
M  V30 11860 C 1141.38 -3.40224 0.214517 0
M  V30 11861 H 1142.57 -2.43913 1.74489 0
M  V30 11862 H 1140.12 -1.24902 0.939634 0
M  V30 11863 H 1140.86 -3.16123 -0.723634 0
M  V30 11864 H 1140.64 -3.80958 0.928102 0
M  V30 11865 H 1142.13 -4.17599 0.00821999 0
M  V30 11866 N 1142.57 -0.928524 -1.27343 0
M  V30 11867 C 1143.5 -0.445627 -2.29208 0
M  V30 11868 C 1144.48 0.494508 -1.62753 0
M  V30 11869 O 1145.67 0.399082 -1.90055 0
M  V30 11870 C 1142.8 0.301684 -3.45987 0
M  V30 11871 C 1141.75 -0.550695 -4.24442 0
M  V30 11872 C 1141.08 0.325833 -5.33706 0
M  V30 11873 C 1142.38 -1.81559 -4.89728 0
M  V30 11874 H 1144.07 -1.29696 -2.69851 0
M  V30 11875 H 1141.62 -0.625085 -1.29725 0
M  V30 11876 H 1143.57 0.650455 -4.1635 0
M  V30 11877 H 1142.29 1.18705 -3.04264 0
M  V30 11878 H 1140.95 -0.882185 -3.55827 0
M  V30 11879 H 1140.6 1.21018 -4.88225 0
M  V30 11880 H 1140.3 -0.240994 -5.87106 0
M  V30 11881 H 1141.83 0.670156 -6.06911 0
M  V30 11882 H 1143.24 -1.53483 -5.52373 0
M  V30 11883 H 1141.64 -2.32598 -5.53189 0
M  V30 11884 H 1142.71 -2.53461 -4.13383 0
M  V30 11885 N 1144.05 1.41491 -0.694123 0
M  V30 11886 C 1145.28 2.05579 -0.233466 0
M  V30 11887 C 1145.69 1.5223 1.11675 0
M  V30 11888 O 1145.05 0.669937 1.69759 0
M  V30 11889 C 1145.1 3.61047 -0.180967 0
M  V30 11890 O 1144.82 4.12421 -1.47785 0
M  V30 11891 C 1146.32 4.42278 0.300853 0
M  V30 11892 H 1143.54 0.662097 -0.108943 0
M  V30 11893 H 1146.09 1.81288 -0.946299 0
M  V30 11894 H 1144.24 3.84381 0.482678 0
M  V30 11895 H 1144.66 5.06454 -1.364 0
M  V30 11896 H 1146.13 5.51256 0.286464 0
M  V30 11897 H 1146.61 4.18276 1.33948 0
M  V30 11898 H 1147.21 4.24004 -0.331741 0
M  V30 11899 N 1145.53 0.438773 1.51369 0
M  V30 11900 C 1146.75 -0.128221 2.07003 0
M  V30 11901 C 1147.18 -1.3557 1.30393 0
M  V30 11902 O 1146.54 -1.7804 0.342283 0
M  V30 11903 C 1146.58 -0.42761 3.58056 0
M  V30 11904 O 1145.69 -1.51382 3.83611 0
M  V30 11905 H 1145.03 -0.00123679 0.663999 0
M  V30 11906 H 1147.56 0.62052 1.94963 0
M  V30 11907 H 1147.57 -0.677645 4.02333 0
M  V30 11908 H 1146.24 0.469535 4.13241 0
M  V30 11909 H 1144.82 -1.25363 3.51196 0
M  V30 11910 N 1147.01 -1.56678 0.170181 0
M  V30 11911 C 1148.25 -1.9646 -0.474125 0
M  V30 11912 C 1148.57 -1.05719 -1.63855 0
M  V30 11913 O 1147.84 -0.123316 -1.95511 0
M  V30 11914 H 1146.42 -0.725446 -0.178149 0
M  V30 11915 H 1149.09 -1.93276 0.251099 0
M  V30 11916 H 1148.18 -3.00726 -0.834894 0
M  V30 11917 N 1148.48 0.103547 -1.57259 0
M  V30 11918 C 1149.41 1.12714 -2.04494 0
M  V30 11919 C 1150.39 1.42278 -0.932255 0
M  V30 11920 O 1151.58 1.52453 -1.20298 0
M  V30 11921 C 1148.71 2.44927 -2.46228 0
M  V30 11922 C 1147.66 2.2979 -3.61082 0
M  V30 11923 C 1146.99 3.67105 -3.88765 0
M  V30 11924 C 1148.29 1.7455 -4.9227 0
M  V30 11925 H 1149.98 0.734198 -2.90258 0
M  V30 11926 H 1147.53 0.351725 -1.39638 0
M  V30 11927 H 1149.48 3.16798 -2.77879 0
M  V30 11928 H 1148.21 2.8614 -1.57453 0
M  V30 11929 H 1146.87 1.60366 -3.29664 0
M  V30 11930 H 1146.51 4.05831 -2.97171 0
M  V30 11931 H 1146.21 3.57825 -4.66084 0
M  V30 11932 H 1147.74 4.40456 -4.22884 0
M  V30 11933 H 1149.15 2.36253 -5.22358 0
M  V30 11934 H 1147.55 1.76051 -5.73695 0
M  V30 11935 H 1148.62 0.704242 -4.79759 0
M  V30 11936 N 1149.96 1.53094 0.37415 0
M  V30 11937 C 1150.92 1.78264 1.44065 0
M  V30 11938 C 1151.92 0.652892 1.46949 0
M  V30 11939 O 1153.11 0.921046 1.47859 0
M  V30 11940 C 1150.25 1.89693 2.83248 0
M  V30 11941 H 1151.44 2.73505 1.23025 0
M  V30 11942 H 1148.99 1.44041 0.60678 0
M  V30 11943 H 1149.73 0.964884 3.09613 0
M  V30 11944 H 1149.51 2.71855 2.82554 0
M  V30 11945 H 1151 2.10787 3.60498 0
M  V30 11946 N 1151.44 -0.633461 1.44309 0
M  V30 11947 C 1152.69 -1.39513 1.47187 0
M  V30 11948 C 1153.02 -1.93926 0.103186 0
M  V30 11949 O 1152.29 -1.73512 -0.878853 0
M  V30 11950 C 1152.58 -2.56213 2.53036 0
M  V30 11951 C 1152.43 -2.07164 3.99253 0
M  V30 11952 C 1153.75 -3.58403 2.55412 0
M  V30 11953 H 1150.87 -0.505936 0.535908 0
M  V30 11954 H 1153.51 -0.716445 1.75975 0
M  V30 11955 H 1151.66 -3.14111 2.28619 0
M  V30 11956 H 1153.33 -1.54115 4.34795 0
M  V30 11957 H 1151.57 -1.38367 4.11141 0
M  V30 11958 H 1152.25 -2.91172 4.6896 0
M  V30 11959 H 1154.72 -3.103 2.77224 0
M  V30 11960 H 1153.6 -4.37581 3.31382 0
M  V30 11961 H 1153.86 -4.12316 1.59523 0
M  V30 11962 N 1152.92 -1.31168 -0.873655 0
M  V30 11963 C 1154.17 -1.20003 -1.62118 0
M  V30 11964 C 1154.48 0.241505 -1.94103 0
M  V30 11965 O 1155.69 0.474801 -2.67316 0
M  V30 11966 C 1154.14 -2.10055 -2.92241 0
M  V30 11967 C 1153.75 -3.59183 -2.67752 0
M  V30 11968 C 1155.49 -2.07681 -3.70228 0
M  V30 11969 C 1153.4 -4.41255 -3.93761 0
M  V30 11970 H 1152.33 -0.445564 -0.608267 0
M  V30 11971 H 1154.98 -1.55997 -0.966287 0
M  V30 11972 H 1153.36 -1.66956 -3.59085 0
M  V30 11973 H 1154.54 -4.10504 -2.09339 0
M  V30 11974 H 1152.85 -3.63496 -2.03125 0
M  V30 11975 H 1155.45 -2.66246 -4.637 0
M  V30 11976 H 1155.79 -1.06304 -4.02499 0
M  V30 11977 H 1156.33 -2.48961 -3.10263 0
M  V30 11978 H 1153.07 -5.43372 -3.66643 0
M  V30 11979 H 1152.59 -3.94694 -4.51638 0
M  V30 11980 H 1154.26 -4.53278 -4.6168 0
M  V30 11981 N 1154.4 1.08748 -1.14068 0
M  V30 11982 C 1155.33 2.17591 -0.84714 0
M  V30 11983 C 1156.31 1.68962 0.196415 0
M  V30 11984 O 1157.49 1.94125 0.0538415 0
M  V30 11985 C 1154.62 3.45823 -0.320005 0
M  V30 11986 C 1153.58 4.07824 -1.2986 0
M  V30 11987 C 1152.9 5.30965 -0.630925 0
M  V30 11988 C 1154.2 4.49512 -2.65963 0
M  V30 11989 H 1155.9 2.42404 -1.75729 0
M  V30 11990 H 1153.44 1.16502 -0.846356 0
M  V30 11991 H 1155.4 4.21276 -0.102271 0
M  V30 11992 H 1154.12 3.20553 0.625561 0
M  V30 11993 H 1152.78 3.34398 -1.50245 0
M  V30 11994 H 1152.43 5.01979 0.320337 0
M  V30 11995 H 1152.13 5.73402 -1.28388 0
M  V30 11996 H 1153.65 6.09136 -0.422635 0
M  V30 11997 H 1155.06 5.16159 -2.49506 0
M  V30 11998 H 1153.46 5.02857 -3.27498 0
M  V30 11999 H 1154.53 3.6157 -3.23102 0
M  V30 12000 N 1155.87 0.935264 1.26849 0
M  V30 12001 C 1157.15 0.497797 1.8916 0
M  V30 12002 C 1157.53 -1.02441 1.84578 0
M  V30 12003 O 1156.88 -1.88185 1.29609 0
M  V30 12004 C 1157.09 1.05244 3.32753 0
M  V30 12005 C 1158.44 1.11751 4.0963 0
M  V30 12006 O 1159.46 1.0026 3.41799 0
M  V30 12007 O 1158.32 1.29548 5.30923 0
M  V30 12008 H 1155.41 0.161322 0.811113 0
M  V30 12009 H 1157.96 1.02744 1.35062 0
M  V30 12010 H 1156.73 2.09617 3.30419 0
M  V30 12011 H 1156.36 0.504889 3.94381 0
M  V30 12012 N 1157.35 -1.41121 0.701616 0
M  V30 12013 C 1158.6 -2.0113 0.235147 0
M  V30 12014 C 1158.93 -1.55587 -1.16718 0
M  V30 12015 O 1158.18 -0.760615 -1.80314 0
M  V30 12016 C 1158.48 -3.5654 0.247781 0
M  V30 12017 C 1158.15 -4.21616 1.59846 0
M  V30 12018 C 1156.81 -4.39106 1.96822 0
M  V30 12019 C 1159.16 -4.58048 2.48679 0
M  V30 12020 C 1156.49 -4.90307 3.22205 0
M  V30 12021 C 1158.84 -5.10642 3.734 0
M  V30 12022 C 1157.51 -5.26343 4.10512 0
M  V30 12023 H 1156.78 -0.735987 0.0860462 0
M  V30 12024 H 1159.42 -1.68932 0.901898 0
M  V30 12025 H 1157.73 -3.88564 -0.502528 0
M  V30 12026 H 1159.42 -4.00787 -0.130766 0
M  V30 12027 H 1156.01 -4.08381 1.30088 0
M  V30 12028 H 1160.2 -4.44184 2.21391 0
M  V30 12029 H 1155.45 -5.00647 3.50945 0
M  V30 12030 H 1159.63 -5.37811 4.42416 0
M  V30 12031 H 1157.26 -5.65779 5.07738 0
M  V30 12032 N 1158.83 -0.446794 -1.51134 0
M  V30 12033 C 1159.76 0.350229 -2.30858 0
M  V30 12034 C 1160.74 1.0125 -1.36684 0
M  V30 12035 O 1161.93 1.01433 -1.65605 0
M  V30 12036 C 1159.06 1.4464 -3.15748 0
M  V30 12037 C 1158.01 0.907102 -4.18277 0
M  V30 12038 C 1157.34 2.09974 -4.91747 0
M  V30 12039 C 1158.64 -0.0649758 -5.2226 0
M  V30 12040 H 1160.33 -0.315105 -2.97737 0
M  V30 12041 H 1157.88 -0.152985 -1.43185 0
M  V30 12042 H 1159.83 2.01127 -3.70305 0
M  V30 12043 H 1158.55 2.14016 -2.46708 0
M  V30 12044 H 1157.21 0.364382 -3.64785 0
M  V30 12045 H 1156.86 2.77991 -4.19202 0
M  V30 12046 H 1156.56 1.74523 -5.61084 0
M  V30 12047 H 1158.08 2.66996 -5.49131 0
M  V30 12048 H 1159.5 0.4099 -5.71833 0
M  V30 12049 H 1157.9 -0.332529 -5.99178 0
M  V30 12050 H 1158.97 -0.998681 -4.74504 0
M  V30 12051 N 1160.31 1.56586 -0.178487 0
M  V30 12052 C 1161.24 2.21313 0.744486 0
M  V30 12053 C 1162.22 1.17098 1.23377 0
M  V30 12054 O 1163.4 1.45551 1.28563 0
M  V30 12055 C 1160.53 2.8595 1.97103 0
M  V30 12056 C 1159.49 3.96266 1.61732 0
M  V30 12057 C 1158.81 4.47987 2.91911 0
M  V30 12058 C 1160.11 5.15503 0.839868 0
M  V30 12059 H 1161.81 2.98698 0.204938 0
M  V30 12060 H 1159.35 1.43672 0.0971306 0
M  V30 12061 H 1161.31 3.29909 2.6218 0
M  V30 12062 H 1160.03 2.05946 2.53484 0
M  V30 12063 H 1158.69 3.52974 0.990208 0
M  V30 12064 H 1158.34 3.64765 3.46346 0
M  V30 12065 H 1158.04 5.22413 2.68995 0
M  V30 12066 H 1159.56 4.94637 3.58004 0
M  V30 12067 H 1160.98 5.5611 1.39337 0
M  V30 12068 H 1159.37 5.95891 0.709473 0
M  V30 12069 H 1160.44 4.84628 -0.162396 0
M  V30 12070 N 1161.79 -0.095206 1.57312 0
M  V30 12071 C 1162.72 -1.14173 1.98739 0
M  V30 12072 C 1163.73 -1.36323 0.889934 0
M  V30 12073 O 1164.92 -1.34977 1.16805 0
M  V30 12074 C 1162.02 -2.49729 2.29104 0
M  V30 12075 C 1161.19 -2.47857 3.60396 0
M  V30 12076 C 1160.25 -3.65341 3.78699 0
M  V30 12077 O 1159.28 -3.47837 4.50553 0
M  V30 12078 N 1160.48 -4.84818 3.19268 0
M  V30 12079 H 1163.25 -0.789126 2.89124 0
M  V30 12080 H 1160.81 -0.284187 1.59386 0
M  V30 12081 H 1162.8 -3.26925 2.38541 0
M  V30 12082 H 1161.37 -2.7708 1.44726 0
M  V30 12083 H 1160.59 -1.56208 3.61929 0
M  V30 12084 H 1161.88 -2.43685 4.46649 0
M  V30 12085 H 1161.27 -5.01943 2.60902 0
M  V30 12086 H 1159.83 -5.59607 3.34191 0
M  V30 12087 N 1163.26 -1.53291 -0.366026 0
M  V30 12088 C 1164.2 -1.7448 -1.47079 0
M  V30 12089 C 1165.18 -0.593147 -1.51395 0
M  V30 12090 O 1166.36 -0.825686 -1.69454 0
M  V30 12091 C 1163.49 -1.82319 -2.85443 0
M  V30 12092 C 1162.53 -3.04285 -2.98852 0
M  V30 12093 S 1163.37 -4.63812 -2.67653 0
M  V30 12094 C 1164.52 -4.74499 -4.08168 0
M  V30 12095 H 1164.75 -2.67911 -1.28884 0
M  V30 12096 H 1162.29 -1.43874 -0.560335 0
M  V30 12097 H 1164.25 -1.87521 -3.65166 0
M  V30 12098 H 1162.91 -0.899398 -3.00948 0
M  V30 12099 H 1162.1 -3.06379 -4.00185 0
M  V30 12100 H 1161.7 -2.97193 -2.27051 0
M  V30 12101 H 1163.99 -4.54527 -5.02406 0
M  V30 12102 H 1164.94 -5.76558 -4.1108 0
M  V30 12103 H 1165.34 -4.03136 -3.95147 0
M  V30 12104 N 1164.74 0.6258 -1.44643 0
M  V30 12105 C 1165.97 1.41726 -1.51422 0
M  V30 12106 C 1166.39 1.87565 -0.14181 0
M  V30 12107 O 1165.75 1.59059 0.870054 0
M  V30 12108 C 1165.8 2.61012 -2.48807 0
M  V30 12109 O 1164.9 3.61029 -1.99328 0
M  V30 12110 H 1164.24 0.423855 -0.511119 0
M  V30 12111 H 1166.77 0.763336 -1.89827 0
M  V30 12112 H 1166.78 3.08489 -2.67018 0
M  V30 12113 H 1165.46 2.26995 -3.48491 0
M  V30 12114 H 1164.04 3.20325 -1.90909 0
M  V30 12115 N 1166.22 1.31629 0.866686 0
M  V30 12116 C 1167.18 1.1951 1.95576 0
M  V30 12117 C 1168.18 0.121319 1.60342 0
M  V30 12118 O 1169.37 0.370832 1.70207 0
M  V30 12119 C 1166.51 0.835201 3.30511 0
M  V30 12120 H 1167.7 2.16285 2.07752 0
M  V30 12121 H 1165.25 1.15288 1.05539 0
M  V30 12122 H 1165.99 -0.131245 3.24034 0
M  V30 12123 H 1165.77 1.61142 3.57457 0
M  V30 12124 H 1167.26 0.774393 4.10357 0
M  V30 12125 N 1167.7 -1.08142 1.14644 0
M  V30 12126 C 1168.95 -1.80582 0.916327 0
M  V30 12127 C 1169.27 -1.86355 -0.556969 0
M  V30 12128 O 1168.53 -1.33736 -1.42875 0
M  V30 12129 C 1168.83 -3.25962 1.46573 0
M  V30 12130 C 1168.49 -3.40302 2.95814 0
M  V30 12131 C 1167.16 -3.43922 3.36557 0
M  V30 12132 C 1169.51 -3.43758 3.91765 0
M  V30 12133 C 1166.84 -3.48594 4.7191 0
M  V30 12134 C 1169.19 -3.49965 5.26979 0
M  V30 12135 C 1167.85 -3.5186 5.67231 0
M  V30 12136 H 1167.12 -0.660795 0.335308 0
M  V30 12137 H 1169.77 -1.27309 1.43055 0
M  V30 12138 H 1168.07 -3.81961 0.872507 0
M  V30 12139 H 1169.77 -3.80571 1.2636 0
M  V30 12140 H 1166.36 -3.38176 2.63315 0
M  V30 12141 H 1170.55 -3.40189 3.61366 0
M  V30 12142 H 1165.8 -3.48355 5.02453 0
M  V30 12143 H 1169.98 -3.51585 6.01133 0
M  V30 12144 H 1167.6 -3.55233 6.72097 0
M  V30 12145 N 1169.18 -0.941978 -1.26351 0
M  V30 12146 C 1170.42 -0.590845 -1.94002 0
M  V30 12147 C 1170.76 0.868004 -1.73722 0
M  V30 12148 O 1170.03 1.62111 -1.07472 0
M  V30 12149 C 1170.31 -0.934901 -3.47752 0
M  V30 12150 C 1170.17 -2.44855 -3.77314 0
M  V30 12151 C 1171.49 -0.450888 -4.37784 0
M  V30 12152 H 1168.61 -0.21613 -0.704597 0
M  V30 12153 H 1171.25 -1.17634 -1.49205 0
M  V30 12154 H 1169.4 -0.436648 -3.86038 0
M  V30 12155 H 1171.07 -3.01959 -3.48738 0
M  V30 12156 H 1169.31 -2.89169 -3.23363 0
M  V30 12157 H 1169.98 -2.6398 -4.84787 0
M  V30 12158 H 1172.46 -0.878107 -4.06729 0
M  V30 12159 H 1171.34 -0.720439 -5.44152 0
M  V30 12160 H 1171.6 0.649162 -4.37308 0
M  V30 12161 N 1170.66 1.40747 -0.709091 0
M  V30 12162 C 1171.62 2.29118 -0.0611607 0
M  V30 12163 C 1172.62 1.45049 0.694081 0
M  V30 12164 O 1173.81 1.66039 0.526952 0
M  V30 12165 C 1170.94 3.28154 0.923447 0
M  V30 12166 H 1172.13 2.87913 -0.839413 0
M  V30 12167 H 1169.69 1.4896 -0.473363 0
M  V30 12168 H 1170.42 2.74366 1.72899 0
M  V30 12169 H 1170.21 3.90207 0.384862 0
M  V30 12170 H 1171.7 3.94343 1.37417 0
M  V30 12171 N 1172.13 0.454803 1.50895 0
M  V30 12172 C 1173.06 -0.337982 2.31041 0
M  V30 12173 C 1174.04 -1.00523 1.37219 0
M  V30 12174 O 1175.23 -1.00553 1.66141 0
M  V30 12175 C 1172.36 -1.42964 3.1651 0
M  V30 12176 C 1171.31 -0.884907 4.18752 0
M  V30 12177 C 1170.64 -2.07363 4.92854 0
M  V30 12178 C 1171.94 0.0926716 5.22218 0
M  V30 12179 H 1173.63 0.33089 2.97566 0
M  V30 12180 H 1171.18 0.160577 1.43102 0
M  V30 12181 H 1173.13 -1.9916 3.71367 0
M  V30 12182 H 1171.86 -2.12705 2.47839 0
M  V30 12183 H 1170.52 -0.345031 3.64973 0
M  V30 12184 H 1170.16 -2.75764 4.2067 0
M  V30 12185 H 1169.86 -1.71545 5.62002 0
M  V30 12186 H 1171.39 -2.6408 5.5054 0
M  V30 12187 H 1172.8 -0.379568 5.72042 0
M  V30 12188 H 1171.2 0.3643 5.98993 0
M  V30 12189 H 1172.27 1.02383 4.73968 0
M  V30 12190 N 1173.61 -1.56489 0.186789 0
M  V30 12191 C 1174.54 -2.21705 -0.732739 0
M  V30 12192 C 1175.52 -1.17751 -1.22755 0
M  V30 12193 O 1176.71 -1.46231 -1.27789 0
M  V30 12194 C 1173.84 -2.86992 -1.95584 0
M  V30 12195 C 1172.79 -3.97118 -1.59628 0
M  V30 12196 C 1172.12 -4.49529 -2.89531 0
M  V30 12197 C 1173.42 -5.15941 -0.812518 0
M  V30 12198 H 1175.11 -2.98802 -0.189094 0
M  V30 12199 H 1172.66 -1.43722 -0.0895099 0
M  V30 12200 H 1174.61 -3.31295 -2.60426 0
M  V30 12201 H 1173.33 -2.07287 -2.52388 0
M  V30 12202 H 1171.99 -3.53494 -0.971475 0
M  V30 12203 H 1171.64 -3.66596 -3.44407 0
M  V30 12204 H 1171.34 -5.23832 -2.66221 0
M  V30 12205 H 1172.87 -4.96528 -3.55376 0
M  V30 12206 H 1174.28 -5.56841 -1.36386 0
M  V30 12207 H 1172.68 -5.96259 -0.677862 0
M  V30 12208 H 1173.75 -4.84535 0.188095 0
M  V30 12209 N 1175.09 0.086862 -1.5736 0
M  V30 12210 C 1176.31 0.806017 -1.91097 0
M  V30 12211 C 1176.74 1.71082 -0.78183 0
M  V30 12212 O 1176.1 1.79335 0.266175 0
M  V30 12213 C 1176.15 1.5884 -3.23732 0
M  V30 12214 O 1175.25 2.69798 -3.11902 0
M  V30 12215 H 1174.59 0.220899 -0.626179 0
M  V30 12216 H 1177.12 0.059619 -2.04513 0
M  V30 12217 H 1177.13 1.97088 -3.5724 0
M  V30 12218 H 1175.81 0.924426 -4.05496 0
M  V30 12219 H 1174.38 2.34519 -2.89923 0
M  V30 12220 N 1176.57 1.53483 0.357892 0
M  V30 12221 C 1177.5 1.83444 1.44466 0
M  V30 12222 C 1178.48 0.688486 1.55544 0
M  V30 12223 O 1179.66 0.93906 1.69986 0
M  V30 12224 C 1176.79 2.03122 2.81707 0
M  V30 12225 C 1175.75 3.1891 2.85448 0
M  V30 12226 C 1175.07 3.23895 4.25436 0
M  V30 12227 C 1176.37 4.57334 2.52275 0
M  V30 12228 H 1178.07 2.74456 1.19642 0
M  V30 12229 H 1175.61 1.3206 0.574112 0
M  V30 12230 H 1177.57 2.22666 3.57768 0
M  V30 12231 H 1176.29 1.08827 3.07935 0
M  V30 12232 H 1174.95 2.99199 2.11838 0
M  V30 12233 H 1174.6 2.27223 4.48753 0
M  V30 12234 H 1174.3 4.01694 4.28854 0
M  V30 12235 H 1175.82 3.45632 5.0336 0
M  V30 12236 H 1177.24 4.76988 3.1805 0
M  V30 12237 H 1175.63 5.37431 2.66998 0
M  V30 12238 H 1176.7 4.61921 1.47501 0
M  V30 12239 N 1178.05 -0.61812 1.44973 0
M  V30 12240 C 1179.32 -1.37705 1.38913 0
M  V30 12241 C 1179.7 -2.1103 0.054385 0
M  V30 12242 O 1179.05 -2.07197 -0.963409 0
M  V30 12243 C 1179.26 -2.33265 2.59593 0
M  V30 12244 C 1180.61 -2.96197 3.04224 0
M  V30 12245 O 1181.63 -2.43589 2.59891 0
M  V30 12246 O 1180.49 -3.91666 3.8113 0
M  V30 12247 H 1177.59 -0.61694 0.55074 0
M  V30 12248 H 1180.13 -0.642088 1.57084 0
M  V30 12249 H 1178.9 -1.78271 3.48332 0
M  V30 12250 H 1178.53 -3.14158 2.43702 0
M  V30 12251 N 1179.52 -1.32087 -0.859693 0
M  V30 12252 C 1180.75 -1.25486 -1.6513 0
M  V30 12253 C 1181.17 0.175015 -1.87284 0
M  V30 12254 O 1180.53 1.12468 -1.42199 0
M  V30 12255 C 1180.58 -2.01469 -2.9907 0
M  V30 12256 O 1179.68 -1.35904 -3.89363 0
M  V30 12257 H 1179.02 -0.432728 -0.503629 0
M  V30 12258 H 1181.55 -1.74322 -1.07112 0
M  V30 12259 H 1181.56 -2.11452 -3.4893 0
M  V30 12260 H 1180.24 -3.05448 -2.82266 0
M  V30 12261 H 1178.82 -1.34437 -3.47823 0
M  V30 12262 N 1181 1.07532 -1.15215 0
M  V30 12263 C 1181.95 2.14687 -0.847243 0
M  V30 12264 C 1182.92 1.64903 0.199043 0
M  V30 12265 O 1184.1 1.90682 0.0669986 0
M  V30 12266 C 1181.24 3.43414 -0.340673 0
M  V30 12267 C 1180.36 4.06999 -1.44831 0
M  V30 12268 C 1179.49 5.23554 -0.898059 0
M  V30 12269 C 1178.53 5.79097 -1.98276 0
M  V30 12270 N 1177.67 6.86985 -1.44902 0
M  V30 12271 H 1182.51 2.4011 -1.76498 0
M  V30 12272 H 1180.04 1.17823 -0.880689 0
M  V30 12273 H 1182 4.1719 -0.0286956 0
M  V30 12274 H 1180.63 3.18249 0.540144 0
M  V30 12275 H 1179.68 3.30895 -1.87651 0
M  V30 12276 H 1181 4.44289 -2.26735 0
M  V30 12277 H 1180.15 6.04305 -0.538514 0
M  V30 12278 H 1178.89 4.87676 -0.0481752 0
M  V30 12279 H 1177.89 4.96992 -2.35115 0
M  V30 12280 H 1179.12 6.1703 -2.83639 0
M  V30 12281 H 1177.07 6.5305 -0.621468 0
M  V30 12282 H 1176.98 7.23149 -2.20434 0
M  V30 12283 H 1178.25 7.71446 -1.11767 0
M  V30 12284 N 1182.48 0.948665 1.2585 0
M  V30 12285 C 1183.9 0.652147 1.45668 0
M  V30 12286 C 1184.1 -0.792217 1.85273 0
M  V30 12287 O 1183.15 -1.56812 1.97905 0
M  V30 12288 C 1184.47 1.61998 2.53332 0
M  V30 12289 C 1186.01 1.6305 2.67178 0
M  V30 12290 C 1186.49 2.58582 3.78021 0
M  V30 12291 N 1187.98 2.56911 3.85423 0
M  V30 12292 C 1188.71 3.27511 4.70664 0
M  V30 12293 N 1188.21 4.07563 5.60236 0
M  V30 12294 N 1190 3.16427 4.64576 0
M  V30 12295 H 1182.15 1.88215 0.984325 0
M  V30 12296 H 1184.42 0.809251 0.493778 0
M  V30 12297 H 1184.12 2.65137 2.31075 0
M  V30 12298 H 1184 1.37784 3.51134 0
M  V30 12299 H 1186.38 0.606315 2.88804 0
M  V30 12300 H 1186.47 1.9132 1.69795 0
M  V30 12301 H 1186.11 3.61122 3.57146 0
M  V30 12302 H 1186.04 2.27598 4.74875 0
M  V30 12303 H 1188.53 1.9879 3.21389 0
M  V30 12304 H 1188.84 4.58367 6.22189 0
M  V30 12305 H 1187.19 4.11662 5.59964 0
M  V30 12306 H 1190.38 2.53364 3.93604 0
M  V30 12307 H 1190.55 3.71714 5.30785 0
M  V30 12308 N 1183.96 -1.40369 0.716545 0
M  V30 12309 C 1184.89 -2.29186 0.0251905 0
M  V30 12310 C 1185.9 -1.45877 -0.722761 0
M  V30 12311 O 1187.09 -1.69155 -0.569982 0
M  V30 12312 C 1184.19 -3.24161 -0.988589 0
M  V30 12313 C 1183.37 -4.36329 -0.30597 0
M  V30 12314 C 1182.42 -5.11736 -1.22527 0
M  V30 12315 O 1181.45 -5.64758 -0.7097 0
M  V30 12316 N 1182.65 -5.21183 -2.55634 0
M  V30 12317 H 1185.42 -2.8916 0.787808 0
M  V30 12318 H 1182.98 -1.51749 0.564253 0
M  V30 12319 H 1184.97 -3.71479 -1.60578 0
M  V30 12320 H 1183.54 -2.65347 -1.65256 0
M  V30 12321 H 1182.76 -3.91125 0.491432 0
M  V30 12322 H 1184.05 -5.08523 0.167827 0
M  V30 12323 H 1183.45 -4.7959 -3.00017 0
M  V30 12324 H 1182 -5.72005 -3.12495 0
M  V30 12325 N 1185.44 -0.462799 -1.50652 0
M  V30 12326 C 1186.35 0.341191 -2.32106 0
M  V30 12327 C 1187.36 1.00384 -1.42123 0
M  V30 12328 O 1188.54 0.993635 -1.75182 0
M  V30 12329 C 1185.6 1.41356 -3.16575 0
M  V30 12330 C 1184.66 0.768375 -4.22368 0
M  V30 12331 C 1183.9 1.78964 -5.028 0
M  V30 12332 O 1184.12 3.01515 -4.84195 0
M  V30 12333 O 1183.05 1.36606 -5.86193 0
M  V30 12334 H 1186.88 -0.324482 -3.01962 0
M  V30 12335 H 1184.47 -0.224807 -1.47699 0
M  V30 12336 H 1186.35 2.0349 -3.69012 0
M  V30 12337 H 1185.02 2.06285 -2.49456 0
M  V30 12338 H 1183.93 0.108297 -3.73943 0
M  V30 12339 H 1185.26 0.162164 -4.91933 0
M  V30 12340 N 1186.91 1.56388 -0.195085 0
M  V30 12341 C 1187.88 2.17859 0.712053 0
M  V30 12342 C 1188.88 1.13304 1.141 0
M  V30 12343 O 1190.07 1.38689 1.05409 0
M  V30 12344 C 1187.2 2.78065 1.97213 0
M  V30 12345 H 1188.39 2.9938 0.176529 0
M  V30 12346 H 1185.95 1.56205 0.0545322 0
M  V30 12347 H 1186.68 2.00342 2.55017 0
M  V30 12348 H 1186.47 3.54603 1.67329 0
M  V30 12349 H 1187.96 3.25266 2.619 0
M  V30 12350 N 1188.39 -0.0785156 1.57404 0
M  V30 12351 C 1189.62 -0.795871 1.91522 0
M  V30 12352 C 1190.04 -1.70665 0.790892 0
M  V30 12353 O 1189.4 -1.79474 -0.25666 0
M  V30 12354 C 1189.45 -1.57121 3.24569 0
M  V30 12355 O 1188.55 -2.6814 3.13328 0
M  V30 12356 H 1187.89 -0.217575 0.627341 0
M  V30 12357 H 1190.42 -0.0487724 2.04542 0
M  V30 12358 H 1190.43 -1.9519 3.5828 0
M  V30 12359 H 1189.11 -0.902909 4.05981 0
M  V30 12360 H 1187.69 -2.32978 2.91163 0
M  V30 12361 N 1189.87 -1.5367 -0.349747 0
M  V30 12362 C 1191.29 -1.43796 -0.692457 0
M  V30 12363 C 1191.49 -0.58972 -1.92677 0
M  V30 12364 O 1190.54 -0.078294 -2.52379 0
M  V30 12365 C 1191.86 -2.872 -0.890881 0
M  V30 12366 C 1193.4 -2.96935 -0.989892 0
M  V30 12367 C 1193.88 -4.41433 -1.22068 0
M  V30 12368 N 1195.37 -4.44932 -1.28802 0
M  V30 12369 C 1196.1 -5.53864 -1.48398 0
M  V30 12370 N 1195.6 -6.72814 -1.65208 0
M  V30 12371 N 1197.39 -5.41467 -1.50896 0
M  V30 12372 H 1189.54 -2.07317 0.461895 0
M  V30 12373 H 1191.81 -0.936895 0.144681 0
M  V30 12374 H 1191.51 -3.51656 -0.0555095 0
M  V30 12375 H 1191.39 -3.31784 -1.79442 0
M  V30 12376 H 1193.77 -2.32622 -1.81579 0
M  V30 12377 H 1193.86 -2.55721 -0.0633906 0
M  V30 12378 H 1193.5 -5.06325 -0.399729 0
M  V30 12379 H 1193.43 -4.80233 -2.16064 0
M  V30 12380 H 1195.92 -3.59214 -1.17361 0
M  V30 12381 H 1196.23 -7.51598 -1.79779 0
M  V30 12382 H 1194.58 -6.7577 -1.62356 0
M  V30 12383 H 1197.77 -4.47498 -1.37342 0
M  V30 12384 H 1197.94 -6.26423 -1.65826 0
M  V30 12385 N 1191.35 0.610423 -1.45298 0
M  V30 12386 C 1192.28 1.73207 -1.56594 0
M  V30 12387 C 1193.26 1.64893 -0.417651 0
M  V30 12388 O 1194.44 1.83336 -0.64043 0
M  V30 12389 C 1191.57 3.11803 -1.52959 0
M  V30 12390 C 1190.53 3.34925 -2.66475 0
M  V30 12391 C 1189.85 4.73764 -2.47894 0
M  V30 12392 C 1191.15 3.25456 -4.08504 0
M  V30 12393 H 1192.85 1.6401 -2.50482 0
M  V30 12394 H 1190.39 0.787621 -1.20551 0
M  V30 12395 H 1192.35 3.90065 -1.59458 0
M  V30 12396 H 1191.07 3.21833 -0.55599 0
M  V30 12397 H 1189.73 2.59051 -2.59399 0
M  V30 12398 H 1189.38 4.80524 -1.4868 0
M  V30 12399 H 1189.08 4.90191 -3.24016 0
M  V30 12400 H 1190.6 5.54231 -2.56243 0
M  V30 12401 H 1192.02 3.93597 -4.16839 0
M  V30 12402 H 1190.41 3.53414 -4.84994 0
M  V30 12403 H 1191.48 2.22939 -4.30612 0
M  V30 12404 N 1192.83 1.32541 0.852676 0
M  V30 12405 C 1194.1 1.1383 1.59067 0
M  V30 12406 C 1194.48 -0.300584 2.08949 0
M  V30 12407 O 1193.83 -1.29751 1.88088 0
M  V30 12408 C 1194.04 2.16758 2.73527 0
M  V30 12409 C 1195.39 2.50194 3.43057 0
M  V30 12410 O 1196.41 2.15319 2.83754 0
M  V30 12411 O 1195.27 3.09985 4.50079 0
M  V30 12412 H 1192.37 0.439379 0.700625 0
M  V30 12413 H 1194.91 1.44078 0.896632 0
M  V30 12414 H 1193.68 3.13469 2.34207 0
M  V30 12415 H 1193.31 1.87515 3.50605 0
M  V30 12416 N 1194.3 -1.0692 1.15784 0
M  V30 12417 C 1195.55 -1.79866 0.936815 0
M  V30 12418 C 1195.88 -1.867 -0.534477 0
M  V30 12419 O 1195.16 -1.35395 -1.39637 0
M  V30 12420 C 1195.44 -3.24691 1.55717 0
M  V30 12421 C 1195.29 -3.25975 3.09936 0
M  V30 12422 C 1196.61 -4.22076 1.24658 0
M  V30 12423 H 1193.73 -0.652971 0.341756 0
M  V30 12424 H 1196.37 -1.25085 1.43016 0
M  V30 12425 H 1194.52 -3.7147 1.13763 0
M  V30 12426 H 1196.2 -2.87405 3.60827 0
M  V30 12427 H 1194.44 -2.64808 3.43597 0
M  V30 12428 H 1195.11 -4.28114 3.48458 0
M  V30 12429 H 1197.59 -3.83709 1.60956 0
M  V30 12430 H 1196.46 -5.21691 1.70675 0
M  V30 12431 H 1196.72 -4.41794 0.164341 0
M  V30 12432 N 1195.78 -0.955326 -1.25345 0
M  V30 12433 C 1197.02 -0.618161 -1.94828 0
M  V30 12434 C 1197.39 0.829532 -1.73155 0
M  V30 12435 O 1198.59 1.27632 -2.36566 0
M  V30 12436 C 1196.86 -0.967887 -3.44045 0
M  V30 12437 S 1198.42 -0.743401 -4.32457 0
M  V30 12438 H 1195.24 -0.227189 -0.673726 0
M  V30 12439 H 1197.84 -1.22965 -1.51986 0
M  V30 12440 H 1196.54 -2.01864 -3.57322 0
M  V30 12441 H 1196.07 -0.346677 -3.9187 0
M  V30 12442 H 1198.09 0.385467 -4.94701 0
M  V30 12443 N 1197.26 1.39987 -0.723979 0
M  V30 12444 C 1198.5 2.02587 -0.271647 0
M  V30 12445 C 1198.87 1.56186 1.11669 0
M  V30 12446 O 1200.07 2.10907 1.66648 0
M  V30 12447 C 1198.34 3.55604 -0.357851 0
M  V30 12448 S 1199.9 4.38797 0.0162614 0
M  V30 12449 H 1196.71 0.702878 -0.10716 0
M  V30 12450 H 1199.32 1.70974 -0.948057 0
M  V30 12451 H 1198.02 3.86866 -1.36977 0
M  V30 12452 H 1197.55 3.91956 0.336754 0
M  V30 12453 H 1199.57 4.80564 1.23582 0
M  V30 12454 N 1198.74 0.470782 1.50404 0
M  V30 12455 C 1199.98 -0.0830648 2.04231 0
M  V30 12456 C 1200.34 -1.37015 1.34503 0
M  V30 12457 O 1201.54 -2.00635 1.78883 0
M  V30 12458 C 1199.82 -0.262986 3.56431 0
M  V30 12459 S 1201.37 -0.775432 4.31894 0
M  V30 12460 H 1198.19 -0.0161025 0.710818 0
M  V30 12461 H 1200.79 0.63785 1.84802 0
M  V30 12462 H 1199.5 0.679558 4.04735 0
M  V30 12463 H 1199.03 -1.01002 3.80213 0
M  V30 12464 H 1201.04 -2.04887 4.51924 0
M  V30 12465 N 1200.22 -1.56282 0.203376 0
M  V30 12466 C 1201.46 -1.98105 -0.433844 0
M  V30 12467 C 1201.8 -1.09044 -1.60695 0
M  V30 12468 O 1201.07 -0.144193 -1.93965 0
M  V30 12469 C 1201.35 -3.4903 -0.885992 0
M  V30 12470 C 1201.21 -4.48867 0.289501 0
M  V30 12471 C 1202.53 -4.03871 -1.7486 0
M  V30 12472 H 1199.65 -0.720252 -0.156224 0
M  V30 12473 H 1202.29 -1.87681 0.295963 0
M  V30 12474 H 1200.44 -3.58045 -1.50785 0
M  V30 12475 H 1202.11 -4.51883 0.92734 0
M  V30 12476 H 1200.35 -4.23495 0.939934 0
M  V30 12477 H 1201.02 -5.51956 -0.0695128 0
M  V30 12478 H 1203.5 -3.97688 -1.22407 0
M  V30 12479 H 1202.38 -5.09827 -2.03391 0
M  V30 12480 H 1202.64 -3.49637 -2.70567 0
M  V30 12481 N 1201.7 0.070167 -1.57444 0
M  V30 12482 C 1202.64 1.08322 -2.03801 0
M  V30 12483 C 1203.61 1.38364 -0.918946 0
M  V30 12484 O 1204.8 1.49404 -1.18672 0
M  V30 12485 C 1201.94 2.39128 -2.48821 0
M  V30 12486 C 1201.05 2.15603 -3.74352 0
M  V30 12487 C 1200.19 3.39984 -4.08148 0
M  V30 12488 C 1199.22 3.1183 -5.26715 0
M  V30 12489 N 1198.36 4.28546 -5.56141 0
M  V30 12490 H 1203.2 0.680931 -2.90116 0
M  V30 12491 H 1200.74 0.324657 -1.43473 0
M  V30 12492 H 1202.7 3.15501 -2.72975 0
M  V30 12493 H 1201.33 2.77157 -1.65481 0
M  V30 12494 H 1200.38 1.29915 -3.57528 0
M  V30 12495 H 1201.69 1.90808 -4.60862 0
M  V30 12496 H 1200.84 4.2475 -4.33211 0
M  V30 12497 H 1199.58 3.67856 -3.20208 0
M  V30 12498 H 1198.59 2.2546 -5.01446 0
M  V30 12499 H 1199.81 2.85278 -6.16273 0
M  V30 12500 H 1197.76 4.56447 -4.71161 0
M  V30 12501 H 1197.68 4.0703 -6.37073 0
M  V30 12502 H 1198.94 5.14305 -5.85757 0
M  V30 12503 N 1203.17 1.53854 0.341593 0
M  V30 12504 C 1204.58 1.62623 0.917093 0
M  V30 12505 C 1204.94 0.508781 1.89488 0
M  V30 12506 O 1204.06 -0.361171 2.13365 0
M  V30 12507 C 1204.66 2.94775 1.67012 0
M  V30 12508 C 1203.21 3.058 2.19461 0
M  V30 12509 C 1202.36 2.58082 1.01433 0
M  V30 12510 H 1205.31 1.58248 0.119674 0
M  V30 12511 H 1205.33 2.83924 2.53313 0
M  V30 12512 H 1204.85 3.76085 0.958221 0
M  V30 12513 H 1202.95 2.29128 2.93821 0
M  V30 12514 H 1203.06 4.11302 2.45698 0
M  V30 12515 H 1201.42 2.13537 1.38831 0
M  V30 12516 H 1202.21 3.41833 0.317033 0
M  V30 12517 N 1204.65 -0.602709 1.4562 0
M  V30 12518 C 1205.58 -1.7271 1.50678 0
M  V30 12519 C 1206.6 -1.57884 0.397048 0
M  V30 12520 O 1207.79 -1.65676 0.664367 0
M  V30 12521 C 1204.89 -3.10762 1.35204 0
M  V30 12522 C 1204.06 -3.51782 2.59939 0
M  V30 12523 C 1203.12 -4.68816 2.38952 0
M  V30 12524 O 1202.14 -4.75686 3.12588 0
M  V30 12525 N 1203.35 -5.624 1.43827 0
M  V30 12526 H 1206.11 -1.68833 2.47619 0
M  V30 12527 H 1203.67 -0.788131 1.41422 0
M  V30 12528 H 1205.66 -3.86819 1.18967 0
M  V30 12529 H 1204.23 -3.09119 0.465203 0
M  V30 12530 H 1203.45 -2.65637 2.91257 0
M  V30 12531 H 1204.74 -3.75948 3.42842 0
M  V30 12532 H 1204.14 -5.59568 0.830669 0
M  V30 12533 H 1202.7 -6.37969 1.33561 0
M  V30 12534 N 1206.13 -1.32992 -0.845635 0
M  V30 12535 C 1207.04 -1.24701 -1.98713 0
M  V30 12536 C 1208.06 -0.158864 -1.73273 0
M  V30 12537 O 1209.23 -0.381209 -1.97759 0
M  V30 12538 C 1206.3 -0.979524 -3.32575 0
M  V30 12539 C 1205.36 -2.15701 -3.71176 0
M  V30 12540 C 1204.59 -1.90219 -4.98651 0
M  V30 12541 O 1204.81 -0.849171 -5.64044 0
M  V30 12542 O 1203.75 -2.76571 -5.34595 0
M  V30 12543 H 1207.57 -2.20683 -2.08645 0
M  V30 12544 H 1205.16 -1.12971 -0.97765 0
M  V30 12545 H 1207.04 -0.847219 -4.12796 0
M  V30 12546 H 1205.72 -0.0499398 -3.23661 0
M  V30 12547 H 1204.62 -2.34483 -2.91494 0
M  V30 12548 H 1205.96 -3.0697 -3.84747 0
M  V30 12549 N 1207.61 1.06304 -1.1635 0
M  V30 12550 C 1208.54 2.15745 -0.893103 0
M  V30 12551 C 1209.52 1.69341 0.160531 0
M  V30 12552 O 1210.7 1.94196 0.0126526 0
M  V30 12553 C 1207.83 3.45066 -0.393287 0
M  V30 12554 C 1206.79 4.04978 -1.38482 0
M  V30 12555 C 1206.11 5.29507 -0.743409 0
M  V30 12556 C 1207.41 4.4377 -2.75438 0
M  V30 12557 H 1209.11 2.38622 -1.80831 0
M  V30 12558 H 1206.65 1.14681 -0.870878 0
M  V30 12559 H 1208.61 4.20964 -0.191607 0
M  V30 12560 H 1207.33 3.21808 0.557426 0
M  V30 12561 H 1205.99 3.31136 -1.57304 0
M  V30 12562 H 1205.64 5.02545 0.213787 0
M  V30 12563 H 1205.34 5.7055 -1.40521 0
M  V30 12564 H 1206.86 6.08102 -0.551746 0
M  V30 12565 H 1208.28 5.1075 -2.60398 0
M  V30 12566 H 1206.67 4.95797 -3.38091 0
M  V30 12567 H 1207.74 3.54636 -3.30699 0
M  V30 12568 N 1209.09 0.96196 1.24836 0
M  V30 12569 C 1210.5 0.660388 1.7463 0
M  V30 12570 C 1210.85 -0.824064 1.78055 0
M  V30 12571 O 1209.97 -1.64485 1.40619 0
M  V30 12572 C 1210.57 1.19205 3.17137 0
M  V30 12573 C 1209.13 0.940493 3.64461 0
M  V30 12574 C 1208.27 1.33076 2.43282 0
M  V30 12575 H 1211.22 1.13794 1.1062 0
M  V30 12576 H 1211.25 0.555595 3.76422 0
M  V30 12577 H 1210.76 2.27247 3.14612 0
M  V30 12578 H 1208.86 -0.124645 3.72391 0
M  V30 12579 H 1208.97 1.5821 4.52224 0
M  V30 12580 H 1207.34 0.749139 2.43434 0
M  V30 12581 H 1208.12 2.42055 2.43442 0
M  V30 12582 N 1210.56 -1.39601 0.731392 0
M  V30 12583 C 1211.97 -1.83424 0.348194 0
M  V30 12584 C 1212.33 -1.61106 -1.11979 0
M  V30 12585 O 1211.45 -1.1003 -1.86339 0
M  V30 12586 C 1212.05 -3.32982 0.6252 0
M  V30 12587 C 1210.6 -3.75238 0.295536 0
M  V30 12588 C 1209.75 -2.62642 0.88964 0
M  V30 12589 H 1212.7 -1.28644 0.929318 0
M  V30 12590 H 1212.72 -3.80357 -0.104254 0
M  V30 12591 H 1212.24 -3.49193 1.69368 0
M  V30 12592 H 1210.34 -3.64615 -0.767254 0
M  V30 12593 H 1210.45 -4.72781 0.775576 0
M  V30 12594 H 1208.81 -2.52726 0.316529 0
M  V30 12595 H 1209.6 -2.81661 1.96271 0
M  V30 12596 N 1212.04 -0.478751 -1.50152 0
M  V30 12597 C 1213.45 -0.0254907 -1.86683 0
M  V30 12598 C 1213.8 1.38171 -1.39295 0
M  V30 12599 O 1212.93 2.0257 -0.761207 0
M  V30 12600 C 1213.52 -0.0394819 -3.38777 0
M  V30 12601 C 1212.08 0.35834 -3.7469 0
M  V30 12602 C 1211.23 -0.421667 -2.74075 0
M  V30 12603 H 1214.18 -0.692653 -1.42787 0
M  V30 12604 H 1214.2 0.760957 -3.72813 0
M  V30 12605 H 1213.71 -1.06378 -3.73236 0
M  V30 12606 H 1211.82 1.38671 -3.45834 0
M  V30 12607 H 1211.93 0.0543589 -4.79069 0
M  V30 12608 H 1210.29 0.125634 -2.5439 0
M  V30 12609 H 1211.08 -1.44562 -3.11379 0
M  V30 12610 N 1213.52 1.56172 -0.211661 0
M  V30 12611 C 1214.77 1.97648 0.421871 0
M  V30 12612 C 1215.09 1.10026 1.60995 0
M  V30 12613 O 1214.36 0.175109 1.95116 0
M  V30 12614 H 1212.94 0.729914 0.158852 0
M  V30 12615 H 1215.6 1.92542 -0.302254 0
M  V30 12616 H 1214.7 3.02834 0.754868 0
M  V30 12617 N 1215 -0.0618163 1.57479 0
M  V30 12618 C 1215.93 -1.09931 2.01116 0
M  V30 12619 C 1216.94 -1.34405 0.91865 0
M  V30 12620 O 1218.13 -1.32469 1.19642 0
M  V30 12621 C 1215.23 -2.44814 2.34349 0
M  V30 12622 C 1214.41 -2.40157 3.65573 0
M  V30 12623 C 1213.46 -3.57226 3.86363 0
M  V30 12624 O 1212.49 -3.38202 4.5783 0
M  V30 12625 N 1213.69 -4.77937 3.2948 0
M  V30 12626 H 1216.46 -0.727621 2.90733 0
M  V30 12627 H 1214.02 -0.250315 1.59953 0
M  V30 12628 H 1216.01 -3.21792 2.45422 0
M  V30 12629 H 1214.58 -2.73947 1.50571 0
M  V30 12630 H 1213.8 -1.48496 3.65161 0
M  V30 12631 H 1215.09 -2.34156 4.51717 0
M  V30 12632 H 1214.49 -4.96296 2.7149 0
M  V30 12633 H 1213.04 -5.52392 3.45986 0
M  V30 12634 N 1216.48 -1.54033 -0.333429 0
M  V30 12635 C 1217.72 -1.71426 -1.0704 0
M  V30 12636 C 1218.05 -0.485496 -1.8886 0
M  V30 12637 O 1217.32 0.500555 -1.89397 0
M  V30 12638 H 1215.9 -0.632034 -0.398173 0
M  V30 12639 H 1218.56 -1.91312 -0.372252 0
M  V30 12640 H 1217.65 -2.58958 -1.74205 0
M  V30 12641 N 1217.95 0.594978 -1.45938 0
M  V30 12642 C 1218.86 1.73296 -1.58132 0
M  V30 12643 C 1219.88 1.67665 -0.465245 0
M  V30 12644 O 1221.06 1.87794 -0.727684 0
M  V30 12645 C 1218.12 3.09783 -1.55677 0
M  V30 12646 C 1217.18 3.26772 -2.78422 0
M  V30 12647 C 1216.42 4.56748 -2.76075 0
M  V30 12648 O 1216.64 5.39867 -1.84119 0
M  V30 12649 O 1215.57 4.76721 -3.67452 0
M  V30 12650 H 1219.4 1.65957 -2.54346 0
M  V30 12651 H 1216.98 0.760572 -1.28591 0
M  V30 12652 H 1218.87 3.91077 -1.56961 0
M  V30 12653 H 1217.54 3.17585 -0.626191 0
M  V30 12654 H 1216.45 2.45018 -2.82696 0
M  V30 12655 H 1217.78 3.23853 -3.70648 0
M  V30 12656 N 1219.43 1.33438 0.838571 0
M  V30 12657 C 1220.68 1.24665 1.59069 0
M  V30 12658 C 1221 -0.187433 1.94097 0
M  V30 12659 O 1220.27 -1.11625 1.60987 0
M  V30 12660 H 1218.85 0.45843 0.589789 0
M  V30 12661 H 1221.51 1.67161 1.00216 0
M  V30 12662 H 1220.61 1.84057 2.52051 0
M  V30 12663 N 1220.91 -1.05686 1.16912 0
M  V30 12664 C 1221.84 -2.15268 0.904532 0
M  V30 12665 C 1222.82 -1.69424 -0.151548 0
M  V30 12666 O 1224.01 -1.942 -0.00235371 0
M  V30 12667 C 1221.14 -3.44853 0.411581 0
M  V30 12668 C 1220.09 -4.04237 1.40628 0
M  V30 12669 C 1219.42 -5.29105 0.771479 0
M  V30 12670 C 1220.72 -4.42303 2.77787 0
M  V30 12671 H 1222.41 -2.37659 1.82094 0
M  V30 12672 H 1219.96 -1.14217 0.876947 0
M  V30 12673 H 1221.91 -4.20857 0.213929 0
M  V30 12674 H 1220.63 -3.22099 -0.540352 0
M  V30 12675 H 1219.29 -3.30297 1.59058 0
M  V30 12676 H 1218.94 -5.02652 -0.187133 0
M  V30 12677 H 1218.64 -5.69797 1.43545 0
M  V30 12678 H 1220.16 -6.07801 0.583988 0
M  V30 12679 H 1221.58 -5.09362 2.63103 0
M  V30 12680 H 1219.98 -4.93997 3.40716 0
M  V30 12681 H 1221.05 -3.52877 3.32575 0
M  V30 12682 N 1222.39 -0.968567 -1.24324 0
M  V30 12683 C 1223.32 -0.518323 -2.27674 0
M  V30 12684 C 1224.3 0.442479 -1.64244 0
M  V30 12685 O 1225.48 0.338416 -1.91229 0
M  V30 12686 C 1222.61 0.191459 -3.46772 0
M  V30 12687 C 1221.57 -0.685449 -4.22476 0
M  V30 12688 C 1220.89 0.155873 -5.34473 0
M  V30 12689 C 1222.19 -1.97047 -4.83704 0
M  V30 12690 H 1223.89 -1.38215 -2.65588 0
M  V30 12691 H 1221.43 -0.66604 -1.27671 0
M  V30 12692 H 1223.39 0.517667 -4.18208 0
M  V30 12693 H 1222.11 1.08965 -3.07887 0
M  V30 12694 H 1220.77 -0.994942 -3.52841 0
M  V30 12695 H 1220.42 1.05424 -4.91828 0
M  V30 12696 H 1220.12 -0.427655 -5.86042 0
M  V30 12697 H 1221.64 0.476733 -6.08736 0
M  V30 12698 H 1223.06 -1.70979 -5.4721 0
M  V30 12699 H 1221.45 -2.50079 -5.45509 0
M  V30 12700 H 1222.52 -2.66484 -4.0511 0
M  V30 12701 N 1223.87 1.39211 -0.738786 0
M  V30 12702 C 1224.8 2.33209 -0.11647 0
M  V30 12703 C 1225.78 1.54108 0.720056 0
M  V30 12704 O 1226.96 1.82486 0.664264 0
M  V30 12705 C 1224.09 3.38226 0.78872 0
M  V30 12706 C 1223.05 4.27963 0.0560636 0
M  V30 12707 C 1222.37 5.2371 1.07852 0
M  V30 12708 C 1223.67 5.10508 -1.1036 0
M  V30 12709 H 1225.37 2.85501 -0.901649 0
M  V30 12710 H 1222.91 1.37272 -0.435032 0
M  V30 12711 H 1224.87 4.02938 1.23364 0
M  V30 12712 H 1223.59 2.84382 1.60606 0
M  V30 12713 H 1222.25 3.64735 -0.369274 0
M  V30 12714 H 1221.9 4.66161 1.88953 0
M  V30 12715 H 1221.6 5.846 0.593048 0
M  V30 12716 H 1223.12 5.91299 1.52307 0
M  V30 12717 H 1224.53 5.68544 -0.736943 0
M  V30 12718 H 1222.93 5.80558 -1.51895 0
M  V30 12719 H 1224 4.45117 -1.92352 0
M  V30 12720 N 1225.34 0.486708 1.49896 0
M  V30 12721 C 1226.59 -0.0627279 2.02003 0
M  V30 12722 C 1226.91 -1.38799 1.36967 0
M  V30 12723 O 1226.18 -1.88868 0.520173 0
M  V30 12724 H 1224.76 -0.0261718 0.746541 0
M  V30 12725 H 1227.43 0.640692 1.84068 0
M  V30 12726 H 1226.52 -0.202856 3.1144 0
M  V30 12727 N 1226.82 -1.56058 0.219941 0
M  V30 12728 C 1228.07 -1.9826 -0.412197 0
M  V30 12729 C 1228.4 -1.10754 -1.59887 0
M  V30 12730 O 1227.65 -0.15212 -1.95108 0
M  V30 12731 C 1227.95 -3.46113 -0.8911 0
M  V30 12732 C 1227.62 -4.50521 0.184877 0
M  V30 12733 C 1226.28 -4.78795 0.480462 0
M  V30 12734 C 1228.63 -5.13147 0.912652 0
M  V30 12735 C 1225.96 -5.66979 1.50837 0
M  V30 12736 C 1228.31 -6.02444 1.92988 0
M  V30 12737 C 1226.98 -6.29063 2.2324 0
M  V30 12738 H 1226.25 -0.725486 -0.150834 0
M  V30 12739 H 1228.89 -1.88771 0.322122 0
M  V30 12740 H 1227.2 -3.52797 -1.70415 0
M  V30 12741 H 1228.9 -3.76137 -1.39003 0
M  V30 12742 H 1225.49 -4.28564 -0.0556594 0
M  V30 12743 H 1229.67 -4.91374 0.697532 0
M  V30 12744 H 1224.93 -5.85868 1.74839 0
M  V30 12745 H 1229.1 -6.50022 2.49889 0
M  V30 12746 H 1226.73 -6.97191 3.03032 0
M  V30 12747 N 1228.3 0.053464 -1.57509 0
M  V30 12748 C 1229.55 0.749102 -1.88135 0
M  V30 12749 C 1229.88 1.76642 -0.814111 0
M  V30 12750 O 1229.13 1.94796 0.187845 0
M  V30 12751 C 1229.43 1.47666 -3.25468 0
M  V30 12752 C 1229.1 0.597619 -4.46922 0
M  V30 12753 C 1227.76 0.355429 -4.79886 0
M  V30 12754 C 1230.11 -0.0107869 -5.21199 0
M  V30 12755 C 1227.44 -0.504347 -5.84528 0
M  V30 12756 C 1229.79 -0.858123 -6.26753 0
M  V30 12757 C 1228.45 -1.11001 -6.58206 0
M  V30 12758 H 1227.72 0.274116 -0.688434 0
M  V30 12759 H 1230.37 0.00944162 -1.91498 0
M  V30 12760 H 1228.68 2.28901 -3.1798 0
M  V30 12761 H 1230.37 2.02002 -3.46404 0
M  V30 12762 H 1226.96 0.796526 -4.21134 0
M  V30 12763 H 1231.15 0.163404 -4.96031 0
M  V30 12764 H 1226.4 -0.708057 -6.07286 0
M  V30 12765 H 1230.58 -1.3362 -6.83461 0
M  V30 12766 H 1228.2 -1.77798 -7.39116 0
M  V30 12767 N 1229.78 1.54207 0.325255 0
M  V30 12768 C 1230.71 1.79812 1.42128 0
M  V30 12769 C 1231.72 0.68003 1.47917 0
M  V30 12770 O 1232.91 0.957107 1.50671 0
M  V30 12771 C 1230.01 1.89935 2.80674 0
M  V30 12772 C 1229.19 3.20078 2.98108 0
M  V30 12773 C 1228.25 3.20924 4.17006 0
M  V30 12774 O 1227.27 3.94571 4.10247 0
M  V30 12775 N 1228.47 2.44588 5.26457 0
M  V30 12776 H 1231.24 2.74396 1.20527 0
M  V30 12777 H 1228.8 1.53483 0.515233 0
M  V30 12778 H 1230.79 1.8793 3.58419 0
M  V30 12779 H 1229.36 1.02455 2.95333 0
M  V30 12780 H 1228.58 3.35057 2.07679 0
M  V30 12781 H 1229.87 4.06008 3.06651 0
M  V30 12782 H 1229.27 1.8434 5.34823 0
M  V30 12783 H 1227.82 2.48363 6.02627 0
M  V30 12784 N 1231.26 -0.58723 1.46251 0
M  V30 12785 C 1232.2 -1.69662 1.56472 0
M  V30 12786 C 1233.17 -1.60978 0.409294 0
M  V30 12787 O 1234.36 -1.80257 0.625451 0
M  V30 12788 C 1231.5 -3.07996 1.55669 0
M  V30 12789 C 1230.61 -3.27337 2.81913 0
M  V30 12790 C 1229.75 -4.55894 2.72644 0
M  V30 12791 C 1228.79 -4.68562 3.93847 0
M  V30 12792 N 1227.92 -5.8844 3.82991 0
M  V30 12793 H 1232.76 -1.60262 2.51237 0
M  V30 12794 H 1230.3 -0.781148 1.24645 0
M  V30 12795 H 1232.26 -3.88058 1.53189 0
M  V30 12796 H 1230.89 -3.16303 0.6444 0
M  V30 12797 H 1229.94 -2.4091 2.94392 0
M  V30 12798 H 1231.25 -3.32567 3.71754 0
M  V30 12799 H 1230.41 -5.44178 2.68244 0
M  V30 12800 H 1229.15 -4.53094 1.80435 0
M  V30 12801 H 1228.15 -3.78696 3.98584 0
M  V30 12802 H 1229.38 -4.73144 4.87146 0
M  V30 12803 H 1227.32 -5.86647 2.93566 0
M  V30 12804 H 1227.24 -5.94919 4.66484 0
M  V30 12805 H 1228.51 -6.79168 3.82559 0
M  V30 12806 N 1232.74 -1.33881 -0.831482 0
M  V30 12807 C 1233.7 -1.24654 -1.92339 0
M  V30 12808 C 1234.7 -0.163788 -1.59964 0
M  V30 12809 O 1235.89 -0.415829 -1.69164 0
M  V30 12810 C 1233.02 -0.922537 -3.2818 0
M  V30 12811 H 1234.21 -2.21717 -2.01944 0
M  V30 12812 H 1231.77 -1.18046 -1.02445 0
M  V30 12813 H 1232.5 0.0452872 -3.24268 0
M  V30 12814 H 1232.29 -1.70562 -3.53059 0
M  V30 12815 H 1233.78 -0.88292 -4.0816 0
M  V30 12816 N 1234.21 1.05064 -1.1747 0
M  V30 12817 C 1235.44 1.81497 -0.987031 0
M  V30 12818 C 1235.85 1.83323 0.467921 0
M  V30 12819 O 1235.19 1.26006 1.33672 0
M  V30 12820 C 1235.26 3.28826 -1.45306 0
M  V30 12821 C 1234.92 3.50681 -2.93039 0
M  V30 12822 C 1235.92 3.42699 -3.90965 0
M  V30 12823 C 1233.6 3.77602 -3.31243 0
M  V30 12824 C 1235.6 3.61325 -5.25093 0
M  V30 12825 C 1233.28 3.95876 -4.65538 0
M  V30 12826 C 1234.28 3.87737 -5.62271 0
M  V30 12827 O 1233.97 4.055 -6.94136 0
M  V30 12828 H 1233.7 0.578734 -0.349347 0
M  V30 12829 H 1236.26 1.33373 -1.56208 0
M  V30 12830 H 1234.49 3.77872 -0.821581 0
M  V30 12831 H 1236.17 3.86788 -1.23085 0
M  V30 12832 H 1236.94 3.21877 -3.62795 0
M  V30 12833 H 1232.82 3.8304 -2.56517 0
M  V30 12834 H 1236.36 3.54888 -6.00583 0
M  V30 12835 H 1232.26 4.16191 -4.93412 0
M  V30 12836 H 1233.03 4.22718 -7.00894 0
M  V30 12837 N 1235.69 0.975146 1.23809 0
M  V30 12838 C 1236.65 0.516157 2.23312 0
M  V30 12839 C 1237.65 -0.39136 1.55965 0
M  V30 12840 O 1238.84 -0.185783 1.73206 0
M  V30 12841 C 1235.98 -0.251534 3.39971 0
M  V30 12842 H 1237.17 1.3959 2.65433 0
M  V30 12843 H 1234.72 0.760493 1.36551 0
M  V30 12844 H 1235.46 -1.14805 3.03299 0
M  V30 12845 H 1235.24 0.399825 3.90056 0
M  V30 12846 H 1236.73 -0.561438 4.13809 0
M  V30 12847 N 1237.17 -1.38817 0.746158 0
M  V30 12848 C 1238.58 -1.83045 0.367629 0
M  V30 12849 C 1238.93 -1.62285 -1.10263 0
M  V30 12850 O 1238.06 -1.12001 -1.85162 0
M  V30 12851 C 1238.65 -3.323 0.660482 0
M  V30 12852 C 1237.21 -3.74903 0.335318 0
M  V30 12853 C 1236.36 -2.61683 0.917446 0
M  V30 12854 H 1239.31 -1.27651 0.94291 0
M  V30 12855 H 1239.33 -3.80446 -0.0639061 0
M  V30 12856 H 1238.84 -3.47377 1.73062 0
M  V30 12857 H 1236.94 -3.65408 -0.728538 0
M  V30 12858 H 1237.06 -4.71932 0.825677 0
M  V30 12859 H 1235.42 -2.52376 0.343316 0
M  V30 12860 H 1236.2 -2.79563 1.99247 0
M  V30 12861 N 1238.65 -0.49465 -1.49636 0
M  V30 12862 C 1239.89 0.0521172 -2.02433 0
M  V30 12863 C 1240.22 1.37579 -1.37485 0
M  V30 12864 O 1239.48 1.8927 -0.497538 0
M  V30 12865 C 1239.78 0.259743 -3.56455 0
M  V30 12866 C 1239.44 -0.985143 -4.40007 0
M  V30 12867 C 1238.1 -1.3264 -4.62558 0
M  V30 12868 C 1240.46 -1.81291 -4.88654 0
M  V30 12869 C 1237.78 -2.49506 -5.31003 0
M  V30 12870 C 1240.14 -2.97305 -5.58384 0
M  V30 12871 C 1238.8 -3.31818 -5.79183 0
M  V30 12872 H 1238.07 0.0190711 -0.740755 0
M  V30 12873 H 1240.72 -0.653519 -1.80004 0
M  V30 12874 H 1239.02 1.04785 -3.77528 0
M  V30 12875 H 1240.72 0.697146 -3.94893 0
M  V30 12876 H 1237.31 -0.709313 -4.2269 0
M  V30 12877 H 1241.49 -1.56242 -4.71065 0
M  V30 12878 H 1236.75 -2.76491 -5.4531 0
M  V30 12879 H 1240.92 -3.61777 -5.95055 0
M  V30 12880 H 1238.55 -4.22478 -6.31994 0
M  V30 12881 N 1240.13 1.55939 -0.228214 0
M  V30 12882 C 1241.06 2.2357 0.6737 0
M  V30 12883 C 1242.04 1.20964 1.1959 0
M  V30 12884 O 1243.22 1.49568 1.23867 0
M  V30 12885 C 1240.35 2.92076 1.87906 0
M  V30 12886 C 1239.31 4.01211 1.49043 0
M  V30 12887 C 1238.63 4.57047 2.77511 0
M  V30 12888 C 1239.93 5.17914 0.67544 0
M  V30 12889 H 1241.63 2.99199 0.109806 0
M  V30 12890 H 1239.17 1.43908 0.0513732 0
M  V30 12891 H 1241.12 3.38083 2.51551 0
M  V30 12892 H 1239.85 2.13906 2.46803 0
M  V30 12893 H 1238.51 3.55945 0.877411 0
M  V30 12894 H 1238.16 3.75599 3.34566 0
M  V30 12895 H 1237.86 5.30707 2.52239 0
M  V30 12896 H 1239.38 5.05776 3.42087 0
M  V30 12897 H 1240.79 5.60261 1.21575 0
M  V30 12898 H 1239.19 5.97847 0.519536 0
M  V30 12899 H 1240.26 4.83866 -0.316495 0
M  V30 12900 N 1241.6 -0.0451101 1.57535 0
M  V30 12901 C 1242.53 -1.05046 2.08537 0
M  V30 12902 C 1243.52 -1.3872 0.984418 0
M  V30 12903 O 1244.7 -1.47884 1.25873 0
M  V30 12904 C 1241.83 -2.3562 2.55148 0
M  V30 12905 C 1240.78 -2.16231 3.69362 0
M  V30 12906 C 1240.11 -3.52423 4.02122 0
M  V30 12907 C 1241.41 -1.56159 4.98409 0
M  V30 12908 H 1243.1 -0.625965 2.92783 0
M  V30 12909 H 1240.65 -0.299657 1.40848 0
M  V30 12910 H 1242.6 -3.06266 2.89446 0
M  V30 12911 H 1241.33 -2.80099 1.67964 0
M  V30 12912 H 1239.99 -1.4802 3.35389 0
M  V30 12913 H 1239.63 -3.94522 3.12028 0
M  V30 12914 H 1239.33 -3.4028 4.79044 0
M  V30 12915 H 1240.86 -4.24458 4.38939 0
M  V30 12916 H 1242.27 -2.16703 5.30766 0
M  V30 12917 H 1240.67 -1.54638 5.79834 0
M  V30 12918 H 1241.74 -0.525698 4.82042 0
M  V30 12919 N 1243.08 -1.54377 -0.317073 0
M  V30 12920 C 1244.03 -1.80597 -1.39172 0
M  V30 12921 C 1245.02 -0.662289 -1.46637 0
M  V30 12922 O 1246.21 -0.922477 -1.51061 0
M  V30 12923 C 1243.34 -2.04252 -2.75927 0
M  V30 12924 C 1242.42 -3.2476 -2.72749 0
M  V30 12925 N 1242.81 -4.45671 -2.39189 0
M  V30 12926 C 1241.11 -3.26464 -3.03871 0
M  V30 12927 C 1241.81 -5.27631 -2.44908 0
M  V30 12928 N 1240.79 -4.64968 -2.81613 0
M  V30 12929 H 1244.59 -2.71655 -1.12164 0
M  V30 12930 H 1242.11 -1.5366 -0.525586 0
M  V30 12931 H 1244.1 -2.21178 -3.53392 0
M  V30 12932 H 1242.76 -1.14452 -3.0386 0
M  V30 12933 H 1243.77 -4.72556 -2.11922 0
M  V30 12934 H 1240.45 -2.46718 -3.36803 0
M  V30 12935 H 1241.84 -6.34202 -2.21896 0
M  V30 12936 N 1244.56 0.579466 -1.4656 0
M  V30 12937 C 1245.81 1.33738 -1.5325 0
M  V30 12938 C 1246.16 1.91527 -0.183045 0
M  V30 12939 O 1245.45 1.73698 0.80867 0
M  V30 12940 C 1245.65 2.48417 -2.56951 0
M  V30 12941 C 1245.48 2.01862 -4.01848 0
M  V30 12942 C 1244.25 1.86729 -4.69532 0
M  V30 12943 C 1246.45 1.57633 -4.89547 0
M  V30 12944 N 1244.43 1.34279 -5.99034 0
M  V30 12945 C 1245.8 1.16797 -6.08899 0
M  V30 12946 C 1247.85 1.45481 -4.76172 0
M  V30 12947 C 1246.56 0.650182 -7.16355 0
M  V30 12948 C 1248.58 0.951049 -5.83703 0
M  V30 12949 C 1247.94 0.552488 -7.0223 0
M  V30 12950 H 1244.04 0.482241 -0.615603 0
M  V30 12951 H 1246.63 0.659411 -1.83193 0
M  V30 12952 H 1244.8 3.13773 -2.28912 0
M  V30 12953 H 1246.53 3.15374 -2.53616 0
M  V30 12954 H 1243.29 2.08773 -4.25101 0
M  V30 12955 H 1243.71 1.10207 -6.6797 0
M  V30 12956 H 1248.35 1.74912 -3.84923 0
M  V30 12957 H 1246.07 0.343456 -8.0737 0
M  V30 12958 H 1249.66 0.860884 -5.75396 0
M  V30 12959 H 1248.54 0.168703 -7.84019 0
M  V30 12960 N 1246.04 1.3432 0.824371 0
M  V30 12961 C 1247.29 1.25938 1.57552 0
M  V30 12962 C 1247.6 -0.169298 1.94866 0
M  V30 12963 O 1248.81 -0.375262 2.68894 0
M  V30 12964 C 1247.26 2.20757 2.84244 0
M  V30 12965 C 1246.87 3.68873 2.54237 0
M  V30 12966 C 1248.61 2.21279 3.62265 0
M  V30 12967 C 1246.52 4.55566 3.77113 0
M  V30 12968 H 1245.45 0.467832 0.591311 0
M  V30 12969 H 1248.1 1.59476 0.907724 0
M  V30 12970 H 1246.48 1.80168 3.52641 0
M  V30 12971 H 1247.66 4.17991 1.93959 0
M  V30 12972 H 1245.97 3.70784 1.89494 0
M  V30 12973 H 1248.57 2.83272 4.53499 0
M  V30 12974 H 1248.91 1.2117 3.98276 0
M  V30 12975 H 1249.45 2.60305 3.00809 0
M  V30 12976 H 1246.19 5.56605 3.46223 0
M  V30 12977 H 1245.71 4.11184 4.36678 0
M  V30 12978 H 1247.38 4.701 4.44539 0
M  V30 12979 N 1247.52 -1.0444 1.18026 0
M  V30 12980 C 1248.74 -1.81234 0.998089 0
M  V30 12981 C 1249.16 -1.83271 -0.453559 0
M  V30 12982 O 1248.52 -1.26545 -1.31502 0
M  V30 12983 C 1248.57 -3.27007 1.54106 0
M  V30 12984 O 1248.29 -3.25174 2.93587 0
M  V30 12985 C 1249.79 -4.20461 1.40455 0
M  V30 12986 H 1247.01 -0.57085 0.352663 0
M  V30 12987 H 1249.55 -1.31649 1.56489 0
M  V30 12988 H 1247.71 -3.73837 1.01611 0
M  V30 12989 H 1248.12 -4.16466 3.18836 0
M  V30 12990 H 1249.6 -5.20695 1.83249 0
M  V30 12991 H 1250.07 -4.37781 0.352713 0
M  V30 12992 H 1250.68 -3.79493 1.92004 0
M  V30 12993 N 1248.99 -0.981699 -1.2329 0
M  V30 12994 C 1250.41 -0.690539 -1.43888 0
M  V30 12995 C 1250.61 0.742816 -1.87309 0
M  V30 12996 O 1249.67 1.5151 -2.01993 0
M  V30 12997 C 1250.98 -1.68657 -2.48948 0
M  V30 12998 C 1252.53 -1.70076 -2.62761 0
M  V30 12999 C 1253 -2.68513 -3.71032 0
M  V30 13000 N 1254.49 -2.67039 -3.78476 0
M  V30 13001 C 1255.23 -3.39874 -4.61815 0
M  V30 13002 N 1254.72 -4.22273 -5.49233 0
M  V30 13003 N 1256.52 -3.28633 -4.56023 0
M  V30 13004 H 1248.67 -1.90758 -0.934077 0
M  V30 13005 H 1250.93 -0.822058 -0.472149 0
M  V30 13006 H 1250.64 -2.7117 -2.23964 0
M  V30 13007 H 1250.51 -1.47045 -3.47358 0
M  V30 13008 H 1252.9 -0.682673 -2.87095 0
M  V30 13009 H 1252.98 -1.95754 -1.64663 0
M  V30 13010 H 1252.62 -3.70464 -3.47446 0
M  V30 13011 H 1252.55 -2.40109 -4.68674 0
M  V30 13012 H 1255.04 -2.07241 -3.16006 0
M  V30 13013 H 1255.36 -4.74702 -6.09818 0
M  V30 13014 H 1253.7 -4.26364 -5.48852 0
M  V30 13015 H 1256.89 -2.6371 -3.86749 0
M  V30 13016 H 1257.07 -3.85656 -5.20743 0
M  V30 13017 N 1250.47 1.3842 -0.753509 0
M  V30 13018 C 1251.72 1.99723 -0.309021 0
M  V30 13019 C 1252.04 1.60111 1.11308 0
M  V30 13020 O 1251.31 0.85792 1.76115 0
M  V30 13021 H 1249.89 0.738667 -0.111266 0
M  V30 13022 H 1252.55 1.69186 -0.967586 0
M  V30 13023 H 1251.65 3.09874 -0.372095 0
M  V30 13024 N 1251.95 0.502579 1.49372 0
M  V30 13025 C 1253.2 -0.0414423 2.02758 0
M  V30 13026 C 1253.53 -1.36499 1.38136 0
M  V30 13027 O 1252.8 -1.87487 0.517593 0
M  V30 13028 C 1253.09 -0.192333 3.59586 0
M  V30 13029 C 1252.94 1.15445 4.34733 0
M  V30 13030 C 1254.26 -0.932218 4.30114 0
M  V30 13031 H 1251.38 -0.0135869 0.736875 0
M  V30 13032 H 1254.02 0.654296 1.78379 0
M  V30 13033 H 1252.17 -0.78491 3.80488 0
M  V30 13034 H 1253.84 1.78603 4.25322 0
M  V30 13035 H 1252.09 1.74333 3.97228 0
M  V30 13036 H 1252.76 1.00216 5.42827 0
M  V30 13037 H 1255.23 -0.429632 4.13876 0
M  V30 13038 H 1254.11 -1.00664 5.39591 0
M  V30 13039 H 1254.37 -1.9763 3.95468 0
M  V30 13040 N 1253.43 -1.55816 0.23648 0
M  V30 13041 C 1254.67 -1.98981 -0.391725 0
M  V30 13042 C 1255.01 -1.12428 -1.58346 0
M  V30 13043 O 1254.28 -0.185303 -1.93615 0
M  V30 13044 C 1254.57 -3.50831 -0.811759 0
M  V30 13045 C 1254.42 -4.48152 0.384648 0
M  V30 13046 C 1255.74 -4.07489 -1.66254 0
M  V30 13047 H 1252.86 -0.723404 -0.140911 0
M  V30 13048 H 1255.5 -1.87011 0.335706 0
M  V30 13049 H 1253.65 -3.61162 -1.43157 0
M  V30 13050 H 1255.32 -4.49814 1.02298 0
M  V30 13051 H 1253.56 -4.21406 1.02955 0
M  V30 13052 H 1254.23 -5.51979 0.0475809 0
M  V30 13053 H 1256.71 -4.00195 -1.13944 0
M  V30 13054 H 1255.59 -5.14026 -1.92531 0
M  V30 13055 H 1255.85 -3.55297 -2.6309 0
M  V30 13056 N 1254.91 0.036755 -1.57557 0
M  V30 13057 C 1255.84 1.03939 -2.09091 0
M  V30 13058 C 1256.82 1.38196 -0.991761 0
M  V30 13059 O 1258 1.47214 -1.26656 0
M  V30 13060 C 1255.13 2.34263 -2.56394 0
M  V30 13061 C 1254.09 2.14269 -3.70504 0
M  V30 13062 C 1253.41 3.50286 -4.03985 0
M  V30 13063 C 1254.71 1.53514 -4.9923 0
M  V30 13064 H 1256.41 0.610429 -2.93111 0
M  V30 13065 H 1253.95 0.292183 -1.41005 0
M  V30 13066 H 1255.91 3.04727 -2.91066 0
M  V30 13067 H 1254.63 2.79205 -1.69447 0
M  V30 13068 H 1253.29 1.46239 -3.36169 0
M  V30 13069 H 1252.94 3.92861 -3.14116 0
M  V30 13070 H 1252.64 3.37735 -4.80842 0
M  V30 13071 H 1254.16 4.22124 -4.41184 0
M  V30 13072 H 1255.57 2.13885 -5.31908 0
M  V30 13073 H 1253.97 1.51561 -5.80646 0
M  V30 13074 H 1255.04 0.500126 -4.82314 0
M  V30 13075 N 1256.39 1.54543 0.308881 0
M  V30 13076 C 1257.32 1.87947 1.38557 0
M  V30 13077 C 1258.3 0.737622 1.53275 0
M  V30 13078 O 1259.48 0.992664 1.66913 0
M  V30 13079 C 1256.61 2.11982 2.75102 0
M  V30 13080 C 1255.57 3.2783 2.75158 0
M  V30 13081 C 1254.89 3.37266 4.14917 0
M  V30 13082 C 1256.19 4.65129 2.37598 0
M  V30 13083 H 1257.89 2.78123 1.1085 0
M  V30 13084 H 1255.43 1.3382 0.531808 0
M  V30 13085 H 1257.38 2.33935 3.50503 0
M  V30 13086 H 1256.11 1.18569 3.04317 0
M  V30 13087 H 1254.77 3.05787 2.02212 0
M  V30 13088 H 1254.42 2.41384 4.41296 0
M  V30 13089 H 1254.12 4.15135 4.15857 0
M  V30 13090 H 1255.64 3.61471 4.92109 0
M  V30 13091 H 1257.05 4.86865 3.02714 0
M  V30 13092 H 1255.45 5.45653 2.49765 0
M  V30 13093 H 1256.52 4.6638 1.32731 0
M  V30 13094 N 1257.86 -0.571685 1.46866 0
M  V30 13095 C 1258.79 -1.68994 1.61131 0
M  V30 13096 C 1259.77 -1.63728 0.461222 0
M  V30 13097 O 1260.96 -1.81574 0.688813 0
M  V30 13098 C 1258.09 -3.07638 1.61172 0
M  V30 13099 C 1257.04 -3.27742 2.75262 0
M  V30 13100 C 1256.37 -4.67025 2.60368 0
M  V30 13101 C 1257.67 -3.14511 4.16989 0
M  V30 13102 H 1259.36 -1.57311 2.54742 0
M  V30 13103 H 1256.91 -0.755382 1.22597 0
M  V30 13104 H 1258.86 -3.857 1.69744 0
M  V30 13105 H 1257.59 -3.20245 0.641122 0
M  V30 13106 H 1256.25 -2.52083 2.66176 0
M  V30 13107 H 1255.89 -4.76413 1.61368 0
M  V30 13108 H 1255.59 -4.81428 3.36899 0
M  V30 13109 H 1257.12 -5.47242 2.70848 0
M  V30 13110 H 1258.53 -3.82407 4.27128 0
M  V30 13111 H 1256.93 -3.40431 4.94193 0
M  V30 13112 H 1258 -2.11443 4.36371 0
M  V30 13113 N 1259.34 -1.34755 -0.817236 0
M  V30 13114 C 1260.59 -1.27432 -1.57377 0
M  V30 13115 C 1260.92 0.15419 -1.93888 0
M  V30 13116 O 1260.17 1.11686 -1.60701 0
M  V30 13117 C 1260.47 -2.11611 -2.8802 0
M  V30 13118 C 1260.14 -3.60543 -2.70776 0
M  V30 13119 C 1258.8 -4.01141 -2.6578 0
M  V30 13120 C 1261.15 -4.55089 -2.54053 0
M  V30 13121 C 1258.48 -5.34469 -2.41991 0
M  V30 13122 C 1260.83 -5.88603 -2.31795 0
M  V30 13123 C 1259.49 -6.28358 -2.25215 0
M  V30 13124 H 1258.76 -0.466305 -0.575882 0
M  V30 13125 H 1261.41 -1.66552 -0.945128 0
M  V30 13126 H 1259.72 -1.65336 -3.55206 0
M  V30 13127 H 1261.41 -2.03287 -3.45652 0
M  V30 13128 H 1258 -3.2832 -2.75506 0
M  V30 13129 H 1262.19 -4.24617 -2.56932 0
M  V30 13130 H 1257.44 -5.64284 -2.35359 0
M  V30 13131 H 1261.62 -6.61451 -2.17844 0
M  V30 13132 H 1259.24 -7.31604 -2.06543 0
M  V30 13133 N 1260.82 1.03812 -1.18578 0
M  V30 13134 C 1261.75 2.13802 -0.938665 0
M  V30 13135 C 1262.73 1.69643 0.124575 0
M  V30 13136 O 1263.92 1.94179 -0.0285421 0
M  V30 13137 C 1261.05 3.44154 -0.466392 0
M  V30 13138 C 1260 4.01949 -1.47041 0
M  V30 13139 C 1259.33 5.27811 -0.855558 0
M  V30 13140 C 1260.63 4.37827 -2.84789 0
M  V30 13141 H 1262.32 2.34732 -1.85852 0
M  V30 13142 H 1259.87 1.12808 -0.895007 0
M  V30 13143 H 1261.82 4.20463 -0.280856 0
M  V30 13144 H 1260.54 3.22918 0.489041 0
M  V30 13145 H 1259.2 3.27725 -1.64293 0
M  V30 13146 H 1258.85 5.02886 0.107142 0
M  V30 13147 H 1258.55 5.67441 -1.52592 0
M  V30 13148 H 1260.07 6.06795 -0.680609 0
M  V30 13149 H 1261.49 5.05112 -2.71173 0
M  V30 13150 H 1259.88 4.88514 -3.48532 0
M  V30 13151 H 1260.95 3.47541 -3.38147 0
M  V30 13152 N 1262.3 0.988223 1.22768 0
M  V30 13153 C 1263.26 0.539813 2.22752 0
M  V30 13154 C 1264.26 -0.374796 1.56371 0
M  V30 13155 O 1265.45 -0.167402 1.73394 0
M  V30 13156 C 1262.58 -0.215461 3.40218 0
M  V30 13157 H 1263.78 1.42397 2.63938 0
M  V30 13158 H 1261.33 0.774933 1.35737 0
M  V30 13159 H 1262.06 -1.11581 3.045 0
M  V30 13160 H 1261.85 0.441173 3.8961 0
M  V30 13161 H 1263.34 -0.517517 4.14381 0
M  V30 13162 N 1263.78 -1.38018 0.760839 0
M  V30 13163 C 1264.71 -2.32995 0.153557 0
M  V30 13164 C 1265.69 -1.55234 -0.695448 0
M  V30 13165 O 1266.87 -1.8352 -0.635148 0
M  V30 13166 C 1264 -3.39437 -0.734811 0
M  V30 13167 C 1262.96 -4.27998 0.0120287 0
M  V30 13168 C 1262.28 -5.25359 -0.995067 0
M  V30 13169 C 1263.58 -5.08687 1.18468 0
M  V30 13170 H 1265.28 -2.8403 0.946956 0
M  V30 13171 H 1262.82 -1.36562 0.456816 0
M  V30 13172 H 1264.77 -4.0485 -1.16938 0
M  V30 13173 H 1263.5 -2.86901 -1.56061 0
M  V30 13174 H 1262.16 -3.64102 0.427254 0
M  V30 13175 H 1261.81 -4.69108 -1.81512 0
M  V30 13176 H 1261.51 -5.85469 -0.499969 0
M  V30 13177 H 1263.03 -5.93648 -1.4288 0
M  V30 13178 H 1264.44 -5.67299 0.8273 0
M  V30 13179 H 1262.84 -5.78068 1.61112 0
M  V30 13180 H 1263.91 -4.42 1.99409 0
M  V30 13181 N 1265.25 -0.510493 -1.49103 0
M  V30 13182 C 1266.5 0.0306436 -2.02477 0
M  V30 13183 C 1266.83 1.36113 -1.38937 0
M  V30 13184 O 1266.08 1.88731 -0.517584 0
M  V30 13185 C 1266.38 0.221921 -3.5671 0
M  V30 13186 C 1266.05 -1.03176 -4.38937 0
M  V30 13187 C 1264.71 -1.37539 -4.61125 0
M  V30 13188 C 1267.06 -1.86464 -4.86704 0
M  V30 13189 C 1264.39 -2.55124 -5.28326 0
M  V30 13190 C 1266.74 -3.03211 -5.55199 0
M  V30 13191 C 1265.41 -3.37943 -5.75631 0
M  V30 13192 H 1264.68 0.0112133 -0.740915 0
M  V30 13193 H 1267.32 -0.672574 -1.79301 0
M  V30 13194 H 1265.63 1.00775 -3.78618 0
M  V30 13195 H 1267.33 0.655223 -3.95611 0
M  V30 13196 H 1263.92 -0.754105 -4.21914 0
M  V30 13197 H 1268.1 -1.61229 -4.69381 0
M  V30 13198 H 1263.36 -2.8226 -5.42346 0
M  V30 13199 H 1267.53 -3.68068 -5.91185 0
M  V30 13200 H 1265.16 -4.29158 -6.27477 0
M  V30 13201 N 1266.73 1.55688 -0.24474 0
M  V30 13202 C 1267.98 1.98498 0.379852 0
M  V30 13203 C 1268.3 1.13416 1.58625 0
M  V30 13204 O 1267.57 0.216456 1.947 0
M  V30 13205 H 1266.15 0.73312 0.143334 0
M  V30 13206 H 1268.81 1.91858 -0.343027 0
M  V30 13207 H 1267.91 3.04367 0.690463 0
M  V30 13208 N 1268.21 -0.0283989 1.57574 0
M  V30 13209 C 1269.46 -0.720142 1.89583 0
M  V30 13210 C 1269.79 -1.7497 0.842562 0
M  V30 13211 O 1269.06 -1.93979 -0.142294 0
M  V30 13212 C 1269.35 -1.38909 3.32229 0
M  V30 13213 C 1269.2 -0.372998 4.48251 0
M  V30 13214 C 1270.52 -2.32289 3.73804 0
M  V30 13215 H 1267.64 -0.26033 0.689491 0
M  V30 13216 H 1270.28 0.0170607 1.89992 0
M  V30 13217 H 1268.43 -2.01744 3.32011 0
M  V30 13218 H 1270.1 0.253492 4.60603 0
M  V30 13219 H 1268.34 0.30765 4.32708 0
M  V30 13220 H 1269.02 -0.879549 5.44948 0
M  V30 13221 H 1271.49 -1.79497 3.75393 0
M  V30 13222 H 1270.37 -2.76075 4.74419 0
M  V30 13223 H 1270.63 -3.18992 3.06099 0
M  V30 13224 N 1269.69 -1.54705 -0.300681 0
M  V30 13225 C 1270.91 -1.78318 -1.05913 0
M  V30 13226 C 1271.34 -0.541177 -1.80147 0
M  V30 13227 O 1270.7 0.508291 -1.74029 0
M  V30 13228 C 1270.74 -2.99041 -2.01511 0
M  V30 13229 O 1269.85 -2.72188 -3.09818 0
M  V30 13230 H 1269.19 -0.590197 -0.304242 0
M  V30 13231 H 1271.72 -2.01789 -0.338006 0
M  V30 13232 H 1271.73 -3.2702 -2.43971 0
M  V30 13233 H 1270.4 -3.89098 -1.46886 0
M  V30 13234 H 1268.98 -2.55227 -2.71871 0
M  V30 13235 N 1271.17 0.563888 -1.47167 0
M  V30 13236 C 1272.1 1.68137 -1.62025 0
M  V30 13237 C 1273.08 1.63481 -0.469899 0
M  V30 13238 O 1274.26 1.81206 -0.698432 0
M  V30 13239 C 1271.39 3.06779 -1.62801 0
M  V30 13240 C 1270.35 3.26278 -2.76996 0
M  V30 13241 C 1269.67 4.65638 -2.62841 0
M  V30 13242 C 1270.97 3.12295 -4.18651 0
M  V30 13243 H 1272.67 1.55958 -2.55573 0
M  V30 13244 H 1270.21 0.74887 -1.22996 0
M  V30 13245 H 1272.17 3.84795 -1.71787 0
M  V30 13246 H 1270.89 3.19901 -0.658097 0
M  V30 13247 H 1269.55 2.50668 -2.67509 0
M  V30 13248 H 1269.2 4.75551 -1.63892 0
M  V30 13249 H 1268.9 4.79635 -3.39447 0
M  V30 13250 H 1270.42 5.45798 -2.73746 0
M  V30 13251 H 1271.83 3.80136 -4.2915 0
M  V30 13252 H 1270.23 3.37805 -4.95992 0
M  V30 13253 H 1271.3 2.09126 -4.37486 0
M  V30 13254 N 1272.64 1.35187 0.810078 0
M  V30 13255 C 1273.87 1.31181 1.59609 0
M  V30 13256 C 1274.28 -0.113556 1.88859 0
M  V30 13257 O 1273.63 -1.07491 1.48968 0
M  V30 13258 C 1273.69 2.04749 2.95496 0
M  V30 13259 C 1273.35 3.53952 2.89079 0
M  V30 13260 C 1274.35 4.48612 2.6276 0
M  V30 13261 C 1272.03 3.96551 3.08306 0
M  V30 13262 C 1274.03 5.83846 2.5574 0
M  V30 13263 C 1271.71 5.31881 3.00909 0
M  V30 13264 C 1272.71 6.2534 2.74661 0
M  V30 13265 O 1272.4 7.58188 2.6722 0
M  V30 13266 H 1272.13 0.452285 0.502408 0
M  V30 13267 H 1274.69 1.78571 1.01497 0
M  V30 13268 H 1272.92 1.51992 3.55577 0
M  V30 13269 H 1274.61 1.93866 3.5661 0
M  V30 13270 H 1275.37 4.1702 2.47628 0
M  V30 13271 H 1271.25 3.24194 3.27749 0
M  V30 13272 H 1274.79 6.56765 2.35172 0
M  V30 13273 H 1270.69 5.63088 3.15598 0
M  V30 13274 H 1271.46 7.68073 2.82853 0
M  V30 13275 N 1274.12 -1.03182 1.19127 0
M  V30 13276 C 1275.35 -1.80703 1.01791 0
M  V30 13277 C 1275.77 -1.83147 -0.428824 0
M  V30 13278 O 1275.13 -1.2553 -1.30812 0
M  V30 13279 C 1275.18 -3.23754 1.58794 0
M  V30 13280 O 1274.28 -4.04261 0.815274 0
M  V30 13281 H 1273.62 -0.557944 0.359992 0
M  V30 13282 H 1276.15 -1.29887 1.58084 0
M  V30 13283 H 1276.16 -3.7451 1.61884 0
M  V30 13284 H 1274.84 -3.2129 2.64094 0
M  V30 13285 H 1273.42 -3.62909 0.857392 0
M  V30 13286 N 1275.6 -0.99472 -1.22242 0
M  V30 13287 C 1276.53 -0.491445 -2.22845 0
M  V30 13288 C 1277.51 0.449265 -1.5627 0
M  V30 13289 O 1278.7 0.374386 -1.84745 0
M  V30 13290 C 1275.82 0.287355 -3.37479 0
M  V30 13291 C 1274.87 -0.599617 -4.22264 0
M  V30 13292 S 1275.7 -2.05599 -4.94459 0
M  V30 13293 C 1276.86 -1.28673 -6.12531 0
M  V30 13294 H 1277.09 -1.34393 -2.6519 0
M  V30 13295 H 1274.62 -0.801833 -1.31947 0
M  V30 13296 H 1276.58 0.730646 -4.03945 0
M  V30 13297 H 1275.24 1.11514 -2.93638 0
M  V30 13298 H 1274.44 -0.000289277 -5.04 0
M  V30 13299 H 1274.04 -0.979748 -3.60939 0
M  V30 13300 H 1276.33 -0.555315 -6.7522 0
M  V30 13301 H 1277.27 -2.07943 -6.76879 0
M  V30 13302 H 1277.68 -0.79922 -5.58814 0
M  V30 13303 N 1277.08 1.37613 -0.768148 0
M  V30 13304 C 1278.32 2.0162 -0.335961 0
M  V30 13305 C 1278.68 1.59659 1.06644 0
M  V30 13306 O 1279.88 2.16102 1.59854 0
M  V30 13307 C 1278.15 3.54285 -0.470802 0
M  V30 13308 S 1279.71 4.38627 -0.123347 0
M  V30 13309 H 1276.53 0.699113 -0.129467 0
M  V30 13310 H 1279.13 1.67871 -1.00197 0
M  V30 13311 H 1277.84 3.82313 -1.49215 0
M  V30 13312 H 1277.37 3.92829 0.211886 0
M  V30 13313 H 1279.38 4.84253 1.0823 0
M  V30 13314 N 1278.56 0.518393 1.4883 0
M  V30 13315 C 1279.51 -0.270295 2.26392 0
M  V30 13316 C 1280.49 -0.9202 1.31989 0
M  V30 13317 O 1281.68 -0.824923 1.56601 0
M  V30 13318 C 1278.81 -1.32368 3.16755 0
M  V30 13319 C 1277.9 -0.679143 4.18627 0
M  V30 13320 N 1278.29 0.228392 5.05284 0
M  V30 13321 C 1276.59 -0.937712 4.36031 0
M  V30 13322 C 1277.29 0.599076 5.78607 0
M  V30 13323 N 1276.26 -0.0371273 5.43587 0
M  V30 13324 H 1280.07 0.428066 2.90766 0
M  V30 13325 H 1277.58 0.335632 1.58894 0
M  V30 13326 H 1279.58 -1.9023 3.70969 0
M  V30 13327 H 1278.24 -2.02354 2.53935 0
M  V30 13328 H 1279.25 0.600292 5.14409 0
M  V30 13329 H 1275.92 -1.62901 3.84408 0
M  V30 13330 H 1277.31 1.34256 6.5835 0
M  V30 13331 N 1280.03 -1.55556 0.252993 0
M  V30 13332 C 1281.28 -1.98267 -0.370571 0
M  V30 13333 C 1281.6 -1.14449 -1.58622 0
M  V30 13334 O 1282.8 -1.472 -2.28132 0
M  V30 13335 C 1281.26 -3.52813 -0.710685 0
M  V30 13336 C 1280.87 -4.45379 0.483908 0
M  V30 13337 C 1282.61 -4.04165 -1.2981 0
M  V30 13338 C 1280.52 -5.91279 0.119611 0
M  V30 13339 H 1279.45 -0.740463 -0.142232 0
M  V30 13340 H 1282.1 -1.8005 0.354169 0
M  V30 13341 H 1280.48 -3.66748 -1.49372 0
M  V30 13342 H 1281.65 -4.43206 1.26116 0
M  V30 13343 H 1279.97 -4.04542 0.986664 0
M  V30 13344 H 1282.57 -5.10696 -1.5841 0
M  V30 13345 H 1282.91 -3.51875 -2.22462 0
M  V30 13346 H 1283.44 -3.93581 -0.577836 0
M  V30 13347 H 1280.18 -6.47619 1.01343 0
M  V30 13348 H 1279.7 -5.96573 -0.621318 0
M  V30 13349 H 1281.38 -6.46322 -0.296052 0
M  V30 13350 N 1281.51 0.0200419 -1.57587 0
M  V30 13351 C 1282.74 0.724241 -1.94344 0
M  V30 13352 C 1283.16 1.67612 -0.853688 0
M  V30 13353 O 1282.52 1.80303 0.189873 0
M  V30 13354 C 1282.57 1.44967 -3.30177 0
M  V30 13355 O 1281.67 2.56326 -3.23064 0
M  V30 13356 H 1281.01 0.194142 -0.634984 0
M  V30 13357 H 1283.54 -0.0271756 -2.04582 0
M  V30 13358 H 1283.55 1.81758 -3.65278 0
M  V30 13359 H 1282.23 0.75161 -4.09052 0
M  V30 13360 H 1280.81 2.22011 -2.99609 0
M  V30 13361 N 1282.99 1.54862 0.292472 0
M  V30 13362 C 1284.24 1.74807 1.02813 0
M  V30 13363 C 1284.57 0.536935 1.8663 0
M  V30 13364 O 1283.84 -0.465854 1.88839 0
M  V30 13365 C 1284.13 3.04202 1.927 0
M  V30 13366 C 1283.98 4.35631 1.12006 0
M  V30 13367 C 1285.3 3.29514 2.91734 0
M  V30 13368 H 1282.42 0.636015 0.372362 0
M  V30 13369 H 1285.06 1.87583 0.302069 0
M  V30 13370 H 1283.21 2.9344 2.54608 0
M  V30 13371 H 1284.88 4.58323 0.52319 0
M  V30 13372 H 1283.13 4.31733 0.42298 0
M  V30 13373 H 1283.8 5.22454 1.78172 0
M  V30 13374 H 1286.27 3.39941 2.39957 0
M  V30 13375 H 1285.15 4.21352 3.51786 0
M  V30 13376 H 1285.41 2.48216 3.65843 0
M  V30 13377 N 1284.47 -0.556076 1.47464 0
M  V30 13378 C 1285.72 -1.31061 1.53842 0
M  V30 13379 C 1286.04 -1.93943 0.202806 0
M  V30 13380 O 1285.31 -1.7999 -0.773338 0
M  V30 13381 H 1283.89 -0.486696 0.566689 0
M  V30 13382 H 1286.55 -0.64924 1.83769 0
M  V30 13383 H 1285.65 -2.10354 2.30559 0
M  V30 13384 N 1285.95 -1.35615 -0.802897 0
M  V30 13385 C 1286.88 -1.31506 -1.92947 0
M  V30 13386 C 1287.86 -0.188843 -1.69048 0
M  V30 13387 O 1289.04 -0.384384 -1.90358 0
M  V30 13388 C 1286.17 -1.09001 -3.29752 0
M  V30 13389 C 1285.13 -2.18303 -3.68141 0
M  V30 13390 C 1284.45 -1.80959 -5.03148 0
M  V30 13391 C 1285.75 -3.60296 -3.78132 0
M  V30 13392 H 1287.45 -2.25771 -1.96642 0
M  V30 13393 H 1284.99 -1.08682 -0.944685 0
M  V30 13394 H 1286.95 -1.04766 -4.08169 0
M  V30 13395 H 1285.67 -0.111832 -3.26408 0
M  V30 13396 H 1284.33 -2.21642 -2.92011 0
M  V30 13397 H 1283.98 -0.817495 -4.96312 0
M  V30 13398 H 1283.68 -2.54129 -5.29804 0
M  V30 13399 H 1285.2 -1.78255 -5.84001 0
M  V30 13400 H 1286.62 -3.59259 -4.46773 0
M  V30 13401 H 1285.01 -4.32258 -4.16261 0
M  V30 13402 H 1286.08 -3.9618 -2.79588 0
M  V30 13403 N 1287.43 1.02549 -1.19673 0
M  V30 13404 C 1288.7 1.73106 -0.9107 0
M  V30 13405 C 1289.08 2.02897 0.582769 0
M  V30 13406 O 1288.43 1.68633 1.54192 0
M  V30 13407 C 1288.64 3.00535 -1.77425 0
M  V30 13408 C 1289.99 3.73976 -2.01065 0
M  V30 13409 O 1291.01 3.1047 -1.74605 0
M  V30 13410 O 1289.87 4.88153 -2.457 0
M  V30 13411 H 1286.97 0.754006 -0.339711 0
M  V30 13412 H 1289.51 1.08477 -1.30502 0
M  V30 13413 H 1288.28 2.74773 -2.78595 0
M  V30 13414 H 1287.91 3.72904 -1.37943 0
M  V30 13415 N 1288.9 1.00119 1.21713 0
M  V30 13416 C 1289.84 0.516633 2.23301 0
M  V30 13417 C 1290.85 -0.392732 1.57992 0
M  V30 13418 O 1292.04 -0.19354 1.77448 0
M  V30 13419 C 1289.14 -0.269612 3.37826 0
M  V30 13420 C 1288.31 0.637898 4.32723 0
M  V30 13421 C 1287.37 -0.0980745 5.26109 0
M  V30 13422 O 1286.4 0.519302 5.66826 0
M  V30 13423 N 1287.6 -1.37783 5.63911 0
M  V30 13424 H 1290.36 1.39022 2.65505 0
M  V30 13425 H 1287.92 0.87688 1.36097 0
M  V30 13426 H 1289.92 -0.770826 3.97291 0
M  V30 13427 H 1288.49 -1.04436 2.94638 0
M  V30 13428 H 1287.71 1.31966 3.71455 0
M  V30 13429 H 1288.99 1.25564 4.93063 0
M  V30 13430 H 1288.39 -1.90061 5.32817 0
M  V30 13431 H 1286.95 -1.82407 6.25756 0
M  V30 13432 N 1290.38 -1.37203 0.775435 0
M  V30 13433 C 1291.29 -2.34019 0.165062 0
M  V30 13434 C 1292.31 -1.6036 -0.675316 0
M  V30 13435 O 1293.48 -1.9243 -0.594375 0
M  V30 13436 C 1290.55 -3.3954 -0.700957 0
M  V30 13437 C 1289.61 -4.29015 0.156304 0
M  V30 13438 C 1288.84 -5.29497 -0.668476 0
M  V30 13439 O 1289.07 -5.37636 -1.90535 0
M  V30 13440 O 1288 -6.01852 -0.0757351 0
M  V30 13441 H 1291.83 -2.87955 0.965184 0
M  V30 13442 H 1289.41 -1.39429 0.536654 0
M  V30 13443 H 1291.29 -4.04094 -1.19524 0
M  V30 13444 H 1289.97 -2.87926 -1.4792 0
M  V30 13445 H 1288.87 -3.67549 0.69703 0
M  V30 13446 H 1290.21 -4.83944 0.897725 0
M  V30 13447 N 1291.86 -0.526279 -1.48553 0
M  V30 13448 C 1292.79 0.227364 -2.3239 0
M  V30 13449 C 1293.77 0.93862 -1.41859 0
M  V30 13450 O 1294.96 0.925119 -1.70749 0
M  V30 13451 C 1292.09 1.277 -3.22971 0
M  V30 13452 C 1291.04 0.684107 -4.22497 0
M  V30 13453 C 1290.37 1.83612 -5.02186 0
M  V30 13454 C 1291.67 -0.341723 -5.21181 0
M  V30 13455 H 1293.36 -0.472486 -2.95648 0
M  V30 13456 H 1290.91 -0.228669 -1.42173 0
M  V30 13457 H 1292.86 1.81215 -3.80446 0
M  V30 13458 H 1291.58 2.00638 -2.57705 0
M  V30 13459 H 1290.24 0.170505 -3.66203 0
M  V30 13460 H 1289.89 2.55379 -4.33348 0
M  V30 13461 H 1289.59 1.44536 -5.69547 0
M  V30 13462 H 1291.11 2.37513 -5.62512 0
M  V30 13463 H 1292.53 0.106207 -5.73202 0
M  V30 13464 H 1290.92 -0.649673 -5.96573 0
M  V30 13465 H 1291.99 -1.2488 -4.68543 0
M  V30 13466 N 1293.34 1.5542 -0.261239 0
M  V30 13467 C 1294.3 2.20683 0.619011 0
M  V30 13468 C 1295.3 1.18042 1.09192 0
M  V30 13469 O 1296.49 1.43035 0.99432 0
M  V30 13470 C 1293.62 2.86179 1.85242 0
M  V30 13471 H 1294.82 2.99859 0.0493924 0
M  V30 13472 H 1292.37 1.56296 -0.0117687 0
M  V30 13473 H 1293.1 2.10978 2.4629 0
M  V30 13474 H 1292.89 3.61381 1.52138 0
M  V30 13475 H 1294.38 3.36081 2.47869 0
M  V30 13476 N 1294.82 -0.0116844 1.57596 0
M  V30 13477 C 1295.75 -1.00599 2.10718 0
M  V30 13478 C 1296.73 -1.36601 1.01362 0
M  V30 13479 O 1297.91 -1.4518 1.28982 0
M  V30 13480 C 1295.04 -2.30155 2.60089 0
M  V30 13481 C 1294 -2.08347 3.73866 0
M  V30 13482 C 1293.32 -3.43814 4.09507 0
M  V30 13483 C 1294.62 -1.45552 5.01609 0
M  V30 13484 H 1296.32 -0.563721 2.94045 0
M  V30 13485 H 1293.86 -0.269714 1.41452 0
M  V30 13486 H 1295.81 -3.00058 2.95877 0
M  V30 13487 H 1294.54 -2.76473 1.73868 0
M  V30 13488 H 1293.2 -1.40872 3.38453 0
M  V30 13489 H 1292.85 -3.87814 3.20326 0
M  V30 13490 H 1292.55 -3.30043 4.86154 0
M  V30 13491 H 1294.07 -4.15052 4.47844 0
M  V30 13492 H 1295.48 -2.05396 5.35243 0
M  V30 13493 H 1293.88 -1.42304 5.82983 0
M  V30 13494 H 1294.95 -0.423331 4.83049 0
M  V30 13495 N 1296.29 -1.55015 -0.284256 0
M  V30 13496 C 1297.7 -1.65915 -0.856104 0
M  V30 13497 C 1298.06 -0.578758 -1.8747 0
M  V30 13498 O 1297.18 0.281733 -2.14558 0
M  V30 13499 C 1297.78 -3.0077 -1.55957 0
M  V30 13500 C 1296.33 -3.13735 -2.0796 0
M  V30 13501 C 1295.48 -2.61669 -0.917849 0
M  V30 13502 H 1298.43 -1.58583 -0.0608587 0
M  V30 13503 H 1298.45 -2.9313 -2.42601 0
M  V30 13504 H 1297.97 -3.79382 -0.81798 0
M  V30 13505 H 1296.07 -2.39875 -2.85115 0
M  V30 13506 H 1296.18 -4.20138 -2.30263 0
M  V30 13507 H 1294.54 -2.18542 -1.3081 0
M  V30 13508 H 1295.33 -3.42774 -0.189946 0
M  V30 13509 N 1297.77 0.548248 -1.47757 0
M  V30 13510 C 1298.72 1.65453 -1.60916 0
M  V30 13511 C 1299.69 1.59836 -0.451831 0
M  V30 13512 O 1300.87 1.78536 -0.673023 0
M  V30 13513 C 1298.01 3.0376 -1.6378 0
M  V30 13514 C 1297.13 3.19747 -2.90492 0
M  V30 13515 C 1296.26 4.48505 -2.84635 0
M  V30 13516 C 1295.3 4.57956 -4.06132 0
M  V30 13517 N 1294.44 5.78079 -3.98458 0
M  V30 13518 H 1299.28 1.53545 -2.55398 0
M  V30 13519 H 1296.81 0.747826 -1.26673 0
M  V30 13520 H 1298.77 3.8386 -1.63424 0
M  V30 13521 H 1297.4 3.14483 -0.728036 0
M  V30 13522 H 1296.45 2.3302 -3.00676 0
M  V30 13523 H 1297.77 3.22594 -3.8044 0
M  V30 13524 H 1296.92 5.36875 -2.82577 0
M  V30 13525 H 1295.66 4.48151 -1.92385 0
M  V30 13526 H 1294.66 3.67995 -4.08484 0
M  V30 13527 H 1295.89 4.60062 -4.9952 0
M  V30 13528 H 1293.84 5.78657 -3.09017 0
M  V30 13529 H 1293.75 5.82342 -4.82093 0
M  V30 13530 H 1295.02 6.68786 -4.00431 0
M  V30 13531 N 1299.25 1.36039 0.795694 0
M  V30 13532 C 1300.53 1.20474 1.54096 0
M  V30 13533 C 1300.91 -0.211691 2.10036 0
M  V30 13534 O 1300.25 -1.21656 1.93422 0
M  V30 13535 C 1300.46 2.28164 2.64087 0
M  V30 13536 C 1301.81 2.64519 3.32137 0
M  V30 13537 O 1302.84 2.2716 2.74366 0
M  V30 13538 O 1301.7 3.28796 4.36527 0
M  V30 13539 H 1298.79 0.468699 0.681359 0
M  V30 13540 H 1301.34 1.47752 0.834716 0
M  V30 13541 H 1300.11 3.23121 2.20701 0
M  V30 13542 H 1299.73 2.02217 3.42336 0
M  V30 13543 N 1300.73 -1.01913 1.20215 0
M  V30 13544 C 1301.95 -1.79613 1.03702 0
M  V30 13545 C 1302.38 -1.83591 -0.409374 0
M  V30 13546 O 1301.74 -1.26911 -1.29473 0
M  V30 13547 C 1301.78 -3.22052 1.62219 0
M  V30 13548 O 1300.89 -4.03374 0.858106 0
M  V30 13549 H 1300.23 -0.554095 0.365889 0
M  V30 13550 H 1302.76 -1.28203 1.59452 0
M  V30 13551 H 1302.77 -3.72772 1.65847 0
M  V30 13552 H 1301.44 -3.18471 2.67487 0
M  V30 13553 H 1300.02 -3.6198 0.895835 0
M  V30 13554 N 1302.21 -1.00763 -1.2118 0
M  V30 13555 C 1303.44 -0.709715 -1.94027 0
M  V30 13556 C 1303.84 0.732135 -1.7446 0
M  V30 13557 O 1303.19 1.50731 -1.05004 0
M  V30 13558 C 1303.25 -0.95427 -3.46603 0
M  V30 13559 C 1302.91 -2.38347 -3.89923 0
M  V30 13560 C 1303.91 -3.36383 -3.96412 0
M  V30 13561 C 1301.6 -2.72183 -4.22163 0
M  V30 13562 C 1303.59 -4.66321 -4.34538 0
M  V30 13563 C 1301.28 -4.02336 -4.59966 0
M  V30 13564 C 1302.27 -4.99216 -4.66125 0
M  V30 13565 O 1301.96 -6.27041 -5.03065 0
M  V30 13566 H 1301.69 -0.260545 -0.623773 0
M  V30 13567 H 1304.25 -1.34922 -1.54872 0
M  V30 13568 H 1302.48 -0.257599 -3.85841 0
M  V30 13569 H 1304.17 -0.649333 -4.00673 0
M  V30 13570 H 1304.93 -3.11578 -3.71677 0
M  V30 13571 H 1300.81 -1.97468 -4.16566 0
M  V30 13572 H 1304.36 -5.41938 -4.3926 0
M  V30 13573 H 1300.25 -4.26924 -4.84155 0
M  V30 13574 H 1301.02 -6.31196 -5.21089 0
M  V30 13575 N 1303.68 1.3679 -0.7827 0
M  V30 13576 C 1304.61 2.32721 -0.190604 0
M  V30 13577 C 1305.6 1.56321 0.670663 0
M  V30 13578 O 1306.78 1.84507 0.605871 0
M  V30 13579 C 1303.91 3.40564 0.680717 0
M  V30 13580 C 1302.86 4.27925 -0.080118 0
M  V30 13581 C 1302.19 5.26876 0.911361 0
M  V30 13582 C 1303.49 5.06738 -1.26545 0
M  V30 13583 H 1305.18 2.82488 -0.992023 0
M  V30 13584 H 1302.73 1.35818 -0.478484 0
M  V30 13585 H 1304.68 4.06659 1.10482 0
M  V30 13586 H 1303.41 2.89348 1.51477 0
M  V30 13587 H 1302.07 3.63376 -0.485125 0
M  V30 13588 H 1301.71 4.71936 1.74026 0
M  V30 13589 H 1301.41 5.8619 0.406762 0
M  V30 13590 H 1302.94 5.95846 1.33418 0
M  V30 13591 H 1304.35 5.65911 -0.917448 0
M  V30 13592 H 1302.75 5.75432 -1.70289 0
M  V30 13593 H 1303.82 4.38772 -2.06415 0
M  V30 13594 N 1305.16 0.53415 1.48272 0
M  V30 13595 C 1306.09 -0.215037 2.32508 0
M  V30 13596 C 1307.07 -0.931083 1.42355 0
M  V30 13597 O 1308.26 -0.916051 1.71237 0
M  V30 13598 C 1305.39 -1.25985 3.23643 0
M  V30 13599 C 1304.34 -0.661692 4.22854 0
M  V30 13600 C 1303.67 -1.80946 5.03153 0
M  V30 13601 C 1304.97 0.369358 5.20992 0
M  V30 13602 H 1306.66 0.488158 2.95394 0
M  V30 13603 H 1304.21 0.236206 1.4205 0
M  V30 13604 H 1306.16 -1.79195 3.81402 0
M  V30 13605 H 1304.89 -1.99268 2.58766 0
M  V30 13606 H 1303.54 -0.151082 3.66289 0
M  V30 13607 H 1303.19 -2.53077 4.34696 0
M  V30 13608 H 1302.89 -1.41513 5.70305 0
M  V30 13609 H 1304.42 -2.34526 5.63764 0
M  V30 13610 H 1305.83 -0.0758076 5.7325 0
M  V30 13611 H 1304.23 0.681301 5.9622 0
M  V30 13612 H 1305.3 1.27363 4.67875 0
M  V30 13613 N 1306.64 -1.55279 0.269478 0
M  V30 13614 C 1307.92 -1.91458 -0.400412 0
M  V30 13615 C 1308.3 -1.19306 -1.74153 0
M  V30 13616 O 1307.65 -0.318017 -2.26276 0
M  V30 13617 C 1307.86 -3.44698 -0.546258 0
M  V30 13618 C 1309.2 -4.16374 -0.831758 0
M  V30 13619 O 1310.23 -3.50561 -0.631279 0
M  V30 13620 O 1309.09 -5.32826 -1.21484 0
M  V30 13621 H 1306.18 -0.79766 -0.218328 0
M  V30 13622 H 1308.73 -1.66747 0.315214 0
M  V30 13623 H 1307.5 -3.89273 0.397784 0
M  V30 13624 H 1307.12 -3.75345 -1.31157 0
M  V30 13625 N 1308.12 0.00332656 -1.576 0
M  V30 13626 C 1309.35 0.69893 -1.94418 0
M  V30 13627 C 1309.76 1.68021 -0.8698 0
M  V30 13628 O 1309.1 1.83 0.160193 0
M  V30 13629 C 1309.16 1.4892 -3.27205 0
M  V30 13630 C 1308.83 0.669874 -4.52064 0
M  V30 13631 C 1309.82 -0.0410157 -5.19884 0
M  V30 13632 C 1307.51 0.616824 -4.98498 0
M  V30 13633 C 1309.5 -0.793976 -6.32436 0
M  V30 13634 C 1307.19 -0.139864 -6.1094 0
M  V30 13635 C 1308.19 -0.844001 -6.77765 0
M  V30 13636 O 1307.87 -1.58835 -7.88052 0
M  V30 13637 H 1307.61 0.199843 -0.645785 0
M  V30 13638 H 1310.16 -0.0429034 -2.05355 0
M  V30 13639 H 1308.39 2.27544 -3.12667 0
M  V30 13640 H 1310.08 2.06983 -3.4916 0
M  V30 13641 H 1310.85 -0.00916281 -4.84999 0
M  V30 13642 H 1306.72 1.15442 -4.46312 0
M  V30 13643 H 1310.27 -1.34411 -6.84529 0
M  V30 13644 H 1306.17 -0.173549 -6.45267 0
M  V30 13645 H 1306.93 -1.50471 -8.0455 0
M  V30 13646 N 1309.6 1.55164 0.276031 0
M  V30 13647 C 1310.84 1.75627 1.00803 0
M  V30 13648 C 1311.17 0.555696 1.86393 0
M  V30 13649 O 1310.43 -0.461872 1.90172 0
M  V30 13650 C 1310.73 3.0127 1.92279 0
M  V30 13651 C 1310.39 4.33951 1.22464 0
M  V30 13652 C 1309.05 4.70013 1.03158 0
M  V30 13653 C 1311.41 5.16097 0.72758 0
M  V30 13654 C 1308.73 5.85779 0.328699 0
M  V30 13655 C 1311.09 6.32588 0.0383001 0
M  V30 13656 C 1309.75 6.67292 -0.166494 0
M  V30 13657 H 1309.02 0.642665 0.368866 0
M  V30 13658 H 1311.67 1.89433 0.280595 0
M  V30 13659 H 1309.97 2.82351 2.71634 0
M  V30 13660 H 1311.67 3.14299 2.49032 0
M  V30 13661 H 1308.26 4.05605 1.38501 0
M  V30 13662 H 1312.44 4.88715 0.864365 0
M  V30 13663 H 1307.7 6.11192 0.159279 0
M  V30 13664 H 1311.87 6.95496 -0.354631 0
M  V30 13665 H 1309.5 7.56848 -0.713124 0
M  V30 13666 N 1311.07 -0.540404 1.48045 0
M  V30 13667 C 1312 -1.65538 1.6468 0
M  V30 13668 C 1312.99 -1.62713 0.495847 0
M  V30 13669 O 1314.17 -1.80072 0.727172 0
M  V30 13670 C 1311.3 -3.0415 1.67661 0
M  V30 13671 C 1310.25 -3.2183 2.82152 0
M  V30 13672 C 1309.58 -4.61397 2.70216 0
M  V30 13673 C 1310.88 -3.05596 4.23567 0
M  V30 13674 H 1312.57 -1.51873 2.58021 0
M  V30 13675 H 1310.12 -0.729208 1.24171 0
M  V30 13676 H 1312.07 -3.82013 1.77887 0
M  V30 13677 H 1310.8 -3.18814 0.708907 0
M  V30 13678 H 1309.46 -2.4638 2.71463 0
M  V30 13679 H 1309.1 -4.72883 1.71437 0
M  V30 13680 H 1308.8 -4.74174 3.47035 0
M  V30 13681 H 1310.33 -5.41374 2.82395 0
M  V30 13682 H 1311.74 -3.73261 4.35143 0
M  V30 13683 H 1310.14 -3.29871 5.01303 0
M  V30 13684 H 1311.21 -2.0214 4.40758 0
M  V30 13685 N 1312.55 -1.36459 -0.788468 0
M  V30 13686 C 1313.8 -1.30741 -1.54638 0
M  V30 13687 C 1314.13 0.113029 -1.94171 0
M  V30 13688 O 1313.38 1.08252 -1.63034 0
M  V30 13689 C 1313.68 -2.17672 -2.83467 0
M  V30 13690 C 1313.35 -3.66205 -2.63067 0
M  V30 13691 C 1312.01 -4.06688 -2.57212 0
M  V30 13692 C 1314.36 -4.60376 -2.44343 0
M  V30 13693 C 1311.69 -5.39482 -2.306 0
M  V30 13694 C 1314.04 -5.93388 -2.19258 0
M  V30 13695 C 1312.71 -6.32994 -2.11836 0
M  V30 13696 H 1311.98 -0.478416 -0.565862 0
M  V30 13697 H 1314.62 -1.68519 -0.909588 0
M  V30 13698 H 1312.93 -1.72834 -3.51619 0
M  V30 13699 H 1314.62 -2.10573 -3.41263 0
M  V30 13700 H 1311.21 -3.3409 -2.6848 0
M  V30 13701 H 1315.4 -4.29971 -2.47868 0
M  V30 13702 H 1310.65 -5.69149 -2.23337 0
M  V30 13703 H 1314.83 -6.65923 -2.03765 0
M  V30 13704 H 1312.46 -7.3582 -1.90978 0
M  V30 13705 N 1314.03 1.01274 -1.20754 0
M  V30 13706 C 1314.96 2.11763 -0.983805 0
M  V30 13707 C 1315.94 1.69869 0.0885635 0
M  V30 13708 O 1317.13 1.94075 -0.0697239 0
M  V30 13709 C 1314.26 3.43087 -0.539287 0
M  V30 13710 C 1313.21 3.9874 -1.55534 0
M  V30 13711 C 1312.54 5.25877 -0.967322 0
M  V30 13712 C 1313.84 4.31688 -2.94012 0
M  V30 13713 H 1315.53 2.30737 -1.90789 0
M  V30 13714 H 1313.08 1.10884 -0.918734 0
M  V30 13715 H 1315.03 4.19773 -0.369979 0
M  V30 13716 H 1313.75 3.23883 0.420435 0
M  V30 13717 H 1312.41 3.24166 -1.71207 0
M  V30 13718 H 1312.06 5.03 0.000448307 0
M  V30 13719 H 1311.76 5.64077 -1.64594 0
M  V30 13720 H 1313.28 6.05215 -0.809167 0
M  V30 13721 H 1314.7 4.99246 -2.81827 0
M  V30 13722 H 1313.1 4.81011 -3.58815 0
M  V30 13723 H 1314.17 3.4029 -3.45442 0
M  V30 13724 N 1315.51 1.01404 1.20644 0
M  V30 13725 C 1316.46 0.575388 2.25371 0
M  V30 13726 C 1317.45 -0.384598 1.64976 0
M  V30 13727 O 1318.66 -0.2548 1.78187 0
M  V30 13728 H 1315.03 0.167752 0.733051 0
M  V30 13729 H 1317 1.46964 2.597 0
M  V30 13730 C 1315.75 -0.0731257 3.47623 0
M  V30 13731 H 1315.08 0.656551 3.94372 0
M  V30 13732 H 1316.52 -0.343203 4.22609 0
M  V30 13733 C 1314.97 -1.31515 3.1017 0
M  V30 13734 O 1315.5 -2.40869 3.21473 0
M  V30 13735 N 1313.71 -1.19829 2.64744 0
M  V30 13736 H 1313.26 -0.308463 2.55746 0
M  V30 13737 H 1313.22 -2.0303 2.40054 0
M  V30 13738 N 1316.99 -1.36373 0.789944 0
M  V30 13739 C 1318.4 -1.52471 0.471686 0
M  V30 13740 C 1318.6 -1.74365 -1.0099 0
M  V30 13741 O 1317.66 -1.77546 -1.79538 0
M  V30 13742 C 1318.97 -2.71022 1.30259 0
M  V30 13743 C 1320.52 -2.84893 1.29633 0
M  V30 13744 C 1321 -4.0645 2.11098 0
M  V30 13745 N 1322.49 -4.13597 2.08547 0
M  V30 13746 C 1323.22 -5.06731 2.6835 0
M  V30 13747 N 1322.72 -6.05305 3.37013 0
M  V30 13748 N 1324.51 -4.9935 2.58081 0
M  V30 13749 H 1316.66 -1.20416 1.74968 0
M  V30 13750 H 1318.92 -0.587782 0.743785 0
M  V30 13751 H 1318.63 -2.61368 2.35329 0
M  V30 13752 H 1318.5 -3.6519 0.944254 0
M  V30 13753 H 1320.89 -2.94009 0.253542 0
M  V30 13754 H 1320.97 -1.91632 1.69443 0
M  V30 13755 H 1320.62 -3.98096 3.15408 0
M  V30 13756 H 1320.55 -4.98861 1.68659 0
M  V30 13757 H 1323.04 -3.4302 1.58573 0
M  V30 13758 H 1323.35 -6.72934 3.79974 0
M  V30 13759 H 1321.7 -6.05529 3.41116 0
M  V30 13760 H 1324.89 -4.21291 2.04039 0
M  V30 13761 H 1325.06 -5.71745 3.04979 0
M  V30 13762 N 1318.47 -0.542005 -1.47987 0
M  V30 13763 C 1319.7 -0.0166928 -2.06593 0
M  V30 13764 C 1320.1 1.27564 -1.39728 0
M  V30 13765 O 1319.45 1.77245 -0.48268 0
M  V30 13766 C 1319.51 0.265501 -3.58518 0
M  V30 13767 C 1319.17 -0.935133 -4.4733 0
M  V30 13768 C 1320.17 -1.83673 -4.86375 0
M  V30 13769 C 1317.85 -1.14552 -4.89063 0
M  V30 13770 C 1319.85 -2.93252 -5.65935 0
M  V30 13771 C 1317.54 -2.24443 -5.68391 0
M  V30 13772 C 1318.53 -3.13625 -6.06736 0
M  V30 13773 O 1318.22 -4.21613 -6.84469 0
M  V30 13774 H 1317.95 -0.0358651 -0.675048 0
M  V30 13775 H 1320.51 -0.750565 -1.91195 0
M  V30 13776 H 1318.74 1.0535 -3.72073 0
M  V30 13777 H 1320.43 0.734348 -3.99202 0
M  V30 13778 H 1321.19 -1.68618 -4.54745 0
M  V30 13779 H 1317.07 -0.460598 -4.58693 0
M  V30 13780 H 1320.62 -3.62888 -5.95783 0
M  V30 13781 H 1316.51 -2.39477 -5.99434 0
M  V30 13782 H 1317.28 -4.19472 -7.02841 0
M  V30 13783 N 1319.94 1.55134 -0.277709 0
M  V30 13784 C 1321.19 1.99654 0.33833 0
M  V30 13785 C 1321.52 1.16612 1.55666 0
M  V30 13786 O 1320.77 0.224428 1.94409 0
M  V30 13787 C 1321.07 3.49182 0.762028 0
M  V30 13788 C 1320.74 4.49524 -0.351958 0
M  V30 13789 C 1319.4 4.76682 -0.657833 0
M  V30 13790 C 1321.75 5.09406 -1.10247 0
M  V30 13791 C 1319.08 5.6099 -1.71776 0
M  V30 13792 C 1321.43 5.94866 -2.15214 0
M  V30 13793 C 1320.1 6.20344 -2.46434 0
M  V30 13794 H 1319.37 0.730584 0.123804 0
M  V30 13795 H 1322.01 1.87446 -0.391961 0
M  V30 13796 H 1320.32 3.58879 1.57204 0
M  V30 13797 H 1322.02 3.81037 1.24947 0
M  V30 13798 H 1318.61 4.28475 -0.103438 0
M  V30 13799 H 1322.79 4.88446 -0.879422 0
M  V30 13800 H 1318.05 5.78975 -1.96463 0
M  V30 13801 H 1322.22 6.403 -2.73842 0
M  V30 13802 H 1319.85 6.85464 -3.28699 0
M  V30 13803 N 1321.42 0.00503138 1.57599 0
M  V30 13804 C 1322.33 -1.00097 2.12174 0
M  V30 13805 C 1323.35 -1.37353 1.06818 0
M  V30 13806 O 1324.52 -1.45984 1.38747 0
M  V30 13807 C 1321.59 -2.27252 2.61835 0
M  V30 13808 C 1320.65 -1.96262 3.81811 0
M  V30 13809 C 1319.88 -3.17355 4.29094 0
M  V30 13810 O 1320.11 -4.2921 3.75679 0
M  V30 13811 O 1319.04 -3.01059 5.21198 0
M  V30 13812 H 1322.87 -0.567024 2.9836 0
M  V30 13813 H 1320.45 -0.214109 1.47858 0
M  V30 13814 H 1322.33 -3.01944 2.93952 0
M  V30 13815 H 1321.01 -2.69875 1.78744 0
M  V30 13816 H 1319.91 -1.19031 3.54658 0
M  V30 13817 H 1321.25 -1.58473 4.65991 0
M  V30 13818 N 1322.9 -1.55308 -0.267798 0
M  V30 13819 C 1324.15 -1.7642 -1.00019 0
M  V30 13820 C 1324.48 -0.566559 -1.85752 0
M  V30 13821 O 1323.75 0.435752 -1.89556 0
M  V30 13822 C 1324.04 -3.07229 -1.87836 0
M  V30 13823 C 1323.89 -4.37358 -1.05061 0
M  V30 13824 C 1325.21 -3.34113 -2.86455 0
M  V30 13825 H 1322.33 -0.641859 -0.362197 0
M  V30 13826 H 1324.97 -1.8804 -0.272188 0
M  V30 13827 H 1323.12 -2.97454 -2.49907 0
M  V30 13828 H 1324.79 -4.59098 -0.450208 0
M  V30 13829 H 1323.03 -4.32351 -0.354242 0
M  V30 13830 H 1323.71 -5.25223 -1.69838 0
M  V30 13831 H 1326.18 -3.43715 -2.34519 0
M  V30 13832 H 1325.06 -4.26896 -3.45038 0
M  V30 13833 H 1325.32 -2.54005 -3.61848 0
M  V30 13834 N 1324.38 0.532545 -1.4833 0
M  V30 13835 C 1325.63 1.28597 -1.55908 0
M  V30 13836 C 1325.95 1.93595 -0.233635 0
M  V30 13837 O 1325.22 1.81197 0.744605 0
M  V30 13838 H 1323.8 0.477619 -0.57436 0
M  V30 13839 H 1326.46 0.619922 -1.84778 0
M  V30 13840 H 1325.55 2.0666 -2.33877 0
M  V30 13841 N 1325.86 1.36875 0.78122 0
M  V30 13842 C 1326.82 1.31706 1.8758 0
M  V30 13843 C 1327.82 0.223044 1.59246 0
M  V30 13844 O 1329.01 0.478327 1.67504 0
M  V30 13845 C 1326.14 1.0437 3.2453 0
M  V30 13846 H 1327.33 2.29059 1.93576 0
M  V30 13847 H 1324.89 1.21766 0.979931 0
M  V30 13848 H 1325.62 0.0750941 3.24213 0
M  V30 13849 H 1325.41 1.83548 3.46486 0
M  V30 13850 H 1326.9 1.0338 4.04602 0
M  V30 13851 N 1327.33 -1.00632 1.21289 0
M  V30 13852 C 1328.74 -1.55838 1.02817 0
M  V30 13853 C 1329.1 -1.91816 -0.412425 0
M  V30 13854 O 1328.22 -1.73342 -1.29543 0
M  V30 13855 C 1328.82 -2.83168 1.86014 0
M  V30 13856 C 1327.37 -3.34865 1.71879 0
M  V30 13857 C 1326.52 -2.0807 1.83309 0
M  V30 13858 H 1329.47 -0.828939 1.3533 0
M  V30 13859 H 1329.49 -3.54996 1.36961 0
M  V30 13860 H 1329.01 -2.56951 2.90857 0
M  V30 13861 H 1327.11 -3.6602 0.697153 0
M  V30 13862 H 1327.22 -4.06374 2.53766 0
M  V30 13863 H 1325.58 -2.21006 1.26603 0
M  V30 13864 H 1326.37 -1.84267 2.89656 0
M  V30 13865 N 1328.81 -1.02043 -1.20104 0
M  V30 13866 C 1330.06 -0.713027 -1.89852 0
M  V30 13867 C 1330.39 0.755767 -1.7889 0
M  V30 13868 O 1329.67 1.54948 -1.17564 0
M  V30 13869 C 1329.95 -1.15417 -3.41103 0
M  V30 13870 C 1329.8 -2.68355 -3.60979 0
M  V30 13871 C 1331.12 -0.728389 -4.34031 0
M  V30 13872 H 1328.24 -0.260502 -0.689426 0
M  V30 13873 H 1330.88 -1.26885 -1.41422 0
M  V30 13874 H 1329.03 -0.68127 -3.8248 0
M  V30 13875 H 1330.7 -3.23526 -3.28829 0
M  V30 13876 H 1328.95 -3.09148 -3.04319 0
M  V30 13877 H 1329.62 -2.94276 -4.67018 0
M  V30 13878 H 1332.09 -1.13499 -4.00321 0
M  V30 13879 H 1330.97 -1.06504 -5.38468 0
M  V30 13880 H 1331.23 0.369736 -4.40551 0
M  V30 13881 N 1330.29 1.35952 -0.797165 0
M  V30 13882 C 1331.52 2.02986 -0.384758 0
M  V30 13883 C 1331.93 1.60233 1.00608 0
M  V30 13884 O 1331.27 0.790955 1.658 0
M  V30 13885 C 1331.33 3.57508 -0.37795 0
M  V30 13886 C 1331 4.23491 -1.71769 0
M  V30 13887 C 1331.99 4.45835 -2.67445 0
M  V30 13888 C 1329.68 4.60804 -1.99911 0
M  V30 13889 C 1331.67 5.04584 -3.89453 0
M  V30 13890 C 1329.36 5.19269 -3.22185 0
M  V30 13891 C 1330.36 5.41099 -4.16774 0
M  V30 13892 O 1330.05 5.98334 -5.36891 0
M  V30 13893 H 1329.78 0.657838 -0.155644 0
M  V30 13894 H 1332.33 1.7475 -1.07942 0
M  V30 13895 H 1330.56 3.84894 0.373253 0
M  V30 13896 H 1332.25 4.05899 0.0108505 0
M  V30 13897 H 1333.02 4.17397 -2.46992 0
M  V30 13898 H 1328.9 4.43132 -1.27102 0
M  V30 13899 H 1332.44 5.21539 -4.63296 0
M  V30 13900 H 1328.34 5.47134 -3.42512 0
M  V30 13901 H 1329.11 6.16794 -5.38059 0
M  V30 13902 N 1331.77 0.549846 1.47697 0
M  V30 13903 C 1333.02 0.0230503 2.02487 0
M  V30 13904 C 1333.34 -1.32382 1.42497 0
M  V30 13905 O 1332.6 -1.87293 0.567441 0
M  V30 13906 C 1332.9 -0.127268 3.57173 0
M  V30 13907 C 1332.56 1.14777 4.36047 0
M  V30 13908 C 1331.23 1.49716 4.57317 0
M  V30 13909 C 1333.58 1.99302 4.81589 0
M  V30 13910 C 1330.91 2.69042 5.21376 0
M  V30 13911 C 1333.26 3.17824 5.46965 0
M  V30 13912 C 1331.92 3.53086 5.66469 0
M  V30 13913 H 1331.19 0.00843471 0.740952 0
M  V30 13914 H 1333.84 0.719876 1.77454 0
M  V30 13915 H 1332.14 -0.907008 3.81157 0
M  V30 13916 H 1333.84 -0.550103 3.97209 0
M  V30 13917 H 1330.43 0.865703 4.19766 0
M  V30 13918 H 1334.61 1.73618 4.64942 0
M  V30 13919 H 1329.87 2.9654 5.34672 0
M  V30 13920 H 1334.04 3.83612 5.81218 0
M  V30 13921 H 1331.67 4.45643 6.15878 0
M  V30 13922 N 1333.25 -1.54984 0.285932 0
M  V30 13923 C 1334.49 -2.00126 -0.328223 0
M  V30 13924 C 1334.83 -1.17409 -1.54689 0
M  V30 13925 O 1334.1 -0.246806 -1.92928 0
M  V30 13926 C 1334.38 -3.53236 -0.699733 0
M  V30 13927 C 1334.24 -4.46702 0.527029 0
M  V30 13928 C 1335.56 -4.12572 -1.53206 0
M  V30 13929 H 1332.67 -0.727521 -0.117825 0
M  V30 13930 H 1335.32 -1.85848 0.395032 0
M  V30 13931 H 1333.47 -3.65534 -1.31594 0
M  V30 13932 H 1335.14 -4.46332 1.16557 0
M  V30 13933 H 1333.38 -4.17917 1.1631 0
M  V30 13934 H 1334.05 -5.51549 0.223165 0
M  V30 13935 H 1336.53 -4.03618 -1.01154 0
M  V30 13936 H 1335.4 -5.19891 -1.7608 0
M  V30 13937 H 1335.67 -3.63487 -2.51654 0
M  V30 13938 N 1334.72 -0.0133892 -1.57594 0
M  V30 13939 C 1335.95 0.679255 -1.95432 0
M  V30 13940 C 1336.37 1.66558 -0.889028 0
M  V30 13941 O 1335.72 1.82031 0.130755 0
M  V30 13942 C 1335.78 1.39943 -3.33314 0
M  V30 13943 O 1335.5 0.452643 -4.35755 0
M  V30 13944 C 1337 2.18535 -3.85691 0
M  V30 13945 H 1334.22 0.188337 -0.644026 0
M  V30 13946 H 1336.76 -0.0684861 -2.04385 0
M  V30 13947 H 1334.92 2.0987 -3.25628 0
M  V30 13948 H 1335.33 0.962243 -5.15598 0
M  V30 13949 H 1336.8 2.64403 -4.84557 0
M  V30 13950 H 1337.28 3.01779 -3.19102 0
M  V30 13951 H 1337.89 1.53598 -3.96595 0
M  V30 13952 N 1336.2 1.55448 0.259558 0
M  V30 13953 C 1337.43 1.80727 1.00723 0
M  V30 13954 C 1337.85 0.587354 1.79431 0
M  V30 13955 O 1337.2 -0.443819 1.77021 0
M  V30 13956 C 1337.25 3.04064 1.95517 0
M  V30 13957 O 1336.97 4.21346 1.19996 0
M  V30 13958 C 1338.48 3.42049 2.81988 0
M  V30 13959 H 1335.7 0.601713 0.296956 0
M  V30 13960 H 1338.24 2.02486 0.286273 0
M  V30 13961 H 1336.39 2.84392 2.63058 0
M  V30 13962 H 1336.81 4.91164 1.84006 0
M  V30 13963 H 1338.28 4.31485 3.44274 0
M  V30 13964 H 1338.76 2.62059 3.52451 0
M  V30 13965 H 1339.37 3.64027 2.19918 0
M  V30 13966 N 1337.68 -0.524672 1.4861 0
M  V30 13967 C 1338.61 -1.63782 1.66426 0
M  V30 13968 C 1339.59 -1.62177 0.513077 0
M  V30 13969 O 1340.78 -1.7929 0.74623 0
M  V30 13970 C 1337.91 -3.02354 1.70877 0
M  V30 13971 C 1336.86 -3.18819 2.85549 0
M  V30 13972 C 1336.19 -4.58506 2.75094 0
M  V30 13973 C 1337.49 -3.01086 4.26784 0
M  V30 13974 H 1339.18 -1.49127 2.59618 0
M  V30 13975 H 1336.73 -0.715997 1.24938 0
M  V30 13976 H 1338.68 -3.80105 1.81929 0
M  V30 13977 H 1337.4 -3.18044 0.742682 0
M  V30 13978 H 1336.06 -2.43487 2.74061 0
M  V30 13979 H 1335.71 -4.71038 1.76443 0
M  V30 13980 H 1335.41 -4.70466 3.52044 0
M  V30 13981 H 1336.93 -5.38348 2.88121 0
M  V30 13982 H 1338.35 -3.68624 4.39077 0
M  V30 13983 H 1336.75 -3.24536 5.04774 0
M  V30 13984 H 1337.82 -1.97454 4.42877 0
M  V30 13985 N 1339.16 -1.37287 -0.77395 0
M  V30 13986 C 1340.41 -1.32112 -1.5294 0
M  V30 13987 C 1340.73 0.0946137 -1.9477 0
M  V30 13988 O 1340 1.03817 -1.66129 0
M  V30 13989 H 1338.58 -0.486047 -0.567245 0
M  V30 13990 H 1341.24 -1.71752 -0.921263 0
M  V30 13991 H 1340.34 -1.95873 -2.42982 0
M  V30 13992 N 1340.64 0.999871 -1.21821 0
M  V30 13993 C 1341.87 1.77148 -1.06312 0
M  V30 13994 C 1342.27 1.85142 0.389747 0
M  V30 13995 O 1341.62 1.31562 1.28207 0
M  V30 13996 C 1341.68 3.22367 -1.59122 0
M  V30 13997 C 1341.34 3.37937 -3.07649 0
M  V30 13998 C 1342.34 3.25808 -4.05148 0
M  V30 13999 C 1340.03 3.63213 -3.46961 0
M  V30 14000 C 1342.02 3.38729 -5.39946 0
M  V30 14001 C 1339.71 3.75775 -4.81909 0
M  V30 14002 C 1340.7 3.6354 -5.78211 0
M  V30 14003 O 1340.39 3.75694 -7.1071 0
M  V30 14004 H 1340.12 0.563396 -0.373578 0
M  V30 14005 H 1342.68 1.26627 -1.61724 0
M  V30 14006 H 1340.91 3.74047 -0.98111 0
M  V30 14007 H 1342.6 3.81219 -1.39379 0
M  V30 14008 H 1343.36 3.062 -3.76121 0
M  V30 14009 H 1339.24 3.71816 -2.72533 0
M  V30 14010 H 1342.79 3.29096 -6.15095 0
M  V30 14011 H 1338.68 3.94889 -5.1062 0
M  V30 14012 H 1339.45 3.9261 -7.18192 0
M  V30 14013 N 1342.11 1.02678 1.19562 0
M  V30 14014 C 1343.06 0.599259 2.24748 0
M  V30 14015 C 1344.06 -0.367079 1.65375 0
M  V30 14016 O 1345.26 -0.235887 1.78448 0
M  V30 14017 H 1341.64 0.175517 0.73123 0
M  V30 14018 H 1343.61 1.4971 2.58127 0
M  V30 14019 C 1342.36 -0.0362515 3.47681 0
M  V30 14020 H 1341.68 0.698343 3.93654 0
M  V30 14021 H 1343.12 -0.298361 4.22949 0
M  V30 14022 C 1341.58 -1.28218 3.11547 0
M  V30 14023 O 1342.11 -2.37446 3.24009 0
M  V30 14024 N 1340.32 -1.17014 2.66 0
M  V30 14025 H 1339.86 -0.28132 2.56059 0
M  V30 14026 H 1339.82 -2.00473 2.42194 0
M  V30 14027 N 1343.59 -1.35528 0.804364 0
M  V30 14028 C 1344.84 -1.98832 0.383692 0
M  V30 14029 C 1345.17 -1.63816 -1.04855 0
M  V30 14030 O 1344.42 -0.892272 -1.74175 0
M  V30 14031 C 1344.72 -3.5372 0.511571 0
M  V30 14032 C 1344.39 -4.08597 1.9068 0
M  V30 14033 C 1343.05 -4.23297 2.28852 0
M  V30 14034 C 1345.4 -4.3834 2.81971 0
M  V30 14035 C 1342.73 -4.65056 3.57687 0
M  V30 14036 C 1345.08 -4.81537 4.1025 0
M  V30 14037 C 1343.75 -4.94442 4.48423 0
M  V30 14038 H 1343.02 -0.727577 0.140403 0
M  V30 14039 H 1345.66 -1.61777 1.02472 0
M  V30 14040 H 1343.97 -3.91221 -0.212916 0
M  V30 14041 H 1345.66 -4.00653 0.166888 0
M  V30 14042 H 1342.25 -3.97606 1.60023 0
M  V30 14043 H 1346.44 -4.26538 2.5373 0
M  V30 14044 H 1341.69 -4.73236 3.87115 0
M  V30 14045 H 1345.87 -5.03512 4.81091 0
M  V30 14046 H 1343.5 -5.26558 5.48307 0
M  V30 14047 N 1345.07 -0.557671 -1.47404 0
M  V30 14048 C 1346.3 -0.0366797 -2.07368 0
M  V30 14049 C 1346.72 1.2478 -1.40754 0
M  V30 14050 O 1346.08 1.74757 -0.48268 0
M  V30 14051 C 1346.13 0.141728 -3.60321 0
M  V30 14052 O 1345.23 1.20419 -3.94427 0
M  V30 14053 H 1344.57 -0.0515319 -0.661997 0
M  V30 14054 H 1347.1 -0.773485 -1.89416 0
M  V30 14055 H 1347.11 0.355787 -4.06446 0
M  V30 14056 H 1345.79 -0.796433 -4.08203 0
M  V30 14057 H 1344.36 0.970589 -3.60047 0
M  V30 14058 N 1346.55 1.54831 -0.294147 0
M  V30 14059 C 1347.77 2.04873 0.32276 0
M  V30 14060 C 1348.2 1.17034 1.47257 0
M  V30 14061 O 1347.56 0.172949 1.80473 0
M  V30 14062 C 1347.61 3.52431 0.76319 0
M  V30 14063 O 1346.71 3.67635 1.86865 0
M  V30 14064 H 1346.05 0.660926 0.0638162 0
M  V30 14065 H 1348.58 1.99944 -0.433995 0
M  V30 14066 H 1348.59 3.94155 1.05385 0
M  V30 14067 H 1347.27 4.15827 -0.0779464 0
M  V30 14068 H 1345.84 3.37816 1.57907 0
M  V30 14069 N 1348.03 0.0217466 1.57585 0
M  V30 14070 C 1348.94 -0.978407 2.13224 0
M  V30 14071 C 1349.95 -1.36212 1.08269 0
M  V30 14072 O 1351.13 -1.44504 1.40288 0
M  V30 14073 C 1348.19 -2.24462 2.6423 0
M  V30 14074 C 1347.26 -1.92201 3.83871 0
M  V30 14075 C 1346.49 -3.12786 4.32436 0
M  V30 14076 O 1346.71 -4.25201 3.8021 0
M  V30 14077 O 1345.65 -2.95514 5.24362 0
M  V30 14078 H 1349.47 -0.535347 2.98944 0
M  V30 14079 H 1347.06 -0.198414 1.48077 0
M  V30 14080 H 1348.94 -2.98809 2.97138 0
M  V30 14081 H 1347.61 -2.67964 1.81596 0
M  V30 14082 H 1346.52 -1.15262 3.55901 0
M  V30 14083 H 1347.85 -1.53521 4.67645 0
M  V30 14084 N 1349.51 -1.55583 -0.251311 0
M  V30 14085 C 1350.47 -1.89148 -1.29443 0
M  V30 14086 C 1351.47 -0.7676 -1.41296 0
M  V30 14087 O 1352.66 -1.03563 -1.40073 0
M  V30 14088 C 1349.79 -2.11601 -2.67279 0
M  V30 14089 H 1350.98 -2.82416 -1.00901 0
M  V30 14090 H 1348.54 -1.48407 -0.490398 0
M  V30 14091 H 1349.27 -1.20787 -3.00967 0
M  V30 14092 H 1349.06 -2.93449 -2.60058 0
M  V30 14093 H 1350.55 -2.38768 -3.42607 0
M  V30 14094 N 1350.98 0.516783 -1.48886 0
M  V30 14095 C 1352.23 1.26936 -1.57263 0
M  V30 14096 C 1352.55 1.93337 -0.254156 0
M  V30 14097 O 1351.82 1.81977 0.725345 0
M  V30 14098 H 1350.4 0.4715 -0.579393 0
M  V30 14099 H 1353.06 0.600289 -1.85425 0
M  V30 14100 H 1352.16 2.04167 -2.36055 0
M  V30 14101 N 1352.46 1.37696 0.766659 0
M  V30 14102 C 1353.39 1.28241 1.88758 0
M  V30 14103 C 1354.37 0.161948 1.61791 0
M  V30 14104 O 1355.56 0.337034 1.85462 0
M  V30 14105 C 1352.68 0.983972 3.24092 0
M  V30 14106 C 1351.73 2.12202 3.69963 0
M  V30 14107 S 1352.56 3.74225 3.83035 0
M  V30 14108 C 1353.72 3.46542 5.2121 0
M  V30 14109 H 1353.95 2.23113 1.96489 0
M  V30 14110 H 1351.48 1.23378 0.92829 0
M  V30 14111 H 1353.44 0.818612 4.02255 0
M  V30 14112 H 1352.1 0.0526544 3.14056 0
M  V30 14113 H 1351.3 1.86834 4.68091 0
M  V30 14114 H 1350.9 2.24778 2.98916 0
M  V30 14115 H 1353.19 3.01845 6.06544 0
M  V30 14116 H 1354.13 4.44016 5.51593 0
M  V30 14117 H 1354.54 2.81353 4.89388 0
M  V30 14118 N 1353.94 -0.993397 1.22349 0
M  V30 14119 C 1354.89 -2.10463 0.990358 0
M  V30 14120 C 1355.88 -1.6927 -0.0663528 0
M  V30 14121 O 1357.09 -1.79794 0.0860444 0
M  V30 14122 H 1353.46 -0.688222 0.303075 0
M  V30 14123 H 1355.43 -2.273 1.93333 0
M  V30 14124 C 1354.18 -3.42757 0.584205 0
M  V30 14125 H 1353.51 -3.74896 1.38899 0
M  V30 14126 H 1354.95 -4.21492 0.46049 0
M  V30 14127 C 1353.4 -3.29416 -0.706187 0
M  V30 14128 O 1353.93 -3.61152 -1.75875 0
M  V30 14129 N 1352.14 -2.82601 -0.677148 0
M  V30 14130 H 1351.69 -2.56972 0.179712 0
M  V30 14131 H 1351.65 -2.74056 -1.54081 0
M  V30 14132 N 1355.42 -1.03311 -1.19015 0
M  V30 14133 C 1356.38 -0.622114 -2.20596 0
M  V30 14134 C 1357.38 0.316502 -1.57654 0
M  V30 14135 O 1358.57 0.102932 -1.73896 0
M  V30 14136 C 1355.7 0.0890432 -3.40784 0
M  V30 14137 H 1356.9 -1.52095 -2.58471 0
M  V30 14138 H 1354.45 -0.824777 -1.32767 0
M  V30 14139 H 1355.18 1.00203 -3.08431 0
M  V30 14140 H 1354.97 -0.58547 -3.87704 0
M  V30 14141 H 1356.46 0.363366 -4.16016 0
M  V30 14142 N 1356.9 1.35099 -0.81154 0
M  V30 14143 C 1358.14 1.9788 -0.390695 0
M  V30 14144 C 1358.46 1.6509 1.04903 0
M  V30 14145 O 1359.66 2.21273 1.57324 0
M  V30 14146 C 1358.12 3.54025 -0.647632 0
M  V30 14147 C 1357.73 3.9572 -2.10023 0
M  V30 14148 C 1359.47 4.23492 -0.29239 0
M  V30 14149 C 1357.38 5.44731 -2.30266 0
M  V30 14150 H 1356.31 0.740441 -0.14235 0
M  V30 14151 H 1358.96 1.54098 -0.996294 0
M  V30 14152 H 1357.34 3.9599 0.0279838 0
M  V30 14153 H 1358.52 3.64893 -2.81407 0
M  V30 14154 H 1356.83 3.39157 -2.41581 0
M  V30 14155 H 1359.43 5.33035 -0.421618 0
M  V30 14156 H 1359.77 4.09268 0.76195 0
M  V30 14157 H 1360.3 3.86965 -0.922122 0
M  V30 14158 H 1357.04 5.63928 -3.34163 0
M  V30 14159 H 1356.56 5.7711 -1.63413 0
M  V30 14160 H 1358.24 6.1126 -2.12062 0
M  V30 14161 N 1358.37 0.56548 1.47106 0
M  V30 14162 C 1359.61 0.0469867 2.04346 0
M  V30 14163 C 1359.98 -1.28183 1.42944 0
M  V30 14164 O 1361.18 -1.88852 1.91281 0
M  V30 14165 C 1359.45 -0.0357764 3.57382 0
M  V30 14166 S 1361.01 -0.499194 4.35951 0
M  V30 14167 H 1357.83 0.0291355 0.710403 0
M  V30 14168 H 1360.43 0.754085 1.80371 0
M  V30 14169 H 1359.13 0.935578 3.99594 0
M  V30 14170 H 1358.66 -0.766177 3.85867 0
M  V30 14171 H 1360.68 -1.75732 4.6404 0
M  V30 14172 N 1359.85 -1.54672 0.302354 0
M  V30 14173 C 1361.08 -2.05041 -0.311891 0
M  V30 14174 C 1361.5 -1.17814 -1.46634 0
M  V30 14175 O 1360.86 -0.182517 -1.80379 0
M  V30 14176 C 1360.91 -3.52831 -0.744489 0
M  V30 14177 O 1360.01 -3.68621 -1.84913 0
M  V30 14178 H 1359.35 -0.661255 -0.0603102 0
M  V30 14179 H 1361.88 -1.99711 0.444593 0
M  V30 14180 H 1361.89 -3.94708 -1.03293 0
M  V30 14181 H 1360.57 -4.1578 0.0999976 0
M  V30 14182 H 1359.15 -3.38649 -1.56113 0
M  V30 14183 N 1361.33 -0.0301034 -1.57571 0
M  V30 14184 C 1362.56 0.662045 -1.9655 0
M  V30 14185 C 1362.98 1.64811 -0.906581 0
M  V30 14186 O 1362.34 1.80816 0.132415 0
M  V30 14187 C 1362.39 1.34389 -3.34622 0
M  V30 14188 O 1361.49 2.45919 -3.31056 0
M  V30 14189 H 1360.83 0.173842 -0.640839 0
M  V30 14190 H 1363.36 -0.092248 -2.04392 0
M  V30 14191 H 1363.37 1.70045 -3.70875 0
M  V30 14192 H 1362.05 0.621092 -4.11236 0
M  V30 14193 H 1360.62 2.12367 -3.06521 0
M  V30 14194 N 1362.81 1.55714 0.243056 0
M  V30 14195 C 1363.77 1.89832 1.28438 0
M  V30 14196 C 1364.77 0.775083 1.40887 0
M  V30 14197 O 1365.96 1.04304 1.39521 0
M  V30 14198 C 1363.09 2.13016 2.66153 0
M  V30 14199 H 1364.29 2.82947 0.994022 0
M  V30 14200 H 1361.84 1.48665 0.482521 0
M  V30 14201 H 1362.57 1.22381 3.00322 0
M  V30 14202 H 1362.36 2.94824 2.58498 0
M  V30 14203 H 1363.85 2.40581 3.41336 0
M  V30 14204 N 1364.29 -0.50888 1.49158 0
M  V30 14205 C 1365.53 -1.261 1.57934 0
M  V30 14206 C 1365.86 -1.93199 0.264405 0
M  V30 14207 O 1365.13 -1.82359 -0.715684 0
M  V30 14208 H 1363.71 -0.468421 0.581886 0
M  V30 14209 H 1366.37 -0.590447 1.85741 0
M  V30 14210 H 1365.46 -2.02913 2.37135 0
M  V30 14211 N 1365.76 -1.381 -0.759346 0
M  V30 14212 C 1367 -1.35402 -1.5312 0
M  V30 14213 C 1367.37 0.0574616 -1.91914 0
M  V30 14214 O 1368.57 0.20927 -2.67984 0
M  V30 14215 C 1366.84 -2.27793 -2.754 0
M  V30 14216 S 1368.4 -2.43061 -3.65331 0
M  V30 14217 H 1365.22 -0.480503 -0.524059 0
M  V30 14218 H 1367.82 -1.7397 -0.891886 0
M  V30 14219 H 1366.52 -3.29247 -2.45 0
M  V30 14220 H 1366.05 -1.90353 -3.44281 0
M  V30 14221 H 1368.07 -1.6504 -4.67949 0
M  V30 14222 N 1367.24 0.986894 -1.22875 0
M  V30 14223 C 1368.19 2.09935 -1.00151 0
M  V30 14224 C 1369.18 1.69303 0.0573751 0
M  V30 14225 O 1370.39 1.79746 -0.0955781 0
M  V30 14226 H 1366.77 0.686605 -0.306721 0
M  V30 14227 H 1368.74 2.26271 -1.94535 0
M  V30 14228 C 1367.49 3.42442 -0.602374 0
M  V30 14229 H 1366.81 3.74154 -1.40886 0
M  V30 14230 H 1368.25 4.21242 -0.482836 0
M  V30 14231 C 1366.71 3.29785 0.688707 0
M  V30 14232 O 1367.24 3.6208 1.73957 0
M  V30 14233 N 1365.44 2.82956 0.662152 0
M  V30 14234 H 1364.99 2.56873 -0.193337 0
M  V30 14235 H 1364.95 2.74869 1.52625 0
M  V30 14236 N 1368.72 1.0394 1.18466 0
M  V30 14237 C 1369.67 0.623063 2.241 0
M  V30 14238 C 1370.66 -0.349518 1.65755 0
M  V30 14239 O 1371.87 -0.216947 1.78688 0
M  V30 14240 H 1368.24 0.183263 0.729327 0
M  V30 14241 H 1370.21 1.52439 2.56524 0
M  V30 14242 C 1368.96 0.000626805 3.477 0
M  V30 14243 H 1368.29 0.740056 3.92891 0
M  V30 14244 H 1369.73 -0.253484 4.23242 0
M  V30 14245 C 1368.19 -1.24907 3.1289 0
M  V30 14246 O 1368.72 -2.33996 3.2651 0
M  V30 14247 N 1366.92 -1.14187 2.67226 0
M  V30 14248 H 1366.47 -0.254146 2.56343 0
M  V30 14249 H 1366.43 -1.97893 2.44307 0
M  V30 14250 N 1370.2 -1.34667 0.818693 0
M  V30 14251 C 1371.45 -1.98414 0.404759 0
M  V30 14252 C 1371.77 -1.64919 -1.03112 0
M  V30 14253 O 1371.03 -0.910695 -1.73219 0
M  V30 14254 C 1371.33 -3.53157 0.549059 0
M  V30 14255 C 1370.99 -4.06552 1.95003 0
M  V30 14256 C 1369.66 -4.20846 2.33329 0
M  V30 14257 C 1372.01 -4.35324 2.86604 0
M  V30 14258 C 1369.34 -4.61236 3.62599 0
M  V30 14259 C 1371.69 -4.77159 4.15334 0
M  V30 14260 C 1370.35 -4.89658 4.53642 0
M  V30 14261 H 1369.62 -0.726047 0.148112 0
M  V30 14262 H 1372.27 -1.60681 1.04182 0
M  V30 14263 H 1370.57 -3.91425 -0.17141 0
M  V30 14264 H 1372.27 -4.00453 0.209374 0
M  V30 14265 H 1368.86 -3.95887 1.64231 0
M  V30 14266 H 1373.04 -4.23823 2.58239 0
M  V30 14267 H 1368.3 -4.69104 3.92112 0
M  V30 14268 H 1372.47 -4.98381 4.86404 0
M  V30 14269 H 1370.1 -5.20713 5.53861 0
M  V30 14270 N 1371.68 -0.573274 -1.46804 0
M  V30 14271 C 1372.9 -0.0586717 -2.07317 0
M  V30 14272 C 1373.33 1.2328 -1.42069 0
M  V30 14273 O 1372.68 1.74235 -0.501188 0
M  V30 14274 C 1372.73 0.103503 -3.60451 0
M  V30 14275 O 1371.84 1.16229 -3.95682 0
M  V30 14276 H 1371.18 -0.0585504 -0.661414 0
M  V30 14277 H 1373.71 -0.793532 -1.88585 0
M  V30 14278 H 1373.72 0.312658 -4.068 0
M  V30 14279 H 1372.39 -0.839684 -4.07335 0
M  V30 14280 H 1370.97 0.932347 -3.61056 0
M  V30 14281 N 1373.15 1.5451 -0.310553 0
M  V30 14282 C 1374.4 2.00326 0.295904 0
M  V30 14283 C 1374.73 1.19887 1.53158 0
M  V30 14284 O 1373.98 0.265615 1.93889 0
M  V30 14285 C 1374.28 3.5072 0.68779 0
M  V30 14286 C 1373.95 4.48677 -0.447229 0
M  V30 14287 C 1372.61 4.7518 -0.758796 0
M  V30 14288 C 1374.96 5.06953 -1.21028 0
M  V30 14289 C 1372.29 5.5722 -1.83637 0
M  V30 14290 C 1374.64 5.90167 -2.27784 0
M  V30 14291 C 1373.31 6.14977 -2.59537 0
M  V30 14292 H 1372.58 0.733046 0.108279 0
M  V30 14293 H 1375.22 1.86572 -0.431633 0
M  V30 14294 H 1373.53 3.62133 1.49556 0
M  V30 14295 H 1375.23 3.83602 1.16836 0
M  V30 14296 H 1371.82 4.28159 -0.1943 0
M  V30 14297 H 1376 4.86471 -0.98283 0
M  V30 14298 H 1371.26 5.74678 -2.08699 0
M  V30 14299 H 1375.43 6.34347 -2.87362 0
M  V30 14300 H 1373.06 6.78338 -3.43165 0
M  V30 14301 N 1374.63 0.0384594 1.57553 0
M  V30 14302 C 1375.86 -0.648077 1.96488 0
M  V30 14303 C 1376.28 -1.65123 0.915414 0
M  V30 14304 O 1375.63 -1.82216 -0.101779 0
M  V30 14305 C 1375.68 -1.34623 3.35498 0
M  V30 14306 O 1375.41 -0.383261 4.3642 0
M  V30 14307 C 1376.91 -2.12372 3.89119 0
M  V30 14308 H 1374.13 -0.178068 0.646941 0
M  V30 14309 H 1376.67 0.100993 2.0425 0
M  V30 14310 H 1374.83 -2.04663 3.28926 0
M  V30 14311 H 1375.24 -0.880095 5.17063 0
M  V30 14312 H 1376.71 -2.5666 4.88702 0
M  V30 14313 H 1377.19 -2.96664 3.23863 0
M  V30 14314 H 1377.8 -1.4727 3.98988 0
M  V30 14315 N 1376.11 -1.55841 -0.234795 0
M  V30 14316 C 1377.04 -1.87793 -1.31402 0
M  V30 14317 C 1378.06 -0.765113 -1.43701 0
M  V30 14318 O 1379.25 -1.04332 -1.44834 0
M  V30 14319 C 1376.35 -2.05976 -2.69123 0
M  V30 14320 C 1375.52 -3.36914 -2.7894 0
M  V30 14321 C 1374.58 -3.44691 -3.97586 0
M  V30 14322 O 1373.6 -4.17818 -3.86545 0
M  V30 14323 N 1374.81 -2.74866 -5.11301 0
M  V30 14324 H 1377.57 -2.80957 -1.04324 0
M  V30 14325 H 1375.13 -1.56226 -0.424872 0
M  V30 14326 H 1377.12 -2.08507 -3.46853 0
M  V30 14327 H 1375.69 -1.195 -2.88857 0
M  V30 14328 H 1374.91 -3.46595 -1.87791 0
M  V30 14329 H 1376.2 -4.23196 -2.82458 0
M  V30 14330 H 1375.6 -2.15208 -5.23165 0
M  V30 14331 H 1374.16 -2.83075 -5.87122 0
M  V30 14332 N 1377.59 0.500963 -1.49426 0
M  V30 14333 C 1378.54 1.6025 -1.66098 0
M  V30 14334 C 1379.51 1.58318 -0.502453 0
M  V30 14335 O 1380.69 1.76304 -0.729482 0
M  V30 14336 C 1377.83 2.98396 -1.73361 0
M  V30 14337 C 1376.94 3.10343 -3.00518 0
M  V30 14338 C 1376.08 4.39222 -2.9876 0
M  V30 14339 C 1375.12 4.44803 -4.20496 0
M  V30 14340 N 1374.26 5.6511 -4.16648 0
M  V30 14341 H 1379.1 1.45342 -2.60153 0
M  V30 14342 H 1376.63 0.707147 -1.28988 0
M  V30 14343 H 1378.59 3.78467 -1.75553 0
M  V30 14344 H 1377.22 3.12007 -0.827718 0
M  V30 14345 H 1376.27 2.23336 -3.07937 0
M  V30 14346 H 1377.58 3.10327 -3.90511 0
M  V30 14347 H 1376.74 5.27613 -2.99515 0
M  V30 14348 H 1375.48 4.41804 -2.06545 0
M  V30 14349 H 1374.48 3.54814 -4.19985 0
M  V30 14350 H 1375.71 4.43937 -5.13903 0
M  V30 14351 H 1373.65 5.68533 -3.2727 0
M  V30 14352 H 1373.57 5.6671 -5.00376 0
M  V30 14353 H 1374.84 6.55708 -4.21506 0
M  V30 14354 N 1379.07 1.38501 0.752011 0
M  V30 14355 C 1380.32 1.34112 1.50655 0
M  V30 14356 C 1380.63 -0.0657661 1.95489 0
M  V30 14357 O 1381.84 -0.232199 2.70505 0
M  V30 14358 C 1380.29 2.35514 2.72142 0
M  V30 14359 C 1379.9 3.81831 2.34326 0
M  V30 14360 C 1381.64 2.40171 3.50026 0
M  V30 14361 C 1379.55 4.74915 3.52434 0
M  V30 14362 H 1378.48 0.498519 0.565681 0
M  V30 14363 H 1381.13 1.64064 0.821913 0
M  V30 14364 H 1379.51 1.98607 3.42595 0
M  V30 14365 H 1380.69 4.27685 1.7153 0
M  V30 14366 H 1379 3.80308 1.69573 0
M  V30 14367 H 1381.6 3.06913 4.37845 0
M  V30 14368 H 1381.94 1.42111 3.91293 0
M  V30 14369 H 1382.48 2.75884 2.86588 0
M  V30 14370 H 1379.21 5.74176 3.16232 0
M  V30 14371 H 1378.73 4.33753 4.14268 0
M  V30 14372 H 1380.41 4.93003 4.18995 0
M  V30 14373 N 1380.55 -0.980364 1.23396 0
M  V30 14374 C 1381.48 -2.07522 0.972991 0
M  V30 14375 C 1382.49 -1.62714 -0.0530191 0
M  V30 14376 O 1383.68 -1.77564 0.182513 0
M  V30 14377 C 1380.78 -3.35977 0.444126 0
M  V30 14378 C 1379.95 -4.09756 1.53031 0
M  V30 14379 C 1379.01 -5.16488 1.00631 0
M  V30 14380 O 1378.04 -5.43368 1.69529 0
M  V30 14381 N 1379.24 -5.80263 -0.165842 0
M  V30 14382 H 1382 -2.30487 1.91561 0
M  V30 14383 H 1379.57 -1.14706 1.14255 0
M  V30 14384 H 1381.56 -4.04624 0.078617 0
M  V30 14385 H 1380.13 -3.0998 -0.403912 0
M  V30 14386 H 1379.35 -3.35564 2.06858 0
M  V30 14387 H 1380.64 -4.55815 2.26076 0
M  V30 14388 H 1380.03 -5.60811 -0.742162 0
M  V30 14389 H 1378.59 -6.50084 -0.472614 0
M  V30 14390 N 1382.02 -1.04567 -1.17913 0
M  V30 14391 C 1383.25 -0.771084 -1.91671 0
M  V30 14392 C 1383.66 0.676261 -1.76701 0
M  V30 14393 O 1383 1.47314 -1.09746 0
M  V30 14394 C 1383.07 -1.06406 -3.43392 0
M  V30 14395 C 1382.73 -2.50632 -3.82142 0
M  V30 14396 C 1383.73 -3.48825 -3.85509 0
M  V30 14397 C 1381.41 -2.85476 -4.1329 0
M  V30 14398 C 1383.41 -4.79909 -4.19483 0
M  V30 14399 C 1381.09 -4.16766 -4.46934 0
M  V30 14400 C 1382.09 -5.13793 -4.50007 0
M  V30 14401 O 1381.78 -6.42728 -4.82862 0
M  V30 14402 H 1381.51 -0.280258 -0.615168 0
M  V30 14403 H 1384.07 -1.39781 -1.50501 0
M  V30 14404 H 1382.3 -0.380221 -3.84826 0
M  V30 14405 H 1383.98 -0.776475 -3.98404 0
M  V30 14406 H 1384.75 -3.23245 -3.61577 0
M  V30 14407 H 1380.63 -2.10621 -4.10073 0
M  V30 14408 H 1384.17 -5.55638 -4.21796 0
M  V30 14409 H 1380.07 -4.42111 -4.70328 0
M  V30 14410 H 1380.84 -6.47454 -5.00744 0
M  V30 14411 N 1383.5 1.34231 -0.825823 0
M  V30 14412 C 1384.46 2.27776 -0.25512 0
M  V30 14413 C 1385.46 1.50409 0.568654 0
M  V30 14414 O 1386.65 1.69907 0.384337 0
M  V30 14415 C 1383.79 3.348 0.642013 0
M  V30 14416 H 1384.98 2.79763 -1.0804 0
M  V30 14417 H 1382.53 1.44412 -0.597904 0
M  V30 14418 H 1383.27 2.88032 1.49024 0
M  V30 14419 H 1383.05 3.92064 0.0527756 0
M  V30 14420 H 1384.54 4.0457 1.03502 0
M  V30 14421 N 1384.98 0.581051 1.46498 0
M  V30 14422 C 1386.21 0.0715652 2.06776 0
M  V30 14423 C 1386.62 -1.23267 1.43006 0
M  V30 14424 O 1385.98 -1.74489 0.534776 0
M  V30 14425 C 1386.03 -0.102666 3.61354 0
M  V30 14426 O 1385.75 1.14995 4.22739 0
M  V30 14427 C 1387.25 -0.646692 4.38558 0
M  V30 14428 H 1384.47 0.0566964 0.6686 0
M  V30 14429 H 1387.02 0.801248 1.8815 0
M  V30 14430 H 1385.17 -0.782564 3.79414 0
M  V30 14431 H 1385.59 0.962718 5.15589 0
M  V30 14432 H 1387.06 -0.717791 5.47313 0
M  V30 14433 H 1387.54 -1.6633 4.06486 0
M  V30 14434 H 1388.14 -0.00171739 4.253 0
M  V30 14435 N 1386.46 -1.54343 0.318742 0
M  V30 14436 C 1387.37 -2.27856 -0.558442 0
M  V30 14437 C 1388.38 -1.32029 -1.13333 0
M  V30 14438 O 1389.56 -1.65037 -1.15433 0
M  V30 14439 C 1386.62 -3.01842 -1.70565 0
M  V30 14440 C 1385.69 -4.13245 -1.16305 0
M  V30 14441 C 1384.92 -4.83693 -2.25559 0
M  V30 14442 O 1385.14 -4.53621 -3.4581 0
M  V30 14443 O 1384.08 -5.70708 -1.91249 0
M  V30 14444 H 1387.9 -3.03676 0.0384247 0
M  V30 14445 H 1385.49 -1.4916 0.0845936 0
M  V30 14446 H 1387.37 -3.48189 -2.37365 0
M  V30 14447 H 1386.04 -2.28902 -2.28879 0
M  V30 14448 H 1384.95 -3.71258 -0.460274 0
M  V30 14449 H 1386.28 -4.88214 -0.625111 0
M  V30 14450 N 1387.94 -0.0468143 -1.5753 0
M  V30 14451 C 1389.18 0.627939 -1.92518 0
M  V30 14452 C 1389.51 1.71107 -0.924801 0
M  V30 14453 O 1388.77 1.95597 0.0635812 0
M  V30 14454 C 1389.06 1.26669 -3.342 0
M  V30 14455 C 1388.73 0.312184 -4.49818 0
M  V30 14456 C 1387.39 0.0495202 -4.81175 0
M  V30 14457 C 1389.74 -0.342228 -5.20075 0
M  V30 14458 C 1387.07 -0.875064 -5.80137 0
M  V30 14459 C 1389.42 -1.25498 -6.20027 0
M  V30 14460 C 1388.09 -1.52636 -6.49814 0
M  V30 14461 H 1387.36 0.229779 -0.704473 0
M  V30 14462 H 1390.01 -0.112363 -1.9117 0
M  V30 14463 H 1388.31 2.08215 -3.31894 0
M  V30 14464 H 1390.01 1.79563 -3.5855 0
M  V30 14465 H 1386.6 0.527088 -4.25347 0
M  V30 14466 H 1390.78 -0.152384 -4.96066 0
M  V30 14467 H 1386.04 -1.09284 -6.01554 0
M  V30 14468 H 1390.21 -1.76815 -6.7358 0
M  V30 14469 H 1387.84 -2.24443 -7.26312 0
M  V30 14470 N 1389.41 1.55964 0.226527 0
M  V30 14471 C 1390.83 1.68978 0.793936 0
M  V30 14472 C 1391.18 0.647938 1.85192 0
M  V30 14473 O 1390.3 -0.201907 2.15456 0
M  V30 14474 C 1390.9 3.06351 1.44687 0
M  V30 14475 C 1389.46 3.21237 1.96173 0
M  V30 14476 C 1388.6 2.64896 0.8201 0
M  V30 14477 H 1391.55 1.587 0.00195967 0
M  V30 14478 H 1391.57 3.01932 2.31554 0
M  V30 14479 H 1391.09 3.82156 0.676611 0
M  V30 14480 H 1389.19 2.50292 2.76016 0
M  V30 14481 H 1389.3 4.28394 2.14512 0
M  V30 14482 H 1387.66 2.23247 1.22609 0
M  V30 14483 H 1388.45 3.43243 0.0625967 0
M  V30 14484 N 1390.89 -0.493031 1.4969 0
M  V30 14485 C 1391.8 -1.61991 1.69694 0
M  V30 14486 C 1392.82 -1.64061 0.579641 0
M  V30 14487 O 1393.99 -1.82335 0.855323 0
M  V30 14488 C 1391.06 -2.98323 1.76648 0
M  V30 14489 C 1390.12 -3.06816 3.00271 0
M  V30 14490 C 1389.35 -4.36644 3.06883 0
M  V30 14491 O 1389.58 -5.25901 2.20872 0
M  V30 14492 O 1388.51 -4.50275 3.99419 0
M  V30 14493 H 1392.34 -1.48042 2.65174 0
M  V30 14494 H 1389.92 -0.670182 1.33525 0
M  V30 14495 H 1391.8 -3.79335 1.83529 0
M  V30 14496 H 1390.48 -3.12517 0.843482 0
M  V30 14497 H 1389.39 -2.24962 2.98903 0
M  V30 14498 H 1390.72 -2.97551 3.92077 0
M  V30 14499 N 1392.37 -1.38898 -0.744656 0
M  V30 14500 C 1393.3 -1.32739 -1.8685 0
M  V30 14501 C 1394.32 -0.23793 -1.61052 0
M  V30 14502 O 1395.5 -0.496166 -1.71466 0
M  V30 14503 C 1392.6 -1.03602 -3.22676 0
M  V30 14504 C 1391.78 -2.23634 -3.75908 0
M  V30 14505 C 1390.84 -1.91103 -4.90271 0
M  V30 14506 O 1389.86 -2.6369 -5.04437 0
M  V30 14507 N 1391.06 -0.871358 -5.73923 0
M  V30 14508 H 1393.83 -2.29585 -1.92641 0
M  V30 14509 H 1391.39 -1.32875 -0.924979 0
M  V30 14510 H 1393.38 -0.798755 -3.96739 0
M  V30 14511 H 1391.95 -0.155218 -3.12214 0
M  V30 14512 H 1391.17 -2.63371 -2.93307 0
M  V30 14513 H 1392.46 -3.0372 -4.08205 0
M  V30 14514 H 1391.86 -0.269591 -5.65057 0
M  V30 14515 H 1390.42 -0.693984 -6.48095 0
M  V30 14516 N 1393.85 0.973806 -1.23914 0
M  V30 14517 C 1395.07 1.7564 -1.10296 0
M  V30 14518 C 1395.5 1.84984 0.340954 0
M  V30 14519 O 1394.86 1.31629 1.24674 0
M  V30 14520 C 1394.9 3.15809 -1.7406 0
M  V30 14521 O 1394.01 3.99911 -1.00722 0
M  V30 14522 H 1393.35 0.540133 -0.386202 0
M  V30 14523 H 1395.88 1.22197 -1.64101 0
M  V30 14524 H 1395.89 3.66359 -1.79568 0
M  V30 14525 H 1394.56 3.08324 -2.79122 0
M  V30 14526 H 1393.14 3.58405 -1.02956 0
M  V30 14527 N 1395.33 1.05191 1.17357 0
M  V30 14528 C 1396.56 0.781238 1.9126 0
M  V30 14529 C 1396.96 -0.66688 1.77057 0
M  V30 14530 O 1396.31 -1.4673 1.10526 0
M  V30 14531 C 1396.37 1.08225 3.42823 0
M  V30 14532 C 1396.03 2.52655 3.80808 0
M  V30 14533 C 1397.03 3.50864 3.83654 0
M  V30 14534 C 1394.72 2.87664 4.11771 0
M  V30 14535 C 1396.71 4.82127 4.16932 0
M  V30 14536 C 1394.4 4.1913 4.44717 0
M  V30 14537 C 1395.39 5.16172 4.47276 0
M  V30 14538 O 1395.08 6.4528 4.79447 0
M  V30 14539 H 1394.81 0.283516 0.613673 0
M  V30 14540 H 1397.37 1.40577 1.49758 0
M  V30 14541 H 1395.6 0.400623 3.84619 0
M  V30 14542 H 1397.29 0.797593 3.97987 0
M  V30 14543 H 1398.05 3.25158 3.59857 0
M  V30 14544 H 1393.93 2.12793 4.0895 0
M  V30 14545 H 1397.48 5.57867 4.18844 0
M  V30 14546 H 1393.37 4.44599 4.67976 0
M  V30 14547 H 1394.14 6.50101 4.97304 0
M  V30 14548 N 1396.8 -1.33791 0.83293 0
M  V30 14549 C 1397.73 -2.31853 0.276846 0
M  V30 14550 C 1398.72 -1.58702 -0.612184 0
M  V30 14551 O 1399.9 -1.86629 -0.536975 0
M  V30 14552 C 1397.03 -3.42855 -0.55385 0
M  V30 14553 C 1395.98 -4.27333 0.238884 0
M  V30 14554 C 1395.31 -5.29895 -0.715187 0
M  V30 14555 C 1396.61 -5.01692 1.45265 0
M  V30 14556 H 1398.3 -2.78611 1.09618 0
M  V30 14557 H 1395.85 -1.33949 0.528562 0
M  V30 14558 H 1397.8 -4.10479 -0.953133 0
M  V30 14559 H 1396.53 -2.94771 -1.40634 0
M  V30 14560 H 1395.19 -3.61325 0.619656 0
M  V30 14561 H 1394.83 -4.7807 -1.56391 0
M  V30 14562 H 1394.53 -5.87296 -0.188921 0
M  V30 14563 H 1396.06 -6.00387 -1.11211 0
M  V30 14564 H 1397.47 -5.62117 1.12685 0
M  V30 14565 H 1395.87 -5.68715 1.91528 0
M  V30 14566 H 1396.94 -4.30809 2.22558 0
M  V30 14567 N 1398.28 -0.588812 -1.46187 0
M  V30 14568 C 1399.25 0.130803 -2.28826 0
M  V30 14569 C 1400.25 0.813037 -1.38731 0
M  V30 14570 O 1401.44 0.664061 -1.61046 0
M  V30 14571 C 1398.57 1.19484 -3.19275 0
M  V30 14572 H 1399.76 -0.595514 -2.93928 0
M  V30 14573 H 1397.31 -0.347038 -1.52399 0
M  V30 14574 H 1398.05 1.95254 -2.58933 0
M  V30 14575 H 1397.83 0.710077 -3.85617 0
M  V30 14576 H 1399.32 1.69938 -3.81459 0
M  V30 14577 N 1399.76 1.54172 -0.326923 0
M  V30 14578 C 1401.01 1.99809 0.275554 0
M  V30 14579 C 1401.32 1.21886 1.52981 0
M  V30 14580 O 1402.53 1.57917 2.20849 0
M  V30 14581 C 1400.98 3.55802 0.541543 0
M  V30 14582 C 1400.59 4.42563 -0.695853 0
M  V30 14583 C 1402.34 4.09898 1.10379 0
M  V30 14584 C 1400.24 5.90035 -0.401581 0
M  V30 14585 H 1399.17 0.746406 0.106742 0
M  V30 14586 H 1401.82 1.78155 -0.439669 0
M  V30 14587 H 1400.21 3.73457 1.31704 0
M  V30 14588 H 1401.38 4.36684 -1.47118 0
M  V30 14589 H 1399.7 3.99373 -1.17855 0
M  V30 14590 H 1402.29 5.17672 1.33863 0
M  V30 14591 H 1402.64 3.62089 2.0542 0
M  V30 14592 H 1403.17 3.9589 0.389395 0
M  V30 14593 H 1399.91 6.42046 -1.32126 0
M  V30 14594 H 1399.43 5.98858 0.335977 0
M  V30 14595 H 1401.11 6.46999 -0.0126539 0
M  V30 14596 N 1401.24 0.0551678 1.57503 0
M  V30 14597 C 1402.65 -0.479948 1.80426 0
M  V30 14598 C 1403 -1.70673 0.967733 0
M  V30 14599 O 1402.13 -2.15604 0.185462 0
M  V30 14600 C 1402.72 -0.877496 3.27239 0
M  V30 14601 C 1401.28 -1.35757 3.51066 0
M  V30 14602 C 1400.43 -0.334681 2.75273 0
M  V30 14603 H 1403.38 0.281016 1.56192 0
M  V30 14604 H 1403.4 -1.74013 3.38378 0
M  V30 14605 H 1402.91 0.015571 3.88097 0
M  V30 14606 H 1401.01 -2.26969 2.95492 0
M  V30 14607 H 1401.12 -1.34697 4.59776 0
M  V30 14608 H 1399.49 -0.808421 2.4153 0
M  V30 14609 H 1400.27 0.550369 3.3886 0
M  V30 14610 N 1402.72 -1.56081 -0.218252 0
M  V30 14611 C 1403.68 -1.91851 -1.25402 0
M  V30 14612 C 1404.68 -0.797399 -1.39636 0
M  V30 14613 O 1405.87 -1.06511 -1.37844 0
M  V30 14614 C 1403 -2.17223 -2.6273 0
M  V30 14615 H 1404.19 -2.84493 -0.948882 0
M  V30 14616 H 1401.75 -1.49414 -0.458809 0
M  V30 14617 H 1402.48 -1.27144 -2.98337 0
M  V30 14618 H 1402.27 -2.98899 -2.53775 0
M  V30 14619 H 1403.76 -2.45981 -3.37466 0
M  V30 14620 N 1404.2 0.485086 -1.49949 0
M  V30 14621 C 1405.42 1.26648 -1.64241 0
M  V30 14622 C 1405.85 1.85359 -0.319939 0
M  V30 14623 O 1405.2 1.66628 0.714487 0
M  V30 14624 C 1405.25 2.36109 -2.72552 0
M  V30 14625 O 1404.36 3.40387 -2.32832 0
M  V30 14626 H 1403.7 0.373208 -0.549192 0
M  V30 14627 H 1406.23 0.578929 -1.96239 0
M  V30 14628 H 1406.24 2.81634 -2.95205 0
M  V30 14629 H 1404.91 1.92745 -3.6854 0
M  V30 14630 H 1403.49 3.0067 -2.20571 0
M  V30 14631 N 1405.67 1.39291 0.737279 0
M  V30 14632 C 1406.9 1.39844 1.53162 0
M  V30 14633 C 1407.32 -0.00568546 1.88099 0
M  V30 14634 O 1406.68 -0.992085 1.51748 0
M  V30 14635 C 1406.73 2.27577 2.79716 0
M  V30 14636 O 1405.83 1.70408 3.75546 0
M  V30 14637 H 1405.17 0.476314 0.462624 0
M  V30 14638 H 1407.7 1.83258 0.909819 0
M  V30 14639 H 1407.71 2.42009 3.28475 0
M  V30 14640 H 1406.39 3.29621 2.53619 0
M  V30 14641 H 1404.97 1.65206 3.34307 0
M  V30 14642 N 1407.15 -0.967221 1.24429 0
M  V30 14643 C 1408.4 -1.71349 1.09596 0
M  V30 14644 C 1408.75 -1.88975 -0.361411 0
M  V30 14645 O 1408.05 -1.4405 -1.26333 0
M  V30 14646 C 1408.24 -3.10507 1.76975 0
M  V30 14647 C 1408.07 -3.06455 3.29113 0
M  V30 14648 C 1406.84 -3.1091 3.98326 0
M  V30 14649 C 1409.04 -2.88594 4.25697 0
M  V30 14650 N 1407.02 -2.96882 5.3734 0
M  V30 14651 C 1408.39 -2.82867 5.51712 0
M  V30 14652 C 1410.44 -2.73179 4.16267 0
M  V30 14653 C 1409.15 -2.63301 6.69377 0
M  V30 14654 C 1411.17 -2.5498 5.3361 0
M  V30 14655 C 1410.54 -2.49962 6.58558 0
M  V30 14656 H 1406.63 -0.635528 0.455663 0
M  V30 14657 H 1409.22 -1.14669 1.5735 0
M  V30 14658 H 1407.39 -3.65378 1.31733 0
M  V30 14659 H 1409.12 -3.73842 1.54997 0
M  V30 14660 H 1405.88 -3.19609 3.49495 0
M  V30 14661 H 1406.3 -2.93107 6.1026 0
M  V30 14662 H 1410.94 -2.7584 3.20425 0
M  V30 14663 H 1408.66 -2.59383 7.65341 0
M  V30 14664 H 1412.25 -2.43995 5.28164 0
M  V30 14665 H 1411.13 -2.3606 7.47827 0
M  V30 14666 N 1408.63 -1.05812 -1.16797 0
M  V30 14667 C 1409.88 -0.773066 -1.87487 0
M  V30 14668 C 1410.21 0.698471 -1.81204 0
M  V30 14669 O 1409.48 1.51129 -1.22434 0
M  V30 14670 C 1409.77 -1.2621 -3.37258 0
M  V30 14671 C 1409.62 -2.79704 -3.52258 0
M  V30 14672 C 1410.94 -0.866104 -4.31494 0
M  V30 14673 H 1408.06 -0.282304 -0.680789 0
M  V30 14674 H 1410.7 -1.3132 -1.37314 0
M  V30 14675 H 1408.85 -0.802608 -3.80119 0
M  V30 14676 H 1410.52 -3.33824 -3.1837 0
M  V30 14677 H 1408.76 -3.18673 -2.94329 0
M  V30 14678 H 1409.44 -3.08985 -4.57419 0
M  V30 14679 H 1411.91 -1.26178 -3.96508 0
M  V30 14680 H 1410.79 -1.23581 -5.34807 0
M  V30 14681 H 1411.05 0.229391 -4.41504 0
M  V30 14682 N 1410.11 1.33347 -0.840014 0
M  V30 14683 C 1411.38 1.92293 -0.358158 0
M  V30 14684 C 1411.76 1.76594 1.15662 0
M  V30 14685 O 1411.11 1.15503 1.97158 0
M  V30 14686 C 1411.32 3.39558 -0.806329 0
M  V30 14687 C 1412.67 4.16705 -0.81501 0
M  V30 14688 O 1413.69 3.48214 -0.75001 0
M  V30 14689 O 1412.55 5.38974 -0.903818 0
M  V30 14690 H 1409.65 0.820737 -0.101585 0
M  V30 14691 H 1412.19 1.42213 -0.925942 0
M  V30 14692 H 1410.97 3.44861 -1.84897 0
M  V30 14693 H 1410.59 3.97017 -0.215181 0
M  V30 14694 N 1411.59 0.596556 1.45873 0
M  V30 14695 C 1412.86 0.0199562 1.9559 0
M  V30 14696 C 1413.24 -1.44479 1.53912 0
M  V30 14697 O 1412.59 -2.14173 0.796384 0
M  V30 14698 C 1412.8 0.206497 3.48389 0
M  V30 14699 C 1414.15 0.0815298 4.24522 0
M  V30 14700 O 1415.17 0.136045 3.5594 0
M  V30 14701 O 1414.03 -0.0426117 5.46483 0
M  V30 14702 H 1411.13 -0.0419913 0.825933 0
M  V30 14703 H 1413.67 0.665846 1.56092 0
M  V30 14704 H 1412.44 1.22422 3.71656 0
M  V30 14705 H 1412.07 -0.475175 3.9475 0
M  V30 14706 N 1413.06 -1.53996 0.335095 0
M  V30 14707 C 1414.31 -2.00772 -0.263997 0
M  V30 14708 C 1414.64 -1.22309 -1.51231 0
M  V30 14709 O 1413.89 -0.296427 -1.93442 0
M  V30 14710 C 1414.19 -3.51769 -0.631907 0
M  V30 14711 C 1413.86 -4.47908 0.518553 0
M  V30 14712 C 1412.52 -4.73912 0.834297 0
M  V30 14713 C 1414.87 -5.04964 1.29078 0
M  V30 14714 C 1412.2 -5.54228 1.92478 0
M  V30 14715 C 1414.55 -5.86469 2.37144 0
M  V30 14716 C 1413.22 -6.1077 2.69288 0
M  V30 14717 H 1412.49 -0.734676 -0.0966033 0
M  V30 14718 H 1415.13 -1.85862 0.46126 0
M  V30 14719 H 1413.44 -3.64466 -1.43776 0
M  V30 14720 H 1415.14 -3.85412 -1.10719 0
M  V30 14721 H 1411.73 -4.27796 0.262392 0
M  V30 14722 H 1415.91 -4.84846 1.0601 0
M  V30 14723 H 1411.17 -5.71285 2.17816 0
M  V30 14724 H 1415.34 -6.29695 2.97417 0
M  V30 14725 H 1412.97 -6.72792 3.53913 0
M  V30 14726 N 1414.54 -0.0635198 -1.57472 0
M  V30 14727 C 1415.79 0.607008 -1.92349 0
M  V30 14728 C 1416.1 1.71268 -0.944806 0
M  V30 14729 O 1417.31 2.44221 -1.18609 0
M  V30 14730 C 1415.77 1.13105 -3.41666 0
M  V30 14731 C 1415.37 0.0568256 -4.47964 0
M  V30 14732 C 1417.12 1.77611 -3.85557 0
M  V30 14733 C 1415.02 0.594443 -5.88405 0
M  V30 14734 H 1413.95 0.230506 -0.717902 0
M  V30 14735 H 1416.61 -0.134413 -1.83007 0
M  V30 14736 H 1414.99 1.92517 -3.46054 0
M  V30 14737 H 1416.16 -0.717371 -4.55182 0
M  V30 14738 H 1414.48 -0.491517 -4.13489 0
M  V30 14739 H 1417.07 2.18852 -4.87861 0
M  V30 14740 H 1417.42 2.6328 -3.22474 0
M  V30 14741 H 1417.95 1.04834 -3.83738 0
M  V30 14742 H 1414.69 -0.224893 -6.55114 0
M  V30 14743 H 1414.21 1.33635 -5.84724 0
M  V30 14744 H 1415.89 1.07346 -6.38033 0
M  V30 14745 N 1416.02 1.56195 0.209972 0
M  V30 14746 C 1417.3 1.70553 0.957653 0
M  V30 14747 C 1417.68 0.614091 2.01971 0
M  V30 14748 O 1417.02 -0.377192 2.25365 0
M  V30 14749 C 1417.23 3.12314 1.55759 0
M  V30 14750 C 1418.58 3.72085 2.04543 0
M  V30 14751 O 1419.61 3.15349 1.65631 0
M  V30 14752 O 1418.47 4.71627 2.76099 0
M  V30 14753 H 1415.56 0.695077 0.448104 0
M  V30 14754 H 1418.11 1.68507 0.20084 0
M  V30 14755 H 1416.88 3.83215 0.791302 0
M  V30 14756 H 1416.5 3.18526 2.37964 0
M  V30 14757 N 1417.5 -0.477127 1.50204 0
M  V30 14758 C 1418.74 -1.22864 1.62099 0
M  V30 14759 C 1419.1 -1.89811 0.314549 0
M  V30 14760 O 1418.39 -1.78856 -0.687092 0
M  V30 14761 C 1418.59 -2.30126 2.73453 0
M  V30 14762 C 1418.41 -1.73701 4.14799 0
M  V30 14763 C 1417.18 -1.5394 4.8128 0
M  V30 14764 C 1419.38 -1.23535 4.99243 0
M  V30 14765 N 1417.36 -0.926941 6.06862 0
M  V30 14766 C 1418.74 -0.745736 6.15499 0
M  V30 14767 C 1420.79 -1.12333 4.85063 0
M  V30 14768 C 1419.49 -0.155155 7.19133 0
M  V30 14769 C 1421.52 -0.546689 5.88868 0
M  V30 14770 C 1420.88 -0.0674239 7.04368 0
M  V30 14771 H 1416.98 -0.438688 0.647361 0
M  V30 14772 H 1419.56 -0.531647 1.87301 0
M  V30 14773 H 1417.74 -2.97259 2.49984 0
M  V30 14774 H 1419.47 -2.97154 2.74739 0
M  V30 14775 H 1416.22 -1.78993 4.38473 0
M  V30 14776 H 1416.65 -0.639298 6.73975 0
M  V30 14777 H 1421.29 -1.4798 3.96058 0
M  V30 14778 H 1419.01 0.21354 8.07818 0
M  V30 14779 H 1422.59 -0.462461 5.79959 0
M  V30 14780 H 1421.47 0.371791 7.83318 0
M  V30 14781 N 1418.98 -1.3968 -0.729882 0
M  V30 14782 C 1419.91 -1.41549 -1.85704 0
M  V30 14783 C 1420.89 -0.278186 -1.6781 0
M  V30 14784 O 1422.07 -0.484749 -1.88053 0
M  V30 14785 C 1419.2 -1.26327 -3.2351 0
M  V30 14786 C 1418.16 -2.37511 -3.56051 0
M  V30 14787 C 1417.48 -2.07375 -4.92849 0
M  V30 14788 C 1418.78 -3.79833 -3.58502 0
M  V30 14789 H 1420.48 -2.35877 -1.84398 0
M  V30 14790 H 1418.02 -1.13536 -0.885747 0
M  V30 14791 H 1419.98 -1.26254 -4.02042 0
M  V30 14792 H 1418.7 -0.284697 -3.25357 0
M  V30 14793 H 1417.36 -2.36809 -2.79852 0
M  V30 14794 H 1417.01 -1.07943 -4.91281 0
M  V30 14795 H 1416.71 -2.81855 -5.15588 0
M  V30 14796 H 1418.23 -2.08961 -5.73731 0
M  V30 14797 H 1419.64 -3.82436 -4.27101 0
M  V30 14798 H 1418.04 -4.53715 -3.92763 0
M  V30 14799 H 1419.11 -4.10443 -2.58195 0
M  V30 14800 N 1420.45 0.960609 -1.2494 0
M  V30 14801 C 1421.68 1.73928 -1.12057 0
M  V30 14802 C 1422.1 1.8596 0.32623 0
M  V30 14803 O 1421.45 1.35303 1.22472 0
M  V30 14804 C 1421.51 3.15614 -1.76267 0
M  V30 14805 O 1421.23 3.04177 -3.15291 0
M  V30 14806 C 1422.73 4.09786 -1.69086 0
M  V30 14807 H 1419.95 0.5452 -0.39115 0
M  V30 14808 H 1422.49 1.20556 -1.65186 0
M  V30 14809 H 1420.65 3.65949 -1.27123 0
M  V30 14810 H 1421.06 3.93513 -3.46768 0
M  V30 14811 H 1422.53 5.06835 -2.18683 0
M  V30 14812 H 1423.01 4.34312 -0.653453 0
M  V30 14813 H 1423.62 3.65365 -2.1769 0
M  V30 14814 N 1421.93 1.0643 1.16234 0
M  V30 14815 C 1423.34 0.806012 1.68405 0
M  V30 14816 C 1423.69 -0.670197 1.84398 0
M  V30 14817 O 1422.82 -1.51975 1.54054 0
M  V30 14818 C 1423.41 1.45654 3.05893 0
M  V30 14819 C 1421.97 1.24599 3.55179 0
M  V30 14820 C 1421.12 1.53216 2.31128 0
M  V30 14821 H 1424.07 1.22759 1.00578 0
M  V30 14822 H 1424.09 0.872616 3.70359 0
M  V30 14823 H 1423.6 2.53092 2.94221 0
M  V30 14824 H 1421.71 0.191407 3.72108 0
M  V30 14825 H 1421.82 1.95967 4.37188 0
M  V30 14826 H 1420.18 0.952755 2.36209 0
M  V30 14827 H 1420.97 2.61816 2.22052 0
M  V30 14828 N 1423.41 -1.329 0.847073 0
M  V30 14829 C 1424.64 -2.02244 0.459588 0
M  V30 14830 C 1425.06 -1.63279 -0.933897 0
M  V30 14831 O 1424.42 -0.829551 -1.61208 0
M  V30 14832 C 1424.47 -3.55616 0.59745 0
M  V30 14833 O 1423.57 -4.1071 -0.372919 0
M  V30 14834 H 1422.91 -0.637504 0.1857 0
M  V30 14835 H 1425.44 -1.69617 1.14417 0
M  V30 14836 H 1425.45 -4.05141 0.482145 0
M  V30 14837 H 1424.13 -3.8332 1.61365 0
M  V30 14838 H 1422.7 -3.72283 -0.214487 0
M  V30 14839 N 1424.89 -0.604284 -1.45555 0
M  V30 14840 C 1426.11 -0.102634 -2.07146 0
M  V30 14841 C 1426.54 1.20239 -1.44652 0
M  V30 14842 O 1425.9 1.73133 -0.538033 0
M  V30 14843 C 1425.94 0.0270231 -3.6059 0
M  V30 14844 O 1425.05 1.0781 -3.98059 0
M  V30 14845 H 1424.39 -0.0725667 -0.660023 0
M  V30 14846 H 1426.92 -0.833355 -1.86859 0
M  V30 14847 H 1426.93 0.226299 -4.07372 0
M  V30 14848 H 1425.6 -0.925896 -4.05463 0
M  V30 14849 H 1424.18 0.855552 -3.62953 0
M  V30 14850 N 1426.37 1.53816 -0.343257 0
M  V30 14851 C 1427.61 2.0282 0.253695 0
M  V30 14852 C 1427.97 1.22564 1.47791 0
M  V30 14853 O 1429.17 1.61464 2.14902 0
M  V30 14854 C 1427.44 3.5298 0.560361 0
M  V30 14855 S 1429 4.23889 1.13416 0
M  V30 14856 H 1425.82 0.706976 0.0755344 0
M  V30 14857 H 1428.42 1.89492 -0.480951 0
M  V30 14858 H 1427.13 4.09002 -0.338451 0
M  V30 14859 H 1426.66 3.70426 1.32468 0
M  V30 14860 H 1428.67 4.33192 2.4199 0
M  V30 14861 N 1427.84 0.0718701 1.57436 0
M  V30 14862 C 1429.08 -0.600882 1.95368 0
M  V30 14863 C 1429.45 -1.66772 0.951368 0
M  V30 14864 O 1430.65 -2.39603 1.21835 0
M  V30 14865 C 1428.92 -1.1628 3.37955 0
M  V30 14866 S 1430.48 -1.85067 3.97864 0
M  V30 14867 H 1427.3 -0.196749 0.683235 0
M  V30 14868 H 1429.9 0.145744 1.94956 0
M  V30 14869 H 1428.6 -0.374507 4.08688 0
M  V30 14870 H 1428.13 -1.94578 3.41911 0
M  V30 14871 H 1430.15 -3.1331 3.84774 0
M  V30 14872 N 1429.32 -1.56304 -0.201686 0
M  V30 14873 C 1430.74 -1.49741 -0.552247 0
M  V30 14874 C 1430.94 -0.770683 -1.86179 0
M  V30 14875 O 1429.99 -0.318489 -2.50483 0
M  V30 14876 C 1431.31 -2.94384 -0.613083 0
M  V30 14877 C 1432.86 -3.05018 -0.702365 0
M  V30 14878 C 1433.33 -4.51058 -0.794371 0
M  V30 14879 N 1434.82 -4.55183 -0.858072 0
M  V30 14880 C 1435.56 -5.65487 -0.949317 0
M  V30 14881 N 1435.05 -6.85497 -1.00327 0
M  V30 14882 N 1436.85 -5.53385 -0.985995 0
M  V30 14883 H 1429 -2.01971 0.657394 0
M  V30 14884 H 1431.26 -0.918839 0.233322 0
M  V30 14885 H 1430.97 -3.50584 0.279921 0
M  V30 14886 H 1430.84 -3.47376 -1.47002 0
M  V30 14887 H 1433.23 -2.4887 -1.5858 0
M  V30 14888 H 1433.31 -2.55161 0.180636 0
M  V30 14889 H 1432.95 -5.07829 0.0846883 0
M  V30 14890 H 1432.88 -4.98641 -1.69308 0
M  V30 14891 H 1435.37 -3.68765 -0.825888 0
M  V30 14892 H 1435.69 -7.65312 -1.07322 0
M  V30 14893 H 1434.03 -6.88169 -0.972061 0
M  V30 14894 H 1437.22 -4.58552 -0.940635 0
M  V30 14895 H 1437.39 -6.39376 -1.05365 0
M  V30 14896 N 1430.8 0.469154 -1.50455 0
M  V30 14897 C 1431.73 1.57493 -1.7239 0
M  V30 14898 C 1432.71 1.60161 -0.572915 0
M  V30 14899 O 1433.9 1.76397 -0.812259 0
M  V30 14900 C 1431.03 2.95804 -1.81981 0
M  V30 14901 C 1429.98 3.08001 -2.97185 0
M  V30 14902 C 1429.31 4.4798 -2.91922 0
M  V30 14903 C 1430.61 2.85039 -4.37665 0
M  V30 14904 H 1432.3 1.39389 -2.64974 0
M  V30 14905 H 1429.85 0.669133 -1.27509 0
M  V30 14906 H 1431.8 3.73091 -1.95911 0
M  V30 14907 H 1430.52 3.15068 -0.86021 0
M  V30 14908 H 1429.18 2.33148 -2.82909 0
M  V30 14909 H 1428.83 4.64165 -1.93803 0
M  V30 14910 H 1428.53 4.57076 -3.69263 0
M  V30 14911 H 1430.05 5.27284 -3.07903 0
M  V30 14912 H 1431.47 3.52074 -4.52456 0
M  V30 14913 H 1429.87 3.05578 -5.16471 0
M  V30 14914 H 1430.94 1.8088 -4.499 0
M  V30 14915 N 1432.28 1.40065 0.722464 0
M  V30 14916 C 1433.51 1.41066 1.50944 0
M  V30 14917 C 1433.92 0.00678083 1.89199 0
M  V30 14918 O 1433.26 -0.977992 1.55502 0
M  V30 14919 C 1433.32 2.23127 2.81877 0
M  V30 14920 C 1432.99 3.7162 2.65984 0
M  V30 14921 C 1433.98 4.64415 2.33698 0
M  V30 14922 C 1431.67 4.15355 2.82463 0
M  V30 14923 C 1433.66 5.98928 2.18091 0
M  V30 14924 C 1431.35 5.49941 2.66474 0
M  V30 14925 C 1432.35 6.41542 2.34335 0
M  V30 14926 O 1432.03 7.73647 2.18461 0
M  V30 14927 H 1431.77 0.483321 0.472628 0
M  V30 14928 H 1434.32 1.84664 0.899356 0
M  V30 14929 H 1432.55 1.74298 3.45192 0
M  V30 14930 H 1434.24 2.16153 3.43559 0
M  V30 14931 H 1435.01 4.31924 2.20606 0
M  V30 14932 H 1430.88 3.44381 3.06468 0
M  V30 14933 H 1434.43 6.70391 1.92928 0
M  V30 14934 H 1430.33 5.82019 2.79149 0
M  V30 14935 H 1431.09 7.84507 2.33434 0
M  V30 14936 N 1433.76 -0.95397 1.25448 0
M  V30 14937 C 1435.01 -1.69305 1.09631 0
M  V30 14938 C 1435.32 -1.92213 -0.362413 0
M  V30 14939 O 1436.53 -2.63824 -0.641036 0
M  V30 14940 C 1434.98 -3.04805 1.91369 0
M  V30 14941 C 1434.59 -2.8969 3.41737 0
M  V30 14942 C 1436.33 -3.82491 1.84123 0
M  V30 14943 C 1434.24 -4.20584 4.15768 0
M  V30 14944 H 1433.17 -0.63494 0.406654 0
M  V30 14945 H 1435.82 -1.06195 1.49649 0
M  V30 14946 H 1434.2 -3.68822 1.44174 0
M  V30 14947 H 1435.38 -2.346 3.9661 0
M  V30 14948 H 1433.69 -2.25458 3.50082 0
M  V30 14949 H 1436.29 -4.79442 2.36727 0
M  V30 14950 H 1436.63 -4.08358 0.809265 0
M  V30 14951 H 1437.17 -3.25224 2.29072 0
M  V30 14952 H 1433.9 -3.99905 5.19381 0
M  V30 14953 H 1433.42 -4.75436 3.65678 0
M  V30 14954 H 1435.1 -4.89122 4.2352 0
M  V30 14955 N 1435.24 -1.07045 -1.15668 0
M  V30 14956 C 1436.46 -0.812802 -1.9081 0
M  V30 14957 C 1436.89 0.627827 -1.77313 0
M  V30 14958 O 1436.24 1.43836 -1.10368 0
M  V30 14959 C 1436.29 -1.2219 -3.39267 0
M  V30 14960 O 1435.4 -0.365305 -4.10779 0
M  V30 14961 H 1434.74 -0.296385 -0.594182 0
M  V30 14962 H 1437.27 -1.42825 -1.465 0
M  V30 14963 H 1437.28 -1.19674 -3.90054 0
M  V30 14964 H 1435.95 -2.27121 -3.48409 0
M  V30 14965 H 1434.53 -0.452687 -3.70142 0
M  V30 14966 N 1436.71 1.32449 -0.85411 0
M  V30 14967 C 1437.96 1.96881 -0.45632 0
M  V30 14968 C 1438.28 1.67926 0.991248 0
M  V30 14969 O 1437.55 0.986195 1.69266 0
M  V30 14970 H 1436.13 0.728378 -0.165752 0
M  V30 14971 H 1438.79 1.61542 -1.09042 0
M  V30 14972 H 1437.89 3.0626 -0.600927 0
M  V30 14973 N 1438.19 0.611994 1.45232 0
M  V30 14974 C 1439.6 0.193464 1.85695 0
M  V30 14975 C 1439.95 -1.25069 1.5117 0
M  V30 14976 O 1439.08 -1.94894 0.940497 0
M  V30 14977 C 1439.67 0.344334 3.37046 0
M  V30 14978 C 1438.23 -0.0195378 3.76395 0
M  V30 14979 C 1437.38 0.666714 2.69166 0
M  V30 14980 H 1440.33 0.818395 1.35971 0
M  V30 14981 H 1440.35 -0.422209 3.7815 0
M  V30 14982 H 1439.86 1.3955 3.62143 0
M  V30 14983 H 1437.96 -1.06971 3.56915 0
M  V30 14984 H 1438.08 0.377184 4.77613 0
M  V30 14985 H 1436.44 0.103912 2.54488 0
M  V30 14986 H 1437.22 1.7201 2.97099 0
M  V30 14987 N 1439.67 -1.53632 0.351409 0
M  V30 14988 C 1440.62 -2.26782 -0.516983 0
M  V30 14989 C 1441.61 -1.29222 -1.09536 0
M  V30 14990 O 1442.82 -1.46901 -1.04019 0
M  V30 14991 H 1439.19 -0.728783 -0.185417 0
M  V30 14992 H 1441.16 -2.98151 0.121909 0
M  V30 14993 C 1439.91 -3.05943 -1.6521 0
M  V30 14994 H 1439.24 -3.80848 -1.21633 0
M  V30 14995 H 1440.68 -3.60328 -2.23472 0
M  V30 14996 C 1439.13 -2.15917 -2.58614 0
M  V30 14997 O 1439.66 -1.76049 -3.61067 0
M  V30 14998 N 1437.87 -1.80837 -2.27478 0
M  V30 14999 H 1437.42 -2.13456 -1.44202 0
M  V30 15000 H 1437.38 -1.20886 -2.90231 0
M  V30 15001 N 1441.15 -0.0802183 -1.57396 0
M  V30 15002 C 1442.09 0.884041 -2.13198 0
M  V30 15003 C 1443.06 1.28975 -1.04664 0
M  V30 15004 O 1444.25 1.37413 -1.32372 0
M  V30 15005 C 1441.39 2.14323 -2.7048 0
M  V30 15006 C 1440.5 1.7894 -3.93198 0
M  V30 15007 C 1439.64 2.99534 -4.38695 0
M  V30 15008 C 1438.68 2.60207 -5.54039 0
M  V30 15009 N 1437.81 3.73587 -5.94455 0
M  V30 15010 H 1442.65 0.40131 -2.95285 0
M  V30 15011 H 1440.19 0.186429 -1.45914 0
M  V30 15012 H 1442.15 2.88046 -3.01804 0
M  V30 15013 H 1440.78 2.60122 -1.91144 0
M  V30 15014 H 1439.83 0.952465 -3.68283 0
M  V30 15015 H 1441.14 1.46012 -4.76951 0
M  V30 15016 H 1440.3 3.81526 -4.71724 0
M  V30 15017 H 1439.04 3.35661 -3.53812 0
M  V30 15018 H 1438.04 1.76638 -5.20652 0
M  V30 15019 H 1439.27 2.2524 -6.40659 0
M  V30 15020 H 1437.21 4.0946 -5.12521 0
M  V30 15021 H 1437.13 3.44455 -6.72969 0
M  V30 15022 H 1438.4 4.56133 -6.3211 0
M  V30 15023 N 1442.63 1.56409 0.193394 0
M  V30 15024 C 1443.9 1.71559 0.93951 0
M  V30 15025 C 1444.28 0.635478 2.01308 0
M  V30 15026 O 1443.63 -0.353267 2.25753 0
M  V30 15027 C 1443.84 3.13948 1.52438 0
M  V30 15028 C 1445.19 3.74234 2.00585 0
M  V30 15029 O 1446.21 3.17088 1.62277 0
M  V30 15030 O 1445.07 4.74529 2.71081 0
M  V30 15031 H 1442.17 0.69979 0.440707 0
M  V30 15032 H 1444.71 1.68711 0.182957 0
M  V30 15033 H 1443.48 3.84033 0.750613 0
M  V30 15034 H 1443.11 3.21032 2.34572 0
M  V30 15035 N 1444.1 -0.461169 1.50702 0
M  V30 15036 C 1445.05 -1.5579 1.70288 0
M  V30 15037 C 1446.02 -1.5693 0.544251 0
M  V30 15038 O 1447.21 -1.74308 0.77597 0
M  V30 15039 C 1444.35 -2.93694 1.81212 0
M  V30 15040 C 1443.46 -3.02267 3.0864 0
M  V30 15041 C 1442.59 -4.31147 3.103 0
M  V30 15042 C 1441.63 -4.33498 4.32141 0
M  V30 15043 N 1440.77 -5.53864 4.31484 0
M  V30 15044 H 1445.61 -1.38393 2.63915 0
M  V30 15045 H 1443.15 -0.6727 1.30817 0
M  V30 15046 H 1445.1 -3.73679 1.85526 0
M  V30 15047 H 1443.73 -3.09703 0.91015 0
M  V30 15048 H 1442.79 -2.15093 3.1375 0
M  V30 15049 H 1444.1 -2.99864 3.98601 0
M  V30 15050 H 1443.25 -5.19487 3.13398 0
M  V30 15051 H 1441.99 -4.36172 2.18186 0
M  V30 15052 H 1441 -3.43554 4.29245 0
M  V30 15053 H 1442.22 -4.30156 5.25493 0
M  V30 15054 H 1440.17 -5.59657 3.42229 0
M  V30 15055 H 1440.08 -5.53244 5.15225 0
M  V30 15056 H 1441.35 -6.44302 4.38742 0
M  V30 15057 N 1445.58 -1.40446 -0.715026 0
M  V30 15058 C 1446.83 -1.38754 -1.47491 0
M  V30 15059 C 1447.16 0.0099443 -1.94497 0
M  V30 15060 O 1446.41 0.99458 -1.68543 0
M  V30 15061 C 1446.71 -2.32392 -2.7153 0
M  V30 15062 C 1446.38 -3.79635 -2.43286 0
M  V30 15063 C 1445.04 -4.19751 -2.35293 0
M  V30 15064 C 1447.39 -4.72681 -2.19596 0
M  V30 15065 C 1444.72 -5.50947 -2.01679 0
M  V30 15066 C 1447.07 -6.04176 -1.87495 0
M  V30 15067 C 1445.73 -6.43333 -1.77985 0
M  V30 15068 H 1445 -0.507738 -0.539706 0
M  V30 15069 H 1447.65 -1.73104 -0.81898 0
M  V30 15070 H 1445.96 -1.91229 -3.41963 0
M  V30 15071 H 1447.65 -2.28366 -3.29621 0
M  V30 15072 H 1444.24 -3.47852 -2.50393 0
M  V30 15073 H 1448.43 -4.42506 -2.24727 0
M  V30 15074 H 1443.68 -5.80187 -1.92854 0
M  V30 15075 H 1447.86 -6.75788 -1.68179 0
M  V30 15076 H 1445.48 -7.44909 -1.51706 0
M  V30 15077 N 1447.06 0.947303 -1.25952 0
M  V30 15078 C 1448.3 1.70755 -1.12348 0
M  V30 15079 C 1448.66 1.89165 0.328721 0
M  V30 15080 O 1449.86 2.62318 0.586749 0
M  V30 15081 C 1448.14 3.04889 -1.86486 0
M  V30 15082 S 1449.69 3.96076 -1.88863 0
M  V30 15083 H 1446.51 0.586836 -0.401428 0
M  V30 15084 H 1449.11 1.12932 -1.59583 0
M  V30 15085 H 1447.82 2.89166 -2.91224 0
M  V30 15086 H 1447.35 3.67772 -1.39668 0
M  V30 15087 H 1449.36 4.86608 -0.970929 0
M  V30 15088 N 1448.54 1.07657 1.15099 0
M  V30 15089 C 1449.95 0.823828 1.67541 0
M  V30 15090 C 1450.3 -0.650601 1.85099 0
M  V30 15091 O 1449.43 -1.50333 1.55657 0
M  V30 15092 C 1450.02 1.4889 3.04331 0
M  V30 15093 C 1448.58 1.28359 3.53837 0
M  V30 15094 C 1447.73 1.55659 2.2949 0
M  V30 15095 H 1450.68 1.23819 0.992699 0
M  V30 15096 H 1450.7 0.911848 3.69412 0
M  V30 15097 H 1450.21 2.56199 2.9152 0
M  V30 15098 H 1448.31 0.230864 3.71884 0
M  V30 15099 H 1448.42 2.00593 4.35085 0
M  V30 15100 H 1446.79 0.977755 2.35185 0
M  V30 15101 H 1447.57 2.64157 2.19263 0
M  V30 15102 N 1450.02 -1.31994 0.861122 0
M  V30 15103 C 1451.24 -2.01745 0.481013 0
M  V30 15104 C 1451.67 -1.6426 -0.916527 0
M  V30 15105 O 1451.02 -0.846603 -1.60319 0
M  V30 15106 C 1451.07 -3.54963 0.635134 0
M  V30 15107 O 1450.18 -4.11083 -0.329337 0
M  V30 15108 H 1449.52 -0.635499 0.192452 0
M  V30 15109 H 1452.05 -1.68394 1.1621 0
M  V30 15110 H 1452.06 -4.04607 0.525089 0
M  V30 15111 H 1450.73 -3.81587 1.65422 0
M  V30 15112 H 1449.31 -3.72489 -0.174989 0
M  V30 15113 N 1451.49 -0.619688 -1.44906 0
M  V30 15114 C 1452.72 -0.126363 -2.06514 0
M  V30 15115 C 1453.14 1.19432 -1.46224 0
M  V30 15116 O 1452.49 1.7301 -0.580851 0
M  V30 15117 C 1452.55 0.00682319 -3.61499 0
M  V30 15118 O 1452.27 -1.26162 -4.19541 0
M  V30 15119 C 1453.77 0.530189 -4.40118 0
M  V30 15120 H 1450.99 -0.0744032 -0.666862 0
M  V30 15121 H 1453.53 -0.850851 -1.85959 0
M  V30 15122 H 1451.69 0.681694 -3.81355 0
M  V30 15123 H 1452.1 -1.09908 -5.12855 0
M  V30 15124 H 1453.57 0.572428 -5.49024 0
M  V30 15125 H 1454.05 1.55494 -4.10753 0
M  V30 15126 H 1454.66 -0.111044 -4.25155 0
M  V30 15127 N 1452.97 1.53444 -0.359552 0
M  V30 15128 C 1454.22 2.01464 0.232366 0
M  V30 15129 C 1454.55 1.24656 1.48911 0
M  V30 15130 O 1453.83 0.338574 1.9153 0
M  V30 15131 C 1454.11 3.56172 0.530403 0
M  V30 15132 C 1453.96 4.43678 -0.739556 0
M  V30 15133 C 1455.28 4.19412 1.33347 0
M  V30 15134 H 1452.4 0.732314 0.0829802 0
M  V30 15135 H 1455.04 1.83752 -0.483253 0
M  V30 15136 H 1453.19 3.71396 1.14004 0
M  V30 15137 H 1454.86 4.40263 -1.37719 0
M  V30 15138 H 1453.11 4.11892 -1.36117 0
M  V30 15139 H 1453.78 5.49856 -0.486062 0
M  V30 15140 H 1456.25 4.07984 0.817816 0
M  V30 15141 H 1455.13 5.277 1.51075 0
M  V30 15142 H 1455.39 3.7508 2.34024 0
M  V30 15143 N 1454.45 0.0885642 1.57351 0
M  V30 15144 C 1455.4 -0.890284 2.14888 0
M  V30 15145 C 1456.39 -1.29671 1.09004 0
M  V30 15146 O 1457.6 -1.272 1.27359 0
M  V30 15147 H 1453.97 -0.305107 0.687324 0
M  V30 15148 H 1455.94 -0.380243 2.95967 0
M  V30 15149 C 1454.69 -2.14216 2.73874 0
M  V30 15150 H 1454.02 -1.8383 3.55031 0
M  V30 15151 H 1455.46 -2.8078 3.17708 0
M  V30 15152 C 1453.92 -2.91186 1.69448 0
M  V30 15153 O 1454.45 -3.85494 1.12949 0
M  V30 15154 N 1452.65 -2.54603 1.40091 0
M  V30 15155 H 1452.2 -1.77984 1.86225 0
M  V30 15156 H 1452.16 -3.06403 0.704577 0
M  V30 15157 N 1455.93 -1.56509 -0.185096 0
M  V30 15158 C 1457.15 -1.85683 -0.923941 0
M  V30 15159 C 1457.58 -0.673315 -1.75636 0
M  V30 15160 O 1456.94 0.3778 -1.7732 0
M  V30 15161 C 1456.98 -3.13165 -1.78774 0
M  V30 15162 O 1456.09 -2.9442 -2.88775 0
M  V30 15163 H 1455.43 -0.611139 -0.259624 0
M  V30 15164 H 1457.96 -2.0374 -0.187393 0
M  V30 15165 H 1457.97 -3.44216 -2.19042 0
M  V30 15166 H 1456.64 -3.98922 -1.17619 0
M  V30 15167 H 1455.22 -2.7469 -2.5219 0
M  V30 15168 N 1457.41 0.45317 -1.50944 0
M  V30 15169 C 1458.34 1.55655 -1.74051 0
M  V30 15170 C 1459.32 1.59545 -0.58987 0
M  V30 15171 O 1460.5 1.75526 -0.830922 0
M  V30 15172 C 1457.63 2.93857 -1.85109 0
M  V30 15173 C 1456.59 3.04832 -3.00435 0
M  V30 15174 C 1455.91 4.44858 -2.96657 0
M  V30 15175 C 1457.21 2.80381 -4.40663 0
M  V30 15176 H 1458.91 1.36571 -2.66437 0
M  V30 15177 H 1456.45 0.655572 -1.28212 0
M  V30 15178 H 1458.41 3.70992 -1.99857 0
M  V30 15179 H 1457.13 3.14138 -0.893579 0
M  V30 15180 H 1455.79 2.30134 -2.85366 0
M  V30 15181 H 1455.44 4.62083 -1.98716 0
M  V30 15182 H 1455.14 4.53134 -3.7409 0
M  V30 15183 H 1456.66 5.23989 -3.13478 0
M  V30 15184 H 1458.07 3.47255 -4.56165 0
M  V30 15185 H 1456.47 3.00083 -5.19683 0
M  V30 15186 H 1457.54 1.76099 -4.51793 0
M  V30 15187 N 1458.88 1.40823 0.707568 0
M  V30 15188 C 1459.83 1.4191 1.84294 0
M  V30 15189 C 1460.83 0.298592 1.66748 0
M  V30 15190 O 1462.03 0.47003 1.73755 0
M  V30 15191 H 1458.41 0.44376 0.607109 0
M  V30 15192 H 1460.38 2.37623 1.80494 0
M  V30 15193 C 1459.13 1.30643 3.22223 0
M  V30 15194 H 1458.45 2.16145 3.36335 0
M  V30 15195 H 1459.89 1.35463 4.01778 0
M  V30 15196 C 1458.35 0.0174867 3.36895 0
M  V30 15197 O 1458.88 -0.942398 3.90489 0
M  V30 15198 N 1457.09 -0.0546572 2.90549 0
M  V30 15199 H 1456.63 0.727204 2.47122 0
M  V30 15200 H 1456.59 -0.916521 3.00744 0
M  V30 15201 N 1460.36 -0.94061 1.26453 0
M  V30 15202 C 1461.6 -1.70157 1.13252 0
M  V30 15203 C 1461.97 -1.89337 -0.318684 0
M  V30 15204 O 1463.17 -2.62625 -0.57283 0
M  V30 15205 C 1461.44 -3.03896 1.88101 0
M  V30 15206 S 1463 -3.95069 1.9096 0
M  V30 15207 H 1459.82 -0.584699 0.404534 0
M  V30 15208 H 1462.42 -1.12084 1.6018 0
M  V30 15209 H 1461.12 -2.87617 2.92753 0
M  V30 15210 H 1460.65 -3.67026 1.41616 0
M  V30 15211 H 1462.67 -4.86086 0.996721 0
M  V30 15212 N 1461.84 -1.08266 -1.14527 0
M  V30 15213 C 1462.77 -0.732968 -2.21698 0
M  V30 15214 C 1463.75 0.283917 -1.67714 0
M  V30 15215 O 1464.94 0.154607 -1.93584 0
M  V30 15216 C 1462.07 -0.139935 -3.47018 0
M  V30 15217 C 1461.02 -1.08501 -4.14019 0
M  V30 15218 C 1460.35 -0.354263 -5.33525 0
M  V30 15219 C 1461.65 -2.42254 -4.62721 0
M  V30 15220 H 1463.34 -1.629 -2.51205 0
M  V30 15221 H 1460.89 -0.784696 -1.20742 0
M  V30 15222 H 1462.84 0.1167 -4.21238 0
M  V30 15223 H 1461.56 0.791228 -3.16871 0
M  V30 15224 H 1460.22 -1.32672 -3.41751 0
M  V30 15225 H 1459.87 0.580658 -4.99637 0
M  V30 15226 H 1459.57 -0.984287 -5.79297 0
M  V30 15227 H 1461.09 -0.105648 -6.10509 0
M  V30 15228 H 1462.51 -2.22357 -5.28422 0
M  V30 15229 H 1460.91 -3.00935 -5.1919 0
M  V30 15230 H 1461.98 -3.03884 -3.77866 0
M  V30 15231 N 1463.32 1.31536 -0.86811 0
M  V30 15232 C 1464.27 2.28562 -0.320602 0
M  V30 15233 C 1465.24 1.55648 0.579902 0
M  V30 15234 O 1466.42 1.83804 0.51194 0
M  V30 15235 C 1463.56 3.41836 0.473499 0
M  V30 15236 C 1462.67 4.29604 -0.454311 0
M  V30 15237 C 1461.81 5.30021 0.353733 0
M  V30 15238 C 1460.85 6.09434 -0.570624 0
M  V30 15239 N 1459.99 7.01812 0.201058 0
M  V30 15240 H 1464.83 2.74782 -1.15322 0
M  V30 15241 H 1462.36 1.35179 -0.580088 0
M  V30 15242 H 1464.32 4.06248 0.949662 0
M  V30 15243 H 1462.95 2.96732 1.27083 0
M  V30 15244 H 1462 3.65653 -1.04892 0
M  V30 15245 H 1463.31 4.85048 -1.16316 0
M  V30 15246 H 1462.47 6.001 0.892484 0
M  V30 15247 H 1461.21 4.75228 1.09589 0
M  V30 15248 H 1460.21 5.38247 -1.12115 0
M  V30 15249 H 1461.44 6.66314 -1.3116 0
M  V30 15250 H 1459.38 6.49431 0.926058 0
M  V30 15251 H 1459.3 7.54668 -0.448494 0
M  V30 15252 H 1460.57 7.76157 0.7211 0
M  V30 15253 N 1464.8 0.627364 1.44575 0
M  V30 15254 C 1465.75 -0.0920488 2.32418 0
M  V30 15255 C 1466.74 -0.839633 1.47128 0
M  V30 15256 O 1467.95 -0.752958 1.63495 0
M  V30 15257 H 1464.32 -0.0485336 0.750432 0
M  V30 15258 H 1466.29 0.666959 2.90851 0
M  V30 15259 C 1465.04 -1.06262 3.31064 0
M  V30 15260 H 1464.36 -0.4968 3.96701 0
M  V30 15261 H 1465.8 -1.53556 3.95217 0
M  V30 15262 C 1464.26 -2.14601 2.59707 0
M  V30 15263 O 1464.79 -3.2263 2.39317 0
M  V30 15264 N 1463 -1.90431 2.19509 0
M  V30 15265 H 1462.55 -1.02584 2.36293 0
M  V30 15266 H 1462.5 -2.6312 1.72091 0
M  V30 15267 N 1466.28 -1.53251 0.367684 0
M  V30 15268 C 1467.52 -2.03197 -0.221396 0
M  V30 15269 C 1467.88 -1.249 -1.45822 0
M  V30 15270 O 1469.08 -1.64863 -2.12306 0
M  V30 15271 C 1467.35 -3.53827 -0.504134 0
M  V30 15272 S 1468.91 -4.2564 -1.06658 0
M  V30 15273 H 1465.73 -0.708089 -0.0642774 0
M  V30 15274 H 1468.33 -1.88703 0.511037 0
M  V30 15275 H 1467.03 -4.08412 0.403477 0
M  V30 15276 H 1466.57 -3.72487 -1.26558 0
M  V30 15277 H 1468.58 -4.36987 -2.35068 0
M  V30 15278 N 1467.75 -0.0969077 -1.57302 0
M  V30 15279 C 1468.69 0.898042 -2.09787 0
M  V30 15280 C 1469.66 1.27518 -1.00886 0
M  V30 15281 O 1470.85 1.3801 -1.28396 0
M  V30 15282 C 1467.98 2.19868 -2.57635 0
M  V30 15283 C 1467.02 1.97127 -3.7821 0
M  V30 15284 S 1467.85 1.20763 -5.21705 0
M  V30 15285 C 1469.01 2.52054 -5.72905 0
M  V30 15286 H 1469.24 0.451544 -2.93851 0
M  V30 15287 H 1466.78 0.116417 -1.5396 0
M  V30 15288 H 1468.73 2.9461 -2.85859 0
M  V30 15289 H 1467.4 2.61639 -1.73793 0
M  V30 15290 H 1466.59 2.93445 -4.09763 0
M  V30 15291 H 1466.19 1.30515 -3.50488 0
M  V30 15292 H 1468.48 3.4802 -5.81282 0
M  V30 15293 H 1469.43 2.25077 -6.71376 0
M  V30 15294 H 1469.83 2.6041 -5.00846 0
M  V30 15295 N 1469.23 1.56605 0.176793 0
M  V30 15296 C 1470.46 1.8617 0.91408 0
M  V30 15297 C 1470.88 0.68262 1.75277 0
M  V30 15298 O 1470.24 -0.368391 1.77518 0
M  V30 15299 C 1470.29 3.14109 1.7711 0
M  V30 15300 O 1469.39 2.95947 2.87209 0
M  V30 15301 H 1468.73 0.612507 0.25638 0
M  V30 15302 H 1471.26 2.03837 0.176586 0
M  V30 15303 H 1471.27 3.45373 2.17213 0
M  V30 15304 H 1469.95 3.9954 1.15502 0
M  V30 15305 H 1468.52 2.76024 2.50729 0
M  V30 15306 N 1470.71 -0.445159 1.51182 0
M  V30 15307 C 1471.96 -1.19215 1.62698 0
M  V30 15308 C 1472.27 -1.92529 0.345249 0
M  V30 15309 O 1473.48 -2.69367 0.33967 0
M  V30 15310 C 1471.93 -2.16762 2.87302 0
M  V30 15311 C 1471.54 -1.49131 4.2245 0
M  V30 15312 C 1473.29 -2.91942 3.08172 0
M  V30 15313 C 1471.19 -2.45117 5.38212 0
M  V30 15314 H 1470.12 -0.448687 0.605967 0
M  V30 15315 H 1472.77 -0.459956 1.77642 0
M  V30 15316 H 1471.16 -2.93383 2.65975 0
M  V30 15317 H 1472.33 -0.781222 4.54129 0
M  V30 15318 H 1470.64 -0.861342 4.07394 0
M  V30 15319 H 1473.24 -3.6383 3.91832 0
M  V30 15320 H 1473.58 -3.52837 2.20934 0
M  V30 15321 H 1474.12 -2.22429 3.29803 0
M  V30 15322 H 1470.86 -1.88923 6.27685 0
M  V30 15323 H 1470.38 -3.14202 5.10918 0
M  V30 15324 H 1472.06 -3.06411 5.69843 0
M  V30 15325 N 1472.19 -1.41197 -0.700089 0
M  V30 15326 C 1473.42 -1.43658 -1.48896 0
M  V30 15327 C 1473.83 -0.0405771 -1.88756 0
M  V30 15328 O 1473.19 0.93909 -1.56484 0
M  V30 15329 C 1473.24 -2.34125 -2.75441 0
M  V30 15330 O 1472.96 -3.68291 -2.37261 0
M  V30 15331 C 1474.46 -2.45342 -3.69218 0
M  V30 15332 H 1471.68 -0.48945 -0.458999 0
M  V30 15333 H 1474.22 -1.85429 -0.862345 0
M  V30 15334 H 1472.38 -1.95674 -3.34351 0
M  V30 15335 H 1472.79 -4.16495 -3.18798 0
M  V30 15336 H 1474.27 -3.12818 -4.54807 0
M  V30 15337 H 1474.74 -1.48327 -4.13395 0
M  V30 15338 H 1475.35 -2.84409 -3.16214 0
M  V30 15339 N 1473.67 0.933891 -1.2695 0
M  V30 15340 C 1474.6 2.03399 -1.03461 0
M  V30 15341 C 1475.58 1.62543 0.0430025 0
M  V30 15342 O 1476.76 1.8823 -0.100894 0
M  V30 15343 C 1473.89 3.339 -0.56818 0
M  V30 15344 C 1472.93 3.93732 -1.63944 0
M  V30 15345 S 1473.77 4.27096 -3.23032 0
M  V30 15346 C 1474.92 5.60686 -2.78176 0
M  V30 15347 H 1475.16 2.23011 -1.96604 0
M  V30 15348 H 1472.69 1.07621 -1.10711 0
M  V30 15349 H 1474.65 4.0936 -0.305745 0
M  V30 15350 H 1473.31 3.12221 0.343096 0
M  V30 15351 H 1472.5 4.87886 -1.26424 0
M  V30 15352 H 1472.1 3.24833 -1.85362 0
M  V30 15353 H 1474.39 6.39715 -2.23093 0
M  V30 15354 H 1475.34 6.03098 -3.7105 0
M  V30 15355 H 1475.75 5.20912 -2.17511 0
M  V30 15356 N 1475.14 1.08871 1.13951 0
M  V30 15357 C 1476.39 0.819665 1.84732 0
M  V30 15358 C 1476.71 -0.656535 1.83615 0
M  V30 15359 O 1475.98 -1.47614 1.28791 0
M  V30 15360 H 1474.56 0.30023 0.684011 0
M  V30 15361 H 1477.22 1.37568 1.38062 0
M  V30 15362 H 1476.32 1.16809 2.89417 0
M  V30 15363 N 1476.62 -1.31073 0.875073 0
M  V30 15364 C 1477.85 -2.01223 0.502383 0
M  V30 15365 C 1478.27 -1.65223 -0.899053 0
M  V30 15366 O 1477.63 -0.863559 -1.59412 0
M  V30 15367 C 1477.68 -3.54269 0.672747 0
M  V30 15368 O 1476.78 -4.11409 -0.285718 0
M  V30 15369 H 1476.12 -0.633422 0.199181 0
M  V30 15370 H 1478.65 -1.67152 1.17989 0
M  V30 15371 H 1478.66 -4.04027 0.567973 0
M  V30 15372 H 1477.34 -3.79811 1.69459 0
M  V30 15373 H 1475.91 -3.72654 -0.135472 0
M  V30 15374 N 1478.1 -0.635022 -1.4424 0
M  V30 15375 C 1479.35 -0.141276 -2.02307 0
M  V30 15376 C 1479.68 1.23508 -1.49865 0
M  V30 15377 O 1478.95 1.82065 -0.684291 0
M  V30 15378 C 1479.24 -0.132196 -3.59857 0
M  V30 15379 C 1479.09 -1.54117 -4.22573 0
M  V30 15380 C 1480.41 0.541186 -4.3676 0
M  V30 15381 H 1477.53 -0.0528117 -0.735105 0
M  V30 15382 H 1480.17 -0.812239 -1.71763 0
M  V30 15383 H 1478.32 0.439156 -3.8601 0
M  V30 15384 H 1479.99 -2.16171 -4.07514 0
M  V30 15385 H 1478.24 -2.09389 -3.79919 0
M  V30 15386 H 1478.91 -1.48682 -5.31599 0
M  V30 15387 H 1481.38 0.0552603 -4.16063 0
M  V30 15388 H 1480.26 0.516742 -5.46462 0
M  V30 15389 H 1480.52 1.61222 -4.11655 0
M  V30 15390 N 1479.58 1.53054 -0.375806 0
M  V30 15391 C 1480.99 1.5958 -0.0251765 0
M  V30 15392 C 1481.19 1.39047 1.45836 0
M  V30 15393 O 1480.25 1.20073 2.22123 0
M  V30 15394 C 1481.56 2.96676 -0.490274 0
M  V30 15395 C 1483.11 3.09815 -0.44537 0
M  V30 15396 C 1483.59 4.4934 -0.886442 0
M  V30 15397 N 1485.08 4.55484 -0.84191 0
M  V30 15398 C 1485.81 5.61652 -1.15476 0
M  V30 15399 N 1485.31 6.75526 -1.53741 0
M  V30 15400 N 1487.1 5.51688 -1.07689 0
M  V30 15401 H 1479.25 1.64651 -1.34178 0
M  V30 15402 H 1481.52 0.77278 -0.549104 0
M  V30 15403 H 1481.22 3.16874 -1.52589 0
M  V30 15404 H 1481.1 3.77016 0.11776 0
M  V30 15405 H 1483.48 2.89321 0.581138 0
M  V30 15406 H 1483.56 2.3146 -1.08903 0
M  V30 15407 H 1483.21 4.70573 -1.91111 0
M  V30 15408 H 1483.14 5.26141 -0.219925 0
M  V30 15409 H 1485.63 3.73725 -0.56015 0
M  V30 15410 H 1485.94 7.52489 -1.76012 0
M  V30 15411 H 1484.29 6.76892 -1.57616 0
M  V30 15412 H 1487.48 4.61605 -0.777062 0
M  V30 15413 H 1487.65 6.34329 -1.32403 0
M  V30 15414 N 1481.06 0.105248 1.57248 0
M  V30 15415 C 1482.47 -0.422304 1.81861 0
M  V30 15416 C 1482.82 -1.67508 1.02154 0
M  V30 15417 O 1481.94 -2.14905 0.253961 0
M  V30 15418 C 1482.54 -0.772943 3.29865 0
M  V30 15419 C 1481.1 -1.24519 3.55207 0
M  V30 15420 C 1480.24 -0.246936 2.76198 0
M  V30 15421 H 1483.2 0.330565 1.55219 0
M  V30 15422 H 1483.22 -1.6316 3.43743 0
M  V30 15423 H 1482.73 0.139033 3.87851 0
M  V30 15424 H 1480.83 -2.17453 3.02564 0
M  V30 15425 H 1480.94 -1.20001 4.63828 0
M  V30 15426 H 1479.31 -0.731171 2.43979 0
M  V30 15427 H 1480.09 0.657896 3.36937 0
M  V30 15428 N 1482.53 -1.56697 -0.168486 0
M  V30 15429 C 1483.76 -1.86652 -0.904195 0
M  V30 15430 C 1484.18 -0.691906 -1.74912 0
M  V30 15431 O 1483.54 0.358971 -1.77711 0
M  V30 15432 C 1483.59 -3.15043 -1.75442 0
M  V30 15433 O 1482.69 -2.97466 -2.85636 0
M  V30 15434 H 1482.04 -0.613859 -0.253128 0
M  V30 15435 H 1484.57 -2.03927 -0.165773 0
M  V30 15436 H 1484.58 -3.4652 -2.15378 0
M  V30 15437 H 1483.25 -4.00147 -1.13381 0
M  V30 15438 H 1481.83 -2.7735 -2.49262 0
M  V30 15439 N 1484.01 0.437135 -1.51416 0
M  V30 15440 C 1485.26 1.18831 -1.64338 0
M  V30 15441 C 1485.59 1.9086 -0.358638 0
M  V30 15442 O 1484.87 1.83607 0.641769 0
M  V30 15443 C 1485.15 2.20515 -2.84685 0
M  V30 15444 C 1485 1.52568 -4.23135 0
M  V30 15445 C 1486.32 3.21494 -3.00549 0
M  V30 15446 H 1483.44 0.430652 -0.598087 0
M  V30 15447 H 1486.08 0.47753 -1.83901 0
M  V30 15448 H 1484.23 2.81132 -2.68136 0
M  V30 15449 H 1485.9 0.952851 -4.51352 0
M  V30 15450 H 1484.15 0.828025 -4.25824 0
M  V30 15451 H 1484.82 2.26623 -5.03335 0
M  V30 15452 H 1487.29 2.7093 -3.1581 0
M  V30 15453 H 1486.17 3.89934 -3.86319 0
M  V30 15454 H 1486.43 3.8761 -2.12629 0
M  V30 15455 N 1485.49 1.41566 0.692592 0
M  V30 15456 C 1486.4 1.46014 1.83622 0
M  V30 15457 C 1487.42 0.350453 1.70434 0
M  V30 15458 O 1488.59 0.598634 1.92298 0
M  V30 15459 C 1485.66 1.34308 3.19628 0
M  V30 15460 C 1484.72 2.55617 3.44904 0
M  V30 15461 C 1483.95 2.4446 4.74421 0
M  V30 15462 O 1484.17 1.47078 5.51112 0
M  V30 15463 O 1483.11 3.34272 5.00546 0
M  V30 15464 H 1486.93 2.42504 1.82826 0
M  V30 15465 H 1484.52 1.23136 0.846039 0
M  V30 15466 H 1486.4 1.30075 4.00822 0
M  V30 15467 H 1485.08 0.409343 3.21101 0
M  V30 15468 H 1483.98 2.65426 2.63628 0
M  V30 15469 H 1485.32 3.47829 3.48247 0
M  V30 15470 N 1486.97 -0.927146 1.27443 0
M  V30 15471 C 1487.9 -2.03209 1.06013 0
M  V30 15472 C 1488.91 -1.62792 0.016041 0
M  V30 15473 O 1490.1 -1.76631 0.25766 0
M  V30 15474 C 1487.2 -3.33791 0.586225 0
M  V30 15475 C 1486.38 -4.02897 1.70273 0
M  V30 15476 C 1485.43 -5.11755 1.22447 0
M  V30 15477 O 1484.46 -5.35688 1.92423 0
M  V30 15478 N 1485.66 -5.80444 0.0804162 0
M  V30 15479 H 1488.43 -2.22155 2.01165 0
M  V30 15480 H 1485.99 -1.09757 1.19017 0
M  V30 15481 H 1487.98 -4.03926 0.250161 0
M  V30 15482 H 1486.55 -3.11414 -0.272076 0
M  V30 15483 H 1485.77 -3.26489 2.20905 0
M  V30 15484 H 1487.06 -4.45816 2.45205 0
M  V30 15485 H 1486.46 -5.63454 -0.503635 0
M  V30 15486 H 1485.01 -6.51504 -0.196466 0
M  V30 15487 N 1488.45 -1.09474 -1.13372 0
M  V30 15488 C 1489.69 -0.831091 -1.84659 0
M  V30 15489 C 1490.02 0.643294 -1.83554 0
M  V30 15490 O 1489.28 1.48958 -1.26925 0
M  V30 15491 C 1489.58 -1.31208 -3.32444 0
M  V30 15492 C 1489.24 -2.79617 -3.5373 0
M  V30 15493 C 1487.9 -3.20147 -3.59248 0
M  V30 15494 C 1490.26 -3.75303 -3.61659 0
M  V30 15495 C 1487.58 -4.55135 -3.70228 0
M  V30 15496 C 1489.94 -5.1008 -3.74167 0
M  V30 15497 C 1488.6 -5.50199 -3.77938 0
M  V30 15498 H 1487.87 -0.304118 -0.675717 0
M  V30 15499 H 1490.52 -1.36961 -1.33843 0
M  V30 15500 H 1488.82 -0.693379 -3.85616 0
M  V30 15501 H 1490.52 -1.08469 -3.86051 0
M  V30 15502 H 1487.11 -2.47253 -3.50091 0
M  V30 15503 H 1491.29 -3.45103 -3.56676 0
M  V30 15504 H 1486.55 -4.85656 -3.71414 0
M  V30 15505 H 1490.72 -5.84077 -3.79245 0
M  V30 15506 H 1488.35 -6.54794 -3.86198 0
M  V30 15507 N 1489.92 1.30607 -0.882012 0
M  V30 15508 C 1490.87 2.2577 -0.318082 0
M  V30 15509 C 1491.86 1.51143 0.551774 0
M  V30 15510 O 1493.05 1.72498 0.396682 0
M  V30 15511 C 1490.18 3.40082 0.468967 0
M  V30 15512 C 1489.27 4.22067 -0.41481 0
M  V30 15513 N 1489.66 4.82613 -1.51389 0
M  V30 15514 C 1487.95 4.45508 -0.209391 0
M  V30 15515 C 1488.66 5.44007 -2.05988 0
M  V30 15516 N 1487.63 5.26435 -1.35524 0
M  V30 15517 H 1491.43 2.70128 -1.15793 0
M  V30 15518 H 1488.95 1.45013 -0.731091 0
M  V30 15519 H 1490.94 4.07298 0.889584 0
M  V30 15520 H 1489.6 2.97265 1.30629 0
M  V30 15521 H 1490.62 4.81916 -1.89676 0
M  V30 15522 H 1487.29 4.13296 0.591 0
M  V30 15523 H 1488.68 6.02068 -2.98268 0
M  V30 15524 N 1491.4 0.642663 1.43901 0
M  V30 15525 C 1492.35 -0.0553351 2.30734 0
M  V30 15526 C 1493.32 -0.825286 1.44147 0
M  V30 15527 O 1494.5 -0.804012 1.73033 0
M  V30 15528 C 1491.64 -1.02306 3.29587 0
M  V30 15529 C 1490.76 -0.250323 4.31274 0
M  V30 15530 C 1489.89 -1.2109 5.17214 0
M  V30 15531 C 1488.93 -0.427984 6.10602 0
M  V30 15532 N 1488.07 -1.33961 6.89202 0
M  V30 15533 H 1492.91 0.691038 2.89877 0
M  V30 15534 H 1490.45 0.352549 1.42813 0
M  V30 15535 H 1492.4 -1.59763 3.85398 0
M  V30 15536 H 1491.03 -1.73643 2.72117 0
M  V30 15537 H 1490.09 0.440359 3.77843 0
M  V30 15538 H 1491.4 0.358937 4.97507 0
M  V30 15539 H 1490.55 -1.85644 5.776 0
M  V30 15540 H 1489.29 -1.85408 4.51082 0
M  V30 15541 H 1488.3 0.230971 5.49315 0
M  V30 15542 H 1489.52 0.210639 6.78773 0
M  V30 15543 H 1487.47 -1.96978 6.25728 0
M  V30 15544 H 1487.38 -0.784655 7.51917 0
M  V30 15545 H 1488.65 -1.97363 7.54101 0
M  V30 15546 N 1492.88 -1.52852 0.383918 0
M  V30 15547 C 1494.11 -2.0563 -0.199926 0
M  V30 15548 C 1494.52 -1.25589 -1.41506 0
M  V30 15549 O 1493.86 -0.294254 -1.81328 0
M  V30 15550 C 1493.92 -3.53761 -0.639796 0
M  V30 15551 C 1493.59 -4.54667 0.461143 0
M  V30 15552 C 1494.59 -5.02946 1.31685 0
M  V30 15553 C 1492.27 -4.98376 0.626633 0
M  V30 15554 C 1494.26 -5.93553 2.32322 0
M  V30 15555 C 1491.95 -5.88784 1.63635 0
M  V30 15556 C 1492.95 -6.36265 2.48306 0
M  V30 15557 O 1492.64 -7.24888 3.47553 0
M  V30 15558 H 1492.37 -0.675089 -0.0350831 0
M  V30 15559 H 1494.92 -1.98009 0.546042 0
M  V30 15560 H 1493.15 -3.58982 -1.43766 0
M  V30 15561 H 1494.84 -3.89307 -1.1487 0
M  V30 15562 H 1495.61 -4.69913 1.20028 0
M  V30 15563 H 1491.49 -4.60994 -0.0226873 0
M  V30 15564 H 1495.03 -6.30536 2.98447 0
M  V30 15565 H 1490.93 -6.21232 1.75332 0
M  V30 15566 H 1491.7 -7.42934 3.43498 0
M  V30 15567 N 1494.36 -0.113586 -1.5719 0
M  V30 15568 C 1495.29 0.835363 -2.18046 0
M  V30 15569 C 1496.27 1.28114 -1.11897 0
M  V30 15570 O 1497.46 1.34472 -1.40111 0
M  V30 15571 C 1494.59 2.08759 -2.77556 0
M  V30 15572 C 1493.54 1.77979 -3.8924 0
M  V30 15573 C 1492.87 3.10185 -4.35533 0
M  V30 15574 C 1494.17 1.05231 -5.11589 0
M  V30 15575 H 1495.86 0.328275 -2.97595 0
M  V30 15576 H 1493.41 0.156456 -1.43148 0
M  V30 15577 H 1495.36 2.75597 -3.18785 0
M  V30 15578 H 1494.08 2.61783 -1.95288 0
M  V30 15579 H 1492.74 1.13532 -3.48577 0
M  V30 15580 H 1492.39 3.61133 -3.50131 0
M  V30 15581 H 1492.09 2.90367 -5.10843 0
M  V30 15582 H 1493.61 3.78151 -4.7941 0
M  V30 15583 H 1495.03 1.62213 -5.49872 0
M  V30 15584 H 1493.42 0.955269 -5.92448 0
M  V30 15585 H 1494.49 0.038137 -4.84885 0
M  V30 15586 N 1495.84 1.56784 0.160173 0
M  V30 15587 C 1497.25 1.72193 0.721552 0
M  V30 15588 C 1497.6 0.725901 1.82278 0
M  V30 15589 O 1496.72 -0.110343 2.16118 0
M  V30 15590 C 1497.32 3.12212 1.31563 0
M  V30 15591 C 1495.88 3.29268 1.82371 0
M  V30 15592 C 1495.03 2.68136 0.70701 0
M  V30 15593 H 1497.98 1.58565 -0.0653521 0
M  V30 15594 H 1498 3.11481 2.1854 0
M  V30 15595 H 1497.51 3.84682 0.513917 0
M  V30 15596 H 1495.61 2.61774 2.65152 0
M  V30 15597 H 1495.72 4.37107 1.96149 0
M  V30 15598 H 1494.09 2.28246 1.1303 0
M  V30 15599 H 1494.87 3.432 -0.0830407 0
M  V30 15600 N 1497.32 -0.429099 1.51646 0
M  V30 15601 C 1498.56 -1.17644 1.65926 0
M  V30 15602 C 1498.92 -1.88715 0.374777 0
M  V30 15603 O 1498.21 -1.80952 -0.629842 0
M  V30 15604 C 1498.4 -2.2131 2.80636 0
M  V30 15605 C 1498.23 -1.60416 4.20115 0
M  V30 15606 C 1497 -1.38551 4.85934 0
M  V30 15607 C 1499.2 -1.07589 5.0292 0
M  V30 15608 N 1497.18 -0.733404 6.09503 0
M  V30 15609 C 1498.55 -0.549542 6.1756 0
M  V30 15610 C 1500.61 -0.968438 4.88391 0
M  V30 15611 C 1499.31 0.07371 7.19262 0
M  V30 15612 C 1501.34 -0.359068 5.90309 0
M  V30 15613 C 1500.7 0.156699 7.04226 0
M  V30 15614 H 1496.8 -0.417871 0.66099 0
M  V30 15615 H 1499.38 -0.471789 1.88897 0
M  V30 15616 H 1497.55 -2.89155 2.59314 0
M  V30 15617 H 1499.29 -2.88263 2.84054 0
M  V30 15618 H 1496.04 -1.64953 4.43945 0
M  V30 15619 H 1496.46 -0.424555 6.75667 0
M  V30 15620 H 1501.11 -1.35305 4.00565 0
M  V30 15621 H 1498.82 0.470433 8.0673 0
M  V30 15622 H 1502.41 -0.277718 5.81137 0
M  V30 15623 H 1501.29 0.62081 7.81739 0
M  V30 15624 N 1498.79 -1.41931 -0.685074 0
M  V30 15625 C 1500.04 -1.41852 -1.44514 0
M  V30 15626 C 1500.37 -0.0313137 -1.94475 0
M  V30 15627 O 1499.62 0.958606 -1.70614 0
M  V30 15628 C 1499.92 -2.38099 -2.6654 0
M  V30 15629 C 1499.59 -3.8471 -2.35178 0
M  V30 15630 C 1498.25 -4.24647 -2.26336 0
M  V30 15631 C 1500.6 -4.77232 -2.0952 0
M  V30 15632 C 1497.93 -5.55101 -1.89947 0
M  V30 15633 C 1500.28 -6.08017 -1.74638 0
M  V30 15634 C 1498.95 -6.46964 -1.64299 0
M  V30 15635 H 1498.22 -0.519072 -0.528815 0
M  V30 15636 H 1500.86 -1.74802 -0.782078 0
M  V30 15637 H 1499.17 -1.9844 -3.3783 0
M  V30 15638 H 1500.87 -2.35306 -3.24703 0
M  V30 15639 H 1497.46 -3.53085 -2.42959 0
M  V30 15640 H 1501.64 -4.47173 -2.1529 0
M  V30 15641 H 1496.9 -5.84148 -1.80503 0
M  V30 15642 H 1501.07 -6.79203 -1.53807 0
M  V30 15643 H 1498.7 -7.47959 -1.35871 0
M  V30 15644 N 1500.27 0.920374 -1.27933 0
M  V30 15645 C 1501.2 2.03882 -1.13817 0
M  V30 15646 C 1502.18 1.70058 -0.0376853 0
M  V30 15647 O 1503.37 1.93023 -0.213492 0
M  V30 15648 C 1500.5 3.38142 -0.792296 0
M  V30 15649 C 1499.45 3.86104 -1.84683 0
M  V30 15650 C 1498.78 5.17253 -1.35474 0
M  V30 15651 C 1500.08 4.0869 -3.25223 0
M  V30 15652 H 1501.77 2.15949 -2.07379 0
M  V30 15653 H 1499.32 1.03764 -0.998454 0
M  V30 15654 H 1501.27 4.15872 -0.680337 0
M  V30 15655 H 1499.99 3.26109 0.179029 0
M  V30 15656 H 1498.65 3.10573 -1.94782 0
M  V30 15657 H 1498.3 5.01618 -0.372666 0
M  V30 15658 H 1498 5.50314 -2.05982 0
M  V30 15659 H 1499.53 5.97545 -1.25587 0
M  V30 15660 H 1500.94 4.76965 -3.18083 0
M  V30 15661 H 1499.34 4.5307 -3.93507 0
M  V30 15662 H 1500.41 3.13729 -3.69733 0
M  V30 15663 N 1501.75 1.10074 1.1279 0
M  V30 15664 C 1502.7 0.740977 2.20482 0
M  V30 15665 C 1503.69 -0.261163 1.67375 0
M  V30 15666 O 1504.9 -0.121923 1.79587 0
M  V30 15667 H 1501.27 0.221666 0.718588 0
M  V30 15668 H 1503.24 1.65823 2.48083 0
M  V30 15669 C 1501.99 0.184934 3.47208 0
M  V30 15670 H 1501.32 0.947278 3.88416 0
M  V30 15671 H 1502.76 -0.0287769 4.2399 0
M  V30 15672 C 1501.21 -1.08145 3.19071 0
M  V30 15673 O 1501.74 -2.1636 3.38454 0
M  V30 15674 N 1499.95 -0.998609 2.72903 0
M  V30 15675 H 1499.5 -0.117906 2.5733 0
M  V30 15676 H 1499.46 -1.84664 2.54453 0
M  V30 15677 N 1503.23 -1.30138 0.888926 0
M  V30 15678 C 1504.5 -1.90831 0.42928 0
M  V30 15679 C 1504.88 -1.80765 -1.09028 0
M  V30 15680 O 1504.23 -1.22741 -1.92735 0
M  V30 15681 C 1504.44 -3.36331 0.931798 0
M  V30 15682 C 1505.79 -4.13393 0.969106 0
M  V30 15683 O 1506.81 -3.45191 0.878731 0
M  V30 15684 O 1505.67 -5.35249 1.10323 0
M  V30 15685 H 1502.77 -0.816401 0.131976 0
M  V30 15686 H 1505.31 -1.38678 0.978086 0
M  V30 15687 H 1504.09 -3.37761 1.97568 0
M  V30 15688 H 1503.71 -3.95945 0.362383 0
M  V30 15689 N 1504.71 -0.650285 -1.43559 0
M  V30 15690 C 1506.12 -0.317586 -1.56408 0
M  V30 15691 C 1506.32 1.17844 -1.63447 0
M  V30 15692 O 1505.38 1.96318 -1.58794 0
M  V30 15693 C 1506.69 -1.02636 -2.82642 0
M  V30 15694 C 1508.24 -1.00633 -2.96381 0
M  V30 15695 C 1508.71 -1.69595 -4.25443 0
M  V30 15696 N 1510.2 -1.66345 -4.323 0
M  V30 15697 C 1510.94 -2.16581 -5.30924 0
M  V30 15698 N 1510.44 -2.75092 -6.35843 0
M  V30 15699 N 1512.23 -2.07098 -5.22558 0
M  V30 15700 H 1504.38 -1.62114 -1.37233 0
M  V30 15701 H 1506.64 -0.681588 -0.658895 0
M  V30 15702 H 1506.35 -2.08146 -2.83493 0
M  V30 15703 H 1506.22 -0.576081 -3.72775 0
M  V30 15704 H 1508.61 0.0403519 -2.95072 0
M  V30 15705 H 1508.69 -1.49528 -2.07545 0
M  V30 15706 H 1508.33 -2.74218 -4.27512 0
M  V30 15707 H 1508.26 -1.18168 -5.1317 0
M  V30 15708 H 1510.76 -1.23644 -3.571 0
M  V30 15709 H 1511.07 -3.11108 -7.07412 0
M  V30 15710 H 1509.41 -2.79152 -6.36474 0
M  V30 15711 H 1512.6 -1.61093 -4.39507 0
M  V30 15712 H 1512.78 -2.46557 -5.99261 0
M  V30 15713 N 1506.18 1.52647 -0.392018 0
M  V30 15714 C 1507.59 1.86522 0.0814091 0
M  V30 15715 C 1507.95 1.31158 1.45918 0
M  V30 15716 O 1507.07 0.644007 2.06595 0
M  V30 15717 C 1507.67 3.38448 0.1545 0
M  V30 15718 C 1506.22 3.72025 0.572227 0
M  V30 15719 C 1505.37 2.7604 -0.264093 0
M  V30 15720 H 1508.32 1.46517 -0.609785 0
M  V30 15721 H 1508.34 3.67846 0.973109 0
M  V30 15722 H 1507.86 3.78713 -0.848396 0
M  V30 15723 H 1505.96 3.37329 1.58239 0
M  V30 15724 H 1506.07 4.77973 0.328491 0
M  V30 15725 H 1504.43 2.53254 0.271042 0
M  V30 15726 H 1505.22 3.19143 -1.26502 0
M  V30 15727 N 1507.66 0.121921 1.57128 0
M  V30 15728 C 1508.61 -0.844503 2.16728 0
M  V30 15729 C 1509.6 -1.2733 1.1173 0
M  V30 15730 O 1510.81 -1.2447 1.30028 0
M  V30 15731 H 1507.19 -0.290459 0.693641 0
M  V30 15732 H 1509.16 -0.317379 2.96707 0
M  V30 15733 C 1507.91 -2.08359 2.78356 0
M  V30 15734 H 1507.23 -1.76258 3.5885 0
M  V30 15735 H 1508.67 -2.73978 3.23592 0
M  V30 15736 C 1507.13 -2.87526 1.75586 0
M  V30 15737 O 1507.66 -3.83011 1.21101 0
M  V30 15738 N 1505.86 -2.51575 1.4546 0
M  V30 15739 H 1505.41 -1.73993 1.89958 0
M  V30 15740 H 1505.37 -3.0484 0.769411 0
M  V30 15741 N 1509.14 -1.56867 -0.151857 0
M  V30 15742 C 1510.39 -1.82273 -0.863689 0
M  V30 15743 C 1510.7 -0.702377 -1.82554 0
M  V30 15744 O 1511.91 -0.841903 -2.58117 0
M  V30 15745 C 1510.36 -3.23046 -1.58649 0
M  V30 15746 C 1509.97 -4.43003 -0.667292 0
M  V30 15747 C 1511.72 -3.57729 -2.28539 0
M  V30 15748 C 1509.62 -5.74798 -1.39144 0
M  V30 15749 H 1508.55 -0.679753 -0.326269 0
M  V30 15750 H 1511.2 -1.8313 -0.116454 0
M  V30 15751 H 1509.59 -3.16561 -2.37918 0
M  V30 15752 H 1510.76 -4.60712 0.0898254 0
M  V30 15753 H 1509.08 -4.16329 -0.0770521 0
M  V30 15754 H 1511.67 -4.53451 -2.83348 0
M  V30 15755 H 1512.02 -2.8355 -3.04803 0
M  V30 15756 H 1512.55 -3.65853 -1.56194 0
M  V30 15757 H 1509.29 -6.52059 -0.670747 0
M  V30 15758 H 1508.81 -5.61032 -2.12139 0
M  V30 15759 H 1510.49 -6.17429 -1.93367 0
M  V30 15760 N 1510.62 0.421051 -1.51871 0
M  V30 15761 C 1511.57 1.5122 -1.74359 0
M  V30 15762 C 1512.54 1.55432 -0.585667 0
M  V30 15763 O 1513.72 1.7219 -0.821912 0
M  V30 15764 C 1510.86 2.88787 -1.88935 0
M  V30 15765 C 1509.97 2.93977 -3.16546 0
M  V30 15766 C 1509.11 4.22768 -3.21622 0
M  V30 15767 C 1508.15 4.21888 -4.43483 0
M  V30 15768 N 1507.28 5.4223 -4.46017 0
M  V30 15769 H 1512.12 1.31348 -2.67492 0
M  V30 15770 H 1509.66 0.637779 -1.32555 0
M  V30 15771 H 1511.62 3.68629 -1.95368 0
M  V30 15772 H 1510.25 3.07181 -0.991942 0
M  V30 15773 H 1509.3 2.06699 -3.19343 0
M  V30 15774 H 1510.61 2.8919 -4.06412 0
M  V30 15775 H 1509.77 5.10995 -3.27061 0
M  V30 15776 H 1508.51 4.30234 -2.29674 0
M  V30 15777 H 1507.51 3.32052 -4.38202 0
M  V30 15778 H 1508.74 4.16072 -5.36713 0
M  V30 15779 H 1506.68 5.50386 -3.56947 0
M  V30 15780 H 1506.6 5.39389 -5.29713 0
M  V30 15781 H 1507.87 6.32443 -4.55671 0
M  V30 15782 N 1512.1 1.42293 0.677538 0
M  V30 15783 C 1513.34 1.44099 1.44965 0
M  V30 15784 C 1513.7 0.0545275 1.91923 0
M  V30 15785 O 1514.9 -0.0526718 2.68748 0
M  V30 15786 C 1513.17 2.43462 2.61651 0
M  V30 15787 S 1514.73 2.63947 3.50538 0
M  V30 15788 H 1511.55 0.51024 0.495153 0
M  V30 15789 H 1514.15 1.78874 0.788939 0
M  V30 15790 H 1512.86 3.42971 2.25387 0
M  V30 15791 H 1512.39 2.10102 3.32597 0
M  V30 15792 H 1514.4 1.92042 4.57531 0
M  V30 15793 N 1513.57 -0.913576 1.28419 0
M  V30 15794 C 1514.99 -1.47782 1.14094 0
M  V30 15795 C 1515.34 -1.94347 -0.269004 0
M  V30 15796 O 1514.46 -1.82474 -1.16328 0
M  V30 15797 C 1515.06 -2.6859 2.06507 0
M  V30 15798 C 1513.62 -3.21193 1.96245 0
M  V30 15799 C 1512.76 -1.939 1.98238 0
M  V30 15800 H 1515.71 -0.726271 1.41106 0
M  V30 15801 H 1515.73 -3.43858 1.62916 0
M  V30 15802 H 1515.25 -2.34668 3.09116 0
M  V30 15803 H 1513.35 -3.5984 0.966737 0
M  V30 15804 H 1513.46 -3.8643 2.83211 0
M  V30 15805 H 1511.82 -2.11006 1.42648 0
M  V30 15806 H 1512.61 -1.62273 3.02527 0
M  V30 15807 N 1515.05 -1.1067 -1.12204 0
M  V30 15808 C 1516 -0.757745 -2.18007 0
M  V30 15809 C 1516.97 0.26706 -1.63939 0
M  V30 15810 O 1518.15 0.145789 -1.90242 0
M  V30 15811 C 1515.29 -0.198379 -3.44529 0
M  V30 15812 C 1514.41 -1.27878 -4.12639 0
M  V30 15813 C 1513.54 -0.6808 -5.26819 0
M  V30 15814 C 1512.58 -1.74161 -5.868 0
M  V30 15815 N 1511.72 -1.16372 -6.92389 0
M  V30 15816 H 1516.56 -1.66418 -2.47202 0
M  V30 15817 H 1514.1 -0.831216 -1.21364 0
M  V30 15818 H 1516.05 0.143838 -4.16952 0
M  V30 15819 H 1514.68 0.671279 -3.15743 0
M  V30 15820 H 1513.74 -1.73808 -3.38371 0
M  V30 15821 H 1515.05 -2.08169 -4.53285 0
M  V30 15822 H 1514.2 -0.288172 -6.06015 0
M  V30 15823 H 1512.94 0.153521 -4.87458 0
M  V30 15824 H 1511.95 -2.14364 -5.06289 0
M  V30 15825 H 1513.17 -2.57882 -6.28231 0
M  V30 15826 H 1511.12 -0.350899 -6.55061 0
M  V30 15827 H 1511.03 -1.90344 -7.31646 0
M  V30 15828 H 1512.3 -0.797715 -7.75407 0
M  V30 15829 N 1516.53 1.29665 -0.895815 0
M  V30 15830 C 1517.78 1.9533 -0.518725 0
M  V30 15831 C 1518.1 1.70995 0.937322 0
M  V30 15832 O 1517.37 1.03955 1.66043 0
M  V30 15833 H 1515.95 0.722736 -0.188841 0
M  V30 15834 H 1518.61 1.57991 -1.14126 0
M  V30 15835 H 1517.71 3.04193 -0.698057 0
M  V30 15836 N 1518.01 0.657889 1.43212 0
M  V30 15837 C 1519.26 0.172845 2.0136 0
M  V30 15838 C 1519.58 -1.21911 1.52193 0
M  V30 15839 O 1518.85 -1.81529 0.736492 0
M  V30 15840 H 1517.43 0.0609091 0.744513 0
M  V30 15841 H 1520.09 0.850605 1.75359 0
M  V30 15842 H 1519.19 0.161062 3.11684 0
M  V30 15843 N 1519.49 -1.52437 0.400108 0
M  V30 15844 C 1520.42 -2.29672 -0.421054 0
M  V30 15845 C 1521.4 -1.33506 -1.05405 0
M  V30 15846 O 1522.58 -1.62408 -1.06477 0
M  V30 15847 C 1519.71 -3.1115 -1.54281 0
M  V30 15848 C 1518.67 -4.1529 -1.0353 0
M  V30 15849 C 1517.99 -4.85058 -2.24996 0
M  V30 15850 C 1519.29 -5.22212 -0.0956529 0
M  V30 15851 H 1520.99 -2.98565 0.2234 0
M  V30 15852 H 1518.53 -1.43588 0.108883 0
M  V30 15853 H 1520.49 -3.63945 -2.12419 0
M  V30 15854 H 1519.21 -2.4001 -2.21501 0
M  V30 15855 H 1517.87 -3.63492 -0.476383 0
M  V30 15856 H 1517.52 -4.10455 -2.9075 0
M  V30 15857 H 1517.22 -5.55452 -1.91694 0
M  V30 15858 H 1518.74 -5.40661 -2.83756 0
M  V30 15859 H 1520.15 -5.70302 -0.585548 0
M  V30 15860 H 1518.55 -5.99917 0.148121 0
M  V30 15861 H 1519.62 -4.77351 0.852296 0
M  V30 15862 N 1520.96 -0.130252 -1.57061 0
M  V30 15863 C 1521.93 0.801529 -2.14728 0
M  V30 15864 C 1522.93 1.18687 -1.08489 0
M  V30 15865 O 1524.12 1.11054 -1.34211 0
M  V30 15866 C 1521.25 2.08542 -2.69672 0
M  V30 15867 H 1522.44 0.300172 -2.98394 0
M  V30 15868 H 1520 0.119077 -1.55846 0
M  V30 15869 H 1520.73 2.63083 -1.89625 0
M  V30 15870 H 1520.52 1.81849 -3.47381 0
M  V30 15871 H 1522.01 2.75126 -3.14158 0
M  V30 15872 N 1522.44 1.56945 0.143535 0
M  V30 15873 C 1523.41 1.97616 1.16106 0
M  V30 15874 C 1524.41 0.863113 1.35672 0
M  V30 15875 O 1525.6 1.12966 1.32606 0
M  V30 15876 C 1522.73 2.29511 2.52067 0
M  V30 15877 H 1523.92 2.88696 0.812066 0
M  V30 15878 H 1521.47 1.51433 0.386999 0
M  V30 15879 H 1522.21 1.41233 2.91931 0
M  V30 15880 H 1521.99 3.10667 2.39225 0
M  V30 15881 H 1523.48 2.61802 3.25345 0
M  V30 15882 N 1523.92 -0.412991 1.52093 0
M  V30 15883 C 1525.15 -1.1804 1.69558 0
M  V30 15884 C 1525.56 -1.84858 0.403007 0
M  V30 15885 O 1524.9 -1.72541 -0.630506 0
M  V30 15886 C 1524.96 -2.28876 2.7723 0
M  V30 15887 C 1524.63 -1.82226 4.19098 0
M  V30 15888 C 1525.63 -1.31216 5.03069 0
M  V30 15889 C 1523.31 -1.89177 4.65314 0
M  V30 15890 C 1525.3 -0.877743 6.31328 0
M  V30 15891 C 1522.99 -1.45347 5.93563 0
M  V30 15892 C 1523.99 -0.947302 6.76399 0
M  V30 15893 O 1523.68 -0.515315 8.02247 0
M  V30 15894 H 1523.41 -0.360882 0.571612 0
M  V30 15895 H 1525.96 -0.492521 1.99408 0
M  V30 15896 H 1524.19 -3.01015 2.42748 0
M  V30 15897 H 1525.88 -2.9065 2.83333 0
M  V30 15898 H 1526.65 -1.25221 4.68556 0
M  V30 15899 H 1522.53 -2.27518 4.00945 0
M  V30 15900 H 1526.07 -0.481977 6.95933 0
M  V30 15901 H 1521.97 -1.51019 6.27585 0
M  V30 15902 H 1522.74 -0.638973 8.16002 0
M  V30 15903 N 1525.4 -1.4265 -0.669982 0
M  V30 15904 C 1526.62 -1.46992 -1.46315 0
M  V30 15905 C 1527.05 -0.0840655 -1.87912 0
M  V30 15906 O 1526.41 0.918554 -1.56308 0
M  V30 15907 C 1526.46 -2.40663 -2.6854 0
M  V30 15908 O 1525.56 -1.88132 -3.66988 0
M  V30 15909 H 1524.9 -0.497844 -0.439372 0
M  V30 15910 H 1527.43 -1.8739 -0.821348 0
M  V30 15911 H 1527.44 -2.57405 -3.16554 0
M  V30 15912 H 1526.12 -3.41346 -2.37604 0
M  V30 15913 H 1524.69 -1.80969 -3.26044 0
M  V30 15914 N 1526.88 0.906753 -1.28902 0
M  V30 15915 C 1528.11 1.69019 -1.19333 0
M  V30 15916 C 1528.52 1.87176 0.247065 0
M  V30 15917 O 1527.88 1.40376 1.16623 0
M  V30 15918 C 1527.93 3.07854 -1.89495 0
M  V30 15919 O 1527.65 2.90531 -3.27908 0
M  V30 15920 C 1529.15 4.02246 -1.86314 0
M  V30 15921 H 1526.37 0.528119 -0.413922 0
M  V30 15922 H 1528.91 1.13441 -1.70151 0
M  V30 15923 H 1527.07 3.60228 -1.42529 0
M  V30 15924 H 1527.48 3.78451 -3.63146 0
M  V30 15925 H 1528.96 4.97104 -2.39983 0
M  V30 15926 H 1529.43 4.31149 -0.837071 0
M  V30 15927 H 1530.04 3.55803 -2.3299 0
M  V30 15928 N 1528.36 1.11264 1.11616 0
M  V30 15929 C 1529.58 0.88306 1.87661 0
M  V30 15930 C 1530.01 -0.561586 1.79521 0
M  V30 15931 O 1529.36 -1.3964 1.1563 0
M  V30 15932 C 1529.41 1.34698 3.34498 0
M  V30 15933 O 1528.52 0.517512 4.0914 0
M  V30 15934 H 1527.86 0.318233 0.582772 0
M  V30 15935 H 1530.39 1.48164 1.41098 0
M  V30 15936 H 1530.4 1.34068 3.85344 0
M  V30 15937 H 1529.07 2.39896 3.39739 0
M  V30 15938 H 1527.65 0.589751 3.68207 0
M  V30 15939 N 1529.83 -1.29188 0.902679 0
M  V30 15940 C 1531.08 -1.95727 0.530909 0
M  V30 15941 C 1531.41 -1.70971 -0.921014 0
M  V30 15942 O 1530.69 -1.02436 -1.65339 0
M  V30 15943 C 1530.97 -3.50463 0.827523 0
M  V30 15944 C 1530.82 -3.84665 2.33137 0
M  V30 15945 C 1532.14 -4.38964 0.316053 0
M  V30 15946 H 1529.26 -0.71091 0.194361 0
M  V30 15947 H 1531.9 -1.52752 1.1299 0
M  V30 15948 H 1530.05 -3.87199 0.317732 0
M  V30 15949 H 1531.73 -3.57859 2.91093 0
M  V30 15950 H 1529.97 -3.32102 2.79088 0
M  V30 15951 H 1530.64 -4.92676 2.48947 0
M  V30 15952 H 1533.12 -4.09237 0.75262 0
M  V30 15953 H 1531.99 -5.4611 0.552769 0
M  V30 15954 H 1532.25 -4.35105 -0.783329 0
M  V30 15955 N 1531.31 -0.665475 -1.42861 0
M  V30 15956 C 1532.26 0.030395 -2.3258 0
M  V30 15957 C 1533.25 0.800329 -1.49302 0
M  V30 15958 O 1534.46 0.709346 -1.65434 0
M  V30 15959 H 1530.83 0.0286201 -0.751455 0
M  V30 15960 H 1532.81 -0.743838 -2.8898 0
M  V30 15961 C 1531.55 0.974474 -3.33765 0
M  V30 15962 H 1530.88 0.391447 -3.97879 0
M  V30 15963 H 1532.32 1.43023 -3.99149 0
M  V30 15964 C 1530.78 2.0764 -2.65306 0
M  V30 15965 O 1531.31 3.16172 -2.47787 0
M  V30 15966 N 1529.51 1.84544 -2.24481 0
M  V30 15967 H 1529.06 0.962826 -2.3893 0
M  V30 15968 H 1529.02 2.58464 -1.79007 0
M  V30 15969 N 1532.79 1.52222 -0.408187 0
M  V30 15970 C 1533.72 2.29892 0.408868 0
M  V30 15971 C 1534.7 1.34063 1.04695 0
M  V30 15972 O 1535.89 1.6297 1.05615 0
M  V30 15973 C 1533.02 3.11964 1.52629 0
M  V30 15974 C 1531.97 4.15833 1.01326 0
M  V30 15975 C 1531.3 4.86244 2.2242 0
M  V30 15976 C 1532.6 5.22256 0.0679573 0
M  V30 15977 H 1534.29 2.98443 -0.23923 0
M  V30 15978 H 1531.84 1.43528 -0.116496 0
M  V30 15979 H 1533.79 3.65067 2.10486 0
M  V30 15980 H 1532.51 2.41181 2.20225 0
M  V30 15981 H 1531.17 3.63739 0.4571 0
M  V30 15982 H 1530.82 4.11991 2.88569 0
M  V30 15983 H 1530.52 5.56461 1.88746 0
M  V30 15984 H 1532.04 5.42159 2.80885 0
M  V30 15985 H 1533.46 5.70604 0.555295 0
M  V30 15986 H 1531.85 5.9983 -0.179934 0
M  V30 15987 H 1532.92 4.76892 -0.877599 0
M  V30 15988 N 1534.27 0.138579 1.5699 0
M  V30 15989 C 1535.5 -0.521806 2.00212 0
M  V30 15990 C 1535.91 -1.58967 1.01857 0
M  V30 15991 O 1535.27 -1.82494 0.0143099 0
M  V30 15992 C 1535.32 -1.13014 3.4338 0
M  V30 15993 O 1535.04 -0.104938 4.37974 0
M  V30 15994 C 1536.54 -1.87195 4.01837 0
M  V30 15995 H 1533.76 -0.136564 0.656956 0
M  V30 15996 H 1536.3 0.230685 2.03195 0
M  V30 15997 H 1534.46 -1.8333 3.41275 0
M  V30 15998 H 1534.87 -0.54948 5.21614 0
M  V30 15999 H 1536.35 -2.25061 5.04035 0
M  V30 16000 H 1536.82 -2.75467 3.42074 0
M  V30 16001 H 1537.43 -1.21597 4.07547 0
M  V30 16002 N 1535.75 -1.57019 -0.13521 0
M  V30 16003 C 1536.97 -1.88528 -0.864399 0
M  V30 16004 C 1537.4 -0.728852 -1.73405 0
M  V30 16005 O 1536.75 0.321196 -1.78432 0
M  V30 16006 C 1536.8 -3.18694 -1.6872 0
M  V30 16007 O 1535.91 -3.03458 -2.79262 0
M  V30 16008 H 1535.25 -0.61909 -0.24005 0
M  V30 16009 H 1537.78 -2.04233 -0.12248 0
M  V30 16010 H 1537.79 -3.51011 -2.0798 0
M  V30 16011 H 1536.46 -4.02462 -1.04868 0
M  V30 16012 H 1535.04 -2.82575 -2.43323 0
M  V30 16013 N 1537.22 0.404919 -1.52309 0
M  V30 16014 C 1538.5 1.16473 -1.57142 0
M  V30 16015 C 1538.88 2.08094 -0.354967 0
M  V30 16016 O 1538.23 2.18825 0.65788 0
M  V30 16017 C 1538.44 1.93834 -2.90223 0
M  V30 16018 C 1539.79 2.49754 -3.43378 0
M  V30 16019 O 1540.81 2.04009 -2.91991 0
M  V30 16020 O 1539.67 3.33271 -4.3312 0
M  V30 16021 H 1536.76 0.532036 -0.633141 0
M  V30 16022 H 1539.31 0.411359 -1.64639 0
M  V30 16023 H 1538.08 1.2674 -3.70206 0
M  V30 16024 H 1537.71 2.76167 -2.86038 0
M  V30 16025 N 1538.7 1.43003 0.662408 0
M  V30 16026 C 1539.95 1.43848 1.41958 0
M  V30 16027 C 1540.27 0.06046 1.94906 0
M  V30 16028 O 1539.54 -0.90287 1.73854 0
M  V30 16029 H 1538.12 0.529587 0.526827 0
M  V30 16030 H 1540.78 1.7853 0.781867 0
M  V30 16031 H 1539.88 2.14562 2.26649 0
M  V30 16032 N 1540.18 -0.899904 1.29381 0
M  V30 16033 C 1541.11 -2.00914 1.103 0
M  V30 16034 C 1542.13 -1.62721 0.050568 0
M  V30 16035 O 1543.31 -1.76044 0.295068 0
M  V30 16036 C 1540.41 -3.32473 0.656896 0
M  V30 16037 C 1539.59 -3.99195 1.7878 0
M  V30 16038 C 1538.65 -5.09043 1.33274 0
M  V30 16039 O 1537.67 -5.31486 2.03742 0
M  V30 16040 N 1538.87 -5.80143 0.203519 0
M  V30 16041 H 1541.64 -2.17838 2.05832 0
M  V30 16042 H 1539.2 -1.07208 1.21318 0
M  V30 16043 H 1541.19 -4.03305 0.335783 0
M  V30 16044 H 1539.76 -3.11921 -0.205959 0
M  V30 16045 H 1538.98 -3.21729 2.2778 0
M  V30 16046 H 1540.27 -4.40515 2.54606 0
M  V30 16047 H 1539.67 -5.64395 -0.384005 0
M  V30 16048 H 1538.23 -6.51774 -0.0582282 0
M  V30 16049 N 1541.66 -1.11854 -1.11024 0
M  V30 16050 C 1542.9 -0.871362 -1.83126 0
M  V30 16051 C 1543.24 0.601437 -1.84652 0
M  V30 16052 O 1542.51 1.44427 -1.30273 0
M  V30 16053 C 1542.8 -1.4391 -3.30094 0
M  V30 16054 C 1542.65 -2.97983 -3.36937 0
M  V30 16055 C 1543.97 -1.09361 -4.26296 0
M  V30 16056 H 1541.09 -0.317994 -0.664867 0
M  V30 16057 H 1543.73 -1.38414 -1.3016 0
M  V30 16058 H 1541.88 -1.00297 -3.7533 0
M  V30 16059 H 1543.55 -3.50231 -3.00227 0
M  V30 16060 H 1541.79 -3.33827 -2.77023 0
M  V30 16061 H 1542.46 -3.32797 -4.40398 0
M  V30 16062 H 1544.94 -1.47018 -3.89262 0
M  V30 16063 H 1543.82 -1.51756 -5.27505 0
M  V30 16064 H 1544.08 -0.0049637 -4.421 0
M  V30 16065 N 1543.14 1.28707 -0.909517 0
M  V30 16066 C 1544.07 2.29845 -0.411552 0
M  V30 16067 C 1545.05 1.62001 0.518615 0
M  V30 16068 O 1546.23 1.89442 0.427252 0
M  V30 16069 C 1543.36 3.45501 0.353013 0
M  V30 16070 C 1542.32 4.25213 -0.487625 0
M  V30 16071 C 1541.64 5.33164 0.405026 0
M  V30 16072 C 1542.94 4.9237 -1.74268 0
M  V30 16073 H 1544.64 2.71746 -1.25676 0
M  V30 16074 H 1542.18 1.30639 -0.605759 0
M  V30 16075 H 1544.14 4.15338 0.712191 0
M  V30 16076 H 1542.86 3.02469 1.23209 0
M  V30 16077 H 1541.52 3.57098 -0.829265 0
M  V30 16078 H 1541.17 4.86375 1.28252 0
M  V30 16079 H 1540.87 5.87399 -0.153811 0
M  V30 16080 H 1542.39 6.0585 0.760179 0
M  V30 16081 H 1543.8 5.5459 -1.45266 0
M  V30 16082 H 1542.2 5.56581 -2.2436 0
M  V30 16083 H 1543.27 4.171 -2.47297 0
M  V30 16084 N 1544.61 0.673042 1.42506 0
M  V30 16085 C 1545.89 0.123606 1.95209 0
M  V30 16086 C 1546.27 -1.36118 1.61354 0
M  V30 16087 O 1545.62 -2.0965 0.908793 0
M  V30 16088 C 1545.83 0.39088 3.46804 0
M  V30 16089 C 1547.18 0.306445 4.23493 0
M  V30 16090 O 1548.2 0.32453 3.54719 0
M  V30 16091 O 1547.06 0.247127 5.45941 0
M  V30 16092 H 1544.15 0.00184868 0.826998 0
M  V30 16093 H 1546.7 0.74765 1.52343 0
M  V30 16094 H 1545.47 1.41951 3.64645 0
M  V30 16095 H 1545.1 -0.265259 3.96714 0
M  V30 16096 N 1546.09 -1.52004 0.416254 0
M  V30 16097 C 1547.32 -2.06307 -0.156491 0
M  V30 16098 C 1547.74 -1.28567 -1.3826 0
M  V30 16099 O 1547.09 -0.339447 -1.79315 0
M  V30 16100 C 1547.14 -3.58028 -0.499824 0
M  V30 16101 O 1546.86 -4.32828 0.677602 0
M  V30 16102 C 1548.37 -4.28773 -1.12553 0
M  V30 16103 H 1545.59 -0.670778 -0.0172483 0
M  V30 16104 H 1548.13 -1.95826 0.589262 0
M  V30 16105 H 1546.28 -3.68493 -1.19547 0
M  V30 16106 H 1546.7 -5.23053 0.389302 0
M  V30 16107 H 1548.17 -5.36085 -1.31592 0
M  V30 16108 H 1548.65 -3.85706 -2.10066 0
M  V30 16109 H 1549.26 -4.22696 -0.469881 0
M  V30 16110 N 1547.57 -0.146903 -1.56914 0
M  V30 16111 C 1548.82 0.504981 -1.96412 0
M  V30 16112 C 1549.15 1.64522 -1.0318 0
M  V30 16113 O 1548.42 1.94359 -0.0741728 0
M  V30 16114 C 1548.71 1.01125 -3.45609 0
M  V30 16115 C 1548.56 -0.127493 -4.49619 0
M  V30 16116 C 1549.88 1.89306 -3.97305 0
M  V30 16117 H 1547 0.182088 -0.714152 0
M  V30 16118 H 1549.64 -0.22811 -1.88626 0
M  V30 16119 H 1547.79 1.63595 -3.52376 0
M  V30 16120 H 1549.46 -0.763829 -4.54932 0
M  V30 16121 H 1547.71 -0.786649 -4.26608 0
M  V30 16122 H 1548.38 0.268453 -5.51347 0
M  V30 16123 H 1550.85 1.36664 -3.93017 0
M  V30 16124 H 1549.73 2.21638 -5.02163 0
M  V30 16125 H 1549.99 2.82996 -3.39655 0
M  V30 16126 N 1549.05 1.57088 0.126881 0
M  V30 16127 C 1550.01 1.98836 1.14003 0
M  V30 16128 C 1551.01 0.877454 1.34749 0
M  V30 16129 O 1552.2 1.14366 1.314 0
M  V30 16130 C 1549.33 2.32171 2.49618 0
M  V30 16131 H 1550.53 2.89541 0.7814 0
M  V30 16132 H 1548.08 1.51835 0.370915 0
M  V30 16133 H 1548.81 1.44321 2.90417 0
M  V30 16134 H 1548.6 3.13187 2.35916 0
M  V30 16135 H 1550.09 2.65238 3.2255 0
M  V30 16136 N 1550.53 -0.396836 1.52522 0
M  V30 16137 C 1551.78 -1.13978 1.66409 0
M  V30 16138 C 1552.09 -1.91333 0.406326 0
M  V30 16139 O 1553.29 -2.6815 0.425195 0
M  V30 16140 C 1551.75 -2.07512 2.94052 0
M  V30 16141 C 1551.36 -1.35616 4.2698 0
M  V30 16142 C 1553.1 -2.8199 3.17304 0
M  V30 16143 C 1551.01 -2.2787 5.45737 0
M  V30 16144 H 1549.94 -0.429181 0.619935 0
M  V30 16145 H 1552.59 -0.403207 1.79015 0
M  V30 16146 H 1550.97 -2.84773 2.75174 0
M  V30 16147 H 1552.15 -0.636349 4.56385 0
M  V30 16148 H 1550.46 -0.731297 4.09928 0
M  V30 16149 H 1553.06 -3.5118 4.03208 0
M  V30 16150 H 1553.4 -3.45629 2.32048 0
M  V30 16151 H 1553.93 -2.11824 3.36712 0
M  V30 16152 H 1550.67 -1.68858 6.33378 0
M  V30 16153 H 1550.19 -2.97789 5.20655 0
M  V30 16154 H 1551.87 -2.88126 5.79303 0
M  V30 16155 N 1552.01 -1.43353 -0.654814 0
M  V30 16156 C 1552.94 -1.51194 -1.7794 0
M  V30 16157 C 1553.92 -0.366747 -1.66099 0
M  V30 16158 O 1555.1 -0.58375 -1.85219 0
M  V30 16159 C 1552.23 -1.43298 -3.16359 0
M  V30 16160 C 1551.19 -2.5605 -3.42961 0
M  V30 16161 C 1550.51 -2.33208 -4.81163 0
M  V30 16162 C 1551.81 -3.98303 -3.37864 0
M  V30 16163 H 1553.51 -2.4532 -1.71635 0
M  V30 16164 H 1551.05 -1.18072 -0.824319 0
M  V30 16165 H 1553 -1.47388 -3.94784 0
M  V30 16166 H 1551.73 -0.456761 -3.2339 0
M  V30 16167 H 1550.39 -2.5131 -2.66906 0
M  V30 16168 H 1550.04 -1.33833 -4.84869 0
M  V30 16169 H 1549.74 -3.08789 -4.99923 0
M  V30 16170 H 1551.26 -2.39079 -5.61848 0
M  V30 16171 H 1552.67 -4.04538 -4.06229 0
M  V30 16172 H 1551.07 -4.73897 -3.6816 0
M  V30 16173 H 1552.14 -4.23552 -2.36075 0
M  V30 16174 N 1553.48 0.89303 -1.29857 0
M  V30 16175 C 1554.71 1.6827 -1.21243 0
M  V30 16176 C 1555.13 1.86778 0.222621 0
M  V30 16177 O 1554.49 1.39291 1.1605 0
M  V30 16178 C 1554.54 3.041 -1.93792 0
M  V30 16179 O 1553.64 3.92696 -1.25951 0
M  V30 16180 H 1552.98 0.514479 -0.419771 0
M  V30 16181 H 1555.51 1.11513 -1.7154 0
M  V30 16182 H 1555.52 3.54198 -2.02504 0
M  V30 16183 H 1554.2 2.89948 -2.98166 0
M  V30 16184 H 1552.78 3.51132 -1.25541 0
M  V30 16185 N 1554.96 1.12442 1.10429 0
M  V30 16186 C 1556.37 0.894147 1.63896 0
M  V30 16187 C 1556.72 -0.571509 1.87692 0
M  V30 16188 O 1555.85 -1.43595 1.61893 0
M  V30 16189 C 1556.44 1.61664 2.97742 0
M  V30 16190 C 1555 1.43251 3.48075 0
M  V30 16191 C 1554.15 1.65252 2.22682 0
M  V30 16192 H 1557.1 1.27918 0.939289 0
M  V30 16193 H 1557.12 1.06771 3.65213 0
M  V30 16194 H 1556.63 2.68333 2.80391 0
M  V30 16195 H 1554.73 0.388385 3.7057 0
M  V30 16196 H 1554.85 2.18866 4.26186 0
M  V30 16197 H 1553.21 1.07663 2.30827 0
M  V30 16198 H 1553.99 2.73219 2.07862 0
M  V30 16199 N 1556.44 -1.28223 0.91633 0
M  V30 16200 C 1557.86 -1.47281 0.614864 0
M  V30 16201 C 1558.06 -1.83197 -0.839111 0
M  V30 16202 O 1557.11 -1.9385 -1.61798 0
M  V30 16203 C 1558.42 -2.57373 1.55498 0
M  V30 16204 C 1559.97 -2.71241 1.56197 0
M  V30 16205 C 1560.45 -3.84479 2.48877 0
M  V30 16206 N 1561.94 -3.91837 2.47019 0
M  V30 16207 C 1562.67 -4.78846 3.15427 0
M  V30 16208 N 1562.17 -5.70427 3.93173 0
M  V30 16209 N 1563.96 -4.72478 3.04501 0
M  V30 16210 H 1556.11 -1.03191 1.85649 0
M  V30 16211 H 1558.38 -0.514213 0.796422 0
M  V30 16212 H 1558.08 -2.37747 2.5917 0
M  V30 16213 H 1557.96 -3.54527 1.28803 0
M  V30 16214 H 1560.34 -2.90254 0.532619 0
M  V30 16215 H 1560.42 -1.74609 1.86937 0
M  V30 16216 H 1560.07 -3.6622 3.51916 0
M  V30 16217 H 1560 -4.80514 2.15439 0
M  V30 16218 H 1562.49 -3.26344 1.90546 0
M  V30 16219 H 1562.8 -6.33653 4.42384 0
M  V30 16220 H 1561.15 -5.70259 3.97278 0
M  V30 16221 H 1564.34 -3.99925 2.43265 0
M  V30 16222 H 1564.51 -5.40073 3.58086 0
M  V30 16223 N 1557.92 -0.68059 -1.42147 0
M  V30 16224 C 1558.85 -0.0199376 -2.33491 0
M  V30 16225 C 1559.83 0.783164 -1.50999 0
M  V30 16226 O 1561.01 0.739154 -1.79583 0
M  V30 16227 C 1558.14 0.927902 -3.34675 0
M  V30 16228 C 1557.1 0.232979 -4.27365 0
M  V30 16229 C 1556.42 1.29415 -5.18802 0
M  V30 16230 C 1557.72 -0.891559 -5.14634 0
M  V30 16231 H 1559.42 -0.782823 -2.88985 0
M  V30 16232 H 1556.96 -0.377898 -1.38953 0
M  V30 16233 H 1558.92 1.3992 -3.97493 0
M  V30 16234 H 1557.64 1.72228 -2.77498 0
M  V30 16235 H 1556.3 -0.21814 -3.6595 0
M  V30 16236 H 1555.95 2.08067 -4.57949 0
M  V30 16237 H 1555.65 0.834274 -5.81647 0
M  V30 16238 H 1557.17 1.76627 -5.84496 0
M  V30 16239 H 1558.59 -0.501219 -5.71105 0
M  V30 16240 H 1556.98 -1.27759 -5.86343 0
M  V30 16241 H 1558.05 -1.73781 -4.5269 0
M  V30 16242 N 1559.4 1.51781 -0.424309 0
M  V30 16243 C 1560.31 2.31162 0.40015 0
M  V30 16244 C 1561.32 1.39523 1.03969 0
M  V30 16245 O 1562.5 1.72597 1.0379 0
M  V30 16246 C 1559.56 3.12875 1.49366 0
M  V30 16247 C 1558.62 4.20275 0.875616 0
M  V30 16248 C 1557.86 4.98082 1.91702 0
M  V30 16249 O 1558.08 4.76365 3.13739 0
M  V30 16250 O 1557.01 5.82527 1.5148 0
M  V30 16251 H 1560.84 3.0269 -0.247529 0
M  V30 16252 H 1558.42 1.48223 -0.187146 0
M  V30 16253 H 1560.31 3.63714 2.12815 0
M  V30 16254 H 1558.98 2.44125 2.12567 0
M  V30 16255 H 1557.89 3.73546 0.203429 0
M  V30 16256 H 1559.22 4.91361 0.287306 0
M  V30 16257 N 1560.87 0.155222 1.56834 0
M  V30 16258 C 1562.1 -0.499816 2.00463 0
M  V30 16259 C 1562.51 -1.58419 1.0344 0
M  V30 16260 O 1561.85 -1.83683 0.0247026 0
M  V30 16261 C 1561.92 -1.15251 3.40525 0
M  V30 16262 C 1561.58 -0.211738 4.56509 0
M  V30 16263 C 1562.58 0.563768 5.16834 0
M  V30 16264 C 1560.26 -0.112248 5.02175 0
M  V30 16265 C 1562.26 1.42613 6.21241 0
M  V30 16266 C 1559.94 0.753709 6.06434 0
M  V30 16267 C 1560.94 1.52149 6.65837 0
M  V30 16268 O 1560.63 2.37301 7.68078 0
M  V30 16269 H 1560.36 -0.133869 0.662612 0
M  V30 16270 H 1562.92 0.249256 2.03882 0
M  V30 16271 H 1561.15 -1.94939 3.3397 0
M  V30 16272 H 1562.83 -1.70811 3.6821 0
M  V30 16273 H 1563.6 0.496985 4.82447 0
M  V30 16274 H 1559.48 -0.699614 4.5566 0
M  V30 16275 H 1563.02 2.02587 6.67536 0
M  V30 16276 H 1558.92 0.821753 6.40248 0
M  V30 16277 H 1559.69 2.30639 7.85333 0
M  V30 16278 N 1562.35 -1.57153 -0.118549 0
M  V30 16279 C 1563.58 -1.89434 -0.844355 0
M  V30 16280 C 1564 -0.747203 -1.72622 0
M  V30 16281 O 1563.36 0.302252 -1.78763 0
M  V30 16282 C 1563.41 -3.20466 -1.65331 0
M  V30 16283 O 1562.51 -3.06403 -2.76027 0
M  V30 16284 H 1561.85 -0.621601 -0.23347 0
M  V30 16285 H 1564.38 -2.04351 -0.100811 0
M  V30 16286 H 1564.39 -3.53197 -2.04245 0
M  V30 16287 H 1563.07 -4.03551 -1.00594 0
M  V30 16288 H 1561.64 -2.85139 -2.40312 0
M  V30 16289 N 1563.83 0.388742 -1.5273 0
M  V30 16290 C 1565.08 1.13151 -1.67455 0
M  V30 16291 C 1565.4 1.90487 -0.417095 0
M  V30 16292 O 1564.67 1.87469 0.568509 0
M  V30 16293 H 1563.25 0.4207 -0.617269 0
M  V30 16294 H 1565.91 0.44098 -1.89846 0
M  V30 16295 H 1565.01 1.83427 -2.52509 0
M  V30 16296 N 1565.31 1.43698 0.647203 0
M  V30 16297 C 1566.54 1.49085 1.43462 0
M  V30 16298 C 1566.95 0.110605 1.88476 0
M  V30 16299 O 1566.31 -0.880365 1.59862 0
M  V30 16300 C 1566.36 2.44186 2.66562 0
M  V30 16301 O 1566.08 3.76844 2.23429 0
M  V30 16302 C 1567.58 2.58876 3.59858 0
M  V30 16303 H 1564.8 0.506148 0.440517 0
M  V30 16304 H 1567.34 1.88502 0.792931 0
M  V30 16305 H 1565.5 2.07949 3.26858 0
M  V30 16306 H 1565.91 4.2804 3.0312 0
M  V30 16307 H 1567.39 3.29482 4.42883 0
M  V30 16308 H 1567.86 1.63567 4.07606 0
M  V30 16309 H 1568.47 2.95949 3.05441 0
M  V30 16310 N 1566.79 -0.886131 1.30328 0
M  V30 16311 C 1568.04 -1.63255 1.18451 0
M  V30 16312 C 1568.35 -1.93864 -0.260016 0
M  V30 16313 O 1569.55 -2.66851 -0.500288 0
M  V30 16314 C 1568.01 -2.94232 2.07257 0
M  V30 16315 C 1567.62 -2.71168 3.56612 0
M  V30 16316 C 1569.36 -3.72193 2.04139 0
M  V30 16317 C 1567.27 -3.97954 4.37478 0
M  V30 16318 H 1566.2 -0.612491 0.439739 0
M  V30 16319 H 1568.85 -0.981129 1.55068 0
M  V30 16320 H 1567.23 -3.60661 1.63522 0
M  V30 16321 H 1568.41 -2.13247 4.08488 0
M  V30 16322 H 1566.72 -2.06584 3.61541 0
M  V30 16323 H 1569.32 -4.66219 2.61809 0
M  V30 16324 H 1569.66 -4.03495 1.02459 0
M  V30 16325 H 1570.19 -3.12624 2.45989 0
M  V30 16326 H 1566.93 -3.71811 5.39849 0
M  V30 16327 H 1566.45 -4.55384 3.90366 0
M  V30 16328 H 1568.13 -4.65984 4.48852 0
M  V30 16329 N 1568.26 -1.13026 -1.09832 0
M  V30 16330 C 1569.49 -0.912803 -1.86233 0
M  V30 16331 C 1569.91 0.532955 -1.80392 0
M  V30 16332 O 1569.27 1.37783 -1.17837 0
M  V30 16333 C 1569.32 -1.40002 -3.32313 0
M  V30 16334 O 1568.42 -0.582537 -4.08265 0
M  V30 16335 H 1567.77 -0.327464 -0.577636 0
M  V30 16336 H 1570.3 -1.5039 -1.38723 0
M  V30 16337 H 1570.31 -1.40182 -3.83162 0
M  V30 16338 H 1568.98 -2.4527 -3.3588 0
M  V30 16339 H 1567.56 -0.648255 -3.67222 0
M  V30 16340 N 1569.74 1.27735 -0.923117 0
M  V30 16341 C 1570.71 2.25256 -0.423375 0
M  V30 16342 C 1571.71 1.54213 0.455517 0
M  V30 16343 O 1572.9 1.7229 0.257245 0
M  V30 16344 C 1570.03 3.3864 0.391897 0
M  V30 16345 H 1571.22 2.70978 -1.28495 0
M  V30 16346 H 1568.77 1.39579 -0.703378 0
M  V30 16347 H 1569.51 2.98293 1.27248 0
M  V30 16348 H 1569.29 3.91376 -0.238194 0
M  V30 16349 H 1570.78 4.11133 0.732069 0
M  V30 16350 N 1571.22 0.688118 1.41784 0
M  V30 16351 C 1572.17 -0.00492036 2.27999 0
M  V30 16352 C 1573.15 -0.760299 1.41804 0
M  V30 16353 O 1574.35 -0.637019 1.6514 0
M  V30 16354 C 1571.48 -0.945951 3.3001 0
M  V30 16355 C 1570.56 -0.187213 4.23687 0
M  V30 16356 N 1570.95 0.815028 4.9919 0
M  V30 16357 C 1569.25 -0.423765 4.43982 0
M  V30 16358 C 1569.95 1.26854 5.677 0
M  V30 16359 N 1568.93 0.595901 5.40324 0
M  V30 16360 H 1572.73 0.763628 2.83806 0
M  V30 16361 H 1570.24 0.518314 1.53907 0
M  V30 16362 H 1572.24 -1.45754 3.90591 0
M  V30 16363 H 1570.9 -1.71418 2.75764 0
M  V30 16364 H 1571.91 1.19502 5.03924 0
M  V30 16365 H 1568.59 -1.17046 4.00757 0
M  V30 16366 H 1569.98 2.0998 6.38246 0
M  V30 16367 N 1572.7 -1.51554 0.432352 0
M  V30 16368 C 1573.94 -2.03954 -0.135014 0
M  V30 16369 C 1574.3 -1.30972 -1.40393 0
M  V30 16370 O 1575.5 -1.73719 -2.05122 0
M  V30 16371 C 1573.77 -3.55646 -0.35361 0
M  V30 16372 S 1575.33 -4.29781 -0.885096 0
M  V30 16373 H 1572.15 -0.710178 -0.0341871 0
M  V30 16374 H 1574.75 -1.86365 0.590612 0
M  V30 16375 H 1573.46 -4.06333 0.576335 0
M  V30 16376 H 1572.99 -3.7752 -1.10646 0
M  V30 16377 H 1575 -4.46564 -2.16322 0
M  V30 16378 N 1574.18 -0.163538 -1.56749 0
M  V30 16379 C 1575.12 0.786745 -2.18891 0
M  V30 16380 C 1576.12 1.24323 -1.15066 0
M  V30 16381 O 1577.32 1.20979 -1.33282 0
M  V30 16382 H 1573.7 0.271967 -0.701098 0
M  V30 16383 H 1575.67 0.2386 -2.97445 0
M  V30 16384 C 1574.42 2.00905 -2.83782 0
M  V30 16385 H 1573.74 1.66681 -3.63397 0
M  V30 16386 H 1575.18 2.65302 -3.30743 0
M  V30 16387 C 1573.64 2.8277 -1.83148 0
M  V30 16388 O 1574.17 3.79666 -1.31213 0
M  V30 16389 N 1572.38 2.47629 -1.52079 0
M  V30 16390 H 1571.92 1.68896 -1.94504 0
M  V30 16391 H 1571.88 3.02693 -0.849963 0
M  V30 16392 N 1575.65 1.57214 0.110213 0
M  V30 16393 C 1576.58 2.04015 1.13579 0
M  V30 16394 C 1577.57 0.926215 1.42672 0
M  V30 16395 O 1578.75 1.19651 1.52962 0
M  V30 16396 C 1575.88 2.45187 2.45969 0
M  V30 16397 C 1574.83 3.60105 2.31319 0
M  V30 16398 C 1574.16 3.87205 3.68749 0
M  V30 16399 C 1575.46 4.91526 1.76635 0
M  V30 16400 H 1577.15 2.89944 0.746496 0
M  V30 16401 H 1574.7 1.39488 0.357642 0
M  V30 16402 H 1576.65 2.76534 3.17973 0
M  V30 16403 H 1575.38 1.56238 2.86805 0
M  V30 16404 H 1574.04 3.28981 1.61762 0
M  V30 16405 H 1573.68 2.95448 4.07087 0
M  V30 16406 H 1573.38 4.64563 3.59798 0
M  V30 16407 H 1574.91 4.21013 4.42245 0
M  V30 16408 H 1576.32 5.21351 2.38465 0
M  V30 16409 H 1574.72 5.72944 1.78482 0
M  V30 16410 H 1575.79 4.79456 0.724573 0
M  V30 16411 N 1577.13 -0.380637 1.52934 0
M  V30 16412 C 1578.36 -1.14417 1.72024 0
M  V30 16413 C 1578.77 -1.83962 0.442128 0
M  V30 16414 O 1578.11 -1.73839 -0.593766 0
M  V30 16415 C 1578.18 -2.22944 2.82022 0
M  V30 16416 C 1577.84 -1.73295 4.22869 0
M  V30 16417 C 1578.84 -1.20515 5.05739 0
M  V30 16418 C 1576.52 -1.79264 4.69222 0
M  V30 16419 C 1578.52 -0.743632 6.33047 0
M  V30 16420 C 1576.2 -1.32724 5.96513 0
M  V30 16421 C 1577.2 -0.803615 6.78256 0
M  V30 16422 O 1576.89 -0.34503 8.03159 0
M  V30 16423 H 1576.62 -0.348676 0.579138 0
M  V30 16424 H 1579.17 -0.450113 2.00407 0
M  V30 16425 H 1577.4 -2.95798 2.49079 0
M  V30 16426 H 1579.09 -2.84575 2.89434 0
M  V30 16427 H 1579.86 -1.15254 4.71107 0
M  V30 16428 H 1575.74 -2.18962 4.0568 0
M  V30 16429 H 1579.28 -0.334251 6.96799 0
M  V30 16430 H 1575.18 -1.37673 6.30648 0
M  V30 16431 H 1575.95 -0.465743 8.17174 0
M  V30 16432 N 1578.61 -1.44039 -0.639573 0
M  V30 16433 C 1579.54 -1.53073 -1.76327 0
M  V30 16434 C 1580.52 -0.384344 -1.65701 0
M  V30 16435 O 1581.71 -0.603362 -1.84589 0
M  V30 16436 C 1578.84 -1.46646 -3.14821 0
M  V30 16437 C 1577.79 -2.59673 -3.40226 0
M  V30 16438 C 1577.12 -2.38298 -4.78663 0
M  V30 16439 C 1578.42 -4.01864 -3.33621 0
M  V30 16440 H 1580.11 -2.47126 -1.69023 0
M  V30 16441 H 1577.66 -1.1894 -0.811749 0
M  V30 16442 H 1579.61 -1.51567 -3.93199 0
M  V30 16443 H 1578.33 -0.491035 -3.22888 0
M  V30 16444 H 1576.99 -2.54127 -2.64225 0
M  V30 16445 H 1576.64 -1.38968 -4.83422 0
M  V30 16446 H 1576.34 -3.14074 -4.9662 0
M  V30 16447 H 1577.86 -2.45025 -5.59281 0
M  V30 16448 H 1579.28 -4.08824 -4.01915 0
M  V30 16449 H 1577.68 -4.77775 -3.63113 0
M  V30 16450 H 1578.75 -4.26033 -2.31569 0
M  V30 16451 N 1580.09 0.879207 -1.30796 0
M  V30 16452 C 1581.02 2.00158 -1.20246 0
M  V30 16453 C 1582 1.69852 -0.091769 0
M  V30 16454 O 1583.18 1.92246 -0.274792 0
M  V30 16455 C 1580.31 3.3545 -0.899472 0
M  V30 16456 C 1579.27 3.80033 -1.96873 0
M  V30 16457 C 1578.59 5.12681 -1.51861 0
M  V30 16458 C 1579.89 3.98136 -3.38061 0
M  V30 16459 H 1581.59 2.09242 -2.14145 0
M  V30 16460 H 1579.13 1.00535 -1.03096 0
M  V30 16461 H 1581.09 4.13497 -0.812299 0
M  V30 16462 H 1579.81 3.26513 0.075189 0
M  V30 16463 H 1578.47 3.04219 -2.04564 0
M  V30 16464 H 1578.12 5.00178 -0.532063 0
M  V30 16465 H 1577.82 5.43482 -2.23386 0
M  V30 16466 H 1579.34 5.93247 -1.44534 0
M  V30 16467 H 1580.76 4.66604 -3.33096 0
M  V30 16468 H 1579.15 4.40321 -4.07722 0
M  V30 16469 H 1580.22 3.01807 -3.79526 0
M  V30 16470 N 1581.57 1.13606 1.09231 0
M  V30 16471 C 1582.84 0.81012 1.78035 0
M  V30 16472 C 1583.22 -0.697953 1.99228 0
M  V30 16473 O 1582.57 -1.63592 1.5953 0
M  V30 16474 C 1582.78 1.59932 3.10198 0
M  V30 16475 C 1584.13 1.79328 3.84872 0
M  V30 16476 O 1585.15 1.56547 3.19955 0
M  V30 16477 O 1584.01 2.17355 5.01417 0
M  V30 16478 H 1581.11 0.295995 0.772215 0
M  V30 16479 H 1583.65 1.24079 1.15769 0
M  V30 16480 H 1582.43 2.6241 2.9027 0
M  V30 16481 H 1582.05 1.16371 3.80189 0
M  V30 16482 N 1583.05 -1.27244 0.929878 0
M  V30 16483 C 1584.27 -1.98912 0.587277 0
M  V30 16484 C 1584.7 -1.68888 -0.828168 0
M  V30 16485 O 1584.05 -0.930394 -1.55606 0
M  V30 16486 C 1584.1 -3.51097 0.822399 0
M  V30 16487 O 1583.21 -4.12251 -0.110968 0
M  V30 16488 H 1582.55 -0.624404 0.225867 0
M  V30 16489 H 1585.08 -1.61997 1.24973 0
M  V30 16490 H 1585.09 -4.01255 0.738824 0
M  V30 16491 H 1583.76 -3.72282 1.85416 0
M  V30 16492 H 1582.34 -3.72893 0.0227053 0
M  V30 16493 N 1584.52 -0.695628 -1.41417 0
M  V30 16494 C 1585.75 -0.235654 -2.05554 0
M  V30 16495 C 1586.17 1.11513 -1.52349 0
M  V30 16496 O 1585.52 1.69688 -0.671743 0
M  V30 16497 C 1585.57 -0.184809 -3.61027 0
M  V30 16498 O 1585.3 -1.48224 -4.12264 0
M  V30 16499 C 1586.8 0.296147 -4.4231 0
M  V30 16500 H 1584.02 -0.109648 -0.661981 0
M  V30 16501 H 1586.56 -0.948227 -1.81187 0
M  V30 16502 H 1584.72 0.478588 -3.84432 0
M  V30 16503 H 1585.13 -1.36939 -5.06308 0
M  V30 16504 H 1586.6 0.280597 -5.51286 0
M  V30 16505 H 1587.08 1.33503 -4.18418 0
M  V30 16506 H 1587.69 -0.336253 -4.23969 0
M  V30 16507 N 1586 1.51322 -0.440383 0
M  V30 16508 C 1587.23 2.07017 0.126018 0
M  V30 16509 C 1587.65 1.30537 1.35431 0
M  V30 16510 O 1587.01 0.344178 1.78003 0
M  V30 16511 C 1587.06 3.58101 0.4238 0
M  V30 16512 O 1586.16 3.83772 1.50973 0
M  V30 16513 H 1585.5 0.664 0.000530178 0
M  V30 16514 H 1588.03 1.94897 -0.622594 0
M  V30 16515 H 1588.04 4.02405 0.673363 0
M  V30 16516 H 1586.72 4.13191 -0.473932 0
M  V30 16517 H 1585.29 3.51329 1.24989 0
M  V30 16518 N 1587.48 0.171848 1.5666 0
M  V30 16519 C 1588.9 -0.184312 1.58532 0
M  V30 16520 C 1589.1 -1.62811 1.18721 0
M  V30 16521 O 1588.15 -2.35951 0.899066 0
M  V30 16522 C 1589.46 0.0969826 3.00544 0
M  V30 16523 C 1591.01 0.0352364 3.1298 0
M  V30 16524 C 1591.49 0.289528 4.57084 0
M  V30 16525 N 1592.98 0.237322 4.62592 0
M  V30 16526 C 1593.71 0.408247 5.71945 0
M  V30 16527 N 1593.21 0.638256 6.89854 0
M  V30 16528 N 1595 0.344115 5.61046 0
M  V30 16529 H 1587.15 1.11427 1.80825 0
M  V30 16530 H 1589.42 0.44302 0.838115 0
M  V30 16531 H 1589.12 1.09717 3.34148 0
M  V30 16532 H 1589 -0.611157 3.72216 0
M  V30 16533 H 1591.38 -0.955531 2.79202 0
M  V30 16534 H 1591.46 0.776095 2.43743 0
M  V30 16535 H 1591.11 1.27751 4.91571 0
M  V30 16536 H 1591.04 -0.471948 5.24481 0
M  V30 16537 H 1593.53 0.0652142 3.77844 0
M  V30 16538 H 1593.84 0.758116 7.69072 0
M  V30 16539 H 1592.19 0.674877 6.91716 0
M  V30 16540 H 1595.38 0.165008 4.67809 0
M  V30 16541 H 1595.55 0.480749 6.46214 0
M  V30 16542 N 1588.96 -1.5727 -0.101874 0
M  V30 16543 C 1590.2 -1.85742 -0.8066 0
M  V30 16544 C 1590.53 -0.759408 -1.79062 0
M  V30 16545 O 1589.79 0.247657 -1.94127 0
M  V30 16546 C 1590.09 -3.20773 -1.57605 0
M  V30 16547 C 1589.75 -4.44873 -0.734768 0
M  V30 16548 C 1588.41 -4.78566 -0.502829 0
M  V30 16549 C 1590.77 -5.20986 -0.14949 0
M  V30 16550 C 1588.09 -5.85803 0.324363 0
M  V30 16551 C 1590.45 -6.29095 0.664987 0
M  V30 16552 C 1589.11 -6.61308 0.907082 0
M  V30 16553 H 1588.38 -0.679679 -0.295156 0
M  V30 16554 H 1591.03 -1.91378 -0.0683238 0
M  V30 16555 H 1589.33 -3.10791 -2.38571 0
M  V30 16556 H 1591.03 -3.40029 -2.12559 0
M  V30 16557 H 1587.62 -4.18485 -0.92565 0
M  V30 16558 H 1591.8 -4.95294 -0.315859 0
M  V30 16559 H 1587.06 -6.09176 0.520978 0
M  V30 16560 H 1591.23 -6.87246 1.1254 0
M  V30 16561 H 1588.86 -7.44234 1.54986 0
M  V30 16562 N 1590.44 0.372521 -1.53134 0
M  V30 16563 C 1591.37 1.47817 -1.73855 0
M  V30 16564 C 1592.35 1.51645 -0.586723 0
M  V30 16565 O 1593.53 1.69803 -0.818496 0
M  V30 16566 C 1590.66 2.86213 -1.81107 0
M  V30 16567 C 1589.7 3.00139 -3.03016 0
M  V30 16568 S 1590.54 2.69617 -4.62674 0
M  V30 16569 C 1591.69 4.10176 -4.72765 0
M  V30 16570 H 1591.93 1.30019 -2.67362 0
M  V30 16571 H 1589.46 0.566429 -1.43635 0
M  V30 16572 H 1591.42 3.65958 -1.85971 0
M  V30 16573 H 1590.08 3.01326 -0.886632 0
M  V30 16574 H 1589.27 4.0148 -3.0468 0
M  V30 16575 H 1588.87 2.28309 -2.96228 0
M  V30 16576 H 1591.16 5.04328 -4.52393 0
M  V30 16577 H 1592.11 4.1352 -5.7481 0
M  V30 16578 H 1592.52 3.96853 -4.01458 0
M  V30 16579 N 1591.91 1.44376 0.631925 0
M  V30 16580 C 1592.88 1.50825 1.72582 0
M  V30 16581 C 1593.88 0.390379 1.55989 0
M  V30 16582 O 1595.07 0.65297 1.61499 0
M  V30 16583 C 1592.2 1.38141 3.11657 0
M  V30 16584 H 1593.39 2.48265 1.68239 0
M  V30 16585 H 1590.94 1.31456 0.845514 0
M  V30 16586 H 1591.68 0.417905 3.21596 0
M  V30 16587 H 1591.46 2.19198 3.25107 0
M  V30 16588 H 1592.95 1.45633 3.91383 0
M  V30 16589 N 1593.39 -0.872258 1.31261 0
M  V30 16590 C 1594.62 -1.65555 1.23593 0
M  V30 16591 C 1595.03 -1.88124 -0.201532 0
M  V30 16592 O 1594.37 -1.43792 -1.14323 0
M  V30 16593 C 1594.43 -3.04726 1.90742 0
M  V30 16594 C 1594.1 -3.05276 3.40082 0
M  V30 16595 C 1595.1 -2.83401 4.35867 0
M  V30 16596 C 1592.78 -3.26469 3.81737 0
M  V30 16597 C 1594.77 -2.82697 5.71281 0
M  V30 16598 C 1592.46 -3.25393 5.17265 0
M  V30 16599 C 1593.46 -3.03533 6.11847 0
M  V30 16600 O 1593.15 -3.02297 7.44897 0
M  V30 16601 H 1592.88 -0.52296 0.428356 0
M  V30 16602 H 1595.43 -1.09717 1.73641 0
M  V30 16603 H 1593.66 -3.62281 1.35239 0
M  V30 16604 H 1595.35 -3.65265 1.7702 0
M  V30 16605 H 1596.12 -2.66812 4.05014 0
M  V30 16606 H 1592 -3.42515 3.08552 0
M  V30 16607 H 1595.54 -2.65553 6.45079 0
M  V30 16608 H 1591.44 -3.41522 5.47753 0
M  V30 16609 H 1592.21 -3.18375 7.54042 0
M  V30 16610 N 1594.87 -1.14184 -1.08627 0
M  V30 16611 C 1595.82 -0.795361 -2.13677 0
M  V30 16612 C 1596.8 0.214426 -1.59465 0
M  V30 16613 O 1598 0.0171053 -1.76992 0
M  V30 16614 C 1595.12 -0.272074 -3.4222 0
M  V30 16615 C 1594.21 -1.31125 -4.0332 0
M  V30 16616 N 1594.6 -2.51469 -4.38859 0
M  V30 16617 C 1592.9 -1.16095 -4.30625 0
M  V30 16618 C 1593.6 -3.17975 -4.871 0
M  V30 16619 N 1592.58 -2.45382 -4.85066 0
M  V30 16620 H 1596.38 -1.71086 -2.38971 0
M  V30 16621 H 1593.89 -1.02537 -1.25936 0
M  V30 16622 H 1595.89 -0.00556906 -4.169 0
M  V30 16623 H 1594.55 0.637644 -3.18377 0
M  V30 16624 H 1595.56 -2.88714 -4.29959 0
M  V30 16625 H 1592.24 -0.310066 -4.16347 0
M  V30 16626 H 1593.63 -4.20569 -5.23996 0
M  V30 16627 N 1596.35 1.26749 -0.936613 0
M  V30 16628 C 1597.3 2.26542 -0.441307 0
M  V30 16629 C 1598.27 1.58503 0.496581 0
M  V30 16630 O 1599.45 1.86259 0.41379 0
M  V30 16631 C 1596.59 3.43866 0.291633 0
M  V30 16632 C 1595.7 4.26592 -0.681397 0
M  V30 16633 C 1594.84 5.31151 0.0722826 0
M  V30 16634 C 1593.88 6.05553 -0.892869 0
M  V30 16635 N 1593.01 7.01891 -0.17124 0
M  V30 16636 H 1597.85 2.68282 -1.29725 0
M  V30 16637 H 1595.39 1.31914 -0.650928 0
M  V30 16638 H 1597.35 4.10711 0.732984 0
M  V30 16639 H 1595.98 3.03051 1.11175 0
M  V30 16640 H 1595.03 3.59579 -1.24126 0
M  V30 16641 H 1596.34 4.78201 -1.41864 0
M  V30 16642 H 1595.5 6.03987 0.57313 0
M  V30 16643 H 1594.24 4.80369 0.842439 0
M  V30 16644 H 1593.24 5.31548 -1.40488 0
M  V30 16645 H 1594.47 6.58424 -1.66296 0
M  V30 16646 H 1592.41 6.53426 0.580507 0
M  V30 16647 H 1592.33 7.5123 -0.847897 0
M  V30 16648 H 1593.6 7.78889 0.308662 0
M  V30 16649 N 1597.83 0.703118 1.41046 0
M  V30 16650 C 1599.24 0.311167 1.84089 0
M  V30 16651 C 1599.59 -1.15202 1.58818 0
M  V30 16652 O 1598.71 -1.88518 1.06254 0
M  V30 16653 C 1599.31 0.557986 3.34174 0
M  V30 16654 C 1597.87 0.219875 3.75757 0
M  V30 16655 C 1597.01 0.836543 2.64381 0
M  V30 16656 H 1599.97 0.903211 1.30491 0
M  V30 16657 H 1599.99 -0.180865 3.8007 0
M  V30 16658 H 1599.5 1.62298 3.52535 0
M  V30 16659 H 1597.6 -0.840559 3.62995 0
M  V30 16660 H 1597.71 0.680165 4.74247 0
M  V30 16661 H 1596.08 0.265547 2.53312 0
M  V30 16662 H 1596.86 1.90556 2.85558 0
M  V30 16663 N 1599.3 -1.51086 0.448402 0
M  V30 16664 C 1600.23 -2.30896 -0.347773 0
M  V30 16665 C 1601.22 -1.36792 -1.01104 0
M  V30 16666 O 1602.4 -1.65713 -1.01257 0
M  V30 16667 C 1599.53 -3.15901 -1.44304 0
M  V30 16668 C 1598.48 -4.18373 -0.90265 0
M  V30 16669 C 1597.81 -4.9197 -2.0945 0
M  V30 16670 C 1599.11 -5.22252 0.0705335 0
M  V30 16671 H 1600.8 -2.97704 0.318273 0
M  V30 16672 H 1598.35 -1.43169 0.154509 0
M  V30 16673 H 1600.3 -3.70519 -2.00733 0
M  V30 16674 H 1599.03 -2.46935 -2.13753 0
M  V30 16675 H 1597.69 -3.64823 -0.3605 0
M  V30 16676 H 1597.33 -4.19497 -2.77545 0
M  V30 16677 H 1597.03 -5.6127 -1.73926 0
M  V30 16678 H 1598.56 -5.49415 -2.66412 0
M  V30 16679 H 1599.97 -5.71876 -0.403814 0
M  V30 16680 H 1598.37 -5.99142 0.338905 0
M  V30 16681 H 1599.44 -4.74398 1.00373 0
M  V30 16682 N 1600.78 -0.180154 -1.56567 0
M  V30 16683 C 1601.73 0.746666 -2.18389 0
M  V30 16684 C 1602.7 1.22058 -1.12655 0
M  V30 16685 O 1603.88 1.28716 -1.40843 0
M  V30 16686 C 1601.02 1.96688 -2.83563 0
M  V30 16687 C 1600.14 1.53572 -4.03782 0
M  V30 16688 C 1599.27 2.71028 -4.56856 0
M  V30 16689 C 1598.31 2.24445 -5.69465 0
M  V30 16690 N 1597.45 3.35026 -6.17011 0
M  V30 16691 H 1602.29 0.212707 -2.9724 0
M  V30 16692 H 1599.83 0.093256 -1.46804 0
M  V30 16693 H 1601.78 2.68269 -3.19511 0
M  V30 16694 H 1600.41 2.4744 -2.073 0
M  V30 16695 H 1599.47 0.716323 -3.73595 0
M  V30 16696 H 1600.78 1.15385 -4.85271 0
M  V30 16697 H 1599.93 3.50753 -4.95032 0
M  V30 16698 H 1598.67 3.1248 -3.74443 0
M  V30 16699 H 1597.68 1.43169 -5.30832 0
M  V30 16700 H 1598.9 1.84041 -6.53686 0
M  V30 16701 H 1596.85 3.76037 -5.37524 0
M  V30 16702 H 1596.76 3.0096 -6.93512 0
M  V30 16703 H 1598.03 4.15009 -6.59839 0
M  V30 16704 N 1602.26 1.57322 0.0935319 0
M  V30 16705 C 1603.21 2.03184 1.13222 0
M  V30 16706 C 1604.2 0.933184 1.41379 0
M  V30 16707 O 1605.41 1.11836 1.41042 0
M  V30 16708 H 1601.78 0.647541 0.382354 0
M  V30 16709 H 1603.75 2.89606 0.719105 0
M  V30 16710 C 1602.5 2.47336 2.44378 0
M  V30 16711 H 1601.83 3.31456 2.23556 0
M  V30 16712 H 1603.27 2.83199 3.15554 0
M  V30 16713 C 1601.73 1.34728 3.08788 0
M  V30 16714 O 1602.26 0.677285 3.95949 0
M  V30 16715 N 1600.46 1.09787 2.69063 0
M  V30 16716 H 1600.01 1.64451 1.98277 0
M  V30 16717 H 1599.97 0.346436 3.12485 0
M  V30 16718 N 1603.74 -0.364395 1.53329 0
M  V30 16719 C 1604.96 -1.13196 1.73786 0
M  V30 16720 C 1605.39 -1.82231 0.466224 0
M  V30 16721 O 1604.75 -1.71778 -0.579817 0
M  V30 16722 C 1604.79 -2.13704 2.90453 0
M  V30 16723 O 1603.9 -3.20808 2.59144 0
M  V30 16724 H 1603.24 -0.328387 0.577112 0
M  V30 16725 H 1605.77 -0.421157 2.00218 0
M  V30 16726 H 1605.78 -2.57285 3.16652 0
M  V30 16727 H 1604.45 -1.6285 3.82691 0
M  V30 16728 H 1603.03 -2.82192 2.43767 0
M  V30 16729 N 1605.22 -1.44709 -0.62426 0
M  V30 16730 C 1606.15 -1.48097 -1.74928 0
M  V30 16731 C 1607.16 -0.373567 -1.58456 0
M  V30 16732 O 1608.35 -0.639699 -1.66644 0
M  V30 16733 C 1605.45 -1.30576 -3.12735 0
M  V30 16734 C 1604.62 -2.54688 -3.55602 0
M  V30 16735 C 1603.68 -2.31966 -4.72311 0
M  V30 16736 O 1602.71 -3.05492 -4.80274 0
M  V30 16737 N 1603.91 -1.35463 -5.64473 0
M  V30 16738 H 1606.68 -2.45086 -1.72491 0
M  V30 16739 H 1604.24 -1.40236 -0.809039 0
M  V30 16740 H 1606.23 -1.13212 -3.88542 0
M  V30 16741 H 1604.8 -0.419262 -3.09776 0
M  V30 16742 H 1604.02 -2.87282 -2.69931 0
M  V30 16743 H 1605.31 -3.37223 -3.80996 0
M  V30 16744 H 1604.7 -0.747509 -5.60739 0
M  V30 16745 H 1603.26 -1.24075 -6.39882 0
M  V30 16746 N 1606.69 0.865285 -1.31722 0
M  V30 16747 C 1607.97 1.60146 -1.12306 0
M  V30 16748 C 1608.35 2.08653 0.320508 0
M  V30 16749 O 1607.7 1.86841 1.31539 0
M  V30 16750 C 1607.91 2.75583 -2.14138 0
M  V30 16751 C 1609.26 3.45429 -2.46909 0
M  V30 16752 O 1610.28 2.85795 -2.12602 0
M  V30 16753 O 1609.14 4.53017 -3.05676 0
M  V30 16754 H 1606.23 0.704786 -0.432673 0
M  V30 16755 H 1608.78 0.910339 -1.43216 0
M  V30 16756 H 1607.55 2.37187 -3.1122 0
M  V30 16757 H 1607.18 3.52378 -1.84161 0
M  V30 16758 N 1608.17 1.14759 1.0802 0
M  V30 16759 C 1609.4 0.940521 1.8395 0
M  V30 16760 C 1609.81 -0.514424 1.82072 0
M  V30 16761 O 1609.15 -1.36835 1.22564 0
M  V30 16762 C 1609.22 1.3689 3.32417 0
M  V30 16763 C 1608.88 2.84019 3.58025 0
M  V30 16764 C 1609.88 3.82117 3.52538 0
M  V30 16765 C 1607.56 3.21526 3.85909 0
M  V30 16766 C 1609.56 5.15728 3.74571 0
M  V30 16767 C 1607.24 4.55312 4.07596 0
M  V30 16768 C 1608.24 5.52222 4.01921 0
M  V30 16769 O 1607.93 6.83592 4.23034 0
M  V30 16770 H 1607.66 0.334505 0.587437 0
M  V30 16771 H 1610.21 1.52763 1.37305 0
M  V30 16772 H 1608.44 0.725149 3.7984 0
M  V30 16773 H 1610.13 1.13202 3.89795 0
M  V30 16774 H 1610.9 3.54486 3.31005 0
M  V30 16775 H 1606.78 2.46686 3.89444 0
M  V30 16776 H 1610.32 5.91357 3.70057 0
M  V30 16777 H 1606.22 4.82661 4.28613 0
M  V30 16778 H 1606.99 6.89909 4.40418 0
M  V30 16779 N 1609.65 -1.26251 0.943322 0
M  V30 16780 C 1610.88 -1.97739 0.608852 0
M  V30 16781 C 1611.29 -1.70225 -0.81663 0
M  V30 16782 O 1610.65 -0.97172 -1.54479 0
M  V30 16783 C 1610.7 -3.51505 0.844172 0
M  V30 16784 O 1610.42 -3.78063 2.21359 0
M  V30 16785 C 1611.92 -4.40233 0.52054 0
M  V30 16786 H 1609.14 -0.630619 0.229262 0
M  V30 16787 H 1611.69 -1.6071 1.26461 0
M  V30 16788 H 1609.84 -3.86687 0.23499 0
M  V30 16789 H 1610.26 -4.72582 2.27523 0
M  V30 16790 H 1611.73 -5.47074 0.735802 0
M  V30 16791 H 1612.21 -4.35811 -0.544541 0
M  V30 16792 H 1612.81 -4.10599 1.10854 0
M  V30 16793 N 1611.13 -0.710588 -1.40671 0
M  V30 16794 C 1612.04 -0.0557164 -2.34534 0
M  V30 16795 C 1613.06 0.749387 -1.57036 0
M  V30 16796 O 1614.23 0.683493 -1.89447 0
M  V30 16797 C 1611.3 0.858583 -3.35901 0
M  V30 16798 C 1610.36 0.043995 -4.29277 0
M  V30 16799 C 1609.59 0.91475 -5.25802 0
M  V30 16800 O 1609.81 2.15407 -5.28163 0
M  V30 16801 O 1608.75 0.356407 -6.00844 0
M  V30 16802 H 1612.57 -0.829807 -2.92144 0
M  V30 16803 H 1610.16 -0.471028 -1.4178 0
M  V30 16804 H 1612.04 1.38244 -3.98079 0
M  V30 16805 H 1610.72 1.61191 -2.80712 0
M  V30 16806 H 1609.62 -0.524815 -3.704 0
M  V30 16807 H 1610.96 -0.670996 -4.87605 0
M  V30 16808 N 1612.61 1.50847 -0.456408 0
M  V30 16809 C 1613.57 2.26755 0.33388 0
M  V30 16810 C 1614.57 1.30947 0.933247 0
M  V30 16811 O 1615.76 1.54499 0.804716 0
M  V30 16812 C 1612.89 3.07378 1.47417 0
M  V30 16813 H 1614.09 2.98061 -0.331634 0
M  V30 16814 H 1611.64 1.54882 -0.210067 0
M  V30 16815 H 1612.37 2.40534 2.17518 0
M  V30 16816 H 1612.16 3.7777 1.05036 0
M  V30 16817 H 1613.65 3.64826 2.03204 0
M  V30 16818 N 1614.09 0.188454 1.56469 0
M  V30 16819 C 1615.02 -0.730379 2.21783 0
M  V30 16820 C 1616 -1.22629 1.17882 0
M  V30 16821 O 1617.18 -1.27634 1.46367 0
M  V30 16822 C 1614.31 -1.95278 2.872 0
M  V30 16823 C 1613.27 -1.59205 3.97288 0
M  V30 16824 C 1612.59 -2.89052 4.49836 0
M  V30 16825 C 1613.89 -0.807027 5.16027 0
M  V30 16826 H 1615.59 -0.185914 2.98822 0
M  V30 16827 H 1613.13 -0.0879804 1.43731 0
M  V30 16828 H 1615.08 -2.60074 3.31571 0
M  V30 16829 H 1613.81 -2.52167 2.07556 0
M  V30 16830 H 1612.47 -0.967713 3.53597 0
M  V30 16831 H 1612.12 -3.44017 3.66963 0
M  V30 16832 H 1611.82 -2.65663 5.24115 0
M  V30 16833 H 1613.34 -3.54847 4.96906 0
M  V30 16834 H 1614.75 -1.35794 5.56986 0
M  V30 16835 H 1613.15 -0.671516 5.96331 0
M  V30 16836 H 1614.22 0.193251 4.84515 0
M  V30 16837 N 1615.56 -1.5737 -0.0851874 0
M  V30 16838 C 1616.98 -1.53425 -0.439651 0
M  V30 16839 C 1617.18 -0.906663 -1.7995 0
M  V30 16840 O 1616.24 -0.503414 -2.47431 0
M  V30 16841 C 1617.55 -2.9812 -0.393028 0
M  V30 16842 C 1619.1 -3.09387 -0.474175 0
M  V30 16843 C 1619.57 -4.55708 -0.457598 0
M  V30 16844 N 1621.06 -4.60294 -0.518065 0
M  V30 16845 C 1621.8 -5.70971 -0.527237 0
M  V30 16846 N 1621.29 -6.91051 -0.492023 0
M  V30 16847 N 1623.09 -5.59174 -0.572792 0
M  V30 16848 H 1615.24 -1.96538 0.805399 0
M  V30 16849 H 1617.5 -0.899 0.300836 0
M  V30 16850 H 1617.21 -3.47542 0.539204 0
M  V30 16851 H 1617.08 -3.57324 -1.20829 0
M  V30 16852 H 1619.47 -2.59948 -1.39683 0
M  V30 16853 H 1619.55 -2.53119 0.369411 0
M  V30 16854 H 1619.19 -5.05802 0.46115 0
M  V30 16855 H 1619.12 -5.09826 -1.31853 0
M  V30 16856 H 1621.61 -3.73875 -0.550072 0
M  V30 16857 H 1621.93 -7.71164 -0.502578 0
M  V30 16858 H 1620.27 -6.93483 -0.458917 0
M  V30 16859 H 1623.46 -4.64266 -0.597901 0
M  V30 16860 H 1623.64 -6.45431 -0.576471 0
M  V30 16861 N 1617.04 0.356258 -1.53521 0
M  V30 16862 C 1618 1.41975 -1.79933 0
M  V30 16863 C 1619 1.46177 -0.669997 0
M  V30 16864 O 1620.19 1.46774 -0.938239 0
M  V30 16865 C 1617.33 2.81015 -1.92985 0
M  V30 16866 H 1618.52 1.19824 -2.74922 0
M  V30 16867 H 1616.07 0.589928 -1.4474 0
M  V30 16868 H 1616.81 3.08466 -1.00095 0
M  V30 16869 H 1616.59 2.79363 -2.75135 0
M  V30 16870 H 1618.08 3.58013 -2.1498 0
M  V30 16871 N 1618.52 1.45038 0.616577 0
M  V30 16872 C 1619.48 1.52647 1.70973 0
M  V30 16873 C 1620.48 0.406902 1.55567 0
M  V30 16874 O 1621.67 0.670062 1.60797 0
M  V30 16875 C 1618.8 1.41438 3.10174 0
M  V30 16876 H 1620 2.50036 1.65596 0
M  V30 16877 H 1617.55 1.32346 0.831524 0
M  V30 16878 H 1618.29 0.451991 3.21135 0
M  V30 16879 H 1618.07 2.22634 3.22764 0
M  V30 16880 H 1619.56 1.49776 3.89817 0
M  V30 16881 N 1620 -0.858287 1.32179 0
M  V30 16882 C 1621.41 -1.14591 1.1109 0
M  V30 16883 C 1621.61 -2.01194 -0.110998 0
M  V30 16884 O 1620.67 -2.39593 -0.79695 0
M  V30 16885 C 1621.98 -1.82675 2.38852 0
M  V30 16886 C 1623.53 -1.95326 2.44574 0
M  V30 16887 C 1624.01 -2.66826 3.72247 0
M  V30 16888 N 1625.5 -2.74353 3.73208 0
M  V30 16889 C 1626.23 -3.30317 4.68698 0
M  V30 16890 N 1625.73 -3.87121 5.74552 0
M  V30 16891 N 1627.52 -3.28386 4.562 0
M  V30 16892 H 1619.67 -0.281471 2.10527 0
M  V30 16893 H 1621.93 -0.187326 0.929308 0
M  V30 16894 H 1621.64 -1.26495 3.28165 0
M  V30 16895 H 1621.51 -2.82862 2.49537 0
M  V30 16896 H 1623.9 -2.50668 1.55723 0
M  V30 16897 H 1623.98 -0.94147 2.37844 0
M  V30 16898 H 1623.63 -2.12149 4.61471 0
M  V30 16899 H 1623.56 -3.68437 3.76247 0
M  V30 16900 H 1626.05 -2.34051 2.96696 0
M  V30 16901 H 1626.36 -4.2797 6.43476 0
M  V30 16902 H 1624.71 -3.85463 5.78311 0
M  V30 16903 H 1627.9 -2.83254 3.72672 0
M  V30 16904 H 1628.07 -3.71701 5.30794 0
M  V30 16905 N 1621.48 -1.1533 -1.07409 0
M  V30 16906 C 1622.39 -0.863514 -2.1813 0
M  V30 16907 C 1623.4 0.159954 -1.73263 0
M  V30 16908 O 1624.58 -0.0139818 -2.01395 0
M  V30 16909 C 1621.64 -0.356271 -3.44865 0
M  V30 16910 C 1620.7 -1.44356 -4.04302 0
M  V30 16911 C 1619.94 -0.960429 -5.24987 0
M  V30 16912 O 1620.16 0.194227 -5.70069 0
M  V30 16913 O 1619.09 -1.74387 -5.76084 0
M  V30 16914 H 1622.92 -1.78909 -2.45408 0
M  V30 16915 H 1620.5 -0.932362 -1.16736 0
M  V30 16916 H 1622.39 -0.0798183 -4.21324 0
M  V30 16917 H 1621.06 0.541445 -3.1914 0
M  V30 16918 H 1619.97 -1.77361 -3.29384 0
M  V30 16919 H 1621.3 -2.31617 -4.34298 0
M  V30 16920 N 1622.95 1.25748 -0.950004 0
M  V30 16921 C 1623.88 2.28419 -0.484467 0
M  V30 16922 C 1624.86 1.63569 0.466813 0
M  V30 16923 O 1626.05 1.90705 0.366766 0
M  V30 16924 C 1623.18 3.46449 0.242916 0
M  V30 16925 C 1622.13 4.23447 -0.622657 0
M  V30 16926 C 1621.46 5.34182 0.235199 0
M  V30 16927 C 1622.76 4.86576 -1.89845 0
M  V30 16928 H 1624.45 2.6761 -1.34257 0
M  V30 16929 H 1622 1.28646 -0.647014 0
M  V30 16930 H 1623.95 4.17394 0.579693 0
M  V30 16931 H 1622.68 3.06235 1.13523 0
M  V30 16932 H 1621.34 3.54279 -0.942453 0
M  V30 16933 H 1620.98 4.90209 1.12713 0
M  V30 16934 H 1620.68 5.86612 -0.340609 0
M  V30 16935 H 1622.21 6.07961 0.567048 0
M  V30 16936 H 1623.62 5.49688 -1.62837 0
M  V30 16937 H 1622.02 5.49162 -2.41954 0
M  V30 16938 H 1623.09 4.09021 -2.60441 0
M  V30 16939 N 1624.43 0.718038 1.40292 0
M  V30 16940 C 1625.39 0.0757483 2.29075 0
M  V30 16941 C 1626.39 -0.684831 1.45488 0
M  V30 16942 O 1627.58 -0.516369 1.66371 0
M  V30 16943 C 1624.72 -0.902534 3.28736 0
M  V30 16944 H 1625.91 0.857729 2.87373 0
M  V30 16945 H 1623.46 0.482839 1.48655 0
M  V30 16946 H 1624.2 -1.71148 2.75461 0
M  V30 16947 H 1623.98 -0.360009 3.90444 0
M  V30 16948 H 1625.47 -1.34903 3.9521 0
M  V30 16949 N 1625.91 -1.50602 0.464402 0
M  V30 16950 C 1626.87 -2.26929 -0.32185 0
M  V30 16951 C 1627.87 -1.3144 -0.926289 0
M  V30 16952 O 1629.06 -1.54924 -0.796511 0
M  V30 16953 C 1626.2 -3.08155 -1.45785 0
M  V30 16954 H 1627.39 -2.97881 0.347436 0
M  V30 16955 H 1624.94 -1.54768 0.218278 0
M  V30 16956 H 1625.68 -2.41684 -2.16239 0
M  V30 16957 H 1625.46 -3.78321 -1.03031 0
M  V30 16958 H 1626.95 -3.65899 -2.01266 0
M  V30 16959 N 1627.39 -0.19675 -1.56367 0
M  V30 16960 C 1628.34 0.740138 -2.2051 0
M  V30 16961 C 1629.33 1.21854 -1.17677 0
M  V30 16962 O 1630.54 1.18124 -1.35819 0
M  V30 16963 H 1626.91 0.257034 -0.706709 0
M  V30 16964 H 1628.88 0.175454 -2.97884 0
M  V30 16965 C 1627.63 1.94841 -2.8798 0
M  V30 16966 H 1626.95 1.58936 -3.66851 0
M  V30 16967 H 1628.39 2.58227 -3.36296 0
M  V30 16968 C 1626.85 2.78821 -1.89104 0
M  V30 16969 O 1627.38 3.76797 -1.39237 0
M  V30 16970 N 1625.59 2.44348 -1.57297 0
M  V30 16971 H 1625.14 1.64732 -1.98043 0
M  V30 16972 H 1625.09 3.00822 -0.913978 0
M  V30 16973 N 1628.87 1.57413 0.0768405 0
M  V30 16974 C 1630.12 1.86186 0.775741 0
M  V30 16975 C 1630.43 0.788676 1.78995 0
M  V30 16976 O 1631.63 0.964095 2.53806 0
M  V30 16977 C 1630.09 3.30247 1.43055 0
M  V30 16978 C 1629.7 4.45682 0.45517 0
M  V30 16979 C 1631.44 3.68225 2.11211 0
M  V30 16980 C 1629.35 5.80782 1.11561 0
M  V30 16981 H 1628.28 0.694546 0.293466 0
M  V30 16982 H 1630.93 1.83477 0.0289478 0
M  V30 16983 H 1629.31 3.27552 2.22544 0
M  V30 16984 H 1630.49 4.59759 -0.309535 0
M  V30 16985 H 1628.8 4.16222 -0.121671 0
M  V30 16986 H 1631.4 4.66454 2.6139 0
M  V30 16987 H 1631.74 2.9777 2.90928 0
M  V30 16988 H 1632.27 3.72888 1.38561 0
M  V30 16989 H 1629.01 6.54517 0.358877 0
M  V30 16990 H 1628.53 5.70515 1.8513 0
M  V30 16991 H 1630.21 6.25951 1.63689 0
M  V30 16992 N 1630.34 -0.348112 1.53707 0
M  V30 16993 C 1631.57 -1.10903 1.74666 0
M  V30 16994 C 1631.99 -1.82499 0.483683 0
M  V30 16995 O 1631.34 -1.74191 -0.544419 0
M  V30 16996 C 1631.4 -2.12602 2.92374 0
M  V30 16997 O 1631.12 -1.43918 4.13787 0
M  V30 16998 C 1632.62 -3.01105 3.25347 0
M  V30 16999 H 1629.84 -0.330911 0.583728 0
M  V30 17000 H 1632.38 -0.401707 2.00516 0
M  V30 17001 H 1630.54 -2.78906 2.68869 0
M  V30 17002 H 1630.95 -2.11818 4.79826 0
M  V30 17003 H 1632.42 -3.68408 4.11071 0
M  V30 17004 H 1632.9 -3.66874 2.41455 0
M  V30 17005 H 1633.51 -2.40395 3.50842 0
M  V30 17006 N 1631.82 -1.45363 -0.608876 0
M  V30 17007 C 1632.79 -1.53551 -1.70161 0
M  V30 17008 C 1633.79 -0.415146 -1.55349 0
M  V30 17009 O 1634.98 -0.67858 -1.6044 0
M  V30 17010 C 1632.11 -1.43081 -3.0942 0
M  V30 17011 H 1633.3 -2.5091 -1.64268 0
M  V30 17012 H 1630.85 -1.32785 -0.824493 0
M  V30 17013 H 1631.59 -0.469016 -3.20891 0
M  V30 17014 H 1631.37 -2.24343 -3.21579 0
M  V30 17015 H 1632.86 -1.51841 -3.89017 0
M  V30 17016 N 1633.3 0.851265 -1.32632 0
M  V30 17017 C 1634.58 1.58945 -1.13999 0
M  V30 17018 C 1634.96 2.08981 0.29836 0
M  V30 17019 O 1634.31 1.88226 1.2955 0
M  V30 17020 C 1634.52 2.73296 -2.17049 0
M  V30 17021 C 1635.86 3.42791 -2.50559 0
M  V30 17022 O 1636.89 2.83524 -2.15621 0
M  V30 17023 O 1635.75 4.49749 -3.10464 0
M  V30 17024 H 1632.84 0.700157 -0.440124 0
M  V30 17025 H 1635.39 0.895098 -1.44174 0
M  V30 17026 H 1634.16 2.33873 -3.13718 0
M  V30 17027 H 1633.78 3.50405 -1.87888 0
M  V30 17028 N 1634.78 1.15898 1.06796 0
M  V30 17029 C 1635.71 0.88395 2.16122 0
M  V30 17030 C 1636.69 -0.167708 1.69271 0
M  V30 17031 O 1637.87 -0.0208846 1.94189 0
M  V30 17032 C 1635 0.378656 3.4523 0
M  V30 17033 C 1633.96 1.36764 4.05561 0
M  V30 17034 C 1633.28 0.720956 5.29817 0
M  V30 17035 C 1634.58 2.73554 4.44933 0
M  V30 17036 H 1636.28 1.79818 2.39386 0
M  V30 17037 H 1633.82 0.866008 1.15049 0
M  V30 17038 H 1635.78 0.17376 4.21042 0
M  V30 17039 H 1634.5 -0.571063 3.21569 0
M  V30 17040 H 1633.16 1.55899 3.318 0
M  V30 17041 H 1632.81 -0.235089 5.0245 0
M  V30 17042 H 1632.51 1.38101 5.71141 0
M  V30 17043 H 1634.03 0.525963 6.0833 0
M  V30 17044 H 1635.45 2.58231 5.11849 0
M  V30 17045 H 1633.84 3.35986 4.97226 0
M  V30 17046 H 1634.91 3.29192 3.56034 0
M  V30 17047 N 1636.26 -1.25243 0.956659 0
M  V30 17048 C 1637.67 -1.4525 0.661409 0
M  V30 17049 C 1637.87 -1.85774 -0.780404 0
M  V30 17050 O 1636.93 -1.98899 -1.55549 0
M  V30 17051 C 1638.24 -2.52296 1.63607 0
M  V30 17052 C 1639.79 -2.66134 1.64748 0
M  V30 17053 C 1640.26 -3.76366 2.60983 0
M  V30 17054 N 1641.76 -3.8378 2.5936 0
M  V30 17055 C 1642.49 -4.68569 3.30501 0
M  V30 17056 N 1641.99 -5.5763 4.11122 0
M  V30 17057 N 1643.78 -4.62551 3.19378 0
M  V30 17058 H 1635.93 -0.972321 1.88838 0
M  V30 17059 H 1638.19 -0.488615 0.812379 0
M  V30 17060 H 1637.9 -2.29382 2.66603 0
M  V30 17061 H 1637.77 -3.5025 1.40017 0
M  V30 17062 H 1640.16 -2.88412 0.624692 0
M  V30 17063 H 1640.24 -1.68573 1.92397 0
M  V30 17064 H 1639.89 -3.54839 3.63389 0
M  V30 17065 H 1639.82 -4.73417 2.30617 0
M  V30 17066 H 1642.31 -3.20117 2.00832 0
M  V30 17067 H 1642.62 -6.19258 4.62319 0
M  V30 17068 H 1640.96 -5.57331 4.15219 0
M  V30 17069 H 1644.16 -3.91983 2.55865 0
M  V30 17070 H 1644.33 -5.28407 3.75086 0
M  V30 17071 N 1637.73 -0.725468 -1.3991 0
M  V30 17072 C 1638.68 -0.0792833 -2.30664 0
M  V30 17073 C 1639.65 0.73984 -1.48713 0
M  V30 17074 O 1640.84 0.701762 -1.77426 0
M  V30 17075 C 1637.98 0.829164 -3.34991 0
M  V30 17076 C 1637.09 -0.00154779 -4.32 0
M  V30 17077 C 1636.22 0.907291 -5.23394 0
M  V30 17078 C 1635.26 0.0712573 -6.12059 0
M  V30 17079 N 1634.4 0.935508 -6.9584 0
M  V30 17080 H 1639.24 -0.858869 -2.85355 0
M  V30 17081 H 1636.78 -0.435214 -1.40514 0
M  V30 17082 H 1638.74 1.37021 -3.94057 0
M  V30 17083 H 1637.37 1.57483 -2.81778 0
M  V30 17084 H 1636.42 -0.659903 -3.74632 0
M  V30 17085 H 1637.73 -0.648387 -4.94568 0
M  V30 17086 H 1636.88 1.51652 -5.87441 0
M  V30 17087 H 1635.62 1.58793 -4.61125 0
M  V30 17088 H 1634.63 -0.550844 -5.47034 0
M  V30 17089 H 1635.85 -0.606025 -6.76391 0
M  V30 17090 H 1633.8 1.60162 -6.36148 0
M  V30 17091 H 1633.72 0.344932 -7.55213 0
M  V30 17092 H 1634.98 1.53061 -7.64325 0
M  V30 17093 N 1639.21 1.50354 -0.472382 0
M  V30 17094 C 1640.46 2.02633 0.0822846 0
M  V30 17095 C 1640.79 1.35358 1.39254 0
M  V30 17096 O 1640.07 0.479714 1.88491 0
M  V30 17097 C 1640.35 3.59126 0.264742 0
M  V30 17098 C 1640.2 4.3697 -1.06663 0
M  V30 17099 C 1641.52 4.28148 1.01869 0
M  V30 17100 H 1638.64 0.736451 0.0284304 0
M  V30 17101 H 1641.28 1.79661 -0.618224 0
M  V30 17102 H 1639.43 3.7883 0.86141 0
M  V30 17103 H 1641.1 4.28834 -1.69997 0
M  V30 17104 H 1639.35 4.0066 -1.66295 0
M  V30 17105 H 1640.02 5.44736 -0.892592 0
M  V30 17106 H 1642.49 4.12926 0.512931 0
M  V30 17107 H 1641.37 5.37453 1.11515 0
M  V30 17108 H 1641.63 3.91406 2.05557 0
M  V30 17109 N 1640.69 0.205039 1.56261 0
M  V30 17110 C 1642.1 -0.305792 1.84179 0
M  V30 17111 C 1642.45 -1.60672 1.126 0
M  V30 17112 O 1641.58 -2.12855 0.390118 0
M  V30 17113 C 1642.17 -0.561596 3.34113 0
M  V30 17114 C 1640.73 -1.01677 3.62407 0
M  V30 17115 C 1639.88 -0.0707844 2.7721 0
M  V30 17116 H 1642.83 0.428609 1.52803 0
M  V30 17117 H 1642.85 -1.40969 3.53423 0
M  V30 17118 H 1642.36 0.38541 3.86182 0
M  V30 17119 H 1640.46 -1.97771 3.1578 0
M  V30 17120 H 1640.58 -0.902607 4.70521 0
M  V30 17121 H 1638.94 -0.574529 2.48136 0
M  V30 17122 H 1639.72 0.870844 3.32071 0
M  V30 17123 N 1642.17 -1.57451 -0.0684915 0
M  V30 17124 C 1643.42 -1.87041 -0.765505 0
M  V30 17125 C 1643.74 -0.797489 -1.77947 0
M  V30 17126 O 1643.01 0.17349 -1.9513 0
M  V30 17127 H 1641.59 -0.690203 -0.285708 0
M  V30 17128 H 1644.25 -1.94851 -0.0437957 0
M  V30 17129 H 1643.35 -2.8466 -1.27966 0
M  V30 17130 N 1643.65 0.339955 -1.5389 0
M  V30 17131 C 1644.88 1.09975 -1.75251 0
M  V30 17132 C 1645.29 1.8224 -0.493355 0
M  V30 17133 O 1644.65 1.74477 0.535173 0
M  V30 17134 C 1644.7 2.11048 -2.93498 0
M  V30 17135 O 1644.42 1.41721 -4.14544 0
M  V30 17136 C 1645.92 2.99375 -3.26939 0
M  V30 17137 H 1643.14 0.327811 -0.585475 0
M  V30 17138 H 1645.68 0.391068 -2.00726 0
M  V30 17139 H 1643.84 2.77476 -2.70344 0
M  V30 17140 H 1644.25 2.09271 -4.80943 0
M  V30 17141 H 1645.73 3.66223 -4.13019 0
M  V30 17142 H 1646.2 3.65588 -2.43397 0
M  V30 17143 H 1646.81 2.38531 -3.52112 0
M  V30 17144 N 1645.13 1.45684 0.601159 0
M  V30 17145 C 1646.4 1.4051 1.36074 0
M  V30 17146 C 1646.78 0.0790095 2.10952 0
M  V30 17147 O 1646.13 -0.939162 2.08307 0
M  V30 17148 C 1646.34 2.62297 2.3022 0
M  V30 17149 C 1647.69 3.0766 2.92627 0
M  V30 17150 O 1648.71 2.62716 2.40539 0
M  V30 17151 O 1647.57 3.85675 3.87191 0
M  V30 17152 H 1644.67 0.557902 0.61047 0
M  V30 17153 H 1647.21 1.57822 0.623712 0
M  V30 17154 H 1645.98 3.50389 1.74194 0
M  V30 17155 H 1645.61 2.47351 3.11293 0
M  V30 17156 N 1646.6 -0.84422 1.33082 0
M  V30 17157 C 1648.01 -1.41526 1.21767 0
M  V30 17158 C 1648.37 -1.955 -0.165606 0
M  V30 17159 O 1647.49 -1.88384 -1.06492 0
M  V30 17160 C 1648.09 -2.57266 2.20454 0
M  V30 17161 C 1646.64 -3.10339 2.12995 0
M  V30 17162 C 1645.79 -1.83119 2.08237 0
M  V30 17163 H 1648.74 -0.650452 1.44758 0
M  V30 17164 H 1648.76 -3.34739 1.80914 0
M  V30 17165 H 1648.28 -2.17952 3.21121 0
M  V30 17166 H 1646.38 -3.5421 1.15612 0
M  V30 17167 H 1646.49 -3.70875 3.03296 0
M  V30 17168 H 1644.85 -2.03148 1.53632 0
M  V30 17169 H 1645.64 -1.46009 3.10703 0
M  V30 17170 N 1648.08 -1.16463 -1.0618 0
M  V30 17171 C 1649.04 -0.874674 -2.11854 0
M  V30 17172 C 1650.04 0.130829 -1.60267 0
M  V30 17173 O 1651.23 -0.100195 -1.73912 0
M  V30 17174 C 1648.37 -0.30826 -3.39503 0
M  V30 17175 H 1649.56 -1.81149 -2.39009 0
M  V30 17176 H 1647.11 -0.973721 -1.22264 0
M  V30 17177 H 1647.85 0.636181 -3.17999 0
M  V30 17178 H 1647.63 -1.03281 -3.78253 0
M  V30 17179 H 1649.12 -0.123378 -4.17418 0
M  V30 17180 N 1649.56 1.24734 -0.963288 0
M  V30 17181 C 1650.81 1.92686 -0.622766 0
M  V30 17182 C 1651.13 1.75357 0.841442 0
M  V30 17183 O 1650.39 1.09757 1.62025 0
M  V30 17184 C 1650.69 3.44867 -0.938151 0
M  V30 17185 C 1650.35 3.82361 -2.38979 0
M  V30 17186 C 1649.02 3.92307 -2.78655 0
M  V30 17187 C 1651.37 4.00775 -3.3321 0
M  V30 17188 C 1648.7 4.1808 -4.11614 0
M  V30 17189 C 1651.05 4.28043 -4.65792 0
M  V30 17190 C 1649.71 4.36207 -5.05252 0
M  V30 17191 H 1648.98 0.705088 -0.227886 0
M  V30 17192 H 1651.63 1.48107 -1.21395 0
M  V30 17193 H 1649.93 3.90905 -0.264676 0
M  V30 17194 H 1651.63 3.95645 -0.653134 0
M  V30 17195 H 1648.22 3.75182 -2.07212 0
M  V30 17196 H 1652.41 3.92497 -3.03743 0
M  V30 17197 H 1647.66 4.22619 -4.41818 0
M  V30 17198 H 1651.84 4.41236 -5.3878 0
M  V30 17199 H 1649.46 4.55931 -6.08301 0
M  V30 17200 N 1651.04 0.732878 1.39523 0
M  V30 17201 C 1651.95 0.0930216 2.34416 0
M  V30 17202 C 1652.96 -0.724309 1.58208 0
M  V30 17203 O 1654.14 -0.653267 1.90511 0
M  V30 17204 C 1651.2 -0.805036 3.37224 0
M  V30 17205 C 1650.27 0.0243049 4.29293 0
M  V30 17206 C 1649.5 -0.830984 5.27191 0
M  V30 17207 O 1649.72 -2.06977 5.31523 0
M  V30 17208 O 1648.66 -0.260772 6.01335 0
M  V30 17209 H 1652.48 0.876179 2.90786 0
M  V30 17210 H 1650.07 0.493525 1.41013 0
M  V30 17211 H 1651.95 -1.31894 4.00228 0
M  V30 17212 H 1650.62 -1.56704 2.83241 0
M  V30 17213 H 1649.53 0.583677 3.69519 0
M  V30 17214 H 1650.86 0.748485 4.86476 0
M  V30 17215 N 1652.52 -1.50101 0.480349 0
M  V30 17216 C 1653.76 -2.02674 -0.0715373 0
M  V30 17217 C 1654.09 -1.36095 -1.38535 0
M  V30 17218 O 1653.37 -0.489703 -1.88234 0
M  V30 17219 C 1653.65 -3.59261 -0.245693 0
M  V30 17220 C 1653.51 -4.36399 1.08979 0
M  V30 17221 C 1654.82 -4.28682 -0.995966 0
M  V30 17222 H 1651.94 -0.736592 -0.0245244 0
M  V30 17223 H 1654.59 -1.7933 0.627743 0
M  V30 17224 H 1652.74 -3.79281 -0.841308 0
M  V30 17225 H 1654.41 -4.27926 1.72269 0
M  V30 17226 H 1652.65 -3.99773 1.68417 0
M  V30 17227 H 1653.32 -5.44254 0.921468 0
M  V30 17228 H 1655.8 -4.13193 -0.491025 0
M  V30 17229 H 1654.67 -5.38037 -1.08663 0
M  V30 17230 H 1654.93 -3.92491 -2.03479 0
M  V30 17231 N 1653.99 -0.213323 -1.5615 0
M  V30 17232 C 1655.24 0.420598 -1.98084 0
M  V30 17233 C 1655.57 1.60355 -1.10075 0
M  V30 17234 O 1654.82 1.95171 -0.143848 0
M  V30 17235 C 1655.12 0.905764 -3.45732 0
M  V30 17236 C 1654.79 -0.165778 -4.50595 0
M  V30 17237 C 1653.45 -0.460161 -4.78995 0
M  V30 17238 C 1655.8 -0.890891 -5.1353 0
M  V30 17239 C 1653.13 -1.48432 -5.67613 0
M  V30 17240 C 1655.48 -1.90433 -6.03256 0
M  V30 17241 C 1654.15 -2.20572 -6.30004 0
M  V30 17242 H 1653.42 0.153908 -0.72484 0
M  V30 17243 H 1656.06 -0.314117 -1.88906 0
M  V30 17244 H 1654.37 1.71909 -3.52072 0
M  V30 17245 H 1656.07 1.40596 -3.75545 0
M  V30 17246 H 1652.66 0.0738261 -4.28536 0
M  V30 17247 H 1656.84 -0.676696 -4.91665 0
M  V30 17248 H 1652.1 -1.72354 -5.86604 0
M  V30 17249 H 1656.27 -2.47131 -6.51075 0
M  V30 17250 H 1653.9 -3.00074 -6.9847 0
M  V30 17251 N 1655.47 1.57485 0.0601405 0
M  V30 17252 C 1656.88 1.76433 0.610583 0
M  V30 17253 C 1657.23 0.840353 1.77292 0
M  V30 17254 O 1656.36 0.0273238 2.16383 0
M  V30 17255 C 1656.95 3.19947 1.11441 0
M  V30 17256 C 1655.51 3.402 1.61062 0
M  V30 17257 C 1654.66 2.72089 0.535055 0
M  V30 17258 H 1657.61 1.57829 -0.166062 0
M  V30 17259 H 1657.63 3.24749 1.98288 0
M  V30 17260 H 1657.14 3.87172 0.268233 0
M  V30 17261 H 1655.25 2.78106 2.47967 0
M  V30 17262 H 1655.36 4.48696 1.67954 0
M  V30 17263 H 1653.72 2.34972 0.982855 0
M  V30 17264 H 1654.51 3.41977 -0.301135 0
M  V30 17265 N 1656.95 -0.331789 1.54068 0
M  V30 17266 C 1658.18 -1.08886 1.75577 0
M  V30 17267 C 1658.59 -1.82462 0.50043 0
M  V30 17268 O 1657.93 -1.7564 -0.53816 0
M  V30 17269 C 1657.99 -2.13858 2.88972 0
M  V30 17270 C 1657.66 -1.59754 4.28168 0
M  V30 17271 C 1658.65 -1.04365 5.09317 0
M  V30 17272 C 1656.34 -1.64245 4.74688 0
M  V30 17273 C 1658.33 -0.541856 6.35093 0
M  V30 17274 C 1656.02 -1.13679 6.00433 0
M  V30 17275 C 1657.02 -0.587426 6.80469 0
M  V30 17276 O 1656.71 -0.0893367 8.0385 0
M  V30 17277 H 1656.44 -0.330075 0.589938 0
M  V30 17278 H 1658.99 -0.386127 2.01738 0
M  V30 17279 H 1657.22 -2.87724 2.58363 0
M  V30 17280 H 1658.91 -2.75223 2.98341 0
M  V30 17281 H 1659.68 -1.00208 4.74535 0
M  V30 17282 H 1655.56 -2.05945 4.12441 0
M  V30 17283 H 1659.1 -0.1124 6.97509 0
M  V30 17284 H 1655 -1.1754 6.34708 0
M  V30 17285 H 1655.77 -0.205529 8.18242 0
M  V30 17286 N 1658.43 -1.46001 -0.593424 0
M  V30 17287 C 1659.66 -1.54307 -1.3783 0
M  V30 17288 C 1660.07 -0.18048 -1.87935 0
M  V30 17289 O 1659.43 0.820427 -1.63019 0
M  V30 17290 C 1659.48 -2.53911 -2.57316 0
M  V30 17291 O 1659.2 -3.84876 -2.09289 0
M  V30 17292 C 1660.7 -2.72054 -3.50002 0
M  V30 17293 H 1657.92 -0.522149 -0.421428 0
M  V30 17294 H 1660.47 -1.91315 -0.722423 0
M  V30 17295 H 1658.62 -2.19937 -3.18915 0
M  V30 17296 H 1659.03 -4.38996 -2.87025 0
M  V30 17297 H 1660.51 -3.45692 -4.3035 0
M  V30 17298 H 1660.99 -1.78583 -4.01254 0
M  V30 17299 H 1661.59 -3.07082 -2.94246 0
M  V30 17300 N 1659.91 0.83715 -1.33527 0
M  V30 17301 C 1661.16 1.58747 -1.24428 0
M  V30 17302 C 1661.47 1.94696 0.187885 0
M  V30 17303 O 1662.67 2.68524 0.400903 0
M  V30 17304 C 1661.13 2.86337 -2.18035 0
M  V30 17305 C 1660.74 2.57745 -3.66431 0
M  V30 17306 C 1662.48 3.6436 -2.17812 0
M  V30 17307 C 1660.39 3.81443 -4.51946 0
M  V30 17308 H 1659.32 0.595749 -0.462168 0
M  V30 17309 H 1661.97 0.922901 -1.58603 0
M  V30 17310 H 1660.35 3.54344 -1.76795 0
M  V30 17311 H 1661.53 1.97939 -4.16121 0
M  V30 17312 H 1659.84 1.93023 -3.68959 0
M  V30 17313 H 1662.44 4.56181 -2.78932 0
M  V30 17314 H 1662.78 3.99414 -1.17364 0
M  V30 17315 H 1663.31 3.03279 -2.57423 0
M  V30 17316 H 1660.05 3.51519 -5.53276 0
M  V30 17317 H 1659.57 4.40582 -4.06998 0
M  V30 17318 H 1661.25 4.49004 -4.65837 0
M  V30 17319 N 1661.38 1.17024 1.05561 0
M  V30 17320 C 1662.61 0.98075 1.82178 0
M  V30 17321 C 1663.03 -0.471027 1.8283 0
M  V30 17322 O 1662.38 -1.32703 1.25284 0
M  V30 17323 C 1662.44 1.50979 3.28463 0
M  V30 17324 O 1662.16 2.90471 3.27961 0
M  V30 17325 C 1663.66 1.36436 4.21782 0
M  V30 17326 H 1660.88 0.3472 0.574189 0
M  V30 17327 H 1663.42 1.55226 1.33136 0
M  V30 17328 H 1661.58 0.980393 3.74789 0
M  V30 17329 H 1661.99 3.14847 4.19489 0
M  V30 17330 H 1663.46 1.78272 5.2242 0
M  V30 17331 H 1663.94 0.310922 4.38098 0
M  V30 17332 H 1664.55 1.88374 3.81308 0
M  V30 17333 N 1662.86 -1.24221 0.969889 0
M  V30 17334 C 1663.81 -2.27299 0.493765 0
M  V30 17335 C 1664.8 -1.63483 -0.443824 0
M  V30 17336 O 1666.01 -1.77153 -0.318873 0
M  V30 17337 H 1662.39 -0.738622 0.141216 0
M  V30 17338 H 1664.36 -2.6483 1.37506 0
M  V30 17339 C 1663.11 -3.47134 -0.198399 0
M  V30 17340 H 1662.43 -3.96483 0.51395 0
M  V30 17341 H 1663.87 -4.21097 -0.495334 0
M  V30 17342 C 1662.33 -3.05227 -1.42612 0
M  V30 17343 O 1662.86 -3.1258 -2.52302 0
M  V30 17344 N 1661.06 -2.60252 -1.29295 0
M  V30 17345 H 1660.61 -2.54468 -0.400461 0
M  V30 17346 H 1660.57 -2.32579 -2.11553 0
M  V30 17347 N 1664.34 -0.740267 -1.39132 0
M  V30 17348 C 1665.59 -0.290953 -2.00702 0
M  V30 17349 C 1665.92 1.12051 -1.58613 0
M  V30 17350 O 1665.19 1.76488 -0.817457 0
M  V30 17351 C 1665.48 -0.398765 -3.57885 0
M  V30 17352 C 1665.33 -1.85038 -4.09977 0
M  V30 17353 C 1666.65 0.215717 -4.39571 0
M  V30 17354 H 1663.77 -0.107194 -0.729163 0
M  V30 17355 H 1666.41 -0.937411 -1.65265 0
M  V30 17356 H 1664.56 0.151613 -3.88204 0
M  V30 17357 H 1666.23 -2.45804 -3.90357 0
M  V30 17358 H 1664.48 -2.36994 -3.63341 0
M  V30 17359 H 1665.15 -1.87705 -5.19106 0
M  V30 17360 H 1667.62 -0.253518 -4.15327 0
M  V30 17361 H 1666.5 0.109966 -5.4879 0
M  V30 17362 H 1666.76 1.30242 -4.2248 0
M  V30 17363 N 1665.82 1.49844 -0.488302 0
M  V30 17364 C 1667.07 2.02409 0.0606981 0
M  V30 17365 C 1667.39 1.36901 1.38161 0
M  V30 17366 O 1666.65 0.48951 1.89479 0
M  V30 17367 C 1666.95 3.56342 0.274851 0
M  V30 17368 C 1666.61 4.4042 -0.966481 0
M  V30 17369 C 1665.28 4.63116 -1.30678 0
M  V30 17370 C 1667.63 4.89418 -1.79218 0
M  V30 17371 C 1664.96 5.32055 -2.47253 0
M  V30 17372 C 1667.31 5.59639 -2.94935 0
M  V30 17373 C 1665.97 5.80584 -3.2936 0
M  V30 17374 H 1665.24 0.740667 0.022211 0
M  V30 17375 H 1667.89 1.80279 -0.645882 0
M  V30 17376 H 1666.19 3.7708 1.06384 0
M  V30 17377 H 1667.89 3.94594 0.71388 0
M  V30 17378 H 1664.48 4.22987 -0.691388 0
M  V30 17379 H 1668.66 4.71723 -1.54244 0
M  V30 17380 H 1663.92 5.46477 -2.74177 0
M  V30 17381 H 1668.09 5.96583 -3.59251 0
M  V30 17382 H 1665.72 6.33779 -4.19795 0
M  V30 17383 N 1667.3 0.221601 1.56034 0
M  V30 17384 C 1668.53 -0.414343 2.02402 0
M  V30 17385 C 1668.93 -1.5389 1.10066 0
M  V30 17386 O 1668.28 -1.83413 0.102587 0
M  V30 17387 C 1668.34 -1.00704 3.45107 0
M  V30 17388 C 1668 -0.0179259 4.56996 0
M  V30 17389 C 1669 0.782467 5.13978 0
M  V30 17390 C 1666.69 0.100842 5.02199 0
M  V30 17391 C 1668.68 1.68833 6.14633 0
M  V30 17392 C 1666.37 1.01024 6.02692 0
M  V30 17393 C 1667.36 1.80253 6.58785 0
M  V30 17394 O 1667.05 2.69664 7.57322 0
M  V30 17395 H 1666.78 -0.105645 0.667694 0
M  V30 17396 H 1669.34 0.335505 2.02641 0
M  V30 17397 H 1667.57 -1.80598 3.41937 0
M  V30 17398 H 1669.26 -1.5504 3.75123 0
M  V30 17399 H 1670.02 0.70116 4.79905 0
M  V30 17400 H 1665.9 -0.505723 4.58218 0
M  V30 17401 H 1669.45 2.30718 6.58343 0
M  V30 17402 H 1665.34 1.09256 6.36187 0
M  V30 17403 H 1666.11 2.6374 7.74844 0
M  V30 17404 N 1668.77 -1.57515 -0.0517878 0
M  V30 17405 C 1669.68 -2.08427 -1.07681 0
M  V30 17406 C 1670.7 -1.01797 -1.41115 0
M  V30 17407 O 1671.88 -1.33394 -1.50891 0
M  V30 17408 C 1668.94 -2.53472 -2.36544 0
M  V30 17409 C 1668 -3.74488 -2.09899 0
M  V30 17410 C 1667.24 -4.17374 -3.32618 0
M  V30 17411 O 1667.46 -3.59962 -4.42475 0
M  V30 17412 O 1666.39 -5.10006 -3.19653 0
M  V30 17413 H 1670.22 -2.96122 -0.674217 0
M  V30 17414 H 1667.8 -1.4699 -0.267274 0
M  V30 17415 H 1669.69 -2.82876 -3.12345 0
M  V30 17416 H 1668.36 -1.68899 -2.76143 0
M  V30 17417 H 1667.27 -3.50137 -1.31739 0
M  V30 17418 H 1668.6 -4.59975 -1.75169 0
M  V30 17419 N 1670.25 0.323614 -1.54242 0
M  V30 17420 C 1671.19 1.41936 -1.79963 0
M  V30 17421 C 1672.2 1.47845 -0.681604 0
M  V30 17422 O 1673.39 1.50569 -0.95871 0
M  V30 17423 C 1670.49 2.80472 -1.90233 0
M  V30 17424 C 1669.66 2.97768 -3.20395 0
M  V30 17425 C 1668.72 4.16664 -3.21368 0
M  V30 17426 O 1667.75 4.09827 -3.95007 0
M  V30 17427 N 1668.95 5.26196 -2.45148 0
M  V30 17428 H 1671.71 1.20235 -2.74524 0
M  V30 17429 H 1669.27 0.513599 -1.53538 0
M  V30 17430 H 1671.27 3.58219 -1.88312 0
M  V30 17431 H 1669.84 2.95224 -1.02769 0
M  V30 17432 H 1669.06 2.07322 -3.35278 0
M  V30 17433 H 1670.34 3.06219 -4.06334 0
M  V30 17434 H 1669.74 5.34626 -1.84909 0
M  V30 17435 H 1668.3 6.02362 -2.49004 0
M  V30 17436 N 1671.73 1.46313 0.585673 0
M  V30 17437 C 1672.96 1.54811 1.36811 0
M  V30 17438 C 1673.37 0.187083 1.88273 0
M  V30 17439 O 1672.71 -0.825324 1.64116 0
M  V30 17440 C 1672.77 2.48978 2.59326 0
M  V30 17441 C 1672.44 3.9528 2.29352 0
M  V30 17442 C 1673.44 4.84575 1.88369 0
M  V30 17443 C 1671.12 4.40387 2.41588 0
M  V30 17444 C 1673.11 6.16989 1.60012 0
M  V30 17445 C 1670.8 5.72836 2.12844 0
M  V30 17446 C 1671.8 6.60956 1.72121 0
M  V30 17447 O 1671.49 7.90947 1.43727 0
M  V30 17448 H 1671.22 0.526169 0.424409 0
M  V30 17449 H 1673.77 1.92395 0.719251 0
M  V30 17450 H 1672 2.06406 3.27007 0
M  V30 17451 H 1673.69 2.47915 3.21392 0
M  V30 17452 H 1674.46 4.50984 1.78433 0
M  V30 17453 H 1670.34 3.72024 2.72249 0
M  V30 17454 H 1673.88 6.85728 1.28152 0
M  V30 17455 H 1669.78 6.05976 2.22403 0
M  V30 17456 H 1670.55 8.03185 1.57597 0
M  V30 17457 N 1673.21 -0.830057 1.33969 0
M  V30 17458 C 1674.14 -1.95557 1.27592 0
M  V30 17459 C 1675.12 -1.69395 0.154745 0
M  V30 17460 O 1676.31 -1.91094 0.345954 0
M  V30 17461 C 1673.44 -3.31881 1.02335 0
M  V30 17462 C 1672.39 -3.72464 2.10842 0
M  V30 17463 C 1671.72 -5.06692 1.70785 0
M  V30 17464 C 1673.02 -3.85315 3.52604 0
M  V30 17465 H 1674.71 -2.0115 2.21763 0
M  V30 17466 H 1672.26 -0.96639 1.06756 0
M  V30 17467 H 1674.21 -4.10197 0.965206 0
M  V30 17468 H 1672.93 -3.26568 0.0460462 0
M  V30 17469 H 1671.59 -2.96417 2.15714 0
M  V30 17470 H 1671.24 -4.97859 0.717334 0
M  V30 17471 H 1670.94 -5.34817 2.43403 0
M  V30 17472 H 1672.46 -5.87474 1.66452 0
M  V30 17473 H 1673.88 -4.5392 3.50185 0
M  V30 17474 H 1672.27 -4.24886 4.23783 0
M  V30 17475 H 1673.34 -2.87514 3.90466 0
M  V30 17476 N 1674.69 -1.17582 -1.04939 0
M  V30 17477 C 1675.92 -0.990398 -1.81656 0
M  V30 17478 C 1676.33 0.461324 -1.83077 0
M  V30 17479 O 1675.69 1.32037 -1.25986 0
M  V30 17480 C 1675.74 -1.52719 -3.27657 0
M  V30 17481 O 1675.46 -2.92206 -3.26415 0
M  V30 17482 C 1676.96 -1.38671 -4.21053 0
M  V30 17483 H 1674.18 -0.35024 -0.57234 0
M  V30 17484 H 1676.72 -1.5593 -1.32311 0
M  V30 17485 H 1674.88 -1.00026 -3.74264 0
M  V30 17486 H 1675.29 -3.17068 -4.17814 0
M  V30 17487 H 1676.77 -1.8104 -5.21468 0
M  V30 17488 H 1677.24 -0.334151 -4.37927 0
M  V30 17489 H 1677.85 -1.90393 -3.80303 0
M  V30 17490 N 1676.17 1.23705 -0.976463 0
M  V30 17491 C 1677.41 1.9132 -0.638714 0
M  V30 17492 C 1677.73 1.7707 0.830993 0
M  V30 17493 O 1678.93 2.39453 1.27964 0
M  V30 17494 C 1677.39 3.42941 -1.09178 0
M  V30 17495 C 1677 3.6586 -2.58555 0
M  V30 17496 C 1678.74 4.16355 -0.827585 0
M  V30 17497 C 1676.65 5.11096 -2.97549 0
M  V30 17498 H 1675.58 0.716382 -0.235187 0
M  V30 17499 H 1678.23 1.40205 -1.18384 0
M  V30 17500 H 1676.61 3.93142 -0.474893 0
M  V30 17501 H 1677.79 3.26221 -3.25448 0
M  V30 17502 H 1676.1 3.05748 -2.82678 0
M  V30 17503 H 1678.7 5.23372 -1.09482 0
M  V30 17504 H 1679.04 4.15629 0.236282 0
M  V30 17505 H 1679.57 3.7213 -1.40586 0
M  V30 17506 H 1676.31 5.1695 -4.03042 0
M  V30 17507 H 1675.83 5.51699 -2.35346 0
M  V30 17508 H 1677.51 5.79397 -2.87937 0
M  V30 17509 N 1677.64 0.747635 1.38738 0
M  V30 17510 C 1678.57 0.131317 2.3313 0
M  V30 17511 C 1679.55 -0.710229 1.54563 0
M  V30 17512 O 1680.74 -0.652631 1.82905 0
M  V30 17513 C 1677.87 -0.767168 3.38721 0
M  V30 17514 C 1676.82 -0.0288124 4.2799 0
M  V30 17515 C 1676.15 -1.04515 5.24386 0
M  V30 17516 C 1677.45 1.13608 5.09795 0
M  V30 17517 H 1679.14 0.91981 2.84921 0
M  V30 17518 H 1676.69 0.443764 1.36992 0
M  V30 17519 H 1678.64 -1.20796 4.03716 0
M  V30 17520 H 1677.37 -1.58792 2.85399 0
M  V30 17521 H 1676.03 0.392491 3.64493 0
M  V30 17522 H 1675.67 -1.8598 4.67355 0
M  V30 17523 H 1675.37 -0.555813 5.84965 0
M  V30 17524 H 1676.9 -1.48538 5.92257 0
M  V30 17525 H 1678.31 0.773129 5.68063 0
M  V30 17526 H 1676.71 1.55589 5.79579 0
M  V30 17527 H 1677.78 1.95182 4.43883 0
M  V30 17528 N 1679.12 -1.49583 0.496242 0
M  V30 17529 C 1680.53 -1.8664 0.0472756 0
M  V30 17530 C 1680.88 -1.40898 -1.36536 0
M  V30 17531 O 1680.01 -0.784796 -2.01668 0
M  V30 17532 C 1680.6 -3.38708 0.079016 0
M  V30 17533 C 1679.16 -3.75083 -0.314587 0
M  V30 17534 C 1678.31 -2.73565 0.453624 0
M  V30 17535 H 1681.26 -1.41969 0.709269 0
M  V30 17536 H 1681.28 -3.73676 -0.717396 0
M  V30 17537 H 1680.79 -3.71969 1.10727 0
M  V30 17538 H 1678.89 -3.47429 -1.34625 0
M  V30 17539 H 1679.01 -4.791 0.00155427 0
M  V30 17540 H 1677.37 -2.54519 -0.095937 0
M  V30 17541 H 1678.15 -3.0967 1.48186 0
M  V30 17542 N 1680.6 -0.229873 -1.55915 0
M  V30 17543 C 1681.51 0.687953 -2.24286 0
M  V30 17544 C 1682.53 1.20705 -1.25325 0
M  V30 17545 O 1683.7 1.2469 -1.58159 0
M  V30 17546 C 1680.77 1.87563 -2.91584 0
M  V30 17547 C 1679.83 1.39769 -4.0591 0
M  V30 17548 C 1679.06 2.52876 -4.69989 0
M  V30 17549 O 1679.28 3.71208 -4.33083 0
M  V30 17550 O 1678.22 2.23603 -5.58825 0
M  V30 17551 H 1682.04 0.135464 -3.03398 0
M  V30 17552 H 1679.63 0.000925172 -1.494 0
M  V30 17553 H 1681.51 2.56907 -3.34031 0
M  V30 17554 H 1680.19 2.41606 -2.15426 0
M  V30 17555 H 1679.09 0.672029 -3.68014 0
M  V30 17556 H 1680.43 0.903543 -4.83836 0
M  V30 17557 N 1682.08 1.5754 0.0434337 0
M  V30 17558 C 1683.33 1.88235 0.735652 0
M  V30 17559 C 1683.65 0.825698 1.76656 0
M  V30 17560 O 1682.92 -0.142424 1.95382 0
M  V30 17561 H 1681.5 0.694661 0.274692 0
M  V30 17562 H 1684.16 1.94896 0.0127911 0
M  V30 17563 H 1683.25 2.86659 1.23421 0
M  V30 17564 N 1683.56 -0.31543 1.54411 0
M  V30 17565 C 1684.49 -1.39353 1.87358 0
M  V30 17566 C 1685.47 -1.53586 0.731118 0
M  V30 17567 O 1686.65 -1.67332 0.98558 0
M  V30 17568 C 1683.78 -2.75998 2.10814 0
M  V30 17569 C 1682.74 -2.76545 3.2666 0
M  V30 17570 C 1682.06 -4.16343 3.35504 0
M  V30 17571 C 1683.36 -2.39567 4.64117 0
M  V30 17572 H 1685.06 -1.12028 2.77651 0
M  V30 17573 H 1682.6 -0.537476 1.33593 0
M  V30 17574 H 1684.55 -3.51491 2.32447 0
M  V30 17575 H 1683.28 -3.04817 1.17278 0
M  V30 17576 H 1681.94 -2.03507 3.04927 0
M  V30 17577 H 1681.59 -4.42316 2.39512 0
M  V30 17578 H 1681.29 -4.17613 4.13368 0
M  V30 17579 H 1682.81 -4.93637 3.59381 0
M  V30 17580 H 1684.22 -3.04775 4.85577 0
M  V30 17581 H 1682.62 -2.52075 5.4459 0
M  V30 17582 H 1683.69 -1.34707 4.65813 0
M  V30 17583 N 1685.03 -1.46622 -0.577906 0
M  V30 17584 C 1686.28 -1.52181 -1.33594 0
M  V30 17585 C 1686.61 -0.175484 -1.93707 0
M  V30 17586 O 1685.86 0.829407 -1.77255 0
M  V30 17587 C 1686.16 -2.57215 -2.48144 0
M  V30 17588 C 1685.83 -4.01095 -2.05993 0
M  V30 17589 C 1684.49 -4.40267 -1.94213 0
M  V30 17590 C 1686.84 -4.91459 -1.73543 0
M  V30 17591 C 1684.17 -5.67661 -1.48248 0
M  V30 17592 C 1686.52 -6.19296 -1.29055 0
M  V30 17593 C 1685.19 -6.57369 -1.15856 0
M  V30 17594 H 1684.46 -0.556868 -0.488855 0
M  V30 17595 H 1687.1 -1.80122 -0.65026 0
M  V30 17596 H 1685.41 -2.22952 -3.22179 0
M  V30 17597 H 1687.11 -2.58744 -3.06354 0
M  V30 17598 H 1683.7 -3.70134 -2.16098 0
M  V30 17599 H 1687.88 -4.61911 -1.81527 0
M  V30 17600 H 1683.14 -5.95928 -1.36676 0
M  V30 17601 H 1687.31 -6.88741 -1.03001 0
M  V30 17602 H 1684.94 -7.55977 -0.800148 0
M  V30 17603 N 1686.51 0.822941 -1.34408 0
M  V30 17604 C 1687.45 1.93899 -1.20326 0
M  V30 17605 C 1688.42 1.62323 -0.0949083 0
M  V30 17606 O 1689.61 1.86698 -0.260056 0
M  V30 17607 C 1686.73 3.27884 -0.849118 0
M  V30 17608 C 1685.78 3.78421 -1.96723 0
M  V30 17609 S 1686.61 3.98182 -3.58066 0
M  V30 17610 C 1687.77 5.35094 -3.24693 0
M  V30 17611 H 1688 2.05547 -2.14797 0
M  V30 17612 H 1685.54 0.978513 -1.19434 0
M  V30 17613 H 1687.49 4.05296 -0.651579 0
M  V30 17614 H 1686.15 3.14005 0.0772533 0
M  V30 17615 H 1685.35 4.75416 -1.67318 0
M  V30 17616 H 1684.95 3.07955 -2.12225 0
M  V30 17617 H 1687.24 6.18507 -2.76507 0
M  V30 17618 H 1688.18 5.69482 -4.20828 0
M  V30 17619 H 1688.59 5.00604 -2.60876 0
M  V30 17620 N 1687.99 1.18137 1.04314 0
M  V30 17621 C 1688.92 0.929593 2.14198 0
M  V30 17622 C 1689.9 -0.131766 1.69589 0
M  V30 17623 O 1691.09 0.0203104 1.94189 0
M  V30 17624 C 1688.22 0.451799 3.44349 0
M  V30 17625 C 1687.17 1.45336 4.02569 0
M  V30 17626 C 1686.5 0.833176 5.28169 0
M  V30 17627 C 1687.8 2.8293 4.39031 0
M  V30 17628 H 1689.49 1.84856 2.35518 0
M  V30 17629 H 1687.04 0.890217 1.13186 0
M  V30 17630 H 1688.99 0.26303 4.20578 0
M  V30 17631 H 1687.71 -0.502725 3.22708 0
M  V30 17632 H 1686.37 1.62902 3.28418 0
M  V30 17633 H 1686.02 -0.128459 5.02836 0
M  V30 17634 H 1685.72 1.50185 5.68083 0
M  V30 17635 H 1687.24 0.654881 6.07078 0
M  V30 17636 H 1688.66 2.6903 5.06257 0
M  V30 17637 H 1687.06 3.46458 4.89987 0
M  V30 17638 H 1688.13 3.3667 3.48972 0
M  V30 17639 N 1689.47 -1.23186 0.98301 0
M  V30 17640 C 1690.69 -1.96242 0.671114 0
M  V30 17641 C 1691.12 -1.72248 -0.755792 0
M  V30 17642 O 1690.48 -0.995555 -1.5152 0
M  V30 17643 C 1690.52 -3.47293 0.970571 0
M  V30 17644 O 1689.63 -4.1235 0.0639814 0
M  V30 17645 H 1688.97 -0.614262 0.252147 0
M  V30 17646 H 1691.5 -1.56551 1.31731 0
M  V30 17647 H 1691.51 -3.9776 0.908345 0
M  V30 17648 H 1690.18 -3.64083 2.01039 0
M  V30 17649 H 1688.76 -3.72461 0.180842 0
M  V30 17650 N 1690.95 -0.754982 -1.38339 0
M  V30 17651 C 1691.88 -0.143678 -2.33058 0
M  V30 17652 C 1692.86 0.702022 -1.54938 0
M  V30 17653 O 1694.04 0.642922 -1.83249 0
M  V30 17654 C 1691.17 0.749194 -3.39123 0
M  V30 17655 C 1690.13 0.00611459 -4.28 0
M  V30 17656 C 1689.45 1.01733 -5.24933 0
M  V30 17657 C 1690.75 -1.1631 -5.09185 0
M  V30 17658 H 1692.45 -0.934907 -2.84429 0
M  V30 17659 H 1689.99 -0.451023 -1.36754 0
M  V30 17660 H 1691.95 1.18653 -4.04351 0
M  V30 17661 H 1690.67 1.57276 -2.86237 0
M  V30 17662 H 1689.33 -0.411816 -3.6428 0
M  V30 17663 H 1688.98 1.83499 -4.68334 0
M  V30 17664 H 1688.68 0.524783 -5.85252 0
M  V30 17665 H 1690.2 1.45395 -5.93037 0
M  V30 17666 H 1691.61 -0.803244 -5.67645 0
M  V30 17667 H 1690.01 -1.5866 -5.78746 0
M  V30 17668 H 1691.08 -1.97533 -4.42842 0
M  V30 17669 N 1692.42 1.49318 -0.504168 0
M  V30 17670 C 1693.66 2.04366 0.0375509 0
M  V30 17671 C 1694.03 1.37521 1.33985 0
M  V30 17672 O 1695.23 1.83308 1.966 0
M  V30 17673 C 1693.5 3.56928 0.183524 0
M  V30 17674 S 1695.06 4.33514 0.679034 0
M  V30 17675 H 1691.88 0.711 0.000264717 0
M  V30 17676 H 1694.48 1.83335 -0.678857 0
M  V30 17677 H 1693.18 4.03121 -0.769546 0
M  V30 17678 H 1692.71 3.82369 0.925078 0
M  V30 17679 H 1694.73 4.56376 1.9477 0
M  V30 17680 N 1693.9 0.238138 1.5579 0
M  V30 17681 C 1694.83 -0.659451 2.23994 0
M  V30 17682 C 1695.81 -1.18817 1.21723 0
M  V30 17683 O 1697 -1.22913 1.50353 0
M  V30 17684 C 1694.13 -1.86043 2.93267 0
M  V30 17685 C 1693.08 -1.46485 4.02152 0
M  V30 17686 C 1692.41 -2.74595 4.58805 0
M  V30 17687 C 1693.71 -0.642448 5.18334 0
M  V30 17688 H 1695.4 -0.0907522 2.99262 0
M  V30 17689 H 1692.95 -0.042209 1.43938 0
M  V30 17690 H 1694.9 -2.49393 3.39678 0
M  V30 17691 H 1693.63 -2.45436 2.15473 0
M  V30 17692 H 1692.28 -0.854729 3.56497 0
M  V30 17693 H 1691.93 -3.32168 3.77721 0
M  V30 17694 H 1691.63 -2.48854 5.32302 0
M  V30 17695 H 1693.16 -3.38859 5.07944 0
M  V30 17696 H 1694.57 -1.18005 5.61024 0
M  V30 17697 H 1692.97 -0.481458 5.98166 0
M  V30 17698 H 1694.04 0.347298 4.83655 0
M  V30 17699 N 1695.38 -1.57561 -0.0350783 0
M  V30 17700 C 1696.63 -1.89276 -0.728172 0
M  V30 17701 C 1696.96 -0.835137 -1.75326 0
M  V30 17702 O 1696.23 0.150516 -1.93917 0
M  V30 17703 C 1696.52 -3.31638 -1.40316 0
M  V30 17704 C 1696.37 -4.48089 -0.391996 0
M  V30 17705 C 1697.69 -3.72816 -2.33872 0
M  V30 17706 H 1694.81 -0.688381 -0.26325 0
M  V30 17707 H 1697.45 -1.89998 0.00900661 0
M  V30 17708 H 1695.6 -3.31153 -2.0315 0
M  V30 17709 H 1697.27 -4.60706 0.233965 0
M  V30 17710 H 1695.52 -4.32834 0.289305 0
M  V30 17711 H 1696.19 -5.4457 -0.902641 0
M  V30 17712 H 1698.66 -3.74629 -1.81086 0
M  V30 17713 H 1697.54 -4.73245 -2.78084 0
M  V30 17714 H 1697.8 -3.04744 -3.20287 0
M  V30 17715 N 1696.86 0.307236 -1.54576 0
M  V30 17716 C 1698.27 0.88064 -1.64626 0
M  V30 17717 C 1698.62 1.88308 -0.550865 0
M  V30 17718 O 1697.75 2.14116 0.313553 0
M  V30 17719 C 1698.34 1.60405 -2.98422 0
M  V30 17720 C 1696.9 2.12595 -3.10613 0
M  V30 17721 C 1696.05 0.956593 -2.60278 0
M  V30 17722 H 1699 0.0843939 -1.58475 0
M  V30 17723 H 1699.02 2.46925 -2.89496 0
M  V30 17724 H 1698.53 0.874209 -3.78126 0
M  V30 17725 H 1696.63 2.88644 -2.35617 0
M  V30 17726 H 1696.74 2.36475 -4.16673 0
M  V30 17727 H 1695.11 1.3404 -2.16576 0
M  V30 17728 H 1695.89 0.24081 -3.42454 0
M  V30 17729 N 1698.34 1.46926 0.570122 0
M  V30 17730 C 1699.56 1.5648 1.35358 0
M  V30 17731 C 1699.98 0.210356 1.87624 0
M  V30 17732 O 1699.34 -0.794388 1.64304 0
M  V30 17733 C 1699.39 2.57973 2.53243 0
M  V30 17734 O 1699.11 3.88157 2.03139 0
M  V30 17735 C 1700.61 2.77587 3.4563 0
M  V30 17736 H 1697.83 0.528787 0.413068 0
M  V30 17737 H 1700.37 1.9244 0.691895 0
M  V30 17738 H 1698.53 2.24982 3.15375 0
M  V30 17739 H 1698.94 4.43506 2.80004 0
M  V30 17740 H 1700.42 3.52495 4.24795 0
M  V30 17741 H 1700.89 1.84944 3.98362 0
M  V30 17742 H 1701.5 3.11724 2.89324 0
M  V30 17743 N 1699.82 -0.815801 1.34842 0
M  V30 17744 C 1701.06 -1.57241 1.27599 0
M  V30 17745 C 1701.39 -1.93904 -0.152127 0
M  V30 17746 O 1700.65 -1.60819 -1.11515 0
M  V30 17747 C 1700.94 -2.87795 2.11917 0
M  V30 17748 C 1700.61 -2.70392 3.60831 0
M  V30 17749 C 1699.27 -2.65353 4.01424 0
M  V30 17750 C 1701.62 -2.53569 4.55359 0
M  V30 17751 C 1698.95 -2.41422 5.34726 0
M  V30 17752 C 1701.3 -2.31169 5.8885 0
M  V30 17753 C 1699.97 -2.24546 6.28598 0
M  V30 17754 H 1699.24 -0.575386 0.466918 0
M  V30 17755 H 1701.89 -0.943355 1.66653 0
M  V30 17756 H 1700.19 -3.5503 1.65714 0
M  V30 17757 H 1701.89 -3.45436 2.03654 0
M  V30 17758 H 1698.48 -2.75157 3.28613 0
M  V30 17759 H 1702.66 -2.5648 4.2489 0
M  V30 17760 H 1697.92 -2.34758 5.64534 0
M  V30 17761 H 1702.09 -2.1714 6.61682 0
M  V30 17762 H 1699.72 -2.05765 7.31823 0
M  V30 17763 N 1701.29 -1.18689 -1.03686 0
M  V30 17764 C 1702.26 -0.919415 -2.09951 0
M  V30 17765 C 1703.26 0.0968042 -1.60508 0
M  V30 17766 O 1704.45 -0.137062 -1.7366 0
M  V30 17767 C 1701.58 -0.380204 -3.38773 0
M  V30 17768 H 1702.77 -1.86178 -2.35112 0
M  V30 17769 H 1700.32 -0.999435 -1.20171 0
M  V30 17770 H 1701.06 0.568586 -3.19277 0
M  V30 17771 H 1700.84 -1.11281 -3.75977 0
M  V30 17772 H 1702.33 -0.211891 -4.17062 0
M  V30 17773 N 1702.77 1.22662 -0.989529 0
M  V30 17774 C 1704.02 1.91605 -0.66448 0
M  V30 17775 C 1704.35 1.76909 0.801048 0
M  V30 17776 O 1703.63 1.13583 1.5789 0
M  V30 17777 C 1703.91 3.43929 -1.06698 0
M  V30 17778 C 1703.76 3.67691 -2.59082 0
M  V30 17779 C 1705.08 4.35744 -0.617695 0
M  V30 17780 H 1702.2 0.695832 -0.242872 0
M  V30 17781 H 1704.84 1.44605 -1.23245 0
M  V30 17782 H 1702.99 3.8409 -0.58371 0
M  V30 17783 H 1704.66 3.36956 -3.15053 0
M  V30 17784 H 1702.91 3.12088 -3.01303 0
M  V30 17785 H 1703.58 4.74356 -2.82295 0
M  V30 17786 H 1706.05 4.0308 -1.03275 0
M  V30 17787 H 1704.93 5.41004 -0.927659 0
M  V30 17788 H 1705.19 4.39468 0.481734 0
M  V30 17789 N 1704.25 0.762308 1.37937 0
M  V30 17790 C 1705.47 0.332217 2.04722 0
M  V30 17791 C 1705.9 -1.03417 1.57119 0
M  V30 17792 O 1705.26 -1.6608 0.727117 0
M  V30 17793 C 1705.31 0.373899 3.58656 0
M  V30 17794 O 1704.41 -0.629024 4.07575 0
M  V30 17795 H 1703.75 0.145471 0.647869 0
M  V30 17796 H 1706.28 1.03586 1.7644 0
M  V30 17797 H 1706.29 0.22785 4.07363 0
M  V30 17798 H 1704.97 1.37079 3.92661 0
M  V30 17799 H 1703.54 -0.446871 3.70213 0
M  V30 17800 N 1705.73 -1.49049 0.51208 0
M  V30 17801 C 1706.97 -2.04383 -0.0267124 0
M  V30 17802 C 1707.33 -1.3823 -1.33253 0
M  V30 17803 O 1708.53 -1.84348 -1.95625 0
M  V30 17804 C 1706.8 -3.57021 -0.164593 0
M  V30 17805 S 1708.36 -4.33868 -0.656034 0
M  V30 17806 H 1705.18 -0.710991 0.00350589 0
M  V30 17807 H 1707.78 -1.82973 0.68857 0
M  V30 17808 H 1706.49 -4.02707 0.790913 0
M  V30 17809 H 1706.02 -3.82854 -0.904787 0
M  V30 17810 H 1708.03 -4.57403 -1.92347 0
M  V30 17811 N 1707.21 -0.246397 -1.55662 0
M  V30 17812 C 1708.14 0.647563 -2.24341 0
M  V30 17813 C 1709.12 1.1817 -1.22352 0
M  V30 17814 O 1710.3 1.22114 -1.51003 0
M  V30 17815 C 1707.43 1.84485 -2.94249 0
M  V30 17816 C 1706.39 1.4435 -4.02923 0
M  V30 17817 C 1705.71 2.72158 -4.60255 0
M  V30 17818 C 1707.01 0.614951 -5.18667 0
M  V30 17819 H 1708.71 0.0748803 -2.99306 0
M  V30 17820 H 1706.25 0.034575 -1.43958 0
M  V30 17821 H 1708.2 2.47588 -3.40995 0
M  V30 17822 H 1706.93 2.4429 -2.16772 0
M  V30 17823 H 1705.59 0.835811 -3.56945 0
M  V30 17824 H 1705.24 3.3016 -3.79478 0
M  V30 17825 H 1704.94 2.46028 -5.33614 0
M  V30 17826 H 1706.46 3.36161 -5.09734 0
M  V30 17827 H 1707.87 1.15028 -5.61642 0
M  V30 17828 H 1706.27 0.449729 -5.98412 0
M  V30 17829 H 1707.34 -0.372943 -4.83464 0
M  V30 17830 N 1708.68 1.57577 0.026722 0
M  V30 17831 C 1709.61 2.09748 1.02605 0
M  V30 17832 C 1710.59 1.00054 1.37562 0
M  V30 17833 O 1711.78 1.2759 1.46405 0
M  V30 17834 C 1708.91 2.57881 2.32626 0
M  V30 17835 C 1707.86 3.7186 2.11905 0
M  V30 17836 C 1707.19 4.06208 3.47706 0
M  V30 17837 C 1708.49 5.00198 1.50332 0
M  V30 17838 H 1710.18 2.93494 0.591753 0
M  V30 17839 H 1707.73 1.41188 0.283199 0
M  V30 17840 H 1709.68 2.93 3.02868 0
M  V30 17841 H 1708.41 1.71222 2.7812 0
M  V30 17842 H 1707.07 3.37094 1.44096 0
M  V30 17843 H 1706.71 3.16611 3.90853 0
M  V30 17844 H 1706.41 4.82982 3.34667 0
M  V30 17845 H 1707.94 4.43863 4.19306 0
M  V30 17846 H 1709.35 5.33259 2.10494 0
M  V30 17847 H 1707.75 5.81599 1.4786 0
M  V30 17848 H 1708.82 4.82623 0.469405 0
M  V30 17849 N 1710.16 -0.299034 1.54737 0
M  V30 17850 C 1711.09 -1.37358 1.88826 0
M  V30 17851 C 1712.07 -1.52802 0.747367 0
M  V30 17852 O 1713.26 -1.66277 1.00327 0
M  V30 17853 C 1710.39 -2.73746 2.13729 0
M  V30 17854 C 1709.34 -2.73065 3.29575 0
M  V30 17855 C 1708.67 -4.12761 3.39901 0
M  V30 17856 C 1709.97 -2.34631 4.66632 0
M  V30 17857 H 1711.66 -1.09077 2.78824 0
M  V30 17858 H 1709.21 -0.523276 1.34156 0
M  V30 17859 H 1711.16 -3.49006 2.36162 0
M  V30 17860 H 1709.88 -3.03556 1.20504 0
M  V30 17861 H 1708.54 -2.00261 3.07068 0
M  V30 17862 H 1708.19 -4.39751 2.44189 0
M  V30 17863 H 1707.89 -4.13205 4.17774 0
M  V30 17864 H 1709.42 -4.89797 3.64597 0
M  V30 17865 H 1710.83 -2.99608 4.88782 0
M  V30 17866 H 1709.23 -2.46285 5.47233 0
M  V30 17867 H 1710.3 -1.29759 4.67216 0
M  V30 17868 N 1711.64 -1.47227 -0.562322 0
M  V30 17869 C 1712.89 -1.53286 -1.31712 0
M  V30 17870 C 1713.21 -0.194583 -1.94027 0
M  V30 17871 O 1712.48 0.780961 -1.7966 0
M  V30 17872 H 1711.06 -0.564621 -0.489094 0
M  V30 17873 H 1713.72 -1.83492 -0.657024 0
M  V30 17874 H 1712.82 -2.29665 -2.1133 0
M  V30 17875 N 1713.12 0.808639 -1.35273 0
M  V30 17876 C 1714.05 1.93502 -1.30687 0
M  V30 17877 C 1715.03 1.69127 -0.181675 0
M  V30 17878 O 1716.21 1.90519 -0.376312 0
M  V30 17879 C 1713.34 3.30211 -1.07602 0
M  V30 17880 C 1712.3 3.69063 -2.16741 0
M  V30 17881 C 1711.62 5.03911 -1.78824 0
M  V30 17882 C 1712.92 3.79656 -3.5869 0
M  V30 17883 H 1714.62 1.97597 -2.24935 0
M  V30 17884 H 1712.16 0.949284 -1.0828 0
M  V30 17885 H 1714.12 4.0861 -1.03034 0
M  V30 17886 H 1712.84 3.26453 -0.0979944 0
M  V30 17887 H 1711.5 2.92948 -2.20402 0
M  V30 17888 H 1711.15 4.96655 -0.796449 0
M  V30 17889 H 1710.85 5.30877 -2.51881 0
M  V30 17890 H 1712.37 5.84752 -1.75777 0
M  V30 17891 H 1713.79 4.48292 -3.57362 0
M  V30 17892 H 1712.18 4.1809 -4.30489 0
M  V30 17893 H 1713.25 2.81265 -3.94991 0
M  V30 17894 N 1714.6 1.19237 1.03055 0
M  V30 17895 C 1715.87 0.903353 1.7349 0
M  V30 17896 C 1716.25 -0.591365 2.02648 0
M  V30 17897 O 1715.6 -1.54906 1.67978 0
M  V30 17898 C 1715.81 1.7615 3.01284 0
M  V30 17899 C 1717.16 1.99477 3.74825 0
M  V30 17900 O 1718.18 1.73287 3.11207 0
M  V30 17901 O 1717.04 2.43628 4.89191 0
M  V30 17902 H 1714.14 0.336512 0.755439 0
M  V30 17903 H 1716.68 1.30041 1.09029 0
M  V30 17904 H 1715.45 2.77428 2.75952 0
M  V30 17905 H 1715.08 1.36361 3.73486 0
M  V30 17906 N 1716.07 -1.22136 0.99602 0
M  V30 17907 C 1717 -2.26463 0.568909 0
M  V30 17908 C 1717.99 -1.65189 -0.405783 0
M  V30 17909 O 1719.17 -1.91935 -0.295735 0
M  V30 17910 C 1716.3 -3.47112 -0.114166 0
M  V30 17911 C 1715.25 -4.20844 0.779387 0
M  V30 17912 C 1714.58 -5.34687 -0.0367787 0
M  V30 17913 C 1715.88 -4.79195 2.07773 0
M  V30 17914 H 1717.57 -2.62443 1.44097 0
M  V30 17915 H 1715.12 -1.26156 0.694314 0
M  V30 17916 H 1717.07 -4.19258 -0.424381 0
M  V30 17917 H 1715.8 -3.10238 -1.02079 0
M  V30 17918 H 1714.46 -3.50537 1.07329 0
M  V30 17919 H 1714.1 -4.94054 -0.94442 0
M  V30 17920 H 1713.8 -5.84944 0.558092 0
M  V30 17921 H 1715.33 -6.09647 -0.341016 0
M  V30 17922 H 1716.74 -5.43266 1.83126 0
M  V30 17923 H 1715.14 -5.39803 2.62169 0
M  V30 17924 H 1716.21 -3.99073 2.75442 0
M  V30 17925 N 1717.55 -0.769612 -1.37531 0
M  V30 17926 C 1718.97 -0.449 -1.53154 0
M  V30 17927 C 1719.17 1.03568 -1.72847 0
M  V30 17928 O 1718.22 1.82154 -1.74861 0
M  V30 17929 C 1719.54 -1.26221 -2.72926 0
M  V30 17930 C 1721.09 -1.2539 -2.86786 0
M  V30 17931 C 1721.56 -2.05041 -4.09539 0
M  V30 17932 N 1723.05 -2.02384 -4.16647 0
M  V30 17933 C 1723.79 -2.60798 -5.10658 0
M  V30 17934 N 1723.28 -3.27991 -6.10241 0
M  V30 17935 N 1725.08 -2.5064 -5.03126 0
M  V30 17936 H 1717.23 -1.73161 -1.23 0
M  V30 17937 H 1719.49 -0.734977 -0.598759 0
M  V30 17938 H 1719.2 -2.31423 -2.64832 0
M  V30 17939 H 1719.07 -0.889937 -3.66551 0
M  V30 17940 H 1721.46 -0.209869 -2.94353 0
M  V30 17941 H 1721.54 -1.6658 -1.94126 0
M  V30 17942 H 1721.18 -3.09464 -4.02734 0
M  V30 17943 H 1721.11 -1.61234 -5.01309 0
M  V30 17944 H 1723.6 -1.53464 -3.45337 0
M  V30 17945 H 1723.92 -3.69942 -6.785 0
M  V30 17946 H 1722.26 -3.32089 -6.10526 0
M  V30 17947 H 1725.45 -1.97762 -4.24273 0
M  V30 17948 H 1725.62 -2.96458 -5.76209 0
M  V30 17949 N 1719.03 1.48775 -0.519977 0
M  V30 17950 C 1720.26 2.07394 0.0161061 0
M  V30 17951 C 1720.68 1.37532 1.28322 0
M  V30 17952 O 1720.04 0.438049 1.75928 0
M  V30 17953 C 1720.09 3.59844 0.233382 0
M  V30 17954 O 1719.19 3.91235 1.30418 0
M  V30 17955 H 1718.53 0.663094 -0.0346678 0
M  V30 17956 H 1721.06 1.91323 -0.725029 0
M  V30 17957 H 1721.07 4.05409 0.45911 0
M  V30 17958 H 1719.75 4.10098 -0.69229 0
M  V30 17959 H 1718.32 3.5746 1.0619 0
M  V30 17960 N 1720.51 0.254649 1.55529 0
M  V30 17961 C 1721.76 -0.367205 1.98736 0
M  V30 17962 C 1722.08 -1.57899 1.14424 0
M  V30 17963 O 1721.35 -1.94559 0.228849 0
M  V30 17964 H 1719.93 -0.138663 0.734017 0
M  V30 17965 H 1722.59 0.355236 1.91635 0
M  V30 17966 H 1721.69 -0.671069 3.048 0
M  V30 17967 N 1721.99 -1.57589 -0.0183649 0
M  V30 17968 C 1722.92 -2.1029 -1.01492 0
M  V30 17969 C 1723.9 -1.00782 -1.37029 0
M  V30 17970 O 1725.08 -1.28365 -1.45726 0
M  V30 17971 C 1722.21 -2.59111 -2.31255 0
M  V30 17972 C 1721.17 -3.72979 -2.0993 0
M  V30 17973 C 1720.49 -4.08046 -3.45547 0
M  V30 17974 C 1721.79 -5.00988 -1.47677 0
M  V30 17975 H 1723.49 -2.93804 -0.57618 0
M  V30 17976 H 1721.03 -1.41336 -0.275708 0
M  V30 17977 H 1722.99 -2.94602 -3.0131 0
M  V30 17978 H 1721.71 -1.72694 -2.77208 0
M  V30 17979 H 1720.37 -3.37853 -1.42306 0
M  V30 17980 H 1720.02 -3.1868 -3.89169 0
M  V30 17981 H 1719.72 -4.8475 -3.32101 0
M  V30 17982 H 1721.24 -4.46081 -4.16947 0
M  V30 17983 H 1722.65 -5.34368 -2.07663 0
M  V30 17984 H 1721.05 -5.82375 -1.44774 0
M  V30 17985 H 1722.12 -4.82865 -0.443804 0
M  V30 17986 N 1723.46 0.290824 -1.54893 0
M  V30 17987 C 1724.39 1.36354 -1.89551 0
M  V30 17988 C 1725.38 1.52403 -0.75546 0
M  V30 17989 O 1726.56 1.65743 -1.01208 0
M  V30 17990 C 1723.69 2.72609 -2.15178 0
M  V30 17991 C 1722.64 2.71313 -3.31019 0
M  V30 17992 C 1721.97 4.10952 -3.42085 0
M  V30 17993 C 1723.27 2.32153 -4.6787 0
M  V30 17994 H 1724.96 1.07597 -2.79398 0
M  V30 17995 H 1722.51 0.516154 -1.34432 0
M  V30 17996 H 1724.46 3.47749 -2.3801 0
M  V30 17997 H 1723.19 3.02913 -1.22112 0
M  V30 17998 H 1721.85 1.9863 -3.08126 0
M  V30 17999 H 1721.49 4.38449 -2.46518 0
M  V30 18000 H 1721.19 4.10984 -4.1996 0
M  V30 18001 H 1722.72 4.87857 -3.67189 0
M  V30 18002 H 1724.13 2.97011 -4.90364 0
M  V30 18003 H 1722.53 2.4338 -5.48531 0
M  V30 18004 H 1723.6 1.27279 -4.67897 0
M  V30 18005 N 1724.94 1.47523 0.554506 0
M  V30 18006 C 1725.89 1.60623 1.68235 0
M  V30 18007 C 1726.88 0.473445 1.6265 0
M  V30 18008 O 1728.09 0.651337 1.67802 0
M  V30 18009 H 1724.47 0.505539 0.556718 0
M  V30 18010 H 1726.44 2.55395 1.54323 0
M  V30 18011 C 1725.19 1.64022 3.06581 0
M  V30 18012 H 1724.51 2.50537 3.11562 0
M  V30 18013 H 1725.95 1.77237 3.85179 0
M  V30 18014 C 1724.41 0.374048 3.34817 0
M  V30 18015 O 1724.94 -0.523704 3.98272 0
M  V30 18016 N 1723.14 0.253244 2.89494 0
M  V30 18017 H 1722.69 0.984738 2.38035 0
M  V30 18018 H 1722.65 -0.592982 3.08757 0
M  V30 18019 N 1726.42 -0.801453 1.357 0
M  V30 18020 C 1727.35 -1.92807 1.31711 0
M  V30 18021 C 1728.33 -1.69028 0.190642 0
M  V30 18022 O 1729.52 -1.90317 0.38641 0
M  V30 18023 C 1726.65 -3.29635 1.09352 0
M  V30 18024 C 1725.6 -3.67908 2.18695 0
M  V30 18025 C 1724.93 -5.02955 1.81494 0
M  V30 18026 C 1726.23 -3.77749 3.60698 0
M  V30 18027 H 1727.92 -1.96401 2.2598 0
M  V30 18028 H 1725.47 -0.943528 1.08782 0
M  V30 18029 H 1727.42 -4.08058 1.052 0
M  V30 18030 H 1726.14 -3.26396 0.115306 0
M  V30 18031 H 1724.8 -2.91775 2.21952 0
M  V30 18032 H 1724.45 -4.96225 0.822776 0
M  V30 18033 H 1724.15 -5.29533 2.54692 0
M  V30 18034 H 1725.67 -5.83811 1.78876 0
M  V30 18035 H 1727.09 -4.4639 3.59734 0
M  V30 18036 H 1725.49 -4.15801 4.327 0
M  V30 18037 H 1726.56 -2.79167 3.96477 0
M  V30 18038 N 1727.9 -1.19782 -1.02421 0
M  V30 18039 C 1728.83 -0.963553 -2.12692 0
M  V30 18040 C 1729.81 0.104769 -1.69777 0
M  V30 18041 O 1730.99 -0.0512017 -1.94132 0
M  V30 18042 C 1728.12 -0.506525 -3.43586 0
M  V30 18043 C 1727.08 -1.51722 -4.00206 0
M  V30 18044 C 1726.4 -0.917097 -5.26776 0
M  V30 18045 C 1727.7 -2.89879 -4.34474 0
M  V30 18046 H 1729.4 -1.88579 -2.32547 0
M  V30 18047 H 1726.94 -0.908111 -1.11756 0
M  V30 18048 H 1728.9 -0.329907 -4.20107 0
M  V30 18049 H 1727.62 0.451322 -3.23467 0
M  V30 18050 H 1726.28 -1.68106 -3.25785 0
M  V30 18051 H 1725.93 0.0484457 -5.02977 0
M  V30 18052 H 1725.63 -1.59204 -5.65622 0
M  V30 18053 H 1727.15 -0.751379 -6.05959 0
M  V30 18054 H 1728.57 -2.7705 -5.01913 0
M  V30 18055 H 1726.96 -3.54209 -4.84413 0
M  V30 18056 H 1728.03 -3.42179 -3.43571 0
M  V30 18057 N 1729.38 1.21606 -1.00248 0
M  V30 18058 C 1730.6 1.95149 -0.702249 0
M  V30 18059 C 1731.03 1.73429 0.728293 0
M  V30 18060 O 1730.39 1.01953 1.49917 0
M  V30 18061 C 1730.43 3.45705 -1.0257 0
M  V30 18062 O 1729.54 4.12196 -0.129575 0
M  V30 18063 H 1728.88 0.610173 -0.261888 0
M  V30 18064 H 1731.41 1.54435 -1.34205 0
M  V30 18065 H 1731.42 3.96265 -0.97151 0
M  V30 18066 H 1730.09 3.60838 -2.06806 0
M  V30 18067 H 1728.67 3.72126 -0.240074 0
M  V30 18068 N 1730.86 0.776895 1.37121 0
M  V30 18069 C 1732.1 0.340209 1.9881 0
M  V30 18070 C 1732.42 -1.09071 1.62367 0
M  V30 18071 O 1733.62 -1.62904 2.17197 0
M  V30 18072 C 1732.08 0.557325 3.55559 0
M  V30 18073 C 1731.69 1.99884 4.00937 0
M  V30 18074 C 1733.43 0.184519 4.24099 0
M  V30 18075 C 1731.34 2.16328 5.50415 0
M  V30 18076 H 1730.27 0.12346 0.743824 0
M  V30 18077 H 1732.92 0.956754 1.56584 0
M  V30 18078 H 1731.3 -0.128752 3.95791 0
M  V30 18079 H 1732.48 2.72029 3.71937 0
M  V30 18080 H 1730.79 2.32872 3.45195 0
M  V30 18081 H 1733.39 0.285827 5.33935 0
M  V30 18082 H 1733.73 -0.865859 4.07196 0
M  V30 18083 H 1734.26 0.823343 3.89186 0
M  V30 18084 H 1731 3.19703 5.7225 0
M  V30 18085 H 1730.52 1.48673 5.81082 0
M  V30 18086 H 1732.2 1.96437 6.16459 0
M  V30 18087 N 1732.33 -1.48497 0.527859 0
M  V30 18088 C 1733.58 -2.02799 -0.00702196 0
M  V30 18089 C 1733.91 -1.40433 -1.34135 0
M  V30 18090 O 1733.19 -0.54934 -1.86581 0
M  V30 18091 C 1733.47 -3.59861 -0.131272 0
M  V30 18092 C 1733.32 -4.32711 1.22807 0
M  V30 18093 C 1734.64 -4.31634 -0.85908 0
M  V30 18094 H 1731.76 -0.736999 -0.00107787 0
M  V30 18095 H 1734.4 -1.77242 0.684478 0
M  V30 18096 H 1732.55 -3.81766 -0.720216 0
M  V30 18097 H 1734.23 -4.22229 1.85796 0
M  V30 18098 H 1732.47 -3.94212 1.8105 0
M  V30 18099 H 1733.14 -5.41047 1.09415 0
M  V30 18100 H 1735.62 -4.14546 -0.359322 0
M  V30 18101 H 1734.49 -5.41221 -0.914911 0
M  V30 18102 H 1734.75 -3.98765 -1.90889 0
M  V30 18103 N 1733.81 -0.262893 -1.55392 0
M  V30 18104 C 1734.74 0.670902 -2.18115 0
M  V30 18105 C 1735.72 1.1612 -1.13819 0
M  V30 18106 O 1736.91 1.23642 -1.42285 0
M  V30 18107 C 1734.03 1.91358 -2.79463 0
M  V30 18108 C 1733.08 1.5598 -3.96954 0
M  V30 18109 S 1733.91 0.648534 -5.31558 0
M  V30 18110 C 1735.07 1.89986 -5.96369 0
M  V30 18111 H 1735.3 0.137916 -2.9698 0
M  V30 18112 H 1732.83 -0.0472295 -1.54328 0
M  V30 18113 H 1734.79 2.62691 -3.15442 0
M  V30 18114 H 1733.45 2.4177 -2.00515 0
M  V30 18115 H 1732.65 2.48416 -4.38527 0
M  V30 18116 H 1732.25 0.926763 -3.62336 0
M  V30 18117 H 1734.54 2.84526 -6.14859 0
M  V30 18118 H 1735.48 1.52735 -6.91431 0
M  V30 18119 H 1735.89 2.05923 -5.256 0
M  V30 18120 N 1735.29 1.57597 0.0100073 0
M  V30 18121 C 1736.54 1.89308 0.696075 0
M  V30 18122 C 1736.85 0.863884 1.75489 0
M  V30 18123 O 1738.06 1.07087 2.49489 0
M  V30 18124 C 1736.51 3.36017 1.2892 0
M  V30 18125 C 1736.12 4.47211 0.265731 0
M  V30 18126 C 1737.87 3.76852 1.95404 0
M  V30 18127 C 1735.77 5.84991 0.868277 0
M  V30 18128 H 1734.7 0.706368 0.263744 0
M  V30 18129 H 1737.35 1.83435 -0.0488972 0
M  V30 18130 H 1735.74 3.36696 2.08451 0
M  V30 18131 H 1736.91 4.58033 -0.504256 0
M  V30 18132 H 1735.22 4.15332 -0.298096 0
M  V30 18133 H 1737.82 4.77121 2.41371 0
M  V30 18134 H 1738.16 3.09841 2.78036 0
M  V30 18135 H 1738.7 3.7843 1.22621 0
M  V30 18136 H 1735.44 6.5545 0.0809513 0
M  V30 18137 H 1734.96 5.77853 1.60766 0
M  V30 18138 H 1736.64 6.32331 1.36993 0
M  V30 18139 N 1736.77 -0.282606 1.55045 0
M  V30 18140 C 1737.7 -1.35347 1.90272 0
M  V30 18141 C 1738.68 -1.52001 0.763532 0
M  V30 18142 O 1739.86 -1.65204 1.02085 0
M  V30 18143 C 1736.99 -2.71464 2.16621 0
M  V30 18144 C 1735.95 -2.69554 3.32453 0
M  V30 18145 C 1735.27 -4.09132 3.4426 0
M  V30 18146 C 1736.57 -2.29669 4.69094 0
M  V30 18147 H 1738.27 -1.06113 2.79965 0
M  V30 18148 H 1735.81 -0.509018 1.34703 0
M  V30 18149 H 1737.77 -3.46482 2.39851 0
M  V30 18150 H 1736.49 -3.02261 1.23717 0
M  V30 18151 H 1735.15 -1.96993 3.09175 0
M  V30 18152 H 1734.8 -4.37136 2.4884 0
M  V30 18153 H 1734.5 -4.08751 4.22133 0
M  V30 18154 H 1736.02 -4.85903 3.69771 0
M  V30 18155 H 1737.44 -2.94407 4.91932 0
M  V30 18156 H 1735.83 -2.40467 5.49814 0
M  V30 18157 H 1736.9 -1.24796 4.68566 0
M  V30 18158 N 1738.25 -1.47815 -0.546675 0
M  V30 18159 C 1739.49 -1.5521 -1.30529 0
M  V30 18160 C 1739.82 -0.218129 -1.92971 0
M  V30 18161 O 1739.1 0.774298 -1.78423 0
M  V30 18162 C 1739.38 -2.67799 -2.40739 0
M  V30 18163 C 1739.24 -4.10847 -1.83097 0
M  V30 18164 C 1740.55 -2.76238 -3.42608 0
M  V30 18165 H 1737.67 -0.564998 -0.473229 0
M  V30 18166 H 1740.32 -1.79917 -0.610713 0
M  V30 18167 H 1738.47 -2.46863 -2.99985 0
M  V30 18168 H 1740.14 -4.43177 -1.28031 0
M  V30 18169 H 1738.38 -4.1863 -1.13716 0
M  V30 18170 H 1739.05 -4.85418 -2.62818 0
M  V30 18171 H 1741.53 -2.95156 -2.93296 0
M  V30 18172 H 1740.4 -3.56774 -4.17137 0
M  V30 18173 H 1740.66 -1.83719 -4.02119 0
M  V30 18174 N 1739.72 0.794246 -1.36123 0
M  V30 18175 C 1741 1.53967 -1.20638 0
M  V30 18176 C 1741.38 2.10058 0.209456 0
M  V30 18177 O 1740.73 1.93551 1.2145 0
M  V30 18178 C 1740.94 2.63844 -2.28445 0
M  V30 18179 C 1742.29 3.31855 -2.64872 0
M  V30 18180 O 1743.31 2.74124 -2.27452 0
M  V30 18181 O 1742.17 4.36177 -3.2926 0
M  V30 18182 H 1739.26 0.68086 -0.469424 0
M  V30 18183 H 1741.81 0.833144 -1.4784 0
M  V30 18184 H 1740.58 2.20357 -3.23355 0
M  V30 18185 H 1740.2 3.42121 -2.02581 0
M  V30 18186 N 1741.2 1.20323 1.01785 0
M  V30 18187 C 1742.43 1.03821 1.78966 0
M  V30 18188 C 1742.84 -0.412622 1.84236 0
M  V30 18189 O 1742.2 -1.2865 1.29443 0
M  V30 18190 C 1742.25 1.61352 3.23493 0
M  V30 18191 O 1741.97 3.00758 3.18553 0
M  V30 18192 C 1743.47 1.49786 4.17228 0
M  V30 18193 H 1740.69 0.365291 0.562853 0
M  V30 18194 H 1743.24 1.59383 1.2813 0
M  V30 18195 H 1741.39 1.09913 3.71481 0
M  V30 18196 H 1741.81 3.28034 4.09261 0
M  V30 18197 H 1743.28 1.94802 5.16484 0
M  V30 18198 H 1743.76 0.450143 4.36887 0
M  V30 18199 H 1744.36 2.00409 3.75122 0
M  V30 18200 N 1742.68 -1.21073 1.00892 0
M  V30 18201 C 1743.93 -1.90524 0.694879 0
M  V30 18202 C 1744.26 -1.78161 -0.772802 0
M  V30 18203 O 1743.53 -1.1608 -1.56063 0
M  V30 18204 C 1743.82 -3.42188 1.12156 0
M  V30 18205 C 1743.67 -3.63523 2.64898 0
M  V30 18206 C 1744.99 -4.34706 0.68694 0
M  V30 18207 H 1742.11 -0.69188 0.253912 0
M  V30 18208 H 1744.75 -1.42626 1.2553 0
M  V30 18209 H 1742.9 -3.83113 0.644742 0
M  V30 18210 H 1744.57 -3.31901 3.20374 0
M  V30 18211 H 1742.81 -3.07255 3.0623 0
M  V30 18212 H 1743.49 -4.69805 2.89806 0
M  V30 18213 H 1745.96 -4.01386 1.09674 0
M  V30 18214 H 1744.84 -5.3946 1.01361 0
M  V30 18215 H 1745.1 -4.40178 -0.411757 0
M  V30 18216 N 1744.16 -0.784156 -1.36707 0
M  V30 18217 C 1745.41 -0.353434 -1.98986 0
M  V30 18218 C 1745.73 1.07714 -1.62551 0
M  V30 18219 O 1745 1.7416 -0.896938 0
M  V30 18220 H 1743.58 -0.127693 -0.736005 0
M  V30 18221 H 1746.24 -1.00503 -1.66988 0
M  V30 18222 H 1745.34 -0.441028 -3.08968 0
M  V30 18223 N 1745.64 1.48215 -0.535727 0
M  V30 18224 C 1746.88 2.025 -0.00372753 0
M  V30 18225 C 1747.21 1.41227 1.33735 0
M  V30 18226 O 1746.47 0.549544 1.87826 0
M  V30 18227 C 1746.77 3.57036 0.161344 0
M  V30 18228 C 1746.43 4.37122 -1.10611 0
M  V30 18229 C 1745.09 4.58724 -1.45346 0
M  V30 18230 C 1747.45 4.83469 -1.94698 0
M  V30 18231 C 1744.77 5.2392 -2.64055 0
M  V30 18232 C 1747.13 5.49973 -3.1259 0
M  V30 18233 C 1745.79 5.69812 -3.47664 0
M  V30 18234 H 1745.06 0.740999 -0.001364 0
M  V30 18235 H 1747.71 1.78133 -0.70291 0
M  V30 18236 H 1746.01 3.80274 0.943337 0
M  V30 18237 H 1747.71 3.96666 0.587981 0
M  V30 18238 H 1744.3 4.20573 -0.825608 0
M  V30 18239 H 1748.48 4.66577 -1.69173 0
M  V30 18240 H 1743.74 5.37477 -2.91424 0
M  V30 18241 H 1747.91 5.84852 -3.78049 0
M  V30 18242 H 1745.54 6.20103 -4.39746 0
M  V30 18243 N 1747.11 0.27113 1.5525 0
M  V30 18244 C 1748.05 -0.659325 2.18468 0
M  V30 18245 C 1749.03 -1.15515 1.14433 0
M  V30 18246 O 1750.21 -1.22885 1.42939 0
M  V30 18247 C 1747.34 -1.89873 2.80474 0
M  V30 18248 C 1746.38 -1.53872 3.97776 0
M  V30 18249 S 1747.22 -0.620335 5.31895 0
M  V30 18250 C 1748.37 -1.86821 5.97368 0
M  V30 18251 H 1748.6 -0.122165 2.97049 0
M  V30 18252 H 1746.14 0.0554132 1.54301 0
M  V30 18253 H 1748.1 -2.61014 3.16831 0
M  V30 18254 H 1746.76 -2.40703 2.01794 0
M  V30 18255 H 1745.95 -2.46087 4.39838 0
M  V30 18256 H 1745.55 -0.907534 3.62822 0
M  V30 18257 H 1747.84 -2.81261 6.16359 0
M  V30 18258 H 1748.79 -1.49066 6.92232 0
M  V30 18259 H 1749.19 -2.03133 5.26685 0
M  V30 18260 N 1748.59 -1.576 -0.00164943 0
M  V30 18261 C 1749.56 -2.07267 -0.978423 0
M  V30 18262 C 1750.56 -0.981758 -1.27351 0
M  V30 18263 O 1751.75 -1.24446 -1.21896 0
M  V30 18264 C 1748.88 -2.51273 -2.30379 0
M  V30 18265 H 1750.07 -2.94835 -0.548845 0
M  V30 18266 H 1747.62 -1.54302 -0.249086 0
M  V30 18267 H 1748.36 -1.66943 -2.7803 0
M  V30 18268 H 1748.14 -3.30943 -2.10283 0
M  V30 18269 H 1749.63 -2.90031 -3.00453 0
M  V30 18270 N 1750.07 0.274379 -1.55193 0
M  V30 18271 C 1751 1.34336 -1.90987 0
M  V30 18272 C 1751.98 1.51594 -0.771582 0
M  V30 18273 O 1753.17 1.6466 -1.0296 0
M  V30 18274 C 1750.3 2.70312 -2.18057 0
M  V30 18275 C 1749.25 2.67787 -3.33878 0
M  V30 18276 C 1748.58 4.07301 -3.46425 0
M  V30 18277 C 1749.88 2.27178 -4.70306 0
M  V30 18278 H 1751.57 1.04627 -2.80524 0
M  V30 18279 H 1749.12 0.501867 -1.34971 0
M  V30 18280 H 1751.07 3.45205 -2.41685 0
M  V30 18281 H 1749.79 3.01601 -1.25318 0
M  V30 18282 H 1748.45 1.95351 -3.10216 0
M  V30 18283 H 1748.1 4.3581 -2.51155 0
M  V30 18284 H 1747.8 4.06507 -4.24295 0
M  V30 18285 H 1749.32 4.83935 -3.72343 0
M  V30 18286 H 1750.74 2.91794 -4.93487 0
M  V30 18287 H 1749.14 2.37548 -5.51082 0
M  V30 18288 H 1750.21 1.22309 -4.69221 0
M  V30 18289 N 1751.55 1.48103 0.538828 0
M  V30 18290 C 1752.79 1.5688 1.29461 0
M  V30 18291 C 1753.15 0.235793 1.9095 0
M  V30 18292 O 1752.44 -0.760462 1.75862 0
M  V30 18293 C 1752.64 2.63703 2.41237 0
M  V30 18294 C 1752.47 4.07262 1.90704 0
M  V30 18295 C 1751.24 4.74503 1.73709 0
M  V30 18296 C 1753.43 4.93708 1.44073 0
M  V30 18297 N 1751.42 6.0251 1.17709 0
M  V30 18298 C 1752.79 6.11889 0.999608 0
M  V30 18299 C 1754.84 4.80003 1.32294 0
M  V30 18300 C 1753.54 7.17876 0.452385 0
M  V30 18301 C 1755.57 5.86104 0.789719 0
M  V30 18302 C 1754.93 7.03486 0.358624 0
M  V30 18303 H 1751.03 0.628668 0.465081 0
M  V30 18304 H 1753.62 1.84942 0.608641 0
M  V30 18305 H 1751.79 2.37478 3.07341 0
M  V30 18306 H 1753.52 2.62217 3.0826 0
M  V30 18307 H 1750.27 4.30696 1.96971 0
M  V30 18308 H 1750.7 6.70755 0.917441 0
M  V30 18309 H 1755.34 3.896 1.64231 0
M  V30 18310 H 1753.06 8.0801 0.120677 0
M  V30 18311 H 1756.64 5.77551 0.70188 0
M  V30 18312 H 1755.52 7.84186 -0.0475698 0
M  V30 18313 N 1753.03 -0.787016 1.36542 0
M  V30 18314 C 1754.27 -1.54194 1.30647 0
M  V30 18315 C 1754.6 -1.94671 -0.113195 0
M  V30 18316 O 1753.87 -1.65131 -1.05397 0
M  V30 18317 H 1752.45 -0.571857 0.480613 0
M  V30 18318 H 1755.11 -0.93761 1.70865 0
M  V30 18319 H 1754.2 -2.4484 1.93545 0
M  V30 18320 N 1754.5 -1.20861 -1.01145 0
M  V30 18321 C 1755.75 -1.01613 -1.74234 0
M  V30 18322 C 1756.07 0.451683 -1.90313 0
M  V30 18323 O 1757.27 0.763408 -2.60546 0
M  V30 18324 C 1755.73 -1.76942 -3.134 0
M  V30 18325 C 1755.34 -3.27851 -3.05316 0
M  V30 18326 C 1757.08 -1.6608 -3.90663 0
M  V30 18327 C 1754.99 -3.95696 -4.39521 0
M  V30 18328 H 1753.92 -0.376593 -0.653218 0
M  V30 18329 H 1756.57 -1.44533 -1.1306 0
M  V30 18330 H 1754.95 -1.26812 -3.75146 0
M  V30 18331 H 1756.12 -3.85234 -2.52846 0
M  V30 18332 H 1754.44 -3.39184 -2.41543 0
M  V30 18333 H 1757.04 -2.14105 -4.89963 0
M  V30 18334 H 1757.38 -0.617892 -4.11689 0
M  V30 18335 H 1757.91 -2.13652 -3.35556 0
M  V30 18336 H 1754.65 -5.00161 -4.23697 0
M  V30 18337 H 1754.17 -3.43102 -4.91977 0
M  V30 18338 H 1755.85 -4.00242 -5.08346 0
M  V30 18339 N 1755.98 1.20536 -1.01532 0
M  V30 18340 C 1757.21 1.94393 -0.722908 0
M  V30 18341 C 1757.63 1.74191 0.709857 0
M  V30 18342 O 1756.99 1.03538 1.48827 0
M  V30 18343 C 1757.04 3.44597 -1.06231 0
M  V30 18344 O 1756.14 4.12036 -0.173286 0
M  V30 18345 H 1755.48 0.607361 -0.268345 0
M  V30 18346 H 1758.01 1.53003 -1.35835 0
M  V30 18347 H 1758.02 3.95212 -1.01348 0
M  V30 18348 H 1756.7 3.58624 -2.10621 0
M  V30 18349 H 1755.28 3.71851 -0.27953 0
M  V30 18350 N 1757.46 0.791395 1.36289 0
M  V30 18351 C 1758.69 0.376149 2.03147 0
M  V30 18352 C 1759.1 -1.01287 1.59805 0
M  V30 18353 O 1758.44 -1.66134 0.78392 0
M  V30 18354 C 1758.5 0.362792 3.57665 0
M  V30 18355 C 1758.17 1.69972 4.24215 0
M  V30 18356 C 1759.16 2.65553 4.46965 0
M  V30 18357 C 1756.85 1.97956 4.61648 0
M  V30 18358 C 1758.84 3.87311 5.0623 0
M  V30 18359 C 1756.53 3.19981 5.2063 0
M  V30 18360 C 1757.53 4.14477 5.42861 0
M  V30 18361 O 1757.22 5.3435 6.00604 0
M  V30 18362 H 1756.95 0.152854 0.658492 0
M  V30 18363 H 1759.5 1.072 1.75206 0
M  V30 18364 H 1757.73 -0.389566 3.84733 0
M  V30 18365 H 1759.42 -0.0280568 4.0589 0
M  V30 18366 H 1760.19 2.4522 4.1844 0
M  V30 18367 H 1756.07 1.25222 4.43667 0
M  V30 18368 H 1759.61 4.61081 5.23498 0
M  V30 18369 H 1755.51 3.4019 5.48581 0
M  V30 18370 H 1756.28 5.3544 6.19069 0
M  V30 18371 N 1758.94 -1.47929 0.54358 0
M  V30 18372 C 1759.89 -2.3151 -0.224935 0
M  V30 18373 C 1760.88 -1.4208 -0.922473 0
M  V30 18374 O 1762.09 -1.58917 -0.845309 0
M  V30 18375 H 1758.46 -0.746424 -0.0914091 0
M  V30 18376 H 1760.43 -2.94192 0.499381 0
M  V30 18377 C 1759.18 -3.24439 -1.25038 0
M  V30 18378 H 1758.51 -3.93207 -0.723059 0
M  V30 18379 H 1759.95 -3.8578 -1.75927 0
M  V30 18380 C 1758.4 -2.46998 -2.29115 0
M  V30 18381 O 1758.93 -2.20457 -3.358 0
M  V30 18382 N 1757.14 -2.08249 -2.02684 0
M  V30 18383 H 1756.69 -2.30034 -1.15941 0
M  V30 18384 H 1756.65 -1.56748 -2.72539 0
M  V30 18385 N 1760.42 -0.27936 -1.55104 0
M  V30 18386 C 1761.38 0.593214 -2.2139 0
M  V30 18387 C 1762.38 1.07807 -1.19308 0
M  V30 18388 O 1763.57 0.97756 -1.44185 0
M  V30 18389 C 1760.7 1.81889 -2.88321 0
M  V30 18390 H 1761.9 0.0143941 -2.99897 0
M  V30 18391 H 1759.45 -0.0300083 -1.56271 0
M  V30 18392 H 1760.18 2.43811 -2.13838 0
M  V30 18393 H 1759.97 1.4791 -3.63132 0
M  V30 18394 H 1761.46 2.4393 -3.38951 0
M  V30 18395 N 1761.9 1.57599 -0.0067085 0
M  V30 18396 C 1763.14 1.9114 0.677733 0
M  V30 18397 C 1763.47 0.881328 1.7305 0
M  V30 18398 O 1762.75 -0.099049 1.94248 0
M  V30 18399 C 1763.03 3.35241 1.31474 0
M  V30 18400 C 1762.89 4.4897 0.273055 0
M  V30 18401 C 1764.2 3.78886 2.23905 0
M  V30 18402 H 1761.32 0.695119 0.244907 0
M  V30 18403 H 1763.97 1.89907 -0.059378 0
M  V30 18404 H 1762.12 3.36423 1.94299 0
M  V30 18405 H 1763.79 4.59924 -0.356031 0
M  V30 18406 H 1762.03 4.31915 -0.403961 0
M  V30 18407 H 1762.7 5.46772 0.757941 0
M  V30 18408 H 1765.18 3.79299 1.7109 0
M  V30 18409 H 1764.05 4.80451 2.65439 0
M  V30 18410 H 1764.31 3.13129 3.12094 0
M  V30 18411 N 1763.37 -0.266145 1.55336 0
M  V30 18412 C 1764.6 -1.01915 1.80633 0
M  V30 18413 C 1765.02 -1.78897 0.581172 0
M  V30 18414 O 1764.38 -1.75118 -0.469399 0
M  V30 18415 C 1764.43 -1.948 3.03456 0
M  V30 18416 O 1763.53 -3.03678 2.79022 0
M  V30 18417 H 1762.87 -0.29102 0.596828 0
M  V30 18418 H 1765.4 -0.292973 2.02492 0
M  V30 18419 H 1765.41 -2.36626 3.32373 0
M  V30 18420 H 1764.09 -1.38182 3.92273 0
M  V30 18421 H 1762.67 -2.66118 2.61219 0
M  V30 18422 N 1764.85 -1.48386 -0.530967 0
M  V30 18423 C 1765.78 -1.6573 -1.64486 0
M  V30 18424 C 1766.76 -0.506198 -1.62393 0
M  V30 18425 O 1767.95 -0.738623 -1.79605 0
M  V30 18426 C 1765.08 -1.69594 -3.03076 0
M  V30 18427 C 1764.03 -2.84195 -3.20027 0
M  V30 18428 C 1763.36 -2.73148 -4.59668 0
M  V30 18429 C 1764.66 -4.25504 -3.02892 0
M  V30 18430 H 1766.35 -2.58983 -1.50227 0
M  V30 18431 H 1763.9 -1.24633 -0.721286 0
M  V30 18432 H 1765.85 -1.80316 -3.80873 0
M  V30 18433 H 1764.57 -0.729193 -3.18356 0
M  V30 18434 H 1763.23 -2.73027 -2.44647 0
M  V30 18435 H 1762.88 -1.74444 -4.71782 0
M  V30 18436 H 1762.58 -3.50047 -4.71954 0
M  V30 18437 H 1764.11 -2.85836 -5.39565 0
M  V30 18438 H 1765.52 -4.37511 -3.70482 0
M  V30 18439 H 1763.92 -5.03393 -3.26673 0
M  V30 18440 H 1764.99 -4.42036 -1.99329 0
M  V30 18441 N 1766.33 0.779763 -1.36958 0
M  V30 18442 C 1767.58 1.53326 -1.31049 0
M  V30 18443 C 1767.89 1.95317 0.105139 0
M  V30 18444 O 1769.1 2.69983 0.286652 0
M  V30 18445 C 1767.55 2.76832 -2.29983 0
M  V30 18446 C 1767.16 2.41972 -3.77033 0
M  V30 18447 C 1768.91 3.54794 -2.3307 0
M  V30 18448 C 1766.81 3.61931 -4.67718 0
M  V30 18449 H 1765.74 0.57561 -0.48702 0
M  V30 18450 H 1768.39 0.854801 -1.62374 0
M  V30 18451 H 1766.78 3.46527 -1.91665 0
M  V30 18452 H 1767.95 1.80112 -4.24142 0
M  V30 18453 H 1766.26 1.77201 -3.76814 0
M  V30 18454 H 1768.86 4.4394 -2.98029 0
M  V30 18455 H 1769.2 3.94077 -1.34199 0
M  V30 18456 H 1769.74 2.92088 -2.70054 0
M  V30 18457 H 1766.48 3.27736 -5.67688 0
M  V30 18458 H 1766 4.22923 -4.25319 0
M  V30 18459 H 1767.68 4.28842 -4.84462 0
M  V30 18460 N 1767.81 1.21396 1.00503 0
M  V30 18461 C 1768.76 0.97023 2.11398 0
M  V30 18462 C 1769.75 -0.0825019 1.69199 0
M  V30 18463 O 1770.96 0.0688841 1.79868 0
M  V30 18464 H 1767.33 0.296494 0.691083 0
M  V30 18465 H 1769.3 1.91155 2.29134 0
M  V30 18466 C 1768.05 0.551472 3.43299 0
M  V30 18467 H 1767.37 1.35316 3.76204 0
M  V30 18468 H 1768.81 0.420249 4.21912 0
M  V30 18469 C 1767.27 -0.737588 3.28727 0
M  V30 18470 O 1767.8 -1.79313 3.59458 0
M  V30 18471 N 1766.01 -0.704084 2.81942 0
M  V30 18472 H 1765.56 0.155183 2.57132 0
M  V30 18473 H 1765.51 -1.56689 2.72573 0
M  V30 18474 N 1769.29 -1.19996 1.0217 0
M  V30 18475 C 1770.22 -2.25206 0.616818 0
M  V30 18476 C 1771.2 -1.66013 -0.370653 0
M  V30 18477 O 1772.38 -1.92519 -0.254956 0
M  V30 18478 C 1769.51 -3.47276 -0.0405129 0
M  V30 18479 C 1768.47 -4.19096 0.868479 0
M  V30 18480 C 1767.79 -5.34645 0.0766447 0
M  V30 18481 C 1769.09 -4.7468 2.1789 0
M  V30 18482 H 1770.79 -2.59328 1.49632 0
M  V30 18483 H 1768.33 -1.24655 0.720917 0
M  V30 18484 H 1770.28 -4.20063 -0.335355 0
M  V30 18485 H 1769.01 -3.12333 -0.954759 0
M  V30 18486 H 1767.67 -3.48181 1.1474 0
M  V30 18487 H 1767.32 -4.95946 -0.839411 0
M  V30 18488 H 1767.02 -5.83628 0.682041 0
M  V30 18489 H 1768.54 -6.10233 -0.211624 0
M  V30 18490 H 1769.95 -5.39259 1.94608 0
M  V30 18491 H 1768.35 -5.34121 2.7356 0
M  V30 18492 H 1769.42 -3.93141 2.83845 0
M  V30 18493 N 1770.76 -0.798611 -1.35867 0
M  V30 18494 C 1772.01 -0.375816 -1.99287 0
M  V30 18495 C 1772.34 1.05223 -1.63223 0
M  V30 18496 O 1771.62 1.72862 -0.891576 0
M  V30 18497 C 1771.9 -0.550197 -3.55872 0
M  V30 18498 C 1771.75 -2.0226 -4.0176 0
M  V30 18499 C 1773.07 0.0290862 -4.4009 0
M  V30 18500 H 1770.19 -0.138024 -0.72396 0
M  V30 18501 H 1772.83 -1.00666 -1.61141 0
M  V30 18502 H 1770.98 -0.0131739 -3.88498 0
M  V30 18503 H 1772.66 -2.62139 -3.7958 0
M  V30 18504 H 1770.9 -2.52191 -3.52962 0
M  V30 18505 H 1771.57 -2.09553 -5.10678 0
M  V30 18506 H 1774.05 -0.429444 -4.13878 0
M  V30 18507 H 1772.92 -0.122894 -5.48762 0
M  V30 18508 H 1773.18 1.12206 -4.27624 0
M  V30 18509 N 1772.24 1.47639 -0.551417 0
M  V30 18510 C 1773.47 2.07381 -0.0278888 0
M  V30 18511 C 1773.89 1.40223 1.25375 0
M  V30 18512 O 1773.25 0.475268 1.7496 0
M  V30 18513 C 1773.3 3.60258 0.157001 0
M  V30 18514 O 1772.4 3.93913 1.2209 0
M  V30 18515 H 1771.74 0.66221 -0.0487252 0
M  V30 18516 H 1774.27 1.89742 -0.765449 0
M  V30 18517 H 1774.28 4.06291 0.373013 0
M  V30 18518 H 1772.96 4.08537 -0.779122 0
M  V30 18519 H 1771.53 3.59633 0.985843 0
M  V30 18520 N 1773.72 0.287581 1.54954 0
M  V30 18521 C 1774.68 -0.581465 2.21702 0
M  V30 18522 C 1775.68 -1.07172 1.19878 0
M  V30 18523 O 1776.87 -0.969899 1.44702 0
M  V30 18524 C 1774.01 -1.80358 2.89282 0
M  V30 18525 H 1775.2 0.00151035 2.999 0
M  V30 18526 H 1772.75 0.0382953 1.56253 0
M  V30 18527 H 1773.49 -2.42674 2.15128 0
M  V30 18528 H 1773.27 -1.45983 3.63911 0
M  V30 18529 H 1774.76 -2.42129 3.4024 0
M  V30 18530 N 1775.2 -1.57593 0.0150662 0
M  V30 18531 C 1776.44 -1.91497 -0.667587 0
M  V30 18532 C 1776.78 -0.890493 -1.7258 0
M  V30 18533 O 1776.05 0.0887462 -1.94297 0
M  V30 18534 C 1776.34 -3.35934 -1.29694 0
M  V30 18535 C 1776.19 -4.49109 -0.249242 0
M  V30 18536 C 1777.51 -3.80068 -2.21893 0
M  V30 18537 H 1774.63 -0.696408 -0.241217 0
M  V30 18538 H 1777.27 -1.89873 0.0694484 0
M  V30 18539 H 1775.42 -3.37448 -1.92512 0
M  V30 18540 H 1777.09 -4.59729 0.380417 0
M  V30 18541 H 1775.33 -4.31695 0.426861 0
M  V30 18542 H 1776 -5.47166 -0.728934 0
M  V30 18543 H 1778.48 -3.80201 -1.69076 0
M  V30 18544 H 1777.36 -4.81852 -2.62887 0
M  V30 18545 H 1777.62 -3.1478 -3.10429 0
M  V30 18546 N 1776.68 0.257904 -1.55475 0
M  V30 18547 C 1777.92 0.985519 -1.76442 0
M  V30 18548 C 1778.25 1.86267 -0.577033 0
M  V30 18549 O 1777.52 1.91613 0.407582 0
M  V30 18550 H 1776.1 0.366872 -0.650702 0
M  V30 18551 H 1778.76 0.278498 -1.929 0
M  V30 18552 H 1777.85 1.61367 -2.67146 0
M  V30 18553 N 1778.15 1.48666 0.52309 0
M  V30 18554 C 1779.09 1.58279 1.64387 0
M  V30 18555 C 1780.07 0.432873 1.56732 0
M  V30 18556 O 1781.25 0.645422 1.77106 0
M  V30 18557 C 1778.38 1.5172 3.02818 0
M  V30 18558 C 1777.42 2.71637 3.28809 0
M  V30 18559 S 1778.26 4.3354 3.14329 0
M  V30 18560 C 1779.41 4.29591 4.55195 0
M  V30 18561 H 1779.64 2.53093 1.55984 0
M  V30 18562 H 1777.18 1.37284 0.70658 0
M  V30 18563 H 1779.14 1.48623 3.82651 0
M  V30 18564 H 1777.8 0.582311 3.08655 0
M  V30 18565 H 1776.99 2.63206 4.29812 0
M  V30 18566 H 1776.59 2.72033 2.56659 0
M  V30 18567 H 1778.88 3.99949 5.46852 0
M  V30 18568 H 1779.83 5.30797 4.68679 0
M  V30 18569 H 1780.23 3.59964 4.3484 0
M  V30 18570 N 1779.63 -0.772489 1.37369 0
M  V30 18571 C 1780.86 -1.56671 1.35901 0
M  V30 18572 C 1781.28 -1.88024 -0.0535538 0
M  V30 18573 O 1780.64 -1.49174 -1.03038 0
M  V30 18574 C 1780.69 -2.85417 2.20384 0
M  V30 18575 O 1779.79 -3.79761 1.60796 0
M  V30 18576 H 1779.13 -0.474596 0.464386 0
M  V30 18577 H 1781.66 -0.956162 1.80883 0
M  V30 18578 H 1781.67 -3.34527 2.33571 0
M  V30 18579 H 1780.35 -2.61926 3.2306 0
M  V30 18580 H 1778.93 -3.38403 1.56645 0
M  V30 18581 N 1781.11 -1.21927 -0.998575 0
M  V30 18582 C 1782.36 -1.04194 -1.73987 0
M  V30 18583 C 1782.69 0.4227 -1.89544 0
M  V30 18584 O 1781.96 1.31353 -1.43446 0
M  V30 18585 C 1782.25 -1.74717 -3.14874 0
M  V30 18586 C 1782.1 -3.28741 -3.07001 0
M  V30 18587 C 1783.42 -1.49495 -4.13931 0
M  V30 18588 H 1780.54 -0.379918 -0.631531 0
M  V30 18589 H 1783.18 -1.5019 -1.16374 0
M  V30 18590 H 1781.33 -1.35615 -3.64062 0
M  V30 18591 H 1783 -3.77252 -2.65478 0
M  V30 18592 H 1781.25 -3.58711 -2.43944 0
M  V30 18593 H 1781.92 -3.73258 -4.06672 0
M  V30 18594 H 1784.39 -1.83451 -3.73477 0
M  V30 18595 H 1783.27 -2.01344 -5.10639 0
M  V30 18596 H 1783.53 -0.426324 -4.4004 0
M  V30 18597 N 1782.59 1.19452 -1.02805 0
M  V30 18598 C 1783.5 2.2631 -0.618147 0
M  V30 18599 C 1784.51 1.70449 0.349712 0
M  V30 18600 O 1785.69 2.00325 0.207801 0
M  V30 18601 C 1782.76 3.46691 0.0255242 0
M  V30 18602 C 1781.82 4.17735 -0.98973 0
M  V30 18603 C 1781.05 5.32369 -0.376681 0
M  V30 18604 O 1781.27 5.64467 0.820584 0
M  V30 18605 O 1780.21 5.9178 -1.09911 0
M  V30 18606 H 1784.03 2.63611 -1.50807 0
M  V30 18607 H 1781.62 1.2629 -0.798192 0
M  V30 18608 H 1783.5 4.19643 0.384464 0
M  V30 18609 H 1782.17 3.1124 0.889467 0
M  V30 18610 H 1781.08 3.46906 -1.40024 0
M  V30 18611 H 1782.41 4.57155 -1.82402 0
M  V30 18612 N 1784.07 0.805805 1.35442 0
M  V30 18613 C 1785.31 0.385808 1.98791 0
M  V30 18614 C 1785.64 -1.04681 1.63927 0
M  V30 18615 O 1784.9 -1.7408 0.894125 0
M  V30 18616 C 1785.2 0.515335 3.53665 0
M  V30 18617 C 1784.86 1.91115 4.08394 0
M  V30 18618 C 1783.52 2.29302 4.23053 0
M  V30 18619 C 1785.88 2.82437 4.38039 0
M  V30 18620 C 1783.2 3.58182 4.64675 0
M  V30 18621 C 1785.56 4.10762 4.811 0
M  V30 18622 C 1784.22 4.48949 4.93964 0
M  V30 18623 H 1783.49 0.141177 0.727427 0
M  V30 18624 H 1786.14 1.02644 1.61667 0
M  V30 18625 H 1784.44 -0.208753 3.91243 0
M  V30 18626 H 1786.14 0.171152 4.00635 0
M  V30 18627 H 1782.73 1.60446 3.97436 0
M  V30 18628 H 1786.91 2.54183 4.26268 0
M  V30 18629 H 1782.17 3.87618 4.72824 0
M  V30 18630 H 1786.34 4.81626 5.03 0
M  V30 18631 H 1783.97 5.48867 5.25974 0
M  V30 18632 N 1785.54 -1.47344 0.559239 0
M  V30 18633 C 1786.79 -2.02768 0.0359962 0
M  V30 18634 C 1787.12 -1.43247 -1.31126 0
M  V30 18635 O 1786.4 -0.588793 -1.85374 0
M  V30 18636 C 1786.68 -3.60058 -0.0549111 0
M  V30 18637 C 1786.53 -4.30008 1.31958 0
M  V30 18638 C 1787.85 -4.33359 -0.767331 0
M  V30 18639 H 1784.97 -0.736856 0.0145552 0
M  V30 18640 H 1787.61 -1.75751 0.72192 0
M  V30 18641 H 1785.76 -3.83208 -0.639076 0
M  V30 18642 H 1787.44 -4.18193 1.94711 0
M  V30 18643 H 1785.68 -3.90283 1.89372 0
M  V30 18644 H 1786.35 -5.38605 1.20867 0
M  V30 18645 H 1788.83 -4.15215 -0.27131 0
M  V30 18646 H 1787.7 -5.4304 -0.799905 0
M  V30 18647 H 1787.96 -4.02725 -1.82387 0
M  V30 18648 N 1787.02 -0.295795 -1.54799 0
M  V30 18649 C 1788.25 0.32058 -2.04907 0
M  V30 18650 C 1788.67 1.47132 -1.17191 0
M  V30 18651 O 1788.03 1.80455 -0.174869 0
M  V30 18652 C 1788.08 0.759439 -3.52512 0
M  V30 18653 O 1787.18 1.86474 -3.67833 0
M  V30 18654 H 1786.52 0.0631128 -0.660994 0
M  V30 18655 H 1789.05 -0.436123 -1.99898 0
M  V30 18656 H 1789.06 1.04965 -3.94267 0
M  V30 18657 H 1787.74 -0.0823715 -4.15818 0
M  V30 18658 H 1786.32 1.57547 -3.37984 0
M  V30 18659 N 1788.5 1.57583 -0.0234236 0
M  V30 18660 C 1789.45 2.06367 0.969361 0
M  V30 18661 C 1790.44 0.963028 1.28898 0
M  V30 18662 O 1791.63 1.22663 1.27604 0
M  V30 18663 C 1788.76 2.58967 2.25368 0
M  V30 18664 C 1787.84 3.75952 1.96268 0
M  V30 18665 N 1788.23 4.86776 1.37415 0
M  V30 18666 C 1786.53 3.84329 2.2629 0
M  V30 18667 C 1787.23 5.68041 1.25318 0
M  V30 18668 N 1786.21 5.14771 1.74677 0
M  V30 18669 H 1790.01 2.89455 0.509205 0
M  V30 18670 H 1787.52 1.6138 0.181729 0
M  V30 18671 H 1789.52 2.92206 2.97358 0
M  V30 18672 H 1788.18 1.77307 2.72015 0
M  V30 18673 H 1789.19 5.07147 1.0499 0
M  V30 18674 H 1785.87 3.13566 2.7565 0
M  V30 18675 H 1787.26 6.67137 0.798588 0
M  V30 18676 N 1789.98 -0.249655 1.5561 0
M  V30 18677 C 1791.23 -0.975982 1.76515 0
M  V30 18678 C 1791.54 -1.86589 0.586843 0
M  V30 18679 O 1792.75 -2.62876 0.678844 0
M  V30 18680 C 1791.2 -1.7854 3.12492 0
M  V30 18681 C 1790.81 -0.943014 4.37963 0
M  V30 18682 C 1792.56 -2.50462 3.42737 0
M  V30 18683 C 1790.46 -1.74816 5.64972 0
M  V30 18684 H 1789.39 -0.368139 0.65802 0
M  V30 18685 H 1792.04 -0.230745 1.82043 0
M  V30 18686 H 1790.43 -2.57248 3.01064 0
M  V30 18687 H 1791.6 -0.198453 4.60372 0
M  V30 18688 H 1789.91 -0.337249 4.15032 0
M  V30 18689 H 1792.51 -3.1115 4.34845 0
M  V30 18690 H 1792.85 -3.21938 2.63935 0
M  V30 18691 H 1793.39 -1.78767 3.55369 0
M  V30 18692 H 1790.13 -1.07719 6.46589 0
M  V30 18693 H 1789.65 -2.46807 5.46668 0
M  V30 18694 H 1791.33 -2.31599 6.04128 0
M  V30 18695 N 1791.46 -1.48941 -0.515198 0
M  V30 18696 C 1792.69 -1.61396 -1.29457 0
M  V30 18697 C 1793.1 -0.279847 -1.86714 0
M  V30 18698 O 1792.46 0.732861 -1.67139 0
M  V30 18699 C 1792.51 -2.67194 -2.43494 0
M  V30 18700 O 1792.23 -3.95429 -1.88593 0
M  V30 18701 C 1793.73 -2.90224 -3.35089 0
M  V30 18702 H 1790.95 -0.543754 -0.393157 0
M  V30 18703 H 1793.49 -1.94875 -0.619996 0
M  V30 18704 H 1791.65 -2.36532 -3.06808 0
M  V30 18705 H 1792.06 -4.53593 -2.63351 0
M  V30 18706 H 1793.54 -3.68018 -4.1142 0
M  V30 18707 H 1794.01 -1.99601 -3.91224 0
M  V30 18708 H 1794.62 -3.22247 -2.77555 0
M  V30 18709 N 1792.94 0.765193 -1.37777 0
M  V30 18710 C 1794.35 1.06666 -1.1872 0
M  V30 18711 C 1794.55 2.01481 -0.0278636 0
M  V30 18712 O 1793.61 2.44514 0.630006 0
M  V30 18713 C 1794.92 1.65787 -2.50868 0
M  V30 18714 C 1796.47 1.78014 -2.57449 0
M  V30 18715 C 1796.94 2.40548 -3.89744 0
M  V30 18716 N 1798.43 2.47992 -3.91221 0
M  V30 18717 C 1799.17 2.97245 -4.9034 0
M  V30 18718 N 1798.67 3.46621 -5.99855 0
M  V30 18719 N 1800.46 2.96179 -4.77739 0
M  V30 18720 H 1792.61 0.135775 -2.11966 0
M  V30 18721 H 1794.87 0.122863 -0.940005 0
M  V30 18722 H 1794.58 1.03588 -3.36099 0
M  V30 18723 H 1794.45 2.65 -2.6843 0
M  V30 18724 H 1796.84 2.39345 -1.72621 0
M  V30 18725 H 1796.92 0.775388 -2.43765 0
M  V30 18726 H 1796.56 1.79855 -4.74989 0
M  V30 18727 H 1796.49 3.41643 -4.00734 0
M  V30 18728 H 1798.99 2.13056 -3.12114 0
M  V30 18729 H 1799.3 3.82625 -6.7143 0
M  V30 18730 H 1797.64 3.44709 -6.0349 0
M  V30 18731 H 1800.83 2.56909 -3.913 0
M  V30 18732 H 1801.01 3.34253 -5.55139 0
M  V30 18733 N 1794.41 1.22455 0.992094 0
M  V30 18734 C 1795.64 1.07677 1.77258 0
M  V30 18735 C 1796.06 -0.368377 1.84458 0
M  V30 18736 O 1795.42 -1.26614 1.29763 0
M  V30 18737 C 1795.47 1.69353 3.18358 0
M  V30 18738 O 1794.57 0.947746 4.01362 0
M  V30 18739 H 1793.91 0.378141 0.545807 0
M  V30 18740 H 1796.44 1.62269 1.2462 0
M  V30 18741 H 1796.45 1.7411 3.68985 0
M  V30 18742 H 1795.13 2.74515 3.12433 0
M  V30 18743 H 1793.71 0.976245 3.59894 0
M  V30 18744 N 1795.89 -1.18905 1.03437 0
M  V30 18745 C 1797.14 -1.88727 0.734048 0
M  V30 18746 C 1797.47 -1.79964 -0.737773 0
M  V30 18747 O 1796.72 -1.19016 -1.5535 0
M  V30 18748 C 1797.02 -3.38811 1.13762 0
M  V30 18749 C 1796.69 -3.67777 2.60865 0
M  V30 18750 C 1795.35 -3.75393 3.01054 0
M  V30 18751 C 1797.7 -3.80666 3.5601 0
M  V30 18752 C 1795.03 -3.9337 4.35289 0
M  V30 18753 C 1797.38 -4.00158 4.89955 0
M  V30 18754 C 1796.04 -4.06007 5.29825 0
M  V30 18755 H 1795.31 -0.690602 0.268607 0
M  V30 18756 H 1797.96 -1.40777 1.29823 0
M  V30 18757 H 1796.27 -3.88697 0.492134 0
M  V30 18758 H 1797.96 -3.91164 0.882696 0
M  V30 18759 H 1794.55 -3.62462 2.28733 0
M  V30 18760 H 1798.74 -3.7412 3.2611 0
M  V30 18761 H 1793.99 -3.9614 4.65707 0
M  V30 18762 H 1798.17 -4.09073 5.63589 0
M  V30 18763 H 1795.79 -4.1969 6.33849 0
M  V30 18764 N 1797.37 -0.812977 -1.35013 0
M  V30 18765 C 1798.33 -0.233373 -2.28009 0
M  V30 18766 C 1799.33 0.58298 -1.4986 0
M  V30 18767 O 1800.52 0.400533 -1.69533 0
M  V30 18768 C 1797.65 0.673931 -3.34172 0
M  V30 18769 H 1798.85 -1.05366 -2.80781 0
M  V30 18770 H 1796.4 -0.584097 -1.44976 0
M  V30 18771 H 1797.14 1.51766 -2.86597 0
M  V30 18772 H 1796.92 0.0901848 -3.91996 0
M  V30 18773 H 1798.41 1.07358 -4.03564 0
M  V30 18774 N 1798.85 1.47045 -0.567045 0
M  V30 18775 C 1800.1 2.01651 -0.044479 0
M  V30 18776 C 1800.41 1.44583 1.31738 0
M  V30 18777 O 1801.62 1.90911 1.93042 0
M  V30 18778 C 1800.07 3.59888 -0.0289854 0
M  V30 18779 C 1799.68 4.25949 -1.38821 0
M  V30 18780 C 1801.42 4.22209 0.440457 0
M  V30 18781 C 1799.33 5.76221 -1.33129 0
M  V30 18782 H 1798.26 0.75389 -0.012858 0
M  V30 18783 H 1800.91 1.68939 -0.716363 0
M  V30 18784 H 1799.29 3.89606 0.708747 0
M  V30 18785 H 1800.47 4.07861 -2.14443 0
M  V30 18786 H 1798.78 3.75658 -1.79639 0
M  V30 18787 H 1801.38 5.32342 0.501592 0
M  V30 18788 H 1801.72 3.9006 1.45461 0
M  V30 18789 H 1802.26 3.97059 -0.242721 0
M  V30 18790 H 1798.99 6.13005 -2.32175 0
M  V30 18791 H 1798.51 5.96618 -0.617023 0
M  V30 18792 H 1800.19 6.38627 -1.03752 0
M  V30 18793 N 1800.33 0.304 1.5464 0
M  V30 18794 C 1801.55 -0.309709 2.05075 0
M  V30 18795 C 1801.98 -1.46509 1.1797 0
M  V30 18796 O 1801.33 -1.80359 0.184437 0
M  V30 18797 C 1801.38 -0.740734 3.5291 0
M  V30 18798 O 1800.49 -1.8452 3.68817 0
M  V30 18799 H 1799.83 -0.0596065 0.661319 0
M  V30 18800 H 1802.36 0.446718 1.99664 0
M  V30 18801 H 1802.37 -1.02873 3.94818 0
M  V30 18802 H 1801.04 0.104422 4.15769 0
M  V30 18803 H 1799.62 -1.55753 3.38815 0
M  V30 18804 N 1801.8 -1.57568 0.0317802 0
M  V30 18805 C 1803.03 -1.96212 -0.656401 0
M  V30 18806 C 1803.45 -0.908406 -1.6551 0
M  V30 18807 O 1802.8 0.109502 -1.82171 0
M  V30 18808 C 1802.85 -3.34924 -1.36044 0
M  V30 18809 O 1802.58 -4.36254 -0.401757 0
M  V30 18810 C 1804.08 -3.88215 -2.14019 0
M  V30 18811 H 1801.3 -0.646181 -0.180808 0
M  V30 18812 H 1803.84 -2.04291 0.0923341 0
M  V30 18813 H 1802 -3.28055 -2.06055 0
M  V30 18814 H 1802.41 -5.16686 -0.902005 0
M  V30 18815 H 1803.88 -4.87609 -2.5873 0
M  V30 18816 H 1804.36 -3.22602 -2.98034 0
M  V30 18817 H 1804.97 -3.98361 -1.4896 0
M  V30 18818 N 1803.28 0.241399 -1.5574 0
M  V30 18819 C 1804.23 1.29896 -1.90777 0
M  V30 18820 C 1805.2 1.47558 -0.76262 0
M  V30 18821 O 1806.38 1.61451 -1.01677 0
M  V30 18822 C 1803.52 2.6483 -2.21267 0
M  V30 18823 C 1802.64 2.5513 -3.48615 0
M  V30 18824 C 1801.77 3.82455 -3.68649 0
M  V30 18825 C 1800.81 3.67395 -4.89579 0
M  V30 18826 N 1799.95 4.86624 -5.06105 0
M  V30 18827 H 1804.79 0.993166 -2.80963 0
M  V30 18828 H 1802.33 0.47914 -1.39078 0
M  V30 18829 H 1804.28 3.4338 -2.36951 0
M  V30 18830 H 1802.91 2.93546 -1.34278 0
M  V30 18831 H 1801.97 1.6812 -3.41233 0
M  V30 18832 H 1803.28 2.39915 -4.37312 0
M  V30 18833 H 1802.43 4.69449 -3.84321 0
M  V30 18834 H 1801.17 4.00573 -2.78195 0
M  V30 18835 H 1800.18 2.78785 -4.73877 0
M  V30 18836 H 1801.4 3.50766 -5.81498 0
M  V30 18837 H 1799.35 5.05093 -4.18589 0
M  V30 18838 H 1799.26 4.7406 -5.889 0
M  V30 18839 H 1800.53 5.751 -5.26194 0
M  V30 18840 N 1804.76 1.49212 0.507292 0
M  V30 18841 C 1806.17 1.51655 1.08892 0
M  V30 18842 C 1806.52 0.299163 1.93906 0
M  V30 18843 O 1805.65 -0.591635 2.08155 0
M  V30 18844 C 1806.24 2.7481 1.98154 0
M  V30 18845 C 1804.8 2.80051 2.51492 0
M  V30 18846 C 1803.95 2.45486 1.28966 0
M  V30 18847 H 1806.9 1.56 0.291488 0
M  V30 18848 H 1806.92 2.54615 2.82757 0
M  V30 18849 H 1806.43 3.63396 1.36253 0
M  V30 18850 H 1804.53 1.95729 3.1705 0
M  V30 18851 H 1804.65 3.82064 2.89075 0
M  V30 18852 H 1803.01 1.97128 1.61284 0
M  V30 18853 H 1803.79 3.36339 0.687821 0
M  V30 18854 N 1806.24 -0.757876 1.38181 0
M  V30 18855 C 1807.47 -1.54709 1.37378 0
M  V30 18856 C 1807.88 -1.88763 -0.0375087 0
M  V30 18857 O 1807.24 -1.52467 -1.00299 0
M  V30 18858 C 1807.29 -2.84887 2.22535 0
M  V30 18859 O 1807.01 -2.52287 3.58166 0
M  V30 18860 C 1808.51 -3.79048 2.29865 0
M  V30 18861 H 1805.73 -0.478845 0.470052 0
M  V30 18862 H 1808.28 -0.938283 1.81704 0
M  V30 18863 H 1806.43 -3.42156 1.81682 0
M  V30 18864 H 1806.84 -3.35747 4.02957 0
M  V30 18865 H 1808.32 -4.67353 2.93744 0
M  V30 18866 H 1808.8 -4.19175 1.31106 0
M  V30 18867 H 1809.4 -3.27704 2.7109 0
M  V30 18868 N 1807.72 -1.22979 -0.985586 0
M  V30 18869 C 1808.96 -1.0704 -1.72957 0
M  V30 18870 C 1809.32 0.389425 -1.88418 0
M  V30 18871 O 1808.61 1.28458 -1.42159 0
M  V30 18872 C 1808.8 -1.72346 -3.131 0
M  V30 18873 C 1808.63 -3.24528 -3.11307 0
M  V30 18874 C 1807.4 -3.93666 -3.16788 0
M  V30 18875 C 1809.6 -4.21366 -2.94882 0
M  V30 18876 N 1807.58 -5.32874 -3.04826 0
M  V30 18877 C 1808.95 -5.47452 -2.91026 0
M  V30 18878 C 1811.01 -4.12165 -2.79328 0
M  V30 18879 C 1809.71 -6.65394 -2.73209 0
M  V30 18880 C 1811.74 -5.29766 -2.62873 0
M  V30 18881 C 1811.1 -6.54774 -2.59711 0
M  V30 18882 H 1807.2 -0.446178 -0.642222 0
M  V30 18883 H 1809.78 -1.55631 -1.16992 0
M  V30 18884 H 1807.95 -1.26295 -3.67293 0
M  V30 18885 H 1809.69 -1.4943 -3.76102 0
M  V30 18886 H 1806.44 -3.44712 -3.24762 0
M  V30 18887 H 1806.87 -6.05842 -3.02134 0
M  V30 18888 H 1811.51 -3.16295 -2.80566 0
M  V30 18889 H 1809.23 -7.61406 -2.70716 0
M  V30 18890 H 1812.81 -5.24484 -2.51809 0
M  V30 18891 H 1811.69 -7.4424 -2.47136 0
M  V30 18892 N 1809.19 1.18355 -1.04066 0
M  V30 18893 C 1810.12 2.24196 -0.652568 0
M  V30 18894 C 1811.11 1.66581 0.344195 0
M  V30 18895 O 1812.29 1.929 0.224296 0
M  V30 18896 C 1809.42 3.47297 -0.0147409 0
M  V30 18897 C 1808.37 4.17661 -0.935044 0
M  V30 18898 C 1807.7 5.34455 -0.161692 0
M  V30 18899 C 1809 4.71153 -2.25415 0
M  V30 18900 H 1810.69 2.56914 -1.53738 0
M  V30 18901 H 1808.24 1.23492 -0.740658 0
M  V30 18902 H 1810.19 4.20544 0.268484 0
M  V30 18903 H 1808.92 3.13812 0.904949 0
M  V30 18904 H 1807.58 3.46312 -1.20265 0
M  V30 18905 H 1807.22 4.97219 0.760404 0
M  V30 18906 H 1806.92 5.82469 -0.774805 0
M  V30 18907 H 1808.45 6.10493 0.114515 0
M  V30 18908 H 1809.86 5.36095 -2.03163 0
M  V30 18909 H 1808.26 5.29701 -2.82022 0
M  V30 18910 H 1809.33 3.88576 -2.90064 0
M  V30 18911 N 1810.67 0.820125 1.3458 0
M  V30 18912 C 1811.58 0.241913 2.33349 0
M  V30 18913 C 1812.6 -0.622228 1.62494 0
M  V30 18914 O 1813.77 -0.530787 1.9428 0
M  V30 18915 C 1810.84 -0.588944 3.41661 0
M  V30 18916 C 1809.9 0.29727 4.2827 0
M  V30 18917 C 1809.13 -0.494028 5.31409 0
M  V30 18918 O 1809.36 -1.72755 5.4361 0
M  V30 18919 O 1808.29 0.122182 6.01776 0
M  V30 18920 H 1812.12 1.05934 2.84626 0
M  V30 18921 H 1809.7 0.582205 1.37589 0
M  V30 18922 H 1811.58 -1.06174 4.07805 0
M  V30 18923 H 1810.26 -1.38374 2.92633 0
M  V30 18924 H 1809.17 0.817495 3.65059 0
M  V30 18925 H 1810.5 1.05635 4.80731 0
M  V30 18926 N 1812.15 -1.46743 0.574835 0
M  V30 18927 C 1813.57 -1.57847 0.23591 0
M  V30 18928 C 1813.77 -1.57105 -1.26175 0
M  V30 18929 O 1812.82 -1.48382 -2.04301 0
M  V30 18930 C 1814.14 -2.87591 0.878158 0
M  V30 18931 C 1815.68 -3.01209 0.851018 0
M  V30 18932 C 1816.16 -4.33678 1.47266 0
M  V30 18933 N 1817.65 -4.40358 1.43664 0
M  V30 18934 C 1818.38 -5.41458 1.8871 0
M  V30 18935 N 1817.88 -6.49274 2.41692 0
M  V30 18936 N 1819.67 -5.3261 1.79674 0
M  V30 18937 H 1811.82 -1.45469 1.54766 0
M  V30 18938 H 1814.09 -0.69341 0.646441 0
M  V30 18939 H 1813.79 -2.93922 1.93139 0
M  V30 18940 H 1813.67 -3.75264 0.381665 0
M  V30 18941 H 1816.05 -2.94464 -0.193573 0
M  V30 18942 H 1816.14 -2.15032 1.38545 0
M  V30 18943 H 1815.78 -4.41179 2.51641 0
M  V30 18944 H 1815.71 -5.18616 0.913519 0
M  V30 18945 H 1818.2 -3.63041 1.04928 0
M  V30 18946 H 1818.51 -7.22617 2.73942 0
M  V30 18947 H 1816.86 -6.50115 2.45713 0
M  V30 18948 H 1820.05 -4.47282 1.38045 0
M  V30 18949 H 1820.22 -6.11259 2.15096 0
M  V30 18950 N 1813.63 -0.312197 -1.54477 0
M  V30 18951 C 1814.59 0.54612 -2.22599 0
M  V30 18952 C 1815.59 1.05252 -1.21568 0
M  V30 18953 O 1816.78 0.946756 -1.46226 0
M  V30 18954 C 1813.91 1.75733 -2.92114 0
M  V30 18955 H 1815.11 -0.0492216 -2.9986 0
M  V30 18956 H 1812.66 -0.063149 -1.56172 0
M  V30 18957 H 1813.39 2.39221 -2.18961 0
M  V30 18958 H 1813.18 1.40175 -3.66188 0
M  V30 18959 H 1814.67 2.36685 -3.44049 0
M  V30 18960 N 1815.11 1.57549 -0.040136 0
M  V30 18961 C 1816.05 2.10879 0.938013 0
M  V30 18962 C 1817.02 1.01348 1.31597 0
M  V30 18963 O 1818.21 1.28832 1.40737 0
M  V30 18964 C 1815.35 2.64938 2.21138 0
M  V30 18965 C 1814.46 3.88516 1.88889 0
M  V30 18966 C 1813.6 4.3093 3.10601 0
M  V30 18967 C 1812.64 5.47237 2.74223 0
M  V30 18968 N 1811.77 5.84755 3.88594 0
M  V30 18969 H 1816.61 2.94169 0.476328 0
M  V30 18970 H 1814.15 1.45392 0.223503 0
M  V30 18971 H 1816.11 2.94375 2.95633 0
M  V30 18972 H 1814.74 1.84463 2.64903 0
M  V30 18973 H 1813.79 3.6574 1.04588 0
M  V30 18974 H 1815.1 4.7308 1.58103 0
M  V30 18975 H 1814.26 4.61861 3.93407 0
M  V30 18976 H 1812.99 3.45155 3.44557 0
M  V30 18977 H 1812 5.15988 1.89831 0
M  V30 18978 H 1813.22 6.34719 2.41472 0
M  V30 18979 H 1811.17 5.01935 4.22371 0
M  V30 18980 H 1811.09 6.63984 3.6147 0
M  V30 18981 H 1812.36 6.20297 4.72072 0
M  V30 18982 N 1816.58 -0.233136 1.55866 0
M  V30 18983 C 1817.49 -1.31004 1.94615 0
M  V30 18984 C 1818.51 -1.51915 0.848399 0
M  V30 18985 O 1819.69 -1.6527 1.15098 0
M  V30 18986 C 1816.75 -2.64203 2.24494 0
M  V30 18987 C 1815.81 -2.51695 3.47776 0
M  V30 18988 C 1815.05 -3.78542 3.7622 0
M  V30 18989 O 1815.27 -4.81043 3.06519 0
M  V30 18990 O 1814.2 -3.76348 4.69729 0
M  V30 18991 H 1818.03 -1.01129 2.86368 0
M  V30 18992 H 1815.61 -0.435043 1.42926 0
M  V30 18993 H 1817.5 -3.42889 2.44959 0
M  V30 18994 H 1816.17 -2.93782 1.35918 0
M  V30 18995 H 1815.08 -1.71248 3.32603 0
M  V30 18996 H 1816.41 -2.27058 4.36698 0
M  V30 18997 N 1818.06 -1.49479 -0.499372 0
M  V30 18998 C 1819.03 -1.6575 -1.58302 0
M  V30 18999 C 1820.03 -0.529236 -1.51841 0
M  V30 19000 O 1821.22 -0.795721 -1.54964 0
M  V30 19001 C 1818.35 -1.65639 -2.97954 0
M  V30 19002 H 1819.54 -2.62404 -1.45203 0
M  V30 19003 H 1817.09 -1.38535 -0.723725 0
M  V30 19004 H 1817.83 -0.705752 -3.16527 0
M  V30 19005 H 1817.61 -2.47578 -3.04051 0
M  V30 19006 H 1819.1 -1.80279 -3.76682 0
M  V30 19007 N 1819.54 0.750537 -1.38581 0
M  V30 19008 C 1820.77 1.53978 -1.38196 0
M  V30 19009 C 1821.18 1.8878 0.0274976 0
M  V30 19010 O 1820.54 1.52997 0.994894 0
M  V30 19011 C 1820.59 2.83702 -2.24043 0
M  V30 19012 O 1820.31 2.50384 -3.59499 0
M  V30 19013 C 1821.81 3.77823 -2.31872 0
M  V30 19014 H 1819.03 0.476345 -0.472585 0
M  V30 19015 H 1821.58 0.928634 -1.82199 0
M  V30 19016 H 1819.73 3.41187 -1.83494 0
M  V30 19017 H 1820.15 3.33605 -4.04732 0
M  V30 19018 H 1821.62 4.65788 -2.96218 0
M  V30 19019 H 1822.1 4.18474 -1.33327 0
M  V30 19020 H 1822.7 3.26262 -2.72824 0
M  V30 19021 N 1821.02 1.235 0.979051 0
M  V30 19022 C 1822.27 1.06197 1.71479 0
M  V30 19023 C 1822.58 -0.401066 1.91444 0
M  V30 19024 O 1823.79 -0.69406 2.62479 0
M  V30 19025 C 1822.24 1.85189 3.08598 0
M  V30 19026 C 1821.85 3.35831 2.96516 0
M  V30 19027 C 1823.6 1.76379 3.86122 0
M  V30 19028 C 1821.5 4.0721 4.28875 0
M  V30 19029 H 1820.43 0.393779 0.643004 0
M  V30 19030 H 1823.08 1.47479 1.09188 0
M  V30 19031 H 1821.47 1.36714 3.71652 0
M  V30 19032 H 1822.64 3.91803 2.42543 0
M  V30 19033 H 1820.95 3.45469 2.32466 0
M  V30 19034 H 1823.55 2.2702 4.84114 0
M  V30 19035 H 1823.89 0.726826 4.09906 0
M  V30 19036 H 1824.43 2.22473 3.29773 0
M  V30 19037 H 1821.17 5.11218 4.10288 0
M  V30 19038 H 1820.69 3.56025 4.82707 0
M  V30 19039 H 1822.37 4.13579 4.97555 0
M  V30 19040 N 1822.5 -1.17802 1.04693 0
M  V30 19041 C 1823.72 -1.92408 0.774194 0
M  V30 19042 C 1824.15 -1.76012 -0.663424 0
M  V30 19043 O 1823.51 -1.07447 -1.4603 0
M  V30 19044 C 1823.55 -3.4166 1.1533 0
M  V30 19045 O 1822.66 -4.11431 0.282469 0
M  V30 19046 H 1822 -0.600033 0.284353 0
M  V30 19047 H 1824.53 -1.49348 1.39844 0
M  V30 19048 H 1824.54 -3.92386 1.11791 0
M  V30 19049 H 1823.21 -3.52914 2.20056 0
M  V30 19050 H 1821.79 -3.70979 0.378021 0
M  V30 19051 N 1823.98 -0.827251 -1.34143 0
M  V30 19052 C 1824.91 -0.197383 -2.27345 0
M  V30 19053 C 1825.89 0.648729 -1.49098 0
M  V30 19054 O 1827.07 0.611527 -1.78305 0
M  V30 19055 C 1824.2 0.723918 -3.30873 0
M  V30 19056 C 1823.24 -0.0452254 -4.26476 0
M  V30 19057 S 1824.08 -1.39531 -5.17002 0
M  V30 19058 C 1825.23 -0.478996 -6.24064 0
M  V30 19059 H 1825.47 -0.987544 -2.80419 0
M  V30 19060 H 1823 -0.623379 -1.41256 0
M  V30 19061 H 1824.96 1.2499 -3.91009 0
M  V30 19062 H 1823.62 1.48764 -2.76637 0
M  V30 19063 H 1822.81 0.655335 -4.99721 0
M  V30 19064 H 1822.41 -0.5019 -3.70617 0
M  V30 19065 H 1824.7 0.327755 -6.76707 0
M  V30 19066 H 1825.65 -1.18126 -6.98178 0
M  V30 19067 H 1826.06 -0.0655033 -5.64462 0
M  V30 19068 N 1825.45 1.46436 -0.582609 0
M  V30 19069 C 1826.7 2.01986 -0.0680147 0
M  V30 19070 C 1827.02 1.45654 1.29653 0
M  V30 19071 O 1826.29 0.641203 1.85109 0
M  V30 19072 H 1824.87 0.746671 -0.022153 0
M  V30 19073 H 1827.53 1.79541 -0.758367 0
M  V30 19074 H 1826.63 3.121 0.00106001 0
M  V30 19075 N 1826.93 0.320385 1.54309 0
M  V30 19076 C 1828.16 -0.28794 2.05391 0
M  V30 19077 C 1828.58 -1.45249 1.19517 0
M  V30 19078 O 1827.94 -1.80154 0.203556 0
M  V30 19079 C 1827.99 -0.703261 3.53676 0
M  V30 19080 O 1827.09 -1.80598 3.70753 0
M  V30 19081 H 1826.43 -0.052589 0.661914 0
M  V30 19082 H 1828.96 0.46787 1.99179 0
M  V30 19083 H 1828.97 -0.986793 3.95887 0
M  V30 19084 H 1827.65 0.148514 4.15635 0
M  V30 19085 H 1826.22 -1.5215 3.40448 0
M  V30 19086 N 1828.41 -1.57525 0.0484906 0
M  V30 19087 C 1829.37 -2.10275 -0.911987 0
M  V30 19088 C 1830.37 -1.02178 -1.24163 0
M  V30 19089 O 1831.56 -1.28262 -1.17875 0
M  V30 19090 C 1828.69 -2.58475 -2.22269 0
M  V30 19091 H 1829.89 -2.96432 -0.454768 0
M  V30 19092 H 1827.44 -1.55017 -0.19987 0
M  V30 19093 H 1828.18 -1.75704 -2.72578 0
M  V30 19094 H 1827.96 -3.37466 -1.99648 0
M  V30 19095 H 1829.45 -2.99443 -2.91074 0
M  V30 19096 N 1829.89 0.224867 -1.55988 0
M  V30 19097 C 1831.13 0.951154 -1.79111 0
M  V30 19098 C 1831.47 1.84119 -0.617568 0
M  V30 19099 O 1830.74 1.90686 0.383312 0
M  V30 19100 C 1831.02 1.79292 -3.12292 0
M  V30 19101 C 1830.88 0.929603 -4.40089 0
M  V30 19102 C 1832.2 2.77132 -3.41886 0
M  V30 19103 H 1829.32 0.344359 -0.651603 0
M  V30 19104 H 1831.96 0.220228 -1.88719 0
M  V30 19105 H 1830.11 2.41609 -3.04232 0
M  V30 19106 H 1831.78 0.323432 -4.60165 0
M  V30 19107 H 1830.02 0.234877 -4.33164 0
M  V30 19108 H 1830.69 1.55289 -5.29707 0
M  V30 19109 H 1833.17 2.24951 -3.50052 0
M  V30 19110 H 1832.05 3.33135 -4.36248 0
M  V30 19111 H 1832.31 3.54705 -2.63887 0
M  V30 19112 N 1831.37 1.49742 0.491438 0
M  V30 19113 C 1832.61 1.59711 1.24494 0
M  V30 19114 C 1832.94 0.288122 1.92354 0
M  V30 19115 O 1832.2 -0.724652 1.81789 0
M  V30 19116 C 1832.49 2.71245 2.32725 0
M  V30 19117 C 1832.16 4.12423 1.82258 0
M  V30 19118 C 1830.82 4.50841 1.68214 0
M  V30 19119 C 1833.17 5.00741 1.44595 0
M  V30 19120 C 1830.5 5.75339 1.149 0
M  V30 19121 C 1832.85 6.25767 0.927292 0
M  V30 19122 C 1831.52 6.63005 0.773323 0
M  V30 19123 H 1830.79 0.584422 0.455556 0
M  V30 19124 H 1833.44 1.83607 0.544137 0
M  V30 19125 H 1831.74 2.41357 3.08632 0
M  V30 19126 H 1833.44 2.76165 2.90747 0
M  V30 19127 H 1830.03 3.82104 1.94151 0
M  V30 19128 H 1834.21 4.71709 1.54288 0
M  V30 19129 H 1829.47 6.02883 1.01699 0
M  V30 19130 H 1833.64 6.93574 0.626707 0
M  V30 19131 H 1831.27 7.59356 0.358031 0
M  V30 19132 N 1832.84 -0.743177 1.38977 0
M  V30 19133 C 1833.81 -1.83876 1.36829 0
M  V30 19134 C 1834.81 -1.5857 0.266875 0
M  V30 19135 O 1836 -1.66121 0.524337 0
M  V30 19136 C 1833.13 -3.21528 1.1328 0
M  V30 19137 H 1834.32 -1.87186 2.3431 0
M  V30 19138 H 1831.88 -0.945979 1.24422 0
M  V30 19139 H 1832.61 -3.23883 0.164474 0
M  V30 19140 H 1832.4 -3.41292 1.93034 0
M  V30 19141 H 1833.89 -4.01597 1.14498 0
M  V30 19142 N 1834.32 -1.24018 -0.972487 0
M  V30 19143 C 1835.57 -1.07489 -1.71145 0
M  V30 19144 C 1835.89 0.387798 -1.91105 0
M  V30 19145 O 1835.16 1.27725 -1.48537 0
M  V30 19146 H 1833.74 -0.394765 -0.634168 0
M  V30 19147 H 1836.4 -1.55861 -1.17018 0
M  V30 19148 H 1835.5 -1.56913 -2.69786 0
M  V30 19149 N 1835.8 1.17245 -1.05316 0
M  V30 19150 C 1837.05 1.87813 -0.765112 0
M  V30 19151 C 1837.38 1.80907 0.706147 0
M  V30 19152 O 1836.65 1.21793 1.51647 0
M  V30 19153 C 1836.94 3.3779 -1.24779 0
M  V30 19154 C 1836.79 3.53441 -2.78208 0
M  V30 19155 C 1838.11 4.31857 -0.847805 0
M  V30 19156 H 1835.23 0.681979 -0.279415 0
M  V30 19157 H 1837.87 1.37869 -1.30737 0
M  V30 19158 H 1836.02 3.80456 -0.786487 0
M  V30 19159 H 1837.69 3.19782 -3.32472 0
M  V30 19160 H 1835.94 2.95678 -3.17423 0
M  V30 19161 H 1836.61 4.58725 -3.07043 0
M  V30 19162 H 1839.08 3.97039 -1.24496 0
M  V30 19163 H 1837.96 5.35326 -1.21313 0
M  V30 19164 H 1838.22 4.41403 0.248104 0
M  V30 19165 N 1837.28 0.834353 1.33702 0
M  V30 19166 C 1838.24 0.269618 2.27609 0
M  V30 19167 C 1839.24 -0.559065 1.50768 0
M  V30 19168 O 1840.43 -0.373511 1.70149 0
M  V30 19169 C 1837.56 -0.620682 3.35202 0
M  V30 19170 H 1838.76 1.09819 2.79069 0
M  V30 19171 H 1836.31 0.607087 1.44028 0
M  V30 19172 H 1837.04 -1.47187 2.88975 0
M  V30 19173 H 1836.83 -0.0278102 3.9209 0
M  V30 19174 H 1838.32 -1.00924 4.05221 0
M  V30 19175 N 1838.76 -1.46125 0.590367 0
M  V30 19176 C 1839.69 -2.27433 -0.186997 0
M  V30 19177 C 1840.67 -1.36095 -0.889776 0
M  V30 19178 O 1841.85 -1.65511 -0.902123 0
M  V30 19179 C 1838.98 -3.14029 -1.26899 0
M  V30 19180 C 1838.02 -4.21185 -0.671223 0
M  V30 19181 S 1838.86 -5.33087 0.507766 0
M  V30 19182 C 1840.01 -6.23251 -0.575243 0
M  V30 19183 H 1840.25 -2.93016 0.502873 0
M  V30 19184 H 1837.78 -1.49715 0.377448 0
M  V30 19185 H 1839.74 -3.64483 -1.88845 0
M  V30 19186 H 1838.4 -2.47744 -1.93085 0
M  V30 19187 H 1837.59 -4.81633 -1.48478 0
M  V30 19188 H 1837.19 -3.73783 -0.127271 0
M  V30 19189 H 1839.49 -6.61606 -1.4589 0
M  V30 19190 H 1840.43 -7.081 -0.00733853 0
M  V30 19191 H 1840.84 -5.57554 -0.882831 0
M  V30 19192 N 1840.23 -0.328564 -1.54137 0
M  V30 19193 C 1841.46 0.274326 -2.05073 0
M  V30 19194 C 1841.88 1.45393 -1.20442 0
M  V30 19195 O 1841.23 1.80964 -0.23625 0
M  V30 19196 C 1841.29 0.703941 -3.5458 0
M  V30 19197 O 1841.01 -0.428738 -4.35997 0
M  V30 19198 C 1842.51 1.36912 -4.21628 0
M  V30 19199 H 1839.73 0.0556157 -0.668691 0
M  V30 19200 H 1842.27 -0.476204 -1.98878 0
M  V30 19201 H 1840.43 1.40444 -3.61046 0
M  V30 19202 H 1840.84 -0.0892654 -5.24424 0
M  V30 19203 H 1842.31 1.62062 -5.27674 0
M  V30 19204 H 1842.79 2.31799 -3.73049 0
M  V30 19205 H 1843.4 0.711064 -4.19314 0
M  V30 19206 N 1841.71 1.57497 -0.0568439 0
M  V30 19207 C 1842.66 2.1305 0.933398 0
M  V30 19208 C 1843.65 1.06369 1.31841 0
M  V30 19209 O 1844.86 1.2477 1.2974 0
M  V30 19210 H 1841.24 0.681037 0.318893 0
M  V30 19211 H 1843.21 2.95141 0.439796 0
M  V30 19212 C 1841.96 2.69502 2.1969 0
M  V30 19213 H 1841.28 3.51255 1.90945 0
M  V30 19214 H 1842.72 3.11986 2.87124 0
M  V30 19215 C 1841.18 1.63547 2.94541 0
M  V30 19216 O 1841.71 1.0516 3.87691 0
M  V30 19217 N 1839.91 1.34933 2.57374 0
M  V30 19218 H 1839.46 1.82601 1.81699 0
M  V30 19219 H 1839.42 0.642701 3.07761 0
M  V30 19220 N 1843.19 -0.216591 1.56105 0
M  V30 19221 C 1844.12 -1.27155 1.95841 0
M  V30 19222 C 1845.1 -1.48626 0.827313 0
M  V30 19223 O 1846.29 -1.60725 1.09 0
M  V30 19224 C 1843.42 -2.62032 2.27939 0
M  V30 19225 C 1842.37 -2.55211 3.43586 0
M  V30 19226 C 1841.7 -3.94163 3.61303 0
M  V30 19227 C 1843 -2.09566 4.78413 0
M  V30 19228 H 1844.69 -0.941435 2.84214 0
M  V30 19229 H 1842.24 -0.451427 1.36741 0
M  V30 19230 H 1844.19 -3.35997 2.5433 0
M  V30 19231 H 1842.91 -2.96742 1.36426 0
M  V30 19232 H 1841.57 -1.83703 3.17252 0
M  V30 19233 H 1841.22 -4.26188 2.67156 0
M  V30 19234 H 1840.92 -3.90479 4.3909 0
M  V30 19235 H 1842.44 -4.69782 3.90047 0
M  V30 19236 H 1843.86 -2.73277 5.03977 0
M  V30 19237 H 1842.26 -2.16931 5.59518 0
M  V30 19238 H 1843.33 -1.0481 4.73437 0
M  V30 19239 N 1844.67 -1.5 -0.48349 0
M  V30 19240 C 1846.08 -1.53369 -1.06466 0
M  V30 19241 C 1846.43 -0.329973 -1.93405 0
M  V30 19242 O 1845.56 0.558444 -2.0907 0
M  V30 19243 C 1846.15 -2.77927 -1.93757 0
M  V30 19244 C 1844.71 -2.84017 -2.47005 0
M  V30 19245 C 1843.86 -2.47506 -1.25044 0
M  V30 19246 H 1846.81 -1.56444 -0.266633 0
M  V30 19247 H 1846.83 -2.59081 -2.78671 0
M  V30 19248 H 1846.34 -3.65518 -1.30454 0
M  V30 19249 H 1844.44 -2.00748 -3.13896 0
M  V30 19250 H 1844.55 -3.86614 -2.8296 0
M  V30 19251 H 1842.92 -1.99669 -1.58127 0
M  V30 19252 H 1843.7 -3.37391 -0.634225 0
M  V30 19253 N 1846.15 0.735796 -1.39369 0
M  V30 19254 C 1847.39 1.49239 -1.3628 0
M  V30 19255 C 1847.72 1.94957 0.0408659 0
M  V30 19256 O 1846.99 1.68929 0.991959 0
M  V30 19257 H 1845.57 0.553626 -0.501506 0
M  V30 19258 H 1848.23 0.873549 -1.74227 0
M  V30 19259 H 1847.32 2.37488 -2.02499 0
M  V30 19260 N 1847.63 1.24532 0.965897 0
M  V30 19261 C 1848.87 1.0801 1.70343 0
M  V30 19262 C 1849.19 -0.380738 1.91859 0
M  V30 19263 O 1850.39 -0.666181 2.632 0
M  V30 19264 C 1848.85 1.88452 3.06617 0
M  V30 19265 C 1848.46 3.38957 2.92937 0
M  V30 19266 C 1850.2 1.80465 3.8423 0
M  V30 19267 C 1848.11 4.11736 4.24532 0
M  V30 19268 H 1847.04 0.400577 0.638791 0
M  V30 19269 H 1849.69 1.48629 1.07618 0
M  V30 19270 H 1848.07 1.40648 3.70181 0
M  V30 19271 H 1849.25 3.94353 2.38374 0
M  V30 19272 H 1847.56 3.47915 2.28788 0
M  V30 19273 H 1850.16 2.32142 4.81679 0
M  V30 19274 H 1850.5 0.770262 4.09112 0
M  V30 19275 H 1851.03 2.25958 3.27395 0
M  V30 19276 H 1847.77 5.15541 4.04842 0
M  V30 19277 H 1847.29 3.61125 4.78904 0
M  V30 19278 H 1848.97 4.18833 4.93141 0
M  V30 19279 N 1849.1 -1.16685 1.05936 0
M  V30 19280 C 1850.03 -2.23129 0.688153 0
M  V30 19281 C 1851.01 -1.67108 -0.31765 0
M  V30 19282 O 1852.2 -1.93233 -0.193578 0
M  V30 19283 C 1849.33 -3.47229 0.069991 0
M  V30 19284 C 1848.28 -4.16121 1.00137 0
M  V30 19285 C 1847.61 -5.34131 0.246699 0
M  V30 19286 C 1848.91 -4.67508 2.32882 0
M  V30 19287 H 1850.6 -2.54436 1.57806 0
M  V30 19288 H 1848.15 -1.22298 0.76021 0
M  V30 19289 H 1850.1 -4.20918 -0.201545 0
M  V30 19290 H 1848.83 -3.15212 -0.854909 0
M  V30 19291 H 1847.49 -3.44355 1.25759 0
M  V30 19292 H 1847.13 -4.98366 -0.681204 0
M  V30 19293 H 1846.83 -5.81163 0.867373 0
M  V30 19294 H 1848.36 -6.10598 -0.0173762 0
M  V30 19295 H 1849.77 -5.32795 2.11666 0
M  V30 19296 H 1848.17 -5.25147 2.90414 0
M  V30 19297 H 1849.24 -3.83912 2.96209 0
M  V30 19298 N 1850.58 -0.841432 -1.33258 0
M  V30 19299 C 1851.83 -0.439027 -1.97991 0
M  V30 19300 C 1852.16 0.999767 -1.66488 0
M  V30 19301 O 1851.44 1.69938 -0.94612 0
M  V30 19302 C 1851.72 -0.663137 -3.53941 0
M  V30 19303 C 1851.57 -2.14939 -3.95122 0
M  V30 19304 C 1852.89 -0.11094 -4.3996 0
M  V30 19305 H 1850.01 -0.160987 -0.719203 0
M  V30 19306 H 1852.65 -1.05742 -1.57856 0
M  V30 19307 H 1850.8 -0.136765 -3.88259 0
M  V30 19308 H 1852.47 -2.74082 -3.71048 0
M  V30 19309 H 1850.72 -2.63293 -3.4476 0
M  V30 19310 H 1851.39 -2.25694 -5.03752 0
M  V30 19311 H 1853.86 -0.560898 -4.12302 0
M  V30 19312 H 1852.74 -0.297416 -5.48094 0
M  V30 19313 H 1853 0.985446 -4.30977 0
M  V30 19314 N 1852.06 1.4581 -0.598108 0
M  V30 19315 C 1852.99 2.33223 0.113747 0
M  V30 19316 C 1853.97 1.46268 0.868312 0
M  V30 19317 O 1855.16 1.75058 0.840737 0
M  V30 19318 C 1852.29 3.28815 1.11795 0
M  V30 19319 C 1851.24 4.25331 0.477223 0
M  V30 19320 C 1850.57 5.10544 1.589 0
M  V30 19321 C 1851.87 5.18894 -0.595518 0
M  V30 19322 H 1853.56 2.92992 -0.616123 0
M  V30 19323 H 1851.11 1.40888 -0.297741 0
M  V30 19324 H 1853.06 3.88832 1.62443 0
M  V30 19325 H 1851.78 2.67185 1.87829 0
M  V30 19326 H 1850.44 3.66599 -0.00831044 0
M  V30 19327 H 1850.09 4.45288 2.33939 0
M  V30 19328 H 1849.79 5.75918 1.16584 0
M  V30 19329 H 1851.31 5.73427 2.09794 0
M  V30 19330 H 1852.73 5.73037 -0.173494 0
M  V30 19331 H 1851.12 5.92694 -0.939873 0
M  V30 19332 H 1852.19 4.61895 -1.47584 0
M  V30 19333 N 1853.54 0.336733 1.53961 0
M  V30 19334 C 1854.79 -0.261343 2.00403 0
M  V30 19335 C 1855.11 -1.51612 1.22633 0
M  V30 19336 O 1854.38 -1.93072 0.331659 0
M  V30 19337 H 1852.96 -0.0995594 0.740336 0
M  V30 19338 H 1855.62 0.456319 1.89483 0
M  V30 19339 H 1854.71 -0.508557 3.07929 0
M  V30 19340 N 1855.02 -1.57465 0.0651956 0
M  V30 19341 C 1855.95 -2.15374 -0.902018 0
M  V30 19342 C 1856.93 -1.07904 -1.31494 0
M  V30 19343 O 1858.11 -1.35909 -1.38717 0
M  V30 19344 C 1855.24 -2.71005 -2.17195 0
M  V30 19345 C 1854.2 -3.83583 -1.89864 0
M  V30 19346 C 1853.52 -4.25789 -3.23432 0
M  V30 19347 C 1854.82 -5.08112 -1.20913 0
M  V30 19348 H 1856.52 -2.96445 -0.419631 0
M  V30 19349 H 1854.06 -1.42599 -0.200401 0
M  V30 19350 H 1856.01 -3.1016 -2.8527 0
M  V30 19351 H 1854.74 -1.87146 -2.67664 0
M  V30 19352 H 1853.4 -3.44921 -1.24197 0
M  V30 19353 H 1853.05 -3.38861 -3.71729 0
M  V30 19354 H 1852.75 -5.01673 -3.05938 0
M  V30 19355 H 1854.27 -4.67555 -3.92715 0
M  V30 19356 H 1855.68 -5.44624 -1.79046 0
M  V30 19357 H 1854.08 -5.8923 -1.137 0
M  V30 19358 H 1855.15 -4.84538 -0.187224 0
M  V30 19359 N 1856.49 0.20831 -1.56217 0
M  V30 19360 C 1857.46 1.24178 -1.92646 0
M  V30 19361 C 1858.46 1.39125 -0.806274 0
M  V30 19362 O 1859.65 1.37163 -1.07386 0
M  V30 19363 C 1856.78 2.61342 -2.18891 0
M  V30 19364 H 1857.97 0.930748 -2.85091 0
M  V30 19365 H 1855.52 0.449285 -1.49703 0
M  V30 19366 H 1856.26 2.97521 -1.29041 0
M  V30 19367 H 1856.04 2.51866 -3.00509 0
M  V30 19368 H 1857.53 3.35892 -2.48125 0
M  V30 19369 N 1857.97 1.50255 0.475528 0
M  V30 19370 C 1858.92 1.68794 1.57408 0
M  V30 19371 C 1859.89 0.529252 1.57442 0
M  V30 19372 O 1861.07 0.759301 1.75041 0
M  V30 19373 C 1858.21 1.78401 2.9541 0
M  V30 19374 C 1857.33 3.05742 3.05198 0
M  V30 19375 C 1856.46 3.06172 4.34088 0
M  V30 19376 C 1855.5 4.27985 4.37602 0
M  V30 19377 N 1854.64 4.26179 5.57957 0
M  V30 19378 H 1859.48 2.62583 1.40905 0
M  V30 19379 H 1857.01 1.30169 0.685152 0
M  V30 19380 H 1858.97 1.81952 3.75432 0
M  V30 19381 H 1857.6 0.880556 3.10558 0
M  V30 19382 H 1856.65 3.11683 2.18077 0
M  V30 19383 H 1857.97 3.95722 3.03654 0
M  V30 19384 H 1857.12 3.08427 5.22454 0
M  V30 19385 H 1855.86 2.14014 4.38234 0
M  V30 19386 H 1854.86 4.25947 3.47634 0
M  V30 19387 H 1856.09 5.21364 4.35151 0
M  V30 19388 H 1854.04 3.36873 5.62897 0
M  V30 19389 H 1853.95 5.09923 5.58135 0
M  V30 19390 H 1855.22 4.32574 6.4846 0
M  V30 19391 N 1859.45 -0.728395 1.39758 0
M  V30 19392 C 1860.41 -1.82415 1.38772 0
M  V30 19393 C 1861.41 -1.58278 0.283678 0
M  V30 19394 O 1862.6 -1.65556 0.541927 0
M  V30 19395 C 1859.73 -3.20309 1.16684 0
M  V30 19396 H 1860.93 -1.8469 2.36283 0
M  V30 19397 H 1858.48 -0.932729 1.25419 0
M  V30 19398 H 1859.22 -3.2369 0.198817 0
M  V30 19399 H 1859 -3.39226 1.96643 0
M  V30 19400 H 1860.49 -4.0036 1.18751 0
M  V30 19401 N 1860.93 -1.25042 -0.959279 0
M  V30 19402 C 1861.86 -1.00807 -2.05841 0
M  V30 19403 C 1862.87 0.0253938 -1.6278 0
M  V30 19404 O 1864.06 -0.212625 -1.77229 0
M  V30 19405 C 1861.16 -0.501088 -3.35175 0
M  V30 19406 C 1860.33 -1.59964 -4.071 0
M  V30 19407 C 1859.39 -1.09383 -5.14705 0
M  V30 19408 O 1858.42 -1.78728 -5.40412 0
M  V30 19409 N 1859.62 0.0673296 -5.80461 0
M  V30 19410 H 1862.39 -1.95446 -2.27203 0
M  V30 19411 H 1859.95 -1.16185 -1.1275 0
M  V30 19412 H 1861.94 -0.147283 -4.04432 0
M  V30 19413 H 1860.51 0.351241 -3.1062 0
M  V30 19414 H 1859.73 -2.12524 -3.32005 0
M  V30 19415 H 1861.02 -2.3378 -4.51912 0
M  V30 19416 H 1860.42 0.646867 -5.61989 0
M  V30 19417 H 1858.97 0.362206 -6.50793 0
M  V30 19418 N 1862.41 1.16121 -1.06553 0
M  V30 19419 C 1863.34 2.22761 -0.699976 0
M  V30 19420 C 1864.32 1.67274 0.308783 0
M  V30 19421 O 1865.5 1.93333 0.183328 0
M  V30 19422 C 1862.63 3.47187 -0.0884044 0
M  V30 19423 C 1861.59 4.15584 -1.02343 0
M  V30 19424 C 1860.91 5.33992 -0.275022 0
M  V30 19425 C 1862.21 4.66266 -2.35358 0
M  V30 19426 H 1863.91 2.53595 -1.59153 0
M  V30 19427 H 1861.45 1.21893 -0.766686 0
M  V30 19428 H 1863.41 4.21019 0.17922 0
M  V30 19429 H 1862.13 3.15661 0.838181 0
M  V30 19430 H 1860.79 3.43683 -1.27584 0
M  V30 19431 H 1860.44 4.9872 0.654765 0
M  V30 19432 H 1860.14 5.80695 -0.898181 0
M  V30 19433 H 1861.66 6.10598 -0.0150056 0
M  V30 19434 H 1863.07 5.31665 -2.14488 0
M  V30 19435 H 1861.47 5.236 -2.93195 0
M  V30 19436 H 1862.54 3.82335 -2.98241 0
M  V30 19437 N 1863.88 0.848487 1.3281 0
M  V30 19438 C 1865.13 0.445116 1.96727 0
M  V30 19439 C 1865.45 -1.00311 1.6792 0
M  V30 19440 O 1866.65 -1.51162 2.25527 0
M  V30 19441 C 1865.11 0.745015 3.52104 0
M  V30 19442 C 1864.72 2.20856 3.89778 0
M  V30 19443 C 1866.46 0.409065 4.22524 0
M  V30 19444 C 1864.37 2.452 5.38174 0
M  V30 19445 H 1863.3 0.162715 0.736233 0
M  V30 19446 H 1865.95 1.03841 1.51292 0
M  V30 19447 H 1864.33 0.0812291 3.95917 0
M  V30 19448 H 1865.5 2.91362 3.56994 0
M  V30 19449 H 1863.82 2.50842 3.32366 0
M  V30 19450 H 1866.42 0.568453 5.3167 0
M  V30 19451 H 1866.76 -0.648796 4.11213 0
M  V30 19452 H 1867.29 1.02848 3.84275 0
M  V30 19453 H 1864.03 3.49588 5.54499 0
M  V30 19454 H 1863.55 1.79265 5.72384 0
M  V30 19455 H 1865.23 2.28838 6.0518 0
M  V30 19456 N 1865.36 -1.4549 0.605832 0
M  V30 19457 C 1866.29 -2.28694 -0.152145 0
M  V30 19458 C 1867.31 -1.3985 -0.833422 0
M  V30 19459 O 1868.5 -1.6424 -0.699105 0
M  V30 19460 C 1865.6 -3.15544 -1.23634 0
M  V30 19461 C 1864.77 -4.32655 -0.642525 0
M  V30 19462 C 1863.83 -5.00726 -1.61739 0
M  V30 19463 O 1862.85 -5.57577 -1.14438 0
M  V30 19464 N 1864.06 -4.9985 -2.95178 0
M  V30 19465 H 1866.82 -2.94387 0.561801 0
M  V30 19466 H 1864.38 -1.55659 0.445195 0
M  V30 19467 H 1866.37 -3.57947 -1.88828 0
M  V30 19468 H 1864.94 -2.51771 -1.85284 0
M  V30 19469 H 1864.16 -3.93754 0.187451 0
M  V30 19470 H 1865.45 -5.08298 -0.225985 0
M  V30 19471 H 1864.85 -4.54949 -3.36211 0
M  V30 19472 H 1863.41 -5.46123 -3.558 0
M  V30 19473 N 1866.84 -0.344893 -1.5378 0
M  V30 19474 C 1868.09 0.252216 -2.00117 0
M  V30 19475 C 1868.4 1.51548 -1.23663 0
M  V30 19476 O 1869.61 2.18991 -1.60484 0
M  V30 19477 C 1868.06 0.499983 -3.5641 0
M  V30 19478 C 1867.67 -0.747455 -4.41721 0
M  V30 19479 C 1869.42 1.05588 -4.11159 0
M  V30 19480 C 1867.32 -0.470414 -5.89526 0
M  V30 19481 H 1866.25 0.0980234 -0.747601 0
M  V30 19482 H 1868.9 -0.460431 -1.7763 0
M  V30 19483 H 1867.29 1.27337 -3.74969 0
M  V30 19484 H 1868.46 -1.52204 -4.34937 0
M  V30 19485 H 1866.78 -1.22508 -3.97971 0
M  V30 19486 H 1869.37 1.27813 -5.19199 0
M  V30 19487 H 1869.72 2.01181 -3.64461 0
M  V30 19488 H 1870.25 0.343167 -3.96317 0
M  V30 19489 H 1866.99 -1.3961 -6.4046 0
M  V30 19490 H 1866.51 0.266065 -5.9921 0
M  V30 19491 H 1868.19 -0.0881607 -6.4694 0
M  V30 19492 N 1868.32 1.57428 -0.0735454 0
M  V30 19493 C 1869.57 1.93556 0.595172 0
M  V30 19494 C 1869.89 0.95371 1.69513 0
M  V30 19495 O 1869.15 -0.0303731 1.95676 0
M  V30 19496 C 1869.45 3.36302 1.20978 0
M  V30 19497 C 1869.11 4.50283 0.235791 0
M  V30 19498 C 1867.78 4.81189 -0.0321575 0
M  V30 19499 C 1870.13 5.19419 -0.430452 0
M  V30 19500 C 1867.46 5.78569 -0.973406 0
M  V30 19501 C 1869.81 6.17807 -1.36003 0
M  V30 19502 C 1868.47 6.4713 -1.63643 0
M  V30 19503 H 1867.74 0.708272 0.217789 0
M  V30 19504 H 1870.39 1.90952 -0.144794 0
M  V30 19505 H 1868.69 3.3538 2.02552 0
M  V30 19506 H 1870.39 3.61546 1.73452 0
M  V30 19507 H 1866.98 4.2618 0.454817 0
M  V30 19508 H 1871.16 4.95736 -0.23656 0
M  V30 19509 H 1866.42 5.99612 -1.19478 0
M  V30 19510 H 1870.59 6.70481 -1.88222 0
M  V30 19511 H 1868.22 7.22398 -2.36738 0
M  V30 19512 N 1869.8 -0.200022 1.56326 0
M  V30 19513 C 1871.04 -0.921174 1.80335 0
M  V30 19514 C 1871.37 -1.83461 0.645946 0
M  V30 19515 O 1870.63 -1.92198 -0.368568 0
M  V30 19516 C 1870.93 -1.77356 3.1029 0
M  V30 19517 C 1870.59 -1.01153 4.39407 0
M  V30 19518 C 1869.25 -0.801112 4.74485 0
M  V30 19519 C 1871.61 -0.474992 5.19031 0
M  V30 19520 C 1868.93 -0.0425991 5.86685 0
M  V30 19521 C 1871.29 0.270286 6.32022 0
M  V30 19522 C 1869.95 0.491763 6.65686 0
M  V30 19523 H 1869.22 -0.337082 0.659892 0
M  V30 19524 H 1871.87 -0.187867 1.90576 0
M  V30 19525 H 1870.17 -2.57539 2.95264 0
M  V30 19526 H 1871.87 -2.33406 3.26071 0
M  V30 19527 H 1868.46 -1.18553 4.11877 0
M  V30 19528 H 1872.64 -0.624969 4.92349 0
M  V30 19529 H 1867.9 0.139015 6.11242 0
M  V30 19530 H 1872.07 0.693432 6.92939 0
M  V30 19531 H 1869.7 1.08142 7.52469 0
M  V30 19532 N 1871.27 -1.50505 -0.467553 0
M  V30 19533 C 1872.52 -1.61671 -1.21938 0
M  V30 19534 C 1872.85 -0.318688 -1.91871 0
M  V30 19535 O 1872.1 0.695639 -1.82919 0
M  V30 19536 C 1872.4 -2.74913 -2.28381 0
M  V30 19537 C 1872.07 -4.1527 -1.75674 0
M  V30 19538 C 1870.73 -4.5346 -1.6102 0
M  V30 19539 C 1873.08 -5.02978 -1.3661 0
M  V30 19540 C 1870.41 -5.77094 -1.05732 0
M  V30 19541 C 1872.76 -6.27163 -0.827621 0
M  V30 19542 C 1871.43 -6.64152 -0.667746 0
M  V30 19543 H 1870.7 -0.591596 -0.446201 0
M  V30 19544 H 1873.34 -1.84449 -0.514858 0
M  V30 19545 H 1871.65 -2.46237 -3.04754 0
M  V30 19546 H 1873.35 -2.80756 -2.86317 0
M  V30 19547 H 1869.94 -3.85144 -1.88047 0
M  V30 19548 H 1874.12 -4.74103 -1.46764 0
M  V30 19549 H 1869.38 -6.04424 -0.920946 0
M  V30 19550 H 1873.55 -6.94484 -0.516286 0
M  V30 19551 H 1871.18 -7.5983 -0.237178 0
M  V30 19552 N 1872.75 0.720973 -1.40142 0
M  V30 19553 C 1874.17 1.02835 -1.22054 0
M  V30 19554 C 1874.37 2.0129 -0.091949 0
M  V30 19555 O 1873.42 2.46395 0.551897 0
M  V30 19556 C 1874.74 1.57722 -2.56016 0
M  V30 19557 C 1876.29 1.69734 -2.62982 0
M  V30 19558 C 1876.76 2.28027 -3.972 0
M  V30 19559 N 1878.25 2.3542 -3.98913 0
M  V30 19560 C 1878.99 2.81495 -4.99548 0
M  V30 19561 N 1878.48 3.27362 -6.10578 0
M  V30 19562 N 1880.28 2.80831 -4.86919 0
M  V30 19563 H 1872.43 0.068271 -2.1229 0
M  V30 19564 H 1874.69 0.0928952 -0.943438 0
M  V30 19565 H 1874.4 0.928424 -3.39224 0
M  V30 19566 H 1874.27 2.56326 -2.76725 0
M  V30 19567 H 1876.66 2.33732 -1.80148 0
M  V30 19568 H 1876.74 0.697443 -2.46108 0
M  V30 19569 H 1876.38 1.64653 -4.80471 0
M  V30 19570 H 1876.31 3.28721 -4.114 0
M  V30 19571 H 1878.8 2.03019 -3.18735 0
M  V30 19572 H 1879.12 3.61071 -6.83263 0
M  V30 19573 H 1877.46 3.25335 -6.14152 0
M  V30 19574 H 1880.65 2.4433 -3.99275 0
M  V30 19575 H 1880.82 3.16423 -5.65492 0
M  V30 19576 N 1874.23 1.25549 0.952634 0
M  V30 19577 C 1875.16 1.08592 2.06712 0
M  V30 19578 C 1876.14 -0.00560571 1.70099 0
M  V30 19579 O 1877.33 0.164299 1.93504 0
M  V30 19580 C 1874.46 0.705984 3.40049 0
M  V30 19581 C 1873.41 1.74797 3.90679 0
M  V30 19582 C 1872.74 1.22266 5.20533 0
M  V30 19583 C 1874.04 3.14717 4.16834 0
M  V30 19584 H 1875.73 2.01816 2.21157 0
M  V30 19585 H 1873.28 0.971723 1.06271 0
M  V30 19586 H 1875.23 0.57428 4.17469 0
M  V30 19587 H 1873.95 -0.261964 3.25548 0
M  V30 19588 H 1872.61 1.86815 3.1543 0
M  V30 19589 H 1872.26 0.244887 5.02404 0
M  V30 19590 H 1871.96 1.9191 5.55377 0
M  V30 19591 H 1873.48 1.10339 6.00548 0
M  V30 19592 H 1874.9 3.05842 4.84906 0
M  V30 19593 H 1873.3 3.81849 4.62938 0
M  V30 19594 H 1874.37 3.61629 3.23037 0
M  V30 19595 N 1875.71 -1.15554 1.07168 0
M  V30 19596 C 1876.66 -2.22296 0.684626 0
M  V30 19597 C 1877.65 -1.66656 -0.303675 0
M  V30 19598 O 1878.86 -1.79218 -0.167588 0
M  V30 19599 H 1875.23 -0.723996 0.203306 0
M  V30 19600 H 1877.2 -2.52223 1.59456 0
M  V30 19601 C 1875.95 -3.47566 0.0965118 0
M  V30 19602 H 1875.27 -3.90701 0.848122 0
M  V30 19603 H 1876.71 -4.2378 -0.136671 0
M  V30 19604 C 1875.17 -3.16215 -1.16231 0
M  V30 19605 O 1875.7 -3.32838 -2.24903 0
M  V30 19606 N 1873.91 -2.70273 -1.06774 0
M  V30 19607 H 1873.46 -2.56947 -0.183357 0
M  V30 19608 H 1873.41 -2.49671 -1.9108 0
M  V30 19609 N 1877.19 -0.855519 -1.32358 0
M  V30 19610 C 1878.12 -0.316159 -2.3135 0
M  V30 19611 C 1879.1 0.585159 -1.59718 0
M  V30 19612 O 1880.28 0.505221 -1.87513 0
M  V30 19613 C 1877.41 0.495577 -3.43746 0
M  V30 19614 C 1876.37 -0.311382 -4.26866 0
M  V30 19615 C 1875.69 0.625144 -5.31033 0
M  V30 19616 C 1876.99 -1.5376 -4.99154 0
M  V30 19617 H 1878.69 -1.14331 -2.7671 0
M  V30 19618 H 1876.23 -0.551221 -1.33032 0
M  V30 19619 H 1878.19 0.883325 -4.12038 0
M  V30 19620 H 1876.91 1.3561 -2.97115 0
M  V30 19621 H 1875.57 -0.680895 -3.60221 0
M  V30 19622 H 1875.22 1.48254 -4.80656 0
M  V30 19623 H 1874.92 0.0892112 -5.87532 0
M  V30 19624 H 1876.44 1.01005 -6.02188 0
M  V30 19625 H 1877.86 -1.2221 -5.60123 0
M  V30 19626 H 1876.25 -2.01153 -5.65382 0
M  V30 19627 H 1877.32 -2.29838 -4.26969 0
M  V30 19628 N 1878.67 1.45167 -0.61354 0
M  V30 19629 C 1879.6 2.3333 0.089004 0
M  V30 19630 C 1880.58 1.47181 0.85275 0
M  V30 19631 O 1881.76 1.7594 0.822122 0
M  V30 19632 C 1878.89 3.29982 1.08301 0
M  V30 19633 C 1877.85 4.25813 0.432084 0
M  V30 19634 C 1877.17 5.122 1.53476 0
M  V30 19635 C 1878.47 5.18233 -0.65052 0
M  V30 19636 H 1880.17 2.92322 -0.647165 0
M  V30 19637 H 1877.71 1.40565 -0.312667 0
M  V30 19638 H 1879.66 3.90533 1.5831 0
M  V30 19639 H 1878.39 2.69162 1.84985 0
M  V30 19640 H 1877.05 3.6657 -0.0471927 0
M  V30 19641 H 1876.7 4.47744 2.29203 0
M  V30 19642 H 1876.4 5.77122 1.10469 0
M  V30 19643 H 1877.92 5.7562 2.037 0
M  V30 19644 H 1879.33 5.72821 -0.234262 0
M  V30 19645 H 1877.73 5.91664 -1.00268 0
M  V30 19646 H 1878.8 4.60304 -1.52475 0
M  V30 19647 N 1880.14 0.353044 1.53595 0
M  V30 19648 C 1881.39 -0.2416 2.00248 0
M  V30 19649 C 1881.71 -1.5089 1.24465 0
M  V30 19650 O 1882.91 -2.18137 1.61643 0
M  V30 19651 C 1881.37 -0.481075 3.5667 0
M  V30 19652 C 1880.98 0.77087 4.41318 0
M  V30 19653 C 1882.72 -1.03406 4.11713 0
M  V30 19654 C 1880.63 0.501671 5.89268 0
M  V30 19655 H 1879.56 -0.0940573 0.74811 0
M  V30 19656 H 1882.21 0.469845 1.77383 0
M  V30 19657 H 1880.59 -1.25346 3.75639 0
M  V30 19658 H 1881.76 1.54509 4.34124 0
M  V30 19659 H 1880.08 1.24617 3.97315 0
M  V30 19660 H 1882.68 -1.25058 5.1987 0
M  V30 19661 H 1883.02 -1.99245 3.65523 0
M  V30 19662 H 1883.55 -0.322144 3.96493 0
M  V30 19663 H 1880.29 1.43005 6.39711 0
M  V30 19664 H 1879.81 -0.234284 5.99342 0
M  V30 19665 H 1881.49 0.122468 6.46884 0
M  V30 19666 N 1881.62 -1.57387 0.0818932 0
M  V30 19667 C 1882.85 -1.98201 -0.593645 0
M  V30 19668 C 1883.26 -0.960602 -1.62536 0
M  V30 19669 O 1882.62 0.0514903 -1.82427 0
M  V30 19670 C 1882.67 -3.39083 -1.2532 0
M  V30 19671 O 1882.39 -4.37311 -0.262763 0
M  V30 19672 C 1883.89 -3.94827 -2.0156 0
M  V30 19673 H 1881.11 -0.651606 -0.160159 0
M  V30 19674 H 1883.66 -2.03894 0.157281 0
M  V30 19675 H 1881.81 -3.34444 -1.95514 0
M  V30 19676 H 1882.23 -5.19294 -0.737169 0
M  V30 19677 H 1883.7 -4.95594 -2.43086 0
M  V30 19678 H 1884.18 -3.31921 -2.8762 0
M  V30 19679 H 1884.78 -4.02898 -1.36211 0
M  V30 19680 N 1883.1 0.191729 -1.56429 0
M  V30 19681 C 1884.03 1.24024 -1.97839 0
M  V30 19682 C 1885.01 1.47291 -0.850853 0
M  V30 19683 O 1886.2 1.58971 -1.11543 0
M  V30 19684 C 1883.33 2.58373 -2.32079 0
M  V30 19685 C 1882.28 2.49712 -3.47603 0
M  V30 19686 C 1881.61 3.88365 -3.67528 0
M  V30 19687 C 1882.91 2.01929 -4.81687 0
M  V30 19688 H 1884.6 0.8961 -2.85675 0
M  V30 19689 H 1882.15 0.429616 -1.37442 0
M  V30 19690 H 1884.1 3.31908 -2.59643 0
M  V30 19691 H 1882.82 2.94534 -1.41129 0
M  V30 19692 H 1881.48 1.78632 -3.20135 0
M  V30 19693 H 1881.13 4.21884 -2.73903 0
M  V30 19694 H 1880.83 3.83444 -4.45246 0
M  V30 19695 H 1882.35 4.63518 -3.97472 0
M  V30 19696 H 1883.77 2.65225 -5.0826 0
M  V30 19697 H 1882.16 2.08002 -5.62899 0
M  V30 19698 H 1883.23 0.972649 -4.75045 0
M  V30 19699 N 1884.58 1.50751 0.459565 0
M  V30 19700 C 1885.51 1.73389 1.56392 0
M  V30 19701 C 1886.49 0.583101 1.59793 0
M  V30 19702 O 1887.67 0.823474 1.75876 0
M  V30 19703 C 1884.8 1.83861 2.94639 0
M  V30 19704 C 1883.76 2.9914 3.06103 0
M  V30 19705 C 1883.08 2.94768 4.46112 0
M  V30 19706 C 1884.38 4.39471 2.82246 0
M  V30 19707 H 1886.08 2.65856 1.37699 0
M  V30 19708 H 1883.62 1.27933 0.661001 0
M  V30 19709 H 1885.58 1.98283 3.71836 0
M  V30 19710 H 1884.3 0.880254 3.14514 0
M  V30 19711 H 1882.96 2.84388 2.31342 0
M  V30 19712 H 1882.61 1.96755 4.62922 0
M  V30 19713 H 1882.31 3.72166 4.54716 0
M  V30 19714 H 1883.83 3.11254 5.25313 0
M  V30 19715 H 1885.25 4.54689 3.49186 0
M  V30 19716 H 1883.64 5.18406 3.02283 0
M  V30 19717 H 1884.71 4.51043 1.78012 0
M  V30 19718 N 1886.06 -0.713531 1.40522 0
M  V30 19719 C 1887.3 -1.47052 1.38637 0
M  V30 19720 C 1887.62 -1.94998 -0.00984474 0
M  V30 19721 O 1886.89 -1.70486 -0.964959 0
M  V30 19722 H 1885.47 -0.545577 0.51025 0
M  V30 19723 H 1888.14 -0.84572 1.75595 0
M  V30 19724 H 1887.23 -2.34237 2.06251 0
M  V30 19725 N 1887.53 -1.26053 -0.945962 0
M  V30 19726 C 1888.46 -1.09687 -2.06134 0
M  V30 19727 C 1889.44 -0.00341513 -1.701 0
M  V30 19728 O 1890.63 -0.174559 -1.93414 0
M  V30 19729 C 1887.76 -0.724007 -3.3967 0
M  V30 19730 C 1886.71 -1.76866 -3.89747 0
M  V30 19731 C 1886.04 -1.25025 -5.19878 0
M  V30 19732 C 1887.34 -3.16923 -4.15159 0
M  V30 19733 H 1889.03 -2.02986 -2.20084 0
M  V30 19734 H 1886.58 -0.977346 -1.05754 0
M  V30 19735 H 1888.53 -0.596411 -4.17158 0
M  V30 19736 H 1887.26 0.244695 -3.25682 0
M  V30 19737 H 1885.92 -1.88485 -3.14435 0
M  V30 19738 H 1885.56 -0.271527 -5.02267 0
M  V30 19739 H 1885.26 -1.94853 -5.54352 0
M  V30 19740 H 1886.79 -1.13523 -5.99954 0
M  V30 19741 H 1888.2 -3.08409 -4.83277 0
M  V30 19742 H 1886.6 -3.84299 -4.60906 0
M  V30 19743 H 1887.67 -3.63337 -3.21114 0
M  V30 19744 N 1889.01 1.14984 -1.07779 0
M  V30 19745 C 1889.94 2.22006 -0.723564 0
M  V30 19746 C 1890.92 1.67592 0.291024 0
M  V30 19747 O 1892.11 1.93516 0.162812 0
M  V30 19748 C 1889.24 3.47074 -0.125223 0
M  V30 19749 C 1888.19 4.14475 -1.06745 0
M  V30 19750 C 1887.52 5.33671 -0.331643 0
M  V30 19751 C 1888.82 4.63744 -2.4029 0
M  V30 19752 H 1890.51 2.51893 -1.61834 0
M  V30 19753 H 1888.06 1.21073 -0.779571 0
M  V30 19754 H 1890.01 4.21185 0.134555 0
M  V30 19755 H 1888.73 3.16533 0.804654 0
M  V30 19756 H 1887.39 3.4231 -1.31222 0
M  V30 19757 H 1887.04 4.99387 0.601833 0
M  V30 19758 H 1886.74 5.7971 -0.959721 0
M  V30 19759 H 1888.27 6.10548 -0.0797668 0
M  V30 19760 H 1889.68 5.2936 -2.20115 0
M  V30 19761 H 1888.08 5.20461 -2.98732 0
M  V30 19762 H 1889.15 3.79151 -3.02279 0
M  V30 19763 N 1890.49 0.862526 1.31902 0
M  V30 19764 C 1891.44 0.284531 2.26218 0
M  V30 19765 C 1892.42 -0.57415 1.50307 0
M  V30 19766 O 1893.62 -0.422246 1.7189 0
M  V30 19767 C 1890.74 -0.5194 3.39348 0
M  V30 19768 C 1889.83 0.352108 4.22636 0
M  V30 19769 N 1890.22 1.44208 4.84807 0
M  V30 19770 C 1888.52 0.143232 4.4577 0
M  V30 19771 C 1889.22 1.97889 5.47005 0
M  V30 19772 N 1888.2 1.27694 5.28389 0
M  V30 19773 H 1892 1.1177 2.71817 0
M  V30 19774 H 1889.51 0.709483 1.46083 0
M  V30 19775 H 1891.51 -0.94995 4.05933 0
M  V30 19776 H 1890.17 -1.35027 2.95293 0
M  V30 19777 H 1891.18 1.82501 4.84679 0
M  V30 19778 H 1887.86 -0.652289 4.12373 0
M  V30 19779 H 1889.25 2.89298 6.06429 0
M  V30 19780 N 1891.97 -1.4484 0.62123 0
M  V30 19781 C 1893.22 -2.01734 0.121544 0
M  V30 19782 C 1893.54 -1.49041 -1.25745 0
M  V30 19783 O 1892.81 -0.690056 -1.83344 0
M  V30 19784 H 1891.39 -0.745822 0.0419419 0
M  V30 19785 H 1894.05 -1.77467 0.805702 0
M  V30 19786 H 1893.15 -3.11993 0.0816882 0
M  V30 19787 N 1893.45 -0.361184 -1.53405 0
M  V30 19788 C 1894.38 0.479368 -2.28526 0
M  V30 19789 C 1895.36 1.08768 -1.3078 0
M  V30 19790 O 1896.54 1.10576 -1.59645 0
M  V30 19791 C 1893.67 1.6215 -3.07123 0
M  V30 19792 C 1892.63 1.14065 -4.12521 0
M  V30 19793 C 1891.95 2.37267 -4.79175 0
M  V30 19794 C 1893.25 0.228522 -5.218 0
M  V30 19795 H 1894.95 -0.147344 -2.99037 0
M  V30 19796 H 1892.49 -0.0723051 -1.43818 0
M  V30 19797 H 1894.45 2.21612 -3.58422 0
M  V30 19798 H 1893.17 2.27538 -2.34295 0
M  V30 19799 H 1891.83 0.568735 -3.62162 0
M  V30 19800 H 1891.48 3.01102 -4.02923 0
M  V30 19801 H 1891.18 2.05768 -5.50394 0
M  V30 19802 H 1892.7 2.97424 -5.33265 0
M  V30 19803 H 1894.11 0.730497 -5.68627 0
M  V30 19804 H 1892.51 0.00460259 -6.001 0
M  V30 19805 H 1893.58 -0.730537 -4.79365 0
M  V30 19806 N 1894.92 1.57341 -0.0902386 0
M  V30 19807 C 1896.17 1.94464 0.575461 0
M  V30 19808 C 1896.5 0.971819 1.68135 0
M  V30 19809 O 1895.78 0.00405665 1.945 0
M  V30 19810 C 1896.06 3.41739 1.13518 0
M  V30 19811 C 1895.91 4.49787 0.0346821 0
M  V30 19812 C 1897.23 3.90222 2.03506 0
M  V30 19813 H 1894.35 0.707123 0.207716 0
M  V30 19814 H 1896.99 1.89325 -0.15996 0
M  V30 19815 H 1895.14 3.46249 1.76192 0
M  V30 19816 H 1896.82 4.5739 -0.599326 0
M  V30 19817 H 1895.06 4.29166 -0.632342 0
M  V30 19818 H 1895.73 5.50021 0.467044 0
M  V30 19819 H 1898.21 3.87834 1.50744 0
M  V30 19820 H 1897.08 4.93846 2.39598 0
M  V30 19821 H 1897.34 3.29232 2.95057 0
M  V30 19822 N 1896.4 -0.183431 1.56529 0
M  V30 19823 C 1897.65 -0.901995 1.81302 0
M  V30 19824 C 1897.98 -1.82765 0.665368 0
M  V30 19825 O 1897.23 -1.92578 -0.348162 0
M  V30 19826 C 1897.53 -1.74055 3.12153 0
M  V30 19827 C 1897.2 -0.964866 4.40456 0
M  V30 19828 C 1895.86 -0.750741 4.75308 0
M  V30 19829 C 1898.21 -0.419915 5.19506 0
M  V30 19830 C 1895.54 0.0196291 5.86697 0
M  V30 19831 C 1897.89 0.337305 6.317 0
M  V30 19832 C 1896.56 0.56234 6.65127 0
M  V30 19833 H 1895.83 -0.330064 0.66343 0
M  V30 19834 H 1898.47 -0.167643 1.90765 0
M  V30 19835 H 1896.78 -2.54393 2.97979 0
M  V30 19836 H 1898.47 -2.29935 3.28528 0
M  V30 19837 H 1895.06 -1.14178 4.13112 0
M  V30 19838 H 1899.25 -0.572714 4.92984 0
M  V30 19839 H 1894.5 0.203838 6.1106 0
M  V30 19840 H 1898.68 0.766889 6.92165 0
M  V30 19841 H 1896.31 1.16117 7.51279 0
M  V30 19842 N 1897.88 -1.50992 -0.451564 0
M  V30 19843 C 1898.81 -1.74216 -1.5547 0
M  V30 19844 C 1899.79 -0.591568 -1.59482 0
M  V30 19845 O 1900.98 -0.83279 -1.75437 0
M  V30 19846 C 1898.11 -1.85421 -2.9366 0
M  V30 19847 C 1897.06 -3.0076 -3.04512 0
M  V30 19848 C 1896.39 -2.9713 -4.44542 0
M  V30 19849 C 1897.69 -4.40961 -2.79911 0
M  V30 19850 H 1899.38 -2.66582 -1.36287 0
M  V30 19851 H 1896.93 -1.28281 -0.654207 0
M  V30 19852 H 1898.88 -2.00252 -3.70779 0
M  V30 19853 H 1897.6 -0.896921 -3.14043 0
M  V30 19854 H 1896.26 -2.85611 -2.2983 0
M  V30 19855 H 1895.91 -1.99207 -4.61872 0
M  V30 19856 H 1895.61 -3.74572 -4.52736 0
M  V30 19857 H 1897.13 -3.14035 -5.23655 0
M  V30 19858 H 1898.55 -4.56534 -3.4677 0
M  V30 19859 H 1896.95 -5.20002 -2.9953 0
M  V30 19860 H 1898.02 -4.51981 -1.75618 0
M  V30 19861 N 1899.36 0.706069 -1.40899 0
M  V30 19862 C 1900.77 1.2856 -1.35386 0
M  V30 19863 C 1901.12 1.96174 -0.0318902 0
M  V30 19864 O 1900.25 1.9814 0.870018 0
M  V30 19865 C 1900.84 2.33785 -2.45214 0
M  V30 19866 C 1899.4 2.87339 -2.43132 0
M  V30 19867 C 1898.55 1.61243 -2.25601 0
M  V30 19868 H 1901.5 0.501539 -1.50567 0
M  V30 19869 H 1901.52 3.14843 -2.13669 0
M  V30 19870 H 1901.03 1.84545 -3.41416 0
M  V30 19871 H 1899.13 3.40784 -1.50656 0
M  V30 19872 H 1899.24 3.38485 -3.39065 0
M  V30 19873 H 1897.61 1.86664 -1.73288 0
M  V30 19874 H 1898.39 1.14014 -3.23814 0
M  V30 19875 N 1900.84 1.26553 0.939264 0
M  V30 19876 C 1902.08 1.12376 1.68818 0
M  V30 19877 C 1902.42 -0.331784 1.91345 0
M  V30 19878 O 1901.69 -1.24359 1.4955 0
M  V30 19879 C 1901.97 1.89541 3.0618 0
M  V30 19880 C 1901.83 3.43014 2.90966 0
M  V30 19881 C 1903.15 1.69074 4.06327 0
M  V30 19882 H 1900.26 0.409616 0.612686 0
M  V30 19883 H 1902.91 1.55571 1.09076 0
M  V30 19884 H 1901.06 1.5283 3.57177 0
M  V30 19885 H 1902.73 3.89489 2.47176 0
M  V30 19886 H 1900.97 3.69942 2.26551 0
M  V30 19887 H 1901.64 3.92236 3.88401 0
M  V30 19888 H 1904.12 2.01061 3.64299 0
M  V30 19889 H 1902.99 2.25478 5.00451 0
M  V30 19890 H 1903.26 0.635787 4.37504 0
M  V30 19891 N 1902.31 -1.14411 1.08387 0
M  V30 19892 C 1903.56 -1.84792 0.808372 0
M  V30 19893 C 1903.88 -1.83833 -0.668195 0
M  V30 19894 O 1905.08 -2.50001 -1.05885 0
M  V30 19895 C 1903.54 -3.31718 1.3961 0
M  V30 19896 C 1903.15 -3.41095 2.90444 0
M  V30 19897 C 1904.89 -4.07213 1.19908 0
M  V30 19898 C 1902.8 -4.82231 3.42356 0
M  V30 19899 H 1901.73 -0.692298 0.29873 0
M  V30 19900 H 1904.38 -1.28977 1.30526 0
M  V30 19901 H 1902.76 -3.8727 0.826924 0
M  V30 19902 H 1903.93 -2.95595 3.53497 0
M  V30 19903 H 1902.25 -2.79056 3.09058 0
M  V30 19904 H 1904.85 -5.11389 1.56158 0
M  V30 19905 H 1905.19 -4.16068 0.138882 0
M  V30 19906 H 1905.72 -3.57961 1.73519 0
M  V30 19907 H 1902.46 -4.78563 4.47948 0
M  V30 19908 H 1901.98 -5.2827 2.84062 0
M  V30 19909 H 1903.66 -5.5112 3.38933 0
M  V30 19910 N 1903.79 -0.869509 -1.31443 0
M  V30 19911 C 1904.72 -0.340679 -2.31001 0
M  V30 19912 C 1905.7 0.568186 -1.6033 0
M  V30 19913 O 1906.89 0.485305 -1.88038 0
M  V30 19914 C 1904.02 0.45909 -3.44252 0
M  V30 19915 C 1902.97 -0.356639 -4.26512 0
M  V30 19916 C 1902.3 0.568786 -5.31666 0
M  V30 19917 C 1903.6 -1.59045 -4.97496 0
M  V30 19918 H 1905.29 -1.1726 -2.75482 0
M  V30 19919 H 1902.84 -0.5653 -1.3244 0
M  V30 19920 H 1904.79 0.839573 -4.12952 0
M  V30 19921 H 1903.52 1.32451 -2.98537 0
M  V30 19922 H 1902.17 -0.719063 -3.59479 0
M  V30 19923 H 1901.82 1.43148 -4.82201 0
M  V30 19924 H 1901.52 0.0268906 -5.87594 0
M  V30 19925 H 1903.05 0.946122 -6.03225 0
M  V30 19926 H 1904.46 -1.28144 -5.58795 0
M  V30 19927 H 1902.86 -2.07139 -5.63217 0
M  V30 19928 H 1903.93 -2.34354 -4.24507 0
M  V30 19929 N 1905.27 1.44508 -0.628902 0
M  V30 19930 C 1906.5 2.06942 -0.137778 0
M  V30 19931 C 1906.92 1.46672 1.17766 0
M  V30 19932 O 1906.28 0.567342 1.72194 0
M  V30 19933 C 1906.33 3.60584 -0.0341843 0
M  V30 19934 O 1905.43 3.99831 1.01038 0
M  V30 19935 H 1904.77 0.658696 -0.083759 0
M  V30 19936 H 1907.3 1.85418 -0.864951 0
M  V30 19937 H 1907.31 4.07697 0.157123 0
M  V30 19938 H 1905.99 4.03833 -0.994583 0
M  V30 19939 H 1904.56 3.64353 0.793824 0
M  V30 19940 N 1906.75 0.369315 1.53212 0
M  V30 19941 C 1907.98 -0.219539 2.0543 0
M  V30 19942 C 1908.39 -1.42698 1.24233 0
M  V30 19943 O 1907.73 -1.81601 0.276938 0
M  V30 19944 C 1907.79 -0.673523 3.53134 0
M  V30 19945 C 1907.46 0.417737 4.55087 0
M  V30 19946 C 1908.45 1.2688 5.0418 0
M  V30 19947 C 1906.14 0.579049 4.98951 0
M  V30 19948 C 1908.13 2.26648 5.95743 0
M  V30 19949 C 1905.82 1.58009 5.90319 0
M  V30 19950 C 1906.82 2.42224 6.38605 0
M  V30 19951 O 1906.51 3.4062 7.28171 0
M  V30 19952 H 1906.24 -0.0415233 0.674724 0
M  V30 19953 H 1908.79 0.527123 1.98521 0
M  V30 19954 H 1907.02 -1.47185 3.57594 0
M  V30 19955 H 1908.71 -1.1858 3.88193 0
M  V30 19956 H 1909.48 1.15538 4.71037 0
M  V30 19957 H 1905.36 -0.0666753 4.60952 0
M  V30 19958 H 1908.9 2.92416 6.33355 0
M  V30 19959 H 1904.8 1.69397 6.22876 0
M  V30 19960 H 1905.56 3.36393 7.46178 0
M  V30 19961 N 1908.23 -1.57291 0.0985816 0
M  V30 19962 C 1909.47 -1.94767 -0.56514 0
M  V30 19963 C 1909.81 -0.980722 -1.67617 0
M  V30 19964 O 1909.08 -0.0143714 -1.94495 0
M  V30 19965 C 1909.36 -3.42336 -1.11704 0
M  V30 19966 C 1909.22 -4.49799 -0.0108284 0
M  V30 19967 C 1910.54 -3.91296 -2.01434 0
M  V30 19968 H 1907.66 -0.708215 -0.203963 0
M  V30 19969 H 1910.3 -1.89238 0.169998 0
M  V30 19970 H 1908.45 -3.47179 -1.74354 0
M  V30 19971 H 1910.12 -4.57066 0.623574 0
M  V30 19972 H 1908.36 -4.28825 0.655093 0
M  V30 19973 H 1909.03 -5.50261 -0.437868 0
M  V30 19974 H 1911.51 -3.88628 -1.48685 0
M  V30 19975 H 1910.39 -4.9511 -2.36975 0
M  V30 19976 H 1910.65 -3.30792 -2.93307 0
M  V30 19977 N 1909.71 0.175127 -1.56624 0
M  V30 19978 C 1910.95 0.890605 -1.81418 0
M  V30 19979 C 1911.27 1.82946 -0.674958 0
M  V30 19980 O 1910.54 1.93504 0.305439 0
M  V30 19981 H 1909.12 0.331864 -0.669235 0
M  V30 19982 H 1911.79 0.175855 -1.94105 0
M  V30 19983 H 1910.88 1.46979 -2.75325 0
M  V30 19984 N 1911.18 1.5123 0.44355 0
M  V30 19985 C 1912.59 1.56137 1.02362 0
M  V30 19986 C 1912.95 0.381135 1.92462 0
M  V30 19987 O 1912.07 -0.502817 2.10477 0
M  V30 19988 C 1912.67 2.82967 1.8632 0
M  V30 19989 C 1911.22 2.90466 2.39388 0
M  V30 19990 C 1910.37 2.50735 1.18438 0
M  V30 19991 H 1913.32 1.57096 0.22506 0
M  V30 19992 H 1913.34 2.66378 2.71704 0
M  V30 19993 H 1912.86 3.68848 1.20717 0
M  V30 19994 H 1910.96 2.09 3.08463 0
M  V30 19995 H 1911.07 3.9398 2.7261 0
M  V30 19996 H 1909.43 2.03792 1.52778 0
M  V30 19997 H 1910.22 3.38954 0.544549 0
M  V30 19998 N 1912.66 -0.698586 1.41271 0
M  V30 19999 C 1913.94 -1.45291 1.30957 0
M  V30 20000 C 1914.32 -2.11002 -0.0642533 0
M  V30 20001 O 1913.67 -2.01458 -1.07829 0
M  V30 20002 C 1913.88 -2.4748 2.46078 0
M  V30 20003 C 1915.22 -3.1282 2.87104 0
M  V30 20004 O 1916.25 -2.57804 2.45796 0
M  V30 20005 O 1915.11 -4.12458 3.58525 0
M  V30 20006 H 1912.2 -0.646905 0.515212 0
M  V30 20007 H 1914.75 -0.72932 1.53229 0
M  V30 20008 H 1913.52 -1.97558 3.37767 0
M  V30 20009 H 1913.14 -3.27353 2.25668 0
M  V30 20010 N 1914.14 -1.27049 -0.93254 0
M  V30 20011 C 1915.39 -1.1327 -1.68219 0
M  V30 20012 C 1915.72 0.321632 -1.91518 0
M  V30 20013 O 1914.99 1.23564 -1.50207 0
M  V30 20014 C 1915.28 -1.91162 -3.0517 0
M  V30 20015 C 1915.13 -3.44552 -2.89143 0
M  V30 20016 C 1916.45 -1.71227 -4.05425 0
M  V30 20017 H 1913.57 -0.412859 -0.610505 0
M  V30 20018 H 1916.21 -1.56148 -1.08249 0
M  V30 20019 H 1914.36 -1.54722 -3.56361 0
M  V30 20020 H 1916.03 -3.90794 -2.45107 0
M  V30 20021 H 1914.27 -3.71138 -2.24586 0
M  V30 20022 H 1914.95 -3.9429 -3.86315 0
M  V30 20023 H 1917.42 -2.0299 -3.63227 0
M  V30 20024 H 1916.3 -2.28129 -4.99248 0
M  V30 20025 H 1916.56 -0.65898 -4.37161 0
M  V30 20026 N 1915.62 1.13835 -1.08993 0
M  V30 20027 C 1916.57 2.21179 -0.719905 0
M  V30 20028 C 1917.56 1.67118 0.277123 0
M  V30 20029 O 1918.77 1.79462 0.139054 0
M  V30 20030 H 1915.14 0.72067 -0.214799 0
M  V30 20031 H 1917.11 2.49654 -1.63448 0
M  V30 20032 C 1915.86 3.47368 -0.151794 0
M  V30 20033 H 1915.18 3.89302 -0.910172 0
M  V30 20034 H 1916.62 4.23943 0.0692336 0
M  V30 20035 C 1915.08 3.18024 1.11185 0
M  V30 20036 O 1915.61 3.36374 2.1958 0
M  V30 20037 N 1913.82 2.71938 1.0246 0
M  V30 20038 H 1913.37 2.57206 0.142456 0
M  V30 20039 H 1913.32 2.52679 1.87084 0
M  V30 20040 N 1917.1 0.876467 1.3098 0
M  V30 20041 C 1918.51 0.542323 1.7865 0
M  V30 20042 C 1918.86 -0.941103 1.72156 0
M  V30 20043 O 1917.98 -1.73506 1.29324 0
M  V30 20044 C 1918.58 0.977656 3.24388 0
M  V30 20045 C 1917.14 0.695064 3.69927 0
M  V30 20046 C 1916.28 1.16537 2.51624 0
M  V30 20047 H 1919.23 1.06154 1.1797 0
M  V30 20048 H 1919.26 0.30304 3.79291 0
M  V30 20049 H 1918.77 2.05735 3.29082 0
M  V30 20050 H 1916.87 -0.372992 3.70728 0
M  V30 20051 H 1916.98 1.27665 4.61778 0
M  V30 20052 H 1915.35 0.584941 2.47892 0
M  V30 20053 H 1916.13 2.25262 2.5906 0
M  V30 20054 N 1918.57 -1.44173 0.636557 0
M  V30 20055 C 1919.54 -2.29133 -0.0554994 0
M  V30 20056 C 1920.54 -1.41329 -0.766986 0
M  V30 20057 O 1921.73 -1.63142 -0.610753 0
M  V30 20058 C 1918.86 -3.23031 -1.08922 0
M  V30 20059 H 1920.05 -2.91811 0.691829 0
M  V30 20060 H 1917.6 -1.51175 0.396956 0
M  V30 20061 H 1918.34 -2.65213 -1.86635 0
M  V30 20062 H 1918.12 -3.87743 -0.58291 0
M  V30 20063 H 1919.61 -3.8684 -1.57304 0
M  V30 20064 N 1920.05 -0.377435 -1.53014 0
M  V30 20065 C 1920.98 0.455103 -2.29022 0
M  V30 20066 C 1921.96 1.07375 -1.31926 0
M  V30 20067 O 1923.15 1.08877 -1.60809 0
M  V30 20068 C 1920.28 1.58883 -3.08826 0
M  V30 20069 C 1919.23 1.09683 -4.13707 0
M  V30 20070 C 1918.56 2.32172 -4.81664 0
M  V30 20071 C 1919.86 0.173165 -5.22013 0
M  V30 20072 H 1921.55 -0.179053 -2.98864 0
M  V30 20073 H 1919.1 -0.0875549 -1.43734 0
M  V30 20074 H 1921.05 2.17798 -3.60752 0
M  V30 20075 H 1919.77 2.2504 -2.36695 0
M  V30 20076 H 1918.43 0.530291 -3.62744 0
M  V30 20077 H 1918.08 2.96811 -4.06094 0
M  V30 20078 H 1917.78 1.99919 -5.52545 0
M  V30 20079 H 1919.31 2.91751 -5.3639 0
M  V30 20080 H 1920.72 0.670145 -5.6937 0
M  V30 20081 H 1919.12 -0.0590463 -6.00071 0
M  V30 20082 H 1920.19 -0.781339 -4.78564 0
M  V30 20083 N 1921.53 1.57237 -0.106922 0
M  V30 20084 C 1922.49 2.13515 0.833317 0
M  V30 20085 C 1923.49 1.06715 1.20285 0
M  V30 20086 O 1924.68 1.32548 1.13034 0
M  V30 20087 C 1921.82 2.66546 2.12523 0
M  V30 20088 H 1923.01 2.97916 0.344435 0
M  V30 20089 H 1920.56 1.55652 0.142199 0
M  V30 20090 H 1921.3 1.85699 2.65869 0
M  V30 20091 H 1921.08 3.44643 1.86985 0
M  V30 20092 H 1922.57 3.10039 2.7976 0
M  V30 20093 N 1923.01 -0.166818 1.56715 0
M  V30 20094 C 1923.94 -1.2086 1.99787 0
M  V30 20095 C 1924.92 -1.45918 0.874178 0
M  V30 20096 O 1926.1 -1.57176 1.14058 0
M  V30 20097 C 1923.23 -2.54648 2.3616 0
M  V30 20098 C 1922.19 -2.44151 3.51532 0
M  V30 20099 C 1921.51 -3.82469 3.7366 0
M  V30 20100 C 1922.81 -1.9424 4.84838 0
M  V30 20101 H 1924.51 -0.850538 2.87065 0
M  V30 20102 H 1922.05 -0.407696 1.38108 0
M  V30 20103 H 1924.01 -3.27736 2.64891 0
M  V30 20104 H 1922.73 -2.92251 1.45797 0
M  V30 20105 H 1921.39 -1.73516 3.22936 0
M  V30 20106 H 1921.04 -4.17473 2.8058 0
M  V30 20107 H 1920.74 -3.76312 4.5129 0
M  V30 20108 H 1922.26 -4.57136 4.04796 0
M  V30 20109 H 1923.68 -2.57105 5.12416 0
M  V30 20110 H 1922.07 -1.99021 5.66137 0
M  V30 20111 H 1923.14 -0.89695 4.76532 0
M  V30 20112 N 1924.49 -1.51463 -0.435524 0
M  V30 20113 C 1925.4 -1.75755 -1.55394 0
M  V30 20114 C 1926.41 -0.641853 -1.61729 0
M  V30 20115 O 1927.59 -0.924311 -1.78937 0
M  V30 20116 C 1924.65 -1.87908 -2.91361 0
M  V30 20117 C 1923.71 -3.11766 -2.95128 0
M  V30 20118 C 1922.95 -3.2333 -4.2461 0
M  V30 20119 O 1923.17 -2.40789 -5.17085 0
M  V30 20120 O 1922.1 -4.16319 -4.34698 0
M  V30 20121 H 1925.93 -2.70633 -1.3781 0
M  V30 20122 H 1923.52 -1.35986 -0.618717 0
M  V30 20123 H 1925.4 -1.97877 -3.72052 0
M  V30 20124 H 1924.07 -0.962179 -3.09069 0
M  V30 20125 H 1922.98 -3.07274 -2.13386 0
M  V30 20126 H 1924.31 -4.03151 -2.82365 0
M  V30 20127 N 1925.96 0.691085 -1.4164 0
M  V30 20128 C 1926.9 1.81646 -1.39776 0
M  V30 20129 C 1927.91 1.60026 -0.299243 0
M  V30 20130 O 1929.1 1.69446 -0.561266 0
M  V30 20131 C 1926.2 3.18486 -1.15845 0
M  V30 20132 C 1925.37 3.67096 -2.37822 0
M  V30 20133 C 1924.43 4.82618 -2.09681 0
M  V30 20134 O 1923.46 4.94002 -2.82756 0
M  V30 20135 N 1924.66 5.70178 -1.08983 0
M  V30 20136 H 1927.42 1.83736 -2.36773 0
M  V30 20137 H 1924.98 0.873576 -1.36309 0
M  V30 20138 H 1926.98 3.934 -0.949639 0
M  V30 20139 H 1925.55 3.11394 -0.274301 0
M  V30 20140 H 1924.77 2.83038 -2.74377 0
M  V30 20141 H 1926.05 3.96312 -3.19083 0
M  V30 20142 H 1925.45 5.63616 -0.48512 0
M  V30 20143 H 1924.01 6.44973 -0.940906 0
M  V30 20144 N 1927.44 1.27542 0.925789 0
M  V30 20145 C 1928.39 1.10432 2.02666 0
M  V30 20146 C 1929.36 0.004846 1.66099 0
M  V30 20147 O 1930.54 0.167531 1.90063 0
M  V30 20148 C 1927.68 0.759567 3.36637 0
M  V30 20149 C 1926.8 1.93687 3.86147 0
M  V30 20150 C 1925.93 1.53382 5.08574 0
M  V30 20151 C 1924.97 2.67849 5.50385 0
M  V30 20152 N 1924.11 2.2812 6.64007 0
M  V30 20153 H 1928.95 2.04632 2.16633 0
M  V30 20154 H 1926.49 1.01863 1.06124 0
M  V30 20155 H 1928.44 0.540492 4.13684 0
M  V30 20156 H 1927.07 -0.145477 3.22472 0
M  V30 20157 H 1926.13 2.26843 3.05363 0
M  V30 20158 H 1927.44 2.79548 4.13104 0
M  V30 20159 H 1926.59 1.2761 5.93128 0
M  V30 20160 H 1925.33 0.646332 4.83398 0
M  V30 20161 H 1924.34 2.94333 4.64379 0
M  V30 20162 H 1925.56 3.57222 5.77554 0
M  V30 20163 H 1923.51 1.41825 6.40485 0
M  V30 20164 H 1923.42 3.07519 6.90629 0
M  V30 20165 H 1924.69 2.056 7.51897 0
M  V30 20166 N 1928.92 -1.13255 1.09595 0
M  V30 20167 C 1930.34 -1.36563 0.825994 0
M  V30 20168 C 1930.54 -1.93595 -0.558844 0
M  V30 20169 O 1929.59 -2.15654 -1.31338 0
M  V30 20170 C 1930.91 -2.31535 1.91864 0
M  V30 20171 C 1932.45 -2.45147 1.94607 0
M  V30 20172 C 1932.93 -3.43427 3.03021 0
M  V30 20173 N 1934.42 -3.50979 3.02271 0
M  V30 20174 C 1935.15 -4.2691 3.82799 0
M  V30 20175 N 1934.65 -5.05981 4.73239 0
M  V30 20176 N 1936.44 -4.22229 3.71051 0
M  V30 20177 H 1928.59 -0.745889 1.98872 0
M  V30 20178 H 1930.86 -0.390727 0.863734 0
M  V30 20179 H 1930.56 -1.96788 2.91492 0
M  V30 20180 H 1930.44 -3.3157 1.79837 0
M  V30 20181 H 1932.82 -2.7918 0.956178 0
M  V30 20182 H 1932.91 -1.45031 2.10712 0
M  V30 20183 H 1932.55 -3.10126 4.02225 0
M  V30 20184 H 1932.48 -4.43352 2.84159 0
M  V30 20185 H 1934.97 -2.94562 2.36731 0
M  V30 20186 H 1935.28 -5.61231 5.31262 0
M  V30 20187 H 1933.63 -5.05208 4.77274 0
M  V30 20188 H 1936.82 -3.59534 2.99755 0
M  V30 20189 H 1936.99 -4.81152 4.34047 0
M  V30 20190 N 1930.4 -0.883401 -1.30514 0
M  V30 20191 C 1931.36 -0.353908 -2.26451 0
M  V30 20192 C 1932.36 0.502723 -1.52739 0
M  V30 20193 O 1933.55 0.310104 -1.71418 0
M  V30 20194 C 1930.68 0.495846 -3.37275 0
M  V30 20195 H 1931.88 -1.20101 -2.74801 0
M  V30 20196 H 1929.43 -0.660124 -1.41676 0
M  V30 20197 H 1930.16 1.3636 -2.94239 0
M  V30 20198 H 1929.95 -0.117731 -3.91923 0
M  V30 20199 H 1931.44 0.858149 -4.08688 0
M  V30 20200 N 1931.88 1.43833 -0.644194 0
M  V30 20201 C 1932.79 2.34538 0.0537504 0
M  V30 20202 C 1933.8 1.53369 0.821825 0
M  V30 20203 O 1934.98 1.86053 0.771123 0
M  V30 20204 C 1932.04 3.3153 1.01434 0
M  V30 20205 C 1931.1 4.28605 0.244198 0
M  V30 20206 C 1930.34 5.20963 1.15903 0
M  V30 20207 O 1930.56 5.1754 2.3981 0
M  V30 20208 O 1929.49 5.98527 0.636302 0
M  V30 20209 H 1933.32 2.95696 -0.692624 0
M  V30 20210 H 1930.91 1.43823 -0.404377 0
M  V30 20211 H 1932.79 3.91196 1.56663 0
M  V30 20212 H 1931.46 2.72887 1.7411 0
M  V30 20213 H 1930.37 3.72445 -0.351459 0
M  V30 20214 H 1931.7 4.90204 -0.442806 0
M  V30 20215 N 1933.35 0.385544 1.52811 0
M  V30 20216 C 1934.26 -0.45885 2.30069 0
M  V30 20217 C 1935.28 -1.07486 1.36831 0
M  V30 20218 O 1936.46 -1.08148 1.699 0
M  V30 20219 C 1933.52 -1.57281 3.08972 0
M  V30 20220 C 1932.58 -0.98229 4.17911 0
M  V30 20221 C 1931.82 -2.04316 4.93042 0
M  V30 20222 O 1932.04 -3.25761 4.68226 0
M  V30 20223 O 1930.97 -1.66256 5.78483 0
M  V30 20224 H 1934.8 0.170416 3.03221 0
M  V30 20225 H 1932.38 0.149363 1.48651 0
M  V30 20226 H 1934.27 -2.22003 3.5818 0
M  V30 20227 H 1932.94 -2.18711 2.38637 0
M  V30 20228 H 1931.85 -0.298428 3.72908 0
M  V30 20229 H 1933.18 -0.412261 4.9047 0
M  V30 20230 N 1934.83 -1.57178 0.115259 0
M  V30 20231 C 1935.8 -2.13953 -0.821982 0
M  V30 20232 C 1936.8 -1.07352 -1.19717 0
M  V30 20233 O 1937.99 -1.33146 -1.12329 0
M  V30 20234 C 1935.12 -2.6767 -2.11106 0
M  V30 20235 H 1936.31 -2.98094 -0.328631 0
M  V30 20236 H 1933.86 -1.55725 -0.133942 0
M  V30 20237 H 1934.6 -1.87106 -2.6488 0
M  V30 20238 H 1934.38 -3.4563 -1.85155 0
M  V30 20239 H 1935.87 -3.11519 -2.78111 0
M  V30 20240 N 1936.31 0.158505 -1.56801 0
M  V30 20241 C 1937.56 0.874331 -1.82984 0
M  V30 20242 C 1937.89 1.81334 -0.695103 0
M  V30 20243 O 1937.17 1.9214 0.302091 0
M  V30 20244 C 1937.45 1.65886 -3.19615 0
M  V30 20245 C 1937.3 0.74211 -4.43636 0
M  V30 20246 C 1938.62 2.62382 -3.53332 0
M  V30 20247 H 1935.74 0.316412 -0.665622 0
M  V30 20248 H 1938.38 0.139988 -1.89484 0
M  V30 20249 H 1936.53 2.28488 -3.14206 0
M  V30 20250 H 1938.2 0.127969 -4.61122 0
M  V30 20251 H 1936.45 0.0509465 -4.3377 0
M  V30 20252 H 1937.12 1.32683 -5.35816 0
M  V30 20253 H 1939.59 2.09902 -3.59278 0
M  V30 20254 H 1938.47 3.14332 -4.49985 0
M  V30 20255 H 1938.73 3.43194 -2.78694 0
M  V30 20256 N 1937.79 1.51692 0.427485 0
M  V30 20257 C 1938.75 1.73114 1.50214 0
M  V30 20258 C 1939.75 0.601079 1.49143 0
M  V30 20259 O 1940.94 0.86875 1.50991 0
M  V30 20260 C 1938.07 1.79666 2.89712 0
M  V30 20261 H 1939.27 2.69033 1.32518 0
M  V30 20262 H 1936.82 1.4183 0.656804 0
M  V30 20263 H 1937.56 0.855968 3.128 0
M  V30 20264 H 1937.34 2.61803 2.91893 0
M  V30 20265 H 1938.83 1.98045 3.67652 0
M  V30 20266 N 1939.27 -0.683564 1.42004 0
M  V30 20267 C 1940.23 -1.77907 1.44505 0
M  V30 20268 C 1941.23 -1.57295 0.333889 0
M  V30 20269 O 1942.42 -1.63748 0.594323 0
M  V30 20270 C 1939.55 -3.16434 1.26815 0
M  V30 20271 H 1940.75 -1.7708 2.42039 0
M  V30 20272 H 1938.3 -0.892355 1.28323 0
M  V30 20273 H 1939.03 -3.22894 0.301695 0
M  V30 20274 H 1938.82 -3.32798 2.07335 0
M  V30 20275 H 1940.31 -3.96379 1.31428 0
M  V30 20276 N 1940.75 -1.28031 -0.919012 0
M  V30 20277 C 1941.99 -1.15048 -1.67008 0
M  V30 20278 C 1942.32 0.301301 -1.91848 0
M  V30 20279 O 1941.6 1.21964 -1.51509 0
M  V30 20280 C 1941.88 -1.94388 -3.03126 0
M  V30 20281 C 1941.74 -3.476 -2.85473 0
M  V30 20282 C 1943.05 -1.75517 -4.03586 0
M  V30 20283 H 1940.17 -0.419311 -0.606091 0
M  V30 20284 H 1942.82 -1.57287 -1.06587 0
M  V30 20285 H 1940.97 -1.58493 -3.547 0
M  V30 20286 H 1942.64 -3.93372 -2.40949 0
M  V30 20287 H 1940.88 -3.73499 -2.20637 0
M  V30 20288 H 1941.55 -3.98365 -3.82111 0
M  V30 20289 H 1944.03 -2.06832 -3.61054 0
M  V30 20290 H 1942.9 -2.33411 -4.968 0
M  V30 20291 H 1943.16 -0.705309 -4.36438 0
M  V30 20292 N 1942.22 1.12672 -1.10194 0
M  V30 20293 C 1943.16 2.17442 -0.692399 0
M  V30 20294 C 1944.13 1.59713 0.305045 0
M  V30 20295 O 1945.32 1.87387 0.204539 0
M  V30 20296 C 1942.45 3.38693 -0.0212605 0
M  V30 20297 C 1941.49 4.15046 -0.981778 0
M  V30 20298 S 1942.32 4.73674 -2.49786 0
M  V30 20299 C 1943.48 5.98263 -1.83936 0
M  V30 20300 H 1943.71 2.51845 -1.57991 0
M  V30 20301 H 1941.25 1.24094 -0.918694 0
M  V30 20302 H 1943.2 4.08922 0.359641 0
M  V30 20303 H 1941.87 3.02576 0.843018 0
M  V30 20304 H 1941.06 5.01902 -0.459398 0
M  V30 20305 H 1940.66 3.50513 -1.30447 0
M  V30 20306 H 1942.95 6.67354 -1.16809 0
M  V30 20307 H 1943.9 6.55123 -2.68738 0
M  V30 20308 H 1944.3 5.4921 -1.30494 0
M  V30 20309 N 1943.7 0.89031 1.30043 0
M  V30 20310 C 1944.95 0.512208 1.96225 0
M  V30 20311 C 1945.28 -0.937287 1.70084 0
M  V30 20312 O 1944.56 -1.66309 1.00854 0
M  V30 20313 C 1944.84 0.794043 3.51236 0
M  V30 20314 C 1944.69 2.29456 3.86872 0
M  V30 20315 C 1946.01 0.274152 4.39245 0
M  V30 20316 H 1943.13 0.187568 0.712732 0
M  V30 20317 H 1945.77 1.11528 1.53823 0
M  V30 20318 H 1943.92 0.28077 3.87484 0
M  V30 20319 H 1945.59 2.87665 3.6062 0
M  V30 20320 H 1943.84 2.75907 3.34751 0
M  V30 20321 H 1944.51 2.44235 4.95029 0
M  V30 20322 H 1946.98 0.713535 4.09936 0
M  V30 20323 H 1945.86 0.500633 5.46612 0
M  V30 20324 H 1946.12 -0.824812 4.34338 0
M  V30 20325 N 1945.18 -1.43489 0.651812 0
M  V30 20326 C 1946.14 -2.29179 -0.0311937 0
M  V30 20327 C 1947.14 -1.42135 -0.751953 0
M  V30 20328 O 1948.33 -1.63781 -0.593416 0
M  V30 20329 C 1945.46 -3.24168 -1.0549 0
M  V30 20330 H 1946.66 -2.91061 0.722741 0
M  V30 20331 H 1944.21 -1.50746 0.412968 0
M  V30 20332 H 1944.95 -2.67177 -1.83812 0
M  V30 20333 H 1944.73 -3.88339 -0.541752 0
M  V30 20334 H 1946.22 -3.88487 -1.53193 0
M  V30 20335 N 1946.66 -0.393643 -1.52605 0
M  V30 20336 C 1947.88 0.189618 -2.06531 0
M  V30 20337 C 1948.31 1.39382 -1.26311 0
M  V30 20338 O 1947.67 1.78977 -0.289278 0
M  V30 20339 C 1947.71 0.533717 -3.56628 0
M  V30 20340 O 1946.82 1.62703 -3.78948 0
M  V30 20341 H 1946.16 0.0209483 -0.663669 0
M  V30 20342 H 1948.69 -0.562368 -1.9672 0
M  V30 20343 H 1948.7 0.796786 -4.00144 0
M  V30 20344 H 1947.37 -0.34665 -4.14453 0
M  V30 20345 H 1945.95 1.35734 -3.47319 0
M  V30 20346 N 1948.14 1.57115 -0.123593 0
M  V30 20347 C 1949.38 1.97238 0.536324 0
M  V30 20348 C 1949.74 1.00568 1.63554 0
M  V30 20349 O 1950.94 1.29647 2.35468 0
M  V30 20350 C 1949.21 3.41596 1.05106 0
M  V30 20351 S 1950.77 4.03734 1.71886 0
M  V30 20352 H 1947.59 0.689335 0.17418 0
M  V30 20353 H 1950.19 1.94371 -0.209763 0
M  V30 20354 H 1948.89 4.09698 0.239937 0
M  V30 20355 H 1948.43 3.48123 1.83231 0
M  V30 20356 H 1950.44 3.94867 3.0049 0
M  V30 20357 N 1949.61 -0.150187 1.56883 0
M  V30 20358 C 1951.02 -0.710574 1.72649 0
M  V30 20359 C 1951.38 -1.81812 0.737493 0
M  V30 20360 O 1950.5 -2.16184 -0.0965795 0
M  V30 20361 C 1951.1 -1.29572 3.13044 0
M  V30 20362 C 1949.65 -1.80271 3.30423 0
M  V30 20363 C 1948.8 -0.689923 2.6858 0
M  V30 20364 H 1951.75 0.0754473 1.58521 0
M  V30 20365 H 1951.77 -2.16552 3.12867 0
M  V30 20366 H 1951.29 -0.489412 3.85002 0
M  V30 20367 H 1949.39 -2.63479 2.63457 0
M  V30 20368 H 1949.5 -1.93362 4.38347 0
M  V30 20369 H 1947.86 -1.11574 2.28961 0
M  V30 20370 H 1948.65 0.104892 3.4314 0
M  V30 20371 N 1951.09 -1.51916 -0.419434 0
M  V30 20372 C 1952.04 -1.75117 -1.5309 0
M  V30 20373 C 1953.03 -0.617961 -1.57726 0
M  V30 20374 O 1954.24 -0.79977 -1.61257 0
M  V30 20375 H 1950.62 -0.553609 -0.508941 0
M  V30 20376 H 1952.59 -2.68253 -1.30702 0
M  V30 20377 C 1951.34 -1.90958 -2.90569 0
M  V30 20378 H 1950.66 -2.77571 -2.8774 0
M  V30 20379 H 1952.1 -2.11196 -3.67658 0
M  V30 20380 C 1950.56 -0.673977 -3.3009 0
M  V30 20381 O 1951.09 0.163 -4.01369 0
M  V30 20382 N 1949.29 -0.512857 -2.86039 0
M  V30 20383 H 1948.84 -1.19505 -2.28202 0
M  V30 20384 H 1948.8 0.312589 -3.12842 0
M  V30 20385 N 1952.57 0.676023 -1.42365 0
M  V30 20386 C 1953.52 1.78219 -1.42204 0
M  V30 20387 C 1954.5 1.582 -0.293546 0
M  V30 20388 O 1955.7 1.68699 -0.535684 0
M  V30 20389 C 1952.83 3.1667 -1.3257 0
M  V30 20390 C 1951.91 3.42317 -2.50359 0
M  V30 20391 N 1952.3 3.38555 -3.75784 0
M  V30 20392 C 1950.6 3.72948 -2.44593 0
M  V30 20393 C 1951.3 3.63652 -4.54018 0
M  V30 20394 N 1950.28 3.84357 -3.8441 0
M  V30 20395 H 1954.08 1.73702 -2.37075 0
M  V30 20396 H 1951.59 0.876812 -1.36696 0
M  V30 20397 H 1953.59 3.95937 -1.30536 0
M  V30 20398 H 1952.25 3.22386 -0.38699 0
M  V30 20399 H 1953.26 3.18485 -4.08396 0
M  V30 20400 H 1949.94 3.85916 -1.59295 0
M  V30 20401 H 1951.33 3.66715 -5.63001 0
M  V30 20402 N 1954.05 1.28517 0.912209 0
M  V30 20403 C 1955.46 1.14251 1.4766 0
M  V30 20404 C 1955.81 -0.266935 1.94376 0
M  V30 20405 O 1954.94 -1.16134 1.82598 0
M  V30 20406 C 1955.53 2.06792 2.6837 0
M  V30 20407 C 1954.09 1.96587 3.20984 0
M  V30 20408 C 1953.24 1.98444 1.93689 0
M  V30 20409 H 1956.19 1.41184 0.724769 0
M  V30 20410 H 1956.21 1.63282 3.43685 0
M  V30 20411 H 1955.72 3.09365 2.34339 0
M  V30 20412 H 1953.82 0.970565 3.59737 0
M  V30 20413 H 1953.93 2.83622 3.86129 0
M  V30 20414 H 1952.3 1.42872 2.10855 0
M  V30 20415 H 1953.08 3.02699 1.61951 0
M  V30 20416 N 1955.53 -1.12086 1.1079 0
M  V30 20417 C 1956.75 -1.88034 0.875097 0
M  V30 20418 C 1957.18 -1.79281 -0.569191 0
M  V30 20419 O 1956.53 -1.15037 -1.40129 0
M  V30 20420 C 1956.58 -3.35066 1.33278 0
M  V30 20421 O 1955.69 -4.09356 0.500163 0
M  V30 20422 H 1955.03 -0.584116 0.31576 0
M  V30 20423 H 1957.56 -1.41725 1.47564 0
M  V30 20424 H 1957.57 -3.85908 1.32434 0
M  V30 20425 H 1956.24 -3.40753 2.38453 0
M  V30 20426 H 1954.82 -3.68454 0.574137 0
M  V30 20427 N 1957 -0.897194 -1.29569 0
M  V30 20428 C 1958.42 -0.592933 -1.48177 0
M  V30 20429 C 1958.62 0.866214 -1.81931 0
M  V30 20430 O 1957.68 1.64658 -1.91427 0
M  V30 20431 C 1958.99 -1.5166 -2.59653 0
M  V30 20432 C 1960.54 -1.52153 -2.73529 0
M  V30 20433 C 1961.01 -2.43142 -3.88131 0
M  V30 20434 N 1962.5 -2.41175 -3.9546 0
M  V30 20435 C 1963.24 -3.08283 -4.83476 0
M  V30 20436 N 1962.73 -3.84662 -5.76201 0
M  V30 20437 N 1964.53 -2.97453 -4.76946 0
M  V30 20438 H 1956.68 -1.84096 -1.05935 0
M  V30 20439 H 1958.94 -0.788701 -0.52598 0
M  V30 20440 H 1958.65 -2.55612 -2.41569 0
M  V30 20441 H 1958.52 -1.23526 -3.564 0
M  V30 20442 H 1960.91 -0.489472 -2.91012 0
M  V30 20443 H 1960.99 -1.84324 -1.77365 0
M  V30 20444 H 1960.63 -3.46441 -3.71404 0
M  V30 20445 H 1960.56 -2.08282 -4.83659 0
M  V30 20446 H 1963.05 -1.8568 -3.29137 0
M  V30 20447 H 1963.37 -4.32929 -6.4015 0
M  V30 20448 H 1961.71 -3.88769 -5.76094 0
M  V30 20449 H 1964.9 -2.37301 -4.03492 0
M  V30 20450 H 1965.08 -3.50029 -5.45329 0
M  V30 20451 N 1958.48 1.43142 -0.659413 0
M  V30 20452 C 1959.73 2.02038 -0.175593 0
M  V30 20453 C 1960.06 1.5194 1.20946 0
M  V30 20454 O 1959.34 0.715095 1.80877 0
M  V30 20455 C 1959.62 3.59581 -0.193256 0
M  V30 20456 C 1959.47 4.19896 -1.61267 0
M  V30 20457 C 1960.79 4.37616 0.466976 0
M  V30 20458 H 1957.91 0.734103 -0.0652811 0
M  V30 20459 H 1960.55 1.7036 -0.841276 0
M  V30 20460 H 1958.7 3.867 0.373574 0
M  V30 20461 H 1960.37 4.03786 -2.23056 0
M  V30 20462 H 1958.62 3.7631 -2.15807 0
M  V30 20463 H 1959.29 5.28999 -1.57683 0
M  V30 20464 H 1961.76 4.16097 -0.0153667 0
M  V30 20465 H 1960.64 5.47261 0.423915 0
M  V30 20466 H 1960.9 4.14332 1.54211 0
M  V30 20467 N 1959.96 0.40173 1.52394 0
M  V30 20468 C 1961.19 -0.178662 2.06629 0
M  V30 20469 C 1961.61 -1.3871 1.27048 0
M  V30 20470 O 1960.97 -1.78821 0.298765 0
M  V30 20471 C 1961.02 -0.514797 3.56906 0
M  V30 20472 O 1960.12 -1.60691 3.79805 0
M  V30 20473 H 1959.46 -0.0174284 0.663771 0
M  V30 20474 H 1961.99 0.572792 1.96419 0
M  V30 20475 H 1962 -0.775554 4.00561 0
M  V30 20476 H 1960.68 0.368624 4.14263 0
M  V30 20477 H 1959.25 -1.3389 3.48034 0
M  V30 20478 N 1961.44 -1.57047 0.131923 0
M  V30 20479 C 1962.67 -1.99989 -0.530289 0
M  V30 20480 C 1963.08 -1.01182 -1.59397 0
M  V30 20481 O 1962.44 -0.00657368 -1.82499 0
M  V30 20482 C 1962.49 -3.42898 -1.14469 0
M  V30 20483 O 1962.21 -4.37926 -0.123503 0
M  V30 20484 C 1963.71 -4.0104 -1.88897 0
M  V30 20485 H 1960.93 -0.656371 -0.139348 0
M  V30 20486 H 1963.48 -2.03291 0.222069 0
M  V30 20487 H 1961.63 -3.40495 -1.84775 0
M  V30 20488 H 1962.04 -5.21376 -0.571587 0
M  V30 20489 H 1963.52 -5.03077 -2.27196 0
M  V30 20490 H 1964 -3.40903 -2.76915 0
M  V30 20491 H 1964.6 -4.07027 -1.23324 0
M  V30 20492 N 1962.92 0.141865 -1.5696 0
M  V30 20493 C 1963.88 1.15896 -1.97739 0
M  V30 20494 C 1964.88 1.3558 -0.864556 0
M  V30 20495 O 1966.07 1.32485 -1.13107 0
M  V30 20496 C 1963.2 2.51822 -2.29779 0
M  V30 20497 H 1964.39 0.808993 -2.88782 0
M  V30 20498 H 1961.95 0.385387 -1.51474 0
M  V30 20499 H 1962.68 2.91781 -1.41543 0
M  V30 20500 H 1962.47 2.38894 -3.10921 0
M  V30 20501 H 1963.96 3.25066 -2.62148 0
M  V30 20502 N 1964.39 1.52136 0.411372 0
M  V30 20503 C 1965.67 1.56646 1.17138 0
M  V30 20504 C 1966.05 0.346143 2.08243 0
M  V30 20505 O 1965.4 -0.66715 2.18544 0
M  V30 20506 C 1965.61 2.89399 1.95063 0
M  V30 20507 C 1966.96 3.42316 2.51207 0
M  V30 20508 O 1967.98 2.91123 2.05245 0
M  V30 20509 O 1966.84 4.31703 3.35104 0
M  V30 20510 H 1963.93 0.63088 0.534715 0
M  V30 20511 H 1966.48 1.64463 0.418334 0
M  V30 20512 H 1965.25 3.69666 1.28308 0
M  V30 20513 H 1964.88 2.84864 2.77377 0
M  V30 20514 N 1965.87 -0.668464 1.42721 0
M  V30 20515 C 1966.82 -1.80311 1.46938 0
M  V30 20516 C 1967.82 -1.65861 0.344463 0
M  V30 20517 O 1969.02 -1.72392 0.517768 0
M  V30 20518 H 1965.4 -0.59464 0.460333 0
M  V30 20519 H 1967.37 -1.73872 2.4251 0
M  V30 20520 C 1966.12 -3.18498 1.3948 0
M  V30 20521 H 1965.44 -3.30246 2.25338 0
M  V30 20522 H 1966.88 -3.9789 1.46492 0
M  V30 20523 C 1965.34 -3.36719 0.110386 0
M  V30 20524 O 1965.87 -3.92939 -0.834354 0
M  V30 20525 N 1964.07 -2.90589 0.0254882 0
M  V30 20526 H 1963.62 -2.45023 0.795077 0
M  V30 20527 H 1963.58 -3.03158 -0.833236 0
M  V30 20528 N 1967.35 -1.28999 -0.905381 0
M  V30 20529 C 1968.6 -1.16014 -1.64996 0
M  V30 20530 C 1968.91 0.288766 -1.93457 0
M  V30 20531 O 1970.12 0.539847 -2.66079 0
M  V30 20532 C 1968.58 -2.02866 -2.97276 0
M  V30 20533 C 1968.18 -3.52547 -2.76432 0
M  V30 20534 C 1969.93 -1.98591 -3.75182 0
M  V30 20535 C 1967.83 -4.31522 -4.04404 0
M  V30 20536 H 1966.76 -0.430598 -0.618952 0
M  V30 20537 H 1969.42 -1.53594 -1.00404 0
M  V30 20538 H 1967.8 -1.5815 -3.63049 0
M  V30 20539 H 1968.97 -4.05277 -2.19287 0
M  V30 20540 H 1967.29 -3.58435 -2.11928 0
M  V30 20541 H 1969.88 -2.54859 -4.70054 0
M  V30 20542 H 1970.23 -0.964577 -4.04971 0
M  V30 20543 H 1970.76 -2.41321 -3.16242 0
M  V30 20544 H 1967.5 -5.3427 -3.79784 0
M  V30 20545 H 1967.02 -3.83563 -4.61129 0
M  V30 20546 H 1968.7 -4.41885 -4.72596 0
M  V30 20547 N 1968.83 1.11497 -1.11383 0
M  V30 20548 C 1970.06 1.86756 -0.88351 0
M  V30 20549 C 1970.47 1.80404 0.570169 0
M  V30 20550 O 1969.81 1.18298 1.40539 0
M  V30 20551 C 1969.87 3.3647 -1.26603 0
M  V30 20552 C 1969.54 3.6659 -2.72876 0
M  V30 20553 C 1970.53 3.64121 -3.71095 0
M  V30 20554 C 1968.22 3.95614 -3.09507 0
M  V30 20555 C 1970.21 3.90253 -5.03966 0
M  V30 20556 C 1967.9 4.21404 -4.42563 0
M  V30 20557 C 1968.9 4.18712 -5.39601 0
M  V30 20558 O 1968.59 4.43855 -6.7026 0
M  V30 20559 H 1968.32 0.597446 -0.316283 0
M  V30 20560 H 1970.87 1.41938 -1.48469 0
M  V30 20561 H 1969.1 3.8189 -0.608003 0
M  V30 20562 H 1970.79 3.93092 -1.01162 0
M  V30 20563 H 1971.56 3.41749 -3.4414 0
M  V30 20564 H 1967.44 3.96846 -2.34594 0
M  V30 20565 H 1970.98 3.88067 -5.79698 0
M  V30 20566 H 1966.88 4.43252 -4.69252 0
M  V30 20567 H 1967.64 4.61425 -6.76039 0
M  V30 20568 N 1970.31 0.904053 1.29092 0
M  V30 20569 C 1971.55 0.532992 1.95671 0
M  V30 20570 C 1971.89 -0.919194 1.71069 0
M  V30 20571 O 1971.16 -1.6523 1.02612 0
M  V30 20572 C 1971.44 0.831252 3.50374 0
M  V30 20573 C 1971.3 2.33546 3.84417 0
M  V30 20574 C 1972.62 0.320724 4.3893 0
M  V30 20575 H 1969.74 0.195117 0.710703 0
M  V30 20576 H 1972.38 1.13153 1.52632 0
M  V30 20577 H 1970.53 0.321853 3.87165 0
M  V30 20578 H 1972.2 2.91473 3.57549 0
M  V30 20579 H 1970.44 2.79442 3.31805 0
M  V30 20580 H 1971.11 2.49471 4.9241 0
M  V30 20581 H 1973.59 0.756974 4.09157 0
M  V30 20582 H 1972.47 0.55858 5.4605 0
M  V30 20583 H 1972.73 -0.778699 4.35188 0
M  V30 20584 N 1971.79 -1.4279 0.666995 0
M  V30 20585 C 1972.73 -2.32583 -0.0279199 0
M  V30 20586 C 1973.73 -1.49387 -0.79874 0
M  V30 20587 O 1974.93 -1.65509 -0.707585 0
M  V30 20588 H 1971.31 -0.751485 -0.0278204 0
M  V30 20589 H 1973.28 -2.88901 0.746913 0
M  V30 20590 C 1972.03 -3.33869 -0.970921 0
M  V30 20591 H 1971.35 -3.9792 -0.387213 0
M  V30 20592 H 1972.79 -3.99301 -1.42599 0
M  V30 20593 C 1971.25 -2.65527 -2.07358 0
M  V30 20594 O 1971.78 -2.48123 -3.15908 0
M  V30 20595 N 1969.99 -2.24677 -1.84305 0
M  V30 20596 H 1969.53 -2.39032 -0.960283 0
M  V30 20597 H 1969.49 -1.79282 -2.58274 0
M  V30 20598 N 1973.26 -0.409806 -1.52179 0
M  V30 20599 C 1974.21 0.432719 -2.23856 0
M  V30 20600 C 1975.2 1.01291 -1.25016 0
M  V30 20601 O 1976.39 0.935617 -1.5025 0
M  V30 20602 C 1973.52 1.54847 -3.06394 0
M  V30 20603 C 1972.6 0.979019 -4.12645 0
M  V30 20604 N 1973 0.136283 -5.05616 0
M  V30 20605 C 1971.29 1.24946 -4.28141 0
M  V30 20606 C 1971.99 -0.180604 -5.8142 0
M  V30 20607 N 1970.97 0.428712 -5.41907 0
M  V30 20608 H 1974.77 -0.217442 -2.93095 0
M  V30 20609 H 1972.29 -0.220268 -1.60899 0
M  V30 20610 H 1974.28 2.16466 -3.56298 0
M  V30 20611 H 1972.94 2.20125 -2.38695 0
M  V30 20612 H 1973.95 -0.228075 -5.17398 0
M  V30 20613 H 1970.63 1.90176 -3.71671 0
M  V30 20614 H 1972.02 -0.8647 -6.66313 0
M  V30 20615 N 1974.74 1.56975 -0.14025 0
M  V30 20616 C 1975.97 2.00699 0.522938 0
M  V30 20617 C 1976.39 1.01964 1.58066 0
M  V30 20618 O 1975.75 -0.0056107 1.81299 0
M  V30 20619 C 1975.8 3.43203 1.10653 0
M  V30 20620 O 1974.9 3.47447 2.22159 0
M  V30 20621 H 1974.24 0.65143 0.12859 0
M  V30 20622 H 1976.77 2.03246 -0.234993 0
M  V30 20623 H 1976.78 3.81862 1.43686 0
M  V30 20624 H 1975.46 4.14573 0.331913 0
M  V30 20625 H 1974.03 3.20625 1.90405 0
M  V30 20626 N 1976.22 -0.133539 1.57033 0
M  V30 20627 C 1977.47 -0.843859 1.8408 0
M  V30 20628 C 1977.79 -1.80556 0.723177 0
M  V30 20629 O 1977.05 -1.93588 -0.286718 0
M  V30 20630 C 1977.35 -1.64036 3.17533 0
M  V30 20631 C 1977.01 -0.82425 4.43302 0
M  V30 20632 C 1975.68 -0.599146 4.77455 0
M  V30 20633 C 1978.03 -0.254425 5.20579 0
M  V30 20634 C 1975.36 0.206272 5.86337 0
M  V30 20635 C 1977.71 0.538105 6.30307 0
M  V30 20636 C 1976.37 0.773661 6.63001 0
M  V30 20637 H 1975.64 -0.30879 0.673595 0
M  V30 20638 H 1978.29 -0.106868 1.91202 0
M  V30 20639 H 1976.59 -2.44784 3.05921 0
M  V30 20640 H 1978.29 -2.19367 3.35677 0
M  V30 20641 H 1974.88 -1.00978 4.16535 0
M  V30 20642 H 1979.07 -0.415584 4.94557 0
M  V30 20643 H 1974.32 0.398139 6.10102 0
M  V30 20644 H 1978.5 0.986708 6.89374 0
M  V30 20645 H 1976.12 1.3996 7.47205 0
M  V30 20646 N 1977.7 -1.52352 -0.403298 0
M  V30 20647 C 1978.61 -1.79011 -1.51631 0
M  V30 20648 C 1979.62 -0.676014 -1.60331 0
M  V30 20649 O 1980.8 -0.962058 -1.76936 0
M  V30 20650 C 1977.86 -1.94046 -2.8731 0
M  V30 20651 C 1976.93 -3.17955 -2.88449 0
M  V30 20652 C 1976.16 -3.32264 -4.17656 0
M  V30 20653 O 1976.38 -2.51703 -5.11861 0
M  V30 20654 O 1975.32 -4.25446 -4.25769 0
M  V30 20655 H 1979.14 -2.73495 -1.32038 0
M  V30 20656 H 1976.73 -1.37268 -0.589733 0
M  V30 20657 H 1978.61 -2.05724 -3.67771 0
M  V30 20658 H 1977.28 -1.02752 -3.06959 0
M  V30 20659 H 1976.19 -3.11731 -2.0682 0
M  V30 20660 H 1977.52 -4.0905 -2.7375 0
M  V30 20661 N 1979.18 0.660885 -1.43074 0
M  V30 20662 C 1980.42 1.41805 -1.43999 0
M  V30 20663 C 1980.74 1.949 -0.0625341 0
M  V30 20664 O 1980.01 1.7395 0.901019 0
M  V30 20665 H 1978.59 0.526263 -0.530147 0
M  V30 20666 H 1981.26 0.779967 -1.78613 0
M  V30 20667 H 1980.35 2.2642 -2.14803 0
M  V30 20668 N 1980.65 1.29477 0.898527 0
M  V30 20669 C 1981.88 1.20529 1.68783 0
M  V30 20670 C 1982.3 -0.230536 1.86682 0
M  V30 20671 O 1981.66 -1.1664 1.38798 0
M  V30 20672 C 1981.71 1.92501 3.04919 0
M  V30 20673 O 1980.81 1.24286 3.93226 0
M  V30 20674 H 1980.16 0.417586 0.516254 0
M  V30 20675 H 1982.69 1.71066 1.1224 0
M  V30 20676 H 1982.7 2.01001 3.55053 0
M  V30 20677 H 1981.37 2.96934 2.9121 0
M  V30 20678 H 1979.95 1.24052 3.51661 0
M  V30 20679 N 1982.13 -1.10905 1.11972 0
M  V30 20680 C 1983.38 -1.82127 0.866753 0
M  V30 20681 C 1983.69 -1.85866 -0.609372 0
M  V30 20682 O 1984.9 -2.53243 -0.978781 0
M  V30 20683 C 1983.36 -3.27109 1.50093 0
M  V30 20684 C 1982.96 -3.31682 3.01149 0
M  V30 20685 C 1984.71 -4.03192 1.32803 0
M  V30 20686 C 1982.62 -4.71095 3.57524 0
M  V30 20687 H 1981.55 -0.682444 0.320604 0
M  V30 20688 H 1984.2 -1.24759 1.34564 0
M  V30 20689 H 1982.58 -3.84443 0.949712 0
M  V30 20690 H 1983.75 -2.84199 3.62722 0
M  V30 20691 H 1982.07 -2.69082 3.17779 0
M  V30 20692 H 1984.66 -5.06162 1.72348 0
M  V30 20693 H 1985.01 -4.15416 0.271181 0
M  V30 20694 H 1985.54 -3.52259 1.84819 0
M  V30 20695 H 1982.28 -4.6407 4.62947 0
M  V30 20696 H 1981.8 -5.18965 3.00725 0
M  V30 20697 H 1983.48 -5.40059 3.56294 0
M  V30 20698 N 1983.61 -0.910886 -1.2861 0
M  V30 20699 C 1984.56 -0.395575 -2.27385 0
M  V30 20700 C 1985.53 0.528415 -1.57471 0
M  V30 20701 O 1986.71 0.451232 -1.85388 0
M  V30 20702 C 1983.85 0.360855 -3.43208 0
M  V30 20703 C 1982.97 -0.59531 -4.27879 0
M  V30 20704 C 1982.1 0.179282 -5.30897 0
M  V30 20705 C 1981.14 -0.770684 -6.07229 0
M  V30 20706 N 1980.28 -0.0297918 -7.02094 0
M  V30 20707 H 1985.12 -1.24293 -2.70842 0
M  V30 20708 H 1982.65 -0.624218 -1.33199 0
M  V30 20709 H 1984.61 0.815583 -4.0915 0
M  V30 20710 H 1983.24 1.17258 -3.0075 0
M  V30 20711 H 1982.29 -1.16857 -3.62006 0
M  V30 20712 H 1983.61 -1.32201 -4.80962 0
M  V30 20713 H 1982.76 0.694702 -6.0271 0
M  V30 20714 H 1981.5 0.93905 -4.78574 0
M  V30 20715 H 1980.5 -1.29751 -5.3427 0
M  V30 20716 H 1981.73 -1.52996 -6.61641 0
M  V30 20717 H 1979.67 0.712039 -6.52124 0
M  V30 20718 H 1979.59 -0.69637 -7.52786 0
M  V30 20719 H 1980.86 0.465527 -7.78109 0
M  V30 20720 N 1985.09 1.42434 -0.674558 0
M  V30 20721 C 1986.34 2.01144 -0.196332 0
M  V30 20722 C 1986.66 1.53605 1.20127 0
M  V30 20723 O 1985.93 0.757627 1.80657 0
M  V30 20724 H 1984.51 0.743751 -0.0695937 0
M  V30 20725 H 1987.17 1.74354 -0.871013 0
M  V30 20726 H 1986.27 3.11475 -0.197426 0
M  V30 20727 N 1986.57 0.417871 1.51959 0
M  V30 20728 C 1987.53 -0.391479 2.25832 0
M  V30 20729 C 1988.53 -0.96627 1.2853 0
M  V30 20730 O 1989.72 -0.843774 1.52401 0
M  V30 20731 C 1986.85 -1.55192 3.03526 0
M  V30 20732 H 1988.04 0.255672 2.98808 0
M  V30 20733 H 1985.6 0.170583 1.55366 0
M  V30 20734 H 1986.33 -2.23569 2.3492 0
M  V30 20735 H 1986.12 -1.14616 3.74974 0
M  V30 20736 H 1987.61 -2.12422 3.59537 0
M  V30 20737 N 1988.04 -1.56898 0.148573 0
M  V30 20738 C 1989.29 -1.95788 -0.501154 0
M  V30 20739 C 1989.61 -1.03451 -1.65297 0
M  V30 20740 O 1988.88 -0.0963607 -1.95663 0
M  V30 20741 H 1987.46 -0.722922 -0.188129 0
M  V30 20742 H 1990.13 -1.93603 0.224439 0
M  V30 20743 H 1989.22 -2.99547 -0.876258 0
M  V30 20744 N 1989.52 0.125209 -1.57102 0
M  V30 20745 C 1990.49 1.13792 -1.98957 0
M  V30 20746 C 1991.49 1.34656 -0.878887 0
M  V30 20747 O 1992.68 1.31278 -1.14506 0
M  V30 20748 C 1989.81 2.49371 -2.32437 0
M  V30 20749 H 1991 0.778319 -2.89624 0
M  V30 20750 H 1988.55 0.369299 -1.51875 0
M  V30 20751 H 1989.29 2.90263 -1.4463 0
M  V30 20752 H 1989.07 2.35583 -3.13437 0
M  V30 20753 H 1990.56 3.22268 -2.65581 0
M  V30 20754 N 1991 1.52564 0.395213 0
M  V30 20755 C 1992.25 1.6653 1.13801 0
M  V30 20756 C 1992.56 0.408362 1.9129 0
M  V30 20757 O 1993.77 0.428049 2.68104 0
M  V30 20758 C 1992.22 2.94273 2.07199 0
M  V30 20759 C 1991.83 4.27125 1.35162 0
M  V30 20760 C 1993.58 3.17604 2.81652 0
M  V30 20761 C 1991.48 5.4598 2.27289 0
M  V30 20762 H 1990.41 0.620392 0.428521 0
M  V30 20763 H 1993.06 1.79058 0.401302 0
M  V30 20764 H 1991.45 2.75477 2.8448 0
M  V30 20765 H 1992.62 4.56452 0.631492 0
M  V30 20766 H 1990.94 4.10006 0.726934 0
M  V30 20767 H 1993.53 4.03582 3.5075 0
M  V30 20768 H 1993.88 2.32415 3.45382 0
M  V30 20769 H 1994.41 3.36938 2.11466 0
M  V30 20770 H 1991.15 6.33557 1.68184 0
M  V30 20771 H 1990.67 5.20972 2.97235 0
M  V30 20772 H 1992.35 5.79609 2.8751 0
M  V30 20773 N 1992.48 -0.653289 1.43422 0
M  V30 20774 C 1993.7 -1.4459 1.4869 0
M  V30 20775 C 1994.13 -1.87801 0.10599 0
M  V30 20776 O 1993.49 -1.5737 -0.90025 0
M  V30 20777 C 1993.53 -2.65713 2.43781 0
M  V30 20778 O 1992.64 -3.64767 1.92402 0
M  V30 20779 H 1991.98 -0.433532 0.502938 0
M  V30 20780 H 1994.51 -0.799423 1.88336 0
M  V30 20781 H 1994.52 -3.13528 2.61082 0
M  V30 20782 H 1993.19 -2.33604 3.44096 0
M  V30 20783 H 1991.77 -3.2391 1.84761 0
M  V30 20784 N 1993.96 -1.29952 -0.891648 0
M  V30 20785 C 1994.9 -1.15662 -2.01805 0
M  V30 20786 C 1995.9 -0.0701689 -1.69255 0
M  V30 20787 O 1997.1 -0.230546 -1.78517 0
M  V30 20788 H 1993.48 -0.357511 -0.661581 0
M  V30 20789 H 1995.45 -2.11008 -2.10993 0
M  V30 20790 C 1994.2 -0.858316 -3.36939 0
M  V30 20791 H 1993.52 -1.68637 -3.62494 0
M  V30 20792 H 1994.96 -0.798404 -4.16415 0
M  V30 20793 C 1993.42 0.438629 -3.34032 0
M  V30 20794 O 1993.95 1.46221 -3.74142 0
M  V30 20795 N 1992.16 0.447383 -2.87136 0
M  V30 20796 H 1991.7 -0.386058 -2.54691 0
M  V30 20797 H 1991.66 1.31512 -2.85573 0
M  V30 20798 N 1995.44 1.1031 -1.12559 0
M  V30 20799 C 1996.68 1.82297 -0.881699 0
M  V30 20800 C 1997.01 1.85258 0.592431 0
M  V30 20801 O 1996.27 1.30985 1.45401 0
M  V30 20802 C 1996.56 3.28699 -1.40326 0
M  V30 20803 C 1996.23 3.45885 -2.89266 0
M  V30 20804 C 1994.89 3.50283 -3.29933 0
M  V30 20805 C 1997.24 3.51172 -3.85134 0
M  V30 20806 C 1994.57 3.57536 -4.65172 0
M  V30 20807 C 1996.92 3.59958 -5.20205 0
M  V30 20808 C 1995.59 3.62621 -5.60413 0
M  V30 20809 H 1994.86 0.667073 -0.322636 0
M  V30 20810 H 1997.51 1.30015 -1.406 0
M  V30 20811 H 1995.81 3.83557 -0.799456 0
M  V30 20812 H 1997.51 3.82913 -1.19074 0
M  V30 20813 H 1994.1 3.4314 -2.56813 0
M  V30 20814 H 1998.28 3.47023 -3.54808 0
M  V30 20815 H 1993.54 3.5788 -4.95713 0
M  V30 20816 H 1997.71 3.62993 -5.94314 0
M  V30 20817 H 1995.34 3.67994 -6.65195 0
M  V30 20818 N 1996.91 0.917694 1.28125 0
M  V30 20819 C 1997.84 0.426179 2.29578 0
M  V30 20820 C 1998.82 -0.508289 1.62328 0
M  V30 20821 O 2000.01 -0.415181 1.8971 0
M  V30 20822 C 1997.14 -0.331007 3.45719 0
M  V30 20823 C 1996.09 0.51469 4.24894 0
M  V30 20824 C 1995.42 -0.371069 5.33411 0
M  V30 20825 C 1996.72 1.774 4.9125 0
M  V30 20826 H 1998.41 1.27403 2.7094 0
M  V30 20827 H 1995.96 0.614065 1.30251 0
M  V30 20828 H 1997.91 -0.68573 4.15783 0
M  V30 20829 H 1996.64 -1.2128 3.03247 0
M  V30 20830 H 1995.3 0.851986 3.56562 0
M  V30 20831 H 1994.94 -1.25152 4.87182 0
M  V30 20832 H 1994.64 0.19121 5.87289 0
M  V30 20833 H 1996.17 -0.721587 6.06321 0
M  V30 20834 H 1997.58 1.48795 5.53654 0
M  V30 20835 H 1995.98 2.27899 5.55141 0
M  V30 20836 H 1997.05 2.49947 4.15517 0
M  V30 20837 N 1998.39 -1.42074 0.682102 0
M  V30 20838 C 1999.8 -1.8453 0.283805 0
M  V30 20839 C 2000.15 -1.5709 -1.17547 0
M  V30 20840 O 1999.28 -1.03444 -1.90075 0
M  V30 20841 C 1999.87 -3.34965 0.508316 0
M  V30 20842 C 1998.43 -3.76042 0.164069 0
M  V30 20843 C 1997.58 -2.65594 0.797204 0
M  V30 20844 H 2000.53 -1.31817 0.88374 0
M  V30 20845 H 2000.55 -3.7976 -0.237267 0
M  V30 20846 H 2000.06 -3.54905 1.57047 0
M  V30 20847 H 1998.16 -3.61707 -0.894353 0
M  V30 20848 H 1998.28 -4.75205 0.609688 0
M  V30 20849 H 1996.64 -2.53678 0.227913 0
M  V30 20850 H 1997.42 -2.88355 1.86296 0
M  V30 20851 N 1999.87 -0.425924 -1.51735 0
M  V30 20852 C 2000.82 0.405756 -2.29034 0
M  V30 20853 C 2001.81 1.03103 -1.3441 0
M  V30 20854 O 2003.02 0.967304 -1.518 0
M  V30 20855 H 1999.39 0.149651 -0.736959 0
M  V30 20856 H 2001.36 -0.267185 -2.97201 0
M  V30 20857 C 2000.11 1.50091 -3.13637 0
M  V30 20858 H 1999.44 1.02912 -3.86328 0
M  V30 20859 H 2000.88 2.05632 -3.70799 0
M  V30 20860 C 1999.33 2.47775 -2.28274 0
M  V30 20861 O 1999.86 3.52051 -1.9345 0
M  V30 20862 N 1998.07 2.18387 -1.91717 0
M  V30 20863 H 1997.62 1.3362 -2.20235 0
M  V30 20864 H 1997.58 2.83989 -1.34897 0
M  V30 20865 N 2001.35 1.56817 -0.156891 0
M  V30 20866 C 2002.3 2.18555 0.796017 0
M  V30 20867 C 2003.29 1.14538 1.24809 0
M  V30 20868 O 2004.5 1.32768 1.21542 0
M  V30 20869 H 2000.87 0.699939 0.274936 0
M  V30 20870 H 2002.84 2.97341 0.251207 0
M  V30 20871 C 2001.59 2.82928 2.02106 0
M  V30 20872 H 2000.91 3.62687 1.6822 0
M  V30 20873 H 2002.35 3.29615 2.66702 0
M  V30 20874 C 2000.81 1.81947 2.83543 0
M  V30 20875 O 2001.34 1.29602 3.80219 0
M  V30 20876 N 1999.55 1.51028 2.48272 0
M  V30 20877 H 1999.1 1.93787 1.69719 0
M  V30 20878 H 1999.05 0.837124 3.0305 0
M  V30 20879 N 2002.83 -0.116876 1.57166 0
M  V30 20880 C 2004.07 -0.822659 1.84599 0
M  V30 20881 C 2004.39 -1.80315 0.742392 0
M  V30 20882 O 2003.66 -1.94505 -0.233411 0
M  V30 20883 H 2002.24 -0.306797 0.681091 0
M  V30 20884 H 2004.91 -0.103693 1.94624 0
M  V30 20885 H 2004 -1.36659 2.8059 0
M  V30 20886 N 2004.3 -1.52772 -0.387116 0
M  V30 20887 C 2005.72 -1.42064 -0.727316 0
M  V30 20888 C 2005.92 -0.542559 -1.94058 0
M  V30 20889 O 2004.98 -0.0167267 -2.52494 0
M  V30 20890 C 2006.29 -2.84942 -0.960651 0
M  V30 20891 C 2007.84 -2.94432 -1.06201 0
M  V30 20892 C 2008.31 -4.38326 -1.32796 0
M  V30 20893 N 2009.8 -4.41659 -1.39613 0
M  V30 20894 C 2010.54 -5.50081 -1.6186 0
M  V30 20895 N 2010.03 -6.68585 -1.81566 0
M  V30 20896 N 2011.83 -5.37627 -1.64055 0
M  V30 20897 H 2003.98 -2.08382 0.411202 0
M  V30 20898 H 2006.24 -0.940144 0.121792 0
M  V30 20899 H 2005.95 -3.51416 -0.141246 0
M  V30 20900 H 2005.82 -3.27309 -1.87479 0
M  V30 20901 H 2008.21 -2.28125 -1.87198 0
M  V30 20902 H 2008.29 -2.55491 -0.125731 0
M  V30 20903 H 2007.93 -5.05199 -0.523081 0
M  V30 20904 H 2007.86 -4.74821 -2.27711 0
M  V30 20905 H 2010.35 -3.56245 -1.26086 0
M  V30 20906 H 2010.67 -7.4699 -1.98053 0
M  V30 20907 H 2009.01 -6.7161 -1.78786 0
M  V30 20908 H 2012.2 -4.44016 -1.48213 0
M  V30 20909 H 2012.38 -6.22193 -1.81053 0
M  V30 20910 N 2005.78 0.645673 -1.43767 0
M  V30 20911 C 2006.71 1.77107 -1.45484 0
M  V30 20912 C 2007.73 1.58993 -0.350002 0
M  V30 20913 O 2008.92 1.67575 -0.61489 0
M  V30 20914 C 2006.02 3.14639 -1.25919 0
M  V30 20915 C 2005.19 3.59344 -2.49381 0
M  V30 20916 C 2004.25 4.75703 -2.24929 0
M  V30 20917 O 2003.27 4.84756 -2.98329 0
M  V30 20918 N 2004.48 5.66422 -1.27068 0
M  V30 20919 H 2007.24 1.7611 -2.42498 0
M  V30 20920 H 2004.8 0.829768 -1.3902 0
M  V30 20921 H 2006.79 3.9018 -1.07432 0
M  V30 20922 H 2005.36 3.10364 -0.37323 0
M  V30 20923 H 2004.58 2.74166 -2.83243 0
M  V30 20924 H 2005.87 3.8596 -3.3153 0
M  V30 20925 H 2005.27 5.61787 -0.664185 0
M  V30 20926 H 2003.83 6.41653 -1.14562 0
M  V30 20927 N 2007.26 1.30423 0.884744 0
M  V30 20928 C 2008.51 1.19259 1.63657 0
M  V30 20929 C 2008.83 -0.252645 1.92852 0
M  V30 20930 O 2008.09 -1.19718 1.5481 0
M  V30 20931 C 2008.39 1.96681 2.98415 0
M  V30 20932 C 2008.05 3.46298 2.8877 0
M  V30 20933 C 2006.72 3.87098 2.85847 0
M  V30 20934 C 2009.07 4.41573 2.7688 0
M  V30 20935 C 2006.4 5.21464 2.68873 0
M  V30 20936 C 2008.75 5.76047 2.61444 0
M  V30 20937 C 2007.41 6.16085 2.56896 0
M  V30 20938 H 2006.68 0.436399 0.598863 0
M  V30 20939 H 2009.33 1.61527 1.02865 0
M  V30 20940 H 2007.63 1.47049 3.63158 0
M  V30 20941 H 2009.33 1.85436 3.55548 0
M  V30 20942 H 2005.92 3.13877 2.91855 0
M  V30 20943 H 2010.11 4.10994 2.78205 0
M  V30 20944 H 2005.36 5.51577 2.63766 0
M  V30 20945 H 2009.54 6.49509 2.51218 0
M  V30 20946 H 2007.16 7.20147 2.43501 0
M  V30 20947 O 2008.78 -1.02084 1.25144 0
M  V30 20948 H 2009.47 -1.63852 1.03306 0
M  V30 END ATOM
M  V30 BEGIN BOND
M  V30 END BOND
M  V30 END CTAB
M  END
$$$$
