drugbank_target|Q9UHC3 Acid-sensing ion channel 3 (DB08838)
 OpenBabel12092120583D

  0  0  0     0  0            999 V3000
M  V30 BEGIN CTAB
M  V30 COUNTS 8179 8289 0 0 0
M  V30 BEGIN ATOM
M  V30 1 H -0.908 1.98254 -0.117106 0
M  V30 2 N 0 1.576 0 0
M  V30 3 C 0.933 2.03868 1.02534 0
M  V30 4 C 1.911 0.928543 1.3348 0
M  V30 5 O 3.095 1.19667 1.45644 0
M  V30 6 C 0.222 2.43627 2.35294 0
M  V30 7 C -0.732 3.65373 2.2001 0
M  V30 8 S 0.101 5.13292 1.52614 0
M  V30 9 C 1.257 5.56322 2.86805 0
M  V30 10 H 1.49 2.90518 0.631377 0
M  V30 11 H -0.977 1.52953 0.210867 0
M  V30 12 H 0.981 2.67203 3.11629 0
M  V30 13 H -0.358 1.57376 2.7183 0
M  V30 14 H -1.165 3.90944 3.18086 0
M  V30 15 H -1.563 3.418 1.51819 0
M  V30 16 H 0.729 5.58782 3.83104 0
M  V30 17 H 1.672 6.56266 2.65933 0
M  V30 18 H 2.08 4.83886 2.90714 0
M  V30 19 N 1.4781 -0.272755 1.55222 0
M  V30 20 C 2.4251 -1.33716 1.88119 0
M  V30 21 C 3.3951 -1.49066 0.73271 0
M  V30 22 O 4.5801 -1.63469 0.984002 0
M  V30 23 C 1.7201 -2.69238 2.15882 0
M  V30 24 C 0.8331 -2.62108 3.43399 0
M  V30 25 C -0.0319 -3.89811 3.60861 0
M  V30 26 C -0.9929 -3.77193 4.8207 0
M  V30 27 N -1.8559 -4.9673 4.96189 0
M  V30 28 H 2.9841 -1.04962 2.78903 0
M  V30 29 H 0.5211 -0.507088 1.38083 0
M  V30 30 H 2.4791 -3.48089 2.29978 0
M  V30 31 H 1.1091 -2.96194 1.28331 0
M  V30 32 H 0.1611 -1.74967 3.37773 0
M  V30 33 H 1.4731 -2.48685 4.32386 0
M  V30 34 H 0.6271 -4.77103 3.74777 0
M  V30 35 H -0.6339 -4.06102 2.7006 0
M  V30 36 H -1.6289 -2.88284 4.68159 0
M  V30 37 H -0.4039 -3.62421 5.74307 0
M  V30 38 H -2.4579 -5.13431 4.08319 0
M  V30 39 H -2.5409 -4.85839 5.79221 0
M  V30 40 H -1.2729 -5.85594 5.1449 0
M  V30 41 N 2.9562 -1.48159 -0.537278 0
M  V30 42 C 4.3672 -1.49429 -1.11928 0
M  V30 43 C 4.7182 -0.26 -1.9447 0
M  V30 44 O 3.8432 0.633489 -2.0692 0
M  V30 45 C 4.4382 -2.70758 -2.03656 0
M  V30 46 C 2.9972 -2.74923 -2.57088 0
M  V30 47 C 2.1442 -2.42835 -1.3389 0
M  V30 48 H 5.0952 -1.55381 -0.322886 0
M  V30 49 H 5.1162 -2.48861 -2.87834 0
M  V30 50 H 4.6282 -3.60575 -1.43553 0
M  V30 51 H 2.7292 -1.89296 -3.20933 0
M  V30 52 H 2.8422 -3.76157 -2.9672 0
M  V30 53 H 1.2062 -1.93836 -1.65226 0
M  V30 54 H 1.9892 -3.34884 -0.755504 0
M  V30 55 N 4.4343 0.785586 -1.36625 0
M  V30 56 C 5.6623 1.57448 -1.3423 0
M  V30 57 C 6.0773 1.88649 0.0755653 0
M  V30 58 O 5.4343 1.50414 1.03354 0
M  V30 59 C 5.4853 2.89316 -2.16745 0
M  V30 60 O 5.2063 2.59459 -3.53005 0
M  V30 61 C 6.7073 3.83606 -2.22174 0
M  V30 62 H 3.9273 0.488226 -0.4603 0
M  V30 63 H 6.4713 0.974733 -1.79775 0
M  V30 64 H 4.6263 3.4575 -1.74745 0
M  V30 65 H 5.0403 3.43804 -3.96105 0
M  V30 66 H 6.5143 4.73181 -2.8426 0
M  V30 67 H 6.9913 4.21734 -1.22627 0
M  V30 68 H 7.5973 3.33104 -2.64427 0
M  V30 69 N 5.9124 1.20967 1.01018 0
M  V30 70 C 7.1374 1.0503 1.78839 0
M  V30 71 C 7.5624 -0.395752 1.8389 0
M  V30 72 O 6.9204 -1.28529 1.27867 0
M  V30 73 C 6.9684 1.64602 3.2084 0
M  V30 74 O 6.0724 0.887988 4.02726 0
M  V30 75 H 5.4134 0.369987 0.551367 0
M  V30 76 H 7.9434 1.60399 1.27018 0
M  V30 77 H 7.9534 1.68607 3.71532 0
M  V30 78 H 6.6284 2.69841 3.16479 0
M  V30 79 H 5.2054 0.922648 3.61305 0
M  V30 80 N 7.3905 -1.2043 1.01659 0
M  V30 81 C 8.6385 -1.89423 0.704522 0
M  V30 82 C 8.9595 -1.79231 -0.768197 0
M  V30 83 O 8.2295 -1.1947 -1.55254 0
M  V30 84 H 6.8095 -0.701178 0.257602 0
M  V30 85 H 9.4715 -1.4626 1.28818 0
M  V30 86 H 8.5675 -2.96052 0.987916 0
M  V30 87 N 8.8686 -0.792821 -1.36206 0
M  V30 88 C 10.2796 -0.429513 -1.81692 0
M  V30 89 C 10.6306 1.04695 -1.65932 0
M  V30 90 O 9.7556 1.81256 -1.18218 0
M  V30 91 C 10.3506 -0.772831 -3.29868 0
M  V30 92 C 8.9096 -0.462307 -3.7355 0
M  V30 93 C 8.0566 -1.00569 -2.5842 0
M  V30 94 H 11.0076 -0.985672 -1.24379 0
M  V30 95 H 11.0286 -0.0651928 -3.80444 0
M  V30 96 H 10.5406 -1.84747 -3.41307 0
M  V30 97 H 8.6416 0.604158 -3.67669 0
M  V30 98 H 8.7546 -0.985299 -4.68859 0
M  V30 99 H 7.1186 -0.428734 -2.51066 0
M  V30 100 H 7.9016 -2.08616 -2.72643 0
M  V30 101 N 10.3467 1.47872 -0.545128 0
M  V30 102 C 11.2567 2.33633 0.212746 0
M  V30 103 C 12.2727 1.4744 0.923983 0
M  V30 104 O 13.4487 1.80393 0.895572 0
M  V30 105 C 10.5137 3.23884 1.23693 0
M  V30 106 C 9.5747 4.25961 0.534417 0
M  V30 107 C 8.8077 5.11899 1.5098 0
M  V30 108 O 9.0307 5.00077 2.7437 0
M  V30 109 O 7.9647 5.92831 1.0409 0
M  V30 110 H 11.7907 2.99714 -0.490416 0
M  V30 111 H 9.3757 1.46235 -0.305871 0
M  V30 112 H 11.2577 3.79666 1.82843 0
M  V30 113 H 9.9327 2.60446 1.92222 0
M  V30 114 H 8.8397 3.73972 -0.0979679 0
M  V30 115 H 10.1727 4.92079 -0.109213 0
M  V30 116 N 11.8248 0.280983 1.55075 0
M  V30 117 C 12.7348 -0.61388 2.26426 0
M  V30 118 C 13.7508 -1.16521 1.29224 0
M  V30 119 O 14.9268 -1.19426 1.62171 0
M  V30 120 C 11.9918 -1.7788 2.9759 0
M  V30 121 C 11.0528 -1.26355 4.10284 0
M  V30 122 C 10.2858 -2.37295 4.78045 0
M  V30 123 O 10.5088 -3.56777 4.45047 0
M  V30 124 O 9.4428 -2.05119 5.65871 0
M  V30 125 H 13.2688 -0.0356932 3.03679 0
M  V30 126 H 10.8538 0.0481686 1.49322 0
M  V30 127 H 12.7358 -2.45791 3.42293 0
M  V30 128 H 11.4108 -2.34397 2.23249 0
M  V30 129 H 10.3178 -0.550735 3.70024 0
M  V30 130 H 11.6508 -0.744065 4.86543 0
M  V30 131 N 13.3029 -1.57598 0.00835791 0
M  V30 132 C 14.2659 -2.07884 -0.965242 0
M  V30 133 C 15.2659 -0.989825 -1.26725 0
M  V30 134 O 16.4559 -1.25218 -1.21104 0
M  V30 135 C 13.5879 -2.52731 -2.28779 0
M  V30 136 H 14.7809 -2.95178 -0.530112 0
M  V30 137 H 12.3339 -1.54458 -0.239283 0
M  V30 138 H 13.0689 -1.68705 -2.76964 0
M  V30 139 H 12.8539 -3.32272 -2.08177 0
M  V30 140 H 14.3439 -2.91933 -2.98605 0
M  V30 141 N 14.781 0.264519 -1.55364 0
M  V30 142 C 16.197 0.61215 -1.47394 0
M  V30 143 C 16.397 1.89134 -0.695018 0
M  V30 144 O 15.453 2.51563 -0.217275 0
M  V30 145 C 16.766 0.731235 -2.91674 0
M  V30 146 C 18.314 0.82473 -3.01939 0
M  V30 147 C 18.789 0.975522 -4.4749 0
M  V30 148 N 20.28 1.04083 -4.51354 0
M  V30 149 C 21.015 1.17646 -5.61201 0
M  V30 150 N 20.511 1.27874 -6.80896 0
M  V30 151 N 22.304 1.20823 -5.48961 0
M  V30 152 H 14.455 -0.575456 -2.04456 0
M  V30 153 H 16.718 -0.196099 -0.927496 0
M  V30 154 H 16.424 -0.138392 -3.51428 0
M  V30 155 H 16.298 1.60883 -3.41169 0
M  V30 156 H 18.685 1.68482 -2.42276 0
M  V30 157 H 18.766 -0.0776479 -2.55682 0
M  V30 158 H 18.41 0.120058 -5.07758 0
M  V30 159 H 18.34 1.89268 -4.91412 0
M  V30 160 H 20.831 0.973846 -3.65136 0
M  V30 161 H 21.144 1.38081 -7.60364 0
M  V30 162 H 19.489 1.24863 -6.83692 0
M  V30 163 H 22.68 1.12469 -4.54388 0
M  V30 164 H 22.853 1.31049 -6.3461 0
M  V30 165 N 16.2591 1.48442 0.529413 0
M  V30 166 C 17.6751 1.34575 0.858004 0
M  V30 167 C 17.8751 0.3572 1.98309 0
M  V30 168 O 16.9311 -0.221379 2.51528 0
M  V30 169 C 18.2441 2.74617 1.22499 0
M  V30 170 C 19.7921 2.83109 1.33484 0
M  V30 171 C 20.2671 4.23854 1.73526 0
M  V30 172 N 21.7581 4.2653 1.80628 0
M  V30 173 C 22.4931 5.32372 2.12997 0
M  V30 174 N 21.9891 6.48491 2.43786 0
M  V30 175 N 23.7821 5.19766 2.14008 0
M  V30 176 H 15.9331 2.1133 -0.212925 0
M  V30 177 H 18.1961 0.947439 -0.0326199 0
M  V30 178 H 17.9021 3.4852 0.471905 0
M  V30 179 H 17.7761 3.08177 2.17501 0
M  V30 180 H 20.1631 2.09462 2.0787 0
M  V30 181 H 20.2441 2.53168 0.366027 0
M  V30 182 H 19.8881 4.98018 0.997013 0
M  V30 183 H 19.8181 4.5124 2.71459 0
M  V30 184 H 22.3091 3.42772 1.59108 0
M  V30 185 H 22.6221 7.24993 2.67592 0
M  V30 186 H 20.9671 6.51765 2.41304 0
M  V30 187 H 24.1581 4.28066 1.89412 0
M  V30 188 H 24.3311 6.02354 2.38902 0
M  V30 189 N 17.7372 -0.778329 1.37039 0
M  V30 190 C 19.1482 -1.35421 1.28523 0
M  V30 191 C 19.4992 -1.96075 -0.0700901 0
M  V30 192 O 18.6242 -1.93352 -0.971801 0
M  V30 193 C 19.2192 -2.46211 2.32735 0
M  V30 194 C 17.7782 -2.99585 2.27873 0
M  V30 195 C 16.9252 -1.72748 2.16918 0
M  V30 196 H 19.8762 -0.5791 1.47757 0
M  V30 197 H 19.8972 -3.2552 1.9702 0
M  V30 198 H 19.4092 -2.02036 3.31365 0
M  V30 199 H 17.5102 -3.48152 1.32745 0
M  V30 200 H 17.6232 -3.55646 3.21018 0
M  V30 201 H 15.9872 -1.95416 1.63354 0
M  V30 202 H 16.7702 -1.30686 3.17452 0
M  V30 203 N 19.2153 -1.21501 -1.00376 0
M  V30 204 C 20.1783 -0.976927 -2.07337 0
M  V30 205 C 21.1783 0.0525322 -1.60714 0
M  V30 206 O 22.3683 -0.184869 -1.73216 0
M  V30 207 C 19.5003 -0.473423 -3.37597 0
M  V30 208 H 20.6933 -1.92587 -2.29892 0
M  V30 209 H 18.2463 -1.03217 -1.17371 0
M  V30 210 H 18.9813 0.480379 -3.20722 0
M  V30 211 H 18.7663 -1.216 -3.72768 0
M  V30 212 H 20.2563 -0.32675 -4.1632 0
M  V30 213 N 20.6934 1.19889 -1.02296 0
M  V30 214 C 21.9184 1.9393 -0.735237 0
M  V30 215 C 22.3434 1.74639 0.698782 0
M  V30 216 O 21.7014 1.04481 1.48167 0
M  V30 217 C 21.7494 3.43916 -1.08417 0
M  V30 218 O 20.8534 4.11917 -0.199446 0
M  V30 219 H 20.1944 0.605645 -0.272196 0
M  V30 220 H 22.7244 1.52137 -1.36804 0
M  V30 221 H 22.7344 3.9456 -1.03856 0
M  V30 222 H 21.4094 3.5728 -2.12894 0
M  V30 223 H 19.9864 3.71666 -0.303136 0
M  V30 224 N 22.1715 0.800033 1.35784 0
M  V30 225 C 23.4485 0.30088 1.93272 0
M  V30 226 C 23.8285 -1.20857 1.73081 0
M  V30 227 O 23.1765 -2.00502 1.09596 0
M  V30 228 C 23.3865 0.70511 3.41803 0
M  V30 229 C 24.7345 0.690871 4.18942 0
M  V30 230 O 25.7585 0.646244 3.50289 0
M  V30 231 O 24.6175 0.74332 5.41421 0
M  V30 232 H 21.7115 0.0771605 0.823393 0
M  V30 233 H 24.2575 0.88329 1.449 0
M  V30 234 H 23.0295 1.74571 3.50201 0
M  V30 235 H 22.6525 0.0971541 3.97481 0
M  V30 236 N 23.6496 -1.47581 0.552962 0
M  V30 237 C 24.8986 -2.01684 0.0251995 0
M  V30 238 C 25.2116 -1.43317 -1.33115 0
M  V30 239 O 26.4176 -1.89057 -1.94858 0
M  V30 240 C 24.8736 -3.599 -0.00542052 0
M  V30 241 C 24.4816 -4.27257 1.34742 0
M  V30 242 C 26.2256 -4.21768 -0.4808 0
M  V30 243 C 24.1326 -5.77467 1.27614 0
M  V30 244 H 23.0626 -0.753979 0.00565033 0
M  V30 245 H 25.7136 -1.69616 0.70018 0
M  V30 246 H 24.0956 -3.88911 -0.745961 0
M  V30 247 H 25.2696 -4.09893 2.10534 0
M  V30 248 H 23.5846 -3.77358 1.76039 0
M  V30 249 H 26.1816 -5.31838 -0.55246 0
M  V30 250 H 26.5246 -3.88651 -1.49184 0
M  V30 251 H 27.0576 -3.97273 0.204752 0
M  V30 252 H 23.7966 -6.15196 2.26304 0
M  V30 253 H 23.3166 -5.9718 0.55996 0
M  V30 254 H 24.9956 -6.3959 0.976421 0
M  V30 255 N 25.1277 -0.289203 -1.54924 0
M  V30 256 C 26.5437 0.0645403 -1.59469 0
M  V30 257 C 26.7437 1.53419 -1.30632 0
M  V30 258 O 25.7997 2.2852 -1.074 0
M  V30 259 C 27.1127 -0.32278 -2.98963 0
M  V30 260 C 28.6607 -0.270564 -3.11828 0
M  V30 261 C 29.1357 -0.632532 -4.53611 0
M  V30 262 N 30.6267 -0.584617 -4.59496 0
M  V30 263 C 31.3617 -0.837314 -5.67254 0
M  V30 264 N 30.8577 -1.15536 -6.83098 0
M  V30 265 N 32.6507 -0.765166 -5.56868 0
M  V30 266 H 24.8017 -1.24714 -1.71931 0
M  V30 267 H 27.0647 -0.504809 -0.802416 0
M  V30 268 H 26.7707 -1.34541 -3.24948 0
M  V30 269 H 26.6447 0.32944 -3.75759 0
M  V30 270 H 29.0317 0.742805 -2.85598 0
M  V30 271 H 29.1127 -0.957242 -2.37214 0
M  V30 272 H 28.7567 -1.64365 -4.80569 0
M  V30 273 H 28.6867 0.07609 -5.26545 0
M  V30 274 H 31.1777 -0.349248 -3.76283 0
M  V30 275 H 31.4907 -1.33447 -7.61191 0
M  V30 276 H 29.8357 -1.19328 -6.84679 0
M  V30 277 H 33.0267 -0.516432 -4.65243 0
M  V30 278 H 33.1997 -0.965477 -6.40767 0
M  V30 279 N 26.6058 1.57591 -0.0167156 0
M  V30 280 C 27.8518 1.91567 0.665582 0
M  V30 281 C 28.1848 0.892298 1.72487 0
M  V30 282 O 27.4598 -0.0867127 1.94307 0
M  V30 283 C 27.7428 3.36069 1.29342 0
M  V30 284 C 27.5958 4.49135 0.244541 0
M  V30 285 C 28.9148 3.803 2.21495 0
M  V30 286 H 26.0338 0.69666 0.240488 0
M  V30 287 H 28.6758 1.89866 -0.0714356 0
M  V30 288 H 26.8258 3.3765 1.92158 0
M  V30 289 H 28.4978 4.59689 -0.385228 0
M  V30 290 H 26.7408 4.3165 -0.431379 0
M  V30 291 H 27.4118 5.47242 0.723207 0
M  V30 292 H 29.8878 3.80377 1.68678 0
M  V30 293 H 28.7638 4.82127 2.62382 0
M  V30 294 H 29.0248 3.15104 3.101 0
M  V30 295 N 28.0839 -0.256276 1.55502 0
M  V30 296 C 29.3309 -0.985619 1.76895 0
M  V30 297 C 29.6589 -1.85671 0.579355 0
M  V30 298 O 28.9139 -1.90744 -0.437651 0
M  V30 299 C 29.2129 -1.88432 3.03691 0
M  V30 300 C 28.8789 -1.16936 4.35473 0
M  V30 301 C 27.5409 -0.97173 4.71286 0
M  V30 302 C 29.8929 -0.661889 5.1698 0
M  V30 303 C 27.2209 -0.254179 5.86149 0
M  V30 304 C 29.5729 0.042149 6.32586 0
M  V30 305 C 28.2369 0.25134 6.67027 0
M  V30 306 H 27.5069 -0.360663 0.647304 0
M  V30 307 H 30.1539 -0.256483 1.89775 0
M  V30 308 H 28.4589 -2.68021 2.85783 0
M  V30 309 H 30.1559 -2.45015 3.1744 0
M  V30 310 H 26.7459 -1.33332 4.07333 0
M  V30 311 H 30.9299 -0.802145 4.89775 0
M  V30 312 H 26.1859 -0.0815408 6.11346 0
M  V30 313 H 30.3599 0.443049 6.94989 0
M  V30 314 H 27.9869 0.809314 7.5588 0
M  V30 315 N 29.562 -1.4872 -0.521534 0
M  V30 316 C 30.525 -1.63379 -1.60748 0
M  V30 317 C 31.525 -0.50661 -1.52611 0
M  V30 318 O 32.715 -0.772601 -1.5613 0
M  V30 319 C 29.847 -1.61192 -3.00383 0
M  V30 320 H 31.04 -2.60217 -1.49087 0
M  V30 321 H 28.593 -1.37444 -0.744235 0
M  V30 322 H 29.328 -0.65863 -3.17541 0
M  V30 323 H 29.113 -2.43032 -3.07698 0
M  V30 324 H 30.603 -1.7466 -3.7932 0
M  V30 325 N 31.0401 0.771051 -1.3745 0
M  V30 326 C 32.2651 1.56529 -1.36065 0
M  V30 327 C 32.6901 1.88029 0.0515859 0
M  V30 328 O 32.0481 1.49282 1.02882 0
M  V30 329 C 32.0961 2.85187 -2.20683 0
M  V30 330 O 31.2001 3.79593 -1.61193 0
M  V30 331 H 30.5411 0.47411 -0.464883 0
M  V30 332 H 33.0711 0.954269 -1.80983 0
M  V30 333 H 33.0811 3.34283 -2.33921 0
M  V30 334 H 31.7561 2.61588 -3.23334 0
M  V30 335 H 30.3331 3.38239 -1.56999 0
M  V30 336 N 32.5182 1.22032 0.997298 0
M  V30 337 C 33.4662 0.983634 2.10778 0
M  V30 338 C 34.4602 -0.0717564 1.69248 0
M  V30 339 O 35.6662 0.080304 1.79821 0
M  V30 340 H 32.0412 0.300877 0.689186 0
M  V30 341 H 34.0122 1.92606 2.27916 0
M  V30 342 C 32.7612 0.57326 3.42942 0
M  V30 343 H 32.0842 1.37702 3.75338 0
M  V30 344 H 33.5242 0.447031 4.21637 0
M  V30 345 C 31.9832 -0.7167 3.29188 0
M  V30 346 O 32.5132 -1.77027 3.60589 0
M  V30 347 N 30.7192 -0.686167 2.82383 0
M  V30 348 H 30.2662 0.171507 2.57028 0
M  V30 349 H 30.2242 -1.54955 2.73562 0
M  V30 350 N 33.9963 -1.19345 1.0293 0
M  V30 351 C 35.2363 -1.90738 0.734727 0
M  V30 352 C 35.6003 -1.7785 -0.723414 0
M  V30 353 O 36.8013 -2.43844 -1.13108 0
M  V30 354 C 35.0723 -3.37569 1.17396 0
M  V30 355 S 36.6313 -4.27176 1.00329 0
M  V30 356 H 33.4493 -0.658771 0.267474 0
M  V30 357 H 36.0513 -1.4428 1.31922 0
M  V30 358 H 34.7553 -3.44475 2.23081 0
M  V30 359 H 34.2863 -3.8906 0.582772 0
M  V30 360 H 36.3013 -4.96126 -0.0859152 0
M  V30 361 N 35.4744 -0.807222 -1.35358 0
M  V30 362 C 36.6994 -0.399309 -2.0352 0
M  V30 363 C 37.1244 0.981986 -1.60433 0
M  V30 364 O 36.4824 1.63601 -0.781299 0
M  V30 365 C 36.5304 -0.491552 -3.57234 0
M  V30 366 O 35.6344 0.494754 -4.09421 0
M  V30 367 H 34.9754 -0.166682 -0.642739 0
M  V30 368 H 37.5054 -1.09328 -1.72941 0
M  V30 369 H 37.5154 -0.361588 -4.06395 0
M  V30 370 H 36.1904 -1.49907 -3.87944 0
M  V30 371 H 34.7674 0.324977 -3.71481 0
M  V30 372 N 36.9525 1.47285 -0.560781 0
M  V30 373 C 37.8855 2.27009 0.232821 0
M  V30 374 C 38.8635 1.34273 0.917039 0
M  V30 375 O 40.0475 1.63659 0.935315 0
M  V30 376 C 37.1745 3.11406 1.33206 0
M  V30 377 C 36.2205 4.19746 0.756019 0
M  V30 378 S 37.0535 5.34003 -0.400165 0
M  V30 379 C 38.2095 6.21964 0.700805 0
M  V30 380 H 38.4425 2.93971 -0.443683 0
M  V30 381 H 35.9755 1.50446 -0.347181 0
M  V30 382 H 37.9335 3.60601 1.96156 0
M  V30 383 H 36.5945 2.438 1.98041 0
M  V30 384 H 35.7875 4.78541 1.5816 0
M  V30 385 H 35.3895 3.73451 0.202619 0
M  V30 386 H 37.6815 6.58529 1.59202 0
M  V30 387 H 38.6245 7.07941 0.150126 0
M  V30 388 H 39.0325 5.5566 0.995083 0
M  V30 389 N 38.4306 0.297415 1.54768 0
M  V30 390 C 39.3806 -0.595275 2.20092 0
M  V30 391 C 40.3646 -1.10163 1.17273 0
M  V30 392 O 41.5566 -1.043 1.43006 0
M  V30 393 C 38.6856 -1.7684 2.94249 0
M  V30 394 C 37.7716 -1.27818 4.0438 0
M  V30 395 N 38.1626 -0.505695 5.03266 0
M  V30 396 C 36.4606 -1.55923 4.17857 0
M  V30 397 C 37.1616 -0.245094 5.81183 0
M  V30 398 N 36.1376 -0.823881 5.3732 0
M  V30 399 H 39.9396 0.00250837 2.939 0
M  V30 400 H 37.4536 0.102007 1.62079 0
M  V30 401 H 39.4506 -2.41944 3.39513 0
M  V30 402 H 38.1106 -2.36992 2.21957 0
M  V30 403 H 39.1216 -0.150928 5.1768 0
M  V30 404 H 35.7986 -2.16849 3.56767 0
M  V30 405 H 37.1886 0.375084 6.70852 0
M  V30 406 N 39.9087 -1.5758 0.0250728 0
M  V30 407 C 41.1567 -1.91255 -0.653151 0
M  V30 408 C 41.4777 -0.901691 -1.729 0
M  V30 409 O 40.7477 0.0573785 -1.95816 0
M  V30 410 H 39.3277 -0.705942 -0.244243 0
M  V30 411 H 41.9897 -1.94767 0.0719209 0
M  V30 412 H 41.0857 -2.91752 -1.10847 0
M  V30 413 N 41.3868 0.248026 -1.55636 0
M  V30 414 C 42.3168 1.31079 -1.93237 0
M  V30 415 C 43.2978 1.50264 -0.797174 0
M  V30 416 O 44.4828 1.62891 -1.05737 0
M  V30 417 C 41.6128 2.66575 -2.22609 0
M  V30 418 C 40.5668 2.62087 -3.3837 0
M  V30 419 C 39.8928 4.01369 -3.53281 0
M  V30 420 C 41.1928 2.19171 -4.7409 0
M  V30 421 H 42.8868 0.998556 -2.82257 0
M  V30 422 H 40.4328 0.47891 -1.35803 0
M  V30 423 H 42.3858 3.41057 -2.47503 0
M  V30 424 H 41.1098 2.99432 -1.30414 0
M  V30 425 H 39.7688 1.90063 -3.13483 0
M  V30 426 H 39.4168 4.31489 -2.58508 0
M  V30 427 H 39.1168 3.99254 -4.31127 0
M  V30 428 H 40.6408 4.77552 -3.80495 0
M  V30 429 H 42.0548 2.83384 -4.98363 0
M  V30 430 H 40.4518 2.2817 -5.5503 0
M  V30 431 H 41.5218 1.14336 -4.71227 0
M  V30 432 N 42.8649 1.48995 0.513639 0
M  V30 433 C 44.1129 1.57531 1.26604 0
M  V30 434 C 44.4339 0.258236 1.93283 0
M  V30 435 O 43.7039 -0.721502 1.8213 0
M  V30 436 H 42.2839 0.580387 0.470276 0
M  V30 437 H 44.9459 1.85552 0.596373 0
M  V30 438 H 44.0419 2.36486 2.03669 0
M  V30 439 N 44.343 -0.763751 1.37857 0
M  V30 440 C 45.293 -1.86765 1.30777 0
M  V30 441 C 46.277 -1.59726 0.194015 0
M  V30 442 O 47.469 -1.7172 0.42911 0
M  V30 443 C 44.598 -3.24343 1.12502 0
M  V30 444 C 43.684 -3.57307 2.28456 0
M  V30 445 N 44.075 -3.61398 3.53871 0
M  V30 446 C 42.373 -3.87517 2.20786 0
M  V30 447 C 43.074 -3.91339 4.30382 0
M  V30 448 N 42.05 -4.07649 3.59615 0
M  V30 449 H 45.852 -1.88191 2.25746 0
M  V30 450 H 43.366 -0.9606 1.30944 0
M  V30 451 H 45.363 -4.03327 1.05514 0
M  V30 452 H 44.023 -3.24175 0.184574 0
M  V30 453 H 45.034 -3.43407 3.87675 0
M  V30 454 H 41.711 -3.95125 1.34844 0
M  V30 455 H 43.101 -4.01213 5.3896 0
M  V30 456 N 45.8211 -1.22559 -0.990812 0
M  V30 457 C 47.0671 -1.05297 -1.73322 0
M  V30 458 C 47.4001 0.410655 -1.89808 0
M  V30 459 O 46.6751 1.30439 -1.44277 0
M  V30 460 C 46.9581 -1.76713 -3.13759 0
M  V30 461 C 46.8111 -3.30684 -3.04907 0
M  V30 462 C 48.1301 -1.52121 -4.12974 0
M  V30 463 H 45.2491 -0.38392 -0.629106 0
M  V30 464 H 47.8911 -1.50926 -1.15418 0
M  V30 465 H 46.0411 -1.37924 -3.63193 0
M  V30 466 H 47.7131 -3.7893 -2.63077 0
M  V30 467 H 45.9561 -3.60253 -2.41661 0
M  V30 468 H 46.6271 -3.75833 -4.04294 0
M  V30 469 H 49.1031 -1.85819 -3.72304 0
M  V30 470 H 47.9791 -2.04582 -5.0935 0
M  V30 471 H 48.2401 -0.454257 -4.3976 0
M  V30 472 N 47.2992 1.18797 -1.03562 0
M  V30 473 C 48.5462 1.8865 -0.736023 0
M  V30 474 C 48.8742 1.80041 0.735889 0
M  V30 475 O 48.1292 1.19179 1.55225 0
M  V30 476 C 48.4282 3.38692 -1.14117 0
M  V30 477 C 48.0942 3.67504 -2.6125 0
M  V30 478 C 46.7562 3.75078 -3.01447 0
M  V30 479 C 49.1082 3.80293 -3.56408 0
M  V30 480 C 46.4362 3.92915 -4.35701 0
M  V30 481 C 48.7882 3.99645 -4.90374 0
M  V30 482 C 47.4522 4.05453 -5.30249 0
M  V30 483 H 46.7222 0.690321 -0.26933 0
M  V30 484 H 49.3692 1.40641 -1.29971 0
M  V30 485 H 47.6742 3.88645 -0.496202 0
M  V30 486 H 49.3712 3.91072 -0.886789 0
M  V30 487 H 45.9612 3.62223 -2.29113 0
M  V30 488 H 50.1452 3.73779 -3.26501 0
M  V30 489 H 45.4012 3.95653 -4.66121 0
M  V30 490 H 49.5752 4.08482 -5.64017 0
M  V30 491 H 47.2022 4.19027 -6.34288 0
M  V30 492 N 48.7773 0.814389 1.34928 0
M  V30 493 C 50.0253 0.397636 1.9815 0
M  V30 494 C 50.3463 -1.04069 1.64908 0
M  V30 495 O 49.6163 -1.72121 0.93548 0
M  V30 496 H 48.1963 0.144043 0.732981 0
M  V30 497 H 50.8583 1.04195 1.6471 0
M  V30 498 H 49.9543 0.509688 3.0791 0
M  V30 499 N 50.2554 -1.46986 0.568584 0
M  V30 500 C 51.6664 -1.86188 0.138219 0
M  V30 501 C 52.0174 -1.47388 -1.29504 0
M  V30 502 O 51.1424 -0.88219 -1.97602 0
M  V30 503 C 51.7374 -3.3792 0.244065 0
M  V30 504 C 50.2964 -3.76171 -0.131335 0
M  V30 505 C 49.4434 -2.71027 0.586465 0
M  V30 506 H 52.3944 -1.38342 0.777645 0
M  V30 507 H 52.4154 -3.76729 -0.534351 0
M  V30 508 H 51.9274 -3.66128 1.28731 0
M  V30 509 H 50.0284 -3.5358 -1.17526 0
M  V30 510 H 50.1414 -4.78523 0.235146 0
M  V30 511 H 48.5054 -2.54684 0.0282722 0
M  V30 512 H 49.2884 -3.02077 1.63109 0
M  V30 513 N 51.7335 -0.305618 -1.54608 0
M  V30 514 C 52.9815 0.301701 -1.99835 0
M  V30 515 C 53.3025 1.54054 -1.19551 0
M  V30 516 O 52.5725 1.93702 -0.292658 0
M  V30 517 H 51.1525 0.114468 -0.738178 0
M  V30 518 H 53.8145 -0.418016 -1.90364 0
M  V30 519 H 52.9105 0.570548 -3.06841 0
M  V30 520 N 53.2116 1.57565 -0.0334293 0
M  V30 521 C 54.4366 1.96689 0.657895 0
M  V30 522 C 54.8616 0.910057 1.64619 0
M  V30 523 O 54.2196 -0.128598 1.80843 0
M  V30 524 C 54.2676 3.34905 1.33683 0
M  V30 525 O 53.3716 3.31574 2.45219 0
M  V30 526 H 52.7126 0.641205 0.172489 0
M  V30 527 H 55.2426 2.04372 -0.0965621 0
M  V30 528 H 55.2526 3.71234 1.69262 0
M  V30 529 H 53.9276 4.11366 0.612411 0
M  V30 530 H 52.5046 3.06968 2.11719 0
M  V30 531 N 54.6897 -0.239769 1.55765 0
M  V30 532 C 55.6197 -1.30052 1.9393 0
M  V30 533 C 56.6007 -1.49839 0.805132 0
M  V30 534 O 57.7857 -1.62328 1.06599 0
M  V30 535 C 54.9157 -2.65391 2.2402 0
M  V30 536 C 53.8697 -2.60289 3.39755 0
M  V30 537 C 53.1957 -3.99489 3.55405 0
M  V30 538 C 54.4957 -2.16654 4.75246 0
M  V30 539 H 56.1897 -0.983573 2.82783 0
M  V30 540 H 53.7357 -0.471701 1.36055 0
M  V30 541 H 55.6887 -3.3974 2.49308 0
M  V30 542 H 54.4127 -2.98736 1.32 0
M  V30 543 H 53.0717 -1.88398 3.14487 0
M  V30 544 H 52.7197 -4.30112 2.60793 0
M  V30 545 H 52.4197 -3.96962 4.33238 0
M  V30 546 H 53.9437 -4.75528 3.83022 0
M  V30 547 H 55.3577 -2.80737 4.99859 0
M  V30 548 H 53.7547 -2.25223 5.56232 0
M  V30 549 H 54.8247 -1.11835 4.71827 0
M  V30 550 N 56.1678 -1.49265 -0.50573 0
M  V30 551 C 57.3928 -1.62478 -1.28902 0
M  V30 552 C 57.8178 -0.294332 -1.85783 0
M  V30 553 O 57.1758 0.737412 -1.65626 0
M  V30 554 C 57.2238 -2.69268 -2.39848 0
M  V30 555 O 56.3278 -2.28113 -3.43567 0
M  V30 556 H 55.6688 -0.54399 -0.380751 0
M  V30 557 H 58.1988 -1.95421 -0.605952 0
M  V30 558 H 58.2088 -2.91291 -2.85681 0
M  V30 559 H 56.8838 -3.65846 -1.97812 0
M  V30 560 H 55.4608 -2.16401 -3.03685 0
M  V30 561 N 57.6459 0.756429 -1.3826 0
M  V30 562 C 58.5759 1.88374 -1.37976 0
M  V30 563 C 59.5569 1.68311 -0.246082 0
M  V30 564 O 60.7419 1.88944 -0.44874 0
M  V30 565 C 57.8719 3.25864 -1.20125 0
M  V30 566 C 56.8259 3.60523 -2.30666 0
M  V30 567 C 56.1519 4.9672 -1.97923 0
M  V30 568 C 57.4519 3.65692 -3.72916 0
M  V30 569 H 59.1459 1.88869 -2.32312 0
M  V30 570 H 56.6919 0.907272 -1.11824 0
M  V30 571 H 58.6449 4.0438 -1.18552 0
M  V30 572 H 57.3689 3.25841 -0.222498 0
M  V30 573 H 56.0279 2.84324 -2.3142 0
M  V30 574 H 55.6759 4.93253 -0.985393 0
M  V30 575 H 55.3759 5.20878 -2.71955 0
M  V30 576 H 56.8999 5.77618 -1.97964 0
M  V30 577 H 58.3139 4.34328 -3.74208 0
M  V30 578 H 56.7109 4.01358 -4.4613 0
M  V30 579 H 57.7809 2.65987 -4.05436 0
M  V30 580 N 59.124 1.23083 0.984299 0
M  V30 581 C 60.54 0.992637 1.24975 0
M  V30 582 C 60.74 -0.308618 1.99123 0
M  V30 583 O 59.796 -1.02905 2.30579 0
M  V30 584 C 61.109 2.19698 2.05312 0
M  V30 585 C 62.657 2.24147 2.18465 0
M  V30 586 C 63.132 3.44157 3.02192 0
M  V30 587 N 64.623 3.44372 3.09777 0
M  V30 588 C 65.358 4.33886 3.74874 0
M  V30 589 N 64.854 5.3363 4.41827 0
M  V30 590 N 66.647 4.21639 3.71721 0
M  V30 591 H 58.798 2.06731 0.487453 0
M  V30 592 H 61.061 0.906339 0.277944 0
M  V30 593 H 60.767 3.1411 1.58201 0
M  V30 594 H 60.641 2.20465 3.06064 0
M  V30 595 H 63.028 1.30277 2.64786 0
M  V30 596 H 63.109 2.27415 1.17115 0
M  V30 597 H 62.753 4.38332 2.56568 0
M  V30 598 H 62.683 3.3813 4.03702 0
M  V30 599 H 65.174 2.72201 2.62135 0
M  V30 600 H 65.487 5.98196 4.89266 0
M  V30 601 H 63.832 5.37534 4.40548 0
M  V30 602 H 67.023 3.42962 3.18582 0
M  V30 603 H 67.196 4.91604 4.22173 0
M  V30 604 N 60.6021 -1.18246 1.0419 0
M  V30 605 C 62.0181 -1.40269 0.761366 0
M  V30 606 C 62.2181 -1.90777 -0.648578 0
M  V30 607 O 61.2741 -2.0929 -1.41258 0
M  V30 608 C 62.5871 -2.40237 1.8085 0
M  V30 609 C 64.1351 -2.53961 1.82955 0
M  V30 610 C 64.6101 -3.57194 2.86664 0
M  V30 611 N 66.1011 -3.64702 2.85563 0
M  V30 612 C 66.8361 -4.44309 3.6246 0
M  V30 613 N 66.3321 -5.27514 4.49111 0
M  V30 614 N 68.1251 -4.39084 3.50944 0
M  V30 615 H 60.2761 -0.837882 1.95175 0
M  V30 616 H 62.5391 -0.430608 0.84456 0
M  V30 617 H 62.2451 -2.10176 2.81991 0
M  V30 618 H 62.1191 -3.39601 1.64168 0
M  V30 619 H 64.5061 -2.83338 0.824855 0
M  V30 620 H 64.5871 -1.54706 2.03715 0
M  V30 621 H 64.2311 -3.28558 3.87314 0
M  V30 622 H 64.1611 -4.5613 2.6316 0
M  V30 623 H 66.6521 -3.05289 2.22727 0
M  V30 624 H 66.9651 -5.85411 5.04493 0
M  V30 625 H 65.3101 -5.2693 4.53178 0
M  V30 626 H 68.5011 -3.7313 2.82651 0
M  V30 627 H 68.6741 -5.00883 4.11121 0
M  V30 628 N 62.0802 -0.821533 -1.34494 0
M  V30 629 C 63.3282 -0.408139 -1.97936 0
M  V30 630 C 63.6492 1.03193 -1.65457 0
M  V30 631 O 62.9192 1.71622 -0.944595 0
M  V30 632 H 61.4992 -0.147928 -0.732206 0
M  V30 633 H 64.1612 -1.05067 -1.64155 0
M  V30 634 H 63.2572 -0.52601 -3.07635 0
M  V30 635 N 63.5583 1.46682 -0.576371 0
M  V30 636 C 64.4913 2.27243 0.208731 0
M  V30 637 C 65.4693 1.35238 0.902746 0
M  V30 638 O 66.6533 1.64641 0.917904 0
M  V30 639 C 63.7803 3.12802 1.29896 0
M  V30 640 C 62.8263 4.20524 0.711457 0
M  V30 641 S 63.6593 5.33548 -0.456781 0
M  V30 642 C 64.8153 6.22673 0.634798 0
M  V30 643 H 65.0483 2.93484 -0.474838 0
M  V30 644 H 62.5813 1.50069 -0.363118 0
M  V30 645 H 64.5393 3.62661 1.92321 0
M  V30 646 H 63.2003 2.45887 1.95444 0
M  V30 647 H 62.3933 4.80191 1.53076 0
M  V30 648 H 61.9953 3.73645 0.162999 0
M  V30 649 H 64.2873 6.60181 1.52209 0
M  V30 650 H 65.2303 7.0806 0.0750311 0
M  V30 651 H 65.6383 5.56684 0.936092 0
M  V30 652 N 65.0364 0.313813 1.54444 0
M  V30 653 C 66.2824 -0.284918 2.01395 0
M  V30 654 C 66.6374 -1.50537 1.19818 0
M  V30 655 O 65.9304 -1.89692 0.269748 0
M  V30 656 C 66.1244 -0.680386 3.50864 0
M  V30 657 C 65.9534 0.500198 4.4691 0
M  V30 658 C 64.7234 0.996248 4.95382 0
M  V30 659 C 66.9214 1.34928 4.96285 0
M  V30 660 N 64.9034 2.14226 5.75309 0
M  V30 661 C 66.2744 2.3426 5.7404 0
M  V30 662 C 68.3294 1.37818 4.78446 0
M  V30 663 C 67.0324 3.36272 6.35856 0
M  V30 664 C 69.0584 2.38695 5.4109 0
M  V30 665 C 68.4204 3.36755 6.18688 0
M  V30 666 H 64.5194 -0.0683689 0.779006 0
M  V30 667 H 67.1034 0.44664 1.89508 0
M  V30 668 H 65.2744 -1.38109 3.63016 0
M  V30 669 H 67.0064 -1.25975 3.84594 0
M  V30 670 H 63.7614 0.56912 4.70168 0
M  V30 671 H 64.1854 2.72005 6.19953 0
M  V30 672 H 68.8274 0.633747 4.18023 0
M  V30 673 H 66.5454 4.11627 6.95405 0
M  V30 674 H 70.1314 2.41721 5.29209 0
M  V30 675 H 69.0114 4.13535 6.66302 0
M  V30 676 N 66.5145 -1.57545 0.0417849 0
M  V30 677 C 67.4775 -2.09885 -0.92093 0
M  V30 678 C 68.4775 -1.01648 -1.24596 0
M  V30 679 O 69.6675 -1.27759 -1.1842 0
M  V30 680 C 66.7995 -2.57527 -2.23367 0
M  V30 681 H 67.9925 -2.96236 -0.467382 0
M  V30 682 H 65.5455 -1.5493 -0.206467 0
M  V30 683 H 66.2805 -1.74542 -2.73323 0
M  V30 684 H 66.0655 -3.36613 -2.01083 0
M  V30 685 H 67.5555 -2.98201 -2.92346 0
M  V30 686 N 67.9926 0.231505 -1.5589 0
M  V30 687 C 68.9556 1.27028 -1.90779 0
M  V30 688 C 69.9556 1.40308 -0.785507 0
M  V30 689 O 71.1456 1.38744 -1.05336 0
M  V30 690 C 68.2776 2.64566 -2.14983 0
M  V30 691 H 69.4706 0.973017 -2.83677 0
M  V30 692 H 67.0236 0.471486 -1.49019 0
M  V30 693 H 67.7586 2.99406 -1.24604 0
M  V30 694 H 67.5436 2.56305 -2.96732 0
M  V30 695 H 69.0336 3.39543 -2.43105 0
M  V30 696 N 69.4707 1.49531 0.497807 0
M  V30 697 C 70.4337 1.65916 1.58128 0
M  V30 698 C 71.4337 0.530825 1.51786 0
M  V30 699 O 72.6237 0.797342 1.54881 0
M  V30 700 C 69.7557 1.65951 2.9778 0
M  V30 701 H 70.9487 2.62556 1.44929 0
M  V30 702 H 68.5017 1.38611 0.722275 0
M  V30 703 H 69.2367 0.709065 3.16453 0
M  V30 704 H 69.0217 2.47897 3.03792 0
M  V30 705 H 70.5117 1.80673 3.76493 0
M  V30 706 N 70.9488 -0.749086 1.3866 0
M  V30 707 C 72.1948 -1.51056 1.35314 0
M  V30 708 C 72.5278 -1.94121 -0.0553751 0
M  V30 709 O 71.8028 -1.65763 -1.01749 0
M  V30 710 C 72.0858 -2.76003 2.31288 0
M  V30 711 C 71.9388 -2.39047 3.8102 0
M  V30 712 C 73.2578 -3.78046 2.2532 0
M  V30 713 H 70.3768 -0.547972 0.492844 0
M  V30 714 H 73.0188 -0.857628 1.69543 0
M  V30 715 H 71.1688 -3.31716 2.02229 0
M  V30 716 H 72.8408 -1.89074 4.20771 0
M  V30 717 H 71.0838 -1.71449 3.98482 0
M  V30 718 H 71.7548 -3.28462 4.4364 0
M  V30 719 H 74.2308 -3.31884 2.50983 0
M  V30 720 H 73.1068 -4.63159 2.94576 0
M  V30 721 H 73.3678 -4.23957 1.25352 0
M  V30 722 N 72.4269 -1.23603 -0.977757 0
M  V30 723 C 73.6729 -1.07129 -1.72195 0
M  V30 724 C 74.0059 0.390501 -1.90233 0
M  V30 725 O 73.2809 1.28902 -1.45653 0
M  V30 726 C 73.5639 -1.80031 -3.11867 0
M  V30 727 C 73.4169 -3.33899 -3.01383 0
M  V30 728 C 74.7359 -1.56492 -4.11337 0
M  V30 729 H 71.8549 -0.390571 -0.624999 0
M  V30 730 H 74.4969 -1.52142 -1.13811 0
M  V30 731 H 72.6469 -1.41768 -3.6171 0
M  V30 732 H 74.3189 -3.81699 -2.59043 0
M  V30 733 H 72.5619 -3.62796 -2.37827 0
M  V30 734 H 73.2329 -3.801 -4.00285 0
M  V30 735 H 75.7089 -1.89757 -3.70313 0
M  V30 736 H 74.5849 -2.09973 -5.07151 0
M  V30 737 H 74.8459 -0.500874 -4.39254 0
M  V30 738 N 73.905 1.17692 -1.04816 0
M  V30 739 C 74.835 2.23777 -0.666791 0
M  V30 740 C 75.816 1.66796 0.33361 0
M  V30 741 O 77.001 1.93039 0.212042 0
M  V30 742 C 74.131 3.47281 -0.0367933 0
M  V30 743 C 73.085 4.17059 -0.961546 0
M  V30 744 C 72.411 5.34342 -0.195626 0
M  V30 745 C 73.711 4.69713 -2.28402 0
M  V30 746 H 75.405 2.55933 -1.55367 0
M  V30 747 H 72.951 1.23019 -0.748484 0
M  V30 748 H 74.904 4.20706 0.241775 0
M  V30 749 H 73.628 3.14381 0.885004 0
M  V30 750 H 72.287 3.45541 -1.22462 0
M  V30 751 H 71.935 4.97692 0.728816 0
M  V30 752 H 71.635 5.81966 -0.811775 0
M  V30 753 H 73.159 6.10553 0.0757473 0
M  V30 754 H 74.573 5.34794 -2.06563 0
M  V30 755 H 72.97 5.279 -2.8538 0
M  V30 756 H 74.04 3.86726 -2.92525 0
M  V30 757 N 75.3831 0.828654 1.34056 0
M  V30 758 C 76.6081 0.431637 2.02859 0
M  V30 759 C 77.0331 -0.956339 1.61975 0
M  V30 760 O 76.3911 -1.62338 0.807228 0
M  V30 761 C 76.4391 0.548323 3.56407 0
M  V30 762 O 75.5431 -0.429556 4.10157 0
M  V30 763 H 74.8841 0.176886 0.640006 0
M  V30 764 H 77.4141 1.12066 1.71179 0
M  V30 765 H 77.4241 0.426196 4.05768 0
M  V30 766 H 76.0991 1.5606 3.8551 0
M  V30 767 H 74.6761 -0.265836 3.71951 0
M  V30 768 N 76.8612 -1.46375 0.584142 0
M  V30 769 C 78.1072 -2.02678 0.0703716 0
M  V30 770 C 78.4402 -1.4545 -1.28678 0
M  V30 771 O 77.7152 -0.62014 -1.84349 0
M  V30 772 C 77.9982 -3.60099 0.00614674 0
M  V30 773 C 77.8512 -4.27709 1.3923 0
M  V30 774 C 79.1702 -4.34598 -0.693742 0
M  V30 775 H 76.2892 -0.736504 0.027047 0
M  V30 776 H 78.9312 -1.74501 0.751615 0
M  V30 777 H 77.0812 -3.84236 -0.574009 0
M  V30 778 H 78.7532 -4.14832 2.01773 0
M  V30 779 H 76.9962 -3.87016 1.95962 0
M  V30 780 H 77.6672 -5.36478 1.29982 0
M  V30 781 H 80.1432 -4.15615 -0.200869 0
M  V30 782 H 79.0192 -5.44318 -0.707714 0
M  V30 783 H 79.2802 -4.05759 -1.75533 0
M  V30 784 N 78.3393 -0.321999 -1.54275 0
M  V30 785 C 79.3023 0.531975 -2.22941 0
M  V30 786 C 80.3023 1.04478 -1.22234 0
M  V30 787 O 81.4923 0.937452 -1.46825 0
M  V30 788 C 78.6243 1.73874 -2.93224 0
M  V30 789 H 79.8173 -0.0682612 -2.99822 0
M  V30 790 H 77.3703 -0.0730644 -1.56129 0
M  V30 791 H 78.1053 2.37825 -2.20476 0
M  V30 792 H 77.8903 1.37847 -3.6707 0
M  V30 793 H 79.3803 2.34496 -3.45545 0
M  V30 794 N 79.8174 1.5752 -0.0501392 0
M  V30 795 C 81.0454 1.96963 0.633492 0
M  V30 796 C 81.4604 0.927631 1.6444 0
M  V30 797 O 80.8174 -0.0882665 1.82286 0
M  V30 798 C 80.8684 3.36487 1.32132 0
M  V30 799 O 80.5894 4.36693 0.350894 0
M  V30 800 C 82.0904 3.90682 2.09481 0
M  V30 801 H 79.3104 0.648244 0.173266 0
M  V30 802 H 81.8544 2.0417 -0.116134 0
M  V30 803 H 80.0094 3.30434 2.02218 0
M  V30 804 H 80.4234 5.17702 0.841735 0
M  V30 805 H 81.8974 4.90591 2.5303 0
M  V30 806 H 82.3744 3.26053 2.94255 0
M  V30 807 H 82.9804 4.00069 1.44307 0
M  V30 808 N 81.2955 -0.223234 1.56011 0
M  V30 809 C 82.5425 -0.947875 1.78946 0
M  V30 810 C 82.8705 -1.844 0.618608 0
M  V30 811 O 82.1255 -1.91629 -0.397093 0
M  V30 812 C 82.4245 -1.81948 3.0762 0
M  V30 813 C 82.0905 -1.07672 4.37856 0
M  V30 814 C 80.7525 -0.871544 4.73242 0
M  V30 815 C 83.1045 -0.552081 5.18268 0
M  V30 816 C 80.4325 -0.129791 5.86556 0
M  V30 817 C 82.7845 0.17632 6.32354 0
M  V30 818 C 81.4485 0.39277 6.66343 0
M  V30 819 H 80.7185 -0.346852 0.654809 0
M  V30 820 H 83.3655 -0.216171 1.90276 0
M  V30 821 H 81.6705 -2.61899 2.91404 0
M  V30 822 H 83.3675 -2.38227 3.22566 0
M  V30 823 H 79.9575 -1.24662 4.1007 0
M  V30 824 H 84.1415 -0.698076 4.91366 0
M  V30 825 H 79.3975 0.048153 6.11381 0
M  V30 826 H 83.5715 0.590367 6.93893 0
M  V30 827 H 81.1985 0.969466 7.53993 0
M  V30 828 N 82.7736 -1.49793 -0.48987 0
M  V30 829 C 83.7036 -1.70201 -1.59856 0
M  V30 830 C 84.6846 -0.55076 -1.60937 0
M  V30 831 O 85.8696 -0.787841 -1.77501 0
M  V30 832 C 82.9996 -1.77882 -2.98287 0
M  V30 833 C 81.9536 -2.92907 -3.12073 0
M  V30 834 C 81.2796 -2.85712 -4.51965 0
M  V30 835 C 82.5796 -4.3369 -2.91051 0
M  V30 836 H 84.2736 -2.63025 -1.43032 0
M  V30 837 H 81.8196 -1.26574 -0.686664 0
M  V30 838 H 83.7726 -1.90744 -3.75759 0
M  V30 839 H 82.4966 -0.816653 -3.16225 0
M  V30 840 H 81.1556 -2.79665 -2.37029 0
M  V30 841 H 80.8036 -1.8738 -4.66795 0
M  V30 842 H 80.5036 -3.62921 -4.62128 0
M  V30 843 H 82.0276 -3.00598 -5.31482 0
M  V30 844 H 83.4416 -4.47555 -3.58284 0
M  V30 845 H 81.8386 -5.12205 -3.12675 0
M  V30 846 H 82.9086 -4.47362 -1.87071 0
M  V30 847 N 84.2517 0.741722 -1.39055 0
M  V30 848 C 85.4817 1.52876 -1.3897 0
M  V30 849 C 85.8897 1.8919 0.0193266 0
M  V30 850 O 85.2327 1.54138 0.999356 0
M  V30 851 C 85.2947 2.84929 -2.19216 0
M  V30 852 C 84.9587 2.71086 -3.67915 0
M  V30 853 C 85.9557 2.40084 -4.61146 0
M  V30 854 C 83.6407 2.88168 -4.11418 0
M  V30 855 C 85.6347 2.26335 -5.95862 0
M  V30 856 C 83.3217 2.74037 -5.46211 0
M  V30 857 C 84.3197 2.43166 -6.38247 0
M  V30 858 O 84.0077 2.29115 -7.70559 0
M  V30 859 H 83.7397 0.479252 -0.476753 0
M  V30 860 H 86.2937 0.924751 -1.83405 0
M  V30 861 H 84.5237 3.47564 -1.69518 0
M  V30 862 H 86.2127 3.46509 -2.11392 0
M  V30 863 H 86.9787 2.26545 -4.28838 0
M  V30 864 H 82.8577 3.11191 -3.40119 0
M  V30 865 H 86.4017 2.0216 -6.67665 0
M  V30 866 H 82.2987 2.87153 -5.78112 0
M  V30 867 H 83.0667 2.44237 -7.81211 0
M  V30 868 N 85.7298 1.2412 0.971189 0
M  V30 869 C 86.6618 0.988349 2.06795 0
M  V30 870 C 87.6748 -0.0409541 1.62748 0
M  V30 871 O 88.8638 0.195673 1.77424 0
M  V30 872 C 85.9638 0.469023 3.35639 0
M  V30 873 C 85.1368 1.56065 4.08611 0
M  V30 874 C 84.1958 1.04458 5.15728 0
M  V30 875 O 83.2218 1.73553 5.42096 0
M  V30 876 N 84.4238 -0.122817 5.8037 0
M  V30 877 H 87.1888 1.93265 2.29061 0
M  V30 878 H 84.7498 1.15102 1.13856 0
M  V30 879 H 86.7418 0.108613 4.04554 0
M  V30 880 H 85.3118 -0.380919 3.1027 0
M  V30 881 H 84.5318 2.09341 3.34021 0
M  V30 882 H 85.8198 2.29449 4.54126 0
M  V30 883 H 85.2178 -0.700563 5.61345 0
M  V30 884 H 83.7748 -0.424404 6.50417 0
M  V30 885 N 87.2079 -1.17134 1.05439 0
M  V30 886 C 88.4539 -1.87733 0.767077 0
M  V30 887 C 88.7869 -1.8098 -0.704253 0
M  V30 888 O 88.0619 -1.21951 -1.5152 0
M  V30 889 C 88.3449 -3.37659 1.25133 0
M  V30 890 C 88.1979 -3.53149 2.78578 0
M  V30 891 C 89.5169 -4.31768 0.852324 0
M  V30 892 H 86.6359 -0.681687 0.280129 0
M  V30 893 H 89.2779 -1.37732 1.30881 0
M  V30 894 H 87.4279 -3.80373 0.790469 0
M  V30 895 H 89.0999 -3.19434 3.32806 0
M  V30 896 H 87.3429 -2.95345 3.17732 0
M  V30 897 H 88.0139 -4.58403 3.07523 0
M  V30 898 H 90.4899 -3.96909 1.24911 0
M  V30 899 H 89.3659 -5.35199 1.21873 0
M  V30 900 H 89.6269 -4.41429 -0.243485 0
M  V30 901 N 88.686 -0.835752 -1.33615 0
M  V30 902 C 89.649 -0.272 -2.2758 0
M  V30 903 C 90.649 0.557487 -1.50827 0
M  V30 904 O 91.839 0.37173 -1.70188 0
M  V30 905 C 88.971 0.617173 -3.35267 0
M  V30 906 H 90.164 -1.10111 -2.78954 0
M  V30 907 H 87.717 -0.608594 -1.43965 0
M  V30 908 H 88.452 1.46884 -2.89129 0
M  V30 909 H 88.237 0.0237066 -3.92093 0
M  V30 910 H 89.727 1.005 -4.05326 0
M  V30 911 N 90.1641 1.46063 -0.591896 0
M  V30 912 C 91.0741 2.34192 0.13831 0
M  V30 913 C 92.0901 1.50305 0.876608 0
M  V30 914 O 93.2661 1.8315 0.837728 0
M  V30 915 C 90.3311 3.27656 1.13326 0
M  V30 916 C 89.3921 4.27445 0.39863 0
M  V30 917 C 88.6251 5.16443 1.34618 0
M  V30 918 O 88.8481 5.08553 2.58321 0
M  V30 919 O 87.7821 5.95843 0.851768 0
M  V30 920 H 91.6081 2.98002 -0.58552 0
M  V30 921 H 89.1931 1.45188 -0.352239 0
M  V30 922 H 91.0751 3.85291 1.70671 0
M  V30 923 H 89.7501 2.6643 1.83839 0
M  V30 924 H 88.6571 3.73471 -0.216895 0
M  V30 925 H 89.9901 4.91482 -0.265709 0
M  V30 926 N 91.6422 0.330177 1.54103 0
M  V30 927 C 93.0582 -0.0222371 1.59585 0
M  V30 928 C 93.2582 -1.49902 1.34654 0
M  V30 929 O 92.3142 -2.25592 1.13421 0
M  V30 930 C 93.6272 0.401932 2.98002 0
M  V30 931 C 95.1752 0.353145 3.11001 0
M  V30 932 C 95.6502 0.752576 4.51775 0
M  V30 933 N 97.1412 0.706239 4.57784 0
M  V30 934 C 97.8762 0.987417 5.64834 0
M  V30 935 N 97.3722 1.33607 6.79795 0
M  V30 936 N 99.1652 0.91254 5.54643 0
M  V30 937 H 91.3162 1.29228 1.68564 0
M  V30 938 H 93.5792 0.525906 0.78875 0
M  V30 939 H 93.2852 1.4311 3.21267 0
M  V30 940 H 93.1592 -0.229699 3.765 0
M  V30 941 H 95.5462 -0.666822 2.87467 0
M  V30 942 H 95.6272 1.0198 2.34593 0
M  V30 943 H 95.2712 1.77049 4.76042 0
M  V30 944 H 95.2012 0.0635409 5.26562 0
M  V30 945 H 97.6922 0.44889 3.75224 0
M  V30 946 H 98.0052 1.53582 7.57385 0
M  V30 947 H 96.3502 1.37439 6.81275 0
M  V30 948 H 99.5412 0.639601 4.6371 0
M  V30 949 H 99.7142 1.13503 6.37982 0
M  V30 950 N 93.1203 -1.57491 0.0584922 0
M  V30 951 C 94.3663 -1.93264 -0.614558 0
M  V30 952 C 94.6993 -0.937717 -1.7006 0
M  V30 953 O 93.9743 0.0351652 -1.94468 0
M  V30 954 C 94.2573 -3.3938 -1.20386 0
M  V30 955 C 94.1103 -4.49625 -0.125375 0
M  V30 956 C 95.4293 -3.86039 -2.11334 0
M  V30 957 H 92.5483 -0.702791 -0.221933 0
M  V30 958 H 95.1903 -1.8961 0.12175 0
M  V30 959 H 93.3403 -3.42626 -1.83139 0
M  V30 960 H 95.0123 -4.58506 0.506971 0
M  V30 961 H 93.2553 -4.30354 0.545672 0
M  V30 962 H 93.9263 -5.48967 -0.577861 0
M  V30 963 H 96.4023 -3.84716 -1.58534 0
M  V30 964 H 95.2783 -4.88914 -2.49507 0
M  V30 965 H 95.5393 -3.23215 -3.01636 0
M  V30 966 N 94.5984 0.214957 -1.56127 0
M  V30 967 C 96.0144 0.564948 -1.49267 0
M  V30 968 C 96.2144 1.86827 -0.754838 0
M  V30 969 O 95.2704 2.50745 -0.297198 0
M  V30 970 C 96.5834 0.638071 -2.93852 0
M  V30 971 C 98.1314 0.728253 -3.0441 0
M  V30 972 C 98.6064 0.832663 -4.50367 0
M  V30 973 N 100.097 0.896712 -4.54437 0
M  V30 974 C 100.832 0.997324 -5.6466 0
M  V30 975 N 100.328 1.06147 -6.8462 0
M  V30 976 N 102.121 1.03297 -5.52527 0
M  V30 977 H 94.2724 -0.640211 -2.02522 0
M  V30 978 H 96.5354 -0.225507 -0.920788 0
M  V30 979 H 96.2414 -0.250126 -3.50809 0
M  V30 980 H 96.1154 1.49947 -3.46115 0
M  V30 981 H 98.5024 1.60689 -2.47514 0
M  V30 982 H 98.5834 -0.158952 -2.55306 0
M  V30 983 H 98.2274 -0.0415417 -5.07883 0
M  V30 984 H 98.1574 1.73538 -4.97184 0
M  V30 985 H 100.648 0.857188 -3.6805 0
M  V30 986 H 100.961 1.1382 -7.64372 0
M  V30 987 H 99.3064 1.03049 -6.87318 0
M  V30 988 H 102.497 0.979558 -4.57736 0
M  V30 989 H 102.67 1.10793 -6.38458 0
M  V30 990 N 96.0765 1.50051 0.48192 0
M  V30 991 C 97.3065 1.63999 1.2565 0
M  V30 992 C 97.7145 0.318288 1.86504 0
M  V30 993 O 97.0575 -0.708534 1.69486 0
M  V30 994 C 97.1195 2.66504 2.4128 0
M  V30 995 C 96.7835 4.10352 2.01148 0
M  V30 996 C 97.7805 4.96562 1.54021 0
M  V30 997 C 95.4655 4.56203 2.10199 0
M  V30 998 C 97.4595 6.26668 1.16473 0
M  V30 999 C 95.1465 5.86318 1.72264 0
M  V30 1000 C 96.1445 6.71375 1.25477 0
M  V30 1001 O 95.8325 7.99062 0.880626 0
M  V30 1002 H 95.5645 0.55456 0.386574 0
M  V30 1003 H 98.1185 1.96954 0.582944 0
M  V30 1004 H 96.3485 2.28769 3.11772 0
M  V30 1005 H 98.0375 2.69783 3.03268 0
M  V30 1006 H 98.8035 4.62358 1.46458 0
M  V30 1007 H 94.6825 3.90152 2.45566 0
M  V30 1008 H 98.2265 6.93011 0.798841 0
M  V30 1009 H 94.1235 6.20046 1.79482 0
M  V30 1010 H 94.8915 8.12239 1.01043 0
M  V30 1011 N 97.5546 -0.734337 1.39446 0
M  V30 1012 C 98.7846 -1.52137 1.39778 0
M  V30 1013 C 99.1926 -1.89198 -0.00929312 0
M  V30 1014 O 98.5356 -1.54666 -0.991168 0
M  V30 1015 C 98.5976 -2.83762 2.20724 0
M  V30 1016 C 98.2616 -2.69131 3.69347 0
M  V30 1017 C 99.2586 -2.37635 4.62413 0
M  V30 1018 C 96.9436 -2.85982 4.1294 0
M  V30 1019 C 98.9376 -2.23172 5.97054 0
M  V30 1020 C 96.6246 -2.71137 5.47657 0
M  V30 1021 C 97.6226 -2.39777 6.39528 0
M  V30 1022 O 97.3106 -2.25026 7.71763 0
M  V30 1023 H 97.0426 -0.476717 0.479288 0
M  V30 1024 H 99.5966 -0.915012 1.83893 0
M  V30 1025 H 97.8266 -3.4666 1.71359 0
M  V30 1026 H 99.5156 -3.45383 2.13226 0
M  V30 1027 H 100.282 -2.24267 4.30034 0
M  V30 1028 H 96.1606 -3.09383 3.41765 0
M  V30 1029 H 99.7046 -1.98617 6.68728 0
M  V30 1030 H 95.6016 -2.84083 5.79626 0
M  V30 1031 H 96.3696 -2.40091 7.82495 0
M  V30 1032 N 99.0327 -1.24633 -0.964593 0
M  V30 1033 C 100.449 -1.01239 -1.2338 0
M  V30 1034 C 100.649 0.2769 -1.99588 0
M  V30 1035 O 99.7047 0.992241 -2.32187 0
M  V30 1036 C 101.018 -2.22937 -2.01791 0
M  V30 1037 C 102.566 -2.27594 -2.14872 0
M  V30 1038 C 103.041 -3.48921 -2.96678 0
M  V30 1039 N 104.532 -3.49257 -3.04259 0
M  V30 1040 C 105.267 -4.39795 -3.67924 0
M  V30 1041 N 104.763 -5.40591 -4.33281 0
M  V30 1042 N 106.556 -4.275 -3.64966 0
M  V30 1043 H 98.7067 -2.0748 -0.454502 0
M  V30 1044 H 100.97 -0.910647 -0.26349 0
M  V30 1045 H 100.676 -3.16587 -1.53184 0
M  V30 1046 H 100.55 -2.25306 -3.02518 0
M  V30 1047 H 102.937 -1.34473 -2.6268 0
M  V30 1048 H 103.018 -2.2925 -1.13482 0
M  V30 1049 H 102.662 -4.42359 -2.49562 0
M  V30 1050 H 102.592 -3.4451 -3.98272 0
M  V30 1051 H 105.083 -2.76337 -2.57771 0
M  V30 1052 H 105.396 -6.05904 -4.79687 0
M  V30 1053 H 103.741 -5.44475 -4.3194 0
M  V30 1054 H 106.932 -3.47987 -3.13086 0
M  V30 1055 H 107.105 -4.98258 -4.14298 0
M  V30 1056 N 100.511 1.16574 -1.06058 0
M  V30 1057 C 101.421 2.2452 -0.680282 0
M  V30 1058 C 102.437 1.71348 0.302604 0
M  V30 1059 O 103.613 2.00822 0.152513 0
M  V30 1060 C 100.678 3.46629 -0.0700315 0
M  V30 1061 C 99.7388 4.14849 -1.10448 0
M  V30 1062 C 98.9718 5.31129 -0.523256 0
M  V30 1063 O 99.1948 5.66514 0.664709 0
M  V30 1064 O 98.1288 5.88526 -1.26179 0
M  V30 1065 H 101.955 2.59355 -1.58015 0
M  V30 1066 H 99.5398 1.24043 -0.832694 0
M  V30 1067 H 101.422 4.20543 0.268667 0
M  V30 1068 H 100.097 3.13573 0.803353 0
M  V30 1069 H 99.0038 3.42916 -1.49532 0
M  V30 1070 H 100.337 4.51954 -1.94931 0
M  V30 1071 N 101.989 0.842826 1.3317 0
M  V30 1072 C 103.236 0.440447 1.97652 0
M  V30 1073 C 103.564 -1.00123 1.6675 0
M  V30 1074 O 102.819 -1.7155 0.941761 0
M  V30 1075 C 103.118 0.612607 3.52111 0
M  V30 1076 C 102.784 2.02297 4.02972 0
M  V30 1077 C 101.446 2.40874 4.16573 0
M  V30 1078 C 103.798 2.94402 4.30089 0
M  V30 1079 C 101.126 3.70852 4.54627 0
M  V30 1080 C 103.478 4.23865 4.69597 0
M  V30 1081 C 102.142 4.62392 4.81404 0
M  V30 1082 H 101.412 0.161171 0.72326 0
M  V30 1083 H 104.059 1.07061 1.58777 0
M  V30 1084 H 102.364 -0.100849 3.9167 0
M  V30 1085 H 104.061 0.2815 4.00011 0
M  V30 1086 H 100.651 1.71338 3.92863 0
M  V30 1087 H 104.835 2.65835 4.19101 0
M  V30 1088 H 100.091 4.00501 4.61962 0
M  V30 1089 H 104.265 4.95306 4.89536 0
M  V30 1090 H 101.892 5.63154 5.10648 0
M  V30 1091 N 103.467 -1.45747 0.599634 0
M  V30 1092 C 104.417 -2.27538 -0.145107 0
M  V30 1093 C 105.401 -1.3686 -0.846055 0
M  V30 1094 O 106.593 -1.6091 -0.737357 0
M  V30 1095 C 103.722 -3.23569 -1.14708 0
M  V30 1096 C 102.808 -4.21734 -0.447383 0
M  V30 1097 N 103.199 -5.03257 0.506535 0
M  V30 1098 C 101.497 -4.40536 -0.695966 0
M  V30 1099 C 102.198 -5.74426 0.917068 0
M  V30 1100 N 101.174 -5.42966 0.26253 0
M  V30 1101 H 104.976 -2.87965 0.587672 0
M  V30 1102 H 102.49 -1.56803 0.422697 0
M  V30 1103 H 104.487 -3.8089 -1.69495 0
M  V30 1104 H 103.147 -2.64702 -1.8805 0
M  V30 1105 H 104.158 -5.10319 0.882899 0
M  V30 1106 H 100.835 -3.92802 -1.41467 0
M  V30 1107 H 102.225 -6.4995 1.70338 0
M  V30 1108 N 104.945 -0.338344 -1.53925 0
M  V30 1109 C 105.895 0.536712 -2.21593 0
M  V30 1110 C 106.879 1.07015 -1.20153 0
M  V30 1111 O 108.071 1.00471 -1.45721 0
M  V30 1112 C 105.2 1.68977 -2.98834 0
M  V30 1113 C 104.286 1.17052 -4.07627 0
M  V30 1114 N 104.677 0.372085 -5.0443 0
M  V30 1115 C 102.975 1.44789 -4.21844 0
M  V30 1116 C 103.676 0.0909171 -5.81629 0
M  V30 1117 N 102.652 0.681131 -5.39316 0
M  V30 1118 H 106.454 -0.0804298 -2.9379 0
M  V30 1119 H 103.968 -0.144943 -1.61752 0
M  V30 1120 H 105.965 2.32857 -3.45808 0
M  V30 1121 H 104.625 2.31024 -2.28162 0
M  V30 1122 H 105.636 0.0136217 -5.17898 0
M  V30 1123 H 102.313 2.07313 -3.62391 0
M  V30 1124 H 103.703 -0.552817 -6.69622 0
M  V30 1125 N 106.423 1.57458 -0.0668435 0
M  V30 1126 C 107.355 2.09413 0.931601 0
M  V30 1127 C 108.368 1.02522 1.26464 0
M  V30 1128 O 109.557 1.30049 1.22269 0
M  V30 1129 C 106.657 2.53537 2.24882 0
M  V30 1130 C 105.83 3.83944 2.09537 0
M  V30 1131 C 104.889 4.14214 3.2452 0
M  V30 1132 O 103.915 4.83891 2.9973 0
M  V30 1133 N 105.117 3.67367 4.49469 0
M  V30 1134 H 107.882 2.95699 0.488048 0
M  V30 1135 H 105.443 1.61462 0.119009 0
M  V30 1136 H 107.435 2.70853 3.00701 0
M  V30 1137 H 106.005 1.72415 2.60753 0
M  V30 1138 H 105.225 3.76057 1.18215 0
M  V30 1139 H 106.513 4.69312 1.96529 0
M  V30 1140 H 105.911 3.11068 4.72497 0
M  V30 1141 H 104.468 3.89891 5.2233 0
M  V30 1142 N 107.901 -0.206675 1.56239 0
M  V30 1143 C 109.129 -0.945345 1.8404 0
M  V30 1144 C 109.544 -1.77336 0.647885 0
M  V30 1145 O 108.901 -1.78425 -0.383511 0
M  V30 1146 C 108.952 -1.8509 3.10522 0
M  V30 1147 O 108.673 -1.05634 4.25174 0
M  V30 1148 C 110.174 -2.70222 3.51418 0
M  V30 1149 H 107.394 -0.276372 0.61144 0
M  V30 1150 H 109.938 -0.217417 2.03341 0
M  V30 1151 H 108.093 -2.53259 2.93153 0
M  V30 1152 H 108.507 -1.67238 4.97124 0
M  V30 1153 H 109.981 -3.29438 4.42916 0
M  V30 1154 H 110.458 -3.43358 2.73864 0
M  V30 1155 H 111.064 -2.07443 3.71278 0
M  V30 1156 N 109.379 -1.50304 -0.473955 0
M  V30 1157 C 110.342 -1.6841 -1.55469 0
M  V30 1158 C 111.342 -0.554905 -1.50922 0
M  V30 1159 O 112.532 -0.821882 -1.53593 0
M  V30 1160 C 109.664 -1.70667 -2.95102 0
M  V30 1161 H 110.857 -2.64828 -1.40733 0
M  V30 1162 H 108.41 -1.39742 -0.700132 0
M  V30 1163 H 109.145 -0.75932 -3.15285 0
M  V30 1164 H 108.93 -2.52698 -2.9981 0
M  V30 1165 H 110.42 -1.8664 -3.73571 0
M  V30 1166 N 110.857 0.726932 -1.39834 0
M  V30 1167 C 111.787 1.85405 -1.41941 0
M  V30 1168 C 112.768 1.67751 -0.281728 0
M  V30 1169 O 113.953 1.8795 -0.488717 0
M  V30 1170 C 111.083 3.23243 -1.2701 0
M  V30 1171 C 110.037 3.55549 -2.38262 0
M  V30 1172 C 109.363 4.9241 -2.08415 0
M  V30 1173 C 110.663 3.577 -3.80589 0
M  V30 1174 H 112.357 1.83899 -2.36266 0
M  V30 1175 H 109.903 0.883349 -1.13723 0
M  V30 1176 H 111.856 4.01775 -1.27103 0
M  V30 1177 H 110.58 3.25296 -0.291564 0
M  V30 1178 H 109.239 2.79351 -2.37399 0
M  V30 1179 H 108.887 4.91052 -1.0898 0
M  V30 1180 H 108.587 5.14992 -2.82943 0
M  V30 1181 H 110.111 5.73289 -2.10171 0
M  V30 1182 H 111.525 4.26293 -3.83337 0
M  V30 1183 H 109.922 3.91804 -4.54543 0
M  V30 1184 H 110.992 2.57328 -4.10987 0
M  V30 1185 N 112.336 1.25143 0.95797 0
M  V30 1186 C 113.613 1.00472 1.67823 0
M  V30 1187 C 113.993 -0.470056 2.058 0
M  V30 1188 O 113.341 -1.44663 1.76875 0
M  V30 1189 C 113.551 1.9372 2.90299 0
M  V30 1190 C 114.899 2.21371 3.62326 0
M  V30 1191 O 115.923 1.91451 3.00375 0
M  V30 1192 O 114.782 2.72231 4.7387 0
M  V30 1193 H 111.876 0.380752 0.734137 0
M  V30 1194 H 114.422 1.36283 1.01119 0
M  V30 1195 H 113.194 2.93316 2.59001 0
M  V30 1196 H 112.817 1.58286 3.64735 0
M  V30 1197 N 113.814 -1.1601 1.06675 0
M  V30 1198 C 114.724 -2.24156 0.692179 0
M  V30 1199 C 115.74 -1.71507 -0.293513 0
M  V30 1200 O 116.916 -2.009 -0.141861 0
M  V30 1201 C 113.981 -3.46587 0.0884131 0
M  V30 1202 C 113.042 -4.14257 1.12646 0
M  V30 1203 C 112.275 -5.30844 0.551416 0
M  V30 1204 O 112.498 -5.66858 -0.634656 0
M  V30 1205 O 111.432 -5.87848 1.29298 0
M  V30 1206 H 115.258 -2.58513 1.59388 0
M  V30 1207 H 112.843 -1.23599 0.83926 0
M  V30 1208 H 114.725 -4.20679 -0.246361 0
M  V30 1209 H 113.4 -3.13994 -0.786712 0
M  V30 1210 H 112.307 -3.42118 1.51348 0
M  V30 1211 H 113.64 -4.50914 1.97325 0
M  V30 1212 N 115.292 -0.849877 -1.32721 0
M  V30 1213 C 116.708 -0.539102 -1.50219 0
M  V30 1214 C 116.908 0.931271 -1.78689 0
M  V30 1215 O 115.964 1.71455 -1.85363 0
M  V30 1216 C 117.277 -1.42196 -2.64954 0
M  V30 1217 C 118.825 -1.42189 -2.78839 0
M  V30 1218 C 119.3 -2.28985 -3.96648 0
M  V30 1219 N 120.791 -2.26754 -4.03902 0
M  V30 1220 C 121.526 -2.90644 -4.94281 0
M  V30 1221 N 121.022 -3.63629 -5.897 0
M  V30 1222 N 122.815 -2.80057 -4.87365 0
M  V30 1223 H 114.966 -1.80156 -1.12506 0
M  V30 1224 H 117.229 -0.769217 -0.554085 0
M  V30 1225 H 116.935 -2.46733 -2.50631 0
M  V30 1226 H 116.809 -1.10591 -3.60624 0
M  V30 1227 H 119.196 -0.38419 -2.92588 0
M  V30 1228 H 119.277 -1.77807 -1.83898 0
M  V30 1229 H 118.921 -3.32819 -3.83658 0
M  V30 1230 H 118.851 -1.90702 -4.90857 0
M  V30 1231 H 121.342 -1.73688 -3.3562 0
M  V30 1232 H 121.655 -4.09558 -6.55349 0
M  V30 1233 H 120 -3.67737 -5.89741 0
M  V30 1234 H 123.191 -2.22593 -4.11789 0
M  V30 1235 H 123.364 -3.30132 -5.57599 0
M  V30 1236 N 116.77 1.45427 -0.607355 0
M  V30 1237 C 117.68 2.34325 0.113463 0
M  V30 1238 C 118.696 1.51226 0.860617 0
M  V30 1239 O 119.872 1.84029 0.818255 0
M  V30 1240 C 116.937 3.28839 1.09844 0
M  V30 1241 C 115.998 4.27844 0.353271 0
M  V30 1242 C 115.231 5.17842 1.29133 0
M  V30 1243 O 115.454 5.11264 2.52913 0
M  V30 1244 O 114.388 5.96713 0.788523 0
M  V30 1245 H 118.214 2.97364 -0.617094 0
M  V30 1246 H 115.799 1.44807 -0.367619 0
M  V30 1247 H 117.681 3.8708 1.66575 0
M  V30 1248 H 116.356 2.68365 1.81003 0
M  V30 1249 H 115.263 3.7322 -0.256494 0
M  V30 1250 H 116.596 4.91173 -0.317822 0
M  V30 1251 N 118.248 0.346503 1.53744 0
M  V30 1252 C 119.473 -0.253074 2.0585 0
M  V30 1253 C 119.898 -1.43202 1.21962 0
M  V30 1254 O 119.256 -1.79783 0.234073 0
M  V30 1255 C 119.304 -0.643193 3.54817 0
M  V30 1256 O 118.408 -1.74286 3.73762 0
M  V30 1257 H 117.749 -0.0413583 0.662711 0
M  V30 1258 H 120.279 0.501574 1.98357 0
M  V30 1259 H 120.289 -0.919526 3.97503 0
M  V30 1260 H 118.964 0.218966 4.15323 0
M  V30 1261 H 117.541 -1.46356 3.42979 0
M  V30 1262 N 119.726 -1.57421 0.075193 0
M  V30 1263 C 120.676 -2.09441 -0.901025 0
M  V30 1264 C 121.66 -1.00486 -1.25663 0
M  V30 1265 O 122.852 -1.2679 -1.23504 0
M  V30 1266 C 119.981 -2.66233 -2.16737 0
M  V30 1267 C 119.067 -3.82198 -1.83808 0
M  V30 1268 N 119.458 -4.91028 -1.21345 0
M  V30 1269 C 117.756 -3.91558 -2.13538 0
M  V30 1270 C 118.457 -5.71852 -1.06585 0
M  V30 1271 N 117.433 -5.20233 -1.57667 0
M  V30 1272 H 121.235 -2.90972 -0.413815 0
M  V30 1273 H 118.749 -1.6189 -0.128601 0
M  V30 1274 H 120.746 -3.01819 -2.87595 0
M  V30 1275 H 119.406 -1.8615 -2.66042 0
M  V30 1276 H 120.417 -5.10323 -0.88268 0
M  V30 1277 H 117.094 -3.22454 -2.65197 0
M  V30 1278 H 118.484 -6.69401 -0.578933 0
M  V30 1279 N 121.204 0.198386 -1.56346 0
M  V30 1280 C 122.62 0.549085 -1.49857 0
M  V30 1281 C 122.82 1.86016 -0.774611 0
M  V30 1282 O 121.876 2.50416 -0.323776 0
M  V30 1283 C 123.189 0.606868 -2.94512 0
M  V30 1284 C 124.737 0.695925 -3.05165 0
M  V30 1285 C 125.212 0.784848 -4.51225 0
M  V30 1286 N 126.703 0.848463 -4.55363 0
M  V30 1287 C 127.438 0.937378 -5.65686 0
M  V30 1288 N 126.934 0.9888 -6.85707 0
M  V30 1289 N 128.727 0.974312 -5.53592 0
M  V30 1290 H 120.878 -0.661655 -2.01831 0
M  V30 1291 H 123.141 -0.235261 -0.918344 0
M  V30 1292 H 122.847 -0.28732 -3.50524 0
M  V30 1293 H 122.721 1.46268 -3.47686 0
M  V30 1294 H 125.108 1.58055 -2.49204 0
M  V30 1295 H 125.189 -0.186022 -2.55123 0
M  V30 1296 H 124.833 -0.0954072 -5.0781 0
M  V30 1297 H 124.763 1.68255 -4.98997 0
M  V30 1298 H 127.254 0.818103 -3.68938 0
M  V30 1299 H 127.567 1.05707 -7.65536 0
M  V30 1300 H 125.912 0.957534 -6.88372 0
M  V30 1301 H 129.103 0.930954 -4.58749 0
M  V30 1302 H 129.276 1.04015 -6.39597 0
M  V30 1303 N 122.682 1.50554 0.465978 0
M  V30 1304 C 123.612 1.72722 1.57128 0
M  V30 1305 C 124.593 0.576294 1.6004 0
M  V30 1306 O 125.778 0.81598 1.76225 0
M  V30 1307 C 122.908 1.82605 2.95419 0
M  V30 1308 C 121.862 2.97835 3.07373 0
M  V30 1309 C 121.188 2.92867 4.47363 0
M  V30 1310 C 122.488 4.38265 2.84114 0
M  V30 1311 H 124.182 2.65267 1.38829 0
M  V30 1312 H 121.728 1.2765 0.666441 0
M  V30 1313 H 123.681 1.96698 3.72677 0
M  V30 1314 H 122.405 0.866858 3.14886 0
M  V30 1315 H 121.064 2.83401 2.3255 0
M  V30 1316 H 120.712 1.94783 4.63755 0
M  V30 1317 H 120.412 3.70227 4.56296 0
M  V30 1318 H 121.936 3.09015 5.26633 0
M  V30 1319 H 123.35 4.53198 3.51118 0
M  V30 1320 H 121.747 5.17115 3.04487 0
M  V30 1321 H 122.817 4.50281 1.7993 0
M  V30 1322 N 124.16 -0.719506 1.40217 0
M  V30 1323 C 125.409 -1.47486 1.37589 0
M  V30 1324 C 125.722 -1.9559 -0.0201568 0
M  V30 1325 O 126.928 -2.70973 -0.169049 0
M  V30 1326 C 125.384 -2.66575 2.41796 0
M  V30 1327 C 124.992 -2.25358 3.87192 0
M  V30 1328 C 126.736 -3.4433 2.48269 0
M  V30 1329 C 124.643 -3.41262 4.83005 0
M  V30 1330 H 123.573 -0.553901 0.511576 0
M  V30 1331 H 126.224 -0.783427 1.65936 0
M  V30 1332 H 124.606 -3.3787 2.06543 0
M  V30 1333 H 125.78 -1.61509 4.31569 0
M  V30 1334 H 124.095 -1.60657 3.84159 0
M  V30 1335 H 126.692 -4.30569 3.17041 0
M  V30 1336 H 127.035 -3.87872 1.51198 0
M  V30 1337 H 127.568 -2.80076 2.82493 0
M  V30 1338 H 124.307 -3.02755 5.81394 0
M  V30 1339 H 123.827 -4.0404 4.43297 0
M  V30 1340 H 125.506 -4.07383 5.02641 0
M  V30 1341 N 125.638 -1.25649 -0.95132 0
M  V30 1342 C 126.885 -1.10594 -1.69633 0
M  V30 1343 C 127.213 0.352515 -1.91279 0
M  V30 1344 O 126.468 1.27601 -1.4838 0
M  V30 1345 C 126.767 -1.80909 -3.08231 0
M  V30 1346 C 126.433 -3.30825 -3.06375 0
M  V30 1347 C 125.095 -3.71722 -3.05576 0
M  V30 1348 C 127.447 -4.26589 -2.99452 0
M  V30 1349 C 124.775 -5.06788 -2.95606 0
M  V30 1350 C 127.127 -5.61683 -2.91024 0
M  V30 1351 C 125.791 -6.01904 -2.88562 0
M  V30 1352 H 125.061 -0.404691 -0.620731 0
M  V30 1353 H 127.708 -1.55964 -1.11119 0
M  V30 1354 H 126.013 -1.27979 -3.70309 0
M  V30 1355 H 127.71 -1.6671 -3.64704 0
M  V30 1356 H 124.3 -2.98287 -3.07771 0
M  V30 1357 H 128.484 -3.95982 -2.99185 0
M  V30 1358 H 123.74 -5.37126 -2.92071 0
M  V30 1359 H 127.914 -6.35578 -2.84629 0
M  V30 1360 H 125.541 -7.06521 -2.80593 0
M  V30 1361 N 127.117 1.15442 -1.07289 0
M  V30 1362 C 128.528 1.67803 -0.818475 0
M  V30 1363 C 128.879 1.8489 0.656507 0
M  V30 1364 O 128.004 1.55176 1.50829 0
M  V30 1365 C 128.599 3.04805 -1.47917 0
M  V30 1366 C 127.158 3.54245 -1.27229 0
M  V30 1367 C 126.305 2.29986 -1.54925 0
M  V30 1368 H 129.256 0.996646 -1.23502 0
M  V30 1369 H 129.277 3.69702 -0.90005 0
M  V30 1370 H 128.789 2.92336 -2.55267 0
M  V30 1371 H 126.89 3.71956 -0.21899 0
M  V30 1372 H 127.003 4.35723 -1.99203 0
M  V30 1373 H 125.367 2.35496 -0.970242 0
M  V30 1374 H 126.15 2.20105 -2.63455 0
M  V30 1375 N 128.595 0.856903 1.32268 0
M  V30 1376 C 129.558 0.308171 2.27119 0
M  V30 1377 C 130.558 -0.533421 1.51695 0
M  V30 1378 O 131.748 -0.344607 1.70757 0
M  V30 1379 C 128.88 -0.563757 3.36206 0
M  V30 1380 H 130.073 1.14535 2.77167 0
M  V30 1381 H 127.626 0.631421 1.42978 0
M  V30 1382 H 128.361 -1.42266 2.91429 0
M  V30 1383 H 128.146 0.0386749 3.92081 0
M  V30 1384 H 129.636 -0.940386 4.06874 0
M  V30 1385 N 130.073 -1.45103 0.615059 0
M  V30 1386 C 131.319 -2.02483 0.113347 0
M  V30 1387 C 131.652 -1.48146 -1.25564 0
M  V30 1388 O 130.927 -0.659104 -1.82992 0
M  V30 1389 C 131.21 -3.60005 0.0825278 0
M  V30 1390 C 131.063 -4.2466 1.48271 0
M  V30 1391 C 132.382 -4.35972 -0.601401 0
M  V30 1392 H 129.501 -0.735764 0.0426632 0
M  V30 1393 H 132.143 -1.72868 0.788461 0
M  V30 1394 H 130.293 -3.85367 -0.492378 0
M  V30 1395 H 131.965 -4.10458 2.10527 0
M  V30 1396 H 130.208 -3.82772 2.04127 0
M  V30 1397 H 130.879 -5.336 1.41332 0
M  V30 1398 H 133.355 -4.15947 -0.112666 0
M  V30 1399 H 132.231 -5.45697 -0.592097 0
M  V30 1400 H 132.492 -4.09391 -1.66887 0
M  V30 1401 N 131.551 -0.354651 -1.53558 0
M  V30 1402 C 132.779 0.239515 -2.05509 0
M  V30 1403 C 133.194 1.4333 -1.2289 0
M  V30 1404 O 132.551 1.80538 -0.266899 0
M  V30 1405 C 132.602 0.643719 -3.55723 0
M  V30 1406 O 132.323 -0.502602 -4.35207 0
M  V30 1407 C 133.824 1.29743 -4.23889 0
M  V30 1408 H 131.044 0.0442697 -0.669538 0
M  V30 1409 H 133.588 -0.509856 -1.98042 0
M  V30 1410 H 131.743 1.34302 -3.63376 0
M  V30 1411 H 132.157 -0.178172 -5.24197 0
M  V30 1412 H 133.631 1.53091 -5.30346 0
M  V30 1413 H 134.108 2.25441 -3.76926 0
M  V30 1414 H 134.714 0.639865 -4.20459 0
M  V30 1415 N 133.029 1.57378 -0.0835403 0
M  V30 1416 C 133.959 2.1641 0.87686 0
M  V30 1417 C 134.94 1.09429 1.30228 0
M  V30 1418 O 136.125 1.37516 1.37124 0
M  V30 1419 C 133.255 2.73517 2.14022 0
M  V30 1420 C 132.209 3.85769 1.85381 0
M  V30 1421 C 131.535 4.29529 3.18448 0
M  V30 1422 C 132.835 5.09486 1.14984 0
M  V30 1423 H 134.529 2.96914 0.385059 0
M  V30 1424 H 132.075 1.42823 0.18377 0
M  V30 1425 H 134.028 3.13463 2.81636 0
M  V30 1426 H 132.752 1.90252 2.65465 0
M  V30 1427 H 131.411 3.46345 1.20169 0
M  V30 1428 H 131.059 3.43169 3.67755 0
M  V30 1429 H 130.759 5.05204 3.00071 0
M  V30 1430 H 132.283 4.72099 3.8724 0
M  V30 1431 H 133.697 5.46674 1.72687 0
M  V30 1432 H 132.094 5.90515 1.06826 0
M  V30 1433 H 133.164 4.84724 0.130749 0
M  V30 1434 N 134.507 -0.190092 1.56449 0
M  V30 1435 C 135.747 -0.916414 1.82705 0
M  V30 1436 C 136.111 -1.80235 0.661763 0
M  V30 1437 O 137.312 -2.56484 0.80433 0
M  V30 1438 C 135.583 -1.70691 3.14005 0
M  V30 1439 S 137.142 -2.48457 3.61683 0
M  V30 1440 H 133.96 -0.307281 0.64117 0
M  V30 1441 H 136.562 -0.179433 1.94675 0
M  V30 1442 H 135.266 -1.04677 3.96826 0
M  V30 1443 H 134.797 -2.48562 3.04927 0
M  V30 1444 H 136.812 -3.72756 3.27517 0
M  V30 1445 N 135.985 -1.50799 -0.457987 0
M  V30 1446 C 136.933 -1.71162 -1.575 0
M  V30 1447 C 137.927 -0.577592 -1.59249 0
M  V30 1448 O 139.133 -0.758443 -1.63241 0
M  V30 1449 H 135.508 -0.540468 -0.522875 0
M  V30 1450 H 137.479 -2.64837 -1.37492 0
M  V30 1451 C 136.228 -1.83496 -2.95338 0
M  V30 1452 H 135.551 -2.70153 -2.94716 0
M  V30 1453 H 136.991 -2.01765 -3.72917 0
M  V30 1454 C 135.45 -0.589694 -3.31699 0
M  V30 1455 O 135.98 0.265163 -4.00824 0
M  V30 1456 N 134.186 -0.439845 -2.87252 0
M  V30 1457 H 133.733 -1.13655 -2.31172 0
M  V30 1458 H 133.691 0.392159 -3.11945 0
M  V30 1459 N 137.463 0.71206 -1.40597 0
M  V30 1460 C 138.712 1.46754 -1.38369 0
M  V30 1461 C 139.025 1.95598 0.0097839 0
M  V30 1462 O 140.231 2.71059 0.154677 0
M  V30 1463 C 138.687 2.65289 -2.43207 0
M  V30 1464 C 138.295 2.23301 -3.88382 0
M  V30 1465 C 140.039 3.43008 -2.50091 0
M  V30 1466 C 137.946 3.38696 -4.84808 0
M  V30 1467 H 136.876 0.55118 -0.514506 0
M  V30 1468 H 139.527 0.774616 -1.66349 0
M  V30 1469 H 137.909 3.36769 -2.08332 0
M  V30 1470 H 139.083 1.59218 -4.32419 0
M  V30 1471 H 137.398 1.58618 -3.85006 0
M  V30 1472 H 139.995 4.28881 -3.1932 0
M  V30 1473 H 140.338 3.87065 -1.53253 0
M  V30 1474 H 140.871 2.78574 -2.83974 0
M  V30 1475 H 137.61 2.99668 -5.82992 0
M  V30 1476 H 137.13 4.01683 -4.45433 0
M  V30 1477 H 138.809 4.04712 -5.04794 0
M  V30 1478 N 138.941 1.26152 0.944643 0
M  V30 1479 C 139.889 1.07215 2.06417 0
M  V30 1480 C 140.883 9.2007e-05 1.694 0
M  V30 1481 O 142.089 0.1565 1.79318 0
M  V30 1482 H 138.464 0.329837 0.675805 0
M  V30 1483 H 140.435 2.02099 2.19541 0
M  V30 1484 C 139.184 0.718197 3.40202 0
M  V30 1485 H 138.507 1.53497 3.69159 0
M  V30 1486 H 139.947 0.625459 4.19361 0
M  V30 1487 C 138.406 -0.576435 3.31932 0
M  V30 1488 O 138.936 -1.61574 3.67773 0
M  V30 1489 N 137.142 -0.565781 2.85039 0
M  V30 1490 H 136.689 0.280367 2.5607 0
M  V30 1491 H 136.647 -1.43213 2.79888 0
M  V30 1492 N 140.419 -1.14872 1.07899 0
M  V30 1493 C 141.83 -1.67367 0.827363 0
M  V30 1494 C 142.181 -1.85236 -0.646693 0
M  V30 1495 O 141.306 -1.55974 -1.50004 0
M  V30 1496 C 141.901 -3.04016 1.49532 0
M  V30 1497 C 140.46 -3.53566 1.29106 0
M  V30 1498 C 139.607 -2.29161 1.56143 0
M  V30 1499 H 142.558 -0.990083 1.24028 0
M  V30 1500 H 142.579 -3.69219 0.919643 0
M  V30 1501 H 142.091 -2.90978 2.56814 0
M  V30 1502 H 140.192 -3.71835 0.238713 0
M  V30 1503 H 140.305 -4.34661 2.01511 0
M  V30 1504 H 138.669 -2.34978 0.982717 0
M  V30 1505 H 139.452 -2.18705 2.64619 0
M  V30 1506 N 141.898 -0.863906 -1.31812 0
M  V30 1507 C 142.828 -0.330843 -2.31144 0
M  V30 1508 C 143.809 0.575005 -1.60087 0
M  V30 1509 O 144.994 0.493304 -1.8783 0
M  V30 1510 C 142.124 0.47374 -3.44054 0
M  V30 1511 C 141.078 -0.338481 -4.26659 0
M  V30 1512 C 140.404 0.591412 -5.31419 0
M  V30 1513 C 141.704 -1.56926 -4.98168 0
M  V30 1514 H 143.398 -1.16086 -2.75979 0
M  V30 1515 H 140.944 -0.559657 -1.32679 0
M  V30 1516 H 142.897 0.857143 -4.12591 0
M  V30 1517 H 141.621 1.33721 -2.9797 0
M  V30 1518 H 140.28 -0.703754 -3.59782 0
M  V30 1519 H 139.928 1.45199 -4.81587 0
M  V30 1520 H 139.628 0.0519022 -5.87577 0
M  V30 1521 H 141.152 0.97179 -6.02817 0
M  V30 1522 H 142.566 -1.25764 -5.59336 0
M  V30 1523 H 140.963 -2.04739 -5.64094 0
M  V30 1524 H 142.033 -2.32544 -4.25501 0
M  V30 1525 N 143.376 1.44774 -0.622745 0
M  V30 1526 C 144.792 1.56986 -0.287652 0
M  V30 1527 C 144.992 1.61167 1.20944 0
M  V30 1528 O 144.048 1.55015 1.99315 0
M  V30 1529 C 145.361 2.84551 -0.972188 0
M  V30 1530 C 146.909 2.9825 -0.949536 0
M  V30 1531 C 147.384 4.28605 -1.61437 0
M  V30 1532 N 148.875 4.35399 -1.58057 0
M  V30 1533 C 149.61 5.34964 -2.064 0
M  V30 1534 N 149.106 6.40981 -2.62897 0
M  V30 1535 N 150.899 5.26419 -1.97078 0
M  V30 1536 H 143.05 1.40304 -1.59463 0
M  V30 1537 H 145.313 0.671794 -0.668878 0
M  V30 1538 H 145.019 2.87417 -2.02693 0
M  V30 1539 H 144.893 3.73807 -0.504771 0
M  V30 1540 H 147.28 2.94941 0.0967067 0
M  V30 1541 H 147.361 2.10364 -1.45536 0
M  V30 1542 H 147.005 4.32672 -2.66002 0
M  V30 1543 H 146.935 5.15334 -1.08344 0
M  V30 1544 H 149.426 3.59397 -1.16801 0
M  V30 1545 H 149.739 7.13225 -2.97539 0
M  V30 1546 H 148.084 6.4169 -2.66943 0
M  V30 1547 H 151.275 4.42504 -1.52669 0
M  V30 1548 H 151.448 6.03861 -2.35066 0
M  V30 1549 N 144.854 0.36279 1.53368 0
M  V30 1550 C 146.27 0.0116182 1.59596 0
M  V30 1551 C 146.47 -1.47012 1.37803 0
M  V30 1552 O 145.526 -2.23136 1.18181 0
M  V30 1553 C 146.839 0.465052 2.97082 0
M  V30 1554 C 148.387 0.419033 3.10182 0
M  V30 1555 C 148.862 0.848235 4.50077 0
M  V30 1556 N 150.353 0.803183 4.56183 0
M  V30 1557 C 151.088 1.107 5.62613 0
M  V30 1558 N 150.584 1.47996 6.76808 0
M  V30 1559 N 152.377 1.02998 5.52583 0
M  V30 1560 H 144.528 1.32775 1.65785 0
M  V30 1561 H 146.791 0.542518 0.777417 0
M  V30 1562 H 146.497 1.49892 3.18159 0
M  V30 1563 H 146.371 -0.149786 3.76902 0
M  V30 1564 H 148.758 -0.605696 2.88817 0
M  V30 1565 H 148.839 1.06933 2.32377 0
M  V30 1566 H 148.483 1.87107 4.7218 0
M  V30 1567 H 148.413 0.175218 5.26308 0
M  V30 1568 H 150.904 0.52838 3.74188 0
M  V30 1569 H 151.217 1.69613 7.53957 0
M  V30 1570 H 149.562 1.51859 6.78206 0
M  V30 1571 H 152.753 0.737817 4.62249 0
M  V30 1572 H 152.926 1.2701 6.35431 0
M  V30 1573 N 146.332 -1.57332 0.0918853 0
M  V30 1574 C 147.557 -1.98995 -0.584442 0
M  V30 1575 C 147.982 -0.970528 -1.61128 0
M  V30 1576 O 147.34 0.0613904 -1.81196 0
M  V30 1577 C 147.388 -3.39636 -1.21161 0
M  V30 1578 O 146.492 -3.40447 -2.32744 0
M  V30 1579 H 145.833 -0.647165 -0.148572 0
M  V30 1580 H 148.363 -2.03873 0.172347 0
M  V30 1581 H 148.373 -3.7726 -1.55367 0
M  V30 1582 H 147.048 -4.13356 -0.459313 0
M  V30 1583 H 145.625 -3.14614 -2.0018 0
M  V30 1584 N 147.81 0.181792 -1.56548 0
M  V30 1585 C 149.226 0.53316 -1.50431 0
M  V30 1586 C 149.426 1.85184 -0.794297 0
M  V30 1587 O 148.482 2.50058 -0.350318 0
M  V30 1588 C 149.795 0.575597 -2.9514 0
M  V30 1589 C 151.343 0.663519 -3.05886 0
M  V30 1590 C 151.818 0.736946 -4.52032 0
M  V30 1591 N 153.309 0.800118 -4.56237 0
M  V30 1592 C 154.044 0.877327 -5.66649 0
M  V30 1593 N 153.54 0.916016 -6.86718 0
M  V30 1594 N 155.333 0.915542 -5.54594 0
M  V30 1595 H 147.484 -0.683025 -2.01118 0
M  V30 1596 H 149.747 -0.244988 -0.915797 0
M  V30 1597 H 149.453 -0.324482 -3.502 0
M  V30 1598 H 149.327 1.42572 -3.49218 0
M  V30 1599 H 151.714 1.55403 -2.50867 0
M  V30 1600 H 151.795 -0.21307 -2.54911 0
M  V30 1601 H 151.439 -0.149262 -5.07681 0
M  V30 1602 H 151.369 1.62953 -5.00753 0
M  V30 1603 H 153.86 0.778926 -3.69785 0
M  V30 1604 H 154.173 0.975813 -7.66614 0
M  V30 1605 H 152.518 0.884469 -6.89349 0
M  V30 1606 H 155.709 0.882245 -4.59711 0
M  V30 1607 H 155.882 0.972253 -6.40665 0
M  V30 1608 N 149.288 1.51039 0.449983 0
M  V30 1609 C 150.218 1.74379 1.55288 0
M  V30 1610 C 151.199 0.593236 1.5942 0
M  V30 1611 O 152.384 0.834625 1.7535 0
M  V30 1612 C 149.514 1.85728 2.93466 0
M  V30 1613 C 148.468 3.01078 3.04197 0
M  V30 1614 C 147.794 2.97595 4.44231 0
M  V30 1615 C 149.094 4.41254 2.7945 0
M  V30 1616 H 150.788 2.66725 1.36008 0
M  V30 1617 H 148.334 1.2835 0.652864 0
M  V30 1618 H 150.287 2.0064 3.70569 0
M  V30 1619 H 149.011 0.900207 3.13949 0
M  V30 1620 H 147.67 2.85851 2.29531 0
M  V30 1621 H 147.318 1.99691 4.61663 0
M  V30 1622 H 147.018 3.75046 4.52343 0
M  V30 1623 H 148.542 3.14583 5.23326 0
M  V30 1624 H 149.956 4.56897 3.46292 0
M  V30 1625 H 148.353 5.20315 2.98985 0
M  V30 1626 H 149.423 4.52164 1.75144 0
M  V30 1627 N 150.766 -0.704594 1.40972 0
M  V30 1628 C 151.994 -1.49354 1.43182 0
M  V30 1629 C 152.409 -1.88768 0.0345508 0
M  V30 1630 O 151.766 -1.56184 -0.944081 0
M  V30 1631 C 151.817 -2.76187 2.33244 0
M  V30 1632 O 151.538 -2.38436 3.67532 0
M  V30 1633 C 153.039 -3.7 2.44162 0
M  V30 1634 H 150.259 -0.460559 0.487982 0
M  V30 1635 H 152.803 -0.868261 1.85153 0
M  V30 1636 H 150.958 -3.34974 1.94606 0
M  V30 1637 H 151.372 -3.20126 4.15475 0
M  V30 1638 H 152.846 -4.55803 3.11364 0
M  V30 1639 H 153.323 -4.13867 1.47006 0
M  V30 1640 H 153.929 -3.17121 2.83398 0
M  V30 1641 N 152.244 -1.26651 -0.937939 0
M  V30 1642 C 153.655 -1.1125 -1.49934 0
M  V30 1643 C 154.006 0.306077 -1.93798 0
M  V30 1644 O 153.131 1.19792 -1.80219 0
M  V30 1645 C 153.726 -2.01339 -2.72485 0
M  V30 1646 C 152.285 -1.90074 -3.24883 0
M  V30 1647 C 151.432 -1.94498 -1.97651 0
M  V30 1648 H 154.383 -1.39693 -0.753091 0
M  V30 1649 H 154.404 -1.56319 -3.46907 0
M  V30 1650 H 153.916 -3.04577 -2.40529 0
M  V30 1651 H 152.017 -0.897827 -3.61621 0
M  V30 1652 H 152.13 -2.75778 -3.9177 0
M  V30 1653 H 150.494 -1.38591 -2.13693 0
M  V30 1654 H 151.277 -2.99372 -1.68022 0
M  V30 1655 N 153.722 1.14298 -1.08507 0
M  V30 1656 C 154.67 2.21483 -0.710483 0
M  V30 1657 C 155.664 1.66998 0.284234 0
M  V30 1658 O 156.87 1.79401 0.146692 0
M  V30 1659 H 153.245 0.721578 -0.211729 0
M  V30 1660 H 155.216 2.50348 -1.62384 0
M  V30 1661 C 153.965 3.4743 -0.137007 0
M  V30 1662 H 153.288 3.89686 -0.893592 0
M  V30 1663 H 154.728 4.2391 0.0872789 0
M  V30 1664 C 153.187 3.17548 1.12538 0
M  V30 1665 O 153.717 3.35437 2.21009 0
M  V30 1666 N 151.923 2.71499 1.03617 0
M  V30 1667 H 151.47 2.57143 0.153403 0
M  V30 1668 H 151.428 2.51881 1.88158 0
M  V30 1669 N 155.201 0.870884 1.31352 0
M  V30 1670 C 156.478 0.402907 1.91405 0
M  V30 1671 C 156.858 -1.11512 1.79244 0
M  V30 1672 O 156.206 -1.94411 1.2007 0
M  V30 1673 C 156.416 0.885301 3.37585 0
M  V30 1674 C 157.764 0.911971 4.14691 0
M  V30 1675 O 158.788 0.831016 3.46371 0
M  V30 1676 O 157.647 1.02927 5.3672 0
M  V30 1677 H 154.741 0.120698 0.818145 0
M  V30 1678 H 157.287 0.958857 1.40014 0
M  V30 1679 H 156.059 1.92889 3.40455 0
M  V30 1680 H 155.682 0.307714 3.96407 0
M  V30 1681 N 156.679 -1.44442 0.630414 0
M  V30 1682 C 157.609 -2.33418 -0.0618083 0
M  V30 1683 C 158.59 -1.48165 -0.835541 0
M  V30 1684 O 159.775 -1.76886 -0.801564 0
M  V30 1685 C 156.905 -3.31222 -1.04449 0
M  V30 1686 C 155.859 -4.26288 -0.382436 0
M  V30 1687 C 155.185 -5.13954 -1.47497 0
M  V30 1688 C 156.485 -5.1744 0.710865 0
M  V30 1689 H 158.179 -2.91548 0.681184 0
M  V30 1690 H 155.725 -1.40191 0.329026 0
M  V30 1691 H 157.678 -3.92351 -1.53748 0
M  V30 1692 H 156.402 -2.71299 -1.81836 0
M  V30 1693 H 155.061 -3.6649 0.0899054 0
M  V30 1694 H 154.709 -4.50385 -2.2397 0
M  V30 1695 H 154.409 -5.7837 -1.03737 0
M  V30 1696 H 155.933 -5.77955 -1.96979 0
M  V30 1697 H 157.347 -5.72509 0.300996 0
M  V30 1698 H 155.744 -5.90455 1.07156 0
M  V30 1699 H 156.814 -4.58496 1.57829 0
M  V30 1700 N 158.157 -0.370918 -1.53173 0
M  V30 1701 C 159.107 0.489588 -2.22681 0
M  V30 1702 C 160.091 1.04442 -1.22395 0
M  V30 1703 O 161.283 0.973578 -1.47819 0
M  V30 1704 C 158.412 1.626 -3.02351 0
M  V30 1705 C 157.498 1.08379 -4.10018 0
M  V30 1706 N 157.889 0.265004 -5.05105 0
M  V30 1707 C 156.187 1.35809 -4.2482 0
M  V30 1708 C 156.888 -0.0324755 -5.81691 0
M  V30 1709 N 155.864 0.566581 -5.40639 0
M  V30 1710 H 159.666 -0.142729 -2.93553 0
M  V30 1711 H 157.18 -0.179221 -1.61408 0
M  V30 1712 H 159.177 2.2547 -3.50669 0
M  V30 1713 H 157.837 2.26132 -2.33011 0
M  V30 1714 H 158.848 -0.0962352 -5.17811 0
M  V30 1715 H 155.525 1.9958 -3.66707 0
M  V30 1716 H 156.915 -0.69473 -6.68299 0
M  V30 1717 N 159.635 1.57281 -0.100228 0
M  V30 1718 C 160.881 1.95626 0.556946 0
M  V30 1719 C 161.236 0.981655 1.65473 0
M  V30 1720 O 160.529 0.00849847 1.91598 0
M  V30 1721 C 160.723 3.38305 1.15259 0
M  V30 1722 C 160.552 4.49555 0.114035 0
M  V30 1723 C 159.322 5.0434 -0.311266 0
M  V30 1724 C 161.52 5.10051 -0.659768 0
M  V30 1725 N 159.502 5.99152 -1.33755 0
M  V30 1726 C 160.873 6.00628 -1.53774 0
M  V30 1727 C 162.928 4.92772 -0.712723 0
M  V30 1728 C 161.631 6.7578 -2.46403 0
M  V30 1729 C 163.657 5.6859 -1.62663 0
M  V30 1730 C 163.019 6.58838 -2.49222 0
M  V30 1731 H 159.118 0.7624 0.173982 0
M  V30 1732 H 161.702 1.93829 -0.183988 0
M  V30 1733 H 159.873 3.40786 1.86332 0
M  V30 1734 H 161.605 3.63817 1.77254 0
M  V30 1735 H 158.36 4.73537 0.0774812 0
M  V30 1736 H 158.784 6.5126 -1.84905 0
M  V30 1737 H 163.426 4.22761 -0.0576648 0
M  V30 1738 H 161.144 7.4505 -3.12931 0
M  V30 1739 H 164.73 5.57233 -1.67281 0
M  V30 1740 H 163.61 7.16479 -3.18791 0
M  V30 1741 N 161.113 -0.173488 1.56642 0
M  V30 1742 C 162.076 -1.19859 1.95362 0
M  V30 1743 C 163.076 -1.37296 0.83704 0
M  V30 1744 O 164.266 -1.34739 1.10413 0
M  V30 1745 C 161.398 -2.56405 2.24654 0
M  V30 1746 H 162.591 -0.867062 2.87092 0
M  V30 1747 H 160.144 -0.415853 1.50666 0
M  V30 1748 H 160.879 -2.94576 1.35631 0
M  V30 1749 H 160.664 -2.45115 3.06041 0
M  V30 1750 H 162.154 -3.30287 2.5554 0
M  V30 1751 N 162.591 -1.51276 -0.441967 0
M  V30 1752 C 163.839 -1.63392 -1.18943 0
M  V30 1753 C 164.16 -0.350159 -1.9183 0
M  V30 1754 O 163.43 0.633784 -1.85364 0
M  V30 1755 H 162.01 -0.602164 -0.442049 0
M  V30 1756 H 164.672 -1.88186 -0.507165 0
M  V30 1757 H 163.768 -2.45934 -1.92154 0
M  V30 1758 N 164.069 0.697108 -1.41344 0
M  V30 1759 C 165.294 1.49096 -1.44171 0
M  V30 1760 C 165.719 1.88038 -0.0481568 0
M  V30 1761 O 165.077 1.54525 0.948243 0
M  V30 1762 C 165.125 2.73088 -2.3549 0
M  V30 1763 O 164.229 3.70514 -1.81088 0
M  V30 1764 H 163.57 0.448801 -0.489361 0
M  V30 1765 H 166.1 0.856992 -1.85787 0
M  V30 1766 H 166.11 3.21413 -2.51312 0
M  V30 1767 H 164.785 2.44081 -3.36745 0
M  V30 1768 H 163.362 3.29441 -1.74708 0
M  V30 1769 N 165.547 1.27147 0.931209 0
M  V30 1770 C 166.51 1.09615 2.01289 0
M  V30 1771 C 167.51 0.0412581 1.60747 0
M  V30 1772 O 168.7 0.285545 1.71844 0
M  V30 1773 C 165.832 0.669447 3.34262 0
M  V30 1774 H 167.025 2.05662 2.18273 0
M  V30 1775 H 164.578 1.09885 1.11153 0
M  V30 1776 H 165.313 -0.292572 3.22978 0
M  V30 1777 H 165.098 1.43127 3.65044 0
M  V30 1778 H 166.588 0.568921 4.13706 0
M  V30 1779 N 167.025 -1.13721 1.09112 0
M  V30 1780 C 167.955 -2.21148 0.749385 0
M  V30 1781 C 168.936 -1.6792 -0.271475 0
M  V30 1782 O 170.121 -1.93693 -0.140251 0
M  V30 1783 C 167.251 -3.46905 0.165659 0
M  V30 1784 C 166.205 -4.13203 1.11567 0
M  V30 1785 C 165.531 -5.33248 0.393809 0
M  V30 1786 C 166.831 -4.60912 2.45678 0
M  V30 1787 H 168.525 -2.4999 1.64758 0
M  V30 1788 H 166.071 -1.20156 0.793626 0
M  V30 1789 H 168.024 -4.21313 -0.085466 0
M  V30 1790 H 166.748 -3.17449 -0.767714 0
M  V30 1791 H 165.407 -3.40758 1.35202 0
M  V30 1792 H 165.055 -5.00054 -0.543599 0
M  V30 1793 H 164.755 -5.78552 1.02721 0
M  V30 1794 H 166.279 -6.10413 0.150908 0
M  V30 1795 H 167.693 -5.26759 2.26269 0
M  V30 1796 H 166.09 -5.16944 3.04776 0
M  V30 1797 H 167.16 -3.75603 3.06677 0
M  V30 1798 N 168.503 -0.877838 -1.30888 0
M  V30 1799 C 169.433 -0.35534 -2.3078 0
M  V30 1800 C 170.414 0.557994 -1.60687 0
M  V30 1801 O 171.599 0.473355 -1.88343 0
M  V30 1802 C 168.729 0.437221 -3.44537 0
M  V30 1803 C 167.683 -0.383715 -4.26276 0
M  V30 1804 C 167.009 0.535014 -5.32017 0
M  V30 1805 C 168.309 -1.62201 -4.96476 0
M  V30 1806 H 170.003 -1.19007 -2.74732 0
M  V30 1807 H 167.549 -0.573698 -1.32078 0
M  V30 1808 H 169.502 0.813334 -4.13477 0
M  V30 1809 H 168.226 1.30553 -2.99372 0
M  V30 1810 H 166.885 -0.741874 -3.59015 0
M  V30 1811 H 166.533 1.40083 -4.831 0
M  V30 1812 H 166.233 -0.0104211 -5.87599 0
M  V30 1813 H 167.757 0.907799 -6.03814 0
M  V30 1814 H 169.171 -1.31689 -5.5797 0
M  V30 1815 H 167.568 -2.10711 -5.61891 0
M  V30 1816 H 168.638 -2.37044 -4.23011 0
M  V30 1817 N 169.982 1.44106 -0.638065 0
M  V30 1818 C 171.23 2.01579 -0.145043 0
M  V30 1819 C 171.551 1.50496 1.24 0
M  V30 1820 O 170.821 0.711374 1.82527 0
M  V30 1821 H 169.401 0.745282 -0.05063 0
M  V30 1822 H 172.063 1.76516 -0.826327 0
M  V30 1823 H 171.159 3.11877 -0.118039 0
M  V30 1824 N 171.46 0.379036 1.52974 0
M  V30 1825 C 172.39 -0.452706 2.29069 0
M  V30 1826 C 173.371 -1.07237 1.32039 0
M  V30 1827 O 174.556 -1.08708 1.60923 0
M  V30 1828 C 171.686 -1.5856 3.08992 0
M  V30 1829 C 170.64 -1.0925 4.13822 0
M  V30 1830 C 169.966 -2.31668 4.81907 0
M  V30 1831 C 171.266 -0.167702 5.22031 0
M  V30 1832 H 172.96 0.182181 2.98845 0
M  V30 1833 H 170.506 0.0890592 1.43724 0
M  V30 1834 H 172.459 -2.1742 3.6098 0
M  V30 1835 H 171.183 -2.24792 2.36931 0
M  V30 1836 H 169.842 -0.526494 3.628 0
M  V30 1837 H 169.49 -2.96386 4.06404 0
M  V30 1838 H 169.19 -1.9934 5.52754 0
M  V30 1839 H 170.714 -2.91189 5.36695 0
M  V30 1840 H 172.128 -0.664186 5.6944 0
M  V30 1841 H 170.525 0.0653265 6.00064 0
M  V30 1842 H 171.595 0.786347 4.78482 0
M  V30 1843 N 172.938 -1.57226 0.108567 0
M  V30 1844 C 174.215 -1.86333 -0.594939 0
M  V30 1845 C 174.595 -1.00788 -1.85486 0
M  V30 1846 O 173.943 -0.0839293 -2.28346 0
M  V30 1847 C 174.153 -3.37265 -0.897405 0
M  V30 1848 C 175.501 -4.05629 -1.25501 0
M  V30 1849 O 176.525 -3.42224 -0.987998 0
M  V30 1850 O 175.384 -5.17531 -1.75567 0
M  V30 1851 H 172.478 -0.771018 -0.2991 0
M  V30 1852 H 175.024 -1.69102 0.142283 0
M  V30 1853 H 173.796 -3.913 -0.00413806 0
M  V30 1854 H 173.419 -3.59889 -1.69014 0
M  V30 1855 N 174.416 0.165178 -1.56732 0
M  V30 1856 C 175.827 0.727046 -1.71962 0
M  V30 1857 C 176.178 1.82508 -0.720078 0
M  V30 1858 O 175.303 2.16082 0.117242 0
M  V30 1859 C 175.898 1.32559 -3.11791 0
M  V30 1860 C 174.457 1.83422 -3.28684 0
M  V30 1861 C 173.604 0.715567 -2.67908 0
M  V30 1862 H 176.555 -0.0602896 -1.58585 0
M  V30 1863 H 176.576 2.19533 -3.10782 0
M  V30 1864 H 176.088 0.526195 -3.84516 0
M  V30 1865 H 174.189 2.65986 -2.60926 0
M  V30 1866 H 174.302 1.97543 -4.36478 0
M  V30 1867 H 172.666 1.13758 -2.27884 0
M  V30 1868 H 173.449 -0.0720836 -3.43224 0
M  V30 1869 N 175.894 1.51508 0.433938 0
M  V30 1870 C 176.857 1.72473 1.50949 0
M  V30 1871 C 177.857 0.594725 1.49398 0
M  V30 1872 O 179.047 0.862315 1.5136 0
M  V30 1873 C 176.179 1.78431 2.90474 0
M  V30 1874 H 177.372 2.68467 1.33662 0
M  V30 1875 H 174.925 1.41549 0.662836 0
M  V30 1876 H 175.66 0.842645 3.13161 0
M  V30 1877 H 175.445 2.60558 2.93005 0
M  V30 1878 H 176.935 1.96479 3.68491 0
M  V30 1879 N 177.372 -0.689602 1.41712 0
M  V30 1880 C 178.282 -1.83314 1.46401 0
M  V30 1881 C 179.298 -1.7036 0.35405 0
M  V30 1882 O 180.474 -1.92171 0.602692 0
M  V30 1883 C 177.539 -3.19344 1.34982 0
M  V30 1884 C 176.6 -3.44363 2.56344 0
M  V30 1885 C 175.833 -4.73904 2.45461 0
M  V30 1886 O 176.056 -5.508 1.48241 0
M  V30 1887 O 174.99 -4.99839 3.35328 0
M  V30 1888 H 178.816 -1.82314 2.42889 0
M  V30 1889 H 176.401 -0.843438 1.23315 0
M  V30 1890 H 178.283 -4.00547 1.3092 0
M  V30 1891 H 176.958 -3.21014 0.41612 0
M  V30 1892 H 175.865 -2.63067 2.65982 0
M  V30 1893 H 177.198 -3.47512 3.48563 0
M  V30 1894 N 178.85 -1.27639 -0.924453 0
M  V30 1895 C 179.8 -1.07295 -2.01176 0
M  V30 1896 C 180.784 5.77352e-05 -1.609 0
M  V30 1897 O 181.976 -0.218855 -1.75642 0
M  V30 1898 C 179.105 -0.725592 -3.35544 0
M  V30 1899 C 178.191 -1.83691 -3.82254 0
M  V30 1900 N 178.582 -3.07697 -4.01443 0
M  V30 1901 C 176.88 -1.72433 -4.11319 0
M  V30 1902 C 177.581 -3.80037 -4.40394 0
M  V30 1903 N 176.557 -3.0782 -4.48049 0
M  V30 1904 H 180.359 -2.01399 -2.14046 0
M  V30 1905 H 177.873 -1.18401 -1.11153 0
M  V30 1906 H 179.87 -0.560959 -4.13109 0
M  V30 1907 H 178.53 0.207782 -3.24034 0
M  V30 1908 H 179.541 -3.43424 -3.8766 0
M  V30 1909 H 176.218 -0.862005 -4.08504 0
M  V30 1910 H 177.608 -4.86632 -4.63291 0
M  V30 1911 N 180.328 1.1314 -1.09713 0
M  V30 1912 C 181.291 2.16831 -0.742751 0
M  V30 1913 C 182.291 1.59159 0.229129 0
M  V30 1914 O 183.481 1.74199 0.00693237 0
M  V30 1915 C 180.613 3.40756 -0.0989168 0
M  V30 1916 H 181.806 2.49695 -1.66109 0
M  V30 1917 H 179.359 1.2802 -0.896699 0
M  V30 1918 H 180.094 3.13485 0.830514 0
M  V30 1919 H 179.879 3.83888 -0.798265 0
M  V30 1920 H 181.369 4.17386 0.133524 0
M  V30 1921 N 181.806 0.884767 1.30421 0
M  V30 1922 C 182.769 0.356277 2.26414 0
M  V30 1923 C 183.769 -0.501124 1.52792 0
M  V30 1924 O 184.959 -0.30831 1.7145 0
M  V30 1925 C 182.091 -0.492316 3.37326 0
M  V30 1926 H 183.284 1.20389 2.74675 0
M  V30 1927 H 180.837 0.661607 1.41607 0
M  V30 1928 H 181.572 -1.36052 2.94381 0
M  V30 1929 H 181.357 0.121832 3.91911 0
M  V30 1930 H 182.847 -0.853871 4.08777 0
M  V30 1931 N 183.284 -1.43765 0.645699 0
M  V30 1932 C 184.531 -2.01898 0.15604 0
M  V30 1933 C 184.859 -1.50887 -1.22733 0
M  V30 1934 O 184.114 -0.689271 -1.8316 0
M  V30 1935 C 184.413 -3.57238 0.107679 0
M  V30 1936 C 184.079 -4.27564 1.43178 0
M  V30 1937 C 182.741 -4.46492 1.7944 0
M  V30 1938 C 185.093 -4.67454 2.30513 0
M  V30 1939 C 182.421 -5.02573 3.02716 0
M  V30 1940 C 184.773 -5.24901 3.53074 0
M  V30 1941 C 183.437 -5.42046 3.89541 0
M  V30 1942 H 182.707 -0.738797 0.057099 0
M  V30 1943 H 185.354 -1.72341 0.834912 0
M  V30 1944 H 183.659 -3.86293 -0.654618 0
M  V30 1945 H 185.356 -3.99965 -0.287938 0
M  V30 1946 H 181.946 -4.13171 1.13963 0
M  V30 1947 H 186.13 -4.5253 2.0379 0
M  V30 1948 H 181.386 -5.14033 3.31028 0
M  V30 1949 H 185.56 -5.54758 4.20971 0
M  V30 1950 H 183.187 -5.85268 4.85145 0
M  V30 1951 N 184.763 -0.387143 -1.52771 0
M  V30 1952 C 185.693 0.440551 -2.29306 0
M  V30 1953 C 186.674 1.06535 -1.32606 0
M  V30 1954 O 187.859 1.07853 -1.61497 0
M  V30 1955 C 184.989 1.56919 -3.09829 0
M  V30 1956 C 183.943 1.07054 -4.14395 0
M  V30 1957 C 183.269 2.29109 -4.83129 0
M  V30 1958 C 184.569 0.140015 -5.22112 0
M  V30 1959 H 186.263 -0.198026 -2.98744 0
M  V30 1960 H 183.809 -0.09668 -1.43675 0
M  V30 1961 H 185.762 2.15503 -3.62128 0
M  V30 1962 H 184.486 2.23532 -2.3812 0
M  V30 1963 H 183.145 0.507247 -3.63074 0
M  V30 1964 H 182.793 2.94227 -4.0797 0
M  V30 1965 H 182.493 1.96406 -5.53804 0
M  V30 1966 H 184.017 2.88339 -5.38231 0
M  V30 1967 H 185.431 0.633978 -5.69784 0
M  V30 1968 H 183.828 -0.0971485 -6.00021 0
M  V30 1969 H 184.898 -0.811711 -4.78058 0
M  V30 1970 N 186.241 1.57166 -0.116904 0
M  V30 1971 C 187.657 1.5779 0.239693 0
M  V30 1972 C 187.857 1.1295 1.66867 0
M  V30 1973 O 186.913 0.81592 2.38954 0
M  V30 1974 C 188.226 3.00699 0.00828202 0
M  V30 1975 C 189.774 3.12912 0.0743438 0
M  V30 1976 C 190.249 4.57817 -0.129348 0
M  V30 1977 N 191.74 4.63139 -0.075247 0
M  V30 1978 C 192.475 5.73023 -0.207788 0
M  V30 1979 N 191.971 6.91665 -0.396382 0
M  V30 1980 N 193.764 5.61906 -0.14751 0
M  V30 1981 H 185.915 1.84615 -1.05029 0
M  V30 1982 H 188.178 0.85311 -0.41341 0
M  V30 1983 H 187.884 3.37784 -0.979531 0
M  V30 1984 H 187.758 3.69848 0.741077 0
M  V30 1985 H 190.145 2.75686 1.05268 0
M  V30 1986 H 190.226 2.4631 -0.690297 0
M  V30 1987 H 189.87 4.95742 -1.10465 0
M  V30 1988 H 189.8 5.22507 0.655253 0
M  V30 1989 H 192.291 3.7784 0.0670898 0
M  V30 1990 H 192.604 7.71255 -0.488437 0
M  V30 1991 H 190.949 6.93654 -0.432329 0
M  V30 1992 H 194.14 4.681 -0.00115036 0
M  V30 1993 H 194.313 6.47501 -0.254247 0
M  V30 1994 N 187.719 -0.156864 1.56817 0
M  V30 1995 C 188.682 -1.17781 1.96622 0
M  V30 1996 C 189.682 -1.36401 0.851555 0
M  V30 1997 O 190.872 -1.33561 1.11836 0
M  V30 1998 C 188.004 -2.54008 2.27361 0
M  V30 1999 H 189.197 -0.836564 2.87996 0
M  V30 2000 H 186.75 -0.39985 1.51099 0
M  V30 2001 H 187.485 -2.9312 1.38748 0
M  V30 2002 H 187.27 -2.41856 3.08623 0
M  V30 2003 H 188.76 -3.27558 2.59029 0
M  V30 2004 N 189.197 -1.51736 -0.425897 0
M  V30 2005 C 190.127 -1.76827 -1.52494 0
M  V30 2006 C 191.108 -0.618524 -1.58456 0
M  V30 2007 O 192.293 -0.862416 -1.74 0
M  V30 2008 C 189.423 -1.90374 -2.90474 0
M  V30 2009 C 188.377 -3.0588 -2.99369 0
M  V30 2010 C 187.703 -3.04625 -4.3944 0
M  V30 2011 C 189.003 -4.45644 -2.72394 0
M  V30 2012 H 190.697 -2.68855 -1.31748 0
M  V30 2013 H 188.243 -1.29372 -0.632362 0
M  V30 2014 H 190.196 -2.0651 -3.6733 0
M  V30 2015 H 188.92 -0.95004 -3.12477 0
M  V30 2016 H 187.579 -2.89467 -2.24954 0
M  V30 2017 H 187.227 -2.0701 -4.58428 0
M  V30 2018 H 186.927 -3.82195 -4.46319 0
M  V30 2019 H 188.451 -3.22869 -5.18255 0
M  V30 2020 H 189.865 -4.62348 -3.38979 0
M  V30 2021 H 188.262 -5.25006 -2.9067 0
M  V30 2022 H 189.332 -4.54893 -1.67929 0
M  V30 2023 N 190.675 0.682077 -1.42076 0
M  V30 2024 C 191.923 1.4393 -1.41876 0
M  V30 2025 C 192.244 1.94971 -0.0335599 0
M  V30 2026 O 191.514 1.72591 0.926773 0
M  V30 2027 H 190.094 0.534085 -0.522267 0
M  V30 2028 H 192.756 0.806427 -1.77434 0
M  V30 2029 H 191.852 2.29588 -2.11414 0
M  V30 2030 N 192.153 1.28127 0.917671 0
M  V30 2031 C 193.569 1.05749 1.19538 0
M  V30 2032 C 193.769 -0.202633 2.00479 0
M  V30 2033 O 192.825 -0.905382 2.3571 0
M  V30 2034 C 194.138 2.30273 1.93378 0
M  V30 2035 C 195.686 2.35412 2.06277 0
M  V30 2036 C 196.161 3.59692 2.83524 0
M  V30 2037 N 197.652 3.60309 2.91087 0
M  V30 2038 C 198.387 4.53147 3.51348 0
M  V30 2039 N 197.883 5.563 4.12919 0
M  V30 2040 N 199.676 4.40751 3.48849 0
M  V30 2041 H 191.827 2.09024 0.377184 0
M  V30 2042 H 194.09 0.919798 0.22951 0
M  V30 2043 H 193.796 3.22055 1.41328 0
M  V30 2044 H 193.67 2.36378 2.93947 0
M  V30 2045 H 196.057 1.4413 2.57508 0
M  V30 2046 H 196.138 2.33304 1.04895 0
M  V30 2047 H 195.782 4.51316 2.32973 0
M  V30 2048 H 195.712 3.59054 3.85211 0
M  V30 2049 H 198.203 2.85714 2.47338 0
M  V30 2050 H 198.516 6.2329 4.56869 0
M  V30 2051 H 196.861 5.60131 4.11435 0
M  V30 2052 H 200.052 3.59367 2.99955 0
M  V30 2053 H 200.225 5.13291 3.9552 0
M  V30 2054 N 193.631 -1.12557 1.10312 0
M  V30 2055 C 195.042 -1.65574 0.862678 0
M  V30 2056 C 195.393 -1.86566 -0.607256 0
M  V30 2057 O 194.518 -1.59121 -1.46662 0
M  V30 2058 C 195.113 -3.00776 1.55947 0
M  V30 2059 C 193.672 -3.50748 1.36576 0
M  V30 2060 C 192.819 -2.25797 1.60968 0
M  V30 2061 H 195.77 -0.963552 1.26101 0
M  V30 2062 H 195.791 -3.67185 0.997753 0
M  V30 2063 H 195.303 -2.85465 2.62928 0
M  V30 2064 H 193.404 -3.71245 0.317531 0
M  V30 2065 H 193.517 -4.30289 2.10686 0
M  V30 2066 H 191.881 -2.32841 1.03234 0
M  V30 2067 H 192.664 -2.13043 2.69198 0
M  V30 2068 N 195.109 -0.891671 -1.2995 0
M  V30 2069 C 196.52 -0.563104 -1.78006 0
M  V30 2070 C 196.871 0.920978 -1.73241 0
M  V30 2071 O 195.996 1.71987 -1.31337 0
M  V30 2072 C 196.591 -1.01539 -3.23226 0
M  V30 2073 C 195.15 -0.738124 -3.69092 0
M  V30 2074 C 194.297 -1.19461 -2.50249 0
M  V30 2075 H 197.248 -1.07522 -1.16725 0
M  V30 2076 H 197.269 -0.347217 -3.78912 0
M  V30 2077 H 196.781 -2.09555 -3.26662 0
M  V30 2078 H 194.882 0.329766 -3.71138 0
M  V30 2079 H 194.995 -1.33037 -4.60259 0
M  V30 2080 H 193.359 -0.613787 -2.47194 0
M  V30 2081 H 194.142 -2.28265 -2.56417 0
M  V30 2082 N 196.587 1.43421 -0.653314 0
M  V30 2083 C 197.55 2.29182 0.0287951 0
M  V30 2084 C 198.55 1.42213 0.750465 0
M  V30 2085 O 199.74 1.63843 0.591701 0
M  V30 2086 C 196.872 3.24278 1.05151 0
M  V30 2087 H 198.065 2.90985 -0.725786 0
M  V30 2088 H 195.618 1.50702 -0.414545 0
M  V30 2089 H 196.353 2.6737 1.83532 0
M  V30 2090 H 196.138 3.88396 0.537687 0
M  V30 2091 H 197.628 3.88647 1.52786 0
M  V30 2092 N 198.065 0.39524 1.52563 0
M  V30 2093 C 199.476 -0.0774719 1.86539 0
M  V30 2094 C 199.827 -1.45641 1.31466 0
M  V30 2095 O 198.952 -2.06459 0.648367 0
M  V30 2096 C 199.547 -0.147356 3.38479 0
M  V30 2097 C 198.106 -0.564373 3.72145 0
M  V30 2098 C 197.253 0.269919 2.75983 0
M  V30 2099 H 200.204 0.612876 1.46388 0
M  V30 2100 H 200.225 -0.965343 3.68051 0
M  V30 2101 H 199.737 0.856387 3.78534 0
M  V30 2102 H 197.838 -1.57527 3.37663 0
M  V30 2103 H 197.951 -0.318402 4.78041 0
M  V30 2104 H 196.315 -0.265696 2.5331 0
M  V30 2105 H 197.098 1.27175 3.18875 0
M  V30 2106 N 199.544 -1.57102 0.125237 0
M  V30 2107 C 200.955 -1.82384 -0.399142 0
M  V30 2108 C 201.306 -1.04276 -1.66195 0
M  V30 2109 O 200.431 -0.281269 -2.14564 0
M  V30 2110 C 201.026 -3.30821 -0.730932 0
M  V30 2111 C 199.585 -3.56762 -1.19992 0
M  V30 2112 C 198.732 -2.7649 -0.211792 0
M  V30 2113 H 201.683 -1.54786 0.350277 0
M  V30 2114 H 201.704 -3.4579 -1.58775 0
M  V30 2115 H 201.216 -3.87643 0.188345 0
M  V30 2116 H 199.317 -3.05305 -2.13588 0
M  V30 2117 H 199.43 -4.65317 -1.14093 0
M  V30 2118 H 197.794 -2.4489 -0.700085 0
M  V30 2119 H 198.577 -3.36073 0.700691 0
M  V30 2120 N 201.022 0.148545 -1.56898 0
M  V30 2121 C 202.27 0.859717 -1.82902 0
M  V30 2122 C 202.591 1.81775 -0.70588 0
M  V30 2123 O 201.861 1.93994 0.272586 0
M  V30 2124 H 200.441 0.320469 -0.674766 0
M  V30 2125 H 203.103 0.142918 -1.94375 0
M  V30 2126 H 202.199 1.4229 -2.77777 0
M  V30 2127 N 202.5 1.5196 0.417844 0
M  V30 2128 C 203.747 1.65591 1.16559 0
M  V30 2129 C 204.075 0.381565 1.90721 0
M  V30 2130 O 203.33 -0.635156 1.85106 0
M  V30 2131 C 203.629 2.82269 2.19223 0
M  V30 2132 C 203.295 4.20819 1.61933 0
M  V30 2133 C 201.957 4.58506 1.46033 0
M  V30 2134 C 204.309 5.07196 1.20008 0
M  V30 2135 C 201.637 5.80257 0.867113 0
M  V30 2136 C 203.989 6.29544 0.621086 0
M  V30 2137 C 202.653 6.65987 0.449144 0
M  V30 2138 H 201.923 0.605939 0.42652 0
M  V30 2139 H 204.57 1.86041 0.45397 0
M  V30 2140 H 202.875 2.56118 2.96498 0
M  V30 2141 H 204.572 2.90012 2.76936 0
M  V30 2142 H 201.162 3.91116 1.7529 0
M  V30 2143 H 205.346 4.7867 1.31105 0
M  V30 2144 H 200.602 6.07124 0.721833 0
M  V30 2145 H 204.776 6.95805 0.287798 0
M  V30 2146 H 202.403 7.60199 -0.012632 0
M  V30 2147 N 203.978 -0.674533 1.42435 0
M  V30 2148 C 204.911 -1.79924 1.40366 0
M  V30 2149 C 205.889 -1.60378 0.267899 0
M  V30 2150 O 207.073 -1.82847 0.458159 0
M  V30 2151 C 204.2 -3.16927 1.19478 0
M  V30 2152 C 203.246 -3.55221 2.36051 0
M  V30 2153 S 204.079 -3.5762 3.98583 0
M  V30 2154 C 205.235 -4.97315 3.80038 0
M  V30 2155 H 205.468 -1.81405 2.35541 0
M  V30 2156 H 203.001 -0.845221 1.29211 0
M  V30 2157 H 204.959 -3.96007 1.08114 0
M  V30 2158 H 203.62 -3.13031 0.258883 0
M  V30 2159 H 202.813 -4.54804 2.17185 0
M  V30 2160 H 202.415 -2.83502 2.43932 0
M  V30 2161 H 204.707 -5.85401 3.41045 0
M  V30 2162 H 205.65 -5.21228 4.79298 0
M  V30 2163 H 206.058 -4.69845 3.12899 0
M  V30 2164 N 205.456 -1.28612 -0.910864 0
M  V30 2165 C 206.867 -1.14406 -1.47541 0
M  V30 2166 C 207.218 0.264901 -1.94403 0
M  V30 2167 O 206.343 1.15942 -1.82719 0
M  V30 2168 C 206.938 -2.07073 -2.68153 0
M  V30 2169 C 205.497 -1.96923 -3.20778 0
M  V30 2170 C 204.644 -1.98646 -1.93481 0
M  V30 2171 H 207.595 -1.41259 -0.723291 0
M  V30 2172 H 207.616 -1.63642 -3.43514 0
M  V30 2173 H 207.128 -3.09611 -2.34015 0
M  V30 2174 H 205.229 -0.97433 -3.59635 0
M  V30 2175 H 205.342 -2.84026 -3.85832 0
M  V30 2176 H 203.706 -1.43093 -2.10705 0
M  V30 2177 H 204.489 -3.02868 -1.61634 0
M  V30 2178 N 206.934 1.1197 -1.10907 0
M  V30 2179 C 208.159 1.87942 -0.877064 0
M  V30 2180 C 208.584 1.79341 0.567314 0
M  V30 2181 O 207.942 1.15184 1.40009 0
M  V30 2182 C 207.99 3.34926 -1.33629 0
M  V30 2183 O 207.094 4.09303 -0.504447 0
M  V30 2184 H 206.435 0.583785 -0.316371 0
M  V30 2185 H 208.965 1.4157 -1.47712 0
M  V30 2186 H 208.975 3.8577 -1.32837 0
M  V30 2187 H 207.65 3.40504 -2.3881 0
M  V30 2188 H 206.227 3.68393 -0.577993 0
M  V30 2189 N 208.412 0.89855 1.29475 0
M  V30 2190 C 209.823 0.572537 1.77705 0
M  V30 2191 C 210.174 -0.911778 1.73727 0
M  V30 2192 O 209.299 -1.71288 1.32247 0
M  V30 2193 C 209.894 1.03252 3.22683 0
M  V30 2194 C 208.453 0.757687 3.68695 0
M  V30 2195 C 207.6 1.20787 2.49612 0
M  V30 2196 H 210.551 1.08139 1.16153 0
M  V30 2197 H 210.572 0.367307 3.78723 0
M  V30 2198 H 210.084 2.11285 3.25546 0
M  V30 2199 H 208.185 -0.310079 3.71308 0
M  V30 2200 H 208.298 1.35476 4.59547 0
M  V30 2201 H 206.662 0.626888 2.46865 0
M  V30 2202 H 207.445 2.29622 2.55203 0
M  V30 2203 N 209.89 -1.43072 0.660911 0
M  V30 2204 C 211.118 -2.06067 0.185422 0
M  V30 2205 C 211.533 -1.49582 -1.15198 0
M  V30 2206 O 210.89 -0.630134 -1.71276 0
M  V30 2207 C 210.941 -3.61371 0.0966523 0
M  V30 2208 O 210.662 -4.15758 1.38119 0
M  V30 2209 C 212.163 -4.41455 -0.403996 0
M  V30 2210 H 209.383 -0.664459 0.0934604 0
M  V30 2211 H 211.927 -1.83447 0.90373 0
M  V30 2212 H 210.082 -3.8315 -0.572259 0
M  V30 2213 H 210.496 -5.09499 1.24542 0
M  V30 2214 H 211.97 -5.50437 -0.415045 0
M  V30 2215 H 212.447 -4.15036 -1.43674 0
M  V30 2216 H 213.053 -4.24663 0.232691 0
M  V30 2217 N 211.368 -0.403325 -1.52352 0
M  V30 2218 C 212.615 0.174347 -2.01748 0
M  V30 2219 C 212.943 1.45636 -1.2892 0
M  V30 2220 O 212.198 1.9193 -0.382258 0
M  V30 2221 C 212.497 0.474665 -3.54234 0
M  V30 2222 C 212.163 -0.717458 -4.45155 0
M  V30 2223 C 210.825 -1.04447 -4.69728 0
M  V30 2224 C 213.177 -1.51432 -4.98716 0
M  V30 2225 C 210.505 -2.16963 -5.45109 0
M  V30 2226 C 212.857 -2.6302 -5.75329 0
M  V30 2227 C 211.521 -2.96213 -5.98175 0
M  V30 2228 H 210.791 0.0637981 -0.738248 0
M  V30 2229 H 213.438 -0.543553 -1.83624 0
M  V30 2230 H 211.743 1.27406 -3.70506 0
M  V30 2231 H 213.44 0.934496 -3.89959 0
M  V30 2232 H 210.03 -0.452596 -4.26204 0
M  V30 2233 H 214.214 -1.27491 -4.79645 0
M  V30 2234 H 209.47 -2.43034 -5.61021 0
M  V30 2235 H 213.644 -3.25158 -6.15829 0
M  V30 2236 H 211.271 -3.83516 -6.56368 0
M  V30 2237 N 212.846 1.57033 -0.133567 0
M  V30 2238 C 214.123 1.87256 0.56522 0
M  V30 2239 C 214.503 1.03726 1.83859 0
M  V30 2240 O 213.851 0.120247 2.28183 0
M  V30 2241 C 214.061 3.3865 0.843636 0
M  V30 2242 C 215.409 4.07574 1.19032 0
M  V30 2243 O 216.433 3.43752 0.933429 0
M  V30 2244 O 215.292 5.20259 1.67312 0
M  V30 2245 H 212.386 0.775678 0.286796 0
M  V30 2246 H 214.932 1.68855 -0.169168 0
M  V30 2247 H 213.704 3.91257 -0.0581149 0
M  V30 2248 H 213.327 3.62532 1.63268 0
M  V30 2249 N 214.325 -0.140222 1.56975 0
M  V30 2250 C 215.258 -1.20266 1.93936 0
M  V30 2251 C 216.236 -1.41212 0.806099 0
M  V30 2252 O 217.42 -1.55713 1.06234 0
M  V30 2253 C 214.547 -2.56037 2.21726 0
M  V30 2254 C 213.593 -2.51646 3.44349 0
M  V30 2255 S 214.426 -1.97678 4.97678 0
M  V30 2256 C 215.582 -3.35165 5.28597 0
M  V30 2257 H 215.815 -0.887358 2.83749 0
M  V30 2258 H 213.348 -0.346119 1.50471 0
M  V30 2259 H 215.306 -3.34167 2.38416 0
M  V30 2260 H 213.967 -2.84755 1.32566 0
M  V30 2261 H 213.16 -3.51608 3.61092 0
M  V30 2262 H 212.762 -1.81628 3.26936 0
M  V30 2263 H 215.054 -4.31302 5.2248 0
M  V30 2264 H 215.997 -3.23269 6.30002 0
M  V30 2265 H 216.405 -3.32614 4.56101 0
M  V30 2266 N 215.803 -1.52179 -0.40978 0
M  V30 2267 C 216.766 -1.74853 -1.48186 0
M  V30 2268 C 217.766 -0.618417 -1.48433 0
M  V30 2269 O 218.956 -0.886286 -1.49969 0
M  V30 2270 C 216.088 -1.8303 -2.87598 0
M  V30 2271 H 217.281 -2.70559 -1.29374 0
M  V30 2272 H 214.834 -1.42586 -0.640233 0
M  V30 2273 H 215.569 -0.89236 -3.11781 0
M  V30 2274 H 215.354 -2.65187 -2.88822 0
M  V30 2275 H 216.844 -2.02316 -3.65319 0
M  V30 2276 N 217.281 0.66697 -1.42791 0
M  V30 2277 C 218.213 1.7925 -1.42836 0
M  V30 2278 C 219.226 1.59496 -0.326333 0
M  V30 2279 O 220.415 1.6847 -0.589916 0
M  V30 2280 C 217.515 3.16476 -1.21229 0
M  V30 2281 C 216.688 3.63011 -2.44013 0
M  V30 2282 C 215.747 4.78993 -2.17834 0
M  V30 2283 O 214.773 4.89137 -2.91091 0
M  V30 2284 N 215.975 5.68248 -1.18635 0
M  V30 2285 H 218.74 1.79695 -2.39854 0
M  V30 2286 H 216.301 0.850338 -1.37771 0
M  V30 2287 H 218.293 3.91734 -1.01621 0
M  V30 2288 H 216.863 3.10884 -0.32706 0
M  V30 2289 H 216.083 2.78346 -2.79137 0
M  V30 2290 H 217.371 3.90845 -3.25757 0
M  V30 2291 H 216.769 5.62712 -0.580615 0
M  V30 2292 H 215.326 6.43285 -1.05013 0
M  V30 2293 N 218.759 1.29093 0.90403 0
M  V30 2294 C 219.689 1.16401 2.02418 0
M  V30 2295 C 220.67 0.0593085 1.69997 0
M  V30 2296 O 221.855 0.238021 1.92736 0
M  V30 2297 C 218.985 0.835233 3.37107 0
M  V30 2298 C 217.939 1.89578 3.83724 0
M  V30 2299 C 217.265 1.42041 5.15489 0
M  V30 2300 C 218.565 3.30394 4.04521 0
M  V30 2301 H 220.259 2.10109 2.13295 0
M  V30 2302 H 217.805 1.01157 1.02486 0
M  V30 2303 H 219.758 0.733169 4.14973 0
M  V30 2304 H 218.482 -0.137543 3.2631 0
M  V30 2305 H 217.141 1.98715 3.08071 0
M  V30 2306 H 216.789 0.436426 5.01103 0
M  V30 2307 H 216.489 2.12964 5.4765 0
M  V30 2308 H 218.013 1.33176 5.959 0
M  V30 2309 H 219.427 3.24123 4.72882 0
M  V30 2310 H 217.824 3.99237 4.48029 0
M  V30 2311 H 218.894 3.73692 3.09002 0
M  V30 2312 N 220.237 -1.11381 1.11499 0
M  V30 2313 C 221.467 -1.86663 0.885464 0
M  V30 2314 C 221.875 -1.80464 -0.568281 0
M  V30 2315 O 221.218 -1.18445 -1.40415 0
M  V30 2316 C 221.28 -3.36337 1.26956 0
M  V30 2317 C 220.944 -3.66304 2.73259 0
M  V30 2318 C 221.941 -3.63733 3.71476 0
M  V30 2319 C 219.626 -3.9529 3.09921 0
M  V30 2320 C 221.62 -3.89725 5.04374 0
M  V30 2321 C 219.307 -4.20941 4.43004 0
M  V30 2322 C 220.305 -4.18147 5.40039 0
M  V30 2323 O 219.993 -4.43153 6.70724 0
M  V30 2324 H 219.725 -0.597114 0.316908 0
M  V30 2325 H 222.279 -1.41782 1.48617 0
M  V30 2326 H 220.509 -3.81826 0.611999 0
M  V30 2327 H 222.198 -3.92986 1.01573 0
M  V30 2328 H 222.964 -3.41389 3.44498 0
M  V30 2329 H 218.843 -3.966 2.35009 0
M  V30 2330 H 222.387 -3.8746 5.80104 0
M  V30 2331 H 218.284 -4.42761 4.69716 0
M  V30 2332 H 219.052 -4.60717 6.76522 0
M  V30 2333 N 221.715 -0.905404 -1.28997 0
M  V30 2334 C 222.678 -0.392253 -2.25819 0
M  V30 2335 C 223.678 0.476753 -1.5357 0
M  V30 2336 O 224.868 0.280994 -1.71919 0
M  V30 2337 C 222 0.438588 -3.38067 0
M  V30 2338 H 223.193 -1.24743 -2.72725 0
M  V30 2339 H 220.746 -0.684051 -1.40536 0
M  V30 2340 H 221.481 1.31352 -2.96508 0
M  V30 2341 H 221.266 -0.184167 -3.91667 0
M  V30 2342 H 222.756 0.78873 -4.10084 0
M  V30 2343 N 223.193 1.4272 -0.668489 0
M  V30 2344 C 224.609 1.55992 -0.33745 0
M  V30 2345 C 224.809 1.64933 1.15756 0
M  V30 2346 O 223.865 1.61278 1.94282 0
M  V30 2347 C 225.178 2.81314 -1.06222 0
M  V30 2348 C 226.726 2.95078 -1.04394 0
M  V30 2349 C 227.201 4.23252 -1.74991 0
M  V30 2350 N 228.692 4.3015 -1.71829 0
M  V30 2351 C 229.427 5.28127 -2.23315 0
M  V30 2352 N 228.923 6.32293 -2.83156 0
M  V30 2353 N 230.716 5.19882 -2.13726 0
M  V30 2354 H 222.867 1.3516 -1.63846 0
M  V30 2355 H 225.13 0.650174 -0.689912 0
M  V30 2356 H 224.836 2.80823 -2.11734 0
M  V30 2357 H 224.71 3.72012 -0.62344 0
M  V30 2358 H 227.097 2.951 0.0028244 0
M  V30 2359 H 227.178 2.05627 -1.52155 0
M  V30 2360 H 226.822 4.2399 -2.79633 0
M  V30 2361 H 226.752 5.11626 -1.24685 0
M  V30 2362 H 229.243 3.55499 -1.28175 0
M  V30 2363 H 229.556 7.03398 -3.20079 0
M  V30 2364 H 227.901 6.32873 -2.87223 0
M  V30 2365 H 231.092 4.37423 -1.66669 0
M  V30 2366 H 231.265 5.96077 -2.54158 0
M  V30 2367 N 224.671 0.411399 1.52136 0
M  V30 2368 C 225.634 -0.401089 2.25663 0
M  V30 2369 C 226.634 -0.971732 1.28117 0
M  V30 2370 O 227.824 -0.850254 1.52041 0
M  V30 2371 C 224.956 -1.56483 3.02863 0
M  V30 2372 H 226.149 0.24295 2.98914 0
M  V30 2373 H 223.702 0.163968 1.55438 0
M  V30 2374 H 224.437 -2.24567 2.33967 0
M  V30 2375 H 224.222 -1.16211 3.74483 0
M  V30 2376 H 225.712 -2.13951 3.58629 0
M  V30 2377 N 226.149 -1.5696 0.141893 0
M  V30 2378 C 227.397 -1.95573 -0.509484 0
M  V30 2379 C 227.718 -1.02746 -1.65736 0
M  V30 2380 O 226.988 -0.0880311 -1.95702 0
M  V30 2381 H 225.568 -0.722115 -0.191205 0
M  V30 2382 H 228.23 -1.93697 0.216196 0
M  V30 2383 H 227.326 -2.99171 -0.889 0
M  V30 2384 N 227.627 0.131896 -1.57047 0
M  V30 2385 C 228.577 1.1679 -1.95816 0
M  V30 2386 C 229.561 1.37756 -0.831393 0
M  V30 2387 O 230.753 1.39065 -1.09499 0
M  V30 2388 C 227.882 2.49778 -2.35512 0
M  V30 2389 C 226.968 2.32342 -3.54793 0
M  V30 2390 N 227.359 1.8469 -4.70875 0
M  V30 2391 C 225.657 2.63043 -3.60173 0
M  V30 2392 C 226.358 1.80656 -5.52936 0
M  V30 2393 N 225.334 2.24528 -4.95064 0
M  V30 2394 H 229.136 0.791818 -2.83033 0
M  V30 2395 H 226.65 0.339791 -1.58805 0
M  V30 2396 H 228.647 3.24692 -2.61498 0
M  V30 2397 H 227.307 2.88156 -1.49654 0
M  V30 2398 H 228.318 1.54429 -4.9434 0
M  V30 2399 H 224.995 3.05193 -2.84892 0
M  V30 2400 H 226.385 1.45178 -6.56028 0
M  V30 2401 N 229.106 1.52395 0.401703 0
M  V30 2402 C 230.331 1.70972 1.17403 0
M  V30 2403 C 230.756 0.421615 1.83314 0
M  V30 2404 O 230.114 -0.621564 1.70312 0
M  V30 2405 C 230.162 2.85151 2.20728 0
M  V30 2406 O 229.266 2.51238 3.27037 0
M  V30 2407 H 228.607 0.568927 0.342372 0
M  V30 2408 H 231.137 1.99131 0.469891 0
M  V30 2409 H 231.147 3.10279 2.64936 0
M  V30 2410 H 229.822 3.78603 1.7214 0
M  V30 2411 H 228.399 2.36808 2.88057 0
M  V30 2412 N 230.584 -0.659388 1.43143 0
M  V30 2413 C 231.514 -1.78422 1.50625 0
M  V30 2414 C 232.495 -1.66216 0.361443 0
M  V30 2415 O 233.68 -1.85404 0.577834 0
M  V30 2416 C 230.81 -3.16815 1.42287 0
M  V30 2417 C 229.764 -3.43777 2.54954 0
M  V30 2418 C 229.09 -4.81905 2.31671 0
M  V30 2419 C 230.39 -3.39134 3.97222 0
M  V30 2420 H 232.084 -1.72417 2.44771 0
M  V30 2421 H 229.63 -0.828084 1.17808 0
M  V30 2422 H 231.583 -3.95253 1.46127 0
M  V30 2423 H 230.307 -3.23534 0.446435 0
M  V30 2424 H 228.966 -2.67707 2.50457 0
M  V30 2425 H 228.614 -4.85294 1.32284 0
M  V30 2426 H 228.314 -5.00906 3.07192 0
M  V30 2427 H 229.838 -5.62609 2.37284 0
M  V30 2428 H 231.252 -4.07518 4.03239 0
M  V30 2429 H 229.649 -3.69671 4.72719 0
M  V30 2430 H 230.719 -2.37426 4.22797 0
M  V30 2431 N 232.062 -1.29571 -0.897171 0
M  V30 2432 C 233.339 -1.08365 -1.62839 0
M  V30 2433 C 233.719 0.371331 -2.07808 0
M  V30 2434 O 233.067 1.3606 -1.83576 0
M  V30 2435 C 233.277 -2.0735 -2.80726 0
M  V30 2436 C 234.625 -2.38406 -3.51351 0
M  V30 2437 O 235.649 -2.05564 -2.90898 0
M  V30 2438 O 234.508 -2.9453 -4.60341 0
M  V30 2439 H 231.602 -0.415345 -0.715134 0
M  V30 2440 H 234.148 -1.40952 -0.945018 0
M  V30 2441 H 232.92 -3.05339 -2.44711 0
M  V30 2442 H 232.543 -1.75507 -3.56767 0
M  V30 2443 N 233.54 1.10788 -1.12088 0
M  V30 2444 C 234.817 1.79136 -0.785476 0
M  V30 2445 C 235.197 1.98246 0.725377 0
M  V30 2446 O 234.545 1.57258 1.65778 0
M  V30 2447 C 234.755 3.12375 -1.55636 0
M  V30 2448 C 236.103 3.8731 -1.74001 0
M  V30 2449 O 237.127 3.22085 -1.52117 0
M  V30 2450 O 235.986 5.04369 -2.10415 0
M  V30 2451 H 233.08 0.776226 -0.285311 0
M  V30 2452 H 235.626 1.1747 -1.2247 0
M  V30 2453 H 234.398 2.93863 -2.5838 0
M  V30 2454 H 234.021 3.81758 -1.11114 0
M  V30 2455 N 235.018 0.912232 1.28515 0
M  V30 2456 C 235.951 0.343928 2.25593 0
M  V30 2457 C 236.929 -0.550994 1.5298 0
M  V30 2458 O 238.113 -0.494991 1.81885 0
M  V30 2459 C 235.24 -0.508525 3.34861 0
M  V30 2460 C 234.286 0.320808 4.25292 0
M  V30 2461 S 235.119 1.72658 5.06902 0
M  V30 2462 C 236.275 0.881394 6.19663 0
M  V30 2463 H 236.508 1.16674 2.73449 0
M  V30 2464 H 234.041 0.713384 1.36931 0
M  V30 2465 H 235.999 -0.994539 3.9827 0
M  V30 2466 H 234.66 -1.30571 2.85675 0
M  V30 2467 H 233.853 -0.330941 5.02912 0
M  V30 2468 H 233.455 0.74042 3.66598 0
M  V30 2469 H 235.747 0.110359 6.7741 0
M  V30 2470 H 236.69 1.63009 6.89082 0
M  V30 2471 H 237.098 0.430239 5.62858 0
M  V30 2472 N 236.496 -1.42363 0.676048 0
M  V30 2473 C 237.426 -2.33497 0.0124832 0
M  V30 2474 C 238.407 -1.50748 -0.787981 0
M  V30 2475 O 239.592 -1.79346 -0.744884 0
M  V30 2476 C 236.722 -3.34377 -0.938582 0
M  V30 2477 C 235.676 -4.27289 -0.246622 0
M  V30 2478 C 235.002 -5.18386 -1.31071 0
M  V30 2479 C 236.302 -5.14916 0.875125 0
M  V30 2480 H 237.996 -2.89233 0.773593 0
M  V30 2481 H 235.542 -1.39073 0.37346 0
M  V30 2482 H 237.495 -3.97044 -1.41188 0
M  V30 2483 H 236.219 -2.76947 -1.73113 0
M  V30 2484 H 234.878 -3.66018 0.206456 0
M  V30 2485 H 234.526 -4.57282 -2.09528 0
M  V30 2486 H 234.226 -5.81378 -0.852839 0
M  V30 2487 H 235.75 -5.83929 -1.78492 0
M  V30 2488 H 237.164 -5.71262 0.482983 0
M  V30 2489 H 235.561 -5.86747 1.25887 0
M  V30 2490 H 236.631 -4.53242 1.72335 0
M  V30 2491 N 237.974 -0.419461 -1.51915 0
M  V30 2492 C 238.904 0.391813 -2.30189 0
M  V30 2493 C 239.885 1.03699 -1.34836 0
M  V30 2494 O 241.07 1.04403 -1.63748 0
M  V30 2495 C 238.2 1.50312 -3.13087 0
M  V30 2496 C 237.154 0.9824 -4.16573 0
M  V30 2497 C 236.48 2.18809 -4.8788 0
M  V30 2498 C 237.78 0.0292356 -5.22292 0
M  V30 2499 H 239.474 -0.26135 -2.98257 0
M  V30 2500 H 237.02 -0.127134 -1.43438 0
M  V30 2501 H 238.973 2.07773 -3.66617 0
M  V30 2502 H 237.697 2.18431 -2.42807 0
M  V30 2503 H 236.356 0.430119 -3.64068 0
M  V30 2504 H 236.004 2.85507 -4.14119 0
M  V30 2505 H 235.704 1.84615 -5.57845 0
M  V30 2506 H 237.228 2.76858 -5.44226 0
M  V30 2507 H 238.642 0.512976 -5.71 0
M  V30 2508 H 237.039 -0.2244 -5.9968 0
M  V30 2509 H 238.109 -0.912931 -4.76228 0
M  V30 2510 N 239.452 1.56882 -0.150215 0
M  V30 2511 C 240.729 1.87844 0.545327 0
M  V30 2512 C 241.109 1.0567 1.82749 0
M  V30 2513 O 240.457 0.144442 2.28043 0
M  V30 2514 C 240.667 3.39526 0.80767 0
M  V30 2515 C 242.015 4.08814 1.14703 0
M  V30 2516 O 243.039 3.44723 0.896917 0
M  V30 2517 O 241.898 5.22004 1.61784 0
M  V30 2518 H 238.992 0.778677 0.278553 0
M  V30 2519 H 241.538 1.68666 -0.187068 0
M  V30 2520 H 240.31 3.91173 -0.0996096 0
M  V30 2521 H 239.933 3.64243 1.59413 0
M  V30 2522 N 240.93 -0.123565 1.57115 0
M  V30 2523 C 242.17 -0.838097 1.86428 0
M  V30 2524 C 242.534 -1.77266 0.737611 0
M  V30 2525 O 243.735 -2.52842 0.912389 0
M  V30 2526 C 242.006 -1.57219 3.20962 0
M  V30 2527 S 243.565 -2.32893 3.71896 0
M  V30 2528 H 240.383 -0.279811 0.653626 0
M  V30 2529 H 242.985 -0.0967034 1.95261 0
M  V30 2530 H 241.689 -0.877522 4.00909 0
M  V30 2531 H 241.22 -2.35405 3.15195 0
M  V30 2532 H 243.235 -3.5853 3.43032 0
M  V30 2533 N 242.408 -1.52605 -0.393616 0
M  V30 2534 C 243.824 -1.41753 -0.733357 0
M  V30 2535 C 244.024 -0.534293 -1.94287 0
M  V30 2536 O 243.08 -0.0059787 -2.52499 0
M  V30 2537 C 244.393 -2.84531 -0.972772 0
M  V30 2538 C 245.941 -2.93978 -1.07453 0
M  V30 2539 C 246.416 -4.37756 -1.3466 0
M  V30 2540 N 247.907 -4.4106 -1.41492 0
M  V30 2541 C 248.642 -5.49387 -1.642 0
M  V30 2542 N 248.138 -6.67806 -1.8441 0
M  V30 2543 N 249.931 -5.36923 -1.66342 0
M  V30 2544 H 242.082 -2.08555 0.402328 0
M  V30 2545 H 244.345 -0.940654 0.117789 0
M  V30 2546 H 244.051 -3.51353 -0.156204 0
M  V30 2547 H 243.925 -3.26508 -1.88871 0
M  V30 2548 H 246.312 -2.27326 -1.88167 0
M  V30 2549 H 246.393 -2.55435 -0.136605 0
M  V30 2550 H 246.037 -5.04972 -0.544581 0
M  V30 2551 H 245.967 -4.73848 -2.2973 0
M  V30 2552 H 248.458 -3.55705 -1.27601 0
M  V30 2553 H 248.771 -7.46141 -2.01231 0
M  V30 2554 H 247.116 -6.70843 -1.81644 0
M  V30 2555 H 250.307 -4.43381 -1.50102 0
M  V30 2556 H 250.48 -6.21416 -1.837 0
M  V30 2557 N 243.887 0.651787 -1.4349 0
M  V30 2558 C 245.134 1.41167 -1.45183 0
M  V30 2559 C 245.462 1.94349 -0.0766601 0
M  V30 2560 O 244.717 1.72804 0.918555 0
M  V30 2561 C 245.016 2.60914 -2.44251 0
M  V30 2562 C 244.682 2.26142 -3.9009 0
M  V30 2563 C 243.344 2.16371 -4.2981 0
M  V30 2564 C 245.696 1.98334 -4.81989 0
M  V30 2565 C 243.024 1.7695 -5.5938 0
M  V30 2566 C 245.376 1.6041 -6.11924 0
M  V30 2567 C 244.04 1.49166 -6.5062 0
M  V30 2568 H 243.31 0.516566 -0.531263 0
M  V30 2569 H 245.957 0.741099 -1.76579 0
M  V30 2570 H 244.262 3.3311 -2.06265 0
M  V30 2571 H 245.959 3.19127 -2.42815 0
M  V30 2572 H 242.549 2.34658 -3.58655 0
M  V30 2573 H 246.733 2.04803 -4.52072 0
M  V30 2574 H 241.989 1.66831 -5.88198 0
M  V30 2575 H 246.163 1.37925 -6.82605 0
M  V30 2576 H 243.79 1.1839 -7.50925 0
M  V30 2577 N 245.365 1.30045 0.890287 0
M  V30 2578 C 246.781 1.08261 1.17268 0
M  V30 2579 C 246.981 -0.160063 2.00863 0
M  V30 2580 O 246.037 -0.855181 2.37577 0
M  V30 2581 C 247.35 2.34323 1.8845 0
M  V30 2582 C 248.898 2.39735 2.01237 0
M  V30 2583 C 249.373 3.65625 2.7583 0
M  V30 2584 N 250.864 3.66402 2.83379 0
M  V30 2585 C 251.599 4.60498 3.41657 0
M  V30 2586 N 251.095 5.64933 4.01026 0
M  V30 2587 N 252.888 4.48051 3.39421 0
M  V30 2588 H 245.039 2.09777 0.332762 0
M  V30 2589 H 247.302 0.92446 0.209948 0
M  V30 2590 H 247.008 3.2498 1.34465 0
M  V30 2591 H 246.882 2.4256 2.88867 0
M  V30 2592 H 249.269 1.4956 2.54393 0
M  V30 2593 H 249.35 2.35476 0.999232 0
M  V30 2594 H 248.994 4.56156 2.23347 0
M  V30 2595 H 248.924 3.67144 3.77509 0
M  V30 2596 H 251.415 2.90896 2.41222 0
M  V30 2597 H 251.728 6.32841 4.43545 0
M  V30 2598 H 250.073 5.68732 3.99461 0
M  V30 2599 H 253.264 3.65649 2.92264 0
M  V30 2600 H 253.437 5.21565 3.84544 0
M  V30 2601 N 246.843 -1.10192 1.12674 0
M  V30 2602 C 248.091 -1.81845 0.881861 0
M  V30 2603 C 248.412 -1.85737 -0.593867 0
M  V30 2604 O 247.682 -1.33724 -1.4316 0
M  V30 2605 H 246.262 -0.673432 0.323261 0
M  V30 2606 H 248.924 -1.33316 1.42172 0
M  V30 2607 H 248.02 -2.85288 1.2656 0
M  V30 2608 N 248.321 -0.919034 -1.28029 0
M  V30 2609 C 249.253 -0.368762 -2.26214 0
M  V30 2610 C 250.266 0.495716 -1.55069 0
M  V30 2611 O 251.455 0.30974 -1.75792 0
M  V30 2612 C 248.555 0.491049 -3.35324 0
M  V30 2613 C 247.728 -0.352133 -4.3598 0
M  V30 2614 C 246.787 0.443622 -5.24327 0
M  V30 2615 O 245.813 -0.14566 -5.69014 0
M  V30 2616 N 247.015 1.74545 -5.53637 0
M  V30 2617 H 249.78 -1.21273 -2.74068 0
M  V30 2618 H 247.341 -0.785541 -1.41566 0
M  V30 2619 H 249.333 1.03026 -3.91366 0
M  V30 2620 H 247.903 1.23574 -2.87138 0
M  V30 2621 H 247.123 -1.07269 -3.79324 0
M  V30 2622 H 248.411 -0.928883 -5.00249 0
M  V30 2623 H 247.809 2.24666 -5.19174 0
M  V30 2624 H 246.366 2.23138 -6.12416 0
M  V30 2625 N 249.799 1.42003 -0.683588 0
M  V30 2626 C 251.21 1.84501 -0.285736 0
M  V30 2627 C 251.561 1.57213 1.17382 0
M  V30 2628 O 250.686 1.03642 1.89966 0
M  V30 2629 C 251.281 3.34912 -0.511821 0
M  V30 2630 C 249.84 3.76025 -0.168005 0
M  V30 2631 C 248.987 2.6551 -0.799983 0
M  V30 2632 H 251.938 1.31724 -0.885119 0
M  V30 2633 H 251.959 3.79784 0.233292 0
M  V30 2634 H 251.471 3.54741 -1.57418 0
M  V30 2635 H 249.572 3.61801 0.890567 0
M  V30 2636 H 249.685 4.75141 -0.614661 0
M  V30 2637 H 248.049 2.53654 -0.230568 0
M  V30 2638 H 248.832 2.8816 -1.86597 0
M  V30 2639 N 251.277 0.427512 1.51691 0
M  V30 2640 C 252.517 -0.141524 2.03909 0
M  V30 2641 C 252.881 -1.40811 1.30523 0
M  V30 2642 O 254.082 -2.05676 1.73063 0
M  V30 2643 C 252.353 -0.364962 3.55532 0
M  V30 2644 S 253.912 -0.898812 4.29496 0
M  V30 2645 H 250.73 -0.0364542 0.710065 0
M  V30 2646 H 253.332 0.584659 1.86553 0
M  V30 2647 H 252.036 0.56336 4.06515 0
M  V30 2648 H 251.567 -1.1185 3.77164 0
M  V30 2649 H 253.582 -2.17747 4.45871 0
M  V30 2650 N 252.755 -1.56801 0.158532 0
M  V30 2651 C 254.003 -1.96102 -0.488712 0
M  V30 2652 C 254.324 -1.04498 -1.64636 0
M  V30 2653 O 253.594 -0.108783 -1.95598 0
M  V30 2654 H 252.174 -0.724102 -0.183535 0
M  V30 2655 H 254.836 -1.93457 0.236728 0
M  V30 2656 H 253.932 -3.00097 -0.857219 0
M  V30 2657 N 254.233 0.115231 -1.57178 0
M  V30 2658 C 255.644 0.67197 -1.74188 0
M  V30 2659 C 255.995 1.80125 -0.777777 0
M  V30 2660 O 255.12 2.16346 0.0484376 0
M  V30 2661 C 255.715 1.22573 -3.1585 0
M  V30 2662 C 254.274 1.72872 -3.34353 0
M  V30 2663 C 253.421 0.629972 -2.70049 0
M  V30 2664 H 256.372 -0.110712 -1.58313 0
M  V30 2665 H 256.393 2.09535 -3.17609 0
M  V30 2666 H 255.905 0.403598 -3.85996 0
M  V30 2667 H 254.006 2.5755 -2.69256 0
M  V30 2668 H 254.119 1.83557 -4.42542 0
M  V30 2669 H 252.483 1.0645 -2.31388 0
M  V30 2670 H 253.266 -0.181241 -3.42821 0
M  V30 2671 N 255.711 1.52812 0.385517 0
M  V30 2672 C 256.621 1.80766 1.49535 0
M  V30 2673 C 257.637 0.694651 1.59532 0
M  V30 2674 O 258.813 0.982611 1.75803 0
M  V30 2675 C 255.878 1.97381 2.85029 0
M  V30 2676 C 254.939 3.21295 2.84724 0
M  V30 2677 C 254.172 3.37108 4.13756 0
M  V30 2678 O 254.395 2.5765 5.08893 0
M  V30 2679 O 253.329 4.30378 4.20783 0
M  V30 2680 H 257.155 2.75015 1.28842 0
M  V30 2681 H 254.74 1.37946 0.573697 0
M  V30 2682 H 256.622 2.09996 3.65349 0
M  V30 2683 H 255.297 1.06322 3.05741 0
M  V30 2684 H 254.204 3.1412 2.03174 0
M  V30 2685 H 255.537 4.12212 2.68965 0
M  V30 2686 N 257.189 -0.644168 1.43834 0
M  V30 2687 C 258.137 -1.77793 1.49974 0
M  V30 2688 C 259.131 -1.65253 0.372536 0
M  V30 2689 O 260.337 -1.7149 0.546924 0
M  V30 2690 H 256.712 -0.58675 0.47035 0
M  V30 2691 H 258.683 -1.69736 2.45423 0
M  V30 2692 C 257.432 -3.16087 1.4486 0
M  V30 2693 H 256.755 -3.26378 2.30905 0
M  V30 2694 H 258.195 -3.95349 1.53217 0
M  V30 2695 C 256.654 -3.36484 0.167463 0
M  V30 2696 O 257.184 -3.94298 -0.767609 0
M  V30 2697 N 255.39 -2.90504 0.0747556 0
M  V30 2698 H 254.937 -2.4364 0.836507 0
M  V30 2699 H 254.895 -3.04527 -0.781714 0
M  V30 2700 N 258.668 -1.30515 -0.883378 0
M  V30 2701 C 259.915 -1.1943 -1.63532 0
M  V30 2702 C 260.243 0.250627 -1.92878 0
M  V30 2703 O 259.498 1.19556 -1.54935 0
M  V30 2704 C 259.797 -1.96994 -2.98209 0
M  V30 2705 C 259.463 -3.466 -2.88408 0
M  V30 2706 C 258.125 -3.87397 -2.85442 0
M  V30 2707 C 260.477 -4.41863 -2.76418 0
M  V30 2708 C 257.805 -5.21745 -2.68327 0
M  V30 2709 C 260.157 -5.7632 -2.60841 0
M  V30 2710 C 258.821 -6.16354 -2.56251 0
M  V30 2711 H 258.091 -0.437025 -0.598406 0
M  V30 2712 H 260.738 -1.61635 -1.02696 0
M  V30 2713 H 259.043 -1.47429 -3.63004 0
M  V30 2714 H 260.74 -1.85808 -3.55354 0
M  V30 2715 H 257.33 -3.14182 -2.91527 0
M  V30 2716 H 261.514 -4.11285 -2.77775 0
M  V30 2717 H 256.77 -5.51853 -2.63189 0
M  V30 2718 H 260.944 -6.49772 -2.50538 0
M  V30 2719 H 258.571 -7.20401 -2.42748 0
M  V30 2720 N 260.146 1.09593 -1.13257 0
M  V30 2721 C 261.374 1.855 -0.916378 0
M  V30 2722 C 261.789 1.81069 0.534738 0
M  V30 2723 O 261.146 1.20562 1.37007 0
M  V30 2724 C 261.197 3.33546 -1.39388 0
M  V30 2725 O 260.918 3.37927 -2.78813 0
M  V30 2726 C 262.419 4.26299 -1.21588 0
M  V30 2727 H 259.639 0.585991 -0.326887 0
M  V30 2728 H 262.183 1.38488 -1.5047 0
M  V30 2729 H 260.338 3.77992 -0.848597 0
M  V30 2730 H 260.752 4.30254 -2.9997 0
M  V30 2731 H 262.226 5.28341 -1.59876 0
M  V30 2732 H 262.703 4.38918 -0.157376 0
M  V30 2733 H 263.309 3.87668 -1.7491 0
M  V30 2734 N 261.624 0.925811 1.2754 0
M  V30 2735 C 262.852 0.581509 1.9856 0
M  V30 2736 C 263.267 -0.840041 1.69082 0
M  V30 2737 O 262.624 -1.55805 0.950312 0
M  V30 2738 C 262.675 0.795589 3.52637 0
M  V30 2739 O 262.396 2.16121 3.81082 0
M  V30 2740 C 263.897 0.459744 4.4091 0
M  V30 2741 H 261.117 0.220538 0.633722 0
M  V30 2742 H 263.661 1.24232 1.6244 0
M  V30 2743 H 261.816 0.18161 3.86974 0
M  V30 2744 H 262.23 2.2098 4.75676 0
M  V30 2745 H 263.704 0.660244 5.48037 0
M  V30 2746 H 264.181 -0.604625 4.35018 0
M  V30 2747 H 264.787 1.05178 4.12089 0
M  V30 2748 N 263.102 -1.41638 0.69111 0
M  V30 2749 C 264.351 -2.00526 0.217318 0
M  V30 2750 C 264.664 -1.55353 -1.18848 0
M  V30 2751 O 265.87 -2.06769 -1.75951 0
M  V30 2752 C 264.326 -3.58313 0.337639 0
M  V30 2753 C 263.934 -4.12469 1.74852 0
M  V30 2754 C 265.678 -4.24431 -0.0766066 0
M  V30 2755 C 263.585 -5.62675 1.82074 0
M  V30 2756 H 262.515 -0.750008 0.0774893 0
M  V30 2757 H 265.166 -1.6217 0.858661 0
M  V30 2758 H 263.548 -3.9425 -0.371879 0
M  V30 2759 H 264.722 -3.8796 2.48644 0
M  V30 2760 H 263.037 -3.58861 2.11205 0
M  V30 2761 H 265.634 -5.34683 -0.0430284 0
M  V30 2762 H 265.977 -4.01101 -1.1146 0
M  V30 2763 H 266.51 -3.93512 0.582476 0
M  V30 2764 H 263.249 -5.90826 2.83911 0
M  V30 2765 H 262.769 -5.89124 1.12661 0
M  V30 2766 H 264.448 -6.27371 1.58159 0
M  V30 2767 N 264.58 -0.43555 -1.51462 0
M  V30 2768 C 265.827 0.131514 -2.02072 0
M  V30 2769 C 266.155 1.42868 -1.31981 0
M  V30 2770 O 265.41 1.91076 -0.422883 0
M  V30 2771 C 265.709 0.39942 -3.55161 0
M  V30 2772 C 265.375 -0.81172 -4.43533 0
M  V30 2773 C 264.037 -1.14387 -4.67407 0
M  V30 2774 C 266.389 -1.61976 -4.95392 0
M  V30 2775 C 263.717 -2.28477 -5.40384 0
M  V30 2776 C 266.069 -2.75164 -5.6962 0
M  V30 2777 C 264.733 -3.08835 -5.91758 0
M  V30 2778 H 264.003 0.0481244 -0.739436 0
M  V30 2779 H 266.65 -0.58238 -1.8243 0
M  V30 2780 H 264.955 1.19519 -3.73125 0
M  V30 2781 H 266.652 0.85157 -3.91854 0
M  V30 2782 H 263.242 -0.542898 -4.25148 0
M  V30 2783 H 267.426 -1.37637 -4.76833 0
M  V30 2784 H 262.682 -2.5488 -5.55739 0
M  V30 2785 H 266.856 -3.38147 -6.08793 0
M  V30 2786 H 264.483 -3.97353 -6.48086 0
M  V30 2787 N 266.058 1.56714 -0.166846 0
M  V30 2788 C 267.286 2.0112 0.485644 0
M  V30 2789 C 267.701 1.04705 1.57106 0
M  V30 2790 O 267.058 0.0471923 1.82439 0
M  V30 2791 C 267.109 3.45361 1.06808 0
M  V30 2792 O 266.83 4.38092 0.0259995 0
M  V30 2793 C 268.331 4.05145 1.79924 0
M  V30 2794 H 265.551 0.65931 0.124704 0
M  V30 2795 H 268.095 2.02746 -0.267262 0
M  V30 2796 H 266.25 3.44524 1.7715 0
M  V30 2797 H 266.664 5.22519 0.455398 0
M  V30 2798 H 268.138 5.08009 2.15942 0
M  V30 2799 H 268.615 3.46982 2.69258 0
M  V30 2800 H 269.221 4.09672 1.14234 0
M  V30 2801 N 267.536 -0.106894 1.57237 0
M  V30 2802 C 268.952 -0.46078 1.52804 0
M  V30 2803 C 269.152 -1.81184 0.881746 0
M  V30 2804 O 268.208 -2.48102 0.469224 0
M  V30 2805 C 269.521 -0.434127 2.9755 0
M  V30 2806 C 271.069 -0.516821 3.08704 0
M  V30 2807 C 271.544 -0.520436 4.55033 0
M  V30 2808 N 273.035 -0.58153 4.59535 0
M  V30 2809 C 273.77 -0.605973 5.70189 0
M  V30 2810 N 273.266 -0.587331 6.90306 0
M  V30 2811 N 275.059 -0.649895 5.5833 0
M  V30 2812 H 267.21 0.778203 1.9763 0
M  V30 2813 H 269.473 0.288403 0.903066 0
M  V30 2814 H 269.179 0.491197 3.48253 0
M  V30 2815 H 269.053 -1.25748 3.55622 0
M  V30 2816 H 271.44 -1.43256 2.57995 0
M  V30 2817 H 271.521 0.334449 2.53604 0
M  V30 2818 H 271.165 0.391313 5.0639 0
M  V30 2819 H 271.095 -1.38876 5.07958 0
M  V30 2820 H 273.586 -0.60161 3.73081 0
M  V30 2821 H 273.899 -0.60894 7.70397 0
M  V30 2822 H 272.244 -0.554564 6.92784 0
M  V30 2823 H 275.435 -0.661907 4.63397 0
M  V30 2824 H 275.608 -0.665476 6.44574 0
M  V30 2825 N 269.014 -1.53014 -0.377408 0
M  V30 2826 C 269.947 -1.73382 -1.48371 0
M  V30 2827 C 270.925 -0.581879 -1.51832 0
M  V30 2828 O 272.109 -0.81307 -1.70063 0
M  V30 2829 C 269.236 -1.80192 -2.8679 0
M  V30 2830 C 268.282 -3.02056 -3.01105 0
M  V30 2831 S 269.115 -4.61811 -2.71093 0
M  V30 2832 C 270.271 -4.71453 -4.11683 0
M  V30 2833 H 270.504 -2.66946 -1.30872 0
M  V30 2834 H 268.037 -1.43453 -0.571012 0
M  V30 2835 H 269.995 -1.84802 -3.6655 0
M  V30 2836 H 268.656 -0.877008 -3.01608 0
M  V30 2837 H 267.849 -3.03396 -4.02451 0
M  V30 2838 H 267.451 -2.95498 -2.29253 0
M  V30 2839 H 269.743 -4.50781 -5.0577 0
M  V30 2840 H 270.686 -5.73487 -4.15353 0
M  V30 2841 H 271.094 -4.00189 -3.98132 0
M  V30 2842 N 270.492 0.636531 -1.44174 0
M  V30 2843 C 271.74 1.39343 -1.46383 0
M  V30 2844 C 272.061 1.94766 -0.0955715 0
M  V30 2845 O 271.331 1.75452 0.871395 0
M  V30 2846 H 269.911 0.517199 -0.538994 0
M  V30 2847 H 272.573 0.74957 -1.7991 0
M  V30 2848 H 271.669 2.22746 -2.18611 0
M  V30 2849 N 271.97 1.30982 0.876444 0
M  V30 2850 C 272.917 1.18085 1.98304 0
M  V30 2851 C 273.887 0.0682263 1.6596 0
M  V30 2852 O 275.072 0.239937 1.89285 0
M  V30 2853 C 272.212 0.887475 3.33493 0
M  V30 2854 C 271.325 2.08281 3.78475 0
M  V30 2855 C 270.46 1.72678 5.0235 0
M  V30 2856 C 269.499 2.88657 5.39762 0
M  V30 2857 N 268.636 2.53292 6.54819 0
M  V30 2858 H 273.476 2.1275 2.08666 0
M  V30 2859 H 271.013 1.05839 1.02159 0
M  V30 2860 H 272.971 0.697961 4.1132 0
M  V30 2861 H 271.601 -0.022315 3.22792 0
M  V30 2862 H 270.653 2.3833 2.96484 0
M  V30 2863 H 271.965 2.95108 4.02135 0
M  V30 2864 H 271.119 1.50151 5.87826 0
M  V30 2865 H 269.858 0.830327 4.8058 0
M  V30 2866 H 268.863 3.1184 4.52809 0
M  V30 2867 H 270.088 3.79002 5.63502 0
M  V30 2868 H 268.034 1.66163 6.34607 0
M  V30 2869 H 267.951 3.3365 6.7839 0
M  V30 2870 H 269.219 2.34143 7.43503 0
M  V30 2871 N 273.449 -1.08991 1.13837 0
M  V30 2872 C 274.689 -1.82867 0.913183 0
M  V30 2873 C 275.053 -1.83936 -0.550604 0
M  V30 2874 O 276.254 -2.53515 -0.893515 0
M  V30 2875 C 274.525 -3.24843 1.49036 0
M  V30 2876 S 276.084 -4.15669 1.40588 0
M  V30 2877 H 272.902 -0.630278 0.329046 0
M  V30 2878 H 275.504 -1.31049 1.45073 0
M  V30 2879 H 274.208 -3.21644 2.54899 0
M  V30 2880 H 273.739 -3.81734 0.950947 0
M  V30 2881 H 275.754 -4.94686 0.387353 0
M  V30 2882 N 274.927 -0.932562 -1.27047 0
M  V30 2883 C 276.157 -0.591173 -1.97961 0
M  V30 2884 C 276.565 0.836219 -1.69717 0
M  V30 2885 O 275.908 1.56801 -0.957036 0
M  V30 2886 C 275.97 -0.743082 -3.51736 0
M  V30 2887 C 275.634 -2.1435 -4.03613 0
M  V30 2888 C 276.631 -3.11815 -4.16014 0
M  V30 2889 C 274.316 -2.46175 -4.37839 0
M  V30 2890 C 276.31 -4.39211 -4.61923 0
M  V30 2891 C 273.997 -3.73806 -4.83438 0
M  V30 2892 C 274.995 -4.70137 -4.95439 0
M  V30 2893 O 274.683 -5.95496 -5.40037 0
M  V30 2894 H 274.415 -0.222375 -0.638377 0
M  V30 2895 H 276.969 -1.25317 -1.62742 0
M  V30 2896 H 275.199 -0.0239739 -3.86693 0
M  V30 2897 H 276.888 -0.40603 -4.03864 0
M  V30 2898 H 277.654 -2.88549 -3.89826 0
M  V30 2899 H 273.533 -1.71936 -4.27737 0
M  V30 2900 H 277.077 -5.14404 -4.71205 0
M  V30 2901 H 272.974 -3.96888 -5.09068 0
M  V30 2902 H 273.742 -5.98554 -5.58279 0
M  V30 2903 N 276.405 1.4127 -0.698611 0
M  V30 2904 C 277.633 2.05503 -0.239992 0
M  V30 2905 C 278.048 1.52584 1.11191 0
M  V30 2906 O 277.405 0.675323 1.69545 0
M  V30 2907 C 277.456 3.60987 -0.192429 0
M  V30 2908 O 277.177 4.1195 -1.49094 0
M  V30 2909 C 278.678 4.42371 0.28681 0
M  V30 2910 H 275.898 0.661748 -0.111045 0
M  V30 2911 H 278.442 1.80987 -0.95205 0
M  V30 2912 H 276.597 3.84533 0.470472 0
M  V30 2913 H 277.011 5.06018 -1.38007 0
M  V30 2914 H 278.485 5.51344 0.26896 0
M  V30 2915 H 278.962 4.18699 1.32619 0
M  V30 2916 H 279.568 4.23897 -0.345201 0
M  V30 2917 N 277.883 0.443576 1.51229 0
M  V30 2918 C 279.13 -0.120796 2.02139 0
M  V30 2919 C 279.458 -1.42166 1.32736 0
M  V30 2920 O 278.713 -1.90849 0.43301 0
M  V30 2921 C 279.012 -0.380579 3.55368 0
M  V30 2922 C 278.678 0.83523 4.43097 0
M  V30 2923 C 277.34 1.16864 4.66794 0
M  V30 2924 C 279.692 1.64601 4.94526 0
M  V30 2925 C 277.02 2.31339 5.39165 0
M  V30 2926 C 279.372 2.78181 5.68153 0
M  V30 2927 C 278.036 3.11969 5.90112 0
M  V30 2928 H 277.306 -0.0442023 0.73968 0
M  V30 2929 H 279.953 0.592046 1.82118 0
M  V30 2930 H 278.258 -1.17538 3.73754 0
M  V30 2931 H 279.955 -0.830777 3.923 0
M  V30 2932 H 276.545 0.565437 4.24854 0
M  V30 2933 H 280.729 1.40163 4.76097 0
M  V30 2934 H 275.985 2.57823 5.5438 0
M  V30 2935 H 280.159 3.41371 6.06992 0
M  V30 2936 H 277.786 4.00784 6.45969 0
M  V30 2937 N 279.361 -1.56624 0.175154 0
M  V30 2938 C 280.309 -2.19468 -0.770495 0
M  V30 2939 C 281.303 -1.15985 -1.23466 0
M  V30 2940 O 282.509 -1.34176 -1.19987 0
M  V30 2941 H 278.884 -0.703095 -0.266761 0
M  V30 2942 H 280.855 -2.97613 -0.216542 0
M  V30 2943 C 279.604 -2.85264 -1.98796 0
M  V30 2944 H 278.927 -3.64623 -1.63983 0
M  V30 2945 H 280.367 -3.327 -2.62843 0
M  V30 2946 C 278.826 -1.85239 -2.81404 0
M  V30 2947 O 279.356 -1.34024 -3.78682 0
M  V30 2948 N 277.562 -1.53911 -2.46495 0
M  V30 2949 H 277.109 -1.95751 -1.67449 0
M  V30 2950 H 277.067 -0.872382 -3.02054 0
M  V30 2951 N 280.839 0.0985539 -1.57292 0
M  V30 2952 C 282.064 0.820196 -1.90493 0
M  V30 2953 C 282.489 1.71658 -0.769094 0
M  V30 2954 O 281.847 1.79133 0.279495 0
M  V30 2955 C 281.895 1.61242 -3.22542 0
M  V30 2956 O 280.999 2.72108 -3.09888 0
M  V30 2957 H 280.34 0.225547 -0.62452 0
M  V30 2958 H 282.87 0.0748159 -2.04463 0
M  V30 2959 H 282.88 1.99737 -3.55766 0
M  V30 2960 H 281.555 0.954535 -4.04798 0
M  V30 2961 H 280.132 2.36667 -2.88172 0
M  V30 2962 N 282.317 1.53212 0.369288 0
M  V30 2963 C 283.565 1.68881 1.11012 0
M  V30 2964 C 283.886 0.441285 1.89941 0
M  V30 2965 O 283.156 -0.544623 1.88177 0
M  V30 2966 H 281.736 0.622569 0.412816 0
M  V30 2967 H 284.398 1.90391 0.416802 0
M  V30 2968 H 283.494 2.54822 1.80201 0
M  V30 2969 N 283.795 -0.628877 1.44509 0
M  V30 2970 C 284.758 -1.72263 1.51188 0
M  V30 2971 C 285.758 -1.55907 0.39367 0
M  V30 2972 O 286.948 -1.61361 0.656377 0
M  V30 2973 C 284.08 -3.11365 1.38798 0
M  V30 2974 H 285.273 -1.67714 2.4862 0
M  V30 2975 H 282.826 -0.842737 1.31634 0
M  V30 2976 H 283.561 -3.21507 0.424693 0
M  V30 2977 H 283.346 -3.24644 2.19884 0
M  V30 2978 H 284.836 -3.91075 1.46458 0
M  V30 2979 N 285.273 -1.31445 -0.869486 0
M  V30 2980 C 286.55 -1.11795 -1.60503 0
M  V30 2981 C 286.93 0.327168 -2.08549 0
M  V30 2982 O 286.278 1.32135 -1.8642 0
M  V30 2983 C 286.488 -2.13258 -2.76265 0
M  V30 2984 C 287.836 -2.45805 -3.46215 0
M  V30 2985 O 288.86 -2.11688 -2.86473 0
M  V30 2986 O 287.719 -3.04228 -4.5399 0
M  V30 2987 H 284.813 -0.430421 -0.706163 0
M  V30 2988 H 287.359 -1.42925 -0.914907 0
M  V30 2989 H 286.131 -3.10461 -2.3818 0
M  V30 2990 H 285.754 -1.83035 -3.52964 0
M  V30 2991 N 286.751 1.08385 -1.14413 0
M  V30 2992 C 287.999 1.80419 -0.910679 0
M  V30 2993 C 288.32 1.86658 0.564243 0
M  V30 2994 O 287.59 1.35985 1.41014 0
M  V30 2995 H 286.17 0.668204 -0.333934 0
M  V30 2996 H 288.832 1.31037 -1.44275 0
M  V30 2997 H 287.928 2.83238 -1.31082 0
M  V30 2998 N 288.23 0.939286 1.26551 0
M  V30 2999 C 289.193 0.451987 2.24699 0
M  V30 3000 C 290.193 -0.435869 1.5478 0
M  V30 3001 O 291.383 -0.235314 1.72603 0
M  V30 3002 C 288.515 -0.348801 3.39111 0
M  V30 3003 H 289.708 1.3193 2.69322 0
M  V30 3004 H 287.261 0.721072 1.38673 0
M  V30 3005 H 287.996 -1.23444 2.99887 0
M  V30 3006 H 287.781 0.287945 3.91041 0
M  V30 3007 H 289.271 -0.679726 4.12031 0
M  V30 3008 N 289.708 -1.40897 0.706093 0
M  V30 3009 C 290.618 -2.3455 0.0482286 0
M  V30 3010 C 291.634 -1.56796 -0.754396 0
M  V30 3011 O 292.81 -1.89228 -0.689538 0
M  V30 3012 C 289.875 -3.35625 -0.869303 0
M  V30 3013 C 288.936 -4.29261 -0.0576994 0
M  V30 3014 C 288.169 -5.25508 -0.931531 0
M  V30 3015 O 288.392 -5.27472 -2.17092 0
M  V30 3016 O 287.326 -6.00727 -0.375587 0
M  V30 3017 H 291.152 -2.92407 0.820476 0
M  V30 3018 H 288.737 -1.4193 0.4665 0
M  V30 3019 H 290.619 -3.97635 -1.39514 0
M  V30 3020 H 289.294 -2.80196 -1.62086 0
M  V30 3021 H 288.201 -3.70566 0.512988 0
M  V30 3022 H 289.534 -4.87817 0.655426 0
M  V30 3023 N 291.186 -0.45159 -1.50991 0
M  V30 3024 C 292.116 0.342898 -2.30969 0
M  V30 3025 C 293.097 1.00815 -1.37005 0
M  V30 3026 O 294.282 1.00907 -1.65926 0
M  V30 3027 C 291.412 1.43637 -3.16205 0
M  V30 3028 C 290.366 0.893818 -4.18563 0
M  V30 3029 C 289.692 2.08411 -4.92411 0
M  V30 3030 C 290.992 -0.0815568 -5.22236 0
M  V30 3031 H 292.686 -0.324556 -2.97636 0
M  V30 3032 H 290.232 -0.157531 -1.43136 0
M  V30 3033 H 292.185 1.9995 -3.70942 0
M  V30 3034 H 290.909 2.13232 -2.47386 0
M  V30 3035 H 289.568 0.352798 -3.64898 0
M  V30 3036 H 289.216 2.76658 -4.20082 0
M  V30 3037 H 288.916 1.72741 -5.61636 0
M  V30 3038 H 290.44 2.65251 -5.49976 0
M  V30 3039 H 291.854 0.391742 -5.7196 0
M  V30 3040 H 290.251 -0.351551 -5.99069 0
M  V30 3041 H 291.321 -1.01374 -4.74185 0
M  V30 3042 N 292.664 1.56529 -0.183458 0
M  V30 3043 C 293.594 2.21549 0.737456 0
M  V30 3044 C 294.575 1.17489 1.23005 0
M  V30 3045 O 295.76 1.45959 1.281 0
M  V30 3046 C 292.89 2.86575 1.96194 0
M  V30 3047 C 291.844 3.96778 1.60473 0
M  V30 3048 C 291.17 4.48911 2.90487 0
M  V30 3049 C 292.47 5.15767 0.823497 0
M  V30 3050 H 294.164 2.98761 0.195453 0
M  V30 3051 H 291.71 1.43702 0.0925686 0
M  V30 3052 H 293.663 3.30739 2.61131 0
M  V30 3053 H 292.387 2.06749 2.52828 0
M  V30 3054 H 291.046 3.53286 0.978997 0
M  V30 3055 H 290.694 3.65862 3.45186 0
M  V30 3056 H 290.394 5.23265 2.67335 0
M  V30 3057 H 291.918 4.95771 3.56432 0
M  V30 3058 H 293.332 5.56549 1.37571 0
M  V30 3059 H 291.729 5.96114 0.690551 0
M  V30 3060 H 292.799 4.84574 -0.177782 0
M  V30 3061 N 294.142 -0.090211 1.57342 0
M  V30 3062 C 295.37 -0.806224 1.90546 0
M  V30 3063 C 295.785 -1.72041 0.777644 0
M  V30 3064 O 295.142 -1.80778 -0.250103 0
M  V30 3065 C 295.193 -1.61546 3.23396 0
M  V30 3066 O 294.914 -0.738043 4.31839 0
M  V30 3067 C 296.415 -2.4341 3.70495 0
M  V30 3068 H 293.635 -0.230256 0.630257 0
M  V30 3069 H 296.179 -0.0659843 2.04394 0
M  V30 3070 H 294.334 -2.30816 3.11131 0
M  V30 3071 H 294.748 -1.29901 5.08159 0
M  V30 3072 H 296.222 -2.95676 4.66133 0
M  V30 3073 H 296.699 -3.22098 2.98579 0
M  V30 3074 H 297.305 -1.79331 3.85643 0
M  V30 3075 N 295.62 -1.53406 -0.361157 0
M  V30 3076 C 296.848 -1.73717 -1.12383 0
M  V30 3077 C 297.263 -0.468161 -1.82904 0
M  V30 3078 O 296.62 0.559198 -1.73722 0
M  V30 3079 C 296.671 -2.90558 -2.15078 0
M  V30 3080 O 296.392 -4.12549 -1.47428 0
M  V30 3081 C 297.893 -3.22777 -3.03858 0
M  V30 3082 H 295.113 -0.580896 -0.335858 0
M  V30 3083 H 297.657 -2.00167 -0.418728 0
M  V30 3084 H 295.812 -2.66489 -2.8118 0
M  V30 3085 H 296.226 -4.78009 -2.15887 0
M  V30 3086 H 297.7 -4.07927 -3.71887 0
M  V30 3087 H 298.177 -2.38329 -3.68912 0
M  V30 3088 H 298.783 -3.48787 -2.43367 0
M  V30 3089 N 297.098 0.621204 -1.44841 0
M  V30 3090 C 298.326 1.40752 -1.51646 0
M  V30 3091 C 298.741 1.88246 -0.144549 0
M  V30 3092 O 298.098 1.61422 0.851416 0
M  V30 3093 C 298.149 2.62119 -2.4895 0
M  V30 3094 O 297.87 2.16602 -3.80808 0
M  V30 3095 C 299.371 3.55135 -2.65319 0
M  V30 3096 H 296.591 0.431325 -0.514004 0
M  V30 3097 H 299.135 0.758835 -1.899 0
M  V30 3098 H 297.29 3.23058 -2.13805 0
M  V30 3099 H 297.704 2.95358 -4.33433 0
M  V30 3100 H 299.178 4.36874 -3.37409 0
M  V30 3101 H 299.655 4.04592 -1.70886 0
M  V30 3102 H 300.261 3.00058 -3.01405 0
M  V30 3103 N 298.576 1.31904 0.862503 0
M  V30 3104 C 299.992 1.10724 1.14945 0
M  V30 3105 C 300.192 -0.117421 2.01158 0
M  V30 3106 O 299.248 -0.804595 2.39338 0
M  V30 3107 C 300.561 2.38267 1.83437 0
M  V30 3108 C 302.109 2.43949 1.96106 0
M  V30 3109 C 302.584 3.71394 2.68013 0
M  V30 3110 N 304.075 3.72331 2.75543 0
M  V30 3111 C 304.81 4.67641 3.31812 0
M  V30 3112 N 304.306 5.73313 3.88953 0
M  V30 3113 N 306.099 4.5515 3.29841 0
M  V30 3114 H 298.25 2.10436 0.288191 0
M  V30 3115 H 300.513 0.928705 0.190292 0
M  V30 3116 H 300.219 3.27759 1.27542 0
M  V30 3117 H 300.093 2.48633 2.83657 0
M  V30 3118 H 302.48 1.54922 2.51164 0
M  V30 3119 H 302.561 2.37543 0.949059 0
M  V30 3120 H 302.205 4.60791 2.13621 0
M  V30 3121 H 302.135 3.75069 3.69636 0
M  V30 3122 H 304.626 2.95947 2.34997 0
M  V30 3123 H 304.939 6.42107 4.30022 0
M  V30 3124 H 303.284 5.77077 3.87308 0
M  V30 3125 H 306.475 3.71766 2.84443 0
M  V30 3126 H 306.648 5.29604 3.73394 0
M  V30 3127 N 300.054 -1.07777 1.14986 0
M  V30 3128 C 301.302 -1.79934 0.920235 0
M  V30 3129 C 301.623 -1.86955 -0.554336 0
M  V30 3130 O 300.893 -1.36731 -1.40291 0
M  V30 3131 H 299.473 -0.666424 0.337473 0
M  V30 3132 H 302.135 -1.3027 1.44968 0
M  V30 3133 H 301.231 -2.82539 1.32583 0
M  V30 3134 N 301.532 -0.945985 -1.26051 0
M  V30 3135 C 302.78 -0.594941 -1.93145 0
M  V30 3136 C 303.101 0.86953 -1.7454 0
M  V30 3137 O 302.371 1.61838 -1.10387 0
M  V30 3138 H 300.951 -0.217044 -0.714773 0
M  V30 3139 H 303.613 -1.20235 -1.53393 0
M  V30 3140 H 302.709 -0.816835 -3.01221 0
M  V30 3141 N 303.011 1.40521 -0.713556 0
M  V30 3142 C 303.944 2.28198 -0.00881422 0
M  V30 3143 C 304.922 1.43227 0.769735 0
M  V30 3144 O 306.106 1.72641 0.756799 0
M  V30 3145 C 303.233 3.23758 0.994899 0
M  V30 3146 C 302.279 4.25391 0.3074 0
M  V30 3147 S 303.112 5.26765 -0.963247 0
M  V30 3148 C 304.268 6.25888 0.0384143 0
M  V30 3149 H 304.501 2.87622 -0.752407 0
M  V30 3150 H 302.034 1.45925 -0.504502 0
M  V30 3151 H 303.992 3.79341 1.56879 0
M  V30 3152 H 302.653 2.63396 1.71118 0
M  V30 3153 H 301.846 4.92596 1.0661 0
M  V30 3154 H 301.448 3.73497 -0.193879 0
M  V30 3155 H 303.74 6.71683 0.885912 0
M  V30 3156 H 304.683 7.05552 -0.60019 0
M  V30 3157 H 305.091 5.63072 0.401233 0
M  V30 3158 N 304.489 0.459591 1.5075 0
M  V30 3159 C 305.737 -0.0991532 2.01857 0
M  V30 3160 C 306.058 -1.41247 1.34441 0
M  V30 3161 O 305.328 -1.89775 0.486022 0
M  V30 3162 H 303.908 -0.039633 0.745948 0
M  V30 3163 H 306.57 0.607387 1.85194 0
M  V30 3164 H 305.666 -0.258998 3.11023 0
M  V30 3165 N 305.967 -1.56429 0.191757 0
M  V30 3166 C 306.915 -2.20273 -0.747174 0
M  V30 3167 C 307.909 -1.17288 -1.22229 0
M  V30 3168 O 309.115 -1.35441 -1.18557 0
M  V30 3169 H 305.49 -0.705885 -0.259289 0
M  V30 3170 H 307.461 -2.97826 -0.184963 0
M  V30 3171 C 306.21 -2.87356 -1.95759 0
M  V30 3172 H 305.533 -3.66341 -1.60106 0
M  V30 3173 H 306.973 -3.3547 -2.59299 0
M  V30 3174 C 305.432 -1.88213 -2.79423 0
M  V30 3175 O 305.962 -1.38033 -3.7724 0
M  V30 3176 N 304.168 -1.56516 -2.44849 0
M  V30 3177 H 303.715 -1.97516 -1.65364 0
M  V30 3178 H 303.673 -0.904369 -3.01112 0
M  V30 3179 N 307.445 0.0818655 -1.57387 0
M  V30 3180 C 308.693 0.781368 -1.86384 0
M  V30 3181 C 309.014 1.78618 -0.782342 0
M  V30 3182 O 308.284 1.94976 0.190061 0
M  V30 3183 H 306.864 0.291562 -0.687751 0
M  V30 3184 H 309.526 0.060348 -1.94807 0
M  V30 3185 H 308.622 1.3038 -2.83562 0
M  V30 3186 N 308.923 1.53595 0.353017 0
M  V30 3187 C 309.853 1.83902 1.43883 0
M  V30 3188 C 310.834 0.693421 1.55324 0
M  V30 3189 O 312.019 0.944452 1.69687 0
M  V30 3190 C 309.149 2.04016 2.8106 0
M  V30 3191 C 308.103 3.19814 2.84434 0
M  V30 3192 C 307.429 3.25244 4.24406 0
M  V30 3193 C 308.729 4.58133 2.50822 0
M  V30 3194 H 310.423 2.74835 1.1877 0
M  V30 3195 H 307.969 1.32242 0.569917 0
M  V30 3196 H 309.922 2.238 3.57059 0
M  V30 3197 H 308.646 1.09804 3.07588 0
M  V30 3198 H 307.305 2.9987 2.10887 0
M  V30 3199 H 306.953 2.28646 4.48029 0
M  V30 3200 H 306.653 4.03054 4.27576 0
M  V30 3201 H 308.177 3.47228 5.0226 0
M  V30 3202 H 309.591 4.77995 3.16534 0
M  V30 3203 H 307.988 5.38276 2.6529 0
M  V30 3204 H 309.058 4.62387 1.46034 0
M  V30 3205 N 310.401 -0.613514 1.45168 0
M  V30 3206 C 311.678 -1.37263 1.39349 0
M  V30 3207 C 312.058 -2.11012 0.0610848 0
M  V30 3208 O 311.406 -2.07502 -0.956825 0
M  V30 3209 C 311.616 -2.3244 2.60332 0
M  V30 3210 C 312.964 -2.9523 3.05163 0
M  V30 3211 O 313.988 -2.42762 2.60663 0
M  V30 3212 O 312.847 -3.90454 3.82372 0
M  V30 3213 H 309.941 -0.615188 0.552696 0
M  V30 3214 H 312.487 -0.637097 1.57287 0
M  V30 3215 H 311.259 -1.77164 3.48896 0
M  V30 3216 H 310.882 -3.13383 2.44698 0
M  V30 3217 N 311.879 -1.3236 -0.855495 0
M  V30 3218 C 313.128 -1.22226 -1.60448 0
M  V30 3219 C 313.441 0.214733 -1.94418 0
M  V30 3220 O 314.647 0.437917 -2.67945 0
M  V30 3221 C 313.103 -2.14063 -2.89318 0
M  V30 3222 C 312.711 -3.62839 -2.62777 0
M  V30 3223 C 314.455 -2.12764 -3.67331 0
M  V30 3224 C 312.362 -4.4664 -3.87643 0
M  V30 3225 H 311.292 -0.453904 -0.602069 0
M  V30 3226 H 313.943 -1.57314 -0.944698 0
M  V30 3227 H 312.325 -1.71889 -3.5675 0
M  V30 3228 H 313.499 -4.1335 -2.03662 0
M  V30 3229 H 311.814 -3.66261 -1.98096 0
M  V30 3230 H 314.411 -2.72611 -4.59987 0
M  V30 3231 H 314.754 -1.11841 -4.00995 0
M  V30 3232 H 315.287 -2.53214 -3.06802 0
M  V30 3233 H 312.026 -5.48373 -3.5912 0
M  V30 3234 H 311.546 -4.0088 -4.46156 0
M  V30 3235 H 313.225 -4.59597 -4.55389 0
M  V30 3236 N 313.357 1.07166 -1.15556 0
M  V30 3237 C 314.29 2.13808 -0.797593 0
M  V30 3238 C 315.268 1.6101 0.226812 0
M  V30 3239 O 316.452 1.88161 0.112932 0
M  V30 3240 C 313.579 3.38187 -0.186371 0
M  V30 3241 C 312.625 4.09766 -1.18297 0
M  V30 3242 S 313.458 4.60932 -2.72584 0
M  V30 3243 C 314.614 5.88583 -2.12886 0
M  V30 3244 H 314.847 2.43843 -1.70083 0
M  V30 3245 H 312.38 1.19467 -0.978106 0
M  V30 3246 H 314.338 4.10189 0.159837 0
M  V30 3247 H 312.999 3.06326 0.694489 0
M  V30 3248 H 312.192 4.99065 -0.703562 0
M  V30 3249 H 311.794 3.43736 -1.47381 0
M  V30 3250 H 314.086 6.60866 -1.49208 0
M  V30 3251 H 315.029 6.41241 -3.0036 0
M  V30 3252 H 315.437 5.42194 -1.57116 0
M  V30 3253 N 314.835 0.952656 1.25548 0
M  V30 3254 C 315.765 0.489287 2.28316 0
M  V30 3255 C 316.746 -0.463359 1.63667 0
M  V30 3256 O 317.931 -0.36274 1.90782 0
M  V30 3257 C 315.061 -0.235603 3.465 0
M  V30 3258 C 314.015 0.631593 4.23314 0
M  V30 3259 C 313.341 -0.223923 5.34231 0
M  V30 3260 C 314.641 1.90871 4.86174 0
M  V30 3261 H 316.335 1.34822 2.67326 0
M  V30 3262 H 313.881 0.649728 1.28509 0
M  V30 3263 H 315.834 -0.570882 4.17515 0
M  V30 3264 H 314.558 -1.12877 3.06474 0
M  V30 3265 H 313.217 0.949929 3.54079 0
M  V30 3266 H 312.865 -1.11678 4.90446 0
M  V30 3267 H 312.565 0.35299 5.86539 0
M  V30 3268 H 314.089 -0.554214 6.0808 0
M  V30 3269 H 315.503 1.63997 5.49343 0
M  V30 3270 H 313.9 2.43112 5.4865 0
M  V30 3271 H 314.97 2.61304 4.08471 0
M  V30 3272 N 316.313 -1.40141 0.720998 0
M  V30 3273 C 317.59 -1.94677 0.189757 0
M  V30 3274 C 317.97 -1.65879 -1.30566 0
M  V30 3275 O 317.318 -0.979391 -2.06447 0
M  V30 3276 C 317.528 -3.45279 0.508304 0
M  V30 3277 C 318.876 -4.22209 0.449934 0
M  V30 3278 O 319.9 -3.53413 0.444677 0
M  V30 3279 O 318.759 -5.44788 0.432189 0
M  V30 3280 H 315.853 -0.826459 0.0299026 0
M  V30 3281 H 318.399 -1.49719 0.7989 0
M  V30 3282 H 317.171 -3.59619 1.54239 0
M  V30 3283 H 316.794 -3.97386 -0.130525 0
M  V30 3284 N 317.792 -0.46758 -1.50504 0
M  V30 3285 C 319.038 0.0887532 -2.02606 0
M  V30 3286 C 319.371 1.39686 -1.34913 0
M  V30 3287 O 318.646 1.88644 -0.473694 0
M  V30 3288 C 318.929 0.276206 -3.59039 0
M  V30 3289 C 318.782 -1.05267 -4.37309 0
M  V30 3290 C 320.101 1.03235 -4.27821 0
M  V30 3291 H 317.22 0.0307814 -0.736357 0
M  V30 3292 H 319.862 -0.612485 -1.79857 0
M  V30 3293 H 318.012 0.8735 -3.78553 0
M  V30 3294 H 319.684 -1.68628 -4.29374 0
M  V30 3295 H 317.927 -1.65015 -4.01189 0
M  V30 3296 H 318.598 -0.875197 -5.45018 0
M  V30 3297 H 321.074 0.526111 -4.12761 0
M  V30 3298 H 319.95 1.1323 -5.37094 0
M  V30 3299 H 320.211 2.06806 -3.90748 0
M  V30 3300 N 319.27 1.56325 -0.20005 0
M  V30 3301 C 320.202 2.16555 0.750771 0
M  V30 3302 C 321.215 1.12871 1.1732 0
M  V30 3303 O 322.404 1.39943 1.10807 0
M  V30 3304 C 319.504 2.71684 2.02586 0
M  V30 3305 C 318.677 4.00321 1.76244 0
M  V30 3306 C 317.736 4.40227 2.88248 0
M  V30 3307 O 316.762 5.07552 2.57642 0
M  V30 3308 N 317.964 4.04138 4.16717 0
M  V30 3309 H 320.729 2.98772 0.235685 0
M  V30 3310 H 318.29 1.6189 -0.0182594 0
M  V30 3311 H 320.282 2.95363 2.76664 0
M  V30 3312 H 318.852 1.93893 2.45202 0
M  V30 3313 H 318.072 3.84723 0.85919 0
M  V30 3314 H 319.36 4.84279 1.56048 0
M  V30 3315 H 318.758 3.49993 4.44434 0
M  V30 3316 H 317.315 4.32756 4.87407 0
M  V30 3317 N 320.748 -0.0735177 1.57428 0
M  V30 3318 C 321.68 -1.11423 2.00294 0
M  V30 3319 C 322.693 -1.35084 0.908637 0
M  V30 3320 O 323.882 -1.33355 1.18654 0
M  V30 3321 C 320.982 -2.46548 2.32523 0
M  V30 3322 C 320.155 -2.42867 3.63778 0
M  V30 3323 C 319.214 -3.60087 3.83697 0
M  V30 3324 O 318.24 -3.41595 4.55304 0
M  V30 3325 N 319.442 -4.80372 3.25919 0
M  V30 3326 H 322.207 -0.749206 2.90184 0
M  V30 3327 H 319.768 -0.262195 1.59763 0
M  V30 3328 H 321.76 -3.23607 2.43024 0
M  V30 3329 H 320.33 -2.75059 1.48531 0
M  V30 3330 H 319.55 -1.51206 3.64047 0
M  V30 3331 H 320.838 -2.37506 4.49965 0
M  V30 3332 H 320.236 -4.983 2.67795 0
M  V30 3333 H 318.793 -5.54948 3.41871 0
M  V30 3334 N 322.226 -1.5378 -0.344866 0
M  V30 3335 C 323.136 -1.84667 -1.4469 0
M  V30 3336 C 324.152 -0.736704 -1.57635 0
M  V30 3337 O 325.328 -1.02888 -1.73136 0
M  V30 3338 C 322.393 -2.04869 -2.79696 0
M  V30 3339 C 321.454 -3.28731 -2.76106 0
M  V30 3340 C 320.687 -3.4796 -4.04673 0
M  V30 3341 O 320.91 -2.71052 -5.01883 0
M  V30 3342 O 319.844 -4.41383 -4.09224 0
M  V30 3343 H 323.67 -2.78334 -1.21506 0
M  V30 3344 H 321.255 -1.39418 -0.536921 0
M  V30 3345 H 323.137 -2.19609 -3.59652 0
M  V30 3346 H 321.812 -1.14391 -3.02814 0
M  V30 3347 H 320.719 -3.19396 -1.94774 0
M  V30 3348 H 322.052 -4.19198 -2.57941 0
M  V30 3349 N 323.704 0.605807 -1.45491 0
M  V30 3350 C 324.614 1.74466 -1.56839 0
M  V30 3351 C 325.63 1.68006 -0.452772 0
M  V30 3352 O 326.806 1.8833 -0.713708 0
M  V30 3353 C 323.871 3.10931 -1.53371 0
M  V30 3354 C 322.932 3.28832 -2.75986 0
M  V30 3355 C 322.165 4.58787 -2.72673 0
M  V30 3356 O 322.388 5.4122 -1.80102 0
M  V30 3357 O 321.322 4.79438 -3.63899 0
M  V30 3358 H 325.148 1.67843 -2.53106 0
M  V30 3359 H 322.733 0.770108 -1.28022 0
M  V30 3360 H 324.615 3.92233 -1.54051 0
M  V30 3361 H 323.29 3.18042 -0.602572 0
M  V30 3362 H 322.197 2.47112 -2.80867 0
M  V30 3363 H 323.53 3.26599 -3.68231 0
M  V30 3364 N 325.182 1.32811 0.848464 0
M  V30 3365 C 326.412 1.26556 1.63301 0
M  V30 3366 C 326.82 -0.1676 1.88456 0
M  V30 3367 O 326.163 -1.11713 1.45828 0
M  V30 3368 C 326.225 1.96202 3.01239 0
M  V30 3369 C 325.889 3.45528 2.99098 0
M  V30 3370 C 326.886 4.40903 2.75501 0
M  V30 3371 C 324.571 3.87558 3.19537 0
M  V30 3372 C 326.565 5.76282 2.72356 0
M  V30 3373 C 324.252 5.23044 3.16019 0
M  V30 3374 C 325.25 6.17217 2.92458 0
M  V30 3375 O 324.938 7.50223 2.88825 0
M  V30 3376 H 324.67 0.43771 0.515156 0
M  V30 3377 H 327.224 1.7559 1.0657 0
M  V30 3378 H 325.454 1.41746 3.59785 0
M  V30 3379 H 327.143 1.83573 3.62016 0
M  V30 3380 H 327.909 4.09756 2.5947 0
M  V30 3381 H 323.788 3.14674 3.369 0
M  V30 3382 H 327.332 6.4976 2.53886 0
M  V30 3383 H 323.229 5.53818 3.31596 0
M  V30 3384 H 323.997 7.59657 3.04735 0
M  V30 3385 N 326.66 -1.06551 1.16123 0
M  V30 3386 C 327.59 -2.15935 0.88851 0
M  V30 3387 C 328.571 -1.69306 -0.164135 0
M  V30 3388 O 329.756 -1.94193 -0.0167857 0
M  V30 3389 C 326.886 -3.45149 0.385942 0
M  V30 3390 C 325.84 -4.05271 1.3762 0
M  V30 3391 C 325.166 -5.29664 0.732137 0
M  V30 3392 C 326.466 -4.44355 2.74493 0
M  V30 3393 H 328.16 -2.39006 1.80323 0
M  V30 3394 H 325.706 -1.14866 0.868435 0
M  V30 3395 H 327.659 -4.21004 0.182647 0
M  V30 3396 H 326.383 -3.21689 -0.564274 0
M  V30 3397 H 325.042 -3.3147 1.56599 0
M  V30 3398 H 324.69 -5.02499 -0.224483 0
M  V30 3399 H 324.39 -5.70848 1.39307 0
M  V30 3400 H 325.914 -6.08218 0.538802 0
M  V30 3401 H 327.328 -5.11303 2.59311 0
M  V30 3402 H 325.725 -4.96515 3.37035 0
M  V30 3403 H 326.795 -3.55339 3.29943 0
M  V30 3404 N 328.138 -0.959301 -1.25041 0
M  V30 3405 C 329.549 -0.65667 -1.74771 0
M  V30 3406 C 329.9 0.827852 -1.77879 0
M  V30 3407 O 329.025 1.64783 -1.40269 0
M  V30 3408 C 329.62 -1.1853 -3.1739 0
M  V30 3409 C 328.179 -0.932734 -3.6466 0
M  V30 3410 C 327.326 -1.32558 -2.43564 0
M  V30 3411 H 330.277 -1.13558 -1.10862 0
M  V30 3412 H 330.298 -0.547582 -3.76539 0
M  V30 3413 H 329.81 -2.26576 -3.15095 0
M  V30 3414 H 327.911 0.13257 -3.72364 0
M  V30 3415 H 328.024 -1.57248 -4.52559 0
M  V30 3416 H 326.388 -0.743956 -2.43593 0
M  V30 3417 H 327.171 -2.41537 -2.43957 0
M  V30 3418 N 329.616 1.39756 -0.72842 0
M  V30 3419 C 330.862 2.00942 -0.273892 0
M  V30 3420 C 331.195 1.57656 1.13394 0
M  V30 3421 O 330.47 0.802434 1.77176 0
M  V30 3422 C 330.753 3.58211 -0.368346 0
M  V30 3423 C 330.606 4.11534 -1.81548 0
M  V30 3424 C 331.925 4.39372 0.253054 0
M  V30 3425 H 329.044 0.730047 -0.100996 0
M  V30 3426 H 331.686 1.66056 -0.923337 0
M  V30 3427 H 329.836 3.88061 0.184588 0
M  V30 3428 H 331.508 3.92431 -2.42478 0
M  V30 3429 H 329.751 3.65341 -2.33898 0
M  V30 3430 H 330.422 5.20682 -1.83288 0
M  V30 3431 H 332.898 4.15527 -0.218224 0
M  V30 3432 H 331.774 5.48677 0.156585 0
M  V30 3433 H 332.035 4.21358 1.33826 0
M  V30 3434 N 331.094 0.475555 1.50254 0
M  V30 3435 C 332.34 -0.0701075 2.03279 0
M  V30 3436 C 332.695 -1.37007 1.35081 0
M  V30 3437 O 331.988 -1.8577 0.469052 0
M  V30 3438 C 332.182 -0.305114 3.56095 0
M  V30 3439 C 332.011 0.970515 4.39103 0
M  V30 3440 C 330.781 1.51509 4.82051 0
M  V30 3441 C 332.979 1.8671 4.79212 0
M  V30 3442 N 330.961 2.73928 5.49397 0
M  V30 3443 C 332.332 2.93715 5.46014 0
M  V30 3444 C 334.387 1.87695 4.61167 0
M  V30 3445 C 333.09 4.01699 5.96683 0
M  V30 3446 C 335.116 2.94637 5.12779 0
M  V30 3447 C 334.478 4.00361 5.79561 0
M  V30 3448 H 330.577 0.014486 0.781866 0
M  V30 3449 H 333.161 0.644755 1.83714 0
M  V30 3450 H 331.332 -0.989019 3.75597 0
M  V30 3451 H 333.064 -0.845516 3.95769 0
M  V30 3452 H 329.819 1.06367 4.61501 0
M  V30 3453 H 330.243 3.36109 5.87673 0
M  V30 3454 H 334.885 1.07273 4.08965 0
M  V30 3455 H 332.603 4.82934 6.4792 0
M  V30 3456 H 336.189 2.96388 5.00645 0
M  V30 3457 H 335.069 4.81751 6.18778 0
M  V30 3458 N 332.573 -1.56217 0.208337 0
M  V30 3459 C 333.989 -1.58919 -0.14729 0
M  V30 3460 C 334.189 -1.22486 -1.59998 0
M  V30 3461 O 333.245 -0.953849 -2.3379 0
M  V30 3462 C 334.558 -3.00236 0.167048 0
M  V30 3463 C 336.106 -3.12813 0.108219 0
M  V30 3464 C 336.581 -4.56284 0.396049 0
M  V30 3465 N 338.072 -4.61912 0.345142 0
M  V30 3466 C 338.807 -5.70837 0.541523 0
M  V30 3467 N 338.303 -6.88178 0.798968 0
M  V30 3468 N 340.096 -5.60091 0.474867 0
M  V30 3469 H 332.247 -1.78177 1.15614 0
M  V30 3470 H 334.51 -0.827555 0.462446 0
M  V30 3471 H 334.216 -3.31499 1.1748 0
M  V30 3472 H 334.09 -3.7354 -0.524184 0
M  V30 3473 H 336.477 -2.81354 -0.890157 0
M  V30 3474 H 336.558 -2.41866 0.832729 0
M  V30 3475 H 336.202 -4.88458 1.3918 0
M  V30 3476 H 336.132 -5.25439 -0.349502 0
M  V30 3477 H 338.623 -3.77589 0.153316 0
M  V30 3478 H 338.936 -7.67095 0.93727 0
M  V30 3479 H 337.281 -6.89953 0.836013 0
M  V30 3480 H 340.472 -4.67297 0.274064 0
M  V30 3481 H 340.645 -6.44917 0.631326 0
M  V30 3482 N 334.051 0.0651679 -1.57465 0
M  V30 3483 C 335.328 0.79644 -1.78651 0
M  V30 3484 C 335.708 1.95454 -0.797566 0
M  V30 3485 O 335.056 2.27882 0.167946 0
M  V30 3486 C 335.266 1.26322 -3.25337 0
M  V30 3487 C 336.614 1.6939 -3.89348 0
M  V30 3488 O 337.638 1.35872 -3.29268 0
M  V30 3489 O 336.497 2.31471 -4.95059 0
M  V30 3490 H 333.591 0.382157 -0.733407 0
M  V30 3491 H 336.137 0.0447311 -1.69641 0
M  V30 3492 H 334.909 0.434859 -3.88876 0
M  V30 3493 H 334.532 2.07604 -3.39096 0
M  V30 3494 N 335.529 1.53961 0.336706 0
M  V30 3495 C 336.477 1.83136 1.43401 0
M  V30 3496 C 337.471 0.702313 1.54156 0
M  V30 3497 O 338.677 0.885765 1.56698 0
M  V30 3498 H 335.052 0.580309 0.478273 0
M  V30 3499 H 337.023 2.74925 1.16012 0
M  V30 3500 C 335.772 2.06385 2.79822 0
M  V30 3501 H 335.095 2.92718 2.72316 0
M  V30 3502 H 336.535 2.30761 3.55704 0
M  V30 3503 C 334.994 0.851414 3.25964 0
M  V30 3504 O 335.524 0.0541904 4.01663 0
M  V30 3505 N 333.73 0.66672 2.82848 0
M  V30 3506 H 333.277 1.31665 2.21409 0
M  V30 3507 H 333.235 -0.143032 3.14074 0
M  V30 3508 N 337.007 -0.598083 1.45811 0
M  V30 3509 C 337.917 -1.73632 1.57763 0
M  V30 3510 C 338.933 -1.67763 0.461676 0
M  V30 3511 O 340.109 -1.87949 0.723685 0
M  V30 3512 C 337.174 -3.10114 1.55018 0
M  V30 3513 C 336.235 -3.27364 2.77726 0
M  V30 3514 C 335.468 -4.57334 2.75102 0
M  V30 3515 O 335.691 -5.40258 1.8297 0
M  V30 3516 O 334.625 -4.77502 3.66437 0
M  V30 3517 H 338.451 -1.66498 2.53992 0
M  V30 3518 H 336.036 -0.763308 1.28429 0
M  V30 3519 H 337.918 -3.9141 1.56129 0
M  V30 3520 H 336.593 -3.17718 0.619431 0
M  V30 3521 H 335.5 -2.45619 2.82174 0
M  V30 3522 H 336.833 -3.24641 3.69958 0
M  V30 3523 N 338.485 -1.33259 -0.841409 0
M  V30 3524 C 339.395 -1.25332 -1.98316 0
M  V30 3525 C 340.411 -0.164364 -1.73222 0
M  V30 3526 O 341.587 -0.387486 -1.97637 0
M  V30 3527 C 338.652 -0.990078 -3.32262 0
M  V30 3528 C 337.713 -2.16879 -3.70489 0
M  V30 3529 C 336.946 -1.91801 -4.98044 0
M  V30 3530 O 337.169 -0.867075 -5.63771 0
M  V30 3531 O 336.103 -2.78267 -5.33714 0
M  V30 3532 H 339.929 -2.21344 -2.07944 0
M  V30 3533 H 337.514 -1.1328 -0.974058 0
M  V30 3534 H 339.396 -0.860321 -4.12524 0
M  V30 3535 H 338.071 -0.0602155 -3.23644 0
M  V30 3536 H 336.978 -2.35407 -2.90748 0
M  V30 3537 H 338.311 -3.0819 -3.8377 0
M  V30 3538 N 339.963 1.05934 -1.16686 0
M  V30 3539 C 341.191 1.8249 -0.974929 0
M  V30 3540 C 341.606 1.82679 0.476861 0
M  V30 3541 O 340.963 1.2486 1.33103 0
M  V30 3542 C 341.014 3.28943 -1.49929 0
M  V30 3543 O 340.735 3.28886 -2.89423 0
M  V30 3544 C 342.236 4.22215 -1.35089 0
M  V30 3545 H 339.456 0.575295 -0.345365 0
M  V30 3546 H 342 1.33631 -1.548 0
M  V30 3547 H 340.155 3.751 -0.968423 0
M  V30 3548 H 340.569 4.20493 -3.13506 0
M  V30 3549 H 342.043 5.22987 -1.76603 0
M  V30 3550 H 342.52 4.38195 -0.296935 0
M  V30 3551 H 343.126 3.81907 -1.87155 0
M  V30 3552 N 341.441 0.965919 1.2453 0
M  V30 3553 C 342.852 0.665929 1.7442 0
M  V30 3554 C 343.203 -0.818407 1.78316 0
M  V30 3555 O 342.328 -1.64037 1.41141 0
M  V30 3556 C 342.923 1.20211 3.16757 0
M  V30 3557 C 341.482 0.952059 3.6416 0
M  V30 3558 C 340.629 1.33848 2.42858 0
M  V30 3559 H 343.58 1.14144 1.10258 0
M  V30 3560 H 343.601 0.567544 3.76244 0
M  V30 3561 H 343.113 2.28244 3.13889 0
M  V30 3562 H 341.214 -0.112821 3.72429 0
M  V30 3563 H 341.327 1.59645 4.51719 0
M  V30 3564 H 339.691 0.756864 2.43195 0
M  V30 3565 H 340.474 2.42827 2.42673 0
M  V30 3566 N 342.919 -1.39368 0.735821 0
M  V30 3567 C 344.166 -2.00497 0.284123 0
M  V30 3568 C 344.494 -1.58387 -1.12889 0
M  V30 3569 O 343.749 -0.804359 -1.78406 0
M  V30 3570 C 344.048 -3.5583 0.334651 0
M  V30 3571 C 343.714 -4.17593 1.7008 0
M  V30 3572 C 342.376 -4.34176 2.07472 0
M  V30 3573 C 344.728 -4.51848 2.59775 0
M  V30 3574 C 342.056 -4.82304 3.34065 0
M  V30 3575 C 344.408 -5.01384 3.85741 0
M  V30 3576 C 343.072 -5.16175 4.23225 0
M  V30 3577 H 342.342 -0.73367 0.103968 0
M  V30 3578 H 344.989 -1.66683 0.942825 0
M  V30 3579 H 343.294 -3.89674 -0.407625 0
M  V30 3580 H 344.991 -4.00986 -0.0329927 0
M  V30 3581 H 341.581 -4.05087 1.40008 0
M  V30 3582 H 345.765 -4.38653 2.32157 0
M  V30 3583 H 341.021 -4.91941 3.63049 0
M  V30 3584 H 345.195 -5.26863 4.55399 0
M  V30 3585 H 342.822 -5.5323 5.21384 0
M  V30 3586 N 344.397 -0.483516 -1.5 0
M  V30 3587 C 345.307 0.309172 -2.32554 0
M  V30 3588 C 346.323 0.984159 -1.43493 0
M  V30 3589 O 347.499 0.969399 -1.76535 0
M  V30 3590 C 344.564 1.36979 -3.18493 0
M  V30 3591 C 343.625 0.710095 -4.23387 0
M  V30 3592 C 342.858 1.72018 -5.05218 0
M  V30 3593 O 343.081 2.94813 -4.88305 0
M  V30 3594 O 342.015 1.28515 -5.8802 0
M  V30 3595 H 345.841 -0.366064 -3.01486 0
M  V30 3596 H 343.426 -0.24514 -1.47375 0
M  V30 3597 H 345.308 1.98385 -3.71781 0
M  V30 3598 H 343.983 2.02828 -2.52275 0
M  V30 3599 H 342.89 0.0567539 -3.74057 0
M  V30 3600 H 344.223 0.0943557 -4.9211 0
M  V30 3601 N 345.875 1.56104 -0.216619 0
M  V30 3602 C 347.121 1.98466 0.417033 0
M  V30 3603 C 347.454 1.10403 1.59765 0
M  V30 3604 O 346.729 0.160632 1.93836 0
M  V30 3605 C 347.012 3.49769 0.85637 0
M  V30 3606 C 346.865 4.48606 -0.327546 0
M  V30 3607 C 348.184 4.05339 1.7143 0
M  V30 3608 H 345.303 0.721551 0.150112 0
M  V30 3609 H 347.945 1.87423 -0.311864 0
M  V30 3610 H 346.095 3.5931 1.47745 0
M  V30 3611 H 347.767 4.5108 -0.965618 0
M  V30 3612 H 346.01 4.22682 -0.975805 0
M  V30 3613 H 346.681 5.51995 0.0227149 0
M  V30 3614 H 349.157 3.98712 1.19031 0
M  V30 3615 H 348.033 5.11533 1.99061 0
M  V30 3616 H 348.294 3.51918 2.67593 0
M  V30 3617 N 347.353 -0.0568162 1.57498 0
M  V30 3618 C 348.601 -0.751617 1.87604 0
M  V30 3619 C 348.922 -1.77351 0.81066 0
M  V30 3620 O 348.192 -1.95254 -0.159018 0
M  V30 3621 H 346.772 -0.280583 0.692302 0
M  V30 3622 H 349.434 -0.0293483 1.94878 0
M  V30 3623 H 348.53 -1.25852 2.856 0
M  V30 3624 N 348.832 -1.54138 -0.328536 0
M  V30 3625 C 350.081 -1.71318 -1.06456 0
M  V30 3626 C 350.394 -0.491109 -1.89334 0
M  V30 3627 O 351.6 -0.54416 -2.65991 0
M  V30 3628 C 350.056 -3.03 -1.94214 0
M  V30 3629 C 349.664 -4.32595 -1.16471 0
M  V30 3630 C 351.408 -3.29544 -2.67583 0
M  V30 3631 C 349.315 -5.55341 -2.03347 0
M  V30 3632 H 348.245 -0.638429 -0.401155 0
M  V30 3633 H 350.896 -1.80633 -0.323106 0
M  V30 3634 H 349.278 -2.87579 -2.72239 0
M  V30 3635 H 350.452 -4.58766 -0.432525 0
M  V30 3636 H 348.767 -4.12777 -0.548063 0
M  V30 3637 H 351.364 -4.18444 -3.3288 0
M  V30 3638 H 351.707 -2.47206 -3.34955 0
M  V30 3639 H 352.24 -3.45809 -1.96623 0
M  V30 3640 H 348.979 -6.40268 -1.40491 0
M  V30 3641 H 348.499 -5.33397 -2.74313 0
M  V30 3642 H 350.178 -5.91557 -2.62049 0
M  V30 3643 N 350.31 0.590341 -1.46126 0
M  V30 3644 C 351.726 0.912917 -1.30912 0
M  V30 3645 C 351.926 1.99616 -0.274893 0
M  V30 3646 O 350.982 2.50397 0.325197 0
M  V30 3647 C 352.295 1.3375 -2.69317 0
M  V30 3648 C 353.843 1.45077 -2.77348 0
M  V30 3649 C 354.318 1.90904 -4.16317 0
M  V30 3650 N 355.809 1.9811 -4.18696 0
M  V30 3651 C 356.544 2.34828 -5.23109 0
M  V30 3652 N 356.04 2.70393 -6.37856 0
M  V30 3653 N 357.833 2.35317 -5.10473 0
M  V30 3654 H 349.984 -0.125358 -2.1203 0
M  V30 3655 H 352.247 0.00658481 -0.947977 0
M  V30 3656 H 351.953 0.615614 -3.4627 0
M  V30 3657 H 351.827 2.30058 -2.9892 0
M  V30 3658 H 354.214 2.16353 -2.00687 0
M  V30 3659 H 354.295 0.4704 -2.51438 0
M  V30 3660 H 353.939 1.20209 -4.9347 0
M  V30 3661 H 353.869 2.89886 -4.39629 0
M  V30 3662 H 356.36 1.73146 -3.359 0
M  V30 3663 H 356.673 2.97341 -7.13308 0
M  V30 3664 H 355.018 2.68048 -6.41229 0
M  V30 3665 H 358.209 2.0695 -4.19868 0
M  V30 3666 H 358.382 2.63605 -5.9196 0
M  V30 3667 N 351.788 1.33704 0.83433 0
M  V30 3668 C 353.034 1.25603 1.59222 0
M  V30 3669 C 353.367 -0.176659 1.93395 0
M  V30 3670 O 352.642 -1.11915 1.59076 0
M  V30 3671 C 352.925 2.13576 2.89926 0
M  V30 3672 C 352.778 3.65326 2.62406 0
M  V30 3673 C 354.097 2.01238 3.91397 0
M  V30 3674 H 351.216 0.457613 0.577719 0
M  V30 3675 H 353.858 1.63848 0.961972 0
M  V30 3676 H 352.008 1.8109 3.43713 0
M  V30 3677 H 353.68 4.08124 2.15017 0
M  V30 3678 H 351.923 3.8698 1.96033 0
M  V30 3679 H 352.594 4.22232 3.55562 0
M  V30 3680 H 355.07 2.29738 3.46929 0
M  V30 3681 H 353.946 2.65036 4.80673 0
M  V30 3682 H 354.207 0.985951 4.30966 0
M  V30 3683 N 353.266 -1.05314 1.17247 0
M  V30 3684 C 354.198 -2.13023 0.845812 0
M  V30 3685 C 355.211 -1.62096 -0.151246 0
M  V30 3686 O 356.4 -1.78343 0.0748818 0
M  V30 3687 C 353.5 -3.38047 0.240292 0
M  V30 3688 C 352.673 -4.18255 1.27991 0
M  V30 3689 C 351.732 -5.21625 0.692375 0
M  V30 3690 O 350.758 -5.52619 1.36385 0
M  V30 3691 N 351.96 -5.78201 -0.516178 0
M  V30 3692 H 354.725 -2.41642 1.77283 0
M  V30 3693 H 352.286 -1.21401 1.07115 0
M  V30 3694 H 354.278 -4.04359 -0.16603 0
M  V30 3695 H 352.848 -3.06972 -0.590487 0
M  V30 3696 H 352.068 -3.47451 1.86203 0
M  V30 3697 H 353.356 -4.68643 1.98119 0
M  V30 3698 H 352.754 -5.55301 -1.07969 0
M  V30 3699 H 351.311 -6.4604 -0.86458 0
M  V30 3700 N 354.744 -0.972509 -1.24016 0
M  V30 3701 C 355.993 -0.632603 -1.91523 0
M  V30 3702 C 356.306 0.836641 -1.76804 0
M  V30 3703 O 357.512 1.28728 -2.39043 0
M  V30 3704 C 355.968 -1.08082 -3.43287 0
M  V30 3705 C 355.576 -2.57386 -3.66683 0
M  V30 3706 C 357.32 -0.814288 -4.16617 0
M  V30 3707 C 355.227 -2.95915 -5.12043 0
M  V30 3708 H 354.157 -0.232898 -0.717129 0
M  V30 3709 H 356.808 -1.17936 -1.40582 0
M  V30 3710 H 355.19 -0.462339 -3.93292 0
M  V30 3711 H 356.364 -3.24405 -3.27258 0
M  V30 3712 H 354.679 -2.81701 -3.06649 0
M  V30 3713 H 357.276 -1.0781 -5.23718 0
M  V30 3714 H 357.619 0.24955 -4.15551 0
M  V30 3715 H 358.152 -1.39397 -3.72577 0
M  V30 3716 H 354.891 -4.0139 -5.18234 0
M  V30 3717 H 354.411 -2.33584 -5.52448 0
M  V30 3718 H 356.09 -2.86086 -5.80314 0
M  V30 3719 N 356.222 1.38976 -0.743202 0
M  V30 3720 C 357.172 2.27843 -0.084513 0
M  V30 3721 C 358.156 1.44677 0.704094 0
M  V30 3722 O 359.348 1.67511 0.571755 0
M  V30 3723 C 356.477 3.33466 0.815781 0
M  V30 3724 C 355.563 4.24095 0.0208844 0
M  V30 3725 N 355.954 4.95609 -1.0102 0
M  V30 3726 C 354.252 4.45303 0.249293 0
M  V30 3727 C 354.953 5.62287 -1.49024 0
M  V30 3728 N 353.929 5.37571 -0.807377 0
M  V30 3729 H 357.731 2.80593 -0.87436 0
M  V30 3730 H 355.245 1.51755 -0.578283 0
M  V30 3731 H 357.242 3.96008 1.30321 0
M  V30 3732 H 355.902 2.82276 1.6047 0
M  V30 3733 H 356.913 4.98849 -1.39176 0
M  V30 3734 H 353.59 4.0504 1.01237 0
M  V30 3735 H 354.98 6.29519 -2.34853 0
M  V30 3736 N 357.7 0.491464 1.49741 0
M  V30 3737 C 358.925 -0.0557177 2.07325 0
M  V30 3738 C 359.35 -1.30925 1.35056 0
M  V30 3739 O 358.708 -1.76733 0.404365 0
M  V30 3740 C 358.756 -0.302074 3.59333 0
M  V30 3741 O 357.86 -1.37868 3.88672 0
M  V30 3742 H 357.201 0.0219956 0.663636 0
M  V30 3743 H 359.731 0.688352 1.92673 0
M  V30 3744 H 359.741 -0.536464 4.04458 0
M  V30 3745 H 358.416 0.61383 4.11345 0
M  V30 3746 H 356.993 -1.12999 3.55367 0
M  V30 3747 N 359.178 -1.55987 0.224894 0
M  V30 3748 C 360.11 -2.17722 -0.716224 0
M  V30 3749 C 361.123 -1.14723 -1.15509 0
M  V30 3750 O 362.312 -1.41688 -1.08567 0
M  V30 3751 C 359.412 -2.74873 -1.98238 0
M  V30 3752 C 358.585 -4.03074 -1.69853 0
M  V30 3753 C 357.644 -4.44757 -2.81208 0
M  V30 3754 O 356.67 -5.11587 -2.49534 0
M  V30 3755 N 357.872 -4.10716 -4.10235 0
M  V30 3756 H 360.637 -2.99109 -0.188123 0
M  V30 3757 H 358.198 -1.6184 0.0440123 0
M  V30 3758 H 360.19 -2.99727 -2.7193 0
M  V30 3759 H 358.76 -1.9777 -2.42086 0
M  V30 3760 H 357.98 -3.86041 -0.797875 0
M  V30 3761 H 359.268 -4.86701 -1.48324 0
M  V30 3762 H 358.666 -3.57019 -4.38809 0
M  V30 3763 H 357.223 -4.40455 -4.80461 0
M  V30 3764 N 360.656 0.0484629 -1.57525 0
M  V30 3765 C 361.566 1.07241 -2.08654 0
M  V30 3766 C 362.582 1.409 -1.02095 0
M  V30 3767 O 363.758 1.50609 -1.33712 0
M  V30 3768 C 360.823 2.36008 -2.5397 0
M  V30 3769 C 359.884 2.09108 -3.7493 0
M  V30 3770 C 359.117 3.31736 -4.18075 0
M  V30 3771 O 359.34 4.41714 -3.60895 0
M  V30 3772 O 358.274 3.18576 -5.10679 0
M  V30 3773 H 362.1 0.667965 -2.96263 0
M  V30 3774 H 359.685 0.26417 -1.47046 0
M  V30 3775 H 361.567 3.11747 -2.83535 0
M  V30 3776 H 360.242 2.75786 -1.69481 0
M  V30 3777 H 359.149 1.31 -3.50414 0
M  V30 3778 H 360.482 1.74198 -4.60343 0
M  V30 3779 N 362.134 1.5431 0.320358 0
M  V30 3780 C 363.044 1.86946 1.41734 0
M  V30 3781 C 364.06 0.761689 1.56443 0
M  V30 3782 O 365.236 1.05629 1.71477 0
M  V30 3783 C 362.301 2.09293 2.76401 0
M  V30 3784 C 361.362 3.33082 2.70841 0
M  V30 3785 C 360.595 3.54353 3.99086 0
M  V30 3786 O 360.818 2.79002 4.97508 0
M  V30 3787 O 359.752 4.47838 4.0215 0
M  V30 3788 H 363.578 2.80232 1.17062 0
M  V30 3789 H 361.163 1.40255 0.514673 0
M  V30 3790 H 363.045 2.25303 3.56113 0
M  V30 3791 H 361.72 1.19194 3.00956 0
M  V30 3792 H 360.627 3.22454 1.89668 0
M  V30 3793 H 361.96 4.23249 2.5124 0
M  V30 3794 N 363.613 -0.582584 1.46437 0
M  V30 3795 C 365.024 -1.1647 1.45916 0
M  V30 3796 C 365.375 -1.95177 0.200077 0
M  V30 3797 O 364.5 -2.04874 -0.696819 0
M  V30 3798 C 365.095 -2.11885 2.64367 0
M  V30 3799 C 363.654 -2.65421 2.66887 0
M  V30 3800 C 362.801 -1.41294 2.38603 0
M  V30 3801 H 365.752 -0.370514 1.54314 0
M  V30 3802 H 365.773 -2.9535 2.39892 0
M  V30 3803 H 365.285 -1.54573 3.5599 0
M  V30 3804 H 363.386 -3.26602 1.79338 0
M  V30 3805 H 363.499 -3.08147 3.66854 0
M  V30 3806 H 361.863 -1.71109 1.88663 0
M  V30 3807 H 362.646 -0.858125 3.32402 0
M  V30 3808 N 365.091 -1.34144 -0.827227 0
M  V30 3809 C 366.502 -1.23557 -1.39966 0
M  V30 3810 C 366.853 0.140731 -1.95695 0
M  V30 3811 O 365.978 1.04087 -1.89723 0
M  V30 3812 C 366.573 -2.23708 -2.54441 0
M  V30 3813 C 365.132 -2.16924 -3.07605 0
M  V30 3814 C 364.279 -2.10549 -1.80456 0
M  V30 3815 H 367.23 -1.45573 -0.631991 0
M  V30 3816 H 367.251 -1.85157 -3.32411 0
M  V30 3817 H 366.763 -3.23866 -2.13851 0
M  V30 3818 H 364.864 -1.20107 -3.52711 0
M  V30 3819 H 364.977 -3.07988 -3.66988 0
M  V30 3820 H 363.341 -1.56203 -2.01178 0
M  V30 3821 H 364.124 -3.12535 -1.42046 0
M  V30 3822 N 366.569 1.04691 -1.17803 0
M  V30 3823 C 367.818 1.77176 -0.963931 0
M  V30 3824 C 368.131 1.88888 0.508015 0
M  V30 3825 O 369.337 2.58164 0.840465 0
M  V30 3826 C 367.793 3.18518 -1.67555 0
M  V30 3827 C 367.401 3.14919 -3.18637 0
M  V30 3828 C 369.145 3.95424 -1.54402 0
M  V30 3829 C 367.052 4.51081 -3.82466 0
M  V30 3830 H 365.982 0.664116 -0.357023 0
M  V30 3831 H 368.633 1.17303 -1.4111 0
M  V30 3832 H 367.015 3.78748 -1.15613 0
M  V30 3833 H 368.189 2.64178 -3.77554 0
M  V30 3834 H 366.504 2.51512 -3.31859 0
M  V30 3835 H 369.101 4.96106 -1.99456 0
M  V30 3836 H 369.444 4.13343 -0.495329 0
M  V30 3837 H 369.977 3.41754 -2.0359 0
M  V30 3838 H 366.716 4.38368 -4.87354 0
M  V30 3839 H 366.236 5.01951 -3.28337 0
M  V30 3840 H 367.915 5.2001 -3.84965 0
M  V30 3841 N 368.047 0.979072 1.23499 0
M  V30 3842 C 369.296 0.642751 1.91185 0
M  V30 3843 C 369.609 -0.827253 1.77245 0
M  V30 3844 O 370.815 -1.27458 2.39722 0
M  V30 3845 C 369.271 1.09901 3.42709 0
M  V30 3846 C 368.879 2.59327 3.65313 0
M  V30 3847 C 370.623 0.836371 4.16179 0
M  V30 3848 C 368.53 2.98627 5.10467 0
M  V30 3849 H 367.46 0.236698 0.715884 0
M  V30 3850 H 370.111 1.1868 1.39955 0
M  V30 3851 H 368.493 0.48319 3.93041 0
M  V30 3852 H 369.667 3.26136 3.25533 0
M  V30 3853 H 367.982 2.83323 3.05151 0
M  V30 3854 H 370.579 1.10586 5.23139 0
M  V30 3855 H 370.922 -0.227509 4.15678 0
M  V30 3856 H 371.455 1.41371 3.71832 0
M  V30 3857 H 368.194 4.04133 5.16098 0
M  V30 3858 H 367.714 2.3651 5.51201 0
M  V30 3859 H 369.393 2.89159 5.78788 0
M  V30 3860 N 369.525 -1.3858 0.750561 0
M  V30 3861 C 370.802 -1.94231 0.231009 0
M  V30 3862 C 371.182 -1.68611 -1.27018 0
M  V30 3863 O 370.53 -1.02296 -2.04323 0
M  V30 3864 C 370.74 -3.44123 0.581428 0
M  V30 3865 C 372.088 -4.2116 0.539389 0
M  V30 3866 O 373.112 -3.52391 0.519541 0
M  V30 3867 O 371.971 -5.43749 0.54765 0
M  V30 3868 H 369.065 -0.825639 0.0474263 0
M  V30 3869 H 371.611 -1.4799 0.830478 0
M  V30 3870 H 370.383 -3.56267 1.61833 0
M  V30 3871 H 370.006 -3.97573 -0.0462047 0
M  V30 3872 N 371.003 -0.499398 -1.49478 0
M  V30 3873 C 371.935 0.316575 -2.27003 0
M  V30 3874 C 372.948 0.932047 -1.33479 0
M  V30 3875 O 374.137 0.815658 -1.58774 0
M  V30 3876 C 371.237 1.46055 -3.05812 0
M  V30 3877 C 370.41 0.952679 -4.26899 0
M  V30 3878 C 369.469 1.97407 -4.87767 0
M  V30 3879 O 368.495 1.54326 -5.4788 0
M  V30 3880 N 369.697 3.30436 -4.77276 0
M  V30 3881 H 372.462 -0.348168 -2.97671 0
M  V30 3882 H 370.023 -0.33185 -1.58463 0
M  V30 3883 H 372.015 2.14135 -3.43407 0
M  V30 3884 H 370.585 2.02948 -2.37762 0
M  V30 3885 H 369.805 0.0968248 -3.94081 0
M  V30 3886 H 371.093 0.59174 -5.05347 0
M  V30 3887 H 370.491 3.68126 -4.29534 0
M  V30 3888 H 369.048 3.94235 -5.19059 0
M  V30 3889 N 372.481 1.55866 -0.233164 0
M  V30 3890 C 373.411 2.23783 0.666599 0
M  V30 3891 C 374.392 1.21343 1.19205 0
M  V30 3892 O 375.577 1.4996 1.23392 0
M  V30 3893 C 372.707 2.92671 1.86978 0
M  V30 3894 C 371.661 4.01682 1.47768 0
M  V30 3895 C 370.987 4.57926 2.76058 0
M  V30 3896 C 372.287 5.18126 0.658993 0
M  V30 3897 H 373.981 2.99232 0.100306 0
M  V30 3898 H 371.527 1.43924 0.046804 0
M  V30 3899 H 373.48 3.3888 2.50476 0
M  V30 3900 H 372.204 2.14688 2.46123 0
M  V30 3901 H 370.863 3.56222 0.866106 0
M  V30 3902 H 370.511 3.76659 3.33372 0
M  V30 3903 H 370.211 5.31505 2.50552 0
M  V30 3904 H 371.735 5.06859 3.40479 0
M  V30 3905 H 373.149 5.60644 1.19795 0
M  V30 3906 H 371.546 5.98009 0.500552 0
M  V30 3907 H 372.616 4.83763 -0.331856 0
M  V30 3908 N 373.959 -0.0401083 1.57549 0
M  V30 3909 C 375.207 -0.731677 1.8839 0
M  V30 3910 C 375.528 -1.76481 0.829425 0
M  V30 3911 O 374.798 -1.95411 -0.1383 0
M  V30 3912 H 373.378 -0.273225 0.695239 0
M  V30 3913 H 376.04 -0.00867725 1.94898 0
M  V30 3914 H 375.136 -1.22816 2.86919 0
M  V30 3915 N 375.437 -1.54477 -0.31217 0
M  V30 3916 C 376.367 -1.87652 -1.38957 0
M  V30 3917 C 377.348 -0.734358 -1.53431 0
M  V30 3918 O 378.533 -0.98911 -1.67123 0
M  V30 3919 C 375.663 -2.11396 -2.75552 0
M  V30 3920 C 374.617 -3.27243 -2.75855 0
M  V30 3921 C 373.943 -3.36382 -4.15633 0
M  V30 3922 C 375.243 -4.64622 -2.38587 0
M  V30 3923 H 376.937 -2.77887 -1.11442 0
M  V30 3924 H 374.483 -1.33707 -0.534655 0
M  V30 3925 H 376.436 -2.33189 -3.51 0
M  V30 3926 H 375.16 -1.17921 -3.04569 0
M  V30 3927 H 373.819 -3.05356 -2.02863 0
M  V30 3928 H 373.467 -2.40445 -4.41809 0
M  V30 3929 H 373.167 -4.14249 -4.1674 0
M  V30 3930 H 374.691 -3.60422 -4.92877 0
M  V30 3931 H 376.105 -4.86219 -3.03749 0
M  V30 3932 H 374.502 -5.45121 -2.50925 0
M  V30 3933 H 375.572 -4.66097 -1.33723 0
M  V30 3934 N 376.915 0.57481 -1.46744 0
M  V30 3935 C 378.163 1.33009 -1.52161 0
M  V30 3936 C 378.484 1.94185 -0.178092 0
M  V30 3937 O 377.754 1.7899 0.796196 0
M  V30 3938 H 376.334 0.493873 -0.560445 0
M  V30 3939 H 378.996 0.672589 -1.82927 0
M  V30 3940 H 378.092 2.13273 -2.27862 0
M  V30 3941 N 378.394 1.34581 0.820102 0
M  V30 3942 C 379.64 1.27285 1.57881 0
M  V30 3943 C 379.973 -0.156137 1.93571 0
M  V30 3944 O 379.248 -1.10222 1.60254 0
M  V30 3945 C 379.531 2.16639 2.87645 0
M  V30 3946 C 379.384 3.68088 2.58517 0
M  V30 3947 C 380.703 2.05378 3.8924 0
M  V30 3948 H 377.822 0.463714 0.572833 0
M  V30 3949 H 380.464 1.64859 0.944539 0
M  V30 3950 H 378.614 1.84725 3.41773 0
M  V30 3951 H 380.286 4.10382 2.10676 0
M  V30 3952 H 378.529 3.89038 1.91917 0
M  V30 3953 H 379.2 4.2598 3.51063 0
M  V30 3954 H 381.676 2.33404 3.44473 0
M  V30 3955 H 380.552 2.7012 4.77835 0
M  V30 3956 H 380.813 1.0316 4.29896 0
M  V30 3957 N 379.872 -1.04064 1.18357 0
M  V30 3958 C 381.097 -1.81454 1.00445 0
M  V30 3959 C 381.522 -1.82823 -0.442423 0
M  V30 3960 O 380.88 -1.24555 -1.31741 0
M  V30 3961 C 380.928 -3.24925 1.56384 0
M  V30 3962 O 380.032 -4.04856 0.785209 0
M  V30 3963 H 379.373 -0.560604 0.355835 0
M  V30 3964 H 381.903 -1.31059 1.57114 0
M  V30 3965 H 381.913 -3.75702 1.59097 0
M  V30 3966 H 380.588 -3.23244 2.61699 0
M  V30 3967 H 379.165 -3.63537 0.830399 0
M  V30 3968 N 381.35 -0.985608 -1.22978 0
M  V30 3969 C 382.761 -0.693593 -1.73338 0
M  V30 3970 C 383.112 0.789935 -1.79595 0
M  V30 3971 O 382.237 1.61771 -1.43733 0
M  V30 3972 C 382.832 -1.25235 -3.14804 0
M  V30 3973 C 381.391 -1.00987 -3.626 0
M  V30 3974 C 380.538 -1.37695 -2.40698 0
M  V30 3975 H 383.489 -1.15884 -1.08428 0
M  V30 3976 H 383.51 -0.627329 -3.75293 0
M  V30 3977 H 383.022 -2.33209 -3.10218 0
M  V30 3978 H 381.123 0.0535565 -3.72562 0
M  V30 3979 H 381.236 -1.66812 -4.49122 0
M  V30 3980 H 379.6 -0.795459 -2.4196 0
M  V30 3981 H 380.383 -2.46657 -2.38779 0
M  V30 3982 N 382.828 1.3818 -0.7579 0
M  V30 3983 C 384.076 1.99624 -0.315361 0
M  V30 3984 C 384.397 1.60464 1.10799 0
M  V30 3985 O 383.667 0.863507 1.75842 0
M  V30 3986 H 382.247 0.73831 -0.113611 0
M  V30 3987 H 384.909 1.68878 -0.972952 0
M  V30 3988 H 384.005 3.09754 -0.381931 0
M  V30 3989 N 384.306 0.507319 1.49211 0
M  V30 3990 C 385.536 -0.0315292 2.06576 0
M  V30 3991 C 385.944 -1.30791 1.36713 0
M  V30 3992 O 385.287 -1.78324 0.441181 0
M  V30 3993 C 385.349 -0.349104 3.57801 0
M  V30 3994 C 385.013 0.830475 4.49391 0
M  V30 3995 C 386.01 1.72271 4.90529 0
M  V30 3996 C 383.695 1.03107 4.91604 0
M  V30 3997 C 385.689 2.79964 5.72625 0
M  V30 3998 C 383.376 2.11116 5.73475 0
M  V30 3999 C 384.374 2.99379 6.1389 0
M  V30 4000 O 384.062 4.05523 6.94123 0
M  V30 4001 H 383.794 0.0201002 0.675701 0
M  V30 4002 H 386.348 0.705737 1.92895 0
M  V30 4003 H 384.578 -1.14005 3.69513 0
M  V30 4004 H 386.267 -0.827319 3.97379 0
M  V30 4005 H 387.033 1.57958 4.58557 0
M  V30 4006 H 382.912 0.353417 4.59643 0
M  V30 4007 H 386.456 3.48884 6.04091 0
M  V30 4008 H 382.353 2.25421 6.0486 0
M  V30 4009 H 383.121 4.02953 7.1244 0
M  V30 4010 N 385.784 -1.5574 0.241426 0
M  V30 4011 C 386.716 -2.18469 -0.693091 0
M  V30 4012 C 387.729 -1.15942 -1.14286 0
M  V30 4013 O 388.918 -1.42832 -1.07058 0
M  V30 4014 C 386.018 -2.7696 -1.95311 0
M  V30 4015 C 385.191 -4.04853 -1.65568 0
M  V30 4016 C 384.25 -4.47715 -2.76474 0
M  V30 4017 O 383.276 -5.14205 -2.44094 0
M  V30 4018 N 384.478 -4.15044 -4.05855 0
M  V30 4019 H 387.243 -2.99292 -0.156388 0
M  V30 4020 H 384.804 -1.61784 0.0611752 0
M  V30 4021 H 386.796 -3.02594 -2.68736 0
M  V30 4022 H 385.366 -2.00326 -2.39975 0
M  V30 4023 H 384.586 -3.86865 -0.756886 0
M  V30 4024 H 385.874 -4.88246 -1.43153 0
M  V30 4025 H 385.272 -3.61654 -4.34998 0
M  V30 4026 H 383.829 -4.45526 -4.75762 0
M  V30 4027 N 387.262 0.0317525 -1.57568 0
M  V30 4028 C 388.49 0.734949 -1.93407 0
M  V30 4029 C 388.905 1.69036 -0.84096 0
M  V30 4030 O 388.262 1.81582 0.182836 0
M  V30 4031 C 388.313 1.49432 -3.29169 0
M  V30 4032 O 388.034 0.577261 -4.3428 0
M  V30 4033 C 389.535 2.29492 -3.79273 0
M  V30 4034 H 386.755 0.206706 -0.638368 0
M  V30 4035 H 389.299 -0.00992046 -2.04498 0
M  V30 4036 H 387.454 2.1911 -3.19483 0
M  V30 4037 H 387.868 1.10952 -5.1263 0
M  V30 4038 H 389.342 2.78172 -4.76785 0
M  V30 4039 H 389.819 3.10794 -3.10328 0
M  V30 4040 H 390.425 1.64894 -3.92033 0
M  V30 4041 N 388.74 1.54641 0.303973 0
M  V30 4042 C 389.987 1.7378 1.03955 0
M  V30 4043 C 390.315 0.521986 1.87365 0
M  V30 4044 O 389.57 -0.496099 1.89308 0
M  V30 4045 C 389.869 2.97753 1.97681 0
M  V30 4046 C 389.535 4.31671 1.30271 0
M  V30 4047 C 388.197 4.68075 1.11619 0
M  V30 4048 C 390.549 5.147 0.82055 0
M  V30 4049 C 387.877 5.8509 0.434304 0
M  V30 4050 C 390.229 6.32416 0.152395 0
M  V30 4051 C 388.893 6.67484 -0.0461067 0
M  V30 4052 H 388.163 0.635908 0.380398 0
M  V30 4053 H 390.81 1.88896 0.314718 0
M  V30 4054 H 389.115 2.77406 2.76682 0
M  V30 4055 H 390.812 3.09756 2.54661 0
M  V30 4056 H 387.402 4.03041 1.45795 0
M  V30 4057 H 391.586 4.87077 0.952374 0
M  V30 4058 H 386.842 6.10806 0.269495 0
M  V30 4059 H 391.016 6.96023 -0.229126 0
M  V30 4060 H 388.643 7.58011 -0.576494 0
M  V30 4061 N 390.218 -0.567019 1.47046 0
M  V30 4062 C 391.464 -1.32658 1.53394 0
M  V30 4063 C 391.797 -1.93254 0.19148 0
M  V30 4064 O 391.072 -1.77338 -0.798844 0
M  V30 4065 C 391.355 -2.44412 2.64452 0
M  V30 4066 C 391.208 -1.88749 4.08282 0
M  V30 4067 C 392.527 -3.46387 2.71485 0
M  V30 4068 H 389.646 -0.48098 0.558415 0
M  V30 4069 H 392.288 -0.635481 1.79058 0
M  V30 4070 H 390.438 -3.03363 2.427 0
M  V30 4071 H 392.11 -1.34134 4.41368 0
M  V30 4072 H 390.353 -1.19481 4.17021 0
M  V30 4073 H 391.024 -2.69491 4.81745 0
M  V30 4074 H 393.5 -2.9734 2.91081 0
M  V30 4075 H 392.376 -4.2202 3.50985 0
M  V30 4076 H 392.637 -4.04616 1.78153 0
M  V30 4077 N 391.696 -1.35014 -0.812953 0
M  V30 4078 C 392.921 -1.31187 -1.60639 0
M  V30 4079 C 393.346 0.109382 -1.87782 0
M  V30 4080 O 392.704 1.07424 -1.46047 0
M  V30 4081 C 392.752 -2.11809 -2.91838 0
M  V30 4082 O 391.856 -1.49444 -3.8437 0
M  V30 4083 H 391.197 -0.450084 -0.488181 0
M  V30 4084 H 393.727 -1.77963 -1.00947 0
M  V30 4085 H 393.737 -2.23531 -3.41318 0
M  V30 4086 H 392.412 -3.15137 -2.71407 0
M  V30 4087 H 390.989 -1.46524 -3.42907 0
M  V30 4088 N 393.175 1.03435 -1.18907 0
M  V30 4089 C 394.415 1.78302 -0.999391 0
M  V30 4090 C 394.779 1.86353 0.462219 0
M  V30 4091 O 395.98 2.57489 0.771543 0
M  V30 4092 C 394.251 3.17362 -1.64365 0
M  V30 4093 S 395.81 4.08488 -1.6026 0
M  V30 4094 H 392.628 0.613861 -0.358742 0
M  V30 4095 H 395.23 1.23979 -1.51161 0
M  V30 4096 H 393.934 3.09116 -2.69955 0
M  V30 4097 H 393.465 3.76762 -1.13199 0
M  V30 4098 H 395.48 4.92274 -0.622932 0
M  V30 4099 N 394.653 0.992116 1.22453 0
M  V30 4100 C 395.585 0.500024 2.23679 0
M  V30 4101 C 396.598 -0.404463 1.57696 0
M  V30 4102 O 397.787 -0.206722 1.77299 0
M  V30 4103 C 394.887 -0.294711 3.37616 0
M  V30 4104 C 394.06 0.605723 4.33186 0
M  V30 4105 C 393.119 -0.13717 5.26021 0
M  V30 4106 O 392.145 0.477164 5.67196 0
M  V30 4107 N 393.347 -1.4197 5.62872 0
M  V30 4108 H 396.112 1.37045 2.66531 0
M  V30 4109 H 393.673 0.866741 1.36745 0
M  V30 4110 H 395.665 -0.800329 3.96707 0
M  V30 4111 H 394.235 -1.06623 2.93854 0
M  V30 4112 H 393.455 1.29202 3.72425 0
M  V30 4113 H 394.743 1.21896 4.93983 0
M  V30 4114 H 394.141 -1.94015 5.31389 0
M  V30 4115 H 392.698 -1.87052 6.24383 0
M  V30 4116 N 396.131 -1.37776 0.765217 0
M  V30 4117 C 397.063 -2.28958 0.105361 0
M  V30 4118 C 398.076 -1.48316 -0.67128 0
M  V30 4119 O 399.265 -1.71046 -0.51045 0
M  V30 4120 C 396.365 -3.27421 -0.874569 0
M  V30 4121 C 395.538 -4.37132 -0.153123 0
M  V30 4122 C 394.597 -5.1571 -1.04547 0
M  V30 4123 O 393.623 -5.66896 -0.511672 0
M  V30 4124 N 394.825 -5.29808 -2.37243 0
M  V30 4125 H 397.59 -2.86227 0.888495 0
M  V30 4126 H 395.151 -1.49682 0.617 0
M  V30 4127 H 397.143 -3.7687 -1.47483 0
M  V30 4128 H 395.713 -2.70967 -1.55871 0
M  V30 4129 H 394.933 -3.89166 0.627975 0
M  V30 4130 H 396.221 -5.07625 0.345643 0
M  V30 4131 H 395.619 -4.89793 -2.83054 0
M  V30 4132 H 394.176 -5.82589 -2.9229 0
M  V30 4133 N 397.609 -0.515225 -1.4894 0
M  V30 4134 C 398.541 0.292481 -2.27326 0
M  V30 4135 C 399.554 0.917838 -1.3446 0
M  V30 4136 O 400.743 0.798772 -1.5963 0
M  V30 4137 C 397.843 1.42803 -3.07344 0
M  V30 4138 C 397.016 0.907347 -4.27885 0
M  V30 4139 C 396.075 1.92222 -4.89834 0
M  V30 4140 O 395.101 1.48506 -5.49486 0
M  V30 4141 N 396.303 3.25355 -4.80754 0
M  V30 4142 H 399.068 -0.379721 -2.97285 0
M  V30 4143 H 396.629 -0.348638 -1.58102 0
M  V30 4144 H 398.621 2.10481 -3.45658 0
M  V30 4145 H 397.191 2.00414 -2.39902 0
M  V30 4146 H 396.411 0.0550218 -3.94162 0
M  V30 4147 H 397.699 0.538108 -5.05946 0
M  V30 4148 H 397.097 3.6355 -4.33414 0
M  V30 4149 H 395.654 3.88707 -5.23211 0
M  V30 4150 N 399.087 1.5561 -0.249682 0
M  V30 4151 C 400.019 2.18834 0.681496 0
M  V30 4152 C 401.032 1.16546 1.1367 0
M  V30 4153 O 402.221 1.43397 1.06299 0
M  V30 4154 C 399.321 2.77992 1.9384 0
M  V30 4155 C 398.494 4.05725 1.63419 0
M  V30 4156 C 397.553 4.49174 2.74096 0
M  V30 4157 O 396.579 5.15492 2.41364 0
M  V30 4158 N 397.781 4.17191 4.03649 0
M  V30 4159 H 400.546 2.9937 0.140514 0
M  V30 4160 H 398.107 1.6175 -0.0697541 0
M  V30 4161 H 400.099 3.04015 2.67127 0
M  V30 4162 H 398.669 2.01596 2.38909 0
M  V30 4163 H 397.889 3.87261 0.736358 0
M  V30 4164 H 399.177 4.88999 1.40562 0
M  V30 4165 H 398.575 3.63955 4.33074 0
M  V30 4166 H 397.132 4.48043 4.73393 0
M  V30 4167 N 400.565 -0.0233959 1.57583 0
M  V30 4168 C 401.495 -1.02162 2.09965 0
M  V30 4169 C 402.476 -1.3735 1.00344 0
M  V30 4170 O 403.661 -1.46135 1.27899 0
M  V30 4171 C 400.791 -2.32081 2.58371 0
M  V30 4172 C 399.745 -2.1112 3.72307 0
M  V30 4173 C 399.071 -3.46848 4.06941 0
M  V30 4174 C 400.371 -1.49276 5.00514 0
M  V30 4175 H 402.065 -0.585557 2.93618 0
M  V30 4176 H 399.611 -0.280218 1.41247 0
M  V30 4177 H 401.564 -3.02249 2.93639 0
M  V30 4178 H 400.288 -2.77758 1.71808 0
M  V30 4179 H 398.947 -1.43384 3.37397 0
M  V30 4180 H 398.595 -3.90184 3.17436 0
M  V30 4181 H 398.295 -3.33646 4.83688 0
M  V30 4182 H 399.819 -4.18369 4.44747 0
M  V30 4183 H 401.233 -2.09368 5.33702 0
M  V30 4184 H 399.63 -1.46632 5.8191 0
M  V30 4185 H 400.7 -0.459217 4.82721 0
M  V30 4186 N 402.043 -1.548 -0.295768 0
M  V30 4187 C 403.268 -1.78653 -1.05346 0
M  V30 4188 C 403.693 -0.546894 -1.79974 0
M  V30 4189 O 403.051 0.502763 -1.7419 0
M  V30 4190 C 403.099 -2.99679 -2.00561 0
M  V30 4191 O 402.203 -2.7317 -3.08953 0
M  V30 4192 H 401.544 -0.59116 -0.302367 0
M  V30 4193 H 404.074 -2.01895 -0.331598 0
M  V30 4194 H 404.084 -3.27793 -2.42932 0
M  V30 4195 H 402.759 -3.89562 -1.4565 0
M  V30 4196 H 401.336 -2.56089 -2.71059 0
M  V30 4197 N 403.521 0.559213 -1.47345 0
M  V30 4198 C 404.768 1.31648 -1.53867 0
M  V30 4199 C 405.096 1.93468 -0.200104 0
M  V30 4200 O 404.351 1.78295 0.806799 0
M  V30 4201 C 404.65 2.44853 -2.6035 0
M  V30 4202 C 404.316 2.00876 -4.03683 0
M  V30 4203 C 402.978 1.88599 -4.42701 0
M  V30 4204 C 405.33 1.67279 -4.93626 0
M  V30 4205 C 402.658 1.41017 -5.69501 0
M  V30 4206 C 405.01 1.21169 -6.20887 0
M  V30 4207 C 403.674 1.07487 -6.58789 0
M  V30 4208 H 402.944 0.481734 -0.56304 0
M  V30 4209 H 405.591 0.627301 -1.80934 0
M  V30 4210 H 403.896 3.19318 -2.27032 0
M  V30 4211 H 405.593 3.03039 -2.62619 0
M  V30 4212 H 402.183 2.11374 -3.72853 0
M  V30 4213 H 406.367 1.75638 -4.64182 0
M  V30 4214 H 401.623 1.29086 -5.97618 0
M  V30 4215 H 405.797 0.942345 -6.89995 0
M  V30 4216 H 403.424 0.703946 -7.56934 0
M  V30 4217 N 404.999 1.35443 0.805782 0
M  V30 4218 C 405.929 1.31095 1.93226 0
M  V30 4219 C 406.91 0.185244 1.69088 0
M  V30 4220 O 408.095 0.380332 1.90439 0
M  V30 4221 C 405.225 1.08299 3.29983 0
M  V30 4222 C 404.179 2.17519 3.68605 0
M  V30 4223 C 403.505 1.79887 5.03532 0
M  V30 4224 C 404.805 3.5949 3.78898 0
M  V30 4225 H 406.499 2.25352 1.97122 0
M  V30 4226 H 404.045 1.0848 0.946996 0
M  V30 4227 H 405.998 1.03897 4.08391 0
M  V30 4228 H 404.722 0.104885 3.26432 0
M  V30 4229 H 403.381 2.2102 2.92482 0
M  V30 4230 H 403.029 0.80693 4.96485 0
M  V30 4231 H 402.729 2.53001 5.30344 0
M  V30 4232 H 404.253 1.77011 5.84379 0
M  V30 4233 H 405.667 3.58307 4.47536 0
M  V30 4234 H 404.064 4.31371 4.1718 0
M  V30 4235 H 405.134 3.95584 2.80431 0
M  V30 4236 N 406.477 -1.02803 1.19454 0
M  V30 4237 C 407.888 -1.57667 0.999899 0
M  V30 4238 C 408.239 -1.91041 -0.446956 0
M  V30 4239 O 407.364 -1.70978 -1.32648 0
M  V30 4240 C 407.959 -2.86477 1.80877 0
M  V30 4241 C 406.518 -3.37911 1.65811 0
M  V30 4242 C 405.665 -2.11343 1.79526 0
M  V30 4243 H 408.616 -0.853214 1.33813 0
M  V30 4244 H 408.637 -3.57408 1.30536 0
M  V30 4245 H 408.149 -2.62155 2.86175 0
M  V30 4246 H 406.25 -3.67218 0.63102 0
M  V30 4247 H 406.363 -4.10885 2.46395 0
M  V30 4248 H 404.727 -2.23254 1.22596 0
M  V30 4249 H 405.51 -1.89461 2.86285 0
M  V30 4250 N 407.956 -0.998596 -1.21925 0
M  V30 4251 C 409.367 -0.711939 -1.72593 0
M  V30 4252 C 409.718 0.770842 -1.80423 0
M  V30 4253 O 408.843 1.60237 -1.4544 0
M  V30 4254 C 409.438 -1.28567 -3.13458 0
M  V30 4255 C 407.997 -1.04828 -3.61508 0
M  V30 4256 C 407.144 -1.4024 -2.39224 0
M  V30 4257 H 410.095 -1.17027 -1.07193 0
M  V30 4258 H 410.116 -0.667098 -3.74607 0
M  V30 4259 H 409.628 -2.36486 -3.07727 0
M  V30 4260 H 407.729 0.0140383 -3.72597 0
M  V30 4261 H 407.842 -1.71566 -4.47328 0
M  V30 4262 H 406.206 -0.821077 -2.41103 0
M  V30 4263 H 406.989 -2.49176 -2.36149 0
M  V30 4264 N 409.434 1.37368 -0.772513 0
M  V30 4265 C 410.845 1.8231 -0.402493 0
M  V30 4266 C 411.196 1.6436 1.07146 0
M  V30 4267 O 410.321 1.15514 1.82991 0
M  V30 4268 C 410.916 3.30979 -0.723776 0
M  V30 4269 C 409.475 3.74195 -0.406802 0
M  V30 4270 C 408.622 2.59885 -0.967218 0
M  V30 4271 H 411.573 1.25829 -0.967099 0
M  V30 4272 H 411.594 3.80499 -0.00870832 0
M  V30 4273 H 411.106 3.44011 -1.7966 0
M  V30 4274 H 409.207 3.66732 0.658673 0
M  V30 4275 H 409.32 4.7027 -0.915588 0
M  V30 4276 H 407.684 2.51674 -0.391416 0
M  V30 4277 H 408.467 2.7571 -2.04546 0
M  V30 4278 N 410.912 0.523116 1.48665 0
M  V30 4279 C 412.158 -0.00540031 2.03399 0
M  V30 4280 C 412.513 -1.3264 1.39372 0
M  V30 4281 O 411.806 -1.84184 0.527916 0
M  V30 4282 C 412 -0.191671 3.56886 0
M  V30 4283 C 411.829 1.10972 4.35793 0
M  V30 4284 C 410.599 1.66769 4.76987 0
M  V30 4285 C 412.797 2.01861 4.73029 0
M  V30 4286 N 410.779 2.91268 5.40404 0
M  V30 4287 C 412.15 3.10937 5.36394 0
M  V30 4288 C 414.205 2.02271 4.54962 0
M  V30 4289 C 412.908 4.20478 5.83601 0
M  V30 4290 C 414.934 3.10802 5.03146 0
M  V30 4291 C 414.296 4.18597 5.6653 0
M  V30 4292 H 410.395 0.0393531 0.781009 0
M  V30 4293 H 412.979 0.702876 1.8157 0
M  V30 4294 H 411.15 -0.869025 3.78553 0
M  V30 4295 H 412.882 -0.719177 3.98259 0
M  V30 4296 H 409.637 1.20996 4.57883 0
M  V30 4297 H 410.061 3.54635 5.76683 0
M  V30 4298 H 414.703 1.2023 4.05345 0
M  V30 4299 H 412.421 5.03303 6.32228 0
M  V30 4300 H 416.007 3.12166 4.90962 0
M  V30 4301 H 414.887 5.01193 6.03138 0
M  V30 4302 N 412.39 -1.55475 0.257931 0
M  V30 4303 C 413.638 -1.98813 -0.363009 0
M  V30 4304 C 413.959 -1.14757 -1.57657 0
M  V30 4305 O 413.229 -0.232956 -1.9451 0
M  V30 4306 H 411.809 -0.734308 -0.137113 0
M  V30 4307 H 414.471 -1.9156 0.359281 0
M  V30 4308 H 413.567 -3.04941 -0.664634 0
M  V30 4309 N 413.868 0.0150385 -1.57593 0
M  V30 4310 C 415.145 0.7392 -1.81094 0
M  V30 4311 C 415.525 1.92817 -0.859344 0
M  V30 4312 O 414.873 2.28301 0.095362 0
M  V30 4313 C 415.083 1.15907 -3.29191 0
M  V30 4314 C 416.431 1.56918 -3.9454 0
M  V30 4315 O 417.455 1.25328 -3.33424 0
M  V30 4316 O 416.314 2.15604 -5.02173 0
M  V30 4317 H 413.408 0.358631 -0.745193 0
M  V30 4318 H 415.954 -0.00926156 -1.69697 0
M  V30 4319 H 414.726 0.310921 -3.90063 0
M  V30 4320 H 414.349 1.96711 -3.45529 0
M  V30 4321 N 415.346 1.54954 0.287554 0
M  V30 4322 C 416.586 1.76617 1.02887 0
M  V30 4323 C 416.95 0.547759 1.84021 0
M  V30 4324 O 418.151 0.642365 2.61012 0
M  V30 4325 C 416.422 3.02717 1.89993 0
M  V30 4326 S 417.981 3.45438 2.70588 0
M  V30 4327 H 414.799 0.6207 0.346775 0
M  V30 4328 H 417.401 1.93172 0.30082 0
M  V30 4329 H 416.105 3.89503 1.29287 0
M  V30 4330 H 415.636 2.88787 2.67144 0
M  V30 4331 H 417.651 3.03566 3.92508 0
M  V30 4332 N 416.824 -0.551391 1.4764 0
M  V30 4333 C 418.049 -1.33837 1.58437 0
M  V30 4334 C 418.474 -1.866 0.237063 0
M  V30 4335 O 417.832 -1.6328 -0.787994 0
M  V30 4336 C 417.88 -2.48014 2.61766 0
M  V30 4337 O 416.984 -3.50419 2.1744 0
M  V30 4338 H 416.325 -0.397299 0.532024 0
M  V30 4339 H 418.855 -0.665759 1.93465 0
M  V30 4340 H 418.865 -2.94503 2.82369 0
M  V30 4341 H 417.54 -2.08969 3.5959 0
M  V30 4342 H 416.117 -3.10196 2.06961 0
M  V30 4343 N 418.302 -1.35869 -0.798587 0
M  V30 4344 C 419.527 -1.32883 -1.59238 0
M  V30 4345 C 419.952 0.0894587 -1.87887 0
M  V30 4346 O 419.31 1.05869 -1.47178 0
M  V30 4347 C 419.358 -2.14892 -2.89575 0
M  V30 4348 O 418.462 -1.53512 -3.82763 0
M  V30 4349 H 417.803 -0.455236 -0.48338 0
M  V30 4350 H 420.333 -1.79024 -0.990539 0
M  V30 4351 H 420.343 -2.27139 -3.38928 0
M  V30 4352 H 419.018 -3.17998 -2.68049 0
M  V30 4353 H 417.595 -1.50153 -3.41334 0
M  V30 4354 N 419.78 1.02168 -1.19998 0
M  V30 4355 C 420.743 2.08765 -0.94604 0
M  V30 4356 C 421.743 1.60618 0.0763846 0
M  V30 4357 O 422.933 1.73472 -0.159135 0
M  V30 4358 C 420.065 3.38262 -0.423255 0
M  V30 4359 H 421.258 2.32726 -1.89153 0
M  V30 4360 H 418.811 1.1889 -1.01464 0
M  V30 4361 H 419.546 3.19974 0.527938 0
M  V30 4362 H 419.331 3.74532 -1.16053 0
M  V30 4363 H 420.821 4.16759 -0.264911 0
M  V30 4364 N 421.258 1.00505 1.21394 0
M  V30 4365 C 422.483 0.706367 1.95001 0
M  V30 4366 C 422.908 -0.72463 1.73582 0
M  V30 4367 O 422.266 -1.49702 1.0227 0
M  V30 4368 C 422.314 1.03299 3.45487 0
M  V30 4369 O 421.418 0.138275 4.12168 0
M  V30 4370 H 420.759 0.263175 0.609619 0
M  V30 4371 H 423.289 1.34531 1.54151 0
M  V30 4372 H 423.299 0.979872 3.96059 0
M  V30 4373 H 421.974 2.07567 3.60401 0
M  V30 4374 H 420.551 0.247928 3.72075 0
M  V30 4375 N 422.737 -1.36956 0.779787 0
M  V30 4376 C 423.667 -2.32761 0.185651 0
M  V30 4377 C 424.648 -1.56177 -0.673989 0
M  V30 4378 O 425.833 -1.84378 -0.609797 0
M  V30 4379 C 422.963 -3.40418 -0.687964 0
M  V30 4380 C 421.917 -4.27941 0.0710102 0
M  V30 4381 C 421.243 -5.26681 -0.922573 0
M  V30 4382 C 422.543 -5.07006 1.25467 0
M  V30 4383 H 424.237 -2.82698 0.986008 0
M  V30 4384 H 421.783 -1.3592 0.475592 0
M  V30 4385 H 423.736 -4.06423 -1.11348 0
M  V30 4386 H 422.46 -2.89025 -1.52093 0
M  V30 4387 H 421.119 -3.63478 0.47739 0
M  V30 4388 H 420.767 -4.71565 -1.7503 0
M  V30 4389 H 420.467 -5.86103 -0.419237 0
M  V30 4390 H 421.991 -5.9556 -1.34686 0
M  V30 4391 H 423.405 -5.66105 0.905401 0
M  V30 4392 H 421.802 -5.75793 1.69063 0
M  V30 4393 H 422.872 -4.3921 2.05481 0
M  V30 4394 N 424.215 -0.530993 -1.48385 0
M  V30 4395 C 425.163 0.244595 -2.3131 0
M  V30 4396 C 426.157 0.93451 -1.41291 0
M  V30 4397 O 427.363 0.85878 -1.58193 0
M  V30 4398 H 423.738 0.0977472 -0.74562 0
M  V30 4399 H 425.709 -0.474369 -2.94605 0
M  V30 4400 C 424.458 1.2779 -3.23365 0
M  V30 4401 H 423.781 0.756439 -3.92579 0
M  V30 4402 H 425.221 1.79198 -3.84271 0
M  V30 4403 C 423.68 2.31205 -2.45042 0
M  V30 4404 O 424.21 3.37661 -2.17596 0
M  V30 4405 N 422.416 2.04446 -2.0652 0
M  V30 4406 H 421.963 1.17891 -2.2904 0
M  V30 4407 H 421.921 2.73861 -1.54427 0
M  V30 4408 N 425.693 1.55336 -0.266172 0
M  V30 4409 C 427.104 1.85236 0.233315 0
M  V30 4410 C 427.455 1.18816 1.56132 0
M  V30 4411 O 426.58 0.473307 2.11161 0
M  V30 4412 C 427.175 3.36059 0.430113 0
M  V30 4413 C 425.734 3.66116 0.873842 0
M  V30 4414 C 424.881 2.77274 -0.0380016 0
M  V30 4415 H 427.832 1.51004 -0.488214 0
M  V30 4416 H 427.853 3.58681 1.26998 0
M  V30 4417 H 427.365 3.84373 -0.536588 0
M  V30 4418 H 425.466 3.23295 1.85233 0
M  V30 4419 H 425.579 4.73699 0.717358 0
M  V30 4420 H 423.943 2.50198 0.476759 0
M  V30 4421 H 424.726 3.284 -1.00042 0
M  V30 4422 N 427.171 -0.0066808 1.57599 0
M  V30 4423 C 428.119 -1.01851 2.09115 0
M  V30 4424 C 429.113 -1.36021 1.00969 0
M  V30 4425 O 430.319 -1.34663 1.19439 0
M  V30 4426 H 426.694 -0.346083 0.667631 0
M  V30 4427 H 428.665 -0.558394 2.93129 0
M  V30 4428 C 427.414 -2.30374 2.60429 0
M  V30 4429 H 426.737 -2.04947 3.43273 0
M  V30 4430 H 428.177 -2.99466 3.00161 0
M  V30 4431 C 426.636 -3.00893 1.51542 0
M  V30 4432 O 427.166 -3.91614 0.894484 0
M  V30 4433 N 425.372 -2.62603 1.2445 0
M  V30 4434 H 424.919 -1.88911 1.75129 0
M  V30 4435 H 424.877 -3.10101 0.518137 0
M  V30 4436 N 428.649 -1.55105 -0.279332 0
M  V30 4437 C 429.879 -1.7917 -1.02867 0
M  V30 4438 C 430.287 -0.56204 -1.80659 0
M  V30 4439 O 429.63 0.478266 -1.77365 0
M  V30 4440 C 429.692 -2.96061 -2.03932 0
M  V30 4441 C 429.356 -4.33341 -1.45137 0
M  V30 4442 C 430.353 -5.12565 -0.870266 0
M  V30 4443 C 428.038 -4.79987 -1.48048 0
M  V30 4444 C 430.032 -6.36565 -0.326097 0
M  V30 4445 C 427.719 -6.03944 -0.932443 0
M  V30 4446 C 428.717 -6.8207 -0.356247 0
M  V30 4447 O 428.405 -8.03691 0.183412 0
M  V30 4448 H 428.137 -0.600796 -0.309872 0
M  V30 4449 H 430.691 -2.02932 -0.317468 0
M  V30 4450 H 428.921 -2.67975 -2.78794 0
M  V30 4451 H 430.61 -3.07506 -2.64943 0
M  V30 4452 H 431.376 -4.77661 -0.840521 0
M  V30 4453 H 427.255 -4.1919 -1.91835 0
M  V30 4454 H 430.799 -6.97489 0.124286 0
M  V30 4455 H 426.696 -6.3833 -0.959407 0
M  V30 4456 H 427.464 -8.18468 0.0721681 0
M  V30 4457 N 430.127 0.543554 -1.4793 0
M  V30 4458 C 431.037 1.67657 -1.64098 0
M  V30 4459 C 432.053 1.65934 -0.523622 0
M  V30 4460 O 433.229 1.85133 -0.792943 0
M  V30 4461 C 430.294 3.04146 -1.66421 0
M  V30 4462 C 429.355 3.16831 -2.89684 0
M  V30 4463 C 428.588 4.46809 -2.91886 0
M  V30 4464 O 428.811 5.33095 -2.02895 0
M  V30 4465 O 427.745 4.63573 -3.83906 0
M  V30 4466 H 431.571 1.56957 -2.59997 0
M  V30 4467 H 429.156 0.715116 -1.31173 0
M  V30 4468 H 431.038 3.85346 -1.70548 0
M  V30 4469 H 429.713 3.152 -0.736923 0
M  V30 4470 H 428.62 2.34977 -2.91095 0
M  V30 4471 H 429.953 3.10687 -3.81752 0
M  V30 4472 N 431.605 1.3629 0.791371 0
M  V30 4473 C 433.016 1.27225 1.36641 0
M  V30 4474 C 433.367 -0.0887968 1.95999 0
M  V30 4475 O 432.492 -0.990207 1.92416 0
M  V30 4476 C 433.087 2.30375 2.48421 0
M  V30 4477 C 431.646 2.25004 3.01746 0
M  V30 4478 C 430.793 2.15259 1.7481 0
M  V30 4479 H 433.744 1.47198 0.593173 0
M  V30 4480 H 433.765 1.93905 3.27385 0
M  V30 4481 H 433.277 3.29422 2.05189 0
M  V30 4482 H 431.378 1.29417 3.49403 0
M  V30 4483 H 431.491 3.1761 3.58693 0
M  V30 4484 H 429.855 1.61482 1.96966 0
M  V30 4485 H 430.638 3.16191 1.33709 0
M  V30 4486 N 433.083 -1.0153 1.20538 0
M  V30 4487 C 433.993 -2.13557 0.971113 0
M  V30 4488 C 435.009 -1.73845 -0.0734366 0
M  V30 4489 O 436.185 -2.01075 0.114299 0
M  V30 4490 C 433.25 -3.42661 0.527639 0
M  V30 4491 C 432.311 -3.96608 1.64319 0
M  V30 4492 C 431.544 -5.1955 1.22078 0
M  V30 4493 O 431.767 -5.70329 0.0900198 0
M  V30 4494 O 430.701 -5.66681 2.02871 0
M  V30 4495 H 434.527 -2.3619 1.90913 0
M  V30 4496 H 432.112 -1.11946 0.989362 0
M  V30 4497 H 433.994 -4.20404 0.289621 0
M  V30 4498 H 432.669 -3.21441 -0.381779 0
M  V30 4499 H 431.576 -3.20139 1.93551 0
M  V30 4500 H 432.909 -4.22219 2.52966 0
M  V30 4501 N 434.561 -1.01147 -1.20859 0
M  V30 4502 C 435.972 -0.730205 -1.71828 0
M  V30 4503 C 436.323 0.751662 -1.8123 0
M  V30 4504 O 435.448 1.58686 -1.47132 0
M  V30 4505 C 436.043 -1.31885 -3.12077 0
M  V30 4506 C 434.602 -1.08656 -3.60376 0
M  V30 4507 C 433.749 -1.42769 -2.37723 0
M  V30 4508 H 436.7 -1.18158 -1.05945 0
M  V30 4509 H 436.721 -0.706793 -3.73878 0
M  V30 4510 H 436.233 -2.39737 -3.05201 0
M  V30 4511 H 434.334 -0.0254814 -3.72591 0
M  V30 4512 H 434.447 -1.76301 -4.45483 0
M  V30 4513 H 432.811 -0.846603 -2.40218 0
M  V30 4514 H 433.594 -2.51666 -2.33493 0
M  V30 4515 N 436.039 1.36541 -0.78704 0
M  V30 4516 C 437.264 2.0409 -0.369053 0
M  V30 4517 C 437.689 1.58957 1.00569 0
M  V30 4518 O 437.047 0.756926 1.64743 0
M  V30 4519 C 437.095 3.57924 -0.438466 0
M  V30 4520 O 436.199 4.08642 0.555479 0
M  V30 4521 H 435.54 0.645142 -0.157122 0
M  V30 4522 H 438.07 1.74545 -1.06749 0
M  V30 4523 H 438.08 4.06887 -0.301218 0
M  V30 4524 H 436.755 3.90127 -1.44132 0
M  V30 4525 H 435.332 3.70958 0.380088 0
M  V30 4526 N 437.518 0.538854 1.48102 0
M  V30 4527 C 438.795 -0.0568108 1.95517 0
M  V30 4528 C 439.175 -1.50408 1.48124 0
M  V30 4529 O 438.523 -2.17133 0.711727 0
M  V30 4530 C 438.733 0.0696262 3.48931 0
M  V30 4531 C 440.081 -0.0851202 4.24515 0
M  V30 4532 O 441.105 -0.0037347 3.562 0
M  V30 4533 O 439.964 -0.257025 5.45895 0
M  V30 4534 H 437.058 -0.0743695 0.823649 0
M  V30 4535 H 439.604 0.604081 1.58584 0
M  V30 4536 H 438.376 1.07744 3.76174 0
M  V30 4537 H 437.999 -0.629714 3.92582 0
M  V30 4538 N 438.996 -1.55193 0.274407 0
M  V30 4539 C 440.407 -1.85358 -0.223488 0
M  V30 4540 C 440.758 -1.19642 -1.555 0
M  V30 4541 O 439.883 -0.484498 -2.10907 0
M  V30 4542 C 440.478 -3.36282 -0.412285 0
M  V30 4543 C 439.037 -3.66574 -0.854413 0
M  V30 4544 C 438.184 -2.7725 0.0527056 0
M  V30 4545 H 441.135 -1.50743 0.496215 0
M  V30 4546 H 441.156 -3.59349 -1.25094 0
M  V30 4547 H 440.668 -3.84083 0.556965 0
M  V30 4548 H 438.769 -3.24273 -1.83516 0
M  V30 4549 H 438.882 -4.74073 -0.692226 0
M  V30 4550 H 437.246 -2.50447 -0.463484 0
M  V30 4551 H 438.029 -3.27865 1.01783 0
M  V30 4552 N 440.474 -0.00167713 -1.576 0
M  V30 4553 C 441.404 0.988091 -2.11563 0
M  V30 4554 C 442.385 1.35736 -1.02517 0
M  V30 4555 O 443.57 1.44082 -1.30208 0
M  V30 4556 C 440.7 2.27941 -2.62031 0
M  V30 4557 C 439.654 2.0517 -3.75619 0
M  V30 4558 C 438.98 3.4033 -4.12407 0
M  V30 4559 C 440.28 1.41294 -5.02825 0
M  V30 4560 H 441.974 0.538771 -2.94513 0
M  V30 4561 H 439.52 0.257712 -1.41675 0
M  V30 4562 H 441.473 2.97539 -2.9841 0
M  V30 4563 H 440.197 2.74989 -1.76205 0
M  V30 4564 H 438.856 1.37998 -3.39635 0
M  V30 4565 H 438.504 3.85085 -3.23603 0
M  V30 4566 H 438.204 3.25909 -4.88935 0
M  V30 4567 H 439.728 4.1124 -4.51347 0
M  V30 4568 H 441.142 2.00851 -5.36965 0
M  V30 4569 H 439.539 1.37356 -5.84169 0
M  V30 4570 H 440.609 0.382362 -4.8339 0
M  V30 4571 N 441.952 1.55251 0.271103 0
M  V30 4572 C 443.2 1.75599 1.00047 0
M  V30 4573 C 443.521 0.561188 1.8675 0
M  V30 4574 O 442.791 -0.423846 1.9126 0
M  V30 4575 H 441.371 0.647562 0.372387 0
M  V30 4576 H 444.033 1.92656 0.294876 0
M  V30 4577 H 443.129 2.65766 1.6363 0
M  V30 4578 N 443.43 -0.535701 1.48216 0
M  V30 4579 C 444.655 -1.32149 1.59848 0
M  V30 4580 C 445.08 -1.86338 0.256842 0
M  V30 4581 O 444.438 -1.64107 -0.770632 0
M  V30 4582 C 444.486 -2.45224 2.64381 0
M  V30 4583 O 443.59 -3.48093 2.21144 0
M  V30 4584 H 442.931 -0.391634 0.536208 0
M  V30 4585 H 445.461 -0.645202 1.94161 0
M  V30 4586 H 445.471 -2.91491 2.85476 0
M  V30 4587 H 444.146 -2.05143 3.61786 0
M  V30 4588 H 442.723 -3.07984 2.10239 0
M  V30 4589 N 444.908 -1.36708 -0.784132 0
M  V30 4590 C 446.319 -1.27947 -1.35965 0
M  V30 4591 C 446.67 0.0784013 -1.96043 0
M  V30 4592 O 445.795 0.979989 -1.92938 0
M  V30 4593 C 446.39 -2.31689 -2.47195 0
M  V30 4594 C 444.949 -2.26601 -3.00548 0
M  V30 4595 C 444.096 -2.16184 -1.73666 0
M  V30 4596 H 447.047 -1.4751 -0.585358 0
M  V30 4597 H 447.068 -1.95638 -3.26352 0
M  V30 4598 H 446.58 -3.30506 -2.03439 0
M  V30 4599 H 444.681 -1.31268 -3.48711 0
M  V30 4600 H 444.794 -3.19508 -3.57004 0
M  V30 4601 H 443.158 -1.62524 -1.96107 0
M  V30 4602 H 443.941 -3.16896 -1.32031 0
M  V30 4603 N 446.386 1.0089 -1.21074 0
M  V30 4604 C 447.611 1.78727 -1.05221 0
M  V30 4605 C 448.036 1.83932 0.393795 0
M  V30 4606 O 447.394 1.28004 1.28393 0
M  V30 4607 C 447.442 3.20665 -1.64944 0
M  V30 4608 O 446.546 4.02632 -0.892273 0
M  V30 4609 H 445.887 0.550973 -0.370574 0
M  V30 4610 H 448.417 1.26847 -1.60534 0
M  V30 4611 H 448.427 3.71352 -1.69002 0
M  V30 4612 H 447.102 3.16191 -2.70177 0
M  V30 4613 H 445.679 3.61207 -0.926492 0
M  V30 4614 N 447.864 1.01787 1.20321 0
M  V30 4615 C 449.275 0.739307 1.71438 0
M  V30 4616 C 449.626 -0.742041 1.81627 0
M  V30 4617 O 448.751 -1.57903 1.47971 0
M  V30 4618 C 449.346 1.33538 3.11373 0
M  V30 4619 C 447.905 1.10566 3.59795 0
M  V30 4620 C 447.052 1.44028 2.36962 0
M  V30 4621 H 450.003 1.18718 1.05317 0
M  V30 4622 H 450.024 0.726611 3.73498 0
M  V30 4623 H 449.536 2.41352 3.03926 0
M  V30 4624 H 447.637 0.0452405 3.72573 0
M  V30 4625 H 447.75 1.78661 4.44542 0
M  V30 4626 H 446.114 0.85933 2.39766 0
M  V30 4627 H 446.897 2.52901 2.32155 0
M  V30 4628 N 449.342 -1.36122 0.79427 0
M  V30 4629 C 450.567 -2.03891 0.379871 0
M  V30 4630 C 450.992 -1.59488 -0.997251 0
M  V30 4631 O 450.35 -0.765652 -1.64339 0
M  V30 4632 C 450.398 -3.57687 0.457442 0
M  V30 4633 O 449.502 -4.08931 -0.5338 0
M  V30 4634 H 448.843 -0.6443 0.160541 0
M  V30 4635 H 451.373 -1.73976 1.07673 0
M  V30 4636 H 451.383 -4.06721 0.322792 0
M  V30 4637 H 450.058 -3.89357 1.46199 0
M  V30 4638 H 448.635 -3.71154 -0.360409 0
M  V30 4639 N 450.82 -0.546701 -1.47814 0
M  V30 4640 C 452.231 -0.110564 -1.86372 0
M  V30 4641 C 452.582 1.31678 -1.45449 0
M  V30 4642 O 451.707 1.98889 -0.852758 0
M  V30 4643 C 452.302 -0.193873 -3.38245 0
M  V30 4644 C 450.861 0.187164 -3.75934 0
M  V30 4645 C 450.008 -0.546166 -2.71868 0
M  V30 4646 H 452.959 -0.757022 -1.39481 0
M  V30 4647 H 452.98 0.590218 -3.75895 0
M  V30 4648 H 452.492 -1.23282 -3.67999 0
M  V30 4649 H 450.593 1.22762 -3.51796 0
M  V30 4650 H 450.706 -0.164083 -4.78819 0
M  V30 4651 H 449.07 0.00953904 -2.54698 0
M  V30 4652 H 449.853 -1.58606 -3.04465 0
M  V30 4653 N 452.299 1.55045 -0.282633 0
M  V30 4654 C 453.524 2.04628 0.337977 0
M  V30 4655 C 453.949 1.15937 1.48123 0
M  V30 4656 O 453.307 0.159532 1.80597 0
M  V30 4657 C 453.355 3.51854 0.78936 0
M  V30 4658 O 452.459 3.66236 1.89592 0
M  V30 4659 H 451.8 0.660434 0.0687261 0
M  V30 4660 H 454.33 2.00261 -0.419124 0
M  V30 4661 H 454.34 3.93361 1.08311 0
M  V30 4662 H 453.015 4.15873 -0.0470419 0
M  V30 4663 H 451.592 3.36633 1.60413 0
M  V30 4664 N 453.777 0.010035 1.57597 0
M  V30 4665 C 455.188 -0.531426 1.78977 0
M  V30 4666 C 455.539 -1.73375 0.918454 0
M  V30 4667 O 454.664 -2.16047 0.123635 0
M  V30 4668 C 455.259 -0.97086 3.24592 0
M  V30 4669 C 453.818 -1.45756 3.47033 0
M  V30 4670 C 452.965 -0.413384 2.74201 0
M  V30 4671 H 455.916 0.236166 1.56933 0
M  V30 4672 H 455.937 -1.83633 3.33255 0
M  V30 4673 H 455.449 -0.0955893 3.87982 0
M  V30 4674 H 453.55 -2.35339 2.88871 0
M  V30 4675 H 453.663 -1.4781 4.55729 0
M  V30 4676 H 452.027 -0.877266 2.39115 0
M  V30 4677 H 452.81 0.453092 3.40297 0
M  V30 4678 N 455.255 -1.55392 -0.262866 0
M  V30 4679 C 456.666 -1.67079 -0.833158 0
M  V30 4680 C 457.017 -0.604539 -1.86654 0
M  V30 4681 O 456.142 0.252138 -2.14926 0
M  V30 4682 C 456.737 -3.02891 -1.51797 0
M  V30 4683 C 455.296 -3.16571 -2.03617 0
M  V30 4684 C 454.443 -2.62909 -0.881701 0
M  V30 4685 H 457.394 -1.58652 -0.0389986 0
M  V30 4686 H 457.415 -2.96445 -2.38538 0
M  V30 4687 H 456.927 -3.80473 -0.765619 0
M  V30 4688 H 455.028 -2.43782 -2.81782 0
M  V30 4689 H 455.141 -4.23271 -2.24452 0
M  V30 4690 H 453.505 -2.20324 -1.27786 0
M  V30 4691 H 454.288 -3.43003 -0.14269 0
M  V30 4692 N 456.733 0.527833 -1.48498 0
M  V30 4693 C 457.963 1.30633 -1.60058 0
M  V30 4694 C 458.371 1.87394 -0.260786 0
M  V30 4695 O 457.714 1.67227 0.760317 0
M  V30 4696 C 457.776 2.49361 -2.58958 0
M  V30 4697 C 457.44 2.13671 -4.03972 0
M  V30 4698 C 458.437 1.69217 -4.91591 0
M  V30 4699 C 456.122 2.24129 -4.49524 0
M  V30 4700 C 458.116 1.35689 -6.2279 0
M  V30 4701 C 455.803 1.90212 -5.80743 0
M  V30 4702 C 456.801 1.46063 -6.67199 0
M  V30 4703 O 456.489 1.12593 -7.95976 0
M  V30 4704 H 456.221 0.403444 -0.54241 0
M  V30 4705 H 458.775 0.643233 -1.95068 0
M  V30 4706 H 457.005 3.18659 -2.19073 0
M  V30 4707 H 458.694 3.11421 -2.6033 0
M  V30 4708 H 459.46 1.60607 -4.57636 0
M  V30 4709 H 455.339 2.57447 -3.82416 0
M  V30 4710 H 458.883 1.01157 -6.90227 0
M  V30 4711 H 454.78 1.98464 -6.14233 0
M  V30 4712 H 455.548 1.25972 -8.08748 0
M  V30 4713 N 458.211 1.37122 0.776871 0
M  V30 4714 C 459.439 1.3523 1.5659 0
M  V30 4715 C 459.854 -0.0635518 1.88693 0
M  V30 4716 O 459.211 -1.02394 1.51069 0
M  V30 4717 C 459.262 2.18583 2.8793 0
M  V30 4718 O 458.983 3.5465 2.57206 0
M  V30 4719 C 460.484 2.24612 3.82183 0
M  V30 4720 H 457.704 0.4634 0.485285 0
M  V30 4721 H 460.248 1.80392 0.963266 0
M  V30 4722 H 458.403 1.76943 3.4463 0
M  V30 4723 H 458.817 3.98286 3.41275 0
M  V30 4724 H 460.291 2.87267 4.71361 0
M  V30 4725 H 460.768 1.25309 4.20944 0
M  V30 4726 H 461.374 2.66543 3.31414 0
M  V30 4727 N 459.689 -1.00246 1.21608 0
M  V30 4728 C 460.619 -2.10921 1.00172 0
M  V30 4729 C 461.6 -1.69938 -0.0741587 0
M  V30 4730 O 462.785 -1.94009 0.0861753 0
M  V30 4731 C 459.915 -3.42618 0.568355 0
M  V30 4732 C 458.869 -3.97407 1.58909 0
M  V30 4733 C 458.195 -5.25038 1.01187 0
M  V30 4734 C 459.495 -4.2918 2.97661 0
M  V30 4735 H 461.189 -2.29112 1.92739 0
M  V30 4736 H 458.735 -1.10101 0.928102 0
M  V30 4737 H 460.688 -4.19444 0.405555 0
M  V30 4738 H 459.412 -3.24227 -0.392961 0
M  V30 4739 H 458.071 -3.22703 1.73949 0
M  V30 4740 H 457.719 -5.02982 0.0421965 0
M  V30 4741 H 457.419 -5.62661 1.6937 0
M  V30 4742 H 458.943 -6.04507 0.860448 0
M  V30 4743 H 460.357 -4.96839 2.86049 0
M  V30 4744 H 458.754 -4.77952 3.6288 0
M  V30 4745 H 459.824 -3.3735 3.48315 0
M  V30 4746 N 461.167 -1.02423 -1.1978 0
M  V30 4747 C 462.1 -0.545641 -2.21581 0
M  V30 4748 C 463.078 0.411024 -1.57319 0
M  V30 4749 O 464.262 0.329223 -1.85603 0
M  V30 4750 C 461.389 0.204973 -3.38079 0
M  V30 4751 C 460.435 -0.70241 -4.20676 0
M  V30 4752 S 461.268 -2.17595 -4.89298 0
M  V30 4753 C 462.424 -1.43572 -6.09211 0
M  V30 4754 H 462.657 -1.4082 -2.61834 0
M  V30 4755 H 460.19 -0.833771 -1.29952 0
M  V30 4756 H 462.148 0.631924 -4.05607 0
M  V30 4757 H 460.809 1.0432 -2.9627 0
M  V30 4758 H 460.002 -0.123193 -5.03849 0
M  V30 4759 H 459.604 -1.06747 -3.58442 0
M  V30 4760 H 461.896 -0.719806 -6.73665 0
M  V30 4761 H 462.839 -2.24388 -6.71607 0
M  V30 4762 H 463.247 -0.935252 -5.56699 0
M  V30 4763 N 462.645 1.35699 -0.801477 0
M  V30 4764 C 463.893 1.9852 -0.37871 0
M  V30 4765 C 464.214 1.63907 1.05638 0
M  V30 4766 O 463.484 0.919013 1.73006 0
M  V30 4767 H 462.064 0.734322 -0.137042 0
M  V30 4768 H 464.726 1.65697 -1.02619 0
M  V30 4769 H 463.822 3.08382 -0.480284 0
M  V30 4770 N 464.123 0.554532 1.47522 0
M  V30 4771 C 465.363 0.0317994 2.04375 0
M  V30 4772 C 465.727 -1.29242 1.41988 0
M  V30 4773 O 466.928 -1.90269 1.89872 0
M  V30 4774 C 465.199 -0.0623344 3.57346 0
M  V30 4775 S 466.758 -0.531578 4.35568 0
M  V30 4776 H 463.576 0.0238553 0.7106 0
M  V30 4777 H 466.178 0.74066 1.80927 0
M  V30 4778 H 464.882 0.905857 4.00278 0
M  V30 4779 H 464.413 -0.794831 3.85287 0
M  V30 4780 H 466.428 -1.79175 4.62721 0
M  V30 4781 N 465.601 -1.54893 0.290851 0
M  V30 4782 C 467.017 -1.59476 -0.0628432 0
M  V30 4783 C 467.217 -1.30795 -1.5328 0
M  V30 4784 O 466.273 -1.07644 -2.28406 0
M  V30 4785 C 467.586 -2.98928 0.325962 0
M  V30 4786 C 469.134 -3.11799 0.273882 0
M  V30 4787 C 469.609 -4.53544 0.637359 0
M  V30 4788 N 471.1 -4.59433 0.589507 0
M  V30 4789 C 471.835 -5.67164 0.84335 0
M  V30 4790 N 471.331 -6.82975 1.16263 0
M  V30 4791 N 473.124 -5.56786 0.771091 0
M  V30 4792 H 465.275 -1.71798 1.24896 0
M  V30 4793 H 467.538 -0.801879 0.505663 0
M  V30 4794 H 467.244 -3.24805 1.34887 0
M  V30 4795 H 467.118 -3.75793 -0.325441 0
M  V30 4796 H 469.505 -2.85677 -0.739765 0
M  V30 4797 H 469.586 -2.37112 0.959766 0
M  V30 4798 H 469.23 -4.80394 1.64877 0
M  V30 4799 H 469.16 -5.26553 -0.0704866 0
M  V30 4800 H 471.651 -3.76245 0.353252 0
M  V30 4801 H 471.964 -7.61048 1.34257 0
M  V30 4802 H 470.309 -6.84552 1.20057 0
M  V30 4803 H 473.5 -4.65187 0.521383 0
M  V30 4804 H 473.673 -6.40664 0.972295 0
M  V30 4805 N 467.08 -0.0183926 -1.57589 0
M  V30 4806 C 468.01 0.965596 -2.12599 0
M  V30 4807 C 468.991 1.34641 -1.0395 0
M  V30 4808 O 470.176 1.42693 -1.31729 0
M  V30 4809 C 467.306 2.25149 -2.64434 0
M  V30 4810 C 466.26 2.01175 -3.77773 0
M  V30 4811 C 465.586 3.35937 -4.15994 0
M  V30 4812 C 466.886 1.35953 -5.04296 0
M  V30 4813 H 468.58 0.507504 -2.95067 0
M  V30 4814 H 466.126 0.242671 -1.41941 0
M  V30 4815 H 468.079 2.94357 -3.01549 0
M  V30 4816 H 466.803 2.73105 -1.79112 0
M  V30 4817 H 465.462 1.34388 -3.4108 0
M  V30 4818 H 465.11 3.81631 -3.27669 0
M  V30 4819 H 464.81 3.20705 -4.92364 0
M  V30 4820 H 466.334 4.0643 -4.55683 0
M  V30 4821 H 467.748 1.95144 -5.39065 0
M  V30 4822 H 466.145 1.31152 -5.85593 0
M  V30 4823 H 467.215 0.331071 -4.83768 0
M  V30 4824 N 468.558 1.5553 0.254621 0
M  V30 4825 C 469.521 1.88872 1.29846 0
M  V30 4826 C 470.521 0.764591 1.41459 0
M  V30 4827 O 471.711 1.03265 1.40293 0
M  V30 4828 C 468.843 2.11032 2.67728 0
M  V30 4829 H 470.036 2.82201 1.01502 0
M  V30 4830 H 467.589 1.48303 0.493556 0
M  V30 4831 H 468.324 1.20146 3.01223 0
M  V30 4832 H 468.109 2.92895 2.60682 0
M  V30 4833 H 469.599 2.38038 3.43115 0
M  V30 4834 N 470.036 -0.519951 1.48776 0
M  V30 4835 C 471.276 -1.2856 1.58908 0
M  V30 4836 C 471.64 -1.90212 0.261418 0
M  V30 4837 O 472.841 -2.67746 0.237791 0
M  V30 4838 C 471.112 -2.33836 2.70288 0
M  V30 4839 S 472.671 -3.19992 3.0025 0
M  V30 4840 H 469.489 -0.43717 0.560717 0
M  V30 4841 H 472.091 -0.591205 1.86346 0
M  V30 4842 H 470.795 -1.87041 3.653 0
M  V30 4843 H 470.326 -3.07969 2.44783 0
M  V30 4844 H 472.341 -4.34122 2.40317 0
M  V30 4845 N 471.514 -1.37532 -0.769588 0
M  V30 4846 C 472.424 -1.35668 -1.91393 0
M  V30 4847 C 473.44 -0.255954 -1.72107 0
M  V30 4848 O 474.616 -0.491704 -1.95305 0
M  V30 4849 C 471.681 -1.16481 -3.26547 0
M  V30 4850 C 470.742 -2.36212 -3.58472 0
M  V30 4851 C 469.975 -2.17932 -4.87177 0
M  V30 4852 O 470.198 -1.1647 -5.58382 0
M  V30 4853 O 469.132 -3.06167 -5.18214 0
M  V30 4854 H 472.958 -2.32055 -1.95918 0
M  V30 4855 H 470.543 -1.18284 -0.912641 0
M  V30 4856 H 472.425 -1.07778 -4.07384 0
M  V30 4857 H 471.1 -0.231687 -3.2287 0
M  V30 4858 H 470.007 -2.50488 -2.77861 0
M  V30 4859 H 471.34 -3.281 -3.66894 0
M  V30 4860 N 472.992 0.995999 -1.22138 0
M  V30 4861 C 474.22 1.77066 -1.07029 0
M  V30 4862 C 474.635 1.8495 0.379357 0
M  V30 4863 O 473.992 1.3174 1.26297 0
M  V30 4864 C 474.043 3.20533 -1.67155 0
M  V30 4865 O 473.764 3.13082 -3.06449 0
M  V30 4866 C 475.265 4.14461 -1.5728 0
M  V30 4867 H 472.485 0.556179 -0.375374 0
M  V30 4868 H 475.029 1.25238 -1.61666 0
M  V30 4869 H 473.184 3.6944 -1.16589 0
M  V30 4870 H 473.598 4.03283 -3.35355 0
M  V30 4871 H 475.072 5.1289 -2.04078 0
M  V30 4872 H 475.549 4.36005 -0.528795 0
M  V30 4873 H 476.155 3.71449 -2.07136 0
M  V30 4874 N 474.47 1.03057 1.19235 0
M  V30 4875 C 475.886 0.747947 1.40989 0
M  V30 4876 C 476.086 -0.666752 1.90149 0
M  V30 4877 O 475.142 -1.43249 2.07933 0
M  V30 4878 C 476.455 1.7855 2.41951 0
M  V30 4879 C 478.003 1.80524 2.55695 0
M  V30 4880 C 478.478 2.83243 3.59913 0
M  V30 4881 N 479.969 2.8207 3.67411 0
M  V30 4882 C 480.704 3.58204 4.47747 0
M  V30 4883 N 480.2 4.44057 5.31775 0
M  V30 4884 N 481.993 3.46738 4.42413 0
M  V30 4885 H 474.144 1.94367 0.856468 0
M  V30 4886 H 476.407 0.840412 0.438647 0
M  V30 4887 H 476.113 2.79973 2.12857 0
M  V30 4888 H 475.987 1.6092 3.41152 0
M  V30 4889 H 478.374 0.79778 2.84112 0
M  V30 4890 H 478.455 2.02229 1.56643 0
M  V30 4891 H 478.099 3.84161 3.32239 0
M  V30 4892 H 478.029 2.58795 4.5862 0
M  V30 4893 H 480.52 2.19803 3.074 0
M  V30 4894 H 480.833 4.98884 5.90199 0
M  V30 4895 H 479.178 4.48129 5.3123 0
M  V30 4896 H 482.369 2.79077 3.75811 0
M  V30 4897 H 482.542 4.06322 5.04783 0
M  V30 4898 N 475.948 -1.35272 0.808662 0
M  V30 4899 C 477.178 -2.02652 0.401953 0
M  V30 4900 C 477.586 -1.6108 -0.992462 0
M  V30 4901 O 476.929 -0.804984 -1.65123 0
M  V30 4902 C 476.991 -3.57174 0.408246 0
M  V30 4903 C 476.655 -4.22019 1.75353 0
M  V30 4904 C 477.652 -4.43552 2.71215 0
M  V30 4905 C 475.337 -4.59093 2.03811 0
M  V30 4906 C 477.331 -5.01264 3.93717 0
M  V30 4907 C 475.018 -5.16519 3.26576 0
M  V30 4908 C 476.016 -5.37546 4.21347 0
M  V30 4909 O 475.704 -5.93761 5.41944 0
M  V30 4910 H 475.436 -0.656495 0.161216 0
M  V30 4911 H 477.99 -1.73829 1.0942 0
M  V30 4912 H 476.22 -3.85197 -0.340608 0
M  V30 4913 H 477.909 -4.05893 0.0235623 0
M  V30 4914 H 478.675 -4.15288 2.50522 0
M  V30 4915 H 474.554 -4.42039 1.30854 0
M  V30 4916 H 478.098 -5.17592 4.67701 0
M  V30 4917 H 473.995 -5.4421 3.47139 0
M  V30 4918 H 474.763 -6.1221 5.43269 0
M  V30 4919 N 477.426 -0.562348 -1.47226 0
M  V30 4920 C 478.672 -0.0402761 -2.0276 0
M  V30 4921 C 479.005 1.30823 -1.43523 0
M  V30 4922 O 478.28 1.85249 -0.592705 0
M  V30 4923 C 478.563 0.047311 -3.60069 0
M  V30 4924 C 478.416 -1.32865 -4.29729 0
M  V30 4925 C 479.735 0.758182 -4.3352 0
M  V30 4926 H 476.854 -0.0161105 -0.736824 0
M  V30 4927 H 479.496 -0.725628 -1.75598 0
M  V30 4928 H 477.646 0.630986 -3.83342 0
M  V30 4929 H 479.318 -1.95593 -4.17781 0
M  V30 4930 H 477.561 -1.90195 -3.89882 0
M  V30 4931 H 478.232 -1.22004 -5.38349 0
M  V30 4932 H 480.708 0.262546 -4.15271 0
M  V30 4933 H 479.584 0.78844 -5.43208 0
M  V30 4934 H 479.845 1.81537 -4.03109 0
M  V30 4935 N 478.904 1.54736 -0.299062 0
M  V30 4936 C 479.867 2.22127 0.565012 0
M  V30 4937 C 480.867 1.20669 1.06281 0
M  V30 4938 O 482.057 1.45417 0.959145 0
M  V30 4939 C 479.189 2.90611 1.78208 0
M  V30 4940 H 480.382 2.99891 -0.0237448 0
M  V30 4941 H 477.935 1.5622 -0.0498788 0
M  V30 4942 H 478.67 2.16921 2.41072 0
M  V30 4943 H 478.455 3.64984 1.43281 0
M  V30 4944 H 479.945 3.42026 2.396 0
M  V30 4945 N 480.382 0.0267497 1.57577 0
M  V30 4946 C 481.798 -0.32962 1.56159 0
M  V30 4947 C 481.998 -1.73059 1.03213 0
M  V30 4948 O 481.054 -2.43233 0.677804 0
M  V30 4949 C 482.367 -0.18039 3.00158 0
M  V30 4950 C 483.915 -0.253334 3.11973 0
M  V30 4951 C 484.39 -0.132921 4.57807 0
M  V30 4952 N 485.881 -0.189979 4.6281 0
M  V30 4953 C 486.616 -0.120554 5.73273 0
M  V30 4954 N 486.112 -0.000180315 6.928 0
M  V30 4955 N 487.905 -0.174369 5.61829 0
M  V30 4956 H 480.056 0.942896 1.90324 0
M  V30 4957 H 482.319 0.3639 0.875375 0
M  V30 4958 H 482.025 0.784576 3.42837 0
M  V30 4959 H 481.899 -0.951565 3.65 0
M  V30 4960 H 484.286 -1.20876 2.69208 0
M  V30 4961 H 484.367 0.548177 2.49857 0
M  V30 4962 H 484.011 0.819073 5.01252 0
M  V30 4963 H 483.941 -0.953264 5.179 0
M  V30 4964 H 486.432 -0.283257 3.76837 0
M  V30 4965 H 486.745 0.0461666 7.72786 0
M  V30 4966 H 485.09 0.034569 6.94991 0
M  V30 4967 H 488.281 -0.266794 4.67339 0
M  V30 4968 H 488.454 -0.116802 6.47895 0
M  V30 4969 N 481.861 -1.55662 -0.24637 0
M  V30 4970 C 482.808 -1.90361 -1.30504 0
M  V30 4971 C 483.778 -0.757905 -1.47801 0
M  V30 4972 O 484.963 -1.01161 -1.61775 0
M  V30 4973 C 482.103 -2.2042 -2.65535 0
M  V30 4974 C 481.216 -3.47799 -2.56242 0
M  V30 4975 C 480.351 -3.67426 -3.8363 0
M  V30 4976 C 479.39 -4.88403 -3.68956 0
M  V30 4977 N 478.527 -5.04548 -4.88237 0
M  V30 4978 H 483.367 -2.80645 -1.00213 0
M  V30 4979 H 480.904 -1.38924 -0.483577 0
M  V30 4980 H 482.862 -2.35853 -3.44135 0
M  V30 4981 H 481.492 -1.3334 -2.93973 0
M  V30 4982 H 480.544 -3.40694 -1.69208 0
M  V30 4983 H 481.856 -4.36544 -2.4131 0
M  V30 4984 H 481.01 -3.82821 -4.70673 0
M  V30 4985 H 479.749 -2.76914 -4.01459 0
M  V30 4986 H 478.754 -4.72984 -2.80296 0
M  V30 4987 H 479.979 -5.80375 -3.52621 0
M  V30 4988 H 477.925 -4.16974 -5.06427 0
M  V30 4989 H 477.842 -5.87384 -4.75937 0
M  V30 4990 H 479.11 -5.24355 -5.76777 0
M  V30 4991 N 483.339 0.512053 -1.4905 0
M  V30 4992 C 484.579 1.27715 -1.59588 0
M  V30 4993 C 484.943 1.90071 -0.271502 0
M  V30 4994 O 486.144 2.67616 -0.251987 0
M  V30 4995 C 484.415 2.32399 -2.71524 0
M  V30 4996 S 485.974 3.18396 -3.01943 0
M  V30 4997 H 482.792 0.43419 -0.563027 0
M  V30 4998 H 485.394 0.581315 -1.86657 0
M  V30 4999 H 484.098 1.85101 -3.66287 0
M  V30 5000 H 483.629 3.06667 -2.46412 0
M  V30 5001 H 485.644 4.32842 -2.42616 0
M  V30 5002 N 484.817 1.37938 0.762283 0
M  V30 5003 C 486.065 1.33404 1.51815 0
M  V30 5004 C 486.386 -0.0780975 1.94844 0
M  V30 5005 O 485.656 -1.02405 1.67003 0
M  V30 5006 H 484.236 0.490839 0.563104 0
M  V30 5007 H 486.898 1.72527 0.906669 0
M  V30 5008 H 485.994 1.97926 2.41313 0
M  V30 5009 N 486.295 -0.989507 1.22664 0
M  V30 5010 C 487.535 -1.7447 1.06488 0
M  V30 5011 C 487.899 -1.8794 -0.392737 0
M  V30 5012 O 489.1 -2.60175 -0.675446 0
M  V30 5013 C 487.371 -3.11043 1.76031 0
M  V30 5014 S 488.93 -4.02258 1.7531 0
M  V30 5015 H 485.748 -0.600123 0.381278 0
M  V30 5016 H 488.35 -1.18283 1.55658 0
M  V30 5017 H 487.054 -2.98884 2.81241 0
M  V30 5018 H 486.585 -3.72301 1.27105 0
M  V30 5019 H 488.6 -4.89623 0.805208 0
M  V30 5020 N 487.773 -1.03688 -1.18687 0
M  V30 5021 C 489.189 -0.755413 -1.4059 0
M  V30 5022 C 489.389 0.656659 -1.905 0
M  V30 5023 O 488.445 1.42144 -2.08689 0
M  V30 5024 C 489.758 -1.7983 -2.41001 0
M  V30 5025 C 491.306 -1.81877 -2.54735 0
M  V30 5026 C 491.781 -2.85148 -3.58406 0
M  V30 5027 N 493.272 -2.84015 -3.6591 0
M  V30 5028 C 494.007 -3.60573 -4.45841 0
M  V30 5029 N 493.503 -4.46871 -5.29413 0
M  V30 5030 N 495.296 -3.49079 -4.40568 0
M  V30 5031 H 487.447 -1.94818 -0.846148 0
M  V30 5032 H 489.71 -0.842727 -0.434184 0
M  V30 5033 H 489.416 -2.81097 -2.1137 0
M  V30 5034 H 489.29 -1.62727 -3.40294 0
M  V30 5035 H 491.677 -0.812836 -2.83685 0
M  V30 5036 H 491.758 -2.03057 -1.55568 0
M  V30 5037 H 491.402 -3.85918 -3.30197 0
M  V30 5038 H 491.332 -2.61224 -4.57241 0
M  V30 5039 H 493.823 -2.21431 -3.0623 0
M  V30 5040 H 494.136 -5.02007 -5.87545 0
M  V30 5041 H 492.481 -4.5094 -5.28846 0
M  V30 5042 H 495.672 -2.81066 -3.74325 0
M  V30 5043 H 495.845 -4.08994 -5.02621 0
M  V30 5044 N 489.251 1.34841 -0.815825 0
M  V30 5045 C 490.184 2.27504 -0.178062 0
M  V30 5046 C 491.162 1.48542 0.661373 0
M  V30 5047 O 492.346 1.77779 0.626653 0
M  V30 5048 C 489.473 3.30246 0.752002 0
M  V30 5049 C 488.519 4.26499 -0.00899172 0
M  V30 5050 S 489.352 5.18169 -1.35134 0
M  V30 5051 C 490.508 6.24449 -0.42596 0
M  V30 5052 H 490.741 2.81248 -0.963684 0
M  V30 5053 H 488.274 1.41781 -0.611355 0
M  V30 5054 H 490.232 3.89933 1.28308 0
M  V30 5055 H 488.893 2.75363 1.51109 0
M  V30 5056 H 488.086 4.99146 0.697766 0
M  V30 5057 H 487.688 3.7103 -0.470396 0
M  V30 5058 H 489.98 6.76404 0.385234 0
M  V30 5059 H 490.923 6.99156 -1.1219 0
M  V30 5060 H 491.331 5.64497 -0.0175461 0
M  V30 5061 N 490.729 0.570148 1.46925 0
M  V30 5062 C 491.975 0.0510284 2.02736 0
M  V30 5063 C 492.308 -1.3006 1.44215 0
M  V30 5064 O 491.583 -1.84932 0.602521 0
M  V30 5065 C 491.866 -0.028215 3.60089 0
M  V30 5066 C 491.719 1.35142 4.29018 0
M  V30 5067 C 493.038 -0.735181 4.33916 0
M  V30 5068 H 490.157 0.0200178 0.736728 0
M  V30 5069 H 492.799 0.73493 1.75211 0
M  V30 5070 H 490.949 -0.610648 3.83671 0
M  V30 5071 H 492.621 1.97806 4.16738 0
M  V30 5072 H 490.864 1.9226 3.88868 0
M  V30 5073 H 491.535 1.24857 5.37694 0
M  V30 5074 H 494.011 -0.240519 4.15404 0
M  V30 5075 H 492.887 -0.759622 5.43618 0
M  V30 5076 H 493.148 -1.79397 4.04066 0
M  V30 5077 N 492.207 -1.54576 0.307264 0
M  V30 5078 C 493.437 -2.04378 -0.302158 0
M  V30 5079 C 493.845 -1.18381 -1.47589 0
M  V30 5080 O 493.188 -0.20352 -1.82569 0
M  V30 5081 C 493.25 -3.50133 -0.815305 0
M  V30 5082 C 492.914 -4.56401 0.233977 0
M  V30 5083 C 493.911 -5.08884 1.06456 0
M  V30 5084 C 491.596 -5.0088 0.377478 0
M  V30 5085 C 493.59 -6.04394 2.02452 0
M  V30 5086 C 491.277 -5.96208 1.34088 0
M  V30 5087 C 492.275 -6.47849 2.16288 0
M  V30 5088 O 491.963 -7.41308 3.10994 0
M  V30 5089 H 491.695 -0.672502 -0.0686839 0
M  V30 5090 H 494.249 -2.00484 0.446682 0
M  V30 5091 H 492.479 -3.51371 -1.61478 0
M  V30 5092 H 494.168 -3.83098 -1.34129 0
M  V30 5093 H 494.934 -4.75311 0.964596 0
M  V30 5094 H 490.813 -4.60309 -0.252405 0
M  V30 5095 H 494.357 -6.44626 2.66652 0
M  V30 5096 H 490.254 -6.29198 1.44154 0
M  V30 5097 H 491.022 -7.5913 3.06045 0
M  V30 5098 N 493.685 -0.035106 -1.57561 0
M  V30 5099 C 494.618 0.979673 -2.06101 0
M  V30 5100 C 495.596 1.31378 -0.958046 0
M  V30 5101 O 496.78 1.42942 -1.22881 0
M  V30 5102 C 493.907 2.29809 -2.48808 0
M  V30 5103 C 492.953 2.11817 -3.70184 0
M  V30 5104 S 493.786 1.41143 -5.16565 0
M  V30 5105 C 494.942 2.74341 -5.62572 0
M  V30 5106 H 495.175 0.566506 -2.91853 0
M  V30 5107 H 492.708 0.176744 -1.53385 0
M  V30 5108 H 494.666 3.056 -2.74078 0
M  V30 5109 H 493.327 2.68257 -1.63392 0
M  V30 5110 H 492.52 3.09299 -3.97933 0
M  V30 5111 H 492.122 1.44168 -3.45097 0
M  V30 5112 H 494.414 3.70562 -5.67177 0
M  V30 5113 H 495.357 2.51249 -6.62027 0
M  V30 5114 H 495.765 2.79863 -4.90242 0
M  V30 5115 N 495.163 1.55791 0.238111 0
M  V30 5116 C 496.574 1.68383 0.806472 0
M  V30 5117 C 496.925 0.634157 1.85669 0
M  V30 5118 O 496.05 -0.217913 2.153 0
M  V30 5119 C 496.645 3.05268 1.46959 0
M  V30 5120 C 495.204 3.1977 1.98555 0
M  V30 5121 C 494.351 2.64279 0.839763 0
M  V30 5122 H 497.302 1.58694 0.0137535 0
M  V30 5123 H 497.323 3.00203 2.33792 0
M  V30 5124 H 496.835 3.81643 0.704993 0
M  V30 5125 H 494.936 2.48234 2.77868 0
M  V30 5126 H 495.049 4.26788 2.17689 0
M  V30 5127 H 493.413 2.22329 1.24265 0
M  V30 5128 H 494.196 3.43187 0.0881032 0
M  V30 5129 N 496.642 -0.504142 1.49319 0
M  V30 5130 C 497.89 -1.25598 1.58334 0
M  V30 5131 C 498.211 -1.93114 0.270538 0
M  V30 5132 O 497.481 -1.82585 -0.709891 0
M  V30 5133 H 496.061 -0.466571 0.58337 0
M  V30 5134 H 498.723 -0.584547 1.85928 0
M  V30 5135 H 497.819 -2.02159 2.37778 0
M  V30 5136 N 498.12 -1.38341 -0.754957 0
M  V30 5137 C 499.397 -1.24995 -1.50451 0
M  V30 5138 C 499.777 0.149244 -2.10572 0
M  V30 5139 O 499.125 1.15861 -1.96948 0
M  V30 5140 C 499.335 -2.35904 -2.57197 0
M  V30 5141 C 500.683 -2.74262 -3.24138 0
M  V30 5142 O 501.707 -2.35205 -2.67501 0
M  V30 5143 O 500.566 -3.4161 -4.26574 0
M  V30 5144 H 497.66 -0.48872 -0.667144 0
M  V30 5145 H 500.206 -1.50165 -0.790486 0
M  V30 5146 H 498.978 -3.2953 -2.11011 0
M  V30 5147 H 498.601 -2.12291 -3.36182 0
M  V30 5148 N 499.598 0.982988 -1.23187 0
M  V30 5149 C 500.844 1.72648 -1.06398 0
M  V30 5150 C 501.177 1.90066 0.398561 0
M  V30 5151 O 500.452 1.45105 1.29518 0
M  V30 5152 C 500.735 3.12627 -1.78707 0
M  V30 5153 C 500.588 3.02795 -3.32618 0
M  V30 5154 C 501.907 4.11997 -1.54747 0
M  V30 5155 H 499.026 0.626649 -0.387918 0
M  V30 5156 H 501.668 1.14455 -1.51658 0
M  V30 5157 H 499.818 3.62308 -1.40234 0
M  V30 5158 H 501.49 2.60659 -3.80598 0
M  V30 5159 H 499.733 2.39362 -3.61785 0
M  V30 5160 H 500.404 4.01893 -3.78399 0
M  V30 5161 H 502.88 3.71114 -1.88186 0
M  V30 5162 H 501.756 5.08037 -2.07821 0
M  V30 5163 H 502.017 4.39462 -0.482249 0
M  V30 5164 N 501.076 1.04316 1.18135 0
M  V30 5165 C 502.487 0.775505 1.69832 0
M  V30 5166 C 502.838 -0.703348 1.8316 0
M  V30 5167 O 501.963 -1.54729 1.51287 0
M  V30 5168 C 502.558 1.40112 3.0847 0
M  V30 5169 C 501.117 1.18172 3.57368 0
M  V30 5170 C 500.264 1.49022 2.33854 0
M  V30 5171 H 503.215 1.20925 1.02775 0
M  V30 5172 H 503.236 0.805672 3.71873 0
M  V30 5173 H 502.748 2.47744 2.98738 0
M  V30 5174 H 500.849 0.124258 3.72393 0
M  V30 5175 H 500.962 1.8805 4.40652 0
M  V30 5176 H 499.326 0.909995 2.37889 0
M  V30 5177 H 500.109 2.57768 2.26738 0
M  V30 5178 N 502.554 -1.34406 0.822964 0
M  V30 5179 C 503.8 -1.98578 0.411666 0
M  V30 5180 C 504.133 -1.65093 -1.02264 0
M  V30 5181 O 503.408 -0.92258 -1.71227 0
M  V30 5182 C 503.691 -3.54823 0.614235 0
M  V30 5183 C 503.544 -3.9805 2.09466 0
M  V30 5184 C 504.863 -4.40071 0.050221 0
M  V30 5185 H 501.982 -0.721355 0.151047 0
M  V30 5186 H 504.624 -1.59301 1.03554 0
M  V30 5187 H 502.774 -3.88411 0.0831774 0
M  V30 5188 H 504.446 -3.74795 2.68936 0
M  V30 5189 H 502.689 -3.4836 2.5851 0
M  V30 5190 H 503.36 -5.06819 2.18721 0
M  V30 5191 H 505.836 -4.13037 0.503953 0
M  V30 5192 H 504.712 -5.48452 0.221759 0
M  V30 5193 H 504.973 -4.29576 -1.04482 0
M  V30 5194 N 504.032 -0.577932 -1.46621 0
M  V30 5195 C 505.272 -0.0643097 -2.04299 0
M  V30 5196 C 505.636 1.26967 -1.44026 0
M  V30 5197 O 506.837 1.87224 -1.92875 0
M  V30 5198 C 505.108 0.00547588 -3.574 0
M  V30 5199 S 506.667 0.462216 -4.36359 0
M  V30 5200 H 503.485 -0.0351573 -0.71013 0
M  V30 5201 H 506.087 -0.76935 -1.79725 0
M  V30 5202 H 504.791 -0.969423 -3.98786 0
M  V30 5203 H 504.322 0.733435 -3.86503 0
M  V30 5204 H 506.337 1.71791 -4.65513 0
M  V30 5205 N 505.51 1.54411 -0.315457 0
M  V30 5206 C 506.735 2.05299 0.294496 0
M  V30 5207 C 507.16 1.19052 1.4563 0
M  V30 5208 O 506.518 0.197804 1.80218 0
M  V30 5209 C 506.566 3.5345 0.714549 0
M  V30 5210 O 505.67 3.70175 1.81781 0
M  V30 5211 H 505.011 0.661743 0.0547019 0
M  V30 5212 H 507.541 1.99327 -0.461508 0
M  V30 5213 H 507.551 3.9557 0.999426 0
M  V30 5214 H 506.226 4.1568 -0.135244 0
M  V30 5215 H 504.803 3.3996 1.53236 0
M  V30 5216 N 506.988 0.0434614 1.5754 0
M  V30 5217 C 508.399 -0.493343 1.80064 0
M  V30 5218 C 508.75 -1.71388 0.955023 0
M  V30 5219 O 507.875 -2.15736 0.169434 0
M  V30 5220 C 508.47 -0.90179 3.26578 0
M  V30 5221 C 507.029 -1.38362 3.50047 0
M  V30 5222 C 506.176 -0.355129 2.75017 0
M  V30 5223 H 509.127 0.2694 1.56397 0
M  V30 5224 H 509.148 -1.76523 3.37075 0
M  V30 5225 H 508.66 -0.013271 3.88098 0
M  V30 5226 H 506.761 -2.29159 2.93798 0
M  V30 5227 H 506.874 -1.3811 4.58762 0
M  V30 5228 H 505.238 -0.826348 2.40922 0
M  V30 5229 H 506.021 0.525172 3.39259 0
M  V30 5230 N 508.466 -1.55915 -0.229846 0
M  V30 5231 C 509.398 -1.88209 -1.30805 0
M  V30 5232 C 510.411 -0.769672 -1.43457 0
M  V30 5233 O 511.6 -1.04792 -1.44502 0
M  V30 5234 C 508.7 -2.06829 -2.68468 0
M  V30 5235 C 507.873 -3.37798 -2.77869 0
M  V30 5236 C 506.932 -3.45952 -3.96489 0
M  V30 5237 O 505.958 -4.19043 -3.85216 0
M  V30 5238 N 507.16 -2.76488 -5.10426 0
M  V30 5239 H 509.925 -2.81286 -1.03431 0
M  V30 5240 H 507.486 -1.5636 -0.41991 0
M  V30 5241 H 509.478 -2.09608 -3.46189 0
M  V30 5242 H 508.048 -1.20416 -2.88477 0
M  V30 5243 H 507.268 -3.4719 -1.86689 0
M  V30 5244 H 508.556 -4.24091 -2.81113 0
M  V30 5245 H 507.954 -2.16868 -5.2248 0
M  V30 5246 H 506.511 -2.84938 -5.8622 0
M  V30 5247 N 509.944 0.496216 -1.49584 0
M  V30 5248 C 510.876 1.61404 -1.62731 0
M  V30 5249 C 511.889 1.54613 -0.50978 0
M  V30 5250 O 513.078 1.60458 -0.782017 0
M  V30 5251 C 510.178 3.00212 -1.57245 0
M  V30 5252 C 509.351 3.32138 -2.84611 0
M  V30 5253 C 508.41 4.5038 -2.72112 0
M  V30 5254 O 507.436 4.51926 -3.46051 0
M  V30 5255 N 508.638 5.50575 -1.83977 0
M  V30 5256 H 511.403 1.50552 -2.59141 0
M  V30 5257 H 508.964 0.684182 -1.46733 0
M  V30 5258 H 510.956 3.77241 -1.4653 0
M  V30 5259 H 509.526 3.04964 -0.686729 0
M  V30 5260 H 508.746 2.4396 -3.09641 0
M  V30 5261 H 510.034 3.50268 -3.69039 0
M  V30 5262 H 509.432 5.52128 -1.23171 0
M  V30 5263 H 507.989 6.26687 -1.79182 0
M  V30 5264 N 511.423 1.38739 0.74761 0
M  V30 5265 C 512.653 1.3832 1.53464 0
M  V30 5266 C 513.061 -0.0273464 1.8918 0
M  V30 5267 O 512.404 -1.00588 1.53713 0
M  V30 5268 C 512.466 2.18007 2.85855 0
M  V30 5269 C 512.13 3.66762 2.72644 0
M  V30 5270 C 513.127 4.60124 2.42037 0
M  V30 5271 C 510.812 4.10193 2.89909 0
M  V30 5272 C 512.806 5.94897 2.28859 0
M  V30 5273 C 510.493 5.45045 2.7635 0
M  V30 5274 C 511.491 6.37211 2.45869 0
M  V30 5275 O 511.179 7.69581 2.3238 0
M  V30 5276 H 510.911 0.474718 0.481268 0
M  V30 5277 H 513.465 1.83012 0.932518 0
M  V30 5278 H 511.695 1.68043 3.48279 0
M  V30 5279 H 513.384 2.09921 3.47402 0
M  V30 5280 H 514.15 4.27874 2.28361 0
M  V30 5281 H 510.029 3.38797 3.1263 0
M  V30 5282 H 513.573 6.66802 2.04989 0
M  V30 5283 H 509.47 5.76889 2.89601 0
M  V30 5284 H 510.238 7.80169 2.47546 0
M  V30 5285 N 512.901 -0.976442 1.23707 0
M  V30 5286 C 513.848 -2.06952 1.02174 0
M  V30 5287 C 514.818 -1.65984 -0.0621034 0
M  V30 5288 O 516.003 -1.90584 0.0907906 0
M  V30 5289 C 513.143 -3.39425 0.62327 0
M  V30 5290 C 512.256 -3.9364 1.77966 0
M  V30 5291 C 511.391 -5.14343 1.3276 0
M  V30 5292 C 510.43 -5.60733 2.45449 0
M  V30 5293 N 509.567 -6.72662 2.01172 0
M  V30 5294 H 514.407 -2.24704 1.95734 0
M  V30 5295 H 511.944 -1.10143 0.975034 0
M  V30 5296 H 513.902 -4.15526 0.37332 0
M  V30 5297 H 512.532 -3.21624 -0.275329 0
M  V30 5298 H 511.584 -3.14258 2.14351 0
M  V30 5299 H 512.896 -4.24035 2.62671 0
M  V30 5300 H 512.05 -5.97789 1.03601 0
M  V30 5301 H 510.789 -4.8561 0.450975 0
M  V30 5302 H 509.794 -4.75865 2.75378 0
M  V30 5303 H 511.019 -5.91483 3.33654 0
M  V30 5304 H 508.965 -6.45681 1.15895 0
M  V30 5305 H 508.882 -7.02462 2.79434 0
M  V30 5306 H 510.15 -7.59572 1.75129 0
M  V30 5307 N 514.379 -1.04941 -1.1758 0
M  V30 5308 C 515.327 -0.64204 -2.23563 0
M  V30 5309 C 516.321 0.335453 -1.66045 0
M  V30 5310 O 517.527 0.20179 -1.78865 0
M  V30 5311 H 513.902 -0.18944 -0.727748 0
M  V30 5312 H 515.873 -1.54609 -2.55223 0
M  V30 5313 C 514.622 -0.0301051 -3.47687 0
M  V30 5314 H 513.945 -0.773339 -3.92249 0
M  V30 5315 H 515.385 0.217592 -4.23441 0
M  V30 5316 C 513.844 1.2225 -3.13937 0
M  V30 5317 O 514.374 2.3122 -3.28482 0
M  V30 5318 N 512.58 1.11917 -2.68185 0
M  V30 5319 H 512.127 0.232403 -2.5655 0
M  V30 5320 H 512.085 1.95814 -2.45976 0
M  V30 5321 N 515.857 1.33968 -0.830081 0
M  V30 5322 C 517.097 1.99879 -0.427521 0
M  V30 5323 C 517.461 1.64355 0.992546 0
M  V30 5324 O 518.662 2.23164 1.49837 0
M  V30 5325 C 516.933 3.51771 -0.631815 0
M  V30 5326 S 518.492 4.37608 -0.323168 0
M  V30 5327 H 515.31 0.692485 -0.161202 0
M  V30 5328 H 517.912 1.63129 -1.07745 0
M  V30 5329 H 516.616 3.75113 -1.66488 0
M  V30 5330 H 516.147 3.93386 0.0325936 0
M  V30 5331 H 518.162 4.88683 0.860432 0
M  V30 5332 N 517.335 0.585699 1.46312 0
M  V30 5333 C 518.298 -0.135673 2.28798 0
M  V30 5334 C 519.298 -0.815988 1.38558 0
M  V30 5335 O 520.488 -0.667487 1.60904 0
M  V30 5336 C 517.62 -1.20163 3.1902 0
M  V30 5337 H 518.813 0.589257 2.94054 0
M  V30 5338 H 516.366 0.343794 1.52472 0
M  V30 5339 H 517.101 -1.95804 2.58517 0
M  V30 5340 H 516.886 -0.718282 3.85465 0
M  V30 5341 H 518.376 -1.70749 3.81096 0
M  V30 5342 N 518.813 -1.54241 0.323641 0
M  V30 5343 C 519.763 -2.21071 -0.557833 0
M  V30 5344 C 520.747 -1.19126 -1.08157 0
M  V30 5345 O 521.939 -1.44755 -1.01857 0
M  V30 5346 C 519.068 -2.97208 -1.71821 0
M  V30 5347 C 518.154 -4.06491 -1.20936 0
M  V30 5348 N 518.545 -5.04052 -0.420202 0
M  V30 5349 C 516.843 -4.20443 -1.48808 0
M  V30 5350 C 517.544 -5.81516 -0.146413 0
M  V30 5351 N 516.52 -5.38641 -0.732562 0
M  V30 5352 H 520.322 -2.93853 0.0523921 0
M  V30 5353 H 517.836 -1.61883 0.129502 0
M  V30 5354 H 519.833 -3.4357 -2.36146 0
M  V30 5355 H 518.493 -2.25947 -2.33191 0
M  V30 5356 H 519.504 -5.17862 -0.0630401 0
M  V30 5357 H 516.181 -3.60396 -2.10762 0
M  V30 5358 H 517.571 -6.70119 0.488895 0
M  V30 5359 N 520.291 -0.0518155 -1.57515 0
M  V30 5360 C 521.702 0.483787 -1.80323 0
M  V30 5361 C 522.053 1.70879 -0.964099 0
M  V30 5362 O 521.178 2.15643 -0.180872 0
M  V30 5363 C 521.773 0.884459 -3.27052 0
M  V30 5364 C 520.332 1.36504 -3.50776 0
M  V30 5365 C 519.479 0.340539 -2.75201 0
M  V30 5366 H 522.43 -0.277691 -1.56252 0
M  V30 5367 H 522.451 1.74733 -3.38007 0
M  V30 5368 H 521.963 -0.00731093 -3.88099 0
M  V30 5369 H 520.064 2.27598 -2.95009 0
M  V30 5370 H 520.177 1.35675 -4.59488 0
M  V30 5371 H 518.541 0.81356 -2.41357 0
M  V30 5372 H 519.324 -0.543156 -3.38976 0
M  V30 5373 N 521.769 1.56035 0.221574 0
M  V30 5374 C 522.732 1.91584 1.2581 0
M  V30 5375 C 523.732 0.794425 1.39805 0
M  V30 5376 O 524.922 1.06217 1.38071 0
M  V30 5377 C 522.054 2.16663 2.63192 0
M  V30 5378 H 523.247 2.8429 0.954935 0
M  V30 5379 H 520.8 1.49316 0.461988 0
M  V30 5380 H 521.535 1.26508 2.98607 0
M  V30 5381 H 521.32 2.98358 2.5441 0
M  V30 5382 H 522.81 2.45262 3.37988 0
M  V30 5383 N 523.247 -0.488276 1.49845 0
M  V30 5384 C 524.496 -1.23826 1.59217 0
M  V30 5385 C 524.809 -1.93439 0.289966 0
M  V30 5386 O 526.015 -2.70229 0.262382 0
M  V30 5387 C 524.471 -2.24902 2.80976 0
M  V30 5388 C 524.079 -1.6117 4.18005 0
M  V30 5389 C 525.823 -3.00648 2.99685 0
M  V30 5390 C 523.73 -2.60431 5.3097 0
M  V30 5391 H 522.66 -0.465858 0.592868 0
M  V30 5392 H 525.311 -0.510645 1.76252 0
M  V30 5393 H 523.693 -3.0088 2.57463 0
M  V30 5394 H 524.867 -0.910968 4.51706 0
M  V30 5395 H 523.182 -0.97767 4.0476 0
M  V30 5396 H 525.779 -3.74903 3.81251 0
M  V30 5397 H 526.122 -3.5902 2.10738 0
M  V30 5398 H 526.655 -2.31784 3.23297 0
M  V30 5399 H 523.394 -2.06823 6.22017 0
M  V30 5400 H 522.914 -3.28707 5.01709 0
M  V30 5401 H 524.593 -3.22606 5.60834 0
M  V30 5402 N 524.725 -1.39134 -0.740242 0
M  V30 5403 C 526.002 -1.26584 -1.49117 0
M  V30 5404 C 526.382 0.126902 -2.10718 0
M  V30 5405 O 525.73 1.13765 -1.98166 0
M  V30 5406 C 525.94 -2.38619 -2.54681 0
M  V30 5407 C 527.288 -2.77685 -3.21211 0
M  V30 5408 O 528.312 -2.38029 -2.64991 0
M  V30 5409 O 527.171 -3.46115 -4.22926 0
M  V30 5410 H 524.265 -0.495769 -0.661923 0
M  V30 5411 H 526.811 -1.50995 -0.774514 0
M  V30 5412 H 525.583 -3.3175 -2.07504 0
M  V30 5413 H 525.206 -2.15845 -3.33911 0
M  V30 5414 N 526.204 0.969867 -1.24223 0
M  V30 5415 C 527.167 2.04564 -1.03373 0
M  V30 5416 C 528.167 1.60798 0.00819206 0
M  V30 5417 O 529.357 1.72641 -0.232567 0
M  V30 5418 C 526.489 3.36163 -0.566343 0
M  V30 5419 H 527.682 2.24494 -1.98853 0
M  V30 5420 H 525.235 1.1448 -1.06415 0
M  V30 5421 H 525.97 3.21925 0.391751 0
M  V30 5422 H 525.755 3.69273 -1.31834 0
M  V30 5423 H 527.245 4.1526 -0.441435 0
M  V30 5424 N 527.682 1.05563 1.17022 0
M  V30 5425 C 528.615 0.604197 2.20056 0
M  V30 5426 C 529.593 -0.369169 1.58354 0
M  V30 5427 O 530.777 -0.279898 1.8641 0
M  V30 5428 C 527.904 -0.115265 3.38504 0
M  V30 5429 C 526.95 0.813698 4.18666 0
M  V30 5430 S 527.783 2.30492 4.83357 0
M  V30 5431 C 528.939 1.59674 6.0519 0
M  V30 5432 H 529.172 1.47713 2.58008 0
M  V30 5433 H 526.705 0.867932 1.27696 0
M  V30 5434 H 528.663 -0.524162 4.0714 0
M  V30 5435 H 527.324 -0.964284 2.98932 0
M  V30 5436 H 526.517 0.256736 5.03346 0
M  V30 5437 H 526.119 1.16213 3.55486 0
M  V30 5438 H 528.411 0.898164 6.7152 0
M  V30 5439 H 529.354 2.42115 6.65422 0
M  V30 5440 H 529.762 1.08252 5.54023 0
M  V30 5441 N 529.16 -1.33526 0.837174 0
M  V30 5442 C 530.09 -2.31764 0.284206 0
M  V30 5443 C 531.071 -1.58896 -0.607142 0
M  V30 5444 O 532.256 -1.86798 -0.531047 0
M  V30 5445 C 529.386 -3.43029 -0.542962 0
M  V30 5446 C 528.34 -4.27255 0.252451 0
M  V30 5447 C 527.666 -5.3012 -0.69836 0
M  V30 5448 C 528.966 -5.01229 1.46858 0
M  V30 5449 H 530.66 -2.78262 1.10502 0
M  V30 5450 H 528.206 -1.3378 0.532812 0
M  V30 5451 H 530.159 -4.1078 -0.940096 0
M  V30 5452 H 528.883 -2.95216 -1.39697 0
M  V30 5453 H 527.542 -3.61127 0.631124 0
M  V30 5454 H 527.19 -4.78564 -1.54872 0
M  V30 5455 H 526.89 -5.87353 -0.170274 0
M  V30 5456 H 528.414 -6.00737 -1.09305 0
M  V30 5457 H 529.828 -5.61756 1.14469 0
M  V30 5458 H 528.225 -5.68104 1.93333 0
M  V30 5459 H 529.295 -4.301 2.23924 0
M  V30 5460 N 530.638 -0.59345 -1.46 0
M  V30 5461 C 532.054 -0.255965 -1.57534 0
M  V30 5462 C 532.254 1.24167 -1.58697 0
M  V30 5463 O 531.31 2.02398 -1.50968 0
M  V30 5464 C 532.623 -0.91466 -2.86451 0
M  V30 5465 C 534.171 -0.889253 -3.00102 0
M  V30 5466 C 534.646 -1.52769 -4.3177 0
M  V30 5467 N 536.137 -1.49253 -4.38495 0
M  V30 5468 C 536.872 -1.9558 -5.39014 0
M  V30 5469 N 536.368 -2.49929 -6.46148 0
M  V30 5470 N 538.161 -1.86432 -5.30282 0
M  V30 5471 H 530.312 -1.56604 -1.43489 0
M  V30 5472 H 532.575 -0.655207 -0.685133 0
M  V30 5473 H 532.281 -1.96861 -2.91442 0
M  V30 5474 H 532.155 -0.429356 -3.74748 0
M  V30 5475 H 534.542 0.156111 -2.94687 0
M  V30 5476 H 534.623 -1.41268 -2.13253 0
M  V30 5477 H 534.267 -2.57231 -4.37944 0
M  V30 5478 H 534.197 -0.979398 -5.17412 0
M  V30 5479 H 536.688 -1.09536 -3.61677 0
M  V30 5480 H 537.001 -2.83109 -7.19075 0
M  V30 5481 H 535.346 -2.53961 -6.46938 0
M  V30 5482 H 538.537 -1.43722 -4.4549 0
M  V30 5483 H 538.71 -2.22852 -6.08474 0
M  V30 5484 N 532.116 1.54067 -0.331816 0
M  V30 5485 C 533.063 2.24623 0.530372 0
M  V30 5486 C 534.033 1.24009 1.10503 0
M  V30 5487 O 535.218 1.52712 1.14384 0
M  V30 5488 C 532.358 3.01374 1.68129 0
M  V30 5489 C 531.471 4.16821 1.13507 0
M  V30 5490 C 530.606 4.81085 2.25234 0
M  V30 5491 C 529.645 5.88621 1.67903 0
M  V30 5492 N 528.782 6.46713 2.73326 0
M  V30 5493 H 533.622 2.97898 -0.0778607 0
M  V30 5494 H 531.159 1.47014 -0.0501965 0
M  V30 5495 H 533.117 3.44125 2.35868 0
M  V30 5496 H 531.747 2.30419 2.26069 0
M  V30 5497 H 530.799 3.78796 0.348979 0
M  V30 5498 H 532.111 4.94203 0.675633 0
M  V30 5499 H 531.265 5.26846 3.00862 0
M  V30 5500 H 530.004 4.03102 2.74518 0
M  V30 5501 H 529.009 5.42254 0.907773 0
M  V30 5502 H 530.234 6.68506 1.19487 0
M  V30 5503 H 528.18 5.71599 3.21886 0
M  V30 5504 H 528.097 7.19532 2.3197 0
M  V30 5505 H 529.365 6.97129 3.48758 0
M  V30 5506 N 533.594 0.0601682 1.57485 0
M  V30 5507 C 534.871 -0.651956 1.84415 0
M  V30 5508 C 535.251 -1.88498 0.950361 0
M  V30 5509 O 534.599 -2.28496 0.0136719 0
M  V30 5510 C 534.809 -1.00069 3.34346 0
M  V30 5511 C 536.157 -1.37915 4.01578 0
M  V30 5512 O 537.181 -1.09277 3.39024 0
M  V30 5513 O 536.04 -1.91399 5.11887 0
M  V30 5514 H 533.134 -0.322668 0.761455 0
M  V30 5515 H 535.68 0.0902159 1.6946 0
M  V30 5516 H 534.452 -0.124463 3.91102 0
M  V30 5517 H 534.075 -1.80001 3.54521 0
M  V30 5518 N 535.072 -1.5615 -0.213296 0
M  V30 5519 C 536.297 -1.83986 -0.957282 0
M  V30 5520 C 536.722 -0.641526 -1.76822 0
M  V30 5521 O 536.08 0.409722 -1.7661 0
M  V30 5522 C 536.128 -3.09889 -1.84393 0
M  V30 5523 O 535.232 -2.89163 -2.94038 0
M  V30 5524 H 534.573 -0.606357 -0.270605 0
M  V30 5525 H 537.103 -2.03369 -0.224111 0
M  V30 5526 H 537.113 -3.40209 -2.25215 0
M  V30 5527 H 535.788 -3.96735 -1.24795 0
M  V30 5528 H 534.365 -2.70097 -2.57103 0
M  V30 5529 N 536.55 0.480323 -1.50102 0
M  V30 5530 C 537.79 1.24301 -1.62261 0
M  V30 5531 C 538.154 1.89452 -0.311758 0
M  V30 5532 O 539.355 2.67022 -0.308696 0
M  V30 5533 C 537.626 2.26588 -2.76392 0
M  V30 5534 S 539.185 3.11919 -3.08629 0
M  V30 5535 H 536.003 0.42215 -0.57211 0
M  V30 5536 H 538.605 0.541591 -1.87848 0
M  V30 5537 H 537.309 1.7729 -3.70131 0
M  V30 5538 H 536.84 3.01371 -2.52862 0
M  V30 5539 H 538.855 4.27598 -2.51742 0
M  V30 5540 N 538.028 1.39524 0.732853 0
M  V30 5541 C 538.991 1.38189 1.82857 0
M  V30 5542 C 539.991 0.278624 1.58368 0
M  V30 5543 O 541.181 0.536639 1.65728 0
M  V30 5544 C 538.313 1.15661 3.2068 0
M  V30 5545 H 539.506 2.35692 1.85444 0
M  V30 5546 H 537.059 1.2512 0.936728 0
M  V30 5547 H 537.794 0.188482 3.23752 0
M  V30 5548 H 537.579 1.95559 3.39852 0
M  V30 5549 H 539.069 1.17472 4.00737 0
M  V30 5550 N 539.506 -0.963266 1.24736 0
M  V30 5551 C 540.746 -1.72172 1.10165 0
M  V30 5552 C 541.11 -1.88731 -0.352784 0
M  V30 5553 O 542.311 -2.61549 -0.620107 0
M  V30 5554 C 540.582 -3.0724 1.82589 0
M  V30 5555 S 542.141 -3.98449 1.83803 0
M  V30 5556 H 538.959 -0.591901 0.393922 0
M  V30 5557 H 541.561 -1.14955 1.58132 0
M  V30 5558 H 540.265 -2.92851 2.87518 0
M  V30 5559 H 539.796 -3.69521 1.34973 0
M  V30 5560 H 541.811 -4.87805 0.908883 0
M  V30 5561 N 540.985 -1.06182 -1.16461 0
M  V30 5562 C 542.396 -0.802426 -1.68576 0
M  V30 5563 C 542.747 0.67412 -1.84255 0
M  V30 5564 O 541.872 1.52303 -1.5373 0
M  V30 5565 C 542.467 -1.45002 -3.06202 0
M  V30 5566 C 541.026 -1.23843 -3.55443 0
M  V30 5567 C 540.173 -1.52724 -2.31454 0
M  V30 5568 H 543.124 -1.22545 -1.00839 0
M  V30 5569 H 543.145 -0.864731 -3.70544 0
M  V30 5570 H 542.657 -2.52466 -2.94759 0
M  V30 5571 H 540.758 -0.183487 -3.72148 0
M  V30 5572 H 540.871 -1.95036 -4.37604 0
M  V30 5573 H 539.235 -0.947726 -2.36411 0
M  V30 5574 H 540.018 -2.61343 -2.22609 0
M  V30 5575 N 542.463 1.3308 -0.844243 0
M  V30 5576 C 543.411 2.31028 -0.269954 0
M  V30 5577 C 544.405 1.58381 0.600997 0
M  V30 5578 O 545.611 1.73203 0.48996 0
M  V30 5579 H 541.986 0.748866 -0.0685782 0
M  V30 5580 H 543.957 2.76967 -1.11049 0
M  V30 5581 C 542.706 3.43549 0.535676 0
M  V30 5582 H 542.029 3.99604 -0.125202 0
M  V30 5583 H 543.469 4.14267 0.903262 0
M  V30 5584 C 541.928 2.8988 1.71672 0
M  V30 5585 O 542.458 2.86511 2.81557 0
M  V30 5586 N 540.664 2.46416 1.54037 0
M  V30 5587 H 540.211 2.49356 0.64649 0
M  V30 5588 H 540.169 2.1086 2.33207 0
M  V30 5589 N 543.941 0.601185 1.45683 0
M  V30 5590 C 545.352 0.179659 1.85834 0
M  V30 5591 C 545.703 -1.26189 1.50236 0
M  V30 5592 O 544.828 -1.95587 0.925987 0
M  V30 5593 C 545.423 0.319277 3.37292 0
M  V30 5594 C 543.982 -0.0475092 3.7637 0
M  V30 5595 C 543.129 0.646692 2.69654 0
M  V30 5596 H 546.08 0.808268 1.36575 0
M  V30 5597 H 546.101 -0.4503 3.77826 0
M  V30 5598 H 545.613 1.36855 3.6317 0
M  V30 5599 H 543.714 -1.0962 3.5611 0
M  V30 5600 H 543.827 0.34168 4.7788 0
M  V30 5601 H 542.191 0.0849971 2.54558 0
M  V30 5602 H 542.974 1.69797 2.98369 0
M  V30 5603 N 545.419 -1.53889 0.339982 0
M  V30 5604 C 546.659 -2.02765 -0.258011 0
M  V30 5605 C 547.023 -1.22249 -1.48051 0
M  V30 5606 O 548.224 -1.61007 -2.15245 0
M  V30 5607 C 546.495 -3.5286 -0.567872 0
M  V30 5608 S 548.054 -4.23647 -1.14318 0
M  V30 5609 H 544.872 -0.706814 -0.0770389 0
M  V30 5610 H 547.474 -1.89594 0.476917 0
M  V30 5611 H 546.178 -4.09073 0.329745 0
M  V30 5612 H 545.709 -3.70144 -1.33256 0
M  V30 5613 H 547.724 -4.32676 -2.42911 0
M  V30 5614 N 546.897 -0.0685191 -1.57451 0
M  V30 5615 C 547.86 0.885173 -2.11417 0
M  V30 5616 C 548.86 1.22853 -1.03748 0
M  V30 5617 O 550.05 1.16235 -1.2975 0
M  V30 5618 C 547.182 2.18964 -2.61281 0
M  V30 5619 H 548.375 0.417034 -2.96986 0
M  V30 5620 H 545.928 0.18014 -1.55258 0
M  V30 5621 H 546.663 2.70321 -1.79156 0
M  V30 5622 H 546.448 1.9534 -3.39977 0
M  V30 5623 H 547.938 2.87242 -3.0312 0
M  V30 5624 N 548.375 1.56261 0.205012 0
M  V30 5625 C 549.6 1.84491 0.947512 0
M  V30 5626 C 550.025 0.650894 1.76479 0
M  V30 5627 O 549.383 -0.40035 1.76824 0
M  V30 5628 C 549.431 3.10863 1.82747 0
M  V30 5629 O 548.535 2.90719 2.925 0
M  V30 5630 H 547.876 0.607783 0.267386 0
M  V30 5631 H 550.406 2.03485 0.213323 0
M  V30 5632 H 550.416 3.41399 2.23407 0
M  V30 5633 H 549.091 3.97392 1.2269 0
M  V30 5634 H 547.668 2.71457 2.55667 0
M  V30 5635 N 549.853 -0.472356 1.50355 0
M  V30 5636 C 551.081 -1.24784 1.65035 0
M  V30 5637 C 551.496 -1.85837 0.333176 0
M  V30 5638 O 550.853 -1.69168 -0.68472 0
M  V30 5639 C 550.904 -2.35747 2.74054 0
M  V30 5640 O 550.625 -1.77197 4.00665 0
M  V30 5641 C 552.126 -3.26645 2.99696 0
M  V30 5642 H 549.346 -0.377432 0.554785 0
M  V30 5643 H 551.89 -0.563962 1.9657 0
M  V30 5644 H 550.045 -2.99912 2.45217 0
M  V30 5645 H 550.459 -2.5026 4.60945 0
M  V30 5646 H 551.933 -4.00718 3.79644 0
M  V30 5647 H 552.41 -3.8535 2.10718 0
M  V30 5648 H 553.016 -2.68218 3.3006 0
M  V30 5649 N 551.331 -1.39911 -0.725443 0
M  V30 5650 C 552.747 -1.21725 -1.03224 0
M  V30 5651 C 552.947 -0.0855224 -2.01318 0
M  V30 5652 O 552.003 0.55976 -2.46217 0
M  V30 5653 C 553.316 -2.55511 -1.58539 0
M  V30 5654 C 554.864 -2.62439 -1.70572 0
M  V30 5655 C 555.339 -3.9647 -2.29294 0
M  V30 5656 N 556.83 -3.98159 -2.36692 0
M  V30 5657 C 557.565 -4.98647 -2.83088 0
M  V30 5658 N 557.061 -6.0953 -3.2931 0
M  V30 5659 N 558.854 -4.8602 -2.82384 0
M  V30 5660 H 551.005 -2.12267 -0.075048 0
M  V30 5661 H 553.268 -0.943136 -0.0959066 0
M  V30 5662 H 552.974 -3.38926 -0.939249 0
M  V30 5663 H 552.848 -2.75905 -2.57208 0
M  V30 5664 H 555.235 -1.79401 -2.34306 0
M  V30 5665 H 555.316 -2.45885 -0.705297 0
M  V30 5666 H 554.96 -4.79942 -1.66186 0
M  V30 5667 H 554.89 -4.10349 -3.30032 0
M  V30 5668 H 557.381 -3.18085 -2.04035 0
M  V30 5669 H 557.694 -6.82106 -3.6325 0
M  V30 5670 H 556.039 -6.1311 -3.27294 0
M  V30 5671 H 559.23 -3.98493 -2.45603 0
M  V30 5672 H 559.403 -5.64478 -3.18226 0
M  V30 5673 N 552.809 0.956637 -1.25245 0
M  V30 5674 C 554.039 1.7332 -1.12445 0
M  V30 5675 C 554.447 1.86392 0.324732 0
M  V30 5676 O 553.79 1.35967 1.23526 0
M  V30 5677 C 553.852 3.16603 -1.70303 0
M  V30 5678 C 553.516 3.26966 -3.19284 0
M  V30 5679 C 554.513 3.11434 -4.16299 0
M  V30 5680 C 552.198 3.50851 -3.59456 0
M  V30 5681 C 554.192 3.1963 -5.51467 0
M  V30 5682 C 551.879 3.58684 -4.94761 0
M  V30 5683 C 552.877 3.43087 -5.90576 0
M  V30 5684 O 552.565 3.50598 -7.2342 0
M  V30 5685 H 552.297 0.549981 -0.393061 0
M  V30 5686 H 554.851 1.20892 -1.66055 0
M  V30 5687 H 553.081 3.70385 -1.11138 0
M  V30 5688 H 554.77 3.76109 -1.52632 0
M  V30 5689 H 555.536 2.92853 -3.86604 0
M  V30 5690 H 551.415 3.62053 -2.85375 0
M  V30 5691 H 554.959 3.07373 -6.26233 0
M  V30 5692 H 550.856 3.76782 -5.24124 0
M  V30 5693 H 551.624 3.67242 -7.31489 0
M  V30 5694 N 554.287 1.06798 1.15896 0
M  V30 5695 C 555.25 0.687328 2.18651 0
M  V30 5696 C 556.25 -0.269559 1.58524 0
M  V30 5697 O 557.44 -0.0512627 1.74125 0
M  V30 5698 C 554.572 0.0121642 3.40898 0
M  V30 5699 H 555.765 1.59701 2.53842 0
M  V30 5700 H 553.318 0.863828 1.3026 0
M  V30 5701 H 554.053 -0.910025 3.1127 0
M  V30 5702 H 553.838 0.700309 3.85795 0
M  V30 5703 H 555.328 -0.239703 4.16911 0
M  V30 5704 N 555.766 -1.3263 0.851289 0
M  V30 5705 C 556.713 -2.28952 0.291469 0
M  V30 5706 C 557.683 -1.54897 -0.599676 0
M  V30 5707 O 558.868 -1.83137 -0.535305 0
M  V30 5708 C 556.008 -3.41206 -0.516992 0
M  V30 5709 C 555.121 -4.30148 0.399566 0
M  V30 5710 C 554.256 -5.29527 -0.4212 0
M  V30 5711 C 553.295 -6.10112 0.492969 0
M  V30 5712 N 552.432 -7.01499 -0.290414 0
M  V30 5713 H 557.272 -2.76228 1.11813 0
M  V30 5714 H 554.809 -1.35907 0.562826 0
M  V30 5715 H 556.767 -4.05005 -1.00132 0
M  V30 5716 H 555.397 -2.9509 -1.30851 0
M  V30 5717 H 554.449 -3.66959 1.00227 0
M  V30 5718 H 555.761 -4.8649 1.1013 0
M  V30 5719 H 554.915 -5.98914 -0.968832 0
M  V30 5720 H 553.654 -4.73794 -1.15632 0
M  V30 5721 H 552.659 -5.39632 1.05251 0
M  V30 5722 H 553.884 -6.6793 1.22664 0
M  V30 5723 H 551.83 -6.48199 -1.00868 0
M  V30 5724 H 551.747 -7.55178 0.352354 0
M  V30 5725 H 553.015 -7.75176 -0.819882 0
M  V30 5726 N 557.244 -0.608902 -1.45362 0
M  V30 5727 C 558.154 0.110969 -2.34337 0
M  V30 5728 C 559.17 0.859007 -1.51318 0
M  V30 5729 O 560.346 0.816296 -1.84116 0
M  V30 5730 C 557.411 1.09494 -3.28956 0
M  V30 5731 C 556.472 0.348718 -4.27881 0
M  V30 5732 C 555.705 1.28582 -5.17979 0
M  V30 5733 O 555.928 2.52369 -5.11533 0
M  V30 5734 O 554.862 0.782172 -5.96796 0
M  V30 5735 H 558.688 -0.620258 -2.97299 0
M  V30 5736 H 556.273 -0.36916 -1.44767 0
M  V30 5737 H 558.155 1.66163 -3.87257 0
M  V30 5738 H 556.83 1.80717 -2.68557 0
M  V30 5739 H 555.737 -0.260465 -3.73192 0
M  V30 5740 H 557.07 -0.323049 -4.91139 0
M  V30 5741 N 558.722 1.53707 -0.348139 0
M  V30 5742 C 559.652 2.28111 0.498766 0
M  V30 5743 C 560.633 1.29851 1.09876 0
M  V30 5744 O 561.818 1.587 1.11928 0
M  V30 5745 C 558.948 3.05735 1.64753 0
M  V30 5746 C 557.902 4.11537 1.17565 0
M  V30 5747 C 557.228 4.77142 2.4133 0
M  V30 5748 C 558.528 5.21587 0.272844 0
M  V30 5749 H 560.222 2.99152 -0.121934 0
M  V30 5750 H 557.768 1.43875 -0.0600842 0
M  V30 5751 H 559.721 3.56526 2.24649 0
M  V30 5752 H 558.445 2.32354 2.2952 0
M  V30 5753 H 557.104 3.61665 0.599483 0
M  V30 5754 H 556.752 4.0035 3.04514 0
M  V30 5755 H 556.452 5.48626 2.10436 0
M  V30 5756 H 557.976 5.30719 3.01943 0
M  V30 5757 H 559.39 5.67986 0.778779 0
M  V30 5758 H 557.787 6.00074 0.0555849 0
M  V30 5759 H 558.857 4.79969 -0.689785 0
M  V30 5760 N 560.2 0.0768682 1.57412 0
M  V30 5761 C 561.425 -0.603404 1.98428 0
M  V30 5762 C 561.85 -1.62047 0.955108 0
M  V30 5763 O 561.208 -1.81129 -0.0786778 0
M  V30 5764 C 561.256 -1.24396 3.38464 0
M  V30 5765 O 560.36 -2.35982 3.3821 0
M  V30 5766 H 559.701 -0.154741 0.645718 0
M  V30 5767 H 562.231 0.152885 2.04028 0
M  V30 5768 H 562.241 -1.5896 3.7576 0
M  V30 5769 H 560.916 -0.498735 4.12899 0
M  V30 5770 H 559.493 -2.03173 3.1269 0
M  V30 5771 N 561.678 -1.56367 -0.196722 0
M  V30 5772 C 562.611 -1.89475 -1.2718 0
M  V30 5773 C 563.589 -0.754667 -1.44026 0
M  V30 5774 O 564.773 -1.00551 -1.59442 0
M  V30 5775 C 561.9 -2.12352 -2.63864 0
M  V30 5776 C 560.946 -3.35053 -2.63897 0
M  V30 5777 S 561.779 -4.90228 -2.15492 0
M  V30 5778 C 562.935 -5.16171 -3.54004 0
M  V30 5779 H 563.168 -2.80365 -0.989075 0
M  V30 5780 H 560.701 -1.49125 -0.40014 0
M  V30 5781 H 562.659 -2.26214 -3.42545 0
M  V30 5782 H 561.32 -1.22214 -2.89349 0
M  V30 5783 H 560.513 -3.48182 -3.64397 0
M  V30 5784 H 560.115 -3.20176 -1.93296 0
M  V30 5785 H 562.407 -5.06591 -4.49857 0
M  V30 5786 H 563.35 -6.17938 -3.45771 0
M  V30 5787 H 563.758 -4.43814 -3.48841 0
M  V30 5788 N 563.156 0.464375 -1.50603 0
M  V30 5789 C 564.402 1.21776 -1.62168 0
M  V30 5790 C 564.735 1.91476 -0.324154 0
M  V30 5791 O 564.01 1.8242 0.674782 0
M  V30 5792 C 564.293 2.25614 -2.80661 0
M  V30 5793 C 564.146 1.60175 -4.20314 0
M  V30 5794 C 565.465 3.26862 -2.94702 0
M  V30 5795 H 562.584 0.44137 -0.590222 0
M  V30 5796 H 565.226 0.510623 -1.8301 0
M  V30 5797 H 563.376 2.85923 -2.63021 0
M  V30 5798 H 565.048 1.03411 -4.4956 0
M  V30 5799 H 563.291 0.904697 -4.24261 0
M  V30 5800 H 563.962 2.35665 -4.99165 0
M  V30 5801 H 566.438 2.76582 -3.10872 0
M  V30 5802 H 565.314 3.96839 -3.79223 0
M  V30 5803 H 565.575 3.91382 -2.05603 0
M  V30 5804 N 564.634 1.40294 0.718013 0
M  V30 5805 C 566.05 1.2227 1.02577 0
M  V30 5806 C 566.25 0.0961976 2.0127 0
M  V30 5807 O 565.306 -0.546695 2.46511 0
M  V30 5808 C 566.619 2.56348 1.57182 0
M  V30 5809 C 568.167 2.6334 1.69178 0
M  V30 5810 C 568.642 3.9768 2.27188 0
M  V30 5811 N 570.133 3.99409 2.34578 0
M  V30 5812 C 570.868 5.00141 2.8044 0
M  V30 5813 N 570.364 6.11268 3.26073 0
M  V30 5814 N 572.157 4.87511 2.79802 0
M  V30 5815 H 564.308 2.12304 0.0637899 0
M  V30 5816 H 566.571 0.943632 0.0909036 0
M  V30 5817 H 566.277 3.3942 0.921262 0
M  V30 5818 H 566.151 2.77266 2.55741 0
M  V30 5819 H 568.538 1.80641 2.33351 0
M  V30 5820 H 568.619 2.46255 0.692247 0
M  V30 5821 H 568.263 4.80817 1.63638 0
M  V30 5822 H 568.193 4.12093 3.27852 0
M  V30 5823 H 570.684 3.19162 2.02346 0
M  V30 5824 H 570.997 6.84023 3.59628 0
M  V30 5825 H 569.342 6.14837 3.24038 0
M  V30 5826 H 572.533 3.9979 2.43487 0
M  V30 5827 H 572.706 5.66158 3.15228 0
M  V30 5828 N 566.112 -0.949982 1.2575 0
M  V30 5829 C 567.361 -1.68956 1.10168 0
M  V30 5830 C 567.674 -1.92327 -0.356309 0
M  V30 5831 O 568.88 -2.64026 -0.632657 0
M  V30 5832 C 567.336 -3.04196 1.92336 0
M  V30 5833 C 566.944 -2.88603 3.42655 0
M  V30 5834 C 568.688 -3.81904 1.85336 0
M  V30 5835 C 566.595 -4.19262 4.17101 0
M  V30 5836 H 565.525 -0.633645 0.408668 0
M  V30 5837 H 568.176 -1.05719 1.49986 0
M  V30 5838 H 566.558 -3.68363 1.45344 0
M  V30 5839 H 567.732 -2.3334 3.97353 0
M  V30 5840 H 566.047 -2.24345 3.50796 0
M  V30 5841 H 568.644 -4.78688 2.38248 0
M  V30 5842 H 568.987 -4.08099 0.822226 0
M  V30 5843 H 569.52 -3.24495 2.30104 0
M  V30 5844 H 566.259 -3.98254 5.20648 0
M  V30 5845 H 565.779 -4.74273 3.67186 0
M  V30 5846 H 567.458 -4.87775 4.25071 0
M  V30 5847 N 567.59 -1.07411 -1.15328 0
M  V30 5848 C 569.001 -0.820261 -1.67716 0
M  V30 5849 C 569.352 0.654539 -1.8496 0
M  V30 5850 O 568.477 1.50664 -1.55337 0
M  V30 5851 C 569.072 -1.48242 -3.04647 0
M  V30 5852 C 567.631 -1.27606 -3.5411 0
M  V30 5853 C 566.778 -1.5517 -2.29821 0
M  V30 5854 H 569.729 -1.23608 -0.995332 0
M  V30 5855 H 569.75 -0.903984 -3.69606 0
M  V30 5856 H 569.262 -2.55578 -2.92064 0
M  V30 5857 H 567.363 -0.222948 -3.71932 0
M  V30 5858 H 567.476 -1.99667 -4.35511 0
M  V30 5859 H 565.84 -0.972747 -2.35393 0
M  V30 5860 H 566.623 -2.63689 -2.19824 0
M  V30 5861 N 569.068 1.32177 -0.85831 0
M  V30 5862 C 570.293 2.01847 -0.476718 0
M  V30 5863 C 570.718 1.64065 0.920021 0
M  V30 5864 O 570.076 0.843189 1.60499 0
M  V30 5865 C 570.124 3.55097 -0.627578 0
M  V30 5866 O 569.228 4.11012 0.338086 0
M  V30 5867 H 568.569 0.635907 -0.191099 0
M  V30 5868 H 571.099 1.68641 -1.15851 0
M  V30 5869 H 571.109 4.04718 -0.516476 0
M  V30 5870 H 569.784 3.81938 -1.64609 0
M  V30 5871 H 568.361 3.72451 0.182917 0
M  V30 5872 N 570.547 0.616602 1.45037 0
M  V30 5873 C 571.963 0.280994 1.57107 0
M  V30 5874 C 572.163 -1.21627 1.60653 0
M  V30 5875 O 571.219 -1.9997 1.54169 0
M  V30 5876 C 572.532 0.960116 2.8496 0
M  V30 5877 C 574.08 0.936884 2.98649 0
M  V30 5878 C 574.555 1.59619 4.29285 0
M  V30 5879 N 576.046 1.5621 4.36065 0
M  V30 5880 C 576.781 2.04131 5.35834 0
M  V30 5881 N 576.277 2.60177 6.4209 0
M  V30 5882 N 578.07 1.94845 5.27249 0
M  V30 5883 H 570.221 1.58867 1.40979 0
M  V30 5884 H 572.484 0.666024 0.674623 0
M  V30 5885 H 572.19 2.01473 2.88273 0
M  V30 5886 H 572.064 0.488921 3.74018 0
M  V30 5887 H 574.451 -0.109209 2.94898 0
M  V30 5888 H 574.532 1.44643 2.10979 0
M  V30 5889 H 574.176 2.64166 4.33796 0
M  V30 5890 H 574.106 1.06159 5.15789 0
M  V30 5891 H 576.597 1.15276 3.59889 0
M  V30 5892 H 576.91 2.94513 7.1448 0
M  V30 5893 H 575.255 2.64221 6.42816 0
M  V30 5894 H 578.446 1.50792 4.43147 0
M  V30 5895 H 578.619 2.32504 6.04852 0
M  V30 5896 N 572.025 -1.5352 0.356285 0
M  V30 5897 C 572.988 -2.24071 -0.482182 0
M  V30 5898 C 573.988 -1.24531 -1.01729 0
M  V30 5899 O 575.178 -1.48876 -0.904513 0
M  V30 5900 C 572.31 -2.97025 -1.67299 0
M  V30 5901 H 573.503 -2.99596 0.135031 0
M  V30 5902 H 571.056 -1.55928 0.107825 0
M  V30 5903 H 571.791 -2.25719 -2.32855 0
M  V30 5904 H 571.576 -3.7005 -1.29636 0
M  V30 5905 H 573.066 -3.50683 -2.26741 0
M  V30 5906 N 573.503 -0.0852151 -1.57369 0
M  V30 5907 C 574.466 0.8627 -2.12344 0
M  V30 5908 C 575.466 1.21746 -1.05046 0
M  V30 5909 O 576.656 1.14852 -1.30976 0
M  V30 5910 C 573.788 2.1618 -2.63589 0
M  V30 5911 H 574.981 0.385511 -2.97412 0
M  V30 5912 H 572.534 0.163663 -1.55441 0
M  V30 5913 H 573.269 2.68406 -1.82013 0
M  V30 5914 H 573.054 1.91723 -3.4203 0
M  V30 5915 H 574.544 2.84011 -3.06149 0
M  V30 5916 N 574.981 1.5647 0.188427 0
M  V30 5917 C 575.944 1.9421 1.21718 0
M  V30 5918 C 576.944 0.823901 1.38089 0
M  V30 5919 O 578.134 1.09122 1.35787 0
M  V30 5920 C 575.266 2.22197 2.58537 0
M  V30 5921 H 576.459 2.86252 0.894418 0
M  V30 5922 H 574.012 1.50263 0.430211 0
M  V30 5923 H 574.747 1.32814 2.95856 0
M  V30 5924 H 574.532 3.03688 2.48025 0
M  V30 5925 H 576.022 2.52376 3.3271 0
M  V30 5926 N 576.459 -0.456382 1.50847 0
M  V30 5927 C 577.875 -0.791345 1.386 0
M  V30 5928 C 578.075 -1.9633 0.453498 0
M  V30 5929 O 577.131 -2.52308 -0.0984353 0
M  V30 5930 C 578.444 -1.08959 2.80265 0
M  V30 5931 C 579.992 -1.19517 2.89283 0
M  V30 5932 C 580.467 -1.52647 4.31814 0
M  V30 5933 N 581.958 -1.59609 4.34832 0
M  V30 5934 C 582.693 -1.86777 5.42127 0
M  V30 5935 N 582.189 -2.11866 6.59609 0
M  V30 5936 N 583.982 -1.88402 5.29586 0
M  V30 5937 H 576.133 0.315746 2.1004 0
M  V30 5938 H 578.396 0.0787916 0.94472 0
M  V30 5939 H 578.102 -0.301355 3.50407 0
M  V30 5940 H 577.976 -2.02211 3.18419 0
M  V30 5941 H 580.363 -1.97406 2.19351 0
M  V30 5942 H 580.444 -0.242111 2.54652 0
M  V30 5943 H 580.088 -0.752922 5.02288 0
M  V30 5944 H 580.018 -2.49127 4.63943 0
M  V30 5945 H 582.509 -1.42201 3.50125 0
M  V30 5946 H 582.822 -2.31912 7.37182 0
M  V30 5947 H 581.167 -2.09228 6.62758 0
M  V30 5948 H 584.358 -1.68307 4.36795 0
M  V30 5949 H 584.531 -2.09238 6.13289 0
M  V30 5950 N 577.937 -1.40673 -0.710563 0
M  V30 5951 C 579.184 -1.39222 -1.47049 0
M  V30 5952 C 579.512 0.0037691 -1.945 0
M  V30 5953 O 578.767 0.989224 -1.68857 0
M  V30 5954 C 579.066 -2.33253 -2.70791 0
M  V30 5955 C 578.732 -3.80406 -2.42079 0
M  V30 5956 C 577.394 -4.20496 -2.33959 0
M  V30 5957 C 579.746 -4.73375 -2.18094 0
M  V30 5958 C 577.074 -5.51584 -1.99929 0
M  V30 5959 C 579.426 -6.04768 -1.85576 0
M  V30 5960 C 578.09 -6.43895 -1.75941 0
M  V30 5961 H 577.36 -0.509449 -0.538092 0
M  V30 5962 H 580.007 -1.73363 -0.81348 0
M  V30 5963 H 578.312 -1.92314 -3.41354 0
M  V30 5964 H 580.009 -2.29412 -3.28894 0
M  V30 5965 H 576.599 -3.48645 -2.49288 0
M  V30 5966 H 580.783 -4.43217 -2.23321 0
M  V30 5967 H 576.039 -5.80797 -1.91011 0
M  V30 5968 H 580.213 -6.76318 -1.66033 0
M  V30 5969 H 577.84 -7.45387 -1.4934 0
M  V30 5970 N 579.415 0.9433 -1.26252 0
M  V30 5971 C 580.345 2.05902 -1.10122 0
M  V30 5972 C 581.326 1.70099 -0.00700552 0
M  V30 5973 O 582.511 1.93377 -0.178641 0
M  V30 5974 C 579.641 3.39516 -0.731175 0
M  V30 5975 C 578.595 3.89372 -1.77688 0
M  V30 5976 C 577.921 5.19613 -1.26122 0
M  V30 5977 C 579.221 4.14489 -3.17799 0
M  V30 5978 H 580.915 2.19655 -2.03451 0
M  V30 5979 H 578.461 1.05548 -0.979576 0
M  V30 5980 H 580.414 4.17031 -0.605215 0
M  V30 5981 H 579.138 3.25733 0.23782 0
M  V30 5982 H 577.797 3.14036 -1.89148 0
M  V30 5983 H 577.445 5.02208 -0.282128 0
M  V30 5984 H 577.145 5.53939 -1.96023 0
M  V30 5985 H 578.669 5.99713 -1.14789 0
M  V30 5986 H 580.083 4.82625 -3.09428 0
M  V30 5987 H 578.48 4.60094 -3.85271 0
M  V30 5988 H 579.55 3.20347 -3.64014 0
M  V30 5989 N 580.893 1.08022 1.14757 0
M  V30 5990 C 581.856 0.71048 2.1791 0
M  V30 5991 C 582.856 -0.252731 1.58801 0
M  V30 5992 O 584.046 -0.0327915 1.74169 0
M  V30 5993 C 581.178 0.0483203 3.40866 0
M  V30 5994 H 582.371 1.62384 2.52134 0
M  V30 5995 H 579.924 0.877595 1.29337 0
M  V30 5996 H 580.659 -0.876959 3.12218 0
M  V30 5997 H 580.444 0.741189 3.85031 0
M  V30 5998 H 581.934 -0.195471 4.17142 0
M  V30 5999 N 582.371 -1.3172 0.865308 0
M  V30 6000 C 583.787 -1.4958 0.556596 0
M  V30 6001 C 583.987 -1.79763 -0.910353 0
M  V30 6002 O 583.043 -1.87351 -1.6928 0
M  V30 6003 C 584.356 -2.63277 1.45279 0
M  V30 6004 C 585.904 -2.77161 1.45433 0
M  V30 6005 C 586.379 -3.93949 2.33598 0
M  V30 6006 N 587.87 -4.01228 2.31453 0
M  V30 6007 C 588.605 -4.90855 2.96393 0
M  V30 6008 N 588.101 -5.85416 3.70486 0
M  V30 6009 N 589.894 -4.84063 2.85726 0
M  V30 6010 H 582.045 -1.10396 1.81456 0
M  V30 6011 H 584.308 -0.54507 0.775631 0
M  V30 6012 H 584.014 -2.47734 2.49641 0
M  V30 6013 H 583.888 -3.59309 1.14792 0
M  V30 6014 H 586.275 -2.9212 0.41831 0
M  V30 6015 H 586.356 -1.8181 1.79941 0
M  V30 6016 H 586 -3.79748 3.37274 0
M  V30 6017 H 585.93 -4.88598 1.96417 0
M  V30 6018 H 588.421 -3.3357 1.77593 0
M  V30 6019 H 588.734 -6.50525 4.17178 0
M  V30 6020 H 587.079 -5.85409 3.74594 0
M  V30 6021 H 590.27 -4.09163 2.27384 0
M  V30 6022 H 590.443 -5.53708 3.36617 0
M  V30 6023 N 583.85 -0.624285 -1.44708 0
M  V30 6024 C 584.797 0.0847135 -2.30644 0
M  V30 6025 C 585.767 0.843575 -1.43084 0
M  V30 6026 O 586.952 0.825982 -1.71995 0
M  V30 6027 C 584.091 1.06495 -3.28257 0
M  V30 6028 C 583.205 0.305224 -4.3092 0
M  V30 6029 C 582.34 1.27667 -5.1563 0
M  V30 6030 C 581.379 0.505706 -6.10007 0
M  V30 6031 N 580.516 1.42727 -6.8744 0
M  V30 6032 H 585.356 -0.654068 -2.90733 0
M  V30 6033 H 582.893 -0.334334 -1.4325 0
M  V30 6034 H 584.851 1.64658 -3.83332 0
M  V30 6035 H 583.481 1.77094 -2.69884 0
M  V30 6036 H 582.533 -0.392207 -3.78373 0
M  V30 6037 H 583.845 -0.295553 -4.97924 0
M  V30 6038 H 582.999 1.92984 -5.75189 0
M  V30 6039 H 581.738 1.91137 -4.48685 0
M  V30 6040 H 580.743 -0.160999 -5.49564 0
M  V30 6041 H 581.968 -0.124183 -6.78986 0
M  V30 6042 H 579.913 2.04931 -6.23169 0
M  V30 6043 H 579.831 0.880345 -7.50857 0
M  V30 6044 H 581.099 2.0695 -7.51526 0
M  V30 6045 N 585.328 1.53329 -0.364422 0
M  V30 6046 C 586.258 2.28627 0.474543 0
M  V30 6047 C 587.239 1.31009 1.08492 0
M  V30 6048 O 588.424 1.59878 1.10239 0
M  V30 6049 C 585.554 3.07465 1.61501 0
M  V30 6050 C 584.508 4.1276 1.13194 0
M  V30 6051 C 583.834 4.79674 2.36255 0
M  V30 6052 C 585.134 5.21847 0.217507 0
M  V30 6053 H 586.828 2.99005 -0.153656 0
M  V30 6054 H 584.374 1.43803 -0.0753406 0
M  V30 6055 H 586.327 3.58889 2.20855 0
M  V30 6056 H 585.051 2.34775 2.27042 0
M  V30 6057 H 583.71 3.62281 0.56109 0
M  V30 6058 H 583.358 4.03557 3.00251 0
M  V30 6059 H 583.058 5.50827 2.04606 0
M  V30 6060 H 584.582 5.33892 2.96297 0
M  V30 6061 H 585.996 5.6878 0.718493 0
M  V30 6062 H 584.393 6.00099 -0.00806408 0
M  V30 6063 H 585.463 4.7921 -0.740653 0
M  V30 6064 N 586.806 0.0935595 1.57322 0
M  V30 6065 C 587.754 -0.883457 2.15169 0
M  V30 6066 C 588.748 -1.29324 1.09415 0
M  V30 6067 O 589.954 -1.26795 1.27762 0
M  V30 6068 H 586.329 -0.302923 0.688289 0
M  V30 6069 H 588.3 -0.370845 2.96087 0
M  V30 6070 C 587.049 -2.13345 2.74552 0
M  V30 6071 H 586.372 -1.82702 3.55612 0
M  V30 6072 H 587.812 -2.7977 3.18598 0
M  V30 6073 C 586.271 -2.90646 1.70371 0
M  V30 6074 O 586.801 -3.85133 1.14173 0
M  V30 6075 N 585.007 -2.54157 1.40899 0
M  V30 6076 H 584.554 -1.77391 1.86789 0
M  V30 6077 H 584.512 -3.06178 0.714301 0
M  V30 6078 N 588.284 -1.56567 -0.180126 0
M  V30 6079 C 589.7 -1.50488 -0.531559 0
M  V30 6080 C 589.9 -0.796267 -1.851 0
M  V30 6081 O 588.956 -0.352978 -2.50021 0
M  V30 6082 C 590.269 -2.95201 -0.572456 0
M  V30 6083 C 591.817 -3.05957 -0.660264 0
M  V30 6084 C 592.292 -4.5211 -0.732135 0
M  V30 6085 N 593.783 -4.56322 -0.795262 0
M  V30 6086 C 594.518 -5.66742 -0.871296 0
M  V30 6087 N 594.014 -6.86815 -0.908708 0
M  V30 6088 N 595.807 -5.54691 -0.909639 0
M  V30 6089 H 587.958 -2.01045 0.685165 0
M  V30 6090 H 590.221 -0.915536 0.245962 0
M  V30 6091 H 589.927 -3.50165 0.328208 0
M  V30 6092 H 589.801 -3.49369 -1.422 0
M  V30 6093 H 592.188 -2.51032 -1.55136 0
M  V30 6094 H 592.269 -2.54888 0.215783 0
M  V30 6095 H 591.913 -5.07664 0.154664 0
M  V30 6096 H 591.843 -5.00926 -1.6242 0
M  V30 6097 H 594.334 -3.69868 -0.77499 0
M  V30 6098 H 594.647 -7.66718 -0.967654 0
M  V30 6099 H 592.992 -6.89443 -0.877132 0
M  V30 6100 H 596.183 -4.59804 -0.877353 0
M  V30 6101 H 596.356 -6.40768 -0.965434 0
M  V30 6102 N 589.762 0.448376 -1.51087 0
M  V30 6103 C 590.987 1.22605 -1.6728 0
M  V30 6104 C 591.412 1.84524 -0.365045 0
M  V30 6105 O 590.77 1.6832 0.673642 0
M  V30 6106 C 590.818 2.29393 -2.78229 0
M  V30 6107 O 589.922 3.34608 -2.41063 0
M  V30 6108 H 589.263 0.359705 -0.558129 0
M  V30 6109 H 591.793 0.530903 -1.97592 0
M  V30 6110 H 591.803 2.74352 -3.01986 0
M  V30 6111 H 590.478 1.83701 -3.73131 0
M  V30 6112 H 589.055 2.95202 -2.27838 0
M  V30 6113 N 591.24 1.41047 0.703093 0
M  V30 6114 C 592.15 1.44645 1.84703 0
M  V30 6115 C 593.166 0.337778 1.7069 0
M  V30 6116 O 594.342 0.584327 1.92737 0
M  V30 6117 C 591.407 1.31928 3.20618 0
M  V30 6118 C 590.468 2.53047 3.46794 0
M  V30 6119 C 589.701 2.40927 4.76224 0
M  V30 6120 O 589.924 1.42978 5.5219 0
M  V30 6121 O 588.858 3.30543 5.03016 0
M  V30 6122 H 592.684 2.41139 1.84624 0
M  V30 6123 H 590.269 1.22504 0.855167 0
M  V30 6124 H 592.151 1.27092 4.01778 0
M  V30 6125 H 590.826 0.385469 3.21397 0
M  V30 6126 H 589.733 2.6346 2.65593 0
M  V30 6127 H 591.066 3.45231 3.50822 0
M  V30 6128 N 592.718 -0.936591 1.26751 0
M  V30 6129 C 593.681 -2.01752 1.08761 0
M  V30 6130 C 594.681 -1.60763 0.0344435 0
M  V30 6131 O 595.871 -1.71963 0.278258 0
M  V30 6132 C 593.003 -3.34543 0.655271 0
M  V30 6133 H 594.196 -2.19143 2.04735 0
M  V30 6134 H 591.749 -1.11618 1.09413 0
M  V30 6135 H 592.484 -3.22851 -0.30626 0
M  V30 6136 H 592.269 -3.65647 1.41578 0
M  V30 6137 H 593.759 -4.13944 0.551378 0
M  V30 6138 N 594.196 -1.08629 -1.14182 0
M  V30 6139 C 595.426 -0.837673 -1.88856 0
M  V30 6140 C 595.834 0.614024 -1.78959 0
M  V30 6141 O 595.177 1.43384 -1.14833 0
M  V30 6142 C 595.239 -1.18355 -3.39459 0
M  V30 6143 C 594.903 -2.63848 -3.73139 0
M  V30 6144 C 595.9 -3.62099 -3.73069 0
M  V30 6145 C 593.585 -2.99761 -4.03049 0
M  V30 6146 C 595.579 -4.94292 -4.02435 0
M  V30 6147 C 593.266 -4.32147 -4.32078 0
M  V30 6148 C 594.264 -5.29223 -4.31755 0
M  V30 6149 O 593.952 -6.59229 -4.60079 0
M  V30 6150 H 593.684 -0.301609 -0.604986 0
M  V30 6151 H 596.238 -1.44961 -1.45518 0
M  V30 6152 H 594.468 -0.514628 -3.8326 0
M  V30 6153 H 596.157 -0.915391 -3.95443 0
M  V30 6154 H 596.923 -3.35698 -3.50046 0
M  V30 6155 H 592.802 -2.2484 -4.02453 0
M  V30 6156 H 596.346 -5.70055 -4.02098 0
M  V30 6157 H 592.243 -4.58296 -4.54571 0
M  V30 6158 H 593.011 -6.64578 -4.77785 0
M  V30 6159 N 595.674 1.31259 -0.872281 0
M  V30 6160 C 596.923 1.95893 -0.480493 0
M  V30 6161 C 597.236 1.697 0.972688 0
M  V30 6162 O 598.442 2.28214 1.47073 0
M  V30 6163 C 596.898 3.50705 -0.808342 0
M  V30 6164 C 596.506 3.85735 -2.27844 0
M  V30 6165 C 598.25 4.21719 -0.485136 0
M  V30 6166 C 596.157 5.33668 -2.54858 0
M  V30 6167 H 595.087 0.733182 -0.175955 0
M  V30 6168 H 597.738 1.49396 -1.0655 0
M  V30 6169 H 596.12 3.95706 -0.152558 0
M  V30 6170 H 597.294 3.51686 -2.97748 0
M  V30 6171 H 595.609 3.27792 -2.56791 0
M  V30 6172 H 598.206 5.30559 -0.664166 0
M  V30 6173 H 598.549 4.12316 0.574592 0
M  V30 6174 H 599.082 3.82359 -1.09756 0
M  V30 6175 H 595.821 5.48109 -3.59523 0
M  V30 6176 H 595.341 5.69061 -1.8955 0
M  V30 6177 H 597.02 6.00958 -2.39706 0
M  V30 6178 N 597.152 0.631951 1.44375 0
M  V30 6179 C 598.115 -0.0628142 2.29114 0
M  V30 6180 C 599.115 -0.771494 1.41084 0
M  V30 6181 O 600.305 -0.615959 1.62947 0
M  V30 6182 C 597.437 -1.09953 3.22681 0
M  V30 6183 H 598.63 0.682509 2.92031 0
M  V30 6184 H 596.183 0.392128 1.51301 0
M  V30 6185 H 596.918 -1.87481 2.64616 0
M  V30 6186 H 596.703 -0.595286 3.87555 0
M  V30 6187 H 598.193 -1.58538 3.86336 0
M  V30 6188 N 598.631 -1.53133 0.372548 0
M  V30 6189 C 599.541 -2.29671 -0.478379 0
M  V30 6190 C 600.557 -1.35913 -1.08644 0
M  V30 6191 O 601.733 -1.68975 -1.09588 0
M  V30 6192 C 598.798 -3.07625 -1.599 0
M  V30 6193 C 597.859 -4.17061 -1.01776 0
M  V30 6194 C 597.092 -4.91289 -2.08497 0
M  V30 6195 O 597.315 -4.65442 -3.29727 0
M  V30 6196 O 596.249 -5.7705 -1.71164 0
M  V30 6197 H 600.075 -3.03355 0.144649 0
M  V30 6198 H 597.66 -1.48773 0.136729 0
M  V30 6199 H 599.542 -3.56281 -2.25038 0
M  V30 6200 H 598.217 -2.3677 -2.2073 0
M  V30 6201 H 597.124 -3.72641 -0.330098 0
M  V30 6202 H 598.457 -4.90102 -0.453915 0
M  V30 6203 N 600.109 -0.101901 -1.5727 0
M  V30 6204 C 601.057 0.872034 -2.15635 0
M  V30 6205 C 602.051 1.28742 -1.10099 0
M  V30 6206 O 603.257 1.26116 -1.28432 0
M  V30 6207 H 599.632 0.299269 -0.689886 0
M  V30 6208 H 601.603 0.355137 -2.96279 0
M  V30 6209 C 600.352 2.11886 -2.7568 0
M  V30 6210 H 599.675 1.80813 -3.56576 0
M  V30 6211 H 601.115 2.78077 -3.20077 0
M  V30 6212 C 599.574 2.89739 -1.7191 0
M  V30 6213 O 600.104 3.84522 -1.16213 0
M  V30 6214 N 598.31 2.53407 -1.42245 0
M  V30 6215 H 597.857 1.76398 -1.87727 0
M  V30 6216 H 597.815 3.05795 -0.730529 0
M  V30 6217 N 601.587 1.56661 0.17182 0
M  V30 6218 C 602.833 1.82235 0.889845 0
M  V30 6219 C 603.166 0.679673 1.81918 0
M  V30 6220 O 602.441 -0.318404 1.91876 0
M  V30 6221 C 602.724 3.18195 1.68595 0
M  V30 6222 C 602.577 4.42989 0.779773 0
M  V30 6223 C 603.896 3.5109 2.65375 0
M  V30 6224 H 601.015 0.66291 0.322056 0
M  V30 6225 H 603.657 1.89358 0.15608 0
M  V30 6226 H 601.807 3.12253 2.3115 0
M  V30 6227 H 603.479 4.60997 0.16714 0
M  V30 6228 H 601.722 4.33711 0.0877964 0
M  V30 6229 H 602.393 5.3467 1.3723 0
M  V30 6230 H 604.869 3.57482 2.12946 0
M  V30 6231 H 603.745 4.47298 3.18144 0
M  V30 6232 H 604.006 2.75768 3.45549 0
M  V30 6233 N 603.065 -0.440357 1.51323 0
M  V30 6234 C 603.995 -1.54174 1.75364 0
M  V30 6235 C 604.976 -1.59039 0.603375 0
M  V30 6236 O 606.161 -1.74815 0.845774 0
M  V30 6237 C 603.291 -2.92277 1.87593 0
M  V30 6238 C 602.245 -3.02274 3.03009 0
M  V30 6239 C 601.571 -4.42327 3.00418 0
M  V30 6240 C 602.871 -2.76634 4.43024 0
M  V30 6241 H 604.565 -1.34307 2.67585 0
M  V30 6242 H 602.111 -0.644678 1.28763 0
M  V30 6243 H 604.064 -3.69284 2.02995 0
M  V30 6244 H 602.788 -3.13369 0.920179 0
M  V30 6245 H 601.447 -2.27706 2.87307 0
M  V30 6246 H 601.095 -4.60382 2.02626 0
M  V30 6247 H 600.795 -4.49946 3.77918 0
M  V30 6248 H 602.319 -5.21312 3.17909 0
M  V30 6249 H 603.733 -3.43376 4.59093 0
M  V30 6250 H 602.13 -2.95666 5.22208 0
M  V30 6251 H 603.2 -1.72262 4.5327 0
M  V30 6252 N 604.543 -1.41418 -0.695603 0
M  V30 6253 C 605.506 -1.42988 -1.79129 0
M  V30 6254 C 606.506 -0.320514 -1.57573 0
M  V30 6255 O 607.696 -0.58039 -1.64247 0
M  V30 6256 C 604.828 -1.24122 -3.175 0
M  V30 6257 H 606.021 -2.40526 -1.7913 0
M  V30 6258 H 603.574 -1.2756 -0.903225 0
M  V30 6259 H 604.309 -0.274253 -3.23138 0
M  V30 6260 H 604.094 -2.045 -3.34547 0
M  V30 6261 H 605.584 -1.28056 -3.97481 0
M  V30 6262 N 606.021 0.929856 -1.27246 0
M  V30 6263 C 606.951 2.04722 -1.12299 0
M  V30 6264 C 607.932 1.70082 -0.0250464 0
M  V30 6265 O 609.117 1.93176 -0.199141 0
M  V30 6266 C 606.247 3.38721 -0.767145 0
M  V30 6267 C 605.201 3.87466 -1.81808 0
M  V30 6268 C 604.527 5.18246 -1.31626 0
M  V30 6269 C 605.827 4.11095 -3.22177 0
M  V30 6270 H 607.521 2.17485 -2.05769 0
M  V30 6271 H 605.067 1.04503 -0.990715 0
M  V30 6272 H 607.02 4.16366 -0.649413 0
M  V30 6273 H 605.744 3.25967 0.203259 0
M  V30 6274 H 604.403 3.12012 -1.92468 0
M  V30 6275 H 604.051 5.01881 -0.335378 0
M  V30 6276 H 603.751 5.51829 -2.01887 0
M  V30 6277 H 605.275 5.98462 -1.21143 0
M  V30 6278 H 606.689 4.79316 -3.1453 0
M  V30 6279 H 605.086 4.55982 -3.90129 0
M  V30 6280 H 606.156 3.16468 -3.67391 0
M  V30 6281 N 607.499 1.09233 1.13605 0
M  V30 6282 C 608.776 0.739633 1.81077 0
M  V30 6283 C 609.156 -0.775595 1.96336 0
M  V30 6284 O 608.504 -1.69726 1.52988 0
M  V30 6285 C 608.714 1.47636 3.16235 0
M  V30 6286 C 610.062 1.64087 3.91613 0
M  V30 6287 O 611.086 1.43871 3.25852 0
M  V30 6288 O 609.945 1.97511 5.0956 0
M  V30 6289 H 607.039 0.265464 0.783236 0
M  V30 6290 H 609.585 1.19441 1.20549 0
M  V30 6291 H 608.357 2.50818 3.00344 0
M  V30 6292 H 607.98 1.01362 3.84462 0
M  V30 6293 N 608.977 -1.30795 0.87923 0
M  V30 6294 C 610.226 -1.95636 0.490875 0
M  V30 6295 C 610.539 -1.70214 -0.963674 0
M  V30 6296 O 611.745 -2.28991 -1.45861 0
M  V30 6297 C 610.201 -3.50271 0.826929 0
M  V30 6298 C 609.809 -3.84521 2.29886 0
M  V30 6299 C 611.553 -4.21456 0.507494 0
M  V30 6300 C 609.46 -5.32309 2.57685 0
M  V30 6301 H 608.39 -0.732238 0.179841 0
M  V30 6302 H 611.041 -1.48829 1.07341 0
M  V30 6303 H 609.423 -3.9562 0.173542 0
M  V30 6304 H 610.597 -3.50102 2.99609 0
M  V30 6305 H 608.912 -3.26425 2.58526 0
M  V30 6306 H 611.509 -5.30199 0.692293 0
M  V30 6307 H 611.852 -4.12614 -0.552718 0
M  V30 6308 H 612.385 -3.81772 1.11782 0
M  V30 6309 H 609.124 -5.46195 3.62424 0
M  V30 6310 H 608.644 -5.68048 1.92566 0
M  V30 6311 H 610.323 -5.99678 2.42889 0
M  V30 6312 N 610.455 -0.639598 -1.44038 0
M  V30 6313 C 611.702 -0.14748 -2.01962 0
M  V30 6314 C 612.03 1.23372 -1.50365 0
M  V30 6315 O 611.285 1.8345 -0.681501 0
M  V30 6316 C 611.584 -0.0925348 -3.5728 0
M  V30 6317 C 611.25 -1.41365 -4.28167 0
M  V30 6318 C 609.912 -1.77545 -4.47248 0
M  V30 6319 C 612.264 -2.2853 -4.68427 0
M  V30 6320 C 609.592 -3.00583 -5.03852 0
M  V30 6321 C 611.944 -3.50846 -5.26393 0
M  V30 6322 C 610.608 -3.8724 -5.43692 0
M  V30 6323 H 609.878 -0.0539666 -0.739032 0
M  V30 6324 H 612.525 -0.827599 -1.72694 0
M  V30 6325 H 610.83 0.670987 -3.86012 0
M  V30 6326 H 612.527 0.304891 -3.99839 0
M  V30 6327 H 609.117 -1.1221 -4.13651 0
M  V30 6328 H 613.301 -2.0187 -4.5339 0
M  V30 6329 H 608.557 -3.28846 -5.15432 0
M  V30 6330 H 612.731 -4.18616 -5.56537 0
M  V30 6331 H 610.358 -4.8266 -5.87319 0
M  V30 6332 N 611.933 1.52934 -0.380664 0
M  V30 6333 C 613.18 2.01467 0.204278 0
M  V30 6334 C 613.508 1.26744 1.47533 0
M  V30 6335 O 612.763 0.353723 1.92477 0
M  V30 6336 C 613.062 3.5349 0.527199 0
M  V30 6337 C 612.728 4.46171 -0.651295 0
M  V30 6338 C 611.39 4.71227 -0.974619 0
M  V30 6339 C 613.742 5.00909 -1.44012 0
M  V30 6340 C 611.07 5.4827 -2.08847 0
M  V30 6341 C 613.422 5.7917 -2.5445 0
M  V30 6342 C 612.086 6.02507 -2.87301 0
M  V30 6343 H 611.356 0.73722 0.0747504 0
M  V30 6344 H 614.003 1.84411 -0.516234 0
M  V30 6345 H 612.308 3.68574 1.32892 0
M  V30 6346 H 614.005 3.88529 0.992283 0
M  V30 6347 H 610.595 4.26829 -0.389276 0
M  V30 6348 H 614.779 4.81485 -1.20357 0
M  V30 6349 H 610.035 5.64567 -2.34679 0
M  V30 6350 H 614.209 6.20588 -3.1598 0
M  V30 6351 H 611.836 6.61989 -3.7373 0
M  V30 6352 N 613.412 0.11024 1.57214 0
M  V30 6353 C 614.322 -0.857077 2.18383 0
M  V30 6354 C 615.338 -1.29915 1.1575 0
M  V30 6355 O 616.514 -1.36394 1.48184 0
M  V30 6356 C 613.579 -2.09264 2.76423 0
M  V30 6357 C 612.64 -1.70333 3.94063 0
M  V30 6358 C 611.873 -2.87999 4.49324 0
M  V30 6359 O 612.096 -4.0317 4.03497 0
M  V30 6360 O 611.03 -2.6559 5.40135 0
M  V30 6361 H 614.856 -0.366561 3.0148 0
M  V30 6362 H 612.441 -0.114914 1.48957 0
M  V30 6363 H 614.323 -2.81644 3.13456 0
M  V30 6364 H 612.998 -2.57339 1.96363 0
M  V30 6365 H 611.905 -0.950864 3.61814 0
M  V30 6366 H 613.238 -1.27007 4.75531 0
M  V30 6367 N 614.89 -1.56749 -0.16351 0
M  V30 6368 C 615.853 -1.96121 -1.18613 0
M  V30 6369 C 616.853 -0.845765 -1.36761 0
M  V30 6370 O 618.043 -1.11268 -1.34033 0
M  V30 6371 C 615.175 -2.26282 -2.54969 0
M  V30 6372 H 616.368 -2.87639 -0.848764 0
M  V30 6373 H 613.921 -1.50928 -0.406251 0
M  V30 6374 H 614.656 -1.37504 -2.93706 0
M  V30 6375 H 614.441 -3.07595 -2.43162 0
M  V30 6376 H 615.931 -2.57638 -3.28653 0
M  V30 6377 N 616.368 0.432326 -1.51554 0
M  V30 6378 C 617.298 1.53242 -1.76179 0
M  V30 6379 C 618.279 1.58717 -0.611801 0
M  V30 6380 O 619.464 1.74364 -0.855033 0
M  V30 6381 C 616.594 2.91278 -1.89141 0
M  V30 6382 C 615.548 3.00663 -3.04608 0
M  V30 6383 C 614.874 4.40728 -3.02759 0
M  V30 6384 C 616.174 2.74281 -4.44485 0
M  V30 6385 H 617.868 1.32886 -2.68294 0
M  V30 6386 H 615.414 0.637841 -1.29103 0
M  V30 6387 H 617.367 3.68203 -2.04951 0
M  V30 6388 H 616.091 3.12877 -0.936785 0
M  V30 6389 H 614.75 2.26179 -2.88511 0
M  V30 6390 H 614.398 4.59301 -2.05065 0
M  V30 6391 H 614.098 4.47936 -3.80299 0
M  V30 6392 H 615.622 5.19619 -3.20669 0
M  V30 6393 H 617.036 3.40936 -4.60907 0
M  V30 6394 H 615.433 2.92893 -5.23769 0
M  V30 6395 H 616.503 1.69856 -4.54177 0
M  V30 6396 N 617.846 1.41785 0.688094 0
M  V30 6397 C 618.794 1.44436 1.82321 0
M  V30 6398 C 619.788 0.321544 1.6632 0
M  V30 6399 O 620.994 0.493931 1.73091 0
M  V30 6400 H 617.369 0.452084 0.600936 0
M  V30 6401 H 619.34 2.40087 1.77202 0
M  V30 6402 C 618.089 1.35071 3.20392 0
M  V30 6403 H 617.412 2.2076 3.33324 0
M  V30 6404 H 618.852 1.40988 3.99873 0
M  V30 6405 C 617.311 0.0639127 3.36839 0
M  V30 6406 O 617.841 -0.888495 3.91751 0
M  V30 6407 N 616.047 -0.0146114 2.90596 0
M  V30 6408 H 615.594 0.761191 2.46097 0
M  V30 6409 H 615.552 -0.874988 3.01979 0
M  V30 6410 N 619.324 -0.923095 1.27737 0
M  V30 6411 C 620.554 -1.70277 1.17001 0
M  V30 6412 C 620.962 -1.87188 -0.275199 0
M  V30 6413 O 620.305 -1.39195 -1.19877 0
M  V30 6414 C 620.367 -3.11976 1.78637 0
M  V30 6415 C 620.031 -3.18386 3.27841 0
M  V30 6416 C 621.028 -3.00287 4.2441 0
M  V30 6417 C 618.713 -3.41198 3.68632 0
M  V30 6418 C 620.707 -3.04896 5.59747 0
M  V30 6419 C 618.394 -3.4544 5.04097 0
M  V30 6420 C 619.392 -3.27309 5.99465 0
M  V30 6421 O 619.08 -3.31295 7.32461 0
M  V30 6422 H 618.812 -0.539366 0.407505 0
M  V30 6423 H 621.366 -1.16446 1.69202 0
M  V30 6424 H 619.596 -3.67308 1.20919 0
M  V30 6425 H 621.285 -3.7193 1.6255 0
M  V30 6426 H 622.051 -2.825 3.94232 0
M  V30 6427 H 617.93 -3.54359 2.94873 0
M  V30 6428 H 621.474 -2.90662 6.34162 0
M  V30 6429 H 617.371 -3.62753 5.33929 0
M  V30 6430 H 618.139 -3.47719 7.40968 0
M  V30 6431 N 620.802 -1.09834 -1.13024 0
M  V30 6432 C 621.712 -0.753731 -2.22162 0
M  V30 6433 C 622.728 0.246105 -1.72251 0
M  V30 6434 O 623.904 0.0864051 -2.01215 0
M  V30 6435 C 620.969 -0.183958 -3.46212 0
M  V30 6436 C 620.03 -1.24028 -4.10993 0
M  V30 6437 C 619.263 -0.697597 -5.29121 0
M  V30 6438 O 619.486 0.478092 -5.68393 0
M  V30 6439 O 618.42 -1.4546 -5.84059 0
M  V30 6440 H 622.246 -1.66456 -2.5402 0
M  V30 6441 H 619.831 -0.873026 -1.21238 0
M  V30 6442 H 621.713 0.130257 -4.21199 0
M  V30 6443 H 620.388 0.699823 -3.16045 0
M  V30 6444 H 619.295 -1.60725 -3.37814 0
M  V30 6445 H 620.628 -2.09685 -4.45301 0
M  V30 6446 N 622.28 1.30327 -0.886154 0
M  V30 6447 C 623.508 2.00254 -0.520176 0
M  V30 6448 C 623.923 1.66419 0.891637 0
M  V30 6449 O 623.28 0.901951 1.58654 0
M  V30 6450 C 623.331 3.54916 -0.686775 0
M  V30 6451 O 623.052 3.87547 -2.04301 0
M  V30 6452 C 624.553 4.42115 -0.323945 0
M  V30 6453 H 621.773 0.640204 -0.200947 0
M  V30 6454 H 624.317 1.66183 -1.19178 0
M  V30 6455 H 622.472 3.8735 -0.0625273 0
M  V30 6456 H 622.886 4.82247 -2.06249 0
M  V30 6457 H 624.36 5.49808 -0.491407 0
M  V30 6458 H 624.837 4.32953 0.73811 0
M  V30 6459 H 625.443 4.15129 -0.924565 0
M  V30 6460 N 623.758 0.647228 1.43697 0
M  V30 6461 C 625.004 0.158422 2.0218 0
M  V30 6462 C 625.337 -1.22233 1.50907 0
M  V30 6463 O 624.612 -1.81478 0.699702 0
M  V30 6464 C 624.895 0.1627 3.59732 0
M  V30 6465 C 624.748 1.57694 4.21251 0
M  V30 6466 C 626.067 -0.504138 4.37203 0
M  V30 6467 H 623.186 0.059042 0.734631 0
M  V30 6468 H 625.828 0.826772 1.71069 0
M  V30 6469 H 623.978 -0.406414 3.86368 0
M  V30 6470 H 625.65 2.19618 4.05667 0
M  V30 6471 H 623.893 2.12603 3.7813 0
M  V30 6472 H 624.564 1.53183 5.3032 0
M  V30 6473 H 627.04 -0.0199841 4.16095 0
M  V30 6474 H 625.916 -0.470394 5.46881 0
M  V30 6475 H 626.177 -1.57726 4.13007 0
M  V30 6476 N 625.236 -1.5273 0.388769 0
M  V30 6477 C 626.146 -2.30165 -0.453993 0
M  V30 6478 C 627.162 -1.37058 -1.07197 0
M  V30 6479 O 628.338 -1.70127 -1.0779 0
M  V30 6480 C 625.403 -3.09303 -1.56628 0
M  V30 6481 C 624.464 -4.18117 -0.973467 0
M  V30 6482 C 623.697 -4.93472 -2.03275 0
M  V30 6483 O 623.92 -4.68913 -3.24772 0
M  V30 6484 O 622.854 -5.78833 -1.65034 0
M  V30 6485 H 626.68 -3.03185 0.176816 0
M  V30 6486 H 624.265 -1.4862 0.152501 0
M  V30 6487 H 626.147 -3.58648 -2.21246 0
M  V30 6488 H 624.822 -2.39098 -2.18206 0
M  V30 6489 H 623.729 -3.7297 -0.290556 0
M  V30 6490 H 625.062 -4.90556 -0.401908 0
M  V30 6491 N 626.714 -0.118576 -1.57153 0
M  V30 6492 C 627.646 0.862247 -2.12363 0
M  V30 6493 C 628.659 1.23025 -1.06625 0
M  V30 6494 O 629.848 1.17927 -1.33998 0
M  V30 6495 C 626.948 2.16425 -2.60794 0
M  V30 6496 C 626.121 1.96801 -3.90626 0
M  V30 6497 C 625.18 3.10726 -4.2466 0
M  V30 6498 O 624.206 2.83659 -4.93484 0
M  V30 6499 N 625.408 4.37147 -3.81946 0
M  V30 6500 H 628.173 0.390564 -2.97144 0
M  V30 6501 H 625.734 0.0658591 -1.61766 0
M  V30 6502 H 627.726 2.91633 -2.80593 0
M  V30 6503 H 626.296 2.54943 -1.80895 0
M  V30 6504 H 625.516 1.05787 -3.7974 0
M  V30 6505 H 626.804 1.80993 -4.7552 0
M  V30 6506 H 626.202 4.62014 -3.26435 0
M  V30 6507 H 624.759 5.09229 -4.06853 0
M  V30 6508 N 628.193 1.56834 0.155195 0
M  V30 6509 C 629.14 1.97646 1.19184 0
M  V30 6510 C 630.11 0.842788 1.4313 0
M  V30 6511 O 631.295 1.1042 1.55602 0
M  V30 6512 C 628.435 2.35527 2.52232 0
M  V30 6513 C 627.548 3.62147 2.35529 0
M  V30 6514 C 626.683 3.89167 3.61555 0
M  V30 6515 C 625.722 5.09084 3.39853 0
M  V30 6516 N 624.859 5.32156 4.5799 0
M  V30 6517 H 629.699 2.8601 0.836802 0
M  V30 6518 H 627.236 1.41507 0.401758 0
M  V30 6519 H 629.194 2.55516 3.29799 0
M  V30 6520 H 627.824 1.50253 2.85699 0
M  V30 6521 H 626.876 3.4998 1.49057 0
M  V30 6522 H 628.188 4.49871 2.15448 0
M  V30 6523 H 627.342 4.09611 4.47553 0
M  V30 6524 H 626.081 2.9985 3.84632 0
M  V30 6525 H 625.086 4.88522 2.52243 0
M  V30 6526 H 626.311 5.99947 3.18183 0
M  V30 6527 H 624.257 4.45791 4.81255 0
M  V30 6528 H 624.174 6.14133 4.40882 0
M  V30 6529 H 625.442 5.57091 5.45225 0
M  V30 6530 N 629.671 -0.424282 1.51781 0
M  V30 6531 C 630.618 -1.51591 1.74037 0
M  V30 6532 C 631.588 -1.55556 0.582358 0
M  V30 6533 O 632.773 -1.72364 0.818245 0
M  V30 6534 C 629.913 -2.89188 1.8832 0
M  V30 6535 C 629.026 -2.9465 3.1592 0
M  V30 6536 C 628.161 -4.23452 3.20721 0
M  V30 6537 C 627.2 -4.22831 4.42584 0
M  V30 6538 N 626.337 -5.43178 4.44862 0
M  V30 6539 H 631.177 -1.31917 2.67212 0
M  V30 6540 H 628.714 -0.640599 1.32419 0
M  V30 6541 H 630.672 -3.69044 1.94583 0
M  V30 6542 H 629.302 -3.07392 0.985402 0
M  V30 6543 H 628.354 -2.07378 3.18902 0
M  V30 6544 H 629.666 -2.90055 4.05795 0
M  V30 6545 H 628.82 -5.1169 3.25973 0
M  V30 6546 H 627.559 -4.30722 2.28757 0
M  V30 6547 H 626.564 -3.32984 4.37495 0
M  V30 6548 H 627.789 -4.17213 5.35826 0
M  V30 6549 H 625.735 -5.51145 3.55775 0
M  V30 6550 H 625.652 -5.40515 5.28563 0
M  V30 6551 H 626.92 -6.33412 4.54324 0
M  V30 6552 N 631.149 -1.42148 -0.680565 0
M  V30 6553 C 632.112 -1.4488 -1.77602 0
M  V30 6554 C 633.112 -0.337209 -1.57224 0
M  V30 6555 O 634.302 -0.597778 -1.63622 0
M  V30 6556 C 631.434 -1.27483 -3.16166 0
M  V30 6557 H 632.627 -2.42412 -1.76568 0
M  V30 6558 H 630.18 -1.28511 -0.889645 0
M  V30 6559 H 630.915 -0.30851 -3.22829 0
M  V30 6560 H 630.7 -2.08037 -3.3236 0
M  V30 6561 H 632.19 -1.32265 -3.96101 0
M  V30 6562 N 632.627 0.916307 -1.28225 0
M  V30 6563 C 633.857 1.69654 -1.17902 0
M  V30 6564 C 634.265 1.87331 0.265268 0
M  V30 6565 O 633.608 1.39828 1.19137 0
M  V30 6566 C 633.67 3.11024 -1.80289 0
M  V30 6567 C 633.334 3.16643 -3.29525 0
M  V30 6568 C 634.331 2.98032 -4.25997 0
M  V30 6569 C 632.016 3.39238 -3.70436 0
M  V30 6570 C 634.01 3.01924 -5.61356 0
M  V30 6571 C 631.697 3.42762 -5.05922 0
M  V30 6572 C 632.695 3.24125 -6.01192 0
M  V30 6573 O 632.383 3.27406 -7.34208 0
M  V30 6574 H 632.115 0.537197 -0.41036 0
M  V30 6575 H 634.669 1.15547 -1.69817 0
M  V30 6576 H 632.899 3.66662 -1.22865 0
M  V30 6577 H 634.588 3.71063 -1.6452 0
M  V30 6578 H 635.354 2.80405 -3.95725 0
M  V30 6579 H 631.233 3.52791 -2.96749 0
M  V30 6580 H 634.777 2.87295 -6.35694 0
M  V30 6581 H 630.674 3.59916 -5.35846 0
M  V30 6582 H 631.442 3.43784 -7.42802 0
M  V30 6583 N 634.105 1.10431 1.1244 0
M  V30 6584 C 635.015 0.765502 2.21759 0
M  V30 6585 C 636.031 -0.236966 1.72379 0
M  V30 6586 O 637.207 -0.0757329 2.01258 0
M  V30 6587 C 634.272 0.202316 3.46109 0
M  V30 6588 C 633.333 1.26205 4.1033 0
M  V30 6589 C 632.566 0.725648 5.28744 0
M  V30 6590 O 632.789 -0.447942 5.68638 0
M  V30 6591 O 631.723 1.48555 5.83279 0
M  V30 6592 H 635.549 1.67801 2.53133 0
M  V30 6593 H 633.134 0.879443 1.20773 0
M  V30 6594 H 635.016 -0.107918 4.21262 0
M  V30 6595 H 633.691 -0.683052 3.16411 0
M  V30 6596 H 632.598 1.62514 3.36957 0
M  V30 6597 H 633.931 2.12044 4.44183 0
M  V30 6598 N 635.583 -1.29855 0.893053 0
M  V30 6599 C 636.516 -2.26079 0.3104 0
M  V30 6600 C 637.494 -1.52145 -0.573644 0
M  V30 6601 O 638.678 -1.8113 -0.521937 0
M  V30 6602 C 635.805 -3.34069 -0.558179 0
M  V30 6603 C 634.851 -4.25721 0.257638 0
M  V30 6604 S 635.684 -5.09409 1.65114 0
M  V30 6605 C 636.84 -6.20903 0.789307 0
M  V30 6606 H 637.073 -2.75151 1.12602 0
M  V30 6607 H 634.606 -1.37975 0.692978 0
M  V30 6608 H 636.564 -3.9675 -1.05355 0
M  V30 6609 H 635.225 -2.83705 -1.34797 0
M  V30 6610 H 634.418 -5.02366 -0.405562 0
M  V30 6611 H 634.02 -3.67656 0.685917 0
M  V30 6612 H 636.312 -6.77499 0.00978451 0
M  V30 6613 H 637.255 -6.91426 1.52762 0
M  V30 6614 H 637.663 -5.63435 0.346634 0
M  V30 6615 N 637.061 -0.65484 -1.43351 0
M  V30 6616 C 638.286 -0.175046 -2.0666 0
M  V30 6617 C 638.711 1.15104 -1.4877 0
M  V30 6618 O 638.069 1.71144 -0.598279 0
M  V30 6619 C 638.117 -0.0991544 -3.60464 0
M  V30 6620 O 637.221 0.938169 -4.01587 0
M  V30 6621 H 636.562 -0.0956148 -0.65708 0
M  V30 6622 H 639.092 -0.898222 -1.83829 0
M  V30 6623 H 639.102 0.083632 -4.07914 0
M  V30 6624 H 637.777 -1.06719 -4.01975 0
M  V30 6625 H 636.354 0.72804 -3.65724 0
M  V30 6626 N 638.539 1.52521 -0.396863 0
M  V30 6627 C 639.449 2.30403 0.44178 0
M  V30 6628 C 640.465 1.37625 1.06468 0
M  V30 6629 O 641.641 1.70697 1.06886 0
M  V30 6630 C 638.706 3.1013 1.54986 0
M  V30 6631 C 637.767 4.18628 0.951279 0
M  V30 6632 C 637 4.94543 2.00655 0
M  V30 6633 O 637.223 4.70629 3.22281 0
M  V30 6634 O 636.157 5.797 1.61962 0
M  V30 6635 H 639.983 3.03087 -0.192892 0
M  V30 6636 H 637.568 1.48537 -0.16038 0
M  V30 6637 H 639.45 3.59816 2.19341 0
M  V30 6638 H 638.125 2.40251 2.16935 0
M  V30 6639 H 637.032 3.73119 0.270773 0
M  V30 6640 H 638.365 4.90763 0.375887 0
M  V30 6641 N 640.017 0.126909 1.57088 0
M  V30 6642 C 640.947 -0.816847 2.18746 0
M  V30 6643 C 641.928 -1.27161 1.12979 0
M  V30 6644 O 643.113 -1.33279 1.41246 0
M  V30 6645 C 640.243 -2.06398 2.79315 0
M  V30 6646 C 639.197 -1.74673 3.90735 0
M  V30 6647 C 638.523 -3.06482 4.38147 0
M  V30 6648 C 639.823 -1.0089 5.12463 0
M  V30 6649 H 641.517 -0.303032 2.97863 0
M  V30 6650 H 639.063 -0.144314 1.43275 0
M  V30 6651 H 641.016 -2.72885 3.2111 0
M  V30 6652 H 639.74 -2.60118 1.975 0
M  V30 6653 H 638.399 -1.10572 3.49527 0
M  V30 6654 H 638.047 -3.58152 3.5318 0
M  V30 6655 H 637.747 -2.86025 5.13287 0
M  V30 6656 H 639.271 -3.74073 4.82599 0
M  V30 6657 H 640.685 -1.57546 5.51228 0
M  V30 6658 H 639.082 -0.905006 5.93237 0
M  V30 6659 H 640.152 0.00297335 4.849 0
M  V30 6660 N 641.495 -1.56914 -0.146875 0
M  V30 6661 C 642.425 -2.01308 -1.1831 0
M  V30 6662 C 643.406 -0.892664 -1.44795 0
M  V30 6663 O 644.591 -1.16048 -1.55713 0
M  V30 6664 C 641.721 -2.3938 -2.51624 0
M  V30 6665 C 640.675 -3.54608 -2.3966 0
M  V30 6666 C 640.001 -3.78493 -3.77686 0
M  V30 6667 C 641.301 -4.87269 -1.88058 0
M  V30 6668 H 642.995 -2.88123 -0.813964 0
M  V30 6669 H 640.541 -1.38615 -0.3901 0
M  V30 6670 H 642.494 -2.69037 -3.24341 0
M  V30 6671 H 641.218 -1.49502 -2.90373 0
M  V30 6672 H 639.877 -3.25116 -1.69396 0
M  V30 6673 H 639.525 -2.85866 -4.13871 0
M  V30 6674 H 639.225 -4.56039 -3.70543 0
M  V30 6675 H 640.749 -4.10576 -4.51951 0
M  V30 6676 H 642.163 -5.15644 -2.50568 0
M  V30 6677 H 640.56 -5.68622 -1.91805 0
M  V30 6678 H 641.63 -4.77634 -0.836277 0
M  V30 6679 N 642.974 0.416227 -1.52004 0
M  V30 6680 C 644.222 1.16153 -1.65387 0
M  V30 6681 C 644.543 1.91208 -0.382669 0
M  V30 6682 O 643.813 1.86413 0.602231 0
M  V30 6683 H 642.393 0.431765 -0.60958 0
M  V30 6684 H 645.055 0.475151 -1.89019 0
M  V30 6685 H 644.151 1.87952 -2.4916 0
M  V30 6686 N 644.452 1.42507 0.673017 0
M  V30 6687 C 645.729 1.33554 1.42908 0
M  V30 6688 C 646.109 -0.0262211 2.11084 0
M  V30 6689 O 645.457 -1.04181 2.03368 0
M  V30 6690 C 645.667 2.50498 2.43006 0
M  V30 6691 C 647.015 2.92694 3.07596 0
M  V30 6692 O 648.039 2.50401 2.53333 0
M  V30 6693 O 646.898 3.65899 4.05931 0
M  V30 6694 H 643.992 0.526785 0.637516 0
M  V30 6695 H 646.538 1.54518 0.701591 0
M  V30 6696 H 645.31 3.41272 1.9144 0
M  V30 6697 H 644.933 2.3153 3.23233 0
M  V30 6698 N 645.93 -0.909495 1.28709 0
M  V30 6699 C 647.179 -1.65365 1.15487 0
M  V30 6700 C 647.492 -1.93364 -0.294941 0
M  V30 6701 O 648.698 -2.65905 -0.548338 0
M  V30 6702 C 647.154 -2.97923 2.01916 0
M  V30 6703 C 646.762 -2.77556 3.51663 0
M  V30 6704 C 648.506 -3.75814 1.97393 0
M  V30 6705 C 646.413 -4.0578 4.30229 0
M  V30 6706 H 645.343 -0.620323 0.42862 0
M  V30 6707 H 647.994 -1.00894 1.53273 0
M  V30 6708 H 646.376 -3.63552 1.5699 0
M  V30 6709 H 647.55 -2.2058 4.04575 0
M  V30 6710 H 645.865 -2.13072 3.57756 0
M  V30 6711 H 648.462 -4.70866 2.53357 0
M  V30 6712 H 648.805 -4.05277 0.951643 0
M  V30 6713 H 649.338 -3.1701 2.40311 0
M  V30 6714 H 646.077 -3.81488 5.33055 0
M  V30 6715 H 645.597 -4.62351 3.82089 0
M  V30 6716 H 647.276 -4.74004 4.40374 0
M  V30 6717 N 647.408 -1.11026 -1.11852 0
M  V30 6718 C 648.656 -0.854769 -1.83134 0
M  V30 6719 C 648.977 0.621375 -1.84835 0
M  V30 6720 O 648.247 1.45129 -1.31584 0
M  V30 6721 H 646.827 -0.313229 -0.678157 0
M  V30 6722 H 649.489 -1.40178 -1.35411 0
M  V30 6723 H 648.585 -1.22311 -2.87135 0
M  V30 6724 N 648.886 1.2938 -0.899927 0
M  V30 6725 C 650.134 1.95164 -0.524924 0
M  V30 6726 C 650.455 1.71292 0.931888 0
M  V30 6727 O 649.725 1.04481 1.65712 0
M  V30 6728 H 648.305 0.722133 -0.191135 0
M  V30 6729 H 650.967 1.57628 -1.14627 0
M  V30 6730 H 650.063 3.0397 -0.707711 0
M  V30 6731 N 650.364 0.662433 1.43002 0
M  V30 6732 C 651.296 -0.062326 2.29115 0
M  V30 6733 C 652.309 -0.777926 1.43011 0
M  V30 6734 O 653.498 -0.634146 1.66856 0
M  V30 6735 C 650.598 -1.11163 3.2015 0
M  V30 6736 C 649.771 -0.472327 4.34842 0
M  V30 6737 C 648.83 -1.41974 5.06685 0
M  V30 6738 O 647.856 -0.924795 5.61637 0
M  V30 6739 N 649.058 -2.75345 5.11043 0
M  V30 6740 H 651.823 0.676838 2.91957 0
M  V30 6741 H 649.384 0.505907 1.53793 0
M  V30 6742 H 651.376 -1.74643 3.65078 0
M  V30 6743 H 649.946 -1.75266 2.58845 0
M  V30 6744 H 649.166 0.341751 3.92716 0
M  V30 6745 H 650.454 -0.0264381 5.08793 0
M  V30 6746 H 649.852 -3.18108 4.67786 0
M  V30 6747 H 648.409 -3.34105 5.59658 0
M  V30 6748 N 651.842 -1.52309 0.404946 0
M  V30 6749 C 652.775 -2.23369 -0.467087 0
M  V30 6750 C 653.753 -1.24034 -1.0514 0
M  V30 6751 O 654.937 -1.53071 -1.10006 0
M  V30 6752 C 652.064 -2.95906 -1.64795 0
M  V30 6753 C 651.11 -4.09637 -1.18743 0
M  V30 6754 S 651.943 -5.35273 -0.156022 0
M  V30 6755 C 653.099 -6.11337 -1.34231 0
M  V30 6756 H 653.332 -2.96987 0.136294 0
M  V30 6757 H 650.865 -1.53236 0.189219 0
M  V30 6758 H 652.823 -3.38304 -2.3251 0
M  V30 6759 H 651.484 -2.21937 -2.22267 0
M  V30 6760 H 650.677 -4.59549 -2.06955 0
M  V30 6761 H 650.279 -3.69333 -0.588981 0
M  V30 6762 H 652.571 -6.38458 -2.26665 0
M  V30 6763 H 653.514 -7.02563 -0.883804 0
M  V30 6764 H 653.922 -5.42338 -1.56621 0
M  V30 6765 N 653.32 -0.135238 -1.57019 0
M  V30 6766 C 654.568 0.51777 -1.95355 0
M  V30 6767 C 654.889 1.6617 -1.02042 0
M  V30 6768 O 654.159 1.95738 -0.0797343 0
M  V30 6769 H 652.739 0.194264 -0.721298 0
M  V30 6770 H 655.401 -0.207983 -1.93787 0
M  V30 6771 H 654.497 0.901675 -2.98791 0
M  V30 6772 N 654.798 1.5699 0.138552 0
M  V30 6773 C 655.728 2.01933 1.17241 0
M  V30 6774 C 656.709 0.90033 1.44319 0
M  V30 6775 O 657.894 1.16872 1.55095 0
M  V30 6776 C 655.024 2.40711 2.50351 0
M  V30 6777 C 653.978 3.55874 2.37776 0
M  V30 6778 C 653.304 3.80491 3.75674 0
M  V30 6779 C 654.604 4.8826 1.85472 0
M  V30 6780 H 656.298 2.88551 0.798672 0
M  V30 6781 H 653.844 1.3882 0.382743 0
M  V30 6782 H 655.797 2.70754 3.22909 0
M  V30 6783 H 654.521 1.5104 2.89576 0
M  V30 6784 H 653.18 3.2601 1.67669 0
M  V30 6785 H 652.828 2.88057 4.12349 0
M  V30 6786 H 652.528 4.57998 3.68119 0
M  V30 6787 H 654.052 4.12967 4.49767 0
M  V30 6788 H 655.466 5.16965 2.4783 0
M  V30 6789 H 653.863 5.69631 1.88787 0
M  V30 6790 H 654.933 4.78071 0.810935 0
M  V30 6791 N 656.276 -0.40816 1.52223 0
M  V30 6792 C 657.523 -1.15502 1.66329 0
M  V30 6793 C 657.851 -1.90474 0.393701 0
M  V30 6794 O 657.106 -1.85507 -0.623356 0
M  V30 6795 C 657.405 -2.17422 2.83659 0
M  V30 6796 C 657.071 -1.5925 4.21841 0
M  V30 6797 C 655.733 -1.4311 4.59427 0
M  V30 6798 C 658.085 -1.16776 5.0795 0
M  V30 6799 C 655.413 -0.830148 5.80797 0
M  V30 6800 C 657.765 -0.580988 6.29926 0
M  V30 6801 C 656.429 -0.406729 6.6626 0
M  V30 6802 H 655.699 -0.422653 0.608642 0
M  V30 6803 H 658.346 -0.442114 1.86327 0
M  V30 6804 H 656.651 -2.94861 2.58001 0
M  V30 6805 H 658.348 -2.75084 2.9177 0
M  V30 6806 H 654.938 -1.72796 3.92224 0
M  V30 6807 H 659.122 -1.28055 4.79495 0
M  V30 6808 H 654.378 -0.68316 6.07571 0
M  V30 6809 H 658.552 -0.243488 6.95974 0
M  V30 6810 H 656.179 0.0610366 7.60175 0
M  V30 6811 N 657.755 -1.42862 -0.66545 0
M  V30 6812 C 659.004 -1.43119 -1.42126 0
M  V30 6813 C 659.317 -0.0545297 -1.95524 0
M  V30 6814 O 660.523 0.0654747 -2.71421 0
M  V30 6815 C 658.979 -2.51797 -2.5715 0
M  V30 6816 C 658.587 -3.95514 -2.10411 0
M  V30 6817 C 660.331 -2.61233 -3.346 0
M  V30 6818 C 658.238 -4.95682 -3.22573 0
M  V30 6819 H 657.168 -0.532349 -0.533966 0
M  V30 6820 H 659.819 -1.68806 -0.719506 0
M  V30 6821 H 658.201 -2.19292 -3.29738 0
M  V30 6822 H 659.375 -4.3742 -1.44915 0
M  V30 6823 H 657.69 -3.90012 -1.45874 0
M  V30 6824 H 660.287 -3.33248 -4.18151 0
M  V30 6825 H 660.63 -1.65896 -3.81817 0
M  V30 6826 H 661.163 -2.9298 -2.69087 0
M  V30 6827 H 657.902 -5.92529 -2.80338 0
M  V30 6828 H 657.422 -4.58399 -3.86821 0
M  V30 6829 H 659.101 -5.17828 -3.87896 0
M  V30 6830 N 659.233 0.902656 -1.29189 0
M  V30 6831 C 660.481 1.6496 -1.16758 0
M  V30 6832 C 660.802 1.92952 0.28188 0
M  V30 6833 O 660.072 1.55351 1.19344 0
M  V30 6834 H 658.652 0.611447 -0.429118 0
M  V30 6835 H 661.314 1.0825 -1.62074 0
M  V30 6836 H 660.41 2.60728 -1.71544 0
M  V30 6837 N 660.711 1.11618 1.11262 0
M  V30 6838 C 661.674 0.779447 2.15539 0
M  V30 6839 C 662.674 -0.202081 1.59525 0
M  V30 6840 O 663.864 0.0226356 1.74185 0
M  V30 6841 C 660.996 0.15674 3.40539 0
M  V30 6842 H 662.189 1.70324 2.4684 0
M  V30 6843 H 659.742 0.918298 1.26479 0
M  V30 6844 H 660.477 -0.777186 3.1485 0
M  V30 6845 H 660.262 0.863308 3.82478 0
M  V30 6846 H 661.752 -0.062661 4.17553 0
M  V30 6847 N 662.189 -1.289 0.906776 0
M  V30 6848 C 663.414 -1.99939 0.551303 0
M  V30 6849 C 663.839 -1.67366 -0.858496 0
M  V30 6850 O 663.197 -0.902176 -1.57259 0
M  V30 6851 C 663.245 -3.52523 0.758937 0
M  V30 6852 O 662.349 -4.11983 -0.185308 0
M  V30 6853 H 661.69 -0.628376 0.214568 0
M  V30 6854 H 664.22 -1.64225 1.2203 0
M  V30 6855 H 664.23 -4.02522 0.666329 0
M  V30 6856 H 662.905 -3.75566 1.78671 0
M  V30 6857 H 661.482 -3.72873 -0.0445577 0
M  V30 6858 N 663.667 -0.670007 -1.42649 0
M  V30 6859 C 664.597 -0.00258501 -2.335 0
M  V30 6860 C 665.578 0.794364 -1.50412 0
M  V30 6861 O 666.763 0.75248 -1.79029 0
M  V30 6862 C 663.893 0.952748 -3.33976 0
M  V30 6863 C 662.847 0.264733 -4.2718 0
M  V30 6864 C 662.173 1.33267 -5.17826 0
M  V30 6865 C 663.473 -0.853289 -5.15283 0
M  V30 6866 H 665.167 -0.761326 -2.89559 0
M  V30 6867 H 662.713 -0.367561 -1.3923 0
M  V30 6868 H 664.666 1.4287 -3.96442 0
M  V30 6869 H 663.39 1.74285 -2.7621 0
M  V30 6870 H 662.049 -0.190938 -3.66102 0
M  V30 6871 H 661.697 2.11464 -4.5639 0
M  V30 6872 H 661.397 0.877476 -5.81011 0
M  V30 6873 H 662.921 1.80965 -5.83167 0
M  V30 6874 H 664.335 -0.458763 -5.71462 0
M  V30 6875 H 662.732 -1.23398 -5.87276 0
M  V30 6876 H 663.802 -1.70412 -4.53969 0
M  V30 6877 N 665.145 1.52092 -0.413018 0
M  V30 6878 C 666.075 2.30021 0.401567 0
M  V30 6879 C 667.056 1.34395 1.04269 0
M  V30 6880 O 668.241 1.63304 1.05097 0
M  V30 6881 C 665.371 3.12447 1.51638 0
M  V30 6882 C 664.325 4.16153 1.00005 0
M  V30 6883 C 663.651 4.86948 2.20875 0
M  V30 6884 C 664.951 5.22275 0.0513757 0
M  V30 6885 H 666.645 2.98365 -0.248704 0
M  V30 6886 H 664.191 1.4349 -0.121052 0
M  V30 6887 H 666.144 3.65733 2.09326 0
M  V30 6888 H 664.868 2.41879 2.19458 0
M  V30 6889 H 663.527 3.63882 0.445549 0
M  V30 6890 H 663.175 4.12905 2.8726 0
M  V30 6891 H 662.875 5.57057 1.86978 0
M  V30 6892 H 664.399 5.43048 2.79162 0
M  V30 6893 H 665.813 5.70778 0.537176 0
M  V30 6894 H 664.21 5.9977 -0.198977 0
M  V30 6895 H 665.28 4.76611 -0.892736 0
M  V30 6896 N 666.623 0.143563 1.56945 0
M  V30 6897 C 667.851 -0.515447 2.00377 0
M  V30 6898 C 668.266 -1.58643 1.02361 0
M  V30 6899 O 667.623 -1.82489 0.0201039 0
M  V30 6900 C 667.674 -1.11923 3.43737 0
M  V30 6901 O 667.395 -0.0910318 4.38005 0
M  V30 6902 C 668.896 -1.85918 4.02429 0
M  V30 6903 H 666.116 -0.134478 0.657386 0
M  V30 6904 H 668.66 0.237135 2.0312 0
M  V30 6905 H 666.815 -1.82245 3.41856 0
M  V30 6906 H 667.229 -0.532916 5.21786 0
M  V30 6907 H 668.703 -2.2346 5.04747 0
M  V30 6908 H 669.18 -2.7438 3.42947 0
M  V30 6909 H 669.786 -1.20303 4.07931 0
M  V30 6910 N 668.101 -1.57061 -0.130224 0
M  V30 6911 C 669.35 -1.83446 -0.838488 0
M  V30 6912 C 669.663 -0.727468 -1.81569 0
M  V30 6913 O 670.869 -0.877394 -2.56932 0
M  V30 6914 C 669.325 -3.25201 -1.54182 0
M  V30 6915 C 668.933 -4.4388 -0.606178 0
M  V30 6916 C 670.677 -3.60844 -2.23588 0
M  V30 6917 C 668.584 -5.76661 -1.31209 0
M  V30 6918 H 667.514 -0.684185 -0.316871 0
M  V30 6919 H 670.165 -1.83273 -0.0912059 0
M  V30 6920 H 668.547 -3.1981 -2.33533 0
M  V30 6921 H 669.721 -4.60545 0.153308 0
M  V30 6922 H 668.036 -4.16395 -0.0196705 0
M  V30 6923 H 670.633 -4.57313 -2.77072 0
M  V30 6924 H 670.976 -2.87724 -3.00867 0
M  V30 6925 H 671.509 -3.67971 -1.51137 0
M  V30 6926 H 668.248 -6.52922 -0.580823 0
M  V30 6927 H 667.768 -5.63902 -2.04387 0
M  V30 6928 H 669.447 -6.20035 -1.8484 0
M  V30 6929 N 669.579 0.400081 -1.52437 0
M  V30 6930 C 670.509 1.4947 -1.7939 0
M  V30 6931 C 671.49 1.57383 -0.645329 0
M  V30 6932 O 672.675 1.72511 -0.891826 0
M  V30 6933 C 669.805 2.87201 -1.95276 0
M  V30 6934 C 668.759 2.94134 -3.10917 0
M  V30 6935 C 668.085 4.34207 -3.1204 0
M  V30 6936 C 669.385 2.64791 -4.50203 0
M  V30 6937 H 671.079 1.27165 -2.71052 0
M  V30 6938 H 668.625 0.610312 -1.30427 0
M  V30 6939 H 670.578 3.63772 -2.12715 0
M  V30 6940 H 669.302 3.10819 -1.00294 0
M  V30 6941 H 667.961 2.20009 -2.93243 0
M  V30 6942 H 667.609 4.54848 -2.14761 0
M  V30 6943 H 667.309 4.39768 -3.89715 0
M  V30 6944 H 668.833 5.127 -3.31619 0
M  V30 6945 H 670.247 3.31083 -4.68035 0
M  V30 6946 H 668.644 2.81717 -5.29864 0
M  V30 6947 H 669.714 1.60184 -4.57678 0
M  V30 6948 N 671.057 1.43213 0.657864 0
M  V30 6949 C 671.967 1.50448 1.80007 0
M  V30 6950 C 672.983 0.39191 1.69529 0
M  V30 6951 O 674.159 0.645349 1.90781 0
M  V30 6952 C 671.224 1.42062 3.16258 0
M  V30 6953 C 670.285 2.63951 3.38568 0
M  V30 6954 C 669.518 2.55956 4.68318 0
M  V30 6955 O 669.741 1.60473 5.47361 0
M  V30 6956 O 668.675 3.46378 4.92245 0
M  V30 6957 H 672.501 2.4689 1.76858 0
M  V30 6958 H 670.086 1.25163 0.81576 0
M  V30 6959 H 671.968 1.3981 3.97531 0
M  V30 6960 H 670.643 0.487524 3.20008 0
M  V30 6961 H 669.55 2.71776 2.57077 0
M  V30 6962 H 670.883 3.56217 3.39662 0
M  V30 6963 N 672.536 -0.895792 1.29666 0
M  V30 6964 C 673.785 -1.64131 1.17234 0
M  V30 6965 C 674.098 -1.93665 -0.274416 0
M  V30 6966 O 675.304 -2.66472 -0.520105 0
M  V30 6967 C 673.76 -2.95764 2.05065 0
M  V30 6968 C 673.368 -2.7381 3.54587 0
M  V30 6969 C 675.112 -3.737 2.01367 0
M  V30 6970 C 673.019 -4.01194 4.34508 0
M  V30 6971 H 671.949 -0.615742 0.435175 0
M  V30 6972 H 674.6 -0.992626 1.54335 0
M  V30 6973 H 672.982 -3.61867 1.60837 0
M  V30 6974 H 674.156 -2.16277 4.06892 0
M  V30 6975 H 672.471 -2.09265 3.59996 0
M  V30 6976 H 675.068 -4.68152 2.58337 0
M  V30 6977 H 675.411 -4.04245 0.994575 0
M  V30 6978 H 675.944 -3.14444 2.43659 0
M  V30 6979 H 672.683 -3.75813 5.37071 0
M  V30 6980 H 672.203 -4.58272 3.86971 0
M  V30 6981 H 673.882 -4.69307 4.45376 0
M  V30 6982 N 674.014 -1.12206 -1.10668 0
M  V30 6983 C 674.944 -0.810086 -2.18997 0
M  V30 6984 C 675.925 0.225065 -1.68604 0
M  V30 6985 O 677.11 0.086783 -1.94006 0
M  V30 6986 C 674.24 -0.261262 -3.46316 0
M  V30 6987 C 673.194 -1.2292 -4.09969 0
M  V30 6988 C 672.52 -0.540713 -5.31959 0
M  V30 6989 C 673.82 -2.58295 -4.53962 0
M  V30 6990 H 675.514 -1.7159 -2.45352 0
M  V30 6991 H 673.06 -0.82646 -1.17922 0
M  V30 6992 H 675.013 -0.0307522 -4.21389 0
M  V30 6993 H 673.737 0.679879 -3.19445 0
M  V30 6994 H 672.396 -1.44548 -3.369 0
M  V30 6995 H 672.044 0.405492 -5.01363 0
M  V30 6996 H 671.744 -1.18637 -5.75499 0
M  V30 6997 H 673.268 -0.319184 -6.09765 0
M  V30 6998 H 674.682 -2.40709 -5.20319 0
M  V30 6999 H 673.079 -3.18916 -5.08343 0
M  V30 7000 H 674.149 -3.16918 -3.67002 0
M  V30 7001 N 675.492 1.28418 -0.913599 0
M  V30 7002 C 676.769 1.89977 -0.465619 0
M  V30 7003 C 677.149 1.82813 1.05559 0
M  V30 7004 O 676.497 1.26397 1.90358 0
M  V30 7005 C 676.707 3.34492 -0.995813 0
M  V30 7006 C 678.055 4.11468 -1.04782 0
M  V30 7007 O 679.079 3.43451 -0.944445 0
M  V30 7008 O 677.938 5.33046 -1.20518 0
M  V30 7009 H 675.032 0.813734 -0.147532 0
M  V30 7010 H 677.578 1.36786 -1.00437 0
M  V30 7011 H 676.35 3.33929 -2.03978 0
M  V30 7012 H 675.973 3.95181 -0.437878 0
M  V30 7013 N 676.97 0.677563 1.42291 0
M  V30 7014 C 678.2 0.209155 2.05539 0
M  V30 7015 C 678.608 -1.13987 1.51009 0
M  V30 7016 O 677.951 -1.71976 0.645764 0
M  V30 7017 C 678.013 0.0697758 3.59432 0
M  V30 7018 C 677.677 1.34795 4.36668 0
M  V30 7019 C 678.674 2.28201 4.67141 0
M  V30 7020 C 676.359 1.59632 4.76259 0
M  V30 7021 C 678.353 3.44718 5.36142 0
M  V30 7022 C 676.04 2.76437 5.45 0
M  V30 7023 C 677.038 3.68805 5.74867 0
M  V30 7024 O 676.726 4.83567 6.42198 0
M  V30 7025 H 676.458 0.0986202 0.668768 0
M  V30 7026 H 679.012 0.925483 1.83368 0
M  V30 7027 H 677.242 -0.702157 3.80272 0
M  V30 7028 H 678.931 -0.359115 4.04308 0
M  V30 7029 H 679.697 2.10264 4.37052 0
M  V30 7030 H 675.576 0.886073 4.52404 0
M  V30 7031 H 679.12 4.16833 5.59371 0
M  V30 7032 H 675.017 2.94299 5.74507 0
M  V30 7033 H 675.785 4.83147 6.6069 0
M  V30 7034 N 678.448 -1.51871 0.421078 0
M  V30 7035 C 679.378 -2.30231 -0.389363 0
M  V30 7036 C 680.359 -1.34946 -1.03555 0
M  V30 7037 O 681.544 -1.63859 -1.04229 0
M  V30 7038 C 678.674 -3.13247 -1.49979 0
M  V30 7039 C 677.628 -4.16677 -0.977966 0
M  V30 7040 C 676.954 -4.88112 -2.1829 0
M  V30 7041 C 678.254 -5.22295 -0.0236775 0
M  V30 7042 H 679.948 -2.98229 0.264524 0
M  V30 7043 H 677.494 -1.43424 0.12866 0
M  V30 7044 H 679.447 -3.66838 -2.07383 0
M  V30 7045 H 678.171 -2.4304 -2.18173 0
M  V30 7046 H 676.83 -3.64114 -0.426245 0
M  V30 7047 H 676.478 -4.14423 -2.85066 0
M  V30 7048 H 676.178 -5.58041 -1.84021 0
M  V30 7049 H 677.702 -5.44521 -2.76278 0
M  V30 7050 H 679.116 -5.71055 -0.506899 0
M  V30 7051 H 677.513 -5.99656 0.230782 0
M  V30 7052 H 678.583 -4.76131 0.917999 0
M  V30 7053 N 679.926 -0.151884 -1.56866 0
M  V30 7054 C 681.166 0.500695 -1.98173 0
M  V30 7055 C 681.53 1.61715 -1.03499 0
M  V30 7056 O 682.731 2.33093 -1.33869 0
M  V30 7057 C 681.002 0.989333 -3.43434 0
M  V30 7058 S 682.561 1.64583 -4.06765 0
M  V30 7059 H 679.379 0.16173 -0.692361 0
M  V30 7060 H 681.981 -0.244754 -1.93962 0
M  V30 7061 H 680.685 0.166072 -4.10064 0
M  V30 7062 H 680.216 1.76929 -3.51368 0
M  V30 7063 H 682.231 2.93326 -4.00218 0
M  V30 7064 N 681.404 1.57128 0.121893 0
M  V30 7065 C 682.314 2.03425 1.16857 0
M  V30 7066 C 683.33 0.954108 1.45509 0
M  V30 7067 O 684.506 1.26541 1.56682 0
M  V30 7068 C 681.571 2.42685 2.47599 0
M  V30 7069 C 680.632 3.64767 2.2637 0
M  V30 7070 C 679.865 4.02145 3.50878 0
M  V30 7071 O 680.088 3.39897 4.58068 0
M  V30 7072 O 679.022 4.95262 3.42051 0
M  V30 7073 H 682.848 2.92825 0.80544 0
M  V30 7074 H 680.433 1.45654 0.332477 0
M  V30 7075 H 682.315 2.68684 3.24634 0
M  V30 7076 H 680.99 1.56432 2.83392 0
M  V30 7077 H 679.897 3.43922 1.47203 0
M  V30 7078 H 681.23 4.51716 1.95482 0
M  V30 7079 N 682.882 -0.391992 1.52647 0
M  V30 7080 C 684.128 -1.139 1.67793 0
M  V30 7081 C 684.461 -1.89711 0.41514 0
M  V30 7082 O 683.736 -1.85431 -0.586979 0
M  V30 7083 C 684.019 -2.11966 2.91105 0
M  V30 7084 C 683.872 -1.39939 4.27478 0
M  V30 7085 C 685.191 -3.1243 3.09961 0
M  V30 7086 H 682.31 -0.412707 0.610608 0
M  V30 7087 H 684.952 -0.422725 1.85238 0
M  V30 7088 H 683.102 -2.73048 2.76364 0
M  V30 7089 H 684.774 -0.818439 4.53982 0
M  V30 7090 H 683.017 -0.701246 4.28095 0
M  V30 7091 H 683.688 -2.1158 5.09841 0
M  V30 7092 H 686.164 -2.61435 3.23714 0
M  V30 7093 H 685.04 -3.78294 3.97725 0
M  V30 7094 H 685.301 -3.81127 2.24042 0
M  V30 7095 N 684.36 -1.4356 -0.65026 0
M  V30 7096 C 685.607 -1.45333 -1.41012 0
M  V30 7097 C 685.935 -0.0787282 -1.94341 0
M  V30 7098 O 685.19 0.916715 -1.72901 0
M  V30 7099 C 685.489 -2.44528 -2.60654 0
M  V30 7100 C 685.155 -3.90331 -2.25727 0
M  V30 7101 C 683.817 -4.3004 -2.15914 0
M  V30 7102 C 686.169 -4.822 -1.97821 0
M  V30 7103 C 683.497 -5.59568 -1.76354 0
M  V30 7104 C 685.849 -6.12095 -1.59759 0
M  V30 7105 C 684.513 -6.50778 -1.48473 0
M  V30 7106 H 683.783 -0.531813 -0.516 0
M  V30 7107 H 686.43 -1.76657 -0.739219 0
M  V30 7108 H 684.735 -2.06619 -3.3289 0
M  V30 7109 H 686.432 -2.43155 -3.18868 0
M  V30 7110 H 683.022 -3.58905 -2.34276 0
M  V30 7111 H 687.206 -4.5229 -2.04322 0
M  V30 7112 H 682.462 -5.88376 -1.66205 0
M  V30 7113 H 686.636 -6.82751 -1.37198 0
M  V30 7114 H 684.263 -7.5105 -1.17591 0
M  V30 7115 N 685.838 0.888903 -1.30139 0
M  V30 7116 C 687.254 1.17153 -1.08385 0
M  V30 7117 C 687.454 2.0088 0.157925 0
M  V30 7118 O 686.51 2.37668 0.852652 0
M  V30 7119 C 687.823 1.882 -2.34523 0
M  V30 7120 C 689.371 2.00981 -2.39949 0
M  V30 7121 C 689.846 2.75441 -3.65918 0
M  V30 7122 N 691.337 2.82989 -3.66704 0
M  V30 7123 C 692.072 3.41167 -4.60861 0
M  V30 7124 N 691.568 4.00425 -5.6536 0
M  V30 7125 N 693.361 3.38944 -4.48412 0
M  V30 7126 H 685.512 0.33053 -2.09812 0
M  V30 7127 H 687.775 0.208964 -0.924683 0
M  V30 7128 H 687.481 1.34119 -3.25123 0
M  V30 7129 H 687.355 2.88609 -2.42868 0
M  V30 7130 H 689.742 2.54234 -1.4983 0
M  V30 7131 H 689.823 0.996725 -2.35582 0
M  V30 7132 H 689.467 2.22861 -4.56394 0
M  V30 7133 H 689.397 3.77118 -3.67546 0
M  V30 7134 H 691.888 2.40912 -2.91153 0
M  V30 7135 H 692.201 4.42871 -6.33313 0
M  V30 7136 H 690.546 3.98856 -5.69157 0
M  V30 7137 H 693.737 2.91875 -3.6596 0
M  V30 7138 H 693.91 3.83989 -5.21974 0
M  V30 7139 N 687.317 1.12792 1.10072 0
M  V30 7140 C 688.594 0.796867 1.78632 0
M  V30 7141 C 688.974 -0.712739 1.98704 0
M  V30 7142 O 688.322 -1.64773 1.5831 0
M  V30 7143 C 688.532 1.57622 3.11378 0
M  V30 7144 C 689.88 1.76463 3.86194 0
M  V30 7145 O 690.904 1.54165 3.2111 0
M  V30 7146 O 689.763 2.13623 5.03018 0
M  V30 7147 H 686.857 0.290248 0.774394 0
M  V30 7148 H 689.403 1.23215 1.16688 0
M  V30 7149 H 688.175 2.60246 2.92212 0
M  V30 7150 H 687.798 1.13543 3.81043 0
M  V30 7151 N 688.795 -1.27931 0.920396 0
M  V30 7152 C 689.742 -2.27085 0.412422 0
M  V30 7153 C 690.712 -1.57858 -0.516725 0
M  V30 7154 O 691.897 -1.85717 -0.437475 0
M  V30 7155 C 689.037 -3.43466 -0.335399 0
M  V30 7156 C 688.15 -4.27425 0.627017 0
M  V30 7157 C 687.285 -5.31016 -0.139916 0
M  V30 7158 C 686.324 -6.06641 0.815683 0
M  V30 7159 N 685.461 -7.02052 0.0818439 0
M  V30 7160 H 690.301 -2.69913 1.26298 0
M  V30 7161 H 687.838 -1.32732 0.634076 0
M  V30 7162 H 689.796 -4.09744 -0.785226 0
M  V30 7163 H 688.426 -3.01611 -1.15025 0
M  V30 7164 H 687.478 -3.6113 1.19537 0
M  V30 7165 H 688.79 -4.79969 1.35763 0
M  V30 7166 H 687.944 -6.03208 -0.649998 0
M  V30 7167 H 686.683 -4.79257 -0.903543 0
M  V30 7168 H 685.688 -5.33294 1.33708 0
M  V30 7169 H 686.913 -6.60489 1.57897 0
M  V30 7170 H 684.859 -6.52634 -0.663671 0
M  V30 7171 H 684.776 -7.52249 0.752163 0
M  V30 7172 H 686.044 -7.78432 -0.407825 0
M  V30 7173 N 690.273 -0.685099 -1.4193 0
M  V30 7174 C 691.519 -0.211971 -2.01689 0
M  V30 7175 C 691.852 1.18189 -1.54094 0
M  V30 7176 O 691.127 1.79559 -0.747572 0
M  V30 7177 C 691.41 -0.258019 -3.59174 0
M  V30 7178 C 691.263 -1.68807 -4.16922 0
M  V30 7179 C 692.582 0.388044 -4.38386 0
M  V30 7180 H 689.701 -0.0784987 -0.732808 0
M  V30 7181 H 692.343 -0.871837 -1.68816 0
M  V30 7182 H 690.493 0.303832 -3.8731 0
M  V30 7183 H 692.165 -2.30296 -3.99702 0
M  V30 7184 H 690.408 -2.22553 -3.72361 0
M  V30 7185 H 691.079 -1.6719 -5.26072 0
M  V30 7186 H 693.555 -0.0903432 -4.16002 0
M  V30 7187 H 692.431 0.325232 -5.47936 0
M  V30 7188 H 692.692 1.4672 -4.17044 0
M  V30 7189 N 691.751 1.51645 -0.429126 0
M  V30 7190 C 692.681 2.30434 0.377148 0
M  V30 7191 C 693.662 1.35493 1.02838 0
M  V30 7192 O 694.847 1.6441 1.03359 0
M  V30 7193 C 691.977 3.14038 1.48315 0
M  V30 7194 C 690.931 4.1719 0.955855 0
M  V30 7195 C 690.257 4.89263 2.15698 0
M  V30 7196 C 691.557 5.223 -0.00402136 0
M  V30 7197 H 693.251 2.98085 -0.280336 0
M  V30 7198 H 690.797 1.43354 -0.136265 0
M  V30 7199 H 692.75 3.67933 2.05435 0
M  V30 7200 H 691.474 2.44193 2.16881 0
M  V30 7201 H 690.133 3.64335 0.406929 0
M  V30 7202 H 689.781 4.15929 2.82864 0
M  V30 7203 H 689.481 5.59009 1.81059 0
M  V30 7204 H 691.005 5.45978 2.73387 0
M  V30 7205 H 692.419 5.71315 0.476607 0
M  V30 7206 H 690.816 5.99525 -0.26258 0
M  V30 7207 H 691.886 4.75638 -0.943236 0
M  V30 7208 N 693.229 0.160201 1.56784 0
M  V30 7209 C 694.477 -0.486625 1.96154 0
M  V30 7210 C 694.798 -1.64525 1.04673 0
M  V30 7211 O 694.068 -1.95586 0.110864 0
M  V30 7212 H 692.648 -0.182764 0.724297 0
M  V30 7213 H 695.31 0.238787 1.93432 0
M  V30 7214 H 694.406 -0.854025 3.00188 0
M  V30 7215 N 694.707 -1.5719 -0.113559 0
M  V30 7216 C 695.937 -1.89053 -0.833212 0
M  V30 7217 C 696.345 -0.750139 -1.73694 0
M  V30 7218 O 695.688 0.287808 -1.81431 0
M  V30 7219 C 695.75 -3.15986 -1.71443 0
M  V30 7220 C 695.414 -4.46271 -0.984449 0
M  V30 7221 C 696.411 -5.18897 -0.322741 0
M  V30 7222 C 694.096 -4.92963 -0.964011 0
M  V30 7223 C 696.09 -6.3644 0.349646 0
M  V30 7224 C 693.777 -6.10422 -0.287828 0
M  V30 7225 C 694.775 -6.82009 0.36784 0
M  V30 7226 O 694.463 -7.97233 1.03322 0
M  V30 7227 H 694.195 -0.630225 -0.244526 0
M  V30 7228 H 696.749 -2.05152 -0.100847 0
M  V30 7229 H 694.979 -2.95984 -2.48858 0
M  V30 7230 H 696.668 -3.33826 -2.309 0
M  V30 7231 H 697.434 -4.83875 -0.330114 0
M  V30 7232 H 693.313 -4.37143 -1.46379 0
M  V30 7233 H 696.857 -6.92254 0.861996 0
M  V30 7234 H 692.754 -6.449 -0.278237 0
M  V30 7235 H 693.522 -8.13105 0.938247 0
M  V30 7236 N 696.185 0.383891 -1.52853 0
M  V30 7237 C 697.432 1.12842 -1.68146 0
M  V30 7238 C 697.76 1.89823 -0.423954 0
M  V30 7239 O 697.015 1.86475 0.593765 0
M  V30 7240 C 697.314 2.12881 -2.87082 0
M  V30 7241 C 696.98 1.52519 -4.24322 0
M  V30 7242 C 695.642 1.35783 -4.61645 0
M  V30 7243 C 697.994 1.0868 -5.09743 0
M  V30 7244 C 695.322 0.737643 -5.82044 0
M  V30 7245 C 697.674 0.480699 -6.30771 0
M  V30 7246 C 696.338 0.300681 -6.66822 0
M  V30 7247 H 695.608 0.412917 -0.615289 0
M  V30 7248 H 698.255 0.412416 -1.87006 0
M  V30 7249 H 696.56 2.90719 -2.62659 0
M  V30 7250 H 698.257 2.70408 -2.96109 0
M  V30 7251 H 694.847 1.66534 -3.94923 0
M  V30 7252 H 699.031 1.2041 -4.81472 0
M  V30 7253 H 694.287 0.586415 -6.08581 0
M  V30 7254 H 698.461 0.132733 -6.96273 0
M  V30 7255 H 696.088 -0.181966 -7.59982 0
M  V30 7256 N 697.663 1.43903 0.642637 0
M  V30 7257 C 698.909 1.47291 1.40275 0
M  V30 7258 C 699.264 0.0996024 1.92142 0
M  V30 7259 O 698.557 -0.883423 1.70018 0
M  V30 7260 C 698.751 2.45907 2.59354 0
M  V30 7261 C 698.58 3.92691 2.19143 0
M  V30 7262 C 697.35 4.6097 2.06966 0
M  V30 7263 C 699.548 4.82231 1.78768 0
M  V30 7264 N 697.53 5.9263 1.60196 0
M  V30 7265 C 698.901 6.03246 1.43159 0
M  V30 7266 C 700.956 4.69397 1.66045 0
M  V30 7267 C 699.659 7.12851 0.961014 0
M  V30 7268 C 701.685 5.79016 1.20392 0
M  V30 7269 C 701.047 6.99164 0.857271 0
M  V30 7270 H 697.146 0.594055 0.50855 0
M  V30 7271 H 699.73 1.80153 0.738434 0
M  V30 7272 H 697.901 2.15054 3.23429 0
M  V30 7273 H 699.633 2.39665 3.26102 0
M  V30 7274 H 696.388 4.15622 2.27058 0
M  V30 7275 H 696.812 6.62547 1.39143 0
M  V30 7276 H 701.454 3.76954 1.91482 0
M  V30 7277 H 699.172 8.05113 0.694148 0
M  V30 7278 H 702.758 5.71109 1.11023 0
M  V30 7279 H 701.638 7.82544 0.509408 0
M  V30 7280 N 699.141 -0.881989 1.30609 0
M  V30 7281 C 700.089 -2.00942 1.17155 0
M  V30 7282 C 701.083 -1.69198 0.0827154 0
M  V30 7283 O 702.289 -1.78342 0.243775 0
M  V30 7284 H 698.664 -0.658913 0.362406 0
M  V30 7285 H 700.635 -2.09423 2.12567 0
M  V30 7286 C 699.384 -3.36294 0.883273 0
M  V30 7287 H 698.707 -3.61233 1.7132 0
M  V30 7288 H 700.147 -4.15812 0.829255 0
M  V30 7289 C 698.606 -3.34348 -0.413851 0
M  V30 7290 O 699.136 -3.75216 -1.43444 0
M  V30 7291 N 697.342 -2.87459 -0.426082 0
M  V30 7292 H 696.889 -2.54397 0.40493 0
M  V30 7293 H 696.847 -2.8654 -1.29391 0
M  V30 7294 N 700.619 -1.13374 -1.09472 0
M  V30 7295 C 702.035 -0.871846 -1.33682 0
M  V30 7296 C 702.235 0.492847 -1.9538 0
M  V30 7297 O 701.291 1.23946 -2.19985 0
M  V30 7298 C 702.604 -1.99608 -2.24893 0
M  V30 7299 C 704.152 -2.02812 -2.38404 0
M  V30 7300 C 704.627 -3.14497 -3.3295 0
M  V30 7301 N 706.118 -3.14004 -3.40523 0
M  V30 7302 C 706.853 -3.97061 -4.13679 0
M  V30 7303 N 706.349 -4.90131 -4.89636 0
M  V30 7304 N 708.142 -3.85162 -4.09398 0
M  V30 7305 H 700.293 -2.01288 -0.677995 0
M  V30 7306 H 702.556 -0.876492 -0.361201 0
M  V30 7307 H 702.262 -2.98 -1.86786 0
M  V30 7308 H 702.136 -1.90981 -3.25278 0
M  V30 7309 H 704.523 -1.05034 -2.75775 0
M  V30 7310 H 704.604 -2.15511 -1.37799 0
M  V30 7311 H 704.248 -4.12514 -2.96302 0
M  V30 7312 H 704.178 -2.99035 -4.33458 0
M  V30 7313 H 706.669 -2.46587 -2.86362 0
M  V30 7314 H 706.982 -5.49996 -5.42885 0
M  V30 7315 H 705.327 -4.94138 -4.88726 0
M  V30 7316 H 708.518 -3.11779 -3.49158 0
M  V30 7317 H 708.691 -4.5012 -4.6615 0
M  V30 7318 N 702.098 1.27442 -0.927168 0
M  V30 7319 C 703.03 2.25975 -0.383158 0
M  V30 7320 C 704.043 1.55382 0.485832 0
M  V30 7321 O 705.232 1.75986 0.298541 0
M  V30 7322 C 702.332 3.35629 0.469688 0
M  V30 7323 C 701.505 4.35747 -0.379886 0
M  V30 7324 C 700.564 5.24598 0.410227 0
M  V30 7325 O 699.59 5.68909 -0.181888 0
M  V30 7326 N 700.792 5.54737 1.71017 0
M  V30 7327 H 703.557 2.7329 -1.23015 0
M  V30 7328 H 701.118 1.41063 -0.794539 0
M  V30 7329 H 703.11 3.92015 1.00532 0
M  V30 7330 H 701.68 2.87919 1.21744 0
M  V30 7331 H 700.9 3.78634 -1.09682 0
M  V30 7332 H 702.188 4.99648 -0.960717 0
M  V30 7333 H 701.586 5.20594 2.21356 0
M  V30 7334 H 700.143 6.13824 2.19234 0
M  V30 7335 N 703.576 0.692616 1.41565 0
M  V30 7336 C 704.526 0.00231847 2.28 0
M  V30 7337 C 705.51 -0.755793 1.42044 0
M  V30 7338 O 706.702 -0.631772 1.65341 0
M  V30 7339 C 703.831 -0.935468 3.30309 0
M  V30 7340 C 702.917 -0.173761 4.23744 0
M  V30 7341 N 703.308 0.830872 4.98929 0
M  V30 7342 C 701.606 -0.409666 4.44115 0
M  V30 7343 C 702.307 1.28656 5.67294 0
M  V30 7344 N 701.283 0.613053 5.40132 0
M  V30 7345 H 705.085 0.772635 2.83562 0
M  V30 7346 H 702.599 0.523198 1.53741 0
M  V30 7347 H 704.596 -1.44513 3.91052 0
M  V30 7348 H 703.256 -1.70542 2.76307 0
M  V30 7349 H 704.267 1.21101 5.03542 0
M  V30 7350 H 700.944 -1.15773 4.01127 0
M  V30 7351 H 702.334 2.12006 6.37576 0
M  V30 7352 N 705.054 -1.51416 0.437162 0
M  V30 7353 C 706.279 -2.0699 -0.130424 0
M  V30 7354 C 706.704 -1.30249 -1.35709 0
M  V30 7355 O 706.062 -0.340388 -1.78076 0
M  V30 7356 C 706.11 -3.5801 -0.43142 0
M  V30 7357 O 705.214 -3.8345 -1.5179 0
M  V30 7358 H 704.555 -0.663997 -0.00194339 0
M  V30 7359 H 707.085 -1.95029 0.618445 0
M  V30 7360 H 707.095 -4.02261 -0.681926 0
M  V30 7361 H 705.77 -4.13291 0.465137 0
M  V30 7362 H 704.347 -3.51062 -1.25737 0
M  V30 7363 N 706.532 -0.168513 -1.56696 0
M  V30 7364 C 707.464 0.794249 -2.14998 0
M  V30 7365 C 708.477 1.1957 -1.10485 0
M  V30 7366 O 709.666 1.13604 -1.37682 0
M  V30 7367 C 706.766 2.08018 -2.67547 0
M  V30 7368 C 705.939 1.84274 -3.96689 0
M  V30 7369 C 704.998 2.97059 -4.3433 0
M  V30 7370 O 704.024 2.67815 -5.02259 0
M  V30 7371 N 705.226 4.24775 -3.9566 0
M  V30 7372 H 707.991 0.295832 -2.98236 0
M  V30 7373 H 705.552 0.0143611 -1.61894 0
M  V30 7374 H 707.544 2.82559 -2.89729 0
M  V30 7375 H 706.114 2.49059 -1.88914 0
M  V30 7376 H 705.334 0.936528 -3.82914 0
M  V30 7377 H 706.622 1.65773 -4.81037 0
M  V30 7378 H 706.02 4.51395 -3.40968 0
M  V30 7379 H 704.577 4.96027 -4.22848 0
M  V30 7380 N 708.01 1.57248 0.105221 0
M  V30 7381 C 709.426 1.52853 0.459153 0
M  V30 7382 C 709.626 0.883674 1.8109 0
M  V30 7383 O 708.682 0.471864 2.48052 0
M  V30 7384 C 709.995 2.97596 0.43096 0
M  V30 7385 C 711.543 3.08758 0.513536 0
M  V30 7386 C 712.018 4.55089 0.515593 0
M  V30 7387 N 713.509 4.59597 0.576639 0
M  V30 7388 C 714.244 5.70253 0.599904 0
M  V30 7389 N 713.74 6.90368 0.579985 0
M  V30 7390 N 715.533 5.58399 0.643953 0
M  V30 7391 H 707.684 1.97547 -0.780306 0
M  V30 7392 H 709.947 0.902758 -0.289363 0
M  V30 7393 H 709.653 3.48201 -0.494903 0
M  V30 7394 H 709.527 3.55756 1.2537 0
M  V30 7395 H 711.914 2.58148 1.42982 0
M  V30 7396 H 711.995 2.53568 -0.337148 0
M  V30 7397 H 711.639 5.06348 -0.396701 0
M  V30 7398 H 711.569 5.08105 1.38335 0
M  V30 7399 H 714.06 3.73144 0.597639 0
M  V30 7400 H 714.373 7.70462 0.600741 0
M  V30 7401 H 712.718 6.92843 0.547191 0
M  V30 7402 H 715.909 4.63467 0.656975 0
M  V30 7403 H 716.082 6.44644 0.658616 0
M  V30 7404 N 709.488 -0.375779 1.53054 0
M  V30 7405 C 710.438 -1.45965 1.75152 0
M  V30 7406 C 711.422 -1.49059 0.605823 0
M  V30 7407 O 712.614 -1.54472 0.864133 0
M  V30 7408 C 709.743 -2.83524 1.93569 0
M  V30 7409 C 708.829 -2.84949 3.1411 0
M  V30 7410 N 709.22 -2.56029 4.36214 0
M  V30 7411 C 707.518 -3.16113 3.14625 0
M  V30 7412 C 708.219 -2.64873 5.17897 0
M  V30 7413 N 707.195 -2.99159 4.53878 0
M  V30 7414 H 710.997 -1.22454 2.67175 0
M  V30 7415 H 708.511 -0.583867 1.51541 0
M  V30 7416 H 710.508 -3.61578 2.07525 0
M  V30 7417 H 709.168 -3.08008 1.02768 0
M  V30 7418 H 710.179 -2.29808 4.64121 0
M  V30 7419 H 706.856 -3.45977 2.3368 0
M  V30 7420 H 708.246 -2.45947 6.25268 0
M  V30 7421 N 710.966 -1.44241 -0.634997 0
M  V30 7422 C 712.191 -1.50516 -1.42687 0
M  V30 7423 C 712.616 -0.129864 -1.87651 0
M  V30 7424 O 711.974 0.880164 -1.58502 0
M  V30 7425 C 712.022 -2.4714 -2.62591 0
M  V30 7426 O 711.126 -1.97025 -3.62291 0
M  V30 7427 H 710.467 -0.50841 -0.427101 0
M  V30 7428 H 712.997 -1.89337 -0.775408 0
M  V30 7429 H 713.007 -2.65048 -3.10183 0
M  V30 7430 H 711.682 -3.47039 -2.29209 0
M  V30 7431 H 710.259 -1.88866 -3.21534 0
M  V30 7432 N 712.444 0.87505 -1.31075 0
M  V30 7433 C 713.669 1.66583 -1.23551 0
M  V30 7434 C 714.094 1.87067 0.19686 0
M  V30 7435 O 713.452 1.40877 1.1412 0
M  V30 7436 C 713.5 3.01401 -1.97965 0
M  V30 7437 O 712.604 3.90923 -1.31351 0
M  V30 7438 H 711.945 0.508645 -0.426821 0
M  V30 7439 H 714.475 1.09139 -1.7306 0
M  V30 7440 H 714.485 3.51374 -2.07366 0
M  V30 7441 H 713.16 2.85812 -3.02133 0
M  V30 7442 H 711.737 3.49369 -1.30368 0
M  V30 7443 N 713.922 1.13953 1.08869 0
M  V30 7444 C 715.15 0.92817 1.84912 0
M  V30 7445 C 715.565 -0.523197 1.81406 0
M  V30 7446 O 714.922 -1.36237 1.21432 0
M  V30 7447 C 714.973 1.41509 3.32652 0
M  V30 7448 O 714.694 2.80959 3.36145 0
M  V30 7449 C 716.195 1.243 4.25517 0
M  V30 7450 H 713.415 0.330612 0.583898 0
M  V30 7451 H 715.959 1.51349 1.37527 0
M  V30 7452 H 714.114 0.872648 3.77444 0
M  V30 7453 H 714.528 3.02704 4.28335 0
M  V30 7454 H 716.002 1.63237 5.27312 0
M  V30 7455 H 716.479 0.18532 4.38809 0
M  V30 7456 H 717.085 1.77375 3.86546 0
M  V30 7457 N 715.4 -1.26948 0.933913 0
M  V30 7458 C 716.348 -2.2862 0.428463 0
M  V30 7459 C 717.342 -1.62144 -0.490464 0
M  V30 7460 O 718.548 -1.76167 -0.36948 0
M  V30 7461 H 714.923 -0.742363 0.120003 0
M  V30 7462 H 716.894 -2.68659 1.29865 0
M  V30 7463 C 715.643 -3.46423 -0.29774 0
M  V30 7464 H 714.966 -3.97792 0.400183 0
M  V30 7465 H 716.406 -4.19505 -0.615736 0
M  V30 7466 C 714.865 -3.01017 -1.51295 0
M  V30 7467 O 715.395 -3.05226 -2.61151 0
M  V30 7468 N 713.601 -2.56442 -1.36696 0
M  V30 7469 H 713.148 -2.53217 -0.473178 0
M  V30 7470 H 713.106 -2.26424 -2.18127 0
M  V30 7471 N 716.879 -0.700114 -1.41195 0
M  V30 7472 C 717.809 -0.0521132 -2.33442 0
M  V30 7473 C 718.79 0.76228 -1.52063 0
M  V30 7474 O 719.975 0.714336 -1.80585 0
M  V30 7475 C 717.105 0.881693 -3.35922 0
M  V30 7476 C 716.059 0.174062 -4.27646 0
M  V30 7477 C 715.385 1.22254 -5.20536 0
M  V30 7478 C 716.685 -0.962396 -5.13357 0
M  V30 7479 H 718.379 -0.822574 -2.87879 0
M  V30 7480 H 715.925 -0.397011 -1.38419 0
M  V30 7481 H 717.878 1.34429 -3.99383 0
M  V30 7482 H 716.602 1.68387 -2.79845 0
M  V30 7483 H 715.261 -0.268551 -3.65615 0
M  V30 7484 H 714.909 2.01736 -4.60773 0
M  V30 7485 H 714.609 0.754038 -5.82742 0
M  V30 7486 H 716.133 1.68555 -5.86874 0
M  V30 7487 H 717.547 -0.579875 -5.7036 0
M  V30 7488 H 715.944 -1.35828 -5.84526 0
M  V30 7489 H 717.014 -1.80003 -4.50252 0
M  V30 7490 N 718.357 1.51182 -0.445186 0
M  V30 7491 C 719.287 2.30821 0.352686 0
M  V30 7492 C 720.268 1.36576 1.01395 0
M  V30 7493 O 721.453 1.65497 1.01609 0
M  V30 7494 C 718.583 3.15593 1.44976 0
M  V30 7495 C 717.537 4.1818 0.911553 0
M  V30 7496 C 716.863 4.91523 2.10497 0
M  V30 7497 C 718.163 5.22266 -0.059418 0
M  V30 7498 H 719.857 2.97771 -0.311936 0
M  V30 7499 H 717.403 1.43201 -0.151461 0
M  V30 7500 H 719.356 3.70091 2.01521 0
M  V30 7501 H 718.08 2.4648 2.14278 0
M  V30 7502 H 716.739 3.64746 0.368264 0
M  V30 7503 H 716.387 4.18906 2.78437 0
M  V30 7504 H 716.087 5.60898 1.7512 0
M  V30 7505 H 717.611 5.48847 2.6758 0
M  V30 7506 H 719.025 5.71789 0.415985 0
M  V30 7507 H 717.422 5.99213 -0.326152 0
M  V30 7508 H 718.492 4.7461 -0.993631 0
M  V30 7509 N 719.835 0.176821 1.56605 0
M  V30 7510 C 720.767 -0.782836 2.15417 0
M  V30 7511 C 721.78 -1.18982 1.11117 0
M  V30 7512 O 722.969 -1.12872 1.38283 0
M  V30 7513 C 720.069 -2.06596 2.68647 0
M  V30 7514 C 719.242 -1.82167 3.9766 0
M  V30 7515 C 718.301 -2.94751 4.35899 0
M  V30 7516 O 717.327 -2.65148 5.03672 0
M  V30 7517 N 718.529 -4.2267 3.97907 0
M  V30 7518 H 721.294 -0.280012 2.98389 0
M  V30 7519 H 718.855 -0.00577529 1.61899 0
M  V30 7520 H 720.847 -2.81018 2.91223 0
M  V30 7521 H 719.417 -2.48054 1.90232 0
M  V30 7522 H 718.637 -0.916208 3.83405 0
M  V30 7523 H 719.925 -1.6322 4.81909 0
M  V30 7524 H 719.323 -4.4958 3.43357 0
M  V30 7525 H 717.88 -4.93778 4.25472 0
M  V30 7526 N 721.313 -1.57302 -0.09688 0
M  V30 7527 C 722.223 -2.05258 -1.13606 0
M  V30 7528 C 723.239 -0.977137 -1.43972 0
M  V30 7529 O 724.415 -1.29018 -1.54649 0
M  V30 7530 C 721.48 -2.46593 -2.43706 0
M  V30 7531 C 720.541 -3.68322 -2.20538 0
M  V30 7532 C 719.774 -4.07676 -3.44435 0
M  V30 7533 O 719.997 -3.47141 -4.52603 0
M  V30 7534 O 718.931 -5.00641 -3.34129 0
M  V30 7535 H 722.757 -2.94069 -0.758752 0
M  V30 7536 H 720.342 -1.46164 -0.309263 0
M  V30 7537 H 722.224 -2.73814 -3.20318 0
M  V30 7538 H 720.899 -1.6092 -2.80867 0
M  V30 7539 H 719.806 -3.4622 -1.41713 0
M  V30 7540 H 721.139 -4.54769 -1.88271 0
M  V30 7541 N 722.791 0.367657 -1.53252 0
M  V30 7542 C 724.039 1.10832 -1.68999 0
M  V30 7543 C 724.36 1.89894 -0.443306 0
M  V30 7544 O 723.63 1.88235 0.54262 0
M  V30 7545 H 722.21 0.412153 -0.623008 0
M  V30 7546 H 724.872 0.414775 -1.90435 0
M  V30 7547 H 723.968 1.7993 -2.55013 0
M  V30 7548 N 724.269 1.44576 0.627338 0
M  V30 7549 C 725.199 1.54562 1.75022 0
M  V30 7550 C 726.18 0.398378 1.65369 0
M  V30 7551 O 727.365 0.61899 1.84071 0
M  V30 7552 C 724.495 1.49309 3.13567 0
M  V30 7553 C 723.449 2.62549 3.38012 0
M  V30 7554 C 722.775 2.42348 4.76625 0
M  V30 7555 C 724.075 4.04678 3.30202 0
M  V30 7556 H 725.769 2.4855 1.66922 0
M  V30 7557 H 723.315 1.19624 0.801636 0
M  V30 7558 H 725.268 1.54895 3.919 0
M  V30 7559 H 723.992 0.518392 3.2246 0
M  V30 7560 H 722.651 2.56358 2.62061 0
M  V30 7561 H 722.299 1.43062 4.82226 0
M  V30 7562 H 721.999 3.18273 4.93939 0
M  V30 7563 H 723.523 2.49758 5.57183 0
M  V30 7564 H 724.937 4.12217 3.98435 0
M  V30 7565 H 723.334 4.80836 3.5905 0
M  V30 7566 H 724.404 4.2798 2.27949 0
M  V30 7567 N 725.747 -0.868086 1.31537 0
M  V30 7568 C 726.995 -1.61807 1.21091 0
M  V30 7569 C 727.316 -1.93631 -0.230623 0
M  V30 7570 O 726.586 -1.5846 -1.15183 0
M  V30 7571 H 725.166 -0.599854 0.445178 0
M  V30 7572 H 727.828 -1.03915 1.64887 0
M  V30 7573 H 726.924 -2.56088 1.78396 0
M  V30 7574 N 727.225 -1.14528 -1.08264 0
M  V30 7575 C 728.45 -0.938381 -1.84957 0
M  V30 7576 C 728.875 0.508044 -1.81109 0
M  V30 7577 O 728.233 1.36146 -1.19724 0
M  V30 7578 C 728.281 -1.44568 -3.30352 0
M  V30 7579 O 727.385 -0.638745 -4.07423 0
M  V30 7580 H 726.726 -0.335394 -0.573068 0
M  V30 7581 H 729.256 -1.52287 -1.36637 0
M  V30 7582 H 729.266 -1.45449 -3.81194 0
M  V30 7583 H 727.941 -2.49876 -3.32468 0
M  V30 7584 H 726.518 -0.698801 -3.66294 0
M  V30 7585 N 728.703 1.26451 -0.940633 0
M  V30 7586 C 729.653 2.24086 -0.420669 0
M  V30 7587 C 730.637 1.53501 0.482301 0
M  V30 7588 O 731.829 1.74127 0.317636 0
M  V30 7589 C 728.958 3.41866 0.313452 0
M  V30 7590 C 728.044 4.19737 -0.606779 0
M  V30 7591 N 728.435 4.7521 -1.73232 0
M  V30 7592 C 726.733 4.44091 -0.41226 0
M  V30 7593 C 727.434 5.34052 -2.30572 0
M  V30 7594 N 726.41 5.1971 -1.59381 0
M  V30 7595 H 730.212 2.64569 -1.27986 0
M  V30 7596 H 727.726 1.4153 -0.796436 0
M  V30 7597 H 729.723 4.1093 0.702991 0
M  V30 7598 H 728.383 3.0291 1.16942 0
M  V30 7599 H 729.394 4.72769 -2.11447 0
M  V30 7600 H 726.071 4.1556 0.401984 0
M  V30 7601 H 727.461 5.87845 -3.25404 0
M  V30 7602 N 730.181 0.707592 1.40822 0
M  V30 7603 C 731.597 0.38034 1.55002 0
M  V30 7604 C 731.797 -1.11163 1.68062 0
M  V30 7605 O 730.853 -1.89761 1.66574 0
M  V30 7606 C 732.166 1.1394 2.78277 0
M  V30 7607 C 733.714 1.12492 2.92087 0
M  V30 7608 C 734.189 1.86597 4.18265 0
M  V30 7609 N 735.68 1.83626 4.25248 0
M  V30 7610 C 736.415 2.37794 5.21768 0
M  V30 7611 N 735.911 3.00485 6.24244 0
M  V30 7612 N 737.704 2.27982 5.13791 0
M  V30 7613 H 729.855 1.67511 1.3059 0
M  V30 7614 H 732.118 0.707579 0.630901 0
M  V30 7615 H 731.824 2.19398 2.74877 0
M  V30 7616 H 731.698 0.725793 3.70151 0
M  V30 7617 H 734.085 0.0785564 2.94995 0
M  V30 7618 H 734.166 1.57768 2.01353 0
M  V30 7619 H 733.81 2.91219 4.16118 0
M  V30 7620 H 733.74 1.38746 5.07993 0
M  V30 7621 H 736.231 1.3793 3.51829 0
M  V30 7622 H 736.544 3.39355 6.94304 0
M  V30 7623 H 734.889 3.04567 6.24711 0
M  V30 7624 H 738.08 1.78669 4.3266 0
M  V30 7625 H 738.253 2.70499 5.88841 0
M  V30 7626 N 731.66 -1.50943 0.453197 0
M  V30 7627 C 732.888 -2.06628 -0.106135 0
M  V30 7628 C 733.303 -1.31901 -1.35084 0
M  V30 7629 O 732.66 -0.383074 -1.78434 0
M  V30 7630 C 732.711 -3.5914 -0.412368 0
M  V30 7631 O 732.432 -4.31047 0.782948 0
M  V30 7632 C 733.933 -4.31391 -1.02064 0
M  V30 7633 H 731.153 -0.670999 -0.000885896 0
M  V30 7634 H 733.697 -1.94331 0.63684 0
M  V30 7635 H 731.852 -3.71299 -1.10526 0
M  V30 7636 H 732.266 -5.21948 0.516736 0
M  V30 7637 H 733.74 -5.39135 -1.1848 0
M  V30 7638 H 734.217 -3.90714 -2.00598 0
M  V30 7639 H 734.823 -4.23716 -0.366664 0
M  V30 7640 N 733.138 -0.185124 -1.56509 0
M  V30 7641 C 734.07 0.771401 -2.15829 0
M  V30 7642 C 735.083 1.18392 -1.11747 0
M  V30 7643 O 736.272 1.12137 -1.38879 0
M  V30 7644 C 733.372 2.05169 -2.69739 0
M  V30 7645 C 732.545 1.80056 -3.98621 0
M  V30 7646 C 731.604 2.92435 -4.37456 0
M  V30 7647 O 730.63 2.62473 -5.05071 0
M  V30 7648 N 731.832 4.20554 -4.00143 0
M  V30 7649 H 734.597 0.264184 -2.98533 0
M  V30 7650 H 732.158 -0.00281069 -1.619 0
M  V30 7651 H 734.15 2.7947 -2.92709 0
M  V30 7652 H 732.72 2.47041 -1.91545 0
M  V30 7653 H 731.94 0.895862 -3.83885 0
M  V30 7654 H 733.228 1.60662 -4.82768 0
M  V30 7655 H 732.626 4.47753 -3.45736 0
M  V30 7656 H 731.183 4.91514 -4.28085 0
M  V30 7657 N 734.616 1.57351 0.0885366 0
M  V30 7658 C 735.862 1.86696 0.791996 0
M  V30 7659 C 736.195 0.775148 1.78059 0
M  V30 7660 O 735.47 -0.216247 1.93294 0
M  V30 7661 C 735.753 3.26684 1.51491 0
M  V30 7662 C 735.606 4.465 0.543858 0
M  V30 7663 C 736.925 3.64664 2.46391 0
M  V30 7664 H 734.044 0.679049 0.286463 0
M  V30 7665 H 736.686 1.89919 0.0554866 0
M  V30 7666 H 734.836 3.24067 2.14273 0
M  V30 7667 H 736.508 4.61235 -0.0774597 0
M  V30 7668 H 734.751 4.33567 -0.142228 0
M  V30 7669 H 735.422 5.41192 1.08696 0
M  V30 7670 H 737.898 3.68267 1.93698 0
M  V30 7671 H 736.774 4.63534 2.93986 0
M  V30 7672 H 737.035 2.93698 3.30445 0
M  V30 7673 N 736.094 -0.359525 1.53444 0
M  V30 7674 C 737.505 -0.936009 1.61542 0
M  V30 7675 C 737.856 -1.90069 0.486633 0
M  V30 7676 O 736.981 -2.12929 -0.386047 0
M  V30 7677 C 737.576 -1.70441 2.92806 0
M  V30 7678 C 736.135 -2.23015 3.03218 0
M  V30 7679 C 735.282 -1.04438 2.56881 0
M  V30 7680 H 738.233 -0.138134 1.58098 0
M  V30 7681 H 738.254 -2.56609 2.80948 0
M  V30 7682 H 737.766 -1.00205 3.74941 0
M  V30 7683 H 735.867 -2.96475 2.25684 0
M  V30 7684 H 735.98 -2.50481 4.08407 0
M  V30 7685 H 734.344 -1.41314 2.11902 0
M  V30 7686 H 735.127 -0.356905 3.4144 0
M  V30 7687 N 737.572 -1.44907 -0.619662 0
M  V30 7688 C 738.522 -1.49085 -1.72504 0
M  V30 7689 C 739.506 -0.355372 -1.56926 0
M  V30 7690 O 740.698 -0.601441 -1.66468 0
M  V30 7691 C 737.827 -1.44889 -3.11227 0
M  V30 7692 C 736.913 -2.63593 -3.32234 0
M  V30 7693 N 737.304 -3.88775 -3.23555 0
M  V30 7694 C 735.602 -2.59033 -3.63067 0
M  V30 7695 C 736.303 -4.67932 -3.45564 0
M  V30 7696 N 735.279 -3.9919 -3.68983 0
M  V30 7697 H 739.081 -2.43706 -1.6427 0
M  V30 7698 H 736.595 -1.4003 -0.82252 0
M  V30 7699 H 738.592 -1.45966 -3.90512 0
M  V30 7700 H 737.252 -0.513143 -3.2062 0
M  V30 7701 H 738.263 -4.20574 -3.02221 0
M  V30 7702 H 734.94 -1.7431 -3.79371 0
M  V30 7703 H 736.33 -5.76952 -3.44349 0
M  V30 7704 N 739.05 0.861098 -1.31996 0
M  V30 7705 C 739.98 1.98482 -1.22993 0
M  V30 7706 C 740.961 1.6971 -0.115168 0
M  V30 7707 O 742.146 1.91849 -0.30126 0
M  V30 7708 C 739.276 3.34179 -0.945615 0
M  V30 7709 C 738.23 3.77284 -2.02091 0
M  V30 7710 C 737.556 5.1054 -1.58912 0
M  V30 7711 C 738.856 3.93439 -3.43515 0
M  V30 7712 H 740.55 2.06271 -2.17008 0
M  V30 7713 H 738.096 0.991043 -1.04472 0
M  V30 7714 H 740.049 4.12338 -0.869206 0
M  V30 7715 H 738.773 3.26586 0.0301849 0
M  V30 7716 H 737.432 3.01371 -2.08737 0
M  V30 7717 H 737.08 4.99397 -0.600942 0
M  V30 7718 H 736.78 5.40352 -2.30854 0
M  V30 7719 H 738.304 5.91199 -1.52696 0
M  V30 7720 H 739.718 4.6197 -3.39495 0
M  V30 7721 H 738.115 4.34661 -4.13751 0
M  V30 7722 H 739.185 2.96548 -3.8365 0
M  V30 7723 N 740.528 1.15101 1.07655 0
M  V30 7724 C 741.753 0.948177 1.84457 0
M  V30 7725 C 742.178 -0.498432 1.81376 0
M  V30 7726 O 741.536 -1.35509 1.20445 0
M  V30 7727 C 741.584 1.46318 3.29581 0
M  V30 7728 O 740.688 0.660342 4.07079 0
M  V30 7729 H 740.029 0.338428 0.571281 0
M  V30 7730 H 742.559 1.5301 1.35828 0
M  V30 7731 H 742.569 1.47468 3.80417 0
M  V30 7732 H 741.244 2.51635 3.31138 0
M  V30 7733 H 739.821 0.718216 3.65918 0
M  V30 7734 N 742.006 -1.2595 0.947325 0
M  V30 7735 C 742.936 -2.28521 0.479604 0
M  V30 7736 C 743.917 -1.63469 -0.470293 0
M  V30 7737 O 745.102 -1.90627 -0.370824 0
M  V30 7738 C 742.232 -3.46397 -0.250289 0
M  V30 7739 C 741.186 -4.23578 0.613643 0
M  V30 7740 C 740.512 -5.34131 -0.246568 0
M  V30 7741 C 741.812 -4.86979 1.88809 0
M  V30 7742 H 743.506 -2.67895 1.33688 0
M  V30 7743 H 741.052 -1.28783 0.644274 0
M  V30 7744 H 743.005 -4.17269 -0.588576 0
M  V30 7745 H 741.729 -3.05993 -1.14175 0
M  V30 7746 H 740.388 -3.54478 0.93491 0
M  V30 7747 H 740.036 -4.89968 -1.13756 0
M  V30 7748 H 739.736 -5.86683 0.328123 0
M  V30 7749 H 741.26 -6.07839 -0.579986 0
M  V30 7750 H 742.674 -5.50034 1.61666 0
M  V30 7751 H 741.071 -5.49675 2.40784 0
M  V30 7752 H 742.141 -4.09575 2.5957 0
M  V30 7753 N 743.484 -0.715051 -1.40445 0
M  V30 7754 C 744.732 -0.253826 -2.005 0
M  V30 7755 C 745.053 1.15681 -1.5698 0
M  V30 7756 O 744.323 1.78414 -0.809027 0
M  V30 7757 H 742.903 -0.0908537 -0.741454 0
M  V30 7758 H 745.565 -0.920561 -1.7179 0
M  V30 7759 H 744.661 -0.286499 -3.10782 0
M  V30 7760 N 744.962 1.50701 -0.461195 0
M  V30 7761 C 746.373 1.867 -0.00370227 0
M  V30 7762 C 746.724 1.37673 1.39787 0
M  V30 7763 O 745.849 0.737515 2.03445 0
M  V30 7764 C 746.444 3.388 5.75786e-05 0
M  V30 7765 C 745.003 3.74247 0.402044 0
M  V30 7766 C 744.15 2.74549 -0.389652 0
M  V30 7767 H 747.101 1.43585 -0.675942 0
M  V30 7768 H 747.122 3.719 0.804414 0
M  V30 7769 H 746.634 3.74452 -1.02015 0
M  V30 7770 H 744.735 3.44192 1.42697 0
M  V30 7771 H 744.848 4.78973 0.110265 0
M  V30 7772 H 743.212 2.54226 0.155314 0
M  V30 7773 H 743.995 3.13044 -1.40919 0
M  V30 7774 N 746.441 0.193421 1.56409 0
M  V30 7775 C 747.857 -0.162447 1.58771 0
M  V30 7776 C 748.057 -1.6116 1.20954 0
M  V30 7777 O 747.113 -2.3469 0.931497 0
M  V30 7778 C 748.426 0.138391 3.00381 0
M  V30 7779 C 749.974 0.0783649 3.12902 0
M  V30 7780 C 750.449 0.352491 4.56642 0
M  V30 7781 N 751.94 0.30105 4.62221 0
M  V30 7782 C 752.675 0.487028 5.71328 0
M  V30 7783 N 752.171 0.733265 6.88909 0
M  V30 7784 N 753.964 0.4214 5.60518 0
M  V30 7785 H 746.115 1.13909 1.79272 0
M  V30 7786 H 748.378 0.454528 0.83193 0
M  V30 7787 H 748.084 1.14312 3.32604 0
M  V30 7788 H 747.958 -0.559804 3.73023 0
M  V30 7789 H 750.345 -0.916963 2.80492 0
M  V30 7790 H 750.426 0.809611 2.4265 0
M  V30 7791 H 750.07 1.34513 4.89764 0
M  V30 7792 H 750 -0.399624 5.25081 0
M  V30 7793 H 752.491 0.117279 3.77718 0
M  V30 7794 H 752.804 0.86403 7.67955 0
M  V30 7795 H 751.149 0.770138 6.9072 0
M  V30 7796 H 754.34 0.229461 4.67537 0
M  V30 7797 H 754.513 0.569758 6.4549 0
M  V30 7798 N 747.919 -1.57396 -0.0801906 0
M  V30 7799 C 749.33 -1.75642 -0.633002 0
M  V30 7800 C 749.681 -0.817708 -1.78348 0
M  V30 7801 O 748.806 0.000233743 -2.164 0
M  V30 7802 C 749.401 -3.18502 -1.15507 0
M  V30 7803 C 747.96 -3.38121 -1.65381 0
M  V30 7804 C 747.107 -2.71386 -0.569661 0
M  V30 7805 H 750.058 -1.58027 0.145949 0
M  V30 7806 H 750.079 -3.22198 -2.02408 0
M  V30 7807 H 749.591 -3.86799 -0.317515 0
M  V30 7808 H 747.692 -2.74926 -2.51488 0
M  V30 7809 H 747.805 -4.46521 -1.73654 0
M  V30 7810 H 746.169 -2.33702 -1.0127 0
M  V30 7811 H 746.952 -3.42332 0.257561 0
M  V30 7812 N 749.397 0.351382 -1.53633 0
M  V30 7813 C 750.808 0.927429 -1.62036 0
M  V30 7814 C 751.159 1.89809 -0.496706 0
M  V30 7815 O 750.284 2.1313 0.374749 0
M  V30 7816 C 750.879 1.68886 -2.93706 0
M  V30 7817 C 749.438 2.21404 -3.04397 0
M  V30 7818 C 748.585 1.03075 -2.57431 0
M  V30 7819 H 751.536 0.129748 -1.58169 0
M  V30 7820 H 751.557 2.55116 -2.82305 0
M  V30 7821 H 751.069 0.982149 -3.75467 0
M  V30 7822 H 749.17 2.95274 -2.27253 0
M  V30 7823 H 749.283 2.48312 -4.09729 0
M  V30 7824 H 747.647 1.40188 -2.12649 0
M  V30 7825 H 748.43 0.338793 -3.41624 0
M  V30 7826 N 750.875 1.45233 0.611969 0
M  V30 7827 C 752.103 1.52539 1.39784 0
M  V30 7828 C 752.518 0.156533 1.8815 0
M  V30 7829 O 751.875 -0.84112 1.61961 0
M  V30 7830 C 751.926 2.50614 2.60528 0
M  V30 7831 O 751.647 3.8218 2.14173 0
M  V30 7832 C 753.148 2.67574 3.53439 0
M  V30 7833 H 750.368 0.51674 0.428043 0
M  V30 7834 H 752.912 1.90379 0.746727 0
M  V30 7835 H 751.067 2.15858 3.2169 0
M  V30 7836 H 751.481 4.35305 2.92592 0
M  V30 7837 H 752.955 3.40184 4.34717 0
M  V30 7838 H 753.432 1.73458 4.03496 0
M  V30 7839 H 754.038 3.0331 2.98133 0
M  V30 7840 N 752.353 -0.854086 1.3245 0
M  V30 7841 C 753.764 -1.42427 1.20712 0
M  V30 7842 C 754.115 -1.95371 -0.18013 0
M  V30 7843 O 753.24 -1.87587 -1.07889 0
M  V30 7844 C 753.835 -2.58897 2.18536 0
M  V30 7845 C 752.394 -3.11913 2.10683 0
M  V30 7846 C 751.541 -1.84661 2.06871 0
M  V30 7847 H 754.492 -0.661192 1.4427 0
M  V30 7848 H 754.513 -3.36074 1.78422 0
M  V30 7849 H 754.025 -2.20333 3.19492 0
M  V30 7850 H 752.126 -3.55059 1.12977 0
M  V30 7851 H 752.239 -3.73119 3.00532 0
M  V30 7852 H 750.603 -2.04285 1.52118 0
M  V30 7853 H 751.386 -1.48314 3.09609 0
M  V30 7854 N 753.831 -1.1567 -1.07043 0
M  V30 7855 C 755.242 -0.942408 -1.61169 0
M  V30 7856 C 755.593 0.515537 -1.89306 0
M  V30 7857 O 754.718 1.38726 -1.66084 0
M  V30 7858 C 755.313 -1.70431 -2.92812 0
M  V30 7859 C 753.872 -1.53521 -3.43669 0
M  V30 7860 C 753.019 -1.7179 -2.17678 0
M  V30 7861 H 755.97 -1.3065 -0.9009 0
M  V30 7862 H 755.991 -1.17566 -3.61882 0
M  V30 7863 H 755.503 -2.76538 -2.72302 0
M  V30 7864 H 753.604 -0.498224 -3.69254 0
M  V30 7865 H 753.717 -2.31422 -4.19501 0
M  V30 7866 H 752.081 -1.14468 -2.27529 0
M  V30 7867 H 752.864 -2.79269 -1.99659 0
M  V30 7868 N 755.309 1.25446 -0.953992 0
M  V30 7869 C 756.549 1.94894 -0.616087 0
M  V30 7870 C 756.913 1.73067 0.831374 0
M  V30 7871 O 758.114 2.3643 1.27884 0
M  V30 7872 C 756.385 3.44147 -0.964225 0
M  V30 7873 S 757.944 4.32536 -0.738798 0
M  V30 7874 H 754.762 0.673967 -0.226472 0
M  V30 7875 H 757.364 1.52117 -1.22803 0
M  V30 7876 H 756.068 3.57537 -2.01484 0
M  V30 7877 H 755.599 3.91906 -0.342507 0
M  V30 7878 H 757.614 4.94659 0.390732 0
M  V30 7879 N 756.787 0.722489 1.40064 0
M  V30 7880 C 757.75 0.0830209 2.2905 0
M  V30 7881 C 758.75 -0.680208 1.45705 0
M  V30 7882 O 759.94 -0.511084 1.66534 0
M  V30 7883 C 757.072 -0.892092 3.29021 0
M  V30 7884 H 758.265 0.866848 2.87099 0
M  V30 7885 H 755.818 0.487556 1.48501 0
M  V30 7886 H 756.553 -1.70273 2.76003 0
M  V30 7887 H 756.338 -0.34761 3.90556 0
M  V30 7888 H 757.828 -1.33648 3.95636 0
M  V30 7889 N 758.265 -1.50454 0.469181 0
M  V30 7890 C 759.511 -2.02615 -0.0865971 0
M  V30 7891 C 759.844 -1.35062 -1.39542 0
M  V30 7892 O 759.119 -0.475701 -1.88593 0
M  V30 7893 C 759.402 -3.59068 -0.272385 0
M  V30 7894 C 759.255 -4.37196 1.05733 0
M  V30 7895 C 760.574 -4.2793 -1.0278 0
M  V30 7896 H 757.693 -0.736389 -0.0299977 0
M  V30 7897 H 760.335 -1.79792 0.614399 0
M  V30 7898 H 758.485 -3.78646 -0.869471 0
M  V30 7899 H 760.157 -4.29195 1.69084 0
M  V30 7900 H 758.4 -4.01013 1.65442 0
M  V30 7901 H 759.071 -5.44924 0.880997 0
M  V30 7902 H 761.547 -4.12816 -0.521718 0
M  V30 7903 H 760.423 -5.37214 -1.12659 0
M  V30 7904 H 760.684 -3.90968 -2.0639 0
M  V30 7905 N 759.743 -0.201713 -1.56304 0
M  V30 7906 C 760.971 0.440723 -2.02152 0
M  V30 7907 C 761.386 1.54735 -1.08179 0
M  V30 7908 O 760.743 1.82289 -0.0878196 0
M  V30 7909 C 760.794 0.990884 -3.47655 0
M  V30 7910 O 760.515 -0.0715937 -4.38041 0
M  V30 7911 C 762.016 1.70854 -4.09052 0
M  V30 7912 H 759.236 0.109987 -0.661924 0
M  V30 7913 H 761.78 -0.312358 -2.021 0
M  V30 7914 H 759.935 1.69432 -3.48384 0
M  V30 7915 H 760.349 0.338892 -5.23404 0
M  V30 7916 H 761.823 2.04572 -5.12693 0
M  V30 7917 H 762.3 2.61462 -3.52894 0
M  V30 7918 H 762.906 1.0508 -4.12114 0
M  V30 7919 N 761.222 1.57436 0.0718424 0
M  V30 7920 C 762.169 2.03686 1.08539 0
M  V30 7921 C 763.139 0.917474 1.38462 0
M  V30 7922 O 764.324 1.18513 1.4953 0
M  V30 7923 C 761.464 2.48566 2.39393 0
M  V30 7924 C 760.577 3.74122 2.16001 0
M  V30 7925 C 759.712 4.07786 3.40418 0
M  V30 7926 C 758.751 5.26383 3.1239 0
M  V30 7927 N 757.888 5.55685 4.29138 0
M  V30 7928 H 762.728 2.90043 0.684018 0
M  V30 7929 H 760.265 1.43438 0.326183 0
M  V30 7930 H 762.223 2.72639 3.15791 0
M  V30 7931 H 760.853 1.65186 2.77333 0
M  V30 7932 H 759.905 3.57389 1.30296 0
M  V30 7933 H 761.217 4.60659 1.91298 0
M  V30 7934 H 760.371 4.32759 4.25211 0
M  V30 7935 H 759.11 3.19817 3.68197 0
M  V30 7936 H 758.115 5.01206 2.25993 0
M  V30 7937 H 759.34 6.1597 2.85934 0
M  V30 7938 H 757.286 4.70675 4.56948 0
M  V30 7939 H 757.203 6.3664 4.07708 0
M  V30 7940 H 758.471 5.85209 5.14928 0
M  V30 7941 N 762.7 -0.34323 1.53817 0
M  V30 7942 C 763.928 -1.10348 1.75017 0
M  V30 7943 C 764.343 -1.82345 0.489475 0
M  V30 7944 O 763.7 -1.74362 -0.538886 0
M  V30 7945 C 763.751 -2.11672 2.93048 0
M  V30 7946 O 763.472 -1.42603 4.14241 0
M  V30 7947 C 764.973 -3.0007 3.26301 0
M  V30 7948 H 762.193 -0.329056 0.584776 0
M  V30 7949 H 764.737 -0.395339 2.00642 0
M  V30 7950 H 762.892 -2.78051 2.69753 0
M  V30 7951 H 763.306 -2.10294 4.80496 0
M  V30 7952 H 764.78 -3.67101 4.12239 0
M  V30 7953 H 765.257 -3.66105 2.42618 0
M  V30 7954 H 765.863 -2.3928 3.51604 0
M  V30 7955 N 764.178 -1.45556 -0.604258 0
M  V30 7956 C 765.108 -1.57327 -1.72541 0
M  V30 7957 C 766.089 -0.424637 -1.64714 0
M  V30 7958 O 767.274 -0.648196 -1.83063 0
M  V30 7959 C 764.404 -1.54279 -3.11152 0
M  V30 7960 C 763.358 -2.67893 -3.33792 0
M  V30 7961 C 762.684 -2.499 -4.72709 0
M  V30 7962 C 763.984 -4.0988 -3.23722 0
M  V30 7963 H 765.678 -2.51175 -1.62947 0
M  V30 7964 H 763.224 -1.20884 -0.782504 0
M  V30 7965 H 765.177 -1.6111 -3.89386 0
M  V30 7966 H 763.901 -0.569627 -3.21594 0
M  V30 7967 H 762.56 -2.60495 -2.57949 0
M  V30 7968 H 762.208 -1.50715 -4.79889 0
M  V30 7969 H 761.908 -3.26091 -4.88813 0
M  V30 7970 H 763.432 -2.5859 -5.5314 0
M  V30 7971 H 764.846 -4.18503 -3.91826 0
M  V30 7972 H 763.243 -4.86487 -3.51355 0
M  V30 7973 H 764.313 -4.31553 -2.21111 0
M  V30 7974 N 765.656 0.84705 -1.32902 0
M  V30 7975 C 766.881 1.63925 -1.27056 0
M  V30 7976 C 767.306 1.87443 0.157136 0
M  V30 7977 O 766.664 1.43266 1.11106 0
M  V30 7978 C 766.712 2.97134 -2.04313 0
M  V30 7979 O 765.816 3.88049 -1.39614 0
M  V30 7980 H 765.157 0.499477 -0.437514 0
M  V30 7981 H 767.687 1.05443 -1.75336 0
M  V30 7982 H 767.697 3.46896 -2.14772 0
M  V30 7983 H 766.372 2.79339 -3.08128 0
M  V30 7984 H 764.949 3.46525 -1.3775 0
M  V30 7985 N 767.134 1.16236 1.06428 0
M  V30 7986 C 768.097 0.870163 2.1204 0
M  V30 7987 C 769.097 -0.134239 1.60239 0
M  V30 7988 O 770.287 0.0964932 1.73933 0
M  V30 7989 C 767.419 0.301033 3.39568 0
M  V30 7990 H 768.612 1.8064 2.39394 0
M  V30 7991 H 766.165 0.971116 1.2247 0
M  V30 7992 H 766.9 -0.642948 3.17863 0
M  V30 7993 H 766.685 1.02475 3.78472 0
M  V30 7994 H 768.175 0.114494 4.17443 0
M  V30 7995 N 768.612 -1.24939 0.960631 0
M  V30 7996 C 769.837 -1.9742 0.635608 0
M  V30 7997 C 770.262 -1.70857 -0.786737 0
M  V30 7998 O 769.62 -0.968063 -1.53291 0
M  V30 7999 C 769.668 -3.48987 0.907771 0
M  V30 8000 O 768.772 -4.12399 -0.0104053 0
M  V30 8001 H 768.113 -0.61871 0.241027 0
M  V30 8002 H 770.643 -1.58901 1.28886 0
M  V30 8003 H 770.653 -3.99334 0.836453 0
M  V30 8004 H 769.328 -3.6765 1.94439 0
M  V30 8005 H 767.905 -3.72727 0.113631 0
M  V30 8006 N 770.09 -0.729906 -1.39679 0
M  V30 8007 C 771.04 -0.0627678 -2.27914 0
M  V30 8008 C 772.024 0.717867 -1.43998 0
M  V30 8009 O 773.216 0.587713 -1.66958 0
M  V30 8010 C 770.345 0.847564 -3.32673 0
M  V30 8011 C 769.431 0.0613515 -4.24056 0
M  V30 8012 N 769.822 -0.962863 -4.96551 0
M  V30 8013 C 768.12 0.291773 -4.45045 0
M  V30 8014 C 768.821 -1.43652 -5.63683 0
M  V30 8015 N 767.797 -0.756044 -5.38317 0
M  V30 8016 H 771.599 -0.847545 -2.81414 0
M  V30 8017 H 769.113 -0.563776 -1.523 0
M  V30 8018 H 771.11 1.34094 -3.94746 0
M  V30 8019 H 769.77 1.63156 -2.80732 0
M  V30 8020 H 770.781 -1.34409 -5.00154 0
M  V30 8021 H 767.458 1.05097 -4.04056 0
M  V30 8022 H 768.848 -2.28835 -6.31731 0
M  V30 8023 N 771.568 1.50203 -0.477153 0
M  V30 8024 C 772.984 1.59056 -0.131663 0
M  V30 8025 C 773.184 1.48473 1.36227 0
M  V30 8026 O 772.24 1.34635 2.13611 0
M  V30 8027 C 773.553 2.92741 -0.687254 0
M  V30 8028 C 775.101 3.0615 -0.651223 0
M  V30 8029 C 775.576 4.42419 -1.18446 0
M  V30 8030 N 777.067 4.48847 -1.14413 0
M  V30 8031 C 777.802 5.52689 -1.52717 0
M  V30 8032 N 777.298 6.63754 -1.98499 0
M  V30 8033 N 779.091 5.43267 -1.44282 0
M  V30 8034 H 771.242 1.55325 -1.44872 0
M  V30 8035 H 773.505 0.734395 -0.599473 0
M  V30 8036 H 773.211 3.0598 -1.73405 0
M  V30 8037 H 773.085 3.76961 -0.134215 0
M  V30 8038 H 775.472 2.92556 0.386677 0
M  V30 8039 H 775.553 2.23673 -1.24114 0
M  V30 8040 H 775.197 4.56763 -2.22103 0
M  V30 8041 H 775.127 5.23498 -0.570709 0
M  V30 8042 H 777.618 3.69152 -0.808416 0
M  V30 8043 H 777.931 7.39059 -2.25859 0
M  V30 8044 H 776.276 6.64858 -2.02456 0
M  V30 8045 H 779.467 4.55387 -1.08352 0
M  V30 8046 H 779.64 6.24074 -1.74459 0
M  V30 8047 N 773.046 0.209999 1.56195 0
M  V30 8048 C 774.274 -0.429996 2.02382 0
M  V30 8049 C 774.689 -1.54159 1.08998 0
M  V30 8050 O 774.046 -1.82239 0.0974856 0
M  V30 8051 C 774.097 -0.972433 3.48175 0
M  V30 8052 O 773.818 0.0948231 4.37997 0
M  V30 8053 C 775.319 -1.68683 4.09952 0
M  V30 8054 H 772.539 -0.106475 0.662498 0
M  V30 8055 H 775.083 0.323072 2.01932 0
M  V30 8056 H 773.238 -1.67582 3.49278 0
M  V30 8057 H 773.652 -0.31113 5.23576 0
M  V30 8058 H 775.126 -2.01851 5.13771 0
M  V30 8059 H 775.603 -2.59587 3.54276 0
M  V30 8060 H 776.209 -1.02893 4.12666 0
M  V30 8061 N 774.524 -1.57472 -0.0634922 0
M  V30 8062 C 775.764 -1.89491 -0.766312 0
M  V30 8063 C 776.128 -0.80475 -1.74321 0
M  V30 8064 O 777.329 -1.00825 -2.49174 0
M  V30 8065 C 775.6 -3.26731 -1.44851 0
M  V30 8066 S 777.159 -3.80516 -2.18525 0
M  V30 8067 H 773.977 -0.663832 -0.254653 0
M  V30 8068 H 776.579 -1.95488 -0.0220867 0
M  V30 8069 H 775.283 -4.03967 -0.723824 0
M  V30 8070 H 774.814 -3.23953 -2.232 0
M  V30 8071 H 776.829 -3.5647 -3.45172 0
M  V30 8072 N 776.003 0.335068 -1.53997 0
M  V30 8073 C 777.233 1.0926 -1.75345 0
M  V30 8074 C 777.641 1.82568 -0.496545 0
M  V30 8075 O 776.984 1.75525 0.541897 0
M  V30 8076 C 777.046 2.14473 -2.88516 0
M  V30 8077 C 776.71 1.60665 -4.27827 0
M  V30 8078 C 777.707 1.05448 -5.09094 0
M  V30 8079 C 775.392 1.65255 -4.74337 0
M  V30 8080 C 777.386 0.555372 -6.34976 0
M  V30 8081 C 775.073 1.14956 -6.0019 0
M  V30 8082 C 776.071 0.601907 -6.80343 0
M  V30 8083 O 775.759 0.106445 -8.0383 0
M  V30 8084 H 775.491 0.331329 -0.589234 0
M  V30 8085 H 778.045 0.39042 -2.01655 0
M  V30 8086 H 776.275 2.88274 -2.5775 0
M  V30 8087 H 777.964 2.75857 -2.97755 0
M  V30 8088 H 778.73 1.01218 -4.74321 0
M  V30 8089 H 774.609 2.06822 -4.12002 0
M  V30 8090 H 778.153 0.127245 -6.97484 0
M  V30 8091 H 774.05 1.18891 -6.34457 0
M  V30 8092 H 774.818 0.222944 -8.18196 0
M  V30 8093 N 777.481 1.45874 0.596531 0
M  V30 8094 C 778.411 1.5824 1.71705 0
M  V30 8095 C 779.392 0.433366 1.64487 0
M  V30 8096 O 780.577 0.657895 1.82717 0
M  V30 8097 C 777.707 1.55927 3.10329 0
M  V30 8098 C 776.661 2.69659 3.32367 0
M  V30 8099 C 775.987 2.52403 4.71377 0
M  V30 8100 C 777.287 4.11591 3.21544 0
M  V30 8101 H 778.981 2.52035 1.61613 0
M  V30 8102 H 776.527 1.21297 0.776082 0
M  V30 8103 H 778.48 1.63173 3.88526 0
M  V30 8104 H 777.204 0.586674 3.21288 0
M  V30 8105 H 775.863 2.61859 2.56564 0
M  V30 8106 H 775.511 1.53258 4.79083 0
M  V30 8107 H 775.211 3.28679 4.87077 0
M  V30 8108 H 776.735 2.6152 5.5176 0
M  V30 8109 H 778.149 4.20576 3.89601 0
M  V30 8110 H 776.546 4.88344 3.4877 0
M  V30 8111 H 777.616 4.32719 2.1882 0
M  V30 8112 N 778.959 -0.83999 1.33349 0
M  V30 8113 C 780.205 -1.59753 1.24927 0
M  V30 8114 C 780.538 -1.93318 -0.184855 0
M  V30 8115 O 779.813 -1.586 -1.12589 0
M  V30 8116 C 780.096 -2.90829 2.12345 0
M  V30 8117 C 779.949 -2.63953 3.6421 0
M  V30 8118 C 781.268 -3.92246 1.99577 0
M  V30 8119 H 778.387 -0.579654 0.45516 0
M  V30 8120 H 781.029 -0.968909 1.63439 0
M  V30 8121 H 779.179 -3.44478 1.79631 0
M  V30 8122 H 780.851 -2.16745 4.07209 0
M  V30 8123 H 779.094 -1.97671 3.86146 0
M  V30 8124 H 779.765 -3.57348 4.20721 0
M  V30 8125 H 782.241 -3.479 2.28265 0
M  V30 8126 H 781.117 -4.81793 2.62996 0
M  V30 8127 H 781.378 -4.3138 0.967673 0
M  V30 8128 N 780.437 -1.16799 -1.0581 0
M  V30 8129 C 781.665 -0.97687 -1.82387 0
M  V30 8130 C 782.08 0.474917 -1.82729 0
M  V30 8131 O 781.437 1.3297 -1.25001 0
M  V30 8132 C 781.488 -1.50279 -3.28783 0
M  V30 8133 O 781.209 -2.89772 -3.28578 0
M  V30 8134 C 782.71 -1.35538 -4.22071 0
M  V30 8135 H 779.93 -0.345977 -0.574927 0
M  V30 8136 H 782.474 -1.54942 -1.33466 0
M  V30 8137 H 780.629 -0.972414 -3.74997 0
M  V30 8138 H 781.043 -3.13954 -4.20159 0
M  V30 8139 H 782.517 -1.7716 -5.22799 0
M  V30 8140 H 782.994 -0.301598 -4.38163 0
M  V30 8141 H 783.6 -1.87562 -3.81708 0
M  V30 8142 N 781.915 1.24427 -0.967243 0
M  V30 8143 C 782.847 2.24641 -0.454856 0
M  V30 8144 C 783.86 1.56849 0.436152 0
M  V30 8145 O 785.049 1.76846 0.242401 0
M  V30 8146 C 782.149 3.36954 0.362672 0
M  V30 8147 C 781.322 4.34318 -0.518324 0
M  V30 8148 C 780.381 5.25638 0.243122 0
M  V30 8149 O 779.407 5.68043 -0.362791 0
M  V30 8150 N 780.609 5.59897 1.53282 0
M  V30 8151 H 783.374 2.69238 -1.31648 0
M  V30 8152 H 780.935 1.38464 -0.839015 0
M  V30 8153 H 782.927 3.95014 0.880094 0
M  V30 8154 H 781.497 2.91646 1.12522 0
M  V30 8155 H 780.717 3.74953 -1.21672 0
M  V30 8156 H 782.005 4.96338 -1.11919 0
M  V30 8157 H 781.403 5.27373 2.04682 0
M  V30 8158 H 779.96 6.20488 1.99594 0
M  V30 8159 N 783.393 0.737304 1.3929 0
M  V30 8160 C 784.323 0.113988 2.33222 0
M  V30 8161 C 785.304 -0.721695 1.54031 0
M  V30 8162 O 786.489 -0.666206 1.82415 0
M  V30 8163 C 783.619 -0.792319 3.38141 0
M  V30 8164 C 782.573 -0.0606178 4.27957 0
M  V30 8165 C 781.899 -1.08409 5.23595 0
M  V30 8166 C 783.199 1.09817 5.10625 0
M  V30 8167 H 784.893 0.898611 2.85596 0
M  V30 8168 H 782.439 0.433571 1.37318 0
M  V30 8169 H 784.392 -1.23793 4.02807 0
M  V30 8170 H 783.116 -1.60908 2.84211 0
M  V30 8171 H 781.775 0.365393 3.64775 0
M  V30 8172 H 781.423 -1.89449 4.6596 0
M  V30 8173 H 781.123 -0.599269 5.84536 0
M  V30 8174 H 782.647 -1.52936 5.91137 0
M  V30 8175 H 784.061 0.730892 5.68622 0
M  V30 8176 H 782.458 1.51278 5.80719 0
M  V30 8177 H 783.528 1.91878 4.45321 0
M  V30 8178 O 784.91 -1.48837 0.626876 0
M  V30 8179 H 785.601 -1.93161 0.14443 0
M  V30 END ATOM
M  V30 BEGIN BOND
M  V30 END BOND
M  V30 END CTAB
M  END
$$$$
