drugbank_target|Q9UHF0 Tachykinin-3 (DB09130)
 OpenBabel12092121073D

  0  0  0     0  0            999 V3000
M  V30 BEGIN CTAB
M  V30 COUNTS 1893 1913 0 0 0
M  V30 BEGIN ATOM
M  V30 1 H -0.908 1.98254 -0.117106 0
M  V30 2 N 0 1.576 0 0
M  V30 3 C 0.933 2.03868 1.02534 0
M  V30 4 C 1.911 0.928543 1.3348 0
M  V30 5 O 3.095 1.19667 1.45644 0
M  V30 6 C 0.222 2.43627 2.35294 0
M  V30 7 C -0.732 3.65373 2.2001 0
M  V30 8 S 0.101 5.13292 1.52614 0
M  V30 9 C 1.257 5.56322 2.86805 0
M  V30 10 H 1.49 2.90518 0.631377 0
M  V30 11 H -0.977 1.52953 0.210867 0
M  V30 12 H 0.981 2.67203 3.11629 0
M  V30 13 H -0.358 1.57376 2.7183 0
M  V30 14 H -1.165 3.90944 3.18086 0
M  V30 15 H -1.563 3.418 1.51819 0
M  V30 16 H 0.729 5.58782 3.83104 0
M  V30 17 H 1.672 6.56266 2.65933 0
M  V30 18 H 2.08 4.83886 2.90714 0
M  V30 19 N 1.4781 -0.272755 1.55222 0
M  V30 20 C 2.8941 -0.619959 1.47067 0
M  V30 21 C 3.0941 -1.895 0.684978 0
M  V30 22 O 2.1501 -2.51675 0.203931 0
M  V30 23 C 3.4631 -0.746693 2.91282 0
M  V30 24 C 5.0111 -0.840731 3.01497 0
M  V30 25 C 5.4861 -0.99924 4.46967 0
M  V30 26 N 6.9771 -1.06476 4.50796 0
M  V30 27 C 7.7121 -1.20621 5.6057 0
M  V30 28 N 7.2081 -1.31483 6.80209 0
M  V30 29 N 9.0011 -1.23733 5.48312 0
M  V30 30 H 1.1521 0.564606 2.04758 0
M  V30 31 H 3.4151 0.191177 0.928523 0
M  V30 32 H 3.1211 0.119753 3.51496 0
M  V30 33 H 2.9951 -1.6269 3.40311 0
M  V30 34 H 5.3821 -1.69764 2.41379 0
M  V30 35 H 5.4631 0.0640874 2.5572 0
M  V30 36 H 5.1071 -0.146984 5.07687 0
M  V30 37 H 5.0371 -1.91871 4.90401 0
M  V30 38 H 7.5281 -0.993196 3.64615 0
M  V30 39 H 7.8411 -1.42111 7.59621 0
M  V30 40 H 6.1861 -1.28487 6.8302 0
M  V30 41 H 9.3771 -1.14877 4.53785 0
M  V30 42 H 9.5501 -1.34412 6.33906 0
M  V30 43 N 2.9562 -1.48159 -0.537278 0
M  V30 44 C 4.2052 -1.5506 -1.28993 0
M  V30 45 C 4.5182 -0.226211 -1.94288 0
M  V30 46 O 5.7242 -0.173395 -2.70946 0
M  V30 47 C 4.1802 -2.73429 -2.34018 0
M  V30 48 C 3.7882 -4.1248 -1.74825 0
M  V30 49 C 5.5322 -2.89638 -3.10339 0
M  V30 50 C 3.4392 -5.22121 -2.77747 0
M  V30 51 H 2.3692 -0.577231 -0.485098 0
M  V30 52 H 5.0202 -1.74478 -0.568317 0
M  V30 53 H 3.4022 -2.47431 -3.09182 0
M  V30 54 H 4.5762 -4.48466 -1.05899 0
M  V30 55 H 2.8912 -4.01327 -1.11022 0
M  V30 56 H 5.4882 -3.68718 -3.87235 0
M  V30 57 H 5.8312 -1.9882 -3.65754 0
M  V30 58 H 6.3642 -3.15502 -2.42288 0
M  V30 59 H 3.1032 -6.1488 -2.27161 0
M  V30 60 H 2.6232 -4.90631 -3.45024 0
M  V30 61 H 4.3022 -5.49924 -3.4087 0
M  V30 62 N 4.4343 0.785586 -1.36625 0
M  V30 63 C 5.3673 1.90509 -1.25625 0
M  V30 64 C 6.3453 1.62 -0.139607 0
M  V30 65 O 7.5293 1.8591 -0.31141 0
M  V30 66 C 4.6563 3.25419 -0.939158 0
M  V30 67 C 3.7023 3.72856 -2.07077 0
M  V30 68 S 4.5353 3.88162 -3.68904 0
M  V30 69 C 5.6913 5.25942 -3.39317 0
M  V30 70 H 5.9243 1.99549 -2.20381 0
M  V30 71 H 3.4573 0.945226 -1.22085 0
M  V30 72 H 5.4153 4.03346 -0.763029 0
M  V30 73 H 4.0763 3.14099 -0.00931402 0
M  V30 74 H 3.2693 4.70624 -1.80357 0
M  V30 75 H 2.8713 3.01989 -2.20632 0
M  V30 76 H 5.1633 6.10651 -2.93447 0
M  V30 77 H 6.1063 5.57668 -4.36363 0
M  V30 78 H 6.5143 4.93224 -2.74573 0
M  V30 79 N 5.9124 1.20967 1.01018 0
M  V30 80 C 6.8424 0.988272 2.11555 0
M  V30 81 C 7.8234 -0.0849778 1.69888 0
M  V30 82 O 9.0084 0.0738202 1.9406 0
M  V30 83 C 6.1384 0.546528 3.42973 0
M  V30 84 C 5.0924 1.56375 3.9841 0
M  V30 85 C 4.4184 0.97842 5.25672 0
M  V30 86 C 5.7184 2.94922 4.31066 0
M  V30 87 H 7.4124 1.91276 2.30334 0
M  V30 88 H 4.9584 0.921073 1.1069 0
M  V30 89 H 6.9114 0.378839 4.19694 0
M  V30 90 H 5.6354 -0.413598 3.23971 0
M  V30 91 H 4.2944 1.71891 3.23804 0
M  V30 92 H 3.9424 0.0101688 5.02999 0
M  V30 93 H 3.6424 1.65784 5.63728 0
M  V30 94 H 5.1664 0.821939 6.05043 0
M  V30 95 H 6.5804 2.8288 4.9865 0
M  V30 96 H 4.9774 3.5983 4.80253 0
M  V30 97 H 6.0474 3.4616 3.39561 0
M  V30 98 N 7.3905 -1.2043 1.01659 0
M  V30 99 C 8.3205 -2.25466 0.607226 0
M  V30 100 C 9.3015 -1.65853 -0.377716 0
M  V30 101 O 10.4865 -1.92409 -0.263149 0
M  V30 102 C 7.6165 -3.47256 -0.0552949 0
M  V30 103 C 6.5705 -4.19462 0.850632 0
M  V30 104 C 5.8965 -5.34673 0.0538859 0
M  V30 105 C 7.1965 -4.75603 2.15868 0
M  V30 106 H 8.8905 -2.59962 1.48526 0
M  V30 107 H 6.4365 -1.2496 0.715605 0
M  V30 108 H 8.3895 -4.19917 -0.353233 0
M  V30 109 H 7.1135 -3.11924 -0.968045 0
M  V30 110 H 5.7725 -3.48667 1.13257 0
M  V30 111 H 5.4205 -4.95585 -0.860514 0
M  V30 112 H 5.1205 -5.83913 0.657192 0
M  V30 113 H 6.6445 -6.10138 -0.237598 0
M  V30 114 H 8.0585 -5.40083 1.92311 0
M  V30 115 H 6.4555 -5.3528 2.71284 0
M  V30 116 H 7.5255 -3.94346 2.82169 0
M  V30 117 N 8.8686 -0.792821 -1.36206 0
M  V30 118 C 10.1156 -0.366786 -1.99151 0
M  V30 119 C 10.4436 1.06243 -1.62919 0
M  V30 120 O 9.6986 1.74927 -0.877442 0
M  V30 121 C 9.9976 -0.481501 -3.54142 0
M  V30 122 C 9.6636 -1.87202 -4.10203 0
M  V30 123 C 8.3256 -2.25248 -4.25226 0
M  V30 124 C 10.6776 -2.78237 -4.40719 0
M  V30 125 C 8.0056 -3.53723 -4.68078 0
M  V30 126 C 10.3576 -4.06144 -4.85005 0
M  V30 127 C 9.0216 -4.44207 -4.98234 0
M  V30 128 H 8.2916 -0.134217 -0.728743 0
M  V30 129 H 10.9386 -1.01094 -1.62641 0
M  V30 130 H 9.2436 0.246146 -3.91026 0
M  V30 131 H 10.9406 -0.132844 -4.0078 0
M  V30 132 H 7.5306 -1.56639 -3.98951 0
M  V30 133 H 11.7146 -2.50097 -4.28679 0
M  V30 134 H 6.9706 -3.8308 -4.76508 0
M  V30 135 H 11.1446 -4.76796 -5.07581 0
M  V30 136 H 8.7716 -5.43814 -5.31197 0
M  V30 137 N 10.3467 1.47872 -0.545128 0
M  V30 138 C 11.5747 2.06889 -0.021084 0
M  V30 139 C 11.9897 1.39955 1.2672 0
M  V30 140 O 11.3467 0.492036 1.75742 0
M  V30 141 C 11.3977 3.60996 0.190817 0
M  V30 142 O 11.1187 4.25419 -1.04644 0
M  V30 143 C 12.6197 4.36849 0.753521 0
M  V30 144 H 9.8397 0.669785 -0.0403635 0
M  V30 145 H 12.3837 1.90049 -0.755095 0
M  V30 146 H 10.5387 3.77391 0.87492 0
M  V30 147 H 10.9527 5.17785 -0.836611 0
M  V30 148 H 12.4267 5.45399 0.851139 0
M  V30 149 H 12.9037 4.02306 1.762 0
M  V30 150 H 13.5097 4.25169 0.105503 0
M  V30 151 N 11.8248 0.280983 1.55075 0
M  V30 152 C 12.7878 -0.590896 2.21452 0
M  V30 153 C 13.7878 -1.07682 1.19421 0
M  V30 154 O 14.9778 -0.97605 1.44288 0
M  V30 155 C 12.1098 -1.81587 2.88511 0
M  V30 156 H 13.3028 -0.0112554 2.99898 0
M  V30 157 H 10.8558 0.0316438 1.56268 0
M  V30 158 H 11.5908 -2.43587 2.14093 0
M  V30 159 H 11.3758 -1.4753 3.63287 0
M  V30 160 H 12.8658 -2.43575 3.39206 0
M  V30 161 N 13.3029 -1.57598 0.00835791 0
M  V30 162 C 14.5519 -1.90107 -0.673968 0
M  V30 163 C 14.8649 -0.884275 -1.7447 0
M  V30 164 O 16.0709 -1.09987 -2.48224 0
M  V30 165 C 14.5269 -3.37497 -1.24995 0
M  V30 166 C 14.1349 -4.47491 -0.2136 0
M  V30 167 C 15.8789 -3.79104 -1.90999 0
M  V30 168 C 13.7859 -5.85963 -0.80005 0
M  V30 169 H 12.7159 -0.709393 -0.255495 0
M  V30 170 H 15.3669 -1.83365 0.0702693 0
M  V30 171 H 13.7489 -3.39102 -2.04513 0
M  V30 172 H 14.9229 -4.57414 0.557596 0
M  V30 173 H 13.2379 -4.14956 0.346474 0
M  V30 174 H 15.8349 -4.79901 -2.35795 0
M  V30 175 H 16.1779 -3.1306 -2.74407 0
M  V30 176 H 16.7109 -3.79833 -1.18203 0
M  V30 177 H 13.4499 -6.555 -0.00456708 0
M  V30 178 H 12.9699 -5.79687 -1.54021 0
M  V30 179 H 14.6489 -6.33884 -1.29615 0
M  V30 180 N 14.781 0.264519 -1.55364 0
M  V30 181 C 15.711 1.33121 -1.91836 0
M  V30 182 C 16.692 1.51101 -0.781192 0
M  V30 183 O 17.877 1.64003 -1.04003 0
M  V30 184 C 15.007 2.68921 -2.19769 0
M  V30 185 C 13.961 2.65661 -3.35571 0
M  V30 186 C 13.287 4.05093 -3.49004 0
M  V30 187 C 14.587 2.24187 -4.71739 0
M  V30 188 H 16.281 1.02844 -2.81182 0
M  V30 189 H 13.827 0.493286 -1.35287 0
M  V30 190 H 15.78 3.43663 -2.43872 0
M  V30 191 H 14.504 3.00799 -1.27231 0
M  V30 192 H 13.163 1.93377 -3.1145 0
M  V30 193 H 12.811 4.34206 -2.53917 0
M  V30 194 H 12.511 4.03804 -4.26868 0
M  V30 195 H 14.035 4.81561 -3.75408 0
M  V30 196 H 15.449 2.88654 -4.9533 0
M  V30 197 H 13.846 2.34044 -5.52579 0
M  V30 198 H 14.916 1.19327 -4.69988 0
M  V30 199 N 16.2591 1.48442 0.529413 0
M  V30 200 C 17.2221 1.62524 1.61612 0
M  V30 201 C 18.2221 0.498509 1.52877 0
M  V30 202 O 19.4121 0.76431 1.56537 0
M  V30 203 C 16.5441 1.59597 3.01233 0
M  V30 204 H 17.7371 2.59423 1.50465 0
M  V30 205 H 15.2901 1.37047 0.751514 0
M  V30 206 H 16.0251 0.641781 3.17886 0
M  V30 207 H 15.8101 2.41397 3.08982 0
M  V30 208 H 17.3001 1.72646 3.80241 0
M  V30 209 N 17.7372 -0.778329 1.37039 0
M  V30 210 C 18.9842 -1.53665 1.31884 0
M  V30 211 C 19.3122 -1.9425 -0.0986303 0
M  V30 212 O 18.5672 -1.63832 -1.07041 0
M  V30 213 C 18.8662 -2.81845 2.19768 0
M  V30 214 C 18.5322 -2.60345 3.68146 0
M  V30 215 C 17.1942 -2.5419 4.08584 0
M  V30 216 C 19.5462 -2.40923 4.62175 0
M  V30 217 C 16.8742 -2.26594 5.41177 0
M  V30 218 C 19.2262 -2.14852 5.94997 0
M  V30 219 C 17.8902 -2.07137 6.34547 0
M  V30 220 H 17.1602 -0.562299 0.482598 0
M  V30 221 H 19.8072 -0.897069 1.69189 0
M  V30 222 H 18.1122 -3.50328 1.75436 0
M  V30 223 H 19.8092 -3.39692 2.13097 0
M  V30 224 H 16.3992 -2.65996 3.36072 0
M  V30 225 H 20.5832 -2.44673 4.31797 0
M  V30 226 H 15.8392 -2.19111 5.70789 0
M  V30 227 H 20.0132 -1.98822 6.67415 0
M  V30 228 H 17.6402 -1.85518 7.37216 0
M  V30 229 N 19.2153 -1.21501 -1.00376 0
M  V30 230 C 20.4403 -1.05977 -1.78279 0
M  V30 231 C 20.8653 0.385994 -1.84097 0
M  V30 232 O 20.2233 1.27849 -1.28547 0
M  V30 233 C 20.2713 -1.66302 -3.19963 0
M  V30 234 O 19.3753 -0.909333 -4.0225 0
M  V30 235 H 18.7163 -0.372906 -0.549397 0
M  V30 236 H 21.2463 -1.6107 -1.26165 0
M  V30 237 H 21.2563 -1.70574 -3.70632 0
M  V30 238 H 19.9313 -2.71515 -3.15043 0
M  V30 239 H 18.5083 -0.941795 -3.60811 0
M  V30 240 N 20.6934 1.19889 -1.02296 0
M  V30 241 C 21.6234 2.25141 -0.619174 0
M  V30 242 C 22.6044 1.66051 0.368915 0
M  V30 243 O 23.7894 1.92546 0.252941 0
M  V30 244 C 20.9194 3.4728 0.0368783 0
M  V30 245 C 19.8734 4.19005 -0.872865 0
M  V30 246 C 19.1994 5.34637 -0.0822402 0
M  V30 247 C 20.4994 4.74452 -2.18387 0
M  V30 248 H 22.1934 2.59171 -1.49903 0
M  V30 249 H 19.7394 1.24579 -0.722222 0
M  V30 250 H 21.6924 4.20098 0.330958 0
M  V30 251 H 20.4164 3.12433 0.95149 0
M  V30 252 H 19.0754 3.48061 -1.15105 0
M  V30 253 H 18.7234 4.96034 0.83422 0
M  V30 254 H 18.4234 5.83557 -0.688149 0
M  V30 255 H 19.9474 6.10255 0.205238 0
M  V30 256 H 21.3614 5.39055 -1.95172 0
M  V30 257 H 19.7584 5.33834 -2.74119 0
M  V30 258 H 20.8284 3.92844 -2.84257 0
M  V30 259 N 22.1715 0.800033 1.35784 0
M  V30 260 C 23.1345 0.211565 2.28221 0
M  V30 261 C 24.1345 -0.59728 1.49296 0
M  V30 262 O 25.3245 -0.416721 1.69142 0
M  V30 263 C 22.4565 -0.705846 3.33513 0
M  V30 264 H 23.6495 1.02677 2.81776 0
M  V30 265 H 21.2025 0.570211 1.45528 0
M  V30 266 H 21.9375 -1.54498 2.85133 0
M  V30 267 H 21.7225 -0.127655 3.91892 0
M  V30 268 H 23.2125 -1.11211 4.02519 0
M  V30 269 N 23.6496 -1.47581 0.552962 0
M  V30 270 C 24.5816 -2.27997 -0.234533 0
M  V30 271 C 25.5946 -1.36753 -0.883321 0
M  V30 272 O 26.7836 -1.61612 -0.757889 0
M  V30 273 C 23.8836 -3.10879 -1.34935 0
M  V30 274 C 23.0566 -4.30056 -0.798158 0
M  V30 275 C 22.1156 -4.94567 -1.79694 0
M  V30 276 O 21.1416 -5.53087 -1.34474 0
M  V30 277 N 22.3436 -4.88878 -3.13015 0
M  V30 278 H 25.1086 -2.96222 0.455255 0
M  V30 279 H 22.6696 -1.57163 0.388761 0
M  V30 280 H 24.6616 -3.50903 -2.01616 0
M  V30 281 H 23.2316 -2.44924 -1.94244 0
M  V30 282 H 22.4516 -3.94174 0.0453079 0
M  V30 283 H 23.7396 -5.07152 -0.409173 0
M  V30 284 H 23.1376 -4.42526 -3.52402 0
M  V30 285 H 21.6946 -5.32934 -3.75266 0
M  V30 286 N 25.1277 -0.289203 -1.54924 0
M  V30 287 C 26.3527 0.329299 -2.04769 0
M  V30 288 C 26.7777 1.4763 -1.16564 0
M  V30 289 O 26.1357 1.80527 -0.167186 0
M  V30 290 C 26.1837 0.774438 -3.52186 0
M  V30 291 O 25.2877 1.88038 -3.67036 0
M  V30 292 H 24.6287 0.0659259 -0.660719 0
M  V30 293 H 27.1587 -0.42761 -2.00082 0
M  V30 294 H 27.1687 1.06642 -3.93816 0
M  V30 295 H 25.8437 -0.0646707 -4.1585 0
M  V30 296 H 24.4207 1.58985 -3.3731 0
M  V30 297 N 26.6058 1.57591 -0.0167156 0
M  V30 298 C 27.8528 1.91283 0.664597 0
M  V30 299 C 28.1808 0.891949 1.72842 0
M  V30 300 O 27.4358 -0.100931 1.9544 0
M  V30 301 C 27.7348 3.3172 1.33029 0
M  V30 302 C 27.4008 4.4914 0.398047 0
M  V30 303 C 26.0628 4.80992 0.141421 0
M  V30 304 C 28.4148 5.20634 -0.242825 0
M  V30 305 C 25.7428 5.81703 -0.764092 0
M  V30 306 C 28.0948 6.22311 -1.13632 0
M  V30 307 C 26.7588 6.52611 -1.40196 0
M  V30 308 H 26.0288 0.699956 0.243193 0
M  V30 309 H 28.6758 1.9135 -0.0758267 0
M  V30 310 H 26.9808 3.27856 2.14517 0
M  V30 311 H 28.6778 3.55055 1.86379 0
M  V30 312 H 25.2678 4.24262 0.608238 0
M  V30 313 H 29.4518 4.96267 -0.0576019 0
M  V30 314 H 24.7078 6.03532 -0.977732 0
M  V30 315 H 28.8818 6.76834 -1.63917 0
M  V30 316 H 26.5088 7.30467 -2.10529 0
M  V30 317 N 28.0839 -0.256276 1.55502 0
M  V30 318 C 29.3319 -0.983672 1.76545 0
M  V30 319 C 29.6529 -1.86206 0.578982 0
M  V30 320 O 28.9229 -1.91656 -0.405577 0
M  V30 321 H 27.5029 -0.366191 0.651086 0
M  V30 322 H 30.1649 -0.276479 1.92929 0
M  V30 323 H 29.2609 -1.61087 2.67315 0
M  V30 324 N 29.562 -1.4872 -0.521534 0
M  V30 325 C 30.525 -1.63379 -1.60748 0
M  V30 326 C 31.525 -0.50661 -1.52611 0
M  V30 327 O 32.715 -0.772601 -1.5613 0
M  V30 328 C 29.847 -1.61192 -3.00383 0
M  V30 329 H 31.04 -2.60217 -1.49087 0
M  V30 330 H 28.593 -1.37444 -0.744235 0
M  V30 331 H 29.328 -0.65863 -3.17541 0
M  V30 332 H 29.113 -2.43032 -3.07698 0
M  V30 333 H 30.603 -1.7466 -3.7932 0
M  V30 334 N 31.0401 0.771051 -1.3745 0
M  V30 335 C 32.2861 1.5319 -1.32894 0
M  V30 336 C 32.6191 1.94008 0.0862511 0
M  V30 337 O 31.8941 1.64124 1.04373 0
M  V30 338 C 32.1771 2.79648 -2.26868 0
M  V30 339 C 32.0301 2.45079 -3.77169 0
M  V30 340 C 33.3491 3.81583 -2.19277 0
M  V30 341 H 30.4681 0.555744 -0.484064 0
M  V30 342 H 33.1101 0.884492 -1.68157 0
M  V30 343 H 31.2601 3.34891 -1.96926 0
M  V30 344 H 32.9321 1.95745 -4.1771 0
M  V30 345 H 31.1751 1.77767 -3.95704 0
M  V30 346 H 31.8461 3.35478 -4.38359 0
M  V30 347 H 34.3221 3.35835 -2.45671 0
M  V30 348 H 33.1981 4.67787 -2.87171 0
M  V30 349 H 33.4591 4.25897 -1.18592 0
M  V30 350 N 32.5182 1.22032 0.997298 0
M  V30 351 C 33.7582 1.05375 1.75144 0
M  V30 352 C 34.1222 -0.404696 1.87686 0
M  V30 353 O 35.3232 -0.691998 2.5974 0
M  V30 354 C 33.5942 1.74046 3.12158 0
M  V30 355 S 35.1532 1.72745 4.03366 0
M  V30 356 H 31.9712 0.377449 0.602539 0
M  V30 357 H 34.5732 1.54902 1.19272 0
M  V30 358 H 33.2772 2.79332 3.00669 0
M  V30 359 H 32.8082 1.24731 3.73103 0
M  V30 360 H 34.8232 0.774015 4.90126 0
M  V30 361 N 33.9963 -1.19345 1.0293 0
M  V30 362 C 34.9433 -2.2258 0.610464 0
M  V30 363 C 35.9133 -1.6179 -0.375946 0
M  V30 364 O 37.0983 -1.88844 -0.272511 0
M  V30 365 C 34.2383 -3.45085 -0.0321473 0
M  V30 366 C 33.3513 -4.20258 1.00035 0
M  V30 367 C 32.4863 -5.3019 0.32746 0
M  V30 368 C 31.5253 -5.97121 1.34584 0
M  V30 369 N 30.6623 -6.98615 0.698726 0
M  V30 370 H 35.5023 -2.57764 1.49538 0
M  V30 371 H 33.0393 -1.26644 0.748311 0
M  V30 372 H 34.9973 -4.15061 -0.421966 0
M  V30 373 H 33.6273 -3.10555 -0.88064 0
M  V30 374 H 32.6793 -3.49223 1.50823 0
M  V30 375 H 33.9913 -4.66175 1.77433 0
M  V30 376 H 33.1453 -6.06587 -0.11718 0
M  V30 377 H 31.8843 -4.85345 -0.478713 0
M  V30 378 H 30.8893 -5.19474 1.80074 0
M  V30 379 H 32.1143 -6.4405 2.15352 0
M  V30 380 H 30.0603 -6.55942 -0.0873471 0
M  V30 381 H 29.9773 -7.42724 1.41058 0
M  V30 382 H 31.2453 -7.79004 0.278102 0
M  V30 383 N 35.4744 -0.807222 -1.35358 0
M  V30 384 C 36.3844 -0.219594 -2.3357 0
M  V30 385 C 37.4004 0.637734 -1.61892 0
M  V30 386 O 38.5764 0.549336 -1.93763 0
M  V30 387 C 35.6414 0.62158 -3.41083 0
M  V30 388 C 34.7024 -0.256315 -4.28534 0
M  V30 389 C 33.9354 0.544807 -5.30912 0
M  V30 390 O 34.1584 1.77944 -5.41934 0
M  V30 391 O 33.0924 -0.0646478 -6.01865 0
M  V30 392 H 36.9184 -1.03208 -2.85625 0
M  V30 393 H 34.5034 -0.569025 -1.38139 0
M  V30 394 H 36.3854 1.10067 -4.06772 0
M  V30 395 H 35.0604 1.41165 -2.91297 0
M  V30 396 H 33.9674 -0.782559 -3.65823 0
M  V30 397 H 35.3004 -1.01034 -4.81719 0
M  V30 398 N 36.9525 1.47285 -0.560781 0
M  V30 399 C 38.3635 1.86258 -0.128343 0
M  V30 400 C 38.7145 1.46699 1.30284 0
M  V30 401 O 37.8395 0.871698 1.98067 0
M  V30 402 C 38.4345 3.38044 -0.22614 0
M  V30 403 C 36.9935 3.76096 0.151283 0
M  V30 404 C 36.1405 2.71335 -0.572084 0
M  V30 405 H 39.0915 1.38752 -0.770297 0
M  V30 406 H 39.1125 3.76441 0.554322 0
M  V30 407 H 38.6245 3.66806 -1.26788 0
M  V30 408 H 36.7255 3.52951 1.19399 0
M  V30 409 H 36.8385 4.78641 -0.209765 0
M  V30 410 H 35.2025 2.54696 -0.0147653 0
M  V30 411 H 35.9855 3.02938 -1.61504 0
M  V30 412 N 38.4306 0.297415 1.54768 0
M  V30 413 C 39.3626 -0.613881 2.20826 0
M  V30 414 C 40.3756 -1.10032 1.19987 0
M  V30 415 O 41.5646 -1.01839 1.46598 0
M  V30 416 C 38.6646 -1.852 2.83821 0
M  V30 417 C 37.8376 -1.50865 4.10559 0
M  V30 418 C 36.8966 -2.60154 4.57391 0
M  V30 419 O 35.9226 -2.25398 5.2267 0
M  V30 420 N 37.1246 -3.90629 4.29406 0
M  V30 421 H 39.8896 -0.048389 2.99661 0
M  V30 422 H 37.4506 0.11946 1.61459 0
M  V30 423 H 39.4426 -2.57652 3.12086 0
M  V30 424 H 38.0126 -2.32597 2.08847 0
M  V30 425 H 37.2326 -0.616925 3.89343 0
M  V30 426 H 38.5206 -1.25458 4.9309 0
M  V30 427 H 37.9186 -4.21677 3.77101 0
M  V30 428 H 36.4756 -4.59391 4.62388 0
M  V30 429 N 39.9087 -1.5758 0.0250728 0
M  V30 430 C 40.8187 -2.1343 -0.973905 0
M  V30 431 C 41.8347 -1.08556 -1.35984 0
M  V30 432 O 43.0107 -1.40592 -1.44207 0
M  V30 433 C 40.0757 -2.64703 -2.23904 0
M  V30 434 C 39.1367 -3.84276 -1.91391 0
M  V30 435 C 38.3697 -4.33095 -3.11873 0
M  V30 436 O 38.5927 -3.81107 -4.24398 0
M  V30 437 O 37.5267 -5.24984 -2.94406 0
M  V30 438 H 41.3527 -2.99057 -0.529036 0
M  V30 439 H 38.9377 -1.48118 -0.195288 0
M  V30 440 H 40.8197 -2.97769 -2.98181 0
M  V30 441 H 39.4947 -1.82161 -2.6758 0
M  V30 442 H 38.4017 -3.56143 -1.14511 0
M  V30 443 H 39.7347 -4.67968 -1.52534 0
M  V30 444 N 41.3868 0.248026 -1.55636 0
M  V30 445 C 42.2968 1.32859 -1.93354 0
M  V30 446 C 43.3128 1.52719 -0.833838 0
M  V30 447 O 44.4888 1.66363 -1.13513 0
M  V30 448 C 41.5538 2.66337 -2.21958 0
M  V30 449 C 40.6148 2.55008 -3.45354 0
M  V30 450 C 39.8478 3.82121 -3.72584 0
M  V30 451 O 40.0708 4.83951 -3.01907 0
M  V30 452 O 39.0048 3.80822 -4.6611 0
M  V30 453 H 42.8308 1.03862 -2.85388 0
M  V30 454 H 40.4158 0.448686 -1.42503 0
M  V30 455 H 42.2978 3.45216 -2.4167 0
M  V30 456 H 40.9728 2.95068 -1.33103 0
M  V30 457 H 39.8798 1.7442 -3.30951 0
M  V30 458 H 41.2128 2.31222 -4.34508 0
M  V30 459 N 42.8649 1.48995 0.513639 0
M  V30 460 C 44.1109 1.58076 1.27042 0
M  V30 461 C 44.4439 0.261026 1.92438 0
M  V30 462 O 43.7189 -0.734393 1.80103 0
M  V30 463 C 44.0019 2.73091 2.34719 0
M  V30 464 C 43.8549 4.14821 1.73907 0
M  V30 465 C 45.1739 2.83796 3.36375 0
M  V30 466 H 42.2929 0.575391 0.460536 0
M  V30 467 H 44.9349 1.81232 0.570516 0
M  V30 468 H 43.0849 2.53479 2.94416 0
M  V30 469 H 44.7569 4.45917 1.18135 0
M  V30 470 H 42.9999 4.21058 1.0437 0
M  V30 471 H 43.6709 4.91147 2.51949 0
M  V30 472 H 46.1469 3.01611 2.86653 0
M  V30 473 H 45.0229 3.65971 4.09093 0
M  V30 474 H 45.2839 1.92624 3.9793 0
M  V30 475 N 44.343 -0.763751 1.37857 0
M  V30 476 C 45.589 -1.52483 1.33704 0
M  V30 477 C 45.922 -1.94051 -0.0759612 0
M  V30 478 O 45.197 -1.64675 -1.03501 0
M  V30 479 C 45.48 -2.78441 2.28348 0
M  V30 480 C 45.333 -2.43075 3.78463 0
M  V30 481 C 46.652 -3.80415 2.21298 0
M  V30 482 H 43.771 -0.553169 0.487005 0
M  V30 483 H 46.413 -0.875562 1.68624 0
M  V30 484 H 44.563 -3.33842 1.987 0
M  V30 485 H 46.235 -1.93527 4.18742 0
M  V30 486 H 44.478 -1.75666 3.96641 0
M  V30 487 H 45.149 -3.33149 4.40132 0
M  V30 488 H 47.625 -3.34527 2.47449 0
M  V30 489 H 46.501 -4.66257 2.89647 0
M  V30 490 H 46.762 -4.25262 1.20849 0
M  V30 491 N 45.8211 -1.22559 -0.990812 0
M  V30 492 C 47.2321 -1.04791 -1.54518 0
M  V30 493 C 47.5831 0.387998 -1.92325 0
M  V30 494 O 46.7081 1.27328 -1.74976 0
M  V30 495 C 47.3031 -1.896 -2.80779 0
M  V30 496 C 45.8621 -1.76124 -3.32652 0
M  V30 497 C 45.0091 -1.8594 -2.05722 0
M  V30 498 H 47.9601 -1.36374 -0.811662 0
M  V30 499 H 47.9811 -1.41464 -3.53225 0
M  V30 500 H 47.4931 -2.94101 -2.53231 0
M  V30 501 H 45.5941 -0.743643 -3.65104 0
M  V30 502 H 45.7071 -2.58913 -4.03114 0
M  V30 503 H 44.0711 -1.29403 -2.19379 0
M  V30 504 H 44.8541 -2.91976 -1.80568 0
M  V30 505 N 47.2992 1.18797 -1.03562 0
M  V30 506 C 48.5472 1.88278 -0.734569 0
M  V30 507 C 48.8682 1.8043 0.739586 0
M  V30 508 O 48.1382 1.21925 1.53333 0
M  V30 509 H 46.7182 0.696991 -0.268725 0
M  V30 510 H 49.3802 1.44192 -1.31129 0
M  V30 511 H 48.4762 2.94443 -1.03489 0
M  V30 512 N 48.7773 0.814389 1.34928 0
M  V30 513 C 50.0253 0.397636 1.9815 0
M  V30 514 C 50.3463 -1.04069 1.64908 0
M  V30 515 O 49.6163 -1.72121 0.93548 0
M  V30 516 H 48.1963 0.144043 0.732981 0
M  V30 517 H 50.8583 1.04195 1.6471 0
M  V30 518 H 49.9543 0.509688 3.0791 0
M  V30 519 N 50.2554 -1.46986 0.568584 0
M  V30 520 C 51.5034 -2.02041 0.0487022 0
M  V30 521 C 51.8244 -1.44408 -1.31039 0
M  V30 522 O 51.0944 -0.623477 -1.85714 0
M  V30 523 H 49.6744 -0.746849 0.015014 0
M  V30 524 H 52.3364 -1.80257 0.741168 0
M  V30 525 H 51.4324 -3.12085 -0.0308961 0
M  V30 526 N 51.7335 -0.305618 -1.54608 0
M  V30 527 C 53.1495 0.0476228 -1.59529 0
M  V30 528 C 53.3495 1.52025 -1.32252 0
M  V30 529 O 52.4055 2.27368 -1.09818 0
M  V30 530 C 53.7185 -0.354471 -2.98603 0
M  V30 531 C 55.2665 -0.303622 -3.11524 0
M  V30 532 C 55.7415 -0.680608 -4.52915 0
M  V30 533 N 57.2325 -0.63332 -4.5885 0
M  V30 534 C 57.9675 -0.897432 -5.66334 0
M  V30 535 N 57.4635 -1.22775 -6.81834 0
M  V30 536 N 59.2565 -0.824186 -5.56025 0
M  V30 537 H 51.4075 -1.2653 -1.70599 0
M  V30 538 H 53.6705 -0.513291 -0.797017 0
M  V30 539 H 53.3765 -1.3798 -3.23503 0
M  V30 540 H 53.2505 0.289568 -3.76087 0
M  V30 541 H 55.6375 0.712472 -2.8637 0
M  V30 542 H 55.7185 -0.982348 -2.36185 0
M  V30 543 H 55.3625 -1.69453 -4.78799 0
M  V30 544 H 55.2925 0.0202385 -5.26596 0
M  V30 545 H 57.7835 -0.389138 -3.75891 0
M  V30 546 H 58.0965 -1.41513 -7.59733 0
M  V30 547 H 56.4415 -1.26583 -6.83375 0
M  V30 548 H 59.6325 -0.565748 -4.64669 0
M  V30 549 H 59.8055 -1.03338 -6.39707 0
M  V30 550 N 53.2116 1.57565 -0.0334293 0
M  V30 551 C 54.4366 1.96689 0.657895 0
M  V30 552 C 54.8616 0.910057 1.64619 0
M  V30 553 O 54.2196 -0.128598 1.80843 0
M  V30 554 C 54.2676 3.34905 1.33683 0
M  V30 555 O 53.3716 3.31574 2.45219 0
M  V30 556 H 52.7126 0.641205 0.172489 0
M  V30 557 H 55.2426 2.04372 -0.0965621 0
M  V30 558 H 55.2526 3.71234 1.69262 0
M  V30 559 H 53.9276 4.11366 0.612411 0
M  V30 560 H 52.5046 3.06968 2.11719 0
M  V30 561 N 54.6897 -0.239769 1.55765 0
M  V30 562 C 55.6367 -1.29696 1.90913 0
M  V30 563 C 56.6067 -1.47478 0.764164 0
M  V30 564 O 57.7917 -1.61345 1.01845 0
M  V30 565 C 54.9317 -2.64598 2.21544 0
M  V30 566 C 54.0447 -2.54765 3.48882 0
M  V30 567 C 53.1797 -3.82069 3.69049 0
M  V30 568 C 52.2187 -3.66883 4.89963 0
M  V30 569 N 51.3557 -4.86094 5.06614 0
M  V30 570 H 56.1957 -0.990224 2.81067 0
M  V30 571 H 53.7327 -0.477684 1.39128 0
M  V30 572 H 55.6907 -3.43132 2.3731 0
M  V30 573 H 54.3207 -2.93405 1.34585 0
M  V30 574 H 53.3727 -1.67763 3.41409 0
M  V30 575 H 54.6847 -2.39457 4.37563 0
M  V30 576 H 53.8387 -4.69046 3.84812 0
M  V30 577 H 52.5777 -4.00282 2.78614 0
M  V30 578 H 51.5827 -2.78289 4.74168 0
M  V30 579 H 52.8077 -3.50157 5.81865 0
M  V30 580 H 50.7537 -5.04655 4.19117 0
M  V30 581 H 50.6707 -4.73443 5.89396 0
M  V30 582 H 51.9387 -5.74549 5.26795 0
M  V30 583 N 56.1678 -1.49265 -0.50573 0
M  V30 584 C 57.5838 -1.35923 -0.836486 0
M  V30 585 C 57.7838 -0.388704 -1.97715 0
M  V30 586 O 56.8398 0.181336 -2.51848 0
M  V30 587 C 58.1528 -2.76531 -1.18115 0
M  V30 588 C 59.7008 -2.85197 -1.28964 0
M  V30 589 C 60.1758 -4.26561 -1.66761 0
M  V30 590 N 61.6668 -4.2935 -1.73819 0
M  V30 591 C 62.4018 -5.35693 -2.045 0
M  V30 592 N 61.8978 -6.52287 -2.33438 0
M  V30 593 N 63.6908 -5.23105 -2.05711 0
M  V30 594 H 55.8418 -2.10965 0.246519 0
M  V30 595 H 58.1048 -0.9468 0.0476887 0
M  V30 596 H 57.8108 -3.49226 -0.416398 0
M  V30 597 H 57.6848 -3.11599 -2.1257 0
M  V30 598 H 60.0718 -2.12742 -2.04511 0
M  V30 599 H 60.1528 -2.53718 -0.325704 0
M  V30 600 H 59.7968 -4.99541 -0.917656 0
M  V30 601 H 59.7268 -4.55502 -2.64246 0
M  V30 602 H 62.2178 -3.4526 -1.53635 0
M  V30 603 H 62.5308 -7.29158 -2.56024 0
M  V30 604 H 60.8758 -6.55521 -2.30905 0
M  V30 605 H 64.0668 -4.31026 -1.82577 0
M  V30 606 H 64.2398 -6.06078 -2.29289 0
M  V30 607 N 57.6459 0.756429 -1.3826 0
M  V30 608 C 58.9229 1.50584 -1.24835 0
M  V30 609 C 59.3029 2.10556 0.151485 0
M  V30 610 O 58.6509 1.96825 1.1607 0
M  V30 611 C 58.8609 2.57448 -2.3563 0
M  V30 612 C 60.2089 3.24429 -2.73917 0
M  V30 613 O 61.2329 2.67751 -2.34921 0
M  V30 614 O 60.0919 4.26937 -3.41156 0
M  V30 615 H 57.1859 0.667664 -0.48801 0
M  V30 616 H 59.7319 0.792083 -1.5008 0
M  V30 617 H 58.5039 2.11362 -3.29305 0
M  V30 618 H 58.1269 3.36408 -2.11933 0
M  V30 619 N 59.124 1.23083 0.984299 0
M  V30 620 C 60.535 1.05609 1.5396 0
M  V30 621 C 60.886 -0.377793 1.92528 0
M  V30 622 O 60.011 -1.26398 1.75649 0
M  V30 623 C 60.606 1.91087 2.7977 0
M  V30 624 C 59.165 1.77885 3.31713 0
M  V30 625 C 58.312 1.87028 2.04733 0
M  V30 626 H 61.263 1.36802 0.804419 0
M  V30 627 H 61.284 1.43336 3.5247 0
M  V30 628 H 60.796 2.9544 2.51668 0
M  V30 629 H 58.897 0.762995 3.64704 0
M  V30 630 H 59.01 2.61047 4.01735 0
M  V30 631 H 57.374 1.30565 2.18689 0
M  V30 632 H 58.157 2.92929 1.79017 0
M  V30 633 N 60.6021 -1.18246 1.0419 0
M  V30 634 C 61.8791 -1.84121 0.660208 0
M  V30 635 C 62.2591 -1.92778 -0.860221 0
M  V30 636 O 61.6071 -1.45464 -1.76217 0
M  V30 637 C 61.8171 -3.22355 1.33747 0
M  V30 638 C 63.1651 -3.98376 1.46906 0
M  V30 639 O 64.1891 -3.31799 1.29568 0
M  V30 640 O 63.0481 -5.17665 1.75171 0
M  V30 641 H 60.1421 -0.794036 0.231161 0
M  V30 642 H 62.6881 -1.25628 1.14087 0
M  V30 643 H 61.4601 -3.10964 2.37522 0
M  V30 644 H 61.0831 -3.88506 0.845515 0
M  V30 645 N 62.0802 -0.821533 -1.34494 0
M  V30 646 C 63.0102 -0.257138 -2.3208 0
M  V30 647 C 63.9912 0.625645 -1.58176 0
M  V30 648 O 65.1762 0.552811 -1.86166 0
M  V30 649 C 62.3062 0.582958 -3.42372 0
M  V30 650 C 61.2602 -0.202571 -4.2752 0
M  V30 651 C 60.5862 0.760179 -5.29269 0
M  V30 652 C 61.8862 -1.40998 -5.02908 0
M  V30 653 H 63.5802 -1.07247 -2.79532 0
M  V30 654 H 61.1262 -0.517163 -1.34393 0
M  V30 655 H 63.0792 0.987972 -4.09655 0
M  V30 656 H 61.8032 1.43133 -2.93565 0
M  V30 657 H 60.4622 -0.588936 -3.61838 0
M  V30 658 H 60.1102 1.60447 -4.76724 0
M  V30 659 H 59.8102 0.238809 -5.87115 0
M  V30 660 H 61.3342 1.16308 -5.9942 0
M  V30 661 H 62.7482 -1.07905 -5.63054 0
M  V30 662 H 61.1452 -1.86689 -5.70322 0
M  V30 663 H 62.2152 -2.1889 -4.32684 0
M  V30 664 N 63.5583 1.46682 -0.576371 0
M  V30 665 C 64.7883 2.06498 -0.0648694 0
M  V30 666 C 65.1963 1.42665 1.24271 0
M  V30 667 O 64.5393 0.523886 1.76071 0
M  V30 668 C 64.6013 3.5904 0.181816 0
M  V30 669 C 64.2653 4.45028 -1.0392 0
M  V30 670 C 65.2623 4.81959 -1.94966 0
M  V30 671 C 62.9473 4.86259 -1.25927 0
M  V30 672 C 64.9413 5.58942 -3.06371 0
M  V30 673 C 62.6283 5.63002 -2.37638 0
M  V30 674 C 63.6263 5.99257 -3.2769 0
M  V30 675 O 63.3143 6.7445 -4.37461 0
M  V30 676 H 63.0463 0.674028 -0.0515987 0
M  V30 677 H 65.6003 1.89393 -0.794951 0
M  V30 678 H 63.8303 3.74429 0.966436 0
M  V30 679 H 65.5193 4.00806 0.641047 0
M  V30 680 H 66.2853 4.50689 -1.79177 0
M  V30 681 H 62.1643 4.57494 -0.567448 0
M  V30 682 H 65.7083 5.87158 -3.76684 0
M  V30 683 H 61.6053 5.93686 -2.53392 0
M  V30 684 H 62.3733 6.92867 -4.35749 0
M  V30 685 N 65.0364 0.313813 1.54444 0
M  V30 686 C 65.9684 -0.590425 2.21465 0
M  V30 687 C 66.9814 -1.08753 1.21147 0
M  V30 688 O 68.1704 -1.00278 1.4767 0
M  V30 689 C 65.2704 -1.82179 2.85769 0
M  V30 690 C 64.4434 -1.46502 4.12136 0
M  V30 691 C 63.5024 -2.55288 4.60124 0
M  V30 692 O 62.5284 -2.19842 5.25032 0
M  V30 693 N 63.7304 -3.86053 4.33525 0
M  V30 694 H 66.4954 -0.0166033 2.99695 0
M  V30 695 H 64.0564 0.136578 1.61323 0
M  V30 696 H 66.0484 -2.54328 3.14801 0
M  V30 697 H 64.6184 -2.30369 2.11303 0
M  V30 698 H 63.8384 -0.575595 3.89975 0
M  V30 699 H 65.1264 -1.20221 4.94393 0
M  V30 700 H 64.5244 -4.17654 3.81552 0
M  V30 701 H 63.0814 -4.54461 4.67235 0
M  V30 702 N 66.5145 -1.57545 0.0417849 0
M  V30 703 C 67.4445 -2.14009 -0.933929 0
M  V30 704 C 68.4255 -1.05938 -1.33083 0
M  V30 705 O 69.6105 -1.33833 -1.40721 0
M  V30 706 C 66.7405 -2.67747 -2.21199 0
M  V30 707 C 65.6945 -3.80718 -1.95544 0
M  V30 708 C 65.0205 -4.20935 -3.29724 0
M  V30 709 C 66.3205 -5.06258 -1.28452 0
M  V30 710 H 68.0145 -2.95788 -0.463645 0
M  V30 711 H 65.5605 -1.42285 -0.221573 0
M  V30 712 H 67.5135 -3.05886 -2.89848 0
M  V30 713 H 66.2375 -1.83147 -2.70416 0
M  V30 714 H 64.8965 -3.43037 -1.2931 0
M  V30 715 H 64.5445 -3.33298 -3.76724 0
M  V30 716 H 64.2445 -4.9707 -3.13361 0
M  V30 717 H 65.7685 -4.61666 -3.9962 0
M  V30 718 H 67.1825 -5.41903 -1.8712 0
M  V30 719 H 65.5795 -5.87475 -1.22445 0
M  V30 720 H 66.6495 -4.84207 -0.259219 0
M  V30 721 N 67.9926 0.231505 -1.5589 0
M  V30 722 C 68.9226 1.29022 -1.94617 0
M  V30 723 C 69.9036 1.4941 -0.813067 0
M  V30 724 O 71.0886 1.6176 -1.07459 0
M  V30 725 C 68.2186 2.64199 -2.25424 0
M  V30 726 C 67.1726 2.58484 -3.41131 0
M  V30 727 C 66.4986 3.97599 -3.57518 0
M  V30 728 C 67.7986 2.1413 -4.76388 0
M  V30 729 H 69.4926 0.968563 -2.83301 0
M  V30 730 H 67.0386 0.464479 -1.36303 0
M  V30 731 H 68.9916 3.38413 -2.51107 0
M  V30 732 H 67.7156 2.98032 -1.33583 0
M  V30 733 H 66.3746 1.86727 -3.15481 0
M  V30 734 H 66.0226 4.28723 -2.6307 0
M  V30 735 H 65.7226 3.94659 -4.35337 0
M  V30 736 H 67.2466 4.7349 -3.85538 0
M  V30 737 H 68.6606 2.78083 -5.01341 0
M  V30 738 H 67.0576 2.2227 -5.57419 0
M  V30 739 H 68.1276 1.09331 -4.72414 0
M  V30 740 N 69.4707 1.49531 0.497807 0
M  V30 741 C 70.4027 1.62559 1.61578 0
M  V30 742 C 71.4157 0.508134 1.54667 0
M  V30 743 O 72.6047 0.780309 1.60541 0
M  V30 744 C 69.7047 1.56925 3.00379 0
M  V30 745 C 68.8777 2.84257 3.3244 0
M  V30 746 C 67.9367 2.71632 4.50669 0
M  V30 747 O 66.9627 3.4557 4.52294 0
M  V30 748 N 68.1647 1.83391 5.5077 0
M  V30 749 H 70.9297 2.58981 1.50828 0
M  V30 750 H 68.4907 1.4666 0.685743 0
M  V30 751 H 70.4827 1.46129 3.77397 0
M  V30 752 H 69.0527 0.683483 3.05037 0
M  V30 753 H 68.2727 3.09381 2.44289 0
M  V30 754 H 69.5607 3.68666 3.5066 0
M  V30 755 H 68.9587 1.22583 5.52259 0
M  V30 756 H 67.5157 1.78515 6.26878 0
M  V30 757 N 70.9488 -0.749086 1.3866 0
M  V30 758 C 72.3648 -1.05276 1.19955 0
M  V30 759 C 72.5648 -2.01435 0.05134 0
M  V30 760 O 71.6208 -2.45232 -0.60147 0
M  V30 761 C 72.9338 -1.62853 2.52783 0
M  V30 762 C 74.4818 -1.75002 2.59506 0
M  V30 763 C 74.9568 -2.35991 3.92521 0
M  V30 764 N 76.4478 -2.43416 3.94085 0
M  V30 765 C 77.1828 -2.91511 4.9377 0
M  V30 766 N 76.6788 -3.39608 6.03853 0
M  V30 767 N 78.4718 -2.90592 4.81157 0
M  V30 768 H 70.6228 -0.111066 2.12109 0
M  V30 769 H 72.8858 -0.111901 0.941373 0
M  V30 770 H 72.5918 -0.99664 3.37283 0
M  V30 771 H 72.4658 -2.61854 2.715 0
M  V30 772 H 74.8528 -2.37317 1.75398 0
M  V30 773 H 74.9338 -0.74693 2.44652 0
M  V30 774 H 74.5778 -1.74308 4.77053 0
M  V30 775 H 74.5078 -3.3695 4.04688 0
M  V30 776 H 76.9988 -2.09405 3.14576 0
M  V30 777 H 77.3118 -3.74775 6.75843 0
M  V30 778 H 75.6568 -3.37653 6.07466 0
M  V30 779 H 78.8478 -2.52332 3.94267 0
M  V30 780 H 79.0208 -3.27762 5.58996 0
M  V30 781 N 72.4269 -1.23603 -0.977757 0
M  V30 782 C 73.3569 -1.04401 -2.0886 0
M  V30 783 C 74.3379 0.0399052 -1.70053 0
M  V30 784 O 75.5229 -0.125246 -1.93796 0
M  V30 785 C 72.6529 -0.637269 -3.41403 0
M  V30 786 C 71.6069 -1.66883 -3.94124 0
M  V30 787 C 70.9329 -1.11745 -5.22893 0
M  V30 788 C 72.2329 -3.06247 -4.23096 0
M  V30 789 H 73.9269 -1.97316 -2.25182 0
M  V30 790 H 71.4729 -0.950096 -1.08209 0
M  V30 791 H 73.4259 -0.48998 -4.18542 0
M  V30 792 H 72.1499 0.327557 -3.24953 0
M  V30 793 H 70.8089 -1.80416 -3.19133 0
M  V30 794 H 70.4569 -0.143527 -5.02795 0
M  V30 795 H 70.1569 -1.80672 -5.59134 0
M  V30 796 H 71.6809 -0.982067 -6.02651 0
M  V30 797 H 73.0949 -2.96001 -4.90975 0
M  V30 798 H 71.4919 -3.72436 -4.70544 0
M  V30 799 H 72.5619 -3.55041 -3.30263 0
M  V30 800 N 73.905 1.17692 -1.04816 0
M  V30 801 C 75.152 1.87859 -0.75599 0
M  V30 802 C 75.48 1.80812 0.716752 0
M  V30 803 O 74.735 1.20819 1.53952 0
M  V30 804 C 75.034 3.37462 -1.17703 0
M  V30 805 C 74.7 3.64713 -2.65133 0
M  V30 806 C 73.362 3.71859 -3.05408 0
M  V30 807 C 75.714 3.76492 -3.60421 0
M  V30 808 C 73.042 3.88271 -4.39843 0
M  V30 809 C 75.394 3.94421 -4.94585 0
M  V30 810 C 74.058 3.99806 -5.3452 0
M  V30 811 H 73.328 0.687425 -0.276636 0
M  V30 812 H 75.975 1.39255 -1.31455 0
M  V30 813 H 74.28 3.88097 -0.537395 0
M  V30 814 H 75.977 3.90109 -0.928218 0
M  V30 815 H 72.567 3.59772 -2.32942 0
M  V30 816 H 76.751 3.70295 -3.30447 0
M  V30 817 H 72.007 3.90687 -4.70291 0
M  V30 818 H 76.181 4.02477 -5.68318 0
M  V30 819 H 73.808 4.12276 -6.38696 0
M  V30 820 N 75.3831 0.828654 1.34056 0
M  V30 821 C 76.3301 0.252567 2.29414 0
M  V30 822 C 77.3001 -0.62588 1.53857 0
M  V30 823 O 78.4851 -0.566312 1.82202 0
M  V30 824 C 75.6251 -0.574831 3.40279 0
M  V30 825 C 74.7381 0.326499 4.30764 0
M  V30 826 C 73.8731 -0.511016 5.28736 0
M  V30 827 C 72.9121 0.389342 6.1086 0
M  V30 828 N 72.0491 -0.409439 7.00905 0
M  V30 829 H 76.8891 1.07108 2.78086 0
M  V30 830 H 74.4261 0.539677 1.36843 0
M  V30 831 H 76.3841 -1.06992 4.03248 0
M  V30 832 H 75.0141 -1.35841 2.92826 0
M  V30 833 H 74.0661 0.939837 3.68607 0
M  V30 834 H 75.3781 1.01857 4.88289 0
M  V30 835 H 74.5321 -1.07035 5.97184 0
M  V30 836 H 73.2711 -1.23657 4.71763 0
M  V30 837 H 72.2761 0.960769 5.4134 0
M  V30 838 H 73.5011 1.1131 6.69916 0
M  V30 839 H 71.4471 -1.11856 6.46393 0
M  V30 840 H 71.3641 0.224126 7.55668 0
M  V30 841 H 72.6321 -0.951336 7.73673 0
M  V30 842 N 76.8612 -1.46375 0.584142 0
M  V30 843 C 78.0862 -2.07268 0.0740405 0
M  V30 844 C 78.5112 -1.42979 -1.22223 0
M  V30 845 O 77.8692 -0.514092 -1.73859 0
M  V30 846 C 77.9172 -3.60518 -0.0767769 0
M  V30 847 O 77.0212 -3.96533 -1.13292 0
M  V30 848 H 76.3622 -0.660961 0.0634524 0
M  V30 849 H 78.8922 -1.87991 0.807492 0
M  V30 850 H 78.9022 -4.07021 -0.282489 0
M  V30 851 H 77.5772 -4.06702 0.86986 0
M  V30 852 H 76.1542 -3.61738 -0.905553 0
M  V30 853 N 78.3393 -0.321999 -1.54275 0
M  V30 854 C 79.2893 0.560185 -2.21011 0
M  V30 855 C 80.2733 1.08283 -1.19011 0
M  V30 856 O 81.4653 1.02011 -1.44647 0
M  V30 857 C 78.5943 1.72137 -2.97025 0
M  V30 858 C 77.6803 1.21369 -4.06363 0
M  V30 859 N 78.0713 0.425566 -5.04007 0
M  V30 860 C 76.3693 1.49255 -4.20284 0
M  V30 861 C 77.0703 0.152601 -5.815 0
M  V30 862 N 76.0463 0.738294 -5.38563 0
M  V30 863 H 79.8483 -0.049265 -2.93859 0
M  V30 864 H 77.3623 -0.127779 -1.61897 0
M  V30 865 H 79.3593 2.36512 -3.43319 0
M  V30 866 H 78.0193 2.33431 -2.25699 0
M  V30 867 H 79.0303 0.068551 -5.17855 0
M  V30 868 H 75.7073 2.11145 -3.60172 0
M  V30 869 H 77.0973 -0.481764 -6.70171 0
M  V30 870 N 79.8174 1.5752 -0.0501392 0
M  V30 871 C 81.0424 1.97376 0.636997 0
M  V30 872 C 81.4674 0.927466 1.63645 0
M  V30 873 O 80.8254 -0.10941 1.8097 0
M  V30 874 C 80.8734 3.36304 1.30123 0
M  V30 875 O 79.9774 3.34156 2.41689 0
M  V30 876 H 79.3184 0.642998 0.165679 0
M  V30 877 H 81.8484 2.04258 -0.118233 0
M  V30 878 H 81.8584 3.73008 1.65315 0
M  V30 879 H 80.5334 4.11993 0.568746 0
M  V30 880 H 79.1104 3.09196 2.08451 0
M  V30 881 N 81.2955 -0.223234 1.56011 0
M  V30 882 C 82.5205 -0.968978 1.83373 0
M  V30 883 C 82.9455 -1.77227 0.630254 0
M  V30 884 O 82.3035 -1.76345 -0.420959 0
M  V30 885 C 82.3515 -1.86363 3.08709 0
M  V30 886 O 81.4555 -2.95873 2.87285 0
M  V30 887 H 80.7965 -0.274461 0.604622 0
M  V30 888 H 83.3265 -0.237056 2.03222 0
M  V30 889 H 83.3365 -2.27376 3.38768 0
M  V30 890 H 82.0115 -1.27319 3.95933 0
M  V30 891 H 80.5885 -2.58818 2.68454 0
M  V30 892 N 82.7736 -1.49793 -0.48987 0
M  V30 893 C 83.7036 -1.70201 -1.59856 0
M  V30 894 C 84.6846 -0.55076 -1.60937 0
M  V30 895 O 85.8696 -0.787841 -1.77501 0
M  V30 896 C 82.9996 -1.77882 -2.98287 0
M  V30 897 C 81.9536 -2.92907 -3.12073 0
M  V30 898 C 81.2796 -2.85712 -4.51965 0
M  V30 899 C 82.5796 -4.3369 -2.91051 0
M  V30 900 H 84.2736 -2.63025 -1.43032 0
M  V30 901 H 81.8196 -1.26574 -0.686664 0
M  V30 902 H 83.7726 -1.90744 -3.75759 0
M  V30 903 H 82.4966 -0.816653 -3.16225 0
M  V30 904 H 81.1556 -2.79665 -2.37029 0
M  V30 905 H 80.8036 -1.8738 -4.66795 0
M  V30 906 H 80.5036 -3.62921 -4.62128 0
M  V30 907 H 82.0276 -3.00598 -5.31482 0
M  V30 908 H 83.4416 -4.47555 -3.58284 0
M  V30 909 H 81.8386 -5.12205 -3.12675 0
M  V30 910 H 82.9086 -4.47362 -1.87071 0
M  V30 911 N 84.2517 0.741722 -1.39055 0
M  V30 912 C 85.1617 1.88621 -1.39496 0
M  V30 913 C 86.1777 1.71557 -0.290578 0
M  V30 914 O 87.3537 1.94275 -0.530954 0
M  V30 915 C 84.4187 3.24134 -1.23037 0
M  V30 916 C 83.4797 3.5364 -2.43387 0
M  V30 917 C 82.7127 4.82687 -2.27703 0
M  V30 918 O 82.9357 5.55922 -1.27696 0
M  V30 919 O 81.8697 5.1194 -3.16545 0
M  V30 920 H 85.6957 1.91203 -2.35956 0
M  V30 921 H 83.2807 0.888625 -1.20099 0
M  V30 922 H 85.1627 4.0513 -1.15964 0
M  V30 923 H 83.8377 3.22337 -0.296691 0
M  V30 924 H 82.7447 2.72758 -2.56035 0
M  V30 925 H 84.0777 3.60209 -3.35425 0
M  V30 926 N 85.7298 1.2412 0.971189 0
M  V30 927 C 86.9778 1.07668 1.71032 0
M  V30 928 C 87.2988 -0.385797 1.91146 0
M  V30 929 O 86.5688 -1.27569 1.4867 0
M  V30 930 H 85.1488 0.395429 0.633755 0
M  V30 931 H 87.8108 1.55984 1.16855 0
M  V30 932 H 86.9068 1.57195 2.69622 0
M  V30 933 N 87.2079 -1.17134 1.05439 0
M  V30 934 C 88.1379 -2.2342 0.678649 0
M  V30 935 C 89.1189 -1.66971 -0.32476 0
M  V30 936 O 90.3039 -1.93149 -0.201802 0
M  V30 937 C 87.4339 -3.47256 0.0552099 0
M  V30 938 C 86.3879 -4.16543 0.98365 0
M  V30 939 C 85.7139 -5.34231 0.223961 0
M  V30 940 C 87.0139 -4.68495 2.3089 0
M  V30 941 H 88.7079 -2.55105 1.56722 0
M  V30 942 H 86.2539 -1.2262 0.754998 0
M  V30 943 H 88.2069 -4.20828 -0.21946 0
M  V30 944 H 86.9309 -3.14846 -0.868319 0
M  V30 945 H 85.5899 -3.44887 1.24293 0
M  V30 946 H 85.2379 -4.98071 -0.702412 0
M  V30 947 H 84.9379 -5.81527 0.842627 0
M  V30 948 H 86.4619 -6.10585 -0.0433671 0
M  V30 949 H 87.8759 -5.33691 2.09396 0
M  V30 950 H 86.2729 -5.26379 2.88176 0
M  V30 951 H 87.3429 -3.85169 2.94572 0
M  V30 952 N 88.686 -0.835752 -1.33615 0
M  V30 953 C 89.616 -0.281739 -2.31794 0
M  V30 954 C 90.597 0.608833 -1.58831 0
M  V30 955 O 91.782 0.533035 -1.86741 0
M  V30 956 C 88.912 0.546612 -3.42971 0
M  V30 957 C 87.866 -0.247904 -4.27281 0
M  V30 958 C 87.192 0.704001 -5.30045 0
M  V30 959 C 88.492 -1.46324 -5.01385 0
M  V30 960 H 90.186 -1.10206 -2.78379 0
M  V30 961 H 87.732 -0.531388 -1.33837 0
M  V30 962 H 89.685 0.944467 -4.1068 0
M  V30 963 H 88.409 1.40011 -2.95067 0
M  V30 964 H 87.068 -0.627281 -3.61194 0
M  V30 965 H 86.716 1.55381 -4.78399 0
M  V30 966 H 86.416 0.176524 -5.87335 0
M  V30 967 H 87.94 1.09944 -6.0062 0
M  V30 968 H 89.354 -1.13871 -5.61877 0
M  V30 969 H 87.751 -1.92728 -5.6831 0
M  V30 970 H 88.821 -2.23467 -4.30338 0
M  V30 971 N 90.1641 1.46063 -0.591896 0
M  V30 972 C 91.1111 2.30399 0.136069 0
M  V30 973 C 92.0811 1.41169 0.875238 0
M  V30 974 O 93.2661 1.70112 0.86409 0
M  V30 975 C 90.4061 3.25804 1.13781 0
M  V30 976 C 89.5191 4.30134 0.401137 0
M  V30 977 C 88.6541 5.12659 1.39121 0
M  V30 978 C 87.6931 6.0873 0.641462 0
M  V30 979 N 86.8301 6.8409 1.58004 0
M  V30 980 H 91.6701 2.92118 -0.589144 0
M  V30 981 H 89.2071 1.43959 -0.302342 0
M  V30 982 H 91.1651 3.79569 1.73156 0
M  V30 983 H 89.7951 2.65872 1.83062 0
M  V30 984 H 88.8471 3.79152 -0.307826 0
M  V30 985 H 90.1591 4.98458 -0.184565 0
M  V30 986 H 89.3131 5.70747 2.05749 0
M  V30 987 H 88.0521 4.44316 2.01084 0
M  V30 988 H 87.0571 5.49786 -0.0385419 0
M  V30 989 H 88.2821 6.79095 0.0270945 0
M  V30 990 H 86.2281 6.18449 2.18761 0
M  V30 991 H 86.1451 7.48709 1.04738 0
M  V30 992 H 87.4131 7.4673 2.23639 0
M  V30 993 N 91.6422 0.330177 1.54103 0
M  V30 994 C 92.6052 -0.520144 2.2322 0
M  V30 995 C 93.6052 -1.03828 1.22786 0
M  V30 996 O 94.7952 -0.929652 1.4732 0
M  V30 997 C 91.9272 -1.72317 2.94142 0
M  V30 998 H 93.1202 0.0841605 2.99782 0
M  V30 999 H 90.6732 0.0813433 1.56088 0
M  V30 1000 H 91.4082 -2.36653 2.21734 0
M  V30 1001 H 91.1932 -1.35898 3.67796 0
M  V30 1002 H 92.6832 -2.3266 3.46784 0
M  V30 1003 N 93.1203 -1.57491 0.0584922 0
M  V30 1004 C 94.0503 -2.14988 -0.911178 0
M  V30 1005 C 95.0313 -1.07343 -1.31952 0
M  V30 1006 O 96.2163 -1.35318 -1.39294 0
M  V30 1007 C 93.3463 -2.70078 -2.18347 0
M  V30 1008 C 92.3003 -3.82771 -1.91495 0
M  V30 1009 C 91.6263 -4.24408 -3.25241 0
M  V30 1010 C 92.9263 -5.07592 -1.23075 0
M  V30 1011 H 94.6203 -2.96263 -0.432246 0
M  V30 1012 H 92.1663 -1.42512 -0.206469 0
M  V30 1013 H 94.1193 -3.08943 -2.86587 0
M  V30 1014 H 92.8433 -1.86005 -2.68458 0
M  V30 1015 H 91.5023 -3.44389 -1.25664 0
M  V30 1016 H 91.1503 -3.37275 -3.73168 0
M  V30 1017 H 90.8503 -5.00366 -3.08071 0
M  V30 1018 H 92.3743 -4.65879 -3.94701 0
M  V30 1019 H 93.7883 -5.43857 -1.81362 0
M  V30 1020 H 92.1853 -5.88741 -1.16207 0
M  V30 1021 H 93.2553 -4.84454 -0.207847 0
M  V30 1022 N 94.5984 0.214957 -1.56127 0
M  V30 1023 C 95.8234 0.95924 -1.83884 0
M  V30 1024 C 96.2484 1.7689 -0.639644 0
M  V30 1025 O 95.6064 1.76566 0.411601 0
M  V30 1026 C 95.6544 1.84723 -3.09693 0
M  V30 1027 O 94.7584 2.94346 -2.8885 0
M  V30 1028 H 94.0994 0.27125 -0.606069 0
M  V30 1029 H 96.6294 0.226276 -2.03345 0
M  V30 1030 H 96.6394 2.25576 -3.39969 0
M  V30 1031 H 95.3144 1.25218 -3.96602 0
M  V30 1032 H 93.8914 2.57391 -2.69823 0
M  V30 1033 N 96.0765 1.50051 0.48192 0
M  V30 1034 C 97.0085 1.64263 1.59844 0
M  V30 1035 C 98.0215 0.52451 1.54119 0
M  V30 1036 O 99.2105 0.797293 1.59704 0
M  V30 1037 C 96.3105 1.60102 2.98698 0
M  V30 1038 C 95.4835 2.87767 3.29407 0
M  V30 1039 C 94.5425 2.76397 4.47762 0
M  V30 1040 O 93.5685 3.50348 4.48603 0
M  V30 1041 N 94.7705 1.89222 5.48794 0
M  V30 1042 H 97.5355 2.60566 1.48073 0
M  V30 1043 H 95.0965 1.47379 0.670149 0
M  V30 1044 H 97.0885 1.50123 3.75826 0
M  V30 1045 H 95.6585 0.715798 3.04294 0
M  V30 1046 H 94.8785 3.11954 2.40994 0
M  V30 1047 H 96.1665 3.72365 3.4673 0
M  V30 1048 H 95.5645 1.28434 5.50928 0
M  V30 1049 H 94.1215 1.85154 6.24949 0
M  V30 1050 N 97.5546 -0.734337 1.39446 0
M  V30 1051 C 98.5176 -1.83004 1.37994 0
M  V30 1052 C 99.5176 -1.58397 0.276938 0
M  V30 1053 O 100.708 -1.65785 0.534875 0
M  V30 1054 C 97.8396 -3.20802 1.1532 0
M  V30 1055 H 99.0326 -1.85694 2.35494 0
M  V30 1056 H 96.5856 -0.938059 1.25021 0
M  V30 1057 H 97.3206 -3.23772 0.185036 0
M  V30 1058 H 97.1056 -3.4006 1.95197 0
M  V30 1059 H 98.5956 -4.00862 1.17046 0
M  V30 1060 N 99.0327 -1.24633 -0.964593 0
M  V30 1061 C 100.258 -1.11596 -1.74818 0
M  V30 1062 C 100.683 0.32723 -1.85232 0
M  V30 1063 O 100.041 1.23695 -1.32549 0
M  V30 1064 C 100.089 -1.76397 -3.1451 0
M  V30 1065 O 99.1927 -1.03685 -3.99153 0
M  V30 1066 H 98.5337 -0.390196 -0.537255 0
M  V30 1067 H 101.064 -1.65002 -1.20977 0
M  V30 1068 H 101.074 -1.8228 -3.65018 0
M  V30 1069 H 99.7487 -2.81401 -3.06246 0
M  V30 1070 H 98.3257 -1.05611 -3.57632 0
M  V30 1071 N 100.511 1.16574 -1.06058 0
M  V30 1072 C 101.739 1.90952 -0.796552 0
M  V30 1073 C 102.154 1.77302 0.648808 0
M  V30 1074 O 101.511 1.11605 1.44397 0
M  V30 1075 C 101.562 3.41736 -1.17894 0
M  V30 1076 O 101.283 3.54975 -2.56758 0
M  V30 1077 C 102.784 4.33169 -0.942308 0
M  V30 1078 H 100.004 0.605594 -0.288959 0
M  V30 1079 H 102.548 1.47777 -1.41358 0
M  V30 1080 H 100.703 3.82623 -0.606491 0
M  V30 1081 H 101.117 4.4846 -2.72 0
M  V30 1082 H 102.591 5.37439 -1.25952 0
M  V30 1083 H 103.068 4.3903 0.122078 0
M  V30 1084 H 103.674 3.98007 -1.49902 0
M  V30 1085 N 101.989 0.842826 1.3317 0
M  V30 1086 C 103.266 0.362216 1.92217 0
M  V30 1087 C 103.646 -1.15289 1.76838 0
M  V30 1088 O 102.994 -1.96914 1.15919 0
M  V30 1089 C 103.204 0.813495 3.39387 0
M  V30 1090 C 104.552 0.823804 4.16532 0
M  V30 1091 O 105.576 0.757358 3.48055 0
M  V30 1092 O 104.435 0.915193 5.38782 0
M  V30 1093 H 101.529 0.103317 0.820521 0
M  V30 1094 H 104.075 0.928942 1.42017 0
M  V30 1095 H 102.847 1.85624 3.4447 0
M  V30 1096 H 102.47 0.223561 3.96971 0
M  V30 1097 N 103.467 -1.45747 0.599634 0
M  V30 1098 C 104.878 -1.85853 0.177681 0
M  V30 1099 C 105.229 -1.50102 -1.26348 0
M  V30 1100 O 104.354 -0.923905 -1.95686 0
M  V30 1101 C 104.949 -3.37326 0.315688 0
M  V30 1102 C 103.508 -3.76365 -0.0515144 0
M  V30 1103 C 102.655 -2.69722 0.643822 0
M  V30 1104 H 105.606 -1.36661 0.806814 0
M  V30 1105 H 105.627 -3.77778 -0.454321 0
M  V30 1106 H 105.139 -3.63315 1.36468 0
M  V30 1107 H 103.24 -3.55993 -1.09999 0
M  V30 1108 H 103.353 -4.77916 0.336594 0
M  V30 1109 H 101.717 -2.54567 0.0822881 0
M  V30 1110 H 102.5 -2.98549 1.6948 0
M  V30 1111 N 104.945 -0.338344 -1.53925 0
M  V30 1112 C 105.892 0.520845 -2.24846 0
M  V30 1113 C 106.862 1.09976 -1.24477 0
M  V30 1114 O 108.047 1.13735 -1.53196 0
M  V30 1115 C 105.187 1.6685 -3.02084 0
M  V30 1116 C 104.3 1.11739 -4.17299 0
M  V30 1117 C 103.435 2.23193 -4.82036 0
M  V30 1118 C 102.474 1.65407 -5.89328 0
M  V30 1119 N 101.611 2.70582 -6.47866 0
M  V30 1120 H 106.451 -0.0904881 -2.97863 0
M  V30 1121 H 103.988 -0.0564282 -1.46992 0
M  V30 1122 H 105.946 2.34407 -3.45122 0
M  V30 1123 H 104.576 2.2509 -2.31375 0
M  V30 1124 H 103.628 0.332919 -3.7894 0
M  V30 1125 H 104.94 0.654677 -4.94485 0
M  V30 1126 H 104.094 2.98626 -5.28117 0
M  V30 1127 H 102.833 2.72807 -4.04262 0
M  V30 1128 H 101.838 0.884779 -5.42634 0
M  V30 1129 H 103.063 1.16652 -6.69006 0
M  V30 1130 H 101.009 3.1946 -5.72959 0
M  V30 1131 H 100.926 2.28917 -7.20509 0
M  V30 1132 H 102.194 3.45799 -6.98601 0
M  V30 1133 N 106.423 1.57458 -0.0668435 0
M  V30 1134 C 107.333 2.15937 0.916975 0
M  V30 1135 C 108.349 1.12123 1.33058 0
M  V30 1136 O 109.525 1.44366 1.40429 0
M  V30 1137 C 106.59 2.70547 2.16807 0
M  V30 1138 C 105.651 3.89215 1.81135 0
M  V30 1139 C 104.884 4.41211 3.0028 0
M  V30 1140 O 105.107 3.92225 4.14144 0
M  V30 1141 O 104.041 5.32605 2.80384 0
M  V30 1142 H 107.867 3.00354 0.449561 0
M  V30 1143 H 105.452 1.48584 0.155949 0
M  V30 1144 H 107.334 3.0557 2.90181 0
M  V30 1145 H 106.009 1.89192 2.62656 0
M  V30 1146 H 104.916 3.59054 1.05028 0
M  V30 1147 H 106.249 4.71848 1.40073 0
M  V30 1148 N 107.901 -0.206675 1.56239 0
M  V30 1149 C 109.126 -0.949474 1.8439 0
M  V30 1150 C 109.551 -1.76549 0.649016 0
M  V30 1151 O 108.909 -1.76782 -0.402231 0
M  V30 1152 C 108.957 -1.83078 3.10668 0
M  V30 1153 O 108.061 -2.9281 2.90407 0
M  V30 1154 H 107.402 -0.268033 0.607499 0
M  V30 1155 H 109.932 -0.215488 2.03462 0
M  V30 1156 H 109.942 -2.2377 3.41161 0
M  V30 1157 H 108.617 -1.23112 3.97261 0
M  V30 1158 H 107.194 -2.55956 2.71184 0
M  V30 1159 N 109.379 -1.50304 -0.473955 0
M  V30 1160 C 110.607 -1.64902 -1.24959 0
M  V30 1161 C 111.022 -0.331198 -1.85872 0
M  V30 1162 O 110.379 0.68652 -1.69095 0
M  V30 1163 C 110.43 -2.73803 -2.36038 0
M  V30 1164 O 110.151 -4.00477 -1.77624 0
M  V30 1165 C 111.652 -2.99349 -3.26964 0
M  V30 1166 H 108.872 -0.554383 -0.378022 0
M  V30 1167 H 111.416 -1.9651 -0.566054 0
M  V30 1168 H 109.571 -2.44898 -3.00173 0
M  V30 1169 H 109.985 -4.60678 -2.5075 0
M  V30 1170 H 111.459 -3.79217 -4.01121 0
M  V30 1171 H 111.936 -2.10307 -3.85574 0
M  V30 1172 H 112.542 -3.29774 -2.68569 0
M  V30 1173 N 110.857 0.726932 -1.39834 0
M  V30 1174 C 112.082 1.52121 -1.40976 0
M  V30 1175 C 112.507 1.88098 -0.00826029 0
M  V30 1176 O 111.865 1.52479 0.980807 0
M  V30 1177 C 111.913 2.78021 -2.29644 0
M  V30 1178 O 111.017 3.74272 -1.73188 0
M  V30 1179 H 110.358 0.45908 -0.479731 0
M  V30 1180 H 112.888 0.896207 -1.83927 0
M  V30 1181 H 112.898 3.26671 -2.44438 0
M  V30 1182 H 111.573 2.51169 -3.31492 0
M  V30 1183 H 110.15 3.33073 -1.6768 0
M  V30 1184 N 112.336 1.25143 0.95797 0
M  V30 1185 C 113.747 1.08851 1.51685 0
M  V30 1186 C 114.098 -0.33687 1.93286 0
M  V30 1187 O 113.223 -1.22644 1.7829 0
M  V30 1188 C 113.818 1.96978 2.75654 0
M  V30 1189 C 112.377 1.84881 3.27866 0
M  V30 1190 C 111.524 1.91329 2.0072 0
M  V30 1191 H 114.475 1.38478 0.77522 0
M  V30 1192 H 114.496 1.5078 3.4935 0
M  V30 1193 H 114.008 3.00712 2.45345 0
M  V30 1194 H 112.109 0.840182 3.63004 0
M  V30 1195 H 112.222 2.6951 3.96107 0
M  V30 1196 H 110.586 1.35174 2.15871 0
M  V30 1197 H 111.369 2.96661 1.72764 0
M  V30 1198 N 113.814 -1.1601 1.06675 0
M  V30 1199 C 114.724 -2.24156 0.692179 0
M  V30 1200 C 115.74 -1.71507 -0.293513 0
M  V30 1201 O 116.916 -2.009 -0.141861 0
M  V30 1202 C 113.981 -3.46587 0.0884131 0
M  V30 1203 C 113.042 -4.14257 1.12646 0
M  V30 1204 C 112.275 -5.30844 0.551416 0
M  V30 1205 O 112.498 -5.66858 -0.634656 0
M  V30 1206 O 111.432 -5.87848 1.29298 0
M  V30 1207 H 115.258 -2.58513 1.59388 0
M  V30 1208 H 112.843 -1.23599 0.83926 0
M  V30 1209 H 114.725 -4.20679 -0.246361 0
M  V30 1210 H 113.4 -3.13994 -0.786712 0
M  V30 1211 H 112.307 -3.42118 1.51348 0
M  V30 1212 H 113.64 -4.50914 1.97325 0
M  V30 1213 N 115.292 -0.849877 -1.32721 0
M  V30 1214 C 116.239 -0.289033 -2.28983 0
M  V30 1215 C 117.209 0.601324 -1.54833 0
M  V30 1216 O 118.394 0.537253 -1.8308 0
M  V30 1217 C 115.534 0.520623 -3.4115 0
M  V30 1218 C 114.647 -0.394989 -4.3019 0
M  V30 1219 C 113.782 0.426834 -5.29482 0
M  V30 1220 C 112.821 -0.486476 -6.10164 0
M  V30 1221 N 111.958 0.297879 -7.01468 0
M  V30 1222 H 116.798 -1.11519 -2.76347 0
M  V30 1223 H 114.335 -0.56138 -1.35967 0
M  V30 1224 H 116.293 1.00563 -4.04899 0
M  V30 1225 H 114.923 1.31165 -2.9495 0
M  V30 1226 H 113.975 -0.99836 -3.67065 0
M  V30 1227 H 115.287 -1.09612 -4.86607 0
M  V30 1228 H 114.441 0.975205 -5.98811 0
M  V30 1229 H 113.18 1.16136 -4.73671 0
M  V30 1230 H 112.185 -1.04677 -5.39743 0
M  V30 1231 H 113.41 -1.21953 -6.6806 0
M  V30 1232 H 111.356 1.01558 -6.48091 0
M  V30 1233 H 111.273 -0.344318 -7.55216 0
M  V30 1234 H 112.541 0.828131 -7.75089 0
M  V30 1235 N 116.77 1.45427 -0.607355 0
M  V30 1236 C 118.186 1.57283 -0.270985 0
M  V30 1237 C 118.386 1.59875 1.22647 0
M  V30 1238 O 117.442 1.52893 2.00948 0
M  V30 1239 C 118.755 2.85566 -0.941952 0
M  V30 1240 C 120.303 2.9924 -0.917849 0
M  V30 1241 C 120.778 4.30293 -1.56882 0
M  V30 1242 N 122.269 4.37051 -1.5343 0
M  V30 1243 C 123.004 5.37123 -2.00715 0
M  V30 1244 N 122.5 6.43734 -2.56084 0
M  V30 1245 N 124.293 5.28479 -1.91484 0
M  V30 1246 H 116.444 1.41988 -1.57966 0
M  V30 1247 H 118.707 0.67885 -0.661715 0
M  V30 1248 H 118.413 2.8955 -1.99633 0
M  V30 1249 H 118.287 3.74322 -0.465096 0
M  V30 1250 H 120.674 2.94822 0.127984 0
M  V30 1251 H 120.755 2.11895 -1.43297 0
M  V30 1252 H 120.399 4.35469 -2.61398 0
M  V30 1253 H 120.329 5.16454 -1.02873 0
M  V30 1254 H 122.82 3.60615 -1.12982 0
M  V30 1255 H 123.133 7.16341 -2.89958 0
M  V30 1256 H 121.478 6.44485 -2.60122 0
M  V30 1257 H 124.669 4.44098 -1.47967 0
M  V30 1258 H 124.842 6.0632 -2.28648 0
M  V30 1259 N 118.248 0.346503 1.53744 0
M  V30 1260 C 119.525 -0.304532 1.93215 0
M  V30 1261 C 119.905 -1.67993 1.27834 0
M  V30 1262 O 119.253 -2.24411 0.430352 0
M  V30 1263 C 119.463 -0.373852 3.46992 0
M  V30 1264 C 120.811 -0.62329 4.2 0
M  V30 1265 O 121.835 -0.455847 3.53271 0
M  V30 1266 O 120.694 -0.947879 5.38217 0
M  V30 1267 H 117.788 -0.178318 0.807547 0
M  V30 1268 H 120.334 0.397895 1.64969 0
M  V30 1269 H 119.106 0.591224 3.86808 0
M  V30 1270 H 118.729 -1.12294 3.81413 0
M  V30 1271 N 119.726 -1.57421 0.075193 0
M  V30 1272 C 120.659 -2.08528 -0.926904 0
M  V30 1273 C 121.637 -0.991171 -1.28898 0
M  V30 1274 O 122.821 -1.26479 -1.39769 0
M  V30 1275 C 119.948 -2.54576 -2.23402 0
M  V30 1276 C 118.994 -3.75454 -2.02327 0
M  V30 1277 S 119.827 -5.19989 -1.27951 0
M  V30 1278 C 120.983 -5.69372 -2.59935 0
M  V30 1279 H 121.216 -2.932 -0.492048 0
M  V30 1280 H 118.749 -1.53785 -0.137651 0
M  V30 1281 H 120.707 -2.81767 -2.98526 0
M  V30 1282 H 119.368 -1.70166 -2.64012 0
M  V30 1283 H 118.561 -4.05675 -2.99071 0
M  V30 1284 H 118.163 -3.48654 -1.35339 0
M  V30 1285 H 120.455 -5.76424 -3.56008 0
M  V30 1286 H 121.398 -6.68207 -2.34319 0
M  V30 1287 H 121.806 -4.97205 -2.67296 0
M  V30 1288 N 121.204 0.198386 -1.56346 0
M  V30 1289 C 122.154 1.2499 -1.90687 0
M  V30 1290 C 123.138 1.41158 -0.772217 0
M  V30 1291 O 124.33 1.43584 -1.03502 0
M  V30 1292 C 121.459 2.59542 -2.24706 0
M  V30 1293 C 120.545 2.47181 -3.44619 0
M  V30 1294 N 120.936 2.04495 -4.62618 0
M  V30 1295 C 119.234 2.78082 -3.48692 0
M  V30 1296 C 119.935 2.03945 -5.44776 0
M  V30 1297 N 118.911 2.45323 -4.85095 0
M  V30 1298 H 122.713 0.911149 -2.7942 0
M  V30 1299 H 120.227 0.40684 -1.57221 0
M  V30 1300 H 122.224 3.3549 -2.47491 0
M  V30 1301 H 120.884 2.94244 -1.37298 0
M  V30 1302 H 121.895 1.75256 -4.87345 0
M  V30 1303 H 118.572 3.17002 -2.71691 0
M  V30 1304 H 119.962 1.72872 -6.4928 0
M  V30 1305 N 122.682 1.50554 0.465978 0
M  V30 1306 C 123.959 1.5232 1.22712 0
M  V30 1307 C 124.339 0.270807 2.09356 0
M  V30 1308 O 123.687 -0.745541 2.15995 0
M  V30 1309 C 123.897 2.82175 2.05374 0
M  V30 1310 C 125.245 3.33033 2.6339 0
M  V30 1311 O 126.269 2.83531 2.15612 0
M  V30 1312 O 125.128 4.19336 3.50456 0
M  V30 1313 H 122.222 0.611183 0.557122 0
M  V30 1314 H 124.768 1.62847 0.477381 0
M  V30 1315 H 123.54 3.64797 1.41558 0
M  V30 1316 H 123.163 2.74675 2.87471 0
M  V30 1317 N 124.16 -0.719506 1.40217 0
M  V30 1318 C 125.407 -1.47933 1.38283 0
M  V30 1319 C 125.735 -1.94493 -0.0161536 0
M  V30 1320 O 124.99 -1.68224 -0.999956 0
M  V30 1321 C 125.289 -2.72271 2.31524 0
M  V30 1322 C 124.955 -2.44496 3.78857 0
M  V30 1323 C 123.617 -2.36631 4.18998 0
M  V30 1324 C 125.969 -2.21104 4.71977 0
M  V30 1325 C 123.297 -2.03437 5.503 0
M  V30 1326 C 125.649 -1.89423 6.03574 0
M  V30 1327 C 124.313 -1.80038 6.42762 0
M  V30 1328 H 123.583 -0.541325 0.506012 0
M  V30 1329 H 126.23 -0.824502 1.72842 0
M  V30 1330 H 124.535 -3.42572 1.90137 0
M  V30 1331 H 126.232 -3.30348 2.27313 0
M  V30 1332 H 122.822 -2.51503 3.47051 0
M  V30 1333 H 127.006 -2.26139 4.41786 0
M  V30 1334 H 122.262 -1.94705 5.79569 0
M  V30 1335 H 126.436 -1.70336 6.75247 0
M  V30 1336 H 124.063 -1.54083 7.44421 0
M  V30 1337 N 125.638 -1.25649 -0.95132 0
M  V30 1338 C 126.885 -1.10594 -1.69633 0
M  V30 1339 C 127.213 0.352515 -1.91279 0
M  V30 1340 O 126.468 1.27601 -1.4838 0
M  V30 1341 C 126.767 -1.80909 -3.08231 0
M  V30 1342 C 126.433 -3.30825 -3.06375 0
M  V30 1343 C 125.095 -3.71722 -3.05576 0
M  V30 1344 C 127.447 -4.26589 -2.99452 0
M  V30 1345 C 124.775 -5.06788 -2.95606 0
M  V30 1346 C 127.127 -5.61683 -2.91024 0
M  V30 1347 C 125.791 -6.01904 -2.88562 0
M  V30 1348 H 125.061 -0.404691 -0.620731 0
M  V30 1349 H 127.708 -1.55964 -1.11119 0
M  V30 1350 H 126.013 -1.27979 -3.70309 0
M  V30 1351 H 127.71 -1.6671 -3.64704 0
M  V30 1352 H 124.3 -2.98287 -3.07771 0
M  V30 1353 H 128.484 -3.95982 -2.99185 0
M  V30 1354 H 123.74 -5.37126 -2.92071 0
M  V30 1355 H 127.914 -6.35578 -2.84629 0
M  V30 1356 H 125.541 -7.06521 -2.80593 0
M  V30 1357 N 127.117 1.15442 -1.07289 0
M  V30 1358 C 128.363 1.86489 -0.796846 0
M  V30 1359 C 128.696 1.82078 0.675371 0
M  V30 1360 O 127.971 1.24346 1.4956 0
M  V30 1361 C 128.254 3.35626 -1.30489 0
M  V30 1362 C 128.107 3.48673 -2.84161 0
M  V30 1363 C 129.426 4.30357 -0.920907 0
M  V30 1364 H 126.545 0.677144 -0.290939 0
M  V30 1365 H 129.187 1.35633 -1.33056 0
M  V30 1366 H 127.337 3.79068 -0.850883 0
M  V30 1367 H 129.009 3.14099 -3.37846 0
M  V30 1368 H 127.252 2.90253 -3.22391 0
M  V30 1369 H 127.923 4.53453 -3.14777 0
M  V30 1370 H 130.399 3.94871 -1.3121 0
M  V30 1371 H 129.275 5.33193 -1.30372 0
M  V30 1372 H 129.536 4.4176 0.173226 0
M  V30 1373 N 128.595 0.856903 1.32268 0
M  V30 1374 C 129.843 0.460474 1.96784 0
M  V30 1375 C 130.164 -0.987701 1.68135 0
M  V30 1376 O 129.434 -1.69058 0.989765 0
M  V30 1377 H 128.014 0.167289 0.728027 0
M  V30 1378 H 130.676 1.09383 1.61312 0
M  V30 1379 H 129.772 0.60739 3.06133 0
M  V30 1380 N 130.073 -1.45103 0.615059 0
M  V30 1381 C 131.003 -2.33339 -0.0865619 0
M  V30 1382 C 131.984 -1.4727 -0.851209 0
M  V30 1383 O 133.169 -1.76026 -0.820281 0
M  V30 1384 C 130.299 -3.30095 -1.07956 0
M  V30 1385 C 129.253 -4.25858 -0.427628 0
M  V30 1386 C 128.579 -5.12361 -1.5294 0
M  V30 1387 C 129.879 -5.18165 0.655944 0
M  V30 1388 H 131.573 -2.92254 0.650224 0
M  V30 1389 H 129.119 -1.40532 0.314138 0
M  V30 1390 H 131.072 -3.90698 -1.57901 0
M  V30 1391 H 129.796 -2.69355 -1.84703 0
M  V30 1392 H 128.455 -3.66564 0.0510292 0
M  V30 1393 H 128.103 -4.47984 -2.28734 0
M  V30 1394 H 127.803 -5.77238 -1.09865 0
M  V30 1395 H 129.327 -5.75833 -2.03098 0
M  V30 1396 H 130.741 -5.72796 0.240257 0
M  V30 1397 H 129.138 -5.91559 1.00888 0
M  V30 1398 H 130.208 -4.60144 1.52957 0
M  V30 1399 N 131.551 -0.354651 -1.53558 0
M  V30 1400 C 132.484 0.540273 -2.21712 0
M  V30 1401 C 133.462 1.09161 -1.2051 0
M  V30 1402 O 134.646 1.14979 -1.49372 0
M  V30 1403 C 131.773 1.74435 -2.90328 0
M  V30 1404 C 130.819 1.32146 -4.05512 0
M  V30 1405 S 131.652 0.331924 -5.3447 0
M  V30 1406 C 132.808 1.54258 -6.06593 0
M  V30 1407 H 133.041 -0.0385776 -2.97275 0
M  V30 1408 H 130.574 -0.138736 -1.53775 0
M  V30 1409 H 132.532 2.43507 -3.30476 0
M  V30 1410 H 131.193 2.29444 -2.1451 0
M  V30 1411 H 130.386 2.21952 -4.52497 0
M  V30 1412 H 129.988 0.710091 -3.67197 0
M  V30 1413 H 132.28 2.47534 -6.30661 0
M  V30 1414 H 133.223 1.11431 -6.99277 0
M  V30 1415 H 133.631 1.74367 -5.36895 0
M  V30 1416 N 133.029 1.57378 -0.0835403 0
M  V30 1417 C 134.277 1.93547 0.581718 0
M  V30 1418 C 134.598 0.96524 1.69435 0
M  V30 1419 O 133.868 0.0153369 1.95894 0
M  V30 1420 H 132.448 0.714521 0.217874 0
M  V30 1421 H 135.11 1.94366 -0.144158 0
M  V30 1422 H 134.206 2.95665 0.999423 0
M  V30 1423 N 134.507 -0.190092 1.56449 0
M  V30 1424 C 135.454 -1.23557 1.94942 0
M  V30 1425 C 136.424 -1.44972 0.810696 0
M  V30 1426 O 137.609 -1.58023 1.06927 0
M  V30 1427 C 134.749 -2.57416 2.2985 0
M  V30 1428 C 133.862 -2.43537 3.5681 0
M  V30 1429 C 132.997 -3.70134 3.81017 0
M  V30 1430 C 132.036 -3.51109 5.01387 0
M  V30 1431 N 131.173 -4.6973 5.21822 0
M  V30 1432 H 136.013 -0.900304 2.84075 0
M  V30 1433 H 133.55 -0.43318 1.40577 0
M  V30 1434 H 135.508 -3.35409 2.48106 0
M  V30 1435 H 134.138 -2.88975 1.43852 0
M  V30 1436 H 133.19 -1.56816 3.46573 0
M  V30 1437 H 134.502 -2.25415 4.4496 0
M  V30 1438 H 133.656 -4.56566 3.9954 0
M  V30 1439 H 132.395 -3.91215 2.91207 0
M  V30 1440 H 131.4 -2.63063 4.82782 0
M  V30 1441 H 132.625 -3.31468 5.9271 0
M  V30 1442 H 130.571 -4.91065 4.34961 0
M  V30 1443 H 130.488 -4.54452 6.0416 0
M  V30 1444 H 131.756 -5.57499 5.44808 0
M  V30 1445 N 135.985 -1.50799 -0.457987 0
M  V30 1446 C 137.401 -1.38515 -0.792819 0
M  V30 1447 C 137.601 -0.451409 -1.96379 0
M  V30 1448 O 136.657 0.10112 -2.52297 0
M  V30 1449 C 137.97 -2.80149 -1.09258 0
M  V30 1450 C 139.518 -2.89156 -1.19825 0
M  V30 1451 C 139.993 -4.31651 -1.53106 0
M  V30 1452 N 141.484 -4.34662 -1.60072 0
M  V30 1453 C 142.219 -5.41928 -1.87354 0
M  V30 1454 N 141.715 -6.59384 -2.12568 0
M  V30 1455 N 143.508 -5.29385 -1.88965 0
M  V30 1456 H 135.659 -2.10073 0.313511 0
M  V30 1457 H 137.922 -0.944803 0.0777862 0
M  V30 1458 H 137.628 -3.50374 -0.305084 0
M  V30 1459 H 137.502 -3.18204 -2.02549 0
M  V30 1460 H 139.889 -2.19141 -1.97639 0
M  V30 1461 H 139.97 -2.54626 -0.244821 0
M  V30 1462 H 139.614 -5.02208 -0.758266 0
M  V30 1463 H 139.544 -4.63678 -2.49621 0
M  V30 1464 H 142.035 -3.49973 -1.42573 0
M  V30 1465 H 142.348 -7.36934 -2.32696 0
M  V30 1466 H 140.693 -6.62535 -2.09933 0
M  V30 1467 H 143.884 -4.36616 -1.68772 0
M  V30 1468 H 144.057 -6.13066 -2.09891 0
M  V30 1469 N 137.463 0.71206 -1.40597 0
M  V30 1470 C 138.688 1.50617 -1.42581 0
M  V30 1471 C 139.113 1.88079 -0.0282102 0
M  V30 1472 O 138.471 1.53511 0.964579 0
M  V30 1473 C 138.519 2.7557 -2.3258 0
M  V30 1474 O 137.623 3.72414 -1.77148 0
M  V30 1475 H 136.964 0.453966 -0.484573 0
M  V30 1476 H 139.494 0.876649 -1.84868 0
M  V30 1477 H 139.504 3.2406 -2.47889 0
M  V30 1478 H 138.179 2.47639 -3.34138 0
M  V30 1479 H 136.756 3.31276 -1.71204 0
M  V30 1480 N 138.941 1.26152 0.944643 0
M  V30 1481 C 140.187 1.11657 1.69294 0
M  V30 1482 C 140.52 -0.339926 1.91202 0
M  V30 1483 O 139.795 -1.24994 1.49019 0
M  V30 1484 C 140.078 1.88236 3.06984 0
M  V30 1485 C 139.931 3.41772 2.92424 0
M  V30 1486 C 141.25 1.67343 4.07043 0
M  V30 1487 H 138.369 0.407004 0.614424 0
M  V30 1488 H 141.011 1.55106 1.09737 0
M  V30 1489 H 139.161 1.51308 3.57824 0
M  V30 1490 H 140.833 3.88433 2.48832 0
M  V30 1491 H 139.076 3.68974 2.28124 0
M  V30 1492 H 139.747 3.90579 3.90067 0
M  V30 1493 H 142.223 1.99509 3.65151 0
M  V30 1494 H 141.099 2.23346 5.01406 0
M  V30 1495 H 141.36 0.617158 4.37771 0
M  V30 1496 N 140.419 -1.14872 1.07899 0
M  V30 1497 C 141.351 -2.19425 0.662231 0
M  V30 1498 C 142.364 -1.60231 -0.288079 0
M  V30 1499 O 143.553 -1.78336 -0.076534 0
M  V30 1500 C 140.653 -3.38867 -0.0470695 0
M  V30 1501 C 139.826 -4.27597 0.920831 0
M  V30 1502 C 138.885 -5.25616 0.247805 0
M  V30 1503 O 137.911 -5.62189 0.890599 0
M  V30 1504 N 139.113 -5.71746 -1.00435 0
M  V30 1505 H 141.878 -2.55797 1.56166 0
M  V30 1506 H 139.439 -1.30042 0.964404 0
M  V30 1507 H 141.431 -4.01497 -0.50813 0
M  V30 1508 H 140.001 -3.00864 -0.848523 0
M  V30 1509 H 139.221 -3.61982 1.56087 0
M  V30 1510 H 140.509 -4.83748 1.57688 0
M  V30 1511 H 139.907 -5.44153 -1.54642 0
M  V30 1512 H 138.464 -6.36389 -1.40899 0
M  V30 1513 N 141.898 -0.863906 -1.31812 0
M  V30 1514 C 143.309 -0.52522 -1.7916 0
M  V30 1515 C 143.66 0.957518 -1.71248 0
M  V30 1516 O 142.785 1.74734 -1.27659 0
M  V30 1517 C 143.38 -0.9466 -3.25307 0
M  V30 1518 C 141.939 -0.659668 -3.70574 0
M  V30 1519 C 141.086 -1.14126 -2.52726 0
M  V30 1520 H 144.037 -1.05022 -1.1898 0
M  V30 1521 H 144.058 -0.266766 -3.79564 0
M  V30 1522 H 143.57 -2.02579 -3.31034 0
M  V30 1523 H 141.671 0.408416 -3.70355 0
M  V30 1524 H 141.784 -1.23245 -4.62977 0
M  V30 1525 H 140.148 -0.561216 -2.4844 0
M  V30 1526 H 140.931 -2.22775 -2.61201 0
M  V30 1527 N 143.376 1.44774 -0.622745 0
M  V30 1528 C 144.653 1.95522 -0.0551974 0
M  V30 1529 C 145.033 1.5649 1.41683 0
M  V30 1530 O 144.381 0.834848 2.12703 0
M  V30 1531 C 144.591 3.4796 -0.269242 0
M  V30 1532 C 145.939 4.24306 -0.158014 0
M  V30 1533 O 146.963 3.55637 -0.200162 0
M  V30 1534 O 145.822 5.46471 -0.0558693 0
M  V30 1535 H 142.916 0.826556 0.0271015 0
M  V30 1536 H 145.462 1.54866 -0.693864 0
M  V30 1537 H 144.234 3.6939 -1.29099 0
M  V30 1538 H 143.857 3.95543 0.403966 0
M  V30 1539 N 144.854 0.36279 1.53368 0
M  V30 1540 C 146.079 -0.231226 2.06107 0
M  V30 1541 C 146.504 -1.419 1.23474 0
M  V30 1542 O 145.862 -1.79524 0.253128 0
M  V30 1543 C 145.91 -0.605523 3.5548 0
M  V30 1544 O 145.014 -1.70312 3.7559 0
M  V30 1545 H 144.355 -0.034327 0.663112 0
M  V30 1546 H 146.885 0.522584 1.97814 0
M  V30 1547 H 146.895 -0.877314 3.98456 0
M  V30 1548 H 145.57 0.263004 4.15068 0
M  V30 1549 H 144.147 -1.4271 3.44512 0
M  V30 1550 N 146.332 -1.57332 0.0918853 0
M  V30 1551 C 147.743 -1.81496 -0.437739 0
M  V30 1552 C 148.094 -1.00727 -1.6837 0
M  V30 1553 O 147.219 -0.235694 -2.15113 0
M  V30 1554 C 147.814 -3.29197 -0.800939 0
M  V30 1555 C 146.373 -3.54136 -1.27532 0
M  V30 1556 C 145.52 -2.75979 -0.270392 0
M  V30 1557 H 148.471 -1.55494 0.317366 0
M  V30 1558 H 148.492 -3.42344 -1.66074 0
M  V30 1559 H 148.004 -3.87955 0.106078 0
M  V30 1560 H 146.105 -3.00705 -2.20016 0
M  V30 1561 H 146.218 -4.62792 -1.23938 0
M  V30 1562 H 144.582 -2.43349 -0.751872 0
M  V30 1563 H 145.365 -3.37484 0.629248 0
M  V30 1564 N 147.81 0.181792 -1.56548 0
M  V30 1565 C 149.038 0.915947 -1.85521 0
M  V30 1566 C 149.453 1.76282 -0.676016 0
M  V30 1567 O 148.81 1.79012 0.355077 0
M  V30 1568 C 148.861 1.80126 -3.13427 0
M  V30 1569 O 148.582 0.988562 -4.26801 0
M  V30 1570 C 150.083 2.64597 -3.55673 0
M  V30 1571 H 147.303 0.26661 -0.61576 0
M  V30 1572 H 149.847 0.185039 -2.03661 0
M  V30 1573 H 148.002 2.48563 -2.97145 0
M  V30 1574 H 148.416 1.59308 -4.99721 0
M  V30 1575 H 149.89 3.2235 -4.48101 0
M  V30 1576 H 150.367 3.38958 -2.79292 0
M  V30 1577 H 150.973 2.0151 -3.74532 0
M  V30 1578 N 149.288 1.51039 0.449983 0
M  V30 1579 C 150.565 1.53612 1.21089 0
M  V30 1580 C 150.945 0.292997 2.09057 0
M  V30 1581 O 150.293 -0.72259 2.16774 0
M  V30 1582 C 150.503 2.84337 2.0237 0
M  V30 1583 C 151.851 3.35807 2.59843 0
M  V30 1584 O 152.875 2.85802 2.12593 0
M  V30 1585 O 151.734 4.23029 3.45989 0
M  V30 1586 H 148.828 0.617057 0.550608 0
M  V30 1587 H 151.374 1.63344 0.460082 0
M  V30 1588 H 150.146 3.66278 1.37681 0
M  V30 1589 H 149.769 2.77708 2.84542 0
M  V30 1590 N 150.766 -0.704594 1.40972 0
M  V30 1591 C 152.012 -1.46675 1.40051 0
M  V30 1592 C 152.345 -1.94199 0.00641102 0
M  V30 1593 O 151.62 -1.68916 -0.964235 0
M  V30 1594 C 151.903 -2.68505 2.39952 0
M  V30 1595 C 151.756 -2.26805 3.88432 0
M  V30 1596 C 153.075 -3.70686 2.37233 0
M  V30 1597 H 150.194 -0.532015 0.510028 0
M  V30 1598 H 152.836 -0.803255 1.72185 0
M  V30 1599 H 150.986 -3.25114 2.1268 0
M  V30 1600 H 152.658 -1.75592 4.26574 0
M  V30 1601 H 150.901 -1.58685 4.03734 0
M  V30 1602 H 151.572 -3.14181 4.53866 0
M  V30 1603 H 154.048 -3.23731 2.61415 0
M  V30 1604 H 152.924 -4.53553 3.09162 0
M  V30 1605 H 153.185 -4.19754 1.38777 0
M  V30 1606 N 152.244 -1.26651 -0.937939 0
M  V30 1607 C 153.192 -1.08308 -2.05845 0
M  V30 1608 C 154.186 -0.0090757 -1.69398 0
M  V30 1609 O 155.392 -0.166007 -1.79233 0
M  V30 1610 H 151.767 -0.333416 -0.674046 0
M  V30 1611 H 153.738 -2.03261 -2.18467 0
M  V30 1612 C 152.487 -0.736229 -3.39816 0
M  V30 1613 H 151.81 -1.55453 -3.6834 0
M  V30 1614 H 153.25 -0.64769 -4.19024 0
M  V30 1615 C 151.709 0.558824 -3.32233 0
M  V30 1616 O 152.239 1.59621 -3.68624 0
M  V30 1617 N 150.445 0.550657 -2.85335 0
M  V30 1618 H 149.992 -0.293943 -2.55917 0
M  V30 1619 H 149.95 1.41726 -2.80644 0
M  V30 1620 N 153.722 1.14298 -1.08507 0
M  V30 1621 C 154.654 2.1907 -0.673859 0
M  V30 1622 C 155.667 1.60381 0.279577 0
M  V30 1623 O 156.856 1.78374 0.0670754 0
M  V30 1624 C 153.956 3.38888 0.0290979 0
M  V30 1625 C 153.129 4.27103 -0.943494 0
M  V30 1626 C 152.188 5.25477 -0.275676 0
M  V30 1627 O 151.214 5.61709 -0.920401 0
M  V30 1628 N 152.416 5.7227 0.974013 0
M  V30 1629 H 155.181 2.54965 -1.57521 0
M  V30 1630 H 152.742 1.29528 -0.971287 0
M  V30 1631 H 154.734 4.01761 0.48683 0
M  V30 1632 H 153.304 3.01309 0.832555 0
M  V30 1633 H 152.524 3.61149 -1.58004 0
M  V30 1634 H 153.812 4.82905 -1.60251 0
M  V30 1635 H 153.21 5.44965 1.51755 0
M  V30 1636 H 151.767 6.37127 1.37522 0
M  V30 1637 N 155.201 0.870884 1.31352 0
M  V30 1638 C 156.111 0.330783 2.32256 0
M  V30 1639 C 157.127 -0.559767 1.6475 0
M  V30 1640 O 158.303 -0.456263 1.96164 0
M  V30 1641 C 155.368 -0.458137 3.4366 0
M  V30 1642 C 154.429 0.460482 4.26823 0
M  V30 1643 C 153.662 -0.290881 5.32907 0
M  V30 1644 O 153.885 -1.51885 5.49806 0
M  V30 1645 O 152.819 0.351732 6.00871 0
M  V30 1646 H 156.645 1.16718 2.80376 0
M  V30 1647 H 154.23 0.634285 1.35267 0
M  V30 1648 H 156.112 -0.905343 4.1156 0
M  V30 1649 H 154.787 -1.27106 2.97701 0
M  V30 1650 H 153.694 0.956207 3.61673 0
M  V30 1651 H 155.027 1.23903 4.7635 0
M  V30 1652 N 156.679 -1.44442 0.630414 0
M  V30 1653 C 157.627 -2.32437 -0.0871428 0
M  V30 1654 C 158.621 -1.47304 -0.836525 0
M  V30 1655 O 159.827 -1.63653 -0.749506 0
M  V30 1656 H 156.202 -0.750533 -0.0469495 0
M  V30 1657 H 158.173 -2.90709 0.673096 0
M  V30 1658 C 156.922 -3.31288 -1.05563 0
M  V30 1659 H 156.245 -3.96805 -0.488426 0
M  V30 1660 H 157.685 -3.9554 -1.52721 0
M  V30 1661 C 156.144 -2.6016 -2.14052 0
M  V30 1662 O 156.674 -2.39997 -3.22124 0
M  V30 1663 N 154.88 -2.19911 -1.89967 0
M  V30 1664 H 154.427 -2.36509 -1.02085 0
M  V30 1665 H 154.385 -1.72646 -2.62756 0
M  V30 1666 N 158.157 -0.370918 -1.53173 0
M  V30 1667 C 159.403 0.217423 -2.01631 0
M  V30 1668 C 159.736 1.47983 -1.25756 0
M  V30 1669 O 159.011 1.91274 -0.352764 0
M  V30 1670 C 159.294 0.503982 -3.56556 0
M  V30 1671 C 159.147 -0.77243 -4.43118 0
M  V30 1672 C 160.466 1.30234 -4.20389 0
M  V30 1673 H 157.585 0.0775486 -0.732909 0
M  V30 1674 H 160.227 -0.496863 -1.83388 0
M  V30 1675 H 158.377 1.11248 -3.72231 0
M  V30 1676 H 160.049 -1.4098 -4.39229 0
M  V30 1677 H 158.292 -1.39167 -4.10871 0
M  V30 1678 H 158.963 -0.526815 -5.4948 0
M  V30 1679 H 161.439 0.787546 -4.08579 0
M  V30 1680 H 160.315 1.47158 -5.28806 0
M  V30 1681 H 160.576 2.31237 -3.76805 0
M  V30 1682 N 159.635 1.57281 -0.100228 0
M  V30 1683 C 161.046 1.81725 0.428107 0
M  V30 1684 C 161.397 1.01619 1.67833 0
M  V30 1685 O 160.522 0.247098 2.14985 0
M  V30 1686 C 161.117 3.29617 0.78347 0
M  V30 1687 C 159.676 3.54808 1.25653 0
M  V30 1688 C 158.823 2.76118 0.255752 0
M  V30 1689 H 161.774 1.55324 -0.325608 0
M  V30 1690 H 161.795 3.4322 1.64256 0
M  V30 1691 H 161.307 3.87893 -0.12665 0
M  V30 1692 H 159.408 3.01868 2.18418 0
M  V30 1693 H 159.521 4.63443 1.21482 0
M  V30 1694 H 157.885 2.43745 0.738956 0
M  V30 1695 H 158.668 3.37145 -0.647136 0
M  V30 1696 N 161.113 -0.173488 1.56642 0
M  V30 1697 C 162.338 -0.910149 1.86363 0
M  V30 1698 C 162.763 -1.75132 0.686318 0
M  V30 1699 O 162.121 -1.77595 -0.364643 0
M  V30 1700 C 162.169 -1.76447 3.14482 0
M  V30 1701 O 161.273 -2.86584 2.96553 0
M  V30 1702 H 160.614 -0.255086 0.613047 0
M  V30 1703 H 163.144 -0.172283 2.03873 0
M  V30 1704 H 163.154 -2.16483 3.45831 0
M  V30 1705 H 161.829 -1.14658 3.99783 0
M  V30 1706 H 160.406 -2.50146 2.76553 0
M  V30 1707 N 162.591 -1.51276 -0.441967 0
M  V30 1708 C 163.838 -1.63715 -1.19179 0
M  V30 1709 C 164.166 -0.351175 -1.91303 0
M  V30 1710 O 163.421 0.664524 -1.84072 0
M  V30 1711 C 163.72 -2.78746 -2.23686 0
M  V30 1712 C 163.386 -4.18189 -1.68607 0
M  V30 1713 C 162.048 -4.56125 -1.53308 0
M  V30 1714 C 164.4 -5.05222 -1.28062 0
M  V30 1715 C 161.728 -5.78804 -0.959317 0
M  V30 1716 C 164.08 -6.28476 -0.721162 0
M  V30 1717 C 162.744 -6.65188 -0.55504 0
M  V30 1718 H 162.014 -0.599076 -0.436106 0
M  V30 1719 H 164.661 -1.85296 -0.48351 0
M  V30 1720 H 162.966 -2.51369 -3.00535 0
M  V30 1721 H 164.663 -2.8557 -2.81515 0
M  V30 1722 H 161.253 -3.88277 -1.8149 0
M  V30 1723 H 165.437 -4.76524 -1.38704 0
M  V30 1724 H 160.693 -6.05899 -0.81833 0
M  V30 1725 H 164.867 -6.95259 -0.398458 0
M  V30 1726 H 162.494 -7.60123 -0.108311 0
M  V30 1727 N 164.069 0.697108 -1.41344 0
M  V30 1728 C 165.317 1.45426 -1.40341 0
M  V30 1729 C 165.638 1.94996 -0.0128787 0
M  V30 1730 O 164.908 1.71599 0.945027 0
M  V30 1731 H 163.488 0.539594 -0.516573 0
M  V30 1732 H 166.15 0.825201 -1.76569 0
M  V30 1733 H 165.246 2.31817 -2.08967 0
M  V30 1734 N 165.547 1.27147 0.931209 0
M  V30 1735 C 166.796 1.12664 1.67302 0
M  V30 1736 C 167.109 -0.327718 1.92835 0
M  V30 1737 O 168.315 -0.593392 2.64936 0
M  V30 1738 C 166.771 1.9683 3.01307 0
M  V30 1739 C 166.379 3.46901 2.83485 0
M  V30 1740 C 168.123 1.90985 3.79111 0
M  V30 1741 C 166.03 4.23279 4.13024 0
M  V30 1742 H 164.96 0.41803 0.627509 0
M  V30 1743 H 167.611 1.51539 1.03481 0
M  V30 1744 H 165.993 1.50797 3.66164 0
M  V30 1745 H 167.167 4.00773 2.27415 0
M  V30 1746 H 165.482 3.54088 2.19113 0
M  V30 1747 H 168.079 2.45328 4.75098 0
M  V30 1748 H 168.422 0.882718 4.06834 0
M  V30 1749 H 168.955 2.34895 3.21044 0
M  V30 1750 H 165.694 5.26503 3.90481 0
M  V30 1751 H 165.214 3.74186 4.6877 0
M  V30 1752 H 166.893 4.32265 4.81411 0
M  V30 1753 N 167.025 -1.13721 1.09112 0
M  V30 1754 C 167.955 -2.21148 0.749385 0
M  V30 1755 C 168.936 -1.6792 -0.271475 0
M  V30 1756 O 170.121 -1.93693 -0.140251 0
M  V30 1757 C 167.251 -3.46905 0.165659 0
M  V30 1758 C 166.205 -4.13203 1.11567 0
M  V30 1759 C 165.531 -5.33248 0.393809 0
M  V30 1760 C 166.831 -4.60912 2.45678 0
M  V30 1761 H 168.525 -2.4999 1.64758 0
M  V30 1762 H 166.071 -1.20156 0.793626 0
M  V30 1763 H 168.024 -4.21313 -0.085466 0
M  V30 1764 H 166.748 -3.17449 -0.767714 0
M  V30 1765 H 165.407 -3.40758 1.35202 0
M  V30 1766 H 165.055 -5.00054 -0.543599 0
M  V30 1767 H 164.755 -5.78552 1.02721 0
M  V30 1768 H 166.279 -6.10413 0.150908 0
M  V30 1769 H 167.693 -5.26759 2.26269 0
M  V30 1770 H 166.09 -5.16944 3.04776 0
M  V30 1771 H 167.16 -3.75603 3.06677 0
M  V30 1772 N 168.503 -0.877838 -1.30888 0
M  V30 1773 C 169.45 -0.337538 -2.28318 0
M  V30 1774 C 170.42 0.568346 -1.56074 0
M  V30 1775 O 171.605 0.498298 -1.84178 0
M  V30 1776 C 168.745 0.448142 -3.42178 0
M  V30 1777 C 167.858 -0.48615 -4.29256 0
M  V30 1778 C 166.993 0.314427 -5.30269 0
M  V30 1779 C 166.032 -0.615791 -6.08995 0
M  V30 1780 N 165.169 0.14902 -7.01942 0
M  V30 1781 H 170.009 -1.17356 -2.73919 0
M  V30 1782 H 167.546 -0.590094 -1.34745 0
M  V30 1783 H 169.504 0.919517 -4.06941 0
M  V30 1784 H 168.134 1.24879 -2.97666 0
M  V30 1785 H 167.186 -1.076 -3.64865 0
M  V30 1786 H 168.498 -1.19909 -4.84173 0
M  V30 1787 H 167.652 0.847969 -6.00745 0
M  V30 1788 H 166.391 1.06062 -4.76027 0
M  V30 1789 H 165.396 -1.16102 -5.37401 0
M  V30 1790 H 166.621 -1.36097 -6.65323 0
M  V30 1791 H 164.567 0.877884 -6.50099 0
M  V30 1792 H 164.484 -0.504433 -7.54315 0
M  V30 1793 H 165.752 0.663537 -7.76671 0
M  V30 1794 N 169.982 1.44106 -0.638065 0
M  V30 1795 C 171.212 2.06037 -0.152394 0
M  V30 1796 C 171.62 1.47808 1.18108 0
M  V30 1797 O 170.963 0.598092 1.73691 0
M  V30 1798 C 171.025 3.59488 0.0293714 0
M  V30 1799 C 170.689 4.4022 -1.22702 0
M  V30 1800 C 171.686 4.73256 -2.15232 0
M  V30 1801 C 169.371 4.8048 -1.46437 0
M  V30 1802 C 171.365 5.45444 -3.29802 0
M  V30 1803 C 169.052 5.52417 -2.61303 0
M  V30 1804 C 170.05 5.84819 -3.52811 0
M  V30 1805 O 169.738 6.55289 -4.65673 0
M  V30 1806 H 169.47 0.671233 -0.0801401 0
M  V30 1807 H 172.024 1.85851 -0.874563 0
M  V30 1808 H 170.254 3.78191 0.806758 0
M  V30 1809 H 171.943 4.03164 0.470475 0
M  V30 1810 H 172.709 4.42684 -1.98131 0
M  V30 1811 H 168.588 4.54676 -0.760977 0
M  V30 1812 H 172.132 5.70653 -4.01249 0
M  V30 1813 H 168.029 5.82404 -2.78344 0
M  V30 1814 H 168.797 6.73762 -4.64744 0
M  V30 1815 N 171.46 0.379036 1.52974 0
M  V30 1816 C 172.871 -0.0972525 1.86447 0
M  V30 1817 C 173.222 -1.47027 1.29914 0
M  V30 1818 O 172.347 -2.07135 0.626433 0
M  V30 1819 C 172.942 -0.183248 3.38304 0
M  V30 1820 C 171.501 -0.603812 3.71525 0
M  V30 1821 C 170.648 0.240632 2.76254 0
M  V30 1822 H 173.599 0.597316 1.4703 0
M  V30 1823 H 173.62 -1.00432 3.67006 0
M  V30 1824 H 173.132 0.816191 3.79421 0
M  V30 1825 H 171.233 -1.61099 3.35973 0
M  V30 1826 H 171.346 -0.369086 4.77676 0
M  V30 1827 H 169.71 -0.292548 2.53014 0
M  V30 1828 H 170.493 1.23786 3.20206 0
M  V30 1829 N 172.938 -1.57226 0.108567 0
M  V30 1830 C 174.349 -1.8195 -0.418464 0
M  V30 1831 C 174.7 -1.02508 -1.67292 0
M  V30 1832 O 173.825 -0.258496 -2.14851 0
M  V30 1833 C 174.42 -3.30028 -0.765979 0
M  V30 1834 C 172.979 -3.55469 -1.23769 0
M  V30 1835 C 172.126 -2.7625 -0.241106 0
M  V30 1836 H 175.077 -1.55149 0.33384 0
M  V30 1837 H 175.098 -3.44086 -1.62434 0
M  V30 1838 H 174.61 -3.87821 0.147219 0
M  V30 1839 H 172.711 -3.03022 -2.16814 0
M  V30 1840 H 172.824 -4.6408 -1.19022 0
M  V30 1841 H 171.188 -2.44133 -0.72602 0
M  V30 1842 H 171.971 -3.36797 0.665007 0
M  V30 1843 N 174.416 0.165178 -1.56732 0
M  V30 1844 C 175.832 0.517174 -1.50988 0
M  V30 1845 C 176.032 1.84331 -0.813894 0
M  V30 1846 O 175.088 2.49672 -0.37682 0
M  V30 1847 C 176.401 0.544261 -2.95733 0
M  V30 1848 C 177.949 0.631039 -3.06573 0
M  V30 1849 C 178.424 0.68896 -4.52788 0
M  V30 1850 N 179.915 0.751683 -4.5706 0
M  V30 1851 C 180.65 0.817177 -5.67547 0
M  V30 1852 N 180.146 0.843129 -6.8765 0
M  V30 1853 N 181.939 0.856668 -5.55534 0
M  V30 1854 H 174.09 -0.704318 -2.00382 0
M  V30 1855 H 176.353 -0.254687 -0.913148 0
M  V30 1856 H 176.059 -0.361607 -3.49836 0
M  V30 1857 H 175.933 1.3886 -3.5071 0
M  V30 1858 H 178.32 1.52733 -2.52501 0
M  V30 1859 H 178.401 -0.240095 -2.54671 0
M  V30 1860 H 178.045 -0.2031 -5.07494 0
M  V30 1861 H 177.975 1.57633 -5.02454 0
M  V30 1862 H 180.466 0.739661 -3.70591 0
M  V30 1863 H 180.779 0.894448 -7.67606 0
M  V30 1864 H 179.124 0.811304 -6.90248 0
M  V30 1865 H 182.315 0.833437 -4.60621 0
M  V30 1866 H 182.488 0.904247 -6.4166 0
M  V30 1867 N 175.894 1.51508 0.433938 0
M  V30 1868 C 176.857 1.72473 1.50949 0
M  V30 1869 C 177.857 0.594725 1.49398 0
M  V30 1870 O 179.047 0.862315 1.5136 0
M  V30 1871 C 176.179 1.78431 2.90474 0
M  V30 1872 H 177.372 2.68467 1.33662 0
M  V30 1873 H 174.925 1.41549 0.662836 0
M  V30 1874 H 175.66 0.842645 3.13161 0
M  V30 1875 H 175.445 2.60558 2.93005 0
M  V30 1876 H 176.935 1.96479 3.68491 0
M  V30 1877 N 177.372 -0.689602 1.41712 0
M  V30 1878 C 178.282 -1.83314 1.46401 0
M  V30 1879 C 179.298 -1.7036 0.35405 0
M  V30 1880 O 180.474 -1.92171 0.602692 0
M  V30 1881 C 177.539 -3.19344 1.34982 0
M  V30 1882 C 176.6 -3.44363 2.56344 0
M  V30 1883 C 175.833 -4.73904 2.45461 0
M  V30 1884 O 176.056 -5.508 1.48241 0
M  V30 1885 O 174.99 -4.99839 3.35328 0
M  V30 1886 H 178.816 -1.82314 2.42889 0
M  V30 1887 H 176.401 -0.843438 1.23315 0
M  V30 1888 H 178.283 -4.00547 1.3092 0
M  V30 1889 H 176.958 -3.21014 0.41612 0
M  V30 1890 H 175.865 -2.63067 2.65982 0
M  V30 1891 H 177.198 -3.47512 3.48563 0
M  V30 1892 O 178.889 -1.38429 -0.831842 0
M  V30 1893 H 179.58 -1.25628 -1.47436 0
M  V30 END ATOM
M  V30 BEGIN BOND
M  V30 END BOND
M  V30 END CTAB
M  END
$$$$
