drugbank_target|Q9UHQ9 NADH-cytochrome b5 reductase 1 (DB03147)
 OpenBabel12092120543D

  0  0  0     0  0            999 V3000
M  V30 BEGIN CTAB
M  V30 COUNTS 4887 4948 0 0 0
M  V30 BEGIN ATOM
M  V30 1 H -0.908 1.98254 -0.117106 0
M  V30 2 N 0 1.576 0 0
M  V30 3 C 0.933 2.03868 1.02534 0
M  V30 4 C 1.911 0.928543 1.3348 0
M  V30 5 O 3.095 1.19667 1.45644 0
M  V30 6 C 0.222 2.43627 2.35294 0
M  V30 7 C -0.732 3.65373 2.2001 0
M  V30 8 S 0.101 5.13292 1.52614 0
M  V30 9 C 1.257 5.56322 2.86805 0
M  V30 10 H 1.49 2.90518 0.631377 0
M  V30 11 H -0.977 1.52953 0.210867 0
M  V30 12 H 0.981 2.67203 3.11629 0
M  V30 13 H -0.358 1.57376 2.7183 0
M  V30 14 H -1.165 3.90944 3.18086 0
M  V30 15 H -1.563 3.418 1.51819 0
M  V30 16 H 0.729 5.58782 3.83104 0
M  V30 17 H 1.672 6.56266 2.65933 0
M  V30 18 H 2.08 4.83886 2.90714 0
M  V30 19 N 1.4781 -0.272755 1.55222 0
M  V30 20 C 2.7261 -1.00234 1.75492 0
M  V30 21 C 3.0471 -1.8681 0.5592 0
M  V30 22 O 2.3171 -1.91215 -0.425882 0
M  V30 23 H 0.8971 -0.373076 0.647166 0
M  V30 24 H 3.5591 -0.296926 1.92625 0
M  V30 25 H 2.6551 -1.63913 2.65592 0
M  V30 26 N 2.9562 -1.48159 -0.537278 0
M  V30 27 C 4.2052 -1.5506 -1.28993 0
M  V30 28 C 4.5182 -0.226211 -1.94288 0
M  V30 29 O 5.7242 -0.173395 -2.70946 0
M  V30 30 C 4.1802 -2.73429 -2.34018 0
M  V30 31 C 3.7882 -4.1248 -1.74825 0
M  V30 32 C 5.5322 -2.89638 -3.10339 0
M  V30 33 C 3.4392 -5.22121 -2.77747 0
M  V30 34 H 2.3692 -0.577231 -0.485098 0
M  V30 35 H 5.0202 -1.74478 -0.568317 0
M  V30 36 H 3.4022 -2.47431 -3.09182 0
M  V30 37 H 4.5762 -4.48466 -1.05899 0
M  V30 38 H 2.8912 -4.01327 -1.11022 0
M  V30 39 H 5.4882 -3.68718 -3.87235 0
M  V30 40 H 5.8312 -1.9882 -3.65754 0
M  V30 41 H 6.3642 -3.15502 -2.42288 0
M  V30 42 H 3.1032 -6.1488 -2.27161 0
M  V30 43 H 2.6232 -4.90631 -3.45024 0
M  V30 44 H 4.3022 -5.49924 -3.4087 0
M  V30 45 N 4.4343 0.785586 -1.36625 0
M  V30 46 C 5.3663 1.90711 -1.2713 0
M  V30 47 C 6.3793 1.61688 -0.189986 0
M  V30 48 O 7.5683 1.72864 -0.445014 0
M  V30 49 C 4.6683 3.25611 -0.939713 0
M  V30 50 C 3.8413 3.82385 -2.12369 0
M  V30 51 C 2.9003 4.95732 -1.76456 0
M  V30 52 O 1.9263 5.12047 -2.48589 0
M  V30 53 N 3.1283 5.76258 -0.700492 0
M  V30 54 H 5.8933 1.99376 -2.23762 0
M  V30 55 H 3.4543 0.964041 -1.30069 0
M  V30 56 H 5.4463 3.98937 -0.680554 0
M  V30 57 H 4.0163 3.12538 -0.0624074 0
M  V30 58 H 3.2363 3.01001 -2.54543 0
M  V30 59 H 4.5243 4.17047 -2.9146 0
M  V30 60 H 3.9223 5.65609 -0.101624 0
M  V30 61 H 2.4793 6.4987 -0.501165 0
M  V30 62 N 5.9124 1.20967 1.01018 0
M  V30 63 C 7.1404 1.04956 1.78303 0
M  V30 64 C 7.5554 -0.400915 1.84494 0
M  V30 65 O 6.9124 -1.27826 1.30257 0
M  V30 66 C 6.9634 1.63403 3.22462 0
M  V30 67 O 6.6844 3.02775 3.16637 0
M  V30 68 C 8.1854 1.52432 4.16268 0
M  V30 69 H 5.4054 0.368858 0.560522 0
M  V30 70 H 7.9494 1.60193 1.27116 0
M  V30 71 H 6.1044 1.1227 3.70775 0
M  V30 72 H 6.5184 3.30626 4.07169 0
M  V30 73 H 7.9924 1.98078 5.15237 0
M  V30 74 H 8.4694 0.477875 4.36592 0
M  V30 75 H 9.0754 2.02787 3.73841 0
M  V30 76 N 7.3905 -1.2043 1.01659 0
M  V30 77 C 8.6155 -1.94318 0.724942 0
M  V30 78 C 9.0405 -1.74266 -0.708034 0
M  V30 79 O 8.3985 -1.03694 -1.48719 0
M  V30 80 C 8.4465 -3.44486 1.06591 0
M  V30 81 O 7.5505 -4.12017 0.177599 0
M  V30 82 H 6.8915 -0.60708 0.26898 0
M  V30 83 H 9.4215 -1.52861 1.35995 0
M  V30 84 H 9.4315 -3.95106 1.01762 0
M  V30 85 H 8.1065 -3.58404 2.10997 0
M  V30 86 H 6.6835 -3.71821 0.283421 0
M  V30 87 N 8.8686 -0.792821 -1.36206 0
M  V30 88 C 10.2796 -0.429513 -1.81692 0
M  V30 89 C 10.6306 1.04695 -1.65932 0
M  V30 90 O 9.7556 1.81256 -1.18218 0
M  V30 91 C 10.3506 -0.772831 -3.29868 0
M  V30 92 C 8.9096 -0.462307 -3.7355 0
M  V30 93 C 8.0566 -1.00569 -2.5842 0
M  V30 94 H 11.0076 -0.985672 -1.24379 0
M  V30 95 H 11.0286 -0.0651928 -3.80444 0
M  V30 96 H 10.5406 -1.84747 -3.41307 0
M  V30 97 H 8.6416 0.604158 -3.67669 0
M  V30 98 H 8.7546 -0.985299 -4.68859 0
M  V30 99 H 7.1186 -0.428734 -2.51066 0
M  V30 100 H 7.9016 -2.08616 -2.72643 0
M  V30 101 N 10.3467 1.47872 -0.545128 0
M  V30 102 C 11.5927 2.02793 -0.0166104 0
M  V30 103 C 11.9257 1.41987 1.32489 0
M  V30 104 O 11.2007 0.571045 1.85928 0
M  V30 105 C 11.4837 3.59989 0.0893294 0
M  V30 106 C 11.3367 4.3125 -1.27841 0
M  V30 107 C 12.6557 4.32606 0.808724 0
M  V30 108 H 9.7747 0.736962 -0.00751035 0
M  V30 109 H 12.4167 1.76433 -0.705085 0
M  V30 110 H 10.5667 3.82579 0.675681 0
M  V30 111 H 12.2387 4.20035 -1.90704 0
M  V30 112 H 10.4817 3.92076 -1.85632 0
M  V30 113 H 11.1527 5.39736 -1.15713 0
M  V30 114 H 13.6287 4.14936 0.310992 0
M  V30 115 H 12.5047 5.42251 0.851782 0
M  V30 116 H 12.7657 4.00963 1.86229 0
M  V30 117 N 11.8248 0.280983 1.55075 0
M  V30 118 C 12.7548 -0.597469 2.25727 0
M  V30 119 C 13.7358 -1.15417 1.24952 0
M  V30 120 O 14.9208 -1.18722 1.53684 0
M  V30 121 C 12.0508 -1.7789 2.98283 0
M  V30 122 C 11.0048 -1.35347 4.06036 0
M  V30 123 C 10.3308 -2.61846 4.66198 0
M  V30 124 C 11.6308 -0.499354 5.19907 0
M  V30 125 H 13.3248 -0.00824265 2.99399 0
M  V30 126 H 10.8708 -0.0025244 1.44 0
M  V30 127 H 12.8238 -2.39937 3.46422 0
M  V30 128 H 11.5478 -2.39405 2.22155 0
M  V30 129 H 10.2068 -0.756156 3.58717 0
M  V30 130 H 9.8548 -3.21632 3.86732 0
M  V30 131 H 9.5548 -2.3409 5.38958 0
M  V30 132 H 11.0788 -3.24732 5.1709 0
M  V30 133 H 12.4928 -1.02498 5.64063 0
M  V30 134 H 10.8898 -0.316424 5.99265 0
M  V30 135 H 11.9598 0.480459 4.82514 0
M  V30 136 N 13.3029 -1.57598 0.00835791 0
M  V30 137 C 14.2329 -2.1198 -0.979113 0
M  V30 138 C 15.2139 -1.03091 -1.35301 0
M  V30 139 O 16.3989 -1.30818 -1.43528 0
M  V30 140 C 13.5289 -2.62995 -2.26828 0
M  V30 141 C 12.4829 -3.76485 -2.03576 0
M  V30 142 C 11.8089 -4.13846 -3.38579 0
M  V30 143 C 13.1089 -5.0342 -1.39161 0
M  V30 144 H 14.8029 -2.94738 -0.526281 0
M  V30 145 H 12.3489 -1.41783 -0.251704 0
M  V30 146 H 14.3019 -2.99669 -2.96271 0
M  V30 147 H 13.0259 -1.7737 -2.7424 0
M  V30 148 H 11.6849 -3.40217 -1.36557 0
M  V30 149 H 11.3329 -3.25232 -3.83709 0
M  V30 150 H 11.0329 -4.90312 -3.23834 0
M  V30 151 H 12.5569 -4.53086 -4.09323 0
M  V30 152 H 13.9709 -5.37812 -1.98573 0
M  V30 153 H 12.3679 -5.84746 -1.34878 0
M  V30 154 H 13.4379 -4.83548 -0.361868 0
M  V30 155 N 14.781 0.264519 -1.55364 0
M  V30 156 C 15.744 1.31046 -1.88042 0
M  V30 157 C 16.744 1.41943 -0.755569 0
M  V30 158 O 17.934 1.40947 -1.02369 0
M  V30 159 C 15.066 2.69067 -2.09323 0
M  V30 160 H 16.259 1.03297 -2.81549 0
M  V30 161 H 13.812 0.502989 -1.47986 0
M  V30 162 H 14.547 3.01982 -1.18226 0
M  V30 163 H 14.332 2.62542 -2.91229 0
M  V30 164 H 15.822 3.44623 -2.35848 0
M  V30 165 N 16.2591 1.48442 0.529413 0
M  V30 166 C 17.4841 1.60406 1.31471 0
M  V30 167 C 17.9091 0.264738 1.86228 0
M  V30 168 O 17.2671 -0.763668 1.64432 0
M  V30 169 C 17.3151 2.65419 2.44101 0
M  V30 170 O 16.4191 2.22618 3.47153 0
M  V30 171 H 15.7601 0.537863 0.389357 0
M  V30 172 H 18.2901 1.94432 0.636965 0
M  V30 173 H 18.3001 2.86709 2.90279 0
M  V30 174 H 16.9751 3.62652 2.03608 0
M  V30 175 H 15.5521 2.11543 3.0709 0
M  V30 176 N 17.7372 -0.778329 1.37039 0
M  V30 177 C 18.6672 -1.90546 1.34962 0
M  V30 178 C 19.6482 -1.68681 0.219274 0
M  V30 179 O 20.8332 -1.89634 0.418624 0
M  V30 180 C 17.9632 -3.27734 1.14925 0
M  V30 181 C 16.9172 -3.64147 2.24902 0
M  V30 182 C 16.2432 -4.99806 1.89996 0
M  V30 183 C 17.5432 -3.71579 3.67051 0
M  V30 184 H 19.2372 -1.92541 2.29277 0
M  V30 185 H 16.7832 -0.924948 1.10366 0
M  V30 186 H 18.7362 -4.06215 1.12104 0
M  V30 187 H 17.4602 -3.26154 0.170631 0
M  V30 188 H 16.1192 -2.8797 2.26868 0
M  V30 189 H 15.7672 -4.94759 0.906796 0
M  V30 190 H 15.4672 -5.25139 2.63634 0
M  V30 191 H 16.9912 -5.80694 1.88749 0
M  V30 192 H 18.4052 -4.40227 3.67251 0
M  V30 193 H 16.8022 -4.08405 4.39688 0
M  V30 194 H 17.8722 -2.72404 4.01154 0
M  V30 195 N 19.2153 -1.21501 -1.00376 0
M  V30 196 C 20.4633 -1.03095 -1.73827 0
M  V30 197 C 20.7843 0.436341 -1.90055 0
M  V30 198 O 20.0543 1.31466 -1.45236 0
M  V30 199 H 18.6343 -0.378487 -0.644016 0
M  V30 200 H 21.2963 -1.52831 -1.20949 0
M  V30 201 H 20.3923 -1.49991 -2.73695 0
M  V30 202 N 20.6934 1.19889 -1.02296 0
M  V30 203 C 21.9394 1.89701 -0.717033 0
M  V30 204 C 22.2724 1.7905 0.751989 0
M  V30 205 O 21.5474 1.17891 1.547 0
M  V30 206 C 21.8304 3.40858 -1.16136 0
M  V30 207 C 21.6834 3.60411 -2.69117 0
M  V30 208 C 23.0024 4.33876 -0.737549 0
M  V30 209 H 20.1214 0.688874 -0.261957 0
M  V30 210 H 22.7634 1.41154 -1.27183 0
M  V30 211 H 20.9134 3.82335 -0.689342 0
M  V30 212 H 22.5854 3.28145 -3.2422 0
M  V30 213 H 20.8284 3.03665 -3.0979 0
M  V30 214 H 21.4994 4.66396 -2.95261 0
M  V30 215 H 23.9754 4.00081 -1.14344 0
M  V30 216 H 22.8514 5.38242 -1.0764 0
M  V30 217 H 23.1124 4.40628 0.360436 0
M  V30 218 N 22.1715 0.800033 1.35784 0
M  V30 219 C 23.4195 0.376597 1.9856 0
M  V30 220 C 23.7405 -1.05812 1.63795 0
M  V30 221 O 23.0105 -1.73103 0.917171 0
M  V30 222 H 21.5905 0.136261 0.734467 0
M  V30 223 H 24.2525 1.02442 1.65806 0
M  V30 224 H 23.3485 0.477002 3.08433 0
M  V30 225 N 23.6496 -1.47581 0.552962 0
M  V30 226 C 24.5796 -2.32762 -0.185451 0
M  V30 227 C 25.5606 -1.43527 -0.912905 0
M  V30 228 O 26.7456 -1.72388 -0.894201 0
M  V30 229 C 23.8756 -3.25219 -1.21859 0
M  V30 230 C 22.8296 -4.23661 -0.607864 0
M  V30 231 C 22.1556 -5.05413 -1.74533 0
M  V30 232 C 23.4556 -5.20481 0.435582 0
M  V30 233 H 25.1496 -2.94749 0.525684 0
M  V30 234 H 22.6956 -1.41738 0.254251 0
M  V30 235 H 24.6486 -3.8365 -1.7433 0
M  V30 236 H 23.3726 -2.61279 -1.95961 0
M  V30 237 H 22.0316 -3.66451 -0.104489 0
M  V30 238 H 21.6796 -4.3788 -2.47529 0
M  V30 239 H 21.3796 -5.72059 -1.34249 0
M  V30 240 H 22.9036 -5.66701 -2.27338 0
M  V30 241 H 24.3176 -5.733 -0.00290157 0
M  V30 242 H 22.7146 -5.95305 0.757067 0
M  V30 243 H 23.7846 -4.66217 1.33303 0
M  V30 244 N 25.1277 -0.289203 -1.54924 0
M  V30 245 C 26.3737 0.323998 -2.00195 0
M  V30 246 C 26.7067 1.54441 -1.17735 0
M  V30 247 O 25.9817 1.92875 -0.250878 0
M  V30 248 C 26.2647 0.692276 -3.53383 0
M  V30 249 C 26.1177 -0.536457 -4.46589 0
M  V30 250 C 27.4367 1.52335 -4.12895 0
M  V30 251 H 24.5557 0.116289 -0.727768 0
M  V30 252 H 27.1977 -0.398954 -1.85764 0
M  V30 253 H 25.3477 1.30822 -3.65811 0
M  V30 254 H 27.0197 -1.17499 -4.46085 0
M  V30 255 H 25.2627 -1.17192 -4.1767 0
M  V30 256 H 25.9337 -0.234806 -5.515 0
M  V30 257 H 28.4097 1.00302 -4.0383 0
M  V30 258 H 27.2857 1.74982 -5.20262 0
M  V30 259 H 27.5467 2.50886 -3.64018 0
M  V30 260 N 26.6058 1.57591 -0.0167156 0
M  V30 261 C 27.8338 1.95575 0.675128 0
M  V30 262 C 28.2488 0.892542 1.6637 0
M  V30 263 O 27.6058 -0.126912 1.82058 0
M  V30 264 C 27.6568 3.33608 1.39239 0
M  V30 265 O 27.3778 4.3585 0.443444 0
M  V30 266 C 28.8788 3.86151 2.17721 0
M  V30 267 H 26.0988 0.644423 0.186978 0
M  V30 268 H 28.6428 2.0437 -0.0728 0
M  V30 269 H 26.7978 3.2607 2.09182 0
M  V30 270 H 27.2118 5.158 0.951358 0
M  V30 271 H 28.6858 4.85114 2.63379 0
M  V30 272 H 29.1628 3.19738 3.01105 0
M  V30 273 H 29.7688 3.96918 1.52761 0
M  V30 274 N 28.0839 -0.256276 1.55502 0
M  V30 275 C 29.0139 -1.32102 1.92539 0
M  V30 276 C 29.9949 -1.50684 0.789194 0
M  V30 277 O 31.1799 -1.63449 1.04872 0
M  V30 278 C 28.3099 -2.67752 2.21192 0
M  V30 279 C 27.2639 -2.63878 3.36975 0
M  V30 280 C 26.5899 -4.03236 3.51147 0
M  V30 281 C 27.8899 -2.21682 4.72921 0
M  V30 282 H 29.5839 -1.01351 2.81724 0
M  V30 283 H 27.1299 -0.486105 1.35547 0
M  V30 284 H 29.0829 -3.42365 2.45691 0
M  V30 285 H 27.8069 -3.0012 1.28824 0
M  V30 286 H 26.4659 -1.91722 3.12471 0
M  V30 287 H 26.1139 -4.32854 2.56216 0
M  V30 288 H 25.8139 -4.01535 4.29003 0
M  V30 289 H 27.3379 -4.79563 3.77957 0
M  V30 290 H 28.7519 -2.86023 4.96854 0
M  V30 291 H 27.1489 -2.3111 5.53812 0
M  V30 292 H 28.2189 -1.16833 4.70615 0
M  V30 293 N 29.562 -1.4872 -0.521534 0
M  V30 294 C 30.492 -1.66771 -1.63431 0
M  V30 295 C 31.473 -0.516499 -1.62069 0
M  V30 296 O 32.658 -0.750013 -1.79132 0
M  V30 297 C 29.788 -1.71515 -3.01993 0
M  V30 298 C 28.742 -2.86222 -3.18216 0
M  V30 299 C 28.068 -2.76061 -4.57924 0
M  V30 300 C 29.368 -4.27419 -3.00184 0
M  V30 301 H 31.062 -2.59932 -1.48579 0
M  V30 302 H 28.608 -1.25089 -0.713358 0
M  V30 303 H 30.561 -1.82731 -3.7972 0
M  V30 304 H 29.285 -0.749393 -3.17886 0
M  V30 305 H 27.944 -2.74575 -2.42908 0
M  V30 306 H 27.592 -1.77437 -4.70665 0
M  V30 307 H 27.292 -3.53037 -4.69722 0
M  V30 308 H 28.816 -2.89256 -5.37739 0
M  V30 309 H 30.23 -4.39855 -3.67697 0
M  V30 310 H 28.627 -5.05458 -3.2347 0
M  V30 311 H 29.697 -4.43293 -1.96518 0
M  V30 312 N 31.0401 0.771051 -1.3745 0
M  V30 313 C 32.2881 1.52661 -1.32435 0
M  V30 314 C 32.6091 1.9479 0.0905024 0
M  V30 315 O 31.8791 1.66348 1.03466 0
M  V30 316 H 30.4591 0.566218 -0.487244 0
M  V30 317 H 33.1211 0.917636 -1.71946 0
M  V30 318 H 32.2171 2.42568 -1.96385 0
M  V30 319 N 32.5182 1.22032 0.997298 0
M  V30 320 C 33.4482 1.01065 2.10495 0
M  V30 321 C 34.4292 -0.0669542 1.69968 0
M  V30 322 O 35.6142 0.0943987 1.9397 0
M  V30 323 C 32.7442 0.582874 3.42374 0
M  V30 324 C 31.6982 1.60592 3.96729 0
M  V30 325 C 31.0242 1.03412 5.24605 0
M  V30 326 C 32.3242 2.99478 4.27914 0
M  V30 327 H 34.0182 1.93708 2.28292 0
M  V30 328 H 31.5642 0.932761 1.09707 0
M  V30 329 H 33.5172 0.423332 4.19268 0
M  V30 330 H 32.2412 -0.379213 3.24391 0
M  V30 331 H 30.9002 1.75316 3.21963 0
M  V30 332 H 30.5482 0.063518 5.0296 0
M  V30 333 H 30.2482 1.71754 5.61938 0
M  V30 334 H 31.7722 0.886066 6.04137 0
M  V30 335 H 33.1862 2.88153 4.95622 0
M  V30 336 H 31.5832 3.64903 4.76409 0
M  V30 337 H 32.6532 3.49742 3.3587 0
M  V30 338 N 33.9963 -1.19345 1.0293 0
M  V30 339 C 34.9593 -2.20793 0.615069 0
M  V30 340 C 35.9593 -1.57553 -0.321533 0
M  V30 341 O 37.1493 -1.73862 -0.108483 0
M  V30 342 C 34.2813 -3.40754 -0.0999222 0
M  V30 343 H 35.4743 -2.58955 1.51269 0
M  V30 344 H 33.0273 -1.3303 0.820534 0
M  V30 345 H 33.7623 -3.0811 -1.01187 0
M  V30 346 H 33.5473 -3.87889 0.57309 0
M  V30 347 H 35.0373 -4.15898 -0.376645 0
M  V30 348 N 35.4744 -0.807222 -1.35358 0
M  V30 349 C 36.7204 -0.388463 -1.99045 0
M  V30 350 C 37.0534 1.04184 -1.63888 0
M  V30 351 O 36.3284 1.72292 -0.902535 0
M  V30 352 C 36.6114 -0.572783 -3.55515 0
M  V30 353 C 36.4644 -2.04807 -4.00468 0
M  V30 354 C 37.7834 0.00114064 -4.401 0
M  V30 355 H 34.9024 -0.142619 -0.723069 0
M  V30 356 H 37.5444 -1.01687 -1.60498 0
M  V30 357 H 35.6944 -0.0378425 -3.88482 0
M  V30 358 H 37.3664 -2.64544 -3.77908 0
M  V30 359 H 35.6094 -2.54427 -3.51353 0
M  V30 360 H 36.2804 -2.12792 -5.09337 0
M  V30 361 H 38.7564 -0.455716 -4.13597 0
M  V30 362 H 37.6324 -0.157737 -5.48673 0
M  V30 363 H 37.8934 1.09488 -4.28328 0
M  V30 364 N 36.9525 1.47285 -0.560781 0
M  V30 365 C 38.2005 2.02064 -0.0379868 0
M  V30 366 C 38.5215 1.43711 1.31803 0
M  V30 367 O 37.7915 0.61362 1.86042 0
M  V30 368 H 36.3715 0.746918 -0.0110531 0
M  V30 369 H 39.0335 1.80648 -0.731598 0
M  V30 370 H 38.1295 3.12064 0.0474463 0
M  V30 371 N 38.4306 0.297415 1.54768 0
M  V30 372 C 39.6556 -0.318435 2.04941 0
M  V30 373 C 40.0806 -1.4701 1.17345 0
M  V30 374 O 39.4386 -1.80436 0.176758 0
M  V30 375 C 39.4866 -0.755749 3.52592 0
M  V30 376 O 38.5906 -1.86088 3.68028 0
M  V30 377 H 37.9316 -0.062421 0.661059 0
M  V30 378 H 40.4616 0.438215 1.99852 0
M  V30 379 H 40.4716 -1.04552 3.94376 0
M  V30 380 H 39.1466 0.0867233 4.1581 0
M  V30 381 H 37.7236 -1.57193 3.38149 0
M  V30 382 N 39.9087 -1.5758 0.0250728 0
M  V30 383 C 41.1387 -1.95646 -0.663783 0
M  V30 384 C 41.5467 -0.899935 -1.66427 0
M  V30 385 O 40.8897 0.127191 -1.83259 0
M  V30 386 C 40.9517 -3.29835 -1.43 0
M  V30 387 C 40.6157 -4.53197 -0.588305 0
M  V30 388 C 41.6127 -5.19726 0.13469 0
M  V30 389 C 39.2977 -4.99529 -0.526897 0
M  V30 390 C 41.2917 -6.30902 0.90781 0
M  V30 391 C 38.9787 -6.10589 0.24993 0
M  V30 392 C 39.9767 -6.76134 0.965994 0
M  V30 393 O 39.6647 -7.85062 1.7301 0
M  V30 394 H 39.3967 -0.649282 -0.188174 0
M  V30 395 H 41.9507 -2.05245 0.0799006 0
M  V30 396 H 40.1807 -3.16716 -2.21873 0
M  V30 397 H 41.8697 -3.52833 -2.00658 0
M  V30 398 H 42.6357 -4.84904 0.0965562 0
M  V30 399 H 38.5147 -4.48319 -1.07381 0
M  V30 400 H 42.0587 -6.81995 1.46724 0
M  V30 401 H 37.9557 -6.44849 0.289795 0
M  V30 402 H 38.7237 -8.01708 1.64944 0
M  V30 403 N 41.3868 0.248026 -1.55636 0
M  V30 404 C 42.3168 1.31079 -1.93237 0
M  V30 405 C 43.2978 1.50264 -0.797174 0
M  V30 406 O 44.4828 1.62891 -1.05737 0
M  V30 407 C 41.6128 2.66575 -2.22609 0
M  V30 408 C 40.5668 2.62087 -3.3837 0
M  V30 409 C 39.8928 4.01369 -3.53281 0
M  V30 410 C 41.1928 2.19171 -4.7409 0
M  V30 411 H 42.8868 0.998556 -2.82257 0
M  V30 412 H 40.4328 0.47891 -1.35803 0
M  V30 413 H 42.3858 3.41057 -2.47503 0
M  V30 414 H 41.1098 2.99432 -1.30414 0
M  V30 415 H 39.7688 1.90063 -3.13483 0
M  V30 416 H 39.4168 4.31489 -2.58508 0
M  V30 417 H 39.1168 3.99254 -4.31127 0
M  V30 418 H 40.6408 4.77552 -3.80495 0
M  V30 419 H 42.0548 2.83384 -4.98363 0
M  V30 420 H 40.4518 2.2817 -5.5503 0
M  V30 421 H 41.5218 1.14336 -4.71227 0
M  V30 422 N 42.8649 1.48995 0.513639 0
M  V30 423 C 44.1109 1.58076 1.27042 0
M  V30 424 C 44.4439 0.261026 1.92438 0
M  V30 425 O 43.7189 -0.734393 1.80103 0
M  V30 426 C 44.0019 2.73091 2.34719 0
M  V30 427 C 43.8549 4.14821 1.73907 0
M  V30 428 C 45.1739 2.83796 3.36375 0
M  V30 429 H 42.2929 0.575391 0.460536 0
M  V30 430 H 44.9349 1.81232 0.570516 0
M  V30 431 H 43.0849 2.53479 2.94416 0
M  V30 432 H 44.7569 4.45917 1.18135 0
M  V30 433 H 42.9999 4.21058 1.0437 0
M  V30 434 H 43.6709 4.91147 2.51949 0
M  V30 435 H 46.1469 3.01611 2.86653 0
M  V30 436 H 45.0229 3.65971 4.09093 0
M  V30 437 H 45.2839 1.92624 3.9793 0
M  V30 438 N 44.343 -0.763751 1.37857 0
M  V30 439 C 45.759 -1.06542 1.18832 0
M  V30 440 C 45.959 -2.01478 0.0299722 0
M  V30 441 O 45.015 -2.4458 -0.627447 0
M  V30 442 C 46.328 -1.65525 2.51042 0
M  V30 443 C 47.876 -1.77745 2.57635 0
M  V30 444 C 48.351 -2.4014 3.89996 0
M  V30 445 N 49.842 -2.47582 3.91481 0
M  V30 446 C 50.577 -2.96732 4.9065 0
M  V30 447 N 50.073 -3.45993 6.00217 0
M  V30 448 N 51.866 -2.95679 4.78048 0
M  V30 449 H 44.017 -0.133556 2.1198 0
M  V30 450 H 46.28 -0.121879 0.940133 0
M  V30 451 H 45.986 -1.03236 3.36207 0
M  V30 452 H 45.86 -2.64719 2.68707 0
M  V30 453 H 48.247 -2.39164 1.72872 0
M  V30 454 H 48.328 -0.772836 2.43846 0
M  V30 455 H 47.972 -1.79358 4.75177 0
M  V30 456 H 47.902 -3.41223 4.01092 0
M  V30 457 H 50.393 -2.1273 3.12337 0
M  V30 458 H 50.706 -3.81922 6.7183 0
M  V30 459 H 49.051 -3.44077 6.03851 0
M  V30 460 H 52.242 -2.56499 3.91568 0
M  V30 461 H 52.415 -3.33672 5.55488 0
M  V30 462 N 45.8211 -1.22559 -0.990812 0
M  V30 463 C 47.2371 -0.985996 -1.255 0
M  V30 464 C 47.4371 0.319173 -1.98956 0
M  V30 465 O 46.4931 1.04127 -2.3003 0
M  V30 466 C 47.8061 -2.18607 -2.06474 0
M  V30 467 C 49.3541 -2.22985 -2.19651 0
M  V30 468 C 49.8291 -3.4255 -3.04012 0
M  V30 469 N 51.3201 -3.42725 -3.11599 0
M  V30 470 C 52.0551 -4.31892 -3.7717 0
M  V30 471 N 51.5511 -5.31279 -4.44651 0
M  V30 472 N 53.3441 -4.19662 -3.73952 0
M  V30 473 H 45.4951 -2.06469 -0.49841 0
M  V30 474 H 47.7581 -0.904853 -0.282747 0
M  V30 475 H 47.4641 -3.13267 -1.59865 0
M  V30 476 H 47.3381 -2.18838 -3.07229 0
M  V30 477 H 49.7251 -1.28871 -2.65474 0
M  V30 478 H 49.8061 -2.26791 -1.18319 0
M  V30 479 H 49.4501 -4.36965 -2.58889 0
M  V30 480 H 49.3801 -3.35984 -4.0549 0
M  V30 481 H 51.8711 -2.70807 -2.63575 0
M  V30 482 H 52.1841 -5.95593 -4.92431 0
M  V30 483 H 50.5291 -5.3519 -4.43392 0
M  V30 484 H 53.7201 -3.41268 -3.20396 0
M  V30 485 H 53.8931 -4.89358 -4.24774 0
M  V30 486 N 47.2992 1.18797 -1.03562 0
M  V30 487 C 48.5242 1.9314 -0.755764 0
M  V30 488 C 48.9492 1.7537 0.68022 0
M  V30 489 O 48.3072 1.06046 1.47051 0
M  V30 490 C 48.3552 3.42747 -1.12058 0
M  V30 491 O 47.4592 4.11683 -0.243124 0
M  V30 492 H 46.8002 0.602724 -0.278604 0
M  V30 493 H 49.3302 1.50678 -1.3841 0
M  V30 494 H 49.3402 3.93437 -1.08035 0
M  V30 495 H 48.0152 3.55002 -2.16672 0
M  V30 496 H 46.5922 3.71323 -0.342539 0
M  V30 497 N 48.7773 0.814389 1.34928 0
M  V30 498 C 50.1933 0.499084 1.51596 0
M  V30 499 C 50.3933 -0.978319 1.76157 0
M  V30 500 O 49.4493 -1.76309 1.80752 0
M  V30 501 C 50.7623 1.35121 2.68631 0
M  V30 502 C 52.3103 1.34746 2.82511 0
M  V30 503 C 52.7853 2.18388 4.0258 0
M  V30 504 N 54.2763 2.15966 4.09772 0
M  V30 505 C 55.0113 2.77437 5.01813 0
M  V30 506 N 54.5073 3.47866 5.99134 0
M  V30 507 N 56.3003 2.67037 4.94619 0
M  V30 508 H 48.4513 1.7711 1.17243 0
M  V30 509 H 50.7143 0.754256 0.574284 0
M  V30 510 H 50.4203 2.40001 2.57085 0
M  V30 511 H 50.2943 1.00991 3.63429 0
M  V30 512 H 52.6813 0.30648 2.93504 0
M  V30 513 H 52.7623 1.72869 1.88547 0
M  V30 514 H 52.4063 3.2253 3.92347 0
M  V30 515 H 52.3363 1.77621 4.9574 0
M  V30 516 H 54.8273 1.64729 3.40107 0
M  V30 517 H 55.1403 3.92038 6.65977 0
M  V30 518 H 53.4853 3.51972 5.99284 0
M  V30 519 H 56.6763 2.11597 4.17546 0
M  V30 520 H 56.8493 3.15232 5.66156 0
M  V30 521 N 50.2554 -1.46986 0.568584 0
M  V30 522 C 51.6714 -1.57946 0.229189 0
M  V30 523 C 51.8714 -1.56567 -1.26843 0
M  V30 524 O 50.9274 -1.47511 -2.04931 0
M  V30 525 C 52.2404 -2.87963 0.865909 0
M  V30 526 C 53.7884 -3.01568 0.838188 0
M  V30 527 C 54.2634 -4.34301 1.45419 0
M  V30 528 N 55.7544 -4.40965 1.41788 0
M  V30 529 C 56.4894 -5.42256 1.86403 0
M  V30 530 N 55.9854 -6.50297 2.38926 0
M  V30 531 N 57.7784 -5.3337 1.77405 0
M  V30 532 H 49.9294 -1.46126 1.54146 0
M  V30 533 H 52.1924 -0.696156 0.643484 0
M  V30 534 H 51.8984 -2.94742 1.91886 0
M  V30 535 H 51.7724 -3.75423 0.365687 0
M  V30 536 H 54.1594 -2.94379 -0.206106 0
M  V30 537 H 54.2404 -2.1562 1.37629 0
M  V30 538 H 53.8844 -4.42247 2.49761 0
M  V30 539 H 53.8144 -5.19 0.891435 0
M  V30 540 H 56.3054 -3.63484 1.03381 0
M  V30 541 H 56.6184 -7.23777 2.70863 0
M  V30 542 H 54.9634 -6.51155 2.42944 0
M  V30 543 H 58.1544 -4.47865 1.3614 0
M  V30 544 H 58.3274 -6.12169 2.12492 0
M  V30 545 N 51.7335 -0.305618 -1.54608 0
M  V30 546 C 53.1445 0.186098 -1.8577 0
M  V30 547 C 53.4955 1.53058 -1.22751 0
M  V30 548 O 52.6205 2.09888 -0.526893 0
M  V30 549 C 53.2155 0.344449 -3.37044 0
M  V30 550 C 51.7745 0.780384 -3.68221 0
M  V30 551 C 50.9215 -0.108554 -2.77087 0
M  V30 552 H 53.8725 -0.526485 -1.49712 0
M  V30 553 H 53.8935 1.17828 -3.61796 0
M  V30 554 H 53.4055 -0.634235 -3.82883 0
M  V30 555 H 51.5065 1.76945 -3.27904 0
M  V30 556 H 51.6195 0.596572 -4.75371 0
M  V30 557 H 49.9835 0.412931 -2.5133 0
M  V30 558 H 50.7665 -1.08368 -3.25747 0
M  V30 559 N 53.2116 1.57565 -0.0334293 0
M  V30 560 C 54.1436 2.0739 0.975811 0
M  V30 561 C 55.1566 0.998166 1.2861 0
M  V30 562 O 56.3456 1.27426 1.25 0
M  V30 563 C 53.4456 2.4871 2.30209 0
M  V30 564 C 52.6186 3.79413 2.17634 0
M  V30 565 C 51.6776 4.07237 3.33233 0
M  V30 566 O 50.7036 4.77425 3.09927 0
M  V30 567 N 51.9056 3.5775 4.5716 0
M  V30 568 H 54.6706 2.94598 0.55066 0
M  V30 569 H 52.2316 1.61173 0.15323 0
M  V30 570 H 54.2236 2.64413 3.06378 0
M  V30 571 H 52.7936 1.66845 2.64351 0
M  V30 572 H 52.0136 3.73465 1.26165 0
M  V30 573 H 53.3016 4.65038 2.0644 0
M  V30 574 H 52.6996 3.00976 4.78989 0
M  V30 575 H 51.2566 3.78724 5.30482 0
M  V30 576 N 54.6897 -0.239769 1.55765 0
M  V30 577 C 55.9357 -0.968234 1.78194 0
M  V30 578 C 56.2687 -1.84701 0.599938 0
M  V30 579 O 55.5437 -1.9031 -0.401524 0
M  V30 580 C 55.8267 -1.8227 3.10564 0
M  V30 581 C 55.6797 -0.971633 4.3918 0
M  V30 582 C 56.9987 -2.80388 3.39221 0
M  V30 583 H 54.1177 -0.350572 0.648281 0
M  V30 584 H 56.7597 -0.238259 1.885 0
M  V30 585 H 54.9097 -2.44507 3.01908 0
M  V30 586 H 56.5817 -0.367408 4.59835 0
M  V30 587 H 54.8247 -0.276276 4.32919 0
M  V30 588 H 55.4957 -1.60346 5.28198 0
M  V30 589 H 57.9717 -2.28287 3.47885 0
M  V30 590 H 56.8477 -3.3729 4.33044 0
M  V30 591 H 57.1087 -3.57212 2.60484 0
M  V30 592 N 56.1678 -1.49265 -0.50573 0
M  V30 593 C 57.3958 -1.62215 -1.28429 0
M  V30 594 C 57.8108 -0.291697 -1.86533 0
M  V30 595 O 57.1678 0.722233 -1.67601 0
M  V30 596 C 57.2188 -2.68735 -2.41793 0
M  V30 597 O 56.9398 -3.96619 -1.86078 0
M  V30 598 C 58.4408 -2.92346 -3.3324 0
M  V30 599 H 55.6608 -0.546239 -0.389697 0
M  V30 600 H 58.2048 -1.95265 -0.607609 0
M  V30 601 H 56.3598 -2.38476 -3.053 0
M  V30 602 H 56.7738 -4.55256 -2.60465 0
M  V30 603 H 58.2478 -3.70623 -4.09075 0
M  V30 604 H 58.7248 -2.02081 -3.89948 0
M  V30 605 H 59.3308 -3.24003 -2.75503 0
M  V30 606 N 57.6459 0.756429 -1.3826 0
M  V30 607 C 58.5759 1.88374 -1.37976 0
M  V30 608 C 59.5569 1.68311 -0.246082 0
M  V30 609 O 60.7419 1.88944 -0.44874 0
M  V30 610 C 57.8719 3.25864 -1.20125 0
M  V30 611 C 56.8259 3.60523 -2.30666 0
M  V30 612 C 56.1519 4.9672 -1.97923 0
M  V30 613 C 57.4519 3.65692 -3.72916 0
M  V30 614 H 59.1459 1.88869 -2.32312 0
M  V30 615 H 56.6919 0.907272 -1.11824 0
M  V30 616 H 58.6449 4.0438 -1.18552 0
M  V30 617 H 57.3689 3.25841 -0.222498 0
M  V30 618 H 56.0279 2.84324 -2.3142 0
M  V30 619 H 55.6759 4.93253 -0.985393 0
M  V30 620 H 55.3759 5.20878 -2.71955 0
M  V30 621 H 56.8999 5.77618 -1.97964 0
M  V30 622 H 58.3139 4.34328 -3.74208 0
M  V30 623 H 56.7109 4.01358 -4.4613 0
M  V30 624 H 57.7809 2.65987 -4.05436 0
M  V30 625 N 59.124 1.23083 0.984299 0
M  V30 626 C 60.054 1.03292 2.09411 0
M  V30 627 C 61.035 -0.048923 1.7003 0
M  V30 628 O 62.22 0.114967 1.93859 0
M  V30 629 C 59.35 0.619155 3.41736 0
M  V30 630 C 58.304 1.64791 3.95004 0
M  V30 631 C 57.63 1.0897 5.23478 0
M  V30 632 C 58.93 3.03999 4.24714 0
M  V30 633 H 60.624 1.96119 2.26225 0
M  V30 634 H 58.17 0.944344 1.08711 0
M  V30 635 H 60.123 0.467777 4.18796 0
M  V30 636 H 58.847 -0.344786 3.24775 0
M  V30 637 H 57.506 1.78721 3.20085 0
M  V30 638 H 57.154 0.11686 5.02864 0
M  V30 639 H 56.854 1.77704 5.60085 0
M  V30 640 H 58.378 0.950093 6.03163 0
M  V30 641 H 59.792 2.93393 4.92538 0
M  V30 642 H 58.189 3.69936 4.72512 0
M  V30 643 H 59.259 3.53285 3.32142 0
M  V30 644 N 60.6021 -1.18246 1.0419 0
M  V30 645 C 61.8791 -1.84121 0.660208 0
M  V30 646 C 62.2591 -1.92778 -0.860221 0
M  V30 647 O 61.6071 -1.45464 -1.76217 0
M  V30 648 C 61.8171 -3.22355 1.33747 0
M  V30 649 C 63.1651 -3.98376 1.46906 0
M  V30 650 O 64.1891 -3.31799 1.29568 0
M  V30 651 O 63.0481 -5.17665 1.75171 0
M  V30 652 H 60.1421 -0.794036 0.231161 0
M  V30 653 H 62.6881 -1.25628 1.14087 0
M  V30 654 H 61.4601 -3.10964 2.37522 0
M  V30 655 H 61.0831 -3.88506 0.845515 0
M  V30 656 N 62.0802 -0.821533 -1.34494 0
M  V30 657 C 63.4912 -0.467956 -1.8074 0
M  V30 658 C 63.8422 1.01151 -1.68116 0
M  V30 659 O 62.9672 1.78707 -1.22036 0
M  V30 660 C 63.5622 -0.842627 -3.28154 0
M  V30 661 C 62.1212 -0.541439 -3.72485 0
M  V30 662 C 61.2682 -1.06028 -2.56229 0
M  V30 663 H 64.2192 -1.01183 -1.22261 0
M  V30 664 H 64.2402 -0.145876 -3.8022 0
M  V30 665 H 63.7522 -1.91945 -3.37311 0
M  V30 666 H 61.8532 0.526034 -3.68868 0
M  V30 667 H 61.9662 -1.08453 -4.66663 0
M  V30 668 H 60.3302 -0.481892 -2.501 0
M  V30 669 H 61.1132 -2.14352 -2.68157 0
M  V30 670 N 63.5583 1.46682 -0.576371 0
M  V30 671 C 64.5063 2.31953 0.17335 0
M  V30 672 C 65.5003 1.44098 0.89062 0
M  V30 673 O 66.7063 1.60759 0.809728 0
M  V30 674 H 63.0813 0.748273 0.0747727 0
M  V30 675 H 65.0523 2.93007 -0.564738 0
M  V30 676 C 63.8013 3.27142 1.17786 0
M  V30 677 H 63.1243 3.94719 0.635361 0
M  V30 678 H 64.5643 3.896 1.67296 0
M  V30 679 C 63.0233 2.52036 2.23561 0
M  V30 680 O 63.5533 2.27877 3.3081 0
M  V30 681 N 61.7593 2.12709 1.97998 0
M  V30 682 H 61.3063 2.32557 1.10792 0
M  V30 683 H 61.2643 1.62776 2.68982 0
M  V30 684 N 65.0364 0.313813 1.54444 0
M  V30 685 C 65.9464 -0.565714 2.27677 0
M  V30 686 C 66.9624 -1.13754 1.31666 0
M  V30 687 O 68.1384 -1.15959 1.64668 0
M  V30 688 C 65.2034 -1.71528 3.01296 0
M  V30 689 C 64.2644 -1.17624 4.12872 0
M  V30 690 C 63.4974 -2.27102 4.8297 0
M  V30 691 O 63.7204 -3.47256 4.52514 0
M  V30 692 O 62.6544 -1.9307 5.70094 0
M  V30 693 H 66.4804 0.0287296 3.03686 0
M  V30 694 H 64.0654 0.0798312 1.49187 0
M  V30 695 H 65.9474 -2.38476 3.4743 0
M  V30 696 H 64.6224 -2.29608 2.2817 0
M  V30 697 H 63.5294 -0.472124 3.71109 0
M  V30 698 H 64.8624 -0.640695 4.88012 0
M  V30 699 N 66.5145 -1.57545 0.0417849 0
M  V30 700 C 67.4615 -2.10977 -0.935805 0
M  V30 701 C 68.4315 -1.01486 -1.31491 0
M  V30 702 O 69.6165 -1.2898 -1.40602 0
M  V30 703 C 66.7565 -2.65169 -2.2086 0
M  V30 704 C 65.8695 -3.88714 -1.88482 0
M  V30 705 C 65.0045 -4.31254 -3.1015 0
M  V30 706 C 64.0435 -5.47524 -2.7365 0
M  V30 707 N 63.1805 -5.85162 -3.87982 0
M  V30 708 H 68.0205 -2.94218 -0.473249 0
M  V30 709 H 65.5575 -1.45415 -0.221981 0
M  V30 710 H 67.5155 -2.94685 -2.95325 0
M  V30 711 H 66.1455 -1.8474 -2.64709 0
M  V30 712 H 65.1975 -3.65849 -1.04205 0
M  V30 713 H 66.5095 -4.73245 -1.57608 0
M  V30 714 H 65.6635 -4.62273 -3.92923 0
M  V30 715 H 64.4025 -3.45516 -3.44195 0
M  V30 716 H 63.4075 -5.16187 -1.89291 0
M  V30 717 H 64.6325 -6.34971 -2.40807 0
M  V30 718 H 62.5785 -5.02377 -4.21846 0
M  V30 719 H 62.4955 -6.64362 -3.60775 0
M  V30 720 H 63.7635 -6.20791 -4.71422 0
M  V30 721 N 67.9926 0.231505 -1.5589 0
M  V30 722 C 69.2226 0.973092 -1.82248 0
M  V30 723 C 69.6306 1.78845 -0.617328 0
M  V30 724 O 68.9736 1.78752 0.423499 0
M  V30 725 C 69.0356 1.94732 -3.02192 0
M  V30 726 C 68.6996 1.31743 -4.37599 0
M  V30 727 C 69.6966 0.712238 -5.14998 0
M  V30 728 C 67.3816 1.33218 -4.84312 0
M  V30 729 C 69.3756 0.130195 -6.37267 0
M  V30 730 C 67.0626 0.746286 -6.06526 0
M  V30 731 C 68.0606 0.146337 -6.82843 0
M  V30 732 O 67.7486 -0.430465 -8.02747 0
M  V30 733 H 67.4806 0.29125 -0.61004 0
M  V30 734 H 70.0346 0.254915 -2.03812 0
M  V30 735 H 68.2646 2.70422 -2.76422 0
M  V30 736 H 69.9536 2.55362 -3.15508 0
M  V30 737 H 70.7196 0.69324 -4.8002 0
M  V30 738 H 66.5986 1.78854 -4.24891 0
M  V30 739 H 70.1426 -0.33871 -6.96777 0
M  V30 740 H 66.0396 0.762663 -6.40979 0
M  V30 741 H 66.8076 -0.323818 -8.17859 0
M  V30 742 N 69.4707 1.49531 0.497807 0
M  V30 743 C 70.4007 1.6935 1.60757 0
M  V30 744 C 71.3817 0.542218 1.61227 0
M  V30 745 O 72.5667 0.778417 1.77917 0
M  V30 746 C 69.6967 1.76298 2.99226 0
M  V30 747 C 68.6507 2.91248 3.13622 0
M  V30 748 C 67.9767 2.83312 4.53474 0
M  V30 749 C 69.2767 4.3214 2.93346 0
M  V30 750 H 70.9707 2.62263 1.44425 0
M  V30 751 H 68.5167 1.26208 0.693367 0
M  V30 752 H 70.4697 1.88749 3.76765 0
M  V30 753 H 69.1937 0.799871 3.16654 0
M  V30 754 H 67.8527 2.78404 2.38509 0
M  V30 755 H 67.5007 1.84902 4.67782 0
M  V30 756 H 67.2007 3.60465 4.64046 0
M  V30 757 H 68.7247 2.97775 5.33069 0
M  V30 758 H 70.1387 4.45649 3.60652 0
M  V30 759 H 68.5357 5.1054 3.15387 0
M  V30 760 H 69.6057 4.46363 1.89441 0
M  V30 761 N 70.9488 -0.749086 1.3866 0
M  V30 762 C 71.8788 -1.8764 1.38973 0
M  V30 763 C 72.8598 -1.68178 0.255004 0
M  V30 764 O 74.0448 -1.88704 0.458754 0
M  V30 765 C 71.1748 -3.25222 1.21851 0
M  V30 766 C 70.1288 -3.59295 2.32575 0
M  V30 767 C 69.4548 -4.95663 2.00555 0
M  V30 768 C 70.7548 -3.63709 3.7485 0
M  V30 769 H 72.4488 -1.87635 2.3331 0
M  V30 770 H 69.9948 -0.901329 1.12303 0
M  V30 771 H 71.9478 -4.03746 1.20695 0
M  V30 772 H 70.6718 -3.25719 0.239775 0
M  V30 773 H 69.3308 -2.83093 2.32925 0
M  V30 774 H 68.9788 -4.92724 1.01154 0
M  V30 775 H 68.6788 -5.19429 2.74714 0
M  V30 776 H 70.2028 -5.7656 2.01024 0
M  V30 777 H 71.6168 -4.32338 3.76506 0
M  V30 778 H 70.0138 -3.98986 4.48252 0
M  V30 779 H 71.0838 -2.63834 4.06841 0
M  V30 780 N 72.4269 -1.23603 -0.977757 0
M  V30 781 C 73.8429 -0.999251 -1.24447 0
M  V30 782 C 74.0429 0.298053 -1.99283 0
M  V30 783 O 73.0989 1.01681 -2.31122 0
M  V30 784 C 74.4119 -2.20784 -2.04144 0
M  V30 785 C 75.9599 -2.25303 -2.17273 0
M  V30 786 C 76.4349 -3.45755 -3.00362 0
M  V30 787 N 77.9259 -3.4601 -3.07947 0
M  V30 788 C 78.6609 -4.35868 -3.72568 0
M  V30 789 N 78.1569 -5.35966 -4.38991 0
M  V30 790 N 79.9499 -4.23605 -3.6948 0
M  V30 791 H 72.1009 -2.06986 -0.476483 0
M  V30 792 H 74.3639 -0.907801 -0.273134 0
M  V30 793 H 74.0699 -3.14945 -1.56533 0
M  V30 794 H 73.9439 -2.22085 -3.04891 0
M  V30 795 H 76.3309 -1.3168 -2.64092 0
M  V30 796 H 76.4119 -2.28033 -1.15907 0
M  V30 797 H 76.0559 -4.39687 -2.5424 0
M  V30 798 H 75.9859 -3.40266 -4.01904 0
M  V30 799 H 78.4769 -2.73588 -2.60688 0
M  V30 800 H 78.7899 -6.00783 -4.86086 0
M  V30 801 H 77.1349 -5.39863 -4.37691 0
M  V30 802 H 80.3259 -3.44647 -3.16759 0
M  V30 803 H 80.4989 -4.93836 -4.1956 0
M  V30 804 N 73.905 1.17692 -1.04816 0
M  V30 805 C 74.835 2.23777 -0.666791 0
M  V30 806 C 75.816 1.66796 0.33361 0
M  V30 807 O 77.001 1.93039 0.212042 0
M  V30 808 C 74.131 3.47281 -0.0367933 0
M  V30 809 C 73.085 4.17059 -0.961546 0
M  V30 810 C 72.411 5.34342 -0.195626 0
M  V30 811 C 73.711 4.69713 -2.28402 0
M  V30 812 H 75.405 2.55933 -1.55367 0
M  V30 813 H 72.951 1.23019 -0.748484 0
M  V30 814 H 74.904 4.20706 0.241775 0
M  V30 815 H 73.628 3.14381 0.885004 0
M  V30 816 H 72.287 3.45541 -1.22462 0
M  V30 817 H 71.935 4.97692 0.728816 0
M  V30 818 H 71.635 5.81966 -0.811775 0
M  V30 819 H 73.159 6.10553 0.0757473 0
M  V30 820 H 74.573 5.34794 -2.06563 0
M  V30 821 H 72.97 5.279 -2.8538 0
M  V30 822 H 74.04 3.86726 -2.92525 0
M  V30 823 N 75.3831 0.828654 1.34056 0
M  V30 824 C 76.3131 0.269443 2.3194 0
M  V30 825 C 77.2941 -0.617247 1.58506 0
M  V30 826 O 78.4791 -0.542931 1.86456 0
M  V30 827 C 75.6091 -0.564793 3.42677 0
M  V30 828 C 74.5631 0.225241 4.27407 0
M  V30 829 C 73.8891 -0.7321 5.29664 0
M  V30 830 C 75.1891 1.43663 5.02154 0
M  V30 831 H 76.8831 1.08728 2.7896 0
M  V30 832 H 74.4291 0.524283 1.34117 0
M  V30 833 H 76.3821 -0.966233 4.10173 0
M  V30 834 H 75.1061 -1.41574 2.9432 0
M  V30 835 H 73.7651 0.608117 3.61521 0
M  V30 836 H 73.4131 -1.57916 4.77568 0
M  V30 837 H 73.1131 -0.20767 5.87233 0
M  V30 838 H 74.6371 -1.13128 6.00029 0
M  V30 839 H 76.0511 1.1089 5.62473 0
M  V30 840 H 74.4481 1.89711 5.69324 0
M  V30 841 H 75.5181 2.21181 4.31517 0
M  V30 842 N 76.8612 -1.46375 0.584142 0
M  V30 843 C 78.1382 -1.956 0.0033388 0
M  V30 844 C 78.5182 -1.52679 -1.45782 0
M  V30 845 O 77.8662 -0.77816 -2.14842 0
M  V30 846 C 78.0762 -3.48551 0.176891 0
M  V30 847 C 79.4242 -4.24576 0.0454609 0
M  V30 848 O 80.4482 -3.56043 0.105801 0
M  V30 849 O 79.3072 -5.46427 -0.0890376 0
M  V30 850 H 76.4012 -0.825547 -0.0490066 0
M  V30 851 H 78.9472 -1.56652 0.65256 0
M  V30 852 H 77.7192 -3.72683 1.1926 0
M  V30 853 H 77.3422 -3.94332 -0.508695 0
M  V30 854 N 78.3393 -0.321999 -1.54275 0
M  V30 855 C 79.2863 0.544664 -2.24281 0
M  V30 856 C 80.2563 1.1129 -1.23303 0
M  V30 857 O 81.4413 1.15354 -1.51981 0
M  V30 858 C 78.5813 1.70045 -3.00298 0
M  V30 859 C 77.6943 1.16159 -4.1609 0
M  V30 860 C 76.8293 2.28293 -4.79641 0
M  V30 861 C 75.8683 1.71648 -5.8754 0
M  V30 862 N 75.0053 2.77438 -6.44959 0
M  V30 863 H 79.8453 -0.0588907 -2.97942 0
M  V30 864 H 77.3823 -0.0408345 -1.47043 0
M  V30 865 H 79.3403 2.38054 -3.42616 0
M  V30 866 H 77.9703 2.27531 -2.28975 0
M  V30 867 H 77.0223 0.373092 -3.78566 0
M  V30 868 H 78.3343 0.707087 -4.93763 0
M  V30 869 H 77.4883 3.0421 -5.2492 0
M  V30 870 H 76.2273 2.77079 -4.01346 0
M  V30 871 H 75.2323 0.942282 -5.41665 0
M  V30 872 H 76.4573 1.23741 -6.67731 0
M  V30 873 H 74.4033 3.25519 -5.69538 0
M  V30 874 H 74.3203 2.36547 -7.1804 0
M  V30 875 H 75.5883 3.53189 -6.94894 0
M  V30 876 N 79.8174 1.5752 -0.0501392 0
M  V30 877 C 81.0454 1.96963 0.633492 0
M  V30 878 C 81.4604 0.927631 1.6444 0
M  V30 879 O 80.8174 -0.0882665 1.82286 0
M  V30 880 C 80.8684 3.36487 1.32132 0
M  V30 881 O 80.5894 4.36693 0.350894 0
M  V30 882 C 82.0904 3.90682 2.09481 0
M  V30 883 H 79.3104 0.648244 0.173266 0
M  V30 884 H 81.8544 2.0417 -0.116134 0
M  V30 885 H 80.0094 3.30434 2.02218 0
M  V30 886 H 80.4234 5.17702 0.841735 0
M  V30 887 H 81.8974 4.90591 2.5303 0
M  V30 888 H 82.3744 3.26053 2.94255 0
M  V30 889 H 82.9804 4.00069 1.44307 0
M  V30 890 N 81.2955 -0.223234 1.56011 0
M  V30 891 C 82.5235 -0.964812 1.83027 0
M  V30 892 C 82.9385 -1.78013 0.62904 0
M  V30 893 O 82.2955 -1.78008 -0.402414 0
M  V30 894 C 82.3465 -1.88373 3.08542 0
M  V30 895 O 82.0675 -1.10137 4.2403 0
M  V30 896 C 83.5685 -2.73934 3.48533 0
M  V30 897 H 80.7885 -0.282842 0.608475 0
M  V30 898 H 83.3325 -0.238971 2.03099 0
M  V30 899 H 81.4875 -2.56354 2.9045 0
M  V30 900 H 81.9015 -1.72501 4.95322 0
M  V30 901 H 83.3755 -3.34117 4.39397 0
M  V30 902 H 83.8525 -3.46244 2.70207 0
M  V30 903 H 84.4585 -2.11369 3.69057 0
M  V30 904 N 82.7736 -1.49793 -0.48987 0
M  V30 905 C 84.0196 -1.60078 -1.24511 0
M  V30 906 C 84.3526 -0.291608 -1.91998 0
M  V30 907 O 83.6276 0.705647 -1.81248 0
M  V30 908 C 83.9106 -2.76791 -2.30345 0
M  V30 909 C 83.7636 -4.17535 -1.67286 0
M  V30 910 C 85.0826 -2.89111 -3.31817 0
M  V30 911 H 82.2016 -0.582645 -0.451324 0
M  V30 912 H 84.8436 -1.82117 -0.541612 0
M  V30 913 H 82.9936 -2.5813 -2.90346 0
M  V30 914 H 84.6656 -4.4774 -1.11026 0
M  V30 915 H 82.9086 -4.22665 -0.976577 0
M  V30 916 H 83.5796 -4.95094 -2.44103 0
M  V30 917 H 86.0556 -3.06133 -2.81819 0
M  V30 918 H 84.9316 -3.72433 -4.03219 0
M  V30 919 H 85.1926 -1.9893 -3.94815 0
M  V30 920 N 84.2517 0.741722 -1.39055 0
M  V30 921 C 85.4767 1.53607 -1.39354 0
M  V30 922 C 85.9017 1.88096 0.0116905 0
M  V30 923 O 85.2597 1.5143 0.996924 0
M  V30 924 C 85.3077 2.80441 -2.26682 0
M  V30 925 O 84.4117 3.76088 -1.69208 0
M  V30 926 H 83.7527 0.464142 -0.474835 0
M  V30 927 H 86.2827 0.915665 -1.82967 0
M  V30 928 H 86.2927 3.29246 -2.40959 0
M  V30 929 H 84.9677 2.5467 -3.2881 0
M  V30 930 H 83.5447 3.34833 -1.64138 0
M  V30 931 N 85.7298 1.2412 0.971189 0
M  V30 932 C 86.6798 0.997551 2.05019 0
M  V30 933 C 87.6638 -0.0597747 1.60789 0
M  V30 934 O 88.8558 0.153516 1.76333 0
M  V30 935 C 85.9848 0.600557 3.38006 0
M  V30 936 C 85.0708 1.69377 3.88809 0
M  V30 937 N 85.4618 2.92586 4.12586 0
M  V30 938 C 83.7598 1.57048 4.17435 0
M  V30 939 C 84.4608 3.63431 4.54195 0
M  V30 940 N 83.4368 2.90979 4.59165 0
M  V30 941 H 87.2388 1.93316 2.21374 0
M  V30 942 H 84.7528 1.14194 1.1547 0
M  V30 943 H 86.7498 0.40725 4.14906 0
M  V30 944 H 85.4098 -0.327903 3.2304 0
M  V30 945 H 86.4208 3.288 4.00139 0
M  V30 946 H 83.0978 0.709798 4.11422 0
M  V30 947 H 84.4878 4.69102 4.81033 0
M  V30 948 N 87.2079 -1.17134 1.05439 0
M  V30 949 C 88.1559 -2.23289 0.651511 0
M  V30 950 C 89.1499 -1.66186 -0.328411 0
M  V30 951 O 90.3559 -1.78949 -0.194206 0
M  V30 952 H 86.7309 -0.726938 0.192523 0
M  V30 953 H 88.7019 -2.54565 1.55689 0
M  V30 954 C 87.4509 -3.47671 0.0448436 0
M  V30 955 H 86.7739 -3.91918 0.78996 0
M  V30 956 H 88.2139 -4.2353 -0.19964 0
M  V30 957 C 86.6729 -3.14453 -1.20918 0
M  V30 958 O 87.2029 -3.29459 -2.29825 0
M  V30 959 N 85.4089 -2.68657 -1.10779 0
M  V30 960 H 84.9559 -2.56646 -0.221526 0
M  V30 961 H 84.9139 -2.46804 -1.9477 0
M  V30 962 N 88.686 -0.835752 -1.33615 0
M  V30 963 C 89.914 -0.443344 -2.02094 0
M  V30 964 C 90.329 0.954522 -1.62894 0
M  V30 965 O 89.686 1.61982 -0.840723 0
M  V30 966 C 89.737 -0.550775 -3.5728 0
M  V30 967 O 89.458 -1.89356 -3.95065 0
M  V30 968 C 90.959 -0.154919 -4.43029 0
M  V30 969 H 88.179 -0.176359 -0.647409 0
M  V30 970 H 90.723 -1.12746 -1.70612 0
M  V30 971 H 88.878 0.0853997 -3.87306 0
M  V30 972 H 89.292 -1.87687 -4.89769 0
M  V30 973 H 90.766 -0.281144 -5.51284 0
M  V30 974 H 91.243 0.902863 -4.2982 0
M  V30 975 H 91.849 -0.765404 -4.18356 0
M  V30 976 N 90.1641 1.46063 -0.591896 0
M  V30 977 C 91.1111 2.30399 0.136069 0
M  V30 978 C 92.0811 1.41169 0.875238 0
M  V30 979 O 93.2661 1.70112 0.86409 0
M  V30 980 C 90.4061 3.25804 1.13781 0
M  V30 981 C 89.5191 4.30134 0.401137 0
M  V30 982 C 88.6541 5.12659 1.39121 0
M  V30 983 C 87.6931 6.0873 0.641462 0
M  V30 984 N 86.8301 6.8409 1.58004 0
M  V30 985 H 91.6701 2.92118 -0.589144 0
M  V30 986 H 89.2071 1.43959 -0.302342 0
M  V30 987 H 91.1651 3.79569 1.73156 0
M  V30 988 H 89.7951 2.65872 1.83062 0
M  V30 989 H 88.8471 3.79152 -0.307826 0
M  V30 990 H 90.1591 4.98458 -0.184565 0
M  V30 991 H 89.3131 5.70747 2.05749 0
M  V30 992 H 88.0521 4.44316 2.01084 0
M  V30 993 H 87.0571 5.49786 -0.0385419 0
M  V30 994 H 88.2821 6.79095 0.0270945 0
M  V30 995 H 86.2281 6.18449 2.18761 0
M  V30 996 H 86.1451 7.48709 1.04738 0
M  V30 997 H 87.4131 7.4673 2.23639 0
M  V30 998 N 91.6422 0.330177 1.54103 0
M  V30 999 C 93.0582 -0.0222371 1.59585 0
M  V30 1000 C 93.2582 -1.49902 1.34654 0
M  V30 1001 O 92.3142 -2.25592 1.13421 0
M  V30 1002 C 93.6272 0.401932 2.98002 0
M  V30 1003 C 95.1752 0.353145 3.11001 0
M  V30 1004 C 95.6502 0.752576 4.51775 0
M  V30 1005 N 97.1412 0.706239 4.57784 0
M  V30 1006 C 97.8762 0.987417 5.64834 0
M  V30 1007 N 97.3722 1.33607 6.79795 0
M  V30 1008 N 99.1652 0.91254 5.54643 0
M  V30 1009 H 91.3162 1.29228 1.68564 0
M  V30 1010 H 93.5792 0.525906 0.78875 0
M  V30 1011 H 93.2852 1.4311 3.21267 0
M  V30 1012 H 93.1592 -0.229699 3.765 0
M  V30 1013 H 95.5462 -0.666822 2.87467 0
M  V30 1014 H 95.6272 1.0198 2.34593 0
M  V30 1015 H 95.2712 1.77049 4.76042 0
M  V30 1016 H 95.2012 0.0635409 5.26562 0
M  V30 1017 H 97.6922 0.44889 3.75224 0
M  V30 1018 H 98.0052 1.53582 7.57385 0
M  V30 1019 H 96.3502 1.37439 6.81275 0
M  V30 1020 H 99.5412 0.639601 4.6371 0
M  V30 1021 H 99.7142 1.13503 6.37982 0
M  V30 1022 N 93.1203 -1.57491 0.0584922 0
M  V30 1023 C 94.3673 -1.92978 -0.613648 0
M  V30 1024 C 94.6953 -0.937461 -1.70417 0
M  V30 1025 O 93.9503 0.049078 -1.95638 0
M  V30 1026 C 94.2493 -3.3513 -1.24188 0
M  V30 1027 C 93.9153 -4.50037 -0.278826 0
M  V30 1028 C 92.5773 -4.81198 -0.0138447 0
M  V30 1029 C 94.9293 -5.19807 0.380777 0
M  V30 1030 C 92.2573 -5.79473 0.918052 0
M  V30 1031 C 94.6093 -6.19079 1.30091 0
M  V30 1032 C 93.2733 -6.48665 1.57449 0
M  V30 1033 H 92.5433 -0.706157 -0.22455 0
M  V30 1034 H 95.1903 -1.91082 0.126533 0
M  V30 1035 H 93.4953 -3.33429 -2.05749 0
M  V30 1036 H 95.1923 -3.59871 -1.769 0
M  V30 1037 H 91.7823 -4.25726 -0.495539 0
M  V30 1038 H 95.9663 -4.95939 0.189158 0
M  V30 1039 H 91.2223 -6.00727 1.1374 0
M  V30 1040 H 95.3963 -6.7225 1.81804 0
M  V30 1041 H 93.0233 -7.24628 2.29822 0
M  V30 1042 N 94.5984 0.214957 -1.56127 0
M  V30 1043 C 96.0144 0.564948 -1.49267 0
M  V30 1044 C 96.2144 1.86827 -0.754838 0
M  V30 1045 O 95.2704 2.50745 -0.297198 0
M  V30 1046 C 96.5834 0.638071 -2.93852 0
M  V30 1047 C 98.1314 0.728253 -3.0441 0
M  V30 1048 C 98.6064 0.832663 -4.50367 0
M  V30 1049 N 100.097 0.896712 -4.54437 0
M  V30 1050 C 100.832 0.997324 -5.6466 0
M  V30 1051 N 100.328 1.06147 -6.8462 0
M  V30 1052 N 102.121 1.03297 -5.52527 0
M  V30 1053 H 94.2724 -0.640211 -2.02522 0
M  V30 1054 H 96.5354 -0.225507 -0.920788 0
M  V30 1055 H 96.2414 -0.250126 -3.50809 0
M  V30 1056 H 96.1154 1.49947 -3.46115 0
M  V30 1057 H 98.5024 1.60689 -2.47514 0
M  V30 1058 H 98.5834 -0.158952 -2.55306 0
M  V30 1059 H 98.2274 -0.0415417 -5.07883 0
M  V30 1060 H 98.1574 1.73538 -4.97184 0
M  V30 1061 H 100.648 0.857188 -3.6805 0
M  V30 1062 H 100.961 1.1382 -7.64372 0
M  V30 1063 H 99.3064 1.03049 -6.87318 0
M  V30 1064 H 102.497 0.979558 -4.57736 0
M  V30 1065 H 102.67 1.10793 -6.38458 0
M  V30 1066 N 96.0765 1.50051 0.48192 0
M  V30 1067 C 97.3235 1.60498 1.23477 0
M  V30 1068 C 97.6515 0.300331 1.92167 0
M  V30 1069 O 96.9065 -0.713094 1.82246 0
M  V30 1070 C 97.2055 2.72717 2.30998 0
M  V30 1071 C 96.8715 4.13572 1.79636 0
M  V30 1072 C 95.5335 4.519 1.65348 0
M  V30 1073 C 97.8855 5.01649 1.41412 0
M  V30 1074 C 95.2135 5.76057 1.11244 0
M  V30 1075 C 97.5655 6.26343 0.887538 0
M  V30 1076 C 96.2295 6.63483 0.731207 0
M  V30 1077 H 95.4995 0.587303 0.451836 0
M  V30 1078 H 98.1465 1.83948 0.532468 0
M  V30 1079 H 96.4515 2.43312 3.07094 0
M  V30 1080 H 98.1485 2.78006 2.88988 0
M  V30 1081 H 94.7385 3.83329 1.91721 0
M  V30 1082 H 98.9225 4.72679 1.51289 0
M  V30 1083 H 94.1785 6.03516 0.978686 0
M  V30 1084 H 98.3525 6.93958 0.582654 0
M  V30 1085 H 95.9795 7.59568 0.309806 0
M  V30 1086 N 97.5546 -0.734337 1.39446 0
M  V30 1087 C 98.5176 -1.83004 1.37994 0
M  V30 1088 C 99.5176 -1.58397 0.276938 0
M  V30 1089 O 100.708 -1.65785 0.534875 0
M  V30 1090 C 97.8396 -3.20802 1.1532 0
M  V30 1091 H 99.0326 -1.85694 2.35494 0
M  V30 1092 H 96.5856 -0.938059 1.25021 0
M  V30 1093 H 97.3206 -3.23772 0.185036 0
M  V30 1094 H 97.1056 -3.4006 1.95197 0
M  V30 1095 H 98.5956 -4.00862 1.17046 0
M  V30 1096 N 99.0327 -1.24633 -0.964593 0
M  V30 1097 C 99.9627 -1.06611 -2.07741 0
M  V30 1098 C 100.944 0.0218666 -1.70086 0
M  V30 1099 O 102.129 -0.145793 -1.93652 0
M  V30 1100 C 99.2587 -0.673444 -3.40708 0
M  V30 1101 C 98.2127 -1.71054 -3.92332 0
M  V30 1102 C 97.5387 -1.17285 -5.21678 0
M  V30 1103 C 98.8387 -3.10718 -4.19824 0
M  V30 1104 H 100.533 -1.99693 -2.23076 0
M  V30 1105 H 98.0787 -0.96152 -1.07195 0
M  V30 1106 H 100.032 -0.534345 -4.17998 0
M  V30 1107 H 98.7557 0.293073 -3.25282 0
M  V30 1108 H 97.4147 -1.83791 -3.17201 0
M  V30 1109 H 97.0627 -0.196847 -5.02615 0
M  V30 1110 H 96.7627 -1.86592 -5.57187 0
M  V30 1111 H 98.2867 -1.04593 -6.01575 0
M  V30 1112 H 99.7007 -3.01192 -4.87808 0
M  V30 1113 H 98.0977 -3.77406 -4.66567 0
M  V30 1114 H 99.1677 -3.58524 -3.26479 0
M  V30 1115 N 100.511 1.16574 -1.06058 0
M  V30 1116 C 101.922 1.68662 -0.800632 0
M  V30 1117 C 102.273 1.84184 0.67608 0
M  V30 1118 O 101.398 1.53568 1.52466 0
M  V30 1119 C 101.993 3.06356 -1.44676 0
M  V30 1120 C 100.552 3.55575 -1.23465 0
M  V30 1121 C 99.6988 2.31616 -1.52477 0
M  V30 1122 H 102.65 1.00969 -1.22438 0
M  V30 1123 H 102.671 3.70636 -0.860788 0
M  V30 1124 H 102.183 2.95027 -2.52152 0
M  V30 1125 H 100.284 3.72167 -0.179527 0
M  V30 1126 H 100.397 4.37812 -1.94571 0
M  V30 1127 H 98.7608 2.36512 -0.945209 0
M  V30 1128 H 99.5438 2.22887 -2.61106 0
M  V30 1129 N 101.989 0.842826 1.3317 0
M  V30 1130 C 103.217 0.454055 2.01856 0
M  V30 1131 C 103.632 -0.94587 1.63397 0
M  V30 1132 O 102.989 -1.61534 0.849302 0
M  V30 1133 C 103.04 0.569715 3.56982 0
M  V30 1134 O 102.761 1.91448 3.94055 0
M  V30 1135 C 104.262 0.178412 4.42941 0
M  V30 1136 H 101.482 0.17979 0.646465 0
M  V30 1137 H 104.026 1.1365 1.70012 0
M  V30 1138 H 102.181 -0.0648587 3.87346 0
M  V30 1139 H 102.595 1.90282 4.88767 0
M  V30 1140 H 104.069 0.310376 5.51127 0
M  V30 1141 H 104.546 -0.880056 4.30293 0
M  V30 1142 H 105.152 0.787579 4.17944 0
M  V30 1143 N 103.467 -1.45747 0.599634 0
M  V30 1144 C 104.43 -2.28917 -0.113835 0
M  V30 1145 C 105.43 -1.3933 -0.802729 0
M  V30 1146 O 106.62 -1.61534 -0.652103 0
M  V30 1147 C 103.752 -3.20152 -1.17114 0
M  V30 1148 H 104.945 -2.93478 0.617289 0
M  V30 1149 H 102.498 -1.52137 0.358327 0
M  V30 1150 H 103.233 -2.60374 -1.93329 0
M  V30 1151 H 103.018 -3.86133 -0.681468 0
M  V30 1152 H 104.508 -3.82708 -1.67105 0
M  V30 1153 N 104.945 -0.338344 -1.53925 0
M  V30 1154 C 105.895 0.536712 -2.21593 0
M  V30 1155 C 106.879 1.07015 -1.20153 0
M  V30 1156 O 108.071 1.00471 -1.45721 0
M  V30 1157 C 105.2 1.68977 -2.98834 0
M  V30 1158 C 104.286 1.17052 -4.07627 0
M  V30 1159 N 104.677 0.372085 -5.0443 0
M  V30 1160 C 102.975 1.44789 -4.21844 0
M  V30 1161 C 103.676 0.0909171 -5.81629 0
M  V30 1162 N 102.652 0.681131 -5.39316 0
M  V30 1163 H 106.454 -0.0804298 -2.9379 0
M  V30 1164 H 103.968 -0.144943 -1.61752 0
M  V30 1165 H 105.965 2.32857 -3.45808 0
M  V30 1166 H 104.625 2.31024 -2.28162 0
M  V30 1167 H 105.636 0.0136217 -5.17898 0
M  V30 1168 H 102.313 2.07313 -3.62391 0
M  V30 1169 H 103.703 -0.552817 -6.69622 0
M  V30 1170 N 106.423 1.57458 -0.0668435 0
M  V30 1171 C 107.373 2.0896 0.912119 0
M  V30 1172 C 108.357 0.998186 1.26195 0
M  V30 1173 O 109.549 1.26133 1.24175 0
M  V30 1174 C 106.678 2.6508 2.18145 0
M  V30 1175 C 105.764 3.81218 1.85832 0
M  V30 1176 N 106.155 4.90378 1.23948 0
M  V30 1177 C 104.453 3.9042 2.15612 0
M  V30 1178 C 105.154 5.71279 1.09616 0
M  V30 1179 N 104.13 5.19389 1.60423 0
M  V30 1180 H 107.932 2.90749 0.42924 0
M  V30 1181 H 105.446 1.6182 0.137184 0
M  V30 1182 H 107.443 3.0029 2.89192 0
M  V30 1183 H 106.103 1.84736 2.67025 0
M  V30 1184 H 107.114 5.09847 0.909731 0
M  V30 1185 H 103.791 3.21043 2.66903 0
M  V30 1186 H 105.181 6.69085 0.614425 0
M  V30 1187 N 107.901 -0.206675 1.56239 0
M  V30 1188 C 109.129 -0.945345 1.8404 0
M  V30 1189 C 109.544 -1.77336 0.647885 0
M  V30 1190 O 108.901 -1.78425 -0.383511 0
M  V30 1191 C 108.952 -1.8509 3.10522 0
M  V30 1192 O 108.673 -1.05634 4.25174 0
M  V30 1193 C 110.174 -2.70222 3.51418 0
M  V30 1194 H 107.394 -0.276372 0.61144 0
M  V30 1195 H 109.938 -0.217417 2.03341 0
M  V30 1196 H 108.093 -2.53259 2.93153 0
M  V30 1197 H 108.507 -1.67238 4.97124 0
M  V30 1198 H 109.981 -3.29438 4.42916 0
M  V30 1199 H 110.458 -3.43358 2.73864 0
M  V30 1200 H 111.064 -2.07443 3.71278 0
M  V30 1201 N 109.379 -1.50304 -0.473955 0
M  V30 1202 C 110.309 -1.71886 -1.58042 0
M  V30 1203 C 111.29 -0.567799 -1.60344 0
M  V30 1204 O 112.475 -0.806623 -1.76656 0
M  V30 1205 C 109.605 -1.81036 -2.96384 0
M  V30 1206 C 108.559 -2.962 -3.08949 0
M  V30 1207 C 107.885 -2.9049 -4.48909 0
M  V30 1208 C 109.185 -4.36752 -2.86434 0
M  V30 1209 H 110.879 -2.64527 -1.40234 0
M  V30 1210 H 108.425 -1.27295 -0.673201 0
M  V30 1211 H 110.378 -1.94719 -3.73714 0
M  V30 1212 H 109.102 -0.850147 -3.15341 0
M  V30 1213 H 107.761 -2.82164 -2.3405 0
M  V30 1214 H 107.409 -1.92321 -4.64781 0
M  V30 1215 H 107.109 -3.67802 -4.58253 0
M  V30 1216 H 108.633 -3.06218 -5.28264 0
M  V30 1217 H 110.047 -4.5133 -3.53517 0
M  V30 1218 H 108.444 -5.15493 -3.07225 0
M  V30 1219 H 109.514 -4.49321 -1.82316 0
M  V30 1220 N 110.857 0.726932 -1.39834 0
M  V30 1221 C 112.105 1.4837 -1.37225 0
M  V30 1222 C 112.426 1.94979 0.0284857 0
M  V30 1223 O 111.696 1.69555 0.981213 0
M  V30 1224 H 110.276 0.55043 -0.505011 0
M  V30 1225 H 112.938 0.862468 -1.74778 0
M  V30 1226 H 112.034 2.36198 -2.04003 0
M  V30 1227 N 112.336 1.25143 0.95797 0
M  V30 1228 C 113.266 1.07711 2.07173 0
M  V30 1229 C 114.247 -0.0128462 1.70095 0
M  V30 1230 O 115.432 0.156061 1.93572 0
M  V30 1231 C 112.562 0.691503 3.40346 0
M  V30 1232 C 111.516 1.73132 3.9142 0
M  V30 1233 C 110.842 1.20049 5.21049 0
M  V30 1234 C 112.142 3.1294 4.1817 0
M  V30 1235 H 113.836 2.00873 2.22014 0
M  V30 1236 H 111.382 0.967191 1.06684 0
M  V30 1237 H 113.335 0.556505 4.17709 0
M  V30 1238 H 112.059 -0.275819 3.25433 0
M  V30 1239 H 110.718 1.8547 3.16222 0
M  V30 1240 H 110.366 0.223499 5.02503 0
M  V30 1241 H 110.066 1.89545 5.56189 0
M  V30 1242 H 111.59 1.07782 6.01012 0
M  V30 1243 H 113.004 3.03775 4.86203 0
M  V30 1244 H 111.401 3.79875 4.64559 0
M  V30 1245 H 112.471 3.6025 3.24573 0
M  V30 1246 N 113.814 -1.1601 1.06675 0
M  V30 1247 C 115.225 -1.68235 0.809565 0
M  V30 1248 C 115.576 -1.8454 -0.666303 0
M  V30 1249 O 114.701 -1.54374 -1.5165 0
M  V30 1250 C 115.296 -3.05585 1.46299 0
M  V30 1251 C 113.855 -3.54915 1.25349 0
M  V30 1252 C 113.002 -2.30804 1.53703 0
M  V30 1253 H 115.953 -1.00318 1.22971 0
M  V30 1254 H 115.974 -3.70174 0.880431 0
M  V30 1255 H 115.486 -2.93686 2.53713 0
M  V30 1256 H 113.587 -3.72067 0.199261 0
M  V30 1257 H 113.7 -4.36774 1.9689 0
M  V30 1258 H 112.064 -2.36007 0.957739 0
M  V30 1259 H 112.847 -2.21499 2.62284 0
M  V30 1260 N 115.292 -0.849877 -1.32721 0
M  V30 1261 C 116.538 -0.451591 -1.97708 0
M  V30 1262 C 116.871 0.989175 -1.6712 0
M  V30 1263 O 116.146 1.69334 -0.956891 0
M  V30 1264 C 116.429 -0.685598 -3.53513 0
M  V30 1265 C 116.282 -2.17444 -3.93749 0
M  V30 1266 C 117.601 -0.138874 -4.39881 0
M  V30 1267 H 114.72 -0.16555 -0.718166 0
M  V30 1268 H 117.362 -1.06742 -1.57182 0
M  V30 1269 H 115.512 -0.161416 -3.88165 0
M  V30 1270 H 117.184 -2.76433 -3.693 0
M  V30 1271 H 115.427 -2.65476 -3.43081 0
M  V30 1272 H 116.098 -2.28888 -5.02309 0
M  V30 1273 H 118.574 -0.587068 -4.11938 0
M  V30 1274 H 117.45 -0.332213 -5.47894 0
M  V30 1275 H 117.711 0.95806 -4.31594 0
M  V30 1276 N 116.77 1.45427 -0.607355 0
M  V30 1277 C 118.018 2.01841 -0.102253 0
M  V30 1278 C 118.339 1.47832 1.27164 0
M  V30 1279 O 117.609 0.672497 1.83995 0
M  V30 1280 H 116.189 0.746188 -0.0348101 0
M  V30 1281 H 118.851 1.78229 -0.7887 0
M  V30 1282 H 117.947 3.12057 -0.0518585 0
M  V30 1283 N 118.248 0.346503 1.53744 0
M  V30 1284 C 119.195 -0.508914 2.25119 0
M  V30 1285 C 120.165 -1.09315 1.25058 0
M  V30 1286 O 121.35 -1.12921 1.53797 0
M  V30 1287 C 118.49 -1.65246 3.02965 0
M  V30 1288 C 117.603 -1.09525 4.17886 0
M  V30 1289 C 116.738 -2.20634 4.83212 0
M  V30 1290 C 115.777 -1.62279 5.90196 0
M  V30 1291 N 114.914 -2.67143 6.49291 0
M  V30 1292 H 119.754 0.106283 2.9781 0
M  V30 1293 H 117.291 0.0642227 1.4696 0
M  V30 1294 H 119.249 -2.32574 3.4636 0
M  V30 1295 H 117.879 -2.2386 2.32565 0
M  V30 1296 H 116.931 -0.312818 3.79112 0
M  V30 1297 H 118.243 -0.628444 4.94825 0
M  V30 1298 H 117.397 -2.95821 5.29693 0
M  V30 1299 H 116.136 -2.70659 4.05703 0
M  V30 1300 H 115.141 -0.855989 5.43096 0
M  V30 1301 H 116.366 -1.13102 6.69615 0
M  V30 1302 H 114.312 -3.16417 5.74645 0
M  V30 1303 H 114.229 -2.25093 7.21713 0
M  V30 1304 H 115.497 -3.4209 7.00425 0
M  V30 1305 N 119.726 -1.57421 0.075193 0
M  V30 1306 C 120.676 -2.09441 -0.901025 0
M  V30 1307 C 121.66 -1.00486 -1.25663 0
M  V30 1308 O 122.852 -1.2679 -1.23504 0
M  V30 1309 C 119.981 -2.66233 -2.16737 0
M  V30 1310 C 119.067 -3.82198 -1.83808 0
M  V30 1311 N 119.458 -4.91028 -1.21345 0
M  V30 1312 C 117.756 -3.91558 -2.13538 0
M  V30 1313 C 118.457 -5.71852 -1.06585 0
M  V30 1314 N 117.433 -5.20233 -1.57667 0
M  V30 1315 H 121.235 -2.90972 -0.413815 0
M  V30 1316 H 118.749 -1.6189 -0.128601 0
M  V30 1317 H 120.746 -3.01819 -2.87595 0
M  V30 1318 H 119.406 -1.8615 -2.66042 0
M  V30 1319 H 120.417 -5.10323 -0.88268 0
M  V30 1320 H 117.094 -3.22454 -2.65197 0
M  V30 1321 H 118.484 -6.69401 -0.578933 0
M  V30 1322 N 121.204 0.198386 -1.56346 0
M  V30 1323 C 122.453 0.917451 -1.79627 0
M  V30 1324 C 122.766 1.8456 -0.64784 0
M  V30 1325 O 123.972 2.60504 -0.764859 0
M  V30 1326 C 122.428 1.68175 -3.18191 0
M  V30 1327 C 122.036 0.798589 -4.40825 0
M  V30 1328 C 123.78 2.39065 -3.50782 0
M  V30 1329 C 121.687 1.56157 -5.70411 0
M  V30 1330 H 120.617 0.346317 -0.669762 0
M  V30 1331 H 123.268 0.170801 -1.82703 0
M  V30 1332 H 121.65 2.47216 -3.09354 0
M  V30 1333 H 122.824 0.0470665 -4.60776 0
M  V30 1334 H 121.139 0.200686 -4.15916 0
M  V30 1335 H 123.736 2.96692 -4.44835 0
M  V30 1336 H 124.079 3.13091 -2.74371 0
M  V30 1337 H 124.612 1.66993 -3.61052 0
M  V30 1338 H 121.351 0.864142 -6.49779 0
M  V30 1339 H 120.871 2.2871 -5.54483 0
M  V30 1340 H 122.55 2.11622 -6.11412 0
M  V30 1341 N 122.682 1.50554 0.465978 0
M  V30 1342 C 123.912 1.65323 1.23903 0
M  V30 1343 C 124.32 0.338051 1.86155 0
M  V30 1344 O 123.663 -0.690518 1.70228 0
M  V30 1345 C 123.725 2.69048 2.3844 0
M  V30 1346 C 123.389 4.12462 1.96784 0
M  V30 1347 C 124.386 4.98168 1.48745 0
M  V30 1348 C 122.071 4.58407 2.05349 0
M  V30 1349 C 124.065 6.27868 1.0982 0
M  V30 1350 C 121.752 5.88112 1.66035 0
M  V30 1351 C 122.75 6.72668 1.18349 0
M  V30 1352 O 122.438 7.99951 0.795825 0
M  V30 1353 H 122.17 0.558629 0.38067 0
M  V30 1354 H 124.724 1.97561 0.562022 0
M  V30 1355 H 122.954 2.32062 3.09328 0
M  V30 1356 H 124.643 2.72985 3.0039 0
M  V30 1357 H 125.409 4.63885 1.41546 0
M  V30 1358 H 121.288 3.92735 2.41414 0
M  V30 1359 H 124.832 6.93819 0.725293 0
M  V30 1360 H 120.729 6.21914 1.72895 0
M  V30 1361 H 121.497 8.13265 0.924222 0
M  V30 1362 N 124.16 -0.719506 1.40217 0
M  V30 1363 C 125.09 -1.8465 1.42922 0
M  V30 1364 C 126.071 -1.67599 0.29062 0
M  V30 1365 O 127.256 -1.87688 0.498677 0
M  V30 1366 C 124.386 -3.22565 1.28722 0
M  V30 1367 C 123.34 -3.54281 2.40144 0
M  V30 1368 C 122.666 -4.91298 2.11023 0
M  V30 1369 C 123.966 -3.55676 3.82481 0
M  V30 1370 H 125.66 -1.82644 2.37237 0
M  V30 1371 H 123.206 -0.877305 1.1419 0
M  V30 1372 H 125.159 -4.01095 1.29232 0
M  V30 1373 H 123.883 -3.25137 0.308811 0
M  V30 1374 H 122.542 -2.78088 2.38877 0
M  V30 1375 H 122.19 -4.90468 1.11582 0
M  V30 1376 H 121.89 -5.13485 2.8567 0
M  V30 1377 H 123.414 -5.72166 2.13209 0
M  V30 1378 H 124.828 -4.24254 3.85592 0
M  V30 1379 H 123.225 -3.89388 4.56614 0
M  V30 1380 H 124.295 -2.55144 4.12346 0
M  V30 1381 N 125.638 -1.25649 -0.95132 0
M  V30 1382 C 126.863 -1.13443 -1.73624 0
M  V30 1383 C 127.288 0.307565 -1.85568 0
M  V30 1384 O 126.646 1.22282 -1.33854 0
M  V30 1385 C 126.694 -1.79723 -3.12621 0
M  V30 1386 O 125.798 -1.07912 -3.98031 0
M  V30 1387 H 125.139 -0.395872 -0.533086 0
M  V30 1388 H 127.669 -1.66276 -1.1922 0
M  V30 1389 H 127.679 -1.86141 -3.63064 0
M  V30 1390 H 126.354 -2.84633 -3.03244 0
M  V30 1391 H 124.931 -1.09398 -3.56492 0
M  V30 1392 N 127.117 1.15442 -1.07289 0
M  V30 1393 C 128.345 1.90096 -0.81676 0
M  V30 1394 C 128.76 1.7798 0.629966 0
M  V30 1395 O 128.117 1.1313 1.43206 0
M  V30 1396 C 128.168 3.40466 -1.21512 0
M  V30 1397 O 127.889 3.52232 -2.60508 0
M  V30 1398 C 129.39 4.32145 -0.988198 0
M  V30 1399 H 126.61 0.602495 -0.295366 0
M  V30 1400 H 129.154 1.4627 -1.42918 0
M  V30 1401 H 127.309 3.81958 -0.647039 0
M  V30 1402 H 127.723 4.45549 -2.76742 0
M  V30 1403 H 129.197 5.36072 -1.31645 0
M  V30 1404 H 129.674 4.39135 0.0755063 0
M  V30 1405 H 130.28 3.96395 -1.54115 0
M  V30 1406 N 128.595 0.856903 1.32268 0
M  V30 1407 C 130.011 0.547061 1.49931 0
M  V30 1408 C 130.211 -0.921781 1.7918 0
M  V30 1409 O 129.267 -1.70469 1.8627 0
M  V30 1410 C 130.58 1.43599 2.64196 0
M  V30 1411 C 132.128 1.43665 2.78081 0
M  V30 1412 C 132.603 2.31085 3.95428 0
M  V30 1413 N 134.094 2.28893 4.02694 0
M  V30 1414 C 134.829 2.93262 4.92732 0
M  V30 1415 N 134.325 3.66751 5.87763 0
M  V30 1416 N 136.118 2.82638 4.85873 0
M  V30 1417 H 128.269 1.8075 1.11549 0
M  V30 1418 H 130.532 0.772144 0.549997 0
M  V30 1419 H 130.238 2.48058 2.49319 0
M  V30 1420 H 130.112 1.12502 3.60032 0
M  V30 1421 H 132.499 0.399701 2.92381 0
M  V30 1422 H 132.58 1.7878 1.82952 0
M  V30 1423 H 132.224 3.34849 3.81888 0
M  V30 1424 H 132.154 1.93302 4.89839 0
M  V30 1425 H 134.645 1.75466 3.34694 0
M  V30 1426 H 134.958 4.13027 6.53168 0
M  V30 1427 H 133.303 3.70859 5.87783 0
M  V30 1428 H 136.494 2.24774 4.10602 0
M  V30 1429 H 136.667 3.33084 5.55841 0
M  V30 1430 N 130.073 -1.45103 0.615059 0
M  V30 1431 C 131.322 -2.01396 0.110718 0
M  V30 1432 C 131.635 -1.48834 -1.26916 0
M  V30 1433 O 132.841 -1.97152 -1.86664 0
M  V30 1434 C 131.297 -3.59599 0.14723 0
M  V30 1435 C 130.905 -4.21158 1.52743 0
M  V30 1436 C 132.649 -4.23428 -0.30148 0
M  V30 1437 C 130.556 -5.71535 1.51992 0
M  V30 1438 H 129.486 -0.753061 0.0376241 0
M  V30 1439 H 132.137 -1.66494 0.77149 0
M  V30 1440 H 130.519 -3.91724 -0.580339 0
M  V30 1441 H 131.693 -4.00594 2.2773 0
M  V30 1442 H 130.008 -3.69552 1.91886 0
M  V30 1443 H 132.605 -5.33703 -0.326392 0
M  V30 1444 H 132.948 -3.94629 -1.32565 0
M  V30 1445 H 133.481 -3.96047 0.373065 0
M  V30 1446 H 130.22 -6.05044 2.52193 0
M  V30 1447 H 129.74 -5.94268 0.81274 0
M  V30 1448 H 131.419 -6.34873 1.24681 0
M  V30 1449 N 131.551 -0.354651 -1.53558 0
M  V30 1450 C 132.828 0.294281 -1.93374 0
M  V30 1451 C 133.208 1.67313 -1.28723 0
M  V30 1452 O 132.556 2.24179 -0.442247 0
M  V30 1453 C 132.766 0.355445 -3.47185 0
M  V30 1454 C 134.114 0.601007 -4.20325 0
M  V30 1455 O 135.138 0.437106 -3.53508 0
M  V30 1456 O 133.997 0.919322 -5.38712 0
M  V30 1457 H 131.091 0.174033 -0.808481 0
M  V30 1458 H 133.637 -0.406638 -1.64756 0
M  V30 1459 H 132.409 -0.611729 -3.86489 0
M  V30 1460 H 132.032 1.1027 -3.82003 0
M  V30 1461 N 133.029 1.57378 -0.0835403 0
M  V30 1462 C 134.277 1.93547 0.581718 0
M  V30 1463 C 134.598 0.96524 1.69435 0
M  V30 1464 O 133.868 0.0153369 1.95894 0
M  V30 1465 H 132.448 0.714521 0.217874 0
M  V30 1466 H 135.11 1.94366 -0.144158 0
M  V30 1467 H 134.206 2.95665 0.999423 0
M  V30 1468 N 134.507 -0.190092 1.56449 0
M  V30 1469 C 135.732 -0.929864 1.85387 0
M  V30 1470 C 136.157 -1.7585 0.667704 0
M  V30 1471 O 135.515 -1.77198 -0.383459 0
M  V30 1472 C 135.563 -1.79773 3.12593 0
M  V30 1473 O 134.667 -2.89713 2.93496 0
M  V30 1474 H 134.008 -0.261574 0.610307 0
M  V30 1475 H 136.538 -0.193896 2.03679 0
M  V30 1476 H 136.548 -2.20139 3.43515 0
M  V30 1477 H 135.223 -1.18892 3.98544 0
M  V30 1478 H 133.8 -2.53065 2.73884 0
M  V30 1479 N 135.985 -1.50799 -0.457987 0
M  V30 1480 C 136.915 -1.73553 -1.5621 0
M  V30 1481 C 137.896 -0.584774 -1.59732 0
M  V30 1482 O 139.081 -0.825314 -1.7579 0
M  V30 1483 C 136.211 -1.84169 -2.94447 0
M  V30 1484 C 135.165 -2.99461 -3.0579 0
M  V30 1485 C 134.491 -2.95235 -4.45803 0
M  V30 1486 C 135.791 -4.39766 -2.81786 0
M  V30 1487 H 137.485 -2.66 -1.37421 0
M  V30 1488 H 135.031 -1.28002 -0.659662 0
M  V30 1489 H 136.984 -1.98672 -3.71628 0
M  V30 1490 H 135.708 -0.883545 -3.14422 0
M  V30 1491 H 134.367 -2.8463 -2.31044 0
M  V30 1492 H 134.015 -1.97239 -4.62715 0
M  V30 1493 H 133.715 -3.72642 -4.54326 0
M  V30 1494 H 135.239 -3.11803 -5.24987 0
M  V30 1495 H 136.653 -4.55054 -3.4871 0
M  V30 1496 H 135.05 -5.18722 -3.0174 0
M  V30 1497 H 136.12 -4.51229 -1.7754 0
M  V30 1498 N 137.463 0.71206 -1.40597 0
M  V30 1499 C 138.709 1.47416 -1.39271 0
M  V30 1500 C 139.042 1.942 0.00388791 0
M  V30 1501 O 138.317 1.68403 0.973179 0
M  V30 1502 C 138.6 2.69774 -2.38525 0
M  V30 1503 C 138.453 2.28861 -3.87224 0
M  V30 1504 C 139.772 3.71939 -2.35264 0
M  V30 1505 H 136.891 0.534713 -0.5072 0
M  V30 1506 H 139.533 0.812375 -1.71757 0
M  V30 1507 H 137.683 3.26238 -2.10953 0
M  V30 1508 H 139.355 1.77852 -4.25636 0
M  V30 1509 H 137.598 1.60824 -4.02887 0
M  V30 1510 H 138.269 3.16584 -4.52193 0
M  V30 1511 H 140.745 3.25113 -2.59694 0
M  V30 1512 H 139.621 4.55186 -3.06753 0
M  V30 1513 H 139.882 4.20484 -1.36549 0
M  V30 1514 N 138.941 1.26152 0.944643 0
M  V30 1515 C 140.19 1.10883 1.68487 0
M  V30 1516 C 140.503 -0.348153 1.92477 0
M  V30 1517 O 141.709 -0.621459 2.64292 0
M  V30 1518 C 140.165 1.93624 3.03377 0
M  V30 1519 C 139.773 3.43875 2.87148 0
M  V30 1520 C 141.517 1.86954 3.81115 0
M  V30 1521 C 139.424 4.18875 4.1749 0
M  V30 1522 H 138.354 0.41135 0.631907 0
M  V30 1523 H 141.005 1.50433 1.05082 0
M  V30 1524 H 139.387 1.46904 3.67743 0
M  V30 1525 H 140.561 3.98338 2.31653 0
M  V30 1526 H 138.876 3.51744 2.22856 0
M  V30 1527 H 141.473 2.40275 4.77673 0
M  V30 1528 H 141.816 0.839518 4.07747 0
M  V30 1529 H 142.349 2.31477 3.23517 0
M  V30 1530 H 139.088 5.22332 3.96043 0
M  V30 1531 H 138.608 3.69193 4.72712 0
M  V30 1532 H 140.287 4.27134 4.85968 0
M  V30 1533 N 140.419 -1.14872 1.07899 0
M  V30 1534 C 141.835 -1.37776 0.805606 0
M  V30 1535 C 142.035 -1.92743 -0.587555 0
M  V30 1536 O 141.091 -2.13678 -1.34528 0
M  V30 1537 C 142.404 -2.34361 1.88402 0
M  V30 1538 C 143.952 -2.48012 1.90942 0
M  V30 1539 C 144.427 -3.47893 2.97883 0
M  V30 1540 N 145.918 -3.55433 2.97021 0
M  V30 1541 C 146.653 -4.32553 3.76412 0
M  V30 1542 N 146.149 -5.12959 4.65666 0
M  V30 1543 N 147.942 -4.27697 3.64735 0
M  V30 1544 H 140.093 -0.775365 1.97742 0
M  V30 1545 H 142.356 -0.403521 0.857831 0
M  V30 1546 H 142.062 -2.01098 2.88535 0
M  V30 1547 H 141.936 -3.34206 1.74889 0
M  V30 1548 H 144.323 -2.8057 0.914579 0
M  V30 1549 H 144.404 -1.48147 2.08534 0
M  V30 1550 H 144.048 -3.16069 3.97571 0
M  V30 1551 H 143.978 -4.47527 2.77538 0
M  V30 1552 H 146.469 -2.98048 2.32326 0
M  V30 1553 H 146.782 -5.69065 5.22862 0
M  V30 1554 H 145.127 -5.12245 4.69712 0
M  V30 1555 H 148.318 -3.63949 2.94378 0
M  V30 1556 H 148.491 -4.8755 4.26848 0
M  V30 1557 N 141.898 -0.863906 -1.31812 0
M  V30 1558 C 143.309 -0.52522 -1.7916 0
M  V30 1559 C 143.66 0.957518 -1.71248 0
M  V30 1560 O 142.785 1.74734 -1.27659 0
M  V30 1561 C 143.38 -0.9466 -3.25307 0
M  V30 1562 C 141.939 -0.659668 -3.70574 0
M  V30 1563 C 141.086 -1.14126 -2.52726 0
M  V30 1564 H 144.037 -1.05022 -1.1898 0
M  V30 1565 H 144.058 -0.266766 -3.79564 0
M  V30 1566 H 143.57 -2.02579 -3.31034 0
M  V30 1567 H 141.671 0.408416 -3.70355 0
M  V30 1568 H 141.784 -1.23245 -4.62977 0
M  V30 1569 H 140.148 -0.561216 -2.4844 0
M  V30 1570 H 140.931 -2.22775 -2.61201 0
M  V30 1571 N 143.376 1.44774 -0.622745 0
M  V30 1572 C 144.606 2.06187 -0.130532 0
M  V30 1573 C 145.014 1.46547 1.19669 0
M  V30 1574 O 144.357 0.579636 1.74316 0
M  V30 1575 C 144.419 3.59437 0.0674983 0
M  V30 1576 C 144.083 4.41496 -1.18026 0
M  V30 1577 C 145.08 4.75512 -2.102 0
M  V30 1578 C 142.765 4.82007 -1.41333 0
M  V30 1579 C 144.759 5.48912 -3.23998 0
M  V30 1580 C 142.446 5.55157 -2.55429 0
M  V30 1581 C 143.444 5.88528 -3.46589 0
M  V30 1582 O 143.132 6.60191 -4.58697 0
M  V30 1583 H 142.864 0.672045 -0.0730162 0
M  V30 1584 H 145.418 1.86768 -0.854802 0
M  V30 1585 H 143.648 3.77314 0.846825 0
M  V30 1586 H 145.337 4.02642 0.513209 0
M  V30 1587 H 146.103 4.4476 -1.93425 0
M  V30 1588 H 141.982 4.55457 -0.712709 0
M  V30 1589 H 145.526 5.74877 -3.95174 0
M  V30 1590 H 141.423 5.85324 -2.72151 0
M  V30 1591 H 142.191 6.78654 -4.57571 0
M  V30 1592 N 144.854 0.36279 1.53368 0
M  V30 1593 C 146.082 -0.228613 2.05633 0
M  V30 1594 C 146.497 -1.42676 1.23649 0
M  V30 1595 O 145.854 -1.80394 0.27647 0
M  V30 1596 C 145.905 -0.624845 3.56059 0
M  V30 1597 O 145.626 0.525675 4.34935 0
M  V30 1598 C 147.127 -1.27493 4.24571 0
M  V30 1599 H 144.347 -0.0407183 0.669763 0
M  V30 1600 H 146.891 0.520352 1.97769 0
M  V30 1601 H 145.046 -1.32373 3.64083 0
M  V30 1602 H 145.46 0.205969 5.24095 0
M  V30 1603 H 146.934 -1.50277 5.31151 0
M  V30 1604 H 147.411 -2.23439 3.78116 0
M  V30 1605 H 148.017 -0.617558 4.20792 0
M  V30 1606 N 146.332 -1.57332 0.0918853 0
M  V30 1607 C 147.743 -1.81496 -0.437739 0
M  V30 1608 C 148.094 -1.00727 -1.6837 0
M  V30 1609 O 147.219 -0.235694 -2.15113 0
M  V30 1610 C 147.814 -3.29197 -0.800939 0
M  V30 1611 C 146.373 -3.54136 -1.27532 0
M  V30 1612 C 145.52 -2.75979 -0.270392 0
M  V30 1613 H 148.471 -1.55494 0.317366 0
M  V30 1614 H 148.492 -3.42344 -1.66074 0
M  V30 1615 H 148.004 -3.87955 0.106078 0
M  V30 1616 H 146.105 -3.00705 -2.20016 0
M  V30 1617 H 146.218 -4.62792 -1.23938 0
M  V30 1618 H 144.582 -2.43349 -0.751872 0
M  V30 1619 H 145.365 -3.37484 0.629248 0
M  V30 1620 N 147.81 0.181792 -1.56548 0
M  V30 1621 C 149.056 0.901431 -1.81665 0
M  V30 1622 C 149.389 1.82347 -0.668075 0
M  V30 1623 O 148.664 1.91669 0.330615 0
M  V30 1624 C 148.947 1.70618 -3.17115 0
M  V30 1625 C 148.8 0.807964 -4.42484 0
M  V30 1626 C 150.119 2.67605 -3.49393 0
M  V30 1627 H 147.238 0.32627 -0.660846 0
M  V30 1628 H 149.88 0.168134 -1.89255 0
M  V30 1629 H 148.03 2.33133 -3.10775 0
M  V30 1630 H 149.702 0.19649 -4.60881 0
M  V30 1631 H 147.945 0.115411 -4.33646 0
M  V30 1632 H 148.616 1.40632 -5.33785 0
M  V30 1633 H 151.092 2.15218 -3.56118 0
M  V30 1634 H 149.968 3.20985 -4.45264 0
M  V30 1635 H 150.229 3.47298 -2.73563 0
M  V30 1636 N 149.288 1.51039 0.449983 0
M  V30 1637 C 150.516 1.66869 1.2232 0
M  V30 1638 C 150.931 0.360727 1.85322 0
M  V30 1639 O 150.288 -0.659531 1.70166 0
M  V30 1640 C 150.339 2.77524 2.31652 0
M  V30 1641 O 150.06 4.03252 1.7123 0
M  V30 1642 C 151.561 3.04512 3.2216 0
M  V30 1643 H 148.781 0.560326 0.369155 0
M  V30 1644 H 151.325 1.97385 0.534719 0
M  V30 1645 H 149.48 2.49642 2.96239 0
M  V30 1646 H 149.894 4.64609 2.43389 0
M  V30 1647 H 151.368 3.85551 3.95038 0
M  V30 1648 H 151.845 2.16415 3.8218 0
M  V30 1649 H 152.451 3.34005 2.63288 0
M  V30 1650 N 150.766 -0.704594 1.40972 0
M  V30 1651 C 151.991 -1.49858 1.43378 0
M  V30 1652 C 152.416 -1.88061 0.038184 0
M  V30 1653 O 151.774 -1.5402 -0.956425 0
M  V30 1654 C 151.822 -2.74333 2.34038 0
M  V30 1655 O 150.926 -3.7147 1.7912 0
M  V30 1656 H 150.267 -0.45139 0.486974 0
M  V30 1657 H 152.797 -0.866832 1.8533 0
M  V30 1658 H 152.807 -3.22741 2.49604 0
M  V30 1659 H 151.482 -2.45863 3.35446 0
M  V30 1660 H 150.059 -3.30363 1.72958 0
M  V30 1661 N 152.244 -1.26651 -0.937939 0
M  V30 1662 C 153.521 -1.0313 -1.66204 0
M  V30 1663 C 153.901 0.437256 -2.06522 0
M  V30 1664 O 153.249 1.41831 -1.79154 0
M  V30 1665 C 153.459 -1.98314 -2.87181 0
M  V30 1666 C 154.807 -2.27107 -3.58758 0
M  V30 1667 O 155.831 -1.96205 -2.97291 0
M  V30 1668 O 154.69 -2.79736 -4.69479 0
M  V30 1669 H 151.784 -0.392384 -0.727986 0
M  V30 1670 H 154.33 -1.37874 -0.989382 0
M  V30 1671 H 153.102 -2.97399 -2.54302 0
M  V30 1672 H 152.725 -1.64068 -3.6217 0
M  V30 1673 N 153.722 1.14298 -1.08507 0
M  V30 1674 C 154.632 2.23027 -0.727753 0
M  V30 1675 C 155.648 1.71952 0.26619 0
M  V30 1676 O 156.824 2.011 0.109882 0
M  V30 1677 C 153.889 3.46403 -0.143541 0
M  V30 1678 C 152.95 4.12413 -1.19223 0
M  V30 1679 C 152.183 5.29899 -0.635798 0
M  V30 1680 O 152.406 5.67796 0.544393 0
M  V30 1681 O 151.34 5.85717 -1.38634 0
M  V30 1682 H 155.166 2.55945 -1.63481 0
M  V30 1683 H 152.751 1.22248 -0.858817 0
M  V30 1684 H 154.633 4.21018 0.179404 0
M  V30 1685 H 153.308 3.15206 0.736659 0
M  V30 1686 H 152.215 3.39667 -1.56772 0
M  V30 1687 H 153.548 4.47718 -2.04474 0
M  V30 1688 N 155.201 0.870884 1.31352 0
M  V30 1689 C 156.478 0.402907 1.91405 0
M  V30 1690 C 156.858 -1.11512 1.79244 0
M  V30 1691 O 156.206 -1.94411 1.2007 0
M  V30 1692 C 156.416 0.885301 3.37585 0
M  V30 1693 C 157.764 0.911971 4.14691 0
M  V30 1694 O 158.788 0.831016 3.46371 0
M  V30 1695 O 157.647 1.02927 5.3672 0
M  V30 1696 H 154.741 0.120698 0.818145 0
M  V30 1697 H 157.287 0.958857 1.40014 0
M  V30 1698 H 156.059 1.92889 3.40455 0
M  V30 1699 H 155.682 0.307714 3.96407 0
M  V30 1700 N 156.679 -1.44442 0.630414 0
M  V30 1701 C 157.611 -2.2892 -0.113347 0
M  V30 1702 C 158.624 -1.41243 -0.80959 0
M  V30 1703 O 159.813 -1.65402 -0.671156 0
M  V30 1704 C 156.913 -3.17594 -1.18266 0
M  V30 1705 C 156.086 -4.33682 -0.569073 0
M  V30 1706 C 155.145 -5.03397 -1.53226 0
M  V30 1707 O 154.171 -5.59438 -1.04967 0
M  V30 1708 N 155.373 -5.04783 -2.86661 0
M  V30 1709 H 158.138 -2.93392 0.611636 0
M  V30 1710 H 155.699 -1.54881 0.471523 0
M  V30 1711 H 157.691 -3.61097 -1.82732 0
M  V30 1712 H 156.261 -2.54876 -1.80988 0
M  V30 1713 H 155.481 -3.9338 0.254187 0
M  V30 1714 H 156.769 -5.08608 -0.139767 0
M  V30 1715 H 156.167 -4.60584 -3.28449 0
M  V30 1716 H 154.724 -5.52077 -3.46489 0
M  V30 1717 N 158.157 -0.370918 -1.53173 0
M  V30 1718 C 159.405 0.216673 -2.00935 0
M  V30 1719 C 159.726 1.48845 -1.25977 0
M  V30 1720 O 158.996 1.92286 -0.374551 0
M  V30 1721 H 157.576 0.0830565 -0.742368 0
M  V30 1722 H 160.238 -0.49838 -1.8842 0
M  V30 1723 H 159.334 0.439893 -3.08984 0
M  V30 1724 N 159.635 1.57281 -0.100228 0
M  V30 1725 C 160.865 1.98591 0.569681 0
M  V30 1726 C 161.273 0.978315 1.61943 0
M  V30 1727 O 160.616 -0.0396108 1.83657 0
M  V30 1728 C 160.678 3.36282 1.271 0
M  V30 1729 C 160.342 4.55488 0.371409 0
M  V30 1730 C 161.339 5.18491 -0.382504 0
M  V30 1731 C 159.024 5.01474 0.287965 0
M  V30 1732 C 161.018 6.25852 -1.20779 0
M  V30 1733 C 158.705 6.08701 -0.540965 0
M  V30 1734 C 159.703 6.70755 -1.28749 0
M  V30 1735 O 159.391 7.75914 -2.10269 0
M  V30 1736 H 159.123 0.65752 0.156982 0
M  V30 1737 H 161.677 2.0463 -0.177734 0
M  V30 1738 H 159.907 3.26941 2.0651 0
M  V30 1739 H 161.596 3.62005 1.83595 0
M  V30 1740 H 162.362 4.83891 -0.3278 0
M  V30 1741 H 158.241 4.52932 0.858689 0
M  V30 1742 H 161.785 6.74218 -1.79096 0
M  V30 1743 H 157.682 6.42732 -0.597131 0
M  V30 1744 H 158.45 7.92925 -2.03007 0
M  V30 1745 N 161.113 -0.173488 1.56642 0
M  V30 1746 C 162.359 -0.891784 1.8214 0
M  V30 1747 C 162.692 -1.8199 0.677736 0
M  V30 1748 O 161.967 -1.91842 -0.320446 0
M  V30 1749 C 162.25 -1.68933 3.18015 0
M  V30 1750 C 162.103 -0.784487 4.42906 0
M  V30 1751 C 163.422 -2.65748 3.50808 0
M  V30 1752 H 160.541 -0.322761 0.662567 0
M  V30 1753 H 163.183 -0.158095 1.89341 0
M  V30 1754 H 161.333 -2.31482 3.12007 0
M  V30 1755 H 163.005 -0.172046 4.60979 0
M  V30 1756 H 161.248 -0.0924117 4.33702 0
M  V30 1757 H 161.919 -1.37799 5.34524 0
M  V30 1758 H 164.395 -2.13327 3.57255 0
M  V30 1759 H 163.271 -3.18619 4.4696 0
M  V30 1760 H 163.532 -3.45842 2.75401 0
M  V30 1761 N 162.591 -1.51276 -0.441967 0
M  V30 1762 C 163.868 -1.54252 -1.20273 0
M  V30 1763 C 164.248 -0.30408 -2.08898 0
M  V30 1764 O 163.596 0.711084 -2.17154 0
M  V30 1765 C 163.806 -2.85406 -2.00859 0
M  V30 1766 C 165.154 -3.37181 -2.58059 0
M  V30 1767 O 166.178 -2.86925 -2.11074 0
M  V30 1768 O 165.037 -4.24858 -3.43741 0
M  V30 1769 H 162.131 -0.619969 -0.547328 0
M  V30 1770 H 164.677 -1.63586 -0.451413 0
M  V30 1771 H 163.449 -3.67003 -1.35736 0
M  V30 1772 H 163.072 -2.79213 -2.83065 0
M  V30 1773 N 164.069 0.697108 -1.41344 0
M  V30 1774 C 164.999 1.82353 -1.45841 0
M  V30 1775 C 165.98 1.67115 -0.317247 0
M  V30 1776 O 167.165 1.86871 -0.528474 0
M  V30 1777 C 164.295 3.20476 -1.33838 0
M  V30 1778 C 163.249 3.50415 -2.4575 0
M  V30 1779 C 162.575 4.87878 -2.18813 0
M  V30 1780 C 163.875 3.49546 -3.88091 0
M  V30 1781 H 165.569 1.78846 -2.40113 0
M  V30 1782 H 163.115 0.859028 -1.15571 0
M  V30 1783 H 165.068 3.98988 -1.35596 0
M  V30 1784 H 163.792 3.24604 -0.360498 0
M  V30 1785 H 162.451 2.74253 -2.43271 0
M  V30 1786 H 162.099 4.8863 -1.19371 0
M  V30 1787 H 161.799 5.08875 -2.93803 0
M  V30 1788 H 163.323 5.68702 -2.22284 0
M  V30 1789 H 164.737 4.18066 -3.92293 0
M  V30 1790 H 163.134 3.82075 -4.62751 0
M  V30 1791 H 164.204 2.48552 -4.16353 0
M  V30 1792 N 165.547 1.27147 0.931209 0
M  V30 1793 C 166.793 1.13446 1.68101 0
M  V30 1794 C 167.126 -0.319628 1.91552 0
M  V30 1795 O 166.401 -1.23407 1.50336 0
M  V30 1796 C 166.684 1.91482 3.0497 0
M  V30 1797 C 166.537 3.44855 2.88782 0
M  V30 1798 C 167.856 1.71651 4.05246 0
M  V30 1799 H 164.975 0.413498 0.610072 0
M  V30 1800 H 167.617 1.56261 1.08086 0
M  V30 1801 H 165.767 1.55095 3.56199 0
M  V30 1802 H 167.439 3.9105 2.44698 0
M  V30 1803 H 165.682 3.71373 2.24198 0
M  V30 1804 H 166.353 3.94694 3.85902 0
M  V30 1805 H 168.829 2.0337 3.63015 0
M  V30 1806 H 167.705 2.28651 4.99009 0
M  V30 1807 H 167.966 0.663555 4.37092 0
M  V30 1808 N 167.025 -1.13721 1.09112 0
M  V30 1809 C 168.274 -1.84275 0.82009 0
M  V30 1810 C 168.587 -1.84253 -0.656509 0
M  V30 1811 O 169.793 -2.50668 -1.04296 0
M  V30 1812 C 168.249 -3.30825 1.41714 0
M  V30 1813 C 167.857 -3.39244 2.92605 0
M  V30 1814 C 169.601 -4.06443 1.22492 0
M  V30 1815 C 167.508 -4.80047 3.45411 0
M  V30 1816 H 166.438 -0.690387 0.30312 0
M  V30 1817 H 169.089 -1.28146 1.31343 0
M  V30 1818 H 167.471 -3.86737 0.851498 0
M  V30 1819 H 168.645 -2.93344 3.55367 0
M  V30 1820 H 166.96 -2.77088 3.10823 0
M  V30 1821 H 169.557 -5.10387 1.59402 0
M  V30 1822 H 169.9 -4.15972 0.165299 0
M  V30 1823 H 170.433 -3.56852 1.75788 0
M  V30 1824 H 167.172 -4.75709 4.50978 0
M  V30 1825 H 166.692 -5.26455 2.87411 0
M  V30 1826 H 168.371 -5.48957 3.42425 0
M  V30 1827 N 168.503 -0.877838 -1.30888 0
M  V30 1828 C 169.45 -0.337538 -2.28318 0
M  V30 1829 C 170.42 0.568346 -1.56074 0
M  V30 1830 O 171.605 0.498298 -1.84178 0
M  V30 1831 C 168.745 0.448142 -3.42178 0
M  V30 1832 C 167.858 -0.48615 -4.29256 0
M  V30 1833 C 166.993 0.314427 -5.30269 0
M  V30 1834 C 166.032 -0.615791 -6.08995 0
M  V30 1835 N 165.169 0.14902 -7.01942 0
M  V30 1836 H 170.009 -1.17356 -2.73919 0
M  V30 1837 H 167.546 -0.590094 -1.34745 0
M  V30 1838 H 169.504 0.919517 -4.06941 0
M  V30 1839 H 168.134 1.24879 -2.97666 0
M  V30 1840 H 167.186 -1.076 -3.64865 0
M  V30 1841 H 168.498 -1.19909 -4.84173 0
M  V30 1842 H 167.652 0.847969 -6.00745 0
M  V30 1843 H 166.391 1.06062 -4.76027 0
M  V30 1844 H 165.396 -1.16102 -5.37401 0
M  V30 1845 H 166.621 -1.36097 -6.65323 0
M  V30 1846 H 164.567 0.877884 -6.50099 0
M  V30 1847 H 164.484 -0.504433 -7.54315 0
M  V30 1848 H 165.752 0.663537 -7.76671 0
M  V30 1849 N 169.982 1.44106 -0.638065 0
M  V30 1850 C 171.228 2.02277 -0.145546 0
M  V30 1851 C 171.561 1.50125 1.23191 0
M  V30 1852 O 170.836 0.688133 1.8192 0
M  V30 1853 C 171.119 3.59829 -0.139791 0
M  V30 1854 C 170.972 4.22247 -1.55008 0
M  V30 1855 C 172.291 4.36873 0.531966 0
M  V30 1856 H 169.41 0.734992 -0.0543632 0
M  V30 1857 H 172.052 1.71592 -0.815863 0
M  V30 1858 H 170.202 3.86102 0.431007 0
M  V30 1859 H 171.874 4.07057 -2.1703 0
M  V30 1860 H 170.117 3.79476 -2.10191 0
M  V30 1861 H 170.788 5.31284 -1.49804 0
M  V30 1862 H 173.264 4.16074 0.0464781 0
M  V30 1863 H 172.14 5.4657 0.505206 0
M  V30 1864 H 172.401 4.11995 1.60352 0
M  V30 1865 N 171.46 0.379036 1.52974 0
M  V30 1866 C 172.69 -0.20649 2.05566 0
M  V30 1867 C 173.098 -1.41906 1.25137 0
M  V30 1868 O 172.441 -1.81421 0.288464 0
M  V30 1869 C 172.503 -0.651086 3.53555 0
M  V30 1870 C 172.167 0.446626 4.54812 0
M  V30 1871 C 173.164 1.30079 5.03364 0
M  V30 1872 C 170.849 0.610719 4.98573 0
M  V30 1873 C 172.843 2.30426 5.94292 0
M  V30 1874 C 170.53 1.61754 5.89304 0
M  V30 1875 C 171.528 2.46274 6.37054 0
M  V30 1876 O 171.216 3.45237 7.25994 0
M  V30 1877 H 170.948 -0.0372381 0.674974 0
M  V30 1878 H 173.502 0.539718 1.98182 0
M  V30 1879 H 171.732 -1.44911 3.58522 0
M  V30 1880 H 173.421 -1.16112 3.88938 0
M  V30 1881 H 174.187 1.18527 4.70294 0
M  V30 1882 H 170.066 -0.0374044 4.60985 0
M  V30 1883 H 173.61 2.96432 6.31485 0
M  V30 1884 H 169.507 1.73348 6.21788 0
M  V30 1885 H 170.275 3.41124 7.44027 0
M  V30 1886 N 172.938 -1.57226 0.108567 0
M  V30 1887 C 173.868 -2.17778 -0.84232 0
M  V30 1888 C 174.849 -1.11487 -1.2847 0
M  V30 1889 O 176.034 -1.39681 -1.34918 0
M  V30 1890 C 173.164 -2.76888 -2.09644 0
M  V30 1891 C 172.118 -3.88669 -1.79221 0
M  V30 1892 C 171.444 -4.34541 -3.11574 0
M  V30 1893 C 172.744 -5.11251 -1.06864 0
M  V30 1894 H 174.438 -2.97489 -0.337774 0
M  V30 1895 H 171.984 -1.43097 -0.161025 0
M  V30 1896 H 173.937 -3.17904 -2.76614 0
M  V30 1897 H 172.661 -1.94451 -2.62405 0
M  V30 1898 H 171.32 -3.48213 -1.14644 0
M  V30 1899 H 170.968 -3.48977 -3.62249 0
M  V30 1900 H 170.668 -5.09914 -2.91996 0
M  V30 1901 H 172.192 -4.782 -3.7968 0
M  V30 1902 H 173.606 -5.49352 -1.63968 0
M  V30 1903 H 172.003 -5.9214 -0.974178 0
M  V30 1904 H 173.073 -4.8487 -0.0536168 0
M  V30 1905 N 174.416 0.165178 -1.56732 0
M  V30 1906 C 175.363 1.2044 -1.96883 0
M  V30 1907 C 176.333 1.43664 -0.833657 0
M  V30 1908 O 177.518 1.56302 -1.09427 0
M  V30 1909 C 174.658 2.53727 -2.33916 0
M  V30 1910 C 173.771 2.3783 -3.6064 0
M  V30 1911 C 172.906 3.64026 -3.86857 0
M  V30 1912 C 171.945 3.43088 -5.06909 0
M  V30 1913 N 171.082 4.61369 -5.29229 0
M  V30 1914 H 175.922 0.854996 -2.85471 0
M  V30 1915 H 173.459 0.41076 -1.41249 0
M  V30 1916 H 175.417 3.31419 -2.53411 0
M  V30 1917 H 174.047 2.8665 -1.48431 0
M  V30 1918 H 173.099 1.51282 -3.49024 0
M  V30 1919 H 174.411 2.18308 -4.4849 0
M  V30 1920 H 173.565 4.50152 -4.06753 0
M  V30 1921 H 172.304 3.86533 -2.97394 0
M  V30 1922 H 171.309 2.55349 -4.86906 0
M  V30 1923 H 172.534 3.21997 -5.97909 0
M  V30 1924 H 170.48 4.84084 -4.42718 0
M  V30 1925 H 170.397 4.44783 -6.11313 0
M  V30 1926 H 171.665 5.48761 -5.53608 0
M  V30 1927 N 175.894 1.51508 0.433938 0
M  V30 1928 C 177.142 1.6402 1.18075 0
M  V30 1929 C 177.463 0.360328 1.91642 0
M  V30 1930 O 176.733 -0.623945 1.85698 0
M  V30 1931 H 175.313 0.6045 0.43885 0
M  V30 1932 H 177.975 1.88452 0.497178 0
M  V30 1933 H 177.071 2.46949 1.90847 0
M  V30 1934 N 177.372 -0.689602 1.41712 0
M  V30 1935 C 178.618 -1.45181 1.41599 0
M  V30 1936 C 178.951 -1.94181 0.0270081 0
M  V30 1937 O 178.226 -1.6993 -0.946265 0
M  V30 1938 C 178.509 -2.65945 2.42787 0
M  V30 1939 C 178.362 -2.22672 3.90816 0
M  V30 1940 C 179.681 -3.68149 2.41151 0
M  V30 1941 H 176.8 -0.526576 0.515642 0
M  V30 1942 H 179.442 -0.784947 1.73028 0
M  V30 1943 H 177.592 -3.2284 2.16116 0
M  V30 1944 H 179.264 -1.71058 4.28412 0
M  V30 1945 H 177.507 -1.54394 4.05395 0
M  V30 1946 H 178.178 -3.0935 4.57172 0
M  V30 1947 H 180.654 -3.2094 2.64834 0
M  V30 1948 H 179.53 -4.50248 3.13955 0
M  V30 1949 H 179.791 -4.18259 1.43221 0
M  V30 1950 N 178.85 -1.27639 -0.924453 0
M  V30 1951 C 179.8 -1.07295 -2.01176 0
M  V30 1952 C 180.784 5.77352e-05 -1.609 0
M  V30 1953 O 181.976 -0.218855 -1.75642 0
M  V30 1954 C 179.105 -0.725592 -3.35544 0
M  V30 1955 C 178.191 -1.83691 -3.82254 0
M  V30 1956 N 178.582 -3.07697 -4.01443 0
M  V30 1957 C 176.88 -1.72433 -4.11319 0
M  V30 1958 C 177.581 -3.80037 -4.40394 0
M  V30 1959 N 176.557 -3.0782 -4.48049 0
M  V30 1960 H 180.359 -2.01399 -2.14046 0
M  V30 1961 H 177.873 -1.18401 -1.11153 0
M  V30 1962 H 179.87 -0.560959 -4.13109 0
M  V30 1963 H 178.53 0.207782 -3.24034 0
M  V30 1964 H 179.541 -3.43424 -3.8766 0
M  V30 1965 H 176.218 -0.862005 -4.08504 0
M  V30 1966 H 177.608 -4.86632 -4.63291 0
M  V30 1967 N 180.328 1.1314 -1.09713 0
M  V30 1968 C 181.739 1.66029 -0.853885 0
M  V30 1969 C 182.09 1.86241 0.617142 0
M  V30 1970 O 181.215 1.5834 1.47503 0
M  V30 1971 C 181.81 3.01599 -1.5435 0
M  V30 1972 C 180.369 3.51467 -1.34714 0
M  V30 1973 C 179.516 2.26648 -1.59769 0
M  V30 1974 H 182.467 0.970226 -1.25588 0
M  V30 1975 H 182.488 3.67709 -0.978267 0
M  V30 1976 H 182 2.86856 -2.6141 0
M  V30 1977 H 180.101 3.71408 -0.297838 0
M  V30 1978 H 180.214 4.314 -2.08401 0
M  V30 1979 H 178.578 2.33385 -1.01998 0
M  V30 1980 H 179.361 2.14467 -2.68065 0
M  V30 1981 N 181.806 0.884767 1.30421 0
M  V30 1982 C 182.753 0.349642 2.28136 0
M  V30 1983 C 183.723 -0.560061 1.56373 0
M  V30 1984 O 184.908 -0.488524 1.8444 0
M  V30 1985 C 182.048 -0.42999 3.42411 0
M  V30 1986 C 181.161 0.508907 4.28992 0
M  V30 1987 C 180.296 -0.286301 5.30428 0
M  V30 1988 C 179.335 0.648079 6.08659 0
M  V30 1989 N 178.472 -0.111792 7.02011 0
M  V30 1990 H 183.312 1.18807 2.73293 0
M  V30 1991 H 180.849 0.597231 1.3443 0
M  V30 1992 H 182.807 -0.897923 4.07423 0
M  V30 1993 H 181.437 -1.23299 2.98324 0
M  V30 1994 H 180.489 1.09533 3.64289 0
M  V30 1995 H 181.801 1.22475 4.8353 0
M  V30 1996 H 180.955 -0.816098 6.01186 0
M  V30 1997 H 179.694 -1.03536 4.76583 0
M  V30 1998 H 178.699 1.18951 5.36778 0
M  V30 1999 H 179.924 1.39623 6.64592 0
M  V30 2000 H 177.87 -0.843395 6.50556 0
M  V30 2001 H 177.787 0.544429 7.54037 0
M  V30 2002 H 179.055 -0.622339 7.77012 0
M  V30 2003 N 183.284 -1.43765 0.645699 0
M  V30 2004 C 184.531 -2.01898 0.15604 0
M  V30 2005 C 184.859 -1.50887 -1.22733 0
M  V30 2006 O 184.114 -0.689271 -1.8316 0
M  V30 2007 C 184.413 -3.57238 0.107679 0
M  V30 2008 C 184.079 -4.27564 1.43178 0
M  V30 2009 C 182.741 -4.46492 1.7944 0
M  V30 2010 C 185.093 -4.67454 2.30513 0
M  V30 2011 C 182.421 -5.02573 3.02716 0
M  V30 2012 C 184.773 -5.24901 3.53074 0
M  V30 2013 C 183.437 -5.42046 3.89541 0
M  V30 2014 H 182.707 -0.738797 0.057099 0
M  V30 2015 H 185.354 -1.72341 0.834912 0
M  V30 2016 H 183.659 -3.86293 -0.654618 0
M  V30 2017 H 185.356 -3.99965 -0.287938 0
M  V30 2018 H 181.946 -4.13171 1.13963 0
M  V30 2019 H 186.13 -4.5253 2.0379 0
M  V30 2020 H 181.386 -5.14033 3.31028 0
M  V30 2021 H 185.56 -5.54758 4.20971 0
M  V30 2022 H 183.187 -5.85268 4.85145 0
M  V30 2023 N 184.763 -0.387143 -1.52771 0
M  V30 2024 C 186.174 0.0873634 -1.86495 0
M  V30 2025 C 186.525 1.46336 -1.30691 0
M  V30 2026 O 185.65 2.068 -0.637409 0
M  V30 2027 C 186.245 0.165305 -3.38396 0
M  V30 2028 C 184.804 0.584101 -3.7184 0
M  V30 2029 C 183.951 -0.255279 -2.76122 0
M  V30 2030 H 186.902 -0.605104 -1.46711 0
M  V30 2031 H 186.923 0.984848 -3.67534 0
M  V30 2032 H 186.435 -0.836301 -3.78982 0
M  V30 2033 H 184.536 1.59315 -3.36823 0
M  V30 2034 H 184.649 0.343749 -4.77865 0
M  V30 2035 H 183.013 0.279126 -2.53166 0
M  V30 2036 H 183.796 -1.25482 -3.19545 0
M  V30 2037 N 186.241 1.57166 -0.116904 0
M  V30 2038 C 187.151 2.18745 0.847812 0
M  V30 2039 C 188.167 1.163 1.29423 0
M  V30 2040 O 189.343 1.48761 1.35765 0
M  V30 2041 C 186.408 2.77307 2.0809 0
M  V30 2042 C 185.469 3.94781 1.68661 0
M  V30 2043 C 184.702 4.50541 2.86091 0
M  V30 2044 O 184.925 4.05202 4.01456 0
M  V30 2045 O 183.859 5.41256 2.63298 0
M  V30 2046 H 187.685 3.01632 0.353778 0
M  V30 2047 H 185.27 1.49005 0.108599 0
M  V30 2048 H 187.152 3.14647 2.80313 0
M  V30 2049 H 185.827 1.97452 2.56504 0
M  V30 2050 H 184.734 3.62214 0.935518 0
M  V30 2051 H 186.067 4.76065 1.24991 0
M  V30 2052 N 187.719 -0.156864 1.56817 0
M  V30 2053 C 188.967 -0.869404 1.82444 0
M  V30 2054 C 189.288 -1.82147 0.69623 0
M  V30 2055 O 188.558 -1.93847 -0.28287 0
M  V30 2056 H 187.138 -0.324043 0.673056 0
M  V30 2057 H 189.8 -0.153224 1.94297 0
M  V30 2058 H 188.896 -1.43761 2.77019 0
M  V30 2059 N 189.197 -1.51736 -0.425897 0
M  V30 2060 C 190.445 -1.64644 -1.17204 0
M  V30 2061 C 190.766 -0.370486 -1.91448 0
M  V30 2062 O 190.036 0.614088 -1.86026 0
M  V30 2063 H 188.616 -0.606819 -0.435638 0
M  V30 2064 H 191.278 -1.88713 -0.487177 0
M  V30 2065 H 190.374 -2.47958 -1.89534 0
M  V30 2066 N 190.675 0.682077 -1.42076 0
M  V30 2067 C 191.622 1.79578 -1.44984 0
M  V30 2068 C 192.592 1.6332 -0.302614 0
M  V30 2069 O 193.777 1.83978 -0.505633 0
M  V30 2070 C 190.917 3.1756 -1.35091 0
M  V30 2071 C 190.03 3.45156 -2.59791 0
M  V30 2072 C 189.165 4.72826 -2.42093 0
M  V30 2073 C 188.204 4.93433 -3.62202 0
M  V30 2074 N 187.341 6.12338 -3.43491 0
M  V30 2075 H 192.181 1.76427 -2.40161 0
M  V30 2076 H 189.718 0.861376 -1.19242 0
M  V30 2077 H 191.676 3.97287 -1.27354 0
M  V30 2078 H 190.306 3.19854 -0.435133 0
M  V30 2079 H 189.358 2.59736 -2.77923 0
M  V30 2080 H 190.67 3.5628 -3.49094 0
M  V30 2081 H 189.824 5.60631 -2.319 0
M  V30 2082 H 188.563 4.63973 -1.50268 0
M  V30 2083 H 187.568 4.04073 -3.72834 0
M  V30 2084 H 188.793 5.04136 -4.54998 0
M  V30 2085 H 186.739 6.04672 -2.54377 0
M  V30 2086 H 186.656 6.2429 -4.26377 0
M  V30 2087 H 187.924 7.02841 -3.37097 0
M  V30 2088 N 192.153 1.28127 0.917671 0
M  V30 2089 C 193.086 1.06039 2.02067 0
M  V30 2090 C 194.064 -0.0223285 1.62585 0
M  V30 2091 O 195.248 0.124823 1.88086 0
M  V30 2092 C 192.375 0.610596 3.33151 0
M  V30 2093 C 191.421 1.68937 3.91615 0
M  V30 2094 S 192.254 3.28437 4.22953 0
M  V30 2095 C 193.41 2.85283 5.57103 0
M  V30 2096 H 193.643 1.99425 2.20493 0
M  V30 2097 H 191.176 1.12071 1.06205 0
M  V30 2098 H 193.134 0.357778 4.08938 0
M  V30 2099 H 191.795 -0.303364 3.12632 0
M  V30 2100 H 190.988 1.32619 4.86239 0
M  V30 2101 H 190.59 1.89478 3.2245 0
M  V30 2102 H 192.882 2.3121 6.36827 0
M  V30 2103 H 193.825 3.7869 5.98331 0
M  V30 2104 H 194.233 2.24118 5.18104 0
M  V30 2105 N 193.631 -1.12557 1.10312 0
M  V30 2106 C 194.856 -1.88405 0.867085 0
M  V30 2107 C 195.281 -1.79038 -0.576817 0
M  V30 2108 O 194.639 -1.14439 -1.40618 0
M  V30 2109 C 194.687 -3.3563 1.31851 0
M  V30 2110 O 193.791 -4.09565 0.482734 0
M  V30 2111 H 193.132 -0.585455 0.313271 0
M  V30 2112 H 195.662 -1.42352 1.4696 0
M  V30 2113 H 195.672 -3.86469 1.3079 0
M  V30 2114 H 194.347 -3.41765 2.37001 0
M  V30 2115 H 192.924 -3.68695 0.558448 0
M  V30 2116 N 195.109 -0.891671 -1.2995 0
M  V30 2117 C 196.041 -0.320695 -2.26945 0
M  V30 2118 C 197.054 0.528497 -1.53983 0
M  V30 2119 O 198.243 0.346959 -1.75096 0
M  V30 2120 C 195.343 0.562066 -3.34207 0
M  V30 2121 C 194.516 -0.259576 -4.36629 0
M  V30 2122 C 193.575 0.554739 -5.23268 0
M  V30 2123 O 192.601 -0.0249311 -5.69195 0
M  V30 2124 N 193.803 1.8625 -5.4981 0
M  V30 2125 H 196.568 -1.15432 -2.76578 0
M  V30 2126 H 194.129 -0.755336 -1.432 0
M  V30 2127 H 196.121 1.11304 -3.89093 0
M  V30 2128 H 194.691 1.29637 -2.84452 0
M  V30 2129 H 193.911 -0.991986 -3.81514 0
M  V30 2130 H 195.199 -0.822564 -5.02107 0
M  V30 2131 H 194.597 2.35628 -5.14292 0
M  V30 2132 H 193.154 2.36078 -6.07545 0
M  V30 2133 N 196.587 1.43421 -0.653314 0
M  V30 2134 C 197.817 2.05864 -0.174238 0
M  V30 2135 C 198.225 1.49052 1.16534 0
M  V30 2136 O 197.568 0.616481 1.73047 0
M  V30 2137 C 197.63 3.59499 -0.00875873 0
M  V30 2138 C 197.294 4.38893 -1.27364 0
M  V30 2139 C 198.291 4.70947 -2.20239 0
M  V30 2140 C 195.976 4.789 -1.51525 0
M  V30 2141 C 197.97 5.41916 -3.35568 0
M  V30 2142 C 195.657 5.49614 -2.67147 0
M  V30 2143 C 196.655 5.81044 -3.58994 0
M  V30 2144 O 196.343 6.50313 -4.72597 0
M  V30 2145 H 196.075 0.670345 -0.0872549 0
M  V30 2146 H 198.629 1.84913 -0.894226 0
M  V30 2147 H 196.859 3.79025 0.7666 0
M  V30 2148 H 198.548 4.0364 0.427687 0
M  V30 2149 H 199.314 4.40558 -2.02815 0
M  V30 2150 H 195.193 4.53843 -0.809158 0
M  V30 2151 H 198.737 5.66365 -4.07279 0
M  V30 2152 H 194.634 5.79419 -2.84505 0
M  V30 2153 H 195.402 6.68795 -4.71864 0
M  V30 2154 N 198.065 0.39524 1.52563 0
M  V30 2155 C 198.995 -0.428384 2.29537 0
M  V30 2156 C 199.976 -1.05831 1.33169 0
M  V30 2157 O 201.161 -1.06995 1.62067 0
M  V30 2158 C 198.291 -1.55274 3.10656 0
M  V30 2159 C 197.245 -1.04855 4.14957 0
M  V30 2160 C 196.571 -2.26543 4.84337 0
M  V30 2161 C 197.871 -0.112324 5.22179 0
M  V30 2162 H 199.565 0.213867 2.98635 0
M  V30 2163 H 197.111 0.104298 1.43622 0
M  V30 2164 H 199.064 -2.1358 3.63265 0
M  V30 2165 H 197.788 -2.22266 2.39302 0
M  V30 2166 H 196.447 -0.487985 3.63338 0
M  V30 2167 H 196.095 -2.92059 4.09525 0
M  V30 2168 H 195.795 -1.93466 5.54837 0
M  V30 2169 H 197.319 -2.85481 5.39753 0
M  V30 2170 H 198.733 -0.603752 5.70112 0
M  V30 2171 H 197.13 0.128968 5.99961 0
M  V30 2172 H 198.2 0.837052 4.77621 0
M  V30 2173 N 199.544 -1.57102 0.125237 0
M  V30 2174 C 200.821 -1.86953 -0.575142 0
M  V30 2175 C 201.201 -1.02749 -1.84407 0
M  V30 2176 O 200.549 -0.108144 -2.28244 0
M  V30 2177 C 200.759 -3.38198 -0.861583 0
M  V30 2178 C 202.107 -4.06937 -1.21192 0
M  V30 2179 O 203.131 -3.43252 -0.951645 0
M  V30 2180 O 201.99 -5.19364 -1.70068 0
M  V30 2181 H 199.084 -0.774147 -0.290906 0
M  V30 2182 H 201.63 -1.68942 0.160211 0
M  V30 2183 H 200.402 -3.91282 0.0373647 0
M  V30 2184 H 200.025 -3.61661 -1.65188 0
M  V30 2185 N 201.022 0.148545 -1.56898 0
M  V30 2186 C 202.247 0.880385 -1.87787 0
M  V30 2187 C 202.672 1.74018 -0.714093 0
M  V30 2188 O 202.03 1.78153 0.336343 0
M  V30 2189 C 202.078 1.71422 -3.17249 0
M  V30 2190 O 201.182 2.8183 -3.01074 0
M  V30 2191 H 200.523 0.245301 -0.617028 0
M  V30 2192 H 203.053 0.139826 -2.04122 0
M  V30 2193 H 203.063 2.10954 -3.49231 0
M  V30 2194 H 201.738 1.08284 -4.01556 0
M  V30 2195 H 200.315 2.45715 -2.80497 0
M  V30 2196 N 202.5 1.5196 0.417844 0
M  V30 2197 C 203.43 1.77634 1.51554 0
M  V30 2198 C 204.411 0.626918 1.58126 0
M  V30 2199 O 205.596 0.871632 1.7354 0
M  V30 2200 C 202.726 1.91911 2.8946 0
M  V30 2201 C 201.68 3.07463 2.97743 0
M  V30 2202 C 201.006 3.06951 4.37819 0
M  V30 2203 C 202.306 4.47082 2.70027 0
M  V30 2204 H 204 2.6955 1.3032 0
M  V30 2205 H 201.546 1.29706 0.625492 0
M  V30 2206 H 203.499 2.08455 3.6623 0
M  V30 2207 H 202.223 0.966598 3.11969 0
M  V30 2208 H 200.882 2.90656 2.23416 0
M  V30 2209 H 200.53 2.09438 4.57323 0
M  V30 2210 H 200.23 3.84556 4.44286 0
M  V30 2211 H 201.754 3.25613 5.16535 0
M  V30 2212 H 203.168 4.6414 3.36522 0
M  V30 2213 H 201.565 5.2654 2.87881 0
M  V30 2214 H 202.635 4.55777 1.65514 0
M  V30 2215 N 203.978 -0.674533 1.42435 0
M  V30 2216 C 204.925 -1.78807 1.45934 0
M  V30 2217 C 205.895 -1.63157 0.311271 0
M  V30 2218 O 207.08 -1.83707 0.515383 0
M  V30 2219 C 204.22 -3.16839 1.36773 0
M  V30 2220 C 203.333 -3.43774 2.61617 0
M  V30 2221 C 202.468 -4.71536 2.44597 0
M  V30 2222 C 201.507 -4.91505 3.64814 0
M  V30 2223 N 200.644 -6.10508 3.46734 0
M  V30 2224 H 205.484 -1.75151 2.41093 0
M  V30 2225 H 203.021 -0.85504 1.19697 0
M  V30 2226 H 204.979 -3.96606 1.29459 0
M  V30 2227 H 203.609 -3.19619 0.452089 0
M  V30 2228 H 202.661 -2.58259 2.79297 0
M  V30 2229 H 203.973 -3.54423 3.50978 0
M  V30 2230 H 203.127 -5.59393 2.3487 0
M  V30 2231 H 201.866 -4.6317 1.52726 0
M  V30 2232 H 200.871 -4.0209 3.74972 0
M  V30 2233 H 202.096 -5.01716 4.57665 0
M  V30 2234 H 200.042 -6.03315 2.5758 0
M  V30 2235 H 199.959 -6.2202 4.29682 0
M  V30 2236 H 201.227 -7.01044 3.40819 0
M  V30 2237 N 205.456 -1.28612 -0.910864 0
M  V30 2238 C 206.702 -1.16106 -1.66274 0
M  V30 2239 C 207.035 0.289113 -1.92036 0
M  V30 2240 O 206.31 1.21 -1.52281 0
M  V30 2241 C 206.593 -1.96309 -3.01885 0
M  V30 2242 C 206.446 -3.49405 -2.8326 0
M  V30 2243 C 207.765 -1.78076 -4.02463 0
M  V30 2244 H 204.884 -0.423152 -0.603417 0
M  V30 2245 H 207.526 -1.57961 -1.05586 0
M  V30 2246 H 205.676 -1.60742 -3.53687 0
M  V30 2247 H 207.348 -3.94894 -2.38446 0
M  V30 2248 H 205.591 -3.74893 -2.18261 0
M  V30 2249 H 206.262 -4.00784 -3.79574 0
M  V30 2250 H 208.738 -2.0912 -3.59733 0
M  V30 2251 H 207.614 -2.36561 -4.95308 0
M  V30 2252 H 207.875 -0.733008 -4.35981 0
M  V30 2253 N 206.934 1.1197 -1.10907 0
M  V30 2254 C 208.182 1.83225 -0.852819 0
M  V30 2255 C 208.503 1.84769 0.623341 0
M  V30 2256 O 207.773 1.3143 1.45269 0
M  V30 2257 H 206.353 0.67849 -0.312507 0
M  V30 2258 H 209.015 1.3556 -1.40033 0
M  V30 2259 H 208.111 2.87265 -1.22005 0
M  V30 2260 N 208.412 0.89855 1.29475 0
M  V30 2261 C 209.689 0.443416 1.90508 0
M  V30 2262 C 210.069 -1.07685 1.81569 0
M  V30 2263 O 209.417 -1.9182 1.24166 0
M  V30 2264 C 209.627 0.956708 3.35631 0
M  V30 2265 C 210.975 0.999728 4.12663 0
M  V30 2266 O 211.999 0.904299 3.4453 0
M  V30 2267 O 210.858 1.14289 5.34416 0
M  V30 2268 H 207.952 0.138025 0.815401 0
M  V30 2269 H 210.498 0.98834 1.37949 0
M  V30 2270 H 209.27 2.00067 3.36287 0
M  V30 2271 H 208.893 0.391728 3.95666 0
M  V30 2272 N 209.89 -1.43072 0.660911 0
M  V30 2273 C 211.136 -2.0202 0.177708 0
M  V30 2274 C 211.469 -1.52066 -1.20787 0
M  V30 2275 O 210.744 -0.716987 -1.80802 0
M  V30 2276 C 211.027 -3.59561 0.197019 0
M  V30 2277 C 210.88 -4.19727 1.61706 0
M  V30 2278 C 212.199 -4.37664 -0.462396 0
M  V30 2279 H 209.318 -0.734034 0.0660494 0
M  V30 2280 H 211.96 -1.70272 0.843058 0
M  V30 2281 H 210.11 -3.86739 -0.369527 0
M  V30 2282 H 211.782 -4.03553 2.23479 0
M  V30 2283 H 210.025 -3.76084 2.16201 0
M  V30 2284 H 210.696 -5.28834 1.58237 0
M  V30 2285 H 213.172 -4.16095 0.0197215 0
M  V30 2286 H 212.048 -5.47305 -0.418188 0
M  V30 2287 H 212.309 -4.14493 -1.53778 0
M  V30 2288 N 211.368 -0.403325 -1.52352 0
M  V30 2289 C 212.614 0.174605 -2.02047 0
M  V30 2290 C 212.947 1.45282 -1.28867 0
M  V30 2291 O 212.222 1.90483 -0.393257 0
M  V30 2292 C 212.505 0.428238 -3.57545 0
M  V30 2293 C 212.358 -0.866248 -4.4138 0
M  V30 2294 C 213.677 1.21287 -4.23057 0
M  V30 2295 H 210.796 0.0619851 -0.734389 0
M  V30 2296 H 213.438 -0.53565 -1.82293 0
M  V30 2297 H 211.588 1.03327 -3.74507 0
M  V30 2298 H 213.26 -1.50265 -4.3614 0
M  V30 2299 H 211.503 -1.47851 -4.07827 0
M  V30 2300 H 212.174 -0.643249 -5.48239 0
M  V30 2301 H 214.65 0.700703 -4.10158 0
M  V30 2302 H 213.526 1.35909 -5.31808 0
M  V30 2303 H 213.787 2.23193 -3.81625 0
M  V30 2304 N 212.846 1.57033 -0.133567 0
M  V30 2305 C 213.756 2.19632 0.824564 0
M  V30 2306 C 214.772 1.17666 1.28182 0
M  V30 2307 O 215.948 1.50193 1.3418 0
M  V30 2308 C 213.013 2.79499 2.05137 0
M  V30 2309 C 212.074 3.96548 1.64464 0
M  V30 2310 C 211.307 4.5355 2.81297 0
M  V30 2311 O 211.53 4.09438 3.97136 0
M  V30 2312 O 210.464 5.44018 2.57542 0
M  V30 2313 H 214.29 3.01991 0.321766 0
M  V30 2314 H 211.875 1.49112 0.0927889 0
M  V30 2315 H 213.757 3.17602 2.7696 0
M  V30 2316 H 212.432 2.00162 2.54395 0
M  V30 2317 H 211.339 3.63186 0.897048 0
M  V30 2318 H 212.672 4.77364 1.19934 0
M  V30 2319 N 214.325 -0.140222 1.56975 0
M  V30 2320 C 215.572 -0.851687 1.83719 0
M  V30 2321 C 215.9 -1.80862 0.715485 0
M  V30 2322 O 215.155 -1.93464 -0.294956 0
M  V30 2323 C 215.454 -1.65386 3.16832 0
M  V30 2324 C 215.12 -0.843112 4.42947 0
M  V30 2325 C 213.782 -0.619464 4.77196 0
M  V30 2326 C 216.134 -0.276582 5.20466 0
M  V30 2327 C 213.462 0.181312 5.8642 0
M  V30 2328 C 215.814 0.51127 6.30531 0
M  V30 2329 C 214.478 0.745432 6.63325 0
M  V30 2330 H 213.748 -0.311654 0.672274 0
M  V30 2331 H 216.395 -0.115006 1.91154 0
M  V30 2332 H 214.7 -2.46084 3.04877 0
M  V30 2333 H 216.397 -2.20793 3.34741 0
M  V30 2334 H 212.987 -1.0275 4.16101 0
M  V30 2335 H 217.171 -0.436632 4.94376 0
M  V30 2336 H 212.427 0.372165 6.10266 0
M  V30 2337 H 216.601 0.957354 6.89788 0
M  V30 2338 H 214.228 1.36778 7.47794 0
M  V30 2339 N 215.803 -1.52179 -0.40978 0
M  V30 2340 C 217.219 -1.40968 -0.74835 0
M  V30 2341 C 217.419 -0.513657 -1.94843 0
M  V30 2342 O 216.475 0.0208026 -2.52491 0
M  V30 2343 C 217.788 -2.83483 -1.0029 0
M  V30 2344 C 219.336 -2.92821 -1.10565 0
M  V30 2345 C 219.811 -4.36303 -1.39296 0
M  V30 2346 N 221.302 -4.39535 -1.46162 0
M  V30 2347 C 222.037 -5.47614 -1.70018 0
M  V30 2348 N 221.533 -6.65812 -1.91483 0
M  V30 2349 N 223.326 -5.35129 -1.72027 0
M  V30 2350 H 215.477 -2.0897 0.380186 0
M  V30 2351 H 217.74 -0.94185 0.107805 0
M  V30 2352 H 217.446 -3.51168 -0.193461 0
M  V30 2353 H 217.32 -3.24487 -1.92323 0
M  V30 2354 H 219.707 -2.25318 -1.90568 0
M  V30 2355 H 219.788 -2.55276 -0.16369 0
M  V30 2356 H 219.432 -5.04366 -0.598109 0
M  V30 2357 H 219.362 -4.71385 -2.34743 0
M  V30 2358 H 221.853 -3.54332 -1.31367 0
M  V30 2359 H 222.166 -7.43964 -2.09134 0
M  V30 2360 H 220.511 -6.68879 -1.88749 0
M  V30 2361 H 223.702 -4.41764 -1.54796 0
M  V30 2362 H 223.875 -6.19433 -1.9028 0
M  V30 2363 N 217.281 0.66697 -1.42791 0
M  V30 2364 C 218.529 1.42417 -1.43394 0
M  V30 2365 C 218.85 1.94925 -0.0542373 0
M  V30 2366 O 218.12 1.73564 0.908415 0
M  V30 2367 H 216.7 0.528515 -0.527902 0
M  V30 2368 H 219.362 0.787562 -1.78279 0
M  V30 2369 H 218.458 2.27333 -2.13837 0
M  V30 2370 N 218.759 1.29093 0.90403 0
M  V30 2371 C 220.17 1.15186 1.46932 0
M  V30 2372 C 220.521 -0.254587 1.94541 0
M  V30 2373 O 219.646 -1.14972 1.83332 0
M  V30 2374 C 220.241 2.08492 2.67051 0
M  V30 2375 C 218.8 1.98621 3.19729 0
M  V30 2376 C 217.947 1.9967 1.92425 0
M  V30 2377 H 220.898 1.41641 0.715789 0
M  V30 2378 H 220.919 1.65461 3.42641 0
M  V30 2379 H 220.431 3.10847 2.3237 0
M  V30 2380 H 218.532 0.993389 3.59114 0
M  V30 2381 H 218.645 2.86068 3.8432 0
M  V30 2382 H 217.009 1.44208 2.09943 0
M  V30 2383 H 217.792 3.03721 1.60026 0
M  V30 2384 N 220.237 -1.11381 1.11499 0
M  V30 2385 C 221.462 -1.87475 0.887019 0
M  V30 2386 C 221.887 -1.79639 -0.557796 0
M  V30 2387 O 221.245 -1.15924 -1.39396 0
M  V30 2388 C 221.293 -3.34213 1.35403 0
M  V30 2389 O 220.397 -4.0903 0.526146 0
M  V30 2390 H 219.738 -0.582099 0.319463 0
M  V30 2391 H 222.268 -1.40785 1.48461 0
M  V30 2392 H 222.278 -3.8506 1.34881 0
M  V30 2393 H 220.953 -3.39232 2.40612 0
M  V30 2394 H 219.53 -3.68082 0.597522 0
M  V30 2395 N 221.715 -0.905404 -1.28997 0
M  V30 2396 C 222.963 -0.533192 -1.9494 0
M  V30 2397 C 223.284 0.924618 -1.71685 0
M  V30 2398 O 222.554 1.65268 -1.05183 0
M  V30 2399 H 221.134 -0.194194 -0.721317 0
M  V30 2400 H 223.796 -1.15294 -1.57141 0
M  V30 2401 H 222.892 -0.72059 -3.03667 0
M  V30 2402 N 223.193 1.4272 -0.668489 0
M  V30 2403 C 224.123 2.335 -0.000100175 0
M  V30 2404 C 225.104 1.50328 0.795964 0
M  V30 2405 O 226.289 1.78949 0.754385 0
M  V30 2406 C 223.419 3.33874 0.956302 0
M  V30 2407 C 222.373 4.27152 0.269278 0
M  V30 2408 C 221.699 5.17684 1.33818 0
M  V30 2409 C 222.999 5.15373 -0.847805 0
M  V30 2410 H 224.693 2.89639 -0.758244 0
M  V30 2411 H 222.239 1.39269 -0.366079 0
M  V30 2412 H 224.192 3.9629 1.43292 0
M  V30 2413 H 222.916 2.76025 1.74579 0
M  V30 2414 H 221.575 3.66123 -0.187042 0
M  V30 2415 H 221.223 4.56165 2.1195 0
M  V30 2416 H 220.923 5.80918 0.883659 0
M  V30 2417 H 222.447 5.82974 1.81586 0
M  V30 2418 H 223.861 5.7151 -0.452681 0
M  V30 2419 H 222.258 5.87407 -1.22773 0
M  V30 2420 H 223.328 4.5415 -1.69929 0
M  V30 2421 N 224.671 0.411399 1.52136 0
M  V30 2422 C 225.601 -0.404015 2.29978 0
M  V30 2423 C 226.582 -1.04412 1.34284 0
M  V30 2424 O 227.767 -1.0527 1.63192 0
M  V30 2425 C 224.897 -1.5197 3.12286 0
M  V30 2426 C 223.851 -1.00448 4.16046 0
M  V30 2427 C 223.177 -2.21393 4.86712 0
M  V30 2428 C 224.477 -0.0569336 5.22269 0
M  V30 2429 H 226.171 0.245529 2.98392 0
M  V30 2430 H 223.717 0.119525 1.43503 0
M  V30 2431 H 225.67 -2.09715 3.6551 0
M  V30 2432 H 224.394 -2.19716 2.41646 0
M  V30 2433 H 223.053 -0.449421 3.63835 0
M  V30 2434 H 222.701 -2.87699 4.12599 0
M  V30 2435 H 222.401 -1.87571 5.56858 0
M  V30 2436 H 223.925 -2.7974 5.4275 0
M  V30 2437 H 225.339 -0.54325 5.7072 0
M  V30 2438 H 223.736 0.192594 5.99791 0
M  V30 2439 H 224.806 0.887663 4.76706 0
M  V30 2440 N 226.149 -1.5696 0.141893 0
M  V30 2441 C 227.377 -2.00322 -0.517579 0
M  V30 2442 C 227.792 -1.02193 -1.58752 0
M  V30 2443 O 227.149 -0.0181619 -1.82491 0
M  V30 2444 C 227.2 -3.43618 -1.12289 0
M  V30 2445 O 226.921 -4.37995 -0.0956929 0
M  V30 2446 C 228.422 -4.02231 -1.86347 0
M  V30 2447 H 225.642 -0.657243 -0.135177 0
M  V30 2448 H 228.186 -2.03146 0.234973 0
M  V30 2449 H 226.341 -3.41662 -1.82609 0
M  V30 2450 H 226.755 -5.21729 -0.538469 0
M  V30 2451 H 228.229 -5.04509 -2.23997 0
M  V30 2452 H 228.706 -3.42655 -2.74744 0
M  V30 2453 H 229.312 -4.07802 -1.20737 0
M  V30 2454 N 227.627 0.131896 -1.57047 0
M  V30 2455 C 228.857 0.855219 -1.88068 0
M  V30 2456 C 229.265 1.74557 -0.729817 0
M  V30 2457 O 228.608 1.81083 0.308962 0
M  V30 2458 C 228.67 1.75119 -3.13964 0
M  V30 2459 C 228.334 1.03646 -4.45091 0
M  V30 2460 C 229.331 0.383276 -5.18485 0
M  V30 2461 C 227.016 1.02148 -4.91804 0
M  V30 2462 C 229.01 -0.275347 -6.36805 0
M  V30 2463 C 226.697 0.359047 -6.10044 0
M  V30 2464 C 227.695 -0.288222 -6.82392 0
M  V30 2465 O 227.383 -0.94011 -7.98384 0
M  V30 2466 H 227.115 0.251864 -0.627328 0
M  V30 2467 H 229.669 0.124782 -2.05021 0
M  V30 2468 H 227.899 2.52295 -2.9306 0
M  V30 2469 H 229.588 2.3478 -3.31109 0
M  V30 2470 H 230.354 0.386562 -4.83457 0
M  V30 2471 H 226.233 1.5147 -4.35405 0
M  V30 2472 H 229.777 -0.781148 -6.93213 0
M  V30 2473 H 225.674 0.35348 -6.44531 0
M  V30 2474 H 226.442 -0.84329 -8.14144 0
M  V30 2475 N 229.106 1.52395 0.401703 0
M  V30 2476 C 230.334 1.70676 1.16949 0
M  V30 2477 C 230.749 0.419503 1.8408 0
M  V30 2478 O 230.106 -0.605061 1.72178 0
M  V30 2479 C 230.157 2.84753 2.22706 0
M  V30 2480 O 229.878 4.08495 1.58314 0
M  V30 2481 C 231.379 3.14608 3.12309 0
M  V30 2482 H 228.599 0.571787 0.351142 0
M  V30 2483 H 231.143 1.98987 0.471652 0
M  V30 2484 H 229.298 2.58941 2.88147 0
M  V30 2485 H 229.712 4.72117 2.28485 0
M  V30 2486 H 231.186 3.97923 3.82572 0
M  V30 2487 H 231.663 2.28464 3.75101 0
M  V30 2488 H 232.269 3.42212 2.52529 0
M  V30 2489 N 230.584 -0.659388 1.43143 0
M  V30 2490 C 231.832 -1.41654 1.44147 0
M  V30 2491 C 232.153 -1.94893 0.0645739 0
M  V30 2492 O 231.423 -1.74044 -0.899198 0
M  V30 2493 H 230.003 -0.525708 0.530697 0
M  V30 2494 H 232.665 -0.778097 1.78694 0
M  V30 2495 H 231.761 -2.26195 2.1504 0
M  V30 2496 N 232.062 -1.29571 -0.897171 0
M  V30 2497 C 233.009 -1.14916 -2.00158 0
M  V30 2498 C 233.979 -0.0418149 -1.66047 0
M  V30 2499 O 235.164 -0.209793 -1.89643 0
M  V30 2500 C 232.304 -0.834307 -3.34863 0
M  V30 2501 C 231.417 -2.02234 -3.8174 0
M  V30 2502 C 230.552 -1.64664 -5.05034 0
M  V30 2503 C 229.591 -2.80033 -5.44286 0
M  V30 2504 N 228.728 -2.42843 -6.58765 0
M  V30 2505 H 233.568 -2.09403 -2.12025 0
M  V30 2506 H 231.105 -1.042 -1.0383 0
M  V30 2507 H 233.063 -0.632436 -4.12379 0
M  V30 2508 H 231.693 0.0736656 -3.22716 0
M  V30 2509 H 230.745 -2.33583 -3.00238 0
M  V30 2510 H 232.057 -2.88673 -4.06779 0
M  V30 2511 H 231.211 -1.4078 -5.9014 0
M  V30 2512 H 229.95 -0.753766 -4.8184 0
M  V30 2513 H 228.955 -3.04596 -4.57713 0
M  V30 2514 H 230.18 -3.69989 -5.6946 0
M  V30 2515 H 228.126 -1.56046 -6.3717 0
M  V30 2516 H 228.043 -3.22815 -6.83613 0
M  V30 2517 H 229.311 -2.22285 -7.47134 0
M  V30 2518 N 233.54 1.10788 -1.12088 0
M  V30 2519 C 234.788 1.8231 -0.872205 0
M  V30 2520 C 235.109 1.85419 0.603709 0
M  V30 2521 O 234.379 1.32963 1.43867 0
M  V30 2522 H 232.959 0.675137 -0.319686 0
M  V30 2523 H 235.621 1.34068 -1.41463 0
M  V30 2524 H 234.717 2.85955 -1.25045 0
M  V30 2525 N 235.018 0.912232 1.28515 0
M  V30 2526 C 235.968 0.370649 2.24967 0
M  V30 2527 C 236.952 -0.516375 1.52389 0
M  V30 2528 O 238.144 -0.356345 1.73376 0
M  V30 2529 C 235.273 -0.389526 3.41083 0
M  V30 2530 C 234.359 0.51313 4.20984 0
M  V30 2531 N 234.75 1.62604 4.78951 0
M  V30 2532 C 233.048 0.313235 4.44899 0
M  V30 2533 C 233.749 2.18619 5.39055 0
M  V30 2534 N 232.725 1.47765 5.23132 0
M  V30 2535 H 236.527 1.22061 2.67354 0
M  V30 2536 H 234.041 0.764712 1.43269 0
M  V30 2537 H 236.038 -0.794353 4.09262 0
M  V30 2538 H 234.698 -1.2366 3.0023 0
M  V30 2539 H 235.709 2.00864 4.77362 0
M  V30 2540 H 232.386 -0.494452 4.14562 0
M  V30 2541 H 233.776 3.12228 5.94948 0
M  V30 2542 N 236.496 -1.42363 0.676048 0
M  V30 2543 C 237.743 -2.01522 0.19883 0
M  V30 2544 C 238.071 -1.53456 -1.19505 0
M  V30 2545 O 237.326 -0.727967 -1.81657 0
M  V30 2546 C 237.625 -3.56929 0.183431 0
M  V30 2547 C 237.291 -4.24431 1.52215 0
M  V30 2548 C 235.953 -4.42585 1.8887 0
M  V30 2549 C 238.305 -4.62459 2.40377 0
M  V30 2550 C 235.633 -4.96039 3.13309 0
M  V30 2551 C 237.985 -5.17294 3.64129 0
M  V30 2552 C 236.649 -5.33661 4.00951 0
M  V30 2553 H 235.919 -0.737419 0.0727571 0
M  V30 2554 H 238.566 -1.70531 0.871281 0
M  V30 2555 H 236.871 -3.87594 -0.572532 0
M  V30 2556 H 238.568 -4.00486 -0.203035 0
M  V30 2557 H 235.158 -4.10661 1.22701 0
M  V30 2558 H 239.342 -4.48105 2.13343 0
M  V30 2559 H 234.598 -5.06896 3.41857 0
M  V30 2560 H 238.772 -5.45704 4.32644 0
M  V30 2561 H 236.399 -5.74845 4.9745 0
M  V30 2562 N 237.974 -0.419461 -1.51915 0
M  V30 2563 C 238.922 0.415502 -2.28859 0
M  V30 2564 C 239.916 1.03674 -1.3397 0
M  V30 2565 O 241.122 0.973757 -1.51387 0
M  V30 2566 H 237.497 0.152786 -0.736315 0
M  V30 2567 H 239.468 -0.254531 -2.97312 0
M  V30 2568 C 238.217 1.51425 -3.12995 0
M  V30 2569 H 237.54 1.04556 -3.85886 0
M  V30 2570 H 238.98 2.07208 -3.6992 0
M  V30 2571 C 237.439 2.48745 -2.27217 0
M  V30 2572 O 237.969 3.52871 -1.9195 0
M  V30 2573 N 236.175 2.19202 -1.90785 0
M  V30 2574 H 235.722 1.34556 -2.19664 0
M  V30 2575 H 235.68 2.84561 -1.33687 0
M  V30 2576 N 239.452 1.56882 -0.150215 0
M  V30 2577 C 240.701 1.95403 0.500071 0
M  V30 2578 C 241.014 1.03777 1.658 0
M  V30 2579 O 242.22 1.31889 2.37313 0
M  V30 2580 C 240.676 3.4738 0.941018 0
M  V30 2581 C 240.284 4.47596 -0.190158 0
M  V30 2582 C 242.028 3.9476 1.56091 0
M  V30 2583 C 239.935 5.90787 0.269237 0
M  V30 2584 H 238.865 0.729515 0.190588 0
M  V30 2585 H 241.516 1.81988 -0.235074 0
M  V30 2586 H 239.898 3.56138 1.73152 0
M  V30 2587 H 241.072 4.50536 -0.967157 0
M  V30 2588 H 239.387 4.10151 -0.718666 0
M  V30 2589 H 241.984 4.99181 1.9163 0
M  V30 2590 H 242.327 3.36494 2.45107 0
M  V30 2591 H 242.86 3.88932 0.835249 0
M  V30 2592 H 239.599 6.52879 -0.585621 0
M  V30 2593 H 239.119 5.912 1.01204 0
M  V30 2594 H 240.798 6.42979 0.720176 0
M  V30 2595 N 240.93 -0.123565 1.57115 0
M  V30 2596 C 241.862 -1.17739 1.96648 0
M  V30 2597 C 242.875 -1.37906 0.865201 0
M  V30 2598 O 244.064 -1.37062 1.14351 0
M  V30 2599 C 241.164 -2.53821 2.24562 0
M  V30 2600 C 240.337 -2.54317 3.55867 0
M  V30 2601 C 239.396 -3.72112 3.72047 0
M  V30 2602 O 238.422 -3.55907 4.44206 0
M  V30 2603 N 239.624 -4.90498 3.10471 0
M  V30 2604 H 242.389 -0.841147 2.87654 0
M  V30 2605 H 239.95 -0.31289 1.58848 0
M  V30 2606 H 241.942 -3.31175 2.32606 0
M  V30 2607 H 240.512 -2.79645 1.39705 0
M  V30 2608 H 239.732 -1.62711 3.59053 0
M  V30 2609 H 241.02 -2.51701 4.42181 0
M  V30 2610 H 240.418 -5.06567 2.51806 0
M  V30 2611 H 238.975 -5.65544 3.24043 0
M  V30 2612 N 242.408 -1.52605 -0.393616 0
M  V30 2613 C 243.819 -1.59417 -0.971761 0
M  V30 2614 C 244.17 -0.444173 -1.91106 0
M  V30 2615 O 243.295 0.433382 -2.12016 0
M  V30 2616 C 243.89 -2.88936 -1.76921 0
M  V30 2617 C 242.449 -2.98175 -2.29714 0
M  V30 2618 C 241.596 -2.54491 -1.10135 0
M  V30 2619 H 244.547 -1.57751 -0.173317 0
M  V30 2620 H 244.568 -2.75163 -2.62804 0
M  V30 2621 H 244.08 -3.72616 -1.08532 0
M  V30 2622 H 242.181 -2.19024 -3.01429 0
M  V30 2623 H 242.294 -4.02726 -2.59517 0
M  V30 2624 H 240.658 -2.08702 -1.45999 0
M  V30 2625 H 241.441 -3.4056 -0.432874 0
M  V30 2626 N 243.887 0.651787 -1.4349 0
M  V30 2627 C 244.835 1.78586 -1.49029 0
M  V30 2628 C 245.829 1.65448 -0.363767 0
M  V30 2629 O 247.035 1.71777 -0.537821 0
M  V30 2630 H 243.41 0.589236 -0.467231 0
M  V30 2631 H 245.381 1.71035 -2.44519 0
M  V30 2632 C 244.13 3.16851 -1.43181 0
M  V30 2633 H 243.453 3.27598 -2.29171 0
M  V30 2634 H 244.893 3.96156 -1.51118 0
M  V30 2635 C 243.352 3.36568 -0.149616 0
M  V30 2636 O 243.882 3.93885 0.788509 0
M  V30 2637 N 242.088 2.90539 -0.0593484 0
M  V30 2638 H 241.635 2.4408 -0.823575 0
M  V30 2639 H 241.593 3.04108 0.797853 0
M  V30 2640 N 245.365 1.30045 0.890287 0
M  V30 2641 C 246.312 1.15976 1.99545 0
M  V30 2642 C 247.282 0.0506202 1.66023 0
M  V30 2643 O 248.467 0.219847 1.89529 0
M  V30 2644 C 245.607 0.852054 3.34416 0
M  V30 2645 C 244.72 2.04255 3.80662 0
M  V30 2646 C 243.855 1.6734 5.04154 0
M  V30 2647 C 242.894 2.82916 5.42794 0
M  V30 2648 N 242.031 2.46333 6.57468 0
M  V30 2649 H 246.871 2.10524 2.10911 0
M  V30 2650 H 244.408 1.04749 1.03276 0
M  V30 2651 H 246.366 0.654296 4.12037 0
M  V30 2652 H 244.996 -0.0565502 3.2275 0
M  V30 2653 H 244.048 2.35172 2.98995 0
M  V30 2654 H 245.36 2.90826 4.05242 0
M  V30 2655 H 244.514 1.43908 5.89386 0
M  V30 2656 H 243.253 0.779308 4.81433 0
M  V30 2657 H 242.258 3.0702 4.56091 0
M  V30 2658 H 243.483 3.73004 5.6749 0
M  V30 2659 H 241.429 1.59423 6.36334 0
M  V30 2660 H 241.346 3.26436 6.81891 0
M  V30 2661 H 242.614 2.26244 7.45945 0
M  V30 2662 N 246.843 -1.10192 1.12674 0
M  V30 2663 C 247.79 -2.16606 0.796906 0
M  V30 2664 C 248.76 -1.64394 -0.237476 0
M  V30 2665 O 249.945 -1.90474 -0.111484 0
M  V30 2666 C 247.085 -3.44116 0.26043 0
M  V30 2667 C 246.198 -4.10268 1.35293 0
M  V30 2668 C 245.333 -5.25507 0.775621 0
M  V30 2669 C 244.372 -5.83567 1.84706 0
M  V30 2670 N 243.509 -6.90179 1.28829 0
M  V30 2671 H 248.349 -2.44163 1.70846 0
M  V30 2672 H 245.886 -1.19846 0.85295 0
M  V30 2673 H 247.844 -4.17143 -0.0686814 0
M  V30 2674 H 246.474 -3.16901 -0.614274 0
M  V30 2675 H 245.526 -3.35184 1.79877 0
M  V30 2676 H 246.838 -4.4946 2.16303 0
M  V30 2677 H 245.992 -6.05398 0.397327 0
M  V30 2678 H 244.731 -4.87656 -0.0656581 0
M  V30 2679 H 243.736 -5.02344 2.23452 0
M  V30 2680 H 244.961 -6.23482 2.69161 0
M  V30 2681 H 242.907 -6.54322 0.468881 0
M  V30 2682 H 242.824 -7.28097 2.03497 0
M  V30 2683 H 244.092 -7.73844 0.937311 0
M  V30 2684 N 248.321 -0.919034 -1.28029 0
M  V30 2685 C 249.546 -0.570357 -1.99403 0
M  V30 2686 C 249.971 0.842486 -1.68178 0
M  V30 2687 O 249.329 1.56391 -0.917141 0
M  V30 2688 C 249.377 -0.792541 -3.51783 0
M  V30 2689 O 248.481 0.145988 -4.12142 0
M  V30 2690 H 247.822 -0.220555 -0.6263 0
M  V30 2691 H 250.352 -1.23592 -1.63053 0
M  V30 2692 H 250.362 -0.704708 -4.01868 0
M  V30 2693 H 249.037 -1.82247 -3.73844 0
M  V30 2694 H 247.614 0.00897528 -3.72899 0
M  V30 2695 N 249.799 1.42003 -0.683588 0
M  V30 2696 C 251.21 1.84501 -0.285736 0
M  V30 2697 C 251.561 1.57213 1.17382 0
M  V30 2698 O 250.686 1.03642 1.89966 0
M  V30 2699 C 251.281 3.34912 -0.511821 0
M  V30 2700 C 249.84 3.76025 -0.168005 0
M  V30 2701 C 248.987 2.6551 -0.799983 0
M  V30 2702 H 251.938 1.31724 -0.885119 0
M  V30 2703 H 251.959 3.79784 0.233292 0
M  V30 2704 H 251.471 3.54741 -1.57418 0
M  V30 2705 H 249.572 3.61801 0.890567 0
M  V30 2706 H 249.685 4.75141 -0.614661 0
M  V30 2707 H 248.049 2.53654 -0.230568 0
M  V30 2708 H 248.832 2.8816 -1.86597 0
M  V30 2709 N 251.277 0.427512 1.51691 0
M  V30 2710 C 252.688 -0.0378867 1.86662 0
M  V30 2711 C 253.039 -1.42819 1.34525 0
M  V30 2712 O 252.164 -2.05037 0.692014 0
M  V30 2713 C 252.759 -0.0755266 3.38716 0
M  V30 2714 C 251.318 -0.485309 3.73258 0
M  V30 2715 C 250.465 0.328399 2.75349 0
M  V30 2716 H 253.416 0.64379 1.45055 0
M  V30 2717 H 253.437 -0.887056 3.70016 0
M  V30 2718 H 252.949 0.936487 3.76632 0
M  V30 2719 H 251.05 -1.50329 3.40928 0
M  V30 2720 H 251.163 -0.21693 4.78609 0
M  V30 2721 H 249.527 -0.211905 2.53817 0
M  V30 2722 H 250.31 1.3391 3.16106 0
M  V30 2723 N 252.755 -1.56801 0.158532 0
M  V30 2724 C 253.665 -2.20916 -0.789518 0
M  V30 2725 C 254.681 -1.1969 -1.26294 0
M  V30 2726 O 255.857 -1.52308 -1.31773 0
M  V30 2727 C 252.922 -2.82727 -2.00665 0
M  V30 2728 C 251.983 -3.99114 -1.58134 0
M  V30 2729 C 251.216 -4.57968 -2.74045 0
M  V30 2730 O 251.439 -4.15704 -3.90572 0
M  V30 2731 O 250.373 -5.48047 -2.48855 0
M  V30 2732 H 254.199 -3.02464 -0.273681 0
M  V30 2733 H 251.784 -1.4924 -0.0690548 0
M  V30 2734 H 253.666 -3.21968 -2.71872 0
M  V30 2735 H 252.341 -2.04184 -2.51179 0
M  V30 2736 H 251.248 -3.64567 -0.839155 0
M  V30 2737 H 252.581 -4.79212 -1.12325 0
M  V30 2738 N 254.233 0.115231 -1.57178 0
M  V30 2739 C 255.644 0.67197 -1.74188 0
M  V30 2740 C 255.995 1.80125 -0.777777 0
M  V30 2741 O 255.12 2.16346 0.0484376 0
M  V30 2742 C 255.715 1.22573 -3.1585 0
M  V30 2743 C 254.274 1.72872 -3.34353 0
M  V30 2744 C 253.421 0.629972 -2.70049 0
M  V30 2745 H 256.372 -0.110712 -1.58313 0
M  V30 2746 H 256.393 2.09535 -3.17609 0
M  V30 2747 H 255.905 0.403598 -3.85996 0
M  V30 2748 H 254.006 2.5755 -2.69256 0
M  V30 2749 H 254.119 1.83557 -4.42542 0
M  V30 2750 H 252.483 1.0645 -2.31388 0
M  V30 2751 H 253.266 -0.181241 -3.42821 0
M  V30 2752 N 255.711 1.52812 0.385517 0
M  V30 2753 C 257.127 1.4214 0.725829 0
M  V30 2754 C 257.327 0.544589 1.94001 0
M  V30 2755 O 256.383 0.0193693 2.52493 0
M  V30 2756 C 257.696 2.85042 0.957668 0
M  V30 2757 C 259.244 2.94543 1.05892 0
M  V30 2758 C 259.719 4.38464 1.32337 0
M  V30 2759 N 261.21 4.41804 1.39151 0
M  V30 2760 C 261.945 5.5025 1.61285 0
M  V30 2761 N 261.441 6.68775 1.80866 0
M  V30 2762 N 263.234 5.37798 1.63492 0
M  V30 2763 H 255.385 2.08338 -0.413383 0
M  V30 2764 H 257.648 0.940016 -0.122775 0
M  V30 2765 H 257.354 3.51431 0.137568 0
M  V30 2766 H 257.228 3.27505 1.87137 0
M  V30 2767 H 259.615 2.28321 1.86959 0
M  V30 2768 H 259.696 2.55504 0.123057 0
M  V30 2769 H 259.34 5.05254 0.517793 0
M  V30 2770 H 259.27 4.75059 2.27214 0
M  V30 2771 H 261.761 3.56377 1.25713 0
M  V30 2772 H 262.074 7.47197 1.97271 0
M  V30 2773 H 260.419 6.71797 1.78083 0
M  V30 2774 H 263.61 4.44171 1.47749 0
M  V30 2775 H 263.783 6.22382 1.80402 0
M  V30 2776 N 257.189 -0.644168 1.43834 0
M  V30 2777 C 258.435 -1.40603 1.46146 0
M  V30 2778 C 258.768 -1.93997 0.0887717 0
M  V30 2779 O 258.043 -1.72854 -0.891724 0
M  V30 2780 C 258.326 -2.58086 2.51124 0
M  V30 2781 C 258.179 -2.10126 3.97702 0
M  V30 2782 C 259.498 -3.60291 2.52742 0
M  V30 2783 H 256.617 -0.509905 0.532134 0
M  V30 2784 H 259.259 -0.729502 1.75437 0
M  V30 2785 H 257.409 -3.15801 2.26278 0
M  V30 2786 H 259.081 -1.57342 4.33637 0
M  V30 2787 H 257.324 -1.41419 4.10101 0
M  V30 2788 H 257.995 -2.94649 4.66783 0
M  V30 2789 H 260.471 -3.12352 2.7491 0
M  V30 2790 H 259.347 -4.40032 3.28121 0
M  V30 2791 H 259.608 -4.1349 1.56455 0
M  V30 2792 N 258.668 -1.30515 -0.883378 0
M  V30 2793 C 259.631 -1.1701 -1.97082 0
M  V30 2794 C 260.631 -0.10089 -1.60483 0
M  V30 2795 O 261.821 -0.349127 -1.70666 0
M  V30 2796 C 258.953 -0.793045 -3.31547 0
M  V30 2797 H 260.146 -2.13622 -2.10489 0
M  V30 2798 H 257.699 -1.13935 -1.06998 0
M  V30 2799 H 258.434 0.172499 -3.23841 0
M  V30 2800 H 258.219 -1.56576 -3.5948 0
M  V30 2801 H 259.709 -0.722073 -4.1131 0
M  V30 2802 N 260.146 1.09593 -1.13257 0
M  V30 2803 C 261.093 2.1618 -0.808381 0
M  V30 2804 C 262.063 1.64517 0.228754 0
M  V30 2805 O 263.248 1.9053 0.101381 0
M  V30 2806 C 260.388 3.43973 -0.278675 0
M  V30 2807 C 259.501 4.09545 -1.37466 0
M  V30 2808 C 258.636 5.25088 -0.803479 0
M  V30 2809 C 257.675 5.82579 -1.87799 0
M  V30 2810 N 256.812 6.89486 -1.32488 0
M  V30 2811 H 261.652 2.43254 -1.72138 0
M  V30 2812 H 259.189 1.19392 -0.859294 0
M  V30 2813 H 261.147 4.17174 0.0465583 0
M  V30 2814 H 259.777 3.17223 0.597459 0
M  V30 2815 H 258.829 3.34226 -1.81652 0
M  V30 2816 H 260.141 4.48307 -2.18684 0
M  V30 2817 H 259.295 6.05178 -0.429427 0
M  V30 2818 H 258.034 4.87684 0.0397956 0
M  V30 2819 H 257.039 5.01152 -2.26113 0
M  V30 2820 H 258.264 6.22045 -2.72463 0
M  V30 2821 H 256.21 6.54064 -0.503575 0
M  V30 2822 H 256.127 7.27007 -2.07355 0
M  V30 2823 H 257.395 7.73336 -0.978336 0
M  V30 2824 N 261.624 0.925811 1.2754 0
M  V30 2825 C 262.571 0.422045 2.26908 0
M  V30 2826 C 263.541 -0.510029 1.58076 0
M  V30 2827 O 264.726 -0.429599 1.85901 0
M  V30 2828 C 261.866 -0.320837 3.43605 0
M  V30 2829 C 260.979 0.64513 4.27156 0
M  V30 2830 C 260.114 -0.117405 5.3107 0
M  V30 2831 C 259.153 0.841391 6.0629 0
M  V30 2832 N 258.29 0.111604 7.02011 0
M  V30 2833 H 263.13 1.27441 2.69375 0
M  V30 2834 H 260.667 0.639697 1.32462 0
M  V30 2835 H 262.625 -0.76785 4.10073 0
M  V30 2836 H 261.255 -1.13745 3.02096 0
M  V30 2837 H 260.307 1.21067 3.6062 0
M  V30 2838 H 261.619 1.37797 4.79389 0
M  V30 2839 H 260.773 -0.624422 6.03478 0
M  V30 2840 H 259.512 -0.883219 4.79636 0
M  V30 2841 H 258.517 1.35967 5.32722 0
M  V30 2842 H 259.742 1.60696 6.59813 0
M  V30 2843 H 257.688 -0.635999 6.5291 0
M  V30 2844 H 257.605 0.784044 7.51923 0
M  V30 2845 H 258.873 -0.374823 7.78598 0
M  V30 2846 N 263.102 -1.41638 0.69111 0
M  V30 2847 C 264.032 -2.3347 0.037248 0
M  V30 2848 C 265.013 -1.51575 -0.771947 0
M  V30 2849 O 266.198 -1.80126 -0.72582 0
M  V30 2850 C 263.328 -3.35354 -0.903064 0
M  V30 2851 C 262.282 -4.27526 -0.201288 0
M  V30 2852 C 261.608 -5.19747 -1.25565 0
M  V30 2853 C 262.908 -5.13959 0.929689 0
M  V30 2854 H 264.602 -2.88397 0.804227 0
M  V30 2855 H 262.148 -1.38669 0.388189 0
M  V30 2856 H 264.101 -3.98519 -1.36969 0
M  V30 2857 H 262.825 -2.78767 -1.70166 0
M  V30 2858 H 261.484 -3.65779 0.245265 0
M  V30 2859 H 261.132 -4.59479 -2.04666 0
M  V30 2860 H 260.832 -5.8225 -0.791128 0
M  V30 2861 H 262.356 -5.85789 -1.72288 0
M  V30 2862 H 263.77 -5.70718 0.543546 0
M  V30 2863 H 262.167 -5.85379 1.32103 0
M  V30 2864 H 263.237 -4.51389 1.77133 0
M  V30 2865 N 264.58 -0.43555 -1.51462 0
M  V30 2866 C 265.828 0.131254 -2.01673 0
M  V30 2867 C 266.149 1.43368 -1.32177 0
M  V30 2868 O 265.419 1.90524 -0.455769 0
M  V30 2869 H 263.999 0.0514954 -0.745223 0
M  V30 2870 H 266.661 -0.577847 -1.86137 0
M  V30 2871 H 265.757 0.308446 -3.10572 0
M  V30 2872 N 266.058 1.56714 -0.166846 0
M  V30 2873 C 266.991 2.13577 0.80375 0
M  V30 2874 C 267.969 1.06464 1.22899 0
M  V30 2875 O 269.153 1.34413 1.32157 0
M  V30 2876 C 266.28 2.67168 2.0818 0
M  V30 2877 C 265.326 3.86612 1.80093 0
M  V30 2878 S 266.159 5.26565 0.97416 0
M  V30 2879 C 267.315 5.83558 2.26297 0
M  V30 2880 H 267.548 2.9557 0.320267 0
M  V30 2881 H 265.081 1.54326 0.0477555 0
M  V30 2882 H 267.039 2.98692 2.8159 0
M  V30 2883 H 265.7 1.85269 2.53642 0
M  V30 2884 H 264.893 4.22422 2.7491 0
M  V30 2885 H 264.495 3.55951 1.14781 0
M  V30 2886 H 266.787 5.962 3.21795 0
M  V30 2887 H 267.73 6.80731 1.94962 0
M  V30 2888 H 268.138 5.11944 2.37853 0
M  V30 2889 N 267.536 -0.106894 1.57237 0
M  V30 2890 C 268.785 -0.811163 1.8467 0
M  V30 2891 C 269.098 -1.80469 0.754342 0
M  V30 2892 O 270.304 -2.55601 0.915439 0
M  V30 2893 C 268.76 -1.49337 3.27454 0
M  V30 2894 C 268.368 -0.540217 4.44731 0
M  V30 2895 C 270.112 -2.18206 3.64124 0
M  V30 2896 C 268.019 -1.22634 5.78545 0
M  V30 2897 H 266.949 -0.306679 0.688813 0
M  V30 2898 H 269.6 -0.0639887 1.83388 0
M  V30 2899 H 267.982 -2.2876 3.23241 0
M  V30 2900 H 269.156 0.221659 4.60267 0
M  V30 2901 H 267.471 0.042146 4.16379 0
M  V30 2902 H 270.068 -2.70253 4.61376 0
M  V30 2903 H 270.411 -2.96562 2.92158 0
M  V30 2904 H 270.944 -1.45658 3.70174 0
M  V30 2905 H 267.683 -0.483832 6.53712 0
M  V30 2906 H 267.203 -1.95993 5.66874 0
M  V30 2907 H 268.882 -1.75615 6.2271 0
M  V30 2908 N 269.014 -1.53014 -0.377408 0
M  V30 2909 C 269.977 -1.77957 -1.44444 0
M  V30 2910 C 270.977 -0.649763 -1.47087 0
M  V30 2911 O 272.167 -0.917897 -1.48055 0
M  V30 2912 C 269.299 -1.89089 -2.83651 0
M  V30 2913 H 270.492 -2.73243 -1.23606 0
M  V30 2914 H 268.045 -1.43912 -0.609844 0
M  V30 2915 H 268.78 -0.958293 -3.09818 0
M  V30 2916 H 268.565 -2.71254 -2.83132 0
M  V30 2917 H 270.055 -2.1002 -3.60945 0
M  V30 2918 N 270.492 0.636531 -1.44174 0
M  V30 2919 C 271.74 1.39343 -1.46383 0
M  V30 2920 C 272.061 1.94766 -0.0955715 0
M  V30 2921 O 271.331 1.75452 0.871395 0
M  V30 2922 H 269.911 0.517199 -0.538994 0
M  V30 2923 H 272.573 0.74957 -1.7991 0
M  V30 2924 H 271.669 2.22746 -2.18611 0
M  V30 2925 N 271.97 1.30982 0.876444 0
M  V30 2926 C 273.218 1.20058 1.62575 0
M  V30 2927 C 273.539 -0.242947 1.93481 0
M  V30 2928 O 272.809 -1.1619 1.57724 0
M  V30 2929 H 271.389 0.44135 0.602677 0
M  V30 2930 H 274.051 1.64222 1.04962 0
M  V30 2931 H 273.147 1.76762 2.57219 0
M  V30 2932 N 273.449 -1.08991 1.13837 0
M  V30 2933 C 274.677 -1.85011 0.926202 0
M  V30 2934 C 275.092 -1.8135 -0.525127 0
M  V30 2935 O 274.449 -1.21287 -1.36366 0
M  V30 2936 C 274.5 -3.32802 1.41155 0
M  V30 2937 O 274.221 -3.36444 2.80601 0
M  V30 2938 C 275.722 -4.25649 1.23847 0
M  V30 2939 H 272.942 -0.584249 0.32999 0
M  V30 2940 H 275.486 -1.37688 1.51202 0
M  V30 2941 H 273.641 -3.77536 0.868631 0
M  V30 2942 H 274.055 -4.28657 3.02248 0
M  V30 2943 H 275.529 -5.27485 1.62675 0
M  V30 2944 H 276.006 -4.38828 0.18065 0
M  V30 2945 H 276.612 -3.86735 1.76964 0
M  V30 2946 N 274.927 -0.932562 -1.27047 0
M  V30 2947 C 276.175 -0.574422 -1.93765 0
M  V30 2948 C 276.496 0.887993 -1.73608 0
M  V30 2949 O 275.766 1.62999 -1.08665 0
M  V30 2950 H 274.346 -0.209451 -0.717035 0
M  V30 2951 H 277.008 -1.18601 -1.5466 0
M  V30 2952 H 276.104 -0.784841 -3.02071 0
M  V30 2953 N 276.405 1.4127 -0.698611 0
M  V30 2954 C 277.654 2.00408 -0.227949 0
M  V30 2955 C 277.967 1.55981 1.18023 0
M  V30 2956 O 279.173 2.07699 1.74852 0
M  V30 2957 C 277.629 3.58129 -0.356636 0
M  V30 2958 C 277.237 4.11536 -1.77037 0
M  V30 2959 C 278.981 4.24466 0.0540969 0
M  V30 2960 C 276.888 5.61701 -1.85055 0
M  V30 2961 H 275.818 0.749586 -0.0814657 0
M  V30 2962 H 278.469 1.61713 -0.867249 0
M  V30 2963 H 276.851 3.94442 0.350965 0
M  V30 2964 H 278.025 3.86636 -2.50698 0
M  V30 2965 H 276.34 3.57736 -2.13105 0
M  V30 2966 H 278.937 5.34698 0.0146723 0
M  V30 2967 H 279.28 4.01687 1.09332 0
M  V30 2968 H 279.813 3.93198 -0.603337 0
M  V30 2969 H 276.552 5.89312 -2.8704 0
M  V30 2970 H 276.072 5.88519 -1.15783 0
M  V30 2971 H 277.751 6.26524 -1.61484 0
M  V30 2972 N 277.883 0.443576 1.51229 0
M  V30 2973 C 279.111 -0.11929 2.06556 0
M  V30 2974 C 279.526 -1.35921 1.31038 0
M  V30 2975 O 278.883 -1.78675 0.371704 0
M  V30 2976 C 278.934 -0.435228 3.5887 0
M  V30 2977 O 278.655 0.755486 4.31537 0
M  V30 2978 C 280.156 -1.04808 4.30732 0
M  V30 2979 H 277.376 -0.0051584 0.67098 0
M  V30 2980 H 279.92 0.624453 1.94733 0
M  V30 2981 H 278.075 -1.12887 3.70588 0
M  V30 2982 H 278.489 0.483491 5.22267 0
M  V30 2983 H 279.963 -1.2191 5.3837 0
M  V30 2984 H 280.44 -2.03081 3.89429 0
M  V30 2985 H 281.046 -0.393637 4.23474 0
M  V30 2986 N 279.361 -1.56624 0.175154 0
M  V30 2987 C 280.772 -1.83561 -0.340916 0
M  V30 2988 C 281.123 -1.09511 -1.62794 0
M  V30 2989 O 280.248 -0.349389 -2.13561 0
M  V30 2990 C 280.843 -3.32979 -0.625313 0
M  V30 2991 C 279.402 -3.60399 -1.08581 0
M  V30 2992 C 278.549 -2.77024 -0.123722 0
M  V30 2993 H 281.5 -1.53593 0.399344 0
M  V30 2994 H 281.521 -3.50666 -1.47694 0
M  V30 2995 H 281.033 -3.86847 0.311575 0
M  V30 2996 H 279.134 -3.11945 -2.03767 0
M  V30 2997 H 279.247 -4.68711 -0.992317 0
M  V30 2998 H 277.611 -2.46993 -0.621821 0
M  V30 2999 H 278.394 -3.33674 0.807256 0
M  V30 3000 N 280.839 0.0985539 -1.57292 0
M  V30 3001 C 281.772 1.15082 -1.97057 0
M  V30 3002 C 282.75 1.39025 -0.843255 0
M  V30 3003 O 283.934 1.52842 -1.10325 0
M  V30 3004 C 281.061 2.50069 -2.28437 0
M  V30 3005 C 280.107 2.42428 -3.509 0
M  V30 3006 S 280.94 1.84414 -5.02744 0
M  V30 3007 C 282.096 3.21032 -5.37298 0
M  V30 3008 H 282.329 0.811815 -2.86002 0
M  V30 3009 H 279.862 0.306102 -1.51335 0
M  V30 3010 H 281.82 3.27729 -2.47192 0
M  V30 3011 H 280.481 2.8114 -1.40069 0
M  V30 3012 H 279.674 3.41911 -3.70288 0
M  V30 3013 H 279.276 1.72896 -3.31637 0
M  V30 3014 H 281.568 4.17297 -5.33731 0
M  V30 3015 H 282.511 3.06452 -6.38352 0
M  V30 3016 H 282.919 3.20404 -4.64759 0
M  V30 3017 N 282.317 1.53212 0.369288 0
M  V30 3018 C 283.247 1.82365 1.45826 0
M  V30 3019 C 284.228 0.676907 1.56051 0
M  V30 3020 O 285.413 0.926401 1.70679 0
M  V30 3021 C 282.543 2.01023 2.83208 0
M  V30 3022 C 281.497 3.1678 2.8781 0
M  V30 3023 C 280.823 3.20724 4.27832 0
M  V30 3024 C 282.123 4.55447 2.55667 0
M  V30 3025 H 283.817 2.73559 1.21678 0
M  V30 3026 H 281.363 1.3163 0.583911 0
M  V30 3027 H 283.316 2.20001 3.59413 0
M  V30 3028 H 282.04 1.06536 3.08736 0
M  V30 3029 H 280.699 2.97616 2.14056 0
M  V30 3030 H 280.347 2.23882 4.50429 0
M  V30 3031 H 280.047 3.98496 4.31827 0
M  V30 3032 H 281.571 3.41881 5.05915 0
M  V30 3033 H 282.985 4.74611 3.21586 0
M  V30 3034 H 281.382 5.35432 2.70984 0
M  V30 3035 H 282.452 4.60812 1.5093 0
M  V30 3036 N 283.795 -0.628877 1.44509 0
M  V30 3037 C 284.727 -1.754 1.47538 0
M  V30 3038 C 285.74 -1.58575 0.368506 0
M  V30 3039 O 286.929 -1.66847 0.634376 0
M  V30 3040 C 284.029 -3.1315 1.29577 0
M  V30 3041 C 283.202 -3.56413 2.53551 0
M  V30 3042 C 282.261 -4.7305 2.30457 0
M  V30 3043 O 281.287 -4.81247 3.03957 0
M  V30 3044 N 282.489 -5.64903 1.3366 0
M  V30 3045 H 285.254 -1.73272 2.44534 0
M  V30 3046 H 282.815 -0.813512 1.39977 0
M  V30 3047 H 284.807 -3.88902 1.11971 0
M  V30 3048 H 283.377 -3.09908 0.409371 0
M  V30 3049 H 282.597 -2.70847 2.86419 0
M  V30 3050 H 283.885 -3.82071 3.36005 0
M  V30 3051 H 283.283 -5.60975 0.729604 0
M  V30 3052 H 281.84 -6.40275 1.22032 0
M  V30 3053 N 285.273 -1.31445 -0.869486 0
M  V30 3054 C 286.203 -1.21727 -1.99261 0
M  V30 3055 C 287.184 -0.104359 -1.6978 0
M  V30 3056 O 288.369 -0.289038 -1.92037 0
M  V30 3057 C 285.499 -0.924317 -3.34774 0
M  V30 3058 C 284.453 -1.99685 -3.78563 0
M  V30 3059 C 283.779 -1.55658 -5.11541 0
M  V30 3060 C 285.079 -3.41003 -3.95619 0
M  V30 3061 H 286.773 -2.1569 -2.07649 0
M  V30 3062 H 284.319 -1.03839 -0.997675 0
M  V30 3063 H 286.272 -0.842934 -4.12883 0
M  V30 3064 H 284.996 0.0509793 -3.2656 0
M  V30 3065 H 283.655 -2.06813 -3.02694 0
M  V30 3066 H 283.303 -0.569132 -4.9977 0
M  V30 3067 H 283.003 -2.27409 -5.41811 0
M  V30 3068 H 284.527 -1.48928 -5.92159 0
M  V30 3069 H 285.941 -3.36547 -4.64122 0
M  V30 3070 H 284.338 -4.10975 -4.37286 0
M  V30 3071 H 285.408 -3.81754 -2.98985 0
M  V30 3072 N 286.751 1.08385 -1.14413 0
M  V30 3073 C 288 1.80153 -0.907076 0
M  V30 3074 C 288.313 1.87176 0.567851 0
M  V30 3075 O 289.519 2.55359 0.922172 0
M  V30 3076 C 287.975 3.23687 -1.57336 0
M  V30 3077 C 287.583 3.24897 -3.08457 0
M  V30 3078 C 289.327 4.00136 -1.41744 0
M  V30 3079 C 287.234 4.6302 -3.67921 0
M  V30 3080 H 286.164 0.675139 -0.335714 0
M  V30 3081 H 288.815 1.21733 -1.37307 0
M  V30 3082 H 287.197 3.82234 -1.03505 0
M  V30 3083 H 288.371 2.76055 -3.68958 0
M  V30 3084 H 286.686 2.61943 -3.2369 0
M  V30 3085 H 289.283 5.02201 -1.83572 0
M  V30 3086 H 289.626 4.14709 -0.363576 0
M  V30 3087 H 290.159 3.48058 -1.92614 0
M  V30 3088 H 286.898 4.5365 -4.73161 0
M  V30 3089 H 286.418 5.12143 -3.12201 0
M  V30 3090 H 288.097 5.31994 -3.68227 0
M  V30 3091 N 288.23 0.939286 1.26551 0
M  V30 3092 C 289.646 0.641304 1.46149 0
M  V30 3093 C 289.846 -0.805964 1.84679 0
M  V30 3094 O 288.902 -1.58278 1.96734 0
M  V30 3095 C 290.215 1.6011 2.54529 0
M  V30 3096 C 291.763 1.6106 2.68382 0
M  V30 3097 C 292.238 2.55765 3.79932 0
M  V30 3098 N 293.729 2.5404 3.87322 0
M  V30 3099 C 294.464 3.24004 4.73085 0
M  V30 3100 N 293.96 4.03388 5.63249 0
M  V30 3101 N 295.753 3.12965 4.66914 0
M  V30 3102 H 287.904 1.87478 0.998285 0
M  V30 3103 H 290.167 0.805559 0.499779 0
M  V30 3104 H 289.873 2.63412 2.33039 0
M  V30 3105 H 289.747 1.35171 3.52149 0
M  V30 3106 H 292.134 0.584835 2.89247 0
M  V30 3107 H 292.215 1.90053 1.71212 0
M  V30 3108 H 291.859 3.58458 3.5982 0
M  V30 3109 H 291.789 2.24063 4.76554 0
M  V30 3110 H 294.28 1.96396 3.22858 0
M  V30 3111 H 294.593 4.5373 6.25579 0
M  V30 3112 H 292.938 4.07489 5.63008 0
M  V30 3113 H 296.129 2.50432 3.95476 0
M  V30 3114 H 296.302 3.67759 5.33533 0
M  V30 3115 N 289.708 -1.40897 0.706093 0
M  V30 3116 C 290.671 -2.29131 0.0562841 0
M  V30 3117 C 291.671 -1.44901 -0.697166 0
M  V30 3118 O 292.861 -1.65926 -0.530484 0
M  V30 3119 C 289.993 -3.27957 -0.93043 0
M  V30 3120 H 291.186 -2.88091 0.833284 0
M  V30 3121 H 288.739 -1.4906 0.470192 0
M  V30 3122 H 289.474 -2.73997 -1.73482 0
M  V30 3123 H 289.259 -3.90124 -0.393166 0
M  V30 3124 H 290.749 -3.94049 -1.38256 0
M  V30 3125 N 291.186 -0.45159 -1.50991 0
M  V30 3126 C 292.435 0.111653 -2.01391 0
M  V30 3127 C 292.748 1.42529 -1.33959 0
M  V30 3128 O 293.954 2.07232 -1.75405 0
M  V30 3129 C 292.41 0.249514 -3.59034 0
M  V30 3130 C 292.018 -1.05453 -4.35412 0
M  V30 3131 C 293.762 0.765762 -4.17536 0
M  V30 3132 C 291.669 -0.881529 -5.84793 0
M  V30 3133 H 290.599 0.0455022 -0.752626 0
M  V30 3134 H 293.25 -0.583524 -1.73975 0
M  V30 3135 H 291.632 1.00803 -3.82955 0
M  V30 3136 H 292.806 -1.82248 -4.23229 0
M  V30 3137 H 291.121 -1.50039 -3.88429 0
M  V30 3138 H 293.718 0.911913 -5.26866 0
M  V30 3139 H 294.061 1.75201 -3.77638 0
M  V30 3140 H 294.594 0.0651744 -3.97747 0
M  V30 3141 H 291.333 -1.84057 -6.29129 0
M  V30 3142 H 290.853 -0.153625 -5.99603 0
M  V30 3143 H 292.532 -0.540363 -6.4474 0
M  V30 3144 N 292.664 1.56529 -0.183458 0
M  V30 3145 C 293.594 2.21549 0.737456 0
M  V30 3146 C 294.575 1.17489 1.23005 0
M  V30 3147 O 295.76 1.45959 1.281 0
M  V30 3148 C 292.89 2.86575 1.96194 0
M  V30 3149 C 291.844 3.96778 1.60473 0
M  V30 3150 C 291.17 4.48911 2.90487 0
M  V30 3151 C 292.47 5.15767 0.823497 0
M  V30 3152 H 294.164 2.98761 0.195453 0
M  V30 3153 H 291.71 1.43702 0.0925686 0
M  V30 3154 H 293.663 3.30739 2.61131 0
M  V30 3155 H 292.387 2.06749 2.52828 0
M  V30 3156 H 291.046 3.53286 0.978997 0
M  V30 3157 H 290.694 3.65862 3.45186 0
M  V30 3158 H 290.394 5.23265 2.67335 0
M  V30 3159 H 291.918 4.95771 3.56432 0
M  V30 3160 H 293.332 5.56549 1.37571 0
M  V30 3161 H 291.729 5.96114 0.690551 0
M  V30 3162 H 292.799 4.84574 -0.177782 0
M  V30 3163 N 294.142 -0.090211 1.57342 0
M  V30 3164 C 295.089 -1.10909 2.02405 0
M  V30 3165 C 296.059 -1.39523 0.901252 0
M  V30 3166 O 297.244 -1.50903 1.1676 0
M  V30 3167 C 294.384 -2.42277 2.45755 0
M  V30 3168 C 293.497 -2.20352 3.71576 0
M  V30 3169 C 292.632 -3.45154 4.03785 0
M  V30 3170 C 291.671 -3.18512 5.22701 0
M  V30 3171 N 290.808 -4.35593 5.50639 0
M  V30 3172 H 295.648 -0.71782 2.89225 0
M  V30 3173 H 293.185 -0.342901 1.43048 0
M  V30 3174 H 295.143 -3.18951 2.68935 0
M  V30 3175 H 293.773 -2.79242 1.61938 0
M  V30 3176 H 292.825 -1.34458 3.55844 0
M  V30 3177 H 294.137 -1.96661 4.58395 0
M  V30 3178 H 293.291 -4.30233 4.27767 0
M  V30 3179 H 292.03 -3.71904 3.15498 0
M  V30 3180 H 291.035 -2.31827 4.98534 0
M  V30 3181 H 292.26 -2.93103 6.12591 0
M  V30 3182 H 290.206 -4.6241 4.6531 0
M  V30 3183 H 290.123 -4.1511 6.31838 0
M  V30 3184 H 291.391 -5.21723 5.7916 0
M  V30 3185 N 295.62 -1.53406 -0.361157 0
M  V30 3186 C 296.866 -1.70054 -1.10496 0
M  V30 3187 C 297.199 -0.453278 -1.88836 0
M  V30 3188 O 296.474 0.5495 -1.86576 0
M  V30 3189 C 296.757 -2.95317 -2.06058 0
M  V30 3190 C 296.61 -4.3021 -1.31298 0
M  V30 3191 C 297.929 -3.16193 -3.06121 0
M  V30 3192 H 295.048 -0.618799 -0.400321 0
M  V30 3193 H 297.69 -1.86052 -0.385318 0
M  V30 3194 H 295.84 -2.81809 -2.67425 0
M  V30 3195 H 297.512 -4.55538 -0.726807 0
M  V30 3196 H 295.755 -4.29421 -0.614853 0
M  V30 3197 H 296.426 -5.14 -2.01265 0
M  V30 3198 H 298.902 -3.28916 -2.5486 0
M  V30 3199 H 297.778 -4.05266 -3.70204 0
M  V30 3200 H 298.039 -2.31676 -3.76535 0
M  V30 3201 N 297.098 0.621204 -1.44841 0
M  V30 3202 C 298.509 1.20298 -1.42777 0
M  V30 3203 C 298.86 1.95639 -0.148259 0
M  V30 3204 O 297.985 2.02955 0.750892 0
M  V30 3205 C 298.58 2.1882 -2.58657 0
M  V30 3206 C 297.139 2.72403 -2.59756 0
M  V30 3207 C 296.286 1.4757 -2.34773 0
M  V30 3208 H 299.237 0.411297 -1.53278 0
M  V30 3209 H 299.258 3.01607 -2.31977 0
M  V30 3210 H 298.77 1.63957 -3.51766 0
M  V30 3211 H 296.871 3.31242 -1.70615 0
M  V30 3212 H 296.984 3.17765 -3.58556 0
M  V30 3213 H 295.348 1.76051 -1.8406 0
M  V30 3214 H 296.131 0.945954 -3.3001 0
M  V30 3215 N 298.576 1.31904 0.862503 0
M  V30 3216 C 299.486 1.22161 2.00285 0
M  V30 3217 C 300.502 0.136785 1.73462 0
M  V30 3218 O 301.678 0.355994 1.98229 0
M  V30 3219 C 298.743 0.937093 3.33796 0
M  V30 3220 C 297.804 2.10957 3.73893 0
M  V30 3221 C 297.037 1.83853 5.01033 0
M  V30 3222 O 297.26 0.777274 5.65079 0
M  V30 3223 O 296.194 2.69741 5.38074 0
M  V30 3224 H 300.02 2.18008 2.11439 0
M  V30 3225 H 297.605 1.11716 0.991957 0
M  V30 3226 H 299.487 0.794583 4.13841 0
M  V30 3227 H 298.162 0.00871894 3.23699 0
M  V30 3228 H 297.069 2.30752 2.94456 0
M  V30 3229 H 298.402 3.02046 3.88625 0
M  V30 3230 N 300.054 -1.07777 1.14986 0
M  V30 3231 C 301.331 -1.7699 0.832695 0
M  V30 3232 C 301.711 -2.001 -0.672561 0
M  V30 3233 O 301.059 -1.61598 -1.6155 0
M  V30 3234 C 301.269 -3.08139 1.63863 0
M  V30 3235 C 302.617 -3.8256 1.84208 0
M  V30 3236 O 303.641 -3.17939 1.60603 0
M  V30 3237 O 302.5 -4.98612 2.23714 0
M  V30 3238 H 299.594 -0.768389 0.305791 0
M  V30 3239 H 302.14 -1.14182 1.25541 0
M  V30 3240 H 300.912 -2.86909 2.6608 0
M  V30 3241 H 300.535 -3.78678 1.21197 0
M  V30 3242 N 301.532 -0.945985 -1.26051 0
M  V30 3243 C 302.943 -0.638096 -1.75457 0
M  V30 3244 C 303.294 0.846672 -1.76991 0
M  V30 3245 O 302.419 1.66262 -1.38513 0
M  V30 3246 C 303.014 -1.15157 -3.18629 0
M  V30 3247 C 301.573 -0.894004 -3.65629 0
M  V30 3248 C 300.72 -1.29967 -2.44957 0
M  V30 3249 H 303.671 -1.12376 -1.1206 0
M  V30 3250 H 303.692 -0.507615 -3.77099 0
M  V30 3251 H 303.204 -2.23222 -3.1748 0
M  V30 3252 H 301.305 0.172057 -3.72203 0
M  V30 3253 H 301.418 -1.52439 -4.54202 0
M  V30 3254 H 299.782 -0.718078 -2.44368 0
M  V30 3255 H 300.565 -2.38935 -2.46505 0
M  V30 3256 N 303.011 1.40521 -0.713556 0
M  V30 3257 C 304.239 2.05237 -0.261775 0
M  V30 3258 C 304.654 1.53755 1.09567 0
M  V30 3259 O 304.011 0.693268 1.6882 0
M  V30 3260 C 304.062 3.60763 -0.230706 0
M  V30 3261 O 303.783 4.10345 -1.53455 0
M  V30 3262 C 305.284 4.42651 0.239874 0
M  V30 3263 H 302.504 0.660533 -0.118057 0
M  V30 3264 H 305.048 1.79967 -0.971192 0
M  V30 3265 H 303.203 3.8501 0.429661 0
M  V30 3266 H 303.617 5.04526 -1.43366 0
M  V30 3267 H 305.091 5.51599 0.210468 0
M  V30 3268 H 305.568 4.20082 1.28171 0
M  V30 3269 H 306.174 4.23507 -0.390142 0
M  V30 3270 N 304.489 0.459591 1.5075 0
M  V30 3271 C 305.421 -0.37665 2.26084 0
M  V30 3272 C 306.434 -0.967109 1.30961 0
M  V30 3273 O 307.623 -0.857468 1.56556 0
M  V30 3274 C 304.723 -1.54112 3.01832 0
M  V30 3275 C 303.896 -1.06553 4.24223 0
M  V30 3276 C 302.955 -2.1027 4.82362 0
M  V30 3277 O 301.981 -1.68798 5.43595 0
M  V30 3278 N 303.183 -3.42974 4.68347 0
M  V30 3279 H 305.948 0.269124 2.98489 0
M  V30 3280 H 303.509 0.28972 1.59287 0
M  V30 3281 H 305.501 -2.23165 3.37608 0
M  V30 3282 H 304.071 -2.0918 2.32298 0
M  V30 3283 H 303.291 -0.201274 3.93686 0
M  V30 3284 H 304.579 -0.725516 5.03601 0
M  V30 3285 H 303.977 -3.79385 4.19623 0
M  V30 3286 H 302.534 -4.07858 5.08424 0
M  V30 3287 N 305.967 -1.56429 0.191757 0
M  V30 3288 C 307.207 -1.99383 -0.450099 0
M  V30 3289 C 307.571 -1.07581 -1.59029 0
M  V30 3290 O 308.772 -1.39758 -2.29611 0
M  V30 3291 C 307.043 -3.45841 -0.901611 0
M  V30 3292 S 308.602 -4.10822 -1.54177 0
M  V30 3293 H 305.42 -0.696253 -0.144057 0
M  V30 3294 H 308.022 -1.93276 0.294036 0
M  V30 3295 H 306.726 -4.10354 -0.0616596 0
M  V30 3296 H 306.257 -3.55757 -1.67929 0
M  V30 3297 H 308.272 -4.07553 -2.83046 0
M  V30 3298 N 307.445 0.0818655 -1.57387 0
M  V30 3299 C 308.692 0.782914 -1.86753 0
M  V30 3300 C 309.02 1.78082 -0.782118 0
M  V30 3301 O 308.275 1.94426 0.22295 0
M  V30 3302 C 308.574 1.53513 -3.22752 0
M  V30 3303 C 308.24 0.678134 -4.45771 0
M  V30 3304 C 306.902 0.441929 -4.79166 0
M  V30 3305 C 309.254 0.0832243 -5.21134 0
M  V30 3306 C 306.582 -0.398833 -5.85343 0
M  V30 3307 C 308.934 -0.744935 -6.28199 0
M  V30 3308 C 307.598 -0.991107 -6.60101 0
M  V30 3309 H 306.868 0.286489 -0.683378 0
M  V30 3310 H 309.515 0.0439808 -1.91449 0
M  V30 3311 H 307.82 2.34599 -3.138 0
M  V30 3312 H 309.517 2.08218 -3.42705 0
M  V30 3313 H 306.107 0.872357 -4.19628 0
M  V30 3314 H 310.291 0.252847 -4.95655 0
M  V30 3315 H 305.547 -0.598405 -6.08465 0
M  V30 3316 H 309.721 -1.21271 -6.8576 0
M  V30 3317 H 307.348 -1.64437 -7.42202 0
M  V30 3318 N 308.923 1.53595 0.353017 0
M  V30 3319 C 309.853 1.83902 1.43883 0
M  V30 3320 C 310.834 0.693421 1.55324 0
M  V30 3321 O 312.019 0.944452 1.69687 0
M  V30 3322 C 309.149 2.04016 2.8106 0
M  V30 3323 C 308.103 3.19814 2.84434 0
M  V30 3324 C 307.429 3.25244 4.24406 0
M  V30 3325 C 308.729 4.58133 2.50822 0
M  V30 3326 H 310.423 2.74835 1.1877 0
M  V30 3327 H 307.969 1.32242 0.569917 0
M  V30 3328 H 309.922 2.238 3.57059 0
M  V30 3329 H 308.646 1.09804 3.07588 0
M  V30 3330 H 307.305 2.9987 2.10887 0
M  V30 3331 H 306.953 2.28646 4.48029 0
M  V30 3332 H 306.653 4.03054 4.27576 0
M  V30 3333 H 308.177 3.47228 5.0226 0
M  V30 3334 H 309.591 4.77995 3.16534 0
M  V30 3335 H 307.988 5.38276 2.6529 0
M  V30 3336 H 309.058 4.62387 1.46034 0
M  V30 3337 N 310.401 -0.613514 1.45168 0
M  V30 3338 C 311.331 -1.7354 1.56225 0
M  V30 3339 C 312.312 -1.64981 0.41414 0
M  V30 3340 O 313.497 -1.83472 0.636526 0
M  V30 3341 C 310.627 -3.12128 1.52295 0
M  V30 3342 C 309.581 -3.35491 2.65762 0
M  V30 3343 C 308.907 -4.74291 2.46885 0
M  V30 3344 C 310.207 -3.26325 4.0781 0
M  V30 3345 H 311.901 -1.64543 2.50132 0
M  V30 3346 H 309.447 -0.790185 1.20383 0
M  V30 3347 H 311.4 -3.90404 1.58628 0
M  V30 3348 H 310.124 -3.2195 0.549139 0
M  V30 3349 H 308.783 -2.59603 2.58847 0
M  V30 3350 H 308.431 -4.80839 1.47657 0
M  V30 3351 H 308.131 -4.9088 3.22972 0
M  V30 3352 H 309.655 -5.54775 2.55063 0
M  V30 3353 H 311.069 -3.94483 4.16 0
M  V30 3354 H 309.466 -3.54445 4.8424 0
M  V30 3355 H 310.536 -2.23855 4.30136 0
M  V30 3356 N 311.879 -1.3236 -0.855495 0
M  V30 3357 C 313.126 -1.22872 -1.60962 0
M  V30 3358 C 313.454 0.209658 -1.93367 0
M  V30 3359 O 312.709 1.16243 -1.57436 0
M  V30 3360 C 313.008 -2.03275 -2.93963 0
M  V30 3361 C 312.674 -3.5264 -2.80991 0
M  V30 3362 C 311.336 -3.93364 -2.7716 0
M  V30 3363 C 313.688 -4.47626 -2.66983 0
M  V30 3364 C 311.016 -5.27319 -2.572 0
M  V30 3365 C 313.368 -5.81723 -2.48558 0
M  V30 3366 C 312.032 -6.2165 -2.4312 0
M  V30 3367 H 311.302 -0.44962 -0.589001 0
M  V30 3368 H 313.949 -1.63777 -0.992442 0
M  V30 3369 H 312.254 -1.55095 -3.59795 0
M  V30 3370 H 313.951 -1.93303 -3.51333 0
M  V30 3371 H 310.541 -3.20295 -2.84797 0
M  V30 3372 H 314.725 -4.17084 -2.68988 0
M  V30 3373 H 309.981 -5.57311 -2.51424 0
M  V30 3374 H 314.155 -6.5494 -2.36699 0
M  V30 3375 H 311.782 -7.25388 -2.27412 0
M  V30 3376 N 313.357 1.07166 -1.15556 0
M  V30 3377 C 314.32 2.12589 -0.856644 0
M  V30 3378 C 315.32 1.6015 0.14444 0
M  V30 3379 O 316.51 1.7399 -0.0854163 0
M  V30 3380 C 313.642 3.39753 -0.279405 0
M  V30 3381 H 314.835 2.40539 -1.79112 0
M  V30 3382 H 312.388 1.23086 -0.963298 0
M  V30 3383 H 313.123 3.17447 0.663174 0
M  V30 3384 H 312.908 3.79117 -1.00063 0
M  V30 3385 H 314.398 4.17507 -0.0879113 0
M  V30 3386 N 314.835 0.952656 1.25548 0
M  V30 3387 C 315.783 0.462354 2.27958 0
M  V30 3388 C 316.777 -0.46634 1.62855 0
M  V30 3389 O 317.983 -0.343287 1.76696 0
M  V30 3390 H 314.358 0.13101 0.7405 0
M  V30 3391 H 316.329 1.33839 2.66702 0
M  V30 3392 C 315.078 -0.24628 3.46827 0
M  V30 3393 H 314.401 0.459192 3.97154 0
M  V30 3394 H 315.841 -0.553393 4.20373 0
M  V30 3395 C 314.3 -1.4681 3.0323 0
M  V30 3396 O 314.83 -2.56591 3.09069 0
M  V30 3397 N 313.036 -1.32874 2.58443 0
M  V30 3398 H 312.583 -0.435536 2.53891 0
M  V30 3399 H 312.541 -2.14742 2.29637 0
M  V30 3400 N 316.313 -1.40141 0.720998 0
M  V30 3401 C 317.245 -2.29177 0.0324669 0
M  V30 3402 C 318.258 -1.46105 -0.718126 0
M  V30 3403 O 319.447 -1.69335 -0.564608 0
M  V30 3404 C 316.547 -3.24473 -0.978292 0
M  V30 3405 C 315.72 -4.36423 -0.292115 0
M  V30 3406 C 314.779 -5.12122 -1.20901 0
M  V30 3407 O 313.805 -5.64981 -0.691766 0
M  V30 3408 N 315.007 -5.21992 -2.53978 0
M  V30 3409 H 317.772 -2.88909 0.796984 0
M  V30 3410 H 315.333 -1.51569 0.569068 0
M  V30 3411 H 317.325 -3.71987 -1.59398 0
M  V30 3412 H 315.895 -2.65871 -1.64413 0
M  V30 3413 H 315.115 -3.90967 0.503847 0
M  V30 3414 H 316.403 -5.08467 0.183971 0
M  V30 3415 H 315.801 -4.8054 -2.98493 0
M  V30 3416 H 314.358 -5.72995 -3.10677 0
M  V30 3417 N 317.792 -0.46758 -1.50504 0
M  V30 3418 C 319.02 0.0864133 -2.06719 0
M  V30 3419 C 319.435 1.33819 -1.33184 0
M  V30 3420 O 318.792 1.78061 -0.400083 0
M  V30 3421 C 318.843 0.378079 -3.59517 0
M  V30 3422 O 318.564 -0.824044 -4.3028 0
M  V30 3423 C 320.065 0.979426 -4.32345 0
M  V30 3424 H 317.285 -0.00551697 -0.670977 0
M  V30 3425 H 319.829 -0.655354 -1.93715 0
M  V30 3426 H 317.984 1.06977 -3.72337 0
M  V30 3427 H 318.398 -0.566518 -5.21432 0
M  V30 3428 H 319.872 1.1333 -5.40241 0
M  V30 3429 H 320.349 1.9686 -3.9261 0
M  V30 3430 H 320.955 0.326216 -4.24047 0
M  V30 3431 N 319.27 1.56325 -0.20005 0
M  V30 3432 C 320.18 2.22931 0.730668 0
M  V30 3433 C 321.196 1.22997 1.23076 0
M  V30 3434 O 322.372 1.55748 1.27689 0
M  V30 3435 C 319.437 2.87948 1.93098 0
M  V30 3436 C 318.498 4.03166 1.47497 0
M  V30 3437 C 317.731 4.65073 2.61807 0
M  V30 3438 O 317.954 4.25913 3.79413 0
M  V30 3439 O 316.888 5.54452 2.34237 0
M  V30 3440 H 320.714 3.03084 0.193391 0
M  V30 3441 H 318.299 1.49371 0.0294621 0
M  V30 3442 H 320.181 3.29063 2.6324 0
M  V30 3443 H 318.856 2.10771 2.45677 0
M  V30 3444 H 317.763 3.66664 0.742201 0
M  V30 3445 H 319.096 4.82022 0.995796 0
M  V30 3446 N 320.748 -0.0735177 1.57428 0
M  V30 3447 C 321.695 -1.08756 2.0357 0
M  V30 3448 C 322.665 -1.38559 0.916 0
M  V30 3449 O 323.85 -1.49656 1.18354 0
M  V30 3450 C 320.99 -2.39657 2.48311 0
M  V30 3451 C 320.103 -2.16399 3.73892 0
M  V30 3452 C 319.238 -3.40852 4.07423 0
M  V30 3453 C 318.277 -3.1295 5.2605 0
M  V30 3454 N 317.414 -4.29729 5.55228 0
M  V30 3455 H 322.254 -0.687104 2.8997 0
M  V30 3456 H 319.791 -0.327709 1.43403 0
M  V30 3457 H 321.749 -3.16081 2.72303 0
M  V30 3458 H 320.379 -2.77508 1.64891 0
M  V30 3459 H 319.431 -1.30676 3.57251 0
M  V30 3460 H 320.743 -1.91788 4.60455 0
M  V30 3461 H 319.897 -4.25671 4.32306 0
M  V30 3462 H 318.636 -3.68537 3.19425 0
M  V30 3463 H 317.641 -2.26526 5.00965 0
M  V30 3464 H 318.866 -2.86589 6.15665 0
M  V30 3465 H 316.812 -4.57448 4.70188 0
M  V30 3466 H 316.729 -4.08385 6.36206 0
M  V30 3467 H 317.997 -5.1555 5.84661 0
M  V30 3468 N 322.226 -1.5378 -0.344866 0
M  V30 3469 C 323.503 -1.61589 -1.10219 0
M  V30 3470 C 323.883 -0.436316 -2.06542 0
M  V30 3471 O 323.231 0.571543 -2.21237 0
M  V30 3472 C 323.441 -2.97602 -1.82301 0
M  V30 3473 C 324.789 -3.5291 -2.36093 0
M  V30 3474 O 325.813 -2.99768 -1.924 0
M  V30 3475 O 324.672 -4.45859 -3.16026 0
M  V30 3476 H 321.766 -0.653522 -0.506792 0
M  V30 3477 H 324.312 -1.66126 -0.346465 0
M  V30 3478 H 323.084 -3.74893 -1.12121 0
M  V30 3479 H 322.707 -2.9665 -2.64735 0
M  V30 3480 N 323.704 0.605807 -1.45491 0
M  V30 3481 C 324.953 1.36086 -1.48874 0
M  V30 3482 C 325.266 1.95131 -0.135333 0
M  V30 3483 O 326.472 2.7146 -0.0468144 0
M  V30 3484 C 324.928 2.46518 -2.62215 0
M  V30 3485 C 324.536 1.93877 -4.03876 0
M  V30 3486 C 326.28 3.23512 -2.74846 0
M  V30 3487 C 324.187 3.01801 -5.08596 0
M  V30 3488 H 323.117 0.511497 -0.553974 0
M  V30 3489 H 325.768 0.649089 -1.71636 0
M  V30 3490 H 324.15 3.20388 -2.32739 0
M  V30 3491 H 325.324 1.26704 -4.43038 0
M  V30 3492 H 323.639 1.29622 -3.95711 0
M  V30 3493 H 326.236 4.04013 -3.50253 0
M  V30 3494 H 326.579 3.74631 -1.81542 0
M  V30 3495 H 327.112 2.56742 -3.03856 0
M  V30 3496 H 323.851 2.55597 -6.03614 0
M  V30 3497 H 323.371 3.67535 -4.74002 0
M  V30 3498 H 325.05 3.66152 -5.33424 0
M  V30 3499 N 325.182 1.32811 0.848464 0
M  V30 3500 C 326.431 1.23075 1.59798 0
M  V30 3501 C 326.744 -0.204419 1.94529 0
M  V30 3502 O 327.95 -0.423701 2.68173 0
M  V30 3503 C 326.406 2.15594 2.88179 0
M  V30 3504 C 326.014 3.64228 2.60849 0
M  V30 3505 C 327.758 2.14709 3.66197 0
M  V30 3506 C 325.665 4.48689 3.85269 0
M  V30 3507 H 324.595 0.457091 0.599653 0
M  V30 3508 H 327.246 1.57813 0.936342 0
M  V30 3509 H 325.628 1.73778 3.55833 0
M  V30 3510 H 326.802 4.14424 2.01467 0
M  V30 3511 H 325.117 3.67306 1.96151 0
M  V30 3512 H 327.714 2.75046 4.58534 0
M  V30 3513 H 328.057 1.13966 4.00397 0
M  V30 3514 H 328.59 2.54837 3.05455 0
M  V30 3515 H 325.329 5.5027 3.56207 0
M  V30 3516 H 324.849 4.03241 4.44024 0
M  V30 3517 H 326.528 4.62006 4.52946 0
M  V30 3518 N 326.66 -1.06551 1.16123 0
M  V30 3519 C 327.59 -2.15935 0.88851 0
M  V30 3520 C 328.571 -1.69306 -0.164135 0
M  V30 3521 O 329.756 -1.94193 -0.0167857 0
M  V30 3522 C 326.886 -3.45149 0.385942 0
M  V30 3523 C 325.84 -4.05271 1.3762 0
M  V30 3524 C 325.166 -5.29664 0.732137 0
M  V30 3525 C 326.466 -4.44355 2.74493 0
M  V30 3526 H 328.16 -2.39006 1.80323 0
M  V30 3527 H 325.706 -1.14866 0.868435 0
M  V30 3528 H 327.659 -4.21004 0.182647 0
M  V30 3529 H 326.383 -3.21689 -0.564274 0
M  V30 3530 H 325.042 -3.3147 1.56599 0
M  V30 3531 H 324.69 -5.02499 -0.224483 0
M  V30 3532 H 324.39 -5.70848 1.39307 0
M  V30 3533 H 325.914 -6.08218 0.538802 0
M  V30 3534 H 327.328 -5.11303 2.59311 0
M  V30 3535 H 325.725 -4.96515 3.37035 0
M  V30 3536 H 326.795 -3.55339 3.29943 0
M  V30 3537 N 328.138 -0.959301 -1.25041 0
M  V30 3538 C 329.554 -0.664474 -1.4511 0
M  V30 3539 C 329.754 0.776481 -1.85938 0
M  V30 3540 O 328.81 1.55128 -1.99227 0
M  V30 3541 C 330.123 -1.64139 -2.5195 0
M  V30 3542 C 331.671 -1.65309 -2.65786 0
M  V30 3543 C 332.146 -2.61777 -3.75815 0
M  V30 3544 N 333.637 -2.60169 -3.83231 0
M  V30 3545 C 334.372 -3.31489 -4.6787 0
M  V30 3546 N 333.868 -4.12298 -5.56761 0
M  V30 3547 N 335.661 -3.20354 -4.61876 0
M  V30 3548 H 327.812 -1.89043 -0.968332 0
M  V30 3549 H 330.075 -0.813408 -0.4869 0
M  V30 3550 H 329.781 -2.67086 -2.28819 0
M  V30 3551 H 329.655 -1.40756 -3.49954 0
M  V30 3552 H 332.042 -0.630778 -2.8828 0
M  V30 3553 H 332.123 -1.92753 -1.68167 0
M  V30 3554 H 331.767 -3.64137 -3.54071 0
M  V30 3555 H 331.697 -2.31616 -4.72929 0
M  V30 3556 H 334.188 -2.01507 -3.19692 0
M  V30 3557 H 334.501 -4.63625 -6.18281 0
M  V30 3558 H 332.846 -4.16395 -5.56454 0
M  V30 3559 H 336.037 -2.56692 -3.91442 0
M  V30 3560 H 336.21 -3.76201 -5.27614 0
M  V30 3561 N 329.616 1.39756 -0.72842 0
M  V30 3562 C 330.526 2.34444 -0.0855374 0
M  V30 3563 C 331.542 1.57976 0.729356 0
M  V30 3564 O 332.718 1.90301 0.659346 0
M  V30 3565 C 329.783 3.36965 0.815798 0
M  V30 3566 C 328.844 4.29299 -0.0105996 0
M  V30 3567 C 328.077 5.26923 0.84781 0
M  V30 3568 O 328.3 5.30859 2.08673 0
M  V30 3569 O 327.234 6.01249 0.279969 0
M  V30 3570 H 331.06 2.91065 -0.866892 0
M  V30 3571 H 328.645 1.4117 -0.48902 0
M  V30 3572 H 330.527 3.99804 1.33171 0
M  V30 3573 H 329.202 2.82739 1.57608 0
M  V30 3574 H 328.109 3.69703 -0.571877 0
M  V30 3575 H 329.442 4.86712 -0.73295 0
M  V30 3576 N 331.094 0.475555 1.50254 0
M  V30 3577 C 332.371 -0.139685 1.95101 0
M  V30 3578 C 332.751 -1.56555 1.41611 0
M  V30 3579 O 332.099 -2.19956 0.618993 0
M  V30 3580 C 332.309 -0.0784298 3.48912 0
M  V30 3581 C 333.657 -0.265095 4.23772 0
M  V30 3582 O 334.681 -0.154808 3.55863 0
M  V30 3583 O 333.54 -0.488327 5.44314 0
M  V30 3584 H 330.634 -0.109236 0.819754 0
M  V30 3585 H 333.18 0.536276 1.61004 0
M  V30 3586 H 331.952 0.916918 3.80405 0
M  V30 3587 H 331.575 -0.795655 3.89558 0
M  V30 3588 N 332.573 -1.56217 0.208337 0
M  V30 3589 C 333.503 -2.22694 -0.702116 0
M  V30 3590 C 334.484 -1.19432 -1.2112 0
M  V30 3591 O 335.669 -1.47978 -1.25762 0
M  V30 3592 C 332.799 -2.8966 -1.9161 0
M  V30 3593 C 331.753 -3.9928 -1.5414 0
M  V30 3594 C 331.079 -4.53476 -2.83308 0
M  V30 3595 C 332.379 -5.17012 -0.741339 0
M  V30 3596 H 334.073 -2.99034 -0.147898 0
M  V30 3597 H 331.619 -1.43831 -0.0696951 0
M  V30 3598 H 333.572 -3.34852 -2.55836 0
M  V30 3599 H 332.296 -2.10746 -2.49507 0
M  V30 3600 H 330.955 -3.54799 -0.922668 0
M  V30 3601 H 330.603 -3.71308 -3.39322 0
M  V30 3602 H 330.303 -5.27451 -2.58976 0
M  V30 3603 H 331.827 -5.01378 -3.485 0
M  V30 3604 H 333.241 -5.58667 -1.28699 0
M  V30 3605 H 331.638 -5.97137 -0.595627 0
M  V30 3606 H 332.708 -4.8423 0.254851 0
M  V30 3607 N 334.051 0.0651679 -1.57465 0
M  V30 3608 C 334.961 1.09448 -2.07505 0
M  V30 3609 C 335.977 1.41974 -1.00595 0
M  V30 3610 O 337.153 1.52018 -1.32107 0
M  V30 3611 C 334.218 2.38689 -2.51453 0
M  V30 3612 C 333.279 2.13073 -3.72691 0
M  V30 3613 C 332.512 3.36152 -4.14533 0
M  V30 3614 O 332.735 4.45517 -3.56189 0
M  V30 3615 O 331.669 3.23974 -5.07272 0
M  V30 3616 H 335.495 0.69935 -2.95538 0
M  V30 3617 H 333.08 0.279752 -1.46757 0
M  V30 3618 H 334.962 3.14736 -2.80212 0
M  V30 3619 H 333.637 2.77568 -1.66546 0
M  V30 3620 H 332.544 1.34709 -3.49005 0
M  V30 3621 H 333.877 1.79071 -4.5847 0
M  V30 3622 N 335.529 1.53961 0.336706 0
M  V30 3623 C 336.439 1.85432 1.43708 0
M  V30 3624 C 337.455 0.745053 1.57242 0
M  V30 3625 O 338.631 1.03804 1.72588 0
M  V30 3626 C 335.696 2.06349 2.78605 0
M  V30 3627 C 334.757 3.30191 2.74358 0
M  V30 3628 C 333.99 3.50101 4.02822 0
M  V30 3629 O 334.213 2.7371 5.00439 0
M  V30 3630 O 333.147 4.43547 4.06878 0
M  V30 3631 H 336.973 2.78975 1.20028 0
M  V30 3632 H 334.558 1.39701 0.52952 0
M  V30 3633 H 336.44 2.21513 3.58483 0
M  V30 3634 H 335.115 1.15995 3.02203 0
M  V30 3635 H 334.022 3.20425 1.93078 0
M  V30 3636 H 335.355 4.2056 2.55715 0
M  V30 3637 N 337.007 -0.598083 1.45811 0
M  V30 3638 C 337.937 -1.71873 1.58057 0
M  V30 3639 C 338.918 -1.64533 0.431615 0
M  V30 3640 O 340.103 -1.82787 0.65595 0
M  V30 3641 C 337.233 -3.10495 1.55597 0
M  V30 3642 C 336.187 -3.32654 2.69305 0
M  V30 3643 C 335.513 -4.71646 2.51902 0
M  V30 3644 C 336.813 -3.21981 4.11248 0
M  V30 3645 H 338.507 -1.61881 2.51863 0
M  V30 3646 H 336.053 -0.777372 1.21214 0
M  V30 3647 H 338.006 -3.88699 1.6276 0
M  V30 3648 H 336.73 -3.2135 0.583255 0
M  V30 3649 H 335.389 -2.56843 2.61586 0
M  V30 3650 H 335.037 -4.79246 1.52748 0
M  V30 3651 H 334.737 -4.87426 3.2816 0
M  V30 3652 H 336.261 -5.52038 2.60933 0
M  V30 3653 H 337.675 -3.90049 4.20161 0
M  V30 3654 H 336.072 -3.49289 4.87972 0
M  V30 3655 H 337.142 -2.1928 4.32486 0
M  V30 3656 N 338.485 -1.33259 -0.841409 0
M  V30 3657 C 339.417 -1.19136 -1.95804 0
M  V30 3658 C 340.43 -0.122965 -1.62335 0
M  V30 3659 O 341.619 -0.373154 -1.74556 0
M  V30 3660 C 338.719 -0.804268 -3.29218 0
M  V30 3661 C 337.892 -1.96376 -3.90839 0
M  V30 3662 C 336.951 -1.55806 -5.02604 0
M  V30 3663 O 335.977 -2.27203 -5.21888 0
M  V30 3664 N 337.179 -0.461609 -5.78662 0
M  V30 3665 H 339.944 -2.15326 -2.08458 0
M  V30 3666 H 337.505 -1.25971 -1.017 0
M  V30 3667 H 339.497 -0.51501 -4.0141 0
M  V30 3668 H 338.067 0.0668809 -3.12528 0
M  V30 3669 H 337.287 -2.41879 -3.11269 0
M  V30 3670 H 338.575 -2.73966 -4.28742 0
M  V30 3671 H 337.973 0.132343 -5.65545 0
M  V30 3672 H 336.53 -0.232013 -6.51387 0
M  V30 3673 N 339.963 1.05934 -1.16686 0
M  V30 3674 C 340.926 2.11669 -0.879144 0
M  V30 3675 C 341.926 1.60294 0.127445 0
M  V30 3676 O 343.116 1.7389 -0.103865 0
M  V30 3677 C 340.248 3.39438 -0.315425 0
M  V30 3678 H 341.441 2.38626 -1.81653 0
M  V30 3679 H 338.994 1.22058 -0.976299 0
M  V30 3680 H 339.729 3.18132 0.629468 0
M  V30 3681 H 339.514 3.78034 -1.04079 0
M  V30 3682 H 341.004 4.17391 -0.132189 0
M  V30 3683 N 341.441 0.965919 1.2453 0
M  V30 3684 C 342.857 0.67216 1.44756 0
M  V30 3685 C 343.057 -0.766609 1.86347 0
M  V30 3686 O 342.113 -1.5407 2.00047 0
M  V30 3687 C 343.426 1.65473 2.51076 0
M  V30 3688 C 344.974 1.66716 2.64905 0
M  V30 3689 C 345.449 2.63766 3.74421 0
M  V30 3690 N 346.94 2.62198 3.81846 0
M  V30 3691 C 347.675 3.33966 4.66106 0
M  V30 3692 N 347.171 4.15245 5.54566 0
M  V30 3693 N 348.964 3.22799 4.60171 0
M  V30 3694 H 341.115 1.89553 0.958293 0
M  V30 3695 H 343.378 0.815979 0.482579 0
M  V30 3696 H 343.084 2.68296 2.27399 0
M  V30 3697 H 342.958 1.4261 3.49202 0
M  V30 3698 H 345.345 0.646057 2.87941 0
M  V30 3699 H 345.426 1.93642 1.67142 0
M  V30 3700 H 345.07 3.6601 3.52135 0
M  V30 3701 H 345 2.34121 4.71694 0
M  V30 3702 H 347.491 2.032 3.18619 0
M  V30 3703 H 347.804 4.66898 6.15814 0
M  V30 3704 H 346.149 4.1934 5.54237 0
M  V30 3705 H 349.34 2.58764 3.90075 0
M  V30 3706 H 349.513 3.78994 5.25612 0
M  V30 3707 N 342.919 -1.39368 0.735821 0
M  V30 3708 C 344.149 -2.04498 0.293967 0
M  V30 3709 C 344.557 -1.55593 -1.07645 0
M  V30 3710 O 343.9 -0.716324 -1.69158 0
M  V30 3711 C 343.962 -3.58836 0.218342 0
M  V30 3712 C 343.626 -4.30721 1.52736 0
M  V30 3713 C 344.623 -4.57305 2.47322 0
M  V30 3714 C 342.308 -4.69251 1.79189 0
M  V30 3715 C 344.302 -5.21429 3.66593 0
M  V30 3716 C 341.989 -5.33104 2.98737 0
M  V30 3717 C 342.987 -5.59125 3.9226 0
M  V30 3718 O 342.675 -6.21653 5.09708 0
M  V30 3719 H 342.407 -0.664118 0.126189 0
M  V30 3720 H 344.961 -1.79385 1.00051 0
M  V30 3721 H 343.191 -3.8285 -0.544314 0
M  V30 3722 H 344.88 -4.05447 -0.191626 0
M  V30 3723 H 345.646 -4.27983 2.28156 0
M  V30 3724 H 341.525 -4.48354 1.07239 0
M  V30 3725 H 345.069 -5.41656 4.39607 0
M  V30 3726 H 340.966 -5.61846 3.17803 0
M  V30 3727 H 341.734 -6.40146 5.10054 0
M  V30 3728 N 344.397 -0.483516 -1.5 0
M  V30 3729 C 345.808 -0.0314176 -1.86674 0
M  V30 3730 C 346.159 1.37728 -1.39733 0
M  V30 3731 O 345.284 2.02327 -0.767635 0
M  V30 3732 C 345.879 -0.0502376 -3.38763 0
M  V30 3733 C 344.438 0.346442 -3.74802 0
M  V30 3734 C 343.585 -0.430366 -2.7394 0
M  V30 3735 H 346.536 -0.697182 -1.42566 0
M  V30 3736 H 346.557 0.749116 -3.73053 0
M  V30 3737 H 346.069 -1.07563 -3.72897 0
M  V30 3738 H 344.17 1.37572 -3.46273 0
M  V30 3739 H 344.283 0.0391486 -4.79084 0
M  V30 3740 H 342.647 0.117557 -2.54429 0
M  V30 3741 H 343.43 -1.4555 -3.10918 0
M  V30 3742 N 345.875 1.56104 -0.216619 0
M  V30 3743 C 346.823 2.21434 0.712036 0
M  V30 3744 C 347.817 1.19218 1.20348 0
M  V30 3745 O 349.023 1.3731 1.16387 0
M  V30 3746 H 345.398 0.70992 0.248026 0
M  V30 3747 H 347.369 2.98083 0.137558 0
M  V30 3748 C 346.118 2.90434 1.91163 0
M  V30 3749 H 345.441 3.68842 1.54258 0
M  V30 3750 H 346.881 3.39552 2.5393 0
M  V30 3751 C 345.34 1.92635 2.76394 0
M  V30 3752 O 345.87 1.44017 3.74996 0
M  V30 3753 N 344.076 1.60392 2.42328 0
M  V30 3754 H 343.623 2.00122 1.622 0
M  V30 3755 H 343.581 0.952159 2.99635 0
M  V30 3756 N 347.353 -0.0568162 1.57498 0
M  V30 3757 C 348.769 -0.411933 1.54192 0
M  V30 3758 C 348.969 -1.78287 0.938942 0
M  V30 3759 O 348.025 -2.46483 0.547919 0
M  V30 3760 C 349.338 -0.339244 2.9878 0
M  V30 3761 C 350.886 -0.418348 3.10192 0
M  V30 3762 C 351.361 -0.375407 4.56459 0
M  V30 3763 N 352.852 -0.435038 4.61153 0
M  V30 3764 C 353.587 -0.424265 5.71828 0
M  V30 3765 N 353.083 -0.367418 6.91825 0
M  V30 3766 N 354.876 -0.471938 5.60115 0
M  V30 3767 H 347.027 0.840684 1.95055 0
M  V30 3768 H 349.29 0.316987 0.893433 0
M  V30 3769 H 348.996 0.601742 3.46514 0
M  V30 3770 H 348.87 -1.14371 3.59443 0
M  V30 3771 H 351.257 -1.34976 2.62422 0
M  V30 3772 H 351.338 0.414962 2.52412 0
M  V30 3773 H 350.982 0.552219 5.04889 0
M  V30 3774 H 350.912 -1.22645 5.12119 0
M  V30 3775 H 353.403 -0.482612 3.74806 0
M  V30 3776 H 353.716 -0.363535 7.71944 0
M  V30 3777 H 352.061 -0.333879 6.94198 0
M  V30 3778 H 355.252 -0.514145 4.65268 0
M  V30 3779 H 355.425 -0.460073 6.46365 0
M  V30 3780 N 348.832 -1.54138 -0.328536 0
M  V30 3781 C 350.079 -1.72105 -1.06706 0
M  V30 3782 C 350.407 -0.492111 -1.88171 0
M  V30 3783 O 349.662 0.526153 -1.88494 0
M  V30 3784 C 349.961 -2.9457 -2.02393 0
M  V30 3785 C 349.627 -4.29544 -1.37122 0
M  V30 3786 C 348.289 -4.6624 -1.19052 0
M  V30 3787 C 350.641 -5.1333 -0.902331 0
M  V30 3788 C 347.969 -5.84325 -0.527331 0
M  V30 3789 C 350.321 -6.32094 -0.252988 0
M  V30 3790 C 348.985 -6.67473 -0.0600901 0
M  V30 3791 H 348.255 -0.629775 -0.390466 0
M  V30 3792 H 350.902 -1.88372 -0.34473 0
M  V30 3793 H 349.207 -2.72969 -2.81061 0
M  V30 3794 H 350.904 -3.05665 -2.59557 0
M  V30 3795 H 347.494 -4.0067 -1.52188 0
M  V30 3796 H 351.678 -4.855 -1.02974 0
M  V30 3797 H 346.934 -6.103 -0.366634 0
M  V30 3798 H 351.108 -6.96299 0.118366 0
M  V30 3799 H 348.735 -7.58832 0.455828 0
M  V30 3800 N 350.31 0.590341 -1.46126 0
M  V30 3801 C 351.257 1.69994 -1.56111 0
M  V30 3802 C 352.227 1.61065 -0.405867 0
M  V30 3803 O 353.412 1.8039 -0.621613 0
M  V30 3804 C 350.552 3.08326 -1.55013 0
M  V30 3805 C 349.665 3.27936 -2.81215 0
M  V30 3806 C 348.8 4.56473 -2.71673 0
M  V30 3807 C 347.839 4.694 -3.92849 0
M  V30 3808 N 346.976 5.89254 -3.81738 0
M  V30 3809 H 351.816 1.60797 -2.50895 0
M  V30 3810 H 349.353 0.783799 -1.24479 0
M  V30 3811 H 351.311 3.88383 -1.52362 0
M  V30 3812 H 349.941 3.16439 -0.637667 0
M  V30 3813 H 348.993 2.41536 -2.93879 0
M  V30 3814 H 350.305 3.33357 -3.71045 0
M  V30 3815 H 349.459 5.44748 -2.67085 0
M  V30 3816 H 348.198 4.53477 -1.7947 0
M  V30 3817 H 347.203 3.79544 -3.97777 0
M  V30 3818 H 348.428 4.7418 -4.86138 0
M  V30 3819 H 346.374 5.87271 -2.92317 0
M  V30 3820 H 346.291 5.95911 -4.65217 0
M  V30 3821 H 347.559 6.79981 -3.81112 0
M  V30 3822 N 351.788 1.33704 0.83433 0
M  V30 3823 C 352.718 1.26967 1.95963 0
M  V30 3824 C 353.699 0.149337 1.69443 0
M  V30 3825 O 354.884 0.339852 1.91203 0
M  V30 3826 C 352.014 1.01275 3.32206 0
M  V30 3827 C 350.968 2.09652 3.73136 0
M  V30 3828 C 350.294 1.69166 5.07235 0
M  V30 3829 C 351.594 3.51372 3.86439 0
M  V30 3830 H 353.288 2.2112 2.01857 0
M  V30 3831 H 350.834 1.06447 0.969793 0
M  V30 3832 H 352.787 0.952106 4.10503 0
M  V30 3833 H 351.511 0.0356203 3.26581 0
M  V30 3834 H 350.17 2.14766 2.97104 0
M  V30 3835 H 349.818 0.701437 4.98085 0
M  V30 3836 H 349.518 2.41694 5.35591 0
M  V30 3837 H 351.042 1.64576 5.88003 0
M  V30 3838 H 352.456 3.48734 4.55036 0
M  V30 3839 H 350.853 4.22425 4.26236 0
M  V30 3840 H 351.923 3.89546 2.88759 0
M  V30 3841 N 353.266 -1.05314 1.17247 0
M  V30 3842 C 354.512 -1.78699 0.971513 0
M  V30 3843 C 354.867 -1.85932 -0.494692 0
M  V30 3844 O 354.16 -1.34716 -1.36243 0
M  V30 3845 C 354.354 -3.2229 1.54479 0
M  V30 3846 C 354.183 -3.29052 3.06521 0
M  V30 3847 C 352.953 -3.3841 3.75242 0
M  V30 3848 C 355.151 -3.18095 4.04129 0
M  V30 3849 N 353.133 -3.34289 5.14902 0
M  V30 3850 C 354.504 -3.21331 5.30232 0
M  V30 3851 C 356.559 -3.02049 3.95817 0
M  V30 3852 C 355.262 -3.10169 6.4899 0
M  V30 3853 C 357.288 -2.92228 5.14156 0
M  V30 3854 C 356.65 -2.96096 6.39145 0
M  V30 3855 H 352.749 -0.66628 0.409383 0
M  V30 3856 H 355.333 -1.25553 1.4881 0
M  V30 3857 H 353.504 -3.7381 1.05455 0
M  V30 3858 H 355.236 -3.83905 1.28059 0
M  V30 3859 H 351.991 -3.43621 3.25917 0
M  V30 3860 H 352.415 -3.35702 5.87906 0
M  V30 3861 H 357.057 -2.97897 3.00029 0
M  V30 3862 H 354.775 -3.13076 7.44989 0
M  V30 3863 H 358.361 -2.80885 5.09505 0
M  V30 3864 H 357.241 -2.88568 7.29176 0
M  V30 3865 N 354.744 -0.972509 -1.24016 0
M  V30 3866 C 355.991 -0.637034 -1.92219 0
M  V30 3867 C 356.319 0.828418 -1.75976 0
M  V30 3868 O 355.574 1.61206 -1.10955 0
M  V30 3869 C 355.873 -0.963694 -3.44162 0
M  V30 3870 C 355.539 -2.41807 -3.80579 0
M  V30 3871 C 354.201 -2.81556 -3.9023 0
M  V30 3872 C 356.553 -3.36172 -3.98293 0
M  V30 3873 C 353.881 -4.14702 -4.15017 0
M  V30 3874 C 356.233 -4.68952 -4.24578 0
M  V30 3875 C 354.897 -5.08472 -4.32449 0
M  V30 3876 H 354.167 -0.233107 -0.703379 0
M  V30 3877 H 356.814 -1.2249 -1.47202 0
M  V30 3878 H 355.119 -0.29365 -3.90698 0
M  V30 3879 H 356.816 -0.682449 -3.9515 0
M  V30 3880 H 353.406 -2.09988 -3.73635 0
M  V30 3881 H 357.59 -3.06644 -3.90234 0
M  V30 3882 H 352.846 -4.4494 -4.19331 0
M  V30 3883 H 357.02 -5.42037 -4.37229 0
M  V30 3884 H 354.647 -6.11665 -4.51409 0
M  V30 3885 N 356.222 1.38976 -0.743202 0
M  V30 3886 C 357.45 2.04636 -0.30525 0
M  V30 3887 C 357.865 1.56044 1.06281 0
M  V30 3888 O 357.222 0.728921 1.67311 0
M  V30 3889 C 357.273 3.60193 -0.307177 0
M  V30 3890 O 356.994 4.06998 -1.62124 0
M  V30 3891 C 358.495 4.4306 0.145928 0
M  V30 3892 H 355.715 0.65788 -0.132041 0
M  V30 3893 H 358.259 1.77866 -1.00915 0
M  V30 3894 H 356.414 3.85835 0.347898 0
M  V30 3895 H 356.828 5.01371 -1.54036 0
M  V30 3896 H 358.302 5.51921 0.0934183 0
M  V30 3897 H 358.779 4.22706 1.19231 0
M  V30 3898 H 359.385 4.22584 -0.479886 0
M  V30 3899 N 357.7 0.491464 1.49741 0
M  V30 3900 C 358.63 -0.28154 2.31796 0
M  V30 3901 C 359.611 -0.971473 1.3963 0
M  V30 3902 O 360.796 -0.964719 1.68543 0
M  V30 3903 C 357.926 -1.35203 3.19902 0
M  V30 3904 C 356.88 -0.782529 4.20786 0
M  V30 3905 C 356.206 -1.95283 4.97764 0
M  V30 3906 C 357.506 0.21999 5.21837 0
M  V30 3907 H 359.2 0.403355 2.96671 0
M  V30 3908 H 356.746 0.195425 1.42668 0
M  V30 3909 H 358.699 -1.90045 3.76113 0
M  V30 3910 H 357.423 -2.06598 2.52953 0
M  V30 3911 H 356.082 -0.255928 3.65706 0
M  V30 3912 H 355.73 -2.65423 4.2727 0
M  V30 3913 H 355.43 -1.57789 5.66018 0
M  V30 3914 H 356.954 -2.50577 5.56816 0
M  V30 3915 H 358.368 -0.23996 5.72798 0
M  V30 3916 H 356.765 0.51026 5.97927 0
M  V30 3917 H 357.835 1.13911 4.7133 0
M  V30 3918 N 359.178 -1.55987 0.224894 0
M  V30 3919 C 360.455 -1.90232 -0.455083 0
M  V30 3920 C 360.835 -1.14269 -1.77499 0
M  V30 3921 O 360.183 -0.253079 -2.27094 0
M  V30 3922 C 360.393 -3.42993 -0.644758 0
M  V30 3923 C 361.741 -4.13821 -0.950669 0
M  V30 3924 O 362.765 -3.4861 -0.731423 0
M  V30 3925 O 361.624 -5.29128 -1.36695 0
M  V30 3926 H 358.718 -0.79108 -0.241084 0
M  V30 3927 H 361.264 -1.67581 0.267327 0
M  V30 3928 H 360.036 -3.90252 0.28613 0
M  V30 3929 H 359.659 -3.71434 -1.41853 0
M  V30 3930 N 360.656 0.0484629 -1.57525 0
M  V30 3931 C 361.606 1.06246 -2.01732 0
M  V30 3932 C 362.59 1.33155 -0.903245 0
M  V30 3933 O 363.782 1.33065 -1.16717 0
M  V30 3934 C 360.911 2.36943 -2.48421 0
M  V30 3935 C 359.997 2.13208 -3.6661 0
M  V30 3936 N 360.388 1.5947 -4.80003 0
M  V30 3937 C 358.686 2.43581 -3.7361 0
M  V30 3938 C 359.387 1.51092 -5.61735 0
M  V30 3939 N 358.363 1.9797 -5.0627 0
M  V30 3940 H 362.165 0.640675 -2.86832 0
M  V30 3941 H 359.679 0.255134 -1.60383 0
M  V30 3942 H 361.676 3.10374 -2.78341 0
M  V30 3943 H 360.336 2.79818 -1.64718 0
M  V30 3944 H 361.347 1.28008 -5.01831 0
M  V30 3945 H 358.024 2.89662 -3.00669 0
M  V30 3946 H 359.414 1.10199 -6.62801 0
M  V30 3947 N 362.134 1.5431 0.320358 0
M  V30 3948 C 363.545 1.63872 0.894594 0
M  V30 3949 C 363.896 0.534847 1.88769 0
M  V30 3950 O 363.021 -0.331732 2.13842 0
M  V30 3951 C 363.616 2.97049 1.62934 0
M  V30 3952 C 362.175 3.08796 2.15226 0
M  V30 3953 C 361.322 2.59456 0.978671 0
M  V30 3954 H 364.273 1.58398 0.0978544 0
M  V30 3955 H 364.294 2.87388 2.49376 0
M  V30 3956 H 363.806 3.7737 0.906302 0
M  V30 3957 H 361.907 2.33156 2.90636 0
M  V30 3958 H 362.02 4.14649 2.40006 0
M  V30 3959 H 360.384 2.1543 1.35875 0
M  V30 3960 H 361.167 3.42237 0.269895 0
M  V30 3961 N 363.613 -0.582584 1.46437 0
M  V30 3962 C 365.024 -1.1647 1.45916 0
M  V30 3963 C 365.375 -1.95177 0.200077 0
M  V30 3964 O 364.5 -2.04874 -0.696819 0
M  V30 3965 C 365.095 -2.11885 2.64367 0
M  V30 3966 C 363.654 -2.65421 2.66887 0
M  V30 3967 C 362.801 -1.41294 2.38603 0
M  V30 3968 H 365.752 -0.370514 1.54314 0
M  V30 3969 H 365.773 -2.9535 2.39892 0
M  V30 3970 H 365.285 -1.54573 3.5599 0
M  V30 3971 H 363.386 -3.26602 1.79338 0
M  V30 3972 H 363.499 -3.08147 3.66854 0
M  V30 3973 H 361.863 -1.71109 1.88663 0
M  V30 3974 H 362.646 -0.858125 3.32402 0
M  V30 3975 N 365.091 -1.34144 -0.827227 0
M  V30 3976 C 366.038 -1.25364 -1.93785 0
M  V30 3977 C 367.008 -0.129774 -1.65592 0
M  V30 3978 O 368.193 -0.310024 -1.88264 0
M  V30 3979 C 365.333 -1.01064 -3.2997 0
M  V30 3980 C 364.446 -2.22185 -3.70484 0
M  V30 3981 C 363.581 -1.91203 -4.95595 0
M  V30 3982 C 362.62 -3.08491 -5.28677 0
M  V30 3983 N 361.757 -2.77421 -6.44967 0
M  V30 3984 H 366.597 -2.20347 -2.00627 0
M  V30 3985 H 364.134 -1.09558 -0.981608 0
M  V30 3986 H 366.092 -0.850139 -4.08446 0
M  V30 3987 H 364.722 -0.0975026 -3.22653 0
M  V30 3988 H 363.774 -2.4917 -2.87434 0
M  V30 3989 H 365.086 -3.0983 -3.90905 0
M  V30 3990 H 364.24 -1.71864 -5.81848 0
M  V30 3991 H 362.979 -1.00812 -4.77167 0
M  V30 3992 H 361.984 -3.28431 -4.40923 0
M  V30 3993 H 363.209 -3.99655 -5.49047 0
M  V30 3994 H 361.155 -1.89601 -6.28003 0
M  V30 3995 H 361.072 -3.58598 -6.6554 0
M  V30 3996 H 362.34 -2.61577 -7.34301 0
M  V30 3997 N 366.569 1.04691 -1.17803 0
M  V30 3998 C 367.846 1.7472 -0.879328 0
M  V30 3999 C 368.226 2.01812 0.619271 0
M  V30 4000 O 367.574 1.65824 1.57209 0
M  V30 4001 C 367.784 3.03686 -1.71976 0
M  V30 4002 C 369.132 3.77542 -1.94286 0
M  V30 4003 O 370.156 3.13569 -1.68976 0
M  V30 4004 O 369.015 4.92506 -2.36855 0
M  V30 4005 H 366.109 0.760011 -0.326056 0
M  V30 4006 H 368.655 1.10813 -1.28525 0
M  V30 4007 H 367.427 2.79754 -2.73594 0
M  V30 4008 H 367.05 3.75332 -1.31194 0
M  V30 4009 N 368.047 0.979072 1.23499 0
M  V30 4010 C 369.293 0.6578 1.9247 0
M  V30 4011 C 369.648 -0.799746 1.74991 0
M  V30 4012 O 368.941 -1.56922 1.09937 0
M  V30 4013 C 369.135 0.981932 3.43646 0
M  V30 4014 C 368.964 2.46944 3.75831 0
M  V30 4015 C 367.734 3.13119 3.96591 0
M  V30 4016 C 369.932 3.45006 3.81412 0
M  V30 4017 N 367.914 4.51489 4.15969 0
M  V30 4018 C 369.285 4.68778 4.05768 0
M  V30 4019 C 371.34 3.39505 3.64198 0
M  V30 4020 C 370.043 5.87723 4.14697 0
M  V30 4021 C 372.069 4.57814 3.7438 0
M  V30 4022 C 371.431 5.80381 3.99171 0
M  V30 4023 H 367.53 0.291746 0.72554 0
M  V30 4024 H 370.114 1.25626 1.48749 0
M  V30 4025 H 368.285 0.412179 3.86207 0
M  V30 4026 H 370.017 0.618068 3.99953 0
M  V30 4027 H 366.772 2.63619 3.93449 0
M  V30 4028 H 367.196 5.23221 4.29615 0
M  V30 4029 H 371.838 2.45773 3.44029 0
M  V30 4030 H 369.556 6.81874 4.33675 0
M  V30 4031 H 373.142 4.55132 3.62417 0
M  V30 4032 H 372.022 6.70398 4.06861 0
M  V30 4033 N 369.525 -1.3858 0.750561 0
M  V30 4034 C 370.488 -2.28836 0.129152 0
M  V30 4035 C 371.488 -1.47045 -0.650714 0
M  V30 4036 O 372.678 -1.6753 -0.477428 0
M  V30 4037 C 369.81 -3.30751 -0.825622 0
M  V30 4038 H 371.003 -2.85294 0.924516 0
M  V30 4039 H 368.556 -1.47489 0.517376 0
M  V30 4040 H 369.291 -2.79378 -1.64677 0
M  V30 4041 H 369.076 -3.91177 -0.268852 0
M  V30 4042 H 370.566 -3.98249 -1.2565 0
M  V30 4043 N 371.003 -0.499398 -1.49478 0
M  V30 4044 C 372.233 0.0424839 -2.06556 0
M  V30 4045 C 372.641 1.31514 -1.36018 0
M  V30 4046 O 371.984 1.78555 -0.431718 0
M  V30 4047 C 372.046 0.368074 -3.57611 0
M  V30 4048 C 371.71 -0.806631 -4.49825 0
M  V30 4049 C 372.707 -1.69667 -4.91436 0
M  V30 4050 C 370.392 -1.00498 -4.92144 0
M  V30 4051 C 372.386 -2.76923 -5.74101 0
M  V30 4052 C 370.073 -2.08072 -5.74586 0
M  V30 4053 C 371.071 -2.96119 -6.15469 0
M  V30 4054 O 370.759 -4.01836 -6.96264 0
M  V30 4055 H 370.491 -0.0165165 -0.675798 0
M  V30 4056 H 373.045 -0.695497 -1.93267 0
M  V30 4057 H 371.275 1.15963 -3.68903 0
M  V30 4058 H 372.964 0.848381 -3.96935 0
M  V30 4059 H 373.73 -1.55524 -4.59388 0
M  V30 4060 H 369.609 -0.329036 -4.59824 0
M  V30 4061 H 373.153 -3.45676 -6.05932 0
M  V30 4062 H 369.05 -2.22211 -6.06047 0
M  V30 4063 H 369.818 -3.9917 -7.14567 0
M  V30 4064 N 372.481 1.55866 -0.233164 0
M  V30 4065 C 373.706 2.03449 0.402906 0
M  V30 4066 C 374.131 1.11166 1.51736 0
M  V30 4067 O 373.489 0.101996 1.81013 0
M  V30 4068 C 373.537 3.49165 0.9009 0
M  V30 4069 O 372.641 3.60019 2.01147 0
M  V30 4070 H 371.982 0.657913 0.0897025 0
M  V30 4071 H 374.512 2.01493 -0.355201 0
M  V30 4072 H 374.522 3.89716 1.2077 0
M  V30 4073 H 373.197 4.15813 0.0852889 0
M  V30 4074 H 371.774 3.3136 1.71042 0
M  V30 4075 N 373.959 -0.0401083 1.57549 0
M  V30 4076 C 374.906 -1.04413 2.05831 0
M  V30 4077 C 375.876 -1.36585 0.945184 0
M  V30 4078 O 377.061 -1.47112 1.21502 0
M  V30 4079 C 374.201 -2.34336 2.53339 0
M  V30 4080 C 373.314 -2.08419 3.78398 0
M  V30 4081 C 372.449 -3.32133 4.14561 0
M  V30 4082 C 371.488 -3.01721 5.3257 0
M  V30 4083 N 370.625 -4.17855 5.64218 0
M  V30 4084 H 375.465 -0.625442 2.91363 0
M  V30 4085 H 373.002 -0.297218 1.44066 0
M  V30 4086 H 374.96 -3.10234 2.78946 0
M  V30 4087 H 373.59 -2.73948 1.7074 0
M  V30 4088 H 372.642 -1.23069 3.59942 0
M  V30 4089 H 373.954 -1.81978 4.64419 0
M  V30 4090 H 373.108 -4.16406 4.41238 0
M  V30 4091 H 371.847 -3.61678 3.2717 0
M  V30 4092 H 370.852 -2.15849 5.05657 0
M  V30 4093 H 372.077 -2.73466 6.21605 0
M  V30 4094 H 370.023 -4.47372 4.79786 0
M  V30 4095 H 369.94 -3.94798 6.44725 0
M  V30 4096 H 371.208 -5.03033 5.95465 0
M  V30 4097 N 375.437 -1.54477 -0.31217 0
M  V30 4098 C 376.685 -1.72884 -1.04668 0
M  V30 4099 C 377.006 -0.511477 -1.88173 0
M  V30 4100 O 376.276 0.474407 -1.90069 0
M  V30 4101 H 374.856 -0.637461 -0.389425 0
M  V30 4102 H 377.518 -1.91807 -0.345852 0
M  V30 4103 H 376.614 -2.61334 -1.70619 0
M  V30 4104 N 376.915 0.57481 -1.46744 0
M  V30 4105 C 378.162 1.33272 -1.52462 0
M  V30 4106 C 378.49 1.93669 -0.179572 0
M  V30 4107 O 377.745 1.7743 0.825664 0
M  V30 4108 C 378.044 2.476 -2.57738 0
M  V30 4109 C 377.71 2.05146 -4.01529 0
M  V30 4110 C 376.372 1.93284 -4.40676 0
M  V30 4111 C 378.724 1.72506 -4.91824 0
M  V30 4112 C 376.052 1.47049 -5.67973 0
M  V30 4113 C 378.404 1.27748 -6.19567 0
M  V30 4114 C 377.068 1.14468 -6.57612 0
M  V30 4115 H 376.338 0.487678 -0.557899 0
M  V30 4116 H 378.985 0.646456 -1.80259 0
M  V30 4117 H 377.29 3.21708 -2.23632 0
M  V30 4118 H 378.987 3.05807 -2.5939 0
M  V30 4119 H 375.577 2.15316 -3.7059 0
M  V30 4120 H 379.761 1.80552 -4.62293 0
M  V30 4121 H 375.017 1.35417 -5.96215 0
M  V30 4122 H 379.191 1.01547 -6.88957 0
M  V30 4123 H 376.818 0.78419 -7.56145 0
M  V30 4124 N 378.394 1.34581 0.820102 0
M  V30 4125 C 379.64 1.27285 1.57881 0
M  V30 4126 C 379.973 -0.156137 1.93571 0
M  V30 4127 O 379.248 -1.10222 1.60254 0
M  V30 4128 C 379.531 2.16639 2.87645 0
M  V30 4129 C 379.384 3.68088 2.58517 0
M  V30 4130 C 380.703 2.05378 3.8924 0
M  V30 4131 H 377.822 0.463714 0.572833 0
M  V30 4132 H 380.464 1.64859 0.944539 0
M  V30 4133 H 378.614 1.84725 3.41773 0
M  V30 4134 H 380.286 4.10382 2.10676 0
M  V30 4135 H 378.529 3.89038 1.91917 0
M  V30 4136 H 379.2 4.2598 3.51063 0
M  V30 4137 H 381.676 2.33404 3.44473 0
M  V30 4138 H 380.552 2.7012 4.77835 0
M  V30 4139 H 380.813 1.0316 4.29896 0
M  V30 4140 N 379.872 -1.04064 1.18357 0
M  V30 4141 C 381.1 -1.80916 1.00384 0
M  V30 4142 C 381.515 -1.83414 -0.447738 0
M  V30 4143 O 380.872 -1.26962 -1.31099 0
M  V30 4144 C 380.923 -3.26516 1.55144 0
M  V30 4145 O 380.644 -3.2424 2.94618 0
M  V30 4146 C 382.145 -4.20013 1.41789 0
M  V30 4147 H 379.365 -0.569728 0.354474 0
M  V30 4148 H 381.909 -1.31151 1.56906 0
M  V30 4149 H 380.064 -3.73512 1.02798 0
M  V30 4150 H 380.478 -4.15452 3.20156 0
M  V30 4151 H 381.952 -5.20111 1.84901 0
M  V30 4152 H 382.429 -4.37667 0.36661 0
M  V30 4153 H 383.035 -3.78881 1.93207 0
M  V30 4154 N 381.35 -0.985608 -1.22978 0
M  V30 4155 C 382.313 -0.535071 -2.22867 0
M  V30 4156 C 383.313 0.378123 -1.56291 0
M  V30 4157 O 384.503 0.171092 -1.73358 0
M  V30 4158 C 381.635 0.222702 -3.40172 0
M  V30 4159 H 382.828 -1.41835 -2.6424 0
M  V30 4160 H 380.381 -0.772042 -1.35901 0
M  V30 4161 H 381.116 1.12229 -3.04262 0
M  V30 4162 H 380.901 -0.43288 -3.89703 0
M  V30 4163 H 382.391 0.526335 -4.1427 0
M  V30 4164 N 382.828 1.3818 -0.7579 0
M  V30 4165 C 384.105 1.94106 -0.241306 0
M  V30 4166 C 384.485 1.69282 1.26122 0
M  V30 4167 O 383.833 1.03378 2.03777 0
M  V30 4168 C 384.043 3.43809 -0.59967 0
M  V30 4169 C 385.391 4.20868 -0.561717 0
M  V30 4170 O 386.415 3.5211 -0.538222 0
M  V30 4171 O 385.274 5.43451 -0.576478 0
M  V30 4172 H 382.368 0.825376 -0.0518042 0
M  V30 4173 H 384.914 1.47548 -0.838315 0
M  V30 4174 H 383.686 3.55403 -1.6372 0
M  V30 4175 H 383.309 3.97592 0.0251197 0
M  V30 4176 N 384.306 0.507319 1.49211 0
M  V30 4177 C 385.239 -0.314509 2.26022 0
M  V30 4178 C 386.217 -0.964849 1.30879 0
M  V30 4179 O 387.401 -0.993707 1.6018 0
M  V30 4180 C 384.528 -1.44346 3.06402 0
M  V30 4181 C 383.574 -0.90685 4.16748 0
M  V30 4182 S 384.407 0.207392 5.35098 0
M  V30 4183 C 385.563 -0.924573 6.19033 0
M  V30 4184 H 385.796 0.337416 2.95379 0
M  V30 4185 H 383.329 0.292718 1.516 0
M  V30 4186 H 385.287 -2.09029 3.53295 0
M  V30 4187 H 383.948 -2.06702 2.36502 0
M  V30 4188 H 383.141 -1.75309 4.72528 0
M  V30 4189 H 382.743 -0.33712 3.72478 0
M  V30 4190 H 385.035 -1.82839 6.52362 0
M  V30 4191 H 385.978 -0.405248 7.06939 0
M  V30 4192 H 386.386 -1.19476 5.51712 0
M  V30 4193 N 385.784 -1.5574 0.241426 0
M  V30 4194 C 387.033 -1.97986 -0.385295 0
M  V30 4195 C 387.346 -1.13267 -1.59468 0
M  V30 4196 O 388.552 -1.45501 -2.2922 0
M  V30 4197 C 387.008 -3.52275 -0.736884 0
M  V30 4198 C 386.616 -4.45726 0.450796 0
M  V30 4199 C 388.36 -4.03189 -1.3281 0
M  V30 4200 C 386.267 -5.91352 0.0756662 0
M  V30 4201 H 385.197 -0.739386 -0.147731 0
M  V30 4202 H 387.848 -1.80308 0.340779 0
M  V30 4203 H 386.23 -3.65628 -1.52094 0
M  V30 4204 H 387.404 -4.44131 1.22819 0
M  V30 4205 H 385.719 -4.05264 0.956573 0
M  V30 4206 H 388.316 -5.09505 -1.62201 0
M  V30 4207 H 388.659 -3.50212 -2.25071 0
M  V30 4208 H 389.192 -3.93141 -0.607069 0
M  V30 4209 H 385.931 -6.48354 0.965272 0
M  V30 4210 H 385.451 -5.96095 -0.665635 0
M  V30 4211 H 387.13 -6.46084 -0.344075 0
M  V30 4212 N 387.262 0.0317525 -1.57568 0
M  V30 4213 C 388.678 0.38735 -1.54828 0
M  V30 4214 C 388.878 1.7677 -0.967187 0
M  V30 4215 O 387.934 2.45581 -0.587063 0
M  V30 4216 C 389.247 0.291667 -2.99282 0
M  V30 4217 C 390.795 0.368946 -3.10818 0
M  V30 4218 C 391.27 0.302741 -4.56998 0
M  V30 4219 N 392.761 0.361617 -4.61786 0
M  V30 4220 C 393.496 0.333238 -5.72431 0
M  V30 4221 N 392.992 0.257308 -6.92322 0
M  V30 4222 N 394.785 0.382769 -5.60795 0
M  V30 4223 H 386.936 -0.871609 -1.93692 0
M  V30 4224 H 389.199 -0.331161 -0.888277 0
M  V30 4225 H 388.905 -0.656794 -3.45513 0
M  V30 4226 H 388.779 1.08638 -3.61217 0
M  V30 4227 H 391.166 1.30784 -2.64536 0
M  V30 4228 H 391.247 -0.455066 -2.5172 0
M  V30 4229 H 390.891 -0.632473 -5.03947 0
M  V30 4230 H 390.821 1.14482 -5.14005 0
M  V30 4231 H 393.312 0.422923 -3.75526 0
M  V30 4232 H 393.625 0.24068 -7.72425 0
M  V30 4233 H 391.97 0.223396 -6.94641 0
M  V30 4234 H 395.161 0.44006 -4.66027 0
M  V30 4235 H 395.334 0.357184 -6.47015 0
M  V30 4236 N 388.74 1.54641 0.303973 0
M  V30 4237 C 389.65 1.88439 1.39743 0
M  V30 4238 C 390.666 0.778239 1.55626 0
M  V30 4239 O 391.842 1.07442 1.70347 0
M  V30 4240 C 388.907 2.12212 2.74166 0
M  V30 4241 C 387.968 3.35936 2.67293 0
M  V30 4242 C 387.201 3.58566 3.95305 0
M  V30 4243 O 387.424 2.84263 4.9452 0
M  V30 4244 O 386.358 4.52078 3.97378 0
M  V30 4245 H 390.184 2.81458 1.14083 0
M  V30 4246 H 387.769 1.40793 0.499768 0
M  V30 4247 H 389.651 2.29067 3.53704 0
M  V30 4248 H 388.326 1.22379 2.99675 0
M  V30 4249 H 387.233 3.24448 1.86237 0
M  V30 4250 H 388.566 4.2589 2.46736 0
M  V30 4251 N 390.218 -0.567019 1.47046 0
M  V30 4252 C 391.168 -1.67018 1.55207 0
M  V30 4253 C 392.152 -1.55543 0.411714 0
M  V30 4254 O 393.344 -1.64192 0.661064 0
M  V30 4255 C 390.473 -3.05801 1.56014 0
M  V30 4256 C 389.559 -3.22515 2.75399 0
M  V30 4257 N 389.95 -3.09329 4.00186 0
M  V30 4258 C 388.248 -3.53493 2.71954 0
M  V30 4259 C 388.949 -3.2847 4.80086 0
M  V30 4260 N 387.925 -3.54352 4.12233 0
M  V30 4261 H 391.727 -1.55377 2.4947 0
M  V30 4262 H 389.241 -0.771503 1.42904 0
M  V30 4263 H 391.238 -3.84996 1.59949 0
M  V30 4264 H 389.898 -3.18561 0.628396 0
M  V30 4265 H 390.909 -2.86863 4.31196 0
M  V30 4266 H 387.586 -3.7284 1.87873 0
M  V30 4267 H 388.976 -3.23326 5.88991 0
M  V30 4268 N 391.696 -1.35014 -0.812953 0
M  V30 4269 C 392.626 -1.30069 -1.93919 0
M  V30 4270 C 393.607 -0.176275 -1.69184 0
M  V30 4271 O 394.792 -0.370227 -1.90638 0
M  V30 4272 C 391.922 -1.06547 -3.30552 0
M  V30 4273 C 390.876 -2.15561 -3.69753 0
M  V30 4274 C 390.202 -1.77214 -5.04479 0
M  V30 4275 C 391.502 -3.57476 -3.808 0
M  V30 4276 H 393.196 -2.24303 -1.98314 0
M  V30 4277 H 390.742 -1.07977 -0.952736 0
M  V30 4278 H 392.695 -1.01729 -4.08937 0
M  V30 4279 H 391.419 -0.0875719 -3.26483 0
M  V30 4280 H 390.078 -2.19466 -2.9365 0
M  V30 4281 H 389.726 -0.780589 -4.96906 0
M  V30 4282 H 389.426 -2.50184 -5.31678 0
M  V30 4283 H 390.95 -1.7391 -5.8531 0
M  V30 4284 H 392.364 -3.55929 -4.4943 0
M  V30 4285 H 390.761 -4.29152 -4.19462 0
M  V30 4286 H 391.831 -3.94091 -2.82525 0
M  V30 4287 N 393.175 1.03435 -1.18907 0
M  V30 4288 C 394.586 1.58195 -0.991523 0
M  V30 4289 C 394.937 1.90801 0.457081 0
M  V30 4290 O 394.062 1.70272 1.33553 0
M  V30 4291 C 394.657 2.87432 -1.79355 0
M  V30 4292 C 393.216 3.38785 -1.64017 0
M  V30 4293 C 392.363 2.12292 -1.78402 0
M  V30 4294 H 395.314 0.860299 -1.33359 0
M  V30 4295 H 395.335 3.58096 -1.28638 0
M  V30 4296 H 394.847 2.63669 -2.84781 0
M  V30 4297 H 392.948 3.67547 -0.611536 0
M  V30 4298 H 393.061 4.12186 -2.44212 0
M  V30 4299 H 391.425 2.23901 -1.2141 0
M  V30 4300 H 392.208 1.90977 -2.85277 0
M  V30 4301 N 394.653 0.992116 1.22453 0
M  V30 4302 C 395.616 0.546883 2.2258 0
M  V30 4303 C 396.616 -0.369829 1.56489 0
M  V30 4304 O 397.806 -0.161896 1.73446 0
M  V30 4305 C 394.938 -0.204659 3.40285 0
M  V30 4306 H 396.131 1.43234 2.63484 0
M  V30 4307 H 393.684 0.779239 1.3549 0
M  V30 4308 H 394.419 -1.10614 3.04853 0
M  V30 4309 H 394.204 0.45354 3.89468 0
M  V30 4310 H 395.694 -0.504358 4.14543 0
M  V30 4311 N 396.131 -1.37776 0.765217 0
M  V30 4312 C 397.542 -1.82521 0.392819 0
M  V30 4313 C 397.893 -1.63789 -1.08017 0
M  V30 4314 O 397.018 -1.14542 -1.83601 0
M  V30 4315 C 397.613 -3.31358 0.706214 0
M  V30 4316 C 396.172 -3.74406 0.386952 0
M  V30 4317 C 395.319 -2.60394 0.953422 0
M  V30 4318 H 398.27 -1.2634 0.960412 0
M  V30 4319 H 398.291 -3.80498 -0.0114706 0
M  V30 4320 H 397.803 -3.44959 1.77833 0
M  V30 4321 H 395.904 -3.66377 -0.678112 0
M  V30 4322 H 396.017 -4.70749 0.890636 0
M  V30 4323 H 394.381 -2.51878 0.378064 0
M  V30 4324 H 395.164 -2.76791 2.03081 0
M  V30 4325 N 397.609 -0.515225 -1.4894 0
M  V30 4326 C 398.857 0.0241671 -2.02086 0
M  V30 4327 C 399.178 1.3616 -1.3959 0
M  V30 4328 O 398.448 1.87841 -0.556121 0
M  V30 4329 H 397.028 0.0119203 -0.746905 0
M  V30 4330 H 399.69 -0.675702 -1.82812 0
M  V30 4331 H 398.786 0.143385 -3.1177 0
M  V30 4332 N 399.087 1.5561 -0.249682 0
M  V30 4333 C 400.364 1.90932 0.424761 0
M  V30 4334 C 400.744 1.17078 1.75658 0
M  V30 4335 O 400.092 0.289176 2.26663 0
M  V30 4336 C 400.302 3.43975 0.590109 0
M  V30 4337 C 401.65 4.15281 0.884714 0
M  V30 4338 O 402.674 3.49729 0.67587 0
M  V30 4339 O 401.533 5.31236 1.28259 0
M  V30 4340 H 398.627 0.794815 0.228468 0
M  V30 4341 H 401.173 1.67135 -0.293954 0
M  V30 4342 H 399.945 3.89748 -0.34818 0
M  V30 4343 H 399.568 3.73644 1.35926 0
M  V30 4344 N 400.565 -0.0233959 1.57583 0
M  V30 4345 C 401.842 -0.748794 1.807 0
M  V30 4346 C 402.222 -1.9327 0.849106 0
M  V30 4347 O 401.57 -2.28247 -0.107468 0
M  V30 4348 C 401.78 -1.17651 3.28571 0
M  V30 4349 C 403.128 -1.59008 3.93702 0
M  V30 4350 O 404.152 -1.27094 3.32755 0
M  V30 4351 O 403.011 -2.18264 5.01022 0
M  V30 4352 H 400.105 -0.362578 0.743281 0
M  V30 4353 H 402.651 0.000261958 1.697 0
M  V30 4354 H 401.423 -0.331603 3.89892 0
M  V30 4355 H 401.046 -1.98541 3.44481 0
M  V30 4356 N 402.043 -1.548 -0.295768 0
M  V30 4357 C 403.289 -1.74588 -1.03184 0
M  V30 4358 C 403.622 -0.532962 -1.86744 0
M  V30 4359 O 402.897 0.469872 -1.88739 0
M  V30 4360 C 403.18 -3.03791 -1.93347 0
M  V30 4361 C 403.033 -4.35392 -1.12933 0
M  V30 4362 C 404.352 -3.28892 -2.92435 0
M  V30 4363 H 401.471 -0.635221 -0.373715 0
M  V30 4364 H 404.113 -1.87519 -0.30606 0
M  V30 4365 H 402.263 -2.92898 -2.55232 0
M  V30 4366 H 403.935 -4.58211 -0.532943 0
M  V30 4367 H 402.178 -4.31642 -0.432168 0
M  V30 4368 H 402.849 -5.22074 -1.79284 0
M  V30 4369 H 405.325 -3.39429 -2.4068 0
M  V30 4370 H 404.201 -4.20603 -3.52682 0
M  V30 4371 H 404.462 -2.47437 -3.6637 0
M  V30 4372 N 403.521 0.559213 -1.47345 0
M  V30 4373 C 404.451 1.67622 -1.62558 0
M  V30 4374 C 405.432 1.63331 -0.475087 0
M  V30 4375 O 406.617 1.80983 -0.704182 0
M  V30 4376 C 403.747 3.0626 -1.63774 0
M  V30 4377 C 402.701 3.25397 -2.7803 0
M  V30 4378 C 402.027 4.64801 -2.64318 0
M  V30 4379 C 403.327 3.10965 -4.19641 0
M  V30 4380 H 405.021 1.55146 -2.56067 0
M  V30 4381 H 402.567 0.744961 -1.23233 0
M  V30 4382 H 404.52 3.84247 -1.73008 0
M  V30 4383 H 403.244 3.1969 -0.66825 0
M  V30 4384 H 401.903 2.49817 -2.68304 0
M  V30 4385 H 401.551 4.75028 -1.65401 0
M  V30 4386 H 401.251 4.78555 -3.40968 0
M  V30 4387 H 402.775 5.44926 -2.75478 0
M  V30 4388 H 404.189 3.78772 -4.30354 0
M  V30 4389 H 402.586 3.36229 -4.97062 0
M  V30 4390 H 403.656 2.07736 -4.38148 0
M  V30 4391 N 404.999 1.35443 0.805782 0
M  V30 4392 C 406.245 1.28952 1.56522 0
M  V30 4393 C 406.578 -0.135597 1.93726 0
M  V30 4394 O 405.853 -1.08516 1.61414 0
M  V30 4395 C 406.136 2.19678 2.85331 0
M  V30 4396 C 405.989 3.7081 2.54598 0
M  V30 4397 C 407.308 2.09495 3.8704 0
M  V30 4398 H 404.427 0.469764 0.567883 0
M  V30 4399 H 407.069 1.65851 0.927001 0
M  V30 4400 H 405.219 1.8834 3.39795 0
M  V30 4401 H 406.891 4.12593 2.06312 0
M  V30 4402 H 405.134 3.91051 1.8778 0
M  V30 4403 H 405.805 4.29679 3.46525 0
M  V30 4404 H 408.281 2.37045 3.41978 0
M  V30 4405 H 407.157 2.75173 4.74943 0
M  V30 4406 H 407.418 1.07714 4.28777 0
M  V30 4407 N 406.477 -1.02803 1.19454 0
M  V30 4408 C 407.407 -2.12999 0.956758 0
M  V30 4409 C 408.388 -1.69743 -0.110188 0
M  V30 4410 O 409.573 -1.94148 0.0450038 0
M  V30 4411 C 406.703 -3.43746 0.495553 0
M  V30 4412 C 405.657 -4.00688 1.50443 0
M  V30 4413 C 404.983 -5.27067 0.900275 0
M  V30 4414 C 406.283 -4.35397 2.8849 0
M  V30 4415 H 407.977 -2.33148 1.87836 0
M  V30 4416 H 405.523 -1.12045 0.904539 0
M  V30 4417 H 407.476 -4.2021 0.316493 0
M  V30 4418 H 406.2 -3.23321 -0.461646 0
M  V30 4419 H 404.859 -3.2632 1.67065 0
M  V30 4420 H 404.507 -5.02959 -0.064503 0
M  V30 4421 H 404.207 -5.66127 1.57397 0
M  V30 4422 H 405.731 -6.06196 0.73203 0
M  V30 4423 H 407.145 -5.02795 2.75446 0
M  V30 4424 H 405.542 -4.85541 3.52661 0
M  V30 4425 H 406.612 -3.44662 3.41081 0
M  V30 4426 N 407.956 -0.998596 -1.21925 0
M  V30 4427 C 408.886 -0.573688 -2.26343 0
M  V30 4428 C 409.867 0.402296 -1.65274 0
M  V30 4429 O 411.052 0.291683 -1.91997 0
M  V30 4430 C 408.182 0.106839 -3.47136 0
M  V30 4431 C 407.136 -0.788269 -4.20678 0
M  V30 4432 C 406.462 0.0254927 -5.34694 0
M  V30 4433 C 407.762 -2.08784 -4.78755 0
M  V30 4434 H 409.456 -1.44651 -2.62138 0
M  V30 4435 H 407.002 -0.696975 -1.26009 0
M  V30 4436 H 408.955 0.415531 -4.19346 0
M  V30 4437 H 407.679 1.01424 -3.10452 0
M  V30 4438 H 406.338 -1.08069 -3.50309 0
M  V30 4439 H 405.986 0.933989 -4.94253 0
M  V30 4440 H 405.686 -0.570437 -5.84825 0
M  V30 4441 H 407.21 0.328147 -6.09718 0
M  V30 4442 H 408.624 -1.84272 -5.42878 0
M  V30 4443 H 407.021 -2.63307 -5.39249 0
M  V30 4444 H 408.091 -2.76284 -3.98491 0
M  V30 4445 N 409.434 1.37368 -0.772513 0
M  V30 4446 C 410.674 2.01512 -0.342361 0
M  V30 4447 C 411.038 1.59997 1.06136 0
M  V30 4448 O 412.239 2.16609 1.59167 0
M  V30 4449 C 410.51 3.54134 -0.482048 0
M  V30 4450 S 412.069 4.38585 -0.137272 0
M  V30 4451 H 408.887 0.698699 -0.131686 0
M  V30 4452 H 411.489 1.67552 -1.0073 0
M  V30 4453 H 410.193 3.81837 -1.50428 0
M  V30 4454 H 409.724 3.92894 0.199413 0
M  V30 4455 H 411.739 4.84594 1.06692 0
M  V30 4456 N 410.912 0.523116 1.48665 0
M  V30 4457 C 412.16 -0.0134497 2.02096 0
M  V30 4458 C 412.481 -1.35418 1.40311 0
M  V30 4459 O 411.751 -1.87543 0.566074 0
M  V30 4460 H 410.331 -0.00795915 0.746958 0
M  V30 4461 H 412.993 0.685388 1.82451 0
M  V30 4462 H 412.089 -0.126849 3.11842 0
M  V30 4463 N 412.39 -1.55475 0.257931 0
M  V30 4464 C 413.801 -1.8511 -0.243135 0
M  V30 4465 C 414.152 -1.17986 -1.5676 0
M  V30 4466 O 413.277 -0.462102 -2.11409 0
M  V30 4467 C 413.872 -3.35826 -0.447929 0
M  V30 4468 C 412.431 -3.65647 -0.893245 0
M  V30 4469 C 411.578 -2.7729 0.0232965 0
M  V30 4470 H 414.529 -1.51261 0.480199 0
M  V30 4471 H 414.55 -3.58002 -1.28898 0
M  V30 4472 H 414.062 -3.84652 0.516196 0
M  V30 4473 H 412.163 -3.22308 -1.86945 0
M  V30 4474 H 412.276 -4.73312 -0.742469 0
M  V30 4475 H 410.64 -2.49942 -0.490021 0
M  V30 4476 H 411.423 -3.28926 0.982994 0
M  V30 4477 N 413.868 0.0150385 -1.57593 0
M  V30 4478 C 415.279 0.559832 -1.78109 0
M  V30 4479 C 415.63 1.74814 -0.890756 0
M  V30 4480 O 414.755 2.16216 -0.0892482 0
M  V30 4481 C 415.35 1.02238 -3.23006 0
M  V30 4482 C 413.909 1.51258 -3.44671 0
M  V30 4483 C 413.056 0.456955 -2.73509 0
M  V30 4484 H 416.007 -0.211169 -1.57289 0
M  V30 4485 H 416.028 1.88912 -3.30292 0
M  V30 4486 H 415.54 0.157302 -3.87781 0
M  V30 4487 H 413.641 2.39905 -2.8509 0
M  V30 4488 H 413.754 1.55042 -4.5332 0
M  V30 4489 H 412.118 0.915196 -2.37689 0
M  V30 4490 H 412.901 -0.398896 -3.40975 0
M  V30 4491 N 415.346 1.54954 0.287554 0
M  V30 4492 C 416.757 1.65732 0.859634 0
M  V30 4493 C 417.108 0.574767 1.87592 0
M  V30 4494 O 416.233 -0.286299 2.14498 0
M  V30 4495 C 416.828 3.00438 1.56597 0
M  V30 4496 C 415.387 3.13292 2.08627 0
M  V30 4497 C 414.534 2.61473 0.923416 0
M  V30 4498 H 417.485 1.5857 0.0642338 0
M  V30 4499 H 417.506 2.92613 2.43224 0
M  V30 4500 H 417.018 3.79207 0.826053 0
M  V30 4501 H 415.119 2.39268 2.85625 0
M  V30 4502 H 415.232 4.19647 2.31157 0
M  V30 4503 H 413.596 2.18264 1.31275 0
M  V30 4504 H 414.379 3.42733 0.197241 0
M  V30 4505 N 416.824 -0.551391 1.4764 0
M  V30 4506 C 417.757 -1.6738 1.5511 0
M  V30 4507 C 418.735 -1.5753 0.402856 0
M  V30 4508 O 419.919 -1.78307 0.611475 0
M  V30 4509 C 417.046 -3.05661 1.45908 0
M  V30 4510 C 416.092 -3.33938 2.65307 0
M  V30 4511 S 416.925 -3.22553 4.27457 0
M  V30 4512 C 418.081 -4.63317 4.20818 0
M  V30 4513 H 418.314 -1.6079 2.50068 0
M  V30 4514 H 415.847 -0.732674 1.35909 0
M  V30 4515 H 417.805 -3.8542 1.41286 0
M  V30 4516 H 416.466 -3.09711 0.523248 0
M  V30 4517 H 415.659 -4.34761 2.54948 0
M  V30 4518 H 415.261 -2.61809 2.67081 0
M  V30 4519 H 417.553 -5.54391 3.89431 0
M  V30 4520 H 418.496 -4.78732 5.21748 0
M  V30 4521 H 418.904 -4.41636 3.51593 0
M  V30 4522 N 418.302 -1.35869 -0.798587 0
M  V30 4523 C 419.548 -1.2978 -1.55836 0
M  V30 4524 C 419.881 0.125322 -1.93795 0
M  V30 4525 O 419.156 1.07658 -1.61987 0
M  V30 4526 C 419.439 -2.21188 -2.84162 0
M  V30 4527 C 419.292 -3.72155 -2.52628 0
M  V30 4528 C 420.611 -2.11545 -3.85923 0
M  V30 4529 H 417.73 -0.472769 -0.565383 0
M  V30 4530 H 420.372 -1.66341 -0.918192 0
M  V30 4531 H 418.522 -1.90139 -3.38791 0
M  V30 4532 H 420.194 -4.13682 -2.04121 0
M  V30 4533 H 418.437 -3.92042 -1.85704 0
M  V30 4534 H 419.108 -4.31511 -3.44242 0
M  V30 4535 H 421.584 -2.38855 -3.40716 0
M  V30 4536 H 420.46 -2.77688 -4.73477 0
M  V30 4537 H 420.721 -1.09987 -4.282 0
M  V30 4538 N 419.78 1.02168 -1.19998 0
M  V30 4539 C 420.712 2.10705 -0.901994 0
M  V30 4540 C 421.725 1.6244 0.108216 0
M  V30 4541 O 422.914 1.78082 -0.12214 0
M  V30 4542 C 420.014 3.37291 -0.329834 0
M  V30 4543 C 419.187 4.14714 -1.39035 0
M  V30 4544 C 418.246 5.19606 -0.830432 0
M  V30 4545 O 417.272 5.48809 -1.50989 0
M  V30 4546 N 418.474 5.79366 0.362696 0
M  V30 4547 H 421.239 2.36856 -1.83628 0
M  V30 4548 H 418.8 1.18518 -1.10296 0
M  V30 4549 H 420.792 4.04657 0.0587633 0
M  V30 4550 H 419.362 3.0843 0.508891 0
M  V30 4551 H 418.582 3.42392 -1.9535 0
M  V30 4552 H 419.87 4.63226 -2.10474 0
M  V30 4553 H 419.268 5.57968 0.932081 0
M  V30 4554 H 417.825 6.48106 0.69299 0
M  V30 4555 N 421.258 1.00505 1.21394 0
M  V30 4556 C 422.188 0.585684 2.26035 0
M  V30 4557 C 423.169 -0.393525 1.65485 0
M  V30 4558 O 424.354 -0.281497 1.92149 0
M  V30 4559 C 421.484 -0.0884283 3.47187 0
M  V30 4560 C 420.438 0.810567 4.20254 0
M  V30 4561 C 419.764 0.00286382 5.347 0
M  V30 4562 C 421.064 2.1132 4.77641 0
M  V30 4563 H 422.758 1.46039 2.61368 0
M  V30 4564 H 420.304 0.703648 1.25638 0
M  V30 4565 H 422.257 -0.393286 4.19561 0
M  V30 4566 H 420.981 -0.997766 3.10986 0
M  V30 4567 H 419.64 1.09925 3.49731 0
M  V30 4568 H 419.288 -0.907765 4.94741 0
M  V30 4569 H 418.988 0.601444 5.84514 0
M  V30 4570 H 420.512 -0.295808 6.09883 0
M  V30 4571 H 421.926 1.87148 5.41893 0
M  V30 4572 H 420.323 2.66164 5.37845 0
M  V30 4573 H 421.393 2.78393 3.9702 0
M  V30 4574 N 422.737 -1.36956 0.779787 0
M  V30 4575 C 423.7 -2.2851 0.177662 0
M  V30 4576 C 424.7 -1.48393 -0.619377 0
M  V30 4577 O 425.89 -1.68505 -0.441785 0
M  V30 4578 C 423.022 -3.32428 -0.755279 0
M  V30 4579 H 424.215 -2.83269 0.984823 0
M  V30 4580 H 421.768 -1.46358 0.548544 0
M  V30 4581 H 422.503 -2.82808 -1.58714 0
M  V30 4582 H 422.288 -3.91659 -0.185817 0
M  V30 4583 H 423.778 -4.00824 -1.17174 0
M  V30 4584 N 424.215 -0.530993 -1.48385 0
M  V30 4585 C 425.455 0.000718982 -2.044 0
M  V30 4586 C 425.819 1.31485 -1.39913 0
M  V30 4587 O 427.02 1.93265 -1.86821 0
M  V30 4588 C 425.291 0.119177 -3.57201 0
M  V30 4589 S 426.85 0.600806 -4.34667 0
M  V30 4590 H 423.668 -0.0125473 -0.710889 0
M  V30 4591 H 426.27 -0.711783 -1.82082 0
M  V30 4592 H 424.974 -0.842061 -4.01668 0
M  V30 4593 H 424.505 0.856026 -3.83974 0
M  V30 4594 H 426.52 1.86514 -4.59812 0
M  V30 4595 N 425.693 1.55336 -0.266172 0
M  V30 4596 C 426.643 2.18848 0.639497 0
M  V30 4597 C 427.627 1.1503 1.12503 0
M  V30 4598 O 428.819 1.40875 1.0716 0
M  V30 4599 C 425.948 2.90626 1.82733 0
M  V30 4600 C 425.034 4.01723 1.35939 0
M  V30 4601 N 425.425 5.02145 0.606988 0
M  V30 4602 C 423.723 4.1463 1.6431 0
M  V30 4603 C 424.424 5.80572 0.362138 0
M  V30 4604 N 423.4 5.35551 0.931971 0
M  V30 4605 H 427.202 2.93845 0.0567057 0
M  V30 4606 H 424.716 1.62252 -0.0693312 0
M  V30 4607 H 426.713 3.34569 2.48735 0
M  V30 4608 H 425.373 2.17137 2.41416 0
M  V30 4609 H 426.384 5.17271 0.255198 0
M  V30 4610 H 423.061 3.52326 2.23993 0
M  V30 4611 H 424.451 6.71472 -0.239848 0
M  V30 4612 N 427.171 -0.0066808 1.57599 0
M  V30 4613 C 428.582 -0.550379 1.78403 0
M  V30 4614 C 428.933 -1.74339 0.900014 0
M  V30 4615 O 428.058 -2.16166 0.100713 0
M  V30 4616 C 428.653 -1.00523 3.23544 0
M  V30 4617 C 427.212 -1.49428 3.45468 0
M  V30 4618 C 426.359 -0.442444 2.73748 0
M  V30 4619 H 429.31 0.219508 1.57175 0
M  V30 4620 H 429.331 -1.87157 3.31289 0
M  V30 4621 H 428.843 -0.136735 3.87859 0
M  V30 4622 H 426.944 -2.3839 2.86358 0
M  V30 4623 H 427.057 -1.52635 4.54136 0
M  V30 4624 H 425.421 -0.902578 2.38171 0
M  V30 4625 H 426.204 0.416973 3.40758 0
M  V30 4626 N 428.649 -1.55105 -0.279332 0
M  V30 4627 C 429.597 -1.88333 -1.36505 0
M  V30 4628 C 430.591 -0.759043 -1.51443 0
M  V30 4629 O 431.797 -0.943312 -1.53302 0
M  V30 4630 H 428.172 -0.59766 -0.456406 0
M  V30 4631 H 430.143 -2.79041 -1.05728 0
M  V30 4632 C 428.892 -2.16628 -2.7197 0
M  V30 4633 H 428.215 -3.02624 -2.61264 0
M  V30 4634 H 429.655 -2.43803 -3.46895 0
M  V30 4635 C 428.114 -0.971807 -3.22579 0
M  V30 4636 O 428.644 -0.203228 -4.01186 0
M  V30 4637 N 426.85 -0.771238 -2.80179 0
M  V30 4638 H 426.397 -1.39792 -2.1637 0
M  V30 4639 H 426.355 0.0263667 -3.14389 0
M  V30 4640 N 430.127 0.543554 -1.4793 0
M  V30 4641 C 431.057 1.65888 -1.64327 0
M  V30 4642 C 432.038 1.62818 -0.492383 0
M  V30 4643 O 433.223 1.80226 -0.723338 0
M  V30 4644 C 430.353 3.04506 -1.67013 0
M  V30 4645 C 429.307 3.2243 -2.81466 0
M  V30 4646 C 428.633 4.61972 -2.69233 0
M  V30 4647 C 429.933 3.06496 -4.22915 0
M  V30 4648 H 431.627 1.52421 -2.57698 0
M  V30 4649 H 429.173 0.731849 -1.24016 0
M  V30 4650 H 431.126 3.82391 -1.77074 0
M  V30 4651 H 429.85 3.18964 -0.70212 0
M  V30 4652 H 428.509 2.46957 -2.70938 0
M  V30 4653 H 428.157 4.73247 -1.7043 0
M  V30 4654 H 427.857 4.74911 -3.46025 0
M  V30 4655 H 429.381 5.41974 -2.81242 0
M  V30 4656 H 430.795 3.74186 -4.34348 0
M  V30 4657 H 429.192 3.30938 -5.006 0
M  V30 4658 H 430.262 2.03077 -4.40327 0
M  V30 4659 N 431.605 1.3629 0.791371 0
M  V30 4660 C 432.882 1.20962 1.53712 0
M  V30 4661 C 433.262 -0.205021 2.10102 0
M  V30 4662 O 432.61 -1.21042 1.93807 0
M  V30 4663 C 432.82 2.29002 2.63361 0
M  V30 4664 C 434.168 2.65572 3.31295 0
M  V30 4665 O 435.192 2.2803 2.73643 0
M  V30 4666 O 434.051 3.3018 4.35481 0
M  V30 4667 H 431.145 0.47086 0.679867 0
M  V30 4668 H 433.691 1.48016 0.830021 0
M  V30 4669 H 432.463 3.2382 2.19674 0
M  V30 4670 H 432.086 2.03303 3.41692 0
M  V30 4671 N 433.083 -1.0153 1.20538 0
M  V30 4672 C 434.03 -2.10098 0.955383 0
M  V30 4673 C 435 -1.65702 -0.114878 0
M  V30 4674 O 436.185 -1.90776 0.0301118 0
M  V30 4675 C 433.325 -3.41236 0.514969 0
M  V30 4676 C 432.438 -3.99102 1.65353 0
M  V30 4677 C 431.573 -5.18306 1.16329 0
M  V30 4678 C 430.612 -5.68258 2.27485 0
M  V30 4679 N 429.749 -6.78722 1.7967 0
M  V30 4680 H 434.589 -2.30818 1.88486 0
M  V30 4681 H 432.126 -1.13189 0.939499 0
M  V30 4682 H 434.084 -4.16504 0.240935 0
M  V30 4683 H 432.714 -3.20585 -0.377512 0
M  V30 4684 H 431.766 -3.20918 2.04245 0
M  V30 4685 H 433.078 -4.32177 2.49047 0
M  V30 4686 H 432.232 -6.00782 0.845302 0
M  V30 4687 H 430.971 -4.86799 0.296254 0
M  V30 4688 H 429.976 -4.84385 2.60099 0
M  V30 4689 H 431.201 -6.01798 3.14667 0
M  V30 4690 H 429.147 -6.49042 0.95295 0
M  V30 4691 H 429.064 -7.10996 2.56944 0
M  V30 4692 H 430.332 -7.64759 1.50875 0
M  V30 4693 N 434.561 -1.01147 -1.20859 0
M  V30 4694 C 435.491 -0.597663 -2.25722 0
M  V30 4695 C 436.472 0.384744 -1.65692 0
M  V30 4696 O 437.657 0.271303 -1.92296 0
M  V30 4697 C 434.787 0.0700149 -3.47229 0
M  V30 4698 C 433.741 -0.832843 -4.19819 0
M  V30 4699 C 433.067 -0.0312202 -5.34691 0
M  V30 4700 C 434.367 -2.1385 -4.76514 0
M  V30 4701 H 436.061 -1.47423 -2.60589 0
M  V30 4702 H 433.607 -0.710301 -1.25263 0
M  V30 4703 H 435.56 0.37103 -4.19763 0
M  V30 4704 H 434.284 0.981259 -3.11511 0
M  V30 4705 H 432.943 -1.11778 -3.49144 0
M  V30 4706 H 432.591 0.881515 -4.95215 0
M  V30 4707 H 432.291 -0.632434 -5.84187 0
M  V30 4708 H 433.815 0.26346 -6.10031 0
M  V30 4709 H 435.229 -1.9002 -5.40893 0
M  V30 4710 H 433.626 -2.69012 -5.36426 0
M  V30 4711 H 434.696 -2.80495 -3.95538 0
M  V30 4712 N 436.039 1.36541 -0.78704 0
M  V30 4713 C 437.287 1.98911 -0.357633 0
M  V30 4714 C 437.608 1.62778 1.07371 0
M  V30 4715 O 436.878 0.900612 1.73971 0
M  V30 4716 H 435.458 0.735734 -0.129246 0
M  V30 4717 H 438.12 1.66776 -1.00855 0
M  V30 4718 H 437.216 3.08874 -0.447549 0
M  V30 4719 N 437.518 0.538854 1.48102 0
M  V30 4720 C 438.748 0.0122958 2.06596 0
M  V30 4721 C 439.156 -1.27861 1.39457 0
M  V30 4722 O 438.499 -1.77348 0.478907 0
M  V30 4723 C 438.561 -0.273131 3.58461 0
M  V30 4724 C 438.225 0.92561 4.47528 0
M  V30 4725 C 439.222 1.82637 4.86765 0
M  V30 4726 C 436.907 1.13511 4.89306 0
M  V30 4727 C 438.901 2.92047 5.66558 0
M  V30 4728 C 436.588 2.23233 5.68868 0
M  V30 4729 C 437.586 3.12333 6.07402 0
M  V30 4730 O 437.274 4.20155 6.85365 0
M  V30 4731 H 437.006 0.0344283 0.675123 0
M  V30 4732 H 439.56 0.746494 1.91355 0
M  V30 4733 H 437.79 -1.06141 3.71848 0
M  V30 4734 H 439.479 -0.742842 3.99045 0
M  V30 4735 H 440.245 1.67649 4.55103 0
M  V30 4736 H 436.124 0.450835 4.5879 0
M  V30 4737 H 439.668 3.6162 5.96554 0
M  V30 4738 H 435.565 2.38201 5.99942 0
M  V30 4739 H 436.333 4.17975 7.03732 0
M  V30 4740 N 438.996 -1.55193 0.274407 0
M  V30 4741 C 440.221 -2.04446 -0.348824 0
M  V30 4742 C 440.646 -1.15149 -1.48735 0
M  V30 4743 O 440.004 -0.149952 -1.80679 0
M  V30 4744 C 440.052 -3.51431 -0.808009 0
M  V30 4745 O 439.156 -3.65225 -1.91531 0
M  V30 4746 H 438.497 -0.66006 -0.0722276 0
M  V30 4747 H 441.027 -2.00481 0.408498 0
M  V30 4748 H 441.037 -3.92781 -1.10395 0
M  V30 4749 H 439.712 -4.15892 0.0249865 0
M  V30 4750 H 438.289 -3.35778 -1.62196 0
M  V30 4751 N 440.474 -0.00167713 -1.576 0
M  V30 4752 C 441.406 1.0174 -2.05382 0
M  V30 4753 C 442.419 1.30595 -0.972052 0
M  V30 4754 O 443.608 1.27542 -1.24882 0
M  V30 4755 C 440.708 2.35174 -2.44022 0
M  V30 4756 C 439.881 2.25234 -3.74951 0
M  V30 4757 C 438.94 3.4137 -4.00441 0
M  V30 4758 O 437.966 3.19483 -4.71083 0
M  V30 4759 N 439.168 4.64275 -3.48467 0
M  V30 4760 H 441.933 0.609902 -2.93428 0
M  V30 4761 H 439.494 0.185672 -1.60832 0
M  V30 4762 H 441.486 3.11643 -2.58187 0
M  V30 4763 H 440.056 2.67659 -1.61485 0
M  V30 4764 H 439.276 1.33664 -3.70847 0
M  V30 4765 H 440.564 2.15767 -4.60784 0
M  V30 4766 H 439.962 4.84955 -2.91264 0
M  V30 4767 H 438.519 5.38005 -3.67959 0
M  V30 4768 N 441.952 1.55251 0.271103 0
M  V30 4769 C 442.899 1.88261 1.33516 0
M  V30 4770 C 443.869 0.734296 1.48988 0
M  V30 4771 O 445.054 0.985741 1.63364 0
M  V30 4772 C 442.194 2.16168 2.69008 0
M  V30 4773 C 441.307 3.43678 2.61743 0
M  V30 4774 C 440.442 3.61276 3.89427 0
M  V30 4775 C 439.481 4.82472 3.7668 0
M  V30 4776 N 438.618 4.96717 4.96202 0
M  V30 4777 H 443.458 2.79015 1.04665 0
M  V30 4778 H 440.995 1.38137 0.505618 0
M  V30 4779 H 442.953 2.30349 3.47844 0
M  V30 4780 H 441.583 1.28646 2.96057 0
M  V30 4781 H 440.635 3.37959 1.74607 0
M  V30 4782 H 441.947 4.3265 2.48224 0
M  V30 4783 H 441.101 3.75284 4.76704 0
M  V30 4784 H 439.84 2.70492 4.05814 0
M  V30 4785 H 438.845 4.68465 2.87786 0
M  V30 4786 H 440.07 5.74692 3.61809 0
M  V30 4787 H 438.016 4.08865 5.12997 0
M  V30 4788 H 437.933 5.79738 4.85222 0
M  V30 4789 H 439.201 5.15113 5.85046 0
M  V30 4790 N 443.43 -0.535701 1.48216 0
M  V30 4791 C 444.363 -1.65726 1.56876 0
M  V30 4792 C 445.341 -1.57094 0.419542 0
M  V30 4793 O 446.525 -1.77648 0.630352 0
M  V30 4794 C 443.652 -3.04096 1.49142 0
M  V30 4795 C 442.698 -3.31105 2.68834 0
M  V30 4796 S 443.531 -3.18001 4.30854 0
M  V30 4797 C 444.687 -4.58828 4.25709 0
M  V30 4798 H 444.92 -1.58129 2.51759 0
M  V30 4799 H 442.453 -0.718218 1.36678 0
M  V30 4800 H 444.411 -3.839 1.45366 0
M  V30 4801 H 443.072 -3.09139 0.556067 0
M  V30 4802 H 442.265 -4.32033 2.59545 0
M  V30 4803 H 441.867 -2.58961 2.69843 0
M  V30 4804 H 444.159 -5.5023 3.95289 0
M  V30 4805 H 445.102 -4.73172 5.26796 0
M  V30 4806 H 445.51 -4.37883 3.56257 0
M  V30 4807 N 444.908 -1.36708 -0.784132 0
M  V30 4808 C 446.324 -1.17237 -1.08294 0
M  V30 4809 C 446.524 -5.93947e-05 -2.015 0
M  V30 4810 O 445.58 0.663686 -2.43622 0
M  V30 4811 C 446.893 -2.48557 -1.69233 0
M  V30 4812 C 448.441 -2.54968 -1.8155 0
M  V30 4813 C 448.916 -3.86388 -2.45904 0
M  V30 4814 N 450.407 -3.87762 -2.53367 0
M  V30 4815 C 451.142 -4.86191 -3.03983 0
M  V30 4816 N 450.638 -5.95015 -3.54866 0
M  V30 4817 N 452.431 -4.73606 -3.02743 0
M  V30 4818 H 444.582 -2.11758 -0.16501 0
M  V30 4819 H 446.845 -0.93822 -0.135822 0
M  V30 4820 H 446.551 -3.34638 -1.08215 0
M  V30 4821 H 446.425 -2.64748 -2.68679 0
M  V30 4822 H 448.812 -1.69302 -2.41704 0
M  V30 4823 H 448.893 -2.42672 -0.80895 0
M  V30 4824 H 448.537 -4.72462 -1.86392 0
M  V30 4825 H 448.467 -3.95982 -3.4714 0
M  V30 4826 H 450.958 -3.09145 -2.17343 0
M  V30 4827 H 451.271 -6.66086 -3.91854 0
M  V30 4828 H 449.616 -5.98676 -3.53003 0
M  V30 4829 H 452.807 -3.87717 -2.62284 0
M  V30 4830 H 452.98 -5.50473 -3.41881 0
M  V30 4831 N 446.386 1.0089 -1.21074 0
M  V30 4832 C 447.633 1.74607 -1.0256 0
M  V30 4833 C 447.961 1.89426 0.44136 0
M  V30 4834 O 447.216 1.42266 1.34384 0
M  V30 4835 C 447.515 3.16335 -1.66334 0
M  V30 4836 C 447.181 3.21474 -3.16173 0
M  V30 4837 C 445.843 3.22583 -3.57062 0
M  V30 4838 C 448.195 3.19025 -4.12156 0
M  V30 4839 C 445.523 3.18925 -4.92446 0
M  V30 4840 C 447.875 3.16909 -5.47496 0
M  V30 4841 C 446.539 3.16326 -5.87787 0
M  V30 4842 H 445.809 0.638933 -0.375294 0
M  V30 4843 H 448.456 1.18274 -1.50611 0
M  V30 4844 H 446.761 3.75876 -1.10566 0
M  V30 4845 H 448.458 3.72083 -1.49516 0
M  V30 4846 H 445.048 3.2135 -2.83605 0
M  V30 4847 H 449.232 3.17332 -3.81595 0
M  V30 4848 H 444.488 3.16809 -5.22917 0
M  V30 4849 H 448.662 3.13968 -6.21609 0
M  V30 4850 H 446.289 3.13246 -6.92662 0
M  V30 4851 N 447.864 1.01787 1.20321 0
M  V30 4852 C 449.092 0.727194 1.937 0
M  V30 4853 C 449.507 -0.712305 1.74848 0
M  V30 4854 O 448.864 -1.48327 1.06327 0
M  V30 4855 C 448.915 1.05497 3.45764 0
M  V30 4856 O 448.636 2.43794 3.64 0
M  V30 4857 C 450.137 0.785534 4.36285 0
M  V30 4858 H 447.357 0.266939 0.615617 0
M  V30 4859 H 449.901 1.35939 1.52777 0
M  V30 4860 H 448.056 0.468158 3.84561 0
M  V30 4861 H 448.47 2.55656 4.57974 0
M  V30 4862 H 449.944 1.06495 5.4163 0
M  V30 4863 H 450.421 -0.280273 4.38305 0
M  V30 4864 H 451.027 1.35456 4.03152 0
M  V30 4865 N 449.342 -1.36122 0.79427 0
M  V30 4866 C 450.572 -2.03067 0.380437 0
M  V30 4867 C 450.98 -1.60018 -1.00949 0
M  V30 4868 O 450.323 -0.787425 -1.65968 0
M  V30 4869 C 450.385 -3.57587 0.37034 0
M  V30 4870 C 450.049 -4.23855 1.70867 0
M  V30 4871 C 451.046 -4.46404 2.66496 0
M  V30 4872 C 448.731 -4.61229 1.9893 0
M  V30 4873 C 450.725 -5.05412 3.88378 0
M  V30 4874 C 448.412 -5.19953 3.21079 0
M  V30 4875 C 449.41 -5.41985 4.15621 0
M  V30 4876 O 449.098 -5.99475 5.35616 0
M  V30 4877 H 448.83 -0.658168 0.154243 0
M  V30 4878 H 451.384 -1.7498 1.0757 0
M  V30 4879 H 449.614 -3.84814 -0.381444 0
M  V30 4880 H 451.303 -4.05895 -0.0194894 0
M  V30 4881 H 452.069 -4.17921 2.46103 0
M  V30 4882 H 447.948 -4.43402 1.26158 0
M  V30 4883 H 451.492 -5.22524 4.62185 0
M  V30 4884 H 447.389 -5.47862 3.41347 0
M  V30 4885 H 448.157 -6.17937 5.36745 0
M  V30 4886 O 450.859 -0.687885 -1.46118 0
M  V30 4887 H 451.55 -0.224178 -1.92398 0
M  V30 END ATOM
M  V30 BEGIN BOND
M  V30 END BOND
M  V30 END CTAB
M  END
$$$$
