drugbank_target|Q9UIC8 Leucine carboxyl methyltransferase 1 (DB00149)
 OpenBabel12092119323D

  0  0  0     0  0            999 V3000
M  V30 BEGIN CTAB
M  V30 COUNTS 5342 5390 0 0 0
M  V30 BEGIN ATOM
M  V30 1 H -0.908 1.98254 -0.117106 0
M  V30 2 N 0 1.576 0 0
M  V30 3 C 0.933 2.03868 1.02534 0
M  V30 4 C 1.911 0.928543 1.3348 0
M  V30 5 O 3.095 1.19667 1.45644 0
M  V30 6 C 0.222 2.43627 2.35294 0
M  V30 7 C -0.732 3.65373 2.2001 0
M  V30 8 S 0.101 5.13292 1.52614 0
M  V30 9 C 1.257 5.56322 2.86805 0
M  V30 10 H 1.49 2.90518 0.631377 0
M  V30 11 H -0.977 1.52953 0.210867 0
M  V30 12 H 0.981 2.67203 3.11629 0
M  V30 13 H -0.358 1.57376 2.7183 0
M  V30 14 H -1.165 3.90944 3.18086 0
M  V30 15 H -1.563 3.418 1.51819 0
M  V30 16 H 0.729 5.58782 3.83104 0
M  V30 17 H 1.672 6.56266 2.65933 0
M  V30 18 H 2.08 4.83886 2.90714 0
M  V30 19 N 1.4781 -0.272755 1.55222 0
M  V30 20 C 2.4411 -1.32041 1.87344 0
M  V30 21 C 3.4411 -1.42342 0.74803 0
M  V30 22 O 4.6311 -1.41488 1.0162 0
M  V30 23 C 1.7631 -2.70173 2.07893 0
M  V30 24 H 2.9561 -1.04789 2.80997 0
M  V30 25 H 0.5091 -0.51083 1.47717 0
M  V30 26 H 1.2441 -3.02605 1.16622 0
M  V30 27 H 1.0291 -2.64082 2.89833 0
M  V30 28 H 2.5191 -3.45869 2.34017 0
M  V30 29 N 2.9562 -1.48159 -0.537278 0
M  V30 30 C 4.1842 -1.59454 -1.31841 0
M  V30 31 C 4.5992 -0.252065 -1.8711 0
M  V30 32 O 3.9562 0.757621 -1.66031 0
M  V30 33 C 4.0072 -2.63546 -2.47439 0
M  V30 34 O 3.7282 -3.92583 -1.94449 0
M  V30 35 C 5.2292 -2.85212 -3.39366 0
M  V30 36 H 2.4492 -0.53785 -0.401196 0
M  V30 37 H 4.9932 -1.93932 -0.648891 0
M  V30 38 H 3.1482 -2.31946 -3.1029 0
M  V30 39 H 3.5622 -4.49629 -2.70063 0
M  V30 40 H 5.0362 -3.61863 -4.16844 0
M  V30 41 H 5.5132 -1.93765 -3.94147 0
M  V30 42 H 6.1192 -3.18086 -2.82314 0
M  V30 43 N 4.4343 0.785586 -1.36625 0
M  V30 44 C 5.8503 1.08419 -1.17122 0
M  V30 45 C 6.0503 2.015 0.00208491 0
M  V30 46 O 5.1063 2.43551 0.666278 0
M  V30 47 C 6.4193 1.69498 -2.48377 0
M  V30 48 C 7.9673 1.81821 -2.54775 0
M  V30 49 C 8.4423 2.46315 -3.86126 0
M  V30 50 N 9.9333 2.53779 -3.87492 0
M  V30 51 C 10.6683 3.045 -4.85868 0
M  V30 52 N 10.1643 3.55499 -5.94637 0
M  V30 53 N 11.9573 3.03247 -4.73284 0
M  V30 54 H 4.1083 0.167264 -2.1174 0
M  V30 55 H 6.3713 0.13682 -0.938075 0
M  V30 56 H 6.0773 1.08571 -3.34522 0
M  V30 57 H 5.9513 2.6896 -2.64462 0
M  V30 58 H 8.3383 2.41884 -1.69045 0
M  V30 59 H 8.4193 0.811532 -2.42586 0
M  V30 60 H 8.0633 1.86895 -4.72263 0
M  V30 61 H 7.9933 3.47561 -3.95612 0
M  V30 62 H 10.4843 2.17672 -3.08913 0
M  V30 63 H 10.7973 3.92562 -6.65669 0
M  V30 64 H 9.1423 3.5364 -5.98301 0
M  V30 65 H 12.3333 2.62696 -3.87438 0
M  V30 66 H 12.5063 3.42467 -5.50109 0
M  V30 67 N 5.9124 1.20967 1.01018 0
M  V30 68 C 6.8444 0.922059 2.09835 0
M  V30 69 C 7.8574 -0.0927106 1.62536 0
M  V30 70 O 9.0464 0.139127 1.77957 0
M  V30 71 C 6.1464 0.362004 3.36961 0
M  V30 72 C 5.3194 1.42986 4.13369 0
M  V30 73 C 4.3784 0.879976 5.1879 0
M  V30 74 O 3.4044 1.56219 5.47343 0
M  V30 75 N 4.6064 -0.307396 5.79686 0
M  V30 76 H 7.3714 1.8588 2.35093 0
M  V30 77 H 4.9324 1.11422 1.1746 0
M  V30 78 H 6.9244 -0.0201474 4.04695 0
M  V30 79 H 5.4944 -0.479437 3.08902 0
M  V30 80 H 4.7144 1.98608 3.40512 0
M  V30 81 H 6.0024 2.14885 4.61196 0
M  V30 82 H 5.4004 -0.878796 5.58832 0
M  V30 83 H 3.9574 -0.631115 6.48737 0
M  V30 84 N 7.3905 -1.2043 1.01659 0
M  V30 85 C 8.8065 -1.41852 0.731442 0
M  V30 86 C 9.0065 -1.89358 -0.688898 0
M  V30 87 O 8.0625 -2.06247 -1.45666 0
M  V30 88 C 9.3755 -2.44019 1.75714 0
M  V30 89 C 10.9235 -2.57785 1.77527 0
M  V30 90 C 11.3985 -3.63194 2.79023 0
M  V30 91 N 12.8895 -3.70678 2.77763 0
M  V30 92 C 13.6245 -4.51897 3.52954 0
M  V30 93 N 13.1205 -5.36921 4.37821 0
M  V30 94 N 14.9135 -4.4643 3.41551 0
M  V30 95 H 7.0645 -0.879093 1.93354 0
M  V30 96 H 9.3275 -0.448425 0.835236 0
M  V30 97 H 9.0335 -2.1611 2.77469 0
M  V30 98 H 8.9075 -3.43007 1.56927 0
M  V30 99 H 11.2945 -2.85023 0.764569 0
M  V30 100 H 11.3755 -1.58992 2.00387 0
M  V30 101 H 11.0195 -3.36699 3.80258 0
M  V30 102 H 10.9495 -4.61609 2.53425 0
M  V30 103 H 13.4405 -3.09944 2.16201 0
M  V30 104 H 13.7535 -5.95981 4.91962 0
M  V30 105 H 12.0985 -5.36424 4.41899 0
M  V30 106 H 15.2895 -3.79042 2.74672 0
M  V30 107 H 15.4625 -5.09491 4.00404 0
M  V30 108 N 8.8686 -0.792821 -1.36206 0
M  V30 109 C 9.7786 -0.194808 -2.3379 0
M  V30 110 C 10.7946 0.654869 -1.61206 0
M  V30 111 O 11.9706 0.569856 -1.9317 0
M  V30 112 C 9.0356 0.657721 -3.40404 0
M  V30 113 C 8.0966 -0.210849 -4.28782 0
M  V30 114 C 7.3296 0.601086 -5.30304 0
M  V30 115 O 7.5526 1.83682 -5.40016 0
M  V30 116 O 6.4866 -0.000808277 -6.019 0
M  V30 117 H 10.3126 -1.00172 -2.86704 0
M  V30 118 H 7.8976 -0.554341 -1.38735 0
M  V30 119 H 9.7796 1.14375 -4.05581 0
M  V30 120 H 8.4546 1.44247 -2.89784 0
M  V30 121 H 7.3616 -0.743714 -3.66633 0
M  V30 122 H 8.6946 -0.959195 -4.82763 0
M  V30 123 N 10.3467 1.47872 -0.545128 0
M  V30 124 C 11.5717 2.07391 -0.0190611 0
M  V30 125 C 11.9967 1.39688 1.25971 0
M  V30 126 O 11.3547 0.467816 1.7516 0
M  V30 127 C 11.4027 3.60188 0.172335 0
M  V30 128 O 10.5067 3.9339 1.23766 0
M  V30 129 H 9.8477 0.662411 -0.0459059 0
M  V30 130 H 12.3777 1.90066 -0.757365 0
M  V30 131 H 12.3877 4.06129 0.390305 0
M  V30 132 H 11.0627 4.08865 -0.761725 0
M  V30 133 H 9.6397 3.5921 1.00114 0
M  V30 134 N 11.8248 0.280983 1.55075 0
M  V30 135 C 13.0498 -0.340154 2.04592 0
M  V30 136 C 13.4748 -1.48246 1.15779 0
M  V30 137 O 12.8328 -1.80614 0.15761 0
M  V30 138 C 12.8808 -0.793104 3.5177 0
M  V30 139 O 11.9848 -1.89981 3.66034 0
M  V30 140 H 11.3258 -0.0694289 0.66036 0
M  V30 141 H 13.8558 0.416993 2.00306 0
M  V30 142 H 13.8658 -1.08729 3.93245 0
M  V30 143 H 12.5408 0.0426163 4.15878 0
M  V30 144 H 11.1178 -1.60771 3.36463 0
M  V30 145 N 13.3029 -1.57598 0.00835791 0
M  V30 146 C 14.5519 -1.90107 -0.673968 0
M  V30 147 C 14.8649 -0.884275 -1.7447 0
M  V30 148 O 16.0709 -1.09987 -2.48224 0
M  V30 149 C 14.5269 -3.37497 -1.24995 0
M  V30 150 C 14.1349 -4.47491 -0.2136 0
M  V30 151 C 15.8789 -3.79104 -1.90999 0
M  V30 152 C 13.7859 -5.85963 -0.80005 0
M  V30 153 H 12.7159 -0.709393 -0.255495 0
M  V30 154 H 15.3669 -1.83365 0.0702693 0
M  V30 155 H 13.7489 -3.39102 -2.04513 0
M  V30 156 H 14.9229 -4.57414 0.557596 0
M  V30 157 H 13.2379 -4.14956 0.346474 0
M  V30 158 H 15.8349 -4.79901 -2.35795 0
M  V30 159 H 16.1779 -3.1306 -2.74407 0
M  V30 160 H 16.7109 -3.79833 -1.18203 0
M  V30 161 H 13.4499 -6.555 -0.00456708 0
M  V30 162 H 12.9699 -5.79687 -1.54021 0
M  V30 163 H 14.6489 -6.33884 -1.29615 0
M  V30 164 N 14.781 0.264519 -1.55364 0
M  V30 165 C 16.009 1.013 -1.80405 0
M  V30 166 C 16.424 1.79618 -0.581622 0
M  V30 167 O 15.781 1.76879 0.449468 0
M  V30 168 C 15.832 1.96487 -3.03439 0
M  V30 169 O 15.553 1.21341 -4.20961 0
M  V30 170 C 17.054 2.83079 -3.41147 0
M  V30 171 H 14.274 0.298875 -0.600762 0
M  V30 172 H 16.818 0.292736 -2.02394 0
M  V30 173 H 14.973 2.63965 -2.83551 0
M  V30 174 H 15.387 1.85573 -4.90574 0
M  V30 175 H 16.861 3.4565 -4.30384 0
M  V30 176 H 17.338 3.53286 -2.60932 0
M  V30 177 H 17.944 2.2108 -3.63323 0
M  V30 178 N 16.2591 1.48442 0.529413 0
M  V30 179 C 17.4841 1.60406 1.31471 0
M  V30 180 C 17.9091 0.264738 1.86228 0
M  V30 181 O 17.2671 -0.763668 1.64432 0
M  V30 182 C 17.3151 2.65419 2.44101 0
M  V30 183 O 16.4191 2.22618 3.47153 0
M  V30 184 H 15.7601 0.537863 0.389357 0
M  V30 185 H 18.2901 1.94432 0.636965 0
M  V30 186 H 18.3001 2.86709 2.90279 0
M  V30 187 H 16.9751 3.62652 2.03608 0
M  V30 188 H 15.5521 2.11543 3.0709 0
M  V30 189 N 17.7372 -0.778329 1.37039 0
M  V30 190 C 18.9772 -1.54973 1.33276 0
M  V30 191 C 19.3412 -1.91816 -0.0839376 0
M  V30 192 O 20.5422 -2.6767 -0.246228 0
M  V30 193 C 18.8132 -2.78517 2.23971 0
M  V30 194 S 20.3722 -3.6865 2.37997 0
M  V30 195 H 17.1902 -0.530639 0.473226 0
M  V30 196 H 19.7922 -0.915806 1.72723 0
M  V30 197 H 18.4962 -2.4952 3.25835 0
M  V30 198 H 18.0272 -3.46875 1.85584 0
M  V30 199 H 20.0422 -4.70182 1.58567 0
M  V30 200 N 19.2153 -1.21501 -1.00376 0
M  V30 201 C 20.4553 -1.04444 -1.75701 0
M  V30 202 C 20.8193 0.414644 -1.87469 0
M  V30 203 O 22.0203 0.705763 -2.59369 0
M  V30 204 C 20.2913 -1.72389 -3.13077 0
M  V30 205 S 21.8503 -1.70604 -4.04277 0
M  V30 206 H 18.6683 -0.374249 -0.604532 0
M  V30 207 H 21.2703 -1.54267 -1.20091 0
M  V30 208 H 19.9743 -2.77734 -3.02146 0
M  V30 209 H 19.5053 -1.22751 -3.73759 0
M  V30 210 H 21.5203 -0.748012 -4.9053 0
M  V30 211 N 20.6934 1.19889 -1.02296 0
M  V30 212 C 21.9184 1.9393 -0.735237 0
M  V30 213 C 22.3434 1.74639 0.698782 0
M  V30 214 O 21.7014 1.04481 1.48167 0
M  V30 215 C 21.7494 3.43916 -1.08417 0
M  V30 216 O 20.8534 4.11917 -0.199446 0
M  V30 217 H 20.1944 0.605645 -0.272196 0
M  V30 218 H 22.7244 1.52137 -1.36804 0
M  V30 219 H 22.7344 3.9456 -1.03856 0
M  V30 220 H 21.4094 3.5728 -2.12894 0
M  V30 221 H 19.9864 3.71666 -0.303136 0
M  V30 222 N 22.1715 0.800033 1.35784 0
M  V30 223 C 23.3995 0.389606 2.03199 0
M  V30 224 C 23.8145 -0.997375 1.60306 0
M  V30 225 O 23.1715 -1.64154 0.797481 0
M  V30 226 C 23.2225 0.455855 3.58614 0
M  V30 227 O 22.9435 1.78815 3.99946 0
M  V30 228 C 24.4445 0.0374032 4.43284 0
M  V30 229 H 21.6645 0.159132 0.651857 0
M  V30 230 H 24.2085 1.08183 1.73541 0
M  V30 231 H 22.3635 -0.188057 3.86943 0
M  V30 232 H 22.7775 1.74636 4.94573 0
M  V30 233 H 24.2515 0.134882 5.51835 0
M  V30 234 H 24.7285 -1.01651 4.27275 0
M  V30 235 H 25.3345 0.654215 4.20238 0
M  V30 236 N 23.6496 -1.47581 0.552962 0
M  V30 237 C 24.8746 -2.07378 0.0300593 0
M  V30 238 C 25.2996 -1.40355 -1.25229 0
M  V30 239 O 24.6576 -0.477099 -1.7491 0
M  V30 240 C 24.7056 -3.60274 -0.153231 0
M  V30 241 O 23.8096 -3.94041 -1.21678 0
M  V30 242 H 23.1506 -0.662158 0.0494182 0
M  V30 243 H 25.6806 -1.89662 0.767434 0
M  V30 244 H 25.6906 -4.0633 -0.368761 0
M  V30 245 H 24.3656 -4.08455 0.783397 0
M  V30 246 H 22.9426 -3.59735 -0.982079 0
M  V30 247 N 25.1277 -0.289203 -1.54924 0
M  V30 248 C 26.3527 0.329299 -2.04769 0
M  V30 249 C 26.7777 1.4763 -1.16564 0
M  V30 250 O 26.1357 1.80527 -0.167186 0
M  V30 251 C 26.1837 0.774438 -3.52186 0
M  V30 252 O 25.2877 1.88038 -3.67036 0
M  V30 253 H 24.6287 0.0659259 -0.660719 0
M  V30 254 H 27.1587 -0.42761 -2.00082 0
M  V30 255 H 27.1687 1.06642 -3.93816 0
M  V30 256 H 25.8437 -0.0646707 -4.1585 0
M  V30 257 H 24.4207 1.58985 -3.3731 0
M  V30 258 N 26.6058 1.57591 -0.0167156 0
M  V30 259 C 27.8458 1.93145 0.668902 0
M  V30 260 C 28.2098 0.892406 1.7 0
M  V30 261 O 29.4108 1.13373 2.43721 0
M  V30 262 C 27.6818 3.33678 1.28039 0
M  V30 263 S 29.2408 3.91142 1.9888 0
M  V30 264 H 26.0588 0.67593 0.220545 0
M  V30 265 H 28.6608 1.95347 -0.0774105 0
M  V30 266 H 27.3648 4.07126 0.517339 0
M  V30 267 H 26.8958 3.3489 2.06427 0
M  V30 268 H 28.9108 3.73571 3.26587 0
M  V30 269 N 28.0839 -0.256276 1.55502 0
M  V30 270 C 29.3609 -1.00789 1.67633 0
M  V30 271 C 29.7409 -2.03706 0.553826 0
M  V30 272 O 29.0889 -2.24145 -0.443969 0
M  V30 273 C 29.2989 -1.64968 3.07549 0
M  V30 274 C 30.6469 -2.15505 3.65845 0
M  V30 275 O 31.6709 -1.74925 3.1029 0
M  V30 276 O 30.5299 -2.89986 4.63217 0
M  V30 277 H 27.6239 -0.468553 0.681459 0
M  V30 278 H 30.1699 -0.250806 1.67836 0
M  V30 279 H 28.9419 -0.904785 3.80696 0
M  V30 280 H 28.5649 -2.47321 3.11317 0
M  V30 281 N 29.562 -1.4872 -0.521534 0
M  V30 282 C 30.525 -1.63379 -1.60748 0
M  V30 283 C 31.525 -0.50661 -1.52611 0
M  V30 284 O 32.715 -0.772601 -1.5613 0
M  V30 285 C 29.847 -1.61192 -3.00383 0
M  V30 286 H 31.04 -2.60217 -1.49087 0
M  V30 287 H 28.593 -1.37444 -0.744235 0
M  V30 288 H 29.328 -0.65863 -3.17541 0
M  V30 289 H 29.113 -2.43032 -3.07698 0
M  V30 290 H 30.603 -1.7466 -3.7932 0
M  V30 291 N 31.0401 0.771051 -1.3745 0
M  V30 292 C 32.3171 1.519 -1.23231 0
M  V30 293 C 32.6971 2.10383 0.173809 0
M  V30 294 O 32.0451 1.95583 1.18151 0
M  V30 295 C 32.2551 2.59933 -2.32886 0
M  V30 296 C 33.6031 3.27316 -2.70461 0
M  V30 297 O 34.6271 2.70228 -2.32068 0
M  V30 298 O 33.4861 4.30531 -3.36608 0
M  V30 299 H 30.5801 0.672803 -0.480901 0
M  V30 300 H 33.1261 0.807957 -1.49232 0
M  V30 301 H 31.8981 2.14842 -3.27045 0
M  V30 302 H 31.5211 3.38637 -2.08353 0
M  V30 303 N 32.5182 1.22032 0.997298 0
M  V30 304 C 33.7952 0.950823 1.70935 0
M  V30 305 C 34.1752 -0.535292 2.042 0
M  V30 306 O 33.5232 -1.50217 1.72183 0
M  V30 307 C 33.7332 1.84386 2.96315 0
M  V30 308 C 35.0812 2.09732 3.69185 0
M  V30 309 O 36.1052 1.81798 3.06314 0
M  V30 310 O 34.9642 2.57018 4.82291 0
M  V30 311 H 32.0582 0.357204 0.745878 0
M  V30 312 H 34.6042 1.32997 1.05404 0
M  V30 313 H 33.3762 2.84928 2.68201 0
M  V30 314 H 32.9992 1.46602 3.69586 0
M  V30 315 N 33.9963 -1.19345 1.0293 0
M  V30 316 C 34.9063 -2.26245 0.620515 0
M  V30 317 C 35.9223 -1.70486 -0.347928 0
M  V30 318 O 37.0983 -2.00347 -0.205704 0
M  V30 319 C 34.1633 -3.46693 -0.0218957 0
M  V30 320 C 33.2243 -4.17632 0.994102 0
M  V30 321 C 32.4573 -5.32329 0.382253 0
M  V30 322 O 32.6803 -5.64552 -0.814676 0
M  V30 323 O 31.6143 -5.91664 1.10531 0
M  V30 324 H 35.4403 -2.63453 1.51083 0
M  V30 325 H 33.0253 -1.26207 0.799513 0
M  V30 326 H 34.9073 -4.19683 -0.380072 0
M  V30 327 H 33.5823 -3.11333 -0.886209 0
M  V30 328 H 32.4893 -3.4676 1.40387 0
M  V30 329 H 33.8223 -4.56964 1.8288 0
M  V30 330 N 35.4744 -0.807222 -1.35358 0
M  V30 331 C 36.7224 -0.387122 -1.98358 0
M  V30 332 C 37.0434 1.04942 -1.64354 0
M  V30 333 O 36.3134 1.72615 -0.926339 0
M  V30 334 H 34.8934 -0.140154 -0.733734 0
M  V30 335 H 37.5554 -1.0332 -1.6526 0
M  V30 336 H 36.6514 -0.493352 -3.08176 0
M  V30 337 N 36.9525 1.47285 -0.560781 0
M  V30 338 C 38.1985 2.02764 -0.0381184 0
M  V30 339 C 38.5315 1.43384 1.30976 0
M  V30 340 O 37.8065 0.590733 1.85312 0
M  V30 341 C 38.0895 3.60064 0.0511427 0
M  V30 342 C 37.9425 4.2987 -1.32408 0
M  V30 343 C 39.2615 4.33439 0.762795 0
M  V30 344 H 36.3805 0.736841 -0.0153264 0
M  V30 345 H 39.0225 1.75675 -0.723759 0
M  V30 346 H 37.1725 3.83274 0.635065 0
M  V30 347 H 38.8445 4.17989 -1.95148 0
M  V30 348 H 37.0875 3.90085 -1.8978 0
M  V30 349 H 37.7585 5.38478 -1.21431 0
M  V30 350 H 40.2345 4.15243 0.266965 0
M  V30 351 H 39.1105 5.43124 0.794221 0
M  V30 352 H 39.3715 4.02915 1.81966 0
M  V30 353 N 38.4306 0.297415 1.54768 0
M  V30 354 C 39.8466 -0.0560823 1.59501 0
M  V30 355 C 40.0466 -1.52725 1.31444 0
M  V30 356 O 39.1026 -2.27947 1.08611 0
M  V30 357 C 40.4156 0.338631 2.98787 0
M  V30 358 C 41.9636 0.287097 3.11681 0
M  V30 359 C 42.4386 0.656579 4.53269 0
M  V30 360 N 43.9296 0.608977 4.59179 0
M  V30 361 C 44.6646 0.867385 5.66802 0
M  V30 362 N 44.1606 1.19157 6.82476 0
M  V30 363 N 45.9536 0.794687 5.56454 0
M  V30 364 H 38.1046 1.25624 1.71267 0
M  V30 365 H 40.3676 0.509057 0.799728 0
M  V30 366 H 40.0736 1.36263 3.2423 0
M  V30 367 H 39.9476 -0.309508 3.75928 0
M  V30 368 H 42.3346 -0.727649 2.85988 0
M  V30 369 H 42.4156 0.969809 2.36703 0
M  V30 370 H 42.0596 1.66912 4.7969 0
M  V30 371 H 41.9896 -0.0481649 5.26578 0
M  V30 372 H 44.4806 0.369198 3.76092 0
M  V30 373 H 44.7936 1.37482 7.60473 0
M  V30 374 H 43.1386 1.22958 6.84037 0
M  V30 375 H 46.3296 0.541098 4.64962 0
M  V30 376 H 46.5026 0.999445 6.40246 0
M  V30 377 N 39.9087 -1.5758 0.0250728 0
M  V30 378 C 41.1567 -1.91255 -0.653151 0
M  V30 379 C 41.4777 -0.901691 -1.729 0
M  V30 380 O 40.7477 0.0573785 -1.95816 0
M  V30 381 H 39.3277 -0.705942 -0.244243 0
M  V30 382 H 41.9897 -1.94767 0.0719209 0
M  V30 383 H 41.0857 -2.91752 -1.10847 0
M  V30 384 N 41.3868 0.248026 -1.55636 0
M  V30 385 C 42.6148 0.993808 -1.81469 0
M  V30 386 C 43.0298 1.78991 -0.60064 0
M  V30 387 O 42.3868 1.77345 0.430682 0
M  V30 388 C 42.4378 1.93258 -3.05506 0
M  V30 389 O 42.1588 1.16869 -4.22224 0
M  V30 390 C 43.6598 2.79444 -3.4413 0
M  V30 391 H 40.8798 0.292486 -0.603898 0
M  V30 392 H 43.4238 0.271253 -2.02693 0
M  V30 393 H 41.5788 2.60943 -2.86335 0
M  V30 394 H 41.9928 1.80359 -4.92515 0
M  V30 395 H 43.4668 3.41066 -4.34026 0
M  V30 396 H 43.9438 3.50499 -2.64665 0
M  V30 397 H 44.5498 2.17214 -3.65648 0
M  V30 398 N 42.8649 1.48995 0.513639 0
M  V30 399 C 44.1049 1.59452 1.27885 0
M  V30 400 C 44.4689 0.269479 1.90099 0
M  V30 401 O 45.6699 0.249139 2.67643 0
M  V30 402 C 43.9409 2.71277 2.32688 0
M  V30 403 S 45.4999 3.01604 3.18717 0
M  V30 404 H 42.3179 0.562565 0.434789 0
M  V30 405 H 44.9199 1.86595 0.583301 0
M  V30 406 H 43.6239 3.66089 1.8549 0
M  V30 407 H 43.1549 2.46086 3.06929 0
M  V30 408 H 45.1699 2.42155 4.331 0
M  V30 409 N 44.343 -0.763751 1.37857 0
M  V30 410 C 45.253 -1.90817 1.36478 0
M  V30 411 C 46.269 -1.71997 0.263248 0
M  V30 412 O 47.445 -1.95095 0.499979 0
M  V30 413 C 44.51 -3.2605 1.17864 0
M  V30 414 C 43.571 -3.57467 2.3773 0
M  V30 415 C 42.804 -4.86249 2.19995 0
M  V30 416 O 43.027 -5.57884 1.18836 0
M  V30 417 O 41.961 -5.16911 3.08361 0
M  V30 418 H 45.787 -1.94933 2.32884 0
M  V30 419 H 43.372 -0.907619 1.1867 0
M  V30 420 H 45.254 -4.06924 1.09504 0
M  V30 421 H 43.929 -3.22769 0.245372 0
M  V30 422 H 42.836 -2.76796 2.51664 0
M  V30 423 H 44.169 -3.655 3.29652 0
M  V30 424 N 45.8211 -1.22559 -0.990812 0
M  V30 425 C 47.0981 -0.959875 -1.70428 0
M  V30 426 C 47.4781 0.524455 -2.04481 0
M  V30 427 O 46.8261 1.49302 -1.72977 0
M  V30 428 C 47.0361 -1.85955 -2.95333 0
M  V30 429 C 48.3841 -2.11687 -3.68068 0
M  V30 430 O 49.4081 -1.8342 -3.05345 0
M  V30 431 O 48.2671 -2.59572 -4.80921 0
M  V30 432 H 45.3611 -0.361154 -0.743974 0
M  V30 433 H 47.9071 -1.33554 -1.04697 0
M  V30 434 H 46.6791 -2.86346 -2.66687 0
M  V30 435 H 46.3021 -1.4856 -3.68803 0
M  V30 436 N 47.2992 1.18797 -1.03562 0
M  V30 437 C 48.2622 2.20464 -0.626769 0
M  V30 438 C 49.2622 1.57721 0.313173 0
M  V30 439 O 50.4522 1.73917 0.0992615 0
M  V30 440 C 47.5842 3.40802 0.0818498 0
M  V30 441 H 48.7772 2.58149 -1.5264 0
M  V30 442 H 46.3302 1.32593 -0.827578 0
M  V30 443 H 47.0652 3.08642 0.995518 0
M  V30 444 H 46.8502 3.8758 -0.593652 0
M  V30 445 H 48.3402 4.16092 0.354584 0
M  V30 446 N 48.7773 0.814389 1.34928 0
M  V30 447 C 50.0023 0.410097 2.03305 0
M  V30 448 C 50.4273 -0.973464 1.60951 0
M  V30 449 O 49.7853 -1.63185 0.789964 0
M  V30 450 C 49.8333 0.51049 3.56968 0
M  V30 451 O 48.9373 -0.473035 4.09678 0
M  V30 452 H 48.2783 0.170088 0.641846 0
M  V30 453 H 50.8083 1.10244 1.72358 0
M  V30 454 H 50.8183 0.383135 4.06197 0
M  V30 455 H 49.4933 1.51963 3.87144 0
M  V30 456 H 48.0703 -0.305272 3.71648 0
M  V30 457 N 50.2554 -1.46986 0.568584 0
M  V30 458 C 51.1854 -2.32946 -0.160753 0
M  V30 459 C 52.1664 -1.44487 -0.897631 0
M  V30 460 O 53.3514 -1.73327 -0.875867 0
M  V30 461 C 50.4814 -3.26494 -1.18403 0
M  V30 462 C 49.4354 -4.24282 -0.562895 0
M  V30 463 C 48.7614 -5.07236 -1.69163 0
M  V30 464 C 50.0614 -5.19989 0.490761 0
M  V30 465 H 51.7554 -2.94175 0.556916 0
M  V30 466 H 49.3014 -1.4146 0.26927 0
M  V30 467 H 51.2544 -3.85477 -1.70251 0
M  V30 468 H 49.9784 -2.63343 -1.93179 0
M  V30 469 H 48.6374 -3.66541 -0.0656164 0
M  V30 470 H 48.2854 -4.4048 -2.42871 0
M  V30 471 H 47.9854 -5.7345 -1.28174 0
M  V30 472 H 49.5094 -5.6908 -2.21314 0
M  V30 473 H 50.9234 -5.73271 0.0579047 0
M  V30 474 H 49.3204 -5.94469 0.820165 0
M  V30 475 H 50.3904 -4.64777 1.3824 0
M  V30 476 N 51.7335 -0.305618 -1.54608 0
M  V30 477 C 52.9735 0.303114 -2.0214 0
M  V30 478 C 53.3375 1.50737 -1.18921 0
M  V30 479 O 54.5385 2.18778 -1.56172 0
M  V30 480 C 52.8095 0.646332 -3.51507 0
M  V30 481 S 54.3685 1.23727 -4.20995 0
M  V30 482 H 51.1865 0.0927643 -0.704923 0
M  V30 483 H 53.7885 -0.434566 -1.90609 0
M  V30 484 H 52.4925 -0.238541 -4.09706 0
M  V30 485 H 52.0235 1.41468 -3.67084 0
M  V30 486 H 54.0385 2.52489 -4.27158 0
M  V30 487 N 53.2116 1.57565 -0.0334293 0
M  V30 488 C 54.1586 2.10478 0.946981 0
M  V30 489 C 55.1286 1.00787 1.32027 0
M  V30 490 O 56.3136 1.28232 1.41284 0
M  V30 491 C 53.4536 2.63994 2.22263 0
M  V30 492 C 52.5666 3.87709 1.90541 0
M  V30 493 C 51.7016 4.29604 3.12433 0
M  V30 494 C 50.7406 5.46065 2.76549 0
M  V30 495 N 49.8776 5.83096 3.9108 0
M  V30 496 H 54.7176 2.93963 0.488846 0
M  V30 497 H 52.2546 1.45296 0.22969 0
M  V30 498 H 54.2126 2.93114 2.96884 0
M  V30 499 H 52.8426 1.83333 2.65685 0
M  V30 500 H 51.8946 3.65291 1.06144 0
M  V30 501 H 53.2066 4.72403 1.60116 0
M  V30 502 H 52.3606 4.60182 3.9537 0
M  V30 503 H 51.0996 3.43685 3.46023 0
M  V30 504 H 50.1046 5.15176 1.92026 0
M  V30 505 H 51.3296 6.33685 2.44171 0
M  V30 506 H 49.2756 5.00132 4.24504 0
M  V30 507 H 49.1926 6.6244 3.64293 0
M  V30 508 H 50.4606 6.18282 4.74708 0
M  V30 509 N 54.6897 -0.239769 1.55765 0
M  V30 510 C 56.1057 -0.588624 1.48349 0
M  V30 511 C 56.3057 -1.88005 0.72502 0
M  V30 512 O 55.3617 -2.51186 0.257269 0
M  V30 513 C 56.6747 -0.68474 2.928 0
M  V30 514 C 58.2227 -0.77659 3.03213 0
M  V30 515 C 58.6977 -0.904207 4.48986 0
M  V30 516 N 60.1887 -0.968896 4.52953 0
M  V30 517 C 60.9237 -1.08703 5.63002 0
M  V30 518 N 60.4197 -1.17026 6.82845 0
M  V30 519 N 62.2127 -1.12074 5.50814 0
M  V30 520 H 54.3637 0.607911 2.03515 0
M  V30 521 H 56.6267 0.21083 0.924259 0
M  V30 522 H 56.3327 0.194284 3.51163 0
M  V30 523 H 56.2067 -1.55435 3.43686 0
M  V30 524 H 58.5937 -1.64606 2.44926 0
M  V30 525 H 58.6747 0.118315 2.55526 0
M  V30 526 H 58.3187 -0.0392633 5.07885 0
M  V30 527 H 58.2487 -1.81426 4.9436 0
M  V30 528 H 60.7397 -0.915633 3.6664 0
M  V30 529 H 61.0527 -1.25966 7.62465 0
M  V30 530 H 59.3977 -1.13971 6.85591 0
M  V30 531 H 62.5887 -1.05226 4.5612 0
M  V30 532 H 62.7617 -1.20936 6.36615 0
M  V30 533 N 56.1678 -1.49265 -0.50573 0
M  V30 534 C 57.4148 -1.58513 -1.26015 0
M  V30 535 C 57.7428 -0.26972 -1.92621 0
M  V30 536 O 56.9978 0.741997 -1.81088 0
M  V30 537 C 57.2968 -2.69008 -2.35308 0
M  V30 538 C 56.9628 -4.10662 -1.86192 0
M  V30 539 C 55.6248 -4.49212 -1.72516 0
M  V30 540 C 57.9768 -4.99336 -1.49375 0
M  V30 541 C 55.3048 -5.74214 -1.20394 0
M  V30 542 C 57.6568 -6.24852 -0.987072 0
M  V30 543 C 56.3208 -6.62236 -0.836669 0
M  V30 544 H 55.5908 -0.580041 -0.461122 0
M  V30 545 H 58.2378 -1.83078 -0.561665 0
M  V30 546 H 56.5428 -2.38396 -3.10926 0
M  V30 547 H 58.2398 -2.73373 -2.93374 0
M  V30 548 H 54.8298 -3.8023 -1.97795 0
M  V30 549 H 59.0138 -4.70212 -1.5879 0
M  V30 550 H 54.2698 -6.01883 -1.07458 0
M  V30 551 H 58.4438 -6.92944 -0.692983 0
M  V30 552 H 56.0708 -7.58979 -0.430607 0
M  V30 553 N 57.6459 0.756429 -1.3826 0
M  V30 554 C 58.6089 1.85176 -1.35065 0
M  V30 555 C 59.6089 1.58818 -0.251703 0
M  V30 556 O 60.7989 1.66615 -0.508433 0
M  V30 557 C 57.9309 3.22596 -1.10201 0
M  V30 558 H 59.1239 1.89417 -2.3251 0
M  V30 559 H 56.6769 0.95783 -1.23512 0
M  V30 560 H 57.4119 3.24025 -0.133504 0
M  V30 561 H 57.1969 3.43122 -1.89762 0
M  V30 562 H 58.6869 4.02673 -1.10654 0
M  V30 563 N 59.124 1.23083 0.984299 0
M  V30 564 C 60.37 1.06214 1.72761 0
M  V30 565 C 60.703 -0.400584 1.90024 0
M  V30 566 O 59.978 -1.29672 1.44967 0
M  V30 567 C 60.261 1.78375 3.12817 0
M  V30 568 C 60.114 3.32296 3.03149 0
M  V30 569 C 61.433 1.54309 4.12161 0
M  V30 570 H 58.552 0.387251 0.627061 0
M  V30 571 H 61.194 1.51536 1.14616 0
M  V30 572 H 59.344 1.39848 3.62457 0
M  V30 573 H 61.016 3.8032 2.61064 0
M  V30 574 H 59.259 3.6153 2.39747 0
M  V30 575 H 59.93 3.77972 4.02295 0
M  V30 576 H 62.406 1.87791 3.71314 0
M  V30 577 H 61.282 2.07281 5.08258 0
M  V30 578 H 61.543 0.477572 4.39513 0
M  V30 579 N 60.6021 -1.18246 1.0419 0
M  V30 580 C 61.8271 -1.92736 0.765996 0
M  V30 581 C 62.2521 -1.75728 -0.67091 0
M  V30 582 O 61.6101 -1.06825 -1.46486 0
M  V30 583 C 61.6581 -3.42148 1.13875 0
M  V30 584 O 60.7621 -4.11548 0.264954 0
M  V30 585 H 60.1031 -0.601238 0.281797 0
M  V30 586 H 62.6331 -1.49942 1.39207 0
M  V30 587 H 62.6431 -3.92858 1.1012 0
M  V30 588 H 61.3181 -3.53848 2.18551 0
M  V30 589 H 59.8951 -3.71137 0.362226 0
M  V30 590 N 62.0802 -0.821533 -1.34494 0
M  V30 591 C 63.3292 -0.405355 -1.97585 0
M  V30 592 C 63.6422 1.03677 -1.65863 0
M  V30 593 O 64.8482 1.55679 -2.22433 0
M  V30 594 C 63.3042 -0.673861 -3.53535 0
M  V30 595 C 62.9122 -2.12951 -3.94152 0
M  V30 596 C 64.6562 -0.32378 -4.23263 0
M  V30 597 C 62.5632 -2.34298 -5.43009 0
M  V30 598 H 61.4932 -0.147836 -0.739365 0
M  V30 599 H 64.1442 -1.00769 -1.53355 0
M  V30 600 H 62.5262 -0.00137554 -3.96 0
M  V30 601 H 63.7002 -2.84104 -3.62797 0
M  V30 602 H 62.0152 -2.44089 -3.37356 0
M  V30 603 H 64.6122 -0.461126 -5.32708 0
M  V30 604 H 64.9552 0.731586 -4.09821 0
M  V30 605 H 65.4882 -0.950786 -3.8627 0
M  V30 606 H 62.2272 -3.38335 -5.61435 0
M  V30 607 H 61.7472 -1.67687 -5.75883 0
M  V30 608 H 63.4262 -2.16588 -6.09671 0
M  V30 609 N 63.5583 1.46682 -0.576371 0
M  V30 610 C 64.8063 2.02013 -0.0594163 0
M  V30 611 C 65.1273 1.45101 1.30271 0
M  V30 612 O 64.3973 0.633317 1.8538 0
M  V30 613 H 62.9773 0.746759 -0.0189745 0
M  V30 614 H 65.6393 1.79862 -0.750717 0
M  V30 615 H 64.7353 3.12097 0.014345 0
M  V30 616 N 65.0364 0.313813 1.54444 0
M  V30 617 C 66.2664 -0.293491 2.04505 0
M  V30 618 C 66.6744 -1.47086 1.19005 0
M  V30 619 O 66.0174 -1.82481 0.211257 0
M  V30 620 C 66.0794 -0.800455 3.50475 0
M  V30 621 C 65.7434 0.253322 4.56297 0
M  V30 622 C 66.7404 1.08612 5.08428 0
M  V30 623 C 64.4254 0.398708 5.00715 0
M  V30 624 C 66.4194 2.05013 6.0353 0
M  V30 625 C 64.1064 1.36614 5.95634 0
M  V30 626 C 65.1044 2.19033 6.46926 0
M  V30 627 O 64.7924 3.14134 7.39983 0
M  V30 628 H 64.5244 -0.0658325 0.672787 0
M  V30 629 H 67.0784 0.455177 2.00293 0
M  V30 630 H 65.3084 -1.59987 3.52053 0
M  V30 631 H 66.9974 -1.32504 3.83663 0
M  V30 632 H 67.7634 0.984736 4.74898 0
M  V30 633 H 63.6424 -0.23289 4.60411 0
M  V30 634 H 67.1864 2.69382 6.4349 0
M  V30 635 H 63.0834 1.4682 6.28581 0
M  V30 636 H 63.8514 3.0926 7.57826 0
M  V30 637 N 66.5145 -1.57545 0.0417849 0
M  V30 638 C 67.7605 -1.93424 -0.629168 0
M  V30 639 C 68.1155 -0.919564 -1.69002 0
M  V30 640 O 67.4085 0.0626178 -1.91498 0
M  V30 641 C 67.6025 -3.33794 -1.27735 0
M  V30 642 C 67.4315 -4.48822 -0.280806 0
M  V30 643 C 66.2015 -5.05148 0.123869 0
M  V30 644 C 68.3995 -5.12148 0.470012 0
M  V30 645 N 66.3815 -6.03703 1.11426 0
M  V30 646 C 67.7525 -6.05921 1.31377 0
M  V30 647 C 69.8075 -4.95078 0.529343 0
M  V30 648 C 68.5105 -6.84459 2.21152 0
M  V30 649 C 70.5365 -5.74235 1.41448 0
M  V30 650 C 69.8985 -6.67634 2.24598 0
M  V30 651 H 65.9975 -0.755418 -0.202158 0
M  V30 652 H 68.5815 -1.94378 0.111923 0
M  V30 653 H 66.7525 -3.33635 -1.98852 0
M  V30 654 H 68.4845 -3.56988 -1.90635 0
M  V30 655 H 65.2395 -4.72923 -0.253178 0
M  V30 656 H 65.6635 -6.57674 1.60607 0
M  V30 657 H 70.3055 -4.22683 -0.0992798 0
M  V30 658 H 68.0235 -7.56151 2.85063 0
M  V30 659 H 71.6095 -5.63057 1.46484 0
M  V30 660 H 70.4895 -7.27817 2.9198 0
M  V30 661 N 67.9926 0.231505 -1.5589 0
M  V30 662 C 68.9426 1.29007 -1.87993 0
M  V30 663 C 69.9266 1.42764 -0.742102 0
M  V30 664 O 71.1186 1.45747 -1.00433 0
M  V30 665 C 68.2476 2.6425 -2.1915 0
M  V30 666 C 67.3336 2.54435 -3.39299 0
M  V30 667 N 67.7246 2.14262 -4.58176 0
M  V30 668 C 66.0226 2.85416 -3.42715 0
M  V30 669 C 66.7236 2.15455 -5.40328 0
M  V30 670 N 65.6996 2.55558 -4.79783 0
M  V30 671 H 69.5016 0.970213 -2.77424 0
M  V30 672 H 67.0156 0.440097 -1.56323 0
M  V30 673 H 69.0126 3.40665 -2.40319 0
M  V30 674 H 67.6726 2.9709 -1.31025 0
M  V30 675 H 68.6836 1.85554 -4.83518 0
M  V30 676 H 65.3606 3.22693 -2.64906 0
M  V30 677 H 66.7506 1.86605 -6.45467 0
M  V30 678 N 69.4707 1.49531 0.497807 0
M  V30 679 C 70.7477 1.49682 1.25915 0
M  V30 680 C 71.1277 0.226339 2.09883 0
M  V30 681 O 70.4757 -0.791189 2.14365 0
M  V30 682 C 70.6857 2.77755 2.11313 0
M  V30 683 C 72.0337 3.27371 2.70395 0
M  V30 684 O 73.0577 2.78894 2.21578 0
M  V30 685 O 71.9167 4.11808 3.59272 0
M  V30 686 H 69.0107 0.599228 0.56996 0
M  V30 687 H 71.5567 1.61798 0.511816 0
M  V30 688 H 70.3287 3.61713 1.49264 0
M  V30 689 H 69.9517 2.68515 2.93233 0
M  V30 690 N 70.9488 -0.749086 1.3866 0
M  V30 691 C 72.3598 -1.32664 1.31366 0
M  V30 692 C 72.7108 -1.96179 -0.028484 0
M  V30 693 O 71.8358 -1.9537 -0.93057 0
M  V30 694 C 72.4308 -2.41219 2.37905 0
M  V30 695 C 70.9898 -2.94684 2.34176 0
M  V30 696 C 70.1368 -1.68108 2.20533 0
M  V30 697 H 73.0878 -0.547628 1.48952 0
M  V30 698 H 73.1088 -3.21268 2.0388 0
M  V30 699 H 72.6208 -1.94962 3.35576 0
M  V30 700 H 70.7218 -3.45258 1.401 0
M  V30 701 H 70.8348 -3.48757 3.2849 0
M  V30 702 H 69.1988 -1.91907 1.67463 0
M  V30 703 H 69.9818 -1.23923 3.20153 0
M  V30 704 N 72.4269 -1.23603 -0.977757 0
M  V30 705 C 73.6569 -1.09487 -1.75203 0
M  V30 706 C 74.0649 0.356321 -1.85814 0
M  V30 707 O 73.4079 1.25816 -1.33851 0
M  V30 708 C 73.4699 -1.64905 -3.19447 0
M  V30 709 C 73.1339 -3.13688 -3.32338 0
M  V30 710 C 74.1309 -4.10953 -3.18455 0
M  V30 711 C 71.8159 -3.53449 -3.56902 0
M  V30 712 C 73.8099 -5.45962 -3.28944 0
M  V30 713 C 71.4969 -4.88602 -3.6703 0
M  V30 714 C 72.4949 -5.84668 -3.53062 0
M  V30 715 O 72.1829 -7.17365 -3.62826 0
M  V30 716 H 71.9149 -0.38367 -0.556573 0
M  V30 717 H 74.4689 -1.6398 -1.23693 0
M  V30 718 H 72.6989 -1.04835 -3.72218 0
M  V30 719 H 74.3879 -1.46226 -3.78646 0
M  V30 720 H 75.1539 -3.81577 -2.99372 0
M  V30 721 H 71.0329 -2.79188 -3.66844 0
M  V30 722 H 74.5769 -6.20925 -3.17958 0
M  V30 723 H 70.4739 -5.17653 -3.85623 0
M  V30 724 H 71.2419 -7.2515 -3.79605 0
M  V30 725 N 73.905 1.17692 -1.04816 0
M  V30 726 C 75.154 1.87192 -0.751132 0
M  V30 727 C 75.467 1.8169 0.724441 0
M  V30 728 O 76.673 2.46625 1.13527 0
M  V30 729 C 75.129 3.35857 -1.29338 0
M  V30 730 C 74.737 3.4987 -2.79812 0
M  V30 731 C 76.481 4.10709 -1.07322 0
M  V30 732 C 74.388 4.92536 -3.27356 0
M  V30 733 H 73.318 0.701162 -0.277288 0
M  V30 734 H 75.969 1.32932 -1.26496 0
M  V30 735 H 74.351 3.89631 -0.707376 0
M  V30 736 H 75.525 3.06332 -3.44235 0
M  V30 737 H 73.84 2.88433 -3.00325 0
M  V30 738 H 76.437 5.15952 -1.4035 0
M  V30 739 H 76.78 4.16299 -0.0108001 0
M  V30 740 H 77.313 3.6313 -1.62423 0
M  V30 741 H 74.052 4.92119 -4.33012 0
M  V30 742 H 73.572 5.3676 -2.67673 0
M  V30 743 H 75.251 5.61288 -3.21815 0
M  V30 744 N 75.3831 0.828654 1.34056 0
M  V30 745 C 76.3151 0.212052 2.28217 0
M  V30 746 C 77.3281 -0.601362 1.51286 0
M  V30 747 O 78.5171 -0.430104 1.73241 0
M  V30 748 C 75.6171 -0.72088 3.31144 0
M  V30 749 C 74.7901 0.0509587 4.3737 0
M  V30 750 C 73.8491 -0.803766 5.20025 0
M  V30 751 O 72.8751 -0.246667 5.68665 0
M  V30 752 N 74.0771 -2.1227 5.40298 0
M  V30 753 H 76.8421 1.02105 2.81771 0
M  V30 754 H 74.4031 0.686153 1.46641 0
M  V30 755 H 76.3951 -1.29742 3.8334 0
M  V30 756 H 74.9651 -1.43061 2.77943 0
M  V30 757 H 74.1851 0.808831 3.85813 0
M  V30 758 H 75.4731 0.582065 5.0546 0
M  V30 759 H 74.8711 -2.59898 5.02464 0
M  V30 760 H 73.4281 -2.64796 5.95589 0
M  V30 761 N 76.8612 -1.46375 0.584142 0
M  V30 762 C 77.8112 -2.27371 -0.169232 0
M  V30 763 C 78.7952 -1.35955 -0.860523 0
M  V30 764 O 79.9872 -1.60119 -0.754382 0
M  V30 765 C 77.1162 -3.22334 -1.18134 0
M  V30 766 C 76.2022 -4.21235 -0.492088 0
M  V30 767 N 76.5932 -5.03766 0.453129 0
M  V30 768 C 74.8912 -4.39773 -0.742652 0
M  V30 769 C 75.5922 -5.75366 0.85609 0
M  V30 770 N 74.5682 -5.43214 0.204926 0
M  V30 771 H 78.3702 -2.88572 0.557097 0
M  V30 772 H 75.8842 -1.57242 0.406042 0
M  V30 773 H 77.8812 -3.79071 -1.73525 0
M  V30 774 H 76.5412 -2.62693 -1.90847 0
M  V30 775 H 77.5522 -5.11227 0.828723 0
M  V30 776 H 74.2292 -3.91279 -1.45625 0
M  V30 777 H 75.6192 -6.5172 1.63434 0
M  V30 778 N 78.3393 -0.321999 -1.54275 0
M  V30 779 C 79.5863 0.281044 -2.0054 0
M  V30 780 C 79.9143 1.52265 -1.21019 0
M  V30 781 O 79.1693 1.93687 -0.279982 0
M  V30 782 C 79.4683 0.661769 -3.5122 0
M  V30 783 C 79.1343 -0.480482 -4.48333 0
M  V30 784 C 77.7963 -0.794005 -4.74604 0
M  V30 785 C 80.1483 -1.24783 -5.06042 0
M  V30 786 C 77.4763 -1.87763 -5.55844 0
M  V30 787 C 79.8283 -2.32153 -5.88462 0
M  V30 788 C 78.4923 -2.64089 -6.13036 0
M  V30 789 H 77.7623 0.102841 -0.733829 0
M  V30 790 H 80.4093 -0.445453 -1.86247 0
M  V30 791 H 78.7143 1.46867 -3.63232 0
M  V30 792 H 80.4113 1.13989 -3.84457 0
M  V30 793 H 77.0013 -0.226039 -4.28004 0
M  V30 794 H 81.1853 -1.01887 -4.85729 0
M  V30 795 H 76.4413 -2.12954 -5.73115 0
M  V30 796 H 80.6153 -2.92057 -6.32199 0
M  V30 797 H 78.2423 -3.48185 -6.75775 0
M  V30 798 N 79.8174 1.5752 -0.0501392 0
M  V30 799 C 81.0634 1.92936 0.624798 0
M  V30 800 C 81.3964 0.928685 1.70555 0
M  V30 801 O 80.6714 -0.0454779 1.94447 0
M  V30 802 C 80.9544 3.38737 1.22185 0
M  V30 803 C 80.8074 4.49552 0.149218 0
M  V30 804 C 82.1264 3.84913 2.13378 0
M  V30 805 H 79.2454 0.701604 0.225657 0
M  V30 806 H 81.8874 1.89671 -0.111693 0
M  V30 807 H 80.0374 3.4165 1.84953 0
M  V30 808 H 81.7094 4.58768 -0.482648 0
M  V30 809 H 79.9524 4.30638 -0.522841 0
M  V30 810 H 80.6234 5.48653 0.606966 0
M  V30 811 H 83.0994 3.8387 1.60572 0
M  V30 812 H 81.9754 4.87584 2.52097 0
M  V30 813 H 82.2364 3.21611 3.03346 0
M  V30 814 N 81.2955 -0.223234 1.56011 0
M  V30 815 C 82.7115 -0.572856 1.48965 0
M  V30 816 C 82.9115 -1.87225 0.74492 0
M  V30 817 O 81.9675 -2.50899 0.283896 0
M  V30 818 C 83.2805 -0.653646 2.9351 0
M  V30 819 C 84.8285 -0.744386 3.0402 0
M  V30 820 C 85.3035 -0.856535 4.49919 0
M  V30 821 N 86.7945 -0.9208 4.53955 0
M  V30 822 C 87.5295 -1.02726 5.64123 0
M  V30 823 N 87.0255 -1.09777 6.84047 0
M  V30 824 N 88.8185 -1.06226 5.51971 0
M  V30 825 H 80.9695 0.629462 2.02858 0
M  V30 826 H 83.2325 0.220621 0.921971 0
M  V30 827 H 82.9385 0.231518 3.50937 0
M  V30 828 H 82.8125 -1.51781 3.45315 0
M  V30 829 H 85.1995 -1.61999 2.46658 0
M  V30 830 H 85.2805 0.14541 2.55386 0
M  V30 831 H 84.9245 0.0146069 5.07898 0
M  V30 832 H 84.8545 -1.76172 4.96257 0
M  V30 833 H 87.3455 -0.876694 3.6759 0
M  V30 834 H 87.6585 -1.17872 7.63758 0
M  V30 835 H 86.0035 -1.06693 6.86762 0
M  V30 836 H 89.1945 -1.00382 4.5721 0
M  V30 837 H 89.3675 -1.14177 6.37862 0
M  V30 838 N 82.7736 -1.49793 -0.48987 0
M  V30 839 C 83.7036 -1.70201 -1.59856 0
M  V30 840 C 84.6846 -0.55076 -1.60937 0
M  V30 841 O 85.8696 -0.787841 -1.77501 0
M  V30 842 C 82.9996 -1.77882 -2.98287 0
M  V30 843 C 81.9536 -2.92907 -3.12073 0
M  V30 844 C 81.2796 -2.85712 -4.51965 0
M  V30 845 C 82.5796 -4.3369 -2.91051 0
M  V30 846 H 84.2736 -2.63025 -1.43032 0
M  V30 847 H 81.8196 -1.26574 -0.686664 0
M  V30 848 H 83.7726 -1.90744 -3.75759 0
M  V30 849 H 82.4966 -0.816653 -3.16225 0
M  V30 850 H 81.1556 -2.79665 -2.37029 0
M  V30 851 H 80.8036 -1.8738 -4.66795 0
M  V30 852 H 80.5036 -3.62921 -4.62128 0
M  V30 853 H 82.0276 -3.00598 -5.31482 0
M  V30 854 H 83.4416 -4.47555 -3.58284 0
M  V30 855 H 81.8386 -5.12205 -3.12675 0
M  V30 856 H 82.9086 -4.47362 -1.87071 0
M  V30 857 N 84.2517 0.741722 -1.39055 0
M  V30 858 C 85.4767 1.53607 -1.39354 0
M  V30 859 C 85.9017 1.88096 0.0116905 0
M  V30 860 O 85.2597 1.5143 0.996924 0
M  V30 861 C 85.3077 2.80441 -2.26682 0
M  V30 862 O 84.4117 3.76088 -1.69208 0
M  V30 863 H 83.7527 0.464142 -0.474835 0
M  V30 864 H 86.2827 0.915665 -1.82967 0
M  V30 865 H 86.2927 3.29246 -2.40959 0
M  V30 866 H 84.9677 2.5467 -3.2881 0
M  V30 867 H 83.5447 3.34833 -1.64138 0
M  V30 868 N 85.7298 1.2412 0.971189 0
M  V30 869 C 86.6768 1.0305 2.06517 0
M  V30 870 C 87.6468 -0.0550666 1.66009 0
M  V30 871 O 88.8318 0.0988688 1.90544 0
M  V30 872 C 85.9718 0.637653 3.39158 0
M  V30 873 C 85.0848 1.79633 3.92882 0
M  V30 874 C 84.2198 1.34939 5.13775 0
M  V30 875 C 83.2588 2.47823 5.59687 0
M  V30 876 N 82.3958 2.04022 6.71803 0
M  V30 877 H 87.2358 1.96685 2.23873 0
M  V30 878 H 84.7728 0.979694 1.09729 0
M  V30 879 H 86.7308 0.390931 4.15364 0
M  V30 880 H 85.3608 -0.261693 3.21737 0
M  V30 881 H 84.4128 2.15681 3.13346 0
M  V30 882 H 85.7248 2.64466 4.22918 0
M  V30 883 H 84.8788 1.06134 5.97345 0
M  V30 884 H 83.6178 0.471557 4.85415 0
M  V30 885 H 82.6228 2.77392 4.74693 0
M  V30 886 H 83.8478 3.36158 5.90063 0
M  V30 887 H 81.7938 1.18632 6.45184 0
M  V30 888 H 81.7108 2.82409 7.01271 0
M  V30 889 H 82.9788 1.78347 7.58823 0
M  V30 890 N 87.2079 -1.17134 1.05439 0
M  V30 891 C 88.1179 -2.24878 0.668365 0
M  V30 892 C 89.1339 -1.71186 -0.311687 0
M  V30 893 O 90.3099 -2.00738 -0.163161 0
M  V30 894 C 87.3749 -3.46662 0.051648 0
M  V30 895 C 86.4359 -4.15429 1.08246 0
M  V30 896 C 85.6689 -5.31399 0.495082 0
M  V30 897 O 85.8919 -5.66153 -0.694743 0
M  V30 898 O 84.8259 -5.89187 1.23056 0
M  V30 899 H 88.6519 -2.60189 1.56637 0
M  V30 900 H 86.2369 -1.24482 0.826104 0
M  V30 901 H 88.1189 -4.20394 -0.290966 0
M  V30 902 H 86.7939 -3.13142 -0.819971 0
M  V30 903 H 85.7009 -3.43704 1.47711 0
M  V30 904 H 87.0339 -4.52982 1.92532 0
M  V30 905 N 88.686 -0.835752 -1.33615 0
M  V30 906 C 90.102 -0.523139 -1.50783 0
M  V30 907 C 90.302 0.950171 -1.77691 0
M  V30 908 O 89.358 1.73411 -1.83534 0
M  V30 909 C 90.671 -1.39378 -2.66448 0
M  V30 910 C 92.219 -1.39223 -2.80332 0
M  V30 911 C 92.694 -2.24765 -3.99055 0
M  V30 912 N 94.185 -2.22458 -4.06284 0
M  V30 913 C 94.92 -2.85386 -4.97336 0
M  V30 914 N 94.416 -3.57354 -5.93523 0
M  V30 915 N 96.209 -2.74872 -4.90308 0
M  V30 916 H 88.36 -1.78952 -1.14411 0
M  V30 917 H 90.623 -0.763297 -0.562212 0
M  V30 918 H 90.329 -2.44061 -2.53234 0
M  V30 919 H 90.203 -1.0676 -3.61776 0
M  V30 920 H 92.59 -0.353136 -2.92979 0
M  V30 921 H 92.671 -1.75846 -1.85773 0
M  V30 922 H 92.315 -3.28732 -3.87167 0
M  V30 923 H 92.245 -1.85485 -4.92852 0
M  V30 924 H 94.736 -1.70119 -3.37443 0
M  V30 925 H 95.049 -4.02584 -6.59656 0
M  V30 926 H 93.394 -3.61461 -5.93608 0
M  V30 927 H 96.585 -2.18213 -4.14126 0
M  V30 928 H 96.758 -3.24199 -5.61069 0
M  V30 929 N 90.1641 1.46063 -0.591896 0
M  V30 930 C 91.1111 2.30399 0.136069 0
M  V30 931 C 92.0811 1.41169 0.875238 0
M  V30 932 O 93.2661 1.70112 0.86409 0
M  V30 933 C 90.4061 3.25804 1.13781 0
M  V30 934 C 89.5191 4.30134 0.401137 0
M  V30 935 C 88.6541 5.12659 1.39121 0
M  V30 936 C 87.6931 6.0873 0.641462 0
M  V30 937 N 86.8301 6.8409 1.58004 0
M  V30 938 H 91.6701 2.92118 -0.589144 0
M  V30 939 H 89.2071 1.43959 -0.302342 0
M  V30 940 H 91.1651 3.79569 1.73156 0
M  V30 941 H 89.7951 2.65872 1.83062 0
M  V30 942 H 88.8471 3.79152 -0.307826 0
M  V30 943 H 90.1591 4.98458 -0.184565 0
M  V30 944 H 89.3131 5.70747 2.05749 0
M  V30 945 H 88.0521 4.44316 2.01084 0
M  V30 946 H 87.0571 5.49786 -0.0385419 0
M  V30 947 H 88.2821 6.79095 0.0270945 0
M  V30 948 H 86.2281 6.18449 2.18761 0
M  V30 949 H 86.1451 7.48709 1.04738 0
M  V30 950 H 87.4131 7.4673 2.23639 0
M  V30 951 N 91.6422 0.330177 1.54103 0
M  V30 952 C 92.6052 -0.520144 2.2322 0
M  V30 953 C 93.6052 -1.03828 1.22786 0
M  V30 954 O 94.7952 -0.929652 1.4732 0
M  V30 955 C 91.9272 -1.72317 2.94142 0
M  V30 956 H 93.1202 0.0841605 2.99782 0
M  V30 957 H 90.6732 0.0813433 1.56088 0
M  V30 958 H 91.4082 -2.36653 2.21734 0
M  V30 959 H 91.1932 -1.35898 3.67796 0
M  V30 960 H 92.6832 -2.3266 3.46784 0
M  V30 961 N 93.1203 -1.57491 0.0584922 0
M  V30 962 C 94.5313 -1.80526 -0.476138 0
M  V30 963 C 94.8823 -0.971334 -1.70469 0
M  V30 964 O 94.0073 -0.190012 -2.15564 0
M  V30 965 C 94.6023 -3.27424 -0.870587 0
M  V30 966 C 93.1613 -3.51351 -1.35015 0
M  V30 967 C 92.3083 -2.75343 -0.32887 0
M  V30 968 H 95.2593 -1.56133 0.284312 0
M  V30 969 H 95.2803 -3.38745 -1.73299 0
M  V30 970 H 94.7923 -3.88093 0.0237627 0
M  V30 971 H 92.8933 -2.95971 -2.26345 0
M  V30 972 H 93.0063 -4.60059 -1.33726 0
M  V30 973 H 91.3703 -2.417 -0.803321 0
M  V30 974 H 92.1533 -3.38743 0.557521 0
M  V30 975 N 94.5984 0.214957 -1.56127 0
M  V30 976 C 95.5084 1.28727 -1.96129 0
M  V30 977 C 96.5244 1.50916 -0.866044 0
M  V30 978 O 97.7004 1.63918 -1.17016 0
M  V30 979 C 94.7654 2.61569 -2.27558 0
M  V30 980 C 93.8264 2.47625 -3.50685 0
M  V30 981 C 93.0594 3.74132 -3.80606 0
M  V30 982 O 93.2824 4.77438 -3.12104 0
M  V30 983 O 92.2164 3.70849 -4.74083 0
M  V30 984 H 96.0424 0.977855 -2.87527 0
M  V30 985 H 93.6274 0.418358 -1.43423 0
M  V30 986 H 95.5094 3.40012 -2.48938 0
M  V30 987 H 94.1844 2.92178 -1.39332 0
M  V30 988 H 93.0914 1.67361 -3.34576 0
M  V30 989 H 94.4244 2.21954 -4.39315 0
M  V30 990 N 96.0765 1.50051 0.48192 0
M  V30 991 C 97.3255 1.59741 1.23149 0
M  V30 992 C 97.6385 0.298163 1.93314 0
M  V30 993 O 98.8445 0.273835 2.70116 0
M  V30 994 C 97.3005 2.81926 2.23708 0
M  V30 995 C 96.9085 4.18685 1.59396 0
M  V30 996 C 98.6525 3.00956 2.99375 0
M  V30 997 C 96.5595 5.3207 2.58178 0
M  V30 998 H 95.4895 0.594838 0.46334 0
M  V30 999 H 98.1405 1.76467 0.503169 0
M  V30 1000 H 96.5225 2.58736 2.99786 0
M  V30 1001 H 97.6965 4.52088 0.891811 0
M  V30 1002 H 96.0115 4.05171 0.960503 0
M  V30 1003 H 98.6085 3.82836 3.73283 0
M  V30 1004 H 98.9515 2.12258 3.58123 0
M  V30 1005 H 99.4845 3.24277 2.30411 0
M  V30 1006 H 96.2235 6.22888 2.04184 0
M  V30 1007 H 95.7435 5.03098 3.26577 0
M  V30 1008 H 97.4225 5.62196 3.20225 0
M  V30 1009 N 97.5546 -0.734337 1.39446 0
M  V30 1010 C 98.5026 -1.86971 1.38364 0
M  V30 1011 C 99.4966 -1.67288 0.266687 0
M  V30 1012 O 100.703 -1.74621 0.436755 0
M  V30 1013 H 97.0776 -0.615474 0.432082 0
M  V30 1014 H 99.0486 -1.85 2.34132 0
M  V30 1015 C 97.7976 -3.2466 1.24465 0
M  V30 1016 H 97.1206 -3.40402 2.09682 0
M  V30 1017 H 98.5606 -4.04292 1.27764 0
M  V30 1018 C 97.0196 -3.36867 -0.0468674 0
M  V30 1019 O 97.5496 -3.88618 -1.01681 0
M  V30 1020 N 95.7556 -2.90391 -0.110145 0
M  V30 1021 H 95.3026 -2.48466 0.679868 0
M  V30 1022 H 95.2606 -2.98939 -0.973799 0
M  V30 1023 N 99.0327 -1.24633 -0.964593 0
M  V30 1024 C 100.449 -1.01239 -1.2338 0
M  V30 1025 C 100.649 0.2769 -1.99588 0
M  V30 1026 O 99.7047 0.992241 -2.32187 0
M  V30 1027 C 101.018 -2.22937 -2.01791 0
M  V30 1028 C 102.566 -2.27594 -2.14872 0
M  V30 1029 C 103.041 -3.48921 -2.96678 0
M  V30 1030 N 104.532 -3.49257 -3.04259 0
M  V30 1031 C 105.267 -4.39795 -3.67924 0
M  V30 1032 N 104.763 -5.40591 -4.33281 0
M  V30 1033 N 106.556 -4.275 -3.64966 0
M  V30 1034 H 98.7067 -2.0748 -0.454502 0
M  V30 1035 H 100.97 -0.910647 -0.26349 0
M  V30 1036 H 100.676 -3.16587 -1.53184 0
M  V30 1037 H 100.55 -2.25306 -3.02518 0
M  V30 1038 H 102.937 -1.34473 -2.6268 0
M  V30 1039 H 103.018 -2.2925 -1.13482 0
M  V30 1040 H 102.662 -4.42359 -2.49562 0
M  V30 1041 H 102.592 -3.4451 -3.98272 0
M  V30 1042 H 105.083 -2.76337 -2.57771 0
M  V30 1043 H 105.396 -6.05904 -4.79687 0
M  V30 1044 H 103.741 -5.44475 -4.3194 0
M  V30 1045 H 106.932 -3.47987 -3.13086 0
M  V30 1046 H 107.105 -4.98258 -4.14298 0
M  V30 1047 N 100.511 1.16574 -1.06058 0
M  V30 1048 C 101.759 1.86677 -0.77434 0
M  V30 1049 C 102.08 1.81959 0.701147 0
M  V30 1050 O 101.35 1.2515 1.50713 0
M  V30 1051 H 99.9298 0.691134 -0.283449 0
M  V30 1052 H 102.592 1.41378 -1.34158 0
M  V30 1053 H 101.688 2.92181 -1.09711 0
M  V30 1054 N 101.989 0.842826 1.3317 0
M  V30 1055 C 103.219 0.453397 2.01564 0
M  V30 1056 C 103.627 -0.951147 1.63554 0
M  V30 1057 O 102.97 -1.63021 0.846746 0
M  V30 1058 C 103.032 0.499013 3.5602 0
M  V30 1059 C 102.696 1.86037 4.1742 0
M  V30 1060 C 103.693 2.82416 4.36506 0
M  V30 1061 C 101.378 2.15428 4.53757 0
M  V30 1062 C 103.372 4.06346 4.91082 0
M  V30 1063 C 101.059 3.39615 5.0804 0
M  V30 1064 C 102.057 4.3489 5.26649 0
M  V30 1065 O 101.745 5.5688 5.79776 0
M  V30 1066 H 101.477 0.177871 0.652179 0
M  V30 1067 H 104.031 1.13808 1.70988 0
M  V30 1068 H 102.261 -0.242467 3.85939 0
M  V30 1069 H 103.95 0.126852 4.05702 0
M  V30 1070 H 104.716 2.6101 4.08777 0
M  V30 1071 H 100.595 1.42061 4.38565 0
M  V30 1072 H 104.139 4.80722 5.05522 0
M  V30 1073 H 100.036 3.60876 5.352 0
M  V30 1074 H 100.804 5.58674 5.98185 0
M  V30 1075 N 103.467 -1.45747 0.599634 0
M  V30 1076 C 104.714 -2.02292 0.0917284 0
M  V30 1077 C 105.042 -1.46906 -1.27472 0
M  V30 1078 O 104.297 -0.630652 -1.8526 0
M  V30 1079 C 104.596 -3.57399 -0.00602758 0
M  V30 1080 C 104.262 -4.31902 1.29503 0
M  V30 1081 C 102.924 -4.51974 1.65144 0
M  V30 1082 C 105.276 -4.74551 2.15525 0
M  V30 1083 C 102.604 -5.11949 2.86574 0
M  V30 1084 C 104.956 -5.35868 3.36196 0
M  V30 1085 C 103.62 -5.54165 3.72099 0
M  V30 1086 H 102.89 -0.740239 0.0335658 0
M  V30 1087 H 105.537 -1.7491 0.779661 0
M  V30 1088 H 103.842 -3.84014 -0.777183 0
M  V30 1089 H 105.539 -3.98846 -0.415038 0
M  V30 1090 H 102.129 -4.16588 1.00761 0
M  V30 1091 H 106.313 -4.58784 1.8929 0
M  V30 1092 H 101.569 -5.24305 3.14507 0
M  V30 1093 H 105.743 -5.6787 4.03109 0
M  V30 1094 H 103.37 -6.00406 4.6628 0
M  V30 1095 N 104.945 -0.338344 -1.53925 0
M  V30 1096 C 105.908 0.508299 -2.23493 0
M  V30 1097 C 106.908 1.03175 -1.23335 0
M  V30 1098 O 108.098 0.921826 -1.47811 0
M  V30 1099 C 105.23 1.70754 -2.95052 0
M  V30 1100 H 106.423 -0.100058 -2.99733 0
M  V30 1101 H 103.976 -0.0896198 -1.56043 0
M  V30 1102 H 104.711 2.35474 -2.22986 0
M  V30 1103 H 104.496 1.33946 -3.68512 0
M  V30 1104 H 105.986 2.30818 -3.48013 0
M  V30 1105 N 106.423 1.57458 -0.0668435 0
M  V30 1106 C 107.839 1.56947 0.289772 0
M  V30 1107 C 108.039 1.07584 1.70376 0
M  V30 1108 O 107.095 0.739486 2.41429 0
M  V30 1109 C 108.408 3.0052 0.103943 0
M  V30 1110 C 109.956 3.12517 0.173857 0
M  V30 1111 C 110.431 4.57997 0.0163682 0
M  V30 1112 N 111.922 4.63144 0.0721352 0
M  V30 1113 C 112.657 5.73394 -0.0253794 0
M  V30 1114 N 112.153 6.92576 -0.176133 0
M  V30 1115 N 113.946 5.62091 0.0313305 0
M  V30 1116 H 106.097 1.87863 -0.991027 0
M  V30 1117 H 108.36 0.86583 -0.38606 0
M  V30 1118 H 108.066 3.40729 -0.871572 0
M  V30 1119 H 107.94 3.67304 0.858366 0
M  V30 1120 H 110.327 2.72197 1.13985 0
M  V30 1121 H 110.408 2.48381 -0.611586 0
M  V30 1122 H 110.052 4.99005 -0.946374 0
M  V30 1123 H 109.982 5.20158 0.821153 0
M  V30 1124 H 112.473 3.77436 0.187263 0
M  V30 1125 H 112.786 7.72418 -0.242821 0
M  V30 1126 H 111.131 6.94678 -0.211429 0
M  V30 1127 H 114.322 4.67867 0.147773 0
M  V30 1128 H 114.495 6.47982 -0.048121 0
M  V30 1129 N 107.901 -0.206675 1.56239 0
M  V30 1130 C 109.147 -0.930218 1.80208 0
M  V30 1131 C 109.48 -1.83387 0.638981 0
M  V30 1132 O 108.755 -1.91119 -0.361066 0
M  V30 1133 C 109.038 -1.75641 3.1436 0
M  V30 1134 C 108.891 -0.878257 4.41142 0
M  V30 1135 C 110.21 -2.73129 3.45092 0
M  V30 1136 H 107.329 -0.336742 0.655571 0
M  V30 1137 H 109.971 -0.198222 1.88963 0
M  V30 1138 H 108.121 -2.38048 3.07027 0
M  V30 1139 H 109.793 -0.269787 4.6051 0
M  V30 1140 H 108.036 -0.184385 4.33408 0
M  V30 1141 H 108.707 -1.49106 5.3148 0
M  V30 1142 H 111.183 -2.20856 3.52649 0
M  V30 1143 H 110.059 -3.28028 4.40101 0
M  V30 1144 H 110.32 -3.51606 2.68003 0
M  V30 1145 N 109.379 -1.50304 -0.473955 0
M  V30 1146 C 110.329 -1.65347 -1.56985 0
M  V30 1147 C 111.313 -0.508176 -1.52664 0
M  V30 1148 O 112.505 -0.762446 -1.59737 0
M  V30 1149 C 109.634 -1.74832 -2.95447 0
M  V30 1150 C 108.72 -2.95028 -3.04662 0
M  V30 1151 N 109.111 -4.18747 -2.83698 0
M  V30 1152 C 107.409 -2.93527 -3.35795 0
M  V30 1153 C 108.11 -4.99687 -2.97805 0
M  V30 1154 N 107.086 -4.33585 -3.2788 0
M  V30 1155 H 110.888 -2.58698 -1.39472 0
M  V30 1156 H 108.402 -1.47449 -0.680629 0
M  V30 1157 H 110.399 -1.83712 -3.7424 0
M  V30 1158 H 109.059 -0.826376 -3.14008 0
M  V30 1159 H 110.07 -4.48291 -2.59337 0
M  V30 1160 H 106.747 -2.10821 -3.60362 0
M  V30 1161 H 108.137 -6.08057 -2.85861 0
M  V30 1162 N 110.857 0.726932 -1.39834 0
M  V30 1163 C 112.105 1.4837 -1.37225 0
M  V30 1164 C 112.426 1.94979 0.0284857 0
M  V30 1165 O 111.696 1.69555 0.981213 0
M  V30 1166 H 110.276 0.55043 -0.505011 0
M  V30 1167 H 112.938 0.862468 -1.74778 0
M  V30 1168 H 112.034 2.36198 -2.04003 0
M  V30 1169 N 112.336 1.25143 0.95797 0
M  V30 1170 C 113.582 1.09855 1.70469 0
M  V30 1171 C 113.915 -0.360187 1.90831 0
M  V30 1172 O 113.19 -1.26568 1.47685 0
M  V30 1173 C 113.473 1.8497 3.08963 0
M  V30 1174 C 113.326 3.38652 2.96032 0
M  V30 1175 C 114.645 1.63016 4.08795 0
M  V30 1176 H 111.764 0.400465 0.618706 0
M  V30 1177 H 114.406 1.53933 1.11376 0
M  V30 1178 H 112.556 1.47505 3.59409 0
M  V30 1179 H 114.228 3.85772 2.52938 0
M  V30 1180 H 112.471 3.66534 2.32025 0
M  V30 1181 H 113.142 3.8642 3.94187 0
M  V30 1182 H 115.618 1.95625 3.67247 0
M  V30 1183 H 114.494 2.18015 5.03747 0
M  V30 1184 H 114.755 0.570692 4.38401 0
M  V30 1185 N 113.814 -1.1601 1.06675 0
M  V30 1186 C 115.039 -1.91068 0.806706 0
M  V30 1187 C 115.464 -1.77112 -0.633485 0
M  V30 1188 O 114.822 -1.09908 -1.44187 0
M  V30 1189 C 114.87 -3.39655 1.21106 0
M  V30 1190 O 113.974 -4.10893 0.352189 0
M  V30 1191 H 113.315 -0.595125 0.294486 0
M  V30 1192 H 115.845 -1.46955 1.42356 0
M  V30 1193 H 115.855 -3.90434 1.18428 0
M  V30 1194 H 114.53 -3.49132 2.26008 0
M  V30 1195 H 113.107 -3.70285 0.440868 0
M  V30 1196 N 115.292 -0.849877 -1.32721 0
M  V30 1197 C 116.224 -0.248332 -2.27851 0
M  V30 1198 C 117.237 0.577218 -1.52224 0
M  V30 1199 O 118.426 0.402489 -1.73903 0
M  V30 1200 C 115.526 0.668107 -3.32249 0
M  V30 1201 C 114.699 -0.120534 -4.37234 0
M  V30 1202 C 113.758 0.720932 -5.21238 0
M  V30 1203 O 112.784 0.156166 -5.68986 0
M  V30 1204 N 113.986 2.03647 -5.43607 0
M  V30 1205 H 116.751 -1.06575 -2.80111 0
M  V30 1206 H 114.312 -0.709395 -1.45531 0
M  V30 1207 H 116.304 1.23627 -3.85355 0
M  V30 1208 H 114.874 1.38621 -2.80184 0
M  V30 1209 H 114.094 -0.870108 -3.84477 0
M  V30 1210 H 115.382 -0.662406 -5.0447 0
M  V30 1211 H 114.78 2.51871 -5.06535 0
M  V30 1212 H 113.337 2.55287 -5.99727 0
M  V30 1213 N 116.77 1.45427 -0.607355 0
M  V30 1214 C 117.7 2.3329 0.0989352 0
M  V30 1215 C 118.681 1.46816 0.859007 0
M  V30 1216 O 119.866 1.75588 0.829604 0
M  V30 1217 C 116.996 3.29518 1.09705 0
M  V30 1218 C 115.95 4.25626 0.450206 0
M  V30 1219 C 115.276 5.11542 1.55655 0
M  V30 1220 C 116.576 5.18505 -0.628455 0
M  V30 1221 H 118.27 2.92595 -0.634716 0
M  V30 1222 H 115.816 1.40696 -0.306681 0
M  V30 1223 H 117.769 3.89855 1.59971 0
M  V30 1224 H 116.493 2.68372 1.86129 0
M  V30 1225 H 115.152 3.66586 -0.0315886 0
M  V30 1226 H 114.8 4.46765 2.31107 0
M  V30 1227 H 114.5 5.76647 1.12925 0
M  V30 1228 H 116.024 5.74748 2.06148 0
M  V30 1229 H 117.438 5.72916 -0.209877 0
M  V30 1230 H 115.835 5.92085 -0.977489 0
M  V30 1231 H 116.905 4.60948 -1.50514 0
M  V30 1232 N 118.248 0.346503 1.53744 0
M  V30 1233 C 119.497 -0.250122 2.00143 0
M  V30 1234 C 119.81 -1.51418 1.23822 0
M  V30 1235 O 121.016 -2.18823 1.60713 0
M  V30 1236 C 119.472 -0.496252 3.56462 0
M  V30 1237 C 119.08 0.752077 4.41642 0
M  V30 1238 C 120.824 -1.05157 4.11269 0
M  V30 1239 C 118.731 0.476583 5.89477 0
M  V30 1240 H 117.661 -0.0972409 0.747703 0
M  V30 1241 H 120.312 0.46229 1.77581 0
M  V30 1242 H 118.694 -1.26944 3.75102 0
M  V30 1243 H 119.868 1.5266 4.34778 0
M  V30 1244 H 118.183 1.22925 3.97842 0
M  V30 1245 H 120.78 -1.27269 5.19333 0
M  V30 1246 H 121.123 -2.00799 3.64672 0
M  V30 1247 H 121.656 -0.339019 3.96353 0
M  V30 1248 H 118.395 1.4028 6.40314 0
M  V30 1249 H 117.915 -0.259794 5.99237 0
M  V30 1250 H 119.594 0.0949315 6.4693 0
M  V30 1251 N 119.726 -1.57421 0.075193 0
M  V30 1252 C 120.673 -2.12915 -0.890843 0
M  V30 1253 C 121.643 -1.04252 -1.29309 0
M  V30 1254 O 122.828 -1.31933 -1.37834 0
M  V30 1255 C 119.968 -2.69795 -2.15186 0
M  V30 1256 C 119.081 -3.92624 -1.80194 0
M  V30 1257 C 118.216 -4.37736 -3.00933 0
M  V30 1258 C 117.255 -5.53205 -2.61974 0
M  V30 1259 N 116.392 -5.9326 -3.75483 0
M  V30 1260 H 121.232 -2.95156 -0.410735 0
M  V30 1261 H 118.769 -1.45854 -0.191086 0
M  V30 1262 H 120.727 -3.00883 -2.89008 0
M  V30 1263 H 119.357 -1.90313 -2.60731 0
M  V30 1264 H 118.409 -3.67977 -0.964218 0
M  V30 1265 H 119.721 -4.76482 -1.47534 0
M  V30 1266 H 118.875 -4.70503 -3.8303 0
M  V30 1267 H 117.614 -3.52739 -3.36789 0
M  V30 1268 H 116.619 -5.20086 -1.783 0
M  V30 1269 H 117.844 -6.39936 -2.27284 0
M  V30 1270 H 115.79 -5.11212 -4.11094 0
M  V30 1271 H 115.707 -6.71865 -3.46602 0
M  V30 1272 H 116.975 -6.30651 -4.58148 0
M  V30 1273 N 121.204 0.198386 -1.56346 0
M  V30 1274 C 122.167 1.22952 -1.93431 0
M  V30 1275 C 123.167 1.38611 -0.815092 0
M  V30 1276 O 124.357 1.36479 -1.08255 0
M  V30 1277 C 121.489 2.59946 -2.20546 0
M  V30 1278 H 122.682 0.912626 -2.85677 0
M  V30 1279 H 120.235 0.43977 -1.49986 0
M  V30 1280 H 120.97 2.96696 -1.30927 0
M  V30 1281 H 120.755 2.49953 -3.02102 0
M  V30 1282 H 122.245 3.3431 -2.50253 0
M  V30 1283 N 122.682 1.50554 0.465978 0
M  V30 1284 C 123.929 1.61798 1.21768 0
M  V30 1285 C 124.257 0.320696 1.91838 0
M  V30 1286 O 123.512 -0.693724 1.82992 0
M  V30 1287 C 123.811 2.75152 2.28093 0
M  V30 1288 C 123.477 4.15454 1.75239 0
M  V30 1289 C 122.139 4.53628 1.60546 0
M  V30 1290 C 124.491 5.03121 1.36083 0
M  V30 1291 C 121.819 5.77204 1.05128 0
M  V30 1292 C 124.171 6.27249 0.821056 0
M  V30 1293 C 122.835 6.64221 0.660795 0
M  V30 1294 H 122.105 0.592063 0.445582 0
M  V30 1295 H 124.752 1.84503 0.512927 0
M  V30 1296 H 123.057 2.46556 3.04496 0
M  V30 1297 H 124.754 2.81055 2.86023 0
M  V30 1298 H 121.344 3.85341 1.87644 0
M  V30 1299 H 125.528 4.74257 1.46267 0
M  V30 1300 H 120.784 6.0452 0.91462 0
M  V30 1301 H 124.958 6.94537 0.509018 0
M  V30 1302 H 122.585 7.59854 0.229226 0
M  V30 1303 N 124.16 -0.719506 1.40217 0
M  V30 1304 C 125.09 -1.8465 1.42922 0
M  V30 1305 C 126.071 -1.67599 0.29062 0
M  V30 1306 O 127.256 -1.87688 0.498677 0
M  V30 1307 C 124.386 -3.22565 1.28722 0
M  V30 1308 C 123.34 -3.54281 2.40144 0
M  V30 1309 C 122.666 -4.91298 2.11023 0
M  V30 1310 C 123.966 -3.55676 3.82481 0
M  V30 1311 H 125.66 -1.82644 2.37237 0
M  V30 1312 H 123.206 -0.877305 1.1419 0
M  V30 1313 H 125.159 -4.01095 1.29232 0
M  V30 1314 H 123.883 -3.25137 0.308811 0
M  V30 1315 H 122.542 -2.78088 2.38877 0
M  V30 1316 H 122.19 -4.90468 1.11582 0
M  V30 1317 H 121.89 -5.13485 2.8567 0
M  V30 1318 H 123.414 -5.72166 2.13209 0
M  V30 1319 H 124.828 -4.24254 3.85592 0
M  V30 1320 H 123.225 -3.89388 4.56614 0
M  V30 1321 H 124.295 -2.55144 4.12346 0
M  V30 1322 N 125.638 -1.25649 -0.95132 0
M  V30 1323 C 127.054 -1.02542 -1.223 0
M  V30 1324 C 127.254 0.255715 -1.99871 0
M  V30 1325 O 126.31 0.967558 -2.33226 0
M  V30 1326 C 127.623 -2.25065 -1.99415 0
M  V30 1327 C 129.171 -2.29861 -2.12446 0
M  V30 1328 C 129.646 -3.52048 -2.92961 0
M  V30 1329 N 131.137 -3.52465 -3.00538 0
M  V30 1330 C 131.872 -4.43672 -3.63239 0
M  V30 1331 N 131.368 -5.45157 -4.27523 0
M  V30 1332 N 133.161 -4.31346 -3.60412 0
M  V30 1333 H 125.312 -2.07951 -0.432471 0
M  V30 1334 H 127.575 -0.91339 -0.253816 0
M  V30 1335 H 127.281 -3.18194 -1.49817 0
M  V30 1336 H 127.155 -2.28502 -3.00111 0
M  V30 1337 H 129.542 -1.37252 -2.61239 0
M  V30 1338 H 129.623 -2.3044 -1.11044 0
M  V30 1339 H 129.267 -4.44981 -2.44856 0
M  V30 1340 H 129.197 -3.48715 -3.94596 0
M  V30 1341 H 131.688 -2.79056 -2.54826 0
M  V30 1342 H 132.001 -6.10958 -4.73234 0
M  V30 1343 H 130.346 -5.49025 -4.26141 0
M  V30 1344 H 133.537 -3.51288 -3.09377 0
M  V30 1345 H 133.71 -5.02624 -4.0899 0
M  V30 1346 N 127.117 1.15442 -1.07289 0
M  V30 1347 C 128.064 2.20161 -0.692653 0
M  V30 1348 C 129.034 1.63073 0.31564 0
M  V30 1349 O 130.219 1.89725 0.202235 0
M  V30 1350 C 127.359 3.44967 -0.0959509 0
M  V30 1351 C 126.472 4.16256 -1.15564 0
M  V30 1352 C 125.607 5.28609 -0.524011 0
M  V30 1353 C 124.646 5.91715 -1.56653 0
M  V30 1354 N 123.783 6.9554 -0.957531 0
M  V30 1355 H 128.623 2.52037 -1.59002 0
M  V30 1356 H 126.16 1.2378 -0.794798 0
M  V30 1357 H 128.118 4.16341 0.267628 0
M  V30 1358 H 126.748 3.1361 0.764772 0
M  V30 1359 H 125.8 3.43385 -1.6368 0
M  V30 1360 H 127.112 4.59268 -1.94613 0
M  V30 1361 H 126.266 6.06604 -0.108032 0
M  V30 1362 H 125.005 4.86787 0.29825 0
M  V30 1363 H 124.01 5.12433 -1.9923 0
M  V30 1364 H 125.235 6.35614 -2.39107 0
M  V30 1365 H 123.181 6.55814 -0.156162 0
M  V30 1366 H 123.098 7.36977 -1.68526 0
M  V30 1367 H 124.366 7.77435 -0.567032 0
M  V30 1368 N 128.595 0.856903 1.32268 0
M  V30 1369 C 129.823 0.475439 2.01363 0
M  V30 1370 C 130.238 -0.928486 1.64392 0
M  V30 1371 O 129.595 -1.60624 0.866387 0
M  V30 1372 C 129.646 0.607545 3.56358 0
M  V30 1373 O 129.367 1.95617 3.92002 0
M  V30 1374 C 130.868 0.225382 4.42727 0
M  V30 1375 H 128.088 0.186636 0.644521 0
M  V30 1376 H 130.632 1.15446 1.68797 0
M  V30 1377 H 128.787 -0.0237719 3.87393 0
M  V30 1378 H 129.201 1.95455 4.86721 0
M  V30 1379 H 130.675 0.368813 5.50767 0
M  V30 1380 H 131.152 -0.834369 4.31202 0
M  V30 1381 H 131.758 0.831864 4.17085 0
M  V30 1382 N 130.073 -1.45103 0.615059 0
M  V30 1383 C 130.983 -2.34382 -0.101034 0
M  V30 1384 C 131.999 -1.51681 -0.852585 0
M  V30 1385 O 133.175 -1.8446 -0.808484 0
M  V30 1386 C 130.24 -3.29417 -1.08099 0
M  V30 1387 C 129.301 -4.28025 -0.330577 0
M  V30 1388 C 128.534 -5.1852 -1.26385 0
M  V30 1389 O 128.757 -5.12598 -2.50198 0
M  V30 1390 O 127.691 -5.97122 -0.756866 0
M  V30 1391 H 131.517 -2.97033 0.632855 0
M  V30 1392 H 129.102 -1.4461 0.375293 0
M  V30 1393 H 130.984 -3.87958 -1.6452 0
M  V30 1394 H 129.659 -2.69321 -1.79577 0
M  V30 1395 H 128.566 -3.73078 0.276283 0
M  V30 1396 H 129.899 -4.90997 0.343866 0
M  V30 1397 N 131.551 -0.354651 -1.53558 0
M  V30 1398 C 132.791 0.238651 -2.03002 0
M  V30 1399 C 133.155 1.46878 -1.23656 0
M  V30 1400 O 134.356 2.13699 -1.63053 0
M  V30 1401 C 132.627 0.534175 -3.53386 0
M  V30 1402 S 134.186 1.10271 -4.24719 0
M  V30 1403 H 131.004 0.0702908 -0.707517 0
M  V30 1404 H 133.606 -0.494987 -1.8913 0
M  V30 1405 H 132.31 -0.368765 -4.0874 0
M  V30 1406 H 131.841 1.29718 -3.71398 0
M  V30 1407 H 133.856 2.38772 -4.34974 0
M  V30 1408 N 133.029 1.57378 -0.0835403 0
M  V30 1409 C 133.979 2.09916 0.889905 0
M  V30 1410 C 134.963 1.01151 1.25129 0
M  V30 1411 O 136.155 1.27443 1.2283 0
M  V30 1412 C 133.284 2.67379 2.15322 0
M  V30 1413 C 132.37 3.83167 1.81779 0
M  V30 1414 N 132.761 4.91665 1.18739 0
M  V30 1415 C 131.059 3.92685 2.11459 0
M  V30 1416 C 131.76 5.72409 1.0355 0
M  V30 1417 N 130.736 5.21062 1.54906 0
M  V30 1418 H 134.538 2.91188 0.398378 0
M  V30 1419 H 132.052 1.61956 0.120013 0
M  V30 1420 H 134.049 3.0334 2.8599 0
M  V30 1421 H 132.709 1.87558 2.65051 0
M  V30 1422 H 133.72 5.10784 0.855604 0
M  V30 1423 H 130.397 3.23856 2.63483 0
M  V30 1424 H 131.787 6.69699 0.543425 0
M  V30 1425 N 134.507 -0.190092 1.56449 0
M  V30 1426 C 135.747 -0.916414 1.82705 0
M  V30 1427 C 136.111 -1.80235 0.661763 0
M  V30 1428 O 137.312 -2.56484 0.80433 0
M  V30 1429 C 135.583 -1.70691 3.14005 0
M  V30 1430 S 137.142 -2.48457 3.61683 0
M  V30 1431 H 133.96 -0.307281 0.64117 0
M  V30 1432 H 136.562 -0.179433 1.94675 0
M  V30 1433 H 135.266 -1.04677 3.96826 0
M  V30 1434 H 134.797 -2.48562 3.04927 0
M  V30 1435 H 136.812 -3.72756 3.27517 0
M  V30 1436 N 135.985 -1.50799 -0.457987 0
M  V30 1437 C 136.917 -1.66786 -1.57211 0
M  V30 1438 C 137.93 -0.548962 -1.53265 0
M  V30 1439 O 139.119 -0.8226 -1.58416 0
M  V30 1440 C 136.219 -1.64834 -2.96113 0
M  V30 1441 C 135.392 -2.92971 -3.24787 0
M  V30 1442 C 134.451 -2.83485 -4.43309 0
M  V30 1443 O 133.477 -3.5744 -4.42973 0
M  V30 1444 N 134.679 -1.97929 -5.45714 0
M  V30 1445 H 137.444 -2.62889 -1.43909 0
M  V30 1446 H 135.005 -1.48427 -0.646617 0
M  V30 1447 H 136.997 -1.56084 -3.7339 0
M  V30 1448 H 135.567 -0.764118 -3.03117 0
M  V30 1449 H 134.787 -3.15749 -2.36 0
M  V30 1450 H 136.075 -3.77834 -3.40762 0
M  V30 1451 H 135.473 -1.37182 -5.48815 0
M  V30 1452 H 134.03 -1.95073 -6.21924 0
M  V30 1453 N 137.463 0.71206 -1.40597 0
M  V30 1454 C 138.712 1.46754 -1.38369 0
M  V30 1455 C 139.025 1.95598 0.0097839 0
M  V30 1456 O 140.231 2.71059 0.154677 0
M  V30 1457 C 138.687 2.65289 -2.43207 0
M  V30 1458 C 138.295 2.23301 -3.88382 0
M  V30 1459 C 140.039 3.43008 -2.50091 0
M  V30 1460 C 137.946 3.38696 -4.84808 0
M  V30 1461 H 136.876 0.55118 -0.514506 0
M  V30 1462 H 139.527 0.774616 -1.66349 0
M  V30 1463 H 137.909 3.36769 -2.08332 0
M  V30 1464 H 139.083 1.59218 -4.32419 0
M  V30 1465 H 137.398 1.58618 -3.85006 0
M  V30 1466 H 139.995 4.28881 -3.1932 0
M  V30 1467 H 140.338 3.87065 -1.53253 0
M  V30 1468 H 140.871 2.78574 -2.83974 0
M  V30 1469 H 137.61 2.99668 -5.82992 0
M  V30 1470 H 137.13 4.01683 -4.45433 0
M  V30 1471 H 138.809 4.04712 -5.04794 0
M  V30 1472 N 138.941 1.26152 0.944643 0
M  V30 1473 C 140.187 1.11657 1.69294 0
M  V30 1474 C 140.52 -0.339926 1.91202 0
M  V30 1475 O 139.795 -1.24994 1.49019 0
M  V30 1476 C 140.078 1.88236 3.06984 0
M  V30 1477 C 139.931 3.41772 2.92424 0
M  V30 1478 C 141.25 1.67343 4.07043 0
M  V30 1479 H 138.369 0.407004 0.614424 0
M  V30 1480 H 141.011 1.55106 1.09737 0
M  V30 1481 H 139.161 1.51308 3.57824 0
M  V30 1482 H 140.833 3.88433 2.48832 0
M  V30 1483 H 139.076 3.68974 2.28124 0
M  V30 1484 H 139.747 3.90579 3.90067 0
M  V30 1485 H 142.223 1.99509 3.65151 0
M  V30 1486 H 141.099 2.23346 5.01406 0
M  V30 1487 H 141.36 0.617158 4.37771 0
M  V30 1488 N 140.419 -1.14872 1.07899 0
M  V30 1489 C 141.367 -2.21857 0.698727 0
M  V30 1490 C 142.361 -1.66845 -0.293086 0
M  V30 1491 O 143.567 -1.79321 -0.156204 0
M  V30 1492 H 139.942 -0.722691 0.207899 0
M  V30 1493 H 141.913 -2.51205 1.61054 0
M  V30 1494 C 140.662 -3.47498 0.11858 0
M  V30 1495 H 139.985 -3.90154 0.872914 0
M  V30 1496 H 141.425 -4.23858 -0.109759 0
M  V30 1497 C 139.884 -3.16947 -1.1422 0
M  V30 1498 O 140.414 -3.3426 -2.22785 0
M  V30 1499 N 138.62 -2.70946 -1.05055 0
M  V30 1500 H 138.167 -2.57058 -0.167038 0
M  V30 1501 H 138.125 -2.50879 -1.89491 0
M  V30 1502 N 141.898 -0.863906 -1.31812 0
M  V30 1503 C 142.828 -0.330843 -2.31144 0
M  V30 1504 C 143.809 0.575005 -1.60087 0
M  V30 1505 O 144.994 0.493304 -1.8783 0
M  V30 1506 C 142.124 0.47374 -3.44054 0
M  V30 1507 C 141.078 -0.338481 -4.26659 0
M  V30 1508 C 140.404 0.591412 -5.31419 0
M  V30 1509 C 141.704 -1.56926 -4.98168 0
M  V30 1510 H 143.398 -1.16086 -2.75979 0
M  V30 1511 H 140.944 -0.559657 -1.32679 0
M  V30 1512 H 142.897 0.857143 -4.12591 0
M  V30 1513 H 141.621 1.33721 -2.9797 0
M  V30 1514 H 140.28 -0.703754 -3.59782 0
M  V30 1515 H 139.928 1.45199 -4.81587 0
M  V30 1516 H 139.628 0.0519022 -5.87577 0
M  V30 1517 H 141.152 0.97179 -6.02817 0
M  V30 1518 H 142.566 -1.25764 -5.59336 0
M  V30 1519 H 140.963 -2.04739 -5.64094 0
M  V30 1520 H 142.033 -2.32544 -4.25501 0
M  V30 1521 N 143.376 1.44774 -0.622745 0
M  V30 1522 C 144.624 2.01721 -0.123655 0
M  V30 1523 C 144.945 1.49172 1.25589 0
M  V30 1524 O 144.215 0.691974 1.83272 0
M  V30 1525 H 142.795 0.745777 -0.0427225 0
M  V30 1526 H 145.457 1.77382 -0.807559 0
M  V30 1527 H 144.553 3.11984 -0.0849534 0
M  V30 1528 N 144.854 0.36279 1.53368 0
M  V30 1529 C 145.817 -0.472679 2.24273 0
M  V30 1530 C 146.817 -1.012 1.24961 0
M  V30 1531 O 148.007 -0.898194 1.49259 0
M  V30 1532 C 145.139 -1.66039 2.97731 0
M  V30 1533 H 146.332 0.14773 2.99536 0
M  V30 1534 H 143.885 0.114434 1.55881 0
M  V30 1535 H 144.62 -2.31896 2.26704 0
M  V30 1536 H 144.405 -1.28066 3.70596 0
M  V30 1537 H 145.895 -2.25252 3.51641 0
M  V30 1538 N 146.332 -1.57332 0.0918853 0
M  V30 1539 C 147.58 -1.93853 -0.571446 0
M  V30 1540 C 147.901 -0.974212 -1.6892 0
M  V30 1541 O 147.171 -0.0257254 -1.95883 0
M  V30 1542 H 145.751 -0.715666 -0.214082 0
M  V30 1543 H 148.413 -1.94287 0.154464 0
M  V30 1544 H 147.509 -2.96191 -0.983729 0
M  V30 1545 N 147.81 0.181792 -1.56548 0
M  V30 1546 C 148.743 1.25366 -1.90679 0
M  V30 1547 C 149.721 1.43299 -0.768376 0
M  V30 1548 O 150.905 1.58475 -1.02068 0
M  V30 1549 C 148.032 2.61826 -2.1486 0
M  V30 1550 C 147.078 2.60688 -3.37556 0
M  V30 1551 S 147.911 2.10804 -4.92262 0
M  V30 1552 C 149.067 3.49062 -5.19525 0
M  V30 1553 H 149.3 0.962277 -2.81296 0
M  V30 1554 H 146.833 0.385892 -1.495 0
M  V30 1555 H 148.791 3.40371 -2.29473 0
M  V30 1556 H 147.452 2.88169 -1.24969 0
M  V30 1557 H 146.645 3.61058 -3.51643 0
M  V30 1558 H 146.247 1.90232 -3.22006 0
M  V30 1559 H 148.539 4.45003 -5.10861 0
M  V30 1560 H 149.482 3.39859 -6.2121 0
M  V30 1561 H 149.89 3.4459 -4.47122 0
M  V30 1562 N 149.288 1.51039 0.449983 0
M  V30 1563 C 150.565 1.53612 1.21089 0
M  V30 1564 C 150.945 0.292997 2.09057 0
M  V30 1565 O 150.293 -0.72259 2.16774 0
M  V30 1566 C 150.503 2.84337 2.0237 0
M  V30 1567 C 151.851 3.35807 2.59843 0
M  V30 1568 O 152.875 2.85802 2.12593 0
M  V30 1569 O 151.734 4.23029 3.45989 0
M  V30 1570 H 148.828 0.617057 0.550608 0
M  V30 1571 H 151.374 1.63344 0.460082 0
M  V30 1572 H 150.146 3.66278 1.37681 0
M  V30 1573 H 149.769 2.77708 2.84542 0
M  V30 1574 N 150.766 -0.704594 1.40972 0
M  V30 1575 C 151.994 -1.49354 1.43182 0
M  V30 1576 C 152.409 -1.88768 0.0345508 0
M  V30 1577 O 151.766 -1.56184 -0.944081 0
M  V30 1578 C 151.817 -2.76187 2.33244 0
M  V30 1579 O 151.538 -2.38436 3.67532 0
M  V30 1580 C 153.039 -3.7 2.44162 0
M  V30 1581 H 150.259 -0.460559 0.487982 0
M  V30 1582 H 152.803 -0.868261 1.85153 0
M  V30 1583 H 150.958 -3.34974 1.94606 0
M  V30 1584 H 151.372 -3.20126 4.15475 0
M  V30 1585 H 152.846 -4.55803 3.11364 0
M  V30 1586 H 153.323 -4.13867 1.47006 0
M  V30 1587 H 153.929 -3.17121 2.83398 0
M  V30 1588 N 152.244 -1.26651 -0.937939 0
M  V30 1589 C 153.472 -1.15173 -1.7188 0
M  V30 1590 C 153.887 0.292668 -1.86518 0
M  V30 1591 O 153.244 1.20014 -1.37488 0
M  V30 1592 C 153.295 -1.81925 -3.12387 0
M  V30 1593 O 153.016 -3.2072 -2.98446 0
M  V30 1594 C 154.517 -1.76442 -4.06673 0
M  V30 1595 H 151.737 -0.400911 -0.538063 0
M  V30 1596 H 154.281 -1.67332 -1.1756 0
M  V30 1597 H 152.436 -1.33696 -3.63599 0
M  V30 1598 H 152.85 -3.53802 -3.872 0
M  V30 1599 H 154.324 -2.27781 -5.02812 0
M  V30 1600 H 154.801 -0.731608 -4.33064 0
M  V30 1601 H 155.407 -2.24238 -3.61382 0
M  V30 1602 N 153.722 1.14298 -1.08507 0
M  V30 1603 C 154.969 1.85359 -0.815373 0
M  V30 1604 C 155.297 1.83001 0.658865 0
M  V30 1605 O 154.552 1.25655 1.50031 0
M  V30 1606 C 154.851 3.33547 -1.28379 0
M  V30 1607 C 154.517 3.56093 -2.76602 0
M  V30 1608 C 153.179 3.61955 -3.17084 0
M  V30 1609 C 155.531 3.64834 -3.72217 0
M  V30 1610 C 152.859 3.74082 -4.51973 0
M  V30 1611 C 155.211 3.78487 -5.06883 0
M  V30 1612 C 153.875 3.82598 -5.46969 0
M  V30 1613 H 153.145 0.678276 -0.298366 0
M  V30 1614 H 155.792 1.35002 -1.35819 0
M  V30 1615 H 154.097 3.86191 -0.660593 0
M  V30 1616 H 155.794 3.86959 -1.05186 0
M  V30 1617 H 152.384 3.52179 -2.4427 0
M  V30 1618 H 156.568 3.59595 -3.42061 0
M  V30 1619 H 151.824 3.75527 -4.82483 0
M  V30 1620 H 155.998 3.84193 -5.80834 0
M  V30 1621 H 153.625 3.91747 -6.51489 0
M  V30 1622 N 155.201 0.870884 1.31352 0
M  V30 1623 C 156.447 0.492314 1.97352 0
M  V30 1624 C 156.802 -0.945174 1.67583 0
M  V30 1625 O 156.095 -1.65674 0.962423 0
M  V30 1626 C 156.289 0.687157 3.50732 0
M  V30 1627 C 156.118 2.14203 3.95407 0
M  V30 1628 C 154.888 2.78382 4.21701 0
M  V30 1629 C 157.086 3.1144 4.09279 0
M  V30 1630 N 155.068 4.14611 4.52737 0
M  V30 1631 C 156.439 4.32702 4.44037 0
M  V30 1632 C 158.494 3.07418 3.91661 0
M  V30 1633 C 157.197 5.50463 4.63015 0
M  V30 1634 C 159.223 4.24438 4.11833 0
M  V30 1635 C 158.585 5.44463 4.46923 0
M  V30 1636 H 154.684 0.229206 0.747655 0
M  V30 1637 H 157.268 1.12568 1.5886 0
M  V30 1638 H 155.439 0.083384 3.8831 0
M  V30 1639 H 157.171 0.276883 4.03752 0
M  V30 1640 H 153.926 2.29326 4.14375 0
M  V30 1641 H 154.35 4.84928 4.72413 0
M  V30 1642 H 158.992 2.15732 3.6362 0
M  V30 1643 H 156.71 6.42666 4.89904 0
M  V30 1644 H 160.296 4.2278 3.99685 0
M  V30 1645 H 159.176 6.33504 4.62214 0
M  V30 1646 N 156.679 -1.44442 0.630414 0
M  V30 1647 C 158.095 -1.56832 0.295973 0
M  V30 1648 C 158.295 -1.61806 -1.20088 0
M  V30 1649 O 157.351 -1.5607 -1.9849 0
M  V30 1650 C 158.664 -2.84031 0.987264 0
M  V30 1651 C 160.212 -2.97742 0.96534 0
M  V30 1652 C 160.687 -4.27743 1.63708 0
M  V30 1653 N 162.178 -4.34555 1.60364 0
M  V30 1654 C 162.913 -5.33862 2.09234 0
M  V30 1655 N 162.409 -6.39578 2.66292 0
M  V30 1656 N 164.202 -5.25366 1.99867 0
M  V30 1657 H 156.353 -1.39457 1.60205 0
M  V30 1658 H 158.616 -0.668237 0.672431 0
M  V30 1659 H 158.322 -2.86338 2.04215 0
M  V30 1660 H 158.196 -3.73534 0.524588 0
M  V30 1661 H 160.583 -2.94989 -0.0810639 0
M  V30 1662 H 160.664 -2.09589 1.4665 0
M  V30 1663 H 160.308 -4.31255 2.68293 0
M  V30 1664 H 160.238 -5.14752 1.11076 0
M  V30 1665 H 162.729 -3.58772 1.18705 0
M  V30 1666 H 163.042 -7.11637 3.01317 0
M  V30 1667 H 161.387 -6.40265 2.70343 0
M  V30 1668 H 164.578 -4.41688 1.55013 0
M  V30 1669 H 164.751 -6.02606 2.38265 0
M  V30 1670 N 158.157 -0.370918 -1.53173 0
M  V30 1671 C 159.087 0.464847 -2.28826 0
M  V30 1672 C 160.068 1.07936 -1.31468 0
M  V30 1673 O 161.253 1.0956 -1.60344 0
M  V30 1674 C 158.383 1.60196 -3.08147 0
M  V30 1675 C 157.337 1.11443 -4.13237 0
M  V30 1676 C 156.663 2.3422 -4.80672 0
M  V30 1677 C 157.963 0.195384 -5.21934 0
M  V30 1678 H 159.657 -0.166329 -2.98938 0
M  V30 1679 H 157.203 -0.0814359 -1.4377 0
M  V30 1680 H 159.156 2.19332 -3.59822 0
M  V30 1681 H 157.88 2.26045 -2.35735 0
M  V30 1682 H 156.539 0.545727 -3.62515 0
M  V30 1683 H 156.187 2.98537 -4.04827 0
M  V30 1684 H 155.887 2.02269 -5.51689 0
M  V30 1685 H 157.411 2.94032 -5.35143 0
M  V30 1686 H 158.825 0.694375 -5.69079 0
M  V30 1687 H 157.222 -0.0335027 -6.00091 0
M  V30 1688 H 158.292 -0.760961 -4.78892 0
M  V30 1689 N 159.635 1.57281 -0.100228 0
M  V30 1690 C 160.582 2.14305 0.856858 0
M  V30 1691 C 161.552 1.06296 1.27634 0
M  V30 1692 O 162.737 1.34109 1.35718 0
M  V30 1693 C 159.877 2.73184 2.10866 0
M  V30 1694 C 158.99 3.95442 1.73925 0
M  V30 1695 C 158.125 4.42468 2.93931 0
M  V30 1696 C 157.164 5.57303 2.5314 0
M  V30 1697 N 156.301 5.99158 3.65997 0
M  V30 1698 H 161.141 2.95772 0.363726 0
M  V30 1699 H 158.678 1.46139 0.167858 0
M  V30 1700 H 160.636 3.05442 2.84185 0
M  V30 1701 H 159.266 1.94437 2.57671 0
M  V30 1702 H 158.318 3.69464 0.905554 0
M  V30 1703 H 159.63 4.78769 1.39935 0
M  V30 1704 H 158.784 4.76537 3.75496 0
M  V30 1705 H 157.523 3.58052 3.31134 0
M  V30 1706 H 156.528 5.22857 1.70003 0
M  V30 1707 H 157.753 6.43471 2.17075 0
M  V30 1708 H 155.699 5.17687 4.02909 0
M  V30 1709 H 155.616 6.77295 3.35869 0
M  V30 1710 H 156.884 6.3786 4.48057 0
M  V30 1711 N 161.113 -0.173488 1.56642 0
M  V30 1712 C 162.39 -0.917617 1.7274 0
M  V30 1713 C 162.77 -2.00484 0.661027 0
M  V30 1714 O 162.118 -2.26184 -0.32453 0
M  V30 1715 C 162.328 -1.48433 3.15862 0
M  V30 1716 C 163.676 -1.95809 3.76754 0
M  V30 1717 O 164.7 -1.58231 3.19126 0
M  V30 1718 O 163.559 -2.65024 4.77938 0
M  V30 1719 H 160.653 -0.431772 0.705338 0
M  V30 1720 H 163.199 -0.161487 1.6893 0
M  V30 1721 H 161.971 -0.701715 3.84957 0
M  V30 1722 H 161.594 -2.30471 3.23989 0
M  V30 1723 N 162.591 -1.51276 -0.441967 0
M  V30 1724 C 163.501 -1.75092 -1.56141 0
M  V30 1725 C 164.517 -0.634963 -1.62001 0
M  V30 1726 O 165.693 -0.916686 -1.79329 0
M  V30 1727 C 162.758 -1.86666 -2.92158 0
M  V30 1728 C 161.819 -3.10506 -2.96453 0
M  V30 1729 C 161.052 -3.21519 -4.25982 0
M  V30 1730 O 161.275 -2.38586 -5.18105 0
M  V30 1731 O 160.209 -4.14465 -4.36466 0
M  V30 1732 H 164.035 -2.70044 -1.38961 0
M  V30 1733 H 161.62 -1.35722 -0.624499 0
M  V30 1734 H 163.502 -1.96292 -3.72891 0
M  V30 1735 H 162.177 -0.949014 -3.09476 0
M  V30 1736 H 161.084 -3.06363 -2.14692 0
M  V30 1737 H 162.417 -4.01945 -2.84079 0
M  V30 1738 N 164.069 0.697108 -1.41344 0
M  V30 1739 C 165.346 1.45154 -1.31109 0
M  V30 1740 C 165.726 2.11009 0.0620449 0
M  V30 1741 O 165.074 2.01571 1.07618 0
M  V30 1742 C 165.284 2.47223 -2.46337 0
M  V30 1743 C 166.632 3.1252 -2.87431 0
M  V30 1744 O 167.656 2.57547 -2.46065 0
M  V30 1745 O 166.515 4.12083 -3.58957 0
M  V30 1746 H 163.609 0.646365 -0.515889 0
M  V30 1747 H 166.155 0.727716 -1.53305 0
M  V30 1748 H 164.927 1.97204 -3.37974 0
M  V30 1749 H 164.55 3.27116 -2.2601 0
M  V30 1750 N 165.547 1.27147 0.931209 0
M  V30 1751 C 166.477 1.12081 2.04842 0
M  V30 1752 C 167.458 0.0232364 1.70084 0
M  V30 1753 O 168.643 0.197085 1.93197 0
M  V30 1754 C 165.773 0.76354 3.38803 0
M  V30 1755 C 164.727 1.81396 3.87659 0
M  V30 1756 C 164.053 1.31075 5.18385 0
M  V30 1757 C 165.353 3.21739 4.11438 0
M  V30 1758 H 167.047 2.05537 2.17703 0
M  V30 1759 H 164.593 0.989603 1.04608 0
M  V30 1760 H 166.546 0.644982 4.16435 0
M  V30 1761 H 165.27 -0.206727 3.25945 0
M  V30 1762 H 163.929 1.92136 3.12217 0
M  V30 1763 H 163.577 0.330037 5.01916 0
M  V30 1764 H 163.277 2.013 5.52044 0
M  V30 1765 H 164.801 1.20506 5.98591 0
M  V30 1766 H 166.215 3.14019 4.79651 0
M  V30 1767 H 164.612 3.89644 4.56397 0
M  V30 1768 H 165.682 3.67054 3.16859 0
M  V30 1769 N 167.025 -1.13721 1.09112 0
M  V30 1770 C 167.955 -2.21148 0.749385 0
M  V30 1771 C 168.936 -1.6792 -0.271475 0
M  V30 1772 O 170.121 -1.93693 -0.140251 0
M  V30 1773 C 167.251 -3.46905 0.165659 0
M  V30 1774 C 166.205 -4.13203 1.11567 0
M  V30 1775 C 165.531 -5.33248 0.393809 0
M  V30 1776 C 166.831 -4.60912 2.45678 0
M  V30 1777 H 168.525 -2.4999 1.64758 0
M  V30 1778 H 166.071 -1.20156 0.793626 0
M  V30 1779 H 168.024 -4.21313 -0.085466 0
M  V30 1780 H 166.748 -3.17449 -0.767714 0
M  V30 1781 H 165.407 -3.40758 1.35202 0
M  V30 1782 H 165.055 -5.00054 -0.543599 0
M  V30 1783 H 164.755 -5.78552 1.02721 0
M  V30 1784 H 166.279 -6.10413 0.150908 0
M  V30 1785 H 167.693 -5.26759 2.26269 0
M  V30 1786 H 166.09 -5.16944 3.04776 0
M  V30 1787 H 167.16 -3.75603 3.06677 0
M  V30 1788 N 168.503 -0.877838 -1.30888 0
M  V30 1789 C 169.914 -0.544193 -1.78593 0
M  V30 1790 C 170.265 0.939301 -1.72254 0
M  V30 1791 O 169.39 1.7337 -1.29505 0
M  V30 1792 C 169.985 -0.98105 -3.24285 0
M  V30 1793 C 168.544 -0.698935 -3.69854 0
M  V30 1794 C 167.691 -1.168 -2.51502 0
M  V30 1795 H 170.642 -1.06278 -1.17859 0
M  V30 1796 H 170.663 -0.307009 -3.79259 0
M  V30 1797 H 170.175 -2.06079 -3.28866 0
M  V30 1798 H 168.276 0.369112 -3.70767 0
M  V30 1799 H 168.389 -1.28148 -4.61644 0
M  V30 1800 H 166.753 -0.587535 -2.47831 0
M  V30 1801 H 167.536 -2.25533 -2.58824 0
M  V30 1802 N 169.982 1.44106 -0.638065 0
M  V30 1803 C 171.207 2.0685 -0.150916 0
M  V30 1804 C 171.632 1.47417 1.16833 0
M  V30 1805 O 170.99 0.578264 1.71831 0
M  V30 1806 C 171.038 3.60555 -0.05708 0
M  V30 1807 O 170.142 4.00465 0.984972 0
M  V30 1808 H 169.483 0.658151 -0.0879399 0
M  V30 1809 H 172.013 1.84865 -0.876707 0
M  V30 1810 H 172.023 4.07789 0.131232 0
M  V30 1811 H 170.698 4.03193 -1.02021 0
M  V30 1812 H 169.275 3.64849 0.770672 0
M  V30 1813 N 171.46 0.379036 1.52974 0
M  V30 1814 C 172.407 -0.461048 2.26148 0
M  V30 1815 C 173.377 -1.06637 1.27349 0
M  V30 1816 O 174.562 -1.09633 1.56157 0
M  V30 1817 C 171.702 -1.58782 3.06402 0
M  V30 1818 C 170.815 -1.00636 4.20115 0
M  V30 1819 C 169.95 -2.10334 4.87784 0
M  V30 1820 C 168.989 -1.49724 5.93506 0
M  V30 1821 N 168.126 -2.5331 6.54812 0
M  V30 1822 H 172.966 0.169429 2.97518 0
M  V30 1823 H 170.503 0.0953806 1.4679 0
M  V30 1824 H 172.461 -2.25174 3.51215 0
M  V30 1825 H 171.091 -2.18876 2.37261 0
M  V30 1826 H 170.143 -0.232332 3.7969 0
M  V30 1827 H 171.455 -0.523343 4.96047 0
M  V30 1828 H 170.609 -2.84519 5.35849 0
M  V30 1829 H 169.348 -2.61992 4.11353 0
M  V30 1830 H 168.353 -0.740598 5.44789 0
M  V30 1831 H 169.578 -0.988732 6.71864 0
M  V30 1832 H 167.524 -3.04156 5.81227 0
M  V30 1833 H 167.441 -2.09734 7.26325 0
M  V30 1834 H 168.709 -3.27155 7.07524 0
M  V30 1835 N 172.938 -1.57226 0.108567 0
M  V30 1836 C 174.168 -1.9889 -0.559142 0
M  V30 1837 C 174.576 -0.986889 -1.61422 0
M  V30 1838 O 173.919 0.0298705 -1.83676 0
M  V30 1839 C 173.981 -3.36952 -1.25315 0
M  V30 1840 C 173.645 -4.55679 -0.347248 0
M  V30 1841 C 174.642 -5.18281 0.409996 0
M  V30 1842 C 172.327 -5.0162 -0.261367 0
M  V30 1843 C 174.321 -6.25203 1.24096 0
M  V30 1844 C 172.008 -6.08405 0.573238 0
M  V30 1845 C 173.006 -6.70063 1.32304 0
M  V30 1846 O 172.694 -7.74788 2.14381 0
M  V30 1847 H 172.426 -0.658343 -0.153492 0
M  V30 1848 H 174.98 -2.04532 0.188584 0
M  V30 1849 H 173.21 -3.28032 -2.04773 0
M  V30 1850 H 174.899 -3.62974 -1.81673 0
M  V30 1851 H 175.665 -4.8371 0.353457 0
M  V30 1852 H 171.544 -4.53381 -0.834656 0
M  V30 1853 H 175.088 -6.73259 1.82669 0
M  V30 1854 H 170.985 -6.42406 0.631208 0
M  V30 1855 H 171.753 -7.91837 2.07209 0
M  V30 1856 N 174.416 0.165178 -1.56732 0
M  V30 1857 C 175.663 0.880807 -1.8234 0
M  V30 1858 C 175.991 1.81977 -0.686621 0
M  V30 1859 O 175.246 1.92971 0.325697 0
M  V30 1860 C 175.545 1.70405 -3.1416 0
M  V30 1861 C 175.211 0.913475 -4.4155 0
M  V30 1862 C 173.873 0.695303 -4.7615 0
M  V30 1863 C 176.225 0.359349 -5.1996 0
M  V30 1864 C 173.553 -0.0879947 -5.86634 0
M  V30 1865 C 175.905 -0.410893 -6.31264 0
M  V30 1866 C 174.569 -0.639808 -6.64427 0
M  V30 1867 H 173.839 0.32231 -0.667231 0
M  V30 1868 H 176.486 0.145402 -1.90947 0
M  V30 1869 H 174.791 2.50903 -3.00923 0
M  V30 1870 H 176.488 2.26091 -3.31186 0
M  V30 1871 H 173.078 1.09357 -4.14414 0
M  V30 1872 H 177.262 0.515228 -4.93618 0
M  V30 1873 H 172.518 -0.27503 -6.10781 0
M  V30 1874 H 176.692 -0.847494 -6.91224 0
M  V30 1875 H 174.319 -1.24864 -7.49875 0
M  V30 1876 N 175.894 1.51508 0.433938 0
M  V30 1877 C 176.804 1.75917 1.5521 0
M  V30 1878 C 177.82 0.643545 1.61662 0
M  V30 1879 O 178.996 0.926183 1.7884 0
M  V30 1880 C 176.061 1.88213 2.91164 0
M  V30 1881 C 175.122 3.12074 2.94802 0
M  V30 1882 C 174.355 3.23774 4.24271 0
M  V30 1883 O 174.578 2.4133 5.16833 0
M  V30 1884 O 173.512 4.16774 4.34262 0
M  V30 1885 H 177.338 2.70777 1.37527 0
M  V30 1886 H 174.923 1.36051 0.617293 0
M  V30 1887 H 176.805 1.98267 3.71845 0
M  V30 1888 H 175.48 0.965413 3.08968 0
M  V30 1889 H 174.387 3.07497 2.13065 0
M  V30 1890 H 175.72 4.03446 2.81943 0
M  V30 1891 N 177.372 -0.689602 1.41712 0
M  V30 1892 C 178.618 -1.45181 1.41599 0
M  V30 1893 C 178.951 -1.94181 0.0270081 0
M  V30 1894 O 178.226 -1.6993 -0.946265 0
M  V30 1895 C 178.509 -2.65945 2.42787 0
M  V30 1896 C 178.362 -2.22672 3.90816 0
M  V30 1897 C 179.681 -3.68149 2.41151 0
M  V30 1898 H 176.8 -0.526576 0.515642 0
M  V30 1899 H 179.442 -0.784947 1.73028 0
M  V30 1900 H 177.592 -3.2284 2.16116 0
M  V30 1901 H 179.264 -1.71058 4.28412 0
M  V30 1902 H 177.507 -1.54394 4.05395 0
M  V30 1903 H 178.178 -3.0935 4.57172 0
M  V30 1904 H 180.654 -3.2094 2.64834 0
M  V30 1905 H 179.53 -4.50248 3.13955 0
M  V30 1906 H 179.791 -4.18259 1.43221 0
M  V30 1907 N 178.85 -1.27639 -0.924453 0
M  V30 1908 C 180.127 -1.04887 -1.651 0
M  V30 1909 C 180.507 0.415327 -2.06974 0
M  V30 1910 O 179.855 1.39923 -1.80648 0
M  V30 1911 C 180.065 -2.01348 -2.85061 0
M  V30 1912 C 181.413 -2.30899 -3.56329 0
M  V30 1913 O 182.437 -1.99348 -2.95193 0
M  V30 1914 O 181.296 -2.84699 -4.66485 0
M  V30 1915 H 178.39 -0.400083 -0.723784 0
M  V30 1916 H 180.936 -1.38916 -0.974703 0
M  V30 1917 H 179.708 -3.0008 -2.51133 0
M  V30 1918 H 179.331 -1.679 -3.6041 0
M  V30 1919 N 180.328 1.1314 -1.09713 0
M  V30 1920 C 181.575 1.84484 -0.834987 0
M  V30 1921 C 181.903 1.83689 0.639418 0
M  V30 1922 O 181.158 1.2724 1.4869 0
M  V30 1923 C 181.457 3.32167 -1.3191 0
M  V30 1924 C 181.123 3.53139 -2.80363 0
M  V30 1925 C 179.785 3.58571 -3.20905 0
M  V30 1926 C 182.137 3.60866 -3.76065 0
M  V30 1927 C 179.465 3.69267 -4.55916 0
M  V30 1928 C 181.817 3.73089 -5.10869 0
M  V30 1929 C 180.481 3.76775 -5.50996 0
M  V30 1930 H 179.751 0.675073 -0.305544 0
M  V30 1931 H 182.398 1.33554 -1.37243 0
M  V30 1932 H 180.703 3.85469 -0.701517 0
M  V30 1933 H 182.4 3.85821 -1.09284 0
M  V30 1934 H 178.99 3.49569 -2.47991 0
M  V30 1935 H 183.174 3.55946 -3.45855 0
M  V30 1936 H 178.43 3.70388 -4.86438 0
M  V30 1937 H 182.604 3.78011 -5.84877 0
M  V30 1938 H 180.231 3.84815 -6.55608 0
M  V30 1939 N 181.806 0.884767 1.30421 0
M  V30 1940 C 183.217 0.553656 1.78302 0
M  V30 1941 C 183.568 -0.930153 1.7275 0
M  V30 1942 O 182.693 -1.72681 1.30423 0
M  V30 1943 C 183.288 0.998234 3.2376 0
M  V30 1944 C 181.847 0.71854 3.69478 0
M  V30 1945 C 180.994 1.18132 2.50879 0
M  V30 1946 H 183.945 1.06901 1.17294 0
M  V30 1947 H 183.966 0.327118 3.79091 0
M  V30 1948 H 183.478 2.0782 3.27769 0
M  V30 1949 H 181.579 -0.349444 3.70958 0
M  V30 1950 H 181.692 1.30595 4.60958 0
M  V30 1951 H 180.056 0.600669 2.47516 0
M  V30 1952 H 180.839 2.26902 2.57624 0
M  V30 1953 N 183.284 -1.43765 0.645699 0
M  V30 1954 C 184.217 -2.2798 -0.100072 0
M  V30 1955 C 185.195 -1.39391 -0.837194 0
M  V30 1956 O 186.379 -1.68833 -0.838306 0
M  V30 1957 C 183.506 -3.18643 -1.14823 0
M  V30 1958 C 182.552 -4.2344 -0.510009 0
M  V30 1959 S 183.385 -5.30761 0.710824 0
M  V30 1960 C 184.541 -6.24992 -0.33699 0
M  V30 1961 H 184.774 -2.90884 0.614322 0
M  V30 1962 H 182.307 -1.48166 0.434304 0
M  V30 1963 H 184.265 -3.71424 -1.74799 0
M  V30 1964 H 182.926 -2.54932 -1.8349 0
M  V30 1965 H 182.119 -4.86948 -1.29991 0
M  V30 1966 H 181.721 -3.73997 0.0154577 0
M  V30 1967 H 184.013 -6.66691 -1.20537 0
M  V30 1968 H 184.956 -7.07612 0.262879 0
M  V30 1969 H 185.364 -5.60517 -0.669425 0
M  V30 1970 N 184.763 -0.387143 -1.52771 0
M  V30 1971 C 186.012 0.19697 -2.00736 0
M  V30 1972 C 186.325 1.48082 -1.27793 0
M  V30 1973 O 187.531 2.14485 -1.66458 0
M  V30 1974 C 185.987 0.401568 -3.57653 0
M  V30 1975 C 185.595 -0.868907 -4.39493 0
M  V30 1976 C 187.339 0.942164 -4.13912 0
M  V30 1977 C 185.246 -0.632705 -5.88006 0
M  V30 1978 H 184.176 0.0773827 -0.750019 0
M  V30 1979 H 186.827 -0.50921 -1.76293 0
M  V30 1980 H 185.209 1.16954 -3.78335 0
M  V30 1981 H 186.383 -1.64133 -4.30577 0
M  V30 1982 H 184.698 -1.33429 -3.94443 0
M  V30 1983 H 187.295 1.13455 -5.22525 0
M  V30 1984 H 187.638 1.9106 -3.69867 0
M  V30 1985 H 188.171 0.233814 -3.97112 0
M  V30 1986 H 184.91 -1.57208 -6.36369 0
M  V30 1987 H 184.43 0.100825 -5.99715 0
M  V30 1988 H 186.109 -0.26642 -6.46451 0
M  V30 1989 N 186.241 1.57166 -0.116904 0
M  V30 1990 C 187.487 1.95412 0.542405 0
M  V30 1991 C 187.82 1.00019 1.66463 0
M  V30 1992 O 187.095 0.0370346 1.94465 0
M  V30 1993 C 187.378 3.43615 1.07708 0
M  V30 1994 C 187.231 4.49781 -0.0415868 0
M  V30 1995 C 188.55 3.93616 1.96861 0
M  V30 1996 H 185.669 0.710543 0.195696 0
M  V30 1997 H 188.311 1.89027 -0.192038 0
M  V30 1998 H 186.461 3.49187 1.70296 0
M  V30 1999 H 188.133 4.56308 -0.676793 0
M  V30 2000 H 186.376 4.28033 -0.705019 0
M  V30 2001 H 187.047 5.50733 0.373717 0
M  V30 2002 H 189.523 3.90335 1.44146 0
M  V30 2003 H 188.399 4.97838 2.3119 0
M  V30 2004 H 188.66 3.34188 2.89432 0
M  V30 2005 N 187.719 -0.156864 1.56817 0
M  V30 2006 C 188.947 -0.886316 1.86955 0
M  V30 2007 C 189.362 -1.75185 0.703975 0
M  V30 2008 O 188.719 -1.79555 -0.326552 0
M  V30 2009 C 188.77 -1.75117 3.16253 0
M  V30 2010 O 188.491 -0.920537 4.2832 0
M  V30 2011 C 189.992 -2.58905 3.59837 0
M  V30 2012 H 187.212 -0.25678 0.619923 0
M  V30 2013 H 189.756 -0.152615 2.0393 0
M  V30 2014 H 187.911 -2.43805 3.01062 0
M  V30 2015 H 188.325 -1.51337 5.02192 0
M  V30 2016 H 189.799 -3.1518 4.53172 0
M  V30 2017 H 190.276 -3.34472 2.84649 0
M  V30 2018 H 190.882 -1.95526 3.7769 0
M  V30 2019 N 189.197 -1.51736 -0.425897 0
M  V30 2020 C 190.613 -1.40166 -0.76326 0
M  V30 2021 C 190.813 -0.492962 -1.95377 0
M  V30 2022 O 189.869 0.0475815 -2.52455 0
M  V30 2023 C 191.182 -2.82403 -1.03291 0
M  V30 2024 C 192.73 -2.91632 -1.13665 0
M  V30 2025 C 193.205 -4.34801 -1.43916 0
M  V30 2026 N 194.696 -4.3796 -1.50816 0
M  V30 2027 C 195.431 -5.4578 -1.75817 0
M  V30 2028 N 194.927 -6.63744 -1.98534 0
M  V30 2029 N 196.72 -5.33274 -1.77694 0
M  V30 2030 H 188.871 -2.09361 0.358 0
M  V30 2031 H 191.134 -0.942941 0.0978094 0
M  V30 2032 H 190.84 -3.50943 -0.230696 0
M  V30 2033 H 190.714 -3.22428 -1.95754 0
M  V30 2034 H 193.101 -2.23284 -1.92947 0
M  V30 2035 H 193.182 -2.55088 -0.190756 0
M  V30 2036 H 192.826 -5.03703 -0.65157 0
M  V30 2037 H 192.756 -4.68868 -2.39729 0
M  V30 2038 H 195.247 -3.52919 -1.35118 0
M  V30 2039 H 195.56 -7.41704 -2.17013 0
M  V30 2040 H 193.905 -6.66839 -1.95832 0
M  V30 2041 H 197.096 -4.40098 -1.59473 0
M  V30 2042 H 197.269 -6.1738 -1.9684 0
M  V30 2043 N 190.675 0.682077 -1.42076 0
M  V30 2044 C 191.622 1.79578 -1.44984 0
M  V30 2045 C 192.592 1.6332 -0.302614 0
M  V30 2046 O 193.777 1.83978 -0.505633 0
M  V30 2047 C 190.917 3.1756 -1.35091 0
M  V30 2048 C 190.03 3.45156 -2.59791 0
M  V30 2049 C 189.165 4.72826 -2.42093 0
M  V30 2050 C 188.204 4.93433 -3.62202 0
M  V30 2051 N 187.341 6.12338 -3.43491 0
M  V30 2052 H 192.181 1.76427 -2.40161 0
M  V30 2053 H 189.718 0.861376 -1.19242 0
M  V30 2054 H 191.676 3.97287 -1.27354 0
M  V30 2055 H 190.306 3.19854 -0.435133 0
M  V30 2056 H 189.358 2.59736 -2.77923 0
M  V30 2057 H 190.67 3.5628 -3.49094 0
M  V30 2058 H 189.824 5.60631 -2.319 0
M  V30 2059 H 188.563 4.63973 -1.50268 0
M  V30 2060 H 187.568 4.04073 -3.72834 0
M  V30 2061 H 188.793 5.04136 -4.54998 0
M  V30 2062 H 186.739 6.04672 -2.54377 0
M  V30 2063 H 186.656 6.2429 -4.26377 0
M  V30 2064 H 187.924 7.02841 -3.37097 0
M  V30 2065 N 192.153 1.28127 0.917671 0
M  V30 2066 C 193.083 1.14248 2.03641 0
M  V30 2067 C 194.064 0.0412748 1.7005 0
M  V30 2068 O 195.249 0.217566 1.92977 0
M  V30 2069 C 192.379 0.799431 3.37974 0
M  V30 2070 C 191.333 1.85497 3.85713 0
M  V30 2071 C 190.659 1.36565 5.16966 0
M  V30 2072 C 191.959 3.26085 4.08002 0
M  V30 2073 H 193.653 2.07835 2.15511 0
M  V30 2074 H 191.199 1.00064 1.03553 0
M  V30 2075 H 193.152 0.689114 4.15727 0
M  V30 2076 H 191.876 -0.172145 3.26146 0
M  V30 2077 H 190.535 1.95437 3.10161 0
M  V30 2078 H 190.183 0.383253 5.01538 0
M  V30 2079 H 189.883 2.07143 5.49878 0
M  V30 2080 H 191.407 1.26848 5.97279 0
M  V30 2081 H 192.821 3.19089 4.76293 0
M  V30 2082 H 191.218 3.94462 4.52238 0
M  V30 2083 H 192.288 3.70394 3.12948 0
M  V30 2084 N 193.631 -1.12557 1.10312 0
M  V30 2085 C 194.581 -2.16331 0.720076 0
M  V30 2086 C 195.565 -1.58616 -0.270115 0
M  V30 2087 O 196.757 -1.76823 -0.0790507 0
M  V30 2088 C 193.886 -3.42963 0.152113 0
M  V30 2089 C 192.972 -4.07663 1.16927 0
M  V30 2090 N 193.363 -4.47392 2.35953 0
M  V30 2091 C 191.661 -4.34425 1.0095 0
M  V30 2092 C 192.362 -4.97932 3.0073 0
M  V30 2093 N 191.338 -4.93358 2.28252 0
M  V30 2094 H 195.14 -2.44813 1.62616 0
M  V30 2095 H 192.654 -1.29449 0.980654 0
M  V30 2096 H 194.651 -4.16664 -0.14037 0
M  V30 2097 H 193.311 -3.1595 -0.748701 0
M  V30 2098 H 194.322 -4.39802 2.73486 0
M  V30 2099 H 190.999 -4.17177 0.164134 0
M  V30 2100 H 192.389 -5.38397 4.01969 0
M  V30 2101 N 195.109 -0.891671 -1.2995 0
M  V30 2102 C 196.334 -0.527932 -2.00568 0
M  V30 2103 C 196.759 0.877969 -1.66353 0
M  V30 2104 O 196.117 1.58301 -0.883762 0
M  V30 2105 C 196.165 -0.717745 -3.53385 0
M  V30 2106 O 195.269 0.233376 -4.11739 0
M  V30 2107 H 194.61 -0.20722 -0.630837 0
M  V30 2108 H 197.14 -1.20105 -1.65638 0
M  V30 2109 H 197.15 -0.619307 -4.03272 0
M  V30 2110 H 195.825 -1.74276 -3.77625 0
M  V30 2111 H 194.402 0.0880706 -3.72796 0
M  V30 2112 N 196.587 1.43421 -0.653314 0
M  V30 2113 C 197.836 2.01032 -0.164076 0
M  V30 2114 C 198.149 1.52147 1.22926 0
M  V30 2115 O 199.355 2.02031 1.81371 0
M  V30 2116 C 197.811 3.59082 -0.24252 0
M  V30 2117 C 197.419 4.1696 -1.63855 0
M  V30 2118 C 199.163 4.24079 0.18911 0
M  V30 2119 C 197.07 5.67304 -1.67092 0
M  V30 2120 H 196 0.751798 -0.0575769 0
M  V30 2121 H 198.651 1.6439 -0.815362 0
M  V30 2122 H 197.033 3.93125 0.476276 0
M  V30 2123 H 198.207 3.94416 -2.38271 0
M  V30 2124 H 196.522 3.64335 -2.01616 0
M  V30 2125 H 199.119 5.34381 0.184775 0
M  V30 2126 H 199.462 3.98005 1.22056 0
M  V30 2127 H 199.995 3.94918 -0.477938 0
M  V30 2128 H 196.734 5.98145 -2.68146 0
M  V30 2129 H 196.254 5.91904 -0.970014 0
M  V30 2130 H 197.933 6.31344 -1.4147 0
M  V30 2131 N 198.065 0.39524 1.52563 0
M  V30 2132 C 199.012 -0.437036 2.26624 0
M  V30 2133 C 199.982 -1.05281 1.28472 0
M  V30 2134 O 201.167 -1.07971 1.57311 0
M  V30 2135 C 198.307 -1.55524 3.08069 0
M  V30 2136 C 197.42 -0.961745 4.21158 0
M  V30 2137 C 196.555 -2.05149 4.89987 0
M  V30 2138 C 195.594 -1.4342 5.95061 0
M  V30 2139 N 194.731 -2.46351 6.57462 0
M  V30 2140 H 199.571 0.200976 2.97322 0
M  V30 2141 H 197.108 0.110944 1.46681 0
M  V30 2142 H 199.066 -2.21437 3.53584 0
M  V30 2143 H 197.696 -2.16348 2.3957 0
M  V30 2144 H 196.748 -0.192048 3.79915 0
M  V30 2145 H 198.06 -0.470701 4.96574 0
M  V30 2146 H 197.214 -2.78819 5.38837 0
M  V30 2147 H 195.953 -2.57615 4.14109 0
M  V30 2148 H 194.958 -0.682774 5.45544 0
M  V30 2149 H 196.183 -0.917416 6.72875 0
M  V30 2150 H 194.129 -2.97975 5.8442 0
M  V30 2151 H 194.046 -2.02019 7.28508 0
M  V30 2152 H 195.314 -3.19633 7.10954 0
M  V30 2153 N 199.544 -1.57102 0.125237 0
M  V30 2154 C 200.784 -1.97294 -0.534259 0
M  V30 2155 C 201.148 -1.0074 -1.63449 0
M  V30 2156 O 202.349 -1.29893 -2.35332 0
M  V30 2157 C 200.62 -3.41705 -1.04748 0
M  V30 2158 S 202.179 -4.03913 -1.71463 0
M  V30 2159 H 198.997 -0.689517 -0.173458 0
M  V30 2160 H 201.599 -1.94349 0.211797 0
M  V30 2161 H 200.303 -4.09723 -0.235649 0
M  V30 2162 H 199.834 -3.48315 -1.82867 0
M  V30 2163 H 201.849 -3.95182 -3.00077 0
M  V30 2164 N 201.022 0.148545 -1.56898 0
M  V30 2165 C 201.969 1.18345 -1.98149 0
M  V30 2166 C 202.939 1.42772 -0.848848 0
M  V30 2167 O 204.124 1.55132 -1.11079 0
M  V30 2168 C 201.264 2.51231 -2.36594 0
M  V30 2169 C 200.377 2.33991 -3.63142 0
M  V30 2170 C 199.512 3.59902 -3.90697 0
M  V30 2171 C 198.551 3.37692 -5.1052 0
M  V30 2172 N 197.688 4.5573 -5.34092 0
M  V30 2173 H 202.528 0.82467 -2.86362 0
M  V30 2174 H 200.065 0.395756 -1.41676 0
M  V30 2175 H 202.023 3.28713 -2.56912 0
M  V30 2176 H 200.653 2.85059 -1.51463 0
M  V30 2177 H 199.705 1.47572 -3.50609 0
M  V30 2178 H 201.017 2.13539 -4.5078 0
M  V30 2179 H 200.171 4.45813 -4.11505 0
M  V30 2180 H 198.91 3.83357 -3.01477 0
M  V30 2181 H 197.915 2.5017 -4.89587 0
M  V30 2182 H 199.14 3.15637 -6.0129 0
M  V30 2183 H 197.086 4.79361 -4.47827 0
M  V30 2184 H 197.003 4.38274 -6.15996 0
M  V30 2185 H 198.271 5.42858 -5.59397 0
M  V30 2186 N 202.5 1.5196 0.417844 0
M  V30 2187 C 203.911 1.57851 0.997 0
M  V30 2188 C 204.262 0.413714 1.91789 0
M  V30 2189 O 203.387 -0.467057 2.113 0
M  V30 2190 C 203.982 2.86085 1.81496 0
M  V30 2191 C 202.541 2.94483 2.34428 0
M  V30 2192 C 201.688 2.52707 1.14169 0
M  V30 2193 H 204.639 1.57455 0.198392 0
M  V30 2194 H 204.66 2.70947 2.67148 0
M  V30 2195 H 204.172 3.70842 1.14446 0
M  V30 2196 H 202.273 2.142 3.04875 0
M  V30 2197 H 202.386 3.98546 2.65891 0
M  V30 2198 H 200.75 2.06353 1.49301 0
M  V30 2199 H 201.533 3.39828 0.486999 0
M  V30 2200 N 203.978 -0.674533 1.42435 0
M  V30 2201 C 205.389 -1.25514 1.38214 0
M  V30 2202 C 205.74 -1.96055 0.0755464 0
M  V30 2203 O 204.865 -2.00028 -0.8257 0
M  V30 2204 C 205.46 -2.28269 2.50357 0
M  V30 2205 C 204.019 -2.81856 2.49467 0
M  V30 2206 C 203.166 -1.56182 2.29134 0
M  V30 2207 H 206.117 -0.467902 1.51646 0
M  V30 2208 H 206.138 -3.10009 2.20624 0
M  V30 2209 H 205.65 -1.769 3.45439 0
M  V30 2210 H 203.751 -3.37346 1.58204 0
M  V30 2211 H 203.864 -3.30854 3.46515 0
M  V30 2212 H 202.228 -1.82761 1.774 0
M  V30 2213 H 203.011 -1.06778 3.26272 0
M  V30 2214 N 205.456 -1.28612 -0.910864 0
M  V30 2215 C 206.386 -1.15326 -2.03032 0
M  V30 2216 C 207.367 -0.0502924 -1.70026 0
M  V30 2217 O 208.552 -0.227797 -1.92859 0
M  V30 2218 C 205.682 -0.817343 -3.37545 0
M  V30 2219 C 204.636 -1.8754 -3.84724 0
M  V30 2220 C 203.962 -1.39305 -5.16235 0
M  V30 2221 C 205.262 -3.28244 -4.06267 0
M  V30 2222 H 206.956 -2.08975 -2.14406 0
M  V30 2223 H 204.502 -1.00612 -1.03021 0
M  V30 2224 H 206.455 -0.711151 -4.15356 0
M  V30 2225 H 205.179 0.154846 -3.26233 0
M  V30 2226 H 203.838 -1.97079 -3.09121 0
M  V30 2227 H 203.486 -0.409846 -5.01328 0
M  V30 2228 H 203.186 -2.10057 -5.48771 0
M  V30 2229 H 204.71 -1.30014 -5.96598 0
M  V30 2230 H 206.124 -3.21611 -4.74594 0
M  V30 2231 H 204.521 -3.96855 -4.5014 0
M  V30 2232 H 205.591 -3.72048 -3.10979 0
M  V30 2233 N 206.934 1.1197 -1.10907 0
M  V30 2234 C 208.159 1.87942 -0.877064 0
M  V30 2235 C 208.584 1.79341 0.567314 0
M  V30 2236 O 207.942 1.15184 1.40009 0
M  V30 2237 C 207.99 3.34926 -1.33629 0
M  V30 2238 O 207.094 4.09303 -0.504447 0
M  V30 2239 H 206.435 0.583785 -0.316371 0
M  V30 2240 H 208.965 1.4157 -1.47712 0
M  V30 2241 H 208.975 3.8577 -1.32837 0
M  V30 2242 H 207.65 3.40504 -2.3881 0
M  V30 2243 H 206.227 3.68393 -0.577993 0
M  V30 2244 N 208.412 0.89855 1.29475 0
M  V30 2245 C 209.637 0.538561 2.00285 0
M  V30 2246 C 210.062 -0.869135 1.66816 0
M  V30 2247 O 209.42 -1.57831 0.892145 0
M  V30 2248 C 209.468 0.736475 3.52999 0
M  V30 2249 O 208.572 -0.211537 4.11857 0
M  V30 2250 H 207.913 0.210563 0.62973 0
M  V30 2251 H 210.443 1.20982 1.64998 0
M  V30 2252 H 210.453 0.640685 4.02938 0
M  V30 2253 H 209.128 1.76276 3.76696 0
M  V30 2254 H 207.705 -0.0682991 3.72837 0
M  V30 2255 N 209.89 -1.43072 0.660911 0
M  V30 2256 C 211.301 -1.84932 0.256348 0
M  V30 2257 C 211.652 -1.55325 -1.19868 0
M  V30 2258 O 210.777 -1.00607 -1.91591 0
M  V30 2259 C 211.372 -3.35684 0.458475 0
M  V30 2260 C 209.931 -3.76245 0.108161 0
M  V30 2261 C 209.078 -2.66749 0.757641 0
M  V30 2262 H 212.029 -1.33116 0.864051 0
M  V30 2263 H 212.05 -3.79365 -0.293683 0
M  V30 2264 H 211.562 -3.572 1.51755 0
M  V30 2265 H 209.663 -3.60338 -0.948014 0
M  V30 2266 H 209.776 -4.76058 0.538992 0
M  V30 2267 H 208.14 -2.53989 0.190185 0
M  V30 2268 H 208.923 -2.91092 1.81989 0
M  V30 2269 N 211.368 -0.403325 -1.52352 0
M  V30 2270 C 212.617 0.175668 -2.00934 0
M  V30 2271 C 212.93 1.46718 -1.29356 0
M  V30 2272 O 214.136 2.12708 -1.68724 0
M  V30 2273 C 212.592 0.363612 -3.58058 0
M  V30 2274 C 212.2 -0.915472 -4.38547 0
M  V30 2275 C 213.944 0.89821 -4.14888 0
M  V30 2276 C 211.851 -0.695035 -5.87302 0
M  V30 2277 H 210.781 0.0694234 -0.750797 0
M  V30 2278 H 213.432 -0.527879 -1.75743 0
M  V30 2279 H 211.814 1.12935 -3.79555 0
M  V30 2280 H 212.988 -1.68691 -4.28812 0
M  V30 2281 H 211.303 -1.37606 -3.93006 0
M  V30 2282 H 213.9 1.07907 -5.23699 0
M  V30 2283 H 214.243 1.87126 -3.71873 0
M  V30 2284 H 214.776 0.191681 -3.97338 0
M  V30 2285 H 211.515 -1.63948 -6.34666 0
M  V30 2286 H 211.035 0.0372116 -5.99788 0
M  V30 2287 H 212.714 -0.33497 -6.46132 0
M  V30 2288 N 212.846 1.57033 -0.133567 0
M  V30 2289 C 213.776 2.1909 0.807567 0
M  V30 2290 C 214.757 1.13517 1.26681 0
M  V30 2291 O 215.942 1.41809 1.32679 0
M  V30 2292 C 213.072 2.80188 2.05212 0
M  V30 2293 C 212.026 3.91471 1.73015 0
M  V30 2294 C 211.352 4.39443 3.04622 0
M  V30 2295 C 212.652 5.12886 0.987168 0
M  V30 2296 H 214.346 2.97988 0.290403 0
M  V30 2297 H 211.892 1.43335 0.138239 0
M  V30 2298 H 213.845 3.22264 2.71521 0
M  V30 2299 H 212.569 1.98601 2.59278 0
M  V30 2300 H 211.228 3.49993 1.0909 0
M  V30 2301 H 210.876 3.54695 3.56651 0
M  V30 2302 H 210.576 5.14495 2.83847 0
M  V30 2303 H 212.1 4.8418 3.72024 0
M  V30 2304 H 213.514 5.51891 1.55208 0
M  V30 2305 H 211.911 5.93615 0.87985 0
M  V30 2306 H 212.981 4.84894 -0.0235286 0
M  V30 2307 N 214.325 -0.140222 1.56975 0
M  V30 2308 C 215.235 -1.19223 2.02047 0
M  V30 2309 C 216.251 -1.46612 0.937062 0
M  V30 2310 O 217.427 -1.58148 1.24704 0
M  V30 2311 C 214.492 -2.50414 2.39778 0
M  V30 2312 C 213.553 -2.30612 3.621 0
M  V30 2313 C 212.786 -3.55547 3.98023 0
M  V30 2314 O 213.009 -4.62004 3.34528 0
M  V30 2315 O 211.943 -3.47808 4.91237 0
M  V30 2316 H 215.769 -0.839559 2.91865 0
M  V30 2317 H 213.354 -0.349453 1.45256 0
M  V30 2318 H 215.236 -3.27747 2.64877 0
M  V30 2319 H 213.911 -2.85198 1.53114 0
M  V30 2320 H 212.818 -1.51207 3.4218 0
M  V30 2321 H 214.151 -2.00741 4.49404 0
M  V30 2322 N 215.803 -1.52179 -0.40978 0
M  V30 2323 C 216.733 -1.78435 -1.5061 0
M  V30 2324 C 217.714 -0.635295 -1.57791 0
M  V30 2325 O 218.899 -0.880823 -1.73076 0
M  V30 2326 C 216.029 -1.93444 -2.88439 0
M  V30 2327 C 214.983 -3.09038 -2.96108 0
M  V30 2328 C 214.309 -3.09268 -4.36185 0
M  V30 2329 C 215.609 -4.48508 -2.67652 0
M  V30 2330 H 217.303 -2.70237 -1.28889 0
M  V30 2331 H 214.849 -1.30036 -0.618605 0
M  V30 2332 H 216.802 -2.10394 -3.65119 0
M  V30 2333 H 215.526 -0.983129 -3.11452 0
M  V30 2334 H 214.185 -2.91837 -2.21872 0
M  V30 2335 H 213.833 -2.11861 -4.56206 0
M  V30 2336 H 213.533 -3.86907 -4.42241 0
M  V30 2337 H 215.057 -3.28348 -5.14801 0
M  V30 2338 H 216.471 -4.65918 -3.34056 0
M  V30 2339 H 214.868 -5.28059 -2.85085 0
M  V30 2340 H 215.938 -4.56649 -1.63095 0
M  V30 2341 N 217.281 0.66697 -1.42791 0
M  V30 2342 C 218.231 1.77313 -1.43332 0
M  V30 2343 C 219.215 1.5801 -0.303586 0
M  V30 2344 O 220.407 1.68356 -0.546385 0
M  V30 2345 C 217.536 3.15822 -1.34578 0
M  V30 2346 C 216.622 3.40721 -2.52528 0
M  V30 2347 N 217.013 3.36162 -3.77927 0
M  V30 2348 C 215.311 3.71387 -2.46956 0
M  V30 2349 C 216.012 3.60762 -4.56318 0
M  V30 2350 N 214.988 3.81908 -3.86843 0
M  V30 2351 H 218.79 1.72193 -2.38174 0
M  V30 2352 H 216.304 0.868114 -1.3725 0
M  V30 2353 H 218.301 3.951 -1.33048 0
M  V30 2354 H 216.961 3.22133 -0.407453 0
M  V30 2355 H 217.972 3.15885 -4.10411 0
M  V30 2356 H 214.649 3.84897 -1.61743 0
M  V30 2357 H 216.039 3.63132 -5.65318 0
M  V30 2358 N 218.759 1.29093 0.90403 0
M  V30 2359 C 219.984 1.19809 1.69294 0
M  V30 2360 C 220.409 -0.238481 1.86582 0
M  V30 2361 O 219.767 -1.1723 1.383 0
M  V30 2362 C 219.815 1.91202 3.05736 0
M  V30 2363 O 218.919 1.22611 3.93752 0
M  V30 2364 H 218.26 0.415385 0.518027 0
M  V30 2365 H 220.79 1.70586 1.12967 0
M  V30 2366 H 220.8 1.99487 3.55906 0
M  V30 2367 H 219.475 2.95692 2.92471 0
M  V30 2368 H 218.052 1.22554 3.52186 0
M  V30 2369 N 220.237 -1.11381 1.11499 0
M  V30 2370 C 221.147 -2.21019 0.786628 0
M  V30 2371 C 222.163 -1.72597 -0.220507 0
M  V30 2372 O 223.339 -2.01321 -0.0565251 0
M  V30 2373 C 220.404 -3.459 0.235333 0
M  V30 2374 C 219.465 -4.09107 1.30115 0
M  V30 2375 C 218.698 -5.28027 0.776068 0
M  V30 2376 O 218.921 -5.6904 -0.393661 0
M  V30 2377 O 217.855 -5.81835 1.54114 0
M  V30 2378 H 221.681 -2.51521 1.70209 0
M  V30 2379 H 219.266 -1.19928 0.890928 0
M  V30 2380 H 221.148 -4.21346 -0.067715 0
M  V30 2381 H 219.823 -3.17049 -0.652828 0
M  V30 2382 H 218.73 -3.35391 1.65722 0
M  V30 2383 H 220.063 -4.42139 2.16273 0
M  V30 2384 N 221.715 -0.905404 -1.28997 0
M  V30 2385 C 222.992 -0.453513 -1.9027 0
M  V30 2386 C 223.372 1.06721 -1.82137 0
M  V30 2387 O 222.72 1.91159 -1.25182 0
M  V30 2388 C 222.93 -0.974494 -3.35119 0
M  V30 2389 C 224.278 -1.0216 -4.12127 0
M  V30 2390 O 225.302 -0.922557 -3.44046 0
M  V30 2391 O 224.161 -1.17121 -5.33802 0
M  V30 2392 H 221.255 -0.142347 -0.814657 0
M  V30 2393 H 223.801 -0.995642 -1.37423 0
M  V30 2394 H 222.573 -2.01848 -3.35221 0
M  V30 2395 H 222.196 -0.412706 -3.95452 0
M  V30 2396 N 223.193 1.4272 -0.668489 0
M  V30 2397 C 224.421 2.05966 -0.196348 0
M  V30 2398 C 224.836 1.50191 1.14403 0
M  V30 2399 O 224.193 0.639208 1.7094 0
M  V30 2400 C 224.244 3.61314 -0.115815 0
M  V30 2401 O 223.965 4.1502 -1.40322 0
M  V30 2402 C 225.466 4.41663 0.380579 0
M  V30 2403 H 222.686 0.663954 -0.0969829 0
M  V30 2404 H 225.23 1.82966 -0.913446 0
M  V30 2405 H 223.385 3.83448 0.551931 0
M  V30 2406 H 223.799 5.08832 -1.27243 0
M  V30 2407 H 225.273 5.5065 0.385848 0
M  V30 2408 H 225.75 4.15792 1.41471 0
M  V30 2409 H 226.356 4.24534 -0.255209 0
M  V30 2410 N 224.671 0.411399 1.52136 0
M  V30 2411 C 225.601 -0.404015 2.29978 0
M  V30 2412 C 226.582 -1.04412 1.34284 0
M  V30 2413 O 227.767 -1.0527 1.63192 0
M  V30 2414 C 224.897 -1.5197 3.12286 0
M  V30 2415 C 223.851 -1.00448 4.16046 0
M  V30 2416 C 223.177 -2.21393 4.86712 0
M  V30 2417 C 224.477 -0.0569336 5.22269 0
M  V30 2418 H 226.171 0.245529 2.98392 0
M  V30 2419 H 223.717 0.119525 1.43503 0
M  V30 2420 H 225.67 -2.09715 3.6551 0
M  V30 2421 H 224.394 -2.19716 2.41646 0
M  V30 2422 H 223.053 -0.449421 3.63835 0
M  V30 2423 H 222.701 -2.87699 4.12599 0
M  V30 2424 H 222.401 -1.87571 5.56858 0
M  V30 2425 H 223.925 -2.7974 5.4275 0
M  V30 2426 H 225.339 -0.54325 5.7072 0
M  V30 2427 H 223.736 0.192594 5.99791 0
M  V30 2428 H 224.806 0.887663 4.76706 0
M  V30 2429 N 226.149 -1.5696 0.141893 0
M  V30 2430 C 227.081 -2.13619 -0.830627 0
M  V30 2431 C 228.094 -1.08439 -1.21428 0
M  V30 2432 O 229.283 -1.35734 -1.15925 0
M  V30 2433 C 226.383 -2.63978 -2.12529 0
M  V30 2434 C 225.556 -3.93504 -1.9098 0
M  V30 2435 C 224.615 -4.29225 -3.04388 0
M  V30 2436 O 223.641 -4.97641 -2.76302 0
M  V30 2437 N 224.843 -3.88393 -4.31429 0
M  V30 2438 H 227.608 -2.97691 -0.34641 0
M  V30 2439 H 225.169 -1.61846 -0.0418375 0
M  V30 2440 H 227.161 -2.84891 -2.87436 0
M  V30 2441 H 225.731 -1.84659 -2.52229 0
M  V30 2442 H 224.951 -3.81269 -1.00139 0
M  V30 2443 H 226.239 -4.78154 -1.73914 0
M  V30 2444 H 225.637 -3.33257 -4.57117 0
M  V30 2445 H 224.194 -4.14368 -5.03133 0
M  V30 2446 N 227.627 0.131896 -1.57047 0
M  V30 2447 C 228.56 1.19236 -1.94571 0
M  V30 2448 C 229.538 1.40782 -0.813576 0
M  V30 2449 O 230.722 1.55148 -1.07058 0
M  V30 2450 C 227.849 2.54858 -2.23081 0
M  V30 2451 C 226.895 2.49817 -3.45679 0
M  V30 2452 S 227.728 1.95036 -4.98719 0
M  V30 2453 C 228.884 3.32357 -5.30367 0
M  V30 2454 H 229.117 0.872297 -2.84215 0
M  V30 2455 H 226.65 0.338134 -1.50652 0
M  V30 2456 H 228.608 3.32898 -2.40185 0
M  V30 2457 H 227.269 2.84047 -1.34074 0
M  V30 2458 H 226.462 3.49688 -3.62952 0
M  V30 2459 H 226.064 1.79892 -3.27895 0
M  V30 2460 H 228.356 4.28525 -5.2476 0
M  V30 2461 H 229.299 3.19923 -6.31708 0
M  V30 2462 H 229.707 3.3019 -4.57859 0
M  V30 2463 N 229.106 1.52395 0.401703 0
M  V30 2464 C 230.383 1.57387 1.16141 0
M  V30 2465 C 230.763 0.359359 2.08019 0
M  V30 2466 O 230.111 -0.65326 2.18963 0
M  V30 2467 C 230.321 2.90631 1.93221 0
M  V30 2468 C 231.669 3.43904 2.49028 0
M  V30 2469 O 232.693 2.92421 2.03393 0
M  V30 2470 O 231.552 4.33823 3.32356 0
M  V30 2471 H 228.646 0.634262 0.530698 0
M  V30 2472 H 231.192 1.64725 0.407883 0
M  V30 2473 H 229.964 3.70473 1.25958 0
M  V30 2474 H 229.587 2.8662 2.75563 0
M  V30 2475 N 230.584 -0.659388 1.43143 0
M  V30 2476 C 231.832 -1.41654 1.44147 0
M  V30 2477 C 232.153 -1.94893 0.0645739 0
M  V30 2478 O 231.423 -1.74044 -0.899198 0
M  V30 2479 H 230.003 -0.525708 0.530697 0
M  V30 2480 H 232.665 -0.778097 1.78694 0
M  V30 2481 H 231.761 -2.26195 2.1504 0
M  V30 2482 N 232.062 -1.29571 -0.897171 0
M  V30 2483 C 233.012 -1.11539 -1.98855 0
M  V30 2484 C 233.996 -0.0340716 -1.60864 0
M  V30 2485 O 235.188 -0.256062 -1.75138 0
M  V30 2486 C 232.317 -0.796603 -3.3393 0
M  V30 2487 C 231.403 -1.91758 -3.78272 0
M  V30 2488 N 231.794 -3.16143 -3.94826 0
M  V30 2489 C 230.092 -1.81119 -4.07568 0
M  V30 2490 C 230.793 -3.89293 -4.32233 0
M  V30 2491 N 229.769 -3.17255 -4.41419 0
M  V30 2492 H 233.571 -2.05894 -2.09726 0
M  V30 2493 H 231.085 -1.20732 -1.08616 0
M  V30 2494 H 233.082 -0.648459 -4.11826 0
M  V30 2495 H 231.742 0.139003 -3.24402 0
M  V30 2496 H 232.753 -3.5157 -3.80288 0
M  V30 2497 H 229.43 -0.948461 -4.06584 0
M  V30 2498 H 230.82 -4.9635 -4.52865 0
M  V30 2499 N 233.54 1.10788 -1.12088 0
M  V30 2500 C 234.789 1.82036 -0.868659 0
M  V30 2501 C 235.102 1.85929 0.607426 0
M  V30 2502 O 236.308 2.53346 0.97613 0
M  V30 2503 C 234.764 3.26951 -1.50435 0
M  V30 2504 C 234.372 3.31367 -3.01496 0
M  V30 2505 C 236.116 4.03053 -1.33225 0
M  V30 2506 C 234.023 4.7072 -3.58017 0
M  V30 2507 H 232.953 0.682108 -0.321318 0
M  V30 2508 H 235.604 1.24618 -1.34694 0
M  V30 2509 H 233.986 3.84343 -0.953735 0
M  V30 2510 H 235.16 2.83819 -3.6302 0
M  V30 2511 H 233.475 2.6875 -3.18061 0
M  V30 2512 H 236.072 5.05981 -1.72878 0
M  V30 2513 H 236.415 4.15387 -0.275529 0
M  V30 2514 H 236.948 3.52066 -1.85188 0
M  V30 2515 H 233.687 4.63585 -4.63432 0
M  V30 2516 H 233.207 5.1865 -3.01268 0
M  V30 2517 H 234.886 5.39685 -3.56859 0
M  V30 2518 N 235.018 0.912232 1.28515 0
M  V30 2519 C 235.948 0.416403 2.29757 0
M  V30 2520 C 236.929 -0.515194 1.6211 0
M  V30 2521 O 238.114 -0.423253 1.89532 0
M  V30 2522 C 235.244 -0.34572 3.45575 0
M  V30 2523 C 234.198 0.496599 4.25109 0
M  V30 2524 C 233.524 -0.393771 5.33248 0
M  V30 2525 C 234.824 1.75307 4.92001 0
M  V30 2526 H 236.518 1.26249 2.7148 0
M  V30 2527 H 234.064 0.608515 1.30511 0
M  V30 2528 H 236.017 -0.703422 4.15488 0
M  V30 2529 H 234.741 -1.2257 3.02728 0
M  V30 2530 H 233.4 0.8368 3.56922 0
M  V30 2531 H 233.048 -1.27225 4.86644 0
M  V30 2532 H 232.748 0.166209 5.87365 0
M  V30 2533 H 234.272 -0.747389 6.06009 0
M  V30 2534 H 235.686 1.46437 5.54283 0
M  V30 2535 H 234.083 2.25534 5.56106 0
M  V30 2536 H 235.153 2.48176 4.16577 0
M  V30 2537 N 236.496 -1.42363 0.676048 0
M  V30 2538 C 237.773 -1.95183 0.127726 0
M  V30 2539 C 238.153 -1.61641 -1.35777 0
M  V30 2540 O 237.501 -0.913216 -2.09458 0
M  V30 2541 C 237.711 -3.46721 0.398199 0
M  V30 2542 C 239.059 -4.23427 0.315383 0
M  V30 2543 O 240.083 -3.54649 0.332016 0
M  V30 2544 O 238.942 -5.45888 0.25865 0
M  V30 2545 H 236.036 -0.826992 0.00359427 0
M  V30 2546 H 238.582 -1.52184 0.750864 0
M  V30 2547 H 237.354 -3.64344 1.4272 0
M  V30 2548 H 236.977 -3.96769 -0.256885 0
M  V30 2549 N 237.974 -0.419461 -1.51915 0
M  V30 2550 C 239.199 0.154572 -2.06823 0
M  V30 2551 C 239.624 1.3722 -1.28656 0
M  V30 2552 O 238.982 1.78461 -0.319583 0
M  V30 2553 C 239.03 0.473172 -3.57482 0
M  V30 2554 O 238.134 1.56255 -3.81652 0
M  V30 2555 H 237.475 0.0096924 -0.663929 0
M  V30 2556 H 240.005 -0.595642 -1.95738 0
M  V30 2557 H 240.015 0.728825 -4.01438 0
M  V30 2558 H 238.69 -0.416873 -4.13805 0
M  V30 2559 H 237.267 1.29825 -3.49571 0
M  V30 2560 N 239.452 1.56882 -0.150215 0
M  V30 2561 C 240.399 2.16922 0.788244 0
M  V30 2562 C 241.369 1.10303 1.24187 0
M  V30 2563 O 242.554 1.38359 1.31383 0
M  V30 2564 C 239.694 2.79754 2.02068 0
M  V30 2565 C 238.807 4.00775 1.61257 0
M  V30 2566 C 237.942 4.51595 2.79705 0
M  V30 2567 C 236.981 5.65074 2.35282 0
M  V30 2568 N 236.118 6.10499 3.4675 0
M  V30 2569 H 240.958 2.96779 0.269444 0
M  V30 2570 H 238.495 1.46599 0.12128 0
M  V30 2571 H 240.453 3.14329 2.74323 0
M  V30 2572 H 239.083 2.02536 2.51354 0
M  V30 2573 H 238.135 3.72158 0.787553 0
M  V30 2574 H 239.447 4.82978 1.24633 0
M  V30 2575 H 238.601 4.88242 3.60145 0
M  V30 2576 H 237.34 3.68406 3.19576 0
M  V30 2577 H 236.345 5.28 1.53283 0
M  V30 2578 H 237.57 6.50052 1.96493 0
M  V30 2579 H 235.516 5.30243 3.86236 0
M  V30 2580 H 235.433 6.87637 3.14152 0
M  V30 2581 H 236.701 6.51791 4.27537 0
M  V30 2582 N 240.93 -0.123565 1.57115 0
M  V30 2583 C 242.346 -0.476961 1.52306 0
M  V30 2584 C 242.546 -1.82109 0.86248 0
M  V30 2585 O 241.602 -2.48586 0.442884 0
M  V30 2586 C 242.915 -0.465661 2.97073 0
M  V30 2587 C 244.463 -0.549534 3.08138 0
M  V30 2588 C 244.938 -0.568669 4.54456 0
M  V30 2589 N 246.429 -0.630237 4.58892 0
M  V30 2590 C 247.164 -0.666415 5.69514 0
M  V30 2591 N 246.66 -0.660514 6.89644 0
M  V30 2592 N 248.453 -0.709077 5.5761 0
M  V30 2593 H 240.604 0.757198 1.98445 0
M  V30 2594 H 242.867 0.278808 0.906074 0
M  V30 2595 H 242.573 0.454232 3.48754 0
M  V30 2596 H 242.447 -1.29513 3.54269 0
M  V30 2597 H 244.834 -1.45985 2.56461 0
M  V30 2598 H 244.915 0.307532 2.53945 0
M  V30 2599 H 244.559 0.337581 5.06777 0
M  V30 2600 H 244.489 -1.44256 5.06456 0
M  V30 2601 H 246.98 -0.641146 3.72421 0
M  V30 2602 H 247.293 -0.690616 7.69708 0
M  V30 2603 H 245.638 -0.628012 6.92157 0
M  V30 2604 H 248.829 -0.711019 4.62668 0
M  V30 2605 H 249.002 -0.733804 6.43832 0
M  V30 2606 N 242.408 -1.52605 -0.393616 0
M  V30 2607 C 243.638 -1.71046 -1.15874 0
M  V30 2608 C 244.046 -0.426483 -1.84331 0
M  V30 2609 O 243.389 0.608513 -1.73329 0
M  V30 2610 C 243.451 -2.80118 -2.25332 0
M  V30 2611 C 243.115 -4.21381 -1.76881 0
M  V30 2612 C 244.112 -5.04697 -1.24808 0
M  V30 2613 C 241.797 -4.67683 -1.83244 0
M  V30 2614 C 243.791 -6.32393 -0.797387 0
M  V30 2615 C 241.478 -5.95364 -1.37787 0
M  V30 2616 C 242.476 -6.77549 -0.861208 0
M  V30 2617 O 242.164 -8.02837 -0.413252 0
M  V30 2618 H 241.896 -0.576155 -0.353583 0
M  V30 2619 H 244.45 -2.00018 -0.467123 0
M  V30 2620 H 242.68 -2.46557 -2.97904 0
M  V30 2621 H 244.369 -2.87006 -2.87023 0
M  V30 2622 H 245.135 -4.70111 -1.19252 0
M  V30 2623 H 241.014 -4.03805 -2.22401 0
M  V30 2624 H 244.558 -6.9649 -0.393437 0
M  V30 2625 H 240.455 -6.29455 -1.43026 0
M  V30 2626 H 241.223 -8.16749 -0.53515 0
M  V30 2627 N 243.887 0.651787 -1.4349 0
M  V30 2628 C 244.85 1.74647 -1.48429 0
M  V30 2629 C 245.85 1.56513 -0.368817 0
M  V30 2630 O 247.04 1.62385 -0.630623 0
M  V30 2631 C 244.172 3.13533 -1.33827 0
M  V30 2632 H 245.365 1.71649 -2.4592 0
M  V30 2633 H 242.918 0.863573 -1.30277 0
M  V30 2634 H 243.653 3.22142 -0.37349 0
M  V30 2635 H 243.438 3.28101 -2.14691 0
M  V30 2636 H 244.928 3.93356 -1.40218 0
M  V30 2637 N 245.365 1.30045 0.890287 0
M  V30 2638 C 246.611 1.18737 1.64406 0
M  V30 2639 C 246.944 -0.258525 1.92472 0
M  V30 2640 O 246.219 -1.18562 1.54186 0
M  V30 2641 C 246.502 2.01087 2.98724 0
M  V30 2642 C 246.355 3.53867 2.77665 0
M  V30 2643 C 247.674 1.84457 3.9958 0
M  V30 2644 H 244.793 0.432698 0.596608 0
M  V30 2645 H 247.435 1.5962 1.0306 0
M  V30 2646 H 245.585 1.66349 3.51084 0
M  V30 2647 H 247.257 3.98637 2.32133 0
M  V30 2648 H 245.5 3.78318 2.12269 0
M  V30 2649 H 246.171 4.06772 3.7315 0
M  V30 2650 H 248.647 2.14817 3.56361 0
M  V30 2651 H 247.523 2.44411 4.91482 0
M  V30 2652 H 247.784 0.802276 4.3476 0
M  V30 2653 N 246.843 -1.10192 1.12674 0
M  V30 2654 C 248.092 -1.81573 0.8783 0
M  V30 2655 C 248.405 -1.86249 -0.597557 0
M  V30 2656 O 249.611 -2.5386 -0.962681 0
M  V30 2657 C 248.067 -3.26149 1.52167 0
M  V30 2658 C 247.675 -3.29763 3.03249 0
M  V30 2659 C 249.419 -4.0234 1.3536 0
M  V30 2660 C 247.326 -4.68815 3.60508 0
M  V30 2661 H 246.256 -0.680394 0.324931 0
M  V30 2662 H 248.907 -1.23902 1.35353 0
M  V30 2663 H 247.289 -3.83832 0.974104 0
M  V30 2664 H 248.463 -2.8189 3.6452 0
M  V30 2665 H 246.778 -2.67059 3.19481 0
M  V30 2666 H 249.375 -5.05058 1.75559 0
M  V30 2667 H 249.718 -4.15235 0.297554 0
M  V30 2668 H 250.251 -3.51079 1.87052 0
M  V30 2669 H 246.99 -4.61121 4.65884 0
M  V30 2670 H 246.51 -5.17045 3.04014 0
M  V30 2671 H 248.189 -5.37785 3.59717 0
M  V30 2672 N 248.321 -0.919034 -1.28029 0
M  V30 2673 C 249.569 -0.553838 -1.94363 0
M  V30 2674 C 249.89 0.906357 -1.72656 0
M  V30 2675 O 249.16 1.64143 -1.0693 0
M  V30 2676 H 247.74 -0.201834 -0.719216 0
M  V30 2677 H 250.402 -1.16954 -1.55909 0
M  V30 2678 H 249.498 -0.752758 -3.02886 0
M  V30 2679 N 249.799 1.42003 -0.683588 0
M  V30 2680 C 250.762 2.29191 -0.0198243 0
M  V30 2681 C 251.762 1.43773 0.72013 0
M  V30 2682 O 252.952 1.65061 0.556815 0
M  V30 2683 C 250.084 3.26435 0.982487 0
M  V30 2684 H 251.277 2.8938 -0.787345 0
M  V30 2685 H 248.83 1.49789 -0.446418 0
M  V30 2686 H 249.565 2.71203 1.77819 0
M  V30 2687 H 249.35 3.89449 0.455182 0
M  V30 2688 H 250.84 3.918 1.44508 0
M  V30 2689 N 251.277 0.427512 1.51691 0
M  V30 2690 C 252.554 -0.201684 1.94557 0
M  V30 2691 C 252.934 -1.60981 1.36559 0
M  V30 2692 O 252.282 -2.21814 0.548702 0
M  V30 2693 C 252.492 -0.189394 3.48486 0
M  V30 2694 C 253.84 -0.39978 4.22714 0
M  V30 2695 O 254.864 -0.267945 3.55191 0
M  V30 2696 O 253.723 -0.661249 5.42485 0
M  V30 2697 H 250.817 -0.135261 0.815864 0
M  V30 2698 H 253.363 0.484782 1.62628 0
M  V30 2699 H 252.135 0.795431 3.8313 0
M  V30 2700 H 251.758 -0.919187 3.86829 0
M  V30 2701 N 252.755 -1.56801 0.158532 0
M  V30 2702 C 253.685 -2.20347 -0.772609 0
M  V30 2703 C 254.666 -1.15518 -1.24859 0
M  V30 2704 O 255.851 -1.43902 -1.30406 0
M  V30 2705 C 252.981 -2.83417 -2.00729 0
M  V30 2706 C 251.935 -3.94174 -1.66765 0
M  V30 2707 C 251.261 -4.44233 -2.97592 0
M  V30 2708 C 252.561 -5.14392 -0.905447 0
M  V30 2709 H 254.255 -2.98413 -0.242959 0
M  V30 2710 H 251.801 -1.43537 -0.115419 0
M  V30 2711 H 253.754 -3.26543 -2.6636 0
M  V30 2712 H 252.478 -2.02701 -2.56086 0
M  V30 2713 H 251.137 -3.51684 -1.03508 0
M  V30 2714 H 250.785 -3.60325 -3.50963 0
M  V30 2715 H 250.485 -5.18945 -2.75626 0
M  V30 2716 H 252.009 -4.90037 -3.64274 0
M  V30 2717 H 253.423 -5.5429 -1.46408 0
M  V30 2718 H 251.82 -5.9494 -0.7853 0
M  V30 2719 H 252.89 -4.84795 0.100668 0
M  V30 2720 N 254.233 0.115231 -1.57178 0
M  V30 2721 C 255.649 0.468877 -1.52557 0
M  V30 2722 C 255.849 1.81649 -0.872125 0
M  V30 2723 O 254.905 2.48347 -0.45606 0
M  V30 2724 C 256.218 0.4499 -2.97315 0
M  V30 2725 C 257.766 0.533185 -3.08425 0
M  V30 2726 C 258.241 0.54456 -4.54751 0
M  V30 2727 N 259.732 0.605892 -4.5922 0
M  V30 2728 C 260.467 0.636203 -5.6986 0
M  V30 2729 N 259.963 0.623931 -6.89985 0
M  V30 2730 N 261.756 0.679496 -5.57978 0
M  V30 2731 H 253.907 -0.767712 -1.9804 0
M  V30 2732 H 256.17 -0.283609 -0.904583 0
M  V30 2733 H 255.876 -0.472721 -3.48509 0
M  V30 2734 H 255.75 1.27632 -3.5495 0
M  V30 2735 H 258.137 1.44623 -2.57232 0
M  V30 2736 H 258.218 -0.320995 -2.53778 0
M  V30 2737 H 257.862 -0.364452 -5.06591 0
M  V30 2738 H 257.792 1.41568 -5.07214 0
M  V30 2739 H 260.283 0.621386 -3.72756 0
M  V30 2740 H 260.596 0.649787 -7.70063 0
M  V30 2741 H 258.941 0.591296 -6.9248 0
M  V30 2742 H 262.132 0.686472 -4.63039 0
M  V30 2743 H 262.305 0.69965 -6.44212 0
M  V30 2744 N 255.711 1.52812 0.385517 0
M  V30 2745 C 256.988 1.5861 1.14465 0
M  V30 2746 C 257.368 0.381402 2.07626 0
M  V30 2747 O 256.716 -0.629999 2.19643 0
M  V30 2748 C 256.926 2.92664 1.90128 0
M  V30 2749 C 258.274 3.46526 2.45367 0
M  V30 2750 O 259.298 2.94562 2.0028 0
M  V30 2751 O 258.157 4.37323 3.27736 0
M  V30 2752 H 255.251 0.639855 0.523941 0
M  V30 2753 H 257.797 1.65149 0.390389 0
M  V30 2754 H 256.569 3.71788 1.22022 0
M  V30 2755 H 256.192 2.89527 2.72507 0
M  V30 2756 N 257.189 -0.644168 1.43834 0
M  V30 2757 C 258.119 -1.76814 1.52509 0
M  V30 2758 C 259.1 -1.65823 0.379052 0
M  V30 2759 O 260.285 -1.84781 0.597466 0
M  V30 2760 C 257.415 -3.15288 1.4564 0
M  V30 2761 C 256.369 -3.41053 2.58586 0
M  V30 2762 C 255.695 -4.79421 2.36769 0
M  V30 2763 C 256.995 -3.34902 4.00797 0
M  V30 2764 H 258.689 -1.69812 2.46586 0
M  V30 2765 H 256.235 -0.815542 1.1868 0
M  V30 2766 H 258.188 -3.93681 1.50311 0
M  V30 2767 H 256.912 -3.23043 0.480725 0
M  V30 2768 H 255.571 -2.65035 2.53282 0
M  V30 2769 H 255.219 -4.83863 1.37424 0
M  V30 2770 H 254.919 -4.9762 3.12487 0
M  V30 2771 H 256.443 -5.6006 2.43238 0
M  V30 2772 H 257.857 -4.03218 4.07539 0
M  V30 2773 H 256.254 -3.64637 4.76613 0
M  V30 2774 H 257.324 -2.32928 4.25291 0
M  V30 2775 N 258.668 -1.30515 -0.883378 0
M  V30 2776 C 259.893 -1.22487 -1.67367 0
M  V30 2777 C 260.318 0.208767 -1.86938 0
M  V30 2778 O 259.676 1.15015 -1.40148 0
M  V30 2779 C 259.724 -1.96041 -3.02655 0
M  V30 2780 O 258.828 -1.28859 -3.91751 0
M  V30 2781 H 258.169 -0.423573 -0.511353 0
M  V30 2782 H 260.699 -1.72362 -1.10239 0
M  V30 2783 H 260.709 -2.05124 -3.52687 0
M  V30 2784 H 259.384 -3.00307 -2.8773 0
M  V30 2785 H 257.961 -1.28141 -3.50192 0
M  V30 2786 N 260.146 1.09593 -1.13257 0
M  V30 2787 C 261.056 2.19739 -0.821691 0
M  V30 2788 C 262.072 1.72926 0.19302 0
M  V30 2789 O 263.248 2.01385 0.0244895 0
M  V30 2790 C 260.313 3.45482 -0.290333 0
M  V30 2791 C 259.374 4.06985 -1.36607 0
M  V30 2792 C 258.607 5.26726 -0.859975 0
M  V30 2793 O 258.83 5.69594 0.303082 0
M  V30 2794 O 257.764 5.7931 -1.63351 0
M  V30 2795 H 261.59 2.48781 -1.74189 0
M  V30 2796 H 259.175 1.18496 -0.909894 0
M  V30 2797 H 261.057 4.214 0.000674022 0
M  V30 2798 H 259.732 3.18047 0.602306 0
M  V30 2799 H 258.639 3.32712 -1.71037 0
M  V30 2800 H 259.972 4.38643 -2.23279 0
M  V30 2801 N 261.624 0.925811 1.2754 0
M  V30 2802 C 262.554 0.440748 2.29303 0
M  V30 2803 C 263.535 -0.497971 1.62648 0
M  V30 2804 O 264.72 -0.403126 1.8997 0
M  V30 2805 C 261.85 -0.309048 3.45922 0
M  V30 2806 C 260.804 0.54166 4.24559 0
M  V30 2807 C 260.13 -0.337191 5.33636 0
M  V30 2808 C 261.43 1.80516 4.90114 0
M  V30 2809 H 263.124 1.29121 2.70126 0
M  V30 2810 H 260.67 0.622323 1.29858 0
M  V30 2811 H 262.623 -0.659315 4.1621 0
M  V30 2812 H 261.347 -1.19352 3.04011 0
M  V30 2813 H 260.006 0.874609 3.56014 0
M  V30 2814 H 259.654 -1.22056 4.87966 0
M  V30 2815 H 259.354 0.228497 5.87156 0
M  V30 2816 H 260.878 -0.683072 6.06767 0
M  V30 2817 H 262.292 1.52307 5.52698 0
M  V30 2818 H 260.689 2.3142 5.53683 0
M  V30 2819 H 261.759 2.52581 4.13921 0
M  V30 2820 N 263.102 -1.41638 0.69111 0
M  V30 2821 C 264.012 -2.34588 0.0233487 0
M  V30 2822 C 265.028 -1.55987 -0.770984 0
M  V30 2823 O 266.204 -1.88486 -0.709569 0
M  V30 2824 C 263.269 -3.34684 -0.904851 0
M  V30 2825 C 262.33 -4.29176 -0.103225 0
M  V30 2826 C 261.563 -5.2449 -0.987216 0
M  V30 2827 O 261.786 -5.2514 -2.22674 0
M  V30 2828 O 260.72 -6.00295 -0.439281 0
M  V30 2829 H 264.546 -2.93261 0.789416 0
M  V30 2830 H 262.131 -1.42417 0.45142 0
M  V30 2831 H 264.013 -3.96133 -1.43724 0
M  V30 2832 H 262.688 -2.78461 -1.65049 0
M  V30 2833 H 261.595 -3.71089 0.473655 0
M  V30 2834 H 262.928 -4.88484 0.60365 0
M  V30 2835 N 264.58 -0.43555 -1.51462 0
M  V30 2836 C 265.49 0.383001 -2.31453 0
M  V30 2837 C 266.506 1.02931 -1.4029 0
M  V30 2838 O 267.682 1.02507 -1.73362 0
M  V30 2839 C 264.747 1.47043 -3.13973 0
M  V30 2840 C 263.808 0.844433 -4.20913 0
M  V30 2841 C 263.041 1.88004 -4.9949 0
M  V30 2842 O 263.264 3.10199 -4.78678 0
M  V30 2843 O 262.198 1.47157 -5.83634 0
M  V30 2844 H 266.024 -0.269964 -3.02498 0
M  V30 2845 H 263.609 -0.19813 -1.4808 0
M  V30 2846 H 265.491 2.10113 -3.65281 0
M  V30 2847 H 264.166 2.10751 -2.45695 0
M  V30 2848 H 263.073 0.175729 -3.73687 0
M  V30 2849 H 264.406 0.250869 -4.9156 0
M  V30 2850 N 266.058 1.56714 -0.166846 0
M  V30 2851 C 267.005 2.17746 0.765193 0
M  V30 2852 C 267.975 1.11614 1.23011 0
M  V30 2853 O 269.16 1.39745 1.29908 0
M  V30 2854 C 266.3 2.81882 1.9909 0
M  V30 2855 C 265.413 4.02462 1.56997 0
M  V30 2856 C 264.548 4.54537 2.749 0
M  V30 2857 C 263.587 5.67538 2.29275 0
M  V30 2858 N 262.724 6.14142 3.40255 0
M  V30 2859 H 267.564 2.97048 0.237952 0
M  V30 2860 H 265.101 1.4672 0.105725 0
M  V30 2861 H 267.059 3.17221 2.70974 0
M  V30 2862 H 265.689 2.05191 2.49192 0
M  V30 2863 H 264.741 3.72973 0.748037 0
M  V30 2864 H 266.053 4.84273 1.19503 0
M  V30 2865 H 265.207 4.92035 3.54946 0
M  V30 2866 H 263.946 3.71774 3.1565 0
M  V30 2867 H 262.951 5.29597 1.47674 0
M  V30 2868 H 264.176 6.52099 1.89588 0
M  V30 2869 H 262.122 5.3431 3.8059 0
M  V30 2870 H 262.039 6.9093 3.06841 0
M  V30 2871 H 263.307 6.56289 4.206 0
M  V30 2872 N 267.536 -0.106894 1.57237 0
M  V30 2873 C 268.466 -1.13148 2.04254 0
M  V30 2874 C 269.447 -1.42476 0.929224 0
M  V30 2875 O 270.632 -1.52709 1.19973 0
M  V30 2876 C 267.762 -2.4545 2.45706 0
M  V30 2877 C 266.716 -2.30558 3.60592 0
M  V30 2878 C 266.042 -3.67931 3.87983 0
M  V30 2879 C 267.342 -1.75597 4.91897 0
M  V30 2880 H 269.036 -0.740374 2.90101 0
M  V30 2881 H 266.582 -0.354696 1.39563 0
M  V30 2882 H 268.535 -3.17389 2.77205 0
M  V30 2883 H 267.259 -2.86475 1.56843 0
M  V30 2884 H 265.918 -1.61067 3.29322 0
M  V30 2885 H 265.566 -4.06462 2.96306 0
M  V30 2886 H 265.266 -3.58817 4.65322 0
M  V30 2887 H 266.79 -4.41356 4.21945 0
M  V30 2888 H 268.204 -2.37364 5.21854 0
M  V30 2889 H 266.601 -1.77272 5.73319 0
M  V30 2890 H 267.671 -0.714451 4.79608 0
M  V30 2891 N 269.014 -1.53014 -0.377408 0
M  V30 2892 C 269.961 -1.78616 -1.46168 0
M  V30 2893 C 270.931 -0.629917 -1.53692 0
M  V30 2894 O 272.116 -0.870861 -1.69766 0
M  V30 2895 C 269.256 -1.97123 -2.8326 0
M  V30 2896 C 268.369 -3.24831 -2.84796 0
M  V30 2897 C 267.504 -3.33591 -4.13389 0
M  V30 2898 C 266.543 -4.55377 -4.09021 0
M  V30 2899 N 265.68 -4.61355 -5.29241 0
M  V30 2900 H 270.52 -2.71142 -1.23637 0
M  V30 2901 H 268.057 -1.34326 -0.599577 0
M  V30 2902 H 270.015 -2.05839 -3.62886 0
M  V30 2903 H 268.645 -1.07946 -3.04216 0
M  V30 2904 H 267.697 -3.25128 -1.97474 0
M  V30 2905 H 269.009 -4.14523 -2.77439 0
M  V30 2906 H 268.163 -3.41554 -5.01424 0
M  V30 2907 H 266.902 -2.41894 -4.23484 0
M  V30 2908 H 265.907 -4.47527 -3.19373 0
M  V30 2909 H 267.132 -5.48402 -4.00539 0
M  V30 2910 H 265.078 -3.72554 -5.39944 0
M  V30 2911 H 264.995 -5.44935 -5.24006 0
M  V30 2912 H 266.263 -4.73586 -6.19141 0
M  V30 2913 N 270.492 0.636531 -1.44174 0
M  V30 2914 C 271.439 1.74875 -1.50624 0
M  V30 2915 C 272.409 1.62275 -0.35442 0
M  V30 2916 O 273.594 1.82276 -0.563908 0
M  V30 2917 C 270.734 3.13102 -1.45125 0
M  V30 2918 C 269.847 3.36717 -2.7064 0
M  V30 2919 C 268.982 4.64885 -2.57013 0
M  V30 2920 C 268.021 4.8166 -3.77717 0
M  V30 2921 N 267.158 6.01101 -3.62798 0
M  V30 2922 H 271.998 1.68697 -2.45653 0
M  V30 2923 H 269.535 0.823004 -1.21922 0
M  V30 2924 H 271.493 3.93034 -1.39929 0
M  V30 2925 H 270.123 3.18308 -0.536671 0
M  V30 2926 H 269.175 2.50763 -2.86046 0
M  V30 2927 H 270.487 3.44993 -3.60252 0
M  V30 2928 H 269.641 5.52969 -2.49619 0
M  V30 2929 H 268.38 4.58957 -1.64953 0
M  V30 2930 H 267.385 3.92007 -3.85501 0
M  V30 2931 H 268.61 4.89406 -4.70807 0
M  V30 2932 H 266.556 5.96273 -2.73486 0
M  V30 2933 H 266.473 6.10409 -4.46023 0
M  V30 2934 H 267.741 6.91761 -3.59286 0
M  V30 2935 N 271.97 1.30982 0.876444 0
M  V30 2936 C 273.21 1.21589 1.64303 0
M  V30 2937 C 273.574 -0.223962 1.90689 0
M  V30 2938 O 274.775 -0.44128 2.65153 0
M  V30 2939 C 273.046 2.03007 2.94148 0
M  V30 2940 S 274.605 2.10405 3.85065 0
M  V30 2941 H 271.423 0.433161 0.563819 0
M  V30 2942 H 274.025 1.65565 1.03964 0
M  V30 2943 H 272.729 3.06719 2.72675 0
M  V30 2944 H 272.26 1.59725 3.59515 0
M  V30 2945 H 274.275 1.23765 4.80517 0
M  V30 2946 N 273.449 -1.08991 1.13837 0
M  V30 2947 C 274.397 -2.17841 0.815347 0
M  V30 2948 C 275.391 -1.68164 -0.204233 0
M  V30 2949 O 276.597 -1.79897 -0.0609304 0
M  V30 2950 H 272.972 -0.710654 0.245915 0
M  V30 2951 H 274.943 -2.42315 1.74143 0
M  V30 2952 C 273.692 -3.46381 0.302614 0
M  V30 2953 H 273.015 -3.84979 1.0785 0
M  V30 2954 H 274.455 -4.23844 0.115074 0
M  V30 2955 C 272.914 -3.22556 -0.972591 0
M  V30 2956 O 273.444 -3.45599 -2.04754 0
M  V30 2957 N 271.65 -2.76134 -0.905455 0
M  V30 2958 H 271.197 -2.57582 -0.0305421 0
M  V30 2959 H 271.155 -2.60571 -1.75926 0
M  V30 2960 N 274.927 -0.932562 -1.27047 0
M  V30 2961 C 275.86 -0.379774 -2.25018 0
M  V30 2962 C 276.838 0.526587 -1.53837 0
M  V30 2963 O 278.022 0.465992 -1.82649 0
M  V30 2964 C 275.149 0.455187 -3.35627 0
M  V30 2965 C 274.195 -0.388428 -4.24728 0
M  V30 2966 S 275.028 -1.80701 -5.04091 0
M  V30 2967 C 276.184 -0.979865 -6.18182 0
M  V30 2968 H 276.417 -1.2101 -2.71558 0
M  V30 2969 H 273.95 -0.735078 -1.35779 0
M  V30 2970 H 275.908 0.931052 -3.99802 0
M  V30 2971 H 274.569 1.26009 -2.87716 0
M  V30 2972 H 273.762 0.25089 -5.03375 0
M  V30 2973 H 273.364 -0.798649 -3.65373 0
M  V30 2974 H 275.656 -0.218115 -6.77149 0
M  V30 2975 H 276.599 -1.73951 -6.86401 0
M  V30 2976 H 277.007 -0.51973 -5.62102 0
M  V30 2977 N 276.405 1.4127 -0.698611 0
M  V30 2978 C 277.353 2.32588 -0.023855 0
M  V30 2979 C 278.347 1.51128 0.765292 0
M  V30 2980 O 279.553 1.67043 0.670571 0
M  V30 2981 H 275.928 0.751918 0.0110871 0
M  V30 2982 H 277.899 2.87167 -0.811031 0
M  V30 2983 C 276.648 3.35947 0.896369 0
M  V30 2984 H 275.971 3.98684 0.298548 0
M  V30 2985 H 277.411 4.02376 1.33676 0
M  V30 2986 C 275.87 2.70076 2.01396 0
M  V30 2987 O 276.4 2.55093 3.10307 0
M  V30 2988 N 274.606 2.28724 1.79259 0
M  V30 2989 H 274.153 2.4111 0.906841 0
M  V30 2990 H 274.111 1.84986 2.54219 0
M  V30 2991 N 277.883 0.443576 1.51229 0
M  V30 2992 C 279.111 -0.11929 2.06556 0
M  V30 2993 C 279.526 -1.35921 1.31038 0
M  V30 2994 O 278.883 -1.78675 0.371704 0
M  V30 2995 C 278.934 -0.435228 3.5887 0
M  V30 2996 O 278.655 0.755486 4.31537 0
M  V30 2997 C 280.156 -1.04808 4.30732 0
M  V30 2998 H 277.376 -0.0051584 0.67098 0
M  V30 2999 H 279.92 0.624453 1.94733 0
M  V30 3000 H 278.075 -1.12887 3.70588 0
M  V30 3001 H 278.489 0.483491 5.22267 0
M  V30 3002 H 279.963 -1.2191 5.3837 0
M  V30 3003 H 280.44 -2.03081 3.89429 0
M  V30 3004 H 281.046 -0.393637 4.23474 0
M  V30 3005 N 279.361 -1.56624 0.175154 0
M  V30 3006 C 280.293 -2.15333 -0.785128 0
M  V30 3007 C 281.306 -1.1099 -1.19101 0
M  V30 3008 O 282.495 -1.38162 -1.13019 0
M  V30 3009 C 279.595 -2.68427 -2.06882 0
M  V30 3010 C 278.768 -3.97466 -1.8259 0
M  V30 3011 C 277.827 -4.35585 -2.95215 0
M  V30 3012 O 276.853 -5.03389 -2.65684 0
M  V30 3013 N 278.055 -3.97457 -4.23094 0
M  V30 3014 H 280.82 -2.98359 -0.283187 0
M  V30 3015 H 278.381 -1.61898 -0.00749817 0
M  V30 3016 H 280.373 -2.90924 -2.81328 0
M  V30 3017 H 278.943 -1.89968 -2.48256 0
M  V30 3018 H 278.163 -3.83307 -0.920287 0
M  V30 3019 H 279.451 -4.81736 -1.63733 0
M  V30 3020 H 278.849 -3.42878 -4.49945 0
M  V30 3021 H 277.406 -4.24947 -4.9423 0
M  V30 3022 N 280.839 0.0985539 -1.57292 0
M  V30 3023 C 281.769 1.12064 -2.04851 0
M  V30 3024 C 282.75 1.41981 -0.936767 0
M  V30 3025 O 283.935 1.52071 -1.20781 0
M  V30 3026 C 281.065 2.44144 -2.47004 0
M  V30 3027 C 280.019 2.28643 -3.6181 0
M  V30 3028 C 279.345 3.65869 -3.89929 0
M  V30 3029 C 280.645 1.72986 -4.92822 0
M  V30 3030 H 282.339 0.724979 -2.9049 0
M  V30 3031 H 279.885 0.34729 -1.39749 0
M  V30 3032 H 281.838 3.15914 -2.78884 0
M  V30 3033 H 280.562 2.85639 -1.5836 0
M  V30 3034 H 279.221 1.59318 -3.30172 0
M  V30 3035 H 278.869 4.04885 -2.98458 0
M  V30 3036 H 278.569 3.56344 -4.67218 0
M  V30 3037 H 280.093 4.39112 -4.2428 0
M  V30 3038 H 281.507 2.34593 -5.23105 0
M  V30 3039 H 279.904 1.74229 -5.74251 0
M  V30 3040 H 280.974 0.689007 -4.7998 0
M  V30 3041 N 282.317 1.53212 0.369288 0
M  V30 3042 C 283.728 1.60943 0.946276 0
M  V30 3043 C 284.079 0.47452 1.90375 0
M  V30 3044 O 283.204 -0.399597 2.12679 0
M  V30 3045 C 283.799 2.91715 1.72302 0
M  V30 3046 C 282.358 3.01792 2.24941 0
M  V30 3047 C 281.505 2.56211 1.06072 0
M  V30 3048 H 284.456 1.58007 0.148198 0
M  V30 3049 H 284.477 2.79309 2.58393 0
M  V30 3050 H 283.989 3.74295 1.0259 0
M  V30 3051 H 282.09 2.23791 2.97906 0
M  V30 3052 H 282.203 4.06803 2.53077 0
M  V30 3053 H 280.567 2.10998 1.4266 0
M  V30 3054 H 281.35 3.41206 0.378639 0
M  V30 3055 N 283.795 -0.628877 1.44509 0
M  V30 3056 C 285.023 -1.41554 1.50897 0
M  V30 3057 C 285.438 -1.8832 0.134564 0
M  V30 3058 O 284.795 -1.60969 -0.859965 0
M  V30 3059 C 284.846 -2.63435 2.47556 0
M  V30 3060 O 284.567 -2.18619 3.79654 0
M  V30 3061 C 286.068 -3.56537 2.63431 0
M  V30 3062 H 283.288 -0.434044 0.511709 0
M  V30 3063 H 285.832 -0.768895 1.89495 0
M  V30 3064 H 283.987 -3.24187 2.12089 0
M  V30 3065 H 284.401 -2.97652 4.31861 0
M  V30 3066 H 285.875 -4.38657 3.35088 0
M  V30 3067 H 286.352 -4.05493 1.68738 0
M  V30 3068 H 286.958 -3.01653 2.9981 0
M  V30 3069 N 285.273 -1.31445 -0.869486 0
M  V30 3070 C 286.203 -1.21727 -1.99261 0
M  V30 3071 C 287.184 -0.104359 -1.6978 0
M  V30 3072 O 288.369 -0.289038 -1.92037 0
M  V30 3073 C 285.499 -0.924317 -3.34774 0
M  V30 3074 C 284.453 -1.99685 -3.78563 0
M  V30 3075 C 283.779 -1.55658 -5.11541 0
M  V30 3076 C 285.079 -3.41003 -3.95619 0
M  V30 3077 H 286.773 -2.1569 -2.07649 0
M  V30 3078 H 284.319 -1.03839 -0.997675 0
M  V30 3079 H 286.272 -0.842934 -4.12883 0
M  V30 3080 H 284.996 0.0509793 -3.2656 0
M  V30 3081 H 283.655 -2.06813 -3.02694 0
M  V30 3082 H 283.303 -0.569132 -4.9977 0
M  V30 3083 H 283.003 -2.27409 -5.41811 0
M  V30 3084 H 284.527 -1.48928 -5.92159 0
M  V30 3085 H 285.941 -3.36547 -4.64122 0
M  V30 3086 H 284.338 -4.10975 -4.37286 0
M  V30 3087 H 285.408 -3.81754 -2.98985 0
M  V30 3088 N 286.751 1.08385 -1.14413 0
M  V30 3089 C 287.681 2.17321 -0.854044 0
M  V30 3090 C 288.662 1.69024 0.191049 0
M  V30 3091 O 289.847 1.94141 0.0476779 0
M  V30 3092 C 286.977 3.45719 -0.330983 0
M  V30 3093 C 285.931 4.07409 -1.31155 0
M  V30 3094 C 285.257 5.30762 -0.64778 0
M  V30 3095 C 286.557 4.48665 -2.67388 0
M  V30 3096 H 288.251 2.41845 -1.76498 0
M  V30 3097 H 285.797 1.16233 -0.850051 0
M  V30 3098 H 287.75 4.21241 -0.115645 0
M  V30 3099 H 286.474 3.2075 0.615381 0
M  V30 3100 H 285.133 3.33919 -1.51306 0
M  V30 3101 H 284.781 5.02078 0.304398 0
M  V30 3102 H 284.481 5.72992 -1.30207 0
M  V30 3103 H 286.005 6.08998 -0.441972 0
M  V30 3104 H 287.419 5.15364 -2.51143 0
M  V30 3105 H 285.816 5.01814 -3.29093 0
M  V30 3106 H 286.886 3.60543 -3.24248 0
M  V30 3107 N 288.23 0.939286 1.26551 0
M  V30 3108 C 289.479 0.581601 1.93133 0
M  V30 3109 C 289.792 -0.883224 1.74524 0
M  V30 3110 O 290.998 -1.3502 2.35546 0
M  V30 3111 C 289.454 0.989425 3.46032 0
M  V30 3112 C 289.062 2.47573 3.73379 0
M  V30 3113 C 290.806 0.703544 4.18629 0
M  V30 3114 C 288.713 2.82235 5.19709 0
M  V30 3115 H 287.643 0.213803 0.723052 0
M  V30 3116 H 290.294 1.14167 1.4366 0
M  V30 3117 H 288.676 0.357902 3.94379 0
M  V30 3118 H 289.85 3.15614 3.35744 0
M  V30 3119 H 288.165 2.73471 3.1401 0
M  V30 3120 H 290.762 0.938869 5.26393 0
M  V30 3121 H 291.105 -0.359639 4.14744 0
M  V30 3122 H 291.638 1.2947 3.76141 0
M  V30 3123 H 288.377 3.87509 5.28694 0
M  V30 3124 H 287.897 2.18854 5.58447 0
M  V30 3125 H 289.576 2.70599 5.87695 0
M  V30 3126 N 289.708 -1.40897 0.706093 0
M  V30 3127 C 290.671 -2.29131 0.0562841 0
M  V30 3128 C 291.671 -1.44901 -0.697166 0
M  V30 3129 O 292.861 -1.65926 -0.530484 0
M  V30 3130 C 289.993 -3.27957 -0.93043 0
M  V30 3131 H 291.186 -2.88091 0.833284 0
M  V30 3132 H 288.739 -1.4906 0.470192 0
M  V30 3133 H 289.474 -2.73997 -1.73482 0
M  V30 3134 H 289.259 -3.90124 -0.393166 0
M  V30 3135 H 290.749 -3.94049 -1.38256 0
M  V30 3136 N 291.186 -0.45159 -1.50991 0
M  V30 3137 C 292.096 0.358431 -2.31846 0
M  V30 3138 C 293.112 1.01438 -1.41373 0
M  V30 3139 O 294.288 1.00663 -1.74439 0
M  V30 3140 C 291.353 1.43704 -3.15515 0
M  V30 3141 C 290.414 0.799742 -4.21785 0
M  V30 3142 C 289.647 1.82696 -5.01456 0
M  V30 3143 O 289.87 3.05105 -4.81941 0
M  V30 3144 O 288.804 1.40958 -5.85162 0
M  V30 3145 H 292.63 -0.302032 -3.02194 0
M  V30 3146 H 290.215 -0.213825 -1.47862 0
M  V30 3147 H 292.097 2.06227 -3.67489 0
M  V30 3148 H 290.772 2.08133 -2.47916 0
M  V30 3149 H 289.679 0.136084 -3.73852 0
M  V30 3150 H 291.012 0.198718 -4.91799 0
M  V30 3151 N 292.664 1.56529 -0.183458 0
M  V30 3152 C 293.904 1.99141 0.460667 0
M  V30 3153 C 294.268 1.06736 1.59597 0
M  V30 3154 O 295.469 1.38538 2.30349 0
M  V30 3155 C 293.74 3.45358 0.919939 0
M  V30 3156 S 295.299 4.09999 1.56354 0
M  V30 3157 H 292.117 0.695479 0.147748 0
M  V30 3158 H 294.719 1.93429 -0.283782 0
M  V30 3159 H 293.423 4.10315 0.0834208 0
M  V30 3160 H 292.954 3.54862 1.69814 0
M  V30 3161 H 294.969 4.06046 2.85203 0
M  V30 3162 N 294.142 -0.090211 1.57342 0
M  V30 3163 C 295.388 -0.793982 1.86611 0
M  V30 3164 C 295.721 -1.78142 0.773252 0
M  V30 3165 O 294.996 -1.93271 -0.218304 0
M  V30 3166 C 295.279 -1.51839 3.26523 0
M  V30 3167 C 295.132 -0.548609 4.46442 0
M  V30 3168 C 296.451 -2.46779 3.64401 0
M  V30 3169 H 293.57 -0.287186 0.678744 0
M  V30 3170 H 296.212 -0.0575076 1.89913 0
M  V30 3171 H 294.362 -2.14617 3.23839 0
M  V30 3172 H 296.034 0.0725513 4.61243 0
M  V30 3173 H 294.277 0.137614 4.33582 0
M  V30 3174 H 294.948 -1.09271 5.41076 0
M  V30 3175 H 297.424 -1.94089 3.68061 0
M  V30 3176 H 296.3 -2.94479 4.63221 0
M  V30 3177 H 296.561 -3.30758 2.93346 0
M  V30 3178 N 295.62 -1.53406 -0.361157 0
M  V30 3179 C 296.55 -1.83136 -1.44857 0
M  V30 3180 C 297.531 -0.685174 -1.5569 0
M  V30 3181 O 298.716 -0.93544 -1.70186 0
M  V30 3182 C 295.846 -2.02522 -2.82138 0
M  V30 3183 C 294.8 -3.18302 -2.86126 0
M  V30 3184 C 294.126 -3.22989 -4.26125 0
M  V30 3185 C 295.426 -4.56796 -2.53248 0
M  V30 3186 H 297.12 -2.74201 -1.20226 0
M  V30 3187 H 294.666 -1.31938 -0.576922 0
M  V30 3188 H 296.619 -2.21904 -3.58241 0
M  V30 3189 H 295.343 -1.08172 -3.08166 0
M  V30 3190 H 294.002 -2.98747 -2.12475 0
M  V30 3191 H 293.65 -2.26267 -4.49235 0
M  V30 3192 H 293.35 -4.00781 -4.29708 0
M  V30 3193 H 294.874 -3.44559 -5.04094 0
M  V30 3194 H 296.288 -4.7631 -3.19064 0
M  V30 3195 H 294.685 -5.36862 -2.68141 0
M  V30 3196 H 295.755 -4.61606 -1.48484 0
M  V30 3197 N 297.098 0.621204 -1.44841 0
M  V30 3198 C 298.344 1.3826 -1.48365 0
M  V30 3199 C 298.677 1.93831 -0.119624 0
M  V30 3200 O 297.952 1.74251 0.864111 0
M  V30 3201 C 298.235 2.54058 -2.55199 0
M  V30 3202 C 298.088 2.03772 -4.00995 0
M  V30 3203 C 299.407 3.56225 -2.58442 0
M  V30 3204 H 296.526 0.501374 -0.540179 0
M  V30 3205 H 299.168 0.7015 -1.76576 0
M  V30 3206 H 297.318 3.12162 -2.31274 0
M  V30 3207 H 298.99 1.50423 -4.36086 0
M  V30 3208 H 297.233 1.34876 -4.12299 0
M  V30 3209 H 297.904 2.87185 -4.71411 0
M  V30 3210 H 300.38 3.07939 -2.79844 0
M  V30 3211 H 299.256 4.34756 -3.3508 0
M  V30 3212 H 299.517 4.10949 -1.63013 0
M  V30 3213 N 298.576 1.31904 0.862503 0
M  V30 3214 C 299.806 1.24817 1.64634 0
M  V30 3215 C 300.214 -0.187579 1.88268 0
M  V30 3216 O 299.557 -1.13253 1.44635 0
M  V30 3217 C 299.619 1.92996 3.03303 0
M  V30 3218 C 299.283 3.42336 3.02746 0
M  V30 3219 C 300.28 4.37956 2.80162 0
M  V30 3220 C 297.965 3.84147 3.2363 0
M  V30 3221 C 299.959 5.73361 2.78453 0
M  V30 3222 C 297.646 5.19663 3.21549 0
M  V30 3223 C 298.644 6.14081 2.98988 0
M  V30 3224 O 298.332 7.47118 2.96766 0
M  V30 3225 H 298.064 0.432222 0.519769 0
M  V30 3226 H 300.618 1.7445 1.08427 0
M  V30 3227 H 298.848 1.37922 3.61268 0
M  V30 3228 H 300.537 1.79723 3.63943 0
M  V30 3229 H 301.303 4.06981 2.63802 0
M  V30 3230 H 297.182 3.11083 3.40218 0
M  V30 3231 H 300.726 6.4703 2.60763 0
M  V30 3232 H 296.623 5.5027 3.37451 0
M  V30 3233 H 297.391 7.56382 3.12775 0
M  V30 3234 N 300.054 -1.07777 1.14986 0
M  V30 3235 C 300.987 -2.14228 0.786243 0
M  V30 3236 C 301.965 -1.60888 -0.235347 0
M  V30 3237 O 303.149 -1.88099 -0.122909 0
M  V30 3238 C 300.276 -3.38281 0.168433 0
M  V30 3239 C 299.322 -4.10387 1.16123 0
M  V30 3240 S 300.155 -4.62371 2.70135 0
M  V30 3241 C 301.311 -5.89704 2.09762 0
M  V30 3242 H 301.544 -2.44741 1.68787 0
M  V30 3243 H 299.077 -1.19984 0.971756 0
M  V30 3244 H 301.035 -4.10098 -0.181588 0
M  V30 3245 H 299.696 -3.05953 -0.710725 0
M  V30 3246 H 298.889 -4.99431 0.677086 0
M  V30 3247 H 298.491 -3.44513 1.45556 0
M  V30 3248 H 300.783 -6.61648 1.45701 0
M  V30 3249 H 301.726 -6.42824 2.96955 0
M  V30 3250 H 302.134 -5.4302 1.54239 0
M  V30 3251 N 301.532 -0.945985 -1.26051 0
M  V30 3252 C 302.76 -0.613025 -1.9761 0
M  V30 3253 C 303.175 0.813035 -1.70397 0
M  V30 3254 O 302.532 1.54274 -0.974979 0
M  V30 3255 C 302.583 -0.85159 -3.51326 0
M  V30 3256 O 302.304 -2.22157 -3.77595 0
M  V30 3257 C 303.805 -0.529831 -4.40122 0
M  V30 3258 H 301.025 -0.230593 -0.630133 0
M  V30 3259 H 303.569 -1.268 -1.60443 0
M  V30 3260 H 301.724 -0.243151 -3.86636 0
M  V30 3261 H 302.138 -2.2852 -4.721 0
M  V30 3262 H 303.612 -0.747348 -5.46917 0
M  V30 3263 H 304.089 0.535341 -4.35925 0
M  V30 3264 H 304.695 -1.11721 -4.10364 0
M  V30 3265 N 303.011 1.40521 -0.713556 0
M  V30 3266 C 304.422 1.83853 -0.324807 0
M  V30 3267 C 304.773 1.59667 1.14021 0
M  V30 3268 O 303.898 1.07649 1.87725 0
M  V30 3269 C 304.493 3.33751 -0.582746 0
M  V30 3270 C 303.052 3.75584 -0.247727 0
M  V30 3271 C 302.199 2.63753 -0.856121 0
M  V30 3272 H 305.15 1.29817 -0.91286 0
M  V30 3273 H 305.171 3.80194 0.152682 0
M  V30 3274 H 304.683 3.51322 -1.64908 0
M  V30 3275 H 302.784 3.63608 0.813624 0
M  V30 3276 H 302.897 4.7373 -0.715307 0
M  V30 3277 H 301.261 2.53108 -0.28432 0
M  V30 3278 H 302.044 2.84137 -1.92668 0
M  V30 3279 N 304.489 0.459591 1.5075 0
M  V30 3280 C 305.399 -0.34613 2.32033 0
M  V30 3281 C 306.415 -1.00686 1.41909 0
M  V30 3282 O 307.591 -0.997361 1.7497 0
M  V30 3283 C 304.656 -1.42029 3.16273 0
M  V30 3284 C 303.717 -0.777362 4.22203 0
M  V30 3285 C 302.95 -1.80034 5.02418 0
M  V30 3286 O 303.173 -3.02544 4.83553 0
M  V30 3287 O 302.107 -1.37853 5.85901 0
M  V30 3288 H 305.933 0.318054 3.0203 0
M  V30 3289 H 303.518 0.221663 1.47746 0
M  V30 3290 H 305.4 -2.04275 3.68578 0
M  V30 3291 H 304.075 -2.06815 2.49016 0
M  V30 3292 H 302.982 -0.116256 3.73919 0
M  V30 3293 H 304.315 -0.172634 4.91897 0
M  V30 3294 N 305.967 -1.56429 0.191757 0
M  V30 3295 C 306.899 -2.16154 -0.762245 0
M  V30 3296 C 307.912 -1.12247 -1.17917 0
M  V30 3297 O 309.101 -1.39353 -1.11548 0
M  V30 3298 C 306.201 -2.70606 -2.04024 0
M  V30 3299 C 305.374 -3.99381 -1.78364 0
M  V30 3300 C 304.433 -4.38692 -2.90578 0
M  V30 3301 O 303.459 -5.06179 -2.6033 0
M  V30 3302 N 304.661 -4.01922 -4.18854 0
M  V30 3303 H 307.426 -2.98643 -0.251526 0
M  V30 3304 H 304.987 -1.61897 0.00967373 0
M  V30 3305 H 306.979 -2.93891 -2.78227 0
M  V30 3306 H 305.549 -1.9259 -2.46227 0
M  V30 3307 H 304.769 -3.84262 -0.879581 0
M  V30 3308 H 306.057 -4.83445 -1.58614 0
M  V30 3309 H 305.455 -3.47631 -4.46283 0
M  V30 3310 H 304.012 -4.30165 -4.89695 0
M  V30 3311 N 307.445 0.0818655 -1.57387 0
M  V30 3312 C 308.67 0.799946 -1.91352 0
M  V30 3313 C 309.095 1.70833 -0.787258 0
M  V30 3314 O 308.453 1.79419 0.26048 0
M  V30 3315 C 308.501 1.57812 -3.24234 0
M  V30 3316 O 307.605 2.68806 -3.12757 0
M  V30 3317 H 306.946 0.21891 -0.626877 0
M  V30 3318 H 309.476 0.0531256 -2.04531 0
M  V30 3319 H 309.486 1.95952 -3.57864 0
M  V30 3320 H 308.161 0.911548 -4.05788 0
M  V30 3321 H 306.738 2.33597 -2.90666 0
M  V30 3322 N 308.923 1.53595 0.353017 0
M  V30 3323 C 309.886 1.80232 1.41594 0
M  V30 3324 C 310.886 0.673081 1.46035 0
M  V30 3325 O 312.076 0.941335 1.46576 0
M  V30 3326 C 309.208 1.93578 2.80607 0
M  V30 3327 H 310.401 2.75174 1.19244 0
M  V30 3328 H 307.954 1.44864 0.586872 0
M  V30 3329 H 308.689 1.00746 3.08254 0
M  V30 3330 H 308.474 2.75724 2.78781 0
M  V30 3331 H 309.964 2.15735 3.57558 0
M  V30 3332 N 310.401 -0.613514 1.45168 0
M  V30 3333 C 311.349 -1.74572 1.53712 0
M  V30 3334 C 312.343 -1.64426 0.407505 0
M  V30 3335 O 313.549 -1.70291 0.583176 0
M  V30 3336 H 309.924 -0.576641 0.48269 0
M  V30 3337 H 311.895 -1.64492 2.48968 0
M  V30 3338 C 310.644 -3.12943 1.51532 0
M  V30 3339 H 309.967 -3.21407 2.37776 0
M  V30 3340 H 311.407 -3.9201 1.61569 0
M  V30 3341 C 309.866 -3.36053 0.238798 0
M  V30 3342 O 310.396 -3.95837 -0.6838 0
M  V30 3343 N 308.602 -2.9028 0.136359 0
M  V30 3344 H 308.149 -2.41811 0.887999 0
M  V30 3345 H 308.107 -3.06116 -0.716944 0
M  V30 3346 N 311.879 -1.3236 -0.855495 0
M  V30 3347 C 312.809 -1.23833 -1.97958 0
M  V30 3348 C 313.79 -0.122361 -1.69659 0
M  V30 3349 O 314.975 -0.30939 -1.9172 0
M  V30 3350 C 312.105 -0.959772 -3.33775 0
M  V30 3351 C 311.059 -2.03689 -3.76424 0
M  V30 3352 C 310.385 -1.61075 -5.09862 0
M  V30 3353 C 311.685 -3.4518 -3.9198 0
M  V30 3354 H 313.379 -2.1788 -2.0535 0
M  V30 3355 H 310.925 -1.04891 -0.986605 0
M  V30 3356 H 312.878 -0.886678 -4.11966 0
M  V30 3357 H 311.602 0.0163404 -3.26596 0
M  V30 3358 H 310.261 -2.10012 -3.00484 0
M  V30 3359 H 309.909 -0.622107 -4.99138 0
M  V30 3360 H 309.609 -2.33143 -5.39368 0
M  V30 3361 H 311.133 -1.55201 -5.90546 0
M  V30 3362 H 312.547 -3.4145 -4.60526 0
M  V30 3363 H 310.944 -4.1559 -4.32903 0
M  V30 3364 H 312.014 -3.84903 -2.94919 0
M  V30 3365 N 313.357 1.07166 -1.15556 0
M  V30 3366 C 314.287 2.16403 -0.877046 0
M  V30 3367 C 315.268 1.69217 0.173111 0
M  V30 3368 O 316.453 1.94181 0.027084 0
M  V30 3369 C 313.583 3.45349 -0.367632 0
M  V30 3370 C 312.537 4.05995 -1.35468 0
M  V30 3371 C 311.863 5.30045 -0.704038 0
M  V30 3372 C 313.163 4.45804 -2.72132 0
M  V30 3373 H 314.857 2.39959 -1.79053 0
M  V30 3374 H 312.403 1.15325 -0.862331 0
M  V30 3375 H 314.356 4.21095 -0.160317 0
M  V30 3376 H 313.08 3.21385 0.581326 0
M  V30 3377 H 311.739 3.32296 -1.54839 0
M  V30 3378 H 311.387 5.02373 0.251128 0
M  V30 3379 H 311.087 5.71579 -1.36277 0
M  V30 3380 H 312.611 6.08495 -0.50654 0
M  V30 3381 H 314.025 5.12671 -2.56595 0
M  V30 3382 H 312.422 4.98296 -3.34397 0
M  V30 3383 H 313.492 3.57083 -3.28054 0
M  V30 3384 N 314.835 0.952656 1.25548 0
M  V30 3385 C 315.782 0.47008 2.25962 0
M  V30 3386 C 316.752 -0.476384 1.59122 0
M  V30 3387 O 317.937 -0.39007 1.8677 0
M  V30 3388 C 315.077 -0.247881 3.44209 0
M  V30 3389 C 314.19 0.735591 4.25691 0
M  V30 3390 C 313.325 -0.0047306 5.312 0
M  V30 3391 C 312.364 0.969805 6.04368 0
M  V30 3392 N 311.501 0.260486 7.01617 0
M  V30 3393 H 316.341 1.33126 2.66611 0
M  V30 3394 H 313.878 0.66765 1.31076 0
M  V30 3395 H 315.836 -0.680695 4.1161 0
M  V30 3396 H 314.466 -1.07312 3.0444 0
M  V30 3397 H 313.518 1.28689 3.57971 0
M  V30 3398 H 314.83 1.47934 4.76358 0
M  V30 3399 H 313.984 -0.496275 6.04667 0
M  V30 3400 H 312.723 -0.781282 4.81401 0
M  V30 3401 H 311.728 1.47237 5.29718 0
M  V30 3402 H 312.953 1.74655 6.56256 0
M  V30 3403 H 310.899 -0.497364 6.54112 0
M  V30 3404 H 310.816 0.943362 7.50091 0
M  V30 3405 H 312.084 -0.209587 7.79218 0
M  V30 3406 N 316.313 -1.40141 0.720998 0
M  V30 3407 C 317.559 -2.01572 0.272075 0
M  V30 3408 C 317.914 -1.5616 -1.12391 0
M  V30 3409 O 317.207 -0.774198 -1.75262 0
M  V30 3410 C 317.401 -3.56165 0.296892 0
M  V30 3411 C 317.23 -4.16584 1.69375 0
M  V30 3412 C 316 -4.49783 2.30269 0
M  V30 3413 C 318.198 -4.41076 2.64493 0
M  V30 3414 N 316.18 -4.95626 3.62254 0
M  V30 3415 C 317.551 -4.88971 3.81192 0
M  V30 3416 C 319.606 -4.23122 2.62435 0
M  V30 3417 C 318.309 -5.20796 4.96149 0
M  V30 3418 C 320.335 -4.56052 3.76524 0
M  V30 3419 C 319.697 -5.04141 4.91956 0
M  V30 3420 H 315.796 -0.768343 0.145511 0
M  V30 3421 H 318.38 -1.70287 0.943959 0
M  V30 3422 H 316.551 -3.86868 -0.344578 0
M  V30 3423 H 318.283 -4.04346 -0.169254 0
M  V30 3424 H 315.038 -4.37101 1.82318 0
M  V30 3425 H 315.462 -5.22923 4.29977 0
M  V30 3426 H 320.104 -3.85158 1.74393 0
M  V30 3427 H 317.822 -5.57672 5.84831 0
M  V30 3428 H 321.408 -4.43796 3.76213 0
M  V30 3429 H 320.288 -5.29142 5.78774 0
M  V30 3430 N 317.792 -0.46758 -1.50504 0
M  V30 3431 C 318.755 0.317059 -2.26996 0
M  V30 3432 C 319.755 0.923513 -1.31635 0
M  V30 3433 O 320.945 0.793239 -1.55091 0
M  V30 3434 C 318.077 1.45134 -3.08462 0
M  V30 3435 H 319.27 -0.353723 -2.97807 0
M  V30 3436 H 316.823 -0.221545 -1.54722 0
M  V30 3437 H 317.558 2.15728 -2.4214 0
M  V30 3438 H 317.343 1.02232 -3.78538 0
M  V30 3439 H 318.833 2.00493 -3.66323 0
M  V30 3440 N 319.27 1.56325 -0.20005 0
M  V30 3441 C 320.233 2.18084 0.705132 0
M  V30 3442 C 321.233 1.13666 1.1374 0
M  V30 3443 O 322.423 1.39023 1.04968 0
M  V30 3444 C 319.555 2.78689 1.96329 0
M  V30 3445 H 320.748 2.99435 0.167023 0
M  V30 3446 H 318.301 1.56221 0.0495725 0
M  V30 3447 H 319.036 2.0115 2.5438 0
M  V30 3448 H 318.821 3.55133 1.66202 0
M  V30 3449 H 320.311 3.26096 2.60866 0
M  V30 3450 N 320.748 -0.0735177 1.57428 0
M  V30 3451 C 321.696 -1.10628 2.04607 0
M  V30 3452 C 322.69 -1.40181 0.951088 0
M  V30 3453 O 323.896 -1.39608 1.1362 0
M  V30 3454 H 320.271 -0.374088 0.652351 0
M  V30 3455 H 322.242 -0.682218 2.90497 0
M  V30 3456 C 320.991 -2.41212 2.50423 0
M  V30 3457 H 320.314 -2.19322 3.34272 0
M  V30 3458 H 321.754 -3.11927 2.87189 0
M  V30 3459 C 320.213 -3.0705 1.38644 0
M  V30 3460 O 320.743 -3.95056 0.727582 0
M  V30 3461 N 318.949 -2.67645 1.132 0
M  V30 3462 H 318.496 -1.96169 1.66959 0
M  V30 3463 H 318.454 -3.1202 0.386147 0
M  V30 3464 N 322.226 -1.5378 -0.344866 0
M  V30 3465 C 323.451 -1.75211 -1.10977 0
M  V30 3466 C 323.876 -0.48936 -1.81623 0
M  V30 3467 O 323.234 0.557925 -1.72502 0
M  V30 3468 C 323.282 -2.93147 -2.09993 0
M  V30 3469 O 322.386 -2.63203 -3.17487 0
M  V30 3470 H 321.727 -0.581241 -0.321021 0
M  V30 3471 H 324.257 -2.00738 -0.395661 0
M  V30 3472 H 324.267 -3.19898 -2.53237 0
M  V30 3473 H 322.942 -3.84731 -1.5797 0
M  V30 3474 H 321.519 -2.47336 -2.79069 0
M  V30 3475 N 323.704 0.605807 -1.45491 0
M  V30 3476 C 324.951 1.36476 -1.49601 0
M  V30 3477 C 325.279 1.94007 -0.138452 0
M  V30 3478 O 324.534 1.75638 0.863114 0
M  V30 3479 C 324.833 2.53012 -2.52428 0
M  V30 3480 C 324.499 2.13617 -3.97087 0
M  V30 3481 C 323.161 2.02587 -4.36477 0
M  V30 3482 C 325.513 1.82899 -4.88055 0
M  V30 3483 C 322.841 1.59064 -5.64726 0
M  V30 3484 C 325.193 1.40861 -6.16718 0
M  V30 3485 C 323.857 1.28391 -6.55036 0
M  V30 3486 H 323.127 0.499402 -0.547429 0
M  V30 3487 H 325.774 0.684546 -1.78847 0
M  V30 3488 H 324.079 3.26379 -2.16758 0
M  V30 3489 H 325.776 3.1124 -2.52845 0
M  V30 3490 H 322.366 2.23129 -3.65939 0
M  V30 3491 H 326.55 1.90317 -4.58359 0
M  V30 3492 H 321.806 1.48034 -5.93208 0
M  V30 3493 H 325.98 1.16138 -6.86648 0
M  V30 3494 H 323.607 0.944403 -7.54311 0
M  V30 3495 N 325.182 1.32811 0.848464 0
M  V30 3496 C 326.092 1.24278 1.98978 0
M  V30 3497 C 327.108 0.155176 1.73307 0
M  V30 3498 O 328.284 0.376999 1.9784 0
M  V30 3499 C 325.349 0.972444 3.32783 0
M  V30 3500 C 324.41 2.14911 3.71634 0
M  V30 3501 C 323.643 1.89157 4.99054 0
M  V30 3502 O 323.866 0.837165 5.64223 0
M  V30 3503 O 322.8 2.75433 5.35183 0
M  V30 3504 H 326.626 2.20238 2.09115 0
M  V30 3505 H 324.211 1.12762 0.980052 0
M  V30 3506 H 326.093 0.838432 4.12975 0
M  V30 3507 H 324.768 0.043051 3.23671 0
M  V30 3508 H 323.675 2.33862 2.91992 0
M  V30 3509 H 325.008 3.06151 3.85399 0
M  V30 3510 N 326.66 -1.06551 1.16123 0
M  V30 3511 C 328.076 -1.3142 0.905585 0
M  V30 3512 C 328.276 -1.96571 -0.442964 0
M  V30 3513 O 327.332 -2.23068 -1.18308 0
M  V30 3514 C 328.645 -2.19741 2.05267 0
M  V30 3515 C 330.193 -2.33165 2.08813 0
M  V30 3516 C 330.668 -3.24838 3.22868 0
M  V30 3517 N 332.159 -3.32421 3.22568 0
M  V30 3518 C 332.894 -4.0344 4.0746 0
M  V30 3519 N 332.39 -4.77003 5.02434 0
M  V30 3520 N 334.183 -3.99464 3.95456 0
M  V30 3521 H 326.334 -0.626548 2.02949 0
M  V30 3522 H 328.597 -0.338777 0.8854 0
M  V30 3523 H 328.303 -1.79142 3.02657 0
M  V30 3524 H 328.177 -3.20313 1.99198 0
M  V30 3525 H 330.564 -2.73013 1.12018 0
M  V30 3526 H 330.645 -1.3227 2.18948 0
M  V30 3527 H 330.289 -2.85708 4.19921 0
M  V30 3528 H 330.219 -4.25707 3.0997 0
M  V30 3529 H 332.71 -2.79994 2.53795 0
M  V30 3530 H 333.023 -5.28712 5.63634 0
M  V30 3531 H 331.368 -4.75992 5.06415 0
M  V30 3532 H 334.559 -3.4111 3.20564 0
M  V30 3533 H 334.732 -4.54544 4.61837 0
M  V30 3534 N 328.138 -0.959301 -1.25041 0
M  V30 3535 C 329.101 -0.487677 -2.23952 0
M  V30 3536 C 330.101 0.41119 -1.55454 0
M  V30 3537 O 331.291 0.207825 -1.72956 0
M  V30 3538 C 328.423 0.294807 -3.39623 0
M  V30 3539 H 329.616 -1.36198 -2.67189 0
M  V30 3540 H 327.169 -0.743042 -1.37508 0
M  V30 3541 H 327.904 1.18658 -3.01813 0
M  V30 3542 H 327.689 -0.35012 -3.90534 0
M  V30 3543 H 329.179 0.614089 -4.1306 0
M  V30 3544 N 329.616 1.39756 -0.72842 0
M  V30 3545 C 330.549 2.28176 -0.0330172 0
M  V30 3546 C 331.527 1.44035 0.754501 0
M  V30 3547 O 332.711 1.73434 0.738445 0
M  V30 3548 C 329.838 3.24795 0.960504 0
M  V30 3549 C 328.884 4.25693 0.262264 0
M  V30 3550 S 329.717 5.25714 -1.01906 0
M  V30 3551 C 330.873 6.25894 -0.0279717 0
M  V30 3552 H 331.106 2.86807 -0.78287 0
M  V30 3553 H 328.639 1.45382 -0.519951 0
M  V30 3554 H 330.597 3.80983 1.52846 0
M  V30 3555 H 329.258 2.65196 1.68315 0
M  V30 3556 H 328.451 4.93699 1.01379 0
M  V30 3557 H 328.053 3.7327 -0.233482 0
M  V30 3558 H 330.345 6.72585 0.814621 0
M  V30 3559 H 331.288 7.04876 -0.67499 0
M  V30 3560 H 331.696 5.63466 0.341489 0
M  V30 3561 N 331.094 0.475555 1.50254 0
M  V30 3562 C 332.341 -0.0778919 2.0235 0
M  V30 3563 C 332.669 -1.39319 1.35722 0
M  V30 3564 O 331.924 -1.89888 0.473395 0
M  V30 3565 C 332.223 -0.305114 3.56095 0
M  V30 3566 C 331.889 0.92903 4.41225 0
M  V30 3567 C 330.551 1.26739 4.6421 0
M  V30 3568 C 332.903 1.75054 4.90923 0
M  V30 3569 C 330.231 2.42724 5.34137 0
M  V30 3570 C 332.583 2.9017 5.62125 0
M  V30 3571 C 331.247 3.24416 5.83362 0
M  V30 3572 H 330.517 -0.0285027 0.740452 0
M  V30 3573 H 333.164 0.630543 1.80821 0
M  V30 3574 H 331.469 -1.09584 3.76163 0
M  V30 3575 H 333.166 -0.747377 3.93974 0
M  V30 3576 H 329.756 0.655428 4.23559 0
M  V30 3577 H 333.94 1.50231 4.73016 0
M  V30 3578 H 329.196 2.69525 5.48786 0
M  V30 3579 H 333.37 3.54169 5.99614 0
M  V30 3580 H 330.997 4.14396 6.37323 0
M  V30 3581 N 332.573 -1.56217 0.208337 0
M  V30 3582 C 333.822 -1.97124 -0.427204 0
M  V30 3583 C 334.135 -1.09859 -1.61835 0
M  V30 3584 O 335.341 -1.40606 -2.32255 0
M  V30 3585 C 333.797 -3.50633 -0.811442 0
M  V30 3586 C 333.405 -4.46582 0.35615 0
M  V30 3587 C 335.149 -4.00282 -1.41332 0
M  V30 3588 C 333.056 -5.91379 -0.0497852 0
M  V30 3589 H 331.986 -0.736086 -0.163381 0
M  V30 3590 H 334.637 -1.8099 0.302456 0
M  V30 3591 H 333.019 -3.62319 -1.59815 0
M  V30 3592 H 334.193 -4.46636 1.1337 0
M  V30 3593 H 332.508 -4.07202 0.870396 0
M  V30 3594 H 335.105 -5.0595 -1.72972 0
M  V30 3595 H 335.448 -3.45359 -2.32449 0
M  V30 3596 H 335.981 -3.91764 -0.690323 0
M  V30 3597 H 332.72 -6.50255 0.827529 0
M  V30 3598 H 332.24 -5.94549 -0.791926 0
M  V30 3599 H 333.919 -6.45209 -0.481042 0
M  V30 3600 N 334.051 0.0651679 -1.57465 0
M  V30 3601 C 334.999 1.09542 -2.05191 0
M  V30 3602 C 335.993 1.39675 -0.958509 0
M  V30 3603 O 337.199 1.39003 -1.14359 0
M  V30 3604 H 333.574 0.370623 -0.654326 0
M  V30 3605 H 335.545 0.666802 -2.90854 0
M  V30 3606 C 334.294 2.39881 -2.51699 0
M  V30 3607 H 333.617 2.17547 -3.3543 0
M  V30 3608 H 335.057 3.104 -2.88839 0
M  V30 3609 C 333.516 3.0631 -1.40271 0
M  V30 3610 O 334.046 3.94664 -0.748523 0
M  V30 3611 N 332.252 2.67041 -1.14618 0
M  V30 3612 H 331.799 1.95281 -1.67997 0
M  V30 3613 H 331.757 3.1181 -0.402688 0
M  V30 3614 N 335.529 1.53961 0.336706 0
M  V30 3615 C 336.759 1.75229 1.09446 0
M  V30 3616 C 337.167 0.494602 1.82621 0
M  V30 3617 O 336.51 -0.543764 1.75468 0
M  V30 3618 C 336.572 2.88288 2.1478 0
M  V30 3619 C 336.236 4.27656 1.6112 0
M  V30 3620 C 337.233 5.08981 1.0599 0
M  V30 3621 C 334.918 4.74161 1.6576 0
M  V30 3622 C 336.912 6.34916 0.562129 0
M  V30 3623 C 334.599 6.00067 1.15595 0
M  V30 3624 C 335.597 6.80278 0.609147 0
M  V30 3625 O 335.285 8.03818 0.114999 0
M  V30 3626 H 335.017 0.588881 0.331956 0
M  V30 3627 H 337.571 2.01614 0.392566 0
M  V30 3628 H 335.801 2.57443 2.88548 0
M  V30 3629 H 337.49 2.97461 2.76174 0
M  V30 3630 H 338.256 4.74213 1.01722 0
M  V30 3631 H 334.135 4.11781 2.07261 0
M  V30 3632 H 337.679 6.9747 0.134668 0
M  V30 3633 H 333.576 6.3433 1.19566 0
M  V30 3634 H 334.344 8.18172 0.231651 0
M  V30 3635 N 337.007 -0.598083 1.45811 0
M  V30 3636 C 337.917 -1.73632 1.57763 0
M  V30 3637 C 338.933 -1.67763 0.461676 0
M  V30 3638 O 340.109 -1.87949 0.723685 0
M  V30 3639 C 337.174 -3.10114 1.55018 0
M  V30 3640 C 336.235 -3.27364 2.77726 0
M  V30 3641 C 335.468 -4.57334 2.75102 0
M  V30 3642 O 335.691 -5.40258 1.8297 0
M  V30 3643 O 334.625 -4.77502 3.66437 0
M  V30 3644 H 338.451 -1.66498 2.53992 0
M  V30 3645 H 336.036 -0.763308 1.28429 0
M  V30 3646 H 337.918 -3.9141 1.56129 0
M  V30 3647 H 336.593 -3.17718 0.619431 0
M  V30 3648 H 335.5 -2.45619 2.82174 0
M  V30 3649 H 336.833 -3.24641 3.69958 0
M  V30 3650 N 338.485 -1.33259 -0.841409 0
M  V30 3651 C 339.417 -1.19136 -1.95804 0
M  V30 3652 C 340.43 -0.122965 -1.62335 0
M  V30 3653 O 341.619 -0.373154 -1.74556 0
M  V30 3654 C 338.719 -0.804268 -3.29218 0
M  V30 3655 C 337.892 -1.96376 -3.90839 0
M  V30 3656 C 336.951 -1.55806 -5.02604 0
M  V30 3657 O 335.977 -2.27203 -5.21888 0
M  V30 3658 N 337.179 -0.461609 -5.78662 0
M  V30 3659 H 339.944 -2.15326 -2.08458 0
M  V30 3660 H 337.505 -1.25971 -1.017 0
M  V30 3661 H 339.497 -0.51501 -4.0141 0
M  V30 3662 H 338.067 0.0668809 -3.12528 0
M  V30 3663 H 337.287 -2.41879 -3.11269 0
M  V30 3664 H 338.575 -2.73966 -4.28742 0
M  V30 3665 H 337.973 0.132343 -5.65545 0
M  V30 3666 H 336.53 -0.232013 -6.51387 0
M  V30 3667 N 339.963 1.05934 -1.16686 0
M  V30 3668 C 341.209 1.79065 -0.95203 0
M  V30 3669 C 341.542 1.87147 0.518629 0
M  V30 3670 O 340.817 1.36574 1.38484 0
M  V30 3671 C 341.1 3.23359 -1.58464 0
M  V30 3672 C 340.953 3.23336 -3.12689 0
M  V30 3673 C 342.272 4.21004 -1.28232 0
M  V30 3674 H 339.391 0.65005 -0.34728 0
M  V30 3675 H 342.033 1.23868 -1.44072 0
M  V30 3676 H 340.183 3.70493 -1.16908 0
M  V30 3677 H 341.855 2.84336 -3.6325 0
M  V30 3678 H 340.098 2.61886 -3.4583 0
M  V30 3679 H 340.769 4.25144 -3.52075 0
M  V30 3680 H 343.245 3.8233 -1.64203 0
M  V30 3681 H 342.121 5.20225 -1.75092 0
M  V30 3682 H 342.382 4.41639 -0.201791 0
M  V30 3683 N 341.441 0.965919 1.2453 0
M  V30 3684 C 342.389 0.486506 2.27455 0
M  V30 3685 C 343.383 -0.449041 1.6334 0
M  V30 3686 O 344.589 -0.324527 1.7705 0
M  V30 3687 H 340.964 0.138857 0.739069 0
M  V30 3688 H 342.935 1.3666 2.65267 0
M  V30 3689 C 341.684 -0.209481 3.47068 0
M  V30 3690 H 341.007 0.50129 3.96645 0
M  V30 3691 H 342.447 -0.508775 4.20936 0
M  V30 3692 C 340.906 -1.43586 3.0477 0
M  V30 3693 O 341.436 -2.53299 3.11773 0
M  V30 3694 N 339.642 -1.30126 2.59838 0
M  V30 3695 H 339.189 -0.408583 2.54339 0
M  V30 3696 H 339.147 -2.12294 2.31902 0
M  V30 3697 N 342.919 -1.39368 0.735821 0
M  V30 3698 C 343.852 -2.28155 0.0451175 0
M  V30 3699 C 344.83 -1.44433 -0.746852 0
M  V30 3700 O 346.014 -1.73823 -0.729237 0
M  V30 3701 C 343.141 -3.253 -0.943266 0
M  V30 3702 C 342.187 -4.25826 -0.239685 0
M  V30 3703 S 343.02 -5.25166 1.04693 0
M  V30 3704 C 344.176 -6.2587 0.0611639 0
M  V30 3705 H 344.409 -2.86388 0.79807 0
M  V30 3706 H 341.942 -1.45104 0.527653 0
M  V30 3707 H 343.9 -3.81789 -1.50824 0
M  V30 3708 H 342.561 -2.66085 -1.66906 0
M  V30 3709 H 341.754 -4.94229 -0.987596 0
M  V30 3710 H 341.356 -3.73141 0.253274 0
M  V30 3711 H 343.648 -6.73007 -0.778941 0
M  V30 3712 H 344.591 -7.04508 0.712362 0
M  V30 3713 H 344.999 -5.63639 -0.311602 0
M  V30 3714 N 344.397 -0.483516 -1.5 0
M  V30 3715 C 345.645 0.067027 -2.01989 0
M  V30 3716 C 345.966 1.3909 -1.36671 0
M  V30 3717 O 345.236 1.88978 -0.516152 0
M  V30 3718 H 343.816 0.0277606 -0.746484 0
M  V30 3719 H 346.478 -0.636773 -1.84204 0
M  V30 3720 H 345.574 0.209484 -3.11396 0
M  V30 3721 N 345.875 1.56104 -0.216619 0
M  V30 3722 C 347.152 1.89988 0.465165 0
M  V30 3723 C 347.532 1.13326 1.78102 0
M  V30 3724 O 346.88 0.241033 2.27225 0
M  V30 3725 C 347.09 3.42646 0.662939 0
M  V30 3726 C 348.438 4.13311 0.972602 0
M  V30 3727 O 349.462 3.48217 0.749901 0
M  V30 3728 O 348.321 5.28396 1.39499 0
M  V30 3729 H 345.415 0.78979 0.245276 0
M  V30 3730 H 347.961 1.67721 -0.258436 0
M  V30 3731 H 346.733 3.90399 -0.26543 0
M  V30 3732 H 346.356 3.70677 1.43821 0
M  V30 3733 N 347.353 -0.0568162 1.57498 0
M  V30 3734 C 348.769 -0.411933 1.54192 0
M  V30 3735 C 348.969 -1.78287 0.938942 0
M  V30 3736 O 348.025 -2.46483 0.547919 0
M  V30 3737 C 349.338 -0.339244 2.9878 0
M  V30 3738 C 350.886 -0.418348 3.10192 0
M  V30 3739 C 351.361 -0.375407 4.56459 0
M  V30 3740 N 352.852 -0.435038 4.61153 0
M  V30 3741 C 353.587 -0.424265 5.71828 0
M  V30 3742 N 353.083 -0.367418 6.91825 0
M  V30 3743 N 354.876 -0.471938 5.60115 0
M  V30 3744 H 347.027 0.840684 1.95055 0
M  V30 3745 H 349.29 0.316987 0.893433 0
M  V30 3746 H 348.996 0.601742 3.46514 0
M  V30 3747 H 348.87 -1.14371 3.59443 0
M  V30 3748 H 351.257 -1.34976 2.62422 0
M  V30 3749 H 351.338 0.414962 2.52412 0
M  V30 3750 H 350.982 0.552219 5.04889 0
M  V30 3751 H 350.912 -1.22645 5.12119 0
M  V30 3752 H 353.403 -0.482612 3.74806 0
M  V30 3753 H 353.716 -0.363535 7.71944 0
M  V30 3754 H 352.061 -0.333879 6.94198 0
M  V30 3755 H 355.252 -0.514145 4.65268 0
M  V30 3756 H 355.425 -0.460073 6.46365 0
M  V30 3757 N 348.832 -1.54138 -0.328536 0
M  V30 3758 C 350.079 -1.72105 -1.06706 0
M  V30 3759 C 350.407 -0.492111 -1.88171 0
M  V30 3760 O 349.662 0.526153 -1.88494 0
M  V30 3761 C 349.961 -2.9457 -2.02393 0
M  V30 3762 C 349.627 -4.29544 -1.37122 0
M  V30 3763 C 348.289 -4.6624 -1.19052 0
M  V30 3764 C 350.641 -5.1333 -0.902331 0
M  V30 3765 C 347.969 -5.84325 -0.527331 0
M  V30 3766 C 350.321 -6.32094 -0.252988 0
M  V30 3767 C 348.985 -6.67473 -0.0600901 0
M  V30 3768 H 348.255 -0.629775 -0.390466 0
M  V30 3769 H 350.902 -1.88372 -0.34473 0
M  V30 3770 H 349.207 -2.72969 -2.81061 0
M  V30 3771 H 350.904 -3.05665 -2.59557 0
M  V30 3772 H 347.494 -4.0067 -1.52188 0
M  V30 3773 H 351.678 -4.855 -1.02974 0
M  V30 3774 H 346.934 -6.103 -0.366634 0
M  V30 3775 H 351.108 -6.96299 0.118366 0
M  V30 3776 H 348.735 -7.58832 0.455828 0
M  V30 3777 N 350.31 0.590341 -1.46126 0
M  V30 3778 C 351.558 1.34616 -1.50742 0
M  V30 3779 C 351.879 1.94363 -0.157486 0
M  V30 3780 O 351.149 1.78136 0.815136 0
M  V30 3781 H 349.729 0.499789 -0.555175 0
M  V30 3782 H 352.391 0.691953 -1.82203 0
M  V30 3783 H 351.487 2.15678 -2.25587 0
M  V30 3784 N 351.788 1.33704 0.83433 0
M  V30 3785 C 352.72 1.20172 1.9517 0
M  V30 3786 C 353.733 0.131572 1.62267 0
M  V30 3787 O 354.922 0.382406 1.74356 0
M  V30 3788 C 352.022 0.821716 3.28787 0
M  V30 3789 C 351.195 1.98446 3.89792 0
M  V30 3790 C 350.254 1.58469 5.01771 0
M  V30 3791 O 349.28 2.29968 5.20676 0
M  V30 3792 N 350.482 0.492291 5.78409 0
M  V30 3793 H 353.247 2.16429 2.07313 0
M  V30 3794 H 350.808 1.26509 1.0103 0
M  V30 3795 H 352.8 0.536291 4.01131 0
M  V30 3796 H 351.37 -0.0503058 3.1256 0
M  V30 3797 H 350.59 2.43526 3.09982 0
M  V30 3798 H 351.878 2.76236 4.27283 0
M  V30 3799 H 351.276 -0.102349 5.65607 0
M  V30 3800 H 349.833 0.266555 6.51255 0
M  V30 3801 N 353.266 -1.05314 1.17247 0
M  V30 3802 C 354.515 -1.77685 0.954521 0
M  V30 3803 C 354.828 -1.88616 -0.518025 0
M  V30 3804 O 356.034 -2.57714 -0.854144 0
M  V30 3805 C 354.49 -3.19402 1.65863 0
M  V30 3806 C 354.098 -3.16605 3.16963 0
M  V30 3807 C 355.842 -3.96237 1.52303 0
M  V30 3808 C 353.749 -4.53103 3.80068 0
M  V30 3809 H 352.679 -0.666 0.353496 0
M  V30 3810 H 355.33 -1.1805 1.40486 0
M  V30 3811 H 353.712 -3.79355 1.13602 0
M  V30 3812 H 354.886 -2.66176 3.76148 0
M  V30 3813 H 353.201 -2.53268 3.30521 0
M  V30 3814 H 355.798 -4.97157 1.96822 0
M  V30 3815 H 356.141 -4.136 0.473401 0
M  V30 3816 H 356.674 -3.42829 2.01775 0
M  V30 3817 H 353.413 -4.40946 4.85023 0
M  V30 3818 H 352.933 -5.03686 3.2567 0
M  V30 3819 H 354.612 -5.22045 3.82202 0
M  V30 3820 N 354.744 -0.972509 -1.24016 0
M  V30 3821 C 355.677 -0.45117 -2.23696 0
M  V30 3822 C 356.655 0.477378 -1.55434 0
M  V30 3823 O 357.839 0.407647 -1.84039 0
M  V30 3824 C 354.966 0.34818 -3.36906 0
M  V30 3825 C 354.012 -0.523355 -4.23277 0
M  V30 3826 S 354.845 -1.96647 -4.98087 0
M  V30 3827 C 356.001 -1.17604 -6.14752 0
M  V30 3828 H 356.234 -1.29588 -2.67571 0
M  V30 3829 H 353.767 -0.777903 -1.33372 0
M  V30 3830 H 355.725 0.803387 -4.02562 0
M  V30 3831 H 354.386 1.16792 -2.91579 0
M  V30 3832 H 353.579 0.0906181 -5.03919 0
M  V30 3833 H 353.181 -0.914485 -3.62647 0
M  V30 3834 H 355.473 -0.433434 -6.76112 0
M  V30 3835 H 356.416 -1.95701 -6.8052 0
M  V30 3836 H 356.824 -0.698295 -5.60164 0
M  V30 3837 N 356.222 1.38976 -0.743202 0
M  V30 3838 C 357.471 1.99581 -0.291592 0
M  V30 3839 C 357.784 1.59656 1.13001 0
M  V30 3840 O 358.99 2.13157 1.68156 0
M  V30 3841 C 357.446 3.56813 -0.470391 0
M  V30 3842 C 357.054 4.05695 -1.90041 0
M  V30 3843 C 358.798 4.24423 -0.0809709 0
M  V30 3844 C 356.705 5.5553 -2.02832 0
M  V30 3845 H 355.635 0.746615 -0.105272 0
M  V30 3846 H 358.286 1.58872 -0.918258 0
M  V30 3847 H 356.668 3.95359 0.225299 0
M  V30 3848 H 357.842 3.78464 -2.62872 0
M  V30 3849 H 356.157 3.50775 -2.24379 0
M  V30 3850 H 358.754 5.34474 -0.155445 0
M  V30 3851 H 359.097 4.04962 0.96497 0
M  V30 3852 H 359.63 3.9108 -0.728124 0
M  V30 3853 H 356.369 5.79881 -3.05643 0
M  V30 3854 H 355.889 5.84537 -1.34448 0
M  V30 3855 H 357.568 6.21069 -1.81335 0
M  V30 3856 N 357.7 0.491464 1.49741 0
M  V30 3857 C 358.61 -0.296835 2.32715 0
M  V30 3858 C 359.626 -0.976536 1.44013 0
M  V30 3859 O 360.802 -0.960023 1.77047 0
M  V30 3860 C 357.867 -1.35288 3.19215 0
M  V30 3861 C 356.928 -0.687632 4.23757 0
M  V30 3862 C 356.161 -1.69336 5.06123 0
M  V30 3863 O 356.384 -2.92219 4.89861 0
M  V30 3864 O 355.318 -1.25394 5.88693 0
M  V30 3865 H 359.144 0.382048 3.01287 0
M  V30 3866 H 356.729 0.252953 1.47243 0
M  V30 3867 H 358.611 -1.96411 3.72828 0
M  V30 3868 H 357.286 -2.01487 2.53347 0
M  V30 3869 H 356.193 -0.0369159 3.74082 0
M  V30 3870 H 357.526 -0.0682566 4.92153 0
M  V30 3871 N 359.178 -1.55987 0.224894 0
M  V30 3872 C 360.126 -2.21808 -0.700283 0
M  V30 3873 C 361.12 -1.19854 -1.19714 0
M  V30 3874 O 362.326 -1.37925 -1.15658 0
M  V30 3875 H 358.701 -0.711226 -0.244258 0
M  V30 3876 H 360.672 -2.98152 -0.121749 0
M  V30 3877 C 359.421 -2.91444 -1.8962 0
M  V30 3878 H 358.744 -3.69655 -1.52299 0
M  V30 3879 H 360.184 -3.40894 -2.52125 0
M  V30 3880 C 358.643 -1.94098 -2.75368 0
M  V30 3881 O 359.173 -1.46004 -3.74227 0
M  V30 3882 N 357.379 -1.61675 -2.41474 0
M  V30 3883 H 356.926 -2.00979 -1.61137 0
M  V30 3884 H 356.884 -0.968036 -2.99126 0
M  V30 3885 N 360.656 0.0484629 -1.57525 0
M  V30 3886 C 361.586 1.0549 -2.08313 0
M  V30 3887 C 362.567 1.38929 -0.981463 0
M  V30 3888 O 363.752 1.48151 -1.25558 0
M  V30 3889 C 360.882 2.36162 -2.54646 0
M  V30 3890 C 359.836 2.17016 -3.68901 0
M  V30 3891 C 359.162 3.53278 -4.01371 0
M  V30 3892 C 360.462 1.57219 -4.98076 0
M  V30 3893 H 362.156 0.632195 -2.92649 0
M  V30 3894 H 359.702 0.302654 -1.40784 0
M  V30 3895 H 361.655 3.06882 -2.88793 0
M  V30 3896 H 360.379 2.80456 -1.67368 0
M  V30 3897 H 359.038 1.48733 -3.35073 0
M  V30 3898 H 358.686 3.95185 -3.11188 0
M  V30 3899 H 358.386 3.41299 -4.78318 0
M  V30 3900 H 359.91 4.25391 -4.38035 0
M  V30 3901 H 361.324 2.17832 -5.30304 0
M  V30 3902 H 359.721 1.55871 -5.79503 0
M  V30 3903 H 360.791 0.535956 -4.81929 0
M  V30 3904 N 362.134 1.5431 0.320358 0
M  V30 3905 C 363.55 1.45091 0.664889 0
M  V30 3906 C 363.75 0.626382 1.91517 0
M  V30 3907 O 362.806 0.126443 2.52183 0
M  V30 3908 C 364.119 2.88848 0.83591 0
M  V30 3909 C 365.667 2.9877 0.933046 0
M  V30 3910 C 366.142 4.43683 1.13621 0
M  V30 3911 N 367.633 4.47309 1.20287 0
M  V30 3912 C 368.368 5.56595 1.37801 0
M  V30 3913 N 367.864 6.75844 1.52338 0
M  V30 3914 N 369.657 5.44248 1.40535 0
M  V30 3915 H 361.808 2.06398 -0.501374 0
M  V30 3916 H 364.071 0.933963 -0.162534 0
M  V30 3917 H 363.777 3.51698 -0.0116092 0
M  V30 3918 H 363.651 3.35148 1.73078 0
M  V30 3919 H 366.038 2.36045 1.77107 0
M  V30 3920 H 366.119 2.55796 0.0145782 0
M  V30 3921 H 365.763 5.06995 0.303032 0
M  V30 3922 H 365.693 4.84269 2.0686 0
M  V30 3923 H 368.184 3.61388 1.10485 0
M  V30 3924 H 368.497 7.54892 1.65403 0
M  V30 3925 H 366.842 6.78746 1.4943 0
M  V30 3926 H 370.033 4.50038 1.28777 0
M  V30 3927 H 370.206 6.29473 1.53842 0
M  V30 3928 N 363.613 -0.582584 1.46437 0
M  V30 3929 C 365.029 -0.905962 1.31394 0
M  V30 3930 C 365.229 -1.99468 0.285476 0
M  V30 3931 O 364.285 -2.50566 -0.311914 0
M  V30 3932 C 365.598 -1.3232 2.70022 0
M  V30 3933 C 367.146 -1.43604 2.78113 0
M  V30 3934 C 367.621 -1.88694 4.17323 0
M  V30 3935 N 369.112 -1.95887 4.19741 0
M  V30 3936 C 369.847 -2.32051 5.24347 0
M  V30 3937 N 369.343 -2.67006 6.39281 0
M  V30 3938 N 371.136 -2.32606 5.11713 0
M  V30 3939 H 363.287 0.1366 2.1196 0
M  V30 3940 H 365.55 -0.00155736 0.947999 0
M  V30 3941 H 365.256 -0.597242 3.46592 0
M  V30 3942 H 365.13 -2.28469 3.00136 0
M  V30 3943 H 367.517 -2.15286 2.01832 0
M  V30 3944 H 367.598 -0.457059 2.51684 0
M  V30 3945 H 367.242 -1.1759 4.941 0
M  V30 3946 H 367.172 -2.8755 4.4116 0
M  V30 3947 H 369.663 -1.71362 3.36814 0
M  V30 3948 H 369.976 -2.93554 7.14875 0
M  V30 3949 H 368.321 -2.64644 6.42642 0
M  V30 3950 H 371.512 -2.04721 4.2096 0
M  V30 3951 H 371.685 -2.60462 5.93349 0
M  V30 3952 N 365.091 -1.34144 -0.827227 0
M  V30 3953 C 366.507 -1.13732 -1.11969 0
M  V30 3954 C 366.707 0.0640463 -2.01398 0
M  V30 3955 O 365.763 0.740856 -2.41387 0
M  V30 3956 C 367.076 -2.43047 -1.77055 0
M  V30 3957 C 368.624 -2.49063 -1.89569 0
M  V30 3958 C 369.099 -3.78369 -2.58072 0
M  V30 3959 N 370.59 -3.79505 -2.65575 0
M  V30 3960 C 371.325 -4.76274 -3.19297 0
M  V30 3961 N 370.821 -5.83424 -3.73616 0
M  V30 3962 N 372.614 -4.63735 -3.17658 0
M  V30 3963 H 364.765 -2.11126 -0.232296 0
M  V30 3964 H 367.028 -0.933424 -0.165602 0
M  V30 3965 H 366.734 -3.31025 -1.18807 0
M  V30 3966 H 366.608 -2.56066 -2.76966 0
M  V30 3967 H 368.995 -1.61527 -2.46968 0
M  V30 3968 H 369.076 -2.39975 -0.885745 0
M  V30 3969 H 368.72 -4.66293 -2.01329 0
M  V30 3970 H 368.65 -3.84737 -3.59562 0
M  V30 3971 H 371.141 -3.02074 -2.27068 0
M  V30 3972 H 371.454 -6.53282 -4.12846 0
M  V30 3973 H 369.799 -5.87143 -3.71871 0
M  V30 3974 H 372.99 -3.79177 -2.74486 0
M  V30 3975 H 373.163 -5.39318 -3.59221 0
M  V30 3976 N 366.569 1.04691 -1.17803 0
M  V30 3977 C 367.501 2.12571 -0.857097 0
M  V30 3978 C 368.514 1.62174 0.142647 0
M  V30 3979 O 369.703 1.78301 -0.0843387 0
M  V30 3980 C 366.803 3.37915 -0.258216 0
M  V30 3981 C 365.976 4.1757 -1.30207 0
M  V30 3982 C 365.035 5.2125 -0.720029 0
M  V30 3983 O 364.061 5.51888 -1.39314 0
M  V30 3984 N 365.263 5.78466 0.485507 0
M  V30 3985 H 368.028 2.40698 -1.78562 0
M  V30 3986 H 365.589 1.20831 -1.07757 0
M  V30 3987 H 367.581 4.04442 0.144584 0
M  V30 3988 H 366.151 3.07281 0.574199 0
M  V30 3989 H 365.371 3.46458 -1.88043 0
M  V30 3990 H 366.659 4.67586 -2.00601 0
M  V30 3991 H 366.057 5.55866 1.05022 0
M  V30 3992 H 364.614 6.4649 0.830307 0
M  V30 3993 N 368.047 0.979072 1.23499 0
M  V30 3994 C 369.287 0.655228 1.93613 0
M  V30 3995 C 369.651 -0.796336 1.74707 0
M  V30 3996 O 370.852 -1.23094 2.38959 0
M  V30 3997 C 369.123 1.03337 3.42135 0
M  V30 3998 S 370.682 0.825793 4.3096 0
M  V30 3999 H 367.5 0.240004 0.669267 0
M  V30 4000 H 370.102 1.25843 1.49612 0
M  V30 4001 H 368.806 2.08646 3.53405 0
M  V30 4002 H 368.337 0.421397 3.91137 0
M  V30 4003 H 370.352 -0.290991 4.95346 0
M  V30 4004 N 369.525 -1.3858 0.750561 0
M  V30 4005 C 370.802 -1.94231 0.231009 0
M  V30 4006 C 371.182 -1.68611 -1.27018 0
M  V30 4007 O 370.53 -1.02296 -2.04323 0
M  V30 4008 C 370.74 -3.44123 0.581428 0
M  V30 4009 C 372.088 -4.2116 0.539389 0
M  V30 4010 O 373.112 -3.52391 0.519541 0
M  V30 4011 O 371.971 -5.43749 0.54765 0
M  V30 4012 H 369.065 -0.825639 0.0474263 0
M  V30 4013 H 371.611 -1.4799 0.830478 0
M  V30 4014 H 370.383 -3.56267 1.61833 0
M  V30 4015 H 370.006 -3.97573 -0.0462047 0
M  V30 4016 N 371.003 -0.499398 -1.49478 0
M  V30 4017 C 371.933 0.269244 -2.31943 0
M  V30 4018 C 372.914 0.964054 -1.40143 0
M  V30 4019 O 374.099 0.955767 -1.69052 0
M  V30 4020 C 371.229 1.33504 -3.20615 0
M  V30 4021 C 370.183 0.760202 -4.21195 0
M  V30 4022 C 369.509 1.9264 -4.98792 0
M  V30 4023 C 370.809 -0.247661 -5.21712 0
M  V30 4024 H 372.503 -0.419082 -2.96452 0
M  V30 4025 H 370.049 -0.202988 -1.42562 0
M  V30 4026 H 372.002 1.88048 -3.77115 0
M  V30 4027 H 370.726 2.05253 -2.54045 0
M  V30 4028 H 369.385 0.23653 -3.65836 0
M  V30 4029 H 369.033 2.63154 -4.28671 0
M  V30 4030 H 368.733 1.54785 -5.66847 0
M  V30 4031 H 370.257 2.4762 -5.58137 0
M  V30 4032 H 371.671 0.209579 -5.72917 0
M  V30 4033 H 370.068 -0.541962 -5.97648 0
M  V30 4034 H 371.138 -1.16409 -4.7072 0
M  V30 4035 N 372.481 1.55866 -0.233164 0
M  V30 4036 C 373.444 2.1953 0.658715 0
M  V30 4037 C 374.444 1.16053 1.11303 0
M  V30 4038 O 375.634 1.41218 1.01996 0
M  V30 4039 C 372.766 2.82791 1.90373 0
M  V30 4040 H 373.959 2.99721 0.10347 0
M  V30 4041 H 371.512 1.56291 0.0164245 0
M  V30 4042 H 372.247 2.06501 2.50056 0
M  V30 4043 H 372.032 3.58578 1.58632 0
M  V30 4044 H 373.522 3.31556 2.53891 0
M  V30 4045 N 373.959 -0.0401083 1.57549 0
M  V30 4046 C 375.207 -0.731677 1.8839 0
M  V30 4047 C 375.528 -1.76481 0.829425 0
M  V30 4048 O 374.798 -1.95411 -0.1383 0
M  V30 4049 H 373.378 -0.273225 0.695239 0
M  V30 4050 H 376.04 -0.00867725 1.94898 0
M  V30 4051 H 375.136 -1.22816 2.86919 0
M  V30 4052 N 375.437 -1.54477 -0.31217 0
M  V30 4053 C 376.683 -1.73483 -1.0503 0
M  V30 4054 C 377.016 -0.513125 -1.87298 0
M  V30 4055 O 376.291 0.489864 -1.8823 0
M  V30 4056 C 376.574 -3.01723 -1.96558 0
M  V30 4057 C 376.427 -4.3417 -1.17545 0
M  V30 4058 C 377.746 -3.25772 -2.95907 0
M  V30 4059 H 374.865 -0.631222 -0.380432 0
M  V30 4060 H 377.507 -1.87184 -0.325932 0
M  V30 4061 H 375.657 -2.90174 -2.58324 0
M  V30 4062 H 377.329 -4.5762 -0.581513 0
M  V30 4063 H 375.572 -4.31159 -0.477925 0
M  V30 4064 H 376.243 -5.20143 -1.84811 0
M  V30 4065 H 378.719 -3.36857 -2.44267 0
M  V30 4066 H 377.595 -4.16838 -3.57123 0
M  V30 4067 H 377.856 -2.43537 -3.68974 0
M  V30 4068 N 376.915 0.57481 -1.46744 0
M  V30 4069 C 377.825 1.711 -1.60505 0
M  V30 4070 C 378.841 1.67008 -0.488307 0
M  V30 4071 O 380.017 1.86774 -0.753495 0
M  V30 4072 C 377.082 3.07608 -1.59932 0
M  V30 4073 C 376.143 3.22904 -2.82898 0
M  V30 4074 C 375.376 4.529 -2.82343 0
M  V30 4075 O 375.599 5.37278 -1.91542 0
M  V30 4076 O 374.533 4.71611 -3.73987 0
M  V30 4077 H 378.359 1.62436 -2.56609 0
M  V30 4078 H 375.944 0.742779 -1.29627 0
M  V30 4079 H 377.826 3.88877 -1.62336 0
M  V30 4080 H 376.501 3.16692 -0.669898 0
M  V30 4081 H 375.408 2.41099 -2.86046 0
M  V30 4082 H 376.741 3.18715 -3.75076 0
M  V30 4083 N 378.394 1.34581 0.820102 0
M  V30 4084 C 379.622 1.3018 1.60813 0
M  V30 4085 C 380.037 -0.123551 1.88395 0
M  V30 4086 O 379.394 -1.07148 1.47735 0
M  V30 4087 C 379.445 2.09312 2.94739 0
M  V30 4088 O 379.166 3.46288 2.68358 0
M  V30 4089 C 380.667 2.1234 3.89136 0
M  V30 4090 H 377.887 0.447726 0.499782 0
M  V30 4091 H 380.431 1.77237 1.02017 0
M  V30 4092 H 378.586 1.65889 3.50085 0
M  V30 4093 H 379 3.87227 3.53774 0
M  V30 4094 H 380.474 2.72126 4.80262 0
M  V30 4095 H 380.951 1.11854 4.24718 0
M  V30 4096 H 381.557 2.55864 3.39726 0
M  V30 4097 N 379.872 -1.04064 1.18357 0
M  V30 4098 C 381.112 -1.78829 0.989921 0
M  V30 4099 C 381.476 -1.86106 -0.472095 0
M  V30 4100 O 382.677 -2.57076 -0.785187 0
M  V30 4101 C 380.948 -3.1823 1.6268 0
M  V30 4102 S 382.507 -4.09332 1.58091 0
M  V30 4103 H 379.325 -0.615754 0.355482 0
M  V30 4104 H 381.927 -1.24778 1.50501 0
M  V30 4105 H 380.631 -3.10543 2.68311 0
M  V30 4106 H 380.162 -3.77357 1.112 0
M  V30 4107 H 382.177 -4.92598 0.596817 0
M  V30 4108 N 381.35 -0.985608 -1.22978 0
M  V30 4109 C 382.297 -0.529825 -2.24636 0
M  V30 4110 C 383.267 0.434028 -1.60329 0
M  V30 4111 O 384.452 0.340414 -1.87739 0
M  V30 4112 C 381.592 0.156533 -3.44745 0
M  V30 4113 C 380.705 -0.848197 -4.23591 0
M  V30 4114 C 379.84 -0.136109 -5.31026 0
M  V30 4115 C 378.879 -1.1297 -6.01585 0
M  V30 4116 N 378.016 -0.446415 -7.00679 0
M  V30 4117 H 382.856 -1.40148 -2.62988 0
M  V30 4118 H 380.393 -0.702168 -1.29259 0
M  V30 4119 H 382.351 0.571324 -4.1327 0
M  V30 4120 H 380.981 0.992025 -3.07179 0
M  V30 4121 H 380.033 -1.38135 -3.54433 0
M  V30 4122 H 381.345 -1.60512 -4.72268 0
M  V30 4123 H 380.499 0.335784 -6.0577 0
M  V30 4124 H 379.238 0.653373 -4.83304 0
M  V30 4125 H 378.243 -1.6123 -5.25628 0
M  V30 4126 H 379.468 -1.91993 -6.51395 0
M  V30 4127 H 377.414 0.323763 -6.55201 0
M  V30 4128 H 377.331 -1.1419 -7.47326 0
M  V30 4129 H 378.599 0.00291697 -7.795 0
M  V30 4130 N 382.828 1.3818 -0.7579 0
M  V30 4131 C 384.053 2.04827 -0.325679 0
M  V30 4132 C 384.478 1.56788 1.03919 0
M  V30 4133 O 383.836 0.721811 1.66312 0
M  V30 4134 C 383.884 3.58774 -0.362447 0
M  V30 4135 O 382.988 4.07372 0.642033 0
M  V30 4136 H 382.329 0.64833 -0.143402 0
M  V30 4137 H 384.859 1.7677 -1.03023 0
M  V30 4138 H 384.869 4.07434 -0.214844 0
M  V30 4139 H 383.544 3.93096 -1.35824 0
M  V30 4140 H 382.121 3.70068 0.458688 0
M  V30 4141 N 384.306 0.507319 1.49211 0
M  V30 4142 C 385.236 -0.256939 2.32082 0
M  V30 4143 C 386.217 -0.956609 1.40652 0
M  V30 4144 O 387.402 -0.946788 1.69557 0
M  V30 4145 C 384.532 -1.31802 3.21318 0
M  V30 4146 C 383.486 -0.737855 4.21592 0
M  V30 4147 C 382.812 -1.89992 4.99807 0
M  V30 4148 C 384.112 0.275325 5.21574 0
M  V30 4149 H 385.806 0.434798 2.96226 0
M  V30 4150 H 383.352 0.210546 1.42452 0
M  V30 4151 H 385.305 -1.86045 3.78107 0
M  V30 4152 H 384.029 -2.03903 2.5513 0
M  V30 4153 H 382.688 -0.217126 3.65956 0
M  V30 4154 H 382.336 -2.60877 4.30061 0
M  V30 4155 H 382.036 -1.51777 5.6766 0
M  V30 4156 H 383.56 -2.44657 5.59442 0
M  V30 4157 H 384.974 -0.179193 5.7302 0
M  V30 4158 H 383.371 0.573649 5.97352 0
M  V30 4159 H 384.441 1.18903 4.70096 0
M  V30 4160 N 385.784 -1.5574 0.241426 0
M  V30 4161 C 386.694 -2.2479 -0.671305 0
M  V30 4162 C 387.71 -1.26217 -1.19772 0
M  V30 4163 O 388.886 -1.59079 -1.23514 0
M  V30 4164 C 385.951 -2.92966 -1.85396 0
M  V30 4165 C 385.012 -4.06935 -1.36756 0
M  V30 4166 C 384.245 -4.71851 -2.49384 0
M  V30 4167 O 384.468 -4.35823 -3.67987 0
M  V30 4168 O 383.402 -5.60467 -2.19454 0
M  V30 4169 H 387.228 -3.0349 -0.112966 0
M  V30 4170 H 384.813 -1.49397 0.0101513 0
M  V30 4171 H 386.695 -3.35927 -2.54423 0
M  V30 4172 H 385.37 -2.17211 -2.40002 0
M  V30 4173 H 384.277 -3.68503 -0.644726 0
M  V30 4174 H 385.61 -4.84492 -0.867647 0
M  V30 4175 N 387.262 0.0317525 -1.57568 0
M  V30 4176 C 388.487 0.738664 -1.938 0
M  V30 4177 C 388.912 1.68242 -0.841208 0
M  V30 4178 O 388.27 1.80157 0.203267 0
M  V30 4179 C 388.318 1.47417 -3.29091 0
M  V30 4180 O 387.422 2.5872 -3.2115 0
M  V30 4181 H 386.763 0.198856 -0.633524 0
M  V30 4182 H 389.293 -0.0119713 -2.04596 0
M  V30 4183 H 389.303 1.84468 -3.63917 0
M  V30 4184 H 387.978 0.781988 -4.08482 0
M  V30 4185 H 386.555 2.24231 -2.97951 0
M  V30 4186 N 388.74 1.54641 0.303973 0
M  V30 4187 C 389.672 1.81754 1.39636 0
M  V30 4188 C 390.685 0.70035 1.46966 0
M  V30 4189 O 391.874 0.97778 1.49338 0
M  V30 4190 C 388.974 1.93785 2.7803 0
M  V30 4191 C 388.147 3.24156 2.93669 0
M  V30 4192 C 387.206 3.26641 4.12544 0
M  V30 4193 O 386.232 4.00187 4.04771 0
M  V30 4194 N 387.434 2.5182 5.23036 0
M  V30 4195 H 390.199 2.76031 1.16734 0
M  V30 4196 H 387.76 1.54178 0.494033 0
M  V30 4197 H 389.752 1.92852 3.55795 0
M  V30 4198 H 388.322 1.06515 2.93893 0
M  V30 4199 H 387.542 3.37887 2.03042 0
M  V30 4200 H 388.83 4.10195 3.01027 0
M  V30 4201 H 388.228 1.91692 5.32232 0
M  V30 4202 H 386.785 2.56644 5.99147 0
M  V30 4203 N 390.218 -0.567019 1.47046 0
M  V30 4204 C 391.165 -1.67489 1.58796 0
M  V30 4205 C 392.135 -1.60399 0.43144 0
M  V30 4206 O 393.32 -1.79378 0.650233 0
M  V30 4207 C 390.46 -3.05821 1.59899 0
M  V30 4208 C 389.573 -3.2342 2.86397 0
M  V30 4209 C 388.708 -4.52093 2.789 0
M  V30 4210 C 387.747 -4.6309 4.00267 0
M  V30 4211 N 386.884 -5.83106 3.91064 0
M  V30 4212 H 391.724 -1.56785 2.53422 0
M  V30 4213 H 389.261 -0.763896 1.2571 0
M  V30 4214 H 391.219 -3.8591 1.58522 0
M  V30 4215 H 389.849 -3.15384 0.687929 0
M  V30 4216 H 388.901 -2.3683 2.97684 0
M  V30 4217 H 390.213 -3.27412 3.76301 0
M  V30 4218 H 389.367 -5.4043 2.75718 0
M  V30 4219 H 388.106 -4.50565 1.86662 0
M  V30 4220 H 387.111 -3.73168 4.03765 0
M  V30 4221 H 388.336 -4.66386 4.93621 0
M  V30 4222 H 386.282 -5.82546 3.01623 0
M  V30 4223 H 386.199 -5.88434 4.74638 0
M  V30 4224 H 387.467 -6.73831 3.91882 0
M  V30 4225 N 391.696 -1.35014 -0.812953 0
M  V30 4226 C 392.606 -1.2951 -1.95613 0
M  V30 4227 C 393.622 -0.20107 -1.72834 0
M  V30 4228 O 394.798 -0.42932 -1.96771 0
M  V30 4229 C 391.863 -1.06033 -3.30088 0
M  V30 4230 C 390.924 -2.24688 -3.65805 0
M  V30 4231 C 390.157 -2.02322 -4.93864 0
M  V30 4232 O 390.38 -0.986464 -5.61805 0
M  V30 4233 O 389.314 -2.89525 -5.27692 0
M  V30 4234 H 393.14 -2.25705 -2.03202 0
M  V30 4235 H 390.725 -1.15321 -0.949811 0
M  V30 4236 H 392.607 -0.94763 -4.10607 0
M  V30 4237 H 391.282 -0.128852 -3.23443 0
M  V30 4238 H 390.189 -2.41521 -2.85689 0
M  V30 4239 H 391.522 -3.16261 -3.77147 0
M  V30 4240 N 393.175 1.03435 -1.18907 0
M  V30 4241 C 394.591 1.28973 -0.940111 0
M  V30 4242 C 394.791 1.97676 0.390691 0
M  V30 4243 O 393.847 2.26127 1.12352 0
M  V30 4244 C 395.16 2.14221 -2.11021 0
M  V30 4245 C 396.708 2.27547 -2.14922 0
M  V30 4246 C 397.183 3.16164 -3.31367 0
M  V30 4247 N 398.674 3.23752 -3.31269 0
M  V30 4248 C 399.409 3.92495 -4.18014 0
M  V30 4249 N 398.905 4.63515 -5.14904 0
M  V30 4250 N 400.698 3.88838 -4.05908 0
M  V30 4251 H 392.849 0.57252 -2.04538 0
M  V30 4252 H 395.112 0.315184 -0.894071 0
M  V30 4253 H 394.818 1.71054 -3.073 0
M  V30 4254 H 394.692 3.14919 -2.0762 0
M  V30 4255 H 397.079 2.69947 -1.19217 0
M  V30 4256 H 397.16 1.26418 -2.22378 0
M  V30 4257 H 396.804 2.74474 -4.27348 0
M  V30 4258 H 396.734 4.17339 -3.21148 0
M  V30 4259 H 399.225 2.73167 -2.61129 0
M  V30 4260 H 399.538 5.13583 -5.77453 0
M  V30 4261 H 397.883 4.62398 -5.18857 0
M  V30 4262 H 401.074 3.32491 -3.29495 0
M  V30 4263 H 401.247 4.4214 -4.73726 0
M  V30 4264 N 394.653 0.992116 1.22453 0
M  V30 4265 C 395.583 0.561677 2.26644 0
M  V30 4266 C 396.564 -0.411055 1.65059 0
M  V30 4267 O 397.749 -0.301861 1.9184 0
M  V30 4268 C 394.879 -0.125247 3.47074 0
M  V30 4269 C 393.833 0.765948 4.21091 0
M  V30 4270 C 393.159 -0.0538484 5.34673 0
M  V30 4271 C 394.459 2.06242 4.79856 0
M  V30 4272 H 396.153 1.43259 2.62902 0
M  V30 4273 H 393.699 0.690283 1.26377 0
M  V30 4274 H 395.652 -0.437764 4.1912 0
M  V30 4275 H 394.376 -1.03069 3.0991 0
M  V30 4276 H 393.035 1.0621 3.50878 0
M  V30 4277 H 392.683 -0.960188 4.9375 0
M  V30 4278 H 392.383 0.539415 5.85119 0
M  V30 4279 H 393.907 -0.360477 6.09535 0
M  V30 4280 H 395.321 1.8139 5.43848 0
M  V30 4281 H 393.718 2.60444 5.40638 0
M  V30 4282 H 394.788 2.74167 3.99951 0
M  V30 4283 N 396.131 -1.37776 0.765217 0
M  V30 4284 C 397.061 -2.32945 0.160953 0
M  V30 4285 C 398.042 -1.55454 -0.690516 0
M  V30 4286 O 399.227 -1.83721 -0.629318 0
M  V30 4287 C 396.357 -3.39669 -0.724031 0
M  V30 4288 C 395.311 -4.27992 0.0256173 0
M  V30 4289 C 394.637 -5.25673 -0.978383 0
M  V30 4290 C 395.937 -5.08309 1.20082 0
M  V30 4291 H 397.631 -2.83728 0.955969 0
M  V30 4292 H 395.177 -1.36416 0.461149 0
M  V30 4293 H 397.13 -4.05219 -1.15652 0
M  V30 4294 H 395.854 -2.87396 -1.5515 0
M  V30 4295 H 394.513 -3.63964 0.438812 0
M  V30 4296 H 394.161 -4.69682 -1.80022 0
M  V30 4297 H 393.861 -5.85625 -0.481378 0
M  V30 4298 H 395.385 -5.94098 -1.40995 0
M  V30 4299 H 396.799 -5.67034 0.845307 0
M  V30 4300 H 395.196 -5.77554 1.62947 0
M  V30 4301 H 396.266 -4.41365 2.00811 0
M  V30 4302 N 397.609 -0.515225 -1.4894 0
M  V30 4303 C 398.834 0.022727 -2.07388 0
M  V30 4304 C 399.259 1.2876 -1.37122 0
M  V30 4305 O 398.617 1.76067 -0.432431 0
M  V30 4306 C 398.665 0.244869 -3.59768 0
M  V30 4307 O 397.769 1.31667 -3.90817 0
M  V30 4308 H 397.11 -0.0325506 -0.663202 0
M  V30 4309 H 399.64 -0.718918 -1.91553 0
M  V30 4310 H 399.65 0.47205 -4.0526 0
M  V30 4311 H 398.325 -0.679194 -4.10317 0
M  V30 4312 H 396.902 1.07331 -3.5712 0
M  V30 4313 N 399.087 1.5561 -0.249682 0
M  V30 4314 C 400.035 2.22894 0.664906 0
M  V30 4315 C 401.029 1.21743 1.17792 0
M  V30 4316 O 402.235 1.39748 1.13449 0
M  V30 4317 H 398.61 0.715022 0.232912 0
M  V30 4318 H 400.581 2.98307 0.0742998 0
M  V30 4319 C 399.33 2.94424 1.84959 0
M  V30 4320 H 398.653 3.72031 1.46399 0
M  V30 4321 H 400.093 3.44862 2.4667 0
M  V30 4322 C 398.552 1.98454 2.72245 0
M  V30 4323 O 399.082 1.51939 3.71857 0
M  V30 4324 N 397.288 1.65496 2.38871 0
M  V30 4325 H 396.835 2.03517 1.57919 0
M  V30 4326 H 396.793 1.0155 2.97548 0
M  V30 4327 N 400.565 -0.0233959 1.57583 0
M  V30 4328 C 401.813 -0.711654 1.89156 0
M  V30 4329 C 402.134 -1.75591 0.848096 0
M  V30 4330 O 401.404 -1.95547 -0.117566 0
M  V30 4331 H 399.984 -0.265835 0.698098 0
M  V30 4332 H 402.646 0.0119948 1.94896 0
M  V30 4333 H 401.742 -1.19766 2.88206 0
M  V30 4334 N 402.043 -1.548 -0.295768 0
M  V30 4335 C 403.289 -1.75517 -1.02789 0
M  V30 4336 C 403.644 -0.537266 -1.84746 0
M  V30 4337 O 402.937 0.470299 -1.85738 0
M  V30 4338 C 403.131 -2.98797 -1.961 0
M  V30 4339 C 402.96 -4.3246 -1.23321 0
M  V30 4340 C 401.73 -4.96131 -0.95822 0
M  V30 4341 C 403.928 -5.10365 -0.635024 0
M  V30 4342 N 401.91 -6.1357 -0.201257 0
M  V30 4343 C 403.281 -6.19999 -0.0110937 0
M  V30 4344 C 405.336 -4.94957 -0.540594 0
M  V30 4345 C 404.039 -7.15904 0.698136 0
M  V30 4346 C 406.065 -5.91197 0.154992 0
M  V30 4347 C 405.427 -7.00203 0.767752 0
M  V30 4348 H 401.526 -0.694786 -0.358882 0
M  V30 4349 H 404.11 -1.92281 -0.305943 0
M  V30 4350 H 402.281 -2.83448 -2.6554 0
M  V30 4351 H 404.013 -3.08017 -2.62502 0
M  V30 4352 H 400.768 -4.56595 -1.25771 0
M  V30 4353 H 401.192 -6.76802 0.16389 0
M  V30 4354 H 405.834 -4.10803 -1.00003 0
M  V30 4355 H 403.552 -7.99595 1.16933 0
M  V30 4356 H 407.138 -5.81353 0.228069 0
M  V30 4357 H 406.018 -7.73393 1.29743 0
M  V30 4358 N 403.521 0.559213 -1.47345 0
M  V30 4359 C 404.431 1.69388 -1.62311 0
M  V30 4360 C 405.447 1.6648 -0.505993 0
M  V30 4361 O 406.623 1.85964 -0.773262 0
M  V30 4362 C 403.688 3.05894 -1.63185 0
M  V30 4363 C 402.749 3.19885 -2.86307 0
M  V30 4364 C 401.982 4.49879 -2.87131 0
M  V30 4365 O 402.205 5.35217 -1.97229 0
M  V30 4366 O 401.139 4.67618 -3.78968 0
M  V30 4367 H 404.965 1.59706 -2.58317 0
M  V30 4368 H 402.55 0.728989 -1.30407 0
M  V30 4369 H 404.432 3.87133 -1.66451 0
M  V30 4370 H 403.107 3.15964 -0.70345 0
M  V30 4371 H 402.014 2.38052 -2.88587 0
M  V30 4372 H 403.347 3.14718 -3.78435 0
M  V30 4373 N 404.999 1.35443 0.805782 0
M  V30 4374 C 406.227 1.31878 1.59423 0
M  V30 4375 C 406.642 -0.103562 1.88516 0
M  V30 4376 O 405.999 -1.05575 1.48863 0
M  V30 4377 C 406.05 2.12426 2.92502 0
M  V30 4378 O 405.771 3.49115 2.6467 0
M  V30 4379 C 407.272 2.16455 3.86862 0
M  V30 4380 H 404.492 0.453002 0.495005 0
M  V30 4381 H 407.036 1.78309 1.00131 0
M  V30 4382 H 405.191 1.69593 3.48306 0
M  V30 4383 H 405.605 3.90957 3.49647 0
M  V30 4384 H 407.079 2.77204 4.77349 0
M  V30 4385 H 407.556 1.16352 4.23508 0
M  V30 4386 H 408.162 2.59453 3.36993 0
M  V30 4387 N 406.477 -1.02803 1.19454 0
M  V30 4388 C 407.44 -2.09264 0.934955 0
M  V30 4389 C 408.44 -1.60576 -0.0849015 0
M  V30 4390 O 409.63 -1.73554 0.149933 0
M  V30 4391 C 406.762 -3.38482 0.40531 0
M  V30 4392 H 407.955 -2.33726 1.87916 0
M  V30 4393 H 405.508 -1.19426 1.00832 0
M  V30 4394 H 406.243 -3.19689 -0.544899 0
M  V30 4395 H 406.028 -3.75142 1.14065 0
M  V30 4396 H 407.518 -4.16894 0.242806 0
M  V30 4397 N 407.956 -0.998596 -1.21925 0
M  V30 4398 C 409.181 -0.696015 -1.95372 0
M  V30 4399 C 409.606 0.733826 -1.73195 0
M  V30 4400 O 408.964 1.50242 -1.01474 0
M  V30 4401 C 409.012 -1.01466 -3.4603 0
M  V30 4402 O 408.116 -0.116415 -4.12236 0
M  V30 4403 H 407.457 -0.259938 -0.611006 0
M  V30 4404 H 409.987 -1.33711 -1.54863 0
M  V30 4405 H 409.997 -0.958855 -3.96573 0
M  V30 4406 H 408.672 -2.05653 -3.61497 0
M  V30 4407 H 407.249 -0.228193 -3.72201 0
M  V30 4408 N 409.434 1.37368 -0.772513 0
M  V30 4409 C 410.397 2.28601 -0.165541 0
M  V30 4410 C 411.397 1.48062 0.627238 0
M  V30 4411 O 412.587 1.68268 0.450715 0
M  V30 4412 C 409.719 3.32023 0.772897 0
M  V30 4413 H 410.912 2.83787 -0.969787 0
M  V30 4414 H 408.465 1.46647 -0.540775 0
M  V30 4415 H 409.2 2.81962 1.60212 0
M  V30 4416 H 408.985 3.91555 0.206585 0
M  V30 4417 H 410.475 4.00197 1.19298 0
M  V30 4418 N 410.912 0.523116 1.48665 0
M  V30 4419 C 412.158 -0.0134963 2.02796 0
M  V30 4420 C 412.491 -1.34582 1.40004 0
M  V30 4421 O 411.766 -1.86756 0.543381 0
M  V30 4422 C 412.049 -0.14276 3.59817 0
M  V30 4423 C 411.902 1.21425 4.331 0
M  V30 4424 C 413.221 -0.872856 4.31357 0
M  V30 4425 H 410.34 -0.00343074 0.736992 0
M  V30 4426 H 412.982 0.678816 1.7746 0
M  V30 4427 H 411.132 -0.732401 3.81534 0
M  V30 4428 H 412.804 1.84447 4.2282 0
M  V30 4429 H 411.047 1.79791 3.94788 0
M  V30 4430 H 411.718 1.07687 5.41394 0
M  V30 4431 H 414.194 -0.372555 4.14429 0
M  V30 4432 H 413.07 -0.932185 5.40927 0
M  V30 4433 H 413.331 -1.92161 3.98154 0
M  V30 4434 N 412.39 -1.55475 0.257931 0
M  V30 4435 C 413.667 -1.91155 -0.414629 0
M  V30 4436 C 414.047 -1.18008 -1.75035 0
M  V30 4437 O 413.395 -0.301193 -2.26506 0
M  V30 4438 C 413.605 -3.44283 -0.571859 0
M  V30 4439 C 414.953 -4.15744 -0.862678 0
M  V30 4440 O 415.977 -3.50083 -0.657314 0
M  V30 4441 O 414.836 -5.31909 -1.2544 0
M  V30 4442 H 411.93 -0.796016 -0.22425 0
M  V30 4443 H 414.476 -1.66976 0.302814 0
M  V30 4444 H 413.248 -3.89558 0.368844 0
M  V30 4445 H 412.871 -3.7436 -1.33943 0
M  V30 4446 N 413.868 0.0150385 -1.57593 0
M  V30 4447 C 414.801 1.04475 -2.0288 0
M  V30 4448 C 415.779 1.3436 -0.915764 0
M  V30 4449 O 416.963 1.46779 -1.18271 0
M  V30 4450 C 414.09 2.37608 -2.41371 0
M  V30 4451 C 413.136 2.23487 -3.63257 0
M  V30 4452 S 413.969 1.57505 -5.11813 0
M  V30 4453 C 415.125 2.921 -5.5356 0
M  V30 4454 H 415.358 0.65907 -2.89903 0
M  V30 4455 H 412.891 0.225452 -1.52745 0
M  V30 4456 H 414.849 3.14165 -2.64217 0
M  V30 4457 H 413.51 2.7332 -1.54775 0
M  V30 4458 H 412.703 3.21802 -3.87891 0
M  V30 4459 H 412.305 1.55074 -3.40335 0
M  V30 4460 H 414.597 3.88419 -5.55101 0
M  V30 4461 H 415.54 2.72184 -6.53698 0
M  V30 4462 H 415.948 2.95318 -4.8109 0
M  V30 4463 N 415.346 1.54954 0.287554 0
M  V30 4464 C 416.279 1.81737 1.3801 0
M  V30 4465 C 417.257 0.669412 1.48181 0
M  V30 4466 O 418.441 0.910839 1.65033 0
M  V30 4467 C 415.568 1.96606 2.75796 0
M  V30 4468 C 414.614 3.19098 2.82982 0
M  V30 4469 S 415.447 4.7683 2.43707 0
M  V30 4470 C 416.603 4.94653 3.83496 0
M  V30 4471 H 416.836 2.74122 1.15085 0
M  V30 4472 H 414.369 1.46538 0.486403 0
M  V30 4473 H 416.327 2.05858 3.55152 0
M  V30 4474 H 414.988 1.05136 2.95982 0
M  V30 4475 H 414.181 3.26344 3.84077 0
M  V30 4476 H 413.783 3.08361 2.11635 0
M  V30 4477 H 416.075 4.79502 4.78628 0
M  V30 4478 H 417.018 5.96728 3.8121 0
M  V30 4479 H 417.426 4.2272 3.74123 0
M  V30 4480 N 416.824 -0.551391 1.4764 0
M  V30 4481 C 417.734 -1.68525 1.63207 0
M  V30 4482 C 418.75 -1.6621 0.514815 0
M  V30 4483 O 419.926 -1.85551 0.783113 0
M  V30 4484 C 416.991 -3.05025 1.64805 0
M  V30 4485 C 416.052 -3.18362 2.88 0
M  V30 4486 C 415.285 -4.4835 2.89513 0
M  V30 4487 O 415.508 -5.34163 2.00065 0
M  V30 4488 O 414.442 -4.65602 3.81443 0
M  V30 4489 H 418.268 -1.58333 2.59161 0
M  V30 4490 H 415.853 -0.722063 1.30792 0
M  V30 4491 H 417.735 -3.86245 1.68502 0
M  V30 4492 H 416.41 -3.15587 0.720197 0
M  V30 4493 H 415.317 -2.36518 2.89845 0
M  V30 4494 H 416.65 -3.12707 3.80099 0
M  V30 4495 N 418.302 -1.35869 -0.798587 0
M  V30 4496 C 419.232 -1.32118 -1.92528 0
M  V30 4497 C 420.213 -0.194209 -1.68988 0
M  V30 4498 O 421.398 -0.390426 -1.90235 0
M  V30 4499 C 418.528 -1.10047 -3.29404 0
M  V30 4500 C 417.482 -2.19471 -3.67446 0
M  V30 4501 C 416.808 -1.82555 -5.02571 0
M  V30 4502 C 418.108 -3.61495 -3.76987 0
M  V30 4503 H 419.802 -2.26394 -1.95924 0
M  V30 4504 H 417.348 -1.08981 -0.94123 0
M  V30 4505 H 419.301 -1.06061 -4.07835 0
M  V30 4506 H 418.025 -0.122195 -3.26371 0
M  V30 4507 H 416.684 -2.22568 -2.91306 0
M  V30 4508 H 416.332 -0.833249 -4.9605 0
M  V30 4509 H 416.032 -2.5581 -5.28995 0
M  V30 4510 H 417.556 -1.80108 -5.83432 0
M  V30 4511 H 418.97 -3.60676 -4.4563 0
M  V30 4512 H 417.367 -4.33577 -4.14887 0
M  V30 4513 H 418.437 -3.97065 -2.78329 0
M  V30 4514 N 419.78 1.02168 -1.19998 0
M  V30 4515 C 421.01 1.79036 -1.031 0
M  V30 4516 C 421.418 1.84409 0.423078 0
M  V30 4517 O 420.761 1.29228 1.30559 0
M  V30 4518 C 420.823 3.25185 -1.53281 0
M  V30 4519 C 420.487 3.43431 -3.01503 0
M  V30 4520 C 421.484 3.33063 -3.99206 0
M  V30 4521 C 419.169 3.69412 -3.40353 0
M  V30 4522 C 421.163 3.48413 -5.33748 0
M  V30 4523 C 418.85 3.84406 -4.75053 0
M  V30 4524 C 419.848 3.7391 -5.71559 0
M  V30 4525 O 419.536 3.88452 -7.03818 0
M  V30 4526 H 419.268 0.570043 -0.363355 0
M  V30 4527 H 421.822 1.29524 -1.59414 0
M  V30 4528 H 420.052 3.75756 -0.913483 0
M  V30 4529 H 421.741 3.83671 -1.32481 0
M  V30 4530 H 422.507 3.12934 -3.70537 0
M  V30 4531 H 418.386 3.76671 -2.65782 0
M  V30 4532 H 421.93 3.40137 -6.09059 0
M  V30 4533 H 417.827 4.04035 -5.03415 0
M  V30 4534 H 418.595 4.055 -7.10993 0
M  V30 4535 N 421.258 1.00505 1.21394 0
M  V30 4536 C 422.206 0.558623 2.25792 0
M  V30 4537 C 423.2 -0.396848 1.64686 0
M  V30 4538 O 424.406 -0.268035 1.77993 0
M  V30 4539 H 420.781 0.1623 0.734277 0
M  V30 4540 H 422.752 1.4503 2.60785 0
M  V30 4541 C 421.501 -0.0989574 3.47559 0
M  V30 4542 H 420.824 0.627225 3.94849 0
M  V30 4543 H 422.264 -0.3746 4.22342 0
M  V30 4544 C 420.723 -1.33817 3.09184 0
M  V30 4545 O 421.253 -2.43252 3.19674 0
M  V30 4546 N 419.459 -1.21793 2.63846 0
M  V30 4547 H 419.006 -0.32746 2.5551 0
M  V30 4548 H 418.964 -2.04809 2.38539 0
M  V30 4549 N 422.737 -1.36956 0.779787 0
M  V30 4550 C 424.153 -1.52817 0.460342 0
M  V30 4551 C 424.353 -1.7361 -1.02283 0
M  V30 4552 O 423.409 -1.76207 -1.80852 0
M  V30 4553 C 424.722 -2.71983 1.28241 0
M  V30 4554 C 426.27 -2.85849 1.27512 0
M  V30 4555 C 426.745 -4.08008 2.08072 0
M  V30 4556 N 428.236 -4.15135 2.05467 0
M  V30 4557 C 428.971 -5.08711 2.64577 0
M  V30 4558 N 428.467 -6.07792 3.32506 0
M  V30 4559 N 430.26 -5.01254 2.54363 0
M  V30 4560 H 422.411 -1.21713 1.74068 0
M  V30 4561 H 424.674 -0.593294 0.739396 0
M  V30 4562 H 424.38 -2.63109 2.33381 0
M  V30 4563 H 424.254 -3.65882 0.917088 0
M  V30 4564 H 426.641 -2.94189 0.231686 0
M  V30 4565 H 426.722 -1.92886 1.68014 0
M  V30 4566 H 426.366 -4.00429 3.12441 0
M  V30 4567 H 426.296 -5.001 1.64947 0
M  V30 4568 H 428.787 -3.44189 1.5602 0
M  V30 4569 H 429.1 -6.75739 3.74963 0
M  V30 4570 H 427.445 -6.08047 3.36606 0
M  V30 4571 H 430.636 -4.22795 2.00902 0
M  V30 4572 H 430.809 -5.73995 3.00722 0
M  V30 4573 N 424.215 -0.530993 -1.48385 0
M  V30 4574 C 425.145 0.219985 -2.32461 0
M  V30 4575 C 426.126 0.934111 -1.42156 0
M  V30 4576 O 427.311 0.919694 -1.71042 0
M  V30 4577 C 424.441 1.26674 -3.23375 0
M  V30 4578 C 423.395 0.67069 -4.22712 0
M  V30 4579 C 422.721 1.82017 -5.02766 0
M  V30 4580 C 424.021 -0.358268 -5.2107 0
M  V30 4581 H 425.715 -0.48187 -2.95497 0
M  V30 4582 H 423.261 -0.233182 -1.42099 0
M  V30 4583 H 425.214 1.80006 -3.81019 0
M  V30 4584 H 423.938 1.99818 -2.58341 0
M  V30 4585 H 422.597 0.158878 -3.66256 0
M  V30 4586 H 422.245 2.54002 -4.34157 0
M  V30 4587 H 421.945 1.42727 -5.70003 0
M  V30 4588 H 423.469 2.35725 -5.63264 0
M  V30 4589 H 424.883 0.0880081 -5.73232 0
M  V30 4590 H 423.28 -0.66861 -5.96364 0
M  V30 4591 H 424.35 -1.26367 -4.68145 0
M  V30 4592 N 425.693 1.55336 -0.266172 0
M  V30 4593 C 427.104 1.85236 0.233315 0
M  V30 4594 C 427.455 1.18816 1.56132 0
M  V30 4595 O 426.58 0.473307 2.11161 0
M  V30 4596 C 427.175 3.36059 0.430113 0
M  V30 4597 C 425.734 3.66116 0.873842 0
M  V30 4598 C 424.881 2.77274 -0.0380016 0
M  V30 4599 H 427.832 1.51004 -0.488214 0
M  V30 4600 H 427.853 3.58681 1.26998 0
M  V30 4601 H 427.365 3.84373 -0.536588 0
M  V30 4602 H 425.466 3.23295 1.85233 0
M  V30 4603 H 425.579 4.73699 0.717358 0
M  V30 4604 H 423.943 2.50198 0.476759 0
M  V30 4605 H 424.726 3.284 -1.00042 0
M  V30 4606 N 427.171 -0.0066808 1.57599 0
M  V30 4607 C 428.587 -0.36267 1.55425 0
M  V30 4608 C 428.787 -1.75209 0.995187 0
M  V30 4609 O 427.843 -2.44616 0.626058 0
M  V30 4610 C 429.156 -0.244017 2.99708 0
M  V30 4611 C 430.704 -0.319451 3.11366 0
M  V30 4612 C 431.179 -0.229998 4.57422 0
M  V30 4613 N 432.67 -0.288105 4.62303 0
M  V30 4614 C 433.405 -0.242127 5.72889 0
M  V30 4615 N 432.901 -0.147133 6.92644 0
M  V30 4616 N 434.694 -0.293502 5.61333 0
M  V30 4617 H 426.845 0.902314 1.92281 0
M  V30 4618 H 429.108 0.34525 0.882896 0
M  V30 4619 H 428.814 0.711678 3.44424 0
M  V30 4620 H 428.688 -1.02877 3.629 0
M  V30 4621 H 431.075 -1.26559 2.66584 0
M  V30 4622 H 431.156 0.495055 2.50964 0
M  V30 4623 H 430.8 0.712566 5.02877 0
M  V30 4624 H 430.73 -1.0629 5.15761 0
M  V30 4625 H 433.221 -0.363126 3.76151 0
M  V30 4626 H 433.534 -0.117763 7.7271 0
M  V30 4627 H 431.879 -0.112857 6.94908 0
M  V30 4628 H 435.07 -0.365864 4.66668 0
M  V30 4629 H 435.243 -0.254204 6.47501 0
M  V30 4630 N 428.649 -1.55105 -0.279332 0
M  V30 4631 C 429.612 -1.86783 -1.32834 0
M  V30 4632 C 430.612 -0.74199 -1.42657 0
M  V30 4633 O 431.802 -1.0102 -1.41918 0
M  V30 4634 C 428.934 -2.06746 -2.71052 0
M  V30 4635 H 430.127 -2.8055 -1.05979 0
M  V30 4636 H 427.68 -1.47499 -0.517087 0
M  V30 4637 H 428.415 -1.15339 -3.03097 0
M  V30 4638 H 428.2 -2.88711 -2.65309 0
M  V30 4639 H 429.69 -2.32549 -3.46858 0
M  V30 4640 N 430.127 0.543554 -1.4793 0
M  V30 4641 C 431.037 1.67657 -1.64098 0
M  V30 4642 C 432.053 1.65934 -0.523622 0
M  V30 4643 O 433.229 1.85133 -0.792943 0
M  V30 4644 C 430.294 3.04146 -1.66421 0
M  V30 4645 C 429.355 3.16831 -2.89684 0
M  V30 4646 C 428.588 4.46809 -2.91886 0
M  V30 4647 O 428.811 5.33095 -2.02895 0
M  V30 4648 O 427.745 4.63573 -3.83906 0
M  V30 4649 H 431.571 1.56957 -2.59997 0
M  V30 4650 H 429.156 0.715116 -1.31173 0
M  V30 4651 H 431.038 3.85346 -1.70548 0
M  V30 4652 H 429.713 3.152 -0.736923 0
M  V30 4653 H 428.62 2.34977 -2.91095 0
M  V30 4654 H 429.953 3.10687 -3.81752 0
M  V30 4655 N 431.605 1.3629 0.791371 0
M  V30 4656 C 432.851 1.30605 1.55146 0
M  V30 4657 C 433.184 -0.115042 1.93859 0
M  V30 4658 O 432.459 -1.06798 1.62556 0
M  V30 4659 C 432.742 2.22692 2.82985 0
M  V30 4660 C 432.595 3.73489 2.50651 0
M  V30 4661 C 433.914 2.13588 3.84796 0
M  V30 4662 H 431.033 0.475761 0.562868 0
M  V30 4663 H 433.675 1.66825 0.909358 0
M  V30 4664 H 431.825 1.91933 3.37778 0
M  V30 4665 H 433.497 4.14758 2.01924 0
M  V30 4666 H 431.74 3.93021 1.83622 0
M  V30 4667 H 432.411 4.3333 3.41949 0
M  V30 4668 H 434.887 2.40659 3.39445 0
M  V30 4669 H 433.763 2.80195 4.71998 0
M  V30 4670 H 434.024 1.12256 4.27611 0
M  V30 4671 N 433.083 -1.0153 1.20538 0
M  V30 4672 C 434.308 -1.79283 1.04271 0
M  V30 4673 C 434.733 -1.8372 -0.403544 0
M  V30 4674 O 434.091 -1.27321 -1.2907 0
M  V30 4675 C 434.139 -3.21535 1.63241 0
M  V30 4676 O 433.243 -4.03099 0.870908 0
M  V30 4677 H 432.584 -0.55293 0.367647 0
M  V30 4678 H 435.114 -1.27696 1.59859 0
M  V30 4679 H 435.124 -3.72243 1.6703 0
M  V30 4680 H 433.799 -3.1762 2.68497 0
M  V30 4681 H 432.376 -3.61693 0.907323 0
M  V30 4682 N 434.561 -1.01147 -1.20859 0
M  V30 4683 C 435.977 -0.725422 -1.42161 0
M  V30 4684 C 436.177 0.696919 -1.89064 0
M  V30 4685 O 435.233 1.46539 -2.05627 0
M  V30 4686 C 436.546 -1.74678 -2.44761 0
M  V30 4687 C 438.094 -1.76433 -2.58535 0
M  V30 4688 C 438.569 -2.77481 -3.64374 0
M  V30 4689 N 440.06 -2.76189 -3.71852 0
M  V30 4690 C 440.795 -3.51035 -4.53389 0
M  V30 4691 N 440.291 -4.35541 -5.38773 0
M  V30 4692 N 442.084 -3.39655 -4.47873 0
M  V30 4693 H 434.235 -1.92979 -0.887282 0
M  V30 4694 H 436.498 -0.833327 -0.451962 0
M  V30 4695 H 436.204 -2.76551 -2.17285 0
M  V30 4696 H 436.078 -1.55472 -3.43669 0
M  V30 4697 H 438.465 -0.75248 -2.85345 0
M  V30 4698 H 438.546 -1.99712 -1.5984 0
M  V30 4699 H 438.19 -3.78827 -3.38308 0
M  V30 4700 H 438.12 -2.51466 -4.6268 0
M  V30 4701 H 440.611 -2.14885 -3.10858 0
M  V30 4702 H 440.924 -4.89432 -5.98061 0
M  V30 4703 H 439.269 -4.39621 -5.38292 0
M  V30 4704 H 442.46 -2.73063 -3.80203 0
M  V30 4705 H 442.633 -3.9824 -5.11184 0
M  V30 4706 N 436.039 1.36541 -0.78704 0
M  V30 4707 C 437.288 1.98552 -0.35494 0
M  V30 4708 C 437.601 1.63171 1.07864 0
M  V30 4709 O 438.807 2.18399 1.61289 0
M  V30 4710 C 437.263 3.55136 -0.583671 0
M  V30 4711 C 436.871 3.99444 -2.02851 0
M  V30 4712 C 438.615 4.2395 -0.215957 0
M  V30 4713 C 436.522 5.48796 -2.20403 0
M  V30 4714 H 435.452 0.742888 -0.128972 0
M  V30 4715 H 438.103 1.5587 -0.968337 0
M  V30 4716 H 436.485 3.95875 0.0994046 0
M  V30 4717 H 437.659 3.6991 -2.74779 0
M  V30 4718 H 435.974 3.43459 -2.35425 0
M  V30 4719 H 438.571 5.33709 -0.325405 0
M  V30 4720 H 438.914 4.07827 0.835646 0
M  V30 4721 H 439.447 3.88565 -0.852175 0
M  V30 4722 H 436.186 5.69864 -3.23937 0
M  V30 4723 H 435.706 5.79964 -1.52977 0
M  V30 4724 H 437.385 6.14986 -2.01002 0
M  V30 4725 N 437.518 0.538854 1.48102 0
M  V30 4726 C 438.428 -0.222648 2.33541 0
M  V30 4727 C 439.444 -0.930225 1.47047 0
M  V30 4728 O 440.62 -0.903211 1.80011 0
M  V30 4729 C 437.685 -1.25064 3.23357 0
M  V30 4730 C 436.746 -0.552469 4.2573 0
M  V30 4731 C 435.979 -1.53149 5.11254 0
M  V30 4732 O 436.202 -2.76487 4.9891 0
M  V30 4733 O 435.136 -1.06602 5.92385 0
M  V30 4734 H 438.962 0.477707 2.99919 0
M  V30 4735 H 436.547 0.299669 1.46364 0
M  V30 4736 H 438.429 -1.8445 3.78888 0
M  V30 4737 H 437.104 -1.93325 2.59629 0
M  V30 4738 H 436.011 0.082114 3.7401 0
M  V30 4739 H 437.344 0.0883526 4.92121 0
M  V30 4740 N 438.996 -1.55193 0.274407 0
M  V30 4741 C 440.221 -2.04446 -0.348824 0
M  V30 4742 C 440.646 -1.15149 -1.48735 0
M  V30 4743 O 440.004 -0.149952 -1.80679 0
M  V30 4744 C 440.052 -3.51431 -0.808009 0
M  V30 4745 O 439.156 -3.65225 -1.91531 0
M  V30 4746 H 438.497 -0.66006 -0.0722276 0
M  V30 4747 H 441.027 -2.00481 0.408498 0
M  V30 4748 H 441.037 -3.92781 -1.10395 0
M  V30 4749 H 439.712 -4.15892 0.0249865 0
M  V30 4750 H 438.289 -3.35778 -1.62196 0
M  V30 4751 N 440.474 -0.00167713 -1.576 0
M  V30 4752 C 441.404 0.988091 -2.11563 0
M  V30 4753 C 442.385 1.35736 -1.02517 0
M  V30 4754 O 443.57 1.44082 -1.30208 0
M  V30 4755 C 440.7 2.27941 -2.62031 0
M  V30 4756 C 439.654 2.0517 -3.75619 0
M  V30 4757 C 438.98 3.4033 -4.12407 0
M  V30 4758 C 440.28 1.41294 -5.02825 0
M  V30 4759 H 441.974 0.538771 -2.94513 0
M  V30 4760 H 439.52 0.257712 -1.41675 0
M  V30 4761 H 441.473 2.97539 -2.9841 0
M  V30 4762 H 440.197 2.74989 -1.76205 0
M  V30 4763 H 438.856 1.37998 -3.39635 0
M  V30 4764 H 438.504 3.85085 -3.23603 0
M  V30 4765 H 438.204 3.25909 -4.88935 0
M  V30 4766 H 439.728 4.1124 -4.51347 0
M  V30 4767 H 441.142 2.00851 -5.36965 0
M  V30 4768 H 439.539 1.37356 -5.84169 0
M  V30 4769 H 440.609 0.382362 -4.8339 0
M  V30 4770 N 441.952 1.55251 0.271103 0
M  V30 4771 C 442.862 1.9136 1.35714 0
M  V30 4772 C 443.878 0.811075 1.5394 0
M  V30 4773 O 445.054 1.11031 1.6803 0
M  V30 4774 C 442.119 2.1798 2.69603 0
M  V30 4775 C 441.18 3.4153 2.60107 0
M  V30 4776 C 440.413 3.66871 3.8761 0
M  V30 4777 O 440.636 2.94689 4.8838 0
M  V30 4778 O 439.57 4.60405 3.87699 0
M  V30 4779 H 443.396 2.83815 1.08088 0
M  V30 4780 H 440.981 1.41821 0.469792 0
M  V30 4781 H 442.863 2.36518 3.48765 0
M  V30 4782 H 441.538 1.28708 2.97012 0
M  V30 4783 H 440.445 3.28325 1.79314 0
M  V30 4784 H 441.778 4.31027 2.37647 0
M  V30 4785 N 443.43 -0.535701 1.48216 0
M  V30 4786 C 444.677 -1.29183 1.55942 0
M  V30 4787 C 445.005 -1.93125 0.230857 0
M  V30 4788 O 444.26 -1.79556 -0.778331 0
M  V30 4789 C 444.559 -2.4068 2.64212 0
M  V30 4790 C 444.225 -1.94428 4.06827 0
M  V30 4791 C 442.887 -1.81532 4.45645 0
M  V30 4792 C 445.239 -1.59405 4.96225 0
M  V30 4793 C 442.567 -1.31939 5.71672 0
M  V30 4794 C 444.919 -1.11276 6.22736 0
M  V30 4795 C 443.583 -0.969924 6.60416 0
M  V30 4796 H 442.853 -0.472715 0.570632 0
M  V30 4797 H 445.5 -0.598437 1.81909 0
M  V30 4798 H 443.805 -3.15666 2.32083 0
M  V30 4799 H 445.502 -2.98822 2.67407 0
M  V30 4800 H 442.092 -2.05415 3.76168 0
M  V30 4801 H 446.276 -1.68231 4.66917 0
M  V30 4802 H 441.532 -1.19562 5.99596 0
M  V30 4803 H 445.706 -0.832453 6.91407 0
M  V30 4804 H 443.333 -0.583436 7.57958 0
M  V30 4805 N 444.908 -1.36708 -0.784132 0
M  V30 4806 C 445.838 -1.34153 -1.91116 0
M  V30 4807 C 446.819 -0.212121 -1.68772 0
M  V30 4808 O 448.004 -0.410581 -1.8981 0
M  V30 4809 C 445.134 -1.13535 -3.28218 0
M  V30 4810 C 444.088 -2.23356 -3.65097 0
M  V30 4811 C 443.414 -1.87875 -5.00607 0
M  V30 4812 C 444.714 -3.65473 -3.73131 0
M  V30 4813 H 446.408 -2.28459 -1.93512 0
M  V30 4814 H 443.954 -1.09973 -0.929618 0
M  V30 4815 H 445.907 -1.10381 -4.06687 0
M  V30 4816 H 444.631 -0.156804 -3.26223 0
M  V30 4817 H 443.29 -2.25645 -2.88929 0
M  V30 4818 H 442.938 -0.885814 -4.95139 0
M  V30 4819 H 442.638 -2.61406 -5.26252 0
M  V30 4820 H 444.162 -1.86286 -5.81489 0
M  V30 4821 H 445.576 -3.65382 -4.41779 0
M  V30 4822 H 443.973 -4.37953 -4.10265 0
M  V30 4823 H 445.043 -3.99995 -2.74102 0
M  V30 4824 N 446.386 1.0089 -1.21074 0
M  V30 4825 C 447.663 1.71834 -0.934469 0
M  V30 4826 C 448.043 2.0368 0.554753 0
M  V30 4827 O 447.391 1.70742 1.51854 0
M  V30 4828 C 447.601 2.98061 -1.8155 0
M  V30 4829 C 448.949 3.7117 -2.06199 0
M  V30 4830 O 449.973 3.08034 -1.78867 0
M  V30 4831 O 448.832 4.84721 -2.52404 0
M  V30 4832 H 445.926 0.749253 -0.35007 0
M  V30 4833 H 448.472 1.06668 -1.31985 0
M  V30 4834 H 447.244 2.70908 -2.82355 0
M  V30 4835 H 446.867 3.70968 -1.43068 0
M  V30 4836 N 447.864 1.01787 1.20321 0
M  V30 4837 C 448.774 0.598898 2.26827 0
M  V30 4838 C 449.79 -0.36418 1.70146 0
M  V30 4839 O 450.966 -0.224812 2.00141 0
M  V30 4840 C 448.031 -0.0549769 3.46656 0
M  V30 4841 C 447.092 0.954205 4.18561 0
M  V30 4842 C 446.325 0.331439 5.3267 0
M  V30 4843 O 446.548 -0.86851 5.63749 0
M  V30 4844 O 445.482 1.0488 5.92692 0
M  V30 4845 H 449.308 1.48562 2.64883 0
M  V30 4846 H 446.893 0.787434 1.26964 0
M  V30 4847 H 448.775 -0.420102 4.19301 0
M  V30 4848 H 447.45 -0.915876 3.10473 0
M  V30 4849 H 446.357 1.37072 3.48083 0
M  V30 4850 H 447.69 1.78511 4.58688 0
M  V30 4851 N 449.342 -1.36122 0.79427 0
M  V30 4852 C 450.275 -2.27759 0.141845 0
M  V30 4853 C 451.253 -1.47471 -0.684921 0
M  V30 4854 O 452.437 -1.76759 -0.654857 0
M  V30 4855 C 449.564 -3.29008 -0.804446 0
M  V30 4856 C 448.61 -4.26459 -0.0588617 0
M  V30 4857 S 449.443 -5.20253 1.26873 0
M  V30 4858 C 450.599 -6.25048 0.326562 0
M  V30 4859 H 450.832 -2.82746 0.918818 0
M  V30 4860 H 448.365 -1.42736 0.588722 0
M  V30 4861 H 450.323 -3.87842 -1.34495 0
M  V30 4862 H 448.984 -2.72924 -1.5547 0
M  V30 4863 H 448.177 -4.97973 -0.777087 0
M  V30 4864 H 447.779 -3.71731 0.411309 0
M  V30 4865 H 450.071 -6.75705 -0.492795 0
M  V30 4866 H 451.014 -7.00852 1.01053 0
M  V30 4867 H 451.422 -5.64454 -0.0722627 0
M  V30 4868 N 450.82 -0.546701 -1.47814 0
M  V30 4869 C 451.73 0.21026 -2.33656 0
M  V30 4870 C 452.746 0.922413 -1.47538 0
M  V30 4871 O 453.922 0.893652 -1.80488 0
M  V30 4872 C 450.987 1.23348 -3.24016 0
M  V30 4873 C 450.048 0.529883 -4.26017 0
M  V30 4874 C 449.281 1.50435 -5.12059 0
M  V30 4875 O 449.504 2.73837 -5.00369 0
M  V30 4876 O 448.438 1.03459 -5.92942 0
M  V30 4877 H 452.264 -0.493605 -2.99662 0
M  V30 4878 H 449.849 -0.307427 -1.46203 0
M  V30 4879 H 451.731 1.82438 -3.79861 0
M  V30 4880 H 450.406 1.91945 -2.60651 0
M  V30 4881 H 449.313 -0.101948 -3.73961 0
M  V30 4882 H 450.646 -0.11445 -4.92067 0
M  V30 4883 N 452.299 1.55045 -0.282633 0
M  V30 4884 C 453.229 2.2579 0.595066 0
M  V30 4885 C 454.21 1.25074 1.15284 0
M  V30 4886 O 455.395 1.5381 1.18559 0
M  V30 4887 C 452.525 2.98472 1.77572 0
M  V30 4888 C 451.479 4.0618 1.34914 0
M  V30 4889 C 450.805 4.66477 2.6135 0
M  V30 4890 C 452.105 5.1996 0.493821 0
M  V30 4891 H 453.799 2.994 0.00505653 0
M  V30 4892 H 451.345 1.44 0.000992001 0
M  V30 4893 H 453.298 3.46677 2.39568 0
M  V30 4894 H 452.022 2.2241 2.39168 0
M  V30 4895 H 450.681 3.58797 0.752338 0
M  V30 4896 H 450.329 3.87074 3.2122 0
M  V30 4897 H 450.029 5.39207 2.33516 0
M  V30 4898 H 451.553 5.17435 3.24181 0
M  V30 4899 H 452.967 5.64172 1.01898 0
M  V30 4900 H 451.364 5.99299 0.310047 0
M  V30 4901 H 452.434 4.82462 -0.485593 0
M  V30 4902 N 453.777 0.010035 1.57597 0
M  V30 4903 C 454.707 -0.976857 2.12084 0
M  V30 4904 C 455.688 -1.35191 1.03235 0
M  V30 4905 O 456.873 -1.43389 1.3097 0
M  V30 4906 C 454.003 -2.26548 2.63236 0
M  V30 4907 C 452.957 -2.03175 3.76701 0
M  V30 4908 C 452.283 -3.38138 4.14206 0
M  V30 4909 C 453.583 -1.38625 5.03568 0
M  V30 4910 H 455.277 -0.523145 2.94794 0
M  V30 4911 H 452.823 -0.250195 1.4181 0
M  V30 4912 H 454.776 -2.95952 2.99984 0
M  V30 4913 H 453.5 -2.74051 1.77661 0
M  V30 4914 H 452.159 -1.36195 3.40362 0
M  V30 4915 H 451.807 -3.83363 3.25641 0
M  V30 4916 H 451.507 -3.23312 4.90656 0
M  V30 4917 H 453.031 -4.08841 4.53521 0
M  V30 4918 H 454.445 -1.98 5.38023 0
M  V30 4919 H 452.842 -1.34256 5.84889 0
M  V30 4920 H 453.912 -0.356722 4.83586 0
M  V30 4921 N 455.255 -1.55392 -0.262866 0
M  V30 4922 C 456.165 -1.92077 -1.34698 0
M  V30 4923 C 457.181 -0.819227 -1.53508 0
M  V30 4924 O 458.357 -1.11921 -1.67439 0
M  V30 4925 C 455.422 -2.19407 -2.68443 0
M  V30 4926 C 454.483 -3.42905 -2.58292 0
M  V30 4927 C 453.716 -3.68921 -3.85659 0
M  V30 4928 O 453.939 -2.97275 -4.8681 0
M  V30 4929 O 452.873 -4.62455 -3.85252 0
M  V30 4930 H 456.699 -2.84384 -1.06581 0
M  V30 4931 H 454.284 -1.42069 -0.462264 0
M  V30 4932 H 456.166 -2.38365 -3.47506 0
M  V30 4933 H 454.841 -1.30282 -2.96325 0
M  V30 4934 H 453.748 -3.29272 -1.7757 0
M  V30 4935 H 455.081 -4.32282 -2.35358 0
M  V30 4936 N 456.733 0.527833 -1.48498 0
M  V30 4937 C 457.665 1.6482 -1.5927 0
M  V30 4938 C 458.678 1.55659 -0.476869 0
M  V30 4939 O 459.867 1.62081 -0.747806 0
M  V30 4940 C 456.967 3.0348 -1.50842 0
M  V30 4941 C 456.14 3.381 -2.77502 0
M  V30 4942 C 455.199 4.5605 -2.62497 0
M  V30 4943 O 454.225 4.59165 -3.36387 0
M  V30 4944 N 455.427 5.54353 -1.72257 0
M  V30 4945 H 458.192 1.56015 -2.55889 0
M  V30 4946 H 455.753 0.715152 -1.45249 0
M  V30 4947 H 457.745 3.80264 -1.38496 0
M  V30 4948 H 456.315 3.06352 -0.621887 0
M  V30 4949 H 455.535 2.50473 -3.04396 0
M  V30 4950 H 456.823 3.58017 -3.61527 0
M  V30 4951 H 456.221 5.54617 -1.11431 0
M  V30 4952 H 454.778 6.30347 -1.65849 0
M  V30 4953 N 458.211 1.37122 0.776871 0
M  V30 4954 C 459.141 1.35164 1.90402 0
M  V30 4955 C 460.122 0.221069 1.68657 0
M  V30 4956 O 461.307 0.420642 1.8959 0
M  V30 4957 C 458.437 1.15274 3.27611 0
M  V30 4958 C 457.391 2.25289 3.63908 0
M  V30 4959 C 456.717 1.90527 4.99603 0
M  V30 4960 C 458.017 3.67446 3.71188 0
M  V30 4961 H 459.711 2.29482 1.92297 0
M  V30 4962 H 457.257 1.10465 0.923773 0
M  V30 4963 H 459.21 1.12536 4.06096 0
M  V30 4964 H 457.934 0.174102 3.26136 0
M  V30 4965 H 456.593 2.27174 2.87728 0
M  V30 4966 H 456.241 0.91206 4.94662 0
M  V30 4967 H 455.941 2.64193 5.24858 0
M  V30 4968 H 457.465 1.89367 5.80493 0
M  V30 4969 H 458.879 3.67719 4.39836 0
M  V30 4970 H 457.276 4.40123 4.07936 0
M  V30 4971 H 458.346 4.01443 2.71977 0
M  V30 4972 N 459.689 -1.00246 1.21608 0
M  V30 4973 C 460.622 -2.08794 0.920892 0
M  V30 4974 C 461.6 -1.62059 -0.132552 0
M  V30 4975 O 462.784 -1.885 -0.0030366 0
M  V30 4976 C 459.911 -3.36525 0.383226 0
M  V30 4977 C 458.957 -4.02172 1.41987 0
M  V30 4978 S 459.79 -4.44256 2.98994 0
M  V30 4979 C 460.946 -5.7517 2.4684 0
M  V30 4980 H 461.179 -2.33511 1.8401 0
M  V30 4981 H 458.712 -1.13562 1.04609 0
M  V30 4982 H 460.67 -4.10423 0.0795871 0
M  V30 4983 H 459.331 -3.09854 -0.514711 0
M  V30 4984 H 458.524 -4.94114 0.993335 0
M  V30 4985 H 458.126 -3.34559 1.67171 0
M  V30 4986 H 460.418 -6.51042 1.87484 0
M  V30 4987 H 461.361 -6.22638 3.37235 0
M  V30 4988 H 461.769 -5.32112 1.88461 0
M  V30 4989 N 461.167 -1.02423 -1.1978 0
M  V30 4990 C 462.583 -0.740459 -1.41384 0
M  V30 4991 C 462.783 0.676827 -1.89793 0
M  V30 4992 O 461.839 1.4435 -2.0717 0
M  V30 4993 C 463.152 -1.77264 -2.42895 0
M  V30 4994 C 464.7 -1.79165 -2.56649 0
M  V30 4995 C 465.175 -2.8133 -3.6141 0
M  V30 4996 N 466.666 -2.80118 -3.68901 0
M  V30 4997 C 467.401 -3.55824 -4.49641 0
M  V30 4998 N 466.897 -4.41231 -5.34123 0
M  V30 4999 N 468.69 -3.44387 -4.44246 0
M  V30 5000 H 460.841 -1.9391 -0.866764 0
M  V30 5001 H 463.104 -0.838074 -0.443098 0
M  V30 5002 H 462.81 -2.7884 -2.14339 0
M  V30 5003 H 462.684 -1.59108 -3.42001 0
M  V30 5004 H 465.071 -0.782702 -2.84531 0
M  V30 5005 H 465.152 -2.01396 -1.57713 0
M  V30 5006 H 464.796 -3.82394 -3.34271 0
M  V30 5007 H 464.726 -2.56359 -4.59986 0
M  V30 5008 H 467.217 -2.1817 -3.08562 0
M  V30 5009 H 467.53 -4.95747 -5.92836 0
M  V30 5010 H 465.875 -4.45306 -5.33599 0
M  V30 5011 H 469.066 -2.7708 -3.77285 0
M  V30 5012 H 469.239 -4.0364 -5.06931 0
M  V30 5013 N 462.645 1.35699 -0.801477 0
M  V30 5014 C 463.595 2.2728 -0.181073 0
M  V30 5015 C 464.579 1.47533 0.642098 0
M  V30 5016 O 465.771 1.69785 0.500193 0
M  V30 5017 C 462.9 3.36626 0.673612 0
M  V30 5018 C 461.986 4.23802 -0.159008 0
M  V30 5019 N 462.377 4.90879 -1.2195 0
M  V30 5020 C 460.675 4.45959 0.0602005 0
M  V30 5021 C 461.376 5.5546 -1.72738 0
M  V30 5022 N 460.352 5.33663 -1.03465 0
M  V30 5023 H 464.154 2.76632 -0.992582 0
M  V30 5024 H 461.668 1.49166 -0.642127 0
M  V30 5025 H 463.665 4.01179 1.13408 0
M  V30 5026 H 462.325 2.88828 1.48353 0
M  V30 5027 H 463.336 4.92497 -1.60209 0
M  V30 5028 H 460.013 4.08969 0.839664 0
M  V30 5029 H 461.403 6.18991 -2.61342 0
M  V30 5030 N 464.123 0.554532 1.47522 0
M  V30 5031 C 465.353 0.0342074 2.06572 0
M  V30 5032 C 465.761 -1.26375 1.40805 0
M  V30 5033 O 465.104 -1.7683 0.49769 0
M  V30 5034 C 465.166 -0.235096 3.5873 0
M  V30 5035 C 464.83 0.973024 4.46521 0
M  V30 5036 C 465.827 1.8779 4.848 0
M  V30 5037 C 463.512 1.18694 4.88075 0
M  V30 5038 C 465.506 2.98039 5.63428 0
M  V30 5039 C 463.193 2.29254 5.66468 0
M  V30 5040 C 464.191 3.18757 6.04055 0
M  V30 5041 O 463.879 4.27401 6.8087 0
M  V30 5042 H 463.611 0.041587 0.67472 0
M  V30 5043 H 466.165 0.766748 1.90552 0
M  V30 5044 H 464.395 -1.02191 3.72953 0
M  V30 5045 H 466.084 -0.700477 3.9981 0
M  V30 5046 H 466.85 1.72467 4.53299 0
M  V30 5047 H 462.729 0.49947 4.58286 0
M  V30 5048 H 466.273 3.67926 5.92685 0
M  V30 5049 H 462.17 2.4455 5.97382 0
M  V30 5050 H 462.938 4.25415 6.9926 0
M  V30 5051 N 465.601 -1.54893 0.290851 0
M  V30 5052 C 466.841 -2.01842 -0.322388 0
M  V30 5053 C 467.205 -1.17477 -1.51865 0
M  V30 5054 O 468.406 -1.54077 -2.20258 0
M  V30 5055 C 466.677 -3.50874 -0.679844 0
M  V30 5056 S 468.236 -4.19796 -1.27739 0
M  V30 5057 H 465.054 -0.704005 -0.0994866 0
M  V30 5058 H 467.656 -1.91015 0.416358 0
M  V30 5059 H 466.36 -4.09915 0.199435 0
M  V30 5060 H 465.891 -3.65717 -1.44964 0
M  V30 5061 H 467.906 -4.24729 -2.56554 0
M  V30 5062 N 467.08 -0.0183926 -1.57589 0
M  V30 5063 C 468.01 0.965596 -2.12599 0
M  V30 5064 C 468.991 1.34641 -1.0395 0
M  V30 5065 O 470.176 1.42693 -1.31729 0
M  V30 5066 C 467.306 2.25149 -2.64434 0
M  V30 5067 C 466.26 2.01175 -3.77773 0
M  V30 5068 C 465.586 3.35937 -4.15994 0
M  V30 5069 C 466.886 1.35953 -5.04296 0
M  V30 5070 H 468.58 0.507504 -2.95067 0
M  V30 5071 H 466.126 0.242671 -1.41941 0
M  V30 5072 H 468.079 2.94357 -3.01549 0
M  V30 5073 H 466.803 2.73105 -1.79112 0
M  V30 5074 H 465.462 1.34388 -3.4108 0
M  V30 5075 H 465.11 3.81631 -3.27669 0
M  V30 5076 H 464.81 3.20705 -4.92364 0
M  V30 5077 H 466.334 4.0643 -4.55683 0
M  V30 5078 H 467.748 1.95144 -5.39065 0
M  V30 5079 H 466.145 1.31152 -5.85593 0
M  V30 5080 H 467.215 0.331071 -4.83768 0
M  V30 5081 N 468.558 1.5553 0.254621 0
M  V30 5082 C 469.798 1.7876 0.991179 0
M  V30 5083 C 470.162 0.586669 1.82817 0
M  V30 5084 O 471.363 0.697585 2.5959 0
M  V30 5085 C 469.634 3.06679 1.83529 0
M  V30 5086 S 471.193 3.511 2.632 0
M  V30 5087 H 468.011 0.627916 0.333531 0
M  V30 5088 H 470.613 1.93766 0.259778 0
M  V30 5089 H 469.317 3.92158 1.20996 0
M  V30 5090 H 468.848 2.94388 2.60958 0
M  V30 5091 H 470.863 3.11823 3.8598 0
M  V30 5092 N 470.036 -0.519951 1.48776 0
M  V30 5093 C 471.282 -1.27456 1.58514 0
M  V30 5094 C 471.637 -1.90634 0.260057 0
M  V30 5095 O 470.93 -1.76815 -0.738036 0
M  V30 5096 C 471.124 -2.37864 2.6675 0
M  V30 5097 C 470.953 -1.85509 4.09654 0
M  V30 5098 C 469.723 -1.67661 4.76674 0
M  V30 5099 C 471.921 -1.37783 4.955 0
M  V30 5100 N 469.903 -1.10037 6.03958 0
M  V30 5101 C 471.274 -0.921714 6.1311 0
M  V30 5102 C 473.329 -1.26179 4.81646 0
M  V30 5103 C 472.032 -0.361057 7.18393 0
M  V30 5104 C 474.058 -0.715121 5.8706 0
M  V30 5105 C 473.42 -0.269132 7.03886 0
M  V30 5106 H 469.519 -0.457049 0.634531 0
M  V30 5107 H 472.103 -0.585073 1.85701 0
M  V30 5108 H 470.274 -3.04296 2.41367 0
M  V30 5109 H 472.006 -3.04901 2.66116 0
M  V30 5110 H 468.761 -1.91478 4.33166 0
M  V30 5111 H 469.185 -0.832067 6.71867 0
M  V30 5112 H 473.827 -1.59263 3.91657 0
M  V30 5113 H 471.545 -0.0179127 8.08098 0
M  V30 5114 H 475.131 -0.628376 5.78397 0
M  V30 5115 H 474.011 0.14729 7.84062 0
M  V30 5116 N 471.514 -1.37532 -0.769588 0
M  V30 5117 C 472.477 -1.33292 -1.86456 0
M  V30 5118 C 473.477 -0.236537 -1.59051 0
M  V30 5119 O 474.667 -0.492511 -1.67093 0
M  V30 5120 C 471.799 -1.07118 -3.23633 0
M  V30 5121 H 472.992 -2.30692 -1.91628 0
M  V30 5122 H 470.545 -1.22593 -0.969572 0
M  V30 5123 H 471.28 -0.102578 -3.24138 0
M  V30 5124 H 471.065 -1.86479 -3.44917 0
M  V30 5125 H 472.555 -1.06806 -4.03711 0
M  V30 5126 N 472.992 0.995999 -1.22138 0
M  V30 5127 C 474.22 1.77066 -1.07029 0
M  V30 5128 C 474.635 1.8495 0.379357 0
M  V30 5129 O 473.992 1.3174 1.26297 0
M  V30 5130 C 474.043 3.20533 -1.67155 0
M  V30 5131 O 473.764 3.13082 -3.06449 0
M  V30 5132 C 475.265 4.14461 -1.5728 0
M  V30 5133 H 472.485 0.556179 -0.375374 0
M  V30 5134 H 475.029 1.25238 -1.61666 0
M  V30 5135 H 473.184 3.6944 -1.16589 0
M  V30 5136 H 473.598 4.03283 -3.35355 0
M  V30 5137 H 475.072 5.1289 -2.04078 0
M  V30 5138 H 475.549 4.36005 -0.528795 0
M  V30 5139 H 476.155 3.71449 -2.07136 0
M  V30 5140 N 474.47 1.03057 1.19235 0
M  V30 5141 C 475.417 0.612832 2.22515 0
M  V30 5142 C 476.387 -0.374224 1.61829 0
M  V30 5143 O 477.572 -0.270501 1.88873 0
M  V30 5144 C 474.712 -0.028475 3.45088 0
M  V30 5145 C 473.825 1.00483 4.20151 0
M  V30 5146 C 472.96 0.333102 5.30155 0
M  V30 5147 C 471.999 1.3522 5.96977 0
M  V30 5148 N 471.136 0.70616 6.9854 0
M  V30 5149 H 475.976 1.49812 2.57605 0
M  V30 5150 H 473.513 0.749658 1.26564 0
M  V30 5151 H 475.471 -0.417548 4.15105 0
M  V30 5152 H 474.101 -0.877334 3.10649 0
M  V30 5153 H 473.153 1.51194 3.49062 0
M  V30 5154 H 474.465 1.77929 4.65986 0
M  V30 5155 H 473.619 -0.110725 6.06599 0
M  V30 5156 H 472.358 -0.473547 4.85396 0
M  V30 5157 H 471.363 1.80627 5.19282 0
M  V30 5158 H 472.588 2.16037 6.4382 0
M  V30 5159 H 470.534 -0.0803667 6.55951 0
M  V30 5160 H 470.451 1.41848 7.42573 0
M  V30 5161 H 471.719 0.286391 7.78974 0
M  V30 5162 N 475.948 -1.35272 0.808662 0
M  V30 5163 C 477.196 -1.98316 0.389233 0
M  V30 5164 C 477.517 -1.64465 -1.04767 0
M  V30 5165 O 476.787 -0.928175 -1.72516 0
M  V30 5166 H 475.367 -0.733585 0.140935 0
M  V30 5167 H 478.029 -1.6515 1.03496 0
M  V30 5168 H 477.125 -3.08123 0.496631 0
M  V30 5169 N 477.426 -0.562348 -1.47226 0
M  V30 5170 C 478.674 -0.0401371 -2.0206 0
M  V30 5171 C 478.995 1.3165 -1.43852 0
M  V30 5172 O 478.265 1.85976 -0.615599 0
M  V30 5173 H 476.845 -0.0118479 -0.746906 0
M  V30 5174 H 479.507 -0.73352 -1.8057 0
M  V30 5175 H 478.603 0.0441254 -3.12069 0
M  V30 5176 N 478.904 1.54736 -0.299062 0
M  V30 5177 C 479.852 2.24897 0.593658 0
M  V30 5178 C 480.846 1.25429 1.13859 0
M  V30 5179 O 482.052 1.43286 1.08945 0
M  V30 5180 H 478.427 0.72207 0.210046 0
M  V30 5181 H 480.398 2.98393 -0.0206421 0
M  V30 5182 C 479.147 3.00159 1.75499 0
M  V30 5183 H 478.47 3.76501 1.34489 0
M  V30 5184 H 479.91 3.52535 2.35574 0
M  V30 5185 C 478.369 2.07015 2.65794 0
M  V30 5186 O 478.899 1.63692 3.66835 0
M  V30 5187 N 477.105 1.73012 2.33485 0
M  V30 5188 H 476.652 2.08439 1.51364 0
M  V30 5189 H 476.61 1.10965 2.94167 0
M  V30 5190 N 480.382 0.0267497 1.57577 0
M  V30 5191 C 481.292 -0.971633 2.13533 0
M  V30 5192 C 482.308 -1.35868 1.08701 0
M  V30 5193 O 483.484 -1.44058 1.40746 0
M  V30 5194 C 480.549 -2.23622 2.64941 0
M  V30 5195 C 479.61 -1.90982 3.8448 0
M  V30 5196 C 478.843 -3.11411 4.33427 0
M  V30 5197 O 479.066 -4.23992 3.81558 0
M  V30 5198 O 478 -2.93848 5.25297 0
M  V30 5199 H 481.826 -0.525853 2.99113 0
M  V30 5200 H 479.411 -0.193712 1.48139 0
M  V30 5201 H 481.293 -2.97864 2.98086 0
M  V30 5202 H 479.968 -2.67386 1.82446 0
M  V30 5203 H 478.875 -1.14132 3.56265 0
M  V30 5204 H 480.208 -1.52036 4.6813 0
M  V30 5205 N 481.861 -1.55662 -0.24637 0
M  V30 5206 C 482.791 -1.93377 -1.30873 0
M  V30 5207 C 483.772 -0.798773 -1.50179 0
M  V30 5208 O 484.957 -1.0591 -1.62778 0
M  V30 5209 C 482.087 -2.22893 -2.66338 0
M  V30 5210 C 481.041 -3.38649 -2.61727 0
M  V30 5211 C 480.367 -3.53708 -4.00992 0
M  V30 5212 C 481.667 -4.74323 -2.18666 0
M  V30 5213 H 483.361 -2.82363 -0.995552 0
M  V30 5214 H 480.907 -1.35854 -0.477464 0
M  V30 5215 H 482.86 -2.47866 -3.40794 0
M  V30 5216 H 481.584 -1.30733 -2.99293 0
M  V30 5217 H 480.243 -3.13685 -1.89729 0
M  V30 5218 H 479.891 -2.58967 -4.31214 0
M  V30 5219 H 479.591 -4.31551 -3.98795 0
M  V30 5220 H 481.115 -3.81003 -4.77147 0
M  V30 5221 H 482.529 -4.98665 -2.82854 0
M  V30 5222 H 480.926 -5.55273 -2.27579 0
M  V30 5223 H 481.996 -4.71349 -1.13834 0
M  V30 5224 N 483.339 0.512053 -1.4905 0
M  V30 5225 C 484.587 1.26436 -1.57665 0
M  V30 5226 C 484.908 1.93255 -0.260293 0
M  V30 5227 O 484.178 1.82206 0.719564 0
M  V30 5228 H 482.758 0.469658 -0.580888 0
M  V30 5229 H 485.42 0.594398 -1.85615 0
M  V30 5230 H 484.516 2.03417 -2.36702 0
M  V30 5231 N 484.817 1.37938 0.762283 0
M  V30 5232 C 485.747 1.37176 1.88958 0
M  V30 5233 C 486.728 0.238945 1.68413 0
M  V30 5234 O 487.913 0.440726 1.89133 0
M  V30 5235 C 485.043 1.18742 3.2637 0
M  V30 5236 C 483.997 2.29136 3.61498 0
M  V30 5237 C 483.323 1.95816 4.97554 0
M  V30 5238 C 484.623 3.71363 3.6727 0
M  V30 5239 H 486.317 2.31509 1.89853 0
M  V30 5240 H 483.863 1.11438 0.912005 0
M  V30 5241 H 485.816 1.16837 4.04879 0
M  V30 5242 H 484.54 0.208683 3.25933 0
M  V30 5243 H 483.199 2.30213 2.85303 0
M  V30 5244 H 482.847 0.964475 4.93667 0
M  V30 5245 H 482.547 2.69745 5.22026 0
M  V30 5246 H 484.071 1.95513 5.78452 0
M  V30 5247 H 485.485 3.72364 4.35911 0
M  V30 5248 H 483.882 4.44425 4.03245 0
M  V30 5249 H 484.952 4.04305 2.67704 0
M  V30 5250 N 486.295 -0.989507 1.22664 0
M  V30 5251 C 487.242 -2.08024 0.999733 0
M  V30 5252 C 488.212 -1.65909 -0.0797047 0
M  V30 5253 O 489.397 -1.90669 0.0705715 0
M  V30 5254 C 486.537 -3.40067 0.587234 0
M  V30 5255 C 485.65 -3.95505 1.73781 0
M  V30 5256 C 484.785 -5.15722 1.27297 0
M  V30 5257 C 483.824 -5.63305 2.39488 0
M  V30 5258 N 482.961 -6.74758 1.94026 0
M  V30 5259 H 487.801 -2.26768 1.9334 0
M  V30 5260 H 485.338 -1.11171 0.963297 0
M  V30 5261 H 487.296 -4.15899 0.329227 0
M  V30 5262 H 485.926 -3.21314 -0.309426 0
M  V30 5263 H 484.978 -3.16513 2.11006 0
M  V30 5264 H 486.29 -4.26797 2.58158 0
M  V30 5265 H 485.444 -5.98854 0.972546 0
M  V30 5266 H 484.183 -4.86061 0.399445 0
M  V30 5267 H 483.188 -4.78759 2.70315 0
M  V30 5268 H 484.413 -5.94988 3.27362 0
M  V30 5269 H 482.359 -6.46874 1.09041 0
M  V30 5270 H 482.276 -7.05386 2.71968 0
M  V30 5271 H 483.544 -7.61387 1.67062 0
M  V30 5272 N 487.773 -1.03688 -1.18687 0
M  V30 5273 C 488.683 -0.634908 -2.25845 0
M  V30 5274 C 489.699 0.337065 -1.70704 0
M  V30 5275 O 490.875 0.192943 -2.00474 0
M  V30 5276 C 487.94 -0.000180054 -3.467 0
M  V30 5277 C 487.001 -1.02067 -4.1699 0
M  V30 5278 C 486.234 -0.41614 -5.32075 0
M  V30 5279 O 486.457 0.778712 -5.65059 0
M  V30 5280 O 485.391 -1.14296 -5.90948 0
M  V30 5281 H 489.217 -1.52757 -2.62486 0
M  V30 5282 H 486.802 -0.807533 -1.25695 0
M  V30 5283 H 488.684 0.353342 -4.19916 0
M  V30 5284 H 487.359 0.866367 -3.11891 0
M  V30 5285 H 486.266 -1.42592 -3.45859 0
M  V30 5286 H 487.599 -1.85786 -4.5579 0
M  V30 5287 N 489.251 1.34841 -0.815825 0
M  V30 5288 C 490.5 1.97755 -0.396976 0
M  V30 5289 C 490.813 1.65422 1.04379 0
M  V30 5290 O 492.019 2.21771 1.5662 0
M  V30 5291 C 490.475 3.53818 -0.658869 0
M  V30 5292 C 490.083 3.95051 -2.11278 0
M  V30 5293 C 491.827 4.23397 -0.305834 0
M  V30 5294 C 489.734 5.43997 -2.31994 0
M  V30 5295 H 488.664 0.739985 -0.1447 0
M  V30 5296 H 491.315 1.53781 -1.00118 0
M  V30 5297 H 489.697 3.95997 0.0154112 0
M  V30 5298 H 490.871 3.63998 -2.82564 0
M  V30 5299 H 489.186 3.38388 -2.42657 0
M  V30 5300 H 491.783 5.32899 -0.43854 0
M  V30 5301 H 492.126 4.09508 0.748952 0
M  V30 5302 H 492.659 3.8667 -0.934403 0
M  V30 5303 H 489.398 5.62865 -3.35952 0
M  V30 5304 H 488.918 5.76589 -1.65244 0
M  V30 5305 H 490.597 6.10584 -2.14001 0
M  V30 5306 N 490.729 0.570148 1.46925 0
M  V30 5307 C 491.957 0.0561966 2.06824 0
M  V30 5308 C 492.372 -1.24326 1.42086 0
M  V30 5309 O 491.729 -1.74882 0.521794 0
M  V30 5310 C 491.78 -0.129517 3.61268 0
M  V30 5311 O 491.501 1.1185 4.23581 0
M  V30 5312 C 493.002 -0.679266 4.38065 0
M  V30 5313 H 490.222 0.0517261 0.669003 0
M  V30 5314 H 492.766 0.787243 1.8874 0
M  V30 5315 H 490.921 -0.810739 3.78822 0
M  V30 5316 H 491.335 0.924375 5.1629 0
M  V30 5317 H 492.809 -0.758445 5.46765 0
M  V30 5318 H 493.286 -1.69346 4.05239 0
M  V30 5319 H 493.892 -0.0333237 4.25287 0
M  V30 5320 N 492.207 -1.54576 0.307264 0
M  V30 5321 C 493.437 -2.04378 -0.302158 0
M  V30 5322 C 493.845 -1.18381 -1.47589 0
M  V30 5323 O 493.188 -0.20352 -1.82569 0
M  V30 5324 C 493.25 -3.50133 -0.815305 0
M  V30 5325 C 492.914 -4.56401 0.233977 0
M  V30 5326 C 493.911 -5.08884 1.06456 0
M  V30 5327 C 491.596 -5.0088 0.377478 0
M  V30 5328 C 493.59 -6.04394 2.02452 0
M  V30 5329 C 491.277 -5.96208 1.34088 0
M  V30 5330 C 492.275 -6.47849 2.16288 0
M  V30 5331 O 491.963 -7.41308 3.10994 0
M  V30 5332 H 491.695 -0.672502 -0.0686839 0
M  V30 5333 H 494.249 -2.00484 0.446682 0
M  V30 5334 H 492.479 -3.51371 -1.61478 0
M  V30 5335 H 494.168 -3.83098 -1.34129 0
M  V30 5336 H 494.934 -4.75311 0.964596 0
M  V30 5337 H 490.813 -4.60309 -0.252405 0
M  V30 5338 H 494.357 -6.44626 2.66652 0
M  V30 5339 H 490.254 -6.29198 1.44154 0
M  V30 5340 H 491.022 -7.5913 3.06045 0
M  V30 5341 O 493.724 -0.174109 -1.60559 0
M  V30 5342 H 494.415 0.415114 -1.892 0
M  V30 END ATOM
M  V30 BEGIN BOND
M  V30 END BOND
M  V30 END CTAB
M  END
$$$$
