drugbank_target|Q9UI09 NADH dehydrogenase [ubiquinone] 1 alpha subcomplex subunit 12 (DB00157)
 OpenBabel12092119393D

  0  0  0     0  0            999 V3000
M  V30 BEGIN CTAB
M  V30 COUNTS 2393 2434 0 0 0
M  V30 BEGIN ATOM
M  V30 1 H -0.908 1.98254 -0.117106 0
M  V30 2 N 0 1.576 0 0
M  V30 3 C 0.933 2.03868 1.02534 0
M  V30 4 C 1.911 0.928543 1.3348 0
M  V30 5 O 3.095 1.19667 1.45644 0
M  V30 6 C 0.222 2.43627 2.35294 0
M  V30 7 C -0.732 3.65373 2.2001 0
M  V30 8 S 0.101 5.13292 1.52614 0
M  V30 9 C 1.257 5.56322 2.86805 0
M  V30 10 H 1.49 2.90518 0.631377 0
M  V30 11 H -0.977 1.52953 0.210867 0
M  V30 12 H 0.981 2.67203 3.11629 0
M  V30 13 H -0.358 1.57376 2.7183 0
M  V30 14 H -1.165 3.90944 3.18086 0
M  V30 15 H -1.563 3.418 1.51819 0
M  V30 16 H 0.729 5.58782 3.83104 0
M  V30 17 H 1.672 6.56266 2.65933 0
M  V30 18 H 2.08 4.83886 2.90714 0
M  V30 19 N 1.4781 -0.272755 1.55222 0
M  V30 20 C 2.3881 -1.35918 1.91216 0
M  V30 21 C 3.4041 -1.54026 0.809436 0
M  V30 22 O 4.5801 -1.68148 1.10852 0
M  V30 23 C 1.6451 -2.69834 2.17693 0
M  V30 24 C 0.7061 -2.6047 3.41253 0
M  V30 25 C -0.0609 -3.88 3.66458 0
M  V30 26 O 0.1621 -4.88693 2.94169 0
M  V30 27 O -0.9039 -3.88189 4.59992 0
M  V30 28 H 2.9221 -1.0839 2.83699 0
M  V30 29 H 0.5071 -0.471301 1.41771 0
M  V30 30 H 2.3891 -3.49017 2.36147 0
M  V30 31 H 1.0641 -2.97148 1.28392 0
M  V30 32 H -0.0289 -1.79663 3.28134 0
M  V30 33 H 1.3041 -2.38106 4.30774 0
M  V30 34 N 2.9562 -1.48159 -0.537278 0
M  V30 35 C 3.8862 -1.65029 -1.6519 0
M  V30 36 C 4.8672 -0.499281 -1.62607 0
M  V30 37 O 6.0522 -0.730972 -1.79918 0
M  V30 38 C 3.1822 -1.68303 -3.03795 0
M  V30 39 C 2.1362 -2.8283 -3.21234 0
M  V30 40 C 1.4622 -2.71189 -4.60826 0
M  V30 41 C 2.7622 -4.24211 -3.04701 0
M  V30 42 H 4.4562 -2.58341 -1.51328 0
M  V30 43 H 2.0022 -1.24325 -0.726585 0
M  V30 44 H 3.9552 -1.78693 -3.81637 0
M  V30 45 H 2.6792 -0.715635 -3.18663 0
M  V30 46 H 1.3382 -2.71983 -2.45807 0
M  V30 47 H 0.9862 -1.72435 -4.7252 0
M  V30 48 H 0.6862 -3.48035 -4.7344 0
M  V30 49 H 2.2102 -2.83537 -5.40777 0
M  V30 50 H 3.6242 -4.3593 -3.72341 0
M  V30 51 H 2.0212 -5.01998 -3.28813 0
M  V30 52 H 3.0912 -4.41184 -2.01209 0
M  V30 53 N 4.4343 0.785586 -1.36625 0
M  V30 54 C 5.6803 1.54591 -1.31261 0
M  V30 55 C 6.0133 1.93906 0.106823 0
M  V30 56 O 5.2883 1.63007 1.06108 0
M  V30 57 C 5.5713 2.82038 -2.23889 0
M  V30 58 C 5.4243 2.49066 -3.74548 0
M  V30 59 C 6.7433 3.83887 -2.15217 0
M  V30 60 H 3.8623 0.560846 -0.478143 0
M  V30 61 H 6.5043 0.902278 -1.67209 0
M  V30 62 H 4.6543 3.36961 -1.93363 0
M  V30 63 H 6.3263 2.00164 -4.15611 0
M  V30 64 H 4.5693 1.81954 -3.93796 0
M  V30 65 H 5.2403 3.40109 -4.34776 0
M  V30 66 H 7.7163 3.38421 -2.42096 0
M  V30 67 H 6.5923 4.70806 -2.82193 0
M  V30 68 H 6.8533 4.27131 -1.14068 0
M  V30 69 N 5.9124 1.20967 1.01018 0
M  V30 70 C 6.8444 0.922059 2.09835 0
M  V30 71 C 7.8574 -0.0927106 1.62536 0
M  V30 72 O 9.0464 0.139127 1.77957 0
M  V30 73 C 6.1464 0.362004 3.36961 0
M  V30 74 C 5.3194 1.42986 4.13369 0
M  V30 75 C 4.3784 0.879976 5.1879 0
M  V30 76 O 3.4044 1.56219 5.47343 0
M  V30 77 N 4.6064 -0.307396 5.79686 0
M  V30 78 H 7.3714 1.8588 2.35093 0
M  V30 79 H 4.9324 1.11422 1.1746 0
M  V30 80 H 6.9244 -0.0201474 4.04695 0
M  V30 81 H 5.4944 -0.479437 3.08902 0
M  V30 82 H 4.7144 1.98608 3.40512 0
M  V30 83 H 6.0024 2.14885 4.61196 0
M  V30 84 H 5.4004 -0.878796 5.58832 0
M  V30 85 H 3.9574 -0.631115 6.48737 0
M  V30 86 N 7.3905 -1.2043 1.01659 0
M  V30 87 C 8.6365 -1.90079 0.706963 0
M  V30 88 C 8.9695 -1.78648 -0.761474 0
M  V30 89 O 8.2445 -1.17069 -1.55323 0
M  V30 90 C 8.5275 -3.41469 1.14327 0
M  V30 91 C 8.3805 -3.61833 2.67201 0
M  V30 92 C 9.6995 -4.34261 0.714529 0
M  V30 93 H 6.8185 -0.690254 0.2583 0
M  V30 94 H 9.4605 -1.41826 1.26433 0
M  V30 95 H 7.6105 -3.82696 0.669056 0
M  V30 96 H 9.2825 -3.2986 3.22475 0
M  V30 97 H 7.5255 -3.05304 3.08175 0
M  V30 98 H 8.1965 -4.67955 2.92783 0
M  V30 99 H 10.6725 -4.00682 1.12221 0
M  V30 100 H 9.5485 -5.38806 1.04784 0
M  V30 101 H 9.8095 -4.40431 -0.383799 0
M  V30 102 N 8.8686 -0.792821 -1.36206 0
M  V30 103 C 9.7986 -0.207853 -2.32573 0
M  V30 104 C 10.7796 0.659055 -1.56813 0
M  V30 105 O 11.9646 0.592176 -1.84951 0
M  V30 106 C 9.0946 0.655449 -3.41059 0
M  V30 107 C 8.0486 -0.111842 -4.27854 0
M  V30 108 C 7.3746 0.872274 -5.27537 0
M  V30 109 C 8.6746 -1.30299 -5.05786 0
M  V30 110 H 10.3686 -1.01294 -2.81744 0
M  V30 111 H 7.9146 -0.48854 -1.3546 0
M  V30 112 H 9.8676 1.07464 -4.07467 0
M  V30 113 H 8.5916 1.49328 -2.90463 0
M  V30 114 H 7.2506 -0.512053 -3.63006 0
M  V30 115 H 6.8986 1.70523 -4.73214 0
M  V30 116 H 6.5986 0.363291 -5.86476 0
M  V30 117 H 8.1226 1.28996 -5.96818 0
M  V30 118 H 9.5366 -0.959379 -5.65216 0
M  V30 119 H 7.9336 -1.7455 -5.74154 0
M  V30 120 H 9.0036 -2.09663 -4.37229 0
M  V30 121 N 10.3467 1.47872 -0.545128 0
M  V30 122 C 11.2937 2.29849 0.2093 0
M  V30 123 C 12.2637 1.38313 0.919707 0
M  V30 124 O 13.4487 1.67277 0.917772 0
M  V30 125 C 10.5887 3.22019 1.24088 0
M  V30 126 C 9.7017 4.2864 0.537778 0
M  V30 127 C 8.8367 5.07973 1.5536 0
M  V30 128 C 7.8757 6.06381 0.8348 0
M  V30 129 N 7.0127 6.78717 1.79688 0
M  V30 130 H 11.8527 2.93845 -0.49591 0
M  V30 131 H 9.3897 1.44848 -0.256389 0
M  V30 132 H 11.3477 3.73868 1.85144 0
M  V30 133 H 9.9777 2.59914 1.91428 0
M  V30 134 H 9.0297 3.7994 -0.187046 0
M  V30 135 H 10.3417 4.98793 -0.0258907 0
M  V30 136 H 9.4957 5.63912 2.23803 0
M  V30 137 H 8.2347 4.37693 2.15118 0
M  V30 138 H 7.2397 5.49631 0.136388 0
M  V30 139 H 8.4647 6.78665 0.24313 0
M  V30 140 H 6.4107 6.11177 2.38326 0
M  V30 141 H 6.3277 7.44998 1.28505 0
M  V30 142 H 7.5957 7.39237 2.47282 0
M  V30 143 N 11.8248 0.280983 1.55075 0
M  V30 144 C 13.2408 -0.0729964 1.59433 0
M  V30 145 C 13.4408 -1.5411 1.29817 0
M  V30 146 O 12.4968 -2.29086 1.06187 0
M  V30 147 C 13.8098 0.306921 2.9913 0
M  V30 148 C 15.3578 0.254023 3.11968 0
M  V30 149 C 15.8328 0.608467 4.5394 0
M  V30 150 N 17.3238 0.560241 4.59799 0
M  V30 151 C 18.0588 0.80722 5.6769 0
M  V30 152 N 17.5548 1.11912 6.83701 0
M  V30 153 N 19.3478 0.735623 5.57266 0
M  V30 154 H 11.4988 1.238 1.7259 0
M  V30 155 H 13.7618 0.500547 0.805082 0
M  V30 156 H 13.4678 1.32816 3.25657 0
M  V30 157 H 13.3418 -0.349363 3.75579 0
M  V30 158 H 15.7288 -0.75794 2.852 0
M  V30 159 H 15.8098 0.944649 2.37718 0
M  V30 160 H 15.4538 1.61814 4.81434 0
M  V30 161 H 15.3838 -0.104013 5.26497 0
M  V30 162 H 17.8748 0.329288 3.76463 0
M  V30 163 H 18.1878 1.29409 7.61888 0
M  V30 164 H 16.5328 1.15695 6.85303 0
M  V30 165 H 19.7238 0.491752 4.6551 0
M  V30 166 H 19.8968 0.931482 6.4127 0
M  V30 167 N 13.3029 -1.57598 0.00835791 0
M  V30 168 C 14.5509 -1.90551 -0.6734 0
M  V30 169 C 14.8719 -0.883301 -1.73847 0
M  V30 170 O 14.1419 0.0781442 -1.95744 0
M  V30 171 H 12.7219 -0.703312 -0.251717 0
M  V30 172 H 15.3839 -1.94833 0.0512592 0
M  V30 173 H 14.4799 -2.9056 -1.13935 0
M  V30 174 N 14.781 0.264519 -1.55364 0
M  V30 175 C 15.711 1.33121 -1.91836 0
M  V30 176 C 16.692 1.51101 -0.781192 0
M  V30 177 O 17.877 1.64003 -1.04003 0
M  V30 178 C 15.007 2.68921 -2.19769 0
M  V30 179 C 13.961 2.65661 -3.35571 0
M  V30 180 C 13.287 4.05093 -3.49004 0
M  V30 181 C 14.587 2.24187 -4.71739 0
M  V30 182 H 16.281 1.02844 -2.81182 0
M  V30 183 H 13.827 0.493286 -1.35287 0
M  V30 184 H 15.78 3.43663 -2.43872 0
M  V30 185 H 14.504 3.00799 -1.27231 0
M  V30 186 H 13.163 1.93377 -3.1145 0
M  V30 187 H 12.811 4.34206 -2.53917 0
M  V30 188 H 12.511 4.03804 -4.26868 0
M  V30 189 H 14.035 4.81561 -3.75408 0
M  V30 190 H 15.449 2.88654 -4.9533 0
M  V30 191 H 13.846 2.34044 -5.52579 0
M  V30 192 H 14.916 1.19327 -4.69988 0
M  V30 193 N 16.2591 1.48442 0.529413 0
M  V30 194 C 17.1911 1.59095 1.64989 0
M  V30 195 C 18.2041 0.475212 1.5571 0
M  V30 196 O 19.3931 0.746081 1.6216 0
M  V30 197 C 16.4931 1.50518 3.0364 0
M  V30 198 C 15.6661 2.77142 3.38395 0
M  V30 199 C 14.7251 2.62012 4.56329 0
M  V30 200 O 13.7511 3.35898 4.59522 0
M  V30 201 N 14.9531 1.71667 5.54536 0
M  V30 202 H 17.7181 2.55723 1.56287 0
M  V30 203 H 15.2791 1.45173 0.716697 0
M  V30 204 H 17.2711 1.38091 3.80412 0
M  V30 205 H 15.8411 0.618627 3.06418 0
M  V30 206 H 15.0611 3.0413 2.50796 0
M  V30 207 H 16.3491 3.61146 3.58401 0
M  V30 208 H 15.7471 1.10841 5.54735 0
M  V30 209 H 14.3041 1.65178 6.30523 0
M  V30 210 N 17.7372 -0.778329 1.37039 0
M  V30 211 C 18.6692 -1.90034 1.2814 0
M  V30 212 C 19.6822 -1.61585 0.198558 0
M  V30 213 O 20.8712 -1.72625 0.454175 0
M  V30 214 C 17.9712 -3.25108 0.956968 0
M  V30 215 C 17.1442 -3.81253 2.14394 0
M  V30 216 C 16.2032 -4.94789 1.79082 0
M  V30 217 O 15.2292 -5.10721 2.51301 0
M  V30 218 N 16.4312 -5.75878 0.731043 0
M  V30 219 H 19.1962 -1.98186 2.24816 0
M  V30 220 H 16.7572 -0.957129 1.30578 0
M  V30 221 H 18.7492 -3.9857 0.701701 0
M  V30 222 H 17.3192 -3.125 0.0789812 0
M  V30 223 H 16.5392 -2.99647 2.56135 0
M  V30 224 H 17.8272 -4.15495 2.93668 0
M  V30 225 H 17.2252 -5.65547 0.131618 0
M  V30 226 H 15.7822 -6.49596 0.535622 0
M  V30 227 N 19.2153 -1.21501 -1.00376 0
M  V30 228 C 20.4643 -1.02718 -1.73586 0
M  V30 229 C 20.7773 0.439589 -1.90596 0
M  V30 230 O 21.9833 0.746848 -2.61026 0
M  V30 231 C 20.4393 -1.78929 -3.1227 0
M  V30 232 C 20.0473 -3.29783 -3.03228 0
M  V30 233 C 21.7913 -1.68557 -3.89601 0
M  V30 234 C 19.6983 -3.98479 -4.36999 0
M  V30 235 H 18.6283 -0.380733 -0.650814 0
M  V30 236 H 21.2793 -1.45248 -1.1214 0
M  V30 237 H 19.6613 -1.29192 -3.74333 0
M  V30 238 H 20.8353 -3.86832 -2.50395 0
M  V30 239 H 19.1503 -3.40711 -2.39385 0
M  V30 240 H 21.7473 -2.17211 -4.88593 0
M  V30 241 H 22.0903 -0.644021 -4.11288 0
M  V30 242 H 22.6233 -2.15778 -3.34193 0
M  V30 243 H 19.3623 -5.02841 -4.20513 0
M  V30 244 H 18.8823 -3.46219 -4.89788 0
M  V30 245 H 20.5613 -4.03462 -5.05794 0
M  V30 246 N 20.6934 1.19889 -1.02296 0
M  V30 247 C 21.9214 1.9339 -0.735399 0
M  V30 248 C 22.3364 1.75148 0.704887 0
M  V30 249 O 21.6934 1.06954 1.47875 0
M  V30 250 C 21.7444 3.45313 -1.06962 0
M  V30 251 O 21.4654 3.62964 -2.45334 0
M  V30 252 C 22.9664 4.35948 -0.804021 0
M  V30 253 H 20.1864 0.61448 -0.269546 0
M  V30 254 H 22.7304 1.522 -1.36585 0
M  V30 255 H 20.8854 3.84359 -0.484455 0
M  V30 256 H 21.2994 4.56886 -2.57595 0
M  V30 257 H 22.7734 5.41174 -1.0879 0
M  V30 258 H 23.2504 4.3842 0.261691 0
M  V30 259 H 23.8564 4.02574 -1.37164 0
M  V30 260 N 22.1715 0.800033 1.35784 0
M  V30 261 C 23.4195 0.376597 1.9856 0
M  V30 262 C 23.7405 -1.05812 1.63795 0
M  V30 263 O 23.0105 -1.73103 0.917171 0
M  V30 264 H 21.5905 0.136261 0.734467 0
M  V30 265 H 24.2525 1.02442 1.65806 0
M  V30 266 H 23.3485 0.477002 3.08433 0
M  V30 267 N 23.6496 -1.47581 0.552962 0
M  V30 268 C 24.5996 -2.26961 -0.217423 0
M  V30 269 C 25.5836 -1.34099 -0.889168 0
M  V30 270 O 26.7756 -1.58483 -0.788176 0
M  V30 271 C 23.9046 -3.19756 -1.24944 0
M  V30 272 C 22.9906 -4.20097 -0.581327 0
M  V30 273 N 23.3816 -5.04614 0.346171 0
M  V30 274 C 21.6796 -4.38099 -0.835767 0
M  V30 275 C 22.3806 -5.77052 0.733854 0
M  V30 276 N 21.3566 -5.43526 0.0896567 0
M  V30 277 H 25.1586 -2.89688 0.495761 0
M  V30 278 H 22.6726 -1.58068 0.372597 0
M  V30 279 H 24.6696 -3.75305 -1.81527 0
M  V30 280 H 23.3296 -2.58585 -1.96376 0
M  V30 281 H 24.3406 -5.12869 0.720098 0
M  V30 282 H 21.0176 -3.88102 -1.53892 0
M  V30 283 H 22.4076 -6.5504 1.49574 0
M  V30 284 N 25.1277 -0.289203 -1.54924 0
M  V30 285 C 26.3757 0.322879 -1.99504 0
M  V30 286 C 26.6967 1.55313 -1.1791 0
M  V30 287 O 25.9667 1.94001 -0.272097 0
M  V30 288 H 24.5467 0.122291 -0.736922 0
M  V30 289 H 27.2087 -0.397802 -1.90797 0
M  V30 290 H 26.3047 0.603061 -3.06218 0
M  V30 291 N 26.6058 1.57591 -0.0167156 0
M  V30 292 C 27.8538 1.90906 0.663285 0
M  V30 293 C 28.1748 0.892509 1.73376 0
M  V30 294 O 27.4448 -0.0677623 1.95783 0
M  V30 295 H 26.0248 0.704637 0.247983 0
M  V30 296 H 28.6868 1.94803 -0.0615909 0
M  V30 297 H 27.7828 2.9116 1.12393 0
M  V30 298 N 28.0839 -0.256276 1.55502 0
M  V30 299 C 29.0139 -1.32102 1.92539 0
M  V30 300 C 29.9949 -1.50684 0.789194 0
M  V30 301 O 31.1799 -1.63449 1.04872 0
M  V30 302 C 28.3099 -2.67752 2.21192 0
M  V30 303 C 27.2639 -2.63878 3.36975 0
M  V30 304 C 26.5899 -4.03236 3.51147 0
M  V30 305 C 27.8899 -2.21682 4.72921 0
M  V30 306 H 29.5839 -1.01351 2.81724 0
M  V30 307 H 27.1299 -0.486105 1.35547 0
M  V30 308 H 29.0829 -3.42365 2.45691 0
M  V30 309 H 27.8069 -3.0012 1.28824 0
M  V30 310 H 26.4659 -1.91722 3.12471 0
M  V30 311 H 26.1139 -4.32854 2.56216 0
M  V30 312 H 25.8139 -4.01535 4.29003 0
M  V30 313 H 27.3379 -4.79563 3.77957 0
M  V30 314 H 28.7519 -2.86023 4.96854 0
M  V30 315 H 27.1489 -2.3111 5.53812 0
M  V30 316 H 28.2189 -1.16833 4.70615 0
M  V30 317 N 29.562 -1.4872 -0.521534 0
M  V30 318 C 30.978 -1.35028 -0.850855 0
M  V30 319 C 31.178 -0.367712 -1.98116 0
M  V30 320 O 30.234 0.208037 -2.51642 0
M  V30 321 C 31.547 -2.75263 -1.21041 0
M  V30 322 C 33.095 -2.83813 -1.31981 0
M  V30 323 C 33.57 -4.24769 -1.71276 0
M  V30 324 N 35.061 -4.27482 -1.78363 0
M  V30 325 C 35.796 -5.33494 -2.1017 0
M  V30 326 N 35.292 -6.49775 -2.40343 0
M  V30 327 N 37.085 -5.20894 -2.11248 0
M  V30 328 H 29.236 -2.11214 0.22413 0
M  V30 329 H 31.499 -0.947252 0.0376439 0
M  V30 330 H 31.205 -3.48765 -0.453415 0
M  V30 331 H 31.079 -3.09327 -2.15863 0
M  V30 332 H 33.466 -2.10561 -2.06756 0
M  V30 333 H 33.547 -2.53358 -0.352596 0
M  V30 334 H 33.191 -4.9854 -0.970588 0
M  V30 335 H 33.121 -4.52673 -2.69062 0
M  V30 336 H 35.612 -3.43611 -1.57288 0
M  V30 337 H 35.925 -7.26402 -2.63743 0
M  V30 338 H 34.27 -6.53035 -2.37844 0
M  V30 339 H 37.461 -4.29065 -1.87139 0
M  V30 340 H 37.634 -6.03612 -2.35704 0
M  V30 341 N 31.0401 0.771051 -1.3745 0
M  V30 342 C 32.2881 1.52661 -1.32435 0
M  V30 343 C 32.6091 1.9479 0.0905024 0
M  V30 344 O 31.8791 1.66348 1.03466 0
M  V30 345 H 30.4591 0.566218 -0.487244 0
M  V30 346 H 33.1211 0.917636 -1.71946 0
M  V30 347 H 32.2171 2.42568 -1.96385 0
M  V30 348 N 32.5182 1.22032 0.997298 0
M  V30 349 C 33.7482 1.06686 1.76923 0
M  V30 350 C 34.1562 -0.385838 1.85224 0
M  V30 351 O 33.4992 -1.27929 1.31833 0
M  V30 352 C 33.5612 1.59802 3.22031 0
M  V30 353 C 33.2252 3.08362 3.37286 0
M  V30 354 C 34.2222 4.05835 3.24952 0
M  V30 355 C 31.9072 3.47727 3.6248 0
M  V30 356 C 33.9012 5.4066 3.37588 0
M  V30 357 C 31.5882 4.82701 3.74757 0
M  V30 358 C 32.5862 5.78977 3.62319 0
M  V30 359 O 32.2742 7.11502 3.74193 0
M  V30 360 H 32.0062 0.374767 0.562606 0
M  V30 361 H 34.5602 1.61991 1.26286 0
M  V30 362 H 32.7902 0.989003 3.73839 0
M  V30 363 H 34.4792 1.40184 3.80924 0
M  V30 364 H 35.2452 3.76766 3.05405 0
M  V30 365 H 31.1242 2.73317 3.7124 0
M  V30 366 H 34.6682 6.15788 3.27796 0
M  V30 367 H 30.5652 5.11453 3.9381 0
M  V30 368 H 31.3332 7.19019 3.91093 0
M  V30 369 N 33.9963 -1.19345 1.0293 0
M  V30 370 C 34.9263 -2.2481 0.631105 0
M  V30 371 C 35.9073 -1.66245 -0.360104 0
M  V30 372 O 37.0923 -1.92677 -0.242726 0
M  V30 373 C 34.2223 -3.47295 -0.0184607 0
M  V30 374 C 33.1763 -4.18536 0.895073 0
M  V30 375 C 32.5023 -5.34586 0.110592 0
M  V30 376 C 33.8023 -4.73287 2.209 0
M  V30 377 H 35.4963 -2.58372 1.51275 0
M  V30 378 H 33.0423 -1.24194 0.728818 0
M  V30 379 H 34.9953 -4.20268 -0.308675 0
M  V30 380 H 33.7193 -3.12933 -0.934907 0
M  V30 381 H 32.3783 -3.47446 1.16949 0
M  V30 382 H 32.0263 -4.96469 -0.807902 0
M  V30 383 H 31.7263 -5.83183 0.719087 0
M  V30 384 H 33.2503 -6.10355 -0.172871 0
M  V30 385 H 34.6643 -5.38013 1.98028 0
M  V30 386 H 33.0613 -5.32373 2.76946 0
M  V30 387 H 34.1313 -3.91331 2.86336 0
M  V30 388 N 35.4744 -0.807222 -1.35358 0
M  V30 389 C 36.8904 -0.491038 -1.51858 0
M  V30 390 C 37.0904 0.987648 -1.75635 0
M  V30 391 O 36.1464 1.77265 -1.79815 0
M  V30 392 C 37.4594 -1.33695 -2.69344 0
M  V30 393 C 39.0074 -1.33246 -2.83222 0
M  V30 394 C 39.4824 -2.1625 -4.03733 0
M  V30 395 N 40.9734 -2.1379 -4.10911 0
M  V30 396 C 41.7084 -2.74772 -5.03277 0
M  V30 397 N 41.2044 -3.44684 -6.0097 0
M  V30 398 N 42.9974 -2.6441 -4.96028 0
M  V30 399 H 35.1484 -1.76485 -1.18181 0
M  V30 400 H 37.4114 -0.751199 -0.578276 0
M  V30 401 H 37.1174 -2.38634 -2.58354 0
M  V30 402 H 36.9914 -0.990618 -3.6396 0
M  V30 403 H 39.3784 -0.290911 -2.93663 0
M  V30 404 H 39.4594 -1.71866 -1.89461 0
M  V30 405 H 39.1034 -3.20445 -3.94052 0
M  V30 406 H 39.0334 -1.74989 -4.96675 0
M  V30 407 H 41.5244 -1.62923 -3.40976 0
M  V30 408 H 41.8374 -3.88501 -6.68047 0
M  V30 409 H 40.1824 -3.48788 -6.01142 0
M  V30 410 H 43.3734 -2.0938 -4.18662 0
M  V30 411 H 43.5464 -3.12225 -5.6782 0
M  V30 412 N 36.9525 1.47285 -0.560781 0
M  V30 413 C 38.1985 2.02764 -0.0381184 0
M  V30 414 C 38.5315 1.43384 1.30976 0
M  V30 415 O 37.8065 0.590733 1.85312 0
M  V30 416 C 38.0895 3.60064 0.0511427 0
M  V30 417 C 37.9425 4.2987 -1.32408 0
M  V30 418 C 39.2615 4.33439 0.762795 0
M  V30 419 H 36.3805 0.736841 -0.0153264 0
M  V30 420 H 39.0225 1.75675 -0.723759 0
M  V30 421 H 37.1725 3.83274 0.635065 0
M  V30 422 H 38.8445 4.17989 -1.95148 0
M  V30 423 H 37.0875 3.90085 -1.8978 0
M  V30 424 H 37.7585 5.38478 -1.21431 0
M  V30 425 H 40.2345 4.15243 0.266965 0
M  V30 426 H 39.1105 5.43124 0.794221 0
M  V30 427 H 39.3715 4.02915 1.81966 0
M  V30 428 N 38.4306 0.297415 1.54768 0
M  V30 429 C 39.6776 -0.312913 2.00068 0
M  V30 430 C 40.0056 -1.54171 1.18582 0
M  V30 431 O 39.2606 -1.94108 0.249133 0
M  V30 432 C 39.5596 -0.717561 3.50123 0
M  V30 433 C 39.2256 0.409095 4.4904 0
M  V30 434 C 37.8876 0.718399 4.75807 0
M  V30 435 C 40.2396 1.16717 5.07963 0
M  V30 436 C 37.5676 1.78896 5.5876 0
M  V30 437 C 39.9196 2.22762 5.92081 0
M  V30 438 C 38.5836 2.54303 6.1716 0
M  V30 439 H 37.8536 -0.114503 0.7321 0
M  V30 440 H 40.5006 0.415767 1.86932 0
M  V30 441 H 38.8056 -1.52627 3.60849 0
M  V30 442 H 40.5026 -1.20091 3.82595 0
M  V30 443 H 37.0926 0.157918 4.28309 0
M  V30 444 H 41.2766 0.941466 4.87289 0
M  V30 445 H 36.5326 2.0381 5.7643 0
M  V30 446 H 40.7066 2.81962 6.36765 0
M  V30 447 H 38.3336 3.3739 6.81229 0
M  V30 448 N 39.9087 -1.5758 0.0250728 0
M  V30 449 C 41.1557 -1.91633 -0.654444 0
M  V30 450 C 41.4837 -0.901103 -1.72367 0
M  V30 451 O 40.7387 0.0905647 -1.9549 0
M  V30 452 C 41.0377 -3.32421 -1.31268 0
M  V30 453 C 40.7037 -4.49344 -0.374223 0
M  V30 454 C 39.3657 -4.8106 -0.115911 0
M  V30 455 C 41.7177 -5.20498 0.270432 0
M  V30 456 C 39.0457 -5.8129 0.79493 0
M  V30 457 C 41.3977 -6.21699 1.1693 0
M  V30 458 C 40.0617 -6.51859 1.43655 0
M  V30 459 H 39.3317 -0.701236 -0.239478 0
M  V30 460 H 41.9787 -1.91307 0.0859734 0
M  V30 461 H 40.2837 -3.28989 -2.12775 0
M  V30 462 H 41.9807 -3.56038 -1.84494 0
M  V30 463 H 38.5707 -4.24579 -0.58573 0
M  V30 464 H 42.7547 -4.96229 0.0839194 0
M  V30 465 H 38.0107 -6.03005 1.00973 0
M  V30 466 H 42.1847 -6.75955 1.67504 0
M  V30 467 H 39.8117 -7.2934 2.144 0
M  V30 468 N 41.3868 0.248026 -1.55636 0
M  V30 469 C 42.8028 0.596483 -1.48035 0
M  V30 470 C 43.0028 1.88386 -0.715039 0
M  V30 471 O 42.0588 2.51319 -0.243944 0
M  V30 472 C 43.3718 0.700258 -2.92433 0
M  V30 473 C 44.9198 0.792659 -3.02797 0
M  V30 474 C 45.3948 0.928005 -4.485 0
M  V30 475 N 46.8858 0.992903 -4.52433 0
M  V30 476 C 47.6208 1.11687 -5.62418 0
M  V30 477 N 47.1168 1.20645 -6.82214 0
M  V30 478 N 48.9098 1.14994 -5.50212 0
M  V30 479 H 41.0608 -0.597109 -2.03834 0
M  V30 480 H 43.3238 -0.205925 -0.925364 0
M  V30 481 H 43.0298 -0.175658 -3.51261 0
M  V30 482 H 42.9038 1.57255 -3.42857 0
M  V30 483 H 45.2908 1.65903 -2.4405 0
M  V30 484 H 45.3718 -0.104762 -2.55585 0
M  V30 485 H 45.0158 0.0661971 -5.07857 0
M  V30 486 H 44.9458 1.84045 -4.93391 0
M  V30 487 H 47.4368 0.935064 -3.66149 0
M  V30 488 H 47.7498 1.30008 -7.61786 0
M  V30 489 H 46.0948 1.17605 -6.84977 0
M  V30 490 H 49.2858 1.07643 -4.55555 0
M  V30 491 H 49.4588 1.24311 -6.35965 0
M  V30 492 N 42.8649 1.48995 0.513639 0
M  V30 493 C 44.0929 1.61531 1.29288 0
M  V30 494 C 44.5079 0.281801 1.86685 0
M  V30 495 O 43.8649 -0.731111 1.67215 0
M  V30 496 C 43.9159 2.67449 2.43215 0
M  V30 497 O 43.6369 3.95626 1.88179 0
M  V30 498 C 45.1379 2.90575 3.34785 0
M  V30 499 H 42.3579 0.544165 0.392588 0
M  V30 500 H 44.9019 1.9494 0.617956 0
M  V30 501 H 43.0569 2.36853 3.0656 0
M  V30 502 H 43.4709 4.53868 2.62876 0
M  V30 503 H 44.9449 3.68449 4.11035 0
M  V30 504 H 45.4219 2.00011 3.91015 0
M  V30 505 H 46.0279 3.22538 2.77218 0
M  V30 506 N 44.343 -0.763751 1.37857 0
M  V30 507 C 45.291 -1.89864 1.34367 0
M  V30 508 C 46.285 -1.67816 0.231143 0
M  V30 509 O 47.491 -1.75508 0.399617 0
M  V30 510 H 43.866 -0.624501 0.41893 0
M  V30 511 H 45.837 -1.89925 2.30155 0
M  V30 512 C 44.586 -3.27227 1.1755 0
M  V30 513 H 43.909 -3.44773 2.02414 0
M  V30 514 H 45.349 -4.06911 1.1916 0
M  V30 515 C 43.808 -3.36692 -0.118311 0
M  V30 516 O 44.338 -3.86374 -1.09902 0
M  V30 517 N 42.544 -2.90092 -0.171717 0
M  V30 518 H 42.091 -2.49853 0.627012 0
M  V30 519 H 42.049 -2.96806 -1.03699 0
M  V30 520 N 45.8211 -1.22559 -0.990812 0
M  V30 521 C 47.0981 -0.959875 -1.70428 0
M  V30 522 C 47.4781 0.524455 -2.04481 0
M  V30 523 O 46.8261 1.49302 -1.72977 0
M  V30 524 C 47.0361 -1.85955 -2.95333 0
M  V30 525 C 48.3841 -2.11687 -3.68068 0
M  V30 526 O 49.4081 -1.8342 -3.05345 0
M  V30 527 O 48.2671 -2.59572 -4.80921 0
M  V30 528 H 45.3611 -0.361154 -0.743974 0
M  V30 529 H 47.9071 -1.33554 -1.04697 0
M  V30 530 H 46.6791 -2.86346 -2.66687 0
M  V30 531 H 46.3021 -1.4856 -3.68803 0
M  V30 532 N 47.2992 1.18797 -1.03562 0
M  V30 533 C 48.2622 2.20464 -0.626769 0
M  V30 534 C 49.2622 1.57721 0.313173 0
M  V30 535 O 50.4522 1.73917 0.0992615 0
M  V30 536 C 47.5842 3.40802 0.0818498 0
M  V30 537 H 48.7772 2.58149 -1.5264 0
M  V30 538 H 46.3302 1.32593 -0.827578 0
M  V30 539 H 47.0652 3.08642 0.995518 0
M  V30 540 H 46.8502 3.8758 -0.593652 0
M  V30 541 H 48.3402 4.16092 0.354584 0
M  V30 542 N 48.7773 0.814389 1.34928 0
M  V30 543 C 49.7243 0.22822 2.29669 0
M  V30 544 C 50.6943 -0.642164 1.53184 0
M  V30 545 O 51.8793 -0.585605 1.81591 0
M  V30 546 C 49.0193 -0.61089 3.3965 0
M  V30 547 C 48.1323 0.280792 4.31086 0
M  V30 548 C 47.2673 -0.567067 5.28165 0
M  V30 549 C 46.3063 0.324531 6.11239 0
M  V30 550 N 45.4433 -0.483756 7.00431 0
M  V30 551 H 50.2833 1.04153 2.79206 0
M  V30 552 H 47.8203 0.525133 1.37407 0
M  V30 553 H 49.7783 -1.11263 4.0209 0
M  V30 554 H 48.4083 -1.38939 2.91369 0
M  V30 555 H 47.4603 0.900688 3.69583 0
M  V30 556 H 48.7723 0.966723 4.89342 0
M  V30 557 H 47.9263 -1.13363 5.96015 0
M  V30 558 H 46.6653 -1.28654 4.70425 0
M  V30 559 H 45.6703 0.903298 5.42329 0
M  V30 560 H 46.8953 1.04198 6.71059 0
M  V30 561 H 44.8413 -1.18706 6.45171 0
M  V30 562 H 44.7583 0.143965 7.55863 0
M  V30 563 H 46.0263 -1.03334 7.7262 0
M  V30 564 N 50.2554 -1.46986 0.568584 0
M  V30 565 C 51.5014 -2.02741 0.0488709 0
M  V30 566 C 51.8344 -1.44077 -1.30214 0
M  V30 567 O 51.1094 -0.600552 -1.84996 0
M  V30 568 C 51.3924 -3.60086 -0.032047 0
M  V30 569 C 51.2454 -4.29162 1.34686 0
M  V30 570 C 52.5644 -4.33838 -0.739798 0
M  V30 571 H 49.6834 -0.736749 0.0192338 0
M  V30 572 H 52.3254 -1.75289 0.733065 0
M  V30 573 H 50.4754 -3.83606 -0.61473 0
M  V30 574 H 52.1474 -4.16948 1.97362 0
M  V30 575 H 50.3904 -3.89073 1.91846 0
M  V30 576 H 51.0614 -5.37826 1.24285 0
M  V30 577 H 53.5374 -4.15378 -0.244939 0
M  V30 578 H 52.4134 -5.43537 -0.765406 0
M  V30 579 H 52.6744 -4.03875 -1.79827 0
M  V30 580 N 51.7335 -0.305618 -1.54608 0
M  V30 581 C 52.9815 0.301701 -1.99835 0
M  V30 582 C 53.3025 1.54054 -1.19551 0
M  V30 583 O 52.5725 1.93702 -0.292658 0
M  V30 584 H 51.1525 0.114468 -0.738178 0
M  V30 585 H 53.8145 -0.418016 -1.90364 0
M  V30 586 H 52.9105 0.570548 -3.06841 0
M  V30 587 N 53.2116 1.57565 -0.0334293 0
M  V30 588 C 54.4396 1.9628 0.654347 0
M  V30 589 C 54.8546 0.910138 1.65414 0
M  V30 590 O 54.2116 -0.107595 1.82183 0
M  V30 591 C 54.2626 3.35067 1.35693 0
M  V30 592 O 53.9836 4.36296 0.397191 0
M  V30 593 C 55.4846 3.88439 2.13613 0
M  V30 594 H 52.7046 0.646369 0.180132 0
M  V30 595 H 55.2486 2.04282 -0.0944721 0
M  V30 596 H 53.4036 3.2827 2.05712 0
M  V30 597 H 53.8176 5.1678 0.896597 0
M  V30 598 H 55.2916 4.8788 2.58219 0
M  V30 599 H 55.7686 3.22914 2.97696 0
M  V30 600 H 56.3746 3.98516 1.48543 0
M  V30 601 N 54.6897 -0.239769 1.55765 0
M  V30 602 C 55.6197 -1.30052 1.9393 0
M  V30 603 C 56.6007 -1.49839 0.805132 0
M  V30 604 O 57.7857 -1.62328 1.06599 0
M  V30 605 C 54.9157 -2.65391 2.2402 0
M  V30 606 C 53.8697 -2.60289 3.39755 0
M  V30 607 C 53.1957 -3.99489 3.55405 0
M  V30 608 C 54.4957 -2.16654 4.75246 0
M  V30 609 H 56.1897 -0.983573 2.82783 0
M  V30 610 H 53.7357 -0.471701 1.36055 0
M  V30 611 H 55.6887 -3.3974 2.49308 0
M  V30 612 H 54.4127 -2.98736 1.32 0
M  V30 613 H 53.0717 -1.88398 3.14487 0
M  V30 614 H 52.7197 -4.30112 2.60793 0
M  V30 615 H 52.4197 -3.96962 4.33238 0
M  V30 616 H 53.9437 -4.75528 3.83022 0
M  V30 617 H 55.3577 -2.80737 4.99859 0
M  V30 618 H 53.7547 -2.25223 5.56232 0
M  V30 619 H 54.8247 -1.11835 4.71827 0
M  V30 620 N 56.1678 -1.49265 -0.50573 0
M  V30 621 C 57.4138 -1.58748 -1.26202 0
M  V30 622 C 57.7468 -0.271227 -1.92297 0
M  V30 623 O 57.0218 0.724831 -1.80489 0
M  V30 624 C 57.3048 -2.74332 -2.33268 0
M  V30 625 C 57.1578 -4.15737 -1.71705 0
M  V30 626 C 58.4768 -2.85576 -3.34865 0
M  V30 627 H 55.5958 -0.577826 -0.457478 0
M  V30 628 H 58.2378 -1.81532 -0.560897 0
M  V30 629 H 56.3878 -2.55036 -2.93068 0
M  V30 630 H 58.0598 -4.46537 -1.15769 0
M  V30 631 H 56.3028 -4.21605 -1.02135 0
M  V30 632 H 56.9738 -4.92477 -2.49341 0
M  V30 633 H 59.4498 -3.03127 -2.8505 0
M  V30 634 H 58.3258 -3.68135 -4.07146 0
M  V30 635 H 58.5868 -1.94732 -3.96903 0
M  V30 636 N 57.6459 0.756429 -1.3826 0
M  V30 637 C 58.8939 1.51248 -1.34047 0
M  V30 638 C 59.2149 1.94875 0.0698372 0
M  V30 639 O 58.4849 1.67436 1.01696 0
M  V30 640 H 57.0649 0.561018 -0.493222 0
M  V30 641 H 59.7269 0.899347 -1.7291 0
M  V30 642 H 58.8229 2.40472 -1.98947 0
M  V30 643 N 59.124 1.23083 0.984299 0
M  V30 644 C 60.034 1.02515 2.11016 0
M  V30 645 C 61.05 -0.0291702 1.73976 0
M  V30 646 O 62.226 0.165434 2.00719 0
M  V30 647 C 59.291 0.614673 3.41208 0
M  V30 648 C 58.352 1.74359 3.92297 0
M  V30 649 C 57.585 1.35261 5.16275 0
M  V30 650 O 57.808 0.235136 5.69915 0
M  V30 651 O 56.742 2.17227 5.61334 0
M  V30 652 H 60.568 1.96862 2.31255 0
M  V30 653 H 58.153 1.01753 1.09392 0
M  V30 654 H 60.035 0.396518 4.1953 0
M  V30 655 H 58.71 -0.299851 3.22308 0
M  V30 656 H 57.617 2.01635 3.1511 0
M  V30 657 H 58.95 2.63629 4.15645 0
M  V30 658 N 60.6021 -1.18246 1.0419 0
M  V30 659 C 61.8791 -1.84121 0.660208 0
M  V30 660 C 62.2591 -1.92778 -0.860221 0
M  V30 661 O 61.6071 -1.45464 -1.76217 0
M  V30 662 C 61.8171 -3.22355 1.33747 0
M  V30 663 C 63.1651 -3.98376 1.46906 0
M  V30 664 O 64.1891 -3.31799 1.29568 0
M  V30 665 O 63.0481 -5.17665 1.75171 0
M  V30 666 H 60.1421 -0.794036 0.231161 0
M  V30 667 H 62.6881 -1.25628 1.14087 0
M  V30 668 H 61.4601 -3.10964 2.37522 0
M  V30 669 H 61.0831 -3.88506 0.845515 0
M  V30 670 N 62.0802 -0.821533 -1.34494 0
M  V30 671 C 63.0272 -0.240397 -2.29545 0
M  V30 672 C 63.9972 0.634031 -1.53523 0
M  V30 673 O 65.1822 0.575966 -1.81899 0
M  V30 674 C 62.3222 0.592869 -3.39969 0
M  V30 675 C 61.4352 -0.30365 -4.30932 0
M  V30 676 C 60.5702 0.539049 -5.28458 0
M  V30 677 C 59.6092 -0.356942 -6.11058 0
M  V30 678 N 58.7462 0.446603 -7.00678 0
M  V30 679 H 63.5862 -1.05632 -2.7865 0
M  V30 680 H 61.1232 -0.532413 -1.37127 0
M  V30 681 H 63.0812 1.09129 -4.02675 0
M  V30 682 H 61.7112 1.37392 -2.92102 0
M  V30 683 H 60.7632 -0.920276 -3.691 0
M  V30 684 H 62.0752 -0.992661 -4.88823 0
M  V30 685 H 61.2292 1.102 -5.96608 0
M  V30 686 H 59.9682 1.26157 -4.71101 0
M  V30 687 H 58.9732 -0.932047 -5.41842 0
M  V30 688 H 60.1982 -1.07755 -6.70497 0
M  V30 689 H 58.1442 1.15282 -6.45791 0
M  V30 690 H 58.0612 -0.184048 -7.55776 0
M  V30 691 H 59.3292 0.992352 -7.73158 0
M  V30 692 N 63.5583 1.46682 -0.576371 0
M  V30 693 C 64.7883 2.06498 -0.0648694 0
M  V30 694 C 65.1963 1.42665 1.24271 0
M  V30 695 O 64.5393 0.523886 1.76071 0
M  V30 696 C 64.6013 3.5904 0.181816 0
M  V30 697 C 64.2653 4.45028 -1.0392 0
M  V30 698 C 65.2623 4.81959 -1.94966 0
M  V30 699 C 62.9473 4.86259 -1.25927 0
M  V30 700 C 64.9413 5.58942 -3.06371 0
M  V30 701 C 62.6283 5.63002 -2.37638 0
M  V30 702 C 63.6263 5.99257 -3.2769 0
M  V30 703 O 63.3143 6.7445 -4.37461 0
M  V30 704 H 63.0463 0.674028 -0.0515987 0
M  V30 705 H 65.6003 1.89393 -0.794951 0
M  V30 706 H 63.8303 3.74429 0.966436 0
M  V30 707 H 65.5193 4.00806 0.641047 0
M  V30 708 H 66.2853 4.50689 -1.79177 0
M  V30 709 H 62.1643 4.57494 -0.567448 0
M  V30 710 H 65.7083 5.87158 -3.76684 0
M  V30 711 H 61.6053 5.93686 -2.53392 0
M  V30 712 H 62.3733 6.92867 -4.35749 0
M  V30 713 N 65.0364 0.313813 1.54444 0
M  V30 714 C 66.2844 -0.291099 1.99993 0
M  V30 715 C 66.6054 -1.53418 1.20366 0
M  V30 716 O 65.8754 -1.93544 0.302927 0
M  V30 717 H 64.4554 -0.110552 0.738774 0
M  V30 718 H 67.1174 0.428106 1.9014 0
M  V30 719 H 66.2134 -0.554268 3.07139 0
M  V30 720 N 66.5145 -1.57545 0.0417849 0
M  V30 721 C 67.4625 -2.12148 -0.953723 0
M  V30 722 C 68.4565 -1.05104 -1.32852 0
M  V30 723 O 69.6625 -1.23524 -1.30927 0
M  V30 724 H 66.0375 -0.677957 -0.325389 0
M  V30 725 H 68.0085 -2.94707 -0.467991 0
M  V30 726 C 66.7575 -2.6739 -2.22257 0
M  V30 727 H 66.0805 -3.49413 -1.94295 0
M  V30 728 H 67.5205 -3.09227 -2.90094 0
M  V30 729 C 65.9795 -1.60723 -2.96091 0
M  V30 730 O 66.5095 -1.01449 -3.88679 0
M  V30 731 N 64.7155 -1.32466 -2.58652 0
M  V30 732 H 64.2625 -1.80856 -1.83437 0
M  V30 733 H 64.2205 -0.61325 -3.08361 0
M  V30 734 N 67.9926 0.231505 -1.5589 0
M  V30 735 C 68.9396 1.28682 -1.91598 0
M  V30 736 C 69.9096 1.47071 -0.771974 0
M  V30 737 O 71.0946 1.60802 -1.027 0
M  V30 738 C 68.2346 2.6342 -2.22944 0
M  V30 739 C 67.3476 2.52912 -3.50228 0
M  V30 740 C 66.4826 3.80106 -3.7107 0
M  V30 741 C 65.5216 3.64279 -4.91902 0
M  V30 742 N 64.6586 4.834 -5.09184 0
M  V30 743 H 69.4986 0.975305 -2.81588 0
M  V30 744 H 67.0356 0.470299 -1.39379 0
M  V30 745 H 68.9936 3.41869 -2.39126 0
M  V30 746 H 67.6236 2.92687 -1.36139 0
M  V30 747 H 66.6756 1.6595 -3.42294 0
M  V30 748 H 67.9876 2.37133 -4.38827 0
M  V30 749 H 67.1416 4.66999 -3.87295 0
M  V30 750 H 65.8806 3.98799 -2.80733 0
M  V30 751 H 64.8856 2.7577 -4.75637 0
M  V30 752 H 66.1106 3.47067 -5.83714 0
M  V30 753 H 64.0566 5.02425 -4.21788 0
M  V30 754 H 63.9736 4.70311 -5.91898 0
M  V30 755 H 65.2416 5.71747 -5.29835 0
M  V30 756 N 69.4707 1.49531 0.497807 0
M  V30 757 C 70.7007 1.62657 1.27382 0
M  V30 758 C 71.1087 0.298488 1.86831 0
M  V30 759 O 70.4517 -0.72647 1.68725 0
M  V30 760 C 70.5137 2.6393 2.44093 0
M  V30 761 C 70.1777 4.08195 2.05489 0
M  V30 762 C 71.1747 4.949 1.59279 0
M  V30 763 C 68.8597 4.53948 2.15026 0
M  V30 764 C 70.8537 6.25397 1.23113 0
M  V30 765 C 68.5407 5.84458 1.78473 0
M  V30 766 C 69.5387 6.70006 1.32591 0
M  V30 767 O 69.2267 7.98083 0.965327 0
M  V30 768 H 68.9587 0.550429 0.392434 0
M  V30 769 H 71.5127 1.96325 0.603801 0
M  V30 770 H 69.7427 2.25449 3.14181 0
M  V30 771 H 71.4317 2.66552 3.06113 0
M  V30 772 H 72.1977 4.60779 1.51354 0
M  V30 773 H 68.0767 3.87525 2.4969 0
M  V30 774 H 71.6207 6.92125 0.872299 0
M  V30 775 H 67.5177 6.18107 1.86048 0
M  V30 776 H 68.2857 8.11122 1.09652 0
M  V30 777 N 70.9488 -0.749086 1.3866 0
M  V30 778 C 72.1788 -1.53611 1.38157 0
M  V30 779 C 72.5868 -1.89177 -0.0293595 0
M  V30 780 O 71.9298 -1.53606 -1.00752 0
M  V30 781 C 71.9918 -2.86087 2.17702 0
M  V30 782 C 71.6558 -2.73034 3.66472 0
M  V30 783 C 72.6528 -2.42526 4.59866 0
M  V30 784 C 70.3378 -2.90345 4.09884 0
M  V30 785 C 72.3318 -2.29492 5.94653 0
M  V30 786 C 70.0188 -2.7693 5.4475 0
M  V30 787 C 71.0168 -2.46547 6.36949 0
M  V30 788 O 70.7048 -2.33199 7.69333 0
M  V30 789 H 70.4368 -0.481773 0.474205 0
M  V30 790 H 72.9908 -0.934465 1.82912 0
M  V30 791 H 71.2208 -3.48458 1.67672 0
M  V30 792 H 72.9098 -3.47625 2.09551 0
M  V30 793 H 73.6758 -2.28816 4.27631 0
M  V30 794 H 69.5548 -3.1299 3.38464 0
M  V30 795 H 73.0988 -2.05698 6.66584 0
M  V30 796 H 68.9958 -2.90215 5.76581 0
M  V30 797 H 69.7638 -2.48376 7.79905 0
M  V30 798 N 72.4269 -1.23603 -0.977757 0
M  V30 799 C 73.3369 -1.03632 -2.1047 0
M  V30 800 C 74.3529 0.0199435 -1.73989 0
M  V30 801 O 75.5289 -0.176076 -2.00629 0
M  V30 802 C 72.5939 -0.63276 -3.40877 0
M  V30 803 C 71.6549 -1.76437 -3.91367 0
M  V30 804 C 70.8879 -1.37997 -5.15551 0
M  V30 805 O 71.1109 -0.265357 -5.69782 0
M  V30 806 O 70.0449 -2.20201 -5.60174 0
M  V30 807 H 73.8709 -1.98086 -2.30208 0
M  V30 808 H 71.4559 -1.02332 -1.08851 0
M  V30 809 H 73.3379 -0.418761 -4.19314 0
M  V30 810 H 72.0129 0.282754 -3.22463 0
M  V30 811 H 70.9199 -2.03304 -3.14036 0
M  V30 812 H 72.2529 -2.6583 -4.14241 0
M  V30 813 N 73.905 1.17692 -1.04816 0
M  V30 814 C 75.182 1.83768 -0.669963 0
M  V30 815 C 75.562 1.93232 0.849986 0
M  V30 816 O 74.91 1.46397 1.75443 0
M  V30 817 C 75.12 3.21641 -1.35455 0
M  V30 818 C 76.468 3.97592 -1.49017 0
M  V30 819 O 77.492 3.31107 -1.31326 0
M  V30 820 O 76.351 5.16729 -1.77914 0
M  V30 821 H 73.445 0.792799 -0.235368 0
M  V30 822 H 75.991 1.25021 -1.14751 0
M  V30 823 H 74.763 3.097 -2.39168 0
M  V30 824 H 74.386 3.88052 -0.866107 0
M  V30 825 N 75.3831 0.828654 1.34056 0
M  V30 826 C 76.3311 0.242973 2.31327 0
M  V30 827 C 77.3251 -0.61944 1.57668 0
M  V30 828 O 78.5311 -0.51014 1.7262 0
M  V30 829 H 74.9061 0.059834 0.749616 0
M  V30 830 H 76.8771 1.07809 2.78244 0
M  V30 831 C 75.6261 -0.575733 3.429 0
M  V30 832 H 74.9491 0.0785582 3.99723 0
M  V30 833 H 76.3891 -0.951547 4.13185 0
M  V30 834 C 74.8481 -1.75044 2.87856 0
M  V30 835 O 75.3781 -2.84882 2.83205 0
M  V30 836 N 73.5841 -1.56903 2.44602 0
M  V30 837 H 73.1311 -0.675547 2.48584 0
M  V30 838 H 73.0891 -2.35652 2.08124 0
M  V30 839 N 76.8612 -1.46375 0.584142 0
M  V30 840 C 77.8082 -2.30323 -0.148286 0
M  V30 841 C 78.7782 -1.40703 -0.882713 0
M  V30 842 O 79.9632 -1.69651 -0.873099 0
M  V30 843 C 77.1032 -3.25196 -1.15507 0
M  V30 844 C 76.2162 -4.29915 -0.423943 0
M  V30 845 C 75.3512 -5.11914 -1.41838 0
M  V30 846 C 74.3902 -6.08381 -0.673736 0
M  V30 847 N 73.5272 -6.83242 -1.6163 0
M  V30 848 H 78.3672 -2.92427 0.573644 0
M  V30 849 H 75.9042 -1.44118 0.294703 0
M  V30 850 H 77.8622 -3.78646 -1.75166 0
M  V30 851 H 76.4922 -2.64898 -1.8447 0
M  V30 852 H 75.5442 -3.7931 0.287714 0
M  V30 853 H 76.8562 -4.98549 0.158128 0
M  V30 854 H 76.0102 -5.69648 -2.08773 0
M  V30 855 H 74.7492 -4.43243 -2.03438 0
M  V30 856 H 73.7542 -5.49799 0.00938483 0
M  V30 857 H 74.9792 -6.79071 -0.0631082 0
M  V30 858 H 72.9252 -6.1728 -2.22038 0
M  V30 859 H 72.8422 -7.48144 -1.08707 0
M  V30 860 H 74.1102 -7.45534 -2.27596 0
M  V30 861 N 78.3393 -0.321999 -1.54275 0
M  V30 862 C 79.2713 0.578671 -2.21775 0
M  V30 863 C 80.2843 1.08109 -1.21722 0
M  V30 864 O 81.4733 0.994938 -1.482 0
M  V30 865 C 78.5733 1.80661 -2.86731 0
M  V30 866 C 77.7463 1.44314 -4.12907 0
M  V30 867 C 76.8053 2.52845 -4.61472 0
M  V30 868 O 75.8313 2.17054 -5.2619 0
M  V30 869 N 77.0333 3.83748 -4.35566 0
M  V30 870 H 79.7983 0.000709447 -2.997 0
M  V30 871 H 77.3593 -0.145132 -1.61248 0
M  V30 872 H 79.3513 2.52655 -3.16145 0
M  V30 873 H 77.9213 2.29245 -2.12521 0
M  V30 874 H 77.1413 0.554906 -3.90275 0
M  V30 875 H 78.4293 1.17598 -4.95023 0
M  V30 876 H 77.8273 4.15625 -3.83761 0
M  V30 877 H 76.3843 4.51977 -4.69638 0
M  V30 878 N 79.8174 1.5752 -0.0501392 0
M  V30 879 C 81.0644 1.9265 0.623874 0
M  V30 880 C 81.3924 0.928411 1.70912 0
M  V30 881 O 80.6474 -0.0594525 1.9561 0
M  V30 882 C 80.9464 3.34467 1.25963 0
M  V30 883 C 80.6124 4.49883 0.302689 0
M  V30 884 C 79.2744 4.81184 0.0393636 0
M  V30 885 C 81.6264 5.20002 -0.353205 0
M  V30 886 C 78.9544 5.79951 -0.887308 0
M  V30 887 C 81.3064 6.1976 -1.26806 0
M  V30 888 C 79.9704 6.49491 -1.54007 0
M  V30 889 H 79.2404 0.704957 0.228292 0
M  V30 890 H 81.8874 1.91146 -0.116398 0
M  V30 891 H 80.1924 3.32333 2.07514 0
M  V30 892 H 81.8894 3.58928 1.78806 0
M  V30 893 H 78.4794 4.25457 0.518109 0
M  V30 894 H 82.6634 4.96033 -0.162854 0
M  V30 895 H 77.9194 6.01322 -1.10553 0
M  V30 896 H 82.0934 6.73205 -1.78236 0
M  V30 897 H 79.7204 7.25837 -2.25976 0
M  V30 898 N 81.2955 -0.223234 1.56011 0
M  V30 899 C 82.5425 -0.947875 1.78946 0
M  V30 900 C 82.8705 -1.844 0.618608 0
M  V30 901 O 82.1255 -1.91629 -0.397093 0
M  V30 902 C 82.4245 -1.81948 3.0762 0
M  V30 903 C 82.0905 -1.07672 4.37856 0
M  V30 904 C 80.7525 -0.871544 4.73242 0
M  V30 905 C 83.1045 -0.552081 5.18268 0
M  V30 906 C 80.4325 -0.129791 5.86556 0
M  V30 907 C 82.7845 0.17632 6.32354 0
M  V30 908 C 81.4485 0.39277 6.66343 0
M  V30 909 H 80.7185 -0.346852 0.654809 0
M  V30 910 H 83.3655 -0.216171 1.90276 0
M  V30 911 H 81.6705 -2.61899 2.91404 0
M  V30 912 H 83.3675 -2.38227 3.22566 0
M  V30 913 H 79.9575 -1.24662 4.1007 0
M  V30 914 H 84.1415 -0.698076 4.91366 0
M  V30 915 H 79.3975 0.048153 6.11381 0
M  V30 916 H 83.5715 0.590367 6.93893 0
M  V30 917 H 81.1985 0.969466 7.53993 0
M  V30 918 N 82.7736 -1.49793 -0.48987 0
M  V30 919 C 84.0216 -1.59525 -1.24081 0
M  V30 920 C 84.3426 -0.288953 -1.92847 0
M  V30 921 O 83.6126 0.692436 -1.83254 0
M  V30 922 H 82.1926 -0.587796 -0.460983 0
M  V30 923 H 84.8546 -1.86477 -0.566778 0
M  V30 924 H 83.9506 -2.39696 -1.99881 0
M  V30 925 N 84.2517 0.741722 -1.39055 0
M  V30 926 C 85.6677 1.04638 -1.20512 0
M  V30 927 C 85.8677 2.01405 -0.0620218 0
M  V30 928 O 84.9237 2.45547 0.588457 0
M  V30 929 C 86.2367 1.6151 -2.53643 0
M  V30 930 C 87.7847 1.73623 -2.6043 0
M  V30 931 C 88.2597 2.33906 -3.93767 0
M  V30 932 N 89.7507 2.41323 -3.9537 0
M  V30 933 C 90.4857 2.88888 -4.95309 0
M  V30 934 N 89.9817 3.36401 -6.05645 0
M  V30 935 N 91.7747 2.88037 -4.82692 0
M  V30 936 H 83.9257 0.0998155 -2.12165 0
M  V30 937 H 86.1887 0.106907 -0.941953 0
M  V30 938 H 85.8947 0.978739 -3.37807 0
M  V30 939 H 85.7687 2.60411 -2.72885 0
M  V30 940 H 88.1557 2.36384 -1.76655 0
M  V30 941 H 88.2367 0.733945 -2.45045 0
M  V30 942 H 87.8807 1.71776 -4.7797 0
M  V30 943 H 87.8107 3.34799 -4.06469 0
M  V30 944 H 90.3017 2.07734 -3.15682 0
M  V30 945 H 90.6147 3.71186 -6.77821 0
M  V30 946 H 88.9597 3.34427 -6.09248 0
M  V30 947 H 92.1507 2.50237 -3.95599 0
M  V30 948 H 92.3237 3.24792 -5.60726 0
M  V30 949 N 85.7298 1.2412 0.971189 0
M  V30 950 C 86.6798 0.997551 2.05019 0
M  V30 951 C 87.6638 -0.0597747 1.60789 0
M  V30 952 O 88.8558 0.153516 1.76333 0
M  V30 953 C 85.9848 0.600557 3.38006 0
M  V30 954 C 85.0708 1.69377 3.88809 0
M  V30 955 N 85.4618 2.92586 4.12586 0
M  V30 956 C 83.7598 1.57048 4.17435 0
M  V30 957 C 84.4608 3.63431 4.54195 0
M  V30 958 N 83.4368 2.90979 4.59165 0
M  V30 959 H 87.2388 1.93316 2.21374 0
M  V30 960 H 84.7528 1.14194 1.1547 0
M  V30 961 H 86.7498 0.40725 4.14906 0
M  V30 962 H 85.4098 -0.327903 3.2304 0
M  V30 963 H 86.4208 3.288 4.00139 0
M  V30 964 H 83.0978 0.709798 4.11422 0
M  V30 965 H 84.4878 4.69102 4.81033 0
M  V30 966 N 87.2079 -1.17134 1.05439 0
M  V30 967 C 88.6239 -1.39454 0.776201 0
M  V30 968 C 88.8239 -1.91454 -0.628307 0
M  V30 969 O 87.8799 -2.10777 -1.39031 0
M  V30 970 C 89.1929 -2.38305 1.83388 0
M  V30 971 C 90.7409 -2.52006 1.85639 0
M  V30 972 C 91.2159 -3.54133 2.90437 0
M  V30 973 N 92.7069 -3.61653 2.89415 0
M  V30 974 C 93.4419 -4.4044 3.67152 0
M  V30 975 N 92.9379 -5.22721 4.54681 0
M  V30 976 N 94.7309 -4.35337 3.55581 0
M  V30 977 H 86.8819 -0.817134 1.96053 0
M  V30 978 H 89.1449 -0.421626 0.849079 0
M  V30 979 H 88.8509 -2.07173 2.84204 0
M  V30 980 H 88.7249 -3.37841 1.67761 0
M  V30 981 H 91.1119 -2.82447 0.85486 0
M  V30 982 H 91.1929 -1.52537 2.05344 0
M  V30 983 H 90.8369 -3.24431 3.90777 0
M  V30 984 H 90.7669 -4.53313 2.67983 0
M  V30 985 H 93.2579 -3.02909 2.25952 0
M  V30 986 H 93.5709 -5.80027 5.10674 0
M  V30 987 H 91.9159 -5.22093 4.58741 0
M  V30 988 H 95.1069 -3.70112 2.86592 0
M  V30 989 H 95.2799 -4.96494 4.1641 0
M  V30 990 N 88.686 -0.835752 -1.33615 0
M  V30 991 C 89.932 -0.439817 -1.98588 0
M  V30 992 C 90.287 0.989274 -1.65019 0
M  V30 993 O 89.58 1.68168 -0.918159 0
M  V30 994 C 89.774 -0.593925 -3.52431 0
M  V30 995 C 89.603 -2.03644 -4.00948 0
M  V30 996 C 88.373 -2.67103 -4.28934 0
M  V30 997 C 90.571 -3.00479 -4.17393 0
M  V30 998 N 88.553 -4.02462 -4.6357 0
M  V30 999 C 89.924 -4.20777 -4.55353 0
M  V30 1000 C 91.979 -2.96926 -3.99674 0
M  V30 1001 C 90.682 -5.37994 -4.77447 0
M  V30 1002 C 92.708 -4.1337 -4.22941 0
M  V30 1003 C 92.07 -5.32422 -4.61201 0
M  V30 1004 H 88.169 -0.209303 -0.75347 0
M  V30 1005 H 90.753 -1.08316 -1.61789 0
M  V30 1006 H 88.924 0.019599 -3.88395 0
M  V30 1007 H 90.656 -0.169738 -4.04344 0
M  V30 1008 H 87.411 -2.18259 -4.20309 0
M  V30 1009 H 87.835 -4.72232 -4.85104 0
M  V30 1010 H 92.477 -2.06015 -3.69212 0
M  V30 1011 H 90.195 -6.29451 -5.06771 0
M  V30 1012 H 93.781 -4.12034 -4.10754 0
M  V30 1013 H 92.661 -6.21027 -4.78848 0
M  V30 1014 N 90.1641 1.46063 -0.591896 0
M  V30 1015 C 91.4101 2.02638 -0.0811191 0
M  V30 1016 C 91.7431 1.4613 1.27905 0
M  V30 1017 O 91.0181 0.629908 1.84017 0
M  V30 1018 C 91.3011 3.60091 -0.0252436 0
M  V30 1019 C 91.1541 4.26965 -1.41496 0
M  V30 1020 C 92.4731 4.3496 0.670685 0
M  V30 1021 H 89.5921 0.73635 -0.0309524 0
M  V30 1022 H 92.2341 1.741 -0.760859 0
M  V30 1023 H 90.3841 3.84535 0.553624 0
M  V30 1024 H 92.0561 4.13756 -2.0397 0
M  V30 1025 H 90.2991 3.85971 -1.98011 0
M  V30 1026 H 90.9701 5.35781 -1.32825 0
M  V30 1027 H 93.4461 4.15716 0.178825 0
M  V30 1028 H 92.3221 5.44686 0.678837 0
M  V30 1029 H 92.5831 4.06685 1.73379 0
M  V30 1030 N 91.6422 0.330177 1.54103 0
M  V30 1031 C 92.8882 -0.270806 2.00984 0
M  V30 1032 C 93.2212 -1.51265 1.21789 0
M  V30 1033 O 92.4962 -1.92142 0.301927 0
M  V30 1034 C 92.7792 -0.598339 3.55094 0
M  V30 1035 C 92.6322 0.654674 4.4501 0
M  V30 1036 C 93.9512 -1.41334 4.16789 0
M  V30 1037 H 91.0702 -0.0969531 0.730595 0
M  V30 1038 H 93.7122 0.448066 1.84641 0
M  V30 1039 H 91.8622 -1.21078 3.69151 0
M  V30 1040 H 93.5342 1.29285 4.42813 0
M  V30 1041 H 91.7772 1.28224 4.14416 0
M  V30 1042 H 92.4482 0.380944 5.50684 0
M  V30 1043 H 94.9242 -0.895597 4.06347 0
M  V30 1044 H 93.8002 -1.61127 5.24718 0
M  V30 1045 H 94.0612 -2.41146 3.70541 0
M  V30 1046 N 93.1203 -1.57491 0.0584922 0
M  V30 1047 C 94.3503 -1.9701 -0.622134 0
M  V30 1048 C 94.7583 -0.935034 -1.6448 0
M  V30 1049 O 94.1013 0.0882904 -1.83488 0
M  V30 1050 C 94.1633 -3.32794 -1.35972 0
M  V30 1051 C 93.8273 -4.54343 -0.492043 0
M  V30 1052 C 94.8243 -5.19323 0.244901 0
M  V30 1053 C 92.5093 -5.00534 -0.420821 0
M  V30 1054 C 94.5033 -6.28835 1.04143 0
M  V30 1055 C 92.1903 -6.09921 0.379389 0
M  V30 1056 C 93.1883 -6.73933 1.10919 0
M  V30 1057 O 92.8763 -7.81216 1.89623 0
M  V30 1058 H 92.6083 -0.653127 -0.174359 0
M  V30 1059 H 95.1623 -2.05029 0.123418 0
M  V30 1060 H 93.3923 -3.21351 -2.15105 0
M  V30 1061 H 95.0813 -3.5701 -1.93129 0
M  V30 1062 H 95.8473 -4.8459 0.19939 0
M  V30 1063 H 91.7263 -4.50496 -0.978474 0
M  V30 1064 H 95.2703 -6.7873 1.61157 0
M  V30 1065 H 91.1673 -6.44089 0.426512 0
M  V30 1066 H 91.9353 -7.98029 1.81913 0
M  V30 1067 N 94.5984 0.214957 -1.56127 0
M  V30 1068 C 95.8264 0.955092 -1.83536 0
M  V30 1069 C 96.2414 1.77677 -0.638472 0
M  V30 1070 O 95.5984 1.78219 0.392968 0
M  V30 1071 C 95.6494 1.86734 -3.09536 0
M  V30 1072 O 95.3704 1.07887 -4.24608 0
M  V30 1073 C 96.8714 2.72082 -3.4998 0
M  V30 1074 H 94.0914 0.279611 -0.609966 0
M  V30 1075 H 96.6354 0.228197 -2.03223 0
M  V30 1076 H 94.7904 2.5481 -2.91806 0
M  V30 1077 H 95.2044 1.69872 -4.9623 0
M  V30 1078 H 96.6784 3.31782 -4.41163 0
M  V30 1079 H 97.1554 3.44806 -2.7204 0
M  V30 1080 H 97.7614 2.09409 -3.70173 0
M  V30 1081 N 96.0765 1.50051 0.48192 0
M  V30 1082 C 97.3045 1.64237 1.25832 0
M  V30 1083 C 97.7195 0.321336 1.86045 0
M  V30 1084 O 97.0765 -0.695478 1.68729 0
M  V30 1085 C 97.1275 2.72548 2.37487 0
M  V30 1086 O 96.8485 3.99529 1.79745 0
M  V30 1087 C 98.3495 2.9761 3.28547 0
M  V30 1088 H 95.5695 0.55237 0.380957 0
M  V30 1089 H 98.1135 1.96207 0.576467 0
M  V30 1090 H 96.2685 2.43303 3.01467 0
M  V30 1091 H 96.6825 4.59342 2.5319 0
M  V30 1092 H 98.1565 3.77084 4.03127 0
M  V30 1093 H 98.6335 2.0826 3.86684 0
M  V30 1094 H 99.2395 3.28345 2.70314 0
M  V30 1095 N 97.5546 -0.734337 1.39446 0
M  V30 1096 C 98.4646 -1.87879 1.40495 0
M  V30 1097 C 99.4806 -1.714 0.299672 0
M  V30 1098 O 100.657 -1.93991 0.541249 0
M  V30 1099 C 97.7216 -3.23477 1.24754 0
M  V30 1100 C 96.7826 -3.52344 2.45259 0
M  V30 1101 C 96.0156 -4.81473 2.30259 0
M  V30 1102 O 96.2386 -5.55237 1.30643 0
M  V30 1103 O 95.1726 -5.10254 3.19256 0
M  V30 1104 H 98.9986 -1.89949 2.36966 0
M  V30 1105 H 96.5836 -0.882243 1.20569 0
M  V30 1106 H 98.4656 -4.04509 1.18111 0
M  V30 1107 H 97.1406 -3.22176 0.313781 0
M  V30 1108 H 96.0476 -2.71396 2.57478 0
M  V30 1109 H 97.3806 -3.58426 3.37331 0
M  V30 1110 N 99.0327 -1.24633 -0.964593 0
M  V30 1111 C 99.9657 -0.984662 -2.05863 0
M  V30 1112 C 100.944 0.0826554 -1.6239 0
M  V30 1113 O 102.128 -0.0549296 -1.8842 0
M  V30 1114 C 99.2547 -0.486529 -3.35187 0
M  V30 1115 C 98.3007 -1.54286 -3.97615 0
M  V30 1116 S 99.1337 -3.12513 -4.34851 0
M  V30 1117 C 100.29 -2.6441 -5.67308 0
M  V30 1118 H 100.523 -1.91104 -2.27743 0
M  V30 1119 H 98.0557 -1.08052 -1.10291 0
M  V30 1120 H 100.014 -0.205757 -4.09984 0
M  V30 1121 H 98.6747 0.419186 -3.1129 0
M  V30 1122 H 97.8677 -1.14481 -4.90826 0
M  V30 1123 H 97.4697 -1.7738 -3.2926 0
M  V30 1124 H 99.7617 -2.07416 -6.44969 0
M  V30 1125 H 100.705 -3.56222 -6.11973 0
M  V30 1126 H 101.113 -2.04734 -5.26065 0
M  V30 1127 N 100.511 1.16574 -1.06058 0
M  V30 1128 C 101.459 2.22941 -0.663343 0
M  V30 1129 C 102.453 1.66358 0.319593 0
M  V30 1130 O 103.659 1.7905 0.184713 0
M  V30 1131 H 100.034 0.725907 -0.196376 0
M  V30 1132 H 102.005 2.53736 -1.57037 0
M  V30 1133 C 100.754 3.47642 -0.0632808 0
M  V30 1134 H 100.077 3.91493 -0.810733 0
M  V30 1135 H 101.517 4.2363 0.177177 0
M  V30 1136 C 99.9758 3.1509 1.19248 0
M  V30 1137 O 100.506 3.30673 2.28075 0
M  V30 1138 N 98.7118 2.6924 1.09353 0
M  V30 1139 H 98.2588 2.5676 0.207912 0
M  V30 1140 H 98.2168 2.47833 1.93458 0
M  V30 1141 N 101.989 0.842826 1.3317 0
M  V30 1142 C 103.237 0.439577 1.97262 0
M  V30 1143 C 103.558 -1.00548 1.67078 0
M  V30 1144 O 102.828 -1.70098 0.971779 0
M  V30 1145 H 101.408 0.159558 0.72976 0
M  V30 1146 H 104.07 1.07665 1.62463 0
M  V30 1147 H 103.166 0.574886 3.0676 0
M  V30 1148 N 103.467 -1.45747 0.599634 0
M  V30 1149 C 104.414 -2.30467 -0.123849 0
M  V30 1150 C 105.384 -1.41632 -0.86774 0
M  V30 1151 O 106.569 -1.70568 -0.855056 0
M  V30 1152 C 103.709 -3.26402 -1.12051 0
M  V30 1153 C 102.822 -4.3034 -0.37832 0
M  V30 1154 C 101.957 -5.13389 -1.364 0
M  V30 1155 C 100.996 -6.09061 -0.609171 0
M  V30 1156 N 100.133 -6.84918 -1.54374 0
M  V30 1157 H 104.973 -2.91802 0.604627 0
M  V30 1158 H 102.51 -1.43797 0.309972 0
M  V30 1159 H 104.468 -3.80482 -1.7114 0
M  V30 1160 H 103.098 -2.66839 -1.8165 0
M  V30 1161 H 102.15 -3.78984 0.327929 0
M  V30 1162 H 103.462 -4.98354 0.210997 0
M  V30 1163 H 102.616 -5.7183 -2.02719 0
M  V30 1164 H 101.355 -4.45376 -1.98725 0
M  V30 1165 H 100.36 -5.49758 0.0676979 0
M  V30 1166 H 101.585 -6.79099 0.00891991 0
M  V30 1167 H 99.531 -6.19601 -2.15478 0
M  V30 1168 H 99.448 -7.49254 -1.00766 0
M  V30 1169 H 100.716 -7.47906 -2.19676 0
M  V30 1170 N 104.945 -0.338344 -1.53925 0
M  V30 1171 C 105.893 0.536231 -2.26335 0
M  V30 1172 C 106.887 1.1063 -1.28286 0
M  V30 1173 O 108.093 1.05264 -1.46012 0
M  V30 1174 H 104.468 0.191602 -0.727181 0
M  V30 1175 H 106.439 -0.0965747 -2.98244 0
M  V30 1176 C 105.188 1.67803 -3.04528 0
M  V30 1177 H 104.511 1.24864 -3.79801 0
M  V30 1178 H 105.951 2.26526 -3.58416 0
M  V30 1179 C 104.41 2.60439 -2.13712 0
M  V30 1180 O 104.94 3.6255 -1.72975 0
M  V30 1181 N 103.146 2.29006 -1.78898 0
M  V30 1182 H 102.693 1.46011 -2.12223 0
M  V30 1183 H 102.651 2.91248 -1.18416 0
M  V30 1184 N 106.423 1.57458 -0.0668435 0
M  V30 1185 C 107.651 1.97624 0.612565 0
M  V30 1186 C 108.066 0.94502 1.63447 0
M  V30 1187 O 107.423 -0.0689276 1.8237 0
M  V30 1188 C 107.474 3.37869 1.28555 0
M  V30 1189 O 107.195 4.3704 0.304557 0
M  V30 1190 C 108.696 3.92882 2.05325 0
M  V30 1191 H 105.916 0.650045 0.166381 0
M  V30 1192 H 108.46 2.04035 -0.137782 0
M  V30 1193 H 106.615 3.3256 1.98702 0
M  V30 1194 H 107.029 5.18565 0.786779 0
M  V30 1195 H 108.503 4.93247 2.47812 0
M  V30 1196 H 108.98 3.29156 2.9078 0
M  V30 1197 H 109.586 4.01577 1.40056 0
M  V30 1198 N 107.901 -0.206675 1.56239 0
M  V30 1199 C 109.148 -0.928842 1.79941 0
M  V30 1200 C 109.476 -1.83734 0.638131 0
M  V30 1201 O 108.731 -1.92039 -0.376746 0
M  V30 1202 C 109.03 -1.78675 3.09532 0
M  V30 1203 C 108.696 -1.03022 4.38973 0
M  V30 1204 C 107.358 -0.821302 4.74139 0
M  V30 1205 C 109.71 -0.497081 5.18824 0
M  V30 1206 C 107.038 -0.0675719 5.86661 0
M  V30 1207 C 109.39 0.24338 6.32132 0
M  V30 1208 C 108.054 0.463422 6.65889 0
M  V30 1209 H 107.324 -0.339887 0.658451 0
M  V30 1210 H 109.971 -0.195977 1.90495 0
M  V30 1211 H 108.276 -2.58794 2.94165 0
M  V30 1212 H 109.973 -2.34792 3.25075 0
M  V30 1213 H 106.563 -1.20306 4.11369 0
M  V30 1214 H 110.747 -0.645921 4.92079 0
M  V30 1215 H 106.003 0.112995 6.11296 0
M  V30 1216 H 110.177 0.66393 6.93228 0
M  V30 1217 H 107.804 1.04938 7.52922 0
M  V30 1218 N 109.379 -1.50304 -0.473955 0
M  V30 1219 C 110.625 -1.62358 -1.22521 0
M  V30 1220 C 110.98 -0.318555 -1.89745 0
M  V30 1221 O 110.273 0.683315 -1.79001 0
M  V30 1222 C 110.467 -2.73938 -2.29549 0
M  V30 1223 C 110.296 -4.15165 -1.72825 0
M  V30 1224 C 109.066 -4.81604 -1.52924 0
M  V30 1225 C 111.264 -4.99503 -1.22481 0
M  V30 1226 N 109.246 -6.07056 -0.91413 0
M  V30 1227 C 110.617 -6.15655 -0.732743 0
M  V30 1228 C 112.672 -4.85299 -1.11308 0
M  V30 1229 C 111.375 -7.19164 -0.139976 0
M  V30 1230 C 113.401 -5.88982 -0.534258 0
M  V30 1231 C 112.763 -7.0438 -0.0525562 0
M  V30 1232 H 108.862 -0.648286 -0.437321 0
M  V30 1233 H 111.446 -1.87413 -0.527692 0
M  V30 1234 H 109.617 -2.50611 -2.9673 0
M  V30 1235 H 111.349 -2.75366 -2.96573 0
M  V30 1236 H 108.104 -4.3885 -1.78067 0
M  V30 1237 H 108.528 -6.74108 -0.625071 0
M  V30 1238 H 113.17 -3.96369 -1.47144 0
M  V30 1239 H 110.888 -8.07771 0.230591 0
M  V30 1240 H 114.474 -5.80055 -0.450219 0
M  V30 1241 H 113.354 -7.83238 0.388324 0
M  V30 1242 N 110.857 0.726932 -1.39834 0
M  V30 1243 C 112.134 1.47902 -1.28001 0
M  V30 1244 C 112.514 2.1083 0.106789 0
M  V30 1245 O 111.862 1.99242 1.11869 0
M  V30 1246 C 112.072 2.52392 -2.41038 0
M  V30 1247 C 113.42 3.18546 -2.80737 0
M  V30 1248 O 114.444 2.62708 -2.40547 0
M  V30 1249 O 113.303 4.19604 -3.50135 0
M  V30 1250 H 110.397 0.657163 -0.502062 0
M  V30 1251 H 112.943 0.760071 -1.51727 0
M  V30 1252 H 111.715 2.04329 -3.33715 0
M  V30 1253 H 111.338 3.31837 -2.19021 0
M  V30 1254 N 112.336 1.25143 0.95797 0
M  V30 1255 C 113.582 1.09855 1.70469 0
M  V30 1256 C 113.915 -0.360187 1.90831 0
M  V30 1257 O 113.19 -1.26568 1.47685 0
M  V30 1258 C 113.473 1.8497 3.08963 0
M  V30 1259 C 113.326 3.38652 2.96032 0
M  V30 1260 C 114.645 1.63016 4.08795 0
M  V30 1261 H 111.764 0.400465 0.618706 0
M  V30 1262 H 114.406 1.53933 1.11376 0
M  V30 1263 H 112.556 1.47505 3.59409 0
M  V30 1264 H 114.228 3.85772 2.52938 0
M  V30 1265 H 112.471 3.66534 2.32025 0
M  V30 1266 H 113.142 3.8642 3.94187 0
M  V30 1267 H 115.618 1.95625 3.67247 0
M  V30 1268 H 114.494 2.18015 5.03747 0
M  V30 1269 H 114.755 0.570692 4.38401 0
M  V30 1270 N 113.814 -1.1601 1.06675 0
M  V30 1271 C 115.091 -1.82679 0.699114 0
M  V30 1272 C 115.471 -1.94559 -0.819137 0
M  V30 1273 O 114.819 -1.49169 -1.73092 0
M  V30 1274 C 115.029 -3.19445 1.40555 0
M  V30 1275 C 116.377 -3.95171 1.55323 0
M  V30 1276 O 117.401 -3.28976 1.36577 0
M  V30 1277 O 116.26 -5.13833 1.86112 0
M  V30 1278 H 113.354 -0.788954 0.247951 0
M  V30 1279 H 115.9 -1.23179 1.16726 0
M  V30 1280 H 114.672 -3.05856 2.44065 0
M  V30 1281 H 114.295 -3.86625 0.927733 0
M  V30 1282 N 115.292 -0.849877 -1.32721 0
M  V30 1283 C 116.54 -0.450032 -1.97026 0
M  V30 1284 C 116.861 0.996604 -1.67609 0
M  V30 1285 O 116.131 1.6958 -0.980786 0
M  V30 1286 H 114.711 -0.163426 -0.728904 0
M  V30 1287 H 117.373 -1.08526 -1.6189 0
M  V30 1288 H 116.469 -0.591146 -3.0645 0
M  V30 1289 N 116.77 1.45427 -0.607355 0
M  V30 1290 C 117.995 2.07124 -0.107006 0
M  V30 1291 C 118.42 1.44906 1.19933 0
M  V30 1292 O 117.778 0.541687 1.73019 0
M  V30 1293 C 117.826 3.60595 0.0194119 0
M  V30 1294 O 116.93 3.98285 1.0697 0
M  V30 1295 H 116.271 0.659868 -0.0739597 0
M  V30 1296 H 118.801 1.86683 -0.837297 0
M  V30 1297 H 118.811 4.07419 0.2177 0
M  V30 1298 H 117.486 4.05266 -0.934453 0
M  V30 1299 H 116.063 3.63133 0.847889 0
M  V30 1300 N 118.248 0.346503 1.53744 0
M  V30 1301 C 119.181 -0.552023 2.21423 0
M  V30 1302 C 120.159 -1.09798 1.19929 0
M  V30 1303 O 121.343 -1.1577 1.4876 0
M  V30 1304 C 118.47 -1.75972 2.89398 0
M  V30 1305 C 117.516 -1.34295 4.04805 0
M  V30 1306 S 118.349 -0.360263 5.34287 0
M  V30 1307 C 119.505 -1.57473 6.05767 0
M  V30 1308 H 119.738 0.0228119 2.97291 0
M  V30 1309 H 117.271 0.130579 1.53847 0
M  V30 1310 H 119.229 -2.45256 3.2918 0
M  V30 1311 H 117.89 -2.30578 2.1329 0
M  V30 1312 H 117.083 -2.24349 4.51313 0
M  V30 1313 H 116.685 -0.729555 3.66815 0
M  V30 1314 H 118.977 -2.50875 6.29339 0
M  V30 1315 H 119.92 -1.15138 6.98676 0
M  V30 1316 H 120.328 -1.77212 5.35963 0
M  V30 1317 N 119.726 -1.57421 0.075193 0
M  V30 1318 C 120.972 -1.93905 -0.594025 0
M  V30 1319 C 121.305 -0.955701 -1.69056 0
M  V30 1320 O 120.58 0.0145373 -1.94495 0
M  V30 1321 C 120.863 -3.40638 -1.1678 0
M  V30 1322 C 120.716 -4.49733 -0.0776792 0
M  V30 1323 C 122.035 -3.88259 -2.07228 0
M  V30 1324 H 119.154 -0.705105 -0.214466 0
M  V30 1325 H 121.796 -1.8947 0.141854 0
M  V30 1326 H 119.946 -3.44549 -1.79494 0
M  V30 1327 H 121.618 -4.57942 0.555573 0
M  V30 1328 H 119.861 -4.29751 0.591286 0
M  V30 1329 H 120.532 -5.49549 -0.519603 0
M  V30 1330 H 123.008 -3.86376 -1.54445 0
M  V30 1331 H 121.884 -4.91533 -2.44308 0
M  V30 1332 H 122.145 -3.26396 -2.98191 0
M  V30 1333 N 121.204 0.198386 -1.56346 0
M  V30 1334 C 122.615 0.763358 -1.70381 0
M  V30 1335 C 122.966 1.83995 -0.681203 0
M  V30 1336 O 122.091 2.15785 0.16305 0
M  V30 1337 C 122.686 1.39143 -3.08909 0
M  V30 1338 C 121.245 1.90352 -3.2472 0
M  V30 1339 C 120.392 0.772233 -2.6633 0
M  V30 1340 H 123.343 -0.0266377 -1.58678 0
M  V30 1341 H 123.364 2.26076 -3.06055 0
M  V30 1342 H 122.876 0.607638 -3.83314 0
M  V30 1343 H 120.977 2.71461 -2.55225 0
M  V30 1344 H 121.09 2.06757 -4.3219 0
M  V30 1345 H 119.454 1.18566 -2.2542 0
M  V30 1346 H 120.237 0.00073556 -3.433 0
M  V30 1347 N 122.682 1.50554 0.465978 0
M  V30 1348 C 124.093 1.54599 1.04671 0
M  V30 1349 C 124.444 0.352488 1.93008 0
M  V30 1350 O 123.569 -0.534044 2.09707 0
M  V30 1351 C 124.164 2.80166 1.90505 0
M  V30 1352 C 122.723 2.86876 2.43678 0
M  V30 1353 C 121.87 2.48947 1.22151 0
M  V30 1354 H 124.821 1.56744 0.248384 0
M  V30 1355 H 124.842 2.62311 2.75633 0
M  V30 1356 H 124.354 3.67013 1.26186 0
M  V30 1357 H 122.455 2.04393 3.11536 0
M  V30 1358 H 122.568 3.89885 2.78436 0
M  V30 1359 H 120.932 2.01498 1.5579 0
M  V30 1360 H 121.715 3.38107 0.594866 0
M  V30 1361 N 124.16 -0.719506 1.40217 0
M  V30 1362 C 125.07 -1.86378 1.42479 0
M  V30 1363 C 126.086 -1.71073 0.317834 0
M  V30 1364 O 127.262 -1.93406 0.561794 0
M  V30 1365 C 124.327 -3.22136 1.28178 0
M  V30 1366 C 123.388 -3.49723 2.48982 0
M  V30 1367 C 122.621 -4.79004 2.35353 0
M  V30 1368 O 122.844 -5.53821 1.36524 0
M  V30 1369 O 121.778 -5.06839 3.2465 0
M  V30 1370 H 125.604 -1.87425 2.38968 0
M  V30 1371 H 123.189 -0.869405 1.21498 0
M  V30 1372 H 125.071 -4.03234 1.22395 0
M  V30 1373 H 123.746 -3.21825 0.347934 0
M  V30 1374 H 122.653 -2.6865 2.60342 0
M  V30 1375 H 123.986 -3.54828 3.41113 0
M  V30 1376 N 125.638 -1.25649 -0.95132 0
M  V30 1377 C 126.884 -1.11766 -1.69941 0
M  V30 1378 C 127.239 0.33735 -1.89419 0
M  V30 1379 O 126.532 1.24491 -1.45645 0
M  V30 1380 C 126.726 -1.80909 -3.08231 0
M  V30 1381 C 126.555 -3.32984 -3.02245 0
M  V30 1382 C 125.325 -4.02247 -3.05819 0
M  V30 1383 C 127.523 -4.29332 -2.83157 0
M  V30 1384 N 125.505 -5.41072 -2.90024 0
M  V30 1385 C 126.876 -5.55265 -2.75828 0
M  V30 1386 C 128.931 -4.19707 -2.67863 0
M  V30 1387 C 127.634 -6.72671 -2.54767 0
M  V30 1388 C 129.66 -5.36809 -2.48173 0
M  V30 1389 C 129.022 -6.61683 -2.41567 0
M  V30 1390 H 125.121 -0.463708 -0.629682 0
M  V30 1391 H 127.705 -1.58796 -1.12659 0
M  V30 1392 H 125.876 -1.36369 -3.63673 0
M  V30 1393 H 127.608 -1.59739 -3.71841 0
M  V30 1394 H 124.363 -3.53531 -3.15139 0
M  V30 1395 H 124.787 -6.13938 -2.85323 0
M  V30 1396 H 129.429 -3.23907 -2.71743 0
M  V30 1397 H 127.147 -7.68577 -2.49629 0
M  V30 1398 H 130.733 -5.31224 -2.37259 0
M  V30 1399 H 129.613 -7.50768 -2.26531 0
M  V30 1400 N 127.117 1.15442 -1.07289 0
M  V30 1401 C 128.067 2.18164 -0.662467 0
M  V30 1402 C 129.051 1.57845 0.312074 0
M  V30 1403 O 130.243 1.76552 0.125905 0
M  V30 1404 C 127.372 3.43246 -0.0611295 0
M  V30 1405 C 126.458 4.1062 -1.06077 0
M  V30 1406 N 126.849 4.53491 -2.24008 0
M  V30 1407 C 125.147 4.36949 -0.893964 0
M  V30 1408 C 125.848 5.05731 -2.87422 0
M  V30 1409 N 124.824 4.99236 -2.15091 0
M  V30 1410 H 128.626 2.49038 -1.56068 0
M  V30 1411 H 126.14 1.32003 -0.945988 0
M  V30 1412 H 128.137 4.16145 0.250792 0
M  V30 1413 H 126.797 3.13854 0.832207 0
M  V30 1414 H 127.808 4.46898 -2.6173 0
M  V30 1415 H 124.485 4.17466 -0.0534693 0
M  V30 1416 H 125.875 5.48865 -3.87553 0
M  V30 1417 N 128.595 0.856903 1.32268 0
M  V30 1418 C 130.011 0.547061 1.49931 0
M  V30 1419 C 130.211 -0.921781 1.7918 0
M  V30 1420 O 129.267 -1.70469 1.8627 0
M  V30 1421 C 130.58 1.43599 2.64196 0
M  V30 1422 C 132.128 1.43665 2.78081 0
M  V30 1423 C 132.603 2.31085 3.95428 0
M  V30 1424 N 134.094 2.28893 4.02694 0
M  V30 1425 C 134.829 2.93262 4.92732 0
M  V30 1426 N 134.325 3.66751 5.87763 0
M  V30 1427 N 136.118 2.82638 4.85873 0
M  V30 1428 H 128.269 1.8075 1.11549 0
M  V30 1429 H 130.532 0.772144 0.549997 0
M  V30 1430 H 130.238 2.48058 2.49319 0
M  V30 1431 H 130.112 1.12502 3.60032 0
M  V30 1432 H 132.499 0.399701 2.92381 0
M  V30 1433 H 132.58 1.7878 1.82952 0
M  V30 1434 H 132.224 3.34849 3.81888 0
M  V30 1435 H 132.154 1.93302 4.89839 0
M  V30 1436 H 134.645 1.75466 3.34694 0
M  V30 1437 H 134.958 4.13027 6.53168 0
M  V30 1438 H 133.303 3.70859 5.87783 0
M  V30 1439 H 136.494 2.24774 4.10602 0
M  V30 1440 H 136.667 3.33084 5.55841 0
M  V30 1441 N 130.073 -1.45103 0.615059 0
M  V30 1442 C 131.319 -2.03035 0.121804 0
M  V30 1443 C 131.674 -1.47393 -1.23665 0
M  V30 1444 O 130.967 -0.642061 -1.80522 0
M  V30 1445 C 131.161 -3.57386 0.0318797 0
M  V30 1446 C 130.99 -4.28 1.38007 0
M  V30 1447 C 129.76 -4.65624 1.9627 0
M  V30 1448 C 131.958 -4.5948 2.31047 0
M  V30 1449 N 129.94 -5.21132 3.24492 0
M  V30 1450 C 131.311 -5.159 3.43872 0
M  V30 1451 C 133.366 -4.41423 2.30326 0
M  V30 1452 C 132.069 -5.56165 4.5615 0
M  V30 1453 C 134.095 -4.82726 3.41658 0
M  V30 1454 C 133.457 -5.39245 4.53205 0
M  V30 1455 H 129.556 -0.77702 0.0881159 0
M  V30 1456 H 132.14 -1.76819 0.815044 0
M  V30 1457 H 130.311 -3.83247 -0.630599 0
M  V30 1458 H 132.043 -4.01976 -0.468721 0
M  V30 1459 H 128.798 -4.49421 1.49392 0
M  V30 1460 H 129.222 -5.53377 3.90004 0
M  V30 1461 H 133.864 -3.97033 1.45343 0
M  V30 1462 H 131.582 -5.99517 5.41854 0
M  V30 1463 H 135.168 -4.7048 3.42257 0
M  V30 1464 H 134.048 -5.70616 5.37929 0
M  V30 1465 N 131.551 -0.354651 -1.53558 0
M  V30 1466 C 132.481 0.489091 -2.2832 0
M  V30 1467 C 133.462 1.09324 -1.30316 0
M  V30 1468 O 134.647 1.11255 -1.59173 0
M  V30 1469 C 131.777 1.63456 -3.0643 0
M  V30 1470 C 130.731 1.1582 -4.12031 0
M  V30 1471 C 130.057 2.39305 -4.7816 0
M  V30 1472 C 131.357 0.250731 -5.21698 0
M  V30 1473 H 133.051 -0.134614 -2.99097 0
M  V30 1474 H 130.597 -0.0661826 -1.43848 0
M  V30 1475 H 132.55 2.23136 -3.57475 0
M  V30 1476 H 131.274 2.28533 -2.33325 0
M  V30 1477 H 129.933 0.584146 -3.61916 0
M  V30 1478 H 129.581 3.02814 -4.01637 0
M  V30 1479 H 129.281 2.08109 -5.49513 0
M  V30 1480 H 130.805 2.99691 -5.31994 0
M  V30 1481 H 132.219 0.754695 -5.68311 0
M  V30 1482 H 130.616 0.0301468 -6.00092 0
M  V30 1483 H 131.686 -0.710125 -4.79672 0
M  V30 1484 N 133.029 1.57378 -0.0835403 0
M  V30 1485 C 133.979 2.09916 0.889905 0
M  V30 1486 C 134.963 1.01151 1.25129 0
M  V30 1487 O 136.155 1.27443 1.2283 0
M  V30 1488 C 133.284 2.67379 2.15322 0
M  V30 1489 C 132.37 3.83167 1.81779 0
M  V30 1490 N 132.761 4.91665 1.18739 0
M  V30 1491 C 131.059 3.92685 2.11459 0
M  V30 1492 C 131.76 5.72409 1.0355 0
M  V30 1493 N 130.736 5.21062 1.54906 0
M  V30 1494 H 134.538 2.91188 0.398378 0
M  V30 1495 H 132.052 1.61956 0.120013 0
M  V30 1496 H 134.049 3.0334 2.8599 0
M  V30 1497 H 132.709 1.87558 2.65051 0
M  V30 1498 H 133.72 5.10784 0.855604 0
M  V30 1499 H 130.397 3.23856 2.63483 0
M  V30 1500 H 131.787 6.69699 0.543425 0
M  V30 1501 N 134.507 -0.190092 1.56449 0
M  V30 1502 C 135.732 -0.929864 1.85387 0
M  V30 1503 C 136.157 -1.7585 0.667704 0
M  V30 1504 O 135.515 -1.77198 -0.383459 0
M  V30 1505 C 135.563 -1.79773 3.12593 0
M  V30 1506 O 134.667 -2.89713 2.93496 0
M  V30 1507 H 134.008 -0.261574 0.610307 0
M  V30 1508 H 136.538 -0.193896 2.03679 0
M  V30 1509 H 136.548 -2.20139 3.43515 0
M  V30 1510 H 135.223 -1.18892 3.98544 0
M  V30 1511 H 133.8 -2.53065 2.73884 0
M  V30 1512 N 135.985 -1.50799 -0.457987 0
M  V30 1513 C 136.918 -1.65273 -1.57353 0
M  V30 1514 C 137.896 -0.500578 -1.54703 0
M  V30 1515 O 139.08 -0.721781 -1.74134 0
M  V30 1516 C 136.207 -1.64737 -2.95938 0
M  V30 1517 C 135.253 -2.8567 -3.16693 0
M  V30 1518 S 136.086 -4.46791 -2.95191 0
M  V30 1519 C 137.242 -4.48968 -4.36095 0
M  V30 1520 H 137.475 -2.59633 -1.44838 0
M  V30 1521 H 135.008 -1.40225 -0.64625 0
M  V30 1522 H 136.966 -1.65112 -3.7583 0
M  V30 1523 H 135.627 -0.715899 -3.05833 0
M  V30 1524 H 134.82 -2.81637 -4.17967 0
M  V30 1525 H 134.422 -2.8293 -2.44594 0
M  V30 1526 H 136.714 -4.23337 -5.28954 0
M  V30 1527 H 137.657 -5.50664 -4.45168 0
M  V30 1528 H 138.065 -3.78522 -4.18786 0
M  V30 1529 N 137.463 0.71206 -1.40597 0
M  V30 1530 C 138.691 1.50111 -1.42388 0
M  V30 1531 C 139.106 1.88784 -0.0245395 0
M  V30 1532 O 138.463 1.55681 0.952351 0
M  V30 1533 C 138.514 2.7742 -2.31776 0
M  V30 1534 O 138.235 2.40382 -3.66262 0
M  V30 1535 C 139.736 3.7129 -2.42196 0
M  V30 1536 H 136.956 0.46314 -0.485533 0
M  V30 1537 H 139.5 0.878068 -1.8469 0
M  V30 1538 H 137.655 3.36001 -1.92827 0
M  V30 1539 H 138.069 3.22324 -4.13772 0
M  V30 1540 H 139.543 4.57448 -3.08943 0
M  V30 1541 H 140.02 4.14641 -1.44809 0
M  V30 1542 H 140.626 3.18619 -2.81712 0
M  V30 1543 N 138.941 1.26152 0.944643 0
M  V30 1544 C 140.218 1.02247 1.66748 0
M  V30 1545 C 140.598 -0.448202 2.06287 0
M  V30 1546 O 139.946 -1.42779 1.78399 0
M  V30 1547 C 140.156 1.96788 2.88228 0
M  V30 1548 C 141.504 2.25201 3.59958 0
M  V30 1549 O 142.528 1.94626 2.98327 0
M  V30 1550 O 141.387 2.77242 4.70956 0
M  V30 1551 H 138.481 0.388517 0.730057 0
M  V30 1552 H 141.027 1.37348 0.99668 0
M  V30 1553 H 139.799 2.96047 2.55875 0
M  V30 1554 H 139.422 1.62145 3.63035 0
M  V30 1555 N 140.419 -1.14872 1.07899 0
M  V30 1556 C 141.696 -1.81928 0.71845 0
M  V30 1557 C 142.076 -1.95417 -0.798455 0
M  V30 1558 O 141.424 -1.50997 -1.715 0
M  V30 1559 C 141.634 -3.17937 1.43935 0
M  V30 1560 C 142.982 -3.93501 1.59506 0
M  V30 1561 O 144.006 -3.27509 1.40058 0
M  V30 1562 O 142.865 -5.1183 1.91551 0
M  V30 1563 H 139.959 -0.78628 0.256305 0
M  V30 1564 H 142.505 -1.21934 1.18026 0
M  V30 1565 H 141.277 -3.0325 2.47295 0
M  V30 1566 H 140.9 -3.85619 0.968687 0
M  V30 1567 N 141.898 -0.863906 -1.31812 0
M  V30 1568 C 143.309 -0.52522 -1.7916 0
M  V30 1569 C 143.66 0.957518 -1.71248 0
M  V30 1570 O 142.785 1.74734 -1.27659 0
M  V30 1571 C 143.38 -0.9466 -3.25307 0
M  V30 1572 C 141.939 -0.659668 -3.70574 0
M  V30 1573 C 141.086 -1.14126 -2.52726 0
M  V30 1574 H 144.037 -1.05022 -1.1898 0
M  V30 1575 H 144.058 -0.266766 -3.79564 0
M  V30 1576 H 143.57 -2.02579 -3.31034 0
M  V30 1577 H 141.671 0.408416 -3.70355 0
M  V30 1578 H 141.784 -1.23245 -4.62977 0
M  V30 1579 H 140.148 -0.561216 -2.4844 0
M  V30 1580 H 140.931 -2.22775 -2.61201 0
M  V30 1581 N 143.376 1.44774 -0.622745 0
M  V30 1582 C 144.787 1.85546 -0.207226 0
M  V30 1583 C 145.138 1.52093 1.23944 0
M  V30 1584 O 144.263 0.95492 1.94191 0
M  V30 1585 C 144.858 3.36781 -0.369313 0
M  V30 1586 C 143.417 3.76399 -0.00836847 0
M  V30 1587 C 142.564 2.68664 -0.686651 0
M  V30 1588 H 145.515 1.3536 -0.828454 0
M  V30 1589 H 145.536 3.78453 0.394162 0
M  V30 1590 H 145.048 3.61098 -1.42231 0
M  V30 1591 H 143.149 3.57698 1.04322 0
M  V30 1592 H 143.262 4.7732 -0.412584 0
M  V30 1593 H 141.626 2.54404 -0.122777 0
M  V30 1594 H 142.409 2.95815 -1.74208 0
M  V30 1595 N 144.854 0.36279 1.53368 0
M  V30 1596 C 146.082 -0.228613 2.05633 0
M  V30 1597 C 146.497 -1.42676 1.23649 0
M  V30 1598 O 145.854 -1.80394 0.27647 0
M  V30 1599 C 145.905 -0.624845 3.56059 0
M  V30 1600 O 145.626 0.525675 4.34935 0
M  V30 1601 C 147.127 -1.27493 4.24571 0
M  V30 1602 H 144.347 -0.0407183 0.669763 0
M  V30 1603 H 146.891 0.520352 1.97769 0
M  V30 1604 H 145.046 -1.32373 3.64083 0
M  V30 1605 H 145.46 0.205969 5.24095 0
M  V30 1606 H 146.934 -1.50277 5.31151 0
M  V30 1607 H 147.411 -2.23439 3.78116 0
M  V30 1608 H 148.017 -0.617558 4.20792 0
M  V30 1609 N 146.332 -1.57332 0.0918853 0
M  V30 1610 C 147.56 -1.98574 -0.581048 0
M  V30 1611 C 147.975 -0.970903 -1.61923 0
M  V30 1612 O 147.332 0.0399054 -1.82456 0
M  V30 1613 C 147.383 -3.39872 -1.23164 0
M  V30 1614 O 147.104 -4.37469 -0.234989 0
M  V30 1615 C 148.605 -3.96099 -1.99049 0
M  V30 1616 H 145.825 -0.65261 -0.156018 0
M  V30 1617 H 148.369 -2.0379 0.170225 0
M  V30 1618 H 146.524 -3.35679 -1.93386 0
M  V30 1619 H 146.938 -5.19751 -0.70418 0
M  V30 1620 H 148.412 -4.97127 -2.39934 0
M  V30 1621 H 148.889 -3.3374 -2.85507 0
M  V30 1622 H 149.495 -4.03755 -1.3365 0
M  V30 1623 N 147.81 0.181792 -1.56548 0
M  V30 1624 C 148.757 1.22521 -1.95595 0
M  V30 1625 C 149.727 1.4454 -0.818373 0
M  V30 1626 O 150.912 1.57454 -1.07763 0
M  V30 1627 C 148.052 2.56193 -2.31212 0
M  V30 1628 C 147.165 2.41641 -3.58097 0
M  V30 1629 C 146.3 3.68108 -3.82975 0
M  V30 1630 C 145.339 3.48445 -5.03242 0
M  V30 1631 N 144.476 4.66956 -5.24306 0
M  V30 1632 H 149.316 0.885226 -2.84548 0
M  V30 1633 H 146.853 0.425718 -1.40805 0
M  V30 1634 H 148.811 3.34088 -2.49882 0
M  V30 1635 H 147.441 2.88208 -1.45382 0
M  V30 1636 H 146.493 1.54976 -3.474 0
M  V30 1637 H 147.805 2.23052 -4.46149 0
M  V30 1638 H 146.959 4.54441 -4.01956 0
M  V30 1639 H 145.698 3.89666 -2.93278 0
M  V30 1640 H 144.703 2.60499 -4.8417 0
M  V30 1641 H 145.928 3.2832 -5.9446 0
M  V30 1642 H 143.874 4.88752 -4.37559 0
M  V30 1643 H 143.791 4.51242 -6.06561 0
M  V30 1644 H 145.059 5.54602 -5.47756 0
M  V30 1645 N 149.288 1.51039 0.449983 0
M  V30 1646 C 150.699 1.557 1.03026 0
M  V30 1647 C 151.05 0.372939 1.92623 0
M  V30 1648 O 150.175 -0.511771 2.10261 0
M  V30 1649 C 150.77 2.82171 1.87523 0
M  V30 1650 C 149.329 2.89444 2.40622 0
M  V30 1651 C 148.476 2.50228 1.19504 0
M  V30 1652 H 151.427 1.56999 0.231745 0
M  V30 1653 H 151.448 2.65219 2.72835 0
M  V30 1654 H 150.96 3.68331 1.22286 0
M  V30 1655 H 149.061 2.07685 3.0935 0
M  V30 1656 H 149.174 3.92816 2.74285 0
M  V30 1657 H 147.538 2.03139 1.53644 0
M  V30 1658 H 148.321 3.38719 0.558972 0
M  V30 1659 N 150.766 -0.704594 1.40972 0
M  V30 1660 C 151.696 -1.83124 1.44872 0
M  V30 1661 C 152.677 -1.67281 0.30838 0
M  V30 1662 O 153.862 -1.87149 0.518556 0
M  V30 1663 C 150.992 -3.21181 1.32136 0
M  V30 1664 C 149.946 -3.51714 2.43888 0
M  V30 1665 C 149.272 -4.89032 2.16222 0
M  V30 1666 C 150.572 -3.516 3.86232 0
M  V30 1667 H 152.266 -1.80117 2.39161 0
M  V30 1668 H 149.812 -0.865145 1.15114 0
M  V30 1669 H 151.765 -3.99702 1.33479 0
M  V30 1670 H 150.489 -3.24791 0.343279 0
M  V30 1671 H 149.148 -2.75539 2.41813 0
M  V30 1672 H 148.796 -4.89256 1.16778 0
M  V30 1673 H 148.496 -5.10426 2.911 0
M  V30 1674 H 150.02 -5.69873 2.19265 0
M  V30 1675 H 151.434 -4.2014 3.9007 0
M  V30 1676 H 149.831 -3.84523 4.60719 0
M  V30 1677 H 150.901 -2.50757 4.15029 0
M  V30 1678 N 152.244 -1.26651 -0.937939 0
M  V30 1679 C 153.472 -1.15173 -1.7188 0
M  V30 1680 C 153.887 0.292668 -1.86518 0
M  V30 1681 O 153.244 1.20014 -1.37488 0
M  V30 1682 C 153.295 -1.81925 -3.12387 0
M  V30 1683 O 153.016 -3.2072 -2.98446 0
M  V30 1684 C 154.517 -1.76442 -4.06673 0
M  V30 1685 H 151.737 -0.400911 -0.538063 0
M  V30 1686 H 154.281 -1.67332 -1.1756 0
M  V30 1687 H 152.436 -1.33696 -3.63599 0
M  V30 1688 H 152.85 -3.53802 -3.872 0
M  V30 1689 H 154.324 -2.27781 -5.02812 0
M  V30 1690 H 154.801 -0.731608 -4.33064 0
M  V30 1691 H 155.407 -2.24238 -3.61382 0
M  V30 1692 N 153.722 1.14298 -1.08507 0
M  V30 1693 C 154.685 2.17607 -0.719711 0
M  V30 1694 C 155.685 1.58907 0.245997 0
M  V30 1695 O 156.875 1.74181 0.0254081 0
M  V30 1696 C 154.007 3.40842 -0.0627695 0
M  V30 1697 H 155.2 2.51443 -1.63452 0
M  V30 1698 H 152.753 1.28963 -0.88307 0
M  V30 1699 H 153.488 3.12587 0.863716 0
M  V30 1700 H 153.273 3.84713 -0.757504 0
M  V30 1701 H 154.763 4.17221 0.177786 0
M  V30 1702 N 155.201 0.870884 1.31352 0
M  V30 1703 C 156.617 0.562932 1.49343 0
M  V30 1704 C 156.817 -0.902725 1.80148 0
M  V30 1705 O 155.873 -1.68484 1.88067 0
M  V30 1706 C 157.186 1.46393 2.62659 0
M  V30 1707 C 158.734 1.46607 2.76542 0
M  V30 1708 C 159.209 2.35266 3.92955 0
M  V30 1709 N 160.7 2.33151 4.00243 0
M  V30 1710 C 161.435 2.98471 4.89594 0
M  V30 1711 N 160.931 3.72964 5.8384 0
M  V30 1712 N 162.724 2.87775 4.82848 0
M  V30 1713 H 154.875 1.81923 1.09626 0
M  V30 1714 H 157.138 0.777934 0.541777 0
M  V30 1715 H 156.844 2.50689 2.46674 0
M  V30 1716 H 156.718 1.16314 3.58819 0
M  V30 1717 H 159.105 0.43069 2.9194 0
M  V30 1718 H 159.186 1.8071 1.81046 0
M  V30 1719 H 158.83 3.38881 3.78315 0
M  V30 1720 H 158.76 1.98487 4.87761 0
M  V30 1721 H 161.251 1.79006 3.32814 0
M  V30 1722 H 161.564 4.19932 6.4875 0
M  V30 1723 H 159.909 3.77073 5.83816 0
M  V30 1724 H 163.1 2.29116 4.08195 0
M  V30 1725 H 163.273 3.38961 5.52277 0
M  V30 1726 N 156.679 -1.44442 0.630414 0
M  V30 1727 C 157.626 -2.30678 -0.0749355 0
M  V30 1728 C 158.596 -1.4344 -0.837502 0
M  V30 1729 O 159.781 -1.72343 -0.818684 0
M  V30 1730 C 156.921 -3.28706 -1.05103 0
M  V30 1731 C 156.034 -4.31046 -0.286954 0
M  V30 1732 C 155.169 -5.16167 -1.2548 0
M  V30 1733 C 154.208 -6.10216 -0.479843 0
M  V30 1734 N 153.345 -6.88039 -1.39811 0
M  V30 1735 H 158.185 -2.90454 0.666386 0
M  V30 1736 H 155.722 -1.43107 0.340404 0
M  V30 1737 H 157.68 -3.84027 -1.63031 0
M  V30 1738 H 156.31 -2.70632 -1.75949 0
M  V30 1739 H 155.362 -3.78203 0.408243 0
M  V30 1740 H 156.674 -4.97794 0.316657 0
M  V30 1741 H 155.828 -5.76002 -1.90544 0
M  V30 1742 H 154.567 -4.49491 -1.89233 0
M  V30 1743 H 153.572 -5.49491 0.184295 0
M  V30 1744 H 154.797 -6.78928 0.152965 0
M  V30 1745 H 152.743 -6.24032 -2.02287 0
M  V30 1746 H 152.66 -7.51223 -0.848508 0
M  V30 1747 H 153.928 -7.52397 -2.03762 0
M  V30 1748 N 158.157 -0.370918 -1.53173 0
M  V30 1749 C 159.404 0.217102 -2.01333 0
M  V30 1750 C 159.732 1.48338 -1.25802 0
M  V30 1751 O 158.987 1.92698 -0.34146 0
M  V30 1752 C 159.286 0.549696 -3.53147 0
M  V30 1753 C 158.952 -0.622872 -4.46577 0
M  V30 1754 C 157.614 -0.944595 -4.71838 0
M  V30 1755 C 159.966 -1.40819 -5.01816 0
M  V30 1756 C 157.294 -2.05351 -5.49589 0
M  V30 1757 C 159.646 -2.50757 -5.80778 0
M  V30 1758 C 158.31 -2.83458 -6.04324 0
M  V30 1759 H 157.58 0.0794431 -0.736729 0
M  V30 1760 H 160.227 -0.504481 -1.84736 0
M  V30 1761 H 158.532 1.35237 -3.6772 0
M  V30 1762 H 160.229 1.017 -3.87889 0
M  V30 1763 H 156.819 -0.36209 -4.27068 0
M  V30 1764 H 161.003 -1.17289 -4.82242 0
M  V30 1765 H 156.259 -2.3108 -5.6605 0
M  V30 1766 H 160.433 -3.12022 -6.22588 0
M  V30 1767 H 158.06 -3.69508 -6.64355 0
M  V30 1768 N 159.635 1.57281 -0.100228 0
M  V30 1769 C 160.884 1.93713 0.561984 0
M  V30 1770 C 161.197 0.984492 1.69018 0
M  V30 1771 O 162.403 1.24273 2.41389 0
M  V30 1772 C 160.859 3.4421 1.05106 0
M  V30 1773 C 160.467 4.47975 -0.0476628 0
M  V30 1774 C 162.211 3.89595 1.68571 0
M  V30 1775 C 160.118 5.89631 0.457055 0
M  V30 1776 H 159.048 0.723082 0.2137 0
M  V30 1777 H 161.699 1.82644 -0.177057 0
M  V30 1778 H 160.081 3.50449 1.84395 0
M  V30 1779 H 161.255 4.53385 -0.823333 0
M  V30 1780 H 159.57 4.1223 -0.587816 0
M  V30 1781 H 162.167 4.92832 2.07414 0
M  V30 1782 H 162.51 3.28526 2.55688 0
M  V30 1783 H 163.043 3.86078 0.958562 0
M  V30 1784 H 159.782 6.54411 -0.377616 0
M  V30 1785 H 159.302 5.87681 1.19962 0
M  V30 1786 H 160.981 6.40363 0.92437 0
M  V30 1787 N 161.113 -0.173488 1.56642 0
M  V30 1788 C 162.359 -0.887108 1.83035 0
M  V30 1789 C 162.714 -1.79965 0.680461 0
M  V30 1790 O 162.007 -1.88854 -0.323225 0
M  V30 1791 C 162.201 -1.72069 3.13252 0
M  V30 1792 C 162.03 -0.89035 4.40798 0
M  V30 1793 C 160.8 -0.566282 5.02117 0
M  V30 1794 C 162.998 -0.232921 5.13772 0
M  V30 1795 N 160.98 0.280427 6.13259 0
M  V30 1796 C 162.351 0.475046 6.18177 0
M  V30 1797 C 164.406 -0.150863 4.97671 0
M  V30 1798 C 163.109 1.25729 7.08227 0
M  V30 1799 C 165.135 0.618039 5.88162 0
M  V30 1800 C 164.497 1.31438 6.92029 0
M  V30 1801 H 160.596 -0.303303 0.720785 0
M  V30 1802 H 163.18 -0.154244 1.94088 0
M  V30 1803 H 161.351 -2.42499 3.03395 0
M  V30 1804 H 163.083 -2.37545 3.2765 0
M  V30 1805 H 159.838 -0.895852 4.6505 0
M  V30 1806 H 160.262 0.694027 6.73433 0
M  V30 1807 H 164.904 -0.674868 4.17379 0
M  V30 1808 H 162.622 1.79265 7.87966 0
M  V30 1809 H 166.208 0.683173 5.77775 0
M  V30 1810 H 165.088 1.89981 7.6084 0
M  V30 1811 N 162.591 -1.51276 -0.441967 0
M  V30 1812 C 163.819 -1.67516 -1.21434 0
M  V30 1813 C 164.234 -0.37055 -1.85128 0
M  V30 1814 O 163.591 0.650498 -1.70513 0
M  V30 1815 C 163.642 -2.78748 -2.30177 0
M  V30 1816 O 163.363 -4.04154 -1.69089 0
M  V30 1817 C 164.864 -3.06217 -3.20541 0
M  V30 1818 H 162.084 -0.562276 -0.366178 0
M  V30 1819 H 164.628 -1.97666 -0.524244 0
M  V30 1820 H 162.783 -2.5121 -2.94911 0
M  V30 1821 H 163.197 -4.65894 -2.40922 0
M  V30 1822 H 164.671 -3.8764 -3.92987 0
M  V30 1823 H 165.148 -2.18439 -3.81026 0
M  V30 1824 H 165.754 -3.35397 -2.61513 0
M  V30 1825 N 164.069 0.697108 -1.41344 0
M  V30 1826 C 165.017 1.83237 -1.43272 0
M  V30 1827 C 166.011 1.66522 -0.310947 0
M  V30 1828 O 167.217 1.73402 -0.482899 0
M  V30 1829 H 163.592 0.603802 -0.448249 0
M  V30 1830 H 165.563 1.78727 -2.38954 0
M  V30 1831 C 164.312 3.21245 -1.33029 0
M  V30 1832 H 163.635 3.34723 -2.18633 0
M  V30 1833 H 165.075 4.00763 -1.38439 0
M  V30 1834 C 163.534 3.36873 -0.0424635 0
M  V30 1835 O 164.064 3.91177 0.913421 0
M  V30 1836 N 162.27 2.90581 0.0331145 0
M  V30 1837 H 161.817 2.46577 -0.745506 0
M  V30 1838 H 161.775 3.01416 0.894199 0
M  V30 1839 N 165.547 1.27147 0.931209 0
M  V30 1840 C 166.497 1.06227 2.01742 0
M  V30 1841 C 167.481 -0.00859065 1.60898 0
M  V30 1842 O 168.673 0.209537 1.75755 0
M  V30 1843 C 165.802 0.707787 3.35924 0
M  V30 1844 C 164.888 1.81661 3.83223 0
M  V30 1845 N 165.279 3.05564 4.03069 0
M  V30 1846 C 163.577 1.70249 4.12227 0
M  V30 1847 C 164.278 3.77697 4.42403 0
M  V30 1848 N 163.254 3.0544 4.49675 0
M  V30 1849 H 167.056 2.00261 2.15111 0
M  V30 1850 H 164.57 1.1781 1.11779 0
M  V30 1851 H 166.567 0.539043 4.134 0
M  V30 1852 H 165.227 -0.224964 3.2392 0
M  V30 1853 H 166.238 3.41363 3.89476 0
M  V30 1854 H 162.915 0.840329 4.08956 0
M  V30 1855 H 164.305 4.84168 4.65866 0
M  V30 1856 N 167.025 -1.13721 1.09112 0
M  V30 1857 C 167.972 -2.19031 0.727591 0
M  V30 1858 C 168.942 -1.63555 -0.289656 0
M  V30 1859 O 170.127 -1.90023 -0.172026 0
M  V30 1860 C 167.267 -3.4477 0.15082 0
M  V30 1861 C 166.38 -4.14365 1.22172 0
M  V30 1862 C 165.515 -5.27709 0.608042 0
M  V30 1863 C 164.554 -5.89147 1.66047 0
M  V30 1864 N 163.691 -6.93929 1.06806 0
M  V30 1865 H 168.531 -2.49475 1.62991 0
M  V30 1866 H 166.068 -1.22499 0.81439 0
M  V30 1867 H 168.026 -4.16714 -0.201358 0
M  V30 1868 H 166.656 -3.14787 -0.714783 0
M  V30 1869 H 165.708 -3.40737 1.69122 0
M  V30 1870 H 167.02 -4.56114 2.01895 0
M  V30 1871 H 166.174 -6.06355 0.204523 0
M  V30 1872 H 164.913 -4.872 -0.220769 0
M  V30 1873 H 163.918 -5.09198 2.07357 0
M  V30 1874 H 165.143 -6.31729 2.49189 0
M  V30 1875 H 163.089 -6.55483 0.260476 0
M  V30 1876 H 163.006 -7.34202 1.8023 0
M  V30 1877 H 164.274 -7.76434 0.690644 0
M  V30 1878 N 168.503 -0.877838 -1.30888 0
M  V30 1879 C 169.75 -0.492696 -1.96415 0
M  V30 1880 C 170.078 0.956671 -1.69346 0
M  V30 1881 O 169.333 1.68993 -0.986913 0
M  V30 1882 C 169.632 -0.705748 -3.50363 0
M  V30 1883 C 169.298 -2.1291 -3.97467 0
M  V30 1884 C 167.96 -2.51834 -4.1004 0
M  V30 1885 C 170.312 -3.05702 -4.22132 0
M  V30 1886 C 167.64 -3.82775 -4.44635 0
M  V30 1887 C 169.992 -4.36166 -4.58194 0
M  V30 1888 C 168.656 -4.74993 -4.68975 0
M  V30 1889 H 167.926 -0.18029 -0.718733 0
M  V30 1890 H 170.573 -1.11233 -1.55883 0
M  V30 1891 H 168.878 -0.00303058 -3.918 0
M  V30 1892 H 170.575 -0.387456 -3.99124 0
M  V30 1893 H 167.165 -1.81694 -3.88182 0
M  V30 1894 H 171.349 -2.76853 -4.11906 0
M  V30 1895 H 166.605 -4.12609 -4.51181 0
M  V30 1896 H 170.779 -5.08111 -4.76231 0
M  V30 1897 H 168.406 -5.76495 -4.95537 0
M  V30 1898 N 169.982 1.44106 -0.638065 0
M  V30 1899 C 170.93 2.3248 0.0748149 0
M  V30 1900 C 171.924 1.47746 0.828702 0
M  V30 1901 O 173.13 1.64049 0.740816 0
M  V30 1902 H 169.505 0.750771 0.0429686 0
M  V30 1903 H 171.476 2.90348 -0.688504 0
M  V30 1904 C 170.225 3.31843 1.03805 0
M  V30 1905 H 169.548 3.97059 0.467375 0
M  V30 1906 H 170.988 3.96345 1.50622 0
M  V30 1907 C 169.447 2.61291 2.1267 0
M  V30 1908 O 169.977 2.41702 3.20847 0
M  V30 1909 N 168.183 2.20915 1.88798 0
M  V30 1910 H 167.73 2.37047 1.00829 0
M  V30 1911 H 167.688 1.74038 2.61836 0
M  V30 1912 N 171.46 0.379036 1.52974 0
M  V30 1913 C 172.706 -0.206727 2.01744 0
M  V30 1914 C 173.039 -1.47314 1.26539 0
M  V30 1915 O 172.314 -1.91084 0.362903 0
M  V30 1916 C 172.597 -0.485066 3.56818 0
M  V30 1917 C 172.45 0.795919 4.42702 0
M  V30 1918 C 173.769 -1.28003 4.21074 0
M  V30 1919 H 170.888 -0.0736607 0.73331 0
M  V30 1920 H 173.53 0.506581 1.83122 0
M  V30 1921 H 171.68 -1.09272 3.72816 0
M  V30 1922 H 173.352 1.43307 4.38476 0
M  V30 1923 H 171.595 1.41344 4.10127 0
M  V30 1924 H 172.266 0.555947 5.49193 0
M  V30 1925 H 174.742 -0.765867 4.08991 0
M  V30 1926 H 173.618 -1.44352 5.29579 0
M  V30 1927 H 173.879 -2.29236 3.78026 0
M  V30 1928 N 172.938 -1.57226 0.108567 0
M  V30 1929 C 174.166 -1.99179 -0.559954 0
M  V30 1930 C 174.581 -0.988022 -1.60884 0
M  V30 1931 O 173.938 0.0205512 -1.82488 0
M  V30 1932 C 173.989 -3.41159 -1.19552 0
M  V30 1933 O 173.71 -4.37694 -0.188577 0
M  V30 1934 C 175.211 -3.98188 -1.94837 0
M  V30 1935 H 172.431 -0.654228 -0.149088 0
M  V30 1936 H 174.975 -2.03598 0.19183 0
M  V30 1937 H 173.13 -3.37711 -1.89815 0
M  V30 1938 H 173.544 -5.20469 -0.649014 0
M  V30 1939 H 175.018 -4.99644 -2.34648 0
M  V30 1940 H 175.495 -3.3675 -2.81951 0
M  V30 1941 H 176.101 -4.0515 -1.2936 0
M  V30 1942 N 174.416 0.165178 -1.56732 0
M  V30 1943 C 175.664 0.879068 -1.8198 0
M  V30 1944 C 175.985 1.82514 -0.686561 0
M  V30 1945 O 175.255 1.93694 0.293146 0
M  V30 1946 H 173.835 0.327608 -0.671329 0
M  V30 1947 H 176.497 0.163526 -1.94213 0
M  V30 1948 H 175.593 1.45228 -2.76252 0
M  V30 1949 N 175.894 1.51508 0.433938 0
M  V30 1950 C 177.122 1.68157 1.20543 0
M  V30 1951 C 177.537 0.380362 1.84929 0
M  V30 1952 O 176.894 -0.641446 1.70856 0
M  V30 1953 C 176.945 2.79965 2.28696 0
M  V30 1954 O 176.666 4.05045 1.66943 0
M  V30 1955 C 178.167 3.07912 3.18912 0
M  V30 1956 H 175.387 0.56421 0.363191 0
M  V30 1957 H 177.931 1.97941 0.513754 0
M  V30 1958 H 176.086 2.5277 2.93574 0
M  V30 1959 H 176.5 4.67165 2.38448 0
M  V30 1960 H 177.974 3.89719 3.90926 0
M  V30 1961 H 178.451 2.20456 3.79863 0
M  V30 1962 H 179.057 3.36779 2.59731 0
M  V30 1963 N 177.372 -0.689602 1.41712 0
M  V30 1964 C 178.783 -1.26973 1.36875 0
M  V30 1965 C 179.134 -1.96124 0.054748 0
M  V30 1966 O 178.259 -1.99141 -0.84687 0
M  V30 1967 C 178.854 -2.30912 2.47922 0
M  V30 1968 C 177.413 -2.84486 2.46464 0
M  V30 1969 C 176.56 -1.58603 2.27465 0
M  V30 1970 H 179.511 -0.48396 1.51141 0
M  V30 1971 H 179.532 -3.12331 2.17323 0
M  V30 1972 H 179.044 -1.80554 3.43543 0
M  V30 1973 H 177.145 -3.39005 1.54617 0
M  V30 1974 H 177.258 -3.34511 3.42986 0
M  V30 1975 H 175.622 -1.84632 1.75451 0
M  V30 1976 H 176.405 -1.10233 3.25121 0
M  V30 1977 N 178.85 -1.27639 -0.924453 0
M  V30 1978 C 179.76 -1.12466 -2.05885 0
M  V30 1979 C 180.776 -0.053869 -1.73917 0
M  V30 1980 O 181.952 -0.261012 -1.99702 0
M  V30 1981 C 179.017 -0.776768 -3.37886 0
M  V30 1982 C 178.078 -1.92878 -3.83532 0
M  V30 1983 C 177.311 -1.59739 -5.09234 0
M  V30 1984 O 177.534 -0.506782 -5.68144 0
M  V30 1985 O 176.468 -2.43761 -5.50331 0
M  V30 1986 H 180.294 -2.07671 -2.21599 0
M  V30 1987 H 177.879 -1.06857 -1.04413 0
M  V30 1988 H 179.761 -0.596229 -4.17161 0
M  V30 1989 H 178.436 0.145732 -3.23372 0
M  V30 1990 H 177.343 -2.1644 -3.0513 0
M  V30 1991 H 178.676 -2.8316 -4.02593 0
M  V30 1992 N 180.328 1.1314 -1.09713 0
M  V30 1993 C 181.26 2.18343 -0.697056 0
M  V30 1994 C 182.273 1.60669 0.262551 0
M  V30 1995 O 183.462 1.78435 0.0481527 0
M  V30 1996 C 180.562 3.38899 -0.00684728 0
M  V30 1997 C 179.735 4.26078 -0.988741 0
M  V30 1998 C 178.794 5.25155 -0.331394 0
M  V30 1999 O 177.82 5.60701 -0.979926 0
M  V30 2000 N 179.022 5.73271 0.913261 0
M  V30 2001 H 181.787 2.5328 -1.60216 0
M  V30 2002 H 179.348 1.28491 -0.984971 0
M  V30 2003 H 181.34 4.02255 0.444191 0
M  V30 2004 H 179.91 3.02175 0.800551 0
M  V30 2005 H 179.13 3.59453 -1.61826 0
M  V30 2006 H 180.418 4.81178 -1.65364 0
M  V30 2007 H 179.816 5.46544 1.45966 0
M  V30 2008 H 178.373 6.3855 1.30757 0
M  V30 2009 N 181.806 0.884767 1.30421 0
M  V30 2010 C 183.036 0.517293 2.00019 0
M  V30 2011 C 183.444 -0.898632 1.66497 0
M  V30 2012 O 182.787 -1.60245 0.898181 0
M  V30 2013 C 182.849 0.612025 3.54252 0
M  V30 2014 C 182.513 1.99222 4.1129 0
M  V30 2015 C 183.51 2.9616 4.273 0
M  V30 2016 C 181.195 2.29755 4.46674 0
M  V30 2017 C 183.189 4.21764 4.77906 0
M  V30 2018 C 180.876 3.55606 4.96979 0
M  V30 2019 C 181.874 4.51425 5.12547 0
M  V30 2020 O 181.562 5.75043 5.61766 0
M  V30 2021 H 181.294 0.198529 0.64619 0
M  V30 2022 H 183.848 1.1919 1.67281 0
M  V30 2023 H 182.078 -0.119561 3.86515 0
M  V30 2024 H 183.767 0.255859 4.05093 0
M  V30 2025 H 184.533 2.73882 4.00267 0
M  V30 2026 H 180.412 1.55942 4.33824 0
M  V30 2027 H 183.956 4.96561 4.89972 0
M  V30 2028 H 179.853 3.7772 5.23448 0
M  V30 2029 H 180.621 5.77422 5.80109 0
M  V30 2030 N 183.284 -1.43765 0.645699 0
M  V30 2031 C 184.53 -2.02197 0.156271 0
M  V30 2032 C 184.863 -1.50776 -1.22393 0
M  V30 2033 O 184.138 -0.697771 -1.81553 0
M  V30 2034 C 184.421 -3.59749 0.158872 0
M  V30 2035 C 184.274 -4.21419 1.57245 0
M  V30 2036 C 185.593 -4.37149 -0.50879 0
M  V30 2037 H 182.712 -0.734694 0.0582602 0
M  V30 2038 H 185.354 -1.71157 0.824951 0
M  V30 2039 H 183.504 -3.86325 -0.410525 0
M  V30 2040 H 185.176 -4.059 2.19186 0
M  V30 2041 H 183.419 -3.78356 2.122 0
M  V30 2042 H 184.09 -5.30482 1.52619 0
M  V30 2043 H 186.566 -4.16093 -0.024412 0
M  V30 2044 H 185.442 -5.4683 -0.476213 0
M  V30 2045 H 185.703 -4.12839 -1.58165 0
M  V30 2046 N 184.763 -0.387143 -1.52771 0
M  V30 2047 C 186.174 0.0873634 -1.86495 0
M  V30 2048 C 186.525 1.46336 -1.30691 0
M  V30 2049 O 185.65 2.068 -0.637409 0
M  V30 2050 C 186.245 0.165305 -3.38396 0
M  V30 2051 C 184.804 0.584101 -3.7184 0
M  V30 2052 C 183.951 -0.255279 -2.76122 0
M  V30 2053 H 186.902 -0.605104 -1.46711 0
M  V30 2054 H 186.923 0.984848 -3.67534 0
M  V30 2055 H 186.435 -0.836301 -3.78982 0
M  V30 2056 H 184.536 1.59315 -3.36823 0
M  V30 2057 H 184.649 0.343749 -4.77865 0
M  V30 2058 H 183.013 0.279126 -2.53166 0
M  V30 2059 H 183.796 -1.25482 -3.19545 0
M  V30 2060 N 186.241 1.57166 -0.116904 0
M  V30 2061 C 187.471 1.99184 0.548586 0
M  V30 2062 C 187.879 0.995436 1.60897 0
M  V30 2063 O 187.222 -0.0201293 1.83689 0
M  V30 2064 C 187.284 3.37611 1.23526 0
M  V30 2065 C 186.948 4.55857 0.323077 0
M  V30 2066 C 187.945 5.18056 -0.437476 0
M  V30 2067 C 185.63 5.01751 0.234761 0
M  V30 2068 C 187.624 6.24536 -1.2741 0
M  V30 2069 C 185.311 6.08093 -0.605496 0
M  V30 2070 C 186.309 6.69352 -1.35856 0
M  V30 2071 O 185.997 7.7364 -2.18487 0
M  V30 2072 H 185.729 0.659148 0.149999 0
M  V30 2073 H 188.283 2.0443 -0.199428 0
M  V30 2074 H 186.513 3.29113 2.0303 0
M  V30 2075 H 188.202 3.63932 1.79745 0
M  V30 2076 H 188.968 4.83516 -0.379105 0
M  V30 2077 H 184.847 4.53817 0.810601 0
M  V30 2078 H 188.391 6.72281 -1.86237 0
M  V30 2079 H 184.288 6.42063 -0.665268 0
M  V30 2080 H 185.056 7.90727 -2.11406 0
M  V30 2081 N 187.719 -0.156864 1.56817 0
M  V30 2082 C 188.944 -0.890331 1.87318 0
M  V30 2083 C 189.369 -1.74394 0.704855 0
M  V30 2084 O 188.727 -1.77972 -0.345786 0
M  V30 2085 C 188.775 -1.73102 3.16336 0
M  V30 2086 O 187.879 -2.83422 2.99576 0
M  V30 2087 H 187.22 -0.24857 0.615718 0
M  V30 2088 H 189.75 -0.150649 2.04045 0
M  V30 2089 H 189.76 -2.12803 3.48107 0
M  V30 2090 H 188.435 -1.10412 4.00976 0
M  V30 2091 H 187.012 -2.47199 2.7919 0
M  V30 2092 N 189.197 -1.51736 -0.425897 0
M  V30 2093 C 190.425 -1.68794 -1.1965 0
M  V30 2094 C 190.84 -0.390164 -1.84725 0
M  V30 2095 O 190.197 0.632376 -1.71194 0
M  V30 2096 C 190.248 -2.81174 -2.27208 0
M  V30 2097 O 189.969 -4.05925 -1.64793 0
M  V30 2098 C 191.47 -3.09599 -3.17275 0
M  V30 2099 H 188.69 -0.566128 -0.360194 0
M  V30 2100 H 191.234 -1.98211 -0.503249 0
M  V30 2101 H 189.389 -2.54324 -2.9223 0
M  V30 2102 H 189.803 -4.68423 -2.35967 0
M  V30 2103 H 191.277 -3.91786 -3.88854 0
M  V30 2104 H 191.754 -2.22468 -3.78688 0
M  V30 2105 H 192.36 -3.38151 -2.57941 0
M  V30 2106 N 190.675 0.682077 -1.42076 0
M  V30 2107 C 191.903 1.47057 -1.4554 0
M  V30 2108 C 192.318 1.8869 -0.0645779 0
M  V30 2109 O 191.675 1.57666 0.919115 0
M  V30 2110 C 191.726 2.72442 -2.37609 0
M  V30 2111 O 191.447 2.32559 -3.71279 0
M  V30 2112 C 192.948 3.66069 -2.50017 0
M  V30 2113 H 190.168 0.452737 -0.495248 0
M  V30 2114 H 192.712 0.838695 -1.8651 0
M  V30 2115 H 190.867 3.31835 -1.9991 0
M  V30 2116 H 191.281 3.13475 -4.20516 0
M  V30 2117 H 192.755 4.50792 -3.18576 0
M  V30 2118 H 193.232 4.11476 -1.53572 0
M  V30 2119 H 193.838 3.12572 -2.88407 0
M  V30 2120 N 192.153 1.28127 0.917671 0
M  V30 2121 C 193.569 1.05749 1.19538 0
M  V30 2122 C 193.769 -0.202633 2.00479 0
M  V30 2123 O 192.825 -0.905382 2.3571 0
M  V30 2124 C 194.138 2.30273 1.93378 0
M  V30 2125 C 195.686 2.35412 2.06277 0
M  V30 2126 C 196.161 3.59692 2.83524 0
M  V30 2127 N 197.652 3.60309 2.91087 0
M  V30 2128 C 198.387 4.53147 3.51348 0
M  V30 2129 N 197.883 5.563 4.12919 0
M  V30 2130 N 199.676 4.40751 3.48849 0
M  V30 2131 H 191.827 2.09024 0.377184 0
M  V30 2132 H 194.09 0.919798 0.22951 0
M  V30 2133 H 193.796 3.22055 1.41328 0
M  V30 2134 H 193.67 2.36378 2.93947 0
M  V30 2135 H 196.057 1.4413 2.57508 0
M  V30 2136 H 196.138 2.33304 1.04895 0
M  V30 2137 H 195.782 4.51316 2.32973 0
M  V30 2138 H 195.712 3.59054 3.85211 0
M  V30 2139 H 198.203 2.85714 2.47338 0
M  V30 2140 H 198.516 6.2329 4.56869 0
M  V30 2141 H 196.861 5.60131 4.11435 0
M  V30 2142 H 200.052 3.59367 2.99955 0
M  V30 2143 H 200.225 5.13291 3.9552 0
M  V30 2144 N 193.631 -1.12557 1.10312 0
M  V30 2145 C 194.578 -2.18247 0.750781 0
M  V30 2146 C 195.548 -1.63853 -0.272293 0
M  V30 2147 O 196.733 -1.90195 -0.151862 0
M  V30 2148 C 193.873 -3.44591 0.187379 0
M  V30 2149 C 192.986 -4.13046 1.2656 0
M  V30 2150 C 192.121 -5.27034 0.663978 0
M  V30 2151 C 191.16 -5.87353 1.72287 0
M  V30 2152 N 190.297 -6.92757 1.1416 0
M  V30 2153 H 195.137 -2.47732 1.65628 0
M  V30 2154 H 192.674 -1.21629 0.827337 0
M  V30 2155 H 194.632 -4.16904 -0.157148 0
M  V30 2156 H 193.262 -3.15527 -0.681355 0
M  V30 2157 H 192.314 -3.38924 1.72727 0
M  V30 2158 H 193.626 -4.53947 2.06721 0
M  V30 2159 H 192.78 -6.06104 0.268824 0
M  V30 2160 H 191.519 -4.87407 -0.169082 0
M  V30 2161 H 190.524 -5.06971 2.12746 0
M  V30 2162 H 191.749 -6.29051 2.55875 0
M  V30 2163 H 189.695 -6.5517 0.329984 0
M  V30 2164 H 189.612 -7.3225 1.88007 0
M  V30 2165 H 190.88 -7.75658 0.772956 0
M  V30 2166 N 195.109 -0.891671 -1.2995 0
M  V30 2167 C 196.056 -0.361736 -2.27948 0
M  V30 2168 C 197.026 0.551761 -1.56668 0
M  V30 2169 O 198.211 0.478736 -1.84696 0
M  V30 2170 C 195.351 0.411825 -3.42634 0
M  V30 2171 C 194.464 -0.531651 -4.28716 0
M  V30 2172 C 193.599 0.258167 -5.30572 0
M  V30 2173 C 192.638 -0.680349 -6.08307 0
M  V30 2174 N 191.775 0.0745613 -7.0206 0
M  V30 2175 H 196.615 -1.20254 -2.72659 0
M  V30 2176 H 194.152 -0.604352 -1.34112 0
M  V30 2177 H 196.11 0.876304 -4.07893 0
M  V30 2178 H 194.74 1.21715 -2.98974 0
M  V30 2179 H 193.792 -1.11463 -3.63703 0
M  V30 2180 H 195.104 -1.25038 -4.82874 0
M  V30 2181 H 194.258 0.784204 -6.0161 0
M  V30 2182 H 192.997 1.01008 -4.77126 0
M  V30 2183 H 192.002 -1.21796 -5.3614 0
M  V30 2184 H 193.227 -1.43145 -6.63842 0
M  V30 2185 H 191.173 0.808883 -6.50994 0
M  V30 2186 H 191.09 -0.584409 -7.53738 0
M  V30 2187 H 192.358 0.581123 -7.77331 0
M  V30 2188 N 196.587 1.43421 -0.653314 0
M  V30 2189 C 197.836 2.01032 -0.164076 0
M  V30 2190 C 198.149 1.52147 1.22926 0
M  V30 2191 O 199.355 2.02031 1.81371 0
M  V30 2192 C 197.811 3.59082 -0.24252 0
M  V30 2193 C 197.419 4.1696 -1.63855 0
M  V30 2194 C 199.163 4.24079 0.18911 0
M  V30 2195 C 197.07 5.67304 -1.67092 0
M  V30 2196 H 196 0.751798 -0.0575769 0
M  V30 2197 H 198.651 1.6439 -0.815362 0
M  V30 2198 H 197.033 3.93125 0.476276 0
M  V30 2199 H 198.207 3.94416 -2.38271 0
M  V30 2200 H 196.522 3.64335 -2.01616 0
M  V30 2201 H 199.119 5.34381 0.184775 0
M  V30 2202 H 199.462 3.98005 1.22056 0
M  V30 2203 H 199.995 3.94918 -0.477938 0
M  V30 2204 H 196.734 5.98145 -2.68146 0
M  V30 2205 H 196.254 5.91904 -0.970014 0
M  V30 2206 H 197.933 6.31344 -1.4147 0
M  V30 2207 N 198.065 0.39524 1.52563 0
M  V30 2208 C 198.997 -0.472201 2.24283 0
M  V30 2209 C 200.01 -1.02178 1.26742 0
M  V30 2210 O 201.199 -0.923097 1.52778 0
M  V30 2211 C 198.299 -1.66775 2.95024 0
M  V30 2212 C 197.472 -1.2445 4.19322 0
M  V30 2213 C 196.531 -2.30539 4.7301 0
M  V30 2214 O 195.557 -1.91702 5.35947 0
M  V30 2215 N 196.759 -3.6253 4.53379 0
M  V30 2216 H 199.524 0.142282 2.99362 0
M  V30 2217 H 197.085 0.2219 1.60372 0
M  V30 2218 H 199.077 -2.37283 3.27839 0
M  V30 2219 H 197.647 -2.18845 2.23217 0
M  V30 2220 H 196.867 -0.368069 3.92478 0
M  V30 2221 H 198.155 -0.938457 5.0007 0
M  V30 2222 H 197.553 -3.96841 4.03154 0
M  V30 2223 H 196.11 -4.29055 4.90668 0
M  V30 2224 N 199.544 -1.57102 0.125237 0
M  V30 2225 C 200.454 -2.19191 -0.8362 0
M  V30 2226 C 201.47 -1.16985 -1.28805 0
M  V30 2227 O 202.646 -1.49479 -1.34974 0
M  V30 2228 C 199.711 -2.78407 -2.06617 0
M  V30 2229 C 198.772 -3.9567 -1.66565 0
M  V30 2230 C 198.005 -4.52052 -2.83698 0
M  V30 2231 O 198.228 -4.07326 -3.99302 0
M  V30 2232 O 197.162 -5.42645 -2.60423 0
M  V30 2233 H 200.988 -3.01816 -0.337776 0
M  V30 2234 H 198.573 -1.4906 -0.100695 0
M  V30 2235 H 200.455 -3.16129 -2.7864 0
M  V30 2236 H 199.13 -1.9881 -2.55453 0
M  V30 2237 H 198.037 -3.62705 -0.916296 0
M  V30 2238 H 199.37 -4.76722 -1.22464 0
M  V30 2239 N 201.022 0.148545 -1.56898 0
M  V30 2240 C 202.268 0.857877 -1.84424 0
M  V30 2241 C 202.623 1.7886 -0.709006 0
M  V30 2242 O 201.916 1.89344 0.293139 0
M  V30 2243 C 202.11 1.67064 -3.1595 0
M  V30 2244 C 201.939 0.82011 -4.42159 0
M  V30 2245 C 200.709 0.486328 -5.02954 0
M  V30 2246 C 202.907 0.151155 -5.14078 0
M  V30 2247 N 200.889 -0.377956 -6.12735 0
M  V30 2248 C 202.26 -0.573333 -6.17343 0
M  V30 2249 C 204.315 0.0716685 -4.97848 0
M  V30 2250 C 203.018 -1.3698 -7.06137 0
M  V30 2251 C 205.044 -0.711532 -5.87104 0
M  V30 2252 C 204.406 -1.42431 -6.8985 0
M  V30 2253 H 200.505 0.291798 -0.725519 0
M  V30 2254 H 203.089 0.123347 -1.94309 0
M  V30 2255 H 201.26 2.37642 -3.07215 0
M  V30 2256 H 202.992 2.32302 -3.31388 0
M  V30 2257 H 199.747 0.821753 -4.66416 0
M  V30 2258 H 200.171 -0.801077 -6.72244 0
M  V30 2259 H 204.813 0.608381 -4.184 0
M  V30 2260 H 202.531 -1.91778 -7.85014 0
M  V30 2261 H 206.117 -0.775005 -5.76615 0
M  V30 2262 H 204.997 -2.02061 -7.57721 0
M  V30 2263 N 202.5 1.5196 0.417844 0
M  V30 2264 C 203.749 1.6482 1.16264 0
M  V30 2265 C 204.062 0.379886 1.91876 0
M  V30 2266 O 205.268 0.388154 2.68711 0
M  V30 2267 C 203.724 2.91161 2.1155 0
M  V30 2268 C 203.332 4.25068 1.41495 0
M  V30 2269 C 205.076 3.13383 2.86341 0
M  V30 2270 C 202.983 5.42541 2.35379 0
M  V30 2271 H 201.913 0.613954 0.437694 0
M  V30 2272 H 204.564 1.78442 0.427871 0
M  V30 2273 H 202.946 2.71218 2.88543 0
M  V30 2274 H 204.12 4.55463 0.699263 0
M  V30 2275 H 202.435 4.0888 0.787792 0
M  V30 2276 H 205.032 3.98324 3.5671 0
M  V30 2277 H 205.375 2.27256 3.48798 0
M  V30 2278 H 205.908 3.33757 2.1645 0
M  V30 2279 H 202.647 6.30987 1.77582 0
M  V30 2280 H 202.167 5.16497 3.04945 0
M  V30 2281 H 203.846 5.75272 2.96093 0
M  V30 2282 N 203.978 -0.674533 1.42435 0
M  V30 2283 C 205.389 -1.25514 1.38214 0
M  V30 2284 C 205.74 -1.96055 0.0755464 0
M  V30 2285 O 204.865 -2.00028 -0.8257 0
M  V30 2286 C 205.46 -2.28269 2.50357 0
M  V30 2287 C 204.019 -2.81856 2.49467 0
M  V30 2288 C 203.166 -1.56182 2.29134 0
M  V30 2289 H 206.117 -0.467902 1.51646 0
M  V30 2290 H 206.138 -3.10009 2.20624 0
M  V30 2291 H 205.65 -1.769 3.45439 0
M  V30 2292 H 203.751 -3.37346 1.58204 0
M  V30 2293 H 203.864 -3.30854 3.46515 0
M  V30 2294 H 202.228 -1.82761 1.774 0
M  V30 2295 H 203.011 -1.06778 3.26272 0
M  V30 2296 N 205.456 -1.28612 -0.910864 0
M  V30 2297 C 206.867 -1.14406 -1.47541 0
M  V30 2298 C 207.218 0.264901 -1.94403 0
M  V30 2299 O 206.343 1.15942 -1.82719 0
M  V30 2300 C 206.938 -2.07073 -2.68153 0
M  V30 2301 C 205.497 -1.96923 -3.20778 0
M  V30 2302 C 204.644 -1.98646 -1.93481 0
M  V30 2303 H 207.595 -1.41259 -0.723291 0
M  V30 2304 H 207.616 -1.63642 -3.43514 0
M  V30 2305 H 207.128 -3.09611 -2.34015 0
M  V30 2306 H 205.229 -0.97433 -3.59635 0
M  V30 2307 H 205.342 -2.84026 -3.85832 0
M  V30 2308 H 203.706 -1.43093 -2.10705 0
M  V30 2309 H 204.489 -3.02868 -1.61634 0
M  V30 2310 N 206.934 1.1197 -1.10907 0
M  V30 2311 C 208.159 1.87942 -0.877064 0
M  V30 2312 C 208.584 1.79341 0.567314 0
M  V30 2313 O 207.942 1.15184 1.40009 0
M  V30 2314 C 207.99 3.34926 -1.33629 0
M  V30 2315 O 207.094 4.09303 -0.504447 0
M  V30 2316 H 206.435 0.583785 -0.316371 0
M  V30 2317 H 208.965 1.4157 -1.47712 0
M  V30 2318 H 208.975 3.8577 -1.32837 0
M  V30 2319 H 207.65 3.40504 -2.3881 0
M  V30 2320 H 206.227 3.68393 -0.577993 0
M  V30 2321 N 208.412 0.89855 1.29475 0
M  V30 2322 C 209.64 0.539261 1.99749 0
M  V30 2323 C 210.055 -0.875716 1.67262 0
M  V30 2324 O 209.412 -1.57786 0.917049 0
M  V30 2325 C 209.463 0.72061 3.54245 0
M  V30 2326 O 209.184 2.07989 3.8558 0
M  V30 2327 C 210.685 0.366118 4.41786 0
M  V30 2328 H 207.905 0.207047 0.638258 0
M  V30 2329 H 210.449 1.20758 1.65039 0
M  V30 2330 H 208.604 0.0994862 3.87272 0
M  V30 2331 H 209.018 2.10841 4.80257 0
M  V30 2332 H 210.492 0.543848 5.49314 0
M  V30 2333 H 210.969 -0.696763 4.33638 0
M  V30 2334 H 211.575 0.964135 4.14228 0
M  V30 2335 N 209.89 -1.43072 0.660911 0
M  V30 2336 C 211.301 -1.84932 0.256348 0
M  V30 2337 C 211.652 -1.55325 -1.19868 0
M  V30 2338 O 210.777 -1.00607 -1.91591 0
M  V30 2339 C 211.372 -3.35684 0.458475 0
M  V30 2340 C 209.931 -3.76245 0.108161 0
M  V30 2341 C 209.078 -2.66749 0.757641 0
M  V30 2342 H 212.029 -1.33116 0.864051 0
M  V30 2343 H 212.05 -3.79365 -0.293683 0
M  V30 2344 H 211.562 -3.572 1.51755 0
M  V30 2345 H 209.663 -3.60338 -0.948014 0
M  V30 2346 H 209.776 -4.76058 0.538992 0
M  V30 2347 H 208.14 -2.53989 0.190185 0
M  V30 2348 H 208.923 -2.91092 1.81989 0
M  V30 2349 N 211.368 -0.403325 -1.52352 0
M  V30 2350 C 212.598 0.17376 -2.05868 0
M  V30 2351 C 213.006 1.39898 -1.27378 0
M  V30 2352 O 212.349 1.80939 -0.31729 0
M  V30 2353 C 212.411 0.594756 -3.54546 0
M  V30 2354 C 212.075 -0.518926 -4.54044 0
M  V30 2355 C 213.072 -1.3807 -5.01231 0
M  V30 2356 C 210.757 -0.689961 -4.97539 0
M  V30 2357 C 212.751 -2.39852 -5.90551 0
M  V30 2358 C 210.438 -1.71109 -5.86656 0
M  V30 2359 C 211.436 -2.56378 -6.33056 0
M  V30 2360 O 211.124 -3.56743 -7.20409 0
M  V30 2361 H 210.856 0.0264951 -0.675481 0
M  V30 2362 H 213.41 -0.571179 -1.97299 0
M  V30 2363 H 211.64 1.39189 -3.60782 0
M  V30 2364 H 213.329 1.0991 -3.90736 0
M  V30 2365 H 214.095 -1.25994 -4.68349 0
M  V30 2366 H 209.974 -0.035939 -4.60986 0
M  V30 2367 H 213.518 -3.06441 -6.26689 0
M  V30 2368 H 209.415 -1.83218 -6.18952 0
M  V30 2369 H 210.183 -3.52918 -7.38506 0
M  V30 2370 N 212.846 1.57033 -0.133567 0
M  V30 2371 C 213.793 2.16074 0.811208 0
M  V30 2372 C 214.763 1.08979 1.2535 0
M  V30 2373 O 215.948 1.36958 1.32843 0
M  V30 2374 C 213.088 2.77595 2.05024 0
M  V30 2375 C 212.201 3.99042 1.65498 0
M  V30 2376 C 211.336 4.48603 2.84479 0
M  V30 2377 C 210.375 5.62547 2.41262 0
M  V30 2378 N 209.512 6.06787 3.53206 0
M  V30 2379 H 214.352 2.96477 0.300906 0
M  V30 2380 H 211.889 1.46462 0.136822 0
M  V30 2381 H 213.847 3.11402 2.77642 0
M  V30 2382 H 212.477 1.99859 2.53488 0
M  V30 2383 H 211.529 3.71302 0.826981 0
M  V30 2384 H 212.841 4.81629 1.29748 0
M  V30 2385 H 211.995 4.84395 3.65303 0
M  V30 2386 H 210.734 3.64995 3.23465 0
M  V30 2387 H 209.739 5.26345 1.58874 0
M  V30 2388 H 210.964 6.47931 2.03377 0
M  V30 2389 H 208.91 5.26117 3.91838 0
M  V30 2390 H 208.827 6.84266 3.21427 0
M  V30 2391 H 210.095 6.4722 4.34427 0
M  V30 2392 O 214.363 -0.00541248 1.61499 0
M  V30 2393 H 215.054 -0.622816 1.83414 0
M  V30 END ATOM
M  V30 BEGIN BOND
M  V30 END BOND
M  V30 END CTAB
M  END
$$$$
