drugbank_target|Q9UIX4 Potassium voltage-gated channel subfamily G member 1 (DB00228; DB01069; DB01110)
 OpenBabel12092121213D

  0  0  0     0  0            999 V3000
M  V30 BEGIN CTAB
M  V30 COUNTS 8140 8223 0 0 0
M  V30 BEGIN ATOM
M  V30 1 H -0.908 1.98254 -0.117106 0
M  V30 2 N 0 1.576 0 0
M  V30 3 C 0.933 2.03868 1.02534 0
M  V30 4 C 1.911 0.928543 1.3348 0
M  V30 5 O 3.095 1.19667 1.45644 0
M  V30 6 C 0.222 2.43627 2.35294 0
M  V30 7 C -0.732 3.65373 2.2001 0
M  V30 8 S 0.101 5.13292 1.52614 0
M  V30 9 C 1.257 5.56322 2.86805 0
M  V30 10 H 1.49 2.90518 0.631377 0
M  V30 11 H -0.977 1.52953 0.210867 0
M  V30 12 H 0.981 2.67203 3.11629 0
M  V30 13 H -0.358 1.57376 2.7183 0
M  V30 14 H -1.165 3.90944 3.18086 0
M  V30 15 H -1.563 3.418 1.51819 0
M  V30 16 H 0.729 5.58782 3.83104 0
M  V30 17 H 1.672 6.56266 2.65933 0
M  V30 18 H 2.08 4.83886 2.90714 0
M  V30 19 N 1.4781 -0.272755 1.55222 0
M  V30 20 C 2.7061 -1.02255 1.79865 0
M  V30 21 C 3.1211 -1.79924 0.572088 0
M  V30 22 O 2.4781 -1.76638 -0.458842 0
M  V30 23 C 2.5291 -1.98094 3.02392 0
M  V30 24 O 2.2501 -1.23572 4.20311 0
M  V30 25 C 3.7511 -2.84884 3.39641 0
M  V30 26 H 0.9711 -0.302057 0.599168 0
M  V30 27 H 3.5151 -0.303465 2.02236 0
M  V30 28 H 1.6701 -2.65465 2.82147 0
M  V30 29 H 2.0841 -1.88172 4.89583 0
M  V30 30 H 3.5581 -3.47927 4.28545 0
M  V30 31 H 4.0351 -3.54665 2.59055 0
M  V30 32 H 4.6411 -2.23003 3.62146 0
M  V30 33 N 2.9562 -1.48159 -0.537278 0
M  V30 34 C 3.8862 -1.65029 -1.6519 0
M  V30 35 C 4.8672 -0.499281 -1.62607 0
M  V30 36 O 6.0522 -0.730972 -1.79918 0
M  V30 37 C 3.1822 -1.68303 -3.03795 0
M  V30 38 C 2.1362 -2.8283 -3.21234 0
M  V30 39 C 1.4622 -2.71189 -4.60826 0
M  V30 40 C 2.7622 -4.24211 -3.04701 0
M  V30 41 H 4.4562 -2.58341 -1.51328 0
M  V30 42 H 2.0022 -1.24325 -0.726585 0
M  V30 43 H 3.9552 -1.78693 -3.81637 0
M  V30 44 H 2.6792 -0.715635 -3.18663 0
M  V30 45 H 1.3382 -2.71983 -2.45807 0
M  V30 46 H 0.9862 -1.72435 -4.7252 0
M  V30 47 H 0.6862 -3.48035 -4.7344 0
M  V30 48 H 2.2102 -2.83537 -5.40777 0
M  V30 49 H 3.6242 -4.3593 -3.72341 0
M  V30 50 H 2.0212 -5.01998 -3.28813 0
M  V30 51 H 3.0912 -4.41184 -2.01209 0
M  V30 52 N 4.4343 0.785586 -1.36625 0
M  V30 53 C 5.3643 1.91259 -1.33949 0
M  V30 54 C 6.3453 1.68795 -0.210325 0
M  V30 55 O 7.5303 1.89854 -0.408561 0
M  V30 56 C 4.6603 3.28339 -1.13186 0
M  V30 57 C 3.6143 3.65335 -2.22967 0
M  V30 58 C 2.9403 5.00806 -1.87342 0
M  V30 59 C 4.2403 3.7352 -3.65075 0
M  V30 60 H 5.9343 1.93755 -2.28253 0
M  V30 61 H 3.4803 0.930788 -1.09874 0
M  V30 62 H 5.4333 4.06804 -1.09948 0
M  V30 63 H 4.1573 3.2624 -0.153332 0
M  V30 64 H 2.8163 2.89169 -2.25337 0
M  V30 65 H 2.4643 4.95233 -0.880545 0
M  V30 66 H 2.1643 5.26529 -2.60846 0
M  V30 67 H 3.6883 5.81687 -1.85667 0
M  V30 68 H 5.1023 4.42168 -3.64911 0
M  V30 69 H 3.4993 4.10731 -4.37516 0
M  V30 70 H 4.5693 2.74527 -3.99703 0
M  V30 71 N 5.9124 1.20967 1.01018 0
M  V30 72 C 7.3234 1.02319 1.56165 0
M  V30 73 C 7.6744 -0.418546 1.91684 0
M  V30 74 O 6.7994 -1.30096 1.72928 0
M  V30 75 C 7.3944 1.85109 2.8376 0
M  V30 76 C 5.9534 1.70809 3.35412 0
M  V30 77 C 5.1004 1.82643 2.08655 0
M  V30 78 H 8.0514 1.35065 0.833255 0
M  V30 79 H 8.0724 1.35827 3.55431 0
M  V30 80 H 7.5844 2.90035 2.57878 0
M  V30 81 H 5.6854 0.685464 3.66241 0
M  V30 82 H 5.7984 2.52467 4.07182 0
M  V30 83 H 4.1624 1.25896 2.21409 0
M  V30 84 H 4.9454 2.89066 1.85191 0
M  V30 85 N 7.3905 -1.2043 1.01659 0
M  V30 86 C 8.6385 -1.89423 0.704522 0
M  V30 87 C 8.9595 -1.79231 -0.768197 0
M  V30 88 O 8.2295 -1.1947 -1.55254 0
M  V30 89 H 6.8095 -0.701178 0.257602 0
M  V30 90 H 9.4715 -1.4626 1.28818 0
M  V30 91 H 8.5675 -2.96052 0.987916 0
M  V30 92 N 8.8686 -0.792821 -1.36206 0
M  V30 93 C 10.1456 -0.290627 -1.93429 0
M  V30 94 C 10.5256 1.21773 -1.72437 0
M  V30 95 O 9.8736 2.0108 -1.08531 0
M  V30 96 C 10.0836 -0.686973 -3.42172 0
M  V30 97 C 11.4316 -0.668643 -4.19302 0
M  V30 98 O 12.4556 -0.627658 -3.50626 0
M  V30 99 O 11.3146 -0.714597 -5.41808 0
M  V30 100 H 8.4086 -0.0727927 -0.82379 0
M  V30 101 H 10.9546 -0.875593 -1.45367 0
M  V30 102 H 9.7266 -1.72711 -3.51122 0
M  V30 103 H 9.3496 -0.0760733 -3.97527 0
M  V30 104 N 10.3467 1.47872 -0.545128 0
M  V30 105 C 11.2947 2.31533 0.222512 0
M  V30 106 C 12.2887 1.42177 0.920985 0
M  V30 107 O 13.4947 1.59005 0.843645 0
M  V30 108 H 9.8697 0.746519 0.0906278 0
M  V30 109 H 11.8407 2.94139 -0.50246 0
M  V30 110 C 10.5897 3.2457 1.24699 0
M  V30 111 H 9.9127 3.93283 0.718944 0
M  V30 112 H 11.3527 3.85963 1.75523 0
M  V30 113 C 9.8117 2.47237 2.28856 0
M  V30 114 O 10.3417 2.20808 3.35569 0
M  V30 115 N 8.5477 2.08461 2.02466 0
M  V30 116 H 8.0947 2.30155 1.157 0
M  V30 117 H 8.0527 1.57033 2.72375 0
M  V30 118 N 11.8248 0.280983 1.55075 0
M  V30 119 C 13.0498 -0.340154 2.04592 0
M  V30 120 C 13.4748 -1.48246 1.15779 0
M  V30 121 O 12.8328 -1.80614 0.15761 0
M  V30 122 C 12.8808 -0.793104 3.5177 0
M  V30 123 O 11.9848 -1.89981 3.66034 0
M  V30 124 H 11.3258 -0.0694289 0.66036 0
M  V30 125 H 13.8558 0.416993 2.00306 0
M  V30 126 H 13.8658 -1.08729 3.93245 0
M  V30 127 H 12.5408 0.0426163 4.15878 0
M  V30 128 H 11.1178 -1.60771 3.36463 0
M  V30 129 N 13.3029 -1.57598 0.00835791 0
M  V30 130 C 14.5799 -1.82172 -0.712235 0
M  V30 131 C 14.9599 -0.887873 -1.9152 0
M  V30 132 O 14.3079 0.06146 -2.28417 0
M  V30 133 C 14.5179 -3.30875 -1.11008 0
M  V30 134 C 15.8659 -3.96826 -1.51044 0
M  V30 135 O 16.8899 -3.35248 -1.20364 0
M  V30 136 O 15.7489 -5.05318 -2.08125 0
M  V30 137 H 12.8429 -0.750435 -0.347529 0
M  V30 138 H 15.3889 -1.69665 0.0344523 0
M  V30 139 H 14.1609 -3.90481 -0.252982 0
M  V30 140 H 13.7839 -3.48412 -1.9156 0
M  V30 141 N 14.781 0.264519 -1.55364 0
M  V30 142 C 16.011 1.01153 -1.80143 0
M  V30 143 C 16.419 1.80115 -0.579253 0
M  V30 144 O 15.762 1.77813 0.46132 0
M  V30 145 C 15.824 2.01098 -2.97993 0
M  V30 146 C 15.488 1.40995 -4.34706 0
M  V30 147 C 16.485 0.821316 -5.13372 0
M  V30 148 C 14.17 1.43461 -4.81378 0
M  V30 149 C 16.164 0.265339 -6.36847 0
M  V30 150 C 13.851 0.874771 -6.04807 0
M  V30 151 C 14.849 0.291146 -6.82379 0
M  V30 152 O 14.537 -0.260093 -8.03479 0
M  V30 153 H 14.269 0.304125 -0.603725 0
M  V30 154 H 16.823 0.298089 -2.03225 0
M  V30 155 H 15.053 2.76224 -2.70623 0
M  V30 156 H 16.742 2.61997 -3.1002 0
M  V30 157 H 17.508 0.794903 -4.78442 0
M  V30 158 H 13.387 1.87826 -4.21002 0
M  V30 159 H 16.931 -0.190837 -6.97339 0
M  V30 160 H 12.828 0.898452 -6.39217 0
M  V30 161 H 13.596 -0.150265 -8.18362 0
M  V30 162 N 16.2591 1.48442 0.529413 0
M  V30 163 C 17.5361 1.46978 1.29062 0
M  V30 164 C 17.9161 0.181769 2.10316 0
M  V30 165 O 17.2641 -0.836481 2.12639 0
M  V30 166 C 17.4741 2.7321 2.17157 0
M  V30 167 C 18.8221 3.21562 2.77278 0
M  V30 168 O 19.8461 2.74131 2.27444 0
M  V30 169 O 18.7051 4.04094 3.67927 0
M  V30 170 H 15.7991 0.587003 0.582543 0
M  V30 171 H 18.3451 1.60676 0.546021 0
M  V30 172 H 17.1171 3.58465 1.56903 0
M  V30 173 H 16.7401 2.62235 2.98862 0
M  V30 174 N 17.7372 -0.778329 1.37039 0
M  V30 175 C 18.9672 -1.56507 1.34868 0
M  V30 176 C 19.3752 -1.89072 -0.0694802 0
M  V30 177 O 18.7182 -1.51434 -1.03987 0
M  V30 178 C 18.7802 -2.90641 2.11585 0
M  V30 179 C 18.4442 -2.80746 3.60598 0
M  V30 180 C 19.4412 -2.52226 4.54618 0
M  V30 181 C 17.1262 -2.98974 4.03633 0
M  V30 182 C 19.1202 -2.42054 5.89651 0
M  V30 183 C 16.8072 -2.88423 5.38754 0
M  V30 184 C 17.8052 -2.60002 6.31576 0
M  V30 185 O 17.4932 -2.49465 7.64214 0
M  V30 186 H 17.2252 -0.491723 0.463879 0
M  V30 187 H 19.7792 -0.973053 1.80889 0
M  V30 188 H 18.0092 -3.51936 1.60243 0
M  V30 189 H 19.6982 -3.51992 2.0213 0
M  V30 190 H 20.4642 -2.37835 4.22681 0
M  V30 191 H 16.3432 -3.20099 3.31749 0
M  V30 192 H 19.8872 -2.19791 6.62071 0
M  V30 193 H 15.7842 -3.0238 5.70295 0
M  V30 194 H 16.5522 -2.64864 7.74461 0
M  V30 195 N 19.2153 -1.21501 -1.00376 0
M  V30 196 C 20.4403 -1.05977 -1.78279 0
M  V30 197 C 20.8653 0.385994 -1.84097 0
M  V30 198 O 20.2233 1.27849 -1.28547 0
M  V30 199 C 20.2713 -1.66302 -3.19963 0
M  V30 200 O 19.3753 -0.909333 -4.0225 0
M  V30 201 H 18.7163 -0.372906 -0.549397 0
M  V30 202 H 21.2463 -1.6107 -1.26165 0
M  V30 203 H 21.2563 -1.70574 -3.70632 0
M  V30 204 H 19.9313 -2.71515 -3.15043 0
M  V30 205 H 18.5083 -0.941795 -3.60811 0
M  V30 206 N 20.6934 1.19889 -1.02296 0
M  V30 207 C 21.6564 2.21116 -0.603351 0
M  V30 208 C 22.6564 1.5738 0.329884 0
M  V30 209 O 23.8464 1.73802 0.117702 0
M  V30 210 C 20.9784 3.40696 0.117992 0
M  V30 211 H 22.1714 2.59754 -1.49893 0
M  V30 212 H 19.7244 1.33463 -0.813468 0
M  V30 213 H 20.4594 3.07569 1.0282 0
M  V30 214 H 20.2444 3.88188 -0.552511 0
M  V30 215 H 21.7344 4.15692 0.398696 0
M  V30 216 N 22.1715 0.800033 1.35784 0
M  V30 217 C 23.1015 0.220184 2.3246 0
M  V30 218 C 24.0825 -0.65073 1.57161 0
M  V30 219 O 25.2675 -0.582359 1.85263 0
M  V30 220 C 22.3975 -0.637353 3.41402 0
M  V30 221 C 21.3515 0.134531 4.27789 0
M  V30 222 C 20.6775 -0.844285 5.27992 0
M  V30 223 C 21.9775 1.32979 5.05088 0
M  V30 224 H 23.6715 1.02787 2.81203 0
M  V30 225 H 21.2175 0.495717 1.35199 0
M  V30 226 H 23.1705 -1.05302 4.08031 0
M  V30 227 H 21.8945 -1.47785 2.91251 0
M  V30 228 H 20.5535 0.531296 3.6273 0
M  V30 229 H 20.2015 -1.68011 4.74111 0
M  V30 230 H 19.9015 -0.332184 5.8666 0
M  V30 231 H 21.4255 -1.2583 5.97494 0
M  V30 232 H 22.8395 0.98934 5.64699 0
M  V30 233 H 21.2365 1.77593 5.7322 0
M  V30 234 H 22.3065 2.11978 4.36111 0
M  V30 235 N 23.6496 -1.47581 0.552962 0
M  V30 236 C 24.8746 -2.07378 0.0300593 0
M  V30 237 C 25.2996 -1.40355 -1.25229 0
M  V30 238 O 24.6576 -0.477099 -1.7491 0
M  V30 239 C 24.7056 -3.60274 -0.153231 0
M  V30 240 O 23.8096 -3.94041 -1.21678 0
M  V30 241 H 23.1506 -0.662158 0.0494182 0
M  V30 242 H 25.6806 -1.89662 0.767434 0
M  V30 243 H 25.6906 -4.0633 -0.368761 0
M  V30 244 H 24.3656 -4.08455 0.783397 0
M  V30 245 H 22.9426 -3.59735 -0.982079 0
M  V30 246 N 25.1277 -0.289203 -1.54924 0
M  V30 247 C 26.3677 0.324536 -2.01807 0
M  V30 248 C 26.7317 1.5199 -1.17316 0
M  V30 249 O 27.9327 2.20422 -1.53843 0
M  V30 250 C 26.2037 0.683578 -3.50802 0
M  V30 251 S 27.7627 1.28185 -4.19659 0
M  V30 252 H 24.5807 0.100236 -0.703899 0
M  V30 253 H 27.1827 -0.414325 -1.91059 0
M  V30 254 H 25.8867 -0.195073 -4.09936 0
M  V30 255 H 25.4177 1.45354 -3.65562 0
M  V30 256 H 27.4327 2.57006 -4.24456 0
M  V30 257 N 26.6058 1.57591 -0.0167156 0
M  V30 258 C 27.8338 1.95575 0.675128 0
M  V30 259 C 28.2488 0.892542 1.6637 0
M  V30 260 O 27.6058 -0.126912 1.82058 0
M  V30 261 C 27.6568 3.33608 1.39239 0
M  V30 262 O 27.3778 4.3585 0.443444 0
M  V30 263 C 28.8788 3.86151 2.17721 0
M  V30 264 H 26.0988 0.644423 0.186978 0
M  V30 265 H 28.6428 2.0437 -0.0728 0
M  V30 266 H 26.7978 3.2607 2.09182 0
M  V30 267 H 27.2118 5.158 0.951358 0
M  V30 268 H 28.6858 4.85114 2.63379 0
M  V30 269 H 29.1628 3.19738 3.01105 0
M  V30 270 H 29.7688 3.96918 1.52761 0
M  V30 271 N 28.0839 -0.256276 1.55502 0
M  V30 272 C 29.3089 -1.00766 1.81276 0
M  V30 273 C 29.7339 -1.78524 0.59252 0
M  V30 274 O 29.0919 -1.75413 -0.45827 0
M  V30 275 C 29.1399 -1.92869 3.04687 0
M  V30 276 O 28.2439 -3.019 2.80945 0
M  V30 277 H 27.5849 -0.287224 0.598664 0
M  V30 278 H 30.1149 -0.280109 2.02674 0
M  V30 279 H 30.1249 -2.34511 3.33869 0
M  V30 280 H 28.7999 -1.35689 3.93143 0
M  V30 281 H 27.3769 -2.64454 2.62904 0
M  V30 282 N 29.562 -1.4872 -0.521534 0
M  V30 283 C 30.839 -1.4766 -1.2828 0
M  V30 284 C 31.219 -0.19292 -2.10217 0
M  V30 285 O 30.567 0.825193 -2.13079 0
M  V30 286 C 30.777 -2.74358 -2.15705 0
M  V30 287 C 32.125 -3.23028 -2.75569 0
M  V30 288 O 33.149 -2.75333 -2.25987 0
M  V30 289 O 32.008 -4.0604 -3.65778 0
M  V30 290 H 29.102 -0.590085 -0.579421 0
M  V30 291 H 31.648 -1.60963 -0.537492 0
M  V30 292 H 30.42 -3.59292 -1.54999 0
M  V30 293 H 30.043 -2.63816 -2.97467 0
M  V30 294 N 31.0401 0.771051 -1.3745 0
M  V30 295 C 32.0031 1.86598 -1.33093 0
M  V30 296 C 33.0031 1.59076 -0.234845 0
M  V30 297 O 34.1931 1.67145 -0.490732 0
M  V30 298 C 31.3251 3.23747 -1.06773 0
M  V30 299 H 32.5181 1.91873 -2.30488 0
M  V30 300 H 30.0711 0.970876 -1.2249 0
M  V30 301 H 30.8061 3.24148 -0.099129 0
M  V30 302 H 30.5911 3.45115 -1.86112 0
M  V30 303 H 32.0811 4.03824 -1.06377 0
M  V30 304 N 32.5182 1.22032 0.997298 0
M  V30 305 C 33.7432 1.06921 1.77715 0
M  V30 306 C 34.1682 -0.376226 1.84299 0
M  V30 307 O 33.5262 -1.27165 1.29223 0
M  V30 308 C 33.5742 1.67996 3.19076 0
M  V30 309 O 32.6782 0.930653 4.01762 0
M  V30 310 H 32.0192 0.375814 0.547412 0
M  V30 311 H 34.5492 1.61737 1.25309 0
M  V30 312 H 34.5592 1.72538 3.69723 0
M  V30 313 H 33.2342 2.73182 3.13599 0
M  V30 314 H 31.8112 0.960917 3.60307 0
M  V30 315 N 33.9963 -1.19345 1.0293 0
M  V30 316 C 35.2433 -1.89038 0.726008 0
M  V30 317 C 35.5713 -1.79649 -0.745427 0
M  V30 318 O 34.8263 -1.18354 -1.55855 0
M  V30 319 C 35.1253 -3.39292 1.12319 0
M  V30 320 C 34.7913 -3.68885 2.59297 0
M  V30 321 C 33.4533 -3.76671 2.99453 0
M  V30 322 C 35.8053 -3.82178 3.54386 0
M  V30 323 C 33.1333 -3.9522 4.33611 0
M  V30 324 C 35.4853 -4.0224 4.88248 0
M  V30 325 C 34.1493 -4.08259 5.28092 0
M  V30 326 H 33.4193 -0.691739 0.265665 0
M  V30 327 H 36.0663 -1.41328 1.29223 0
M  V30 328 H 34.3713 -3.88903 0.475584 0
M  V30 329 H 36.0683 -3.91536 0.866037 0
M  V30 330 H 32.6583 -3.63433 2.27189 0
M  V30 331 H 36.8423 -3.75505 3.24514 0
M  V30 332 H 32.0983 -3.98119 4.64016 0
M  V30 333 H 36.2723 -4.11468 5.61843 0
M  V30 334 H 33.8993 -4.22384 6.32057 0
M  V30 335 N 35.4744 -0.807222 -1.35358 0
M  V30 336 C 36.4244 -0.190706 -2.27201 0
M  V30 337 C 37.4084 0.635838 -1.47804 0
M  V30 338 O 38.6004 0.492991 -1.69996 0
M  V30 339 C 35.7294 0.659337 -3.36909 0
M  V30 340 C 34.8154 -0.176971 -4.23731 0
M  V30 341 N 35.2064 -1.24029 -4.90357 0
M  V30 342 C 33.5044 0.0412953 -4.45981 0
M  V30 343 C 34.2054 -1.75092 -5.54723 0
M  V30 344 N 33.1814 -1.05727 -5.33219 0
M  V30 345 H 36.9834 -1.0043 -2.76208 0
M  V30 346 H 34.4974 -0.648445 -1.48892 0
M  V30 347 H 36.4944 1.11706 -4.01656 0
M  V30 348 H 35.1544 1.47127 -2.89454 0
M  V30 349 H 36.1654 -1.62295 -4.91814 0
M  V30 350 H 32.8424 0.82232 -4.09322 0
M  V30 351 H 34.2324 -2.63963 -6.17878 0
M  V30 352 N 36.9525 1.47285 -0.560781 0
M  V30 353 C 38.3635 1.86258 -0.128343 0
M  V30 354 C 38.7145 1.46699 1.30284 0
M  V30 355 O 37.8395 0.871698 1.98067 0
M  V30 356 C 38.4345 3.38044 -0.22614 0
M  V30 357 C 36.9935 3.76096 0.151283 0
M  V30 358 C 36.1405 2.71335 -0.572084 0
M  V30 359 H 39.0915 1.38752 -0.770297 0
M  V30 360 H 39.1125 3.76441 0.554322 0
M  V30 361 H 38.6245 3.66806 -1.26788 0
M  V30 362 H 36.7255 3.52951 1.19399 0
M  V30 363 H 36.8385 4.78641 -0.209765 0
M  V30 364 H 35.2025 2.54696 -0.0147653 0
M  V30 365 H 35.9855 3.02938 -1.61504 0
M  V30 366 N 38.4306 0.297415 1.54768 0
M  V30 367 C 39.3936 -0.567375 2.22066 0
M  V30 368 C 40.3936 -1.06409 1.20556 0
M  V30 369 O 41.5836 -0.960691 1.45315 0
M  V30 370 C 38.7156 -1.78517 2.90421 0
M  V30 371 H 39.9086 0.0205534 2.99893 0
M  V30 372 H 37.4616 0.0482163 1.56226 0
M  V30 373 H 38.1966 -2.41303 2.16664 0
M  V30 374 H 37.9816 -1.43669 3.64831 0
M  V30 375 H 39.4716 -2.39964 3.41771 0
M  V30 376 N 39.9087 -1.5758 0.0250728 0
M  V30 377 C 41.1557 -1.91633 -0.654444 0
M  V30 378 C 41.4837 -0.901103 -1.72367 0
M  V30 379 O 40.7387 0.0905647 -1.9549 0
M  V30 380 C 41.0377 -3.32421 -1.31268 0
M  V30 381 C 40.7037 -4.49344 -0.374223 0
M  V30 382 C 39.3657 -4.8106 -0.115911 0
M  V30 383 C 41.7177 -5.20498 0.270432 0
M  V30 384 C 39.0457 -5.8129 0.79493 0
M  V30 385 C 41.3977 -6.21699 1.1693 0
M  V30 386 C 40.0617 -6.51859 1.43655 0
M  V30 387 H 39.3317 -0.701236 -0.239478 0
M  V30 388 H 41.9787 -1.91307 0.0859734 0
M  V30 389 H 40.2837 -3.28989 -2.12775 0
M  V30 390 H 41.9807 -3.56038 -1.84494 0
M  V30 391 H 38.5707 -4.24579 -0.58573 0
M  V30 392 H 42.7547 -4.96229 0.0839194 0
M  V30 393 H 38.0107 -6.03005 1.00973 0
M  V30 394 H 42.1847 -6.75955 1.67504 0
M  V30 395 H 39.8117 -7.2934 2.144 0
M  V30 396 N 41.3868 0.248026 -1.55636 0
M  V30 397 C 42.3168 1.31079 -1.93237 0
M  V30 398 C 43.2978 1.50264 -0.797174 0
M  V30 399 O 44.4828 1.62891 -1.05737 0
M  V30 400 C 41.6128 2.66575 -2.22609 0
M  V30 401 C 40.5668 2.62087 -3.3837 0
M  V30 402 C 39.8928 4.01369 -3.53281 0
M  V30 403 C 41.1928 2.19171 -4.7409 0
M  V30 404 H 42.8868 0.998556 -2.82257 0
M  V30 405 H 40.4328 0.47891 -1.35803 0
M  V30 406 H 42.3858 3.41057 -2.47503 0
M  V30 407 H 41.1098 2.99432 -1.30414 0
M  V30 408 H 39.7688 1.90063 -3.13483 0
M  V30 409 H 39.4168 4.31489 -2.58508 0
M  V30 410 H 39.1168 3.99254 -4.31127 0
M  V30 411 H 40.6408 4.77552 -3.80495 0
M  V30 412 H 42.0548 2.83384 -4.98363 0
M  V30 413 H 40.4518 2.2817 -5.5503 0
M  V30 414 H 41.5218 1.14336 -4.71227 0
M  V30 415 N 42.8649 1.48995 0.513639 0
M  V30 416 C 44.2759 1.5119 1.09537 0
M  V30 417 C 44.6269 0.290906 1.94031 0
M  V30 418 O 43.7519 -0.60049 2.07902 0
M  V30 419 C 44.3469 2.73964 1.99322 0
M  V30 420 C 42.9059 2.78978 2.52682 0
M  V30 421 C 42.0529 2.44934 1.30009 0
M  V30 422 H 45.0039 1.55875 0.298125 0
M  V30 423 H 45.0249 2.53409 2.83838 0
M  V30 424 H 44.5369 3.62813 1.37799 0
M  V30 425 H 42.6379 1.94378 3.1788 0
M  V30 426 H 42.7509 3.8083 2.90698 0
M  V30 427 H 41.1149 1.9644 1.62122 0
M  V30 428 H 41.8979 3.36043 0.702131 0
M  V30 429 N 44.343 -0.763751 1.37857 0
M  V30 430 C 45.275 -1.88664 1.30148 0
M  V30 431 C 46.288 -1.61365 0.215685 0
M  V30 432 O 47.477 -1.72134 0.472459 0
M  V30 433 C 44.577 -3.24075 0.991396 0
M  V30 434 C 43.75 -3.78958 2.18426 0
M  V30 435 C 42.809 -4.92862 1.8432 0
M  V30 436 O 41.835 -5.08027 2.56704 0
M  V30 437 N 43.037 -5.75071 0.792081 0
M  V30 438 H 45.802 -1.95791 2.26905 0
M  V30 439 H 43.363 -0.943226 1.31586 0
M  V30 440 H 45.355 -3.97804 0.743935 0
M  V30 441 H 43.925 -3.12399 0.112122 0
M  V30 442 H 43.145 -2.96913 2.59299 0
M  V30 443 H 44.433 -4.12357 2.98058 0
M  V30 444 H 43.831 -5.65375 0.191595 0
M  V30 445 H 42.388 -6.48991 0.60449 0
M  V30 446 N 45.8211 -1.22559 -0.990812 0
M  V30 447 C 47.2371 -0.985996 -1.255 0
M  V30 448 C 47.4371 0.319173 -1.98956 0
M  V30 449 O 46.4931 1.04127 -2.3003 0
M  V30 450 C 47.8061 -2.18607 -2.06474 0
M  V30 451 C 49.3541 -2.22985 -2.19651 0
M  V30 452 C 49.8291 -3.4255 -3.04012 0
M  V30 453 N 51.3201 -3.42725 -3.11599 0
M  V30 454 C 52.0551 -4.31892 -3.7717 0
M  V30 455 N 51.5511 -5.31279 -4.44651 0
M  V30 456 N 53.3441 -4.19662 -3.73952 0
M  V30 457 H 45.4951 -2.06469 -0.49841 0
M  V30 458 H 47.7581 -0.904853 -0.282747 0
M  V30 459 H 47.4641 -3.13267 -1.59865 0
M  V30 460 H 47.3381 -2.18838 -3.07229 0
M  V30 461 H 49.7251 -1.28871 -2.65474 0
M  V30 462 H 49.8061 -2.26791 -1.18319 0
M  V30 463 H 49.4501 -4.36965 -2.58889 0
M  V30 464 H 49.3801 -3.35984 -4.0549 0
M  V30 465 H 51.8711 -2.70807 -2.63575 0
M  V30 466 H 52.1841 -5.95593 -4.92431 0
M  V30 467 H 50.5291 -5.3519 -4.43392 0
M  V30 468 H 53.7201 -3.41268 -3.20396 0
M  V30 469 H 53.8931 -4.89358 -4.24774 0
M  V30 470 N 47.2992 1.18797 -1.03562 0
M  V30 471 C 48.2312 2.21731 -0.580337 0
M  V30 472 C 49.2442 1.59051 0.347349 0
M  V30 473 O 50.4332 1.77929 0.142669 0
M  V30 474 C 47.5332 3.38459 0.172805 0
M  V30 475 C 46.7062 4.3072 -0.761496 0
M  V30 476 C 45.7652 5.26174 -0.0525547 0
M  V30 477 O 44.7912 5.65108 -0.681333 0
M  V30 478 N 45.9932 5.67624 1.21586 0
M  V30 479 H 48.7582 2.61417 -1.46565 0
M  V30 480 H 46.3192 1.33531 -0.915476 0
M  V30 481 H 48.3112 3.99335 0.656793 0
M  V30 482 H 46.8812 2.97507 0.959602 0
M  V30 483 H 46.1012 3.67525 -1.42544 0
M  V30 484 H 47.3892 4.89267 -1.39626 0
M  V30 485 H 46.7872 5.38038 1.74732 0
M  V30 486 H 45.3442 6.30721 1.64421 0
M  V30 487 N 48.7773 0.814389 1.34928 0
M  V30 488 C 49.7403 0.235759 2.27984 0
M  V30 489 C 50.7403 -0.581412 1.49921 0
M  V30 490 O 51.9303 -0.398758 1.69575 0
M  V30 491 C 49.0623 -0.670433 3.34242 0
M  V30 492 H 50.2553 1.05659 2.80671 0
M  V30 493 H 47.8083 0.585614 1.44915 0
M  V30 494 H 48.5433 -1.51466 2.86755 0
M  V30 495 H 48.3283 -0.0860822 3.92005 0
M  V30 496 H 49.8183 -1.06935 4.03676 0
M  V30 497 N 50.2554 -1.46986 0.568584 0
M  V30 498 C 51.5044 -2.01646 0.0465894 0
M  V30 499 C 51.8174 -1.44721 -1.31587 0
M  V30 500 O 53.0234 -1.91113 -1.92842 0
M  V30 501 C 51.4794 -3.59885 0.032752 0
M  V30 502 C 51.0874 -4.25804 1.39266 0
M  V30 503 C 52.8314 -4.22255 -0.436038 0
M  V30 504 C 50.7384 -5.76081 1.33732 0
M  V30 505 H 49.6684 -0.753876 0.013647 0
M  V30 506 H 52.3194 -1.68864 0.718131 0
M  V30 507 H 50.7014 -3.8968 -0.704669 0
M  V30 508 H 51.8754 -4.07637 2.1487 0
M  V30 509 H 50.1904 -3.7547 1.80032 0
M  V30 510 H 52.7874 -5.32394 -0.49602 0
M  V30 511 H 53.1304 -3.90212 -1.45053 0
M  V30 512 H 53.6634 -3.97033 0.246877 0
M  V30 513 H 50.4024 -6.12761 2.32817 0
M  V30 514 H 49.9224 -5.96553 0.623267 0
M  V30 515 H 51.6014 -6.38518 1.0442 0
M  V30 516 N 51.7335 -0.305618 -1.54608 0
M  V30 517 C 52.6805 0.568421 -2.23691 0
M  V30 518 C 53.6505 1.12592 -1.22116 0
M  V30 519 O 54.8355 1.16959 -1.50749 0
M  V30 520 C 51.9755 1.7322 -2.98477 0
M  V30 521 C 51.0885 1.20566 -4.14835 0
M  V30 522 C 50.2235 2.33368 -4.77193 0
M  V30 523 C 49.2625 1.7787 -5.85686 0
M  V30 524 N 48.3995 2.84263 -6.4198 0
M  V30 525 H 53.2395 -0.0272867 -2.97988 0
M  V30 526 H 50.7765 -0.0252363 -1.47078 0
M  V30 527 H 52.7345 2.41675 -3.40072 0
M  V30 528 H 51.3645 2.29947 -2.26548 0
M  V30 529 H 50.4165 0.413223 -3.78149 0
M  V30 530 H 51.7285 0.759417 -4.92985 0
M  V30 531 H 50.8825 3.09761 -5.21664 0
M  V30 532 H 49.6215 2.8132 -3.98385 0
M  V30 533 H 48.6265 0.99968 -5.40635 0
M  V30 534 H 49.8515 1.30816 -6.66381 0
M  V30 535 H 47.7975 3.31541 -5.66053 0
M  V30 536 H 47.7145 2.44149 -7.15491 0
M  V30 537 H 48.9825 3.6054 -6.91109 0
M  V30 538 N 53.2116 1.57565 -0.0334293 0
M  V30 539 C 54.4596 1.91598 0.642999 0
M  V30 540 C 54.7806 0.910847 1.7242 0
M  V30 541 O 54.0506 -0.0469931 1.95844 0
M  V30 542 H 52.6306 0.707228 0.240496 0
M  V30 543 H 55.2926 1.94726 -0.0822488 0
M  V30 544 H 54.3886 2.92336 1.09298 0
M  V30 545 N 54.6897 -0.239769 1.55765 0
M  V30 546 C 55.6527 -1.28038 1.90103 0
M  V30 547 C 56.6527 -1.40723 0.778055 0
M  V30 548 O 57.8427 -1.39301 1.04599 0
M  V30 549 C 54.9747 -2.65702 2.13577 0
M  V30 550 H 56.1677 -0.988048 2.83157 0
M  V30 551 H 53.7207 -0.479382 1.48767 0
M  V30 552 H 54.4557 -3.00063 1.23015 0
M  V30 553 H 54.2407 -2.57875 2.95369 0
M  V30 554 H 55.7307 -3.40828 2.41301 0
M  V30 555 N 56.1678 -1.49265 -0.50573 0
M  V30 556 C 57.4148 -1.58513 -1.26015 0
M  V30 557 C 57.7428 -0.26972 -1.92621 0
M  V30 558 O 56.9978 0.741997 -1.81088 0
M  V30 559 C 57.2968 -2.69008 -2.35308 0
M  V30 560 C 56.9628 -4.10662 -1.86192 0
M  V30 561 C 55.6248 -4.49212 -1.72516 0
M  V30 562 C 57.9768 -4.99336 -1.49375 0
M  V30 563 C 55.3048 -5.74214 -1.20394 0
M  V30 564 C 57.6568 -6.24852 -0.987072 0
M  V30 565 C 56.3208 -6.62236 -0.836669 0
M  V30 566 H 55.5908 -0.580041 -0.461122 0
M  V30 567 H 58.2378 -1.83078 -0.561665 0
M  V30 568 H 56.5428 -2.38396 -3.10926 0
M  V30 569 H 58.2398 -2.73373 -2.93374 0
M  V30 570 H 54.8298 -3.8023 -1.97795 0
M  V30 571 H 59.0138 -4.70212 -1.5879 0
M  V30 572 H 54.2698 -6.01883 -1.07458 0
M  V30 573 H 58.4438 -6.92944 -0.692983 0
M  V30 574 H 56.0708 -7.58979 -0.430607 0
M  V30 575 N 57.6459 0.756429 -1.3826 0
M  V30 576 C 58.8759 1.54341 -1.3734 0
M  V30 577 C 59.2839 1.89159 0.0393917 0
M  V30 578 O 58.6269 1.5307 1.01565 0
M  V30 579 C 58.6889 2.87238 -2.16182 0
M  V30 580 C 58.3529 2.74973 -3.65019 0
M  V30 581 C 59.3499 2.44962 -4.58574 0
M  V30 582 C 57.0349 2.92515 -4.08338 0
M  V30 583 C 59.0289 2.32642 -5.93428 0
M  V30 584 C 56.7159 2.79815 -5.43274 0
M  V30 585 C 57.7139 2.49921 -6.35632 0
M  V30 586 O 57.4019 2.37275 -7.68086 0
M  V30 587 H 57.1339 0.484281 -0.471643 0
M  V30 588 H 59.6879 0.944152 -1.82414 0
M  V30 589 H 57.9179 3.49342 -1.65822 0
M  V30 590 H 59.6069 3.48731 -2.07705 0
M  V30 591 H 60.3729 2.31081 -4.26412 0
M  V30 592 H 56.2519 3.14781 -3.368 0
M  V30 593 H 59.7959 2.0923 -6.65484 0
M  V30 594 H 55.6929 2.93269 -5.75034 0
M  V30 595 H 56.4609 2.52509 -7.78577 0
M  V30 596 N 59.124 1.23083 0.984299 0
M  V30 597 C 60.54 0.992637 1.24975 0
M  V30 598 C 60.74 -0.308618 1.99123 0
M  V30 599 O 59.796 -1.02905 2.30579 0
M  V30 600 C 61.109 2.19698 2.05312 0
M  V30 601 C 62.657 2.24147 2.18465 0
M  V30 602 C 63.132 3.44157 3.02192 0
M  V30 603 N 64.623 3.44372 3.09777 0
M  V30 604 C 65.358 4.33886 3.74874 0
M  V30 605 N 64.854 5.3363 4.41827 0
M  V30 606 N 66.647 4.21639 3.71721 0
M  V30 607 H 58.798 2.06731 0.487453 0
M  V30 608 H 61.061 0.906339 0.277944 0
M  V30 609 H 60.767 3.1411 1.58201 0
M  V30 610 H 60.641 2.20465 3.06064 0
M  V30 611 H 63.028 1.30277 2.64786 0
M  V30 612 H 63.109 2.27415 1.17115 0
M  V30 613 H 62.753 4.38332 2.56568 0
M  V30 614 H 62.683 3.3813 4.03702 0
M  V30 615 H 65.174 2.72201 2.62135 0
M  V30 616 H 65.487 5.98196 4.89266 0
M  V30 617 H 63.832 5.37534 4.40548 0
M  V30 618 H 67.023 3.42962 3.18582 0
M  V30 619 H 67.196 4.91604 4.22173 0
M  V30 620 N 60.6021 -1.18246 1.0419 0
M  V30 621 C 62.0181 -1.40269 0.761366 0
M  V30 622 C 62.2181 -1.90777 -0.648578 0
M  V30 623 O 61.2741 -2.0929 -1.41258 0
M  V30 624 C 62.5871 -2.40237 1.8085 0
M  V30 625 C 64.1351 -2.53961 1.82955 0
M  V30 626 C 64.6101 -3.57194 2.86664 0
M  V30 627 N 66.1011 -3.64702 2.85563 0
M  V30 628 C 66.8361 -4.44309 3.6246 0
M  V30 629 N 66.3321 -5.27514 4.49111 0
M  V30 630 N 68.1251 -4.39084 3.50944 0
M  V30 631 H 60.2761 -0.837882 1.95175 0
M  V30 632 H 62.5391 -0.430608 0.84456 0
M  V30 633 H 62.2451 -2.10176 2.81991 0
M  V30 634 H 62.1191 -3.39601 1.64168 0
M  V30 635 H 64.5061 -2.83338 0.824855 0
M  V30 636 H 64.5871 -1.54706 2.03715 0
M  V30 637 H 64.2311 -3.28558 3.87314 0
M  V30 638 H 64.1611 -4.5613 2.6316 0
M  V30 639 H 66.6521 -3.05289 2.22727 0
M  V30 640 H 66.9651 -5.85411 5.04493 0
M  V30 641 H 65.3101 -5.2693 4.53178 0
M  V30 642 H 68.5011 -3.7313 2.82651 0
M  V30 643 H 68.6741 -5.00883 4.11121 0
M  V30 644 N 62.0802 -0.821533 -1.34494 0
M  V30 645 C 63.0432 -0.247847 -2.27856 0
M  V30 646 C 64.0432 0.573453 -1.50227 0
M  V30 647 O 65.2332 0.389759 -1.69784 0
M  V30 648 C 62.3652 0.652698 -3.34593 0
M  V30 649 H 63.5582 -1.07146 -2.80107 0
M  V30 650 H 61.1112 -0.593291 -1.44602 0
M  V30 651 H 61.8462 1.49943 -2.87555 0
M  V30 652 H 61.6312 0.065292 -3.92046 0
M  V30 653 H 63.1212 1.04793 -4.04238 0
M  V30 654 N 63.5583 1.46682 -0.576371 0
M  V30 655 C 64.4903 2.28341 0.198231 0
M  V30 656 C 65.5033 1.38141 0.861453 0
M  V30 657 O 66.6923 1.62797 0.732082 0
M  V30 658 C 63.7923 3.12986 1.29972 0
M  V30 659 C 62.9653 4.31271 0.729639 0
M  V30 660 C 62.0243 4.97363 1.71803 0
M  V30 661 O 61.0503 5.55156 1.25658 0
M  V30 662 N 62.2523 4.93796 3.05198 0
M  V30 663 H 65.0173 2.9546 -0.502324 0
M  V30 664 H 62.5783 1.56525 -0.413715 0
M  V30 665 H 64.5703 3.54066 1.96008 0
M  V30 666 H 63.1403 2.47984 1.90323 0
M  V30 667 H 62.3603 3.94052 -0.108012 0
M  V30 668 H 63.6483 5.07739 0.328438 0
M  V30 669 H 63.0463 4.48077 3.45317 0
M  V30 670 H 61.6033 5.38837 3.6674 0
M  V30 671 N 65.0364 0.313813 1.54444 0
M  V30 672 C 66.4524 -0.0391619 1.59552 0
M  V30 673 C 66.6524 -1.51322 1.33056 0
M  V30 674 O 65.7084 -2.26782 1.11022 0
M  V30 675 C 67.0214 0.370302 2.98411 0
M  V30 676 C 68.5694 0.320139 3.11358 0
M  V30 677 C 69.0444 0.704617 4.52547 0
M  V30 678 N 70.5354 0.657645 4.58508 0
M  V30 679 C 71.2704 0.927453 5.6585 0
M  V30 680 N 70.7664 1.26389 6.81174 0
M  V30 681 N 72.5594 0.853662 5.5558 0
M  V30 682 H 64.7104 1.27433 1.69925 0
M  V30 683 H 66.9734 0.517511 0.794284 0
M  V30 684 H 66.6794 1.39694 3.22767 0
M  V30 685 H 66.5534 -0.269619 3.76235 0
M  V30 686 H 68.9404 -0.697275 2.86744 0
M  V30 687 H 69.0214 0.99486 2.35661 0
M  V30 688 H 68.6654 1.7199 4.77893 0
M  V30 689 H 68.5954 0.00768843 5.26599 0
M  V30 690 H 71.0864 0.409067 3.75679 0
M  V30 691 H 71.3994 1.4554 7.58972 0
M  V30 692 H 69.7444 1.30206 6.82694 0
M  V30 693 H 72.9354 0.590383 4.64362 0
M  V30 694 H 73.1084 1.0673 6.3915 0
M  V30 695 N 66.5145 -1.57545 0.0417849 0
M  V30 696 C 67.4445 -2.14009 -0.933929 0
M  V30 697 C 68.4255 -1.05938 -1.33083 0
M  V30 698 O 69.6105 -1.33833 -1.40721 0
M  V30 699 C 66.7405 -2.67747 -2.21199 0
M  V30 700 C 65.6945 -3.80718 -1.95544 0
M  V30 701 C 65.0205 -4.20935 -3.29724 0
M  V30 702 C 66.3205 -5.06258 -1.28452 0
M  V30 703 H 68.0145 -2.95788 -0.463645 0
M  V30 704 H 65.5605 -1.42285 -0.221573 0
M  V30 705 H 67.5135 -3.05886 -2.89848 0
M  V30 706 H 66.2375 -1.83147 -2.70416 0
M  V30 707 H 64.8965 -3.43037 -1.2931 0
M  V30 708 H 64.5445 -3.33298 -3.76724 0
M  V30 709 H 64.2445 -4.9707 -3.13361 0
M  V30 710 H 65.7685 -4.61666 -3.9962 0
M  V30 711 H 67.1825 -5.41903 -1.8712 0
M  V30 712 H 65.5795 -5.87475 -1.22445 0
M  V30 713 H 66.6495 -4.84207 -0.259219 0
M  V30 714 N 67.9926 0.231505 -1.5589 0
M  V30 715 C 69.4086 0.580748 -1.48659 0
M  V30 716 C 69.6086 1.87617 -0.73498 0
M  V30 717 O 68.6646 2.51046 -0.270586 0
M  V30 718 C 69.9776 0.669202 -2.93159 0
M  V30 719 C 71.5256 0.760499 -3.03621 0
M  V30 720 C 72.0006 0.880383 -4.49459 0
M  V30 721 N 73.4916 0.944861 -4.53461 0
M  V30 722 C 74.2266 1.05716 -5.63571 0
M  V30 723 N 73.7226 1.13403 -6.83456 0
M  V30 724 N 75.5156 1.09152 -5.514 0
M  V30 725 H 67.6666 -0.618695 -2.03189 0
M  V30 726 H 69.9296 -0.215728 -0.923128 0
M  V30 727 H 69.6356 -0.212904 -3.51055 0
M  V30 728 H 69.5096 1.5361 -3.44505 0
M  V30 729 H 71.8966 1.63305 -2.45796 0
M  V30 730 H 71.9776 -0.131864 -2.5546 0
M  V30 731 H 71.6216 0.0123284 -5.07899 0
M  V30 732 H 71.5516 1.78802 -4.95316 0
M  V30 733 H 74.0426 0.896176 -3.6712 0
M  V30 734 H 74.3556 1.21921 -7.63122 0
M  V30 735 H 72.7006 1.10333 -6.86186 0
M  V30 736 H 75.8916 1.02805 -4.56671 0
M  V30 737 H 76.0646 1.17558 -6.37247 0
M  V30 738 N 69.4707 1.49531 0.497807 0
M  V30 739 C 70.8817 1.52344 1.07927 0
M  V30 740 C 71.2327 0.311469 1.93712 0
M  V30 741 O 70.3577 -0.578405 2.08527 0
M  V30 742 C 70.9527 2.76062 1.96405 0
M  V30 743 C 69.5117 2.81643 2.49709 0
M  V30 744 C 68.6587 2.46299 1.27404 0
M  V30 745 H 71.6097 1.56182 0.281576 0
M  V30 746 H 71.6307 2.56405 2.81135 0
M  V30 747 H 71.1427 3.64254 1.33943 0
M  V30 748 H 69.2437 1.97739 3.15801 0
M  V30 749 H 69.3567 3.83891 2.86643 0
M  V30 750 H 67.7207 1.98148 1.60029 0
M  V30 751 H 68.5037 3.36769 0.66645 0
M  V30 752 N 70.9488 -0.749086 1.3866 0
M  V30 753 C 71.8808 -1.87273 1.32142 0
M  V30 754 C 72.8938 -1.61127 0.232787 0
M  V30 755 O 74.0828 -1.71623 0.49069 0
M  V30 756 C 71.1828 -3.23005 1.02571 0
M  V30 757 C 70.3558 -3.7662 2.22433 0
M  V30 758 C 69.4148 -4.90879 1.89537 0
M  V30 759 O 68.4408 -5.05276 2.62078 0
M  V30 760 N 69.6428 -5.74198 0.853031 0
M  V30 761 H 72.4078 -1.93373 2.28969 0
M  V30 762 H 69.9688 -0.929216 1.32579 0
M  V30 763 H 71.9608 -3.96992 0.786085 0
M  V30 764 H 70.5308 -3.12262 0.145249 0
M  V30 765 H 69.7508 -2.94147 2.62434 0
M  V30 766 H 71.0388 -4.09173 3.02415 0
M  V30 767 H 70.4368 -5.6514 0.25155 0
M  V30 768 H 68.9938 -6.48313 0.67329 0
M  V30 769 N 72.4269 -1.23603 -0.977757 0
M  V30 770 C 73.7039 -0.977897 -1.69401 0
M  V30 771 C 74.0839 0.502738 -2.05026 0
M  V30 772 O 73.4319 1.47459 -1.74551 0
M  V30 773 C 73.6419 -1.89077 -2.93345 0
M  V30 774 C 74.9899 -2.15579 -3.65802 0
M  V30 775 O 76.0139 -1.86648 -3.03383 0
M  V30 776 O 74.8729 -2.64658 -4.78141 0
M  V30 777 H 71.9669 -0.369025 -0.740101 0
M  V30 778 H 74.5129 -1.34657 -1.03274 0
M  V30 779 H 73.2849 -2.89158 -2.63634 0
M  V30 780 H 72.9079 -1.52463 -3.67207 0
M  V30 781 N 73.905 1.17692 -1.04816 0
M  V30 782 C 74.815 2.25229 -0.65643 0
M  V30 783 C 75.831 1.71018 0.320761 0
M  V30 784 O 77.007 2.00649 0.173805 0
M  V30 785 C 74.072 3.46684 -0.0332629 0
M  V30 786 C 73.133 4.15997 -1.06042 0
M  V30 787 C 72.366 5.31654 -0.466893 0
M  V30 788 O 72.589 5.65777 0.724758 0
M  V30 789 O 71.523 5.89831 -1.1993 0
M  V30 790 H 75.349 2.61016 -1.55255 0
M  V30 791 H 72.934 1.24919 -0.81949 0
M  V30 792 H 74.816 4.20234 0.313256 0
M  V30 793 H 73.491 3.12703 0.836566 0
M  V30 794 H 72.398 3.44482 -1.45886 0
M  V30 795 H 73.731 4.53996 -1.90127 0
M  V30 796 N 75.3831 0.828654 1.34056 0
M  V30 797 C 76.7941 0.477534 1.8049 0
M  V30 798 C 77.1451 -1.00258 1.6865 0
M  V30 799 O 76.2701 -1.78057 1.22982 0
M  V30 800 C 76.8651 0.860018 3.27703 0
M  V30 801 C 75.4241 0.561185 3.72193 0
M  V30 802 C 74.5711 1.07385 2.55663 0
M  V30 803 H 77.5221 1.0183 1.21722 0
M  V30 804 H 77.5431 0.166038 3.80138 0
M  V30 805 H 77.0551 1.93731 3.36288 0
M  V30 806 H 75.1561 -0.506465 3.69142 0
M  V30 807 H 75.2691 1.10926 4.66082 0
M  V30 808 H 73.6331 0.495149 2.49841 0
M  V30 809 H 74.4161 2.15771 2.67016 0
M  V30 810 N 76.8612 -1.46375 0.584142 0
M  V30 811 C 78.2772 -1.57694 0.245929 0
M  V30 812 C 78.4772 -1.57903 -1.25175 0
M  V30 813 O 77.5332 -1.49676 -2.03355 0
M  V30 814 C 78.8462 -2.87028 0.896402 0
M  V30 815 C 80.3942 -3.00662 0.870127 0
M  V30 816 C 80.8692 -4.32734 1.50017 0
M  V30 817 N 82.3602 -4.39436 1.46458 0
M  V30 818 C 83.0952 -5.40248 1.92144 0
M  V30 819 N 82.5912 -6.47726 2.4581 0
M  V30 820 N 84.3842 -5.31459 1.83052 0
M  V30 821 H 76.5352 -1.44483 1.55687 0
M  V30 822 H 78.7982 -0.689291 0.650831 0
M  V30 823 H 78.5042 -2.9269 1.95002 0
M  V30 824 H 78.3782 -3.75014 0.405486 0
M  V30 825 H 80.7652 -2.94581 -0.174871 0
M  V30 826 H 80.8462 -2.14148 1.39908 0
M  V30 827 H 80.4902 -4.39573 2.54437 0
M  V30 828 H 80.4202 -5.18025 0.946432 0
M  V30 829 H 82.9112 -3.62367 1.07231 0
M  V30 830 H 83.2242 -7.20863 2.78525 0
M  V30 831 H 81.5692 -6.48542 2.49836 0
M  V30 832 H 84.7602 -4.46396 1.40883 0
M  V30 833 H 84.9332 -6.09881 2.18973 0
M  V30 834 N 78.3393 -0.321999 -1.54275 0
M  V30 835 C 79.2713 0.578671 -2.21775 0
M  V30 836 C 80.2843 1.08109 -1.21722 0
M  V30 837 O 81.4733 0.994938 -1.482 0
M  V30 838 C 78.5733 1.80661 -2.86731 0
M  V30 839 C 77.7463 1.44314 -4.12907 0
M  V30 840 C 76.8053 2.52845 -4.61472 0
M  V30 841 O 75.8313 2.17054 -5.2619 0
M  V30 842 N 77.0333 3.83748 -4.35566 0
M  V30 843 H 79.7983 0.000709447 -2.997 0
M  V30 844 H 77.3593 -0.145132 -1.61248 0
M  V30 845 H 79.3513 2.52655 -3.16145 0
M  V30 846 H 77.9213 2.29245 -2.12521 0
M  V30 847 H 77.1413 0.554906 -3.90275 0
M  V30 848 H 78.4293 1.17598 -4.95023 0
M  V30 849 H 77.8273 4.15625 -3.83761 0
M  V30 850 H 76.3843 4.51977 -4.69638 0
M  V30 851 N 79.8174 1.5752 -0.0501392 0
M  V30 852 C 81.0654 1.9227 0.622642 0
M  V30 853 C 81.3864 0.929083 1.71444 0
M  V30 854 O 80.6564 -0.0262186 1.95882 0
M  V30 855 H 79.2364 0.709739 0.232981 0
M  V30 856 H 81.8984 1.94628 -0.102898 0
M  V30 857 H 80.9944 2.93479 1.06191 0
M  V30 858 N 81.2955 -0.223234 1.56011 0
M  V30 859 C 82.5355 -0.954962 1.8072 0
M  V30 860 C 82.8995 -1.81598 0.623384 0
M  V30 861 O 84.1005 -2.58132 0.749745 0
M  V30 862 C 82.3715 -1.77313 3.10314 0
M  V30 863 S 83.9305 -2.56073 3.56332 0
M  V30 864 H 80.7485 -0.320812 0.634508 0
M  V30 865 H 83.3505 -0.220686 1.9425 0
M  V30 866 H 82.0545 -1.13071 3.94516 0
M  V30 867 H 81.5855 -2.54974 2.99586 0
M  V30 868 H 83.6005 -3.79619 3.19536 0
M  V30 869 N 82.7736 -1.49793 -0.48987 0
M  V30 870 C 83.7056 -1.63413 -1.60713 0
M  V30 871 C 84.7186 -0.516329 -1.54395 0
M  V30 872 O 85.9076 -0.788812 -1.60125 0
M  V30 873 C 83.0076 -1.58516 -2.99543 0
M  V30 874 C 82.1806 -2.86016 -3.30928 0
M  V30 875 C 81.2396 -2.74018 -4.49222 0
M  V30 876 O 80.2656 -3.47964 -4.50455 0
M  V30 877 N 81.4676 -1.86309 -5.4979 0
M  V30 878 H 84.2326 -2.59777 -1.49452 0
M  V30 879 H 81.7936 -1.47022 -0.677955 0
M  V30 880 H 83.7856 -1.48128 -3.76617 0
M  V30 881 H 82.3556 -0.69965 -3.0467 0
M  V30 882 H 81.5756 -3.10672 -2.42645 0
M  V30 883 H 82.8636 -3.70521 -3.487 0
M  V30 884 H 82.2616 -1.2551 -5.51601 0
M  V30 885 H 80.8186 -1.81837 -6.25922 0
M  V30 886 N 84.2517 0.741722 -1.39055 0
M  V30 887 C 85.6627 1.31966 -1.32068 0
M  V30 888 C 86.0137 1.96192 0.0180797 0
M  V30 889 O 85.1387 1.95861 0.920196 0
M  V30 890 C 85.7337 2.39954 -2.39181 0
M  V30 891 C 84.2927 2.93438 -2.35735 0
M  V30 892 C 83.4397 1.66936 -2.21422 0
M  V30 893 H 86.3907 0.539721 -1.4924 0
M  V30 894 H 86.4117 3.20182 -2.05581 0
M  V30 895 H 85.9237 1.9318 -3.36605 0
M  V30 896 H 84.0247 3.4451 -1.41929 0
M  V30 897 H 84.1377 3.4701 -3.30335 0
M  V30 898 H 82.5017 1.91016 -1.68478 0
M  V30 899 H 83.2847 1.22224 -3.20806 0
M  V30 900 N 85.7298 1.2412 0.971189 0
M  V30 901 C 86.6398 1.04747 2.09917 0
M  V30 902 C 87.6558 -0.0107162 1.73997 0
M  V30 903 O 88.8318 0.186714 2.00533 0
M  V30 904 C 85.8968 0.650828 3.40537 0
M  V30 905 C 84.9578 1.7851 3.90426 0
M  V30 906 C 84.1908 1.40729 5.14812 0
M  V30 907 O 84.4138 0.29557 5.69634 0
M  V30 908 O 83.3478 2.23168 5.58999 0
M  V30 909 H 87.1738 1.99304 2.29154 0
M  V30 910 H 84.7588 1.02908 1.08307 0
M  V30 911 H 86.6408 0.440992 4.19086 0
M  V30 912 H 85.3158 -0.265649 3.22608 0
M  V30 913 H 84.2228 2.04966 3.12953 0
M  V30 914 H 85.5558 2.68023 4.12825 0
M  V30 915 N 87.2079 -1.17134 1.05439 0
M  V30 916 C 88.4849 -1.83411 0.679699 0
M  V30 917 C 88.8649 -1.9368 -0.839726 0
M  V30 918 O 88.2129 -1.47325 -1.74664 0
M  V30 919 C 88.4229 -3.20918 1.37159 0
M  V30 920 C 89.7709 -3.96796 1.51123 0
M  V30 921 O 90.7949 -3.30406 1.3308 0
M  V30 922 O 89.6539 -5.15778 1.80651 0
M  V30 923 H 86.7479 -0.79154 0.239569 0
M  V30 924 H 89.2939 -1.24411 1.15413 0
M  V30 925 H 88.0659 -3.08428 2.40807 0
M  V30 926 H 87.6889 -3.87587 0.886674 0
M  V30 927 N 88.686 -0.835752 -1.33615 0
M  V30 928 C 90.102 -0.523139 -1.50783 0
M  V30 929 C 90.302 0.950171 -1.77691 0
M  V30 930 O 89.358 1.73411 -1.83534 0
M  V30 931 C 90.671 -1.39378 -2.66448 0
M  V30 932 C 92.219 -1.39223 -2.80332 0
M  V30 933 C 92.694 -2.24765 -3.99055 0
M  V30 934 N 94.185 -2.22458 -4.06284 0
M  V30 935 C 94.92 -2.85386 -4.97336 0
M  V30 936 N 94.416 -3.57354 -5.93523 0
M  V30 937 N 96.209 -2.74872 -4.90308 0
M  V30 938 H 88.36 -1.78952 -1.14411 0
M  V30 939 H 90.623 -0.763297 -0.562212 0
M  V30 940 H 90.329 -2.44061 -2.53234 0
M  V30 941 H 90.203 -1.0676 -3.61776 0
M  V30 942 H 92.59 -0.353136 -2.92979 0
M  V30 943 H 92.671 -1.75846 -1.85773 0
M  V30 944 H 92.315 -3.28732 -3.87167 0
M  V30 945 H 92.245 -1.85485 -4.92852 0
M  V30 946 H 94.736 -1.70119 -3.37443 0
M  V30 947 H 95.049 -4.02584 -6.59656 0
M  V30 948 H 93.394 -3.61461 -5.93608 0
M  V30 949 H 96.585 -2.18213 -4.14126 0
M  V30 950 H 96.758 -3.24199 -5.61069 0
M  V30 951 N 90.1641 1.46063 -0.591896 0
M  V30 952 C 91.5801 1.57561 -0.254288 0
M  V30 953 C 91.7801 1.58565 1.24336 0
M  V30 954 O 90.8361 1.50753 2.02558 0
M  V30 955 C 92.1491 2.86549 -0.911611 0
M  V30 956 C 93.6971 3.00197 -0.886059 0
M  V30 957 C 94.1721 4.31933 -1.5231 0
M  V30 958 N 95.6631 4.38654 -1.48786 0
M  V30 959 C 96.3981 5.39222 -1.95006 0
M  V30 960 N 95.8941 6.46414 -2.49241 0
M  V30 961 N 97.6871 5.3048 -1.85868 0
M  V30 962 H 89.8381 1.43655 -1.56451 0
M  V30 963 H 92.1011 0.68583 -0.654478 0
M  V30 964 H 91.8071 2.91651 -1.96551 0
M  V30 965 H 91.6811 3.74794 -0.425368 0
M  V30 966 H 94.0681 2.9467 0.159246 0
M  V30 967 H 94.1491 2.13403 -1.41041 0
M  V30 968 H 93.7931 4.38217 -2.56765 0
M  V30 969 H 93.7231 5.17516 -0.973891 0
M  V30 970 H 96.2141 3.61793 -1.09151 0
M  V30 971 H 96.5271 7.19376 -2.82344 0
M  V30 972 H 94.8721 6.47208 -2.53272 0
M  V30 973 H 98.0631 4.45643 -1.43248 0
M  V30 974 H 98.2361 6.08711 -2.22204 0
M  V30 975 N 91.6422 0.330177 1.54103 0
M  V30 976 C 93.0582 -0.0222371 1.59585 0
M  V30 977 C 93.2582 -1.49902 1.34654 0
M  V30 978 O 92.3142 -2.25592 1.13421 0
M  V30 979 C 93.6272 0.401932 2.98002 0
M  V30 980 C 95.1752 0.353145 3.11001 0
M  V30 981 C 95.6502 0.752576 4.51775 0
M  V30 982 N 97.1412 0.706239 4.57784 0
M  V30 983 C 97.8762 0.987417 5.64834 0
M  V30 984 N 97.3722 1.33607 6.79795 0
M  V30 985 N 99.1652 0.91254 5.54643 0
M  V30 986 H 91.3162 1.29228 1.68564 0
M  V30 987 H 93.5792 0.525906 0.78875 0
M  V30 988 H 93.2852 1.4311 3.21267 0
M  V30 989 H 93.1592 -0.229699 3.765 0
M  V30 990 H 95.5462 -0.666822 2.87467 0
M  V30 991 H 95.6272 1.0198 2.34593 0
M  V30 992 H 95.2712 1.77049 4.76042 0
M  V30 993 H 95.2012 0.0635409 5.26562 0
M  V30 994 H 97.6922 0.44889 3.75224 0
M  V30 995 H 98.0052 1.53582 7.57385 0
M  V30 996 H 96.3502 1.37439 6.81275 0
M  V30 997 H 99.5412 0.639601 4.6371 0
M  V30 998 H 99.7142 1.13503 6.37982 0
M  V30 999 N 93.1203 -1.57491 0.0584922 0
M  V30 1000 C 94.5363 -1.56792 -0.298091 0
M  V30 1001 C 94.7363 -1.06679 -1.70944 0
M  V30 1002 O 93.7923 -0.726672 -2.41818 0
M  V30 1003 C 95.1053 -3.00461 -0.119879 0
M  V30 1004 C 96.6533 -3.1242 -0.190428 0
M  V30 1005 C 97.1283 -4.57982 -0.0406567 0
M  V30 1006 N 98.6193 -4.63099 -0.0966958 0
M  V30 1007 C 99.3543 -5.734 -0.00502943 0
M  V30 1008 N 98.8503 -6.9266 0.139402 0
M  V30 1009 N 100.643 -5.62067 -0.0611391 0
M  V30 1010 H 92.7943 -1.88386 0.98105 0
M  V30 1011 H 95.0573 -0.867865 0.381463 0
M  V30 1012 H 94.7633 -3.41187 0.85349 0
M  V30 1013 H 94.6373 -3.66843 -0.877833 0
M  V30 1014 H 97.0243 -2.71589 -1.15427 0
M  V30 1015 H 97.1053 -2.48702 0.598405 0
M  V30 1016 H 96.7493 -4.995 0.919897 0
M  V30 1017 H 96.6793 -5.19715 -0.848727 0
M  V30 1018 H 99.1703 -3.77331 -0.207277 0
M  V30 1019 H 99.4833 -7.72536 0.201855 0
M  V30 1020 H 97.8283 -6.94781 0.174586 0
M  V30 1021 H 101.019 -4.67782 -0.172583 0
M  V30 1022 H 101.192 -6.47999 0.0137562 0
M  V30 1023 N 94.5984 0.214957 -1.56127 0
M  V30 1024 C 95.8474 0.936451 -1.78643 0
M  V30 1025 C 96.1604 1.85237 -0.628229 0
M  V30 1026 O 97.3664 2.613 -0.737186 0
M  V30 1027 C 95.8224 1.7154 -3.16389 0
M  V30 1028 C 95.4304 0.845299 -4.39953 0
M  V30 1029 C 97.1744 2.42772 -3.48227 0
M  V30 1030 C 95.0814 1.62198 -5.68723 0
M  V30 1031 H 94.0114 0.353401 -0.666051 0
M  V30 1032 H 96.6624 0.190169 -1.82512 0
M  V30 1033 H 95.0444 2.50484 -3.06715 0
M  V30 1034 H 96.2184 0.0959353 -4.607 0
M  V30 1035 H 94.5334 0.244789 -4.1568 0
M  V30 1036 H 97.1304 3.01394 -4.41663 0
M  V30 1037 H 97.4734 3.15984 -2.71035 0
M  V30 1038 H 98.0064 1.70813 -3.5926 0
M  V30 1039 H 94.7454 0.933011 -6.48826 0
M  V30 1040 H 94.2654 2.34579 -5.52026 0
M  V30 1041 H 95.9444 2.18095 -6.09133 0
M  V30 1042 N 96.0765 1.50051 0.48192 0
M  V30 1043 C 97.3255 1.59741 1.23149 0
M  V30 1044 C 97.6385 0.298163 1.93314 0
M  V30 1045 O 98.8445 0.273835 2.70116 0
M  V30 1046 C 97.3005 2.81926 2.23708 0
M  V30 1047 C 96.9085 4.18685 1.59396 0
M  V30 1048 C 98.6525 3.00956 2.99375 0
M  V30 1049 C 96.5595 5.3207 2.58178 0
M  V30 1050 H 95.4895 0.594838 0.46334 0
M  V30 1051 H 98.1405 1.76467 0.503169 0
M  V30 1052 H 96.5225 2.58736 2.99786 0
M  V30 1053 H 97.6965 4.52088 0.891811 0
M  V30 1054 H 96.0115 4.05171 0.960503 0
M  V30 1055 H 98.6085 3.82836 3.73283 0
M  V30 1056 H 98.9515 2.12258 3.58123 0
M  V30 1057 H 99.4845 3.24277 2.30411 0
M  V30 1058 H 96.2235 6.22888 2.04184 0
M  V30 1059 H 95.7435 5.03098 3.26577 0
M  V30 1060 H 97.4225 5.62196 3.20225 0
M  V30 1061 N 97.5546 -0.734337 1.39446 0
M  V30 1062 C 98.8036 -1.48937 1.36017 0
M  V30 1063 C 99.1166 -1.95557 -0.0409005 0
M  V30 1064 O 100.323 -2.70779 -0.19778 0
M  V30 1065 C 98.7786 -2.69125 2.38955 0
M  V30 1066 C 98.3866 -2.29452 3.8478 0
M  V30 1067 C 100.131 -3.46944 2.44603 0
M  V30 1068 C 98.0376 -3.46366 4.79358 0
M  V30 1069 H 96.9676 -0.559296 0.505672 0
M  V30 1070 H 99.6186 -0.800983 1.65095 0
M  V30 1071 H 98.0006 -3.40041 2.02948 0
M  V30 1072 H 99.1746 -1.66077 4.29831 0
M  V30 1073 H 97.4896 -1.64723 3.82433 0
M  V30 1074 H 100.087 -4.33907 3.12456 0
M  V30 1075 H 100.43 -3.89454 1.47076 0
M  V30 1076 H 100.963 -2.83056 2.79507 0
M  V30 1077 H 97.7016 -3.08905 5.78151 0
M  V30 1078 H 97.2216 -4.08719 4.38986 0
M  V30 1079 H 98.9006 -4.12691 4.98292 0
M  V30 1080 N 99.0327 -1.24633 -0.964593 0
M  V30 1081 C 99.9807 -1.03917 -2.08096 0
M  V30 1082 C 100.975 0.0268581 -1.69379 0
M  V30 1083 O 102.181 -0.127952 -1.79545 0
M  V30 1084 H 98.5557 -0.319044 -0.680966 0
M  V30 1085 H 100.527 -1.98581 -2.22729 0
M  V30 1086 C 99.2757 -0.663983 -3.41301 0
M  V30 1087 H 98.5987 -1.47605 -3.71555 0
M  V30 1088 H 100.039 -0.558663 -4.20303 0
M  V30 1089 C 98.4977 0.629169 -3.30973 0
M  V30 1090 O 99.0277 1.67404 -3.65156 0
M  V30 1091 N 97.2337 0.611057 -2.84103 0
M  V30 1092 H 96.7807 -0.239593 -2.56483 0
M  V30 1093 H 96.7387 1.47647 -2.77575 0
M  V30 1094 N 100.511 1.16574 -1.06058 0
M  V30 1095 C 101.757 1.87324 -0.777022 0
M  V30 1096 C 102.09 1.81351 0.694645 0
M  V30 1097 O 101.365 1.22753 1.50871 0
M  V30 1098 C 101.648 3.36991 -1.26922 0
M  V30 1099 C 101.501 3.51667 -2.80447 0
M  V30 1100 C 102.82 4.3131 -0.87521 0
M  V30 1101 H 99.9388 0.680191 -0.28374 0
M  V30 1102 H 102.581 1.37036 -1.3161 0
M  V30 1103 H 100.731 3.79949 -0.81063 0
M  V30 1104 H 102.403 3.17664 -3.34495 0
M  V30 1105 H 100.646 2.93656 -3.19294 0
M  V30 1106 H 101.317 4.56766 -3.0995 0
M  V30 1107 H 103.793 3.9624 -1.27014 0
M  V30 1108 H 102.669 5.34545 -1.2471 0
M  V30 1109 H 102.93 4.41552 0.220071 0
M  V30 1110 N 101.989 0.842826 1.3317 0
M  V30 1111 C 103.237 0.439577 1.97262 0
M  V30 1112 C 103.558 -1.00548 1.67078 0
M  V30 1113 O 102.828 -1.70098 0.971779 0
M  V30 1114 H 101.408 0.159558 0.72976 0
M  V30 1115 H 104.07 1.07665 1.62463 0
M  V30 1116 H 103.166 0.574886 3.0676 0
M  V30 1117 N 103.467 -1.45747 0.599634 0
M  V30 1118 C 104.715 -2.01893 0.0915472 0
M  V30 1119 C 105.036 -1.47155 -1.27946 0
M  V30 1120 O 104.306 -0.66273 -1.84349 0
M  V30 1121 H 102.886 -0.746363 0.0308524 0
M  V30 1122 H 105.548 -1.78645 0.779237 0
M  V30 1123 H 104.644 -3.1208 0.0353086 0
M  V30 1124 N 104.945 -0.338344 -1.53925 0
M  V30 1125 C 106.194 0.260732 -2.00008 0
M  V30 1126 C 106.507 1.52073 -1.23017 0
M  V30 1127 O 107.713 2.19672 -1.5955 0
M  V30 1128 C 106.169 0.51515 -3.56194 0
M  V30 1129 C 105.777 -0.728645 -4.42035 0
M  V30 1130 C 107.521 1.07337 -4.10706 0
M  V30 1131 C 105.428 -0.445315 -5.89721 0
M  V30 1132 H 104.358 0.101205 -0.747177 0
M  V30 1133 H 107.009 -0.452866 -1.77824 0
M  V30 1134 H 105.391 1.28932 -3.74423 0
M  V30 1135 H 106.565 -1.50352 -4.35581 0
M  V30 1136 H 104.88 -1.20813 -3.98489 0
M  V30 1137 H 107.477 1.30022 -5.18651 0
M  V30 1138 H 107.82 2.0273 -3.63602 0
M  V30 1139 H 108.353 0.360034 -3.96167 0
M  V30 1140 H 105.092 -1.36883 -6.41049 0
M  V30 1141 H 104.612 0.291569 -5.99091 0
M  V30 1142 H 106.291 -0.0606218 -6.46972 0
M  V30 1143 N 106.423 1.57458 -0.0668435 0
M  V30 1144 C 107.37 2.12439 0.902122 0
M  V30 1145 C 108.34 1.03565 1.2986 0
M  V30 1146 O 109.525 1.312 1.38532 0
M  V30 1147 C 106.665 2.6865 2.16614 0
M  V30 1148 C 105.778 3.91663 1.82274 0
M  V30 1149 C 104.913 4.36134 3.0325 0
M  V30 1150 C 103.952 5.51808 2.64904 0
M  V30 1151 N 103.089 5.9126 3.78624 0
M  V30 1152 H 107.929 2.94934 0.426382 0
M  V30 1153 H 105.466 1.4575 0.198819 0
M  V30 1154 H 107.424 2.99346 2.90599 0
M  V30 1155 H 106.054 1.88928 2.61737 0
M  V30 1156 H 105.106 3.6746 0.983719 0
M  V30 1157 H 106.418 4.75693 1.50059 0
M  V30 1158 H 105.572 4.68465 3.85519 0
M  V30 1159 H 104.311 3.50948 3.38655 0
M  V30 1160 H 103.316 5.19133 1.81055 0
M  V30 1161 H 104.541 6.38722 2.30675 0
M  V30 1162 H 102.487 5.09024 4.138 0
M  V30 1163 H 102.404 6.70018 3.5016 0
M  V30 1164 H 103.672 6.28212 4.61486 0
M  V30 1165 N 107.901 -0.206675 1.56239 0
M  V30 1166 C 109.131 -0.943975 1.83773 0
M  V30 1167 C 109.539 -1.77841 0.645703 0
M  V30 1168 O 108.882 -1.79403 -0.395008 0
M  V30 1169 C 108.944 -1.899 3.05251 0
M  V30 1170 C 108.608 -1.24764 4.39639 0
M  V30 1171 C 109.605 -0.630216 5.16066 0
M  V30 1172 C 107.29 -1.25496 4.8637 0
M  V30 1173 C 109.284 -0.0287946 6.37393 0
M  V30 1174 C 106.971 -0.649698 6.07637 0
M  V30 1175 C 107.969 -0.0376845 6.8299 0
M  V30 1176 O 107.657 0.55812 8.0196 0
M  V30 1177 H 107.389 -0.281508 0.614597 0
M  V30 1178 H 109.943 -0.222458 2.04192 0
M  V30 1179 H 108.173 -2.6599 2.80689 0
M  V30 1180 H 109.862 -2.5031 3.1953 0
M  V30 1181 H 110.628 -0.616785 4.81062 0
M  V30 1182 H 106.507 -1.72072 4.27683 0
M  V30 1183 H 110.051 0.449518 6.9615 0
M  V30 1184 H 105.948 -0.660592 6.42111 0
M  V30 1185 H 106.716 0.453891 8.17241 0
M  V30 1186 N 109.379 -1.50304 -0.473955 0
M  V30 1187 C 110.604 -1.65175 -1.25427 0
M  V30 1188 C 111.029 -0.333673 -1.85117 0
M  V30 1189 O 110.387 0.702114 -1.67153 0
M  V30 1190 C 110.435 -2.74295 -2.34082 0
M  V30 1191 O 109.539 -2.35349 -3.38651 0
M  V30 1192 H 108.88 -0.551944 -0.369126 0
M  V30 1193 H 111.41 -1.96662 -0.564364 0
M  V30 1194 H 111.42 -2.97285 -2.79438 0
M  V30 1195 H 110.095 -3.69959 -1.90008 0
M  V30 1196 H 108.672 -2.22794 -2.99027 0
M  V30 1197 N 110.857 0.726932 -1.39834 0
M  V30 1198 C 111.787 1.85405 -1.41941 0
M  V30 1199 C 112.768 1.67751 -0.281728 0
M  V30 1200 O 113.953 1.8795 -0.488717 0
M  V30 1201 C 111.083 3.23243 -1.2701 0
M  V30 1202 C 110.037 3.55549 -2.38262 0
M  V30 1203 C 109.363 4.9241 -2.08415 0
M  V30 1204 C 110.663 3.577 -3.80589 0
M  V30 1205 H 112.357 1.83899 -2.36266 0
M  V30 1206 H 109.903 0.883349 -1.13723 0
M  V30 1207 H 111.856 4.01775 -1.27103 0
M  V30 1208 H 110.58 3.25296 -0.291564 0
M  V30 1209 H 109.239 2.79351 -2.37399 0
M  V30 1210 H 108.887 4.91052 -1.0898 0
M  V30 1211 H 108.587 5.14992 -2.82943 0
M  V30 1212 H 110.111 5.73289 -2.10171 0
M  V30 1213 H 111.525 4.26293 -3.83337 0
M  V30 1214 H 109.922 3.91804 -4.54543 0
M  V30 1215 H 110.992 2.57328 -4.10987 0
M  V30 1216 N 112.336 1.25143 0.95797 0
M  V30 1217 C 113.747 1.08851 1.51685 0
M  V30 1218 C 114.098 -0.33687 1.93286 0
M  V30 1219 O 113.223 -1.22644 1.7829 0
M  V30 1220 C 113.818 1.96978 2.75654 0
M  V30 1221 C 112.377 1.84881 3.27866 0
M  V30 1222 C 111.524 1.91329 2.0072 0
M  V30 1223 H 114.475 1.38478 0.77522 0
M  V30 1224 H 114.496 1.5078 3.4935 0
M  V30 1225 H 114.008 3.00712 2.45345 0
M  V30 1226 H 112.109 0.840182 3.63004 0
M  V30 1227 H 112.222 2.6951 3.96107 0
M  V30 1228 H 110.586 1.35174 2.15871 0
M  V30 1229 H 111.369 2.96661 1.72764 0
M  V30 1230 N 113.814 -1.1601 1.06675 0
M  V30 1231 C 115.06 -1.87145 0.796766 0
M  V30 1232 C 115.415 -1.8037 -0.669658 0
M  V30 1233 O 114.708 -1.21116 -1.48463 0
M  V30 1234 C 114.902 -3.35547 1.23057 0
M  V30 1235 C 114.731 -3.56769 2.73762 0
M  V30 1236 C 113.501 -3.72635 3.41279 0
M  V30 1237 C 115.699 -3.55166 3.7197 0
M  V30 1238 N 113.681 -3.81845 4.80695 0
M  V30 1239 C 115.052 -3.70406 4.97191 0
M  V30 1240 C 117.107 -3.384 3.65226 0
M  V30 1241 C 115.81 -3.70615 6.16471 0
M  V30 1242 C 117.836 -3.39904 4.83962 0
M  V30 1243 C 117.198 -3.55667 6.08013 0
M  V30 1244 H 113.297 -0.702267 0.344014 0
M  V30 1245 H 115.881 -1.39165 1.36166 0
M  V30 1246 H 114.052 -3.82159 0.693456 0
M  V30 1247 H 115.784 -3.94363 0.908844 0
M  V30 1248 H 112.539 -3.73121 2.91681 0
M  V30 1249 H 112.963 -3.90209 5.53232 0
M  V30 1250 H 117.605 -3.25138 2.70269 0
M  V30 1251 H 115.323 -3.82658 7.11757 0
M  V30 1252 H 118.909 -3.28169 4.80413 0
M  V30 1253 H 117.789 -3.56755 6.98352 0
M  V30 1254 N 115.292 -0.849877 -1.32721 0
M  V30 1255 C 116.52 -0.464754 -2.01613 0
M  V30 1256 C 116.935 0.937191 -1.63897 0
M  V30 1257 O 116.292 1.61081 -0.857856 0
M  V30 1258 C 116.343 -0.588638 -3.56675 0
M  V30 1259 O 116.064 -1.93535 -3.93034 0
M  V30 1260 C 117.565 -0.2019 -4.4284 0
M  V30 1261 H 114.785 -0.183215 -0.645502 0
M  V30 1262 H 117.329 -1.1455 -1.69407 0
M  V30 1263 H 115.484 0.0443159 -3.87375 0
M  V30 1264 H 115.898 -1.92871 -4.87751 0
M  V30 1265 H 117.372 -0.339599 -5.50954 0
M  V30 1266 H 117.849 0.857224 -4.30753 0
M  V30 1267 H 118.455 -0.809733 -4.17521 0
M  V30 1268 N 116.77 1.45427 -0.607355 0
M  V30 1269 C 117.998 2.06614 -0.108814 0
M  V30 1270 C 118.413 1.45204 1.2067 0
M  V30 1271 O 117.77 0.566132 1.73497 0
M  V30 1272 C 117.821 3.61481 0.0375347 0
M  V30 1273 O 117.542 4.20598 -1.22593 0
M  V30 1274 C 119.043 4.39652 0.567561 0
M  V30 1275 H 116.263 0.66747 -0.0687351 0
M  V30 1276 H 118.807 1.86675 -0.835022 0
M  V30 1277 H 116.962 3.80762 0.714068 0
M  V30 1278 H 117.376 5.1377 -1.05547 0
M  V30 1279 H 118.85 5.48518 0.61905 0
M  V30 1280 H 119.327 4.09417 1.58978 0
M  V30 1281 H 119.933 4.25234 -0.0749202 0
M  V30 1282 N 118.248 0.346503 1.53744 0
M  V30 1283 C 119.178 -0.501193 2.28058 0
M  V30 1284 C 120.159 -1.10014 1.29734 0
M  V30 1285 O 121.344 -1.12097 1.58581 0
M  V30 1286 C 118.474 -1.65078 3.05559 0
M  V30 1287 C 117.428 -1.18003 4.11411 0
M  V30 1288 C 116.754 -2.41837 4.76884 0
M  V30 1289 C 118.054 -0.278394 5.21558 0
M  V30 1290 H 119.748 0.11875 2.99164 0
M  V30 1291 H 117.294 0.0585531 1.43881 0
M  V30 1292 H 119.247 -2.25028 3.56287 0
M  V30 1293 H 117.971 -2.29767 2.32109 0
M  V30 1294 H 116.63 -0.603331 3.61601 0
M  V30 1295 H 116.278 -3.0494 4.00026 0
M  V30 1296 H 115.978 -2.1102 5.48402 0
M  V30 1297 H 117.502 -3.02508 5.30397 0
M  V30 1298 H 118.916 -0.784823 5.67903 0
M  V30 1299 H 117.313 -0.0619707 6.00068 0
M  V30 1300 H 118.383 0.684677 4.80042 0
M  V30 1301 N 119.726 -1.57421 0.075193 0
M  V30 1302 C 121.003 -1.85029 -0.634329 0
M  V30 1303 C 121.383 -0.968305 -1.87582 0
M  V30 1304 O 120.731 -0.0354749 -2.28472 0
M  V30 1305 C 120.941 -3.35286 -0.968742 0
M  V30 1306 C 122.289 -4.02875 -1.34077 0
M  V30 1307 O 123.313 -3.40051 -1.06037 0
M  V30 1308 O 122.172 -5.13691 -1.86506 0
M  V30 1309 H 119.266 -0.7645 -0.315387 0
M  V30 1310 H 121.812 -1.69366 0.106382 0
M  V30 1311 H 120.584 -3.91203 -0.0871376 0
M  V30 1312 H 120.207 -3.56223 -1.7661 0
M  V30 1313 N 121.204 0.198386 -1.56346 0
M  V30 1314 C 122.114 1.2664 -1.97483 0
M  V30 1315 C 123.13 1.49989 -0.882002 0
M  V30 1316 O 124.306 1.62668 -1.18748 0
M  V30 1317 C 121.371 2.59141 -2.30319 0
M  V30 1318 C 120.432 2.43892 -3.53292 0
M  V30 1319 C 119.665 3.70074 -3.84553 0
M  V30 1320 O 119.888 4.74101 -3.1715 0
M  V30 1321 O 118.822 3.658 -4.7799 0
M  V30 1322 H 122.648 0.947304 -2.88548 0
M  V30 1323 H 120.233 0.403123 -1.43859 0
M  V30 1324 H 122.115 3.37352 -2.5253 0
M  V30 1325 H 120.79 2.90684 -1.42423 0
M  V30 1326 H 119.697 1.63803 -3.36332 0
M  V30 1327 H 121.03 2.17282 -4.41644 0
M  V30 1328 N 122.682 1.50554 0.465978 0
M  V30 1329 C 123.929 1.61798 1.21768 0
M  V30 1330 C 124.257 0.320696 1.91838 0
M  V30 1331 O 123.512 -0.693724 1.82992 0
M  V30 1332 C 123.811 2.75152 2.28093 0
M  V30 1333 C 123.477 4.15454 1.75239 0
M  V30 1334 C 122.139 4.53628 1.60546 0
M  V30 1335 C 124.491 5.03121 1.36083 0
M  V30 1336 C 121.819 5.77204 1.05128 0
M  V30 1337 C 124.171 6.27249 0.821056 0
M  V30 1338 C 122.835 6.64221 0.660795 0
M  V30 1339 H 122.105 0.592063 0.445582 0
M  V30 1340 H 124.752 1.84503 0.512927 0
M  V30 1341 H 123.057 2.46556 3.04496 0
M  V30 1342 H 124.754 2.81055 2.86023 0
M  V30 1343 H 121.344 3.85341 1.87644 0
M  V30 1344 H 125.528 4.74257 1.46267 0
M  V30 1345 H 120.784 6.0452 0.91462 0
M  V30 1346 H 124.958 6.94537 0.509018 0
M  V30 1347 H 122.585 7.59854 0.229226 0
M  V30 1348 N 124.16 -0.719506 1.40217 0
M  V30 1349 C 125.571 -1.29848 1.34151 0
M  V30 1350 C 125.922 -1.96196 0.0131349 0
M  V30 1351 O 125.047 -1.973 -0.88892 0
M  V30 1352 C 125.642 -2.36118 2.42968 0
M  V30 1353 C 124.201 -2.8965 2.40374 0
M  V30 1354 C 123.348 -1.63393 2.24049 0
M  V30 1355 H 126.299 -0.51591 1.5008 0
M  V30 1356 H 126.32 -3.16871 2.10649 0
M  V30 1357 H 125.832 -1.878 3.39636 0
M  V30 1358 H 123.933 -3.42208 1.47392 0
M  V30 1359 H 124.046 -3.4171 3.35814 0
M  V30 1360 H 122.41 -1.88312 1.71495 0
M  V30 1361 H 123.193 -1.17104 3.2271 0
M  V30 1362 N 125.638 -1.25649 -0.95132 0
M  V30 1363 C 126.568 -1.08808 -2.06599 0
M  V30 1364 C 127.549 0.00382547 -1.701 0
M  V30 1365 O 128.734 -0.166325 -1.93486 0
M  V30 1366 C 125.864 -0.709542 -3.39975 0
M  V30 1367 C 124.818 -1.75206 -3.90496 0
M  V30 1368 C 124.144 -1.22811 -5.20405 0
M  V30 1369 C 125.444 -3.15153 -4.16504 0
M  V30 1370 H 127.138 -2.02048 -2.20946 0
M  V30 1371 H 124.684 -0.972835 -1.06169 0
M  V30 1372 H 126.637 -0.578649 -4.17408 0
M  V30 1373 H 125.361 0.258556 -3.25575 0
M  V30 1374 H 124.02 -1.87145 -3.15234 0
M  V30 1375 H 123.668 -0.250145 -5.02378 0
M  V30 1376 H 123.368 -1.92492 -5.55176 0
M  V30 1377 H 124.892 -1.10968 -6.00432 0
M  V30 1378 H 126.306 -3.06349 -4.84586 0
M  V30 1379 H 124.703 -3.82333 -4.62538 0
M  V30 1380 H 125.773 -3.61966 -3.22658 0
M  V30 1381 N 127.117 1.15442 -1.07289 0
M  V30 1382 C 128.345 1.90096 -0.81676 0
M  V30 1383 C 128.76 1.7798 0.629966 0
M  V30 1384 O 128.117 1.1313 1.43206 0
M  V30 1385 C 128.168 3.40466 -1.21512 0
M  V30 1386 O 127.889 3.52232 -2.60508 0
M  V30 1387 C 129.39 4.32145 -0.988198 0
M  V30 1388 H 126.61 0.602495 -0.295366 0
M  V30 1389 H 129.154 1.4627 -1.42918 0
M  V30 1390 H 127.309 3.81958 -0.647039 0
M  V30 1391 H 127.723 4.45549 -2.76742 0
M  V30 1392 H 129.197 5.36072 -1.31645 0
M  V30 1393 H 129.674 4.39135 0.0755063 0
M  V30 1394 H 130.28 3.96395 -1.54115 0
M  V30 1395 N 128.595 0.856903 1.32268 0
M  V30 1396 C 130.011 0.547061 1.49931 0
M  V30 1397 C 130.211 -0.921781 1.7918 0
M  V30 1398 O 129.267 -1.70469 1.8627 0
M  V30 1399 C 130.58 1.43599 2.64196 0
M  V30 1400 C 132.128 1.43665 2.78081 0
M  V30 1401 C 132.603 2.31085 3.95428 0
M  V30 1402 N 134.094 2.28893 4.02694 0
M  V30 1403 C 134.829 2.93262 4.92732 0
M  V30 1404 N 134.325 3.66751 5.87763 0
M  V30 1405 N 136.118 2.82638 4.85873 0
M  V30 1406 H 128.269 1.8075 1.11549 0
M  V30 1407 H 130.532 0.772144 0.549997 0
M  V30 1408 H 130.238 2.48058 2.49319 0
M  V30 1409 H 130.112 1.12502 3.60032 0
M  V30 1410 H 132.499 0.399701 2.92381 0
M  V30 1411 H 132.58 1.7878 1.82952 0
M  V30 1412 H 132.224 3.34849 3.81888 0
M  V30 1413 H 132.154 1.93302 4.89839 0
M  V30 1414 H 134.645 1.75466 3.34694 0
M  V30 1415 H 134.958 4.13027 6.53168 0
M  V30 1416 H 133.303 3.70859 5.87783 0
M  V30 1417 H 136.494 2.24774 4.10602 0
M  V30 1418 H 136.667 3.33084 5.55841 0
M  V30 1419 N 130.073 -1.45103 0.615059 0
M  V30 1420 C 131.003 -2.33339 -0.0865619 0
M  V30 1421 C 131.984 -1.4727 -0.851209 0
M  V30 1422 O 133.169 -1.76026 -0.820281 0
M  V30 1423 C 130.299 -3.30095 -1.07956 0
M  V30 1424 C 129.253 -4.25858 -0.427628 0
M  V30 1425 C 128.579 -5.12361 -1.5294 0
M  V30 1426 C 129.879 -5.18165 0.655944 0
M  V30 1427 H 131.573 -2.92254 0.650224 0
M  V30 1428 H 129.119 -1.40532 0.314138 0
M  V30 1429 H 131.072 -3.90698 -1.57901 0
M  V30 1430 H 129.796 -2.69355 -1.84703 0
M  V30 1431 H 128.455 -3.66564 0.0510292 0
M  V30 1432 H 128.103 -4.47984 -2.28734 0
M  V30 1433 H 127.803 -5.77238 -1.09865 0
M  V30 1434 H 129.327 -5.75833 -2.03098 0
M  V30 1435 H 130.741 -5.72796 0.240257 0
M  V30 1436 H 129.138 -5.91559 1.00888 0
M  V30 1437 H 130.208 -4.60144 1.52957 0
M  V30 1438 N 131.551 -0.354651 -1.53558 0
M  V30 1439 C 132.799 0.237972 -2.00694 0
M  V30 1440 C 133.12 1.50173 -1.24391 0
M  V30 1441 O 132.39 1.92673 -0.354135 0
M  V30 1442 H 130.97 0.0909256 -0.741446 0
M  V30 1443 H 133.632 -0.478368 -1.88938 0
M  V30 1444 H 132.728 0.47264 -3.085 0
M  V30 1445 N 133.029 1.57378 -0.0835403 0
M  V30 1446 C 133.961 2.10389 0.909338 0
M  V30 1447 C 134.974 1.03858 1.25369 0
M  V30 1448 O 136.163 1.31338 1.20882 0
M  V30 1449 C 133.263 2.55908 2.2218 0
M  V30 1450 C 132.436 3.86145 2.05453 0
M  V30 1451 C 131.495 4.17633 3.20108 0
M  V30 1452 O 130.521 4.87043 2.94581 0
M  V30 1453 N 131.723 3.72113 4.45547 0
M  V30 1454 H 134.488 2.962 0.456657 0
M  V30 1455 H 132.049 1.61579 0.101877 0
M  V30 1456 H 134.041 2.74027 2.97811 0
M  V30 1457 H 132.611 1.75171 2.58909 0
M  V30 1458 H 131.831 3.7729 1.1422 0
M  V30 1459 H 133.119 4.7137 1.91541 0
M  V30 1460 H 132.517 3.16062 4.69171 0
M  V30 1461 H 131.074 3.95409 5.18165 0
M  V30 1462 N 134.507 -0.190092 1.56449 0
M  V30 1463 C 135.437 -1.23816 1.97969 0
M  V30 1464 C 136.418 -1.47201 0.852395 0
M  V30 1465 O 137.603 -1.58854 1.1171 0
M  V30 1466 C 134.733 -2.5813 2.3235 0
M  V30 1467 C 133.687 -2.49348 3.47864 0
M  V30 1468 C 133.013 -3.8798 3.67934 0
M  V30 1469 C 134.313 -2.01424 4.81898 0
M  V30 1470 H 136.007 -0.89311 2.85769 0
M  V30 1471 H 133.553 -0.428177 1.37487 0
M  V30 1472 H 135.506 -3.31637 2.59991 0
M  V30 1473 H 134.23 -2.94386 1.41438 0
M  V30 1474 H 132.889 -1.78297 3.20321 0
M  V30 1475 H 132.537 -4.21597 2.74344 0
M  V30 1476 H 132.237 -3.82978 4.45648 0
M  V30 1477 H 133.761 -4.63101 3.97957 0
M  V30 1478 H 135.175 -2.64693 5.08538 0
M  V30 1479 H 133.572 -2.07413 5.63116 0
M  V30 1480 H 134.642 -0.967677 4.75146 0
M  V30 1481 N 135.985 -1.50799 -0.457987 0
M  V30 1482 C 136.932 -1.70617 -1.5543 0
M  V30 1483 C 137.902 -0.547562 -1.56815 0
M  V30 1484 O 139.087 -0.779647 -1.74144 0
M  V30 1485 C 136.227 -1.81831 -2.93311 0
M  V30 1486 C 135.34 -3.09278 -3.01615 0
M  V30 1487 C 134.475 -3.11209 -4.30491 0
M  V30 1488 C 133.514 -4.33055 -4.32585 0
M  V30 1489 N 132.651 -4.32652 -5.52952 0
M  V30 1490 H 137.491 -2.64207 -1.37836 0
M  V30 1491 H 135.028 -1.30959 -0.669937 0
M  V30 1492 H 136.986 -1.86314 -3.73287 0
M  V30 1493 H 135.616 -0.916685 -3.0951 0
M  V30 1494 H 134.668 -3.14203 -2.1443 0
M  V30 1495 H 135.98 -3.99233 -2.99022 0
M  V30 1496 H 135.134 -3.14494 -5.18824 0
M  V30 1497 H 133.873 -2.19106 -4.35711 0
M  V30 1498 H 132.878 -4.29969 -3.42647 0
M  V30 1499 H 134.103 -5.264 -4.29046 0
M  V30 1500 H 132.049 -3.43409 -5.58933 0
M  V30 1501 H 131.966 -5.16392 -5.52155 0
M  V30 1502 H 133.234 -4.40101 -6.43375 0
M  V30 1503 N 137.463 0.71206 -1.40597 0
M  V30 1504 C 138.426 1.80785 -1.40888 0
M  V30 1505 C 139.426 1.57937 -0.302103 0
M  V30 1506 O 140.616 1.64913 -0.561182 0
M  V30 1507 C 137.748 3.18927 -1.20409 0
M  V30 1508 H 138.941 1.81924 -2.38419 0
M  V30 1509 H 136.494 0.91805 -1.26497 0
M  V30 1510 H 137.229 3.23436 -0.236522 0
M  V30 1511 H 137.014 3.36911 -2.00582 0
M  V30 1512 H 138.504 3.98949 -1.23408 0
M  V30 1513 N 138.941 1.26152 0.944643 0
M  V30 1514 C 140.181 1.12708 1.70517 0
M  V30 1515 C 140.545 -0.324727 1.89234 0
M  V30 1516 O 141.746 -0.581211 2.62441 0
M  V30 1517 C 140.017 1.8713 3.04495 0
M  V30 1518 S 141.576 1.89698 3.95677 0
M  V30 1519 H 138.394 0.402665 0.585988 0
M  V30 1520 H 140.996 1.59821 1.12594 0
M  V30 1521 H 139.7 2.91833 2.88551 0
M  V30 1522 H 139.231 1.40444 3.67477 0
M  V30 1523 H 141.246 0.981198 4.86402 0
M  V30 1524 N 140.419 -1.14872 1.07899 0
M  V30 1525 C 141.647 -1.89661 0.82683 0
M  V30 1526 C 142.062 -1.78312 -0.620519 0
M  V30 1527 O 141.419 -1.13888 -1.42604 0
M  V30 1528 C 141.47 -3.39817 1.23316 0
M  V30 1529 O 141.191 -3.50845 2.62372 0
M  V30 1530 C 142.692 -4.31615 1.0111 0
M  V30 1531 H 139.912 -0.60092 0.298557 0
M  V30 1532 H 142.456 -1.4551 1.43691 0
M  V30 1533 H 140.611 -3.8161 0.667286 0
M  V30 1534 H 141.025 -4.44076 2.79101 0
M  V30 1535 H 142.499 -5.35367 1.34486 0
M  V30 1536 H 142.976 -4.39169 -0.0522168 0
M  V30 1537 H 143.582 -3.95572 1.56215 0
M  V30 1538 N 141.898 -0.863906 -1.31812 0
M  V30 1539 C 142.846 -0.30422 -2.30602 0
M  V30 1540 C 143.84 0.577419 -1.59255 0
M  V30 1541 O 145.046 0.464194 -1.73912 0
M  V30 1542 H 141.421 -0.0796877 -0.747766 0
M  V30 1543 H 143.392 -1.15148 -2.75288 0
M  V30 1544 C 142.141 0.484617 -3.44306 0
M  V30 1545 H 141.464 -0.18451 -3.99374 0
M  V30 1546 H 142.904 0.841664 -4.15562 0
M  V30 1547 C 141.363 1.6735 -2.92396 0
M  V30 1548 O 141.893 2.77273 -2.90659 0
M  V30 1549 N 140.099 1.50362 -2.48676 0
M  V30 1550 H 139.646 0.609402 -2.50288 0
M  V30 1551 H 139.604 2.30051 -2.14299 0
M  V30 1552 N 143.376 1.44774 -0.622745 0
M  V30 1553 C 144.623 2.02121 -0.1239 0
M  V30 1554 C 144.951 1.48915 1.25118 0
M  V30 1555 O 144.206 0.660045 1.84233 0
M  V30 1556 C 144.505 3.57364 -0.0508323 0
M  V30 1557 C 144.171 4.29787 -1.36358 0
M  V30 1558 C 142.833 4.4929 -1.72314 0
M  V30 1559 C 145.185 4.71062 -2.23048 0
M  V30 1560 C 142.513 5.07325 -2.94682 0
M  V30 1561 C 144.865 5.30452 -3.44679 0
M  V30 1562 C 143.529 5.48175 -3.80868 0
M  V30 1563 H 142.799 0.739612 -0.0453381 0
M  V30 1564 H 145.446 1.73648 -0.807389 0
M  V30 1565 H 143.751 3.85202 0.715991 0
M  V30 1566 H 145.448 3.99456 0.351533 0
M  V30 1567 H 142.038 4.14932 -1.07375 0
M  V30 1568 H 146.222 4.55715 -1.96565 0
M  V30 1569 H 141.478 5.19235 -3.22809 0
M  V30 1570 H 145.652 5.61385 -4.12092 0
M  V30 1571 H 143.279 5.92912 -4.75773 0
M  V30 1572 N 144.854 0.36279 1.53368 0
M  V30 1573 C 146.131 -0.284021 1.93527 0
M  V30 1574 C 146.511 -1.66628 1.29608 0
M  V30 1575 O 145.859 -2.23942 0.45413 0
M  V30 1576 C 146.069 -0.337028 3.47369 0
M  V30 1577 C 147.417 -0.578708 4.20638 0
M  V30 1578 O 148.441 -0.418352 3.53735 0
M  V30 1579 O 147.3 -0.89074 5.39192 0
M  V30 1580 H 144.394 -0.169743 0.809393 0
M  V30 1581 H 146.94 0.41537 1.64538 0
M  V30 1582 H 145.712 0.632217 3.86159 0
M  V30 1583 H 145.335 -1.08243 3.82582 0
M  V30 1584 N 146.332 -1.57332 0.0918853 0
M  V30 1585 C 147.609 -1.85691 -0.614668 0
M  V30 1586 C 147.989 -0.988146 -1.86545 0
M  V30 1587 O 147.337 -0.0597055 -2.28422 0
M  V30 1588 C 147.547 -3.36294 -0.933126 0
M  V30 1589 C 148.895 -4.04275 -1.29796 0
M  V30 1590 O 149.919 -3.41157 -1.02424 0
M  V30 1591 O 148.778 -5.1564 -1.81047 0
M  V30 1592 H 145.872 -0.767802 -0.307261 0
M  V30 1593 H 148.418 -1.69244 0.12434 0
M  V30 1594 H 147.19 -3.91273 -0.0456404 0
M  V30 1595 H 146.813 -3.58076 -1.72822 0
M  V30 1596 N 147.81 0.181792 -1.56548 0
M  V30 1597 C 149.059 0.898348 -1.8059 0
M  V30 1598 C 149.372 1.83862 -0.667379 0
M  V30 1599 O 150.578 2.59678 -0.792446 0
M  V30 1600 C 149.034 1.64791 -3.19956 0
M  V30 1601 C 148.642 0.751789 -4.41647 0
M  V30 1602 C 150.386 2.35331 -3.53298 0
M  V30 1603 C 148.293 1.50098 -5.72035 0
M  V30 1604 H 147.223 0.339194 -0.673397 0
M  V30 1605 H 149.874 0.151413 -1.82874 0
M  V30 1606 H 148.256 2.43921 -3.11959 0
M  V30 1607 H 149.43 -0.0018076 -4.608 0
M  V30 1608 H 147.745 0.156562 -4.16106 0
M  V30 1609 H 150.342 2.91958 -4.47956 0
M  V30 1610 H 150.685 3.10164 -2.77676 0
M  V30 1611 H 151.218 1.63154 -3.62803 0
M  V30 1612 H 147.957 0.795175 -6.50659 0
M  V30 1613 H 147.477 2.22817 -5.56878 0
M  V30 1614 H 149.156 2.05125 -6.13622 0
M  V30 1615 N 149.288 1.51039 0.449983 0
M  V30 1616 C 150.218 1.74379 1.55288 0
M  V30 1617 C 151.199 0.593236 1.5942 0
M  V30 1618 O 152.384 0.834625 1.7535 0
M  V30 1619 C 149.514 1.85728 2.93466 0
M  V30 1620 C 148.468 3.01078 3.04197 0
M  V30 1621 C 147.794 2.97595 4.44231 0
M  V30 1622 C 149.094 4.41254 2.7945 0
M  V30 1623 H 150.788 2.66725 1.36008 0
M  V30 1624 H 148.334 1.2835 0.652864 0
M  V30 1625 H 150.287 2.0064 3.70569 0
M  V30 1626 H 149.011 0.900207 3.13949 0
M  V30 1627 H 147.67 2.85851 2.29531 0
M  V30 1628 H 147.318 1.99691 4.61663 0
M  V30 1629 H 147.018 3.75046 4.52343 0
M  V30 1630 H 148.542 3.14583 5.23326 0
M  V30 1631 H 149.956 4.56897 3.46292 0
M  V30 1632 H 148.353 5.20315 2.98985 0
M  V30 1633 H 149.423 4.52164 1.75144 0
M  V30 1634 N 150.766 -0.704594 1.40972 0
M  V30 1635 C 151.714 -1.83994 1.42299 0
M  V30 1636 C 152.708 -1.66684 0.302111 0
M  V30 1637 O 153.914 -1.73655 0.473697 0
M  V30 1638 H 150.289 -0.606171 0.44504 0
M  V30 1639 H 152.26 -1.79992 2.38003 0
M  V30 1640 C 151.009 -3.21946 1.31323 0
M  V30 1641 H 150.332 -3.35878 2.16855 0
M  V30 1642 H 151.772 -4.01491 1.36311 0
M  V30 1643 C 150.231 -3.36891 0.0245977 0
M  V30 1644 O 150.761 -3.90687 -0.934153 0
M  V30 1645 N 148.967 -2.90559 -0.0485243 0
M  V30 1646 H 148.514 -2.46968 0.732419 0
M  V30 1647 H 148.472 -3.00937 -0.910171 0
M  V30 1648 N 152.244 -1.26651 -0.937939 0
M  V30 1649 C 153.49 -1.12553 -1.687 0
M  V30 1650 C 153.823 0.329782 -1.91379 0
M  V30 1651 O 153.098 1.24202 -1.4968 0
M  V30 1652 C 153.381 -1.89862 -3.05981 0
M  V30 1653 C 153.234 -3.43318 -2.90607 0
M  V30 1654 C 154.553 -1.69499 -4.0615 0
M  V30 1655 H 151.672 -0.410257 -0.612257 0
M  V30 1656 H 154.314 -1.55685 -1.08913 0
M  V30 1657 H 152.464 -1.53204 -3.57017 0
M  V30 1658 H 154.136 -3.89747 -2.46769 0
M  V30 1659 H 152.379 -3.70179 -2.26164 0
M  V30 1660 H 153.05 -3.92642 -3.8799 0
M  V30 1661 H 155.526 -2.01442 -3.64088 0
M  V30 1662 H 154.402 -2.26002 -5.00214 0
M  V30 1663 H 154.663 -0.640365 -4.37438 0
M  V30 1664 N 153.722 1.14298 -1.08507 0
M  V30 1665 C 154.962 1.87016 -0.824894 0
M  V30 1666 C 155.326 1.81099 0.637735 0
M  V30 1667 O 156.527 2.48963 1.01345 0
M  V30 1668 C 154.798 3.31584 -1.33368 0
M  V30 1669 S 156.357 4.21903 -1.20596 0
M  V30 1670 H 153.175 0.645259 -0.2986 0
M  V30 1671 H 155.777 1.37822 -1.38656 0
M  V30 1672 H 154.481 3.33439 -2.39262 0
M  V30 1673 H 154.012 3.85836 -0.767734 0
M  V30 1674 H 156.027 4.95971 -0.150891 0
M  V30 1675 N 155.201 0.870884 1.31352 0
M  V30 1676 C 156.478 0.402907 1.91405 0
M  V30 1677 C 156.858 -1.11512 1.79244 0
M  V30 1678 O 156.206 -1.94411 1.2007 0
M  V30 1679 C 156.416 0.885301 3.37585 0
M  V30 1680 C 157.764 0.911971 4.14691 0
M  V30 1681 O 158.788 0.831016 3.46371 0
M  V30 1682 O 157.647 1.02927 5.3672 0
M  V30 1683 H 154.741 0.120698 0.818145 0
M  V30 1684 H 157.287 0.958857 1.40014 0
M  V30 1685 H 156.059 1.92889 3.40455 0
M  V30 1686 H 155.682 0.307714 3.96407 0
M  V30 1687 N 156.679 -1.44442 0.630414 0
M  V30 1688 C 157.956 -1.9549 0.0655657 0
M  V30 1689 C 158.336 -1.5724 -1.40851 0
M  V30 1690 O 157.684 -0.846116 -2.12257 0
M  V30 1691 C 157.894 -3.47812 0.287691 0
M  V30 1692 C 159.242 -4.24216 0.180513 0
M  V30 1693 O 160.266 -3.55526 0.219019 0
M  V30 1694 O 159.125 -5.46434 0.0848493 0
M  V30 1695 H 156.219 -0.826688 -0.0227177 0
M  V30 1696 H 158.765 -1.54496 0.702068 0
M  V30 1697 H 157.537 -3.687 1.31056 0
M  V30 1698 H 157.16 -3.95751 -0.382984 0
M  V30 1699 N 158.157 -0.370918 -1.53173 0
M  V30 1700 C 159.387 0.217389 -2.05453 0
M  V30 1701 C 159.795 1.42568 -1.24382 0
M  V30 1702 O 159.138 1.81571 -0.278839 0
M  V30 1703 C 159.2 0.669827 -3.53205 0
M  V30 1704 C 158.864 -0.4225 -4.55043 0
M  V30 1705 C 159.861 -1.27407 -5.04047 0
M  V30 1706 C 157.546 -0.58427 -4.9889 0
M  V30 1707 C 159.54 -2.27271 -5.95505 0
M  V30 1708 C 157.227 -1.58627 -5.90153 0
M  V30 1709 C 158.225 -2.42892 -6.38351 0
M  V30 1710 O 157.913 -3.41382 -7.27814 0
M  V30 1711 H 157.645 0.0408171 -0.674767 0
M  V30 1712 H 160.199 -0.5292 -1.98466 0
M  V30 1713 H 158.429 1.4681 -3.57748 0
M  V30 1714 H 160.118 1.18173 -3.88317 0
M  V30 1715 H 160.884 -1.16031 -4.70916 0
M  V30 1716 H 156.763 0.061851 -4.60959 0
M  V30 1717 H 160.307 -2.93079 -6.33049 0
M  V30 1718 H 156.204 -1.70048 -6.22699 0
M  V30 1719 H 156.972 -3.37173 -7.45826 0
M  V30 1720 N 159.635 1.57281 -0.100228 0
M  V30 1721 C 160.912 1.86014 0.604812 0
M  V30 1722 C 161.292 0.998025 1.86018 0
M  V30 1723 O 160.64 0.0718184 2.28387 0
M  V30 1724 C 160.85 3.36784 0.915278 0
M  V30 1725 C 162.198 4.04957 1.27651 0
M  V30 1726 O 163.222 3.41695 1.00613 0
M  V30 1727 O 162.081 5.16593 1.7831 0
M  V30 1728 H 159.175 0.76942 0.303185 0
M  V30 1729 H 161.721 1.69176 -0.133313 0
M  V30 1730 H 160.493 3.91292 0.0248896 0
M  V30 1731 H 160.116 3.58987 1.70921 0
M  V30 1732 N 161.113 -0.173488 1.56642 0
M  V30 1733 C 162.359 -0.891784 1.8214 0
M  V30 1734 C 162.692 -1.8199 0.677736 0
M  V30 1735 O 161.967 -1.91842 -0.320446 0
M  V30 1736 C 162.25 -1.68933 3.18015 0
M  V30 1737 C 162.103 -0.784487 4.42906 0
M  V30 1738 C 163.422 -2.65748 3.50808 0
M  V30 1739 H 160.541 -0.322761 0.662567 0
M  V30 1740 H 163.183 -0.158095 1.89341 0
M  V30 1741 H 161.333 -2.31482 3.12007 0
M  V30 1742 H 163.005 -0.172046 4.60979 0
M  V30 1743 H 161.248 -0.0924117 4.33702 0
M  V30 1744 H 161.919 -1.37799 5.34524 0
M  V30 1745 H 164.395 -2.13327 3.57255 0
M  V30 1746 H 163.271 -3.18619 4.4696 0
M  V30 1747 H 163.532 -3.45842 2.75401 0
M  V30 1748 N 162.591 -1.51276 -0.441967 0
M  V30 1749 C 163.819 -1.67516 -1.21434 0
M  V30 1750 C 164.234 -0.37055 -1.85128 0
M  V30 1751 O 163.591 0.650498 -1.70513 0
M  V30 1752 C 163.642 -2.78748 -2.30177 0
M  V30 1753 O 163.363 -4.04154 -1.69089 0
M  V30 1754 C 164.864 -3.06217 -3.20541 0
M  V30 1755 H 162.084 -0.562276 -0.366178 0
M  V30 1756 H 164.628 -1.97666 -0.524244 0
M  V30 1757 H 162.783 -2.5121 -2.94911 0
M  V30 1758 H 163.197 -4.65894 -2.40922 0
M  V30 1759 H 164.671 -3.8764 -3.92987 0
M  V30 1760 H 165.148 -2.18439 -3.81026 0
M  V30 1761 H 165.754 -3.35397 -2.61513 0
M  V30 1762 N 164.069 0.697108 -1.41344 0
M  V30 1763 C 165.309 1.46939 -1.42085 0
M  V30 1764 C 165.673 1.9198 -0.0280397 0
M  V30 1765 O 166.874 2.6865 0.0897504 0
M  V30 1766 C 165.145 2.64985 -2.39828 0
M  V30 1767 S 166.704 3.54147 -2.59085 0
M  V30 1768 H 163.522 0.502146 -0.503359 0
M  V30 1769 H 166.124 0.813546 -1.77769 0
M  V30 1770 H 164.828 2.30098 -3.39828 0
M  V30 1771 H 164.359 3.35464 -2.05493 0
M  V30 1772 H 166.374 4.60137 -1.85711 0
M  V30 1773 N 165.547 1.27147 0.931209 0
M  V30 1774 C 166.495 1.09398 2.05268 0
M  V30 1775 C 167.489 0.0180591 1.6939 0
M  V30 1776 O 168.695 0.17551 1.79142 0
M  V30 1777 H 165.07 0.336986 0.672268 0
M  V30 1778 H 167.041 2.04416 2.17386 0
M  V30 1779 C 165.79 0.75424 3.39421 0
M  V30 1780 H 165.113 1.57404 3.67511 0
M  V30 1781 H 166.553 0.669903 4.18674 0
M  V30 1782 C 165.012 -0.541197 3.32525 0
M  V30 1783 O 165.542 -1.57664 3.69466 0
M  V30 1784 N 163.748 -0.535517 2.85623 0
M  V30 1785 H 163.295 0.307511 2.55758 0
M  V30 1786 H 163.253 -1.40236 2.81392 0
M  V30 1787 N 167.025 -1.13721 1.09112 0
M  V30 1788 C 167.935 -2.22638 0.73957 0
M  V30 1789 C 168.951 -1.72091 -0.257068 0
M  V30 1790 O 170.127 -2.01155 -0.0992154 0
M  V30 1791 C 167.192 -3.46322 0.16191 0
M  V30 1792 C 166.253 -4.11775 1.21408 0
M  V30 1793 C 165.486 -5.29555 0.663891 0
M  V30 1794 O 165.709 -5.68077 -0.514274 0
M  V30 1795 O 164.643 -5.84973 1.41738 0
M  V30 1796 H 168.469 -2.55074 1.64836 0
M  V30 1797 H 166.054 -1.21791 0.865289 0
M  V30 1798 H 167.936 -4.21107 -0.157073 0
M  V30 1799 H 166.611 -3.15593 -0.719932 0
M  V30 1800 H 165.518 -3.3883 1.58571 0
M  V30 1801 H 166.851 -4.46627 2.06845 0
M  V30 1802 N 168.503 -0.877838 -1.30888 0
M  V30 1803 C 169.75 -0.492696 -1.96415 0
M  V30 1804 C 170.078 0.956671 -1.69346 0
M  V30 1805 O 169.333 1.68993 -0.986913 0
M  V30 1806 C 169.632 -0.705748 -3.50363 0
M  V30 1807 C 169.298 -2.1291 -3.97467 0
M  V30 1808 C 167.96 -2.51834 -4.1004 0
M  V30 1809 C 170.312 -3.05702 -4.22132 0
M  V30 1810 C 167.64 -3.82775 -4.44635 0
M  V30 1811 C 169.992 -4.36166 -4.58194 0
M  V30 1812 C 168.656 -4.74993 -4.68975 0
M  V30 1813 H 167.926 -0.18029 -0.718733 0
M  V30 1814 H 170.573 -1.11233 -1.55883 0
M  V30 1815 H 168.878 -0.00303058 -3.918 0
M  V30 1816 H 170.575 -0.387456 -3.99124 0
M  V30 1817 H 167.165 -1.81694 -3.88182 0
M  V30 1818 H 171.349 -2.76853 -4.11906 0
M  V30 1819 H 166.605 -4.12609 -4.51181 0
M  V30 1820 H 170.779 -5.08111 -4.76231 0
M  V30 1821 H 168.406 -5.76495 -4.95537 0
M  V30 1822 N 169.982 1.44106 -0.638065 0
M  V30 1823 C 171.229 2.01978 -0.14533 0
M  V30 1824 C 171.557 1.50234 1.23532 0
M  V30 1825 O 170.812 0.679548 1.83523 0
M  V30 1826 C 171.111 3.5729 -0.0887327 0
M  V30 1827 C 170.777 4.28317 -1.40909 0
M  V30 1828 C 169.439 4.47437 -1.77069 0
M  V30 1829 C 171.791 4.6867 -2.28031 0
M  V30 1830 C 169.119 5.04171 -3.00047 0
M  V30 1831 C 171.471 5.26766 -3.50286 0
M  V30 1832 C 170.135 5.44104 -3.86661 0
M  V30 1833 H 169.405 0.739089 -0.0531801 0
M  V30 1834 H 172.052 1.72781 -0.825761 0
M  V30 1835 H 170.357 3.8594 0.675095 0
M  V30 1836 H 172.054 3.99807 0.309145 0
M  V30 1837 H 168.644 4.1377 -1.1177 0
M  V30 1838 H 172.828 4.53604 -2.01388 0
M  V30 1839 H 168.084 5.15782 -3.28298 0
M  V30 1840 H 172.258 5.56983 -4.18023 0
M  V30 1841 H 169.885 5.87832 -4.82034 0
M  V30 1842 N 171.46 0.379036 1.52974 0
M  V30 1843 C 172.707 -0.206421 2.01445 0
M  V30 1844 C 173.035 -1.47668 1.26587 0
M  V30 1845 O 172.29 -1.92514 0.351675 0
M  V30 1846 C 172.589 -0.53096 3.53434 0
M  V30 1847 C 172.255 0.646546 4.46241 0
M  V30 1848 C 170.917 0.969604 4.7133 0
M  V30 1849 C 173.269 1.43479 5.01062 0
M  V30 1850 C 170.597 2.08263 5.48492 0
M  V30 1851 C 172.949 2.53834 5.7944 0
M  V30 1852 C 171.613 2.86659 6.02812 0
M  V30 1853 H 170.883 -0.0755349 0.73714 0
M  V30 1854 H 173.53 0.514271 1.84465 0
M  V30 1855 H 171.835 -1.33285 3.68432 0
M  V30 1856 H 173.532 -0.996417 3.88423 0
M  V30 1857 H 170.122 0.384734 4.2687 0
M  V30 1858 H 174.306 1.19844 4.81613 0
M  V30 1859 H 169.562 2.34078 5.64816 0
M  V30 1860 H 173.736 3.15319 6.20924 0
M  V30 1861 H 171.363 3.73026 6.62387 0
M  V30 1862 N 172.938 -1.57226 0.108567 0
M  V30 1863 C 174.215 -1.86333 -0.594939 0
M  V30 1864 C 174.595 -1.00788 -1.85486 0
M  V30 1865 O 173.943 -0.0839293 -2.28346 0
M  V30 1866 C 174.153 -3.37265 -0.897405 0
M  V30 1867 C 175.501 -4.05629 -1.25501 0
M  V30 1868 O 176.525 -3.42224 -0.987998 0
M  V30 1869 O 175.384 -5.17531 -1.75567 0
M  V30 1870 H 172.478 -0.771018 -0.2991 0
M  V30 1871 H 175.024 -1.69102 0.142283 0
M  V30 1872 H 173.796 -3.913 -0.00413806 0
M  V30 1873 H 173.419 -3.59889 -1.69014 0
M  V30 1874 N 174.416 0.165178 -1.56732 0
M  V30 1875 C 175.832 0.517174 -1.50988 0
M  V30 1876 C 176.032 1.84331 -0.813894 0
M  V30 1877 O 175.088 2.49672 -0.37682 0
M  V30 1878 C 176.401 0.544261 -2.95733 0
M  V30 1879 C 177.949 0.631039 -3.06573 0
M  V30 1880 C 178.424 0.68896 -4.52788 0
M  V30 1881 N 179.915 0.751683 -4.5706 0
M  V30 1882 C 180.65 0.817177 -5.67547 0
M  V30 1883 N 180.146 0.843129 -6.8765 0
M  V30 1884 N 181.939 0.856668 -5.55534 0
M  V30 1885 H 174.09 -0.704318 -2.00382 0
M  V30 1886 H 176.353 -0.254687 -0.913148 0
M  V30 1887 H 176.059 -0.361607 -3.49836 0
M  V30 1888 H 175.933 1.3886 -3.5071 0
M  V30 1889 H 178.32 1.52733 -2.52501 0
M  V30 1890 H 178.401 -0.240095 -2.54671 0
M  V30 1891 H 178.045 -0.2031 -5.07494 0
M  V30 1892 H 177.975 1.57633 -5.02454 0
M  V30 1893 H 180.466 0.739661 -3.70591 0
M  V30 1894 H 180.779 0.894448 -7.67606 0
M  V30 1895 H 179.124 0.811304 -6.90248 0
M  V30 1896 H 182.315 0.833437 -4.60621 0
M  V30 1897 H 182.488 0.904247 -6.4166 0
M  V30 1898 N 175.894 1.51508 0.433938 0
M  V30 1899 C 176.842 1.73646 1.54757 0
M  V30 1900 C 177.836 0.602854 1.5831 0
M  V30 1901 O 179.042 0.784318 1.62014 0
M  V30 1902 H 175.417 0.548718 0.51421 0
M  V30 1903 H 177.388 2.66991 1.33261 0
M  V30 1904 C 176.137 1.88172 2.92381 0
M  V30 1905 H 175.46 2.74808 2.90381 0
M  V30 1906 H 176.9 2.07672 3.6966 0
M  V30 1907 C 175.359 0.64239 3.30719 0
M  V30 1908 O 175.889 -0.201362 4.01195 0
M  V30 1909 N 174.095 0.485489 2.86516 0
M  V30 1910 H 173.642 1.17318 2.29334 0
M  V30 1911 H 173.6 -0.342482 3.12529 0
M  V30 1912 N 177.372 -0.689602 1.41712 0
M  V30 1913 C 178.783 -1.26973 1.36875 0
M  V30 1914 C 179.134 -1.96124 0.054748 0
M  V30 1915 O 178.259 -1.99141 -0.84687 0
M  V30 1916 C 178.854 -2.30912 2.47922 0
M  V30 1917 C 177.413 -2.84486 2.46464 0
M  V30 1918 C 176.56 -1.58603 2.27465 0
M  V30 1919 H 179.511 -0.48396 1.51141 0
M  V30 1920 H 179.532 -3.12331 2.17323 0
M  V30 1921 H 179.044 -1.80554 3.43543 0
M  V30 1922 H 177.145 -3.39005 1.54617 0
M  V30 1923 H 177.258 -3.34511 3.42986 0
M  V30 1924 H 175.622 -1.84632 1.75451 0
M  V30 1925 H 176.405 -1.10233 3.25121 0
M  V30 1926 N 178.85 -1.27639 -0.924453 0
M  V30 1927 C 180.098 -1.13941 -1.66918 0
M  V30 1928 C 180.419 0.314589 -1.92446 0
M  V30 1929 O 179.689 1.21964 -1.53303 0
M  V30 1930 H 178.269 -0.418678 -0.618642 0
M  V30 1931 H 180.931 -1.60213 -1.10985 0
M  V30 1932 H 180.027 -1.67094 -2.63602 0
M  V30 1933 N 180.328 1.1314 -1.09713 0
M  V30 1934 C 181.291 2.16831 -0.742751 0
M  V30 1935 C 182.291 1.59159 0.229129 0
M  V30 1936 O 183.481 1.74199 0.00693237 0
M  V30 1937 C 180.613 3.40756 -0.0989168 0
M  V30 1938 H 181.806 2.49695 -1.66109 0
M  V30 1939 H 179.359 1.2802 -0.896699 0
M  V30 1940 H 180.094 3.13485 0.830514 0
M  V30 1941 H 179.879 3.83888 -0.798265 0
M  V30 1942 H 181.369 4.17386 0.133524 0
M  V30 1943 N 181.806 0.884767 1.30421 0
M  V30 1944 C 183.053 0.503105 1.96151 0
M  V30 1945 C 183.381 -0.947676 1.69851 0
M  V30 1946 O 182.636 -1.68467 0.995861 0
M  V30 1947 C 182.935 0.724318 3.49983 0
M  V30 1948 C 182.601 2.15015 3.96332 0
M  V30 1949 C 181.263 2.54005 4.08699 0
M  V30 1950 C 183.615 3.07936 4.20505 0
M  V30 1951 C 180.943 3.85128 4.42599 0
M  V30 1952 C 183.295 4.3859 4.55874 0
M  V30 1953 C 181.959 4.77474 4.66449 0
M  V30 1954 H 181.229 0.184099 0.717766 0
M  V30 1955 H 183.876 1.12058 1.55291 0
M  V30 1956 H 182.181 0.0238086 3.91793 0
M  V30 1957 H 183.878 0.408617 3.98913 0
M  V30 1958 H 180.468 1.8375 3.87213 0
M  V30 1959 H 184.652 2.79033 4.10431 0
M  V30 1960 H 179.908 4.14996 4.48986 0
M  V30 1961 H 184.082 5.10629 4.7353 0
M  V30 1962 H 181.709 5.79115 4.92473 0
M  V30 1963 N 183.284 -1.43765 0.645699 0
M  V30 1964 C 184.532 -2.01499 0.155731 0
M  V30 1965 C 184.853 -1.51151 -1.232 0
M  V30 1966 O 184.123 -0.721044 -1.82148 0
M  V30 1967 H 182.703 -0.745003 0.0545817 0
M  V30 1968 H 185.365 -1.76075 0.835677 0
M  V30 1969 H 184.461 -3.1181 0.134577 0
M  V30 1970 N 184.763 -0.387143 -1.52771 0
M  V30 1971 C 185.991 0.195869 -2.05971 0
M  V30 1972 C 186.406 1.40691 -1.25903 0
M  V30 1973 O 185.763 1.79931 -0.305134 0
M  V30 1974 C 185.814 0.56812 -3.57008 0
M  V30 1975 O 185.535 -0.594803 -4.34043 0
M  V30 1976 C 187.036 1.20723 -4.26545 0
M  V30 1977 H 184.256 0.0300578 -0.670326 0
M  V30 1978 H 186.8 -0.551749 -1.96916 0
M  V30 1979 H 184.955 1.26564 -3.66143 0
M  V30 1980 H 185.369 -0.289322 -5.23701 0
M  V30 1981 H 186.843 1.41807 -5.33474 0
M  V30 1982 H 187.32 2.17395 -3.81623 0
M  V30 1983 H 187.926 0.550535 -4.21722 0
M  V30 1984 N 186.241 1.57166 -0.116904 0
M  V30 1985 C 187.49 1.94298 0.541407 0
M  V30 1986 C 187.803 1.00236 1.67964 0
M  V30 1987 O 189.009 1.26826 2.40057 0
M  V30 1988 C 187.465 3.45306 1.01449 0
M  V30 1989 C 187.073 4.47899 -0.0951738 0
M  V30 1990 C 188.817 3.91361 1.6443 0
M  V30 1991 C 186.724 5.90083 0.394491 0
M  V30 1992 H 185.654 0.725308 0.206019 0
M  V30 1993 H 188.305 1.82446 -0.196419 0
M  V30 1994 H 186.687 3.52385 1.80667 0
M  V30 1995 H 187.861 4.52486 -0.871374 0
M  V30 1996 H 186.176 4.11583 -0.631505 0
M  V30 1997 H 188.773 4.95004 2.02176 0
M  V30 1998 H 189.116 3.3122 2.52189 0
M  V30 1999 H 189.649 3.87073 0.917559 0
M  V30 2000 H 186.388 6.53974 -0.447004 0
M  V30 2001 H 185.908 5.88921 1.13722 0
M  V30 2002 H 187.587 6.41307 0.856399 0
M  V30 2003 N 187.719 -0.156864 1.56817 0
M  V30 2004 C 188.649 -1.19589 2.00551 0
M  V30 2005 C 189.63 -1.4536 0.883426 0
M  V30 2006 O 190.815 -1.56449 1.15054 0
M  V30 2007 C 187.945 -2.53143 2.37773 0
M  V30 2008 C 186.899 -2.41913 3.53075 0
M  V30 2009 C 186.225 -3.80088 3.76081 0
M  V30 2010 C 187.525 -1.91157 4.86062 0
M  V30 2011 H 189.219 -0.832293 2.87599 0
M  V30 2012 H 186.765 -0.398918 1.38364 0
M  V30 2013 H 188.718 -3.26047 2.66967 0
M  V30 2014 H 187.442 -2.91319 1.4765 0
M  V30 2015 H 186.101 -1.71462 3.24031 0
M  V30 2016 H 185.749 -4.15683 2.83225 0
M  V30 2017 H 185.449 -3.73439 4.53671 0
M  V30 2018 H 186.973 -4.54556 4.0769 0
M  V30 2019 H 188.387 -2.53846 5.14038 0
M  V30 2020 H 186.784 -1.95422 5.67389 0
M  V30 2021 H 187.854 -0.866673 4.77092 0
M  V30 2022 N 189.197 -1.51736 -0.425897 0
M  V30 2023 C 190.425 -1.68794 -1.1965 0
M  V30 2024 C 190.84 -0.390164 -1.84725 0
M  V30 2025 O 190.197 0.632376 -1.71194 0
M  V30 2026 C 190.248 -2.81174 -2.27208 0
M  V30 2027 O 189.969 -4.05925 -1.64793 0
M  V30 2028 C 191.47 -3.09599 -3.17275 0
M  V30 2029 H 188.69 -0.566128 -0.360194 0
M  V30 2030 H 191.234 -1.98211 -0.503249 0
M  V30 2031 H 189.389 -2.54324 -2.9223 0
M  V30 2032 H 189.803 -4.68423 -2.35967 0
M  V30 2033 H 191.277 -3.91786 -3.88854 0
M  V30 2034 H 191.754 -2.22468 -3.78688 0
M  V30 2035 H 192.36 -3.38151 -2.57941 0
M  V30 2036 N 190.675 0.682077 -1.42076 0
M  V30 2037 C 191.922 1.44215 -1.42156 0
M  V30 2038 C 192.25 1.94468 -0.0354186 0
M  V30 2039 O 191.505 1.70816 0.955002 0
M  V30 2040 C 191.804 2.66036 -2.38662 0
M  V30 2041 C 191.47 2.34366 -3.85206 0
M  V30 2042 C 190.132 2.25439 -4.25124 0
M  V30 2043 C 192.484 2.08513 -4.77673 0
M  V30 2044 C 189.812 1.88775 -5.55501 0
M  V30 2045 C 192.164 1.73354 -6.08384 0
M  V30 2046 C 190.828 1.62933 -6.47309 0
M  V30 2047 H 190.098 0.527718 -0.520187 0
M  V30 2048 H 192.745 0.778387 -1.74967 0
M  V30 2049 H 191.05 3.3741 -1.99152 0
M  V30 2050 H 192.747 3.24205 -2.35991 0
M  V30 2051 H 189.337 2.42213 -3.53597 0
M  V30 2052 H 193.521 2.14346 -4.47626 0
M  V30 2053 H 188.777 1.7927 -5.84527 0
M  V30 2054 H 192.951 1.52373 -6.79526 0
M  V30 2055 H 190.578 1.34292 -7.48244 0
M  V30 2056 N 192.153 1.28127 0.917671 0
M  V30 2057 C 193.083 1.14248 2.03641 0
M  V30 2058 C 194.064 0.0412748 1.7005 0
M  V30 2059 O 195.249 0.217566 1.92977 0
M  V30 2060 C 192.379 0.799431 3.37974 0
M  V30 2061 C 191.333 1.85497 3.85713 0
M  V30 2062 C 190.659 1.36565 5.16966 0
M  V30 2063 C 191.959 3.26085 4.08002 0
M  V30 2064 H 193.653 2.07835 2.15511 0
M  V30 2065 H 191.199 1.00064 1.03553 0
M  V30 2066 H 193.152 0.689114 4.15727 0
M  V30 2067 H 191.876 -0.172145 3.26146 0
M  V30 2068 H 190.535 1.95437 3.10161 0
M  V30 2069 H 190.183 0.383253 5.01538 0
M  V30 2070 H 189.883 2.07143 5.49878 0
M  V30 2071 H 191.407 1.26848 5.97279 0
M  V30 2072 H 192.821 3.19089 4.76293 0
M  V30 2073 H 191.218 3.94462 4.52238 0
M  V30 2074 H 192.288 3.70394 3.12948 0
M  V30 2075 N 193.631 -1.12557 1.10312 0
M  V30 2076 C 195.047 -1.36036 0.834649 0
M  V30 2077 C 195.247 -1.93946 -0.546539 0
M  V30 2078 O 194.303 -2.16484 -1.29966 0
M  V30 2079 C 195.616 -2.30312 1.9333 0
M  V30 2080 C 197.164 -2.43906 1.9616 0
M  V30 2081 C 197.639 -3.41496 3.05195 0
M  V30 2082 N 199.13 -3.49053 3.04494 0
M  V30 2083 C 199.865 -4.24471 3.85502 0
M  V30 2084 N 199.361 -5.02966 4.76442 0
M  V30 2085 N 201.154 -4.19864 3.73725 0
M  V30 2086 H 193.305 -0.733246 1.99342 0
M  V30 2087 H 195.568 -0.385234 0.866198 0
M  V30 2088 H 195.274 -1.94933 2.92735 0
M  V30 2089 H 195.148 -3.30421 1.81939 0
M  V30 2090 H 197.535 -2.78567 0.973886 0
M  V30 2091 H 197.616 -1.4369 2.11629 0
M  V30 2092 H 197.26 -3.07565 4.04186 0
M  V30 2093 H 197.19 -4.41539 2.86968 0
M  V30 2094 H 199.681 -2.93053 2.38596 0
M  V30 2095 H 199.994 -5.57846 5.34815 0
M  V30 2096 H 198.339 -5.02167 4.80472 0
M  V30 2097 H 201.53 -3.57623 3.02032 0
M  V30 2098 H 201.703 -4.78386 4.37093 0
M  V30 2099 N 195.109 -0.891671 -1.2995 0
M  V30 2100 C 196.072 -0.36828 -2.26222 0
M  V30 2101 C 197.072 0.493014 -1.53056 0
M  V30 2102 O 198.262 0.299213 -1.71611 0
M  V30 2103 C 195.394 0.47442 -3.37583 0
M  V30 2104 H 196.587 -1.21844 -2.74033 0
M  V30 2105 H 194.14 -0.669107 -1.41254 0
M  V30 2106 H 194.875 1.34489 -2.95099 0
M  V30 2107 H 194.66 -0.142615 -3.91841 0
M  V30 2108 H 196.15 0.83218 -4.09224 0
M  V30 2109 N 196.587 1.43421 -0.653314 0
M  V30 2110 C 197.835 2.01414 -0.166415 0
M  V30 2111 C 198.156 1.51803 1.22397 0
M  V30 2112 O 197.426 0.730693 1.81763 0
M  V30 2113 H 196.006 0.744703 -0.0585319 0
M  V30 2114 H 198.668 1.75629 -0.845003 0
M  V30 2115 H 197.764 3.11734 -0.151111 0
M  V30 2116 N 198.065 0.39524 1.52563 0
M  V30 2117 C 199.012 -0.437036 2.26624 0
M  V30 2118 C 199.982 -1.05281 1.28472 0
M  V30 2119 O 201.167 -1.07971 1.57311 0
M  V30 2120 C 198.307 -1.55524 3.08069 0
M  V30 2121 C 197.42 -0.961745 4.21158 0
M  V30 2122 C 196.555 -2.05149 4.89987 0
M  V30 2123 C 195.594 -1.4342 5.95061 0
M  V30 2124 N 194.731 -2.46351 6.57462 0
M  V30 2125 H 199.571 0.200976 2.97322 0
M  V30 2126 H 197.108 0.110944 1.46681 0
M  V30 2127 H 199.066 -2.21437 3.53584 0
M  V30 2128 H 197.696 -2.16348 2.3957 0
M  V30 2129 H 196.748 -0.192048 3.79915 0
M  V30 2130 H 198.06 -0.470701 4.96574 0
M  V30 2131 H 197.214 -2.78819 5.38837 0
M  V30 2132 H 195.953 -2.57615 4.14109 0
M  V30 2133 H 194.958 -0.682774 5.45544 0
M  V30 2134 H 196.183 -0.917416 6.72875 0
M  V30 2135 H 194.129 -2.97975 5.8442 0
M  V30 2136 H 194.046 -2.02019 7.28508 0
M  V30 2137 H 195.314 -3.19633 7.10954 0
M  V30 2138 N 199.544 -1.57102 0.125237 0
M  V30 2139 C 200.474 -2.18659 -0.819174 0
M  V30 2140 C 201.455 -1.12843 -1.27281 0
M  V30 2141 O 202.64 -1.41104 -1.33429 0
M  V30 2142 C 199.77 -2.79096 -2.06695 0
M  V30 2143 C 198.724 -3.90548 -1.75088 0
M  V30 2144 C 198.05 -4.37821 -3.06948 0
M  V30 2145 C 199.35 -5.12356 -1.01435 0
M  V30 2146 H 201.044 -2.9783 -0.306202 0
M  V30 2147 H 198.59 -1.4326 -0.145839 0
M  V30 2148 H 200.543 -3.2082 -2.73226 0
M  V30 2149 H 199.267 -1.97223 -2.60328 0
M  V30 2150 H 197.926 -3.49409 -1.10944 0
M  V30 2151 H 197.574 -3.52799 -3.58527 0
M  V30 2152 H 197.274 -5.12982 -2.86571 0
M  V30 2153 H 198.798 -4.822 -3.74587 0
M  V30 2154 H 200.212 -5.5106 -1.58132 0
M  V30 2155 H 198.609 -5.9314 -0.911319 0
M  V30 2156 H 199.679 -4.849 -0.00218681 0
M  V30 2157 N 201.022 0.148545 -1.56898 0
M  V30 2158 C 202.438 0.501131 -1.51528 0
M  V30 2159 C 202.638 1.83458 -0.833399 0
M  V30 2160 O 201.694 2.49259 -0.40328 0
M  V30 2161 C 203.007 0.512864 -2.96294 0
M  V30 2162 C 204.555 0.598487 -3.07225 0
M  V30 2163 C 205.03 0.640897 -4.53494 0
M  V30 2164 N 206.521 0.703163 -4.57832 0
M  V30 2165 C 207.256 0.756935 -5.68382 0
M  V30 2166 N 206.752 0.770147 -6.88506 0
M  V30 2167 N 208.545 0.797698 -5.56411 0
M  V30 2168 H 200.696 -0.725532 -1.99624 0
M  V30 2169 H 202.959 -0.264358 -0.910395 0
M  V30 2170 H 202.665 -0.398691 -3.49433 0
M  V30 2171 H 202.539 1.35133 -3.52163 0
M  V30 2172 H 204.926 1.50046 -2.54106 0
M  V30 2173 H 205.007 -0.267093 -2.54402 0
M  V30 2174 H 204.651 -0.256915 -5.0725 0
M  V30 2175 H 204.581 1.52295 -5.04097 0
M  V30 2176 H 207.072 0.700314 -3.71354 0
M  V30 2177 H 207.385 0.812983 -7.68512 0
M  V30 2178 H 205.73 0.738049 -6.9107 0
M  V30 2179 H 208.921 0.784535 -4.61479 0
M  V30 2180 H 209.094 0.83614 -6.42583 0
M  V30 2181 N 202.5 1.5196 0.417844 0
M  V30 2182 C 203.43 1.77634 1.51554 0
M  V30 2183 C 204.411 0.626918 1.58126 0
M  V30 2184 O 205.596 0.871632 1.7354 0
M  V30 2185 C 202.726 1.91911 2.8946 0
M  V30 2186 C 201.68 3.07463 2.97743 0
M  V30 2187 C 201.006 3.06951 4.37819 0
M  V30 2188 C 202.306 4.47082 2.70027 0
M  V30 2189 H 204 2.6955 1.3032 0
M  V30 2190 H 201.546 1.29706 0.625492 0
M  V30 2191 H 203.499 2.08455 3.6623 0
M  V30 2192 H 202.223 0.966598 3.11969 0
M  V30 2193 H 200.882 2.90656 2.23416 0
M  V30 2194 H 200.53 2.09438 4.57323 0
M  V30 2195 H 200.23 3.84556 4.44286 0
M  V30 2196 H 201.754 3.25613 5.16535 0
M  V30 2197 H 203.168 4.6414 3.36522 0
M  V30 2198 H 201.565 5.2654 2.87881 0
M  V30 2199 H 202.635 4.55777 1.65514 0
M  V30 2200 N 203.978 -0.674533 1.42435 0
M  V30 2201 C 204.908 -1.80009 1.48724 0
M  V30 2202 C 205.889 -1.6659 0.343793 0
M  V30 2203 O 207.074 -1.86007 0.558137 0
M  V30 2204 C 204.204 -3.18306 1.38919 0
M  V30 2205 C 203.158 -3.46461 2.51294 0
M  V30 2206 C 202.484 -4.84335 2.26547 0
M  V30 2207 C 203.784 -3.43328 3.93603 0
M  V30 2208 H 205.478 -1.75004 2.42928 0
M  V30 2209 H 203.024 -0.840533 1.16923 0
M  V30 2210 H 204.977 -3.9678 1.41927 0
M  V30 2211 H 203.701 -3.2399 0.412094 0
M  V30 2212 H 202.36 -2.70348 2.47604 0
M  V30 2213 H 202.008 -4.86669 1.2713 0
M  V30 2214 H 201.708 -5.04136 3.01861 0
M  V30 2215 H 203.232 -5.65094 2.31304 0
M  V30 2216 H 204.646 -4.11772 3.98894 0
M  V30 2217 H 203.043 -3.74664 4.68771 0
M  V30 2218 H 204.113 -2.41897 4.20255 0
M  V30 2219 N 205.456 -1.28612 -0.910864 0
M  V30 2220 C 206.872 -1.06381 -1.18976 0
M  V30 2221 C 207.072 0.191998 -2.00583 0
M  V30 2222 O 206.128 0.892869 -2.36187 0
M  V30 2223 C 207.441 -2.31295 -1.92154 0
M  V30 2224 C 208.989 -2.36503 -2.05025 0
M  V30 2225 C 209.464 -3.61191 -2.81612 0
M  V30 2226 N 210.955 -3.61847 -2.89172 0
M  V30 2227 C 211.69 -4.55004 -3.4894 0
M  V30 2228 N 211.186 -5.58482 -4.09963 0
M  V30 2229 N 212.979 -4.42594 -3.46506 0
M  V30 2230 H 205.13 -2.09221 -0.366094 0
M  V30 2231 H 207.393 -0.921003 -0.224629 0
M  V30 2232 H 207.099 -3.228 -1.39618 0
M  V30 2233 H 206.973 -2.37934 -2.9269 0
M  V30 2234 H 209.36 -1.45494 -2.5674 0
M  V30 2235 H 209.441 -2.33857 -1.03657 0
M  V30 2236 H 209.085 -4.52545 -2.30576 0
M  V30 2237 H 209.015 -3.61092 -3.83302 0
M  V30 2238 H 211.506 -2.87022 -2.45819 0
M  V30 2239 H 211.819 -6.25704 -4.53557 0
M  V30 2240 H 210.164 -5.62305 -4.08459 0
M  V30 2241 H 213.355 -3.60953 -2.98045 0
M  V30 2242 H 213.528 -5.15381 -3.92793 0
M  V30 2243 N 206.934 1.1197 -1.10907 0
M  V30 2244 C 207.844 2.21433 -0.774896 0
M  V30 2245 C 208.86 1.72478 0.229657 0
M  V30 2246 O 210.036 2.01288 0.0672008 0
M  V30 2247 C 207.101 3.4602 -0.216986 0
M  V30 2248 C 206.162 4.09791 -1.27944 0
M  V30 2249 C 205.395 5.28431 -0.748055 0
M  V30 2250 O 205.618 5.68823 0.423833 0
M  V30 2251 O 204.552 5.82644 -1.51027 0
M  V30 2252 H 208.378 2.5242 -1.68873 0
M  V30 2253 H 205.963 1.20399 -0.884555 0
M  V30 2254 H 207.845 4.21304 0.090059 0
M  V30 2255 H 206.52 3.16698 0.669633 0
M  V30 2256 H 205.427 3.36265 -1.63941 0
M  V30 2257 H 206.76 4.4328 -2.13925 0
M  V30 2258 N 208.412 0.89855 1.29475 0
M  V30 2259 C 209.345 0.319981 2.25945 0
M  V30 2260 C 210.323 -0.567189 1.52387 0
M  V30 2261 O 211.507 -0.514254 1.8135 0
M  V30 2262 C 208.634 -0.544013 3.34303 0
M  V30 2263 C 207.68 0.275682 4.25608 0
M  V30 2264 S 208.513 1.67272 5.08704 0
M  V30 2265 C 209.669 0.815621 6.20563 0
M  V30 2266 H 209.902 1.13767 2.74671 0
M  V30 2267 H 207.435 0.69882 1.3768 0
M  V30 2268 H 209.393 -1.03673 3.97193 0
M  V30 2269 H 208.054 -1.33593 2.84274 0
M  V30 2270 H 207.247 -0.384263 5.02533 0
M  V30 2271 H 206.849 0.701496 3.67362 0
M  V30 2272 H 209.141 0.0385042 6.77489 0
M  V30 2273 H 210.084 1.55691 6.90772 0
M  V30 2274 H 210.492 0.370516 5.63283 0
M  V30 2275 N 209.89 -1.43072 0.660911 0
M  V30 2276 C 211.13 -2.03596 0.181146 0
M  V30 2277 C 211.494 -1.51057 -1.18515 0
M  V30 2278 O 212.695 -2.03275 -1.75877 0
M  V30 2279 C 210.966 -3.56845 0.19911 0
M  V30 2280 S 212.525 -4.38289 -0.211684 0
M  V30 2281 H 209.343 -0.706954 0.0757479 0
M  V30 2282 H 211.945 -1.75027 0.870965 0
M  V30 2283 H 210.649 -3.92583 1.1961 0
M  V30 2284 H 210.18 -3.90067 -0.510996 0
M  V30 2285 H 212.195 -4.74583 -1.44863 0
M  V30 2286 N 211.368 -0.403325 -1.52352 0
M  V30 2287 C 212.331 0.413051 -2.25447 0
M  V30 2288 C 213.331 0.978513 -1.276 0
M  V30 2289 O 214.521 0.858305 -1.51587 0
M  V30 2290 C 211.653 1.58087 -3.02029 0
M  V30 2291 H 212.846 -0.227094 -2.99039 0
M  V30 2292 H 210.399 -0.155722 -1.55522 0
M  V30 2293 H 211.134 2.25804 -2.32772 0
M  V30 2294 H 210.919 1.18195 -3.73861 0
M  V30 2295 H 212.409 2.1585 -3.57489 0
M  V30 2296 N 212.846 1.57033 -0.133567 0
M  V30 2297 C 213.776 2.1909 0.807567 0
M  V30 2298 C 214.757 1.13517 1.26681 0
M  V30 2299 O 215.942 1.41809 1.32679 0
M  V30 2300 C 213.072 2.80188 2.05212 0
M  V30 2301 C 212.026 3.91471 1.73015 0
M  V30 2302 C 211.352 4.39443 3.04622 0
M  V30 2303 C 212.652 5.12886 0.987168 0
M  V30 2304 H 214.346 2.97988 0.290403 0
M  V30 2305 H 211.892 1.43335 0.138239 0
M  V30 2306 H 213.845 3.22264 2.71521 0
M  V30 2307 H 212.569 1.98601 2.59278 0
M  V30 2308 H 211.228 3.49993 1.0909 0
M  V30 2309 H 210.876 3.54695 3.56651 0
M  V30 2310 H 210.576 5.14495 2.83847 0
M  V30 2311 H 212.1 4.8418 3.72024 0
M  V30 2312 H 213.514 5.51891 1.55208 0
M  V30 2313 H 211.911 5.93615 0.87985 0
M  V30 2314 H 212.981 4.84894 -0.0235286 0
M  V30 2315 N 214.325 -0.140222 1.56975 0
M  V30 2316 C 215.55 -0.870414 1.88251 0
M  V30 2317 C 215.975 -1.73637 0.723312 0
M  V30 2318 O 215.333 -1.78329 -0.32689 0
M  V30 2319 C 215.381 -1.69737 3.18154 0
M  V30 2320 O 214.485 -2.80229 3.02565 0
M  V30 2321 H 213.826 -0.242025 0.61832 0
M  V30 2322 H 216.356 -0.128999 2.04193 0
M  V30 2323 H 216.366 -2.09099 3.50345 0
M  V30 2324 H 215.041 -1.06152 4.02125 0
M  V30 2325 H 213.618 -2.44224 2.81796 0
M  V30 2326 N 215.803 -1.52179 -0.40978 0
M  V30 2327 C 217.05 -1.66206 -1.15679 0
M  V30 2328 C 217.378 -0.391674 -1.90516 0
M  V30 2329 O 216.633 0.62533 -1.8544 0
M  V30 2330 C 216.932 -2.83428 -2.17723 0
M  V30 2331 C 216.598 -4.21672 -1.59699 0
M  V30 2332 C 215.26 -4.59274 -1.43599 0
M  V30 2333 C 217.612 -5.07825 -1.17317 0
M  V30 2334 C 214.94 -5.80709 -0.836328 0
M  V30 2335 C 217.292 -6.29864 -0.587691 0
M  V30 2336 C 215.956 -6.66216 -0.413818 0
M  V30 2337 H 215.226 -0.608192 -0.423301 0
M  V30 2338 H 217.873 -1.86279 -0.444097 0
M  V30 2339 H 216.178 -2.57687 -2.95135 0
M  V30 2340 H 217.875 -2.91477 -2.75394 0
M  V30 2341 H 214.465 -3.9204 -1.73213 0
M  V30 2342 H 218.649 -4.79359 -1.28565 0
M  V30 2343 H 213.905 -6.07498 -0.689626 0
M  V30 2344 H 218.079 -6.95948 -0.250894 0
M  V30 2345 H 215.706 -7.60182 0.0529471 0
M  V30 2346 N 217.281 0.66697 -1.42791 0
M  V30 2347 C 218.213 1.7925 -1.42836 0
M  V30 2348 C 219.226 1.59496 -0.326333 0
M  V30 2349 O 220.415 1.6847 -0.589916 0
M  V30 2350 C 217.515 3.16476 -1.21229 0
M  V30 2351 C 216.688 3.63011 -2.44013 0
M  V30 2352 C 215.747 4.78993 -2.17834 0
M  V30 2353 O 214.773 4.89137 -2.91091 0
M  V30 2354 N 215.975 5.68248 -1.18635 0
M  V30 2355 H 218.74 1.79695 -2.39854 0
M  V30 2356 H 216.301 0.850338 -1.37771 0
M  V30 2357 H 218.293 3.91734 -1.01621 0
M  V30 2358 H 216.863 3.10884 -0.32706 0
M  V30 2359 H 216.083 2.78346 -2.79137 0
M  V30 2360 H 217.371 3.90845 -3.25757 0
M  V30 2361 H 216.769 5.62712 -0.580615 0
M  V30 2362 H 215.326 6.43285 -1.05013 0
M  V30 2363 N 218.759 1.29093 0.90403 0
M  V30 2364 C 219.669 1.15727 2.0407 0
M  V30 2365 C 220.685 0.0815308 1.73809 0
M  V30 2366 O 221.861 0.292749 1.99261 0
M  V30 2367 C 218.926 0.830424 3.36608 0
M  V30 2368 C 217.987 1.98955 3.80415 0
M  V30 2369 C 217.22 1.6782 5.06628 0
M  V30 2370 O 217.443 0.597105 5.67266 0
M  V30 2371 O 216.377 2.52486 5.46383 0
M  V30 2372 H 220.203 2.11171 2.18267 0
M  V30 2373 H 217.788 1.08504 1.027 0
M  V30 2374 H 219.67 0.662521 4.16159 0
M  V30 2375 H 218.345 -0.0942678 3.23563 0
M  V30 2376 H 217.252 2.21267 3.01648 0
M  V30 2377 H 218.585 2.89529 3.98037 0
M  V30 2378 N 220.237 -1.11381 1.11499 0
M  V30 2379 C 221.147 -2.21019 0.786628 0
M  V30 2380 C 222.163 -1.72597 -0.220507 0
M  V30 2381 O 223.339 -2.01321 -0.0565251 0
M  V30 2382 C 220.404 -3.459 0.235333 0
M  V30 2383 C 219.465 -4.09107 1.30115 0
M  V30 2384 C 218.698 -5.28027 0.776068 0
M  V30 2385 O 218.921 -5.6904 -0.393661 0
M  V30 2386 O 217.855 -5.81835 1.54114 0
M  V30 2387 H 221.681 -2.51521 1.70209 0
M  V30 2388 H 219.266 -1.19928 0.890928 0
M  V30 2389 H 221.148 -4.21346 -0.067715 0
M  V30 2390 H 219.823 -3.17049 -0.652828 0
M  V30 2391 H 218.73 -3.35391 1.65722 0
M  V30 2392 H 220.063 -4.42139 2.16273 0
M  V30 2393 N 221.715 -0.905404 -1.28997 0
M  V30 2394 C 222.645 -0.404212 -2.29975 0
M  V30 2395 C 223.626 0.523784 -1.61835 0
M  V30 2396 O 224.811 0.433298 -1.89304 0
M  V30 2397 C 221.941 0.364042 -3.45387 0
M  V30 2398 C 220.895 -0.474048 -4.25367 0
M  V30 2399 C 220.221 0.422045 -5.33032 0
M  V30 2400 C 221.521 -1.72696 -4.92923 0
M  V30 2401 H 223.215 -1.24807 -2.72146 0
M  V30 2402 H 220.761 -0.601585 -1.30832 0
M  V30 2403 H 222.714 0.725447 -4.15109 0
M  V30 2404 H 221.438 1.24174 -3.02074 0
M  V30 2405 H 220.097 -0.81786 -3.57361 0
M  V30 2406 H 219.745 1.29804 -4.85963 0
M  V30 2407 H 219.445 -0.135057 -5.87445 0
M  V30 2408 H 220.969 0.779517 -6.05604 0
M  V30 2409 H 222.383 -1.43495 -5.55051 0
M  V30 2410 H 220.78 -2.22582 -5.57295 0
M  V30 2411 H 221.85 -2.45964 -4.17887 0
M  V30 2412 N 223.193 1.4272 -0.668489 0
M  V30 2413 C 224.123 2.335 -0.000100175 0
M  V30 2414 C 225.104 1.50328 0.795964 0
M  V30 2415 O 226.289 1.78949 0.754385 0
M  V30 2416 C 223.419 3.33874 0.956302 0
M  V30 2417 C 222.373 4.27152 0.269278 0
M  V30 2418 C 221.699 5.17684 1.33818 0
M  V30 2419 C 222.999 5.15373 -0.847805 0
M  V30 2420 H 224.693 2.89639 -0.758244 0
M  V30 2421 H 222.239 1.39269 -0.366079 0
M  V30 2422 H 224.192 3.9629 1.43292 0
M  V30 2423 H 222.916 2.76025 1.74579 0
M  V30 2424 H 221.575 3.66123 -0.187042 0
M  V30 2425 H 221.223 4.56165 2.1195 0
M  V30 2426 H 220.923 5.80918 0.883659 0
M  V30 2427 H 222.447 5.82974 1.81586 0
M  V30 2428 H 223.861 5.7151 -0.452681 0
M  V30 2429 H 222.258 5.87407 -1.22773 0
M  V30 2430 H 223.328 4.5415 -1.69929 0
M  V30 2431 N 224.671 0.411399 1.52136 0
M  V30 2432 C 225.901 -0.16284 2.05957 0
M  V30 2433 C 226.309 -1.3922 1.28119 0
M  V30 2434 O 225.652 -1.80768 0.326881 0
M  V30 2435 C 225.714 -0.575946 3.54856 0
M  V30 2436 C 225.378 0.542998 4.53763 0
M  V30 2437 C 226.375 1.40726 5.00492 0
M  V30 2438 C 224.06 0.716337 4.97166 0
M  V30 2439 C 226.054 2.4298 5.8927 0
M  V30 2440 C 223.741 1.74218 5.8574 0
M  V30 2441 C 224.739 2.59731 6.31687 0
M  V30 2442 O 224.427 3.60558 7.18507 0
M  V30 2443 H 224.159 -0.0229125 0.675612 0
M  V30 2444 H 226.713 0.581634 1.96993 0
M  V30 2445 H 224.943 -1.37274 3.61515 0
M  V30 2446 H 226.632 -1.07836 3.91313 0
M  V30 2447 H 227.398 1.28476 4.67674 0
M  V30 2448 H 223.277 0.0603857 4.6096 0
M  V30 2449 H 226.821 3.0976 6.25055 0
M  V30 2450 H 222.718 1.86498 6.17971 0
M  V30 2451 H 223.486 3.56829 7.36624 0
M  V30 2452 N 226.149 -1.5696 0.141893 0
M  V30 2453 C 227.395 -1.97034 -0.504884 0
M  V30 2454 C 227.75 -1.02518 -1.62812 0
M  V30 2455 O 227.043 -0.0592943 -1.91508 0
M  V30 2456 C 227.237 -3.41242 -1.06249 0
M  V30 2457 C 227.066 -4.497 0.00519653 0
M  V30 2458 C 225.836 -5.03338 0.444873 0
M  V30 2459 C 228.034 -5.08122 0.794767 0
M  V30 2460 N 226.016 -5.95395 1.49593 0
M  V30 2461 C 227.387 -5.96339 1.69645 0
M  V30 2462 C 229.442 -4.9071 0.843122 0
M  V30 2463 C 228.145 -6.69009 2.64233 0
M  V30 2464 C 230.171 -5.64077 1.77681 0
M  V30 2465 C 229.533 -6.51999 2.66603 0
M  V30 2466 H 225.632 -0.766745 -0.153707 0
M  V30 2467 H 228.216 -1.93273 0.235313 0
M  V30 2468 H 226.387 -3.45606 -1.77231 0
M  V30 2469 H 228.119 -3.68389 -1.67546 0
M  V30 2470 H 224.874 -4.73576 0.0480959 0
M  V30 2471 H 225.298 -6.46128 2.02107 0
M  V30 2472 H 229.94 -4.22459 0.169732 0
M  V30 2473 H 227.658 -7.36492 3.32575 0
M  V30 2474 H 231.244 -5.52602 1.81996 0
M  V30 2475 H 230.124 -7.07775 3.37675 0
M  V30 2476 N 227.627 0.131896 -1.57047 0
M  V30 2477 C 228.875 0.840269 -1.83804 0
M  V30 2478 C 229.196 1.81017 -0.72512 0
M  V30 2479 O 228.466 1.94272 0.251995 0
M  V30 2480 H 227.046 0.313294 -0.678127 0
M  V30 2481 H 229.708 0.122294 -1.94516 0
M  V30 2482 H 228.804 1.39335 -2.79271 0
M  V30 2483 N 229.106 1.52395 0.401703 0
M  V30 2484 C 230.355 1.66044 1.14509 0
M  V30 2485 C 230.668 0.400216 1.91462 0
M  V30 2486 O 231.874 0.416632 2.68284 0
M  V30 2487 C 230.33 2.93388 2.0845 0
M  V30 2488 C 229.938 4.26545 1.36978 0
M  V30 2489 C 231.682 3.16402 2.83001 0
M  V30 2490 C 229.589 5.45007 2.29611 0
M  V30 2491 H 228.519 0.618562 0.431158 0
M  V30 2492 H 231.17 1.78886 0.40892 0
M  V30 2493 H 229.552 2.74263 2.8565 0
M  V30 2494 H 230.726 4.56179 0.650916 0
M  V30 2495 H 229.041 4.09692 0.74438 0
M  V30 2496 H 231.638 4.02085 3.52465 0
M  V30 2497 H 231.981 2.30943 3.46368 0
M  V30 2498 H 232.514 3.36034 2.12898 0
M  V30 2499 H 229.253 6.32835 1.70879 0
M  V30 2500 H 228.773 5.19702 2.9945 0
M  V30 2501 H 230.452 5.7838 2.89974 0
M  V30 2502 N 230.584 -0.659388 1.43143 0
M  V30 2503 C 231.547 -1.75432 1.47501 0
M  V30 2504 C 232.547 -1.56707 0.360512 0
M  V30 2505 O 233.737 -1.62717 0.622002 0
M  V30 2506 C 230.869 -3.14239 1.32162 0
M  V30 2507 H 232.062 -1.7295 2.45006 0
M  V30 2508 H 229.615 -0.870469 1.29817 0
M  V30 2509 H 230.35 -3.22336 0.356401 0
M  V30 2510 H 230.135 -3.29235 2.12948 0
M  V30 2511 H 231.625 -3.94094 1.3813 0
M  V30 2512 N 232.062 -1.29571 -0.897171 0
M  V30 2513 C 232.972 -1.16808 -2.03453 0
M  V30 2514 C 233.988 -0.0907471 -1.73763 0
M  V30 2515 O 235.164 -0.303312 -1.99103 0
M  V30 2516 C 232.229 -0.848264 -3.36163 0
M  V30 2517 C 231.29 -2.0097 -3.79354 0
M  V30 2518 C 230.523 -1.70505 -5.05731 0
M  V30 2519 O 230.746 -0.62718 -5.66941 0
M  V30 2520 O 229.68 -2.5538 -5.45036 0
M  V30 2521 H 233.506 -2.12325 -2.17144 0
M  V30 2522 H 231.091 -1.09047 -1.02123 0
M  V30 2523 H 232.973 -0.684581 -4.15802 0
M  V30 2524 H 231.648 0.0771071 -3.23608 0
M  V30 2525 H 230.555 -2.22863 -3.00471 0
M  V30 2526 H 231.888 -2.91636 -3.96496 0
M  V30 2527 N 233.54 1.10788 -1.12088 0
M  V30 2528 C 234.817 1.79136 -0.785476 0
M  V30 2529 C 235.197 1.98246 0.725377 0
M  V30 2530 O 234.545 1.57258 1.65778 0
M  V30 2531 C 234.755 3.12375 -1.55636 0
M  V30 2532 C 236.103 3.8731 -1.74001 0
M  V30 2533 O 237.127 3.22085 -1.52117 0
M  V30 2534 O 235.986 5.04369 -2.10415 0
M  V30 2535 H 233.08 0.776226 -0.285311 0
M  V30 2536 H 235.626 1.1747 -1.2247 0
M  V30 2537 H 234.398 2.93863 -2.5838 0
M  V30 2538 H 234.021 3.81758 -1.11114 0
M  V30 2539 N 235.018 0.912232 1.28515 0
M  V30 2540 C 235.968 0.370649 2.24967 0
M  V30 2541 C 236.952 -0.516375 1.52389 0
M  V30 2542 O 238.144 -0.356345 1.73376 0
M  V30 2543 C 235.273 -0.389526 3.41083 0
M  V30 2544 C 234.359 0.51313 4.20984 0
M  V30 2545 N 234.75 1.62604 4.78951 0
M  V30 2546 C 233.048 0.313235 4.44899 0
M  V30 2547 C 233.749 2.18619 5.39055 0
M  V30 2548 N 232.725 1.47765 5.23132 0
M  V30 2549 H 236.527 1.22061 2.67354 0
M  V30 2550 H 234.041 0.764712 1.43269 0
M  V30 2551 H 236.038 -0.794353 4.09262 0
M  V30 2552 H 234.698 -1.2366 3.0023 0
M  V30 2553 H 235.709 2.00864 4.77362 0
M  V30 2554 H 232.386 -0.494452 4.14562 0
M  V30 2555 H 233.776 3.12228 5.94948 0
M  V30 2556 N 236.496 -1.42363 0.676048 0
M  V30 2557 C 237.426 -2.33497 0.0124832 0
M  V30 2558 C 238.407 -1.50748 -0.787981 0
M  V30 2559 O 239.592 -1.79346 -0.744884 0
M  V30 2560 C 236.722 -3.34377 -0.938582 0
M  V30 2561 C 235.676 -4.27289 -0.246622 0
M  V30 2562 C 235.002 -5.18386 -1.31071 0
M  V30 2563 C 236.302 -5.14916 0.875125 0
M  V30 2564 H 237.996 -2.89233 0.773593 0
M  V30 2565 H 235.542 -1.39073 0.37346 0
M  V30 2566 H 237.495 -3.97044 -1.41188 0
M  V30 2567 H 236.219 -2.76947 -1.73113 0
M  V30 2568 H 234.878 -3.66018 0.206456 0
M  V30 2569 H 234.526 -4.57282 -2.09528 0
M  V30 2570 H 234.226 -5.81378 -0.852839 0
M  V30 2571 H 235.75 -5.83929 -1.78492 0
M  V30 2572 H 237.164 -5.71262 0.482983 0
M  V30 2573 H 235.561 -5.86747 1.25887 0
M  V30 2574 H 236.631 -4.53242 1.72335 0
M  V30 2575 N 237.974 -0.419461 -1.51915 0
M  V30 2576 C 239.251 0.211999 -1.94448 0
M  V30 2577 C 239.631 1.61703 -1.35703 0
M  V30 2578 O 238.979 2.22102 -0.536931 0
M  V30 2579 C 239.189 0.207872 -3.4838 0
M  V30 2580 C 240.537 0.422192 -4.22496 0
M  V30 2581 O 241.561 0.286778 -3.55044 0
M  V30 2582 O 240.42 0.690009 -5.42126 0
M  V30 2583 H 237.514 0.139586 -0.815135 0
M  V30 2584 H 240.06 -0.476151 -1.62883 0
M  V30 2585 H 238.832 -0.775102 -3.83546 0
M  V30 2586 H 238.455 0.939688 -3.86336 0
M  V30 2587 N 239.452 1.56882 -0.150215 0
M  V30 2588 C 240.7 1.9584 0.499105 0
M  V30 2589 C 241.021 1.03623 1.65188 0
M  V30 2590 O 240.291 0.0984084 1.95653 0
M  V30 2591 H 238.871 0.723119 0.187373 0
M  V30 2592 H 241.533 1.9358 -0.226466 0
M  V30 2593 H 240.629 2.99638 0.873122 0
M  V30 2594 N 240.93 -0.123565 1.57115 0
M  V30 2595 C 242.17 -0.838097 1.86428 0
M  V30 2596 C 242.534 -1.77266 0.737611 0
M  V30 2597 O 243.735 -2.52842 0.912389 0
M  V30 2598 C 242.006 -1.57219 3.20962 0
M  V30 2599 S 243.565 -2.32893 3.71896 0
M  V30 2600 H 240.383 -0.279811 0.653626 0
M  V30 2601 H 242.985 -0.0967034 1.95261 0
M  V30 2602 H 241.689 -0.877522 4.00909 0
M  V30 2603 H 241.22 -2.35405 3.15195 0
M  V30 2604 H 243.235 -3.5853 3.43032 0
M  V30 2605 N 242.408 -1.52605 -0.393616 0
M  V30 2606 C 243.648 -1.6911 -1.1481 0
M  V30 2607 C 244.012 -0.41969 -1.87357 0
M  V30 2608 O 245.213 -0.461034 -2.64817 0
M  V30 2609 C 243.484 -2.88909 -2.10395 0
M  V30 2610 S 245.043 -3.25977 -2.93742 0
M  V30 2611 H 241.861 -0.595337 -0.38871 0
M  V30 2612 H 244.463 -1.90641 -0.433178 0
M  V30 2613 H 243.167 -3.79672 -1.55812 0
M  V30 2614 H 242.698 -2.69698 -2.86403 0
M  V30 2615 H 244.713 -2.75806 -4.12487 0
M  V30 2616 N 243.887 0.651787 -1.4349 0
M  V30 2617 C 244.834 1.76462 -1.4876 0
M  V30 2618 C 245.804 1.62641 -0.337189 0
M  V30 2619 O 246.989 1.82864 -0.544544 0
M  V30 2620 C 244.129 3.14623 -1.41796 0
M  V30 2621 C 243.242 3.39568 -2.67053 0
M  V30 2622 C 242.377 4.67585 -2.52068 0
M  V30 2623 C 241.416 4.85639 -3.72587 0
M  V30 2624 N 240.553 6.04915 -3.56402 0
M  V30 2625 H 245.393 1.71293 -2.43849 0
M  V30 2626 H 242.93 0.835889 -1.21043 0
M  V30 2627 H 244.888 3.94496 -1.35753 0
M  V30 2628 H 243.518 3.18859 -0.50288 0
M  V30 2629 H 242.57 2.53783 -2.8337 0
M  V30 2630 H 243.882 3.48795 -3.56572 0
M  V30 2631 H 243.036 5.55586 -2.4374 0
M  V30 2632 H 241.775 4.60681 -1.60075 0
M  V30 2633 H 240.78 3.96073 -3.81321 0
M  V30 2634 H 242.005 4.94372 -4.65589 0
M  V30 2635 H 239.951 5.9914 -2.67146 0
M  V30 2636 H 239.868 6.15106 -4.39524 0
M  V30 2637 H 241.136 6.95533 -3.51929 0
M  V30 2638 N 245.365 1.30045 0.890287 0
M  V30 2639 C 246.781 1.08261 1.17268 0
M  V30 2640 C 246.981 -0.160063 2.00863 0
M  V30 2641 O 246.037 -0.855181 2.37577 0
M  V30 2642 C 247.35 2.34323 1.8845 0
M  V30 2643 C 248.898 2.39735 2.01237 0
M  V30 2644 C 249.373 3.65625 2.7583 0
M  V30 2645 N 250.864 3.66402 2.83379 0
M  V30 2646 C 251.599 4.60498 3.41657 0
M  V30 2647 N 251.095 5.64933 4.01026 0
M  V30 2648 N 252.888 4.48051 3.39421 0
M  V30 2649 H 245.039 2.09777 0.332762 0
M  V30 2650 H 247.302 0.92446 0.209948 0
M  V30 2651 H 247.008 3.2498 1.34465 0
M  V30 2652 H 246.882 2.4256 2.88867 0
M  V30 2653 H 249.269 1.4956 2.54393 0
M  V30 2654 H 249.35 2.35476 0.999232 0
M  V30 2655 H 248.994 4.56156 2.23347 0
M  V30 2656 H 248.924 3.67144 3.77509 0
M  V30 2657 H 251.415 2.90896 2.41222 0
M  V30 2658 H 251.728 6.32841 4.43545 0
M  V30 2659 H 250.073 5.68732 3.99461 0
M  V30 2660 H 253.264 3.65649 2.92264 0
M  V30 2661 H 253.437 5.21565 3.84544 0
M  V30 2662 N 246.843 -1.10192 1.12674 0
M  V30 2663 C 248.259 -1.34235 0.863317 0
M  V30 2664 C 248.459 -1.95062 -0.505277 0
M  V30 2665 O 247.515 -2.19192 -1.25345 0
M  V30 2666 C 248.828 -2.2616 1.98172 0
M  V30 2667 C 250.376 -2.3969 2.0129 0
M  V30 2668 C 250.851 -3.34946 3.1237 0
M  V30 2669 N 252.342 -3.42515 3.11829 0
M  V30 2670 C 253.077 -4.16199 3.94419 0
M  V30 2671 N 252.573 -4.92747 4.87004 0
M  V30 2672 N 254.366 -4.11843 3.82547 0
M  V30 2673 H 246.517 -0.690798 2.00853 0
M  V30 2674 H 248.78 -0.366774 0.874174 0
M  V30 2675 H 248.486 -1.8868 2.96804 0
M  V30 2676 H 248.36 -3.26488 1.88906 0
M  V30 2677 H 250.747 -2.76438 1.03276 0
M  V30 2678 H 250.828 -1.39169 2.14629 0
M  V30 2679 H 250.472 -2.98923 4.10619 0
M  V30 2680 H 250.402 -4.35353 2.96269 0
M  V30 2681 H 252.893 -2.87926 2.44759 0
M  V30 2682 H 253.206 -5.46376 5.46528 0
M  V30 2683 H 251.551 -4.91862 4.91016 0
M  V30 2684 H 254.742 -3.51136 3.0955 0
M  V30 2685 H 254.915 -4.69007 4.47142 0
M  V30 2686 N 248.321 -0.919034 -1.28029 0
M  V30 2687 C 249.551 -0.570143 -1.98577 0
M  V30 2688 C 249.959 0.854172 -1.68821 0
M  V30 2689 O 249.302 1.57807 -0.940351 0
M  V30 2690 C 249.364 -0.705734 -3.52505 0
M  V30 2691 C 249.028 -2.10057 -4.05863 0
M  V30 2692 C 250.025 -3.07385 -4.19298 0
M  V30 2693 C 247.71 -2.41517 -4.40426 0
M  V30 2694 C 249.704 -4.34287 -4.66555 0
M  V30 2695 C 247.391 -3.68657 -4.87376 0
M  V30 2696 C 248.389 -4.64856 -5.00398 0
M  V30 2697 O 248.077 -5.89735 -5.46322 0
M  V30 2698 H 247.809 -0.215592 -0.6407 0
M  V30 2699 H 250.363 -1.23583 -1.64062 0
M  V30 2700 H 248.593 0.0170414 -3.86696 0
M  V30 2701 H 250.282 -0.363172 -4.04272 0
M  V30 2702 H 251.048 -2.84398 -3.92865 0
M  V30 2703 H 246.927 -1.67389 -4.29537 0
M  V30 2704 H 250.471 -5.09377 -4.76635 0
M  V30 2705 H 246.368 -3.91466 -5.13249 0
M  V30 2706 H 247.136 -5.92599 -5.64596 0
M  V30 2707 N 249.799 1.42003 -0.683588 0
M  V30 2708 C 250.729 2.33487 -0.024866 0
M  V30 2709 C 251.71 1.51163 0.779975 0
M  V30 2710 O 252.895 1.79739 0.735362 0
M  V30 2711 C 250.025 3.3487 0.920836 0
M  V30 2712 C 248.979 4.27414 0.223958 0
M  V30 2713 C 248.305 5.19074 1.2832 0
M  V30 2714 C 249.605 5.14445 -0.90242 0
M  V30 2715 H 251.299 2.88819 -0.788921 0
M  V30 2716 H 248.845 1.38873 -0.38083 0
M  V30 2717 H 250.798 3.97787 1.39081 0
M  V30 2718 H 249.522 2.77861 1.71642 0
M  V30 2719 H 248.181 3.65904 -0.225864 0
M  V30 2720 H 247.829 4.58387 2.071 0
M  V30 2721 H 247.529 5.81822 0.821995 0
M  V30 2722 H 249.053 5.84867 1.75392 0
M  V30 2723 H 250.467 5.70998 -0.513272 0
M  V30 2724 H 248.864 5.86072 -1.28997 0
M  V30 2725 H 249.934 4.52322 -1.74737 0
M  V30 2726 N 251.277 0.427512 1.51691 0
M  V30 2727 C 252.209 -0.424521 2.25234 0
M  V30 2728 C 253.222 -0.994671 1.2888 0
M  V30 2729 O 254.411 -0.890483 1.54702 0
M  V30 2730 C 251.511 -1.60479 2.98496 0
M  V30 2731 C 250.684 -1.15527 4.21868 0
M  V30 2732 C 249.743 -2.20454 4.77793 0
M  V30 2733 O 248.769 -1.8029 5.39893 0
M  V30 2734 N 249.971 -3.52831 4.60967 0
M  V30 2735 H 252.736 0.205749 2.98993 0
M  V30 2736 H 250.297 0.255867 1.59865 0
M  V30 2737 H 252.289 -2.30276 3.32799 0
M  V30 2738 H 250.859 -2.14061 2.27809 0
M  V30 2739 H 250.079 -0.284736 3.9317 0
M  V30 2740 H 251.367 -0.832173 5.01949 0
M  V30 2741 H 250.765 -3.88201 4.11481 0
M  V30 2742 H 249.322 -4.18551 4.99658 0
M  V30 2743 N 252.755 -1.56801 0.158532 0
M  V30 2744 C 253.702 -2.17337 -0.776729 0
M  V30 2745 C 254.672 -1.1096 -1.23601 0
M  V30 2746 O 255.857 -1.39054 -1.30647 0
M  V30 2747 C 252.997 -2.80822 -2.00582 0
M  V30 2748 C 252.11 -4.01624 -1.59129 0
M  V30 2749 C 251.245 -4.53072 -2.77306 0
M  V30 2750 C 250.284 -5.66314 -2.32282 0
M  V30 2751 N 249.421 -6.12329 -3.43508 0
M  V30 2752 H 254.261 -2.96918 -0.253701 0
M  V30 2753 H 251.798 -1.46661 -0.113504 0
M  V30 2754 H 253.756 -3.15779 -2.72652 0
M  V30 2755 H 252.386 -2.03866 -2.50277 0
M  V30 2756 H 251.438 -3.72571 -0.767806 0
M  V30 2757 H 252.75 -4.83633 -1.2207 0
M  V30 2758 H 251.904 -4.90145 -3.57551 0
M  V30 2759 H 250.643 -3.70095 -3.17617 0
M  V30 2760 H 249.648 -5.28806 -1.5048 0
M  V30 2761 H 250.873 -6.51085 -1.93043 0
M  V30 2762 H 248.819 -5.32284 -3.83418 0
M  V30 2763 H 248.736 -6.89293 -3.105 0
M  V30 2764 H 250.004 -6.5405 -4.24075 0
M  V30 2765 N 254.233 0.115231 -1.57178 0
M  V30 2766 C 255.482 0.820945 -1.84237 0
M  V30 2767 C 255.795 1.80866 -0.744761 0
M  V30 2768 O 257.001 2.56083 -0.901871 0
M  V30 2769 C 255.457 1.51072 -3.26658 0
M  V30 2770 C 255.065 0.563795 -4.44438 0
M  V30 2771 C 256.809 2.20134 -3.62962 0
M  V30 2772 C 254.716 1.25701 -5.77887 0
M  V30 2773 H 253.646 0.310328 -0.687177 0
M  V30 2774 H 256.297 0.0737134 -1.83352 0
M  V30 2775 H 254.679 2.30471 -3.22024 0
M  V30 2776 H 255.853 -0.197247 -4.60378 0
M  V30 2777 H 254.168 -0.0200638 -4.16395 0
M  V30 2778 H 256.765 2.72696 -4.59936 0
M  V30 2779 H 257.108 2.98107 -2.90582 0
M  V30 2780 H 257.641 1.47619 -3.69396 0
M  V30 2781 H 254.38 0.518493 -6.53446 0
M  V30 2782 H 253.9 1.98997 -5.65827 0
M  V30 2783 H 255.579 1.78915 -6.2177 0
M  V30 2784 N 255.711 1.52812 0.385517 0
M  V30 2785 C 256.621 1.80766 1.49535 0
M  V30 2786 C 257.637 0.694651 1.59532 0
M  V30 2787 O 258.813 0.982611 1.75803 0
M  V30 2788 C 255.878 1.97381 2.85029 0
M  V30 2789 C 254.939 3.21295 2.84724 0
M  V30 2790 C 254.172 3.37108 4.13756 0
M  V30 2791 O 254.395 2.5765 5.08893 0
M  V30 2792 O 253.329 4.30378 4.20783 0
M  V30 2793 H 257.155 2.75015 1.28842 0
M  V30 2794 H 254.74 1.37946 0.573697 0
M  V30 2795 H 256.622 2.09996 3.65349 0
M  V30 2796 H 255.297 1.06322 3.05741 0
M  V30 2797 H 254.204 3.1412 2.03174 0
M  V30 2798 H 255.537 4.12212 2.68965 0
M  V30 2799 N 257.189 -0.644168 1.43834 0
M  V30 2800 C 258.099 -1.78563 1.52159 0
M  V30 2801 C 259.115 -1.69147 0.408069 0
M  V30 2802 O 260.291 -1.90156 0.663524 0
M  V30 2803 C 257.356 -3.14888 1.45073 0
M  V30 2804 C 256.417 -3.36034 2.6717 0
M  V30 2805 C 255.65 -4.65855 2.60413 0
M  V30 2806 O 255.873 -5.45805 1.65689 0
M  V30 2807 O 254.807 -4.88918 3.5106 0
M  V30 2808 H 258.633 -1.74494 2.48567 0
M  V30 2809 H 256.218 -0.80378 1.25935 0
M  V30 2810 H 258.1 -3.96179 1.43597 0
M  V30 2811 H 256.775 -3.19528 0.518037 0
M  V30 2812 H 255.682 -2.54472 2.74217 0
M  V30 2813 H 257.015 -3.36247 3.59442 0
M  V30 2814 N 258.668 -1.30515 -0.883378 0
M  V30 2815 C 259.915 -1.1943 -1.63532 0
M  V30 2816 C 260.243 0.250627 -1.92878 0
M  V30 2817 O 259.498 1.19556 -1.54935 0
M  V30 2818 C 259.797 -1.96994 -2.98209 0
M  V30 2819 C 259.463 -3.466 -2.88408 0
M  V30 2820 C 258.125 -3.87397 -2.85442 0
M  V30 2821 C 260.477 -4.41863 -2.76418 0
M  V30 2822 C 257.805 -5.21745 -2.68327 0
M  V30 2823 C 260.157 -5.7632 -2.60841 0
M  V30 2824 C 258.821 -6.16354 -2.56251 0
M  V30 2825 H 258.091 -0.437025 -0.598406 0
M  V30 2826 H 260.738 -1.61635 -1.02696 0
M  V30 2827 H 259.043 -1.47429 -3.63004 0
M  V30 2828 H 260.74 -1.85808 -3.55354 0
M  V30 2829 H 257.33 -3.14182 -2.91527 0
M  V30 2830 H 261.514 -4.11285 -2.77775 0
M  V30 2831 H 256.77 -5.51853 -2.63189 0
M  V30 2832 H 260.944 -6.49772 -2.50538 0
M  V30 2833 H 258.571 -7.20401 -2.42748 0
M  V30 2834 N 260.146 1.09593 -1.13257 0
M  V30 2835 C 261.109 2.14359 -0.811358 0
M  V30 2836 C 262.109 1.59808 0.178377 0
M  V30 2837 O 263.299 1.74132 -0.0484911 0
M  V30 2838 C 260.431 3.40269 -0.207276 0
M  V30 2839 H 261.624 2.44284 -1.73969 0
M  V30 2840 H 259.177 1.25102 -0.936973 0
M  V30 2841 H 259.912 3.15969 0.73036 0
M  V30 2842 H 259.697 3.81154 -0.919992 0
M  V30 2843 H 261.187 4.176 0.000667944 0
M  V30 2844 N 261.624 0.925811 1.2754 0
M  V30 2845 C 262.534 0.428993 2.30644 0
M  V30 2846 C 263.55 -0.489387 1.66976 0
M  V30 2847 O 264.726 -0.372653 1.97922 0
M  V30 2848 C 261.791 -0.311967 3.45294 0
M  V30 2849 C 260.852 0.641098 4.24486 0
M  V30 2850 C 260.085 -0.0645955 5.33661 0
M  V30 2851 O 260.308 -1.28429 5.55754 0
M  V30 2852 O 259.242 0.606265 5.98839 0
M  V30 2853 H 263.068 1.28504 2.75173 0
M  V30 2854 H 260.653 0.691086 1.32455 0
M  V30 2855 H 262.535 -0.729972 4.15029 0
M  V30 2856 H 261.21 -1.14365 3.02824 0
M  V30 2857 H 260.117 1.10874 3.57292 0
M  V30 2858 H 261.45 1.43995 4.70666 0
M  V30 2859 N 263.102 -1.41638 0.69111 0
M  V30 2860 C 264.035 -2.28183 -0.0274913 0
M  V30 2861 C 265.013 -1.41984 -0.792424 0
M  V30 2862 O 266.197 -1.71415 -0.784169 0
M  V30 2863 C 263.324 -3.22135 -1.04628 0
M  V30 2864 C 262.37 -4.24848 -0.375037 0
M  V30 2865 S 263.203 -5.28231 0.879321 0
M  V30 2866 C 264.359 -6.25748 -0.137983 0
M  V30 2867 H 264.592 -2.88782 0.706553 0
M  V30 2868 H 262.125 -1.46709 0.481222 0
M  V30 2869 H 264.083 -3.76797 -1.62894 0
M  V30 2870 H 262.744 -2.6064 -1.75287 0
M  V30 2871 H 261.937 -4.90837 -1.14433 0
M  V30 2872 H 261.539 -3.73758 0.134434 0
M  V30 2873 H 263.831 -6.70188 -0.992659 0
M  V30 2874 H 264.774 -7.06417 0.487867 0
M  V30 2875 H 265.182 -5.62363 -0.490762 0
M  V30 2876 N 264.58 -0.43555 -1.51462 0
M  V30 2877 C 265.826 0.131709 -2.02372 0
M  V30 2878 C 266.159 1.42516 -1.3192 0
M  V30 2879 O 265.434 1.89606 -0.433573 0
M  V30 2880 C 265.717 0.352301 -3.58373 0
M  V30 2881 C 265.57 -0.959676 -4.39443 0
M  V30 2882 C 266.889 1.12286 -4.25535 0
M  V30 2883 H 264.008 0.0463936 -0.735538 0
M  V30 2884 H 266.65 -0.574197 -1.81116 0
M  V30 2885 H 264.8 0.9536 -3.76615 0
M  V30 2886 H 266.472 -1.59482 -4.32855 0
M  V30 2887 H 264.715 -1.56468 -4.04599 0
M  V30 2888 H 265.386 -0.759394 -5.46752 0
M  V30 2889 H 267.862 0.613545 -4.11552 0
M  V30 2890 H 266.738 1.24598 -5.34571 0
M  V30 2891 H 266.999 2.15048 -3.86273 0
M  V30 2892 N 266.058 1.56714 -0.166846 0
M  V30 2893 C 266.968 2.21331 0.777791 0
M  V30 2894 C 267.984 1.20358 1.25658 0
M  V30 2895 O 269.16 1.53005 1.30964 0
M  V30 2896 C 266.225 2.83787 1.99163 0
M  V30 2897 C 265.286 3.99947 1.56016 0
M  V30 2898 C 264.519 4.59415 2.71613 0
M  V30 2899 O 264.742 4.17769 3.88362 0
M  V30 2900 O 263.676 5.49359 2.45945 0
M  V30 2901 H 267.502 3.02605 0.257636 0
M  V30 2902 H 265.087 1.49275 0.0611393 0
M  V30 2903 H 266.969 3.23405 2.70161 0
M  V30 2904 H 265.644 2.05513 2.50092 0
M  V30 2905 H 264.551 3.65007 0.819809 0
M  V30 2906 H 265.884 4.79801 1.09782 0
M  V30 2907 N 267.536 -0.106894 1.57237 0
M  V30 2908 C 268.952 -0.46078 1.52804 0
M  V30 2909 C 269.152 -1.81184 0.881746 0
M  V30 2910 O 268.208 -2.48102 0.469224 0
M  V30 2911 C 269.521 -0.434127 2.9755 0
M  V30 2912 C 271.069 -0.516821 3.08704 0
M  V30 2913 C 271.544 -0.520436 4.55033 0
M  V30 2914 N 273.035 -0.58153 4.59535 0
M  V30 2915 C 273.77 -0.605973 5.70189 0
M  V30 2916 N 273.266 -0.587331 6.90306 0
M  V30 2917 N 275.059 -0.649895 5.5833 0
M  V30 2918 H 267.21 0.778203 1.9763 0
M  V30 2919 H 269.473 0.288403 0.903066 0
M  V30 2920 H 269.179 0.491197 3.48253 0
M  V30 2921 H 269.053 -1.25748 3.55622 0
M  V30 2922 H 271.44 -1.43256 2.57995 0
M  V30 2923 H 271.521 0.334449 2.53604 0
M  V30 2924 H 271.165 0.391313 5.0639 0
M  V30 2925 H 271.095 -1.38876 5.07958 0
M  V30 2926 H 273.586 -0.60161 3.73081 0
M  V30 2927 H 273.899 -0.60894 7.70397 0
M  V30 2928 H 272.244 -0.554564 6.92784 0
M  V30 2929 H 275.435 -0.661907 4.63397 0
M  V30 2930 H 275.608 -0.665476 6.44574 0
M  V30 2931 N 269.014 -1.53014 -0.377408 0
M  V30 2932 C 269.924 -1.81557 -1.48574 0
M  V30 2933 C 270.94 -0.703102 -1.59162 0
M  V30 2934 O 272.116 -0.99192 -1.75279 0
M  V30 2935 C 269.181 -1.9889 -2.83978 0
M  V30 2936 C 268.242 -3.22801 -2.83016 0
M  V30 2937 C 267.475 -3.39298 -4.11962 0
M  V30 2938 O 267.698 -2.60345 -5.0752 0
M  V30 2939 O 266.632 -4.32604 -4.18494 0
M  V30 2940 H 270.458 -2.75695 -1.27382 0
M  V30 2941 H 268.043 -1.38248 -0.566373 0
M  V30 2942 H 269.925 -2.11931 -3.6423 0
M  V30 2943 H 268.6 -1.07942 -3.05172 0
M  V30 2944 H 267.507 -3.15193 -2.01505 0
M  V30 2945 H 268.84 -4.13632 -2.66775 0
M  V30 2946 N 270.492 0.636531 -1.44174 0
M  V30 2947 C 271.402 1.77754 -1.53103 0
M  V30 2948 C 272.418 1.68928 -0.417034 0
M  V30 2949 O 273.594 1.89801 -0.6736 0
M  V30 2950 C 270.659 3.14115 -1.46741 0
M  V30 2951 C 269.72 3.34612 -2.68948 0
M  V30 2952 C 268.953 4.64467 -2.6288 0
M  V30 2953 O 269.176 5.44919 -1.68581 0
M  V30 2954 O 268.11 4.87049 -3.53648 0
M  V30 2955 H 271.936 1.73174 -2.49489 0
M  V30 2956 H 269.521 0.79709 -1.2636 0
M  V30 2957 H 271.403 3.95412 -1.45696 0
M  V30 2958 H 270.078 3.19249 -0.534975 0
M  V30 2959 H 268.985 2.53014 -2.75562 0
M  V30 2960 H 270.318 3.34336 -3.61221 0
M  V30 2961 N 271.97 1.30982 0.876444 0
M  V30 2962 C 272.88 1.2003 2.01569 0
M  V30 2963 C 273.896 0.11838 1.73597 0
M  V30 2964 O 275.072 0.33495 1.98595 0
M  V30 2965 C 272.137 0.901637 3.34771 0
M  V30 2966 C 271.198 2.06979 3.76109 0
M  V30 2967 C 270.431 1.78529 5.02954 0
M  V30 2968 O 270.654 0.717296 5.65872 0
M  V30 2969 O 269.588 2.64019 5.40905 0
M  V30 2970 H 273.414 2.15753 2.13739 0
M  V30 2971 H 270.999 1.10658 1.00375 0
M  V30 2972 H 272.881 0.750645 4.1466 0
M  V30 2973 H 271.556 -0.0256141 3.2369 0
M  V30 2974 H 270.463 2.27616 2.96887 0
M  V30 2975 H 271.796 2.97907 3.91807 0
M  V30 2976 N 273.449 -1.08991 1.13837 0
M  V30 2977 C 274.726 -1.77863 0.813876 0
M  V30 2978 C 275.106 -1.99375 -0.693746 0
M  V30 2979 O 274.454 -1.59875 -1.63255 0
M  V30 2980 C 274.664 -3.0986 1.60586 0
M  V30 2981 C 276.012 -3.84493 1.8014 0
M  V30 2982 O 277.036 -3.19624 1.57222 0
M  V30 2983 O 275.895 -5.00957 2.18413 0
M  V30 2984 H 272.989 -0.771589 0.297624 0
M  V30 2985 H 275.535 -1.15507 1.24323 0
M  V30 2986 H 274.307 -2.89715 2.63022 0
M  V30 2987 H 273.93 -3.79942 1.17173 0
M  V30 2988 N 274.927 -0.932562 -1.27047 0
M  V30 2989 C 276.204 -0.49377 -1.89265 0
M  V30 2990 C 276.584 1.02833 -1.8436 0
M  V30 2991 O 275.932 1.88461 -1.29209 0
M  V30 2992 C 276.142 -1.04536 -3.32976 0
M  V30 2993 C 277.49 -1.10879 -4.09867 0
M  V30 2994 O 278.514 -0.995327 -3.42011 0
M  V30 2995 O 277.373 -1.28417 -5.31198 0
M  V30 2996 H 274.467 -0.159596 -0.811454 0
M  V30 2997 H 277.013 -1.02457 -1.3528 0
M  V30 2998 H 275.785 -2.08913 -3.30864 0
M  V30 2999 H 275.408 -0.496494 -3.94488 0
M  V30 3000 N 276.405 1.4127 -0.698611 0
M  V30 3001 C 277.368 2.29158 -0.044132 0
M  V30 3002 C 278.368 1.44529 0.704841 0
M  V30 3003 O 279.558 1.65643 0.539276 0
M  V30 3004 C 276.69 3.27459 0.947809 0
M  V30 3005 H 277.883 2.88529 -0.817994 0
M  V30 3006 H 275.436 1.49307 -0.46228 0
M  V30 3007 H 276.171 2.73073 1.74933 0
M  V30 3008 H 275.956 3.8991 0.41385 0
M  V30 3009 H 277.446 3.93311 1.40344 0
M  V30 3010 N 277.883 0.443576 1.51229 0
M  V30 3011 C 278.813 -0.355142 2.30783 0
M  V30 3012 C 279.794 -1.0154 1.36468 0
M  V30 3013 O 280.979 -1.01785 1.65389 0
M  V30 3014 C 278.109 -1.45312 3.15439 0
M  V30 3015 C 277.063 -0.916002 4.18083 0
M  V30 3016 C 276.389 -2.1102 4.91299 0
M  V30 3017 C 277.689 0.0538602 5.22272 0
M  V30 3018 H 279.383 0.308767 2.97804 0
M  V30 3019 H 276.929 0.149937 1.43217 0
M  V30 3020 H 278.882 -2.01914 3.69876 0
M  V30 3021 H 277.606 -2.14541 2.46252 0
M  V30 3022 H 276.265 -0.372145 3.64706 0
M  V30 3023 H 275.913 -2.78882 4.18609 0
M  V30 3024 H 275.613 -1.75717 5.60712 0
M  V30 3025 H 277.137 -2.68164 5.48562 0
M  V30 3026 H 278.551 -0.422069 5.71744 0
M  V30 3027 H 276.948 0.319776 5.99247 0
M  V30 3028 H 278.018 0.98858 4.74716 0
M  V30 3029 N 279.361 -1.56624 0.175154 0
M  V30 3030 C 280.638 -1.88688 -0.515373 0
M  V30 3031 C 281.018 -1.08564 -1.81044 0
M  V30 3032 O 280.366 -0.180703 -2.27784 0
M  V30 3033 C 280.576 -3.40768 -0.753552 0
M  V30 3034 C 281.924 -4.10587 -1.08184 0
M  V30 3035 O 282.948 -3.46106 -0.841961 0
M  V30 3036 O 281.807 -5.24512 -1.53459 0
M  V30 3037 H 278.901 -0.78301 -0.26613 0
M  V30 3038 H 281.447 -1.68347 0.213877 0
M  V30 3039 H 280.219 -3.90965 0.161829 0
M  V30 3040 H 279.842 -3.66733 -1.53598 0
M  V30 3041 N 280.839 0.0985539 -1.57292 0
M  V30 3042 C 282.064 0.820196 -1.90493 0
M  V30 3043 C 282.489 1.71658 -0.769094 0
M  V30 3044 O 281.847 1.79133 0.279495 0
M  V30 3045 C 281.895 1.61242 -3.22542 0
M  V30 3046 O 280.999 2.72108 -3.09888 0
M  V30 3047 H 280.34 0.225547 -0.62452 0
M  V30 3048 H 282.87 0.0748159 -2.04463 0
M  V30 3049 H 282.88 1.99737 -3.55766 0
M  V30 3050 H 281.555 0.954535 -4.04798 0
M  V30 3051 H 280.132 2.36667 -2.88172 0
M  V30 3052 N 282.317 1.53212 0.369288 0
M  V30 3053 C 283.227 1.82342 1.47609 0
M  V30 3054 C 284.243 0.711532 1.58787 0
M  V30 3055 O 285.419 1.0012 1.74751 0
M  V30 3056 C 282.484 2.00393 2.8292 0
M  V30 3057 C 281.545 3.24297 2.81301 0
M  V30 3058 C 280.778 3.41478 4.10157 0
M  V30 3059 O 281.001 2.63033 5.06132 0
M  V30 3060 O 279.935 4.34817 4.16194 0
M  V30 3061 H 283.761 2.76366 1.25918 0
M  V30 3062 H 281.346 1.38547 0.559034 0
M  V30 3063 H 283.228 2.13859 3.63101 0
M  V30 3064 H 281.903 1.09559 3.04596 0
M  V30 3065 H 280.81 3.16257 1.99831 0
M  V30 3066 H 282.143 4.15041 2.64578 0
M  V30 3067 N 283.795 -0.628877 1.44509 0
M  V30 3068 C 285.043 -1.38565 1.4712 0
M  V30 3069 C 285.364 -1.94712 0.105899 0
M  V30 3070 O 284.634 -1.75912 -0.862079 0
M  V30 3071 H 283.214 -0.514333 0.541729 0
M  V30 3072 H 285.876 -0.740018 1.80305 0
M  V30 3073 H 284.972 -2.21583 2.19789 0
M  V30 3074 N 285.273 -1.31445 -0.869486 0
M  V30 3075 C 286.689 -1.10113 -1.15531 0
M  V30 3076 C 286.889 0.128087 -2.01092 0
M  V30 3077 O 285.945 0.817276 -2.38908 0
M  V30 3078 C 287.258 -2.37291 -1.84698 0
M  V30 3079 C 288.806 -2.42906 -1.97397 0
M  V30 3080 C 289.281 -3.69967 -2.69979 0
M  V30 3081 N 290.772 -3.70864 -2.77514 0
M  V30 3082 C 291.507 -4.65875 -3.34287 0
M  V30 3083 N 291.003 -5.71242 -3.91988 0
M  V30 3084 N 292.796 -4.53394 -3.3225 0
M  V30 3085 H 284.947 -2.1028 -0.299347 0
M  V30 3086 H 287.21 -0.927683 -0.195214 0
M  V30 3087 H 286.916 -3.27078 -1.29278 0
M  V30 3088 H 286.79 -2.47125 -2.84972 0
M  V30 3089 H 289.177 -1.53588 -2.51982 0
M  V30 3090 H 289.258 -2.37036 -0.961643 0
M  V30 3091 H 288.902 -4.59652 -2.16062 0
M  V30 3092 H 288.832 -3.73103 -3.7162 0
M  V30 3093 H 291.323 -2.94697 -2.36563 0
M  V30 3094 H 291.636 -6.39817 -4.33421 0
M  V30 3095 H 289.981 -5.75015 -3.90362 0
M  V30 3096 H 293.172 -3.70252 -2.8641 0
M  V30 3097 H 293.345 -5.27617 -3.76197 0
M  V30 3098 N 286.751 1.08385 -1.14413 0
M  V30 3099 C 288.028 1.77429 -0.823297 0
M  V30 3100 C 288.408 1.9974 0.683163 0
M  V30 3101 O 287.756 1.60739 1.62405 0
M  V30 3102 C 287.966 3.09004 -1.62227 0
M  V30 3103 C 289.314 3.83532 -1.82177 0
M  V30 3104 O 290.338 3.18786 -1.58915 0
M  V30 3105 O 289.197 4.99792 -2.21067 0
M  V30 3106 H 286.291 0.769999 -0.301712 0
M  V30 3107 H 288.837 1.14846 -1.24934 0
M  V30 3108 H 287.609 2.88316 -2.64555 0
M  V30 3109 H 287.232 3.79316 -1.19187 0
M  V30 3110 N 288.23 0.939286 1.26551 0
M  V30 3111 C 289.455 0.602008 1.98471 0
M  V30 3112 C 289.88 -0.815624 1.69497 0
M  V30 3113 O 289.238 -1.54912 0.941905 0
M  V30 3114 C 289.286 0.848407 3.50477 0
M  V30 3115 O 288.39 -0.0804009 4.12322 0
M  V30 3116 H 287.731 0.23049 0.622712 0
M  V30 3117 H 290.261 1.2617 1.61066 0
M  V30 3118 H 290.271 0.768553 4.00696 0
M  V30 3119 H 288.946 1.88171 3.70897 0
M  V30 3120 H 287.523 0.0503508 3.72866 0
M  V30 3121 N 289.708 -1.40897 0.706093 0
M  V30 3122 C 290.618 -2.3455 0.0482286 0
M  V30 3123 C 291.634 -1.56796 -0.754396 0
M  V30 3124 O 292.81 -1.89228 -0.689538 0
M  V30 3125 C 289.875 -3.35625 -0.869303 0
M  V30 3126 C 288.936 -4.29261 -0.0576994 0
M  V30 3127 C 288.169 -5.25508 -0.931531 0
M  V30 3128 O 288.392 -5.27472 -2.17092 0
M  V30 3129 O 287.326 -6.00727 -0.375587 0
M  V30 3130 H 291.152 -2.92407 0.820476 0
M  V30 3131 H 288.737 -1.4193 0.4665 0
M  V30 3132 H 290.619 -3.97635 -1.39514 0
M  V30 3133 H 289.294 -2.80196 -1.62086 0
M  V30 3134 H 288.201 -3.70566 0.512988 0
M  V30 3135 H 289.534 -4.87817 0.655426 0
M  V30 3136 N 291.186 -0.45159 -1.50991 0
M  V30 3137 C 292.434 0.109857 -2.01801 0
M  V30 3138 C 292.755 1.41958 -1.3369 0
M  V30 3139 O 292.025 1.9003 -0.475951 0
M  V30 3140 H 290.605 0.0435884 -0.745727 0
M  V30 3141 H 293.267 -0.597557 -1.85514 0
M  V30 3142 H 292.363 0.275489 -3.10882 0
M  V30 3143 N 292.664 1.56529 -0.183458 0
M  V30 3144 C 294.075 1.83739 0.331177 0
M  V30 3145 C 294.426 1.10373 1.62211 0
M  V30 3146 O 293.551 0.36071 2.13373 0
M  V30 3147 C 294.146 3.33306 0.607646 0
M  V30 3148 C 292.705 3.60969 1.06668 0
M  V30 3149 C 291.852 2.77086 0.109029 0
M  V30 3150 H 294.803 1.53379 -0.407484 0
M  V30 3151 H 294.824 3.51444 1.45832 0
M  V30 3152 H 294.336 3.86677 -0.332086 0
M  V30 3153 H 292.437 3.13021 2.0211 0
M  V30 3154 H 292.55 4.69231 0.967447 0
M  V30 3155 H 290.914 2.47319 0.608714 0
M  V30 3156 H 291.697 3.33241 -0.82494 0
M  V30 3157 N 294.142 -0.090211 1.57342 0
M  V30 3158 C 295.105 -1.09335 2.01441 0
M  V30 3159 C 296.105 -1.32666 0.908641 0
M  V30 3160 O 297.295 -1.28697 1.174 0
M  V30 3161 C 294.427 -2.44136 2.3793 0
M  V30 3162 H 295.62 -0.713662 2.91285 0
M  V30 3163 H 293.173 -0.335404 1.52659 0
M  V30 3164 H 293.908 -2.86972 1.51055 0
M  V30 3165 H 293.693 -2.28548 3.18603 0
M  V30 3166 H 295.183 -3.16277 2.72688 0
M  V30 3167 N 295.62 -1.53406 -0.361157 0
M  V30 3168 C 296.53 -1.83122 -1.4664 0
M  V30 3169 C 297.546 -0.719943 -1.58407 0
M  V30 3170 O 298.722 -1.01046 -1.74218 0
M  V30 3171 C 295.787 -2.01891 -2.81853 0
M  V30 3172 C 294.848 -3.25784 -2.79577 0
M  V30 3173 C 294.081 -3.43648 -4.0834 0
M  V30 3174 O 294.304 -2.65714 -5.0473 0
M  V30 3175 O 293.238 -4.37018 -4.13883 0
M  V30 3176 H 297.064 -2.7703 -1.24451 0
M  V30 3177 H 294.649 -1.38841 -0.551678 0
M  V30 3178 H 296.531 -2.15782 -3.61962 0
M  V30 3179 H 295.206 -1.11173 -3.0401 0
M  V30 3180 H 294.113 -3.17312 -1.98151 0
M  V30 3181 H 295.446 -4.16439 -2.62373 0
M  V30 3182 N 297.098 0.621204 -1.44841 0
M  V30 3183 C 298.346 1.37783 -1.47852 0
M  V30 3184 C 298.667 1.94653 -0.116224 0
M  V30 3185 O 297.937 1.76367 0.852737 0
M  V30 3186 H 296.517 0.511453 -0.544449 0
M  V30 3187 H 299.179 0.730446 -1.80694 0
M  V30 3188 H 298.275 2.20414 -2.20961 0
M  V30 3189 N 298.576 1.31904 0.862503 0
M  V30 3190 C 299.486 1.22161 2.00285 0
M  V30 3191 C 300.502 0.136785 1.73462 0
M  V30 3192 O 301.678 0.355994 1.98229 0
M  V30 3193 C 298.743 0.937093 3.33796 0
M  V30 3194 C 297.804 2.10957 3.73893 0
M  V30 3195 C 297.037 1.83853 5.01033 0
M  V30 3196 O 297.26 0.777274 5.65079 0
M  V30 3197 O 296.194 2.69741 5.38074 0
M  V30 3198 H 300.02 2.18008 2.11439 0
M  V30 3199 H 297.605 1.11716 0.991957 0
M  V30 3200 H 299.487 0.794583 4.13841 0
M  V30 3201 H 298.162 0.00871894 3.23699 0
M  V30 3202 H 297.069 2.30752 2.94456 0
M  V30 3203 H 298.402 3.02046 3.88625 0
M  V30 3204 N 300.054 -1.07777 1.14986 0
M  V30 3205 C 301.302 -1.79934 0.920235 0
M  V30 3206 C 301.623 -1.86955 -0.554336 0
M  V30 3207 O 300.893 -1.36731 -1.40291 0
M  V30 3208 H 299.473 -0.666424 0.337473 0
M  V30 3209 H 302.135 -1.3027 1.44968 0
M  V30 3210 H 301.231 -2.82539 1.32583 0
M  V30 3211 N 301.532 -0.945985 -1.26051 0
M  V30 3212 C 302.948 -0.649045 -1.45807 0
M  V30 3213 C 303.148 0.796158 -1.85104 0
M  V30 3214 O 302.204 1.57233 -1.97571 0
M  V30 3215 C 303.517 -1.61458 -2.53677 0
M  V30 3216 C 305.065 -1.62481 -2.67524 0
M  V30 3217 C 305.54 -2.57776 -3.7857 0
M  V30 3218 N 307.031 -2.5609 -3.85969 0
M  V30 3219 C 307.766 -3.26508 -4.7136 0
M  V30 3220 N 307.262 -4.0637 -5.61102 0
M  V30 3221 N 309.055 -3.15437 -4.65248 0
M  V30 3222 H 301.206 -1.88005 -0.988328 0
M  V30 3223 H 303.469 -0.808198 -0.4955 0
M  V30 3224 H 303.175 -2.64644 -2.31638 0
M  V30 3225 H 303.049 -1.37036 -3.51427 0
M  V30 3226 H 305.436 -0.600167 -2.88933 0
M  V30 3227 H 305.517 -1.90958 -1.70202 0
M  V30 3228 H 305.161 -3.60361 -3.57913 0
M  V30 3229 H 305.091 -2.26587 -4.75359 0
M  V30 3230 H 307.582 -1.98105 -3.21812 0
M  V30 3231 H 307.895 -4.57042 -6.23164 0
M  V30 3232 H 306.24 -4.10469 -5.60839 0
M  V30 3233 H 309.431 -2.52525 -3.94143 0
M  V30 3234 H 309.604 -3.70584 -5.31575 0
M  V30 3235 N 303.011 1.40521 -0.713556 0
M  V30 3236 C 303.941 2.33381 -0.0743864 0
M  V30 3237 C 304.922 1.52784 0.747735 0
M  V30 3238 O 306.107 1.81258 0.697071 0
M  V30 3239 C 303.237 3.36748 0.849598 0
M  V30 3240 C 302.191 4.27793 0.133247 0
M  V30 3241 C 301.517 5.21679 1.17281 0
M  V30 3242 C 302.817 5.12415 -1.01134 0
M  V30 3243 H 304.511 2.87081 -0.850007 0
M  V30 3244 H 302.057 1.38034 -0.410201 0
M  V30 3245 H 304.01 4.00648 1.30612 0
M  V30 3246 H 302.734 2.81439 1.65709 0
M  V30 3247 H 301.393 3.65342 -0.303426 0
M  V30 3248 H 301.041 4.62677 1.9733 0
M  V30 3249 H 300.741 5.83435 0.698397 0
M  V30 3250 H 302.265 5.88456 1.62947 0
M  V30 3251 H 303.679 5.69781 -0.634274 0
M  V30 3252 H 302.076 5.83203 -1.41399 0
M  V30 3253 H 303.146 4.48514 -1.84292 0
M  V30 3254 N 304.489 0.459591 1.5075 0
M  V30 3255 C 305.737 -0.0991532 2.01857 0
M  V30 3256 C 306.058 -1.41247 1.34441 0
M  V30 3257 O 305.328 -1.89775 0.486022 0
M  V30 3258 H 303.908 -0.039633 0.745948 0
M  V30 3259 H 306.57 0.607387 1.85194 0
M  V30 3260 H 305.666 -0.258998 3.11023 0
M  V30 3261 N 305.967 -1.56429 0.191757 0
M  V30 3262 C 307.383 -1.58754 -0.164137 0
M  V30 3263 C 307.583 -1.20782 -1.61288 0
M  V30 3264 O 306.639 -0.928999 -2.34789 0
M  V30 3265 C 307.952 -3.00396 0.135195 0
M  V30 3266 C 309.5 -3.1291 0.0750351 0
M  V30 3267 C 309.975 -4.56679 0.347632 0
M  V30 3268 N 311.466 -4.62252 0.296131 0
M  V30 3269 C 312.201 -5.71379 0.480948 0
M  V30 3270 N 311.697 -6.88986 0.725933 0
M  V30 3271 N 313.49 -5.60563 0.415435 0
M  V30 3272 H 305.641 -1.79393 1.13718 0
M  V30 3273 H 307.904 -0.832414 0.453643 0
M  V30 3274 H 307.61 -3.32726 1.13958 0
M  V30 3275 H 307.484 -3.72963 -0.563773 0
M  V30 3276 H 309.871 -2.80394 -0.919948 0
M  V30 3277 H 309.952 -2.42736 0.807029 0
M  V30 3278 H 309.596 -4.89907 1.33992 0
M  V30 3279 H 309.526 -5.25039 -0.405212 0
M  V30 3280 H 312.017 -3.7773 0.113259 0
M  V30 3281 H 312.33 -7.68046 0.855857 0
M  V30 3282 H 310.675 -6.90801 0.762788 0
M  V30 3283 H 313.866 -4.67561 0.224486 0
M  V30 3284 H 314.039 -6.45551 0.562889 0
M  V30 3285 N 307.445 0.0818655 -1.57387 0
M  V30 3286 C 308.685 0.788375 -1.88584 0
M  V30 3287 C 309.049 1.75248 -0.784351 0
M  V30 3288 O 310.25 2.50334 -0.979105 0
M  V30 3289 C 308.521 1.48654 -3.25018 0
M  V30 3290 S 310.08 2.22951 -3.7794 0
M  V30 3291 H 306.898 0.262383 -0.660815 0
M  V30 3292 H 309.5 0.0448995 -1.95448 0
M  V30 3293 H 308.204 0.770919 -4.03094 0
M  V30 3294 H 307.735 2.26965 -3.21326 0
M  V30 3295 H 309.75 3.49309 -3.52417 0
M  V30 3296 N 308.923 1.53595 0.353017 0
M  V30 3297 C 309.856 1.7572 1.45594 0
M  V30 3298 C 310.834 0.605961 1.50887 0
M  V30 3299 O 312.018 0.840023 1.68748 0
M  V30 3300 C 309.145 1.84732 2.83887 0
M  V30 3301 C 308.191 3.06808 2.96262 0
M  V30 3302 S 309.024 4.66065 2.63711 0
M  V30 3303 C 310.18 4.77943 4.04131 0
M  V30 3304 H 310.413 2.68994 1.26608 0
M  V30 3305 H 307.946 1.44343 0.548117 0
M  V30 3306 H 309.904 1.9061 3.63563 0
M  V30 3307 H 308.565 0.92488 3.00175 0
M  V30 3308 H 307.758 3.09761 3.97573 0
M  V30 3309 H 307.36 2.99108 2.24523 0
M  V30 3310 H 309.652 4.5877 4.98534 0
M  V30 3311 H 310.595 5.80022 4.06177 0
M  V30 3312 H 311.003 4.06472 3.91715 0
M  V30 3313 N 310.401 -0.613514 1.45168 0
M  V30 3314 C 311.817 -0.933629 1.29443 0
M  V30 3315 C 312.017 -2.00028 0.243101 0
M  V30 3316 O 311.073 -2.49848 -0.364992 0
M  V30 3317 C 312.386 -1.38018 2.67155 0
M  V30 3318 C 313.934 -1.49471 2.75004 0
M  V30 3319 C 314.409 -1.97503 4.13227 0
M  V30 3320 N 315.9 -2.04746 4.15491 0
M  V30 3321 C 316.635 -2.43121 5.19307 0
M  V30 3322 N 316.131 -2.80506 6.33473 0
M  V30 3323 N 317.924 -2.43408 5.06664 0
M  V30 3324 H 310.075 0.0916097 2.12202 0
M  V30 3325 H 312.338 -0.0216655 0.947752 0
M  V30 3326 H 312.044 -0.670625 3.45247 0
M  V30 3327 H 311.918 -2.34784 2.95222 0
M  V30 3328 H 314.305 -2.19519 1.9722 0
M  V30 3329 H 314.386 -0.510342 2.50657 0
M  V30 3330 H 314.03 -1.28045 4.91495 0
M  V30 3331 H 313.96 -2.96843 4.34962 0
M  V30 3332 H 316.451 -1.78468 3.33103 0
M  V30 3333 H 316.764 -3.08652 7.08487 0
M  V30 3334 H 315.109 -2.78216 6.36884 0
M  V30 3335 H 318.3 -2.13604 4.16523 0
M  V30 3336 H 318.473 -2.72989 5.87691 0
M  V30 3337 N 311.879 -1.3236 -0.855495 0
M  V30 3338 C 313.295 -1.11332 -1.14356 0
M  V30 3339 C 313.495 0.106751 -2.01217 0
M  V30 3340 O 312.551 0.791891 -2.39761 0
M  V30 3341 C 313.864 -2.39237 -1.82171 0
M  V30 3342 C 315.412 -2.44986 -1.9481 0
M  V30 3343 C 315.887 -3.7281 -2.66039 0
M  V30 3344 N 317.378 -3.73787 -2.73565 0
M  V30 3345 C 318.113 -4.69394 -3.29327 0
M  V30 3346 N 317.609 -5.75367 -3.85907 0
M  V30 3347 N 319.402 -4.56893 -3.27423 0
M  V30 3348 H 311.553 -2.10586 -0.277027 0
M  V30 3349 H 313.816 -0.929701 -0.185364 0
M  V30 3350 H 313.522 -3.28431 -1.25802 0
M  V30 3351 H 313.396 -2.50134 -2.82335 0
M  V30 3352 H 315.783 -1.56252 -2.50338 0
M  V30 3353 H 315.864 -2.38043 -0.936448 0
M  V30 3354 H 315.508 -4.61918 -2.11174 0
M  V30 3355 H 315.438 -3.77024 -3.67642 0
M  V30 3356 H 317.929 -2.97189 -2.33424 0
M  V30 3357 H 318.242 -6.44378 -4.26611 0
M  V30 3358 H 316.587 -5.79123 -3.84242 0
M  V30 3359 H 319.778 -3.73269 -2.82467 0
M  V30 3360 H 319.951 -5.31577 -3.7058 0
M  V30 3361 N 313.357 1.07166 -1.15556 0
M  V30 3362 C 314.287 2.16403 -0.877046 0
M  V30 3363 C 315.268 1.69217 0.173111 0
M  V30 3364 O 316.453 1.94181 0.027084 0
M  V30 3365 C 313.583 3.45349 -0.367632 0
M  V30 3366 C 312.537 4.05995 -1.35468 0
M  V30 3367 C 311.863 5.30045 -0.704038 0
M  V30 3368 C 313.163 4.45804 -2.72132 0
M  V30 3369 H 314.857 2.39959 -1.79053 0
M  V30 3370 H 312.403 1.15325 -0.862331 0
M  V30 3371 H 314.356 4.21095 -0.160317 0
M  V30 3372 H 313.08 3.21385 0.581326 0
M  V30 3373 H 311.739 3.32296 -1.54839 0
M  V30 3374 H 311.387 5.02373 0.251128 0
M  V30 3375 H 311.087 5.71579 -1.36277 0
M  V30 3376 H 312.611 6.08495 -0.50654 0
M  V30 3377 H 314.025 5.12671 -2.56595 0
M  V30 3378 H 312.422 4.98296 -3.34397 0
M  V30 3379 H 313.492 3.57083 -3.28054 0
M  V30 3380 N 314.835 0.952656 1.25548 0
M  V30 3381 C 316.251 0.656769 1.4546 0
M  V30 3382 C 316.451 -0.78633 1.85524 0
M  V30 3383 O 315.507 -1.56183 1.98402 0
M  V30 3384 C 316.82 1.62801 2.52817 0
M  V30 3385 C 318.368 1.63897 2.66659 0
M  V30 3386 C 318.843 2.5978 3.77198 0
M  V30 3387 N 320.334 2.58133 3.84606 0
M  V30 3388 C 321.069 3.29003 4.69621 0
M  V30 3389 N 320.565 4.09339 5.58939 0
M  V30 3390 N 322.358 3.179 4.63569 0
M  V30 3391 H 314.509 1.88526 0.978344 0
M  V30 3392 H 316.772 0.810815 0.491206 0
M  V30 3393 H 316.478 2.65869 2.30232 0
M  V30 3394 H 316.352 1.38898 3.50695 0
M  V30 3395 H 318.739 0.615481 2.8861 0
M  V30 3396 H 318.82 1.91858 1.69187 0
M  V30 3397 H 318.464 3.62254 3.55997 0
M  V30 3398 H 318.394 2.29105 4.7415 0
M  V30 3399 H 320.885 1.99809 3.20757 0
M  V30 3400 H 321.198 4.6034 6.20731 0
M  V30 3401 H 319.543 4.13438 5.58654 0
M  V30 3402 H 322.734 2.54612 3.92798 0
M  V30 3403 H 322.907 3.73398 5.29602 0
M  V30 3404 N 316.313 -1.40141 0.720998 0
M  V30 3405 C 317.59 -1.94677 0.189757 0
M  V30 3406 C 317.97 -1.65879 -1.30566 0
M  V30 3407 O 317.318 -0.979391 -2.06447 0
M  V30 3408 C 317.528 -3.45279 0.508304 0
M  V30 3409 C 318.876 -4.22209 0.449934 0
M  V30 3410 O 319.9 -3.53413 0.444677 0
M  V30 3411 O 318.759 -5.44788 0.432189 0
M  V30 3412 H 315.853 -0.826459 0.0299026 0
M  V30 3413 H 318.399 -1.49719 0.7989 0
M  V30 3414 H 317.171 -3.59619 1.54239 0
M  V30 3415 H 316.794 -3.97386 -0.130525 0
M  V30 3416 N 317.792 -0.46758 -1.50504 0
M  V30 3417 C 318.725 0.374324 -2.25109 0
M  V30 3418 C 319.703 0.99921 -1.28275 0
M  V30 3419 O 320.887 1.03583 -1.57489 0
M  V30 3420 C 318.014 1.52419 -3.02467 0
M  V30 3421 C 317.06 1.01702 -4.14197 0
M  V30 3422 S 317.893 -0.0654477 -5.3546 0
M  V30 3423 C 319.049 1.08837 -6.16365 0
M  V30 3424 H 319.282 -0.258983 -2.9617 0
M  V30 3425 H 316.815 -0.252421 -1.52323 0
M  V30 3426 H 318.773 2.18322 -3.47628 0
M  V30 3427 H 317.434 2.129 -2.30938 0
M  V30 3428 H 316.627 1.87776 -4.67714 0
M  V30 3429 H 316.229 0.435757 -3.71453 0
M  V30 3430 H 318.521 2.00071 -6.47285 0
M  V30 3431 H 319.464 0.592538 -7.05616 0
M  V30 3432 H 319.872 1.34061 -5.4835 0
M  V30 3433 N 319.27 1.56325 -0.20005 0
M  V30 3434 C 320.516 1.98012 0.438059 0
M  V30 3435 C 320.849 1.08702 1.60927 0
M  V30 3436 O 320.124 0.140064 1.93995 0
M  V30 3437 C 320.407 3.48841 0.893419 0
M  V30 3438 C 320.26 4.48928 -0.279947 0
M  V30 3439 C 321.579 4.03498 1.75719 0
M  V30 3440 H 318.698 0.719918 0.157757 0
M  V30 3441 H 321.34 1.87743 -0.291968 0
M  V30 3442 H 319.49 3.57723 1.51547 0
M  V30 3443 H 321.162 4.52079 -0.91772 0
M  V30 3444 H 319.405 4.23694 -0.930919 0
M  V30 3445 H 320.076 5.5194 0.0812601 0
M  V30 3446 H 322.552 3.97427 1.23253 0
M  V30 3447 H 321.428 5.09393 2.04476 0
M  V30 3448 H 321.689 3.4906 2.71311 0
M  V30 3449 N 320.748 -0.0735177 1.57428 0
M  V30 3450 C 321.658 -1.10547 2.06922 0
M  V30 3451 C 322.674 -1.42506 0.998402 0
M  V30 3452 O 323.85 -1.52717 1.31299 0
M  V30 3453 C 320.915 -2.40019 2.50184 0
M  V30 3454 C 319.976 -2.15046 3.71556 0
M  V30 3455 C 319.209 -3.38345 4.12745 0
M  V30 3456 O 319.432 -4.47399 3.53822 0
M  V30 3457 O 318.366 -3.2666 5.05546 0
M  V30 3458 H 322.192 -0.715013 2.95163 0
M  V30 3459 H 319.777 -0.287531 1.46607 0
M  V30 3460 H 321.659 -3.16218 2.78539 0
M  V30 3461 H 320.334 -2.78447 1.65072 0
M  V30 3462 H 319.241 -1.36558 3.48285 0
M  V30 3463 H 320.574 -1.81499 4.57514 0
M  V30 3464 N 322.226 -1.5378 -0.344866 0
M  V30 3465 C 323.642 -1.44015 -0.687888 0
M  V30 3466 C 323.842 -0.595834 -1.92489 0
M  V30 3467 O 322.898 -0.0863064 -2.52352 0
M  V30 3468 C 324.211 -2.87481 -0.881758 0
M  V30 3469 C 325.759 -2.97247 -0.980459 0
M  V30 3470 C 326.234 -4.41819 -1.20665 0
M  V30 3471 N 327.725 -4.45339 -1.27389 0
M  V30 3472 C 328.46 -5.54333 -1.46639 0
M  V30 3473 N 327.956 -6.73335 -1.63071 0
M  V30 3474 N 329.749 -5.41944 -1.49176 0
M  V30 3475 H 321.9 -2.07169 0.468475 0
M  V30 3476 H 324.163 -0.93643 0.147655 0
M  V30 3477 H 323.869 -3.51672 -0.0443444 0
M  V30 3478 H 323.743 -3.32352 -1.78388 0
M  V30 3479 H 326.13 -2.33197 -1.8084 0
M  V30 3480 H 326.211 -2.5574 -0.0552713 0
M  V30 3481 H 325.855 -5.06449 -0.383652 0
M  V30 3482 H 325.785 -4.80917 -2.14539 0
M  V30 3483 H 328.276 -3.59585 -1.1622 0
M  V30 3484 H 328.589 -7.52165 -1.77391 0
M  V30 3485 H 326.934 -6.76282 -1.60209 0
M  V30 3486 H 330.125 -4.47932 -1.3592 0
M  V30 3487 H 330.298 -6.26946 -1.63837 0
M  V30 3488 N 323.704 0.605807 -1.45491 0
M  V30 3489 C 325.115 1.18777 -1.44045 0
M  V30 3490 C 325.466 1.95471 -0.169001 0
M  V30 3491 O 324.591 2.0374 0.729324 0
M  V30 3492 C 325.186 2.16064 -2.60963 0
M  V30 3493 C 323.745 2.69633 -2.62631 0
M  V30 3494 C 322.892 1.45072 -2.36325 0
M  V30 3495 H 325.843 0.395017 -1.53705 0
M  V30 3496 H 325.864 2.9913 -2.35163 0
M  V30 3497 H 325.376 1.60217 -3.53486 0
M  V30 3498 H 323.477 3.29414 -1.74119 0
M  V30 3499 H 323.59 3.13944 -3.61906 0
M  V30 3500 H 321.954 1.74089 -1.85917 0
M  V30 3501 H 322.737 0.910899 -3.30995 0
M  V30 3502 N 325.182 1.32811 0.848464 0
M  V30 3503 C 326.132 1.18842 1.94578 0
M  V30 3504 C 327.116 0.0937517 1.60627 0
M  V30 3505 O 328.308 0.320887 1.74067 0
M  V30 3506 C 325.437 0.91999 3.30743 0
M  V30 3507 C 324.523 2.05665 3.70894 0
M  V30 3508 N 324.914 3.30579 3.8282 0
M  V30 3509 C 323.212 1.9612 4.00566 0
M  V30 3510 C 323.913 4.05067 4.17487 0
M  V30 3511 N 322.889 3.33419 4.2934 0
M  V30 3512 H 326.691 2.13536 2.0194 0
M  V30 3513 H 324.205 1.2468 1.0406 0
M  V30 3514 H 326.202 0.800859 4.09136 0
M  V30 3515 H 324.862 -0.0185076 3.24695 0
M  V30 3516 H 325.873 3.65441 3.66978 0
M  V30 3517 H 322.55 1.09871 4.02784 0
M  V30 3518 H 323.94 5.12815 4.34131 0
M  V30 3519 N 326.66 -1.06551 1.16123 0
M  V30 3520 C 327.885 -1.83544 0.965735 0
M  V30 3521 C 328.31 -1.81843 -0.481102 0
M  V30 3522 O 327.668 -1.21732 -1.34354 0
M  V30 3523 C 327.716 -3.28169 1.49457 0
M  V30 3524 O 326.82 -4.0643 0.699157 0
M  V30 3525 H 326.161 -0.568026 0.343864 0
M  V30 3526 H 328.691 -1.34362 1.54299 0
M  V30 3527 H 328.701 -3.78992 1.51092 0
M  V30 3528 H 327.376 -3.28722 2.54784 0
M  V30 3529 H 325.953 -3.65216 0.7531 0
M  V30 3530 N 328.138 -0.959301 -1.25041 0
M  V30 3531 C 329.386 -0.615393 -1.92503 0
M  V30 3532 C 329.707 0.850969 -1.75452 0
M  V30 3533 O 328.977 1.60658 -1.12098 0
M  V30 3534 H 327.557 -0.224613 -0.712431 0
M  V30 3535 H 330.219 -1.21855 -1.5211 0
M  V30 3536 H 329.315 -0.848738 -3.00338 0
M  V30 3537 N 329.616 1.39756 -0.72842 0
M  V30 3538 C 330.546 2.33289 -0.0991354 0
M  V30 3539 C 331.527 1.53568 0.731489 0
M  V30 3540 O 332.712 1.81987 0.677807 0
M  V30 3541 C 329.842 3.3763 0.813834 0
M  V30 3542 C 328.796 4.2791 0.0878663 0
M  V30 3543 C 328.122 5.22894 1.11741 0
M  V30 3544 C 329.422 5.11314 -1.06563 0
M  V30 3545 H 331.116 2.86163 -0.880408 0
M  V30 3546 H 328.662 1.37591 -0.424819 0
M  V30 3547 H 330.615 4.0201 1.26355 0
M  V30 3548 H 329.339 2.83181 1.62715 0
M  V30 3549 H 327.998 3.65 -0.342159 0
M  V30 3550 H 327.646 4.64744 1.92412 0
M  V30 3551 H 327.346 5.84143 0.636477 0
M  V30 3552 H 328.87 5.90151 1.56697 0
M  V30 3553 H 330.284 5.69076 -0.694671 0
M  V30 3554 H 328.681 5.81671 -1.47577 0
M  V30 3555 H 329.751 4.46534 -1.89038 0
M  V30 3556 N 331.094 0.475555 1.50254 0
M  V30 3557 C 332.505 0.0215174 1.86688 0
M  V30 3558 C 332.856 -1.38467 1.39001 0
M  V30 3559 O 331.981 -2.02732 0.756894 0
M  V30 3560 C 332.576 0.0322715 3.38785 0
M  V30 3561 C 331.135 -0.366314 3.74613 0
M  V30 3562 C 330.282 0.415832 2.74164 0
M  V30 3563 H 333.233 0.689612 1.42934 0
M  V30 3564 H 333.254 -0.76889 3.7265 0
M  V30 3565 H 332.766 1.05584 3.73462 0
M  V30 3566 H 330.867 -1.39406 3.45538 0
M  V30 3567 H 330.98 -0.064555 4.79057 0
M  V30 3568 H 329.344 -0.131048 2.54363 0
M  V30 3569 H 330.127 1.43899 3.11686 0
M  V30 3570 N 332.573 -1.56217 0.208337 0
M  V30 3571 C 333.821 -1.97558 -0.426076 0
M  V30 3572 C 334.142 -1.09683 -1.61229 0
M  V30 3573 O 333.412 -0.170956 -1.95153 0
M  V30 3574 H 331.992 -0.729575 -0.160405 0
M  V30 3575 H 334.654 -1.92606 0.298155 0
M  V30 3576 H 333.75 -3.02672 -0.761312 0
M  V30 3577 N 334.051 0.0651679 -1.57465 0
M  V30 3578 C 334.998 1.07675 -2.04144 0
M  V30 3579 C 335.968 1.38071 -0.923335 0
M  V30 3580 O 337.153 1.49026 -1.19146 0
M  V30 3581 C 334.293 2.38337 -2.49579 0
M  V30 3582 C 333.406 2.14413 -3.75035 0
M  V30 3583 C 332.541 3.38686 -4.09225 0
M  V30 3584 C 331.58 3.10156 -5.27702 0
M  V30 3585 N 330.717 4.26778 -5.57499 0
M  V30 3586 H 335.557 0.671716 -2.90331 0
M  V30 3587 H 333.094 0.3201 -1.43575 0
M  V30 3588 H 335.052 3.14632 -2.73975 0
M  V30 3589 H 333.682 2.7663 -1.6636 0
M  V30 3590 H 332.734 1.2878 -3.57939 0
M  V30 3591 H 334.046 1.89344 -4.61466 0
M  V30 3592 H 333.2 4.23373 -4.34558 0
M  V30 3593 H 331.939 3.66837 -3.21374 0
M  V30 3594 H 330.944 2.23866 -5.02159 0
M  V30 3595 H 332.169 2.8332 -6.17176 0
M  V30 3596 H 330.115 4.54948 -4.72608 0
M  V30 3597 H 330.032 4.05005 -6.38362 0
M  V30 3598 H 331.3 5.12443 -5.87386 0
M  V30 3599 N 335.529 1.53961 0.336706 0
M  V30 3600 C 336.775 1.7179 1.07777 0
M  V30 3601 C 337.108 0.483263 1.88091 0
M  V30 3602 O 336.383 -0.519747 1.87427 0
M  V30 3603 C 336.666 2.98558 2.01334 0
M  V30 3604 C 336.519 4.32245 1.24437 0
M  V30 3605 C 337.838 3.21023 3.01052 0
M  V30 3606 H 334.957 0.625089 0.390426 0
M  V30 3607 H 337.599 1.86641 0.35567 0
M  V30 3608 H 335.749 2.86028 2.62908 0
M  V30 3609 H 337.421 4.56637 0.654243 0
M  V30 3610 H 335.664 4.30344 0.546458 0
M  V30 3611 H 336.335 5.17137 1.93063 0
M  V30 3612 H 338.811 3.32929 2.49595 0
M  V30 3613 H 337.687 4.11104 3.6371 0
M  V30 3614 H 337.948 2.37637 3.72802 0
M  V30 3615 N 337.007 -0.598083 1.45811 0
M  V30 3616 C 338.254 -1.35681 1.50323 0
M  V30 3617 C 338.582 -1.9393 0.148739 0
M  V30 3618 O 337.837 -1.76094 -0.853787 0
M  V30 3619 C 338.136 -2.51669 2.53766 0
M  V30 3620 C 337.802 -2.11508 3.98215 0
M  V30 3621 C 336.464 -2.0027 4.37545 0
M  V30 3622 C 338.816 -1.80308 4.89018 0
M  V30 3623 C 336.144 -1.56067 5.65562 0
M  V30 3624 C 338.496 -1.37589 6.17456 0
M  V30 3625 C 337.16 -1.24916 6.55708 0
M  V30 3626 H 336.43 -0.496492 0.550069 0
M  V30 3627 H 339.077 -0.675052 1.79207 0
M  V30 3628 H 337.382 -3.25225 2.18486 0
M  V30 3629 H 339.079 -3.09895 2.54492 0
M  V30 3630 H 335.669 -2.21185 3.67117 0
M  V30 3631 H 339.853 -1.87884 4.59362 0
M  V30 3632 H 335.109 -1.44886 5.93985 0
M  V30 3633 H 339.283 -1.12495 6.87254 0
M  V30 3634 H 336.91 -0.904386 7.54801 0
M  V30 3635 N 338.485 -1.33259 -0.841409 0
M  V30 3636 C 339.448 -1.23221 -1.9326 0
M  V30 3637 C 340.448 -0.151895 -1.60081 0
M  V30 3638 O 341.638 -0.403246 -1.69468 0
M  V30 3639 C 338.77 -0.898123 -3.28856 0
M  V30 3640 H 339.963 -2.2021 -2.03587 0
M  V30 3641 H 337.516 -1.17281 -1.03319 0
M  V30 3642 H 338.251 0.0693841 -3.24226 0
M  V30 3643 H 338.036 -1.67934 -3.54317 0
M  V30 3644 H 339.526 -0.852563 -4.08805 0
M  V30 3645 N 339.963 1.05934 -1.16686 0
M  V30 3646 C 341.203 1.80382 -0.961345 0
M  V30 3647 C 341.567 1.85331 0.501643 0
M  V30 3648 O 342.768 2.55795 0.825986 0
M  V30 3649 C 341.039 3.20777 -1.57596 0
M  V30 3650 S 342.598 4.11795 -1.51559 0
M  V30 3651 H 339.416 0.621332 -0.345641 0
M  V30 3652 H 342.018 1.27157 -1.48497 0
M  V30 3653 H 340.722 3.14773 -2.63337 0
M  V30 3654 H 340.253 3.79078 -1.05182 0
M  V30 3655 H 342.268 4.93485 -0.518374 0
M  V30 3656 N 341.441 0.965919 1.2453 0
M  V30 3657 C 342.371 0.513476 2.27784 0
M  V30 3658 C 343.352 -0.445974 1.6415 0
M  V30 3659 O 344.537 -0.342485 1.91156 0
M  V30 3660 C 341.667 -0.198839 3.4673 0
M  V30 3661 C 340.621 0.676456 4.2262 0
M  V30 3662 C 339.947 -0.167248 5.34438 0
M  V30 3663 C 341.247 1.96017 4.84123 0
M  V30 3664 H 342.941 1.3765 2.65881 0
M  V30 3665 H 340.487 0.663321 1.27813 0
M  V30 3666 H 342.44 -0.526567 4.18097 0
M  V30 3667 H 341.164 -1.0962 3.07654 0
M  V30 3668 H 339.823 0.98743 3.53052 0
M  V30 3669 H 339.471 -1.0647 4.91603 0
M  V30 3670 H 339.171 0.415181 5.86131 0
M  V30 3671 H 340.695 -0.489688 6.08633 0
M  V30 3672 H 342.109 1.69814 5.47573 0
M  V30 3673 H 340.506 2.48918 5.4604 0
M  V30 3674 H 341.576 2.65622 4.05676 0
M  V30 3675 N 342.919 -1.39368 0.735821 0
M  V30 3676 C 344.144 -2.05319 0.293052 0
M  V30 3677 C 344.569 -1.55115 -1.064 0
M  V30 3678 O 343.927 -0.695261 -1.67439 0
M  V30 3679 C 343.975 -3.59305 0.305323 0
M  V30 3680 O 343.079 -4.06299 -0.706761 0
M  V30 3681 H 342.42 -0.650529 0.13307 0
M  V30 3682 H 344.95 -1.78386 1.00197 0
M  V30 3683 H 344.96 -4.07724 0.149997 0
M  V30 3684 H 343.635 -3.95207 1.29553 0
M  V30 3685 H 342.212 -3.69292 -0.517504 0
M  V30 3686 N 344.397 -0.483516 -1.5 0
M  V30 3687 C 345.643 0.0672592 -2.02688 0
M  V30 3688 C 345.976 1.38247 -1.36387 0
M  V30 3689 O 345.251 1.88131 -0.493675 0
M  V30 3690 C 345.534 0.238109 -3.59312 0
M  V30 3691 C 345.387 -1.099 -4.36168 0
M  V30 3692 C 346.706 0.986916 -4.28892 0
M  V30 3693 H 343.825 0.0229696 -0.736642 0
M  V30 3694 H 346.467 -0.631527 -1.79197 0
M  V30 3695 H 344.617 0.8333 -3.79458 0
M  V30 3696 H 346.289 -1.73172 -4.27562 0
M  V30 3697 H 344.532 -1.69261 -3.99416 0
M  V30 3698 H 345.203 -0.932954 -5.44059 0
M  V30 3699 H 347.679 0.482302 -4.13295 0
M  V30 3700 H 346.555 1.07527 -5.38265 0
M  V30 3701 H 346.816 2.0265 -3.92919 0
M  V30 3702 N 345.875 1.56104 -0.216619 0
M  V30 3703 C 346.805 2.23063 0.690296 0
M  V30 3704 C 347.786 1.20072 1.20485 0
M  V30 3705 O 348.971 1.48643 1.24976 0
M  V30 3706 C 346.101 2.90672 1.90072 0
M  V30 3707 C 345.055 4.00092 1.5202 0
M  V30 3708 C 344.381 4.54972 2.80899 0
M  V30 3709 C 345.681 5.17398 0.71391 0
M  V30 3710 H 347.375 2.99109 0.132038 0
M  V30 3711 H 344.921 1.43866 0.0620664 0
M  V30 3712 H 346.874 3.36204 2.54057 0
M  V30 3713 H 345.598 2.12066 2.48386 0
M  V30 3714 H 344.257 3.55283 0.903839 0
M  V30 3715 H 343.905 3.73102 3.37348 0
M  V30 3716 H 343.605 5.28817 2.56176 0
M  V30 3717 H 345.129 5.0322 3.45836 0
M  V30 3718 H 346.543 5.59342 1.25735 0
M  V30 3719 H 344.94 5.97444 0.563951 0
M  V30 3720 H 346.01 4.84088 -0.280527 0
M  V30 3721 N 347.353 -0.0568162 1.57498 0
M  V30 3722 C 348.6 -0.753104 1.87975 0
M  V30 3723 C 348.928 -1.76815 0.81035 0
M  V30 3724 O 348.183 -1.94756 -0.19199 0
M  V30 3725 C 348.482 -1.48359 3.25153 0
M  V30 3726 C 348.148 -0.60713 4.46794 0
M  V30 3727 C 346.81 -0.365642 4.79809 0
M  V30 3728 C 349.162 -0.000305978 5.212 0
M  V30 3729 C 346.49 0.491905 5.84634 0
M  V30 3730 C 348.842 0.844781 6.26934 0
M  V30 3731 C 347.506 1.096 6.58441 0
M  V30 3732 H 346.776 -0.27558 0.687849 0
M  V30 3733 H 349.423 -0.0135173 1.91495 0
M  V30 3734 H 347.728 -2.29577 3.17492 0
M  V30 3735 H 349.425 -2.02739 3.45974 0
M  V30 3736 H 346.015 -0.805487 4.20963 0
M  V30 3737 H 350.199 -0.173961 4.95995 0
M  V30 3738 H 345.455 0.695131 6.07436 0
M  V30 3739 H 349.629 1.32165 6.83744 0
M  V30 3740 H 347.256 1.76224 7.39492 0
M  V30 3741 N 348.832 -1.54138 -0.328536 0
M  V30 3742 C 350.078 -1.7236 -1.06865 0
M  V30 3743 C 350.411 -0.493231 -1.87832 0
M  V30 3744 O 349.686 0.5098 -1.877 0
M  V30 3745 C 349.969 -2.99621 -1.99747 0
M  V30 3746 C 349.822 -4.32899 -1.22143 0
M  V30 3747 C 351.141 -3.22615 -2.99345 0
M  V30 3748 H 348.26 -0.627151 -0.387105 0
M  V30 3749 H 350.902 -1.86827 -0.345767 0
M  V30 3750 H 349.052 -2.87418 -2.61387 0
M  V30 3751 H 350.724 -4.56978 -0.630017 0
M  V30 3752 H 348.967 -4.30628 -0.523628 0
M  V30 3753 H 349.638 -5.18154 -1.90318 0
M  V30 3754 H 352.114 -3.34248 -2.47826 0
M  V30 3755 H 350.99 -4.13027 -3.61524 0
M  V30 3756 H 351.251 -2.3961 -3.71536 0
M  V30 3757 N 350.31 0.590341 -1.46126 0
M  V30 3758 C 351.538 1.37504 -1.54597 0
M  V30 3759 C 351.953 1.87897 -0.184447 0
M  V30 3760 O 351.31 1.63192 0.816984 0
M  V30 3761 C 351.361 2.56779 -2.54454 0
M  V30 3762 O 351.082 2.08476 -3.85317 0
M  V30 3763 C 352.583 3.49427 -2.72792 0
M  V30 3764 H 349.803 0.420325 -0.523037 0
M  V30 3765 H 352.347 0.718383 -1.91467 0
M  V30 3766 H 350.502 3.1845 -2.20609 0
M  V30 3767 H 350.916 2.86097 -4.396 0
M  V30 3768 H 352.39 4.29619 -3.466 0
M  V30 3769 H 352.867 4.00876 -1.79429 0
M  V30 3770 H 353.473 2.93598 -3.07702 0
M  V30 3771 N 351.788 1.33704 0.83433 0
M  V30 3772 C 353.034 1.25603 1.59222 0
M  V30 3773 C 353.367 -0.176659 1.93395 0
M  V30 3774 O 352.642 -1.11915 1.59076 0
M  V30 3775 C 352.925 2.13576 2.89926 0
M  V30 3776 C 352.778 3.65326 2.62406 0
M  V30 3777 C 354.097 2.01238 3.91397 0
M  V30 3778 H 351.216 0.457613 0.577719 0
M  V30 3779 H 353.858 1.63848 0.961972 0
M  V30 3780 H 352.008 1.8109 3.43713 0
M  V30 3781 H 353.68 4.08124 2.15017 0
M  V30 3782 H 351.923 3.8698 1.96033 0
M  V30 3783 H 352.594 4.22232 3.55562 0
M  V30 3784 H 355.07 2.29738 3.46929 0
M  V30 3785 H 353.946 2.65036 4.80673 0
M  V30 3786 H 354.207 0.985951 4.30966 0
M  V30 3787 N 353.266 -1.05314 1.17247 0
M  V30 3788 C 354.494 -1.81971 0.984593 0
M  V30 3789 C 354.909 -1.82929 -0.467166 0
M  V30 3790 O 354.266 -1.25564 -1.32438 0
M  V30 3791 C 354.317 -3.28143 1.51672 0
M  V30 3792 O 354.038 -3.27347 2.91163 0
M  V30 3793 C 355.539 -4.21493 1.37326 0
M  V30 3794 H 352.759 -0.573455 0.348411 0
M  V30 3795 H 355.303 -1.32808 1.55506 0
M  V30 3796 H 353.458 -3.74582 0.988302 0
M  V30 3797 H 353.872 -4.18824 3.15732 0
M  V30 3798 H 355.346 -5.22043 1.79375 0
M  V30 3799 H 355.823 -4.38031 0.320169 0
M  V30 3800 H 356.429 -3.80909 1.89178 0
M  V30 3801 N 354.744 -0.972509 -1.24016 0
M  V30 3802 C 355.707 -0.511403 -2.23422 0
M  V30 3803 C 356.707 0.394679 -1.55881 0
M  V30 3804 O 357.897 0.189469 -1.73167 0
M  V30 3805 C 355.029 0.258769 -3.39916 0
M  V30 3806 H 356.222 -1.39024 -2.6573 0
M  V30 3807 H 353.775 -0.757585 -1.36713 0
M  V30 3808 H 354.51 1.1545 -3.03054 0
M  V30 3809 H 354.295 -0.391522 -3.9014 0
M  V30 3810 H 355.785 0.570244 -4.13688 0
M  V30 3811 N 356.222 1.38976 -0.743202 0
M  V30 3812 C 357.468 2.0064 -0.295189 0
M  V30 3813 C 357.801 1.5885 1.11716 0
M  V30 3814 O 357.076 0.821181 1.76315 0
M  V30 3815 C 357.359 3.578 -0.406318 0
M  V30 3816 C 357.212 4.09586 -1.85903 0
M  V30 3817 C 358.531 4.39616 0.206439 0
M  V30 3818 H 355.65 0.728935 -0.108733 0
M  V30 3819 H 358.292 1.65067 -0.940897 0
M  V30 3820 H 356.442 3.88235 0.143419 0
M  V30 3821 H 358.114 3.89837 -2.46627 0
M  V30 3822 H 356.357 3.6284 -2.3776 0
M  V30 3823 H 357.028 5.18708 -1.888 0
M  V30 3824 H 359.504 4.15273 -0.262283 0
M  V30 3825 H 358.38 5.48812 0.0983819 0
M  V30 3826 H 358.641 4.22754 1.2935 0
M  V30 3827 N 357.7 0.491464 1.49741 0
M  V30 3828 C 358.648 -0.305837 2.30581 0
M  V30 3829 C 359.642 -0.971642 1.38764 0
M  V30 3830 O 360.848 -0.90042 1.5586 0
M  V30 3831 H 357.223 -0.117482 0.742767 0
M  V30 3832 H 359.194 0.396093 2.95759 0
M  V30 3833 C 357.943 -1.36319 3.19863 0
M  V30 3834 H 357.266 -0.860258 3.90435 0
M  V30 3835 H 358.706 -1.89323 3.79385 0
M  V30 3836 C 357.165 -2.37621 2.38826 0
M  V30 3837 O 357.695 -3.43311 2.08567 0
M  V30 3838 N 355.901 -2.09849 2.01026 0
M  V30 3839 H 355.448 -1.23922 2.25834 0
M  V30 3840 H 355.406 -2.77859 1.47112 0
M  V30 3841 N 359.178 -1.55987 0.224894 0
M  V30 3842 C 360.108 -2.23426 -0.678457 0
M  V30 3843 C 361.089 -1.20709 -1.19847 0
M  V30 3844 O 362.274 -1.49304 -1.24186 0
M  V30 3845 C 359.404 -2.91676 -1.88527 0
M  V30 3846 C 358.358 -4.00893 -1.49896 0
M  V30 3847 C 357.684 -4.56455 -2.78483 0
M  V30 3848 C 358.984 -5.17769 -0.686461 0
M  V30 3849 H 360.678 -2.99175 -0.116173 0
M  V30 3850 H 358.224 -1.43897 -0.054436 0
M  V30 3851 H 360.177 -3.37547 -2.5227 0
M  V30 3852 H 358.901 -2.1338 -2.47258 0
M  V30 3853 H 357.56 -3.55758 -0.884985 0
M  V30 3854 H 357.208 -3.74886 -3.35365 0
M  V30 3855 H 356.908 -5.30169 -2.53368 0
M  V30 3856 H 358.432 -5.05047 -3.43162 0
M  V30 3857 H 359.846 -5.60001 -1.22767 0
M  V30 3858 H 358.243 -5.97735 -0.532259 0
M  V30 3859 H 359.313 -4.83932 0.306196 0
M  V30 3860 N 360.656 0.0484629 -1.57525 0
M  V30 3861 C 361.881 0.759177 -1.93006 0
M  V30 3862 C 362.306 1.69125 -0.823317 0
M  V30 3863 O 361.664 1.79931 0.222364 0
M  V30 3864 C 361.712 1.50899 -3.27509 0
M  V30 3865 O 360.816 2.62112 -3.18388 0
M  V30 3866 H 360.157 0.205564 -0.631379 0
M  V30 3867 H 362.687 0.00972959 -2.04598 0
M  V30 3868 H 362.697 1.88317 -3.6194 0
M  V30 3869 H 361.372 0.825269 -4.0763 0
M  V30 3870 H 359.949 2.27379 -2.95556 0
M  V30 3871 N 362.134 1.5431 0.320358 0
M  V30 3872 C 363.38 1.72924 1.05949 0
M  V30 3873 C 363.713 0.503185 1.87568 0
M  V30 3874 O 362.988 -0.499839 1.87968 0
M  V30 3875 C 363.271 3.00676 1.98156 0
M  V30 3876 C 363.124 4.3354 1.19845 0
M  V30 3877 C 364.443 3.24198 2.9763 0
M  V30 3878 H 361.562 0.629195 0.383774 0
M  V30 3879 H 364.204 1.87008 0.335854 0
M  V30 3880 H 362.354 2.888 2.59859 0
M  V30 3881 H 364.026 4.57305 0.605773 0
M  V30 3882 H 362.269 4.309 0.500784 0
M  V30 3883 H 362.94 5.19156 1.87567 0
M  V30 3884 H 365.416 3.35557 2.4605 0
M  V30 3885 H 364.292 4.14938 3.59329 0
M  V30 3886 H 364.553 2.41577 3.7026 0
M  V30 3887 N 363.613 -0.582584 1.46437 0
M  V30 3888 C 364.838 -1.37168 1.55563 0
M  V30 3889 C 365.263 -1.87061 0.19743 0
M  V30 3890 O 364.621 -1.61572 -0.822451 0
M  V30 3891 C 364.669 -2.53511 2.56446 0
M  V30 3892 O 363.773 -3.54953 2.09958 0
M  V30 3893 H 363.114 -0.408494 0.523477 0
M  V30 3894 H 365.644 -0.706646 1.9201 0
M  V30 3895 H 365.654 -3.00426 2.76058 0
M  V30 3896 H 364.329 -2.16549 3.55076 0
M  V30 3897 H 362.906 -3.14516 2.00334 0
M  V30 3898 N 365.091 -1.34144 -0.827227 0
M  V30 3899 C 366.319 -1.29325 -1.61501 0
M  V30 3900 C 366.734 0.13354 -1.88327 0
M  V30 3901 O 366.091 1.0793 -1.47164 0
M  V30 3902 C 366.142 -2.07746 -2.95844 0
M  V30 3903 O 365.863 -3.4486 -2.70191 0
M  V30 3904 C 367.364 -2.10273 -3.90256 0
M  V30 3905 H 364.584 -0.445069 -0.50215 0
M  V30 3906 H 367.128 -1.76693 -1.02955 0
M  V30 3907 H 365.283 -1.6403 -3.5096 0
M  V30 3908 H 365.697 -3.85345 -3.55822 0
M  V30 3909 H 367.171 -2.69575 -4.81698 0
M  V30 3910 H 367.648 -1.096 -4.25305 0
M  V30 3911 H 368.254 -2.54059 -3.41078 0
M  V30 3912 N 366.569 1.04691 -1.17803 0
M  V30 3913 C 367.499 2.14494 -0.92275 0
M  V30 3914 C 368.48 1.69546 0.137179 0
M  V30 3915 O 369.665 1.94195 -0.0141108 0
M  V30 3916 C 366.795 3.44491 -0.440803 0
M  V30 3917 C 365.749 4.03031 -1.4405 0
M  V30 3918 C 365.075 5.28432 -0.81631 0
M  V30 3919 C 366.375 4.39932 -2.81527 0
M  V30 3920 H 368.069 2.36107 -1.84103 0
M  V30 3921 H 365.615 1.1347 -0.886599 0
M  V30 3922 H 367.568 4.2066 -0.249602 0
M  V30 3923 H 366.292 3.22546 0.513025 0
M  V30 3924 H 364.951 3.28937 -1.61853 0
M  V30 3925 H 364.599 5.02792 0.144511 0
M  V30 3926 H 364.299 5.68559 -1.48371 0
M  V30 3927 H 365.823 6.07284 -0.635496 0
M  V30 3928 H 367.237 5.07113 -2.67412 0
M  V30 3929 H 365.634 4.9109 -3.44892 0
M  V30 3930 H 366.704 3.50045 -3.35554 0
M  V30 3931 N 368.047 0.979072 1.23499 0
M  V30 3932 C 369.458 0.684391 1.73704 0
M  V30 3933 C 369.809 -0.799448 1.79174 0
M  V30 3934 O 368.934 -1.62531 1.42873 0
M  V30 3935 C 369.529 1.23564 3.15464 0
M  V30 3936 C 368.088 0.99063 3.6313 0
M  V30 3937 C 367.235 1.36416 2.41425 0
M  V30 3938 H 370.186 1.15307 1.09041 0
M  V30 3939 H 370.207 0.607417 3.7562 0
M  V30 3940 H 369.719 2.31561 3.1145 0
M  V30 3941 H 367.82 -0.0733136 3.72528 0
M  V30 3942 H 367.933 1.64427 4.5 0
M  V30 3943 H 366.297 0.782616 2.42378 0
M  V30 3944 H 367.08 2.45387 2.40083 0
M  V30 3945 N 369.525 -1.3858 0.750561 0
M  V30 3946 C 370.75 -2.04997 0.314812 0
M  V30 3947 C 371.175 -1.56235 -1.04749 0
M  V30 3948 O 370.533 -0.712981 -1.66692 0
M  V30 3949 C 370.581 -3.58961 0.343415 0
M  V30 3950 O 369.685 -4.07025 -0.663628 0
M  V30 3951 H 369.026 -0.649081 0.139962 0
M  V30 3952 H 371.556 -1.77313 1.02084 0
M  V30 3953 H 371.566 -4.07542 0.193233 0
M  V30 3954 H 370.241 -3.93811 1.33738 0
M  V30 3955 H 368.818 -3.6982 -0.478307 0
M  V30 3956 N 371.003 -0.499398 -1.49478 0
M  V30 3957 C 371.933 0.269244 -2.31943 0
M  V30 3958 C 372.914 0.964054 -1.40143 0
M  V30 3959 O 374.099 0.955767 -1.69052 0
M  V30 3960 C 371.229 1.33504 -3.20615 0
M  V30 3961 C 370.183 0.760202 -4.21195 0
M  V30 3962 C 369.509 1.9264 -4.98792 0
M  V30 3963 C 370.809 -0.247661 -5.21712 0
M  V30 3964 H 372.503 -0.419082 -2.96452 0
M  V30 3965 H 370.049 -0.202988 -1.42562 0
M  V30 3966 H 372.002 1.88048 -3.77115 0
M  V30 3967 H 370.726 2.05253 -2.54045 0
M  V30 3968 H 369.385 0.23653 -3.65836 0
M  V30 3969 H 369.033 2.63154 -4.28671 0
M  V30 3970 H 368.733 1.54785 -5.66847 0
M  V30 3971 H 370.257 2.4762 -5.58137 0
M  V30 3972 H 371.671 0.209579 -5.72917 0
M  V30 3973 H 370.068 -0.541962 -5.97648 0
M  V30 3974 H 371.138 -1.16409 -4.7072 0
M  V30 3975 N 372.481 1.55866 -0.233164 0
M  V30 3976 C 373.897 1.59133 0.121988 0
M  V30 3977 C 374.097 1.25016 1.58029 0
M  V30 3978 O 373.153 0.990922 2.32243 0
M  V30 3979 C 374.466 2.99932 -0.214792 0
M  V30 3980 C 376.014 3.12601 -0.157971 0
M  V30 3981 C 376.489 4.55597 -0.46859 0
M  V30 3982 N 377.98 4.61305 -0.418585 0
M  V30 3983 C 378.715 5.69903 -0.63227 0
M  V30 3984 N 378.211 6.86819 -0.90835 0
M  V30 3985 N 380.004 5.59264 -0.563913 0
M  V30 3986 H 372.155 1.76315 -1.18434 0
M  V30 3987 H 374.418 0.820093 -0.475553 0
M  V30 3988 H 374.124 3.29588 -1.22739 0
M  V30 3989 H 373.998 3.74327 0.464691 0
M  V30 3990 H 376.385 2.82735 0.845283 0
M  V30 3991 H 376.466 2.40511 -0.871102 0
M  V30 3992 H 376.11 4.86182 -1.46934 0
M  V30 3993 H 376.04 5.25928 0.265865 0
M  V30 3994 H 378.531 3.77297 -0.213368 0
M  V30 3995 H 378.844 7.65507 -1.05919 0
M  V30 3996 H 377.189 6.88536 -0.945673 0
M  V30 3997 H 380.38 4.66802 -0.348372 0
M  V30 3998 H 380.553 6.43831 -0.733847 0
M  V30 3999 N 373.959 -0.0401083 1.57549 0
M  V30 4000 C 374.869 -1.06133 2.0922 0
M  V30 4001 C 375.885 -1.40356 1.0284 0
M  V30 4002 O 377.061 -1.49897 1.34509 0
M  V30 4003 C 374.126 -2.34658 2.55218 0
M  V30 4004 C 373.187 -2.07117 3.76033 0
M  V30 4005 C 372.42 -3.29514 4.19829 0
M  V30 4006 O 372.643 -4.39794 3.63232 0
M  V30 4007 O 371.577 -3.15863 5.12362 0
M  V30 4008 H 375.403 -0.652244 2.96613 0
M  V30 4009 H 372.988 -0.256368 1.47184 0
M  V30 4010 H 374.87 -3.10239 2.85184 0
M  V30 4011 H 373.545 -2.74883 1.70941 0
M  V30 4012 H 372.452 -1.29139 3.51104 0
M  V30 4013 H 373.785 -1.71754 4.61261 0
M  V30 4014 N 375.437 -1.54477 -0.31217 0
M  V30 4015 C 376.347 -1.87695 -1.4074 0
M  V30 4016 C 377.363 -0.769975 -1.56036 0
M  V30 4017 O 378.539 -1.06537 -1.70915 0
M  V30 4018 C 375.604 -2.10755 -2.75287 0
M  V30 4019 C 374.665 -3.34514 -2.69071 0
M  V30 4020 C 373.898 -3.56465 -3.97201 0
M  V30 4021 O 374.121 -2.81637 -4.96021 0
M  V30 4022 O 373.055 -4.49964 -3.9977 0
M  V30 4023 H 376.881 -2.80849 -1.15574 0
M  V30 4024 H 374.466 -1.40526 -0.507228 0
M  V30 4025 H 376.348 -2.27188 -3.54913 0
M  V30 4026 H 375.023 -1.20788 -3.0032 0
M  V30 4027 H 373.93 -3.23456 -1.87955 0
M  V30 4028 H 375.263 -4.24575 -2.48992 0
M  V30 4029 N 376.915 0.57481 -1.46744 0
M  V30 4030 C 377.825 1.711 -1.60505 0
M  V30 4031 C 378.841 1.67008 -0.488307 0
M  V30 4032 O 380.017 1.86774 -0.753495 0
M  V30 4033 C 377.082 3.07608 -1.59932 0
M  V30 4034 C 376.143 3.22904 -2.82898 0
M  V30 4035 C 375.376 4.529 -2.82343 0
M  V30 4036 O 375.599 5.37278 -1.91542 0
M  V30 4037 O 374.533 4.71611 -3.73987 0
M  V30 4038 H 378.359 1.62436 -2.56609 0
M  V30 4039 H 375.944 0.742779 -1.29627 0
M  V30 4040 H 377.826 3.88877 -1.62336 0
M  V30 4041 H 376.501 3.16692 -0.669898 0
M  V30 4042 H 375.408 2.41099 -2.86046 0
M  V30 4043 H 376.741 3.18715 -3.75076 0
M  V30 4044 N 378.394 1.34581 0.820102 0
M  V30 4045 C 379.304 1.28471 1.96297 0
M  V30 4046 C 380.32 0.191902 1.72939 0
M  V30 4047 O 381.496 0.418879 1.96996 0
M  V30 4048 C 378.561 1.04281 3.30645 0
M  V30 4049 C 377.622 2.22745 3.66992 0
M  V30 4050 C 376.855 1.997 4.9493 0
M  V30 4051 O 377.078 0.956656 5.6232 0
M  V30 4052 O 376.012 2.86723 5.2922 0
M  V30 4053 H 379.838 2.24624 2.04396 0
M  V30 4054 H 377.423 1.14816 0.955913 0
M  V30 4055 H 379.305 0.925841 4.11104 0
M  V30 4056 H 377.98 0.111697 3.23507 0
M  V30 4057 H 376.887 2.40003 2.86966 0
M  V30 4058 H 378.22 3.14257 3.78819 0
M  V30 4059 N 379.872 -1.04064 1.18357 0
M  V30 4060 C 380.804 -2.12114 0.868358 0
M  V30 4061 C 381.817 -1.62247 -0.134045 0
M  V30 4062 O 383.006 -1.78253 0.0937933 0
M  V30 4063 C 380.106 -3.37773 0.276132 0
M  V30 4064 C 379.279 -4.16874 1.3242 0
M  V30 4065 C 378.338 -5.20861 0.747662 0
M  V30 4066 O 377.364 -5.51141 1.42239 0
M  V30 4067 N 378.566 -5.78715 -0.454823 0
M  V30 4068 H 381.331 -2.39748 1.79836 0
M  V30 4069 H 378.892 -1.20258 1.08396 0
M  V30 4070 H 380.884 -4.04513 -0.123133 0
M  V30 4071 H 379.454 -3.07581 -0.557895 0
M  V30 4072 H 378.674 -3.45456 1.89878 0
M  V30 4073 H 379.962 -4.66516 2.03078 0
M  V30 4074 H 379.36 -5.56415 -1.02073 0
M  V30 4075 H 377.917 -6.46921 -0.79601 0
M  V30 4076 N 381.35 -0.985608 -1.22978 0
M  V30 4077 C 382.598 -0.656087 -1.91154 0
M  V30 4078 C 382.919 0.813561 -1.77218 0
M  V30 4079 O 382.189 1.58244 -1.1548 0
M  V30 4080 H 380.769 -0.239674 -0.707506 0
M  V30 4081 H 383.431 -1.25054 -1.49491 0
M  V30 4082 H 382.527 -0.912253 -2.9847 0
M  V30 4083 N 382.828 1.3818 -0.7579 0
M  V30 4084 C 383.778 2.27741 -0.108674 0
M  V30 4085 C 384.762 1.45415 0.688709 0
M  V30 4086 O 385.954 1.68108 0.553956 0
M  V30 4087 C 383.083 3.34313 0.780367 0
M  V30 4088 C 382.169 4.24093 -0.0240977 0
M  V30 4089 N 382.56 4.9451 -1.06271 0
M  V30 4090 C 380.858 4.45542 0.202049 0
M  V30 4091 C 381.559 5.60675 -1.54979 0
M  V30 4092 N 380.535 5.36684 -0.864348 0
M  V30 4093 H 384.337 2.79649 -0.904071 0
M  V30 4094 H 381.851 1.51133 -0.594346 0
M  V30 4095 H 383.848 3.97368 1.26114 0
M  V30 4096 H 382.508 2.83962 1.57467 0
M  V30 4097 H 383.519 4.97345 -1.44459 0
M  V30 4098 H 380.196 4.06091 0.96935 0
M  V30 4099 H 381.586 6.26992 -2.41517 0
M  V30 4100 N 384.306 0.507319 1.49211 0
M  V30 4101 C 385.546 -0.0332372 2.04373 0
M  V30 4102 C 385.91 -1.33694 1.37804 0
M  V30 4103 O 387.111 -1.96213 1.83722 0
M  V30 4104 C 385.382 -0.17599 3.56966 0
M  V30 4105 S 386.941 -0.669882 4.33657 0
M  V30 4106 H 383.759 0.00123603 0.710999 0
M  V30 4107 H 386.361 0.682725 1.83191 0
M  V30 4108 H 385.065 0.778053 4.02957 0
M  V30 4109 H 384.596 -0.917005 3.82563 0
M  V30 4110 H 386.611 -1.93806 4.56786 0
M  V30 4111 N 385.784 -1.5574 0.241426 0
M  V30 4112 C 387.009 -2.0366 -0.392111 0
M  V30 4113 C 387.434 -1.11969 -1.51144 0
M  V30 4114 O 386.792 -0.111594 -1.80956 0
M  V30 4115 C 386.84 -3.49638 -0.882371 0
M  V30 4116 O 385.944 -3.6108 -1.99235 0
M  V30 4117 H 385.285 -0.658379 -0.0862122 0
M  V30 4118 H 387.815 -2.01302 0.365881 0
M  V30 4119 H 387.825 -3.90351 -1.18702 0
M  V30 4120 H 386.5 -4.15852 -0.0632361 0
M  V30 4121 H 385.077 -3.32262 -1.69282 0
M  V30 4122 N 387.262 0.0317525 -1.57568 0
M  V30 4123 C 388.194 1.06073 -2.03178 0
M  V30 4124 C 389.207 1.32627 -0.944132 0
M  V30 4125 O 390.396 1.30162 -1.22148 0
M  V30 4126 C 387.496 2.40297 -2.38978 0
M  V30 4127 C 386.669 2.33137 -3.70089 0
M  V30 4128 C 385.728 3.49787 -3.9311 0
M  V30 4129 O 384.754 3.29403 -4.64201 0
M  V30 4130 N 385.956 4.71562 -3.38541 0
M  V30 4131 H 388.721 0.672006 -2.92069 0
M  V30 4132 H 386.282 0.219745 -1.60402 0
M  V30 4133 H 388.274 3.1705 -2.51518 0
M  V30 4134 H 386.844 2.71024 -1.55771 0
M  V30 4135 H 386.064 1.415 -3.67928 0
M  V30 4136 H 387.352 2.25493 -4.56104 0
M  V30 4137 H 386.75 4.91024 -2.80912 0
M  V30 4138 H 385.307 5.45689 -3.56464 0
M  V30 4139 N 388.74 1.54641 0.303973 0
M  V30 4140 C 389.673 1.80263 1.3993 0
M  V30 4141 C 390.651 0.653657 1.48883 0
M  V30 4142 O 391.835 0.893284 1.6599 0
M  V30 4143 C 388.962 1.9367 2.77866 0
M  V30 4144 C 388.008 3.16078 2.86351 0
M  V30 4145 S 388.841 4.74219 2.4875 0
M  V30 4146 C 389.997 4.90558 3.88721 0
M  V30 4147 H 390.23 2.72886 1.17986 0
M  V30 4148 H 387.763 1.46014 0.501918 0
M  V30 4149 H 389.721 2.0208 3.57315 0
M  V30 4150 H 388.382 1.01991 2.9708 0
M  V30 4151 H 387.575 3.22252 3.87517 0
M  V30 4152 H 387.177 3.06099 2.14893 0
M  V30 4153 H 389.469 4.74398 4.83687 0
M  V30 4154 H 390.412 5.92651 3.87518 0
M  V30 4155 H 390.82 4.18728 3.78585 0
M  V30 4156 N 390.218 -0.567019 1.47046 0
M  V30 4157 C 391.458 -1.3355 1.54738 0
M  V30 4158 C 391.822 -1.90947 0.200772 0
M  V30 4159 O 393.023 -2.68367 0.152489 0
M  V30 4160 C 391.294 -2.42317 2.62712 0
M  V30 4161 S 392.853 -3.29383 2.89918 0
M  V30 4162 H 389.671 -0.454788 0.546525 0
M  V30 4163 H 392.273 -0.650191 1.84371 0
M  V30 4164 H 390.977 -1.98568 3.59164 0
M  V30 4165 H 390.508 -3.15601 2.34861 0
M  V30 4166 H 392.523 -4.41548 2.26384 0
M  V30 4167 N 391.696 -1.35014 -0.812953 0
M  V30 4168 C 392.646 -1.23959 -1.91359 0
M  V30 4169 C 393.63 -0.136306 -1.60322 0
M  V30 4170 O 394.822 -0.366925 -1.73155 0
M  V30 4171 C 391.951 -1.00736 -3.28188 0
M  V30 4172 C 391.037 -2.15426 -3.65311 0
M  V30 4173 N 391.428 -3.40612 -3.73921 0
M  V30 4174 C 389.726 -2.06672 -3.95225 0
M  V30 4175 C 390.427 -4.15994 -4.06601 0
M  V30 4176 N 389.403 -3.44685 -4.20349 0
M  V30 4177 H 393.205 -2.18815 -1.96208 0
M  V30 4178 H 390.719 -1.27395 -1.00718 0
M  V30 4179 H 392.716 -0.909052 -4.06868 0
M  V30 4180 H 391.376 -0.067586 -3.2463 0
M  V30 4181 H 392.387 -3.75043 -3.5716 0
M  V30 4182 H 389.064 -1.20511 -3.99729 0
M  V30 4183 H 390.454 -5.24145 -4.20382 0
M  V30 4184 N 393.175 1.03435 -1.18907 0
M  V30 4185 C 394.123 2.13703 -0.918353 0
M  V30 4186 C 395.117 1.68947 0.123767 0
M  V30 4187 O 396.323 1.79983 -0.0249701 0
M  V30 4188 H 392.698 0.698112 -0.279542 0
M  V30 4189 H 394.669 2.33731 -1.85506 0
M  V30 4190 C 393.418 3.44542 -0.467532 0
M  V30 4191 H 392.741 3.79394 -1.26095 0
M  V30 4192 H 394.181 4.22812 -0.317164 0
M  V30 4193 C 392.64 3.26829 0.817588 0
M  V30 4194 O 393.17 3.54975 1.88031 0
M  V30 4195 N 391.376 2.80139 0.772677 0
M  V30 4196 H 390.923 2.57434 -0.0923883 0
M  V30 4197 H 390.881 2.68668 1.63294 0
M  V30 4198 N 394.653 0.992116 1.22453 0
M  V30 4199 C 395.899 0.668523 1.91464 0
M  V30 4200 C 396.232 -0.797313 1.77078 0
M  V30 4201 O 395.507 -1.5765 1.13916 0
M  V30 4202 C 395.79 1.07424 3.43703 0
M  V30 4203 C 395.643 2.59857 3.67143 0
M  V30 4204 C 396.962 0.626891 4.35612 0
M  V30 4205 H 394.081 0.244341 0.695318 0
M  V30 4206 H 396.723 1.2355 1.44345 0
M  V30 4207 H 394.873 0.591816 3.83966 0
M  V30 4208 H 396.545 3.15764 3.3629 0
M  V30 4209 H 394.788 3.01961 3.11451 0
M  V30 4210 H 395.459 2.83296 4.73759 0
M  V30 4211 H 397.935 1.04125 4.02861 0
M  V30 4212 H 396.811 0.939076 5.40807 0
M  V30 4213 H 397.072 -0.472457 4.39568 0
M  V30 4214 N 396.131 -1.37776 0.765217 0
M  V30 4215 C 397.378 -1.99849 0.326588 0
M  V30 4216 C 397.706 -1.60746 -1.09504 0
M  V30 4217 O 396.961 -0.84202 -1.76659 0
M  V30 4218 C 397.26 -3.5504 0.410053 0
M  V30 4219 C 396.926 -4.13891 1.78899 0
M  V30 4220 C 395.588 -4.29678 2.16635 0
M  V30 4221 C 397.94 -4.46236 2.69301 0
M  V30 4222 C 395.268 -4.7511 3.44221 0
M  V30 4223 C 397.62 -4.93089 3.9629 0
M  V30 4224 C 396.284 -5.07082 4.34078 0
M  V30 4225 H 395.554 -0.7313 0.119507 0
M  V30 4226 H 398.201 -1.64645 0.977968 0
M  V30 4227 H 396.506 -3.90451 -0.324878 0
M  V30 4228 H 398.203 -4.00966 0.0520699 0
M  V30 4229 H 394.793 -4.02026 1.48569 0
M  V30 4230 H 398.977 -4.3363 2.41409 0
M  V30 4231 H 394.233 -4.84129 3.73402 0
M  V30 4232 H 398.407 -5.17084 4.66472 0
M  V30 4233 H 396.034 -5.42046 5.33001 0
M  V30 4234 N 397.609 -0.515225 -1.4894 0
M  V30 4235 C 398.858 0.0261361 -2.01683 0
M  V30 4236 C 399.171 1.36719 -1.39883 0
M  V30 4237 O 400.377 1.99606 -1.84037 0
M  V30 4238 C 398.833 0.0970111 -3.59769 0
M  V30 4239 C 398.441 -1.23825 -4.30548 0
M  V30 4240 C 400.185 0.587981 -4.20408 0
M  V30 4241 C 398.092 -1.12877 -5.80528 0
M  V30 4242 H 397.022 0.0135398 -0.753878 0
M  V30 4243 H 399.673 -0.656787 -1.71343 0
M  V30 4244 H 398.055 0.844694 -3.86886 0
M  V30 4245 H 399.229 -2.00034 -4.15118 0
M  V30 4246 H 397.544 -1.66379 -3.81716 0
M  V30 4247 H 400.141 0.68763 -5.3026 0
M  V30 4248 H 400.484 1.59026 -3.84729 0
M  V30 4249 H 401.017 -0.103582 -3.97665 0
M  V30 4250 H 397.756 -2.10575 -6.20756 0
M  V30 4251 H 397.276 -0.407799 -5.98412 0
M  V30 4252 H 398.955 -0.813332 -6.41868 0
M  V30 4253 N 399.087 1.5561 -0.249682 0
M  V30 4254 C 400.333 1.99306 0.374841 0
M  V30 4255 C 400.666 1.13767 1.57387 0
M  V30 4256 O 399.941 0.201711 1.93451 0
M  V30 4257 C 400.224 3.51507 0.781986 0
M  V30 4258 C 400.077 4.4781 -0.422629 0
M  V30 4259 C 401.396 4.08884 1.62793 0
M  V30 4260 H 398.515 0.724572 0.134773 0
M  V30 4261 H 401.157 1.86719 -0.351549 0
M  V30 4262 H 399.307 3.62363 1.4009 0
M  V30 4263 H 400.979 4.48931 -1.06108 0
M  V30 4264 H 399.222 4.20518 -1.06524 0
M  V30 4265 H 399.893 5.51919 -0.0943766 0
M  V30 4266 H 402.369 4.01147 1.10547 0
M  V30 4267 H 401.245 5.1564 1.88166 0
M  V30 4268 H 401.506 3.57515 2.60068 0
M  V30 4269 N 400.565 -0.0233959 1.57583 0
M  V30 4270 C 401.475 -1.03907 2.10334 0
M  V30 4271 C 402.491 -1.39257 1.04323 0
M  V30 4272 O 403.667 -1.48462 1.36091 0
M  V30 4273 C 400.732 -2.31938 2.57693 0
M  V30 4274 C 399.793 -2.03117 3.78209 0
M  V30 4275 C 399.026 -3.25043 4.233 0
M  V30 4276 O 399.249 -4.35916 3.67876 0
M  V30 4277 O 398.183 -3.10411 5.15683 0
M  V30 4278 H 402.009 -0.620748 2.97288 0
M  V30 4279 H 399.594 -0.240743 1.47448 0
M  V30 4280 H 401.476 -3.07196 2.88458 0
M  V30 4281 H 400.151 -2.73055 1.73847 0
M  V30 4282 H 399.058 -1.25408 3.52454 0
M  V30 4283 H 400.391 -1.66852 4.63056 0
M  V30 4284 N 402.043 -1.548 -0.295768 0
M  V30 4285 C 403.268 -1.78653 -1.05346 0
M  V30 4286 C 403.693 -0.546894 -1.79974 0
M  V30 4287 O 403.051 0.502763 -1.7419 0
M  V30 4288 C 403.099 -2.99679 -2.00561 0
M  V30 4289 O 402.203 -2.7317 -3.08953 0
M  V30 4290 H 401.544 -0.59116 -0.302367 0
M  V30 4291 H 404.074 -2.01895 -0.331598 0
M  V30 4292 H 404.084 -3.27793 -2.42932 0
M  V30 4293 H 402.759 -3.89562 -1.4565 0
M  V30 4294 H 401.336 -2.56089 -2.71059 0
M  V30 4295 N 403.521 0.559213 -1.47345 0
M  V30 4296 C 404.767 1.31843 -1.54095 0
M  V30 4297 C 405.1 1.93149 -0.201726 0
M  V30 4298 O 404.375 1.77759 0.789428 0
M  V30 4299 C 404.658 2.43006 -2.65744 0
M  V30 4300 C 404.511 1.86581 -4.09277 0
M  V30 4301 C 405.83 3.44943 -2.73318 0
M  V30 4302 H 402.949 0.478012 -0.560957 0
M  V30 4303 H 405.591 0.625977 -1.79392 0
M  V30 4304 H 403.741 3.02072 -2.44305 0
M  V30 4305 H 405.413 1.31792 -4.42073 0
M  V30 4306 H 403.656 1.17268 -4.17649 0
M  V30 4307 H 404.327 2.66933 -4.83168 0
M  V30 4308 H 406.803 2.95793 -2.92653 0
M  V30 4309 H 405.679 4.20153 -3.53218 0
M  V30 4310 H 405.94 4.03665 -1.80296 0
M  V30 4311 N 404.999 1.35443 0.805782 0
M  V30 4312 C 406.239 1.30127 1.57627 0
M  V30 4313 C 406.603 -0.122567 1.91608 0
M  V30 4314 O 407.804 -0.300107 2.67119 0
M  V30 4315 C 406.075 2.18314 2.82973 0
M  V30 4316 S 407.634 2.30521 3.7337 0
M  V30 4317 H 404.452 0.462439 0.540066 0
M  V30 4318 H 407.054 1.70843 0.95042 0
M  V30 4319 H 405.758 3.20741 2.56034 0
M  V30 4320 H 405.289 1.78558 3.50543 0
M  V30 4321 H 407.304 1.49062 4.73281 0
M  V30 4322 N 406.477 -1.02803 1.19454 0
M  V30 4323 C 407.723 -1.76478 0.999171 0
M  V30 4324 C 408.056 -1.88456 -0.468828 0
M  V30 4325 O 407.331 -1.40198 -1.34814 0
M  V30 4326 C 407.614 -3.19044 1.66981 0
M  V30 4327 C 407.467 -3.14932 3.21151 0
M  V30 4328 C 408.786 -4.17456 1.39349 0
M  V30 4329 H 405.905 -0.640614 0.364393 0
M  V30 4330 H 408.547 -1.20005 1.47305 0
M  V30 4331 H 406.697 -3.67263 1.2669 0
M  V30 4332 H 408.369 -2.74605 3.70661 0
M  V30 4333 H 406.612 -2.52625 3.52652 0
M  V30 4334 H 407.283 -4.1566 3.63223 0
M  V30 4335 H 409.759 -3.77842 1.74283 0
M  V30 4336 H 408.635 -5.154 1.88823 0
M  V30 4337 H 408.896 -4.40949 0.318813 0
M  V30 4338 N 407.956 -0.998596 -1.21925 0
M  V30 4339 C 409.204 -0.676325 -1.90448 0
M  V30 4340 C 409.525 0.794719 -1.78071 0
M  V30 4341 O 408.795 1.5701 -1.17152 0
M  V30 4342 H 407.375 -0.247165 -0.704925 0
M  V30 4343 H 410.037 -1.26633 -1.48156 0
M  V30 4344 H 409.133 -0.943858 -2.97486 0
M  V30 4345 N 409.434 1.37368 -0.772513 0
M  V30 4346 C 410.68 2.00423 -0.3467 0
M  V30 4347 C 411.035 1.60224 1.06518 0
M  V30 4348 O 410.328 0.838712 1.72268 0
M  V30 4349 C 410.522 3.54817 -0.428876 0
M  V30 4350 C 410.351 4.10011 -1.84719 0
M  V30 4351 C 409.121 4.40927 -2.46803 0
M  V30 4352 C 411.319 4.30955 -2.80681 0
M  V30 4353 N 409.301 4.8184 -3.80399 0
M  V30 4354 C 410.672 4.74486 -3.99078 0
M  V30 4355 C 412.727 4.1309 -2.77958 0
M  V30 4356 C 411.43 5.02023 -5.15136 0
M  V30 4357 C 413.456 4.41764 -3.9319 0
M  V30 4358 C 412.818 4.85535 -5.10328 0
M  V30 4359 H 408.917 0.762413 -0.173927 0
M  V30 4360 H 411.501 1.66666 -1.00651 0
M  V30 4361 H 409.672 3.87881 0.200757 0
M  V30 4362 H 411.404 4.04696 0.0190668 0
M  V30 4363 H 408.159 4.30033 -1.98415 0
M  V30 4364 H 408.583 5.06604 -4.49089 0
M  V30 4365 H 413.225 3.7842 -1.88568 0
M  V30 4366 H 410.943 5.35582 -6.05126 0
M  V30 4367 H 414.529 4.29528 -3.92425 0
M  V30 4368 H 413.409 5.07296 -5.98013 0
M  V30 4369 N 410.912 0.523116 1.48665 0
M  V30 4370 C 412.159 -0.0134763 2.02496 0
M  V30 4371 C 412.487 -1.3493 1.40086 0
M  V30 4372 O 411.742 -1.88286 0.533567 0
M  V30 4373 C 412.041 -0.191671 3.56886 0
M  V30 4374 C 411.707 1.06893 4.38046 0
M  V30 4375 C 410.369 1.41443 4.59943 0
M  V30 4376 C 412.721 1.90584 4.85106 0
M  V30 4377 C 410.049 2.59594 5.26144 0
M  V30 4378 C 412.401 3.07907 5.52609 0
M  V30 4379 C 411.065 3.42811 5.72745 0
M  V30 4380 H 410.335 -0.00493133 0.740984 0
M  V30 4381 H 412.982 0.687751 1.78724 0
M  V30 4382 H 411.287 -0.97561 3.79459 0
M  V30 4383 H 412.984 -0.621659 3.96152 0
M  V30 4384 H 409.574 0.789848 4.21259 0
M  V30 4385 H 413.758 1.65203 4.67997 0
M  V30 4386 H 409.014 2.86847 5.39934 0
M  V30 4387 H 413.188 3.73066 5.88043 0
M  V30 4388 H 410.815 4.34462 6.23816 0
M  V30 4389 N 412.39 -1.55475 0.257931 0
M  V30 4390 C 413.615 -2.04064 -0.370488 0
M  V30 4391 C 414.04 -1.13565 -1.49948 0
M  V30 4392 O 413.398 -0.130781 -1.80828 0
M  V30 4393 C 413.446 -3.50554 -0.845237 0
M  V30 4394 O 412.55 -3.63173 -1.95394 0
M  V30 4395 H 411.891 -0.659257 -0.0792243 0
M  V30 4396 H 414.421 -2.00903 0.387212 0
M  V30 4397 H 414.431 -3.91588 -1.14555 0
M  V30 4398 H 413.106 -4.15896 -0.0191259 0
M  V30 4399 H 411.683 -3.34039 -1.65748 0
M  V30 4400 N 413.868 0.0150385 -1.57593 0
M  V30 4401 C 414.798 1.01047 -2.10503 0
M  V30 4402 C 415.779 1.36816 -1.01071 0
M  V30 4403 O 416.964 1.45455 -1.28672 0
M  V30 4404 C 414.094 2.30708 -2.59598 0
M  V30 4405 C 413.048 2.09142 -3.73421 0
M  V30 4406 C 412.374 3.44685 -4.08774 0
M  V30 4407 C 413.674 1.46619 -5.01298 0
M  V30 4408 H 415.368 0.569978 -2.93925 0
M  V30 4409 H 412.914 0.272724 -1.41394 0
M  V30 4410 H 414.867 3.00687 -2.95238 0
M  V30 4411 H 413.591 2.76843 -1.73279 0
M  V30 4412 H 412.25 1.41592 -3.38153 0
M  V30 4413 H 411.898 3.88495 -3.195 0
M  V30 4414 H 411.598 3.31077 -4.8545 0
M  V30 4415 H 413.122 4.16004 -4.4696 0
M  V30 4416 H 414.536 2.06535 -5.34805 0
M  V30 4417 H 412.933 1.43544 -5.82679 0
M  V30 4418 H 414.003 0.433611 -4.82957 0
M  V30 4419 N 415.346 1.54954 0.287554 0
M  V30 4420 C 416.256 1.8991 1.37736 0
M  V30 4421 C 417.272 0.794701 1.54792 0
M  V30 4422 O 418.448 1.09243 1.69198 0
M  V30 4423 C 415.513 2.15108 2.71899 0
M  V30 4424 C 414.574 3.38752 2.63715 0
M  V30 4425 C 413.807 3.62739 3.91479 0
M  V30 4426 O 414.03 2.89492 4.91478 0
M  V30 4427 O 412.964 4.56267 3.92561 0
M  V30 4428 H 416.79 2.82652 1.11092 0
M  V30 4429 H 414.375 1.41315 0.484807 0
M  V30 4430 H 416.257 2.32806 3.51254 0
M  V30 4431 H 414.932 1.25551 2.9836 0
M  V30 4432 H 413.839 3.26405 1.82786 0
M  V30 4433 H 415.172 4.28483 2.42205 0
M  V30 4434 N 416.824 -0.551391 1.4764 0
M  V30 4435 C 418.071 -1.3083 1.54563 0
M  V30 4436 C 418.399 -1.93359 0.210361 0
M  V30 4437 O 417.654 -1.78721 -0.797332 0
M  V30 4438 C 417.953 -2.43469 2.61644 0
M  V30 4439 C 417.619 -1.98732 4.04742 0
M  V30 4440 C 416.281 -1.86248 4.43695 0
M  V30 4441 C 418.633 -1.64659 4.94507 0
M  V30 4442 C 415.961 -1.37995 5.70241 0
M  V30 4443 C 418.313 -1.17875 6.21521 0
M  V30 4444 C 416.977 -1.03992 6.5935 0
M  V30 4445 H 416.247 -0.478741 0.565587 0
M  V30 4446 H 418.894 -0.617697 1.81264 0
M  V30 4447 H 417.199 -3.18109 2.28722 0
M  V30 4448 H 418.896 -3.01642 2.64222 0
M  V30 4449 H 415.486 -2.09393 3.73968 0
M  V30 4450 H 419.67 -1.73174 4.65107 0
M  V30 4451 H 414.926 -1.25915 5.98294 0
M  V30 4452 H 419.1 -0.905739 6.90485 0
M  V30 4453 H 416.727 -0.663794 7.57296 0
M  V30 4454 N 418.302 -1.35869 -0.798587 0
M  V30 4455 C 419.232 -1.32118 -1.92528 0
M  V30 4456 C 420.213 -0.194209 -1.68988 0
M  V30 4457 O 421.398 -0.390426 -1.90235 0
M  V30 4458 C 418.528 -1.10047 -3.29404 0
M  V30 4459 C 417.482 -2.19471 -3.67446 0
M  V30 4460 C 416.808 -1.82555 -5.02571 0
M  V30 4461 C 418.108 -3.61495 -3.76987 0
M  V30 4462 H 419.802 -2.26394 -1.95924 0
M  V30 4463 H 417.348 -1.08981 -0.94123 0
M  V30 4464 H 419.301 -1.06061 -4.07835 0
M  V30 4465 H 418.025 -0.122195 -3.26371 0
M  V30 4466 H 416.684 -2.22568 -2.91306 0
M  V30 4467 H 416.332 -0.833249 -4.9605 0
M  V30 4468 H 416.032 -2.5581 -5.28995 0
M  V30 4469 H 417.556 -1.80108 -5.83432 0
M  V30 4470 H 418.97 -3.60676 -4.4563 0
M  V30 4471 H 417.367 -4.33577 -4.14887 0
M  V30 4472 H 418.437 -3.97065 -2.78329 0
M  V30 4473 N 419.78 1.02168 -1.19998 0
M  V30 4474 C 420.71 2.12488 -0.96804 0
M  V30 4475 C 421.691 1.69799 0.101185 0
M  V30 4476 O 422.876 1.94121 -0.0552993 0
M  V30 4477 C 420.006 3.43479 -0.513776 0
M  V30 4478 C 418.96 3.99884 -1.52566 0
M  V30 4479 C 418.286 5.26582 -0.928214 0
M  V30 4480 C 419.586 4.33861 -2.90795 0
M  V30 4481 H 421.28 2.32149 -1.89069 0
M  V30 4482 H 418.826 1.11564 -0.910468 0
M  V30 4483 H 420.779 4.20036 -0.338774 0
M  V30 4484 H 419.503 3.23561 0.444493 0
M  V30 4485 H 418.162 3.25429 -1.68794 0
M  V30 4486 H 417.81 5.02986 0.0378289 0
M  V30 4487 H 417.51 5.65284 -1.60397 0
M  V30 4488 H 419.034 6.05799 -0.764167 0
M  V30 4489 H 420.448 5.01327 -2.78109 0
M  V30 4490 H 418.845 4.83664 -3.55231 0
M  V30 4491 H 419.915 3.42848 -3.42904 0
M  V30 4492 N 421.258 1.00505 1.21394 0
M  V30 4493 C 422.674 0.717873 1.42544 0
M  V30 4494 C 422.874 -0.706936 1.88692 0
M  V30 4495 O 421.93 -1.47627 2.04847 0
M  V30 4496 C 423.243 1.73377 2.45684 0
M  V30 4497 C 424.791 1.75059 2.59467 0
M  V30 4498 C 425.266 2.75545 3.6584 0
M  V30 4499 N 426.757 2.74213 3.73311 0
M  V30 4500 C 427.492 3.48626 4.55245 0
M  V30 4501 N 426.988 4.32678 5.41075 0
M  V30 4502 N 428.781 3.37276 4.49668 0
M  V30 4503 H 420.932 1.92506 0.897503 0
M  V30 4504 H 423.195 0.830919 0.456375 0
M  V30 4505 H 422.901 2.75395 2.18748 0
M  V30 4506 H 422.775 1.53647 3.44489 0
M  V30 4507 H 425.162 0.737337 2.8574 0
M  V30 4508 H 425.243 1.98861 1.60897 0
M  V30 4509 H 424.887 3.77028 3.40313 0
M  V30 4510 H 424.817 2.49009 4.64007 0
M  V30 4511 H 427.308 2.13234 3.11993 0
M  V30 4512 H 427.621 4.86253 6.00648 0
M  V30 4513 H 425.966 4.3676 5.40616 0
M  V30 4514 H 429.157 2.71043 3.81646 0
M  V30 4515 H 429.33 3.95524 5.13288 0
M  V30 4516 N 422.737 -1.36956 0.779787 0
M  V30 4517 C 423.667 -2.32761 0.185651 0
M  V30 4518 C 424.648 -1.56177 -0.673989 0
M  V30 4519 O 425.833 -1.84378 -0.609797 0
M  V30 4520 C 422.963 -3.40418 -0.687964 0
M  V30 4521 C 421.917 -4.27941 0.0710102 0
M  V30 4522 C 421.243 -5.26681 -0.922573 0
M  V30 4523 C 422.543 -5.07006 1.25467 0
M  V30 4524 H 424.237 -2.82698 0.986008 0
M  V30 4525 H 421.783 -1.3592 0.475592 0
M  V30 4526 H 423.736 -4.06423 -1.11348 0
M  V30 4527 H 422.46 -2.89025 -1.52093 0
M  V30 4528 H 421.119 -3.63478 0.47739 0
M  V30 4529 H 420.767 -4.71565 -1.7503 0
M  V30 4530 H 420.467 -5.86103 -0.419237 0
M  V30 4531 H 421.991 -5.9556 -1.34686 0
M  V30 4532 H 423.405 -5.66105 0.905401 0
M  V30 4533 H 421.802 -5.75793 1.69063 0
M  V30 4534 H 422.872 -4.3921 2.05481 0
M  V30 4535 N 424.215 -0.530993 -1.48385 0
M  V30 4536 C 425.464 0.00474348 -2.01699 0
M  V30 4537 C 425.777 1.35227 -1.41325 0
M  V30 4538 O 426.983 1.97643 -1.86144 0
M  V30 4539 C 425.439 0.0588473 -3.59852 0
M  V30 4540 C 425.047 -1.28385 -4.2921 0
M  V30 4541 C 426.791 0.543358 -4.21008 0
M  V30 4542 C 424.698 -1.19028 -5.79298 0
M  V30 4543 H 423.628 0.00554317 -0.75398 0
M  V30 4544 H 426.279 -0.674924 -1.70637 0
M  V30 4545 H 424.661 0.803612 -3.8776 0
M  V30 4546 H 425.835 -2.04426 -4.12973 0
M  V30 4547 H 424.15 -1.70418 -3.7993 0
M  V30 4548 H 426.747 0.631351 -5.3096 0
M  V30 4549 H 427.09 1.54937 -3.86394 0
M  V30 4550 H 427.623 -0.145754 -3.97533 0
M  V30 4551 H 424.362 -2.17147 -6.18488 0
M  V30 4552 H 423.882 -0.471246 -5.97946 0
M  V30 4553 H 425.561 -0.881365 -6.40969 0
M  V30 4554 N 425.693 1.55336 -0.266172 0
M  V30 4555 C 426.625 2.19544 0.658247 0
M  V30 4556 C 427.638 1.17746 1.12427 0
M  V30 4557 O 428.827 1.44517 1.04772 0
M  V30 4558 C 425.927 2.80032 1.9088 0
M  V30 4559 C 425.1 4.07436 1.59106 0
M  V30 4560 C 424.159 4.52056 2.69317 0
M  V30 4561 O 423.185 5.18023 2.35883 0
M  V30 4562 N 424.387 4.21448 3.99201 0
M  V30 4563 H 427.152 2.99503 0.108754 0
M  V30 4564 H 424.713 1.61667 -0.0869059 0
M  V30 4565 H 426.705 3.06831 2.63888 0
M  V30 4566 H 425.275 2.04119 2.36758 0
M  V30 4567 H 424.495 3.88021 0.695243 0
M  V30 4568 H 425.783 4.90462 1.35367 0
M  V30 4569 H 425.181 3.68528 4.29189 0
M  V30 4570 H 423.738 4.53039 4.68614 0
M  V30 4571 N 427.171 -0.0066808 1.57599 0
M  V30 4572 C 428.134 -0.985035 2.06953 0
M  V30 4573 C 429.134 -1.27663 0.977687 0
M  V30 4574 O 430.324 -1.22293 1.24057 0
M  V30 4575 C 427.456 -2.3118 2.50536 0
M  V30 4576 H 428.649 -0.558255 2.94658 0
M  V30 4577 H 426.202 -0.254011 1.54222 0
M  V30 4578 H 426.937 -2.78561 1.66054 0
M  V30 4579 H 426.722 -2.11338 3.3027 0
M  V30 4580 H 428.212 -3.01377 2.8907 0
M  V30 4581 N 428.649 -1.55105 -0.279332 0
M  V30 4582 C 430.06 -1.66186 -0.850832 0
M  V30 4583 C 430.411 -0.584707 -1.87285 0
M  V30 4584 O 429.536 0.274919 -2.14647 0
M  V30 4585 C 430.131 -3.01264 -1.55001 0
M  V30 4586 C 428.69 -3.14394 -2.06963 0
M  V30 4587 C 427.837 -2.61959 -0.909536 0
M  V30 4588 H 430.788 -1.58602 -0.0558235 0
M  V30 4589 H 430.809 -2.93899 -2.41669 0
M  V30 4590 H 430.321 -3.7964 -0.805931 0
M  V30 4591 H 428.422 -2.4078 -2.84352 0
M  V30 4592 H 428.535 -4.20867 -2.28928 0
M  V30 4593 H 426.899 -2.18957 -1.30116 0
M  V30 4594 H 427.682 -3.42833 -0.179062 0
M  V30 4595 N 430.127 0.543554 -1.4793 0
M  V30 4596 C 431.352 1.32995 -1.59145 0
M  V30 4597 C 431.777 1.86472 -0.246956 0
M  V30 4598 O 431.135 1.63696 0.779324 0
M  V30 4599 C 431.183 2.46623 -2.63077 0
M  V30 4600 O 430.287 3.49261 -2.19295 0
M  V30 4601 H 429.628 0.394472 -0.534124 0
M  V30 4602 H 432.158 0.655489 -1.93816 0
M  V30 4603 H 432.168 2.93001 -2.83926 0
M  V30 4604 H 430.843 2.07059 -3.60693 0
M  V30 4605 H 429.42 3.09094 -2.08603 0
M  V30 4606 N 431.605 1.3629 0.791371 0
M  V30 4607 C 432.552 1.30458 1.90393 0
M  V30 4608 C 433.522 0.173632 1.6519 0
M  V30 4609 O 434.707 0.35983 1.87376 0
M  V30 4610 C 431.847 1.09777 3.27174 0
M  V30 4611 C 430.96 2.31929 3.64462 0
M  V30 4612 C 430.095 2.04276 4.90352 0
M  V30 4613 C 429.134 3.224 5.20312 0
M  V30 4614 N 428.271 2.94424 6.37385 0
M  V30 4615 H 433.111 2.25589 1.94714 0
M  V30 4616 H 430.648 1.12122 0.952216 0
M  V30 4617 H 432.606 0.958133 4.06049 0
M  V30 4618 H 431.236 0.183014 3.22281 0
M  V30 4619 H 430.288 2.56703 2.80727 0
M  V30 4620 H 431.6 3.20085 3.82553 0
M  V30 4621 H 430.754 1.87231 5.77087 0
M  V30 4622 H 429.493 1.13428 4.74326 0
M  V30 4623 H 428.498 3.40005 4.32061 0
M  V30 4624 H 429.723 4.14071 5.38258 0
M  V30 4625 H 427.669 2.06185 6.22755 0
M  V30 4626 H 427.586 3.76118 6.55798 0
M  V30 4627 H 428.854 2.80953 7.27108 0
M  V30 4628 N 433.083 -1.0153 1.20538 0
M  V30 4629 C 434.33 -1.75149 1.01633 0
M  V30 4630 C 434.658 -1.89189 -0.451399 0
M  V30 4631 O 433.913 -1.41551 -1.35136 0
M  V30 4632 C 434.212 -3.17213 1.64654 0
M  V30 4633 C 433.878 -3.23146 3.14464 0
M  V30 4634 C 432.54 -3.24472 3.55347 0
M  V30 4635 C 434.892 -3.21207 4.10458 0
M  V30 4636 C 432.22 -3.21532 4.90748 0
M  V30 4637 C 434.572 -3.19808 5.45807 0
M  V30 4638 C 433.236 -3.19439 5.86102 0
M  V30 4639 H 432.506 -0.640914 0.3719 0
M  V30 4640 H 435.153 -1.19071 1.49981 0
M  V30 4641 H 433.458 -3.76457 1.08571 0
M  V30 4642 H 435.155 -3.72871 1.4754 0
M  V30 4643 H 431.745 -3.2285 2.81897 0
M  V30 4644 H 435.929 -3.19351 3.79906 0
M  V30 4645 H 431.185 -3.19578 5.21229 0
M  V30 4646 H 435.359 -3.1726 6.19935 0
M  V30 4647 H 432.986 -3.16915 6.90991 0
M  V30 4648 N 434.561 -1.01147 -1.20859 0
M  V30 4649 C 435.524 -0.582224 -2.21682 0
M  V30 4650 C 436.524 0.344887 -1.57058 0
M  V30 4651 O 437.714 0.134281 -1.73682 0
M  V30 4652 C 434.846 0.150496 -3.40568 0
M  V30 4653 H 436.039 -1.47408 -2.61172 0
M  V30 4654 H 433.592 -0.800695 -1.34233 0
M  V30 4655 H 434.327 1.0575 -3.06574 0
M  V30 4656 H 434.112 -0.515444 -3.88697 0
M  V30 4657 H 435.602 0.438344 -4.15293 0
M  V30 4658 N 436.039 1.36541 -0.78704 0
M  V30 4659 C 437.286 1.99304 -0.358341 0
M  V30 4660 C 437.614 1.62467 1.06933 0
M  V30 4661 O 436.869 0.870019 1.75297 0
M  V30 4662 C 437.168 3.54343 -0.466485 0
M  V30 4663 C 436.834 4.10993 -1.85461 0
M  V30 4664 C 435.496 4.26177 -2.23443 0
M  V30 4665 C 437.848 4.41895 -2.76366 0
M  V30 4666 C 435.176 4.69573 -3.51736 0
M  V30 4667 C 437.528 4.86722 -4.04084 0
M  V30 4668 C 436.192 5.00112 -4.42091 0
M  V30 4669 H 435.462 0.729306 -0.131126 0
M  V30 4670 H 438.109 1.63068 -1.00404 0
M  V30 4671 H 436.414 3.90918 0.262719 0
M  V30 4672 H 438.111 4.00833 -0.115854 0
M  V30 4673 H 434.701 3.99612 -1.54946 0
M  V30 4674 H 438.885 4.29735 -2.48277 0
M  V30 4675 H 434.141 4.78127 -3.81057 0
M  V30 4676 H 438.315 5.09598 -4.7464 0
M  V30 4677 H 435.942 5.33498 -5.41557 0
M  V30 4678 N 437.518 0.538854 1.48102 0
M  V30 4679 C 438.448 -0.207654 2.32575 0
M  V30 4680 C 439.429 -0.926559 1.4265 0
M  V30 4681 O 440.614 -0.91061 1.71527 0
M  V30 4682 C 437.744 -1.24957 3.24042 0
M  V30 4683 C 436.698 -0.648263 4.23062 0
M  V30 4684 C 436.024 -1.79348 5.03725 0
M  V30 4685 C 437.324 0.385897 5.20872 0
M  V30 4686 H 439.018 0.497534 2.95237 0
M  V30 4687 H 436.564 0.240715 1.41974 0
M  V30 4688 H 438.517 -1.77983 3.81969 0
M  V30 4689 H 437.241 -1.98446 2.59397 0
M  V30 4690 H 435.9 -0.139452 3.66335 0
M  V30 4691 H 435.548 -2.51696 4.35498 0
M  V30 4692 H 435.248 -1.39702 5.70751 0
M  V30 4693 H 436.772 -2.32735 5.64506 0
M  V30 4694 H 438.186 -0.057607 5.73271 0
M  V30 4695 H 436.583 0.700227 5.96001 0
M  V30 4696 H 437.653 1.28848 4.67468 0
M  V30 4697 N 438.996 -1.55193 0.274407 0
M  V30 4698 C 440.412 -1.59401 -0.0797543 0
M  V30 4699 C 440.612 -1.29162 -1.54659 0
M  V30 4700 O 439.668 -1.05215 -2.29534 0
M  V30 4701 C 440.981 -2.99257 0.294238 0
M  V30 4702 C 442.529 -3.12072 0.240796 0
M  V30 4703 C 443.004 -4.54194 0.589218 0
M  V30 4704 N 444.495 -4.60033 0.540744 0
M  V30 4705 C 445.23 -5.68027 0.783147 0
M  V30 4706 N 444.726 -6.8417 1.09013 0
M  V30 4707 N 446.519 -5.57572 0.711993 0
M  V30 4708 H 438.67 -1.73113 1.23067 0
M  V30 4709 H 440.933 -0.807197 0.497129 0
M  V30 4710 H 440.639 -3.26217 1.31435 0
M  V30 4711 H 440.513 -3.75427 -0.365281 0
M  V30 4712 H 442.9 -2.84877 -0.770024 0
M  V30 4713 H 442.981 -2.38117 0.934563 0
M  V30 4714 H 442.625 -4.82115 1.59772 0
M  V30 4715 H 442.555 -5.26448 -0.126331 0
M  V30 4716 H 445.046 -3.76599 0.313327 0
M  V30 4717 H 445.359 -7.6243 1.26178 0
M  V30 4718 H 443.704 -6.85787 1.12789 0
M  V30 4719 H 446.895 -4.65714 0.472014 0
M  V30 4720 H 447.068 -6.41659 0.90429 0
M  V30 4721 N 440.474 -0.00167713 -1.576 0
M  V30 4722 C 441.699 0.69739 -1.95323 0
M  V30 4723 C 442.124 1.6642 -0.876706 0
M  V30 4724 O 441.482 1.80548 0.165007 0
M  V30 4725 C 441.53 1.40403 -3.32144 0
M  V30 4726 O 440.634 2.5185 -3.26566 0
M  V30 4727 H 439.975 0.185373 -0.637599 0
M  V30 4728 H 442.505 -0.0553665 -2.04525 0
M  V30 4729 H 442.515 1.76707 -3.67748 0
M  V30 4730 H 441.19 0.695167 -4.10049 0
M  V30 4731 H 439.767 2.17861 -3.0264 0
M  V30 4732 N 441.952 1.55251 0.271103 0
M  V30 4733 C 443.363 1.66635 0.842007 0
M  V30 4734 C 443.714 0.594631 1.86972 0
M  V30 4735 O 442.839 -0.263532 2.14789 0
M  V30 4736 C 443.434 3.02082 1.53401 0
M  V30 4737 C 441.993 3.15487 2.05293 0
M  V30 4738 C 441.14 2.62438 0.895631 0
M  V30 4739 H 444.091 1.58629 0.0474117 0
M  V30 4740 H 444.112 2.95176 2.40107 0
M  V30 4741 H 443.624 3.80062 0.785786 0
M  V30 4742 H 441.725 2.42284 2.83071 0
M  V30 4743 H 441.838 4.22075 2.26693 0
M  V30 4744 H 440.202 2.19644 1.28953 0
M  V30 4745 H 440.985 3.42923 0.160878 0
M  V30 4746 N 443.43 -0.535701 1.48216 0
M  V30 4747 C 444.36 -1.65014 1.65204 0
M  V30 4748 C 445.341 -1.62554 0.501011 0
M  V30 4749 O 446.526 -1.7984 0.732886 0
M  V30 4750 C 443.656 -3.03616 1.68626 0
M  V30 4751 C 442.61 -3.20932 2.83172 0
M  V30 4752 C 441.936 -4.60537 2.71679 0
M  V30 4753 C 443.236 -3.04249 4.24535 0
M  V30 4754 H 444.93 -1.51053 2.58502 0
M  V30 4755 H 442.476 -0.725262 1.24402 0
M  V30 4756 H 444.429 -3.81446 1.79099 0
M  V30 4757 H 443.153 -3.18587 0.719026 0
M  V30 4758 H 441.812 -2.45517 2.72244 0
M  V30 4759 H 441.46 -4.72336 1.72937 0
M  V30 4760 H 441.16 -4.73069 3.48538 0
M  V30 4761 H 442.684 -5.40475 2.84112 0
M  V30 4762 H 444.098 -3.71877 4.36326 0
M  V30 4763 H 442.495 -3.28278 5.02348 0
M  V30 4764 H 443.565 -2.00739 4.41397 0
M  V30 4765 N 444.908 -1.36708 -0.784132 0
M  V30 4766 C 446.136 -1.34398 -1.57305 0
M  V30 4767 C 446.551 0.0735577 -1.88657 0
M  V30 4768 O 445.908 1.03193 -1.50524 0
M  V30 4769 C 445.959 -2.17053 -2.89085 0
M  V30 4770 O 445.68 -3.53281 -2.59083 0
M  V30 4771 C 447.181 -2.22583 -3.83369 0
M  V30 4772 H 444.401 -0.460819 -0.487736 0
M  V30 4773 H 446.945 -1.79879 -0.972819 0
M  V30 4774 H 445.1 -1.75113 -3.45564 0
M  V30 4775 H 445.514 -3.9647 -3.43383 0
M  V30 4776 H 446.988 -2.84763 -4.72878 0
M  V30 4777 H 447.465 -1.23075 -4.21603 0
M  V30 4778 H 448.071 -2.64781 -3.32823 0
M  V30 4779 N 446.386 1.0089 -1.21074 0
M  V30 4780 C 447.316 2.1145 -0.990523 0
M  V30 4781 C 448.297 1.69897 0.0831699 0
M  V30 4782 O 449.482 1.94052 -0.0758853 0
M  V30 4783 C 446.612 3.42914 -0.550177 0
M  V30 4784 C 445.566 3.98244 -1.56799 0
M  V30 4785 C 444.892 5.25568 -0.984013 0
M  V30 4786 C 446.192 4.30752 -2.95381 0
M  V30 4787 H 447.886 2.3013 -1.91521 0
M  V30 4788 H 445.432 1.10592 -0.92225 0
M  V30 4789 H 447.385 4.19653 -0.383305 0
M  V30 4790 H 446.109 3.24014 0.41015 0
M  V30 4791 H 444.768 3.23621 -1.72236 0
M  V30 4792 H 444.416 5.02998 -0.0155216 0
M  V30 4793 H 444.116 5.63551 -1.66384 0
M  V30 4794 H 445.64 6.04955 -0.828378 0
M  V30 4795 H 447.054 4.98349 -2.8341 0
M  V30 4796 H 445.451 4.79869 -3.60341 0
M  V30 4797 H 446.521 3.39192 -3.46521 0
M  V30 4798 N 447.864 1.01787 1.20321 0
M  V30 4799 C 449.113 0.703249 1.89043 0
M  V30 4800 C 449.426 -0.770445 1.79787 0
M  V30 4801 O 450.632 -1.19767 2.43656 0
M  V30 4802 C 449.088 1.20749 3.3904 0
M  V30 4803 C 448.696 2.70817 3.56878 0
M  V30 4804 C 450.44 0.968352 4.13308 0
M  V30 4805 C 448.347 3.14716 5.00708 0
M  V30 4806 H 447.277 0.259354 0.707991 0
M  V30 4807 H 449.928 1.23072 1.36108 0
M  V30 4808 H 448.31 0.607989 3.91305 0
M  V30 4809 H 449.484 3.36327 3.14993 0
M  V30 4810 H 447.799 2.92888 2.95983 0
M  V30 4811 H 450.396 1.27173 5.19356 0
M  V30 4812 H 450.739 -0.095149 4.16191 0
M  V30 4813 H 451.272 1.53129 3.67146 0
M  V30 4814 H 448.011 4.20347 5.02979 0
M  V30 4815 H 447.531 2.53927 5.43398 0
M  V30 4816 H 449.21 3.07426 5.69296 0
M  V30 4817 N 449.342 -1.36122 0.79427 0
M  V30 4818 C 450.619 -1.93398 0.292685 0
M  V30 4819 C 450.999 -1.72567 -1.21589 0
M  V30 4820 O 450.347 -1.08745 -2.00965 0
M  V30 4821 C 450.557 -3.42099 0.690614 0
M  V30 4822 C 451.905 -4.19231 0.673105 0
M  V30 4823 O 452.929 -3.50559 0.631389 0
M  V30 4824 O 451.788 -5.41732 0.720362 0
M  V30 4825 H 448.882 -0.823712 0.0736693 0
M  V30 4826 H 451.428 -1.45273 0.87714 0
M  V30 4827 H 450.2 -3.50938 1.73085 0
M  V30 4828 H 449.823 -3.97519 0.0803036 0
M  V30 4829 N 450.82 -0.546701 -1.47814 0
M  V30 4830 C 451.75 0.195317 -2.32682 0
M  V30 4831 C 452.731 0.918981 -1.43139 0
M  V30 4832 O 453.916 0.901501 -1.72008 0
M  V30 4833 C 451.046 1.23237 -3.247 0
M  V30 4834 C 450 0.625818 -4.234 0
M  V30 4835 C 449.326 1.76674 -5.04669 0
M  V30 4836 C 450.626 -0.413515 -5.2066 0
M  V30 4837 H 452.32 -0.513184 -2.94969 0
M  V30 4838 H 449.866 -0.248241 -1.41844 0
M  V30 4839 H 451.819 1.75955 -3.82907 0
M  V30 4840 H 450.543 1.97067 -2.60446 0
M  V30 4841 H 449.202 0.120023 -3.66403 0
M  V30 4842 H 448.85 2.49383 -4.36826 0
M  V30 4843 H 448.55 1.36673 -5.71484 0
M  V30 4844 H 450.074 2.29738 -5.65732 0
M  V30 4845 H 451.488 0.0272042 -5.73294 0
M  V30 4846 H 449.885 -0.731825 -5.95621 0
M  V30 4847 H 450.955 -1.31325 -4.66778 0
M  V30 4848 N 452.299 1.55045 -0.282633 0
M  V30 4849 C 453.545 2.00056 0.332481 0
M  V30 4850 C 453.878 1.1708 1.54939 0
M  V30 4851 O 453.153 0.2427 1.9298 0
M  V30 4852 C 453.436 3.53086 0.70725 0
M  V30 4853 C 453.289 4.46813 -0.517521 0
M  V30 4854 C 454.608 4.12245 1.54084 0
M  V30 4855 H 451.727 0.727268 0.119373 0
M  V30 4856 H 454.369 1.85932 -0.391076 0
M  V30 4857 H 452.519 3.65253 1.32372 0
M  V30 4858 H 454.191 4.46579 -1.15607 0
M  V30 4859 H 452.434 4.18163 -1.1542 0
M  V30 4860 H 453.105 5.51595 -0.211426 0
M  V30 4861 H 455.581 4.03401 1.02013 0
M  V30 4862 H 454.457 5.19515 1.77186 0
M  V30 4863 H 454.718 3.62951 2.52427 0
M  V30 4864 N 453.777 0.010035 1.57597 0
M  V30 4865 C 454.74 -0.963029 2.07986 0
M  V30 4866 C 455.74 -1.26619 0.991173 0
M  V30 4867 O 456.93 -1.2097 1.25347 0
M  V30 4868 C 454.062 -2.2851 2.52974 0
M  V30 4869 H 455.255 -0.526971 2.95234 0
M  V30 4870 H 452.808 -0.237639 1.54483 0
M  V30 4871 H 453.543 -2.76784 1.69 0
M  V30 4872 H 453.328 -2.07824 3.32493 0
M  V30 4873 H 454.818 -2.98294 2.9225 0
M  V30 4874 N 455.255 -1.55392 -0.262866 0
M  V30 4875 C 456.504 -1.75679 -0.990943 0
M  V30 4876 C 456.817 -0.57097 -1.87081 0
M  V30 4877 O 458.023 -0.656486 -2.63444 0
M  V30 4878 C 456.479 -3.10964 -1.81188 0
M  V30 4879 C 456.087 -4.37146 -0.980188 0
M  V30 4880 C 457.831 -3.40597 -2.53365 0
M  V30 4881 C 455.738 -5.63466 -1.7961 0
M  V30 4882 H 454.668 -0.654868 -0.373716 0
M  V30 4883 H 457.319 -1.81841 -0.246203 0
M  V30 4884 H 455.701 -2.98867 -2.59797 0
M  V30 4885 H 456.875 -4.60187 -0.237558 0
M  V30 4886 H 455.19 -4.14731 -0.372497 0
M  V30 4887 H 457.787 -4.32186 -3.14833 0
M  V30 4888 H 458.13 -2.6119 -3.24169 0
M  V30 4889 H 458.663 -3.53838 -1.81779 0
M  V30 4890 H 455.402 -6.4565 -1.13209 0
M  V30 4891 H 454.922 -5.44552 -2.51443 0
M  V30 4892 H 456.601 -6.02139 -2.36723 0
M  V30 4893 N 456.733 0.527833 -1.48498 0
M  V30 4894 C 457.663 1.64136 -1.66077 0
M  V30 4895 C 458.644 1.62286 -0.509625 0
M  V30 4896 O 459.829 1.79449 -0.742413 0
M  V30 4897 C 456.959 3.02717 -1.70234 0
M  V30 4898 C 455.913 3.19426 -2.8487 0
M  V30 4899 C 455.239 4.5909 -2.74118 0
M  V30 4900 C 456.539 3.01993 -4.26142 0
M  V30 4901 H 458.233 1.4968 -2.593 0
M  V30 4902 H 455.779 0.718654 -1.24785 0
M  V30 4903 H 457.732 3.80491 -1.8112 0
M  V30 4904 H 456.456 3.18201 -0.735911 0
M  V30 4905 H 455.115 2.4407 -2.73542 0
M  V30 4906 H 454.763 4.71413 -1.7544 0
M  V30 4907 H 454.463 4.71214 -3.51042 0
M  V30 4908 H 455.987 5.3896 -2.86974 0
M  V30 4909 H 457.401 3.69558 -4.38292 0
M  V30 4910 H 455.798 3.2561 -5.04082 0
M  V30 4911 H 456.868 1.98396 -4.42456 0
M  V30 4912 N 458.211 1.37122 0.776871 0
M  V30 4913 C 459.622 1.28667 1.35284 0
M  V30 4914 C 459.973 -0.0680035 1.96082 0
M  V30 4915 O 459.098 -0.969743 1.93455 0
M  V30 4916 C 459.693 2.32997 2.45963 0
M  V30 4917 C 458.252 2.28191 2.99342 0
M  V30 4918 C 457.399 2.17101 1.72517 0
M  V30 4919 H 460.35 1.47819 0.577527 0
M  V30 4920 H 460.371 1.97366 3.2531 0
M  V30 4921 H 459.883 3.3158 2.01684 0
M  V30 4922 H 457.984 1.33115 3.4801 0
M  V30 4923 H 458.097 3.21397 3.55304 0
M  V30 4924 H 456.461 1.63562 1.95242 0
M  V30 4925 H 457.244 3.17591 1.30348 0
M  V30 4926 N 459.689 -1.00246 1.21608 0
M  V30 4927 C 460.919 -1.77373 1.05935 0
M  V30 4928 C 461.327 -1.85059 -0.393686 0
M  V30 4929 O 460.67 -1.31289 -1.28487 0
M  V30 4930 C 460.732 -3.22705 1.58435 0
M  V30 4931 C 460.396 -3.38591 3.06929 0
M  V30 4932 C 461.393 -3.2667 4.04454 0
M  V30 4933 C 459.078 -3.6395 3.46187 0
M  V30 4934 C 461.072 -3.39877 5.39224 0
M  V30 4935 C 458.759 -3.768 4.81108 0
M  V30 4936 C 459.757 -3.6477 5.77436 0
M  V30 4937 O 459.445 -3.77206 7.09909 0
M  V30 4938 H 459.177 -0.56419 0.372378 0
M  V30 4939 H 461.731 -1.26971 1.61454 0
M  V30 4940 H 459.961 -3.74255 0.973147 0
M  V30 4941 H 461.65 -3.81515 1.38568 0
M  V30 4942 H 462.416 -3.06999 3.75468 0
M  V30 4943 H 458.295 -3.72395 2.71741 0
M  V30 4944 H 461.839 -3.30404 6.14393 0
M  V30 4945 H 457.736 -3.95975 5.09779 0
M  V30 4946 H 458.504 -3.94138 7.17355 0
M  V30 4947 N 461.167 -1.02423 -1.1978 0
M  V30 4948 C 462.397 -0.736387 -1.93031 0
M  V30 4949 C 462.805 0.708023 -1.75453 0
M  V30 4950 O 462.148 1.4927 -1.07071 0
M  V30 4951 C 462.21 -1.00194 -3.45255 0
M  V30 4952 C 461.874 -2.43698 -3.86601 0
M  V30 4953 C 462.871 -3.41814 -3.91738 0
M  V30 4954 C 460.556 -2.77975 -4.18372 0
M  V30 4955 C 462.55 -4.72265 -4.28071 0
M  V30 4956 C 460.237 -4.08636 -4.54378 0
M  V30 4957 C 461.235 -5.05592 -4.59201 0
M  V30 4958 O 460.923 -6.33914 -4.94376 0
M  V30 4959 H 460.655 -0.269116 -0.620123 0
M  V30 4960 H 463.209 -1.37043 -1.52998 0
M  V30 4961 H 461.439 -0.310747 -3.85449 0
M  V30 4962 H 463.128 -0.704488 -3.9974 0
M  V30 4963 H 463.894 -3.16671 -3.67348 0
M  V30 4964 H 459.773 -2.0319 -4.13805 0
M  V30 4965 H 463.317 -5.4794 -4.3175 0
M  V30 4966 H 459.214 -4.33556 -4.78226 0
M  V30 4967 H 459.982 -6.38317 -5.12341 0
M  V30 4968 N 462.645 1.35699 -0.801477 0
M  V30 4969 C 463.894 1.98165 -0.375979 0
M  V30 4970 C 464.207 1.64306 1.06127 0
M  V30 4971 O 465.413 2.20097 1.58964 0
M  V30 4972 C 463.869 3.54497 -0.621305 0
M  V30 4973 C 463.477 3.9727 -2.07076 0
M  V30 4974 C 465.221 4.23697 -0.26091 0
M  V30 4975 C 463.128 5.46427 -2.26211 0
M  V30 4976 H 462.058 0.741478 -0.136844 0
M  V30 4977 H 464.709 1.54834 -0.984814 0
M  V30 4978 H 463.091 3.95958 0.0574112 0
M  V30 4979 H 464.265 3.66974 -2.78687 0
M  V30 4980 H 462.58 3.40943 -2.39054 0
M  V30 4981 H 465.177 5.33334 -0.381994 0
M  V30 4982 H 465.52 4.0869 0.792344 0
M  V30 4983 H 466.053 3.87639 -0.893339 0
M  V30 4984 H 462.792 5.66396 -3.29963 0
M  V30 4985 H 462.312 5.78309 -1.59119 0
M  V30 4986 H 463.991 6.12819 -2.07513 0
M  V30 4987 N 464.123 0.554532 1.47522 0
M  V30 4988 C 465.351 0.034257 2.06872 0
M  V30 4989 C 465.766 -1.25826 1.40759 0
M  V30 4990 O 465.123 -1.75425 0.503217 0
M  V30 4991 C 465.174 -0.167827 3.6111 0
M  V30 4992 O 464.895 1.07351 4.24744 0
M  V30 4993 C 466.396 -0.72569 4.3732 0
M  V30 4994 H 463.616 0.0446275 0.669514 0
M  V30 4995 H 466.16 0.767181 1.89564 0
M  V30 4996 H 464.315 -0.850872 3.7794 0
M  V30 4997 H 464.729 0.869563 5.17242 0
M  V30 4998 H 466.203 -0.816394 5.45929 0
M  V30 4999 H 466.68 -1.73635 4.0342 0
M  V30 5000 H 467.286 -0.0784292 4.25228 0
M  V30 5001 N 465.601 -1.54893 0.290851 0
M  V30 5002 C 466.531 -2.26103 -0.583084 0
M  V30 5003 C 467.512 -1.25684 -1.14619 0
M  V30 5004 O 468.697 -1.54436 -1.17741 0
M  V30 5005 C 465.827 -2.99409 -1.75987 0
M  V30 5006 C 464.781 -4.0689 -1.32758 0
M  V30 5007 C 464.107 -4.67856 -2.58872 0
M  V30 5008 C 465.407 -5.20215 -0.46624 0
M  V30 5009 H 467.101 -2.99398 0.0108214 0
M  V30 5010 H 464.647 -1.43998 0.00664468 0
M  V30 5011 H 466.6 -3.47943 -2.37727 0
M  V30 5012 H 465.324 -2.23675 -2.37985 0
M  V30 5013 H 463.983 -3.59191 -0.733299 0
M  V30 5014 H 463.631 -3.88772 -3.19163 0
M  V30 5015 H 463.331 -5.40438 -2.30653 0
M  V30 5016 H 464.855 -5.19147 -3.21433 0
M  V30 5017 H 466.269 -5.64704 -0.989047 0
M  V30 5018 H 464.666 -5.99455 -0.27826 0
M  V30 5019 H 465.736 -4.82198 0.511173 0
M  V30 5020 N 467.08 -0.0183926 -1.57589 0
M  V30 5021 C 468.01 0.965596 -2.12599 0
M  V30 5022 C 468.991 1.34641 -1.0395 0
M  V30 5023 O 470.176 1.42693 -1.31729 0
M  V30 5024 C 467.306 2.25149 -2.64434 0
M  V30 5025 C 466.26 2.01175 -3.77773 0
M  V30 5026 C 465.586 3.35937 -4.15994 0
M  V30 5027 C 466.886 1.35953 -5.04296 0
M  V30 5028 H 468.58 0.507504 -2.95067 0
M  V30 5029 H 466.126 0.242671 -1.41941 0
M  V30 5030 H 468.079 2.94357 -3.01549 0
M  V30 5031 H 466.803 2.73105 -1.79112 0
M  V30 5032 H 465.462 1.34388 -3.4108 0
M  V30 5033 H 465.11 3.81631 -3.27669 0
M  V30 5034 H 464.81 3.20705 -4.92364 0
M  V30 5035 H 466.334 4.0643 -4.55683 0
M  V30 5036 H 467.748 1.95144 -5.39065 0
M  V30 5037 H 466.145 1.31152 -5.85593 0
M  V30 5038 H 467.215 0.331071 -4.83768 0
M  V30 5039 N 468.558 1.5553 0.254621 0
M  V30 5040 C 469.804 1.77262 0.985193 0
M  V30 5041 C 470.137 0.582286 1.85265 0
M  V30 5042 O 469.412 -0.419666 1.89919 0
M  V30 5043 C 469.695 3.0881 1.85225 0
M  V30 5044 C 469.548 4.38233 1.0135 0
M  V30 5045 C 470.867 3.3653 2.83612 0
M  V30 5046 H 467.986 0.644906 0.356742 0
M  V30 5047 H 470.628 1.88264 0.256236 0
M  V30 5048 H 468.778 2.99562 2.47376 0
M  V30 5049 H 470.45 4.59463 0.411269 0
M  V30 5050 H 468.693 4.32636 0.317574 0
M  V30 5051 H 469.364 5.26644 1.65379 0
M  V30 5052 H 471.84 3.45691 2.31596 0
M  V30 5053 H 470.716 4.29805 3.41407 0
M  V30 5054 H 470.977 2.57064 3.59681 0
M  V30 5055 N 470.036 -0.519951 1.48776 0
M  V30 5056 C 471.313 -1.28123 1.47797 0
M  V30 5057 C 471.693 -2.10196 0.195157 0
M  V30 5058 O 471.041 -2.13167 -0.822925 0
M  V30 5059 C 471.251 -2.15413 2.74587 0
M  V30 5060 C 472.599 -2.75225 3.23321 0
M  V30 5061 O 473.623 -2.25694 2.75574 0
M  V30 5062 O 472.482 -3.65346 4.06429 0
M  V30 5063 H 469.576 -0.578793 0.590701 0
M  V30 5064 H 472.122 -0.535779 1.6102 0
M  V30 5065 H 470.894 -1.54617 3.59457 0
M  V30 5066 H 470.517 -2.97186 2.64132 0
M  V30 5067 N 471.514 -1.37532 -0.769588 0
M  V30 5068 C 472.762 -1.32597 -1.5252 0
M  V30 5069 C 473.083 0.0884294 -1.94799 0
M  V30 5070 O 472.353 1.03289 -1.66458 0
M  V30 5071 H 470.933 -0.487846 -0.565699 0
M  V30 5072 H 473.595 -1.72044 -0.915806 0
M  V30 5073 H 472.691 -1.96643 -2.42359 0
M  V30 5074 N 472.992 0.995999 -1.22138 0
M  V30 5075 C 473.955 2.06711 -0.990109 0
M  V30 5076 C 474.955 1.60744 0.0422978 0
M  V30 5077 O 476.145 1.73095 -0.195895 0
M  V30 5078 C 473.277 3.37288 -0.49491 0
M  V30 5079 H 474.47 2.28661 -1.94047 0
M  V30 5080 H 472.023 1.16711 -1.03963 0
M  V30 5081 H 472.758 3.21022 0.459948 0
M  V30 5082 H 472.543 3.71986 -1.23971 0
M  V30 5083 H 474.033 4.16103 -0.353253 0
M  V30 5084 N 474.47 1.03057 1.19235 0
M  V30 5085 C 475.433 0.617418 2.20727 0
M  V30 5086 C 476.433 -0.319856 1.57587 0
M  V30 5087 O 477.623 -0.106633 1.73873 0
M  V30 5088 C 474.755 -0.096296 3.40764 0
M  V30 5089 H 475.948 1.51544 2.58794 0
M  V30 5090 H 473.501 0.821949 1.32942 0
M  V30 5091 H 474.236 -1.00859 3.08217 0
M  V30 5092 H 474.021 0.577217 3.87828 0
M  V30 5093 H 475.511 -0.372219 4.15938 0
M  V30 5094 N 475.948 -1.35272 0.808662 0
M  V30 5095 C 476.911 -2.28082 0.226093 0
M  V30 5096 C 477.911 -1.49673 -0.587762 0
M  V30 5097 O 479.101 -1.69404 -0.405943 0
M  V30 5098 C 476.233 -3.33955 -0.684596 0
M  V30 5099 H 477.426 -2.81116 1.04469 0
M  V30 5100 H 474.979 -1.45162 0.579466 0
M  V30 5101 H 475.714 -2.86111 -1.5268 0
M  V30 5102 H 475.499 -3.91965 -0.102699 0
M  V30 5103 H 476.989 -4.03219 -1.08646 0
M  V30 5104 N 477.426 -0.562348 -1.47226 0
M  V30 5105 C 478.674 -0.0401371 -2.0206 0
M  V30 5106 C 478.995 1.3165 -1.43852 0
M  V30 5107 O 478.265 1.85976 -0.615599 0
M  V30 5108 H 476.845 -0.0118479 -0.746906 0
M  V30 5109 H 479.507 -0.73352 -1.8057 0
M  V30 5110 H 478.603 0.0441254 -3.12069 0
M  V30 5111 N 478.904 1.54736 -0.299062 0
M  V30 5112 C 480.32 1.59507 0.0543849 0
M  V30 5113 C 480.52 1.31606 1.52585 0
M  V30 5114 O 479.576 1.08853 2.27832 0
M  V30 5115 C 480.889 2.98751 -0.34181 0
M  V30 5116 C 482.437 3.1165 -0.290414 0
M  V30 5117 C 482.912 4.53199 -0.661402 0
M  V30 5118 N 484.403 4.59114 -0.613863 0
M  V30 5119 C 485.138 5.66709 -0.873417 0
M  V30 5120 N 484.634 6.82349 -1.19884 0
M  V30 5121 N 486.427 5.56369 -0.800608 0
M  V30 5122 H 478.578 1.71133 -1.25806 0
M  V30 5123 H 480.841 0.799186 -0.509908 0
M  V30 5124 H 480.547 3.24085 -1.36608 0
M  V30 5125 H 480.421 3.75961 0.305508 0
M  V30 5126 H 482.808 2.86066 0.724605 0
M  V30 5127 H 482.889 2.366 -0.972327 0
M  V30 5128 H 482.533 4.79513 -1.67422 0
M  V30 5129 H 482.463 5.26583 0.0425612 0
M  V30 5130 H 484.954 3.76053 -0.3732 0
M  V30 5131 H 485.267 7.60326 -1.38291 0
M  V30 5132 H 483.612 6.83906 -1.23685 0
M  V30 5133 H 486.803 4.64904 -0.546045 0
M  V30 5134 H 486.976 6.40139 -1.00626 0
M  V30 5135 N 480.382 0.0267497 1.57577 0
M  V30 5136 C 481.798 -0.32962 1.56159 0
M  V30 5137 C 481.998 -1.73059 1.03213 0
M  V30 5138 O 481.054 -2.43233 0.677804 0
M  V30 5139 C 482.367 -0.18039 3.00158 0
M  V30 5140 C 483.915 -0.253334 3.11973 0
M  V30 5141 C 484.39 -0.132921 4.57807 0
M  V30 5142 N 485.881 -0.189979 4.6281 0
M  V30 5143 C 486.616 -0.120554 5.73273 0
M  V30 5144 N 486.112 -0.000180315 6.928 0
M  V30 5145 N 487.905 -0.174369 5.61829 0
M  V30 5146 H 480.056 0.942896 1.90324 0
M  V30 5147 H 482.319 0.3639 0.875375 0
M  V30 5148 H 482.025 0.784576 3.42837 0
M  V30 5149 H 481.899 -0.951565 3.65 0
M  V30 5150 H 484.286 -1.20876 2.69208 0
M  V30 5151 H 484.367 0.548177 2.49857 0
M  V30 5152 H 484.011 0.819073 5.01252 0
M  V30 5153 H 483.941 -0.953264 5.179 0
M  V30 5154 H 486.432 -0.283257 3.76837 0
M  V30 5155 H 486.745 0.0461666 7.72786 0
M  V30 5156 H 485.09 0.034569 6.94991 0
M  V30 5157 H 488.281 -0.266794 4.67339 0
M  V30 5158 H 488.454 -0.116802 6.47895 0
M  V30 5159 N 481.861 -1.55662 -0.24637 0
M  V30 5160 C 482.808 -1.90361 -1.30504 0
M  V30 5161 C 483.778 -0.757905 -1.47801 0
M  V30 5162 O 484.963 -1.01161 -1.61775 0
M  V30 5163 C 482.103 -2.2042 -2.65535 0
M  V30 5164 C 481.216 -3.47799 -2.56242 0
M  V30 5165 C 480.351 -3.67426 -3.8363 0
M  V30 5166 C 479.39 -4.88403 -3.68956 0
M  V30 5167 N 478.527 -5.04548 -4.88237 0
M  V30 5168 H 483.367 -2.80645 -1.00213 0
M  V30 5169 H 480.904 -1.38924 -0.483577 0
M  V30 5170 H 482.862 -2.35853 -3.44135 0
M  V30 5171 H 481.492 -1.3334 -2.93973 0
M  V30 5172 H 480.544 -3.40694 -1.69208 0
M  V30 5173 H 481.856 -4.36544 -2.4131 0
M  V30 5174 H 481.01 -3.82821 -4.70673 0
M  V30 5175 H 479.749 -2.76914 -4.01459 0
M  V30 5176 H 478.754 -4.72984 -2.80296 0
M  V30 5177 H 479.979 -5.80375 -3.52621 0
M  V30 5178 H 477.925 -4.16974 -5.06427 0
M  V30 5179 H 477.842 -5.87384 -4.75937 0
M  V30 5180 H 479.11 -5.24355 -5.76777 0
M  V30 5181 N 483.339 0.512053 -1.4905 0
M  V30 5182 C 484.75 1.09376 -1.51307 0
M  V30 5183 C 485.101 1.94 -0.292971 0
M  V30 5184 O 484.226 2.07965 0.598277 0
M  V30 5185 C 484.821 1.99031 -2.74176 0
M  V30 5186 C 483.38 2.52385 -2.79247 0
M  V30 5187 C 482.527 1.29749 -2.45073 0
M  V30 5188 H 485.478 0.296467 -1.55906 0
M  V30 5189 H 485.499 2.83569 -2.53711 0
M  V30 5190 H 485.011 1.37412 -3.62959 0
M  V30 5191 H 483.112 3.17673 -1.94716 0
M  V30 5192 H 483.225 2.90293 -3.81139 0
M  V30 5193 H 481.589 1.61912 -1.96612 0
M  V30 5194 H 482.372 0.698555 -3.36118 0
M  V30 5195 N 484.817 1.37938 0.762283 0
M  V30 5196 C 486.065 1.33404 1.51815 0
M  V30 5197 C 486.386 -0.0780975 1.94844 0
M  V30 5198 O 485.656 -1.02405 1.67003 0
M  V30 5199 H 484.236 0.490839 0.563104 0
M  V30 5200 H 486.898 1.72527 0.906669 0
M  V30 5201 H 485.994 1.97926 2.41313 0
M  V30 5202 N 486.295 -0.989507 1.22664 0
M  V30 5203 C 487.258 -2.06183 1.00106 0
M  V30 5204 C 488.258 -1.60765 -0.0337726 0
M  V30 5205 O 489.448 -1.72989 0.205072 0
M  V30 5206 C 486.58 -3.37021 0.51279 0
M  V30 5207 H 487.773 -2.27629 1.95256 0
M  V30 5208 H 485.326 -1.16158 1.0458 0
M  V30 5209 H 486.061 -3.21261 -0.442917 0
M  V30 5210 H 485.846 -3.71323 1.25942 0
M  V30 5211 H 487.336 -4.1591 0.375315 0
M  V30 5212 N 487.773 -1.03688 -1.18687 0
M  V30 5213 C 489.021 -0.736572 -1.88199 0
M  V30 5214 C 489.342 0.737665 -1.80509 0
M  V30 5215 O 488.612 1.53204 -1.22088 0
M  V30 5216 H 487.192 -0.269466 -0.696704 0
M  V30 5217 H 489.854 -1.31282 -1.44052 0
M  V30 5218 H 488.95 -1.03802 -2.94332 0
M  V30 5219 N 489.251 1.34841 -0.815825 0
M  V30 5220 C 490.199 2.31549 -0.220888 0
M  V30 5221 C 491.193 1.5707 0.634457 0
M  V30 5222 O 492.399 1.72125 0.526589 0
M  V30 5223 H 488.774 0.750153 -0.0526782 0
M  V30 5224 H 490.745 2.7926 -1.05149 0
M  V30 5225 C 489.494 3.42335 0.608427 0
M  V30 5226 H 488.817 3.9978 -0.0404121 0
M  V30 5227 H 490.257 4.12258 0.990931 0
M  V30 5228 C 488.716 2.86173 1.77782 0
M  V30 5229 O 489.246 2.80474 2.87571 0
M  V30 5230 N 487.452 2.43093 1.59229 0
M  V30 5231 H 486.999 2.47928 0.699237 0
M  V30 5232 H 486.957 2.05866 2.37627 0
M  V30 5233 N 490.729 0.570148 1.46925 0
M  V30 5234 C 491.954 0.0542592 2.07329 0
M  V30 5235 C 492.379 -1.23582 1.41806 0
M  V30 5236 O 491.737 -1.74341 0.497479 0
M  V30 5237 C 491.785 -0.111175 3.60429 0
M  V30 5238 O 490.889 -1.17071 3.95434 0
M  V30 5239 H 490.23 0.0571425 0.661537 0
M  V30 5240 H 492.76 0.789516 1.88753 0
M  V30 5241 H 492.77 -0.321315 4.06733 0
M  V30 5242 H 491.445 0.831012 4.07513 0
M  V30 5243 H 490.022 -0.940029 3.60857 0
M  V30 5244 N 492.207 -1.54576 0.307264 0
M  V30 5245 C 493.437 -2.04378 -0.302158 0
M  V30 5246 C 493.845 -1.18381 -1.47589 0
M  V30 5247 O 493.188 -0.20352 -1.82569 0
M  V30 5248 C 493.25 -3.50133 -0.815305 0
M  V30 5249 C 492.914 -4.56401 0.233977 0
M  V30 5250 C 493.911 -5.08884 1.06456 0
M  V30 5251 C 491.596 -5.0088 0.377478 0
M  V30 5252 C 493.59 -6.04394 2.02452 0
M  V30 5253 C 491.277 -5.96208 1.34088 0
M  V30 5254 C 492.275 -6.47849 2.16288 0
M  V30 5255 O 491.963 -7.41308 3.10994 0
M  V30 5256 H 491.695 -0.672502 -0.0686839 0
M  V30 5257 H 494.249 -2.00484 0.446682 0
M  V30 5258 H 492.479 -3.51371 -1.61478 0
M  V30 5259 H 494.168 -3.83098 -1.34129 0
M  V30 5260 H 494.934 -4.75311 0.964596 0
M  V30 5261 H 490.813 -4.60309 -0.252405 0
M  V30 5262 H 494.357 -6.44626 2.66652 0
M  V30 5263 H 490.254 -6.29198 1.44154 0
M  V30 5264 H 491.022 -7.5913 3.06045 0
M  V30 5265 N 493.685 -0.035106 -1.57561 0
M  V30 5266 C 494.615 0.942993 -2.13612 0
M  V30 5267 C 495.596 1.33531 -1.05373 0
M  V30 5268 O 496.781 1.41287 -1.33235 0
M  V30 5269 C 493.911 2.22332 -2.66807 0
M  V30 5270 C 492.865 1.97156 -3.79886 0
M  V30 5271 C 492.191 3.31506 -4.19533 0
M  V30 5272 C 493.491 1.30596 -5.05709 0
M  V30 5273 H 495.185 0.476179 -2.95589 0
M  V30 5274 H 492.731 0.227602 -1.4219 0
M  V30 5275 H 494.684 2.91142 -3.04654 0
M  V30 5276 H 493.408 2.7119 -1.81999 0
M  V30 5277 H 492.067 1.30763 -3.42486 0
M  V30 5278 H 491.715 3.78134 -3.31698 0
M  V30 5279 H 491.415 3.15465 -4.95738 0
M  V30 5280 H 492.939 4.01574 -4.59968 0
M  V30 5281 H 494.353 1.89416 -5.41105 0
M  V30 5282 H 492.75 1.24934 -5.86951 0
M  V30 5283 H 493.82 0.279742 -4.84092 0
M  V30 5284 N 495.163 1.55791 0.238111 0
M  V30 5285 C 496.44 1.68798 0.98826 0
M  V30 5286 C 496.82 0.577562 2.03045 0
M  V30 5287 O 496.168 -0.41778 2.24648 0
M  V30 5288 C 496.378 3.09454 1.61367 0
M  V30 5289 C 497.726 3.68335 2.11221 0
M  V30 5290 O 498.75 3.1231 1.71292 0
M  V30 5291 O 497.609 4.6657 2.84561 0
M  V30 5292 H 494.703 0.686881 0.460568 0
M  V30 5293 H 497.249 1.68118 0.231202 0
M  V30 5294 H 496.021 3.81726 0.860295 0
M  V30 5295 H 495.644 3.14182 2.4367 0
M  V30 5296 N 496.642 -0.504142 1.49319 0
M  V30 5297 C 497.589 -1.60603 1.65756 0
M  V30 5298 C 498.559 -1.58425 0.499082 0
M  V30 5299 O 499.744 -1.76459 0.725728 0
M  V30 5300 C 496.884 -2.98764 1.72726 0
M  V30 5301 C 495.997 -3.10982 2.99857 0
M  V30 5302 C 495.132 -4.39857 2.97824 0
M  V30 5303 C 494.171 -4.45697 4.19548 0
M  V30 5304 N 493.308 -5.65995 4.15444 0
M  V30 5305 H 498.148 -1.45895 2.59843 0
M  V30 5306 H 495.685 -0.709891 1.28837 0
M  V30 5307 H 497.643 -3.78839 1.74747 0
M  V30 5308 H 496.273 -3.12183 0.821075 0
M  V30 5309 H 495.325 -2.23991 3.07461 0
M  V30 5310 H 496.637 -3.11157 3.89849 0
M  V30 5311 H 495.791 -5.2825 2.98391 0
M  V30 5312 H 494.53 -4.42242 2.05604 0
M  V30 5313 H 493.535 -3.55707 4.19229 0
M  V30 5314 H 494.76 -4.4503 5.12957 0
M  V30 5315 H 492.706 -5.69229 3.26059 0
M  V30 5316 H 492.623 -5.67773 4.99169 0
M  V30 5317 H 493.891 -6.56604 4.20109 0
M  V30 5318 N 498.12 -1.38341 -0.754957 0
M  V30 5319 C 499.366 -1.34672 -1.51628 0
M  V30 5320 C 499.699 0.0636036 -1.94096 0
M  V30 5321 O 498.974 1.0245 -1.6533 0
M  V30 5322 C 499.257 -2.30116 -2.76981 0
M  V30 5323 C 499.11 -3.80003 -2.4066 0
M  V30 5324 C 500.429 -2.23715 -3.78998 0
M  V30 5325 H 497.548 -0.490517 -0.550056 0
M  V30 5326 H 500.19 -1.69178 -0.864807 0
M  V30 5327 H 498.34 -2.00821 -3.3257 0
M  V30 5328 H 500.012 -4.19966 -1.90856 0
M  V30 5329 H 498.255 -3.97751 -1.73137 0
M  V30 5330 H 498.926 -4.42244 -3.30339 0
M  V30 5331 H 501.402 -2.49574 -3.32945 0
M  V30 5332 H 500.278 -2.9261 -4.64403 0
M  V30 5333 H 500.539 -1.23554 -4.24484 0
M  V30 5334 N 499.598 0.982988 -1.23187 0
M  V30 5335 C 500.846 1.72052 -1.06031 0
M  V30 5336 C 501.167 1.90769 0.404019 0
M  V30 5337 O 500.437 1.47446 1.28982 0
M  V30 5338 H 499.017 0.637499 -0.389363 0
M  V30 5339 H 501.679 1.18338 -1.54862 0
M  V30 5340 H 500.775 2.7111 -1.54615 0
M  V30 5341 N 501.076 1.04316 1.18135 0
M  V30 5342 C 502.006 0.657299 2.24058 0
M  V30 5343 C 502.987 -0.340678 1.66654 0
M  V30 5344 O 504.172 -0.220223 1.92947 0
M  V30 5345 C 501.302 0.0220715 3.47293 0
M  V30 5346 C 500.256 0.943857 4.17463 0
M  V30 5347 C 499.582 0.172973 5.3442 0
M  V30 5348 C 500.882 2.26409 4.70677 0
M  V30 5349 H 502.576 1.5428 2.56589 0
M  V30 5350 H 500.122 0.743263 1.23335 0
M  V30 5351 H 502.075 -0.259607 4.206 0
M  V30 5352 H 500.799 -0.898323 3.14003 0
M  V30 5353 H 499.458 1.20996 3.46057 0
M  V30 5354 H 499.106 -0.749907 4.97379 0
M  V30 5355 H 498.806 0.787098 5.82304 0
M  V30 5356 H 500.33 -0.101628 6.10515 0
M  V30 5357 H 501.744 2.04294 5.35665 0
M  V30 5358 H 500.141 2.8314 5.29105 0
M  V30 5359 H 501.211 2.90883 3.87962 0
M  V30 5360 N 502.554 -1.34406 0.822964 0
M  V30 5361 C 503.8 -1.98578 0.411666 0
M  V30 5362 C 504.133 -1.65093 -1.02264 0
M  V30 5363 O 503.408 -0.92258 -1.71227 0
M  V30 5364 C 503.691 -3.54823 0.614235 0
M  V30 5365 C 503.544 -3.9805 2.09466 0
M  V30 5366 C 504.863 -4.40071 0.050221 0
M  V30 5367 H 501.982 -0.721355 0.151047 0
M  V30 5368 H 504.624 -1.59301 1.03554 0
M  V30 5369 H 502.774 -3.88411 0.0831774 0
M  V30 5370 H 504.446 -3.74795 2.68936 0
M  V30 5371 H 502.689 -3.4836 2.5851 0
M  V30 5372 H 503.36 -5.06819 2.18721 0
M  V30 5373 H 505.836 -4.13037 0.503953 0
M  V30 5374 H 504.712 -5.48452 0.221759 0
M  V30 5375 H 504.973 -4.29576 -1.04482 0
M  V30 5376 N 504.032 -0.577932 -1.46621 0
M  V30 5377 C 504.962 0.145917 -2.33044 0
M  V30 5378 C 505.943 0.888412 -1.45056 0
M  V30 5379 O 507.128 0.864812 -1.73881 0
M  V30 5380 C 504.258 1.16322 -3.27241 0
M  V30 5381 C 503.212 0.535868 -4.24632 0
M  V30 5382 C 502.538 1.65929 -5.08303 0
M  V30 5383 C 503.838 -0.523861 -5.19666 0
M  V30 5384 H 505.532 -0.575636 -2.93814 0
M  V30 5385 H 503.078 -0.278272 -1.41286 0
M  V30 5386 H 505.031 1.67793 -3.86553 0
M  V30 5387 H 503.755 1.91498 -2.64567 0
M  V30 5388 H 502.414 0.0422759 -3.66576 0
M  V30 5389 H 502.062 2.40061 -4.42018 0
M  V30 5390 H 501.762 1.2452 -5.74255 0
M  V30 5391 H 503.286 2.17686 -5.70478 0
M  V30 5392 H 504.7 -0.0944059 -5.73222 0
M  V30 5393 H 503.097 -0.858 -5.93935 0
M  V30 5394 H 504.167 -1.41197 -4.63887 0
M  V30 5395 N 505.51 1.54411 -0.315457 0
M  V30 5396 C 506.926 1.59556 0.037464 0
M  V30 5397 C 507.126 1.33217 1.5118 0
M  V30 5398 O 506.182 1.11264 2.26664 0
M  V30 5399 C 507.495 2.98372 -0.373477 0
M  V30 5400 C 509.043 3.11324 -0.323452 0
M  V30 5401 C 509.518 4.52472 -0.709433 0
M  V30 5402 N 511.009 4.58437 -0.662524 0
M  V30 5403 C 511.744 5.65751 -0.933474 0
M  V30 5404 N 511.24 6.81039 -1.27114 0
M  V30 5405 N 513.033 5.55489 -0.859573 0
M  V30 5406 H 505.184 1.6979 -1.27614 0
M  V30 5407 H 507.447 0.793732 -0.518356 0
M  V30 5408 H 507.153 3.22618 -1.40037 0
M  V30 5409 H 507.027 3.76264 0.265615 0
M  V30 5410 H 509.414 2.86818 0.694223 0
M  V30 5411 H 509.495 2.35555 -0.997367 0
M  V30 5412 H 509.139 4.7771 -1.72498 0
M  V30 5413 H 509.069 5.26598 -0.0132923 0
M  V30 5414 H 511.56 3.75636 -0.413065 0
M  V30 5415 H 511.873 7.58816 -1.46348 0
M  V30 5416 H 510.218 6.82555 -1.30932 0
M  V30 5417 H 513.409 4.64299 -0.595324 0
M  V30 5418 H 513.582 6.39036 -1.0741 0
M  V30 5419 N 506.988 0.0434614 1.5754 0
M  V30 5420 C 508.234 -0.632971 1.92669 0
M  V30 5421 C 508.567 -1.70947 0.921446 0
M  V30 5422 O 507.842 -1.94426 -0.0537202 0
M  V30 5423 C 508.125 -1.23619 3.38216 0
M  V30 5424 C 507.978 -0.168274 4.49485 0
M  V30 5425 C 509.297 -2.15008 3.84005 0
M  V30 5426 H 506.416 -0.228629 0.700641 0
M  V30 5427 H 509.058 0.103651 1.89717 0
M  V30 5428 H 507.208 -1.864 3.40863 0
M  V30 5429 H 508.88 0.463196 4.58969 0
M  V30 5430 H 507.123 0.504581 4.30855 0
M  V30 5431 H 507.794 -0.630218 5.48391 0
M  V30 5432 H 510.27 -1.62198 3.83185 0
M  V30 5433 H 509.146 -2.54161 4.86511 0
M  V30 5434 H 509.407 -3.04707 3.20322 0
M  V30 5435 N 508.466 -1.55915 -0.229846 0
M  V30 5436 C 509.396 -1.94754 -1.28815 0
M  V30 5437 C 510.377 -0.814657 -1.49323 0
M  V30 5438 O 511.562 -1.07631 -1.61645 0
M  V30 5439 C 508.692 -2.25705 -2.63959 0
M  V30 5440 C 507.646 -3.41406 -2.5812 0
M  V30 5441 C 506.972 -3.57941 -3.97218 0
M  V30 5442 C 508.272 -4.76616 -2.13623 0
M  V30 5443 H 509.966 -2.83404 -0.965547 0
M  V30 5444 H 507.512 -1.36353 -0.463028 0
M  V30 5445 H 509.465 -2.51467 -3.38146 0
M  V30 5446 H 508.189 -1.339 -2.9789 0
M  V30 5447 H 506.848 -3.1568 -1.86391 0
M  V30 5448 H 506.496 -2.63526 -4.28443 0
M  V30 5449 H 506.196 -4.35757 -3.94195 0
M  V30 5450 H 507.72 -3.86042 -4.73079 0
M  V30 5451 H 509.134 -5.01637 -2.77549 0
M  V30 5452 H 507.531 -5.57655 -2.21677 0
M  V30 5453 H 508.601 -4.7253 -1.08829 0
M  V30 5454 N 509.944 0.496216 -1.49584 0
M  V30 5455 C 511.36 0.827814 -1.36453 0
M  V30 5456 C 511.56 1.97464 -0.401285 0
M  V30 5457 O 510.616 2.51958 0.165296 0
M  V30 5458 C 511.929 1.16352 -2.77277 0
M  V30 5459 C 513.477 1.27145 -2.86013 0
M  V30 5460 C 513.952 1.64042 -4.27615 0
M  V30 5461 N 515.443 1.71082 -4.30448 0
M  V30 5462 C 516.178 2.01085 -5.36984 0
M  V30 5463 N 515.674 2.2928 -6.5376 0
M  V30 5464 N 517.467 2.02376 -5.24405 0
M  V30 5465 H 509.618 -0.259947 -2.10803 0
M  V30 5466 H 511.881 -0.0537163 -0.946477 0
M  V30 5467 H 511.587 0.394153 -3.49484 0
M  V30 5468 H 511.461 2.10582 -3.12946 0
M  V30 5469 H 513.848 2.03152 -2.1404 0
M  V30 5470 H 513.929 0.309542 -2.5392 0
M  V30 5471 H 513.573 0.88583 -5.00115 0
M  V30 5472 H 513.503 2.6134 -4.57175 0
M  V30 5473 H 515.994 1.51434 -3.46232 0
M  V30 5474 H 516.307 2.51376 -7.30774 0
M  V30 5475 H 514.652 2.26726 -6.56978 0
M  V30 5476 H 517.843 1.79829 -4.32179 0
M  V30 5477 H 518.016 2.25425 -6.07526 0
M  V30 5478 N 511.423 1.38739 0.74761 0
M  V30 5479 C 512.386 1.36241 1.84312 0
M  V30 5480 C 513.386 0.261811 1.58654 0
M  V30 5481 O 514.576 0.519031 1.66288 0
M  V30 5482 C 511.708 1.12253 3.21888 0
M  V30 5483 H 512.901 2.33712 1.87933 0
M  V30 5484 H 510.454 1.2412 0.949946 0
M  V30 5485 H 511.189 0.154133 3.23934 0
M  V30 5486 H 510.974 1.91943 3.41907 0
M  V30 5487 H 512.464 1.13215 4.0196 0
M  V30 5488 N 512.901 -0.976442 1.23707 0
M  V30 5489 C 513.831 -2.08749 1.04624 0
M  V30 5490 C 514.812 -1.70057 -0.0380956 0
M  V30 5491 O 515.997 -1.93782 0.127308 0
M  V30 5492 C 513.127 -3.41335 0.640902 0
M  V30 5493 C 512.081 -3.93947 1.67302 0
M  V30 5494 C 511.407 -5.22774 1.12301 0
M  V30 5495 C 512.707 -4.22769 3.06697 0
M  V30 5496 H 514.401 -2.24972 1.97555 0
M  V30 5497 H 511.947 -1.08108 0.951247 0
M  V30 5498 H 513.9 -4.18489 0.494434 0
M  V30 5499 H 512.624 -3.24988 -0.324099 0
M  V30 5500 H 511.283 -3.18941 1.80755 0
M  V30 5501 H 510.931 -5.0278 0.148877 0
M  V30 5502 H 510.631 -5.58942 1.81267 0
M  V30 5503 H 512.155 -6.02546 0.988479 0
M  V30 5504 H 513.569 -4.90659 2.96524 0
M  V30 5505 H 511.966 -4.70147 3.72937 0
M  V30 5506 H 513.036 -3.29885 3.55392 0
M  V30 5507 N 514.379 -1.04941 -1.1758 0
M  V30 5508 C 515.795 -0.770282 -1.39781 0
M  V30 5509 C 515.995 0.636417 -1.91186 0
M  V30 5510 O 515.051 1.39923 -2.10185 0
M  V30 5511 C 516.364 -1.82376 -2.3908 0
M  V30 5512 C 517.912 -1.84569 -2.52791 0
M  V30 5513 C 518.387 -2.88933 -3.55361 0
M  V30 5514 N 519.878 -2.8788 -3.62877 0
M  V30 5515 C 520.613 -3.65282 -4.41992 0
M  V30 5516 N 520.109 -4.52461 -5.24643 0
M  V30 5517 N 521.902 -3.53732 -4.36841 0
M  V30 5518 H 514.053 -1.95705 -0.825438 0
M  V30 5519 H 516.316 -0.847284 -0.425222 0
M  V30 5520 H 516.022 -2.83323 -2.08376 0
M  V30 5521 H 515.896 -1.66327 -3.38549 0
M  V30 5522 H 518.283 -0.842879 -2.82807 0
M  V30 5523 H 518.364 -2.04696 -1.53406 0
M  V30 5524 H 518.008 -3.89398 -3.26085 0
M  V30 5525 H 517.938 -2.66059 -4.54445 0
M  V30 5526 H 520.429 -2.24666 -3.03864 0
M  V30 5527 H 520.742 -5.08211 -5.82187 0
M  V30 5528 H 519.087 -4.56524 -5.24033 0
M  V30 5529 H 522.278 -2.85021 -3.71323 0
M  V30 5530 H 522.451 -4.14302 -4.98255 0
M  V30 5531 N 515.857 1.33968 -0.830081 0
M  V30 5532 C 517.106 1.97323 -0.417928 0
M  V30 5533 C 517.419 1.6652 1.02618 0
M  V30 5534 O 518.625 2.2342 1.54259 0
M  V30 5535 C 517.081 3.53099 -0.696359 0
M  V30 5536 C 516.689 3.92788 -2.15457 0
M  V30 5537 C 518.433 4.23049 -0.350724 0
M  V30 5538 C 516.34 5.41506 -2.37751 0
M  V30 5539 H 515.27 0.738409 -0.152541 0
M  V30 5540 H 517.921 1.52711 -1.01744 0
M  V30 5541 H 516.303 3.95991 -0.0265904 0
M  V30 5542 H 517.477 3.6098 -2.86408 0
M  V30 5543 H 515.792 3.35795 -2.46232 0
M  V30 5544 H 518.389 5.32403 -0.495036 0
M  V30 5545 H 518.732 4.10279 0.705476 0
M  V30 5546 H 519.265 3.85657 -0.975362 0
M  V30 5547 H 516.004 5.5927 -3.41903 0
M  V30 5548 H 515.524 5.74804 -1.7135 0
M  V30 5549 H 517.203 6.0828 -2.20465 0
M  V30 5550 N 517.335 0.585699 1.46312 0
M  V30 5551 C 518.265 -0.133556 2.33118 0
M  V30 5552 C 519.246 -0.880707 1.45525 0
M  V30 5553 O 520.431 -0.855579 1.74337 0
M  V30 5554 C 517.561 -1.14585 3.27853 0
M  V30 5555 C 516.515 -0.513341 4.2491 0
M  V30 5556 C 515.841 -1.63231 5.09175 0
M  V30 5557 C 517.141 0.551413 5.19381 0
M  V30 5558 H 518.835 0.59121 2.93505 0
M  V30 5559 H 516.381 0.285761 1.41136 0
M  V30 5560 H 518.334 -1.65741 3.87438 0
M  V30 5561 H 517.058 -1.90093 2.65579 0
M  V30 5562 H 515.717 -0.0228349 3.66593 0
M  V30 5563 H 515.365 -2.37713 4.43285 0
M  V30 5564 H 515.065 -1.21473 5.74907 0
M  V30 5565 H 516.589 -2.14658 5.71624 0
M  V30 5566 H 518.003 0.124804 5.73164 0
M  V30 5567 H 516.4 0.889486 5.93471 0
M  V30 5568 H 517.47 1.43655 4.63132 0
M  V30 5569 N 518.813 -1.54241 0.323641 0
M  V30 5570 C 520.043 -2.04687 -0.280464 0
M  V30 5571 C 520.451 -1.19939 -1.46326 0
M  V30 5572 O 519.794 -0.222872 -1.82343 0
M  V30 5573 C 519.856 -3.50978 -0.778123 0
M  V30 5574 C 519.52 -4.56127 0.282371 0
M  V30 5575 C 520.517 -5.07726 1.11847 0
M  V30 5576 C 518.202 -5.00451 0.430582 0
M  V30 5577 C 520.196 -6.02212 2.08851 0
M  V30 5578 C 517.883 -5.94752 1.40404 0
M  V30 5579 C 518.881 -6.45519 2.23147 0
M  V30 5580 O 518.569 -7.37968 3.1884 0
M  V30 5581 H 518.301 -0.673192 -0.0615473 0
M  V30 5582 H 520.855 -1.99999 0.467921 0
M  V30 5583 H 519.085 -3.53064 -1.57742 0
M  V30 5584 H 520.774 -3.84499 -1.30058 0
M  V30 5585 H 521.54 -4.74261 1.01496 0
M  V30 5586 H 517.419 -4.6055 -0.203569 0
M  V30 5587 H 520.963 -6.41761 2.73474 0
M  V30 5588 H 516.86 -6.27633 1.5082 0
M  V30 5589 H 517.628 -7.55841 3.14079 0
M  V30 5590 N 520.291 -0.0518155 -1.57515 0
M  V30 5591 C 521.537 0.622745 -1.93002 0
M  V30 5592 C 521.87 1.70456 -0.930499 0
M  V30 5593 O 521.145 1.94452 0.0434086 0
M  V30 5594 C 521.428 1.21824 -3.38867 0
M  V30 5595 C 521.281 0.144434 -4.49568 0
M  V30 5596 C 522.6 2.12968 -3.8514 0
M  V30 5597 H 519.719 0.22491 -0.701844 0
M  V30 5598 H 522.361 -0.113711 -1.89659 0
M  V30 5599 H 520.511 1.8459 -3.41846 0
M  V30 5600 H 522.183 -0.48753 -4.58717 0
M  V30 5601 H 520.426 -0.527424 -4.30582 0
M  V30 5602 H 521.097 0.601127 -5.48717 0
M  V30 5603 H 523.573 1.60163 -3.8404 0
M  V30 5604 H 522.449 2.51578 -4.87852 0
M  V30 5605 H 522.71 3.03004 -3.21934 0
M  V30 5606 N 521.769 1.56035 0.221574 0
M  V30 5607 C 522.702 1.87427 1.30178 0
M  V30 5608 C 523.68 0.731658 1.45209 0
M  V30 5609 O 524.864 0.980016 1.61022 0
M  V30 5610 C 521.991 2.08127 2.67209 0
M  V30 5611 C 521.037 3.30813 2.69194 0
M  V30 5612 S 521.87 4.86738 2.23263 0
M  V30 5613 C 523.026 5.10474 3.62171 0
M  V30 5614 H 523.259 2.78756 1.03355 0
M  V30 5615 H 520.792 1.48469 0.423813 0
M  V30 5616 H 522.75 2.20736 3.46101 0
M  V30 5617 H 521.411 1.17595 2.91256 0
M  V30 5618 H 520.604 3.42341 3.6989 0
M  V30 5619 H 520.206 3.1706 1.98366 0
M  V30 5620 H 522.498 4.9937 4.5786 0
M  V30 5621 H 523.441 6.12359 3.55558 0
M  V30 5622 H 523.849 4.38208 3.55857 0
M  V30 5623 N 523.247 -0.488276 1.49845 0
M  V30 5624 C 524.663 -0.820566 1.3689 0
M  V30 5625 C 524.863 -1.97248 0.411752 0
M  V30 5626 O 523.919 -2.52042 -0.151931 0
M  V30 5627 C 525.232 -1.1488 2.77891 0
M  V30 5628 C 526.78 -1.25626 2.86683 0
M  V30 5629 C 527.255 -1.61772 4.28479 0
M  V30 5630 N 528.746 -1.68797 4.31349 0
M  V30 5631 C 529.481 -1.98235 5.38043 0
M  V30 5632 N 528.977 -2.2581 6.54967 0
M  V30 5633 N 530.77 -1.99593 5.2547 0
M  V30 5634 H 522.921 0.271123 2.10662 0
M  V30 5635 H 525.184 0.058735 0.946179 0
M  V30 5636 H 524.89 -0.375614 3.49688 0
M  V30 5637 H 524.764 -2.08919 3.14058 0
M  V30 5638 H 527.151 -2.02014 2.15114 0
M  V30 5639 H 527.232 -0.296072 2.54081 0
M  V30 5640 H 526.876 -0.859295 5.00578 0
M  V30 5641 H 526.806 -2.58912 4.58554 0
M  V30 5642 H 529.297 -1.49595 3.4703 0
M  V30 5643 H 529.61 -2.47497 7.32096 0
M  V30 5644 H 527.955 -2.23239 6.58171 0
M  V30 5645 H 531.146 -1.77535 4.33127 0
M  V30 5646 H 531.319 -2.222 6.08713 0
M  V30 5647 N 524.725 -1.39134 -0.740242 0
M  V30 5648 C 525.655 -1.40165 -1.86751 0
M  V30 5649 C 526.636 -0.265708 -1.68012 0
M  V30 5650 O 527.821 -0.47076 -1.88408 0
M  V30 5651 C 524.951 -1.2392 -3.2444 0
M  V30 5652 C 523.905 -2.34858 -3.57807 0
M  V30 5653 C 523.231 -2.03707 -4.94376 0
M  V30 5654 C 524.531 -3.77159 -3.61315 0
M  V30 5655 H 526.225 -2.345 -1.86145 0
M  V30 5656 H 523.771 -1.12875 -0.89416 0
M  V30 5657 H 525.724 -1.23263 -4.02969 0
M  V30 5658 H 524.448 -0.26051 -3.25559 0
M  V30 5659 H 523.107 -2.34723 -2.81604 0
M  V30 5660 H 522.755 -1.04289 -4.9207 0
M  V30 5661 H 522.455 -2.78016 -5.17669 0
M  V30 5662 H 523.979 -2.04691 -5.75268 0
M  V30 5663 H 525.393 -3.79252 -4.29931 0
M  V30 5664 H 523.79 -4.50784 -3.96124 0
M  V30 5665 H 524.86 -4.08513 -2.61238 0
M  V30 5666 N 526.204 0.969867 -1.24223 0
M  V30 5667 C 527.167 2.04564 -1.03373 0
M  V30 5668 C 528.167 1.60798 0.00819206 0
M  V30 5669 O 529.357 1.72641 -0.232567 0
M  V30 5670 C 526.489 3.36163 -0.566343 0
M  V30 5671 H 527.682 2.24494 -1.98853 0
M  V30 5672 H 525.235 1.1448 -1.06415 0
M  V30 5673 H 525.97 3.21925 0.391751 0
M  V30 5674 H 525.755 3.69273 -1.31834 0
M  V30 5675 H 527.245 4.1526 -0.441435 0
M  V30 5676 N 527.682 1.05563 1.17022 0
M  V30 5677 C 529.098 0.777684 1.39371 0
M  V30 5678 C 529.298 -0.626269 1.91521 0
M  V30 5679 O 528.354 -1.38806 2.10924 0
M  V30 5680 C 529.667 1.83642 2.3811 0
M  V30 5681 C 531.215 1.85907 2.51809 0
M  V30 5682 C 531.69 2.90813 3.53824 0
M  V30 5683 N 533.181 2.898 3.61345 0
M  V30 5684 C 533.916 3.6762 4.40049 0
M  V30 5685 N 533.412 4.55237 5.22237 0
M  V30 5686 N 535.205 3.56044 4.34959 0
M  V30 5687 H 527.356 1.9614 0.815047 0
M  V30 5688 H 529.619 0.849527 0.420722 0
M  V30 5689 H 529.325 2.84425 2.06871 0
M  V30 5690 H 529.199 1.6812 3.37662 0
M  V30 5691 H 531.586 0.857865 2.82356 0
M  V30 5692 H 531.667 2.05506 1.52318 0
M  V30 5693 H 531.311 3.91122 3.24015 0
M  V30 5694 H 531.241 2.68465 4.53028 0
M  V30 5695 H 533.732 2.26274 3.02669 0
M  V30 5696 H 534.045 5.11291 5.79484 0
M  V30 5697 H 532.39 4.59296 5.21605 0
M  V30 5698 H 535.581 2.86986 3.69806 0
M  V30 5699 H 535.754 4.16938 4.96051 0
M  V30 5700 N 529.16 -1.33526 0.837174 0
M  V30 5701 C 530.11 -2.2672 0.241269 0
M  V30 5702 C 531.094 -1.49183 -0.602756 0
M  V30 5703 O 532.286 -1.71052 -0.455002 0
M  V30 5704 C 529.415 -3.38294 -0.584125 0
M  V30 5705 C 528.501 -4.23231 0.271315 0
M  V30 5706 N 528.892 -4.87473 1.34922 0
M  V30 5707 C 527.19 -4.45962 0.0580589 0
M  V30 5708 C 527.891 -5.50685 1.87405 0
M  V30 5709 N 526.867 -5.30732 1.17578 0
M  V30 5710 H 530.669 -2.73903 1.06558 0
M  V30 5711 H 528.183 -1.47411 0.68145 0
M  V30 5712 H 530.18 -4.04044 -1.02731 0
M  V30 5713 H 528.84 -2.9266 -1.40643 0
M  V30 5714 H 529.851 -4.88077 1.7321 0
M  V30 5715 H 526.528 -4.11052 -0.730938 0
M  V30 5716 H 527.918 -6.11845 2.77661 0
M  V30 5717 N 530.638 -0.59345 -1.46 0
M  V30 5718 C 531.863 -0.0872365 -2.07216 0
M  V30 5719 C 532.288 1.2131 -1.43755 0
M  V30 5720 O 531.646 1.73528 -0.525152 0
M  V30 5721 C 531.694 0.0538197 -3.6056 0
M  V30 5722 O 530.798 1.10765 -3.97247 0
M  V30 5723 H 530.139 -0.0676598 -0.660544 0
M  V30 5724 H 532.669 -0.819445 -1.87473 0
M  V30 5725 H 532.679 0.256567 -4.07193 0
M  V30 5726 H 531.354 -0.895739 -4.0614 0
M  V30 5727 H 529.931 0.882501 -3.62307 0
M  V30 5728 N 532.116 1.54067 -0.331816 0
M  V30 5729 C 533.046 2.27569 0.522932 0
M  V30 5730 C 534.027 1.28679 1.11247 0
M  V30 5731 O 535.212 1.57504 1.13605 0
M  V30 5732 C 532.342 3.0397 1.67987 0
M  V30 5733 C 531.296 4.10267 1.21924 0
M  V30 5734 C 530.622 4.74555 2.46377 0
M  V30 5735 C 531.922 5.21268 0.32815 0
M  V30 5736 H 533.616 2.99264 -0.0901977 0
M  V30 5737 H 531.162 1.4393 -0.044821 0
M  V30 5738 H 533.115 3.54123 2.28418 0
M  V30 5739 H 531.839 2.29906 2.31971 0
M  V30 5740 H 530.498 3.61009 0.637809 0
M  V30 5741 H 530.146 3.97098 3.08743 0
M  V30 5742 H 529.846 5.46363 2.16243 0
M  V30 5743 H 531.37 5.27487 3.07555 0
M  V30 5744 H 532.784 5.67128 0.838978 0
M  V30 5745 H 531.181 5.99982 0.119228 0
M  V30 5746 H 532.251 4.80673 -0.638839 0
M  V30 5747 N 533.594 0.0601682 1.57485 0
M  V30 5748 C 534.842 -0.610386 1.92662 0
M  V30 5749 C 535.163 -1.70849 0.939981 0
M  V30 5750 O 534.433 -1.95895 -0.0137455 0
M  V30 5751 H 533.013 -0.228457 0.711208 0
M  V30 5752 H 535.675 0.115288 1.94559 0
M  V30 5753 H 534.771 -1.0432 2.94149 0
M  V30 5754 N 535.072 -1.5615 -0.213296 0
M  V30 5755 C 536.002 -1.96109 -1.26742 0
M  V30 5756 C 536.983 -0.830448 -1.48451 0
M  V30 5757 O 538.168 -1.09339 -1.60495 0
M  V30 5758 C 535.298 -2.28492 -2.61551 0
M  V30 5759 C 534.252 -3.44124 -2.54485 0
M  V30 5760 C 533.578 -3.62134 -3.93399 0
M  V30 5761 C 534.878 -4.78855 -2.08556 0
M  V30 5762 H 536.572 -2.84412 -0.935434 0
M  V30 5763 H 534.118 -1.36836 -0.44854 0
M  V30 5764 H 536.071 -2.55039 -3.3546 0
M  V30 5765 H 534.795 -1.37052 -2.96453 0
M  V30 5766 H 533.454 -3.17639 -1.83033 0
M  V30 5767 H 533.102 -2.68055 -4.25623 0
M  V30 5768 H 532.802 -4.39913 -3.89551 0
M  V30 5769 H 534.326 -3.91038 -4.68958 0
M  V30 5770 H 535.74 -5.04552 -2.72213 0
M  V30 5771 H 534.137 -5.59975 -2.1575 0
M  V30 5772 H 535.207 -4.73657 -1.03811 0
M  V30 5773 N 536.55 0.480323 -1.50102 0
M  V30 5774 C 537.482 1.59669 -1.64433 0
M  V30 5775 C 538.495 1.54063 -0.52615 0
M  V30 5776 O 539.684 1.59619 -0.798992 0
M  V30 5777 C 536.784 2.98527 -1.6042 0
M  V30 5778 C 535.957 3.291 -2.88117 0
M  V30 5779 C 535.016 4.47468 -2.76873 0
M  V30 5780 O 534.042 4.4823 -3.50825 0
M  V30 5781 N 535.244 5.48593 -1.89806 0
M  V30 5782 H 538.009 1.47795 -2.60723 0
M  V30 5783 H 535.57 0.66858 -1.4745 0
M  V30 5784 H 537.562 3.75666 -1.50523 0
M  V30 5785 H 536.132 3.04218 -0.719036 0
M  V30 5786 H 535.352 2.40662 -3.12211 0
M  V30 5787 H 536.64 3.46334 -3.72734 0
M  V30 5788 H 536.038 5.50791 -1.2902 0
M  V30 5789 H 534.595 6.24752 -1.85819 0
M  V30 5790 N 538.028 1.39524 0.732853 0
M  V30 5791 C 539.256 1.40143 1.52209 0
M  V30 5792 C 539.671 -0.00348836 1.888 0
M  V30 5793 O 539.028 -0.975357 1.5425 0
M  V30 5794 C 539.079 2.27632 2.8083 0
M  V30 5795 O 538.8 3.62654 2.45792 0
M  V30 5796 C 540.301 2.36658 3.74844 0
M  V30 5797 H 537.521 0.478604 0.470297 0
M  V30 5798 H 540.065 1.83366 0.905388 0
M  V30 5799 H 538.22 1.87818 3.38826 0
M  V30 5800 H 538.634 4.08941 3.28431 0
M  V30 5801 H 540.108 3.02118 4.61984 0
M  V30 5802 H 540.585 1.38638 4.16745 0
M  V30 5803 H 541.191 2.76951 3.22766 0
M  V30 5804 N 539.506 -0.963266 1.24736 0
M  V30 5805 C 540.436 -2.07628 1.06832 0
M  V30 5806 C 541.417 -1.70088 -0.0200566 0
M  V30 5807 O 542.602 -1.93636 0.147854 0
M  V30 5808 C 539.732 -3.40636 0.677069 0
M  V30 5809 C 538.686 -3.9215 1.71471 0
M  V30 5810 C 538.012 -5.21553 1.1784 0
M  V30 5811 C 539.312 -4.19493 3.11164 0
M  V30 5812 H 541.006 -2.22864 1.9993 0
M  V30 5813 H 538.552 -1.07093 0.96266 0
M  V30 5814 H 540.505 -4.17941 0.538792 0
M  V30 5815 H 539.229 -3.25313 -0.289612 0
M  V30 5816 H 537.888 -3.17005 1.84128 0
M  V30 5817 H 537.536 -5.02593 0.202195 0
M  V30 5818 H 537.236 -5.56988 1.87185 0
M  V30 5819 H 538.76 -6.01463 1.05233 0
M  V30 5820 H 540.174 -4.87487 3.01711 0
M  V30 5821 H 538.571 -4.66165 3.77902 0
M  V30 5822 H 539.641 -3.26097 3.58871 0
M  V30 5823 N 540.985 -1.06182 -1.16461 0
M  V30 5824 C 542.233 -0.776326 -1.86595 0
M  V30 5825 C 542.554 0.69921 -1.82033 0
M  V30 5826 O 541.824 1.50579 -1.2531 0
M  V30 5827 H 540.404 -0.284184 -0.690832 0
M  V30 5828 H 543.066 -1.34308 -1.41235 0
M  V30 5829 H 542.162 -1.10022 -2.92064 0
M  V30 5830 N 542.463 1.3308 -0.844243 0
M  V30 5831 C 543.393 2.3161 -0.296493 0
M  V30 5832 C 544.374 1.59215 0.598707 0
M  V30 5833 O 545.559 1.87077 0.521134 0
M  V30 5834 C 542.689 3.43313 0.524762 0
M  V30 5835 C 541.643 4.27115 -0.275106 0
M  V30 5836 C 540.969 5.30483 0.670236 0
M  V30 5837 C 542.269 5.00443 -1.49514 0
M  V30 5838 H 543.963 2.77672 -1.11976 0
M  V30 5839 H 541.509 1.33496 -0.539899 0
M  V30 5840 H 543.462 4.11273 0.918298 0
M  V30 5841 H 542.186 2.95952 1.3813 0
M  V30 5842 H 540.845 3.60787 -0.650267 0
M  V30 5843 H 540.493 4.79379 1.52332 0
M  V30 5844 H 540.193 5.87435 0.139123 0
M  V30 5845 H 541.717 6.01308 1.06117 0
M  V30 5846 H 543.131 5.61141 -1.17447 0
M  V30 5847 H 541.528 5.67071 -1.96343 0
M  V30 5848 H 542.598 4.28906 -2.26202 0
M  V30 5849 N 543.941 0.601185 1.45683 0
M  V30 5850 C 545.169 0.100054 2.06658 0
M  V30 5851 C 545.584 -1.21285 1.44691 0
M  V30 5852 O 544.941 -1.73735 0.558772 0
M  V30 5853 C 544.992 -0.0528579 3.61461 0
M  V30 5854 O 544.713 1.20809 4.21114 0
M  V30 5855 C 546.214 -0.586193 4.39407 0
M  V30 5856 H 543.434 0.065905 0.667756 0
M  V30 5857 H 545.978 0.827101 1.87028 0
M  V30 5858 H 544.133 -0.730203 3.80456 0
M  V30 5859 H 544.547 1.03368 5.14213 0
M  V30 5860 H 546.021 -0.642297 5.4825 0
M  V30 5861 H 546.498 -1.60713 4.0874 0
M  V30 5862 H 547.104 0.0568935 4.25262 0
M  V30 5863 N 545.419 -1.53889 0.339982 0
M  V30 5864 C 546.382 -2.23547 -0.50592 0
M  V30 5865 C 547.382 -1.23445 -1.03044 0
M  V30 5866 O 548.572 -1.47909 -0.920253 0
M  V30 5867 C 545.704 -2.95234 -1.7044 0
M  V30 5868 H 546.897 -2.99722 0.103247 0
M  V30 5869 H 544.45 -1.56033 0.0912804 0
M  V30 5870 H 545.185 -2.23236 -2.35236 0
M  V30 5871 H 544.97 -3.68654 -1.33553 0
M  V30 5872 H 546.46 -3.48258 -2.30447 0
M  V30 5873 N 546.897 -0.0685191 -1.57451 0
M  V30 5874 C 548.313 0.288101 -1.56978 0
M  V30 5875 C 548.513 1.70262 -1.07765 0
M  V30 5876 O 547.569 2.4135 -0.742054 0
M  V30 5877 C 548.882 0.100745 -3.00531 0
M  V30 5878 C 550.43 0.170531 -3.12535 0
M  V30 5879 C 550.905 0.0114944 -4.57999 0
M  V30 5880 N 552.396 0.0672065 -4.63151 0
M  V30 5881 C 553.131 -0.0314813 -5.73391 0
M  V30 5882 N 552.627 -0.183503 -6.92557 0
M  V30 5883 N 554.42 0.0253489 -5.62094 0
M  V30 5884 H 546.571 -0.993026 -1.87757 0
M  V30 5885 H 548.834 -0.386981 -0.865419 0
M  V30 5886 H 548.54 -0.875197 -3.40636 0
M  V30 5887 H 548.414 0.854457 -3.67395 0
M  V30 5888 H 550.801 1.13696 -2.72318 0
M  V30 5889 H 550.882 -0.614229 -2.48316 0
M  V30 5890 H 550.526 -0.951684 -4.98904 0
M  V30 5891 H 550.456 0.815617 -5.20245 0
M  V30 5892 H 552.947 0.183246 -3.77455 0
M  V30 5893 H 553.26 -0.251041 -7.72392 0
M  V30 5894 H 551.605 -0.218822 -6.94655 0
M  V30 5895 H 554.796 0.142794 -4.67882 0
M  V30 5896 H 554.969 -0.0550166 -6.47977 0
M  V30 5897 N 548.375 1.56261 0.205012 0
M  V30 5898 C 549.791 1.49623 0.555433 0
M  V30 5899 C 549.991 0.766719 1.86343 0
M  V30 5900 O 549.047 0.313158 2.50551 0
M  V30 5901 C 550.36 2.94253 0.619347 0
M  V30 5902 C 551.908 3.04868 0.708855 0
M  V30 5903 C 552.383 4.50888 0.803969 0
M  V30 5904 N 553.874 4.54999 0.867758 0
M  V30 5905 C 554.609 5.65284 0.96135 0
M  V30 5906 N 554.105 6.85282 1.01786 0
M  V30 5907 N 555.898 5.53174 0.997771 0
M  V30 5908 H 548.049 2.0211 -0.653094 0
M  V30 5909 H 550.312 0.919333 -0.231366 0
M  V30 5910 H 550.018 3.50643 -0.272458 0
M  V30 5911 H 549.892 3.47063 1.47741 0
M  V30 5912 H 552.279 2.48532 1.5911 0
M  V30 5913 H 552.36 2.55199 -0.175205 0
M  V30 5914 H 552.004 5.07846 -0.0738798 0
M  V30 5915 H 551.934 4.98279 1.70369 0
M  V30 5916 H 554.425 3.68588 0.833735 0
M  V30 5917 H 554.738 7.65081 1.08951 0
M  V30 5918 H 553.083 6.8796 0.986706 0
M  V30 5919 H 556.274 4.5835 0.950392 0
M  V30 5920 H 556.447 6.39151 1.06725 0
M  V30 5921 N 549.853 -0.472356 1.50355 0
M  V30 5922 C 551.093 -1.23439 1.62918 0
M  V30 5923 C 551.457 -1.89284 0.321801 0
M  V30 5924 O 552.658 -2.66854 0.322852 0
M  V30 5925 C 550.929 -2.25119 2.7759 0
M  V30 5926 S 552.488 -3.10278 3.10279 0
M  V30 5927 H 549.306 -0.41911 0.574341 0
M  V30 5928 H 551.908 -0.531621 1.88133 0
M  V30 5929 H 550.612 -1.75324 3.71066 0
M  V30 5930 H 550.143 -3.00026 2.54457 0
M  V30 5931 H 552.158 -4.26257 2.54007 0
M  V30 5932 N 551.331 -1.39911 -0.725443 0
M  V30 5933 C 552.559 -1.40949 -1.51463 0
M  V30 5934 C 552.974 -0.0065242 -1.88799 0
M  V30 5935 O 552.331 0.967163 -1.54765 0
M  V30 5936 C 552.382 -2.29119 -2.79619 0
M  V30 5937 O 552.103 -3.63952 -2.43866 0
M  V30 5938 C 553.604 -2.38642 -3.73584 0
M  V30 5939 H 550.824 -0.481091 -0.467752 0
M  V30 5940 H 553.368 -1.83843 -0.895651 0
M  V30 5941 H 551.523 -1.89612 -3.37826 0
M  V30 5942 H 551.937 -4.10677 -3.26258 0
M  V30 5943 H 553.411 -3.04563 -4.60375 0
M  V30 5944 H 553.888 -1.40846 -4.16004 0
M  V30 5945 H 554.494 -2.78659 -3.21293 0
M  V30 5946 N 552.809 0.956637 -1.25245 0
M  V30 5947 C 554.225 1.22733 -1.02023 0
M  V30 5948 C 554.425 1.99761 0.264186 0
M  V30 5949 O 553.481 2.32814 0.977436 0
M  V30 5950 C 554.794 2.00367 -2.24217 0
M  V30 5951 C 556.342 2.13418 -2.28958 0
M  V30 5952 C 556.817 2.9445 -3.50803 0
M  V30 5953 N 558.308 3.02029 -3.51187 0
M  V30 5954 C 559.043 3.65116 -4.42129 0
M  V30 5955 N 558.539 4.2983 -5.43339 0
M  V30 5956 N 560.332 3.62237 -4.29815 0
M  V30 5957 H 552.483 0.441282 -2.07765 0
M  V30 5958 H 554.746 0.257686 -0.912306 0
M  V30 5959 H 554.452 1.51165 -3.17556 0
M  V30 5960 H 554.326 3.01077 -2.27228 0
M  V30 5961 H 556.713 2.61819 -1.36143 0
M  V30 5962 H 556.794 1.1202 -2.29968 0
M  V30 5963 H 556.438 2.46741 -4.43939 0
M  V30 5964 H 556.368 3.9607 -3.47039 0
M  V30 5965 H 558.859 2.56007 -2.77973 0
M  V30 5966 H 559.172 4.75819 -6.08947 0
M  V30 5967 H 557.517 4.28465 -5.47214 0
M  V30 5968 H 560.708 3.10863 -3.49974 0
M  V30 5969 H 560.881 4.11117 -5.00886 0
M  V30 5970 N 554.287 1.06798 1.15896 0
M  V30 5971 C 555.197 0.694564 2.24083 0
M  V30 5972 C 556.213 -0.291687 1.71538 0
M  V30 5973 O 557.389 -0.139723 2.00915 0
M  V30 5974 C 554.454 0.0921014 3.46578 0
M  V30 5975 C 553.515 1.13087 4.14137 0
M  V30 5976 C 552.748 0.557064 5.30785 0
M  V30 5977 O 552.971 -0.628623 5.66925 0
M  V30 5978 O 551.905 1.29924 5.8771 0
M  V30 5979 H 555.731 1.59663 2.58344 0
M  V30 5980 H 553.316 0.840575 1.2351 0
M  V30 5981 H 555.198 -0.241884 4.20705 0
M  V30 5982 H 553.873 -0.78337 3.14078 0
M  V30 5983 H 552.78 1.51712 3.41957 0
M  V30 5984 H 554.113 1.97805 4.50704 0
M  V30 5985 N 555.766 -1.3263 0.851289 0
M  V30 5986 C 557.013 -1.97368 0.453023 0
M  V30 5987 C 557.341 -1.67384 -0.990596 0
M  V30 5988 O 556.596 -0.952665 -1.70947 0
M  V30 5989 C 556.895 -3.51713 0.635015 0
M  V30 5990 C 556.561 -4.01676 2.04859 0
M  V30 5991 C 555.223 -4.15031 2.43522 0
M  V30 5992 C 557.575 -4.28206 2.97135 0
M  V30 5993 C 554.903 -4.52257 3.73739 0
M  V30 5994 C 557.255 -4.66889 4.26846 0
M  V30 5995 C 555.919 -4.7845 4.65448 0
M  V30 5996 H 555.189 -0.722219 0.165773 0
M  V30 5997 H 557.836 -1.58092 1.0807 0
M  V30 5998 H 556.141 -3.91726 -0.0759081 0
M  V30 5999 H 557.838 -3.99823 0.306964 0
M  V30 6000 H 554.428 -3.91764 1.73836 0
M  V30 6001 H 558.612 -4.174 2.68498 0
M  V30 6002 H 553.868 -4.59402 4.03435 0
M  V30 6003 H 558.042 -4.86372 4.98413 0
M  V30 6004 H 555.669 -5.07052 5.66395 0
M  V30 6005 N 557.244 -0.608902 -1.45362 0
M  V30 6006 C 558.492 -0.104401 -2.0183 0
M  V30 6007 C 558.813 1.27007 -1.47967 0
M  V30 6008 O 558.083 1.83924 -0.674455 0
M  V30 6009 H 556.663 -0.0356042 -0.746151 0
M  V30 6010 H 559.325 -0.790596 -1.78145 0
M  V30 6011 H 558.421 -0.0551793 -3.12051 0
M  V30 6012 N 558.722 1.53707 -0.348139 0
M  V30 6013 C 559.652 2.28111 0.498766 0
M  V30 6014 C 560.633 1.29851 1.09876 0
M  V30 6015 O 561.818 1.587 1.11928 0
M  V30 6016 C 558.948 3.05735 1.64753 0
M  V30 6017 C 557.902 4.11537 1.17565 0
M  V30 6018 C 557.228 4.77142 2.4133 0
M  V30 6019 C 558.528 5.21587 0.272844 0
M  V30 6020 H 560.222 2.99152 -0.121934 0
M  V30 6021 H 557.768 1.43875 -0.0600842 0
M  V30 6022 H 559.721 3.56526 2.24649 0
M  V30 6023 H 558.445 2.32354 2.2952 0
M  V30 6024 H 557.104 3.61665 0.599483 0
M  V30 6025 H 556.752 4.0035 3.04514 0
M  V30 6026 H 556.452 5.48626 2.10436 0
M  V30 6027 H 557.976 5.30719 3.01943 0
M  V30 6028 H 559.39 5.67986 0.778779 0
M  V30 6029 H 557.787 6.00074 0.0555849 0
M  V30 6030 H 558.857 4.79969 -0.689785 0
M  V30 6031 N 560.2 0.0768682 1.57412 0
M  V30 6032 C 561.13 -0.886026 2.16037 0
M  V30 6033 C 562.111 -1.30691 1.08876 0
M  V30 6034 O 563.296 -1.37705 1.36934 0
M  V30 6035 C 560.426 -2.1518 2.72608 0
M  V30 6036 C 559.38 -1.87015 3.8498 0
M  V30 6037 C 558.706 -3.20266 4.28175 0
M  V30 6038 C 560.006 -1.17143 5.08994 0
M  V30 6039 H 561.7 -0.397642 2.96748 0
M  V30 6040 H 559.246 -0.189823 1.42743 0
M  V30 6041 H 561.199 -2.82962 3.12266 0
M  V30 6042 H 559.923 -2.66269 1.89125 0
M  V30 6043 H 558.582 -1.21636 3.45833 0
M  V30 6044 H 558.23 -3.69207 3.41607 0
M  V30 6045 H 557.93 -3.0221 5.03927 0
M  V30 6046 H 559.454 -3.89237 4.70454 0
M  V30 6047 H 560.868 -1.75003 5.45937 0
M  V30 6048 H 559.265 -1.09328 5.90057 0
M  V30 6049 H 560.335 -0.151295 4.84664 0
M  V30 6050 N 561.678 -1.56367 -0.196722 0
M  V30 6051 C 562.608 -1.97442 -1.24655 0
M  V30 6052 C 563.589 -0.846147 -1.47561 0
M  V30 6053 O 564.774 -1.11035 -1.59326 0
M  V30 6054 C 561.904 -2.31253 -2.59112 0
M  V30 6055 C 560.858 -3.46804 -2.50821 0
M  V30 6056 C 560.184 -3.66286 -3.89536 0
M  V30 6057 C 561.484 -4.8104 -2.03465 0
M  V30 6058 H 563.178 -2.85388 -0.905216 0
M  V30 6059 H 560.724 -1.37304 -0.434002 0
M  V30 6060 H 562.677 -2.58583 -3.32736 0
M  V30 6061 H 561.401 -1.40188 -2.94983 0
M  V30 6062 H 560.06 -3.19563 -1.79653 0
M  V30 6063 H 559.708 -2.72555 -4.22756 0
M  V30 6064 H 559.408 -4.4402 -3.84864 0
M  V30 6065 H 560.932 -3.9599 -4.64784 0
M  V30 6066 H 562.346 -5.07411 -2.66846 0
M  V30 6067 H 560.743 -5.62232 -2.09798 0
M  V30 6068 H 561.813 -4.74732 -0.98781 0
M  V30 6069 N 563.156 0.464375 -1.50603 0
M  V30 6070 C 564.086 1.56944 -1.72889 0
M  V30 6071 C 565.067 1.59979 -0.577997 0
M  V30 6072 O 566.252 1.76138 -0.817855 0
M  V30 6073 C 563.382 2.95225 -1.8292 0
M  V30 6074 C 562.336 3.07056 -2.98162 0
M  V30 6075 C 561.662 4.47051 -2.93343 0
M  V30 6076 C 562.962 2.83648 -4.38567 0
M  V30 6077 H 564.656 1.38547 -2.65415 0
M  V30 6078 H 562.202 0.665082 -1.27721 0
M  V30 6079 H 564.155 3.72467 -1.97095 0
M  V30 6080 H 562.879 3.14793 -0.870209 0
M  V30 6081 H 561.538 2.32248 -2.83648 0
M  V30 6082 H 561.186 4.63547 -1.95276 0
M  V30 6083 H 560.886 4.55902 -3.70712 0
M  V30 6084 H 562.41 5.26304 -3.09575 0
M  V30 6085 H 563.824 3.50636 -4.53572 0
M  V30 6086 H 562.221 3.03937 -5.17438 0
M  V30 6087 H 563.291 1.79451 -4.50472 0
M  V30 6088 N 564.634 1.40294 0.718013 0
M  V30 6089 C 565.881 1.3844 1.47786 0
M  V30 6090 C 566.209 -0.0140838 1.94495 0
M  V30 6091 O 565.464 -0.998165 1.68331 0
M  V30 6092 C 565.763 2.31814 2.72024 0
M  V30 6093 C 565.429 3.79117 2.44093 0
M  V30 6094 C 564.091 4.19249 2.36185 0
M  V30 6095 C 566.443 4.72212 2.20602 0
M  V30 6096 C 563.771 5.50516 2.02851 0
M  V30 6097 C 566.123 6.03775 1.88781 0
M  V30 6098 C 564.787 6.42953 1.79354 0
M  V30 6099 H 564.057 0.506588 0.540786 0
M  V30 6100 H 566.704 1.72929 0.822663 0
M  V30 6101 H 565.009 1.90501 3.42369 0
M  V30 6102 H 566.706 2.27664 3.30106 0
M  V30 6103 H 563.296 3.47318 2.51133 0
M  V30 6104 H 567.48 4.42026 2.25669 0
M  V30 6105 H 562.736 5.79776 1.94088 0
M  V30 6106 H 566.91 6.75428 1.69617 0
M  V30 6107 H 564.537 7.44584 1.53291 0
M  V30 6108 N 566.112 -0.949982 1.2575 0
M  V30 6109 C 567.042 -2.06483 1.09028 0
M  V30 6110 C 568.023 -1.701 -0.00201532 0
M  V30 6111 O 569.208 -1.93469 0.168383 0
M  V30 6112 C 566.338 -3.39899 0.71316 0
M  V30 6113 C 565.292 -3.90309 1.75621 0
M  V30 6114 C 564.618 -5.20274 1.23365 0
M  V30 6115 C 565.918 -4.16169 3.15596 0
M  V30 6116 H 567.612 -2.20731 2.02283 0
M  V30 6117 H 565.158 -1.06066 0.973964 0
M  V30 6118 H 567.111 -4.17346 0.58309 0
M  V30 6119 H 565.835 -3.25602 -0.255091 0
M  V30 6120 H 564.494 -3.15035 1.8748 0
M  V30 6121 H 564.142 -5.02351 0.255491 0
M  V30 6122 H 563.842 -5.54971 1.93082 0
M  V30 6123 H 565.366 -6.00314 1.11607 0
M  V30 6124 H 566.78 -4.84259 3.06864 0
M  V30 6125 H 565.177 -4.62131 3.82825 0
M  V30 6126 H 566.247 -3.22273 3.6231 0
M  V30 6127 N 567.59 -1.07411 -1.15328 0
M  V30 6128 C 568.83 -0.807011 -1.87794 0
M  V30 6129 C 569.194 0.654987 -1.80482 0
M  V30 6130 O 570.395 1.03716 -2.47985 0
M  V30 6131 C 568.666 -1.30198 -3.32841 0
M  V30 6132 S 570.225 -1.16564 -4.23034 0
M  V30 6133 H 567.043 -0.292429 -0.648079 0
M  V30 6134 H 569.645 -1.37334 -1.39139 0
M  V30 6135 H 568.349 -2.3607 -3.35707 0
M  V30 6136 H 567.88 -0.730881 -3.86551 0
M  V30 6137 H 569.895 -0.103557 -4.96092 0
M  V30 6138 N 569.068 1.32177 -0.85831 0
M  V30 6139 C 570.314 1.97417 -0.46417 0
M  V30 6140 C 570.647 1.67746 0.978514 0
M  V30 6141 O 569.922 0.967654 1.68721 0
M  V30 6142 C 570.205 3.53069 -0.708094 0
M  V30 6143 C 570.058 3.92357 -2.19946 0
M  V30 6144 C 571.377 4.39783 -0.166881 0
M  V30 6145 H 568.496 0.717097 -0.17012 0
M  V30 6146 H 571.138 1.56499 -1.07741 0
M  V30 6147 H 569.288 3.88054 -0.186128 0
M  V30 6148 H 570.96 3.67533 -2.78779 0
M  V30 6149 H 569.203 3.41384 -2.67656 0
M  V30 6150 H 569.874 5.00841 -2.32082 0
M  V30 6151 H 572.35 4.11556 -0.613285 0
M  V30 6152 H 571.226 5.47671 -0.367093 0
M  V30 6153 H 571.487 4.32196 0.930559 0
M  V30 6154 N 570.547 0.616602 1.45037 0
M  V30 6155 C 571.51 -0.0871112 2.29034 0
M  V30 6156 C 572.51 -0.786414 1.40258 0
M  V30 6157 O 573.7 -0.633207 1.62284 0
M  V30 6158 C 570.832 -1.13369 3.21497 0
M  V30 6159 H 572.025 0.651497 2.92738 0
M  V30 6160 H 569.578 0.376058 1.51709 0
M  V30 6161 H 570.313 -1.90277 2.62612 0
M  V30 6162 H 570.098 -0.636358 3.86902 0
M  V30 6163 H 571.588 -1.62627 3.84633 0
M  V30 6164 N 572.025 -1.5352 0.356285 0
M  V30 6165 C 573.274 -2.00298 -0.237373 0
M  V30 6166 C 573.587 -1.24784 -1.50627 0
M  V30 6167 O 574.793 -1.62103 -2.17795 0
M  V30 6168 C 573.249 -3.56771 -0.473545 0
M  V30 6169 C 572.857 -4.41154 0.780183 0
M  V30 6170 C 574.601 -4.1193 -1.02537 0
M  V30 6171 C 572.508 -5.89161 0.514108 0
M  V30 6172 H 571.438 -0.748307 -0.092478 0
M  V30 6173 H 574.089 -1.77283 0.473588 0
M  V30 6174 H 572.471 -3.75902 -1.24553 0
M  V30 6175 H 573.645 -4.33797 1.55425 0
M  V30 6176 H 571.96 -3.97052 1.25455 0
M  V30 6177 H 574.557 -5.20133 -1.2396 0
M  V30 6178 H 574.9 -3.65943 -1.98473 0
M  V30 6179 H 575.433 -3.96561 -0.313775 0
M  V30 6180 H 572.172 -6.39408 1.44355 0
M  V30 6181 H 571.692 -5.9939 -0.221632 0
M  V30 6182 H 573.371 -6.46857 0.136122 0
M  V30 6183 N 573.503 -0.0852151 -1.57369 0
M  V30 6184 C 574.466 0.8627 -2.12344 0
M  V30 6185 C 575.466 1.21746 -1.05046 0
M  V30 6186 O 576.656 1.14852 -1.30976 0
M  V30 6187 C 573.788 2.1618 -2.63589 0
M  V30 6188 H 574.981 0.385511 -2.97412 0
M  V30 6189 H 572.534 0.163663 -1.55441 0
M  V30 6190 H 573.269 2.68406 -1.82013 0
M  V30 6191 H 573.054 1.91723 -3.4203 0
M  V30 6192 H 574.544 2.84011 -3.06149 0
M  V30 6193 N 574.981 1.5647 0.188427 0
M  V30 6194 C 575.911 1.98101 1.23606 0
M  V30 6195 C 576.892 0.853961 1.47111 0
M  V30 6196 O 578.077 1.11879 1.58735 0
M  V30 6197 C 575.207 2.32624 2.57882 0
M  V30 6198 C 574.161 3.48129 2.48978 0
M  V30 6199 C 573.487 3.68347 3.87588 0
M  V30 6200 C 574.787 4.82112 2.00911 0
M  V30 6201 H 576.481 2.85864 0.890068 0
M  V30 6202 H 574.027 1.37532 0.426714 0
M  V30 6203 H 575.98 2.60343 3.3136 0
M  V30 6204 H 574.704 1.41751 2.94235 0
M  V30 6205 H 573.363 3.20511 1.77956 0
M  V30 6206 H 573.011 2.74793 4.21305 0
M  V30 6207 H 572.711 4.46055 3.82503 0
M  V30 6208 H 574.235 3.98449 4.62678 0
M  V30 6209 H 575.649 5.08819 2.64151 0
M  V30 6210 H 574.046 5.63337 2.06814 0
M  V30 6211 H 575.116 4.75249 0.96262 0
M  V30 6212 N 576.459 -0.456382 1.50847 0
M  V30 6213 C 577.706 -1.20736 1.62571 0
M  V30 6214 C 578.034 -1.9163 0.332904 0
M  V30 6215 O 577.289 -1.8343 -0.682058 0
M  V30 6216 C 577.588 -2.26336 2.76599 0
M  V30 6217 C 577.254 -1.7259 4.16562 0
M  V30 6218 C 575.916 -1.57654 4.54641 0
M  V30 6219 C 578.268 -1.32877 5.03977 0
M  V30 6220 C 575.596 -1.0145 5.77862 0
M  V30 6221 C 577.948 -0.7811 6.27759 0
M  V30 6222 C 576.612 -0.618488 6.64628 0
M  V30 6223 H 575.882 -0.441803 0.594888 0
M  V30 6224 H 578.529 -0.501169 1.84826 0
M  V30 6225 H 576.834 -3.0292 2.48489 0
M  V30 6226 H 578.531 -2.84227 2.82871 0
M  V30 6227 H 575.121 -1.85187 3.86528 0
M  V30 6228 H 579.305 -1.43245 4.75179 0
M  V30 6229 H 574.561 -0.876109 6.0509 0
M  V30 6230 H 578.735 -0.464783 6.94847 0
M  V30 6231 H 576.362 -0.180838 7.59985 0
M  V30 6232 N 577.937 -1.40673 -0.710563 0
M  V30 6233 C 578.9 -1.4108 -1.80635 0
M  V30 6234 C 579.9 -0.303783 -1.57904 0
M  V30 6235 O 581.09 -0.562937 -1.64853 0
M  V30 6236 C 578.222 -1.20748 -3.18799 0
M  V30 6237 H 579.415 -2.38612 -1.81671 0
M  V30 6238 H 576.968 -1.26595 -0.916704 0
M  V30 6239 H 577.703 -0.239964 -3.23411 0
M  V30 6240 H 577.488 -2.00941 -3.36698 0
M  V30 6241 H 578.978 -1.23833 -3.98817 0
M  V30 6242 N 579.415 0.9433 -1.26252 0
M  V30 6243 C 580.826 1.50404 -1.10614 0
M  V30 6244 C 581.177 1.93666 0.31429 0
M  V30 6245 O 580.302 1.79709 1.20555 0
M  V30 6246 C 580.897 2.73336 -2.00182 0
M  V30 6247 C 579.456 3.25686 -1.88695 0
M  V30 6248 C 578.603 1.98474 -1.93658 0
M  V30 6249 H 581.554 0.759006 -1.39373 0
M  V30 6250 H 581.575 3.47567 -1.54847 0
M  V30 6251 H 581.087 2.41818 -3.03555 0
M  V30 6252 H 579.188 3.61998 -0.882489 0
M  V30 6253 H 579.301 3.92935 -2.74115 0
M  V30 6254 H 577.665 2.14278 -1.37684 0
M  V30 6255 H 578.448 1.6929 -2.98657 0
M  V30 6256 N 580.893 1.08022 1.14757 0
M  V30 6257 C 581.823 0.728248 2.21853 0
M  V30 6258 C 582.804 -0.287486 1.67653 0
M  V30 6259 O 583.989 -0.158727 1.9355 0
M  V30 6260 C 581.119 0.132549 3.47047 0
M  V30 6261 C 580.073 1.07619 4.14249 0
M  V30 6262 C 579.399 0.342907 5.33599 0
M  V30 6263 C 580.699 2.41268 4.63235 0
M  V30 6264 H 582.393 1.62365 2.51551 0
M  V30 6265 H 579.939 0.782125 1.20908 0
M  V30 6266 H 581.892 -0.125665 4.21213 0
M  V30 6267 H 580.616 -0.797971 3.16702 0
M  V30 6268 H 579.275 1.31944 3.42033 0
M  V30 6269 H 578.923 -0.59129 4.99513 0
M  V30 6270 H 578.623 0.971955 5.79506 0
M  V30 6271 H 580.147 0.0926538 6.1053 0
M  V30 6272 H 581.561 2.21232 5.28894 0
M  V30 6273 H 579.958 2.9983 5.19829 0
M  V30 6274 H 581.028 3.03079 3.78512 0
M  V30 6275 N 582.371 -1.3172 0.865308 0
M  V30 6276 C 583.301 -2.31109 0.333302 0
M  V30 6277 C 584.282 -1.60148 -0.573301 0
M  V30 6278 O 585.467 -1.87882 -0.491305 0
M  V30 6279 C 582.597 -3.44104 -0.470078 0
M  V30 6280 C 581.551 -4.26623 0.343021 0
M  V30 6281 C 580.877 -5.31482 -0.585756 0
M  V30 6282 C 582.177 -4.98001 1.57456 0
M  V30 6283 H 583.871 -2.75855 1.1638 0
M  V30 6284 H 581.417 -1.3262 0.561069 0
M  V30 6285 H 583.37 -4.12682 -0.852752 0
M  V30 6286 H 582.094 -2.98112 -1.33404 0
M  V30 6287 H 580.753 -3.59707 0.707583 0
M  V30 6288 H 580.401 -4.81741 -1.44686 0
M  V30 6289 H 580.101 -5.87582 -0.0456494 0
M  V30 6290 H 581.625 -6.0292 -0.965375 0
M  V30 6291 H 583.039 -5.59201 1.26359 0
M  V30 6292 H 581.436 -5.63876 2.05339 0
M  V30 6293 H 582.506 -4.25253 2.32997 0
M  V30 6294 N 583.85 -0.624285 -1.44708 0
M  V30 6295 C 585.08 -0.132726 -2.06173 0
M  V30 6296 C 585.488 1.19513 -1.46674 0
M  V30 6297 O 584.831 1.74254 -0.581491 0
M  V30 6298 C 584.893 0.0636732 -3.59444 0
M  V30 6299 C 584.557 -1.18496 -4.4137 0
M  V30 6300 C 585.553 -2.10706 -4.75288 0
M  V30 6301 C 583.239 -1.41846 -4.81856 0
M  V30 6302 C 585.233 -3.24582 -5.48567 0
M  V30 6303 C 582.92 -2.5602 -5.54885 0
M  V30 6304 C 583.918 -3.47215 -5.88159 0
M  V30 6305 O 583.606 -4.59399 -6.59703 0
M  V30 6306 H 583.338 -0.0737313 -0.671967 0
M  V30 6307 H 585.892 -0.856789 -1.86677 0
M  V30 6308 H 584.122 0.842809 -3.77404 0
M  V30 6309 H 585.811 0.508924 -4.02697 0
M  V30 6310 H 586.577 -1.93898 -4.44554 0
M  V30 6311 H 582.456 -0.717556 -4.55381 0
M  V30 6312 H 586 -3.95785 -5.74456 0
M  V30 6313 H 581.897 -2.72774 -5.85034 0
M  V30 6314 H 582.665 -4.58293 -6.78166 0
M  V30 6315 N 585.328 1.53329 -0.364422 0
M  V30 6316 C 586.574 2.01537 0.225969 0
M  V30 6317 C 586.907 1.25128 1.48515 0
M  V30 6318 O 586.182 0.344653 1.91422 0
M  V30 6319 C 586.465 3.56339 0.519092 0
M  V30 6320 C 586.318 4.43441 -0.753639 0
M  V30 6321 C 587.637 4.19833 1.32015 0
M  V30 6322 H 584.756 0.732573 0.0806548 0
M  V30 6323 H 587.398 1.83597 -0.489084 0
M  V30 6324 H 585.548 3.71756 1.12825 0
M  V30 6325 H 587.22 4.39823 -1.39116 0
M  V30 6326 H 585.463 4.11457 -1.37424 0
M  V30 6327 H 586.134 5.49699 -0.503517 0
M  V30 6328 H 588.61 4.08242 0.804859 0
M  V30 6329 H 587.486 5.28177 1.49399 0
M  V30 6330 H 587.747 3.75821 2.32832 0
M  V30 6331 N 586.806 0.0935595 1.57322 0
M  V30 6332 C 588.055 -0.570191 1.93473 0
M  V30 6333 C 588.368 -1.69434 0.977318 0
M  V30 6334 O 589.574 -2.41914 1.23248 0
M  V30 6335 C 588.03 -1.06564 3.43762 0
M  V30 6336 C 587.638 0.0286723 4.47991 0
M  V30 6337 C 589.382 -1.70221 3.88877 0
M  V30 6338 C 587.289 -0.482046 5.89432 0
M  V30 6339 H 586.219 -0.216764 0.72217 0
M  V30 6340 H 588.87 0.169313 1.82717 0
M  V30 6341 H 587.252 -1.85878 3.49664 0
M  V30 6342 H 588.426 0.804106 4.5373 0
M  V30 6343 H 586.741 0.570336 4.12476 0
M  V30 6344 H 589.338 -2.09502 4.91948 0
M  V30 6345 H 589.681 -2.57078 3.27439 0
M  V30 6346 H 590.214 -0.974919 3.85668 0
M  V30 6347 H 586.953 0.349871 6.54566 0
M  V30 6348 H 586.473 -1.22452 5.87167 0
M  V30 6349 H 588.152 -0.951508 6.39965 0
M  V30 6350 N 588.284 -1.56567 -0.180126 0
M  V30 6351 C 589.194 -1.98947 -1.24327 0
M  V30 6352 C 590.21 -0.899446 -1.4895 0
M  V30 6353 O 591.386 -1.20639 -1.61271 0
M  V30 6354 C 588.451 -2.33328 -2.56435 0
M  V30 6355 C 587.512 -3.56114 -2.39752 0
M  V30 6356 C 586.745 -3.88845 -3.65561 0
M  V30 6357 O 586.968 -3.22662 -4.70368 0
M  V30 6358 O 585.902 -4.82226 -3.60197 0
M  V30 6359 H 589.728 -2.89634 -0.913565 0
M  V30 6360 H 587.313 -1.44319 -0.386306 0
M  V30 6361 H 589.195 -2.5645 -3.34382 0
M  V30 6362 H 587.87 -1.45806 -2.89002 0
M  V30 6363 H 586.777 -3.38221 -1.59866 0
M  V30 6364 H 588.11 -4.4415 -2.12113 0
M  V30 6365 N 589.762 0.448376 -1.51087 0
M  V30 6366 C 590.71 1.56407 -1.72161 0
M  V30 6367 C 591.704 1.58878 -0.587721 0
M  V30 6368 O 592.91 1.62755 -0.768822 0
M  V30 6369 H 589.285 0.519423 -0.543786 0
M  V30 6370 H 591.256 1.35803 -2.65707 0
M  V30 6371 C 590.005 2.94163 -1.85373 0
M  V30 6372 H 589.328 2.9299 -2.72024 0
M  V30 6373 H 590.768 3.71625 -2.04135 0
M  V30 6374 C 589.227 3.31317 -0.610803 0
M  V30 6375 O 589.757 4.00985 0.239636 0
M  V30 6376 N 587.963 2.86966 -0.458127 0
M  V30 6377 H 587.51 2.30443 -1.15124 0
M  V30 6378 H 587.468 3.12188 0.372289 0
M  V30 6379 N 591.24 1.41047 0.703093 0
M  V30 6380 C 592.15 1.44645 1.84703 0
M  V30 6381 C 593.166 0.337778 1.7069 0
M  V30 6382 O 594.342 0.584327 1.92737 0
M  V30 6383 C 591.407 1.31928 3.20618 0
M  V30 6384 C 590.468 2.53047 3.46794 0
M  V30 6385 C 589.701 2.40927 4.76224 0
M  V30 6386 O 589.924 1.42978 5.5219 0
M  V30 6387 O 588.858 3.30543 5.03016 0
M  V30 6388 H 592.684 2.41139 1.84624 0
M  V30 6389 H 590.269 1.22504 0.855167 0
M  V30 6390 H 592.151 1.27092 4.01778 0
M  V30 6391 H 590.826 0.385469 3.21397 0
M  V30 6392 H 589.733 2.6346 2.65593 0
M  V30 6393 H 591.066 3.45231 3.50822 0
M  V30 6394 N 592.718 -0.936591 1.26751 0
M  V30 6395 C 593.651 -2.03619 1.03027 0
M  V30 6396 C 594.629 -1.62534 -0.0464619 0
M  V30 6397 O 595.813 -1.88251 0.0968873 0
M  V30 6398 C 592.94 -3.3402 0.561072 0
M  V30 6399 C 591.986 -3.9408 1.63105 0
M  V30 6400 S 592.819 -4.27782 3.22122 0
M  V30 6401 C 593.975 -5.61277 2.76982 0
M  V30 6402 H 594.208 -2.23429 1.96129 0
M  V30 6403 H 591.741 -1.07857 1.10482 0
M  V30 6404 H 593.699 -4.09424 0.297031 0
M  V30 6405 H 592.36 -3.12147 -0.349741 0
M  V30 6406 H 591.553 -4.88154 1.25386 0
M  V30 6407 H 591.155 -3.25227 1.84671 0
M  V30 6408 H 593.447 -6.40189 2.21731 0
M  V30 6409 H 594.39 -6.03887 3.69766 0
M  V30 6410 H 594.798 -5.21374 2.16402 0
M  V30 6411 N 594.196 -1.08629 -1.14182 0
M  V30 6412 C 595.159 -0.722027 -2.1753 0
M  V30 6413 C 596.159 0.244305 -1.58933 0
M  V30 6414 O 597.349 0.0235545 -1.74184 0
M  V30 6415 C 594.481 -0.0663966 -3.40835 0
M  V30 6416 H 595.674 -1.63719 -2.51269 0
M  V30 6417 H 593.227 -0.884442 -1.28869 0
M  V30 6418 H 593.962 0.860389 -3.12678 0
M  V30 6419 H 593.747 -0.761598 -3.84632 0
M  V30 6420 H 595.237 0.173346 -4.1724 0
M  V30 6421 N 595.674 1.31259 -0.872281 0
M  V30 6422 C 596.951 1.91362 -0.404943 0
M  V30 6423 C 597.331 1.79362 1.11321 0
M  V30 6424 O 596.679 1.20277 1.94283 0
M  V30 6425 C 596.889 3.3749 -0.888893 0
M  V30 6426 C 598.237 4.14593 -0.916384 0
M  V30 6427 O 599.261 3.46282 -0.834701 0
M  V30 6428 O 598.12 5.3661 -1.03498 0
M  V30 6429 H 595.214 0.818016 -0.121569 0
M  V30 6430 H 597.76 1.39912 -0.960346 0
M  V30 6431 H 596.532 3.40249 -1.93251 0
M  V30 6432 H 596.155 3.96375 -0.311932 0
M  V30 6433 N 597.152 0.631951 1.44375 0
M  V30 6434 C 598.377 0.142146 2.06912 0
M  V30 6435 C 598.802 -1.17456 1.4692 0
M  V30 6436 O 598.16 -1.72074 0.570975 0
M  V30 6437 C 598.208 0.0417952 3.60576 0
M  V30 6438 O 597.312 -1.00194 4.00044 0
M  V30 6439 H 596.653 0.0851491 0.658518 0
M  V30 6440 H 599.183 0.868863 1.85235 0
M  V30 6441 H 599.193 -0.148517 4.0773 0
M  V30 6442 H 597.868 1.0031 4.03622 0
M  V30 6443 H 596.445 -0.786131 3.64519 0
M  V30 6444 N 598.631 -1.53133 0.372548 0
M  V30 6445 C 600.042 -1.86404 -0.105155 0
M  V30 6446 C 600.393 -1.29289 -1.47576 0
M  V30 6447 O 599.518 -0.617646 -2.07398 0
M  V30 6448 C 600.113 -3.38223 -0.197588 0
M  V30 6449 C 598.672 -3.71266 -0.619556 0
M  V30 6450 C 597.819 -2.76353 0.228919 0
M  V30 6451 H 600.77 -1.47282 0.591077 0
M  V30 6452 H 600.791 -3.66577 -1.01987 0
M  V30 6453 H 600.303 -3.79763 0.800099 0
M  V30 6454 H 598.404 -3.35287 -1.62522 0
M  V30 6455 H 598.517 -4.77515 -0.389332 0
M  V30 6456 H 596.881 -2.52888 -0.303271 0
M  V30 6457 H 597.664 -3.20728 1.22428 0
M  V30 6458 N 600.109 -0.101901 -1.5727 0
M  V30 6459 C 601.019 0.868647 -2.17926 0
M  V30 6460 C 602.035 1.30527 -1.1506 0
M  V30 6461 O 603.211 1.37178 -1.47459 0
M  V30 6462 C 600.276 2.10727 -2.75309 0
M  V30 6463 C 599.337 1.7242 -3.93154 0
M  V30 6464 C 598.57 2.90377 -4.47791 0
M  V30 6465 O 598.793 4.05305 -4.01353 0
M  V30 6466 O 597.727 2.6845 -5.38719 0
M  V30 6467 H 601.553 0.382544 -3.01281 0
M  V30 6468 H 599.138 0.122812 -1.48894 0
M  V30 6469 H 601.02 2.83303 -3.11958 0
M  V30 6470 H 599.695 2.58376 -1.94996 0
M  V30 6471 H 598.602 0.970039 -3.61305 0
M  V30 6472 H 599.935 1.29528 -4.74851 0
M  V30 6473 N 601.587 1.56661 0.17182 0
M  V30 6474 C 602.834 1.81965 0.888529 0
M  V30 6475 C 603.162 0.6789 1.82267 0
M  V30 6476 O 602.417 -0.333875 1.92831 0
M  V30 6477 C 602.716 3.13435 1.71736 0
M  V30 6478 C 602.382 4.41159 0.932184 0
M  V30 6479 C 601.044 4.75851 0.715481 0
M  V30 6480 C 603.396 5.19803 0.381387 0
M  V30 6481 C 600.724 5.86666 -0.063126 0
M  V30 6482 C 603.076 6.31433 -0.384129 0
M  V30 6483 C 601.74 6.64692 -0.611637 0
M  V30 6484 H 601.01 0.665859 0.325136 0
M  V30 6485 H 603.657 1.90884 0.153495 0
M  V30 6486 H 601.962 2.99857 2.52177 0
M  V30 6487 H 603.659 3.30224 2.27493 0
M  V30 6488 H 600.249 4.13947 1.11112 0
M  V30 6489 H 604.433 4.93396 0.536148 0
M  V30 6490 H 599.689 6.10892 -0.249136 0
M  V30 6491 H 603.863 6.91577 -0.818185 0
M  V30 6492 H 601.49 7.50398 -1.21684 0
M  V30 6493 N 603.065 -0.440357 1.51323 0
M  V30 6494 C 604.293 -1.21255 1.67645 0
M  V30 6495 C 604.708 -1.85088 0.37252 0
M  V30 6496 O 604.065 -1.70582 -0.648683 0
M  V30 6497 C 604.116 -2.29881 2.78993 0
M  V30 6498 O 603.837 -1.68659 4.04334 0
M  V30 6499 C 605.338 -3.20214 3.06558 0
M  V30 6500 H 602.558 -0.36558 0.562666 0
M  V30 6501 H 605.102 -0.52214 1.97722 0
M  V30 6502 H 603.257 -2.94643 2.51524 0
M  V30 6503 H 603.671 -2.40426 4.6615 0
M  V30 6504 H 605.145 -3.92575 3.88058 0
M  V30 6505 H 605.622 -3.80794 2.18844 0
M  V30 6506 H 606.228 -2.61156 3.35675 0
M  V30 6507 N 604.543 -1.41418 -0.695603 0
M  V30 6508 C 605.768 -1.44329 -1.48942 0
M  V30 6509 C 606.193 -0.0501579 -1.88033 0
M  V30 6510 O 605.551 0.946598 -1.54626 0
M  V30 6511 C 605.599 -2.3578 -2.72837 0
M  V30 6512 O 604.703 -1.81482 -3.70322 0
M  V30 6513 H 604.044 -0.489838 -0.44828 0
M  V30 6514 H 606.574 -1.85878 -0.855014 0
M  V30 6515 H 606.584 -2.51654 -3.21145 0
M  V30 6516 H 605.259 -3.37005 -2.43722 0
M  V30 6517 H 603.836 -1.75058 -3.29255 0
M  V30 6518 N 606.021 0.929856 -1.27246 0
M  V30 6519 C 607.27 1.67182 -1.12842 0
M  V30 6520 C 607.583 1.9287 0.325666 0
M  V30 6521 O 608.789 2.64999 0.590572 0
M  V30 6522 C 607.245 3.01097 -1.97151 0
M  V30 6523 C 606.853 2.83115 -3.47203 0
M  V30 6524 C 608.597 3.78907 -1.91389 0
M  V30 6525 C 606.504 4.12573 -4.23719 0
M  V30 6526 H 605.434 0.627064 -0.418697 0
M  V30 6527 H 608.085 1.0332 -1.51649 0
M  V30 6528 H 606.467 3.66004 -1.51186 0
M  V30 6529 H 607.641 2.26989 -4.01015 0
M  V30 6530 H 605.956 2.18736 -3.54321 0
M  V30 6531 H 608.553 4.74837 -2.45834 0
M  V30 6532 H 608.896 4.0674 -0.887047 0
M  V30 6533 H 609.429 3.20794 -2.35237 0
M  V30 6534 H 606.168 3.8992 -5.26918 0
M  V30 6535 H 605.688 4.68371 -3.74685 0
M  V30 6536 H 607.367 4.8095 -4.32777 0
M  V30 6537 N 607.499 1.09233 1.13605 0
M  V30 6538 C 608.91 0.846839 1.6639 0
M  V30 6539 C 609.261 -0.625031 1.85978 0
M  V30 6540 O 608.386 -1.48173 1.57714 0
M  V30 6541 C 608.981 1.5307 3.0225 0
M  V30 6542 C 607.54 1.33223 3.52035 0
M  V30 6543 C 606.687 1.58806 2.27323 0
M  V30 6544 H 609.638 1.25175 0.975541 0
M  V30 6545 H 609.659 0.96267 3.68121 0
M  V30 6546 H 609.171 2.60192 2.87961 0
M  V30 6547 H 607.272 0.282091 3.71531 0
M  V30 6548 H 607.385 2.0657 4.32279 0
M  V30 6549 H 605.749 1.01007 2.33815 0
M  V30 6550 H 606.532 2.67153 2.15602 0
M  V30 6551 N 608.977 -1.30795 0.87923 0
M  V30 6552 C 609.94 -2.26563 0.346676 0
M  V30 6553 C 610.94 -1.52578 -0.507597 0
M  V30 6554 O 612.13 -1.71318 -0.315575 0
M  V30 6555 C 609.262 -3.37115 -0.506611 0
M  V30 6556 H 610.455 -2.75183 1.19223 0
M  V30 6557 H 608.008 -1.41886 0.655598 0
M  V30 6558 H 608.743 -2.93802 -1.37299 0
M  V30 6559 H 608.528 -3.91959 0.105218 0
M  V30 6560 H 610.018 -4.08412 -0.871192 0
M  V30 6561 N 610.455 -0.639598 -1.44038 0
M  V30 6562 C 611.695 -0.150902 -2.03842 0
M  V30 6563 C 612.059 1.20744 -1.49281 0
M  V30 6564 O 613.26 1.78875 -2.00642 0
M  V30 6565 C 611.531 -0.146114 -3.57101 0
M  V30 6566 S 613.09 0.276725 -4.37927 0
M  V30 6567 H 609.908 -0.0652447 -0.708 0
M  V30 6568 H 612.51 -0.844886 -1.76301 0
M  V30 6569 H 611.214 -1.13769 -3.94316 0
M  V30 6570 H 610.745 0.568846 -3.89266 0
M  V30 6571 H 612.76 1.51893 -4.7238 0
M  V30 6572 N 611.933 1.52934 -0.380664 0
M  V30 6573 C 613.163 2.05587 0.204302 0
M  V30 6574 C 613.571 1.25288 1.41773 0
M  V30 6575 O 612.914 0.290394 1.8139 0
M  V30 6576 C 612.976 3.53624 0.647324 0
M  V30 6577 C 612.64 4.54765 -0.451465 0
M  V30 6578 C 613.637 5.03226 -1.30614 0
M  V30 6579 C 611.322 4.98508 -0.616025 0
M  V30 6580 C 613.316 5.94046 -2.31058 0
M  V30 6581 C 611.003 5.89131 -1.62381 0
M  V30 6582 C 612.001 6.36792 -2.46952 0
M  V30 6583 O 611.689 7.25626 -3.46009 0
M  V30 6584 H 611.421 0.675013 0.0365198 0
M  V30 6585 H 613.975 1.98125 -0.541827 0
M  V30 6586 H 612.205 3.58676 1.44529 0
M  V30 6587 H 613.894 3.89061 1.15698 0
M  V30 6588 H 614.66 4.70167 -1.19027 0
M  V30 6589 H 610.539 4.60989 0.0324987 0
M  V30 6590 H 614.083 6.3117 -2.97104 0
M  V30 6591 H 609.98 6.21603 -1.7401 0
M  V30 6592 H 610.748 7.43664 -3.41916 0
M  V30 6593 N 613.412 0.11024 1.57214 0
M  V30 6594 C 614.658 -0.544479 1.95977 0
M  V30 6595 C 615.013 -1.64845 0.992171 0
M  V30 6596 O 614.306 -1.91589 0.0206981 0
M  V30 6597 C 614.5 -1.13102 3.39032 0
M  V30 6598 C 614.329 -0.0854079 4.49619 0
M  V30 6599 C 613.099 0.343373 5.04132 0
M  V30 6600 C 615.297 0.692232 5.0962 0
M  V30 6601 N 613.279 1.37567 5.98288 0
M  V30 6602 C 614.65 1.57596 5.99636 0
M  V30 6603 C 616.705 0.744085 4.92309 0
M  V30 6604 C 615.408 2.50701 6.74197 0
M  V30 6605 C 617.434 1.6628 5.67543 0
M  V30 6606 C 616.796 2.53412 6.57238 0
M  V30 6607 H 612.895 -0.169124 0.763493 0
M  V30 6608 H 615.479 0.196326 1.93708 0
M  V30 6609 H 613.65 -1.84158 3.41965 0
M  V30 6610 H 615.382 -1.74934 3.64939 0
M  V30 6611 H 612.137 -0.0473277 4.73576 0
M  V30 6612 H 612.561 1.89048 6.50069 0
M  V30 6613 H 617.203 0.0845825 4.22715 0
M  V30 6614 H 614.921 3.17669 7.43043 0
M  V30 6615 H 618.507 1.70825 5.56156 0
M  V30 6616 H 617.387 3.23347 7.14434 0
M  V30 6617 N 614.89 -1.56749 -0.16351 0
M  V30 6618 C 616.136 -1.83597 -0.875436 0
M  V30 6619 C 616.491 -0.691907 -1.79528 0
M  V30 6620 O 615.784 0.311193 -1.89056 0
M  V30 6621 C 615.978 -3.14342 -1.70071 0
M  V30 6622 C 615.807 -4.41356 -0.862265 0
M  V30 6623 C 614.577 -5.02467 -0.534299 0
M  V30 6624 C 616.775 -5.1391 -0.200203 0
M  V30 6625 N 614.757 -6.13068 0.31947 0
M  V30 6626 C 616.128 -6.17862 0.514398 0
M  V30 6627 C 618.183 -4.97757 -0.119171 0
M  V30 6628 C 616.886 -7.07412 1.30236 0
M  V30 6629 C 618.912 -5.87756 0.655477 0
M  V30 6630 C 618.274 -6.91178 1.35842 0
M  V30 6631 H 614.373 -0.722702 -0.298708 0
M  V30 6632 H 616.957 -1.94182 -0.141883 0
M  V30 6633 H 615.128 -3.04933 -2.40562 0
M  V30 6634 H 616.86 -3.29156 -2.35453 0
M  V30 6635 H 613.615 -4.65611 -0.866222 0
M  V30 6636 H 614.039 -6.72978 0.736893 0
M  V30 6637 H 618.681 -4.178 -0.648278 0
M  V30 6638 H 616.399 -7.86808 1.84278 0
M  V30 6639 H 619.985 -5.77328 0.719948 0
M  V30 6640 H 618.865 -7.59614 1.94822 0
M  V30 6641 N 616.368 0.432326 -1.51554 0
M  V30 6642 C 617.331 1.50765 -1.72634 0
M  V30 6643 C 618.331 1.49334 -0.596314 0
M  V30 6644 O 619.521 1.51268 -0.863925 0
M  V30 6645 C 616.653 2.90284 -1.7874 0
M  V30 6646 H 617.846 1.33377 -2.68609 0
M  V30 6647 H 615.399 0.661329 -1.4162 0
M  V30 6648 H 616.134 3.13071 -0.845977 0
M  V30 6649 H 615.919 2.92727 -2.6087 0
M  V30 6650 H 617.409 3.68282 -1.96871 0
M  V30 6651 N 617.846 1.41785 0.688094 0
M  V30 6652 C 619.092 1.41753 1.4503 0
M  V30 6653 C 619.425 0.0290745 1.94178 0
M  V30 6654 O 618.7 -0.944456 1.7003 0
M  V30 6655 C 618.983 2.43069 2.65686 0
M  V30 6656 C 618.836 3.91053 2.22256 0
M  V30 6657 C 620.155 2.41543 3.67893 0
M  V30 6658 H 617.274 0.516202 0.526027 0
M  V30 6659 H 619.916 1.73111 0.783105 0
M  V30 6660 H 618.066 2.1646 3.2261 0
M  V30 6661 H 619.738 4.28594 1.70602 0
M  V30 6662 H 617.981 4.05559 1.53963 0
M  V30 6663 H 618.652 4.57501 3.08863 0
M  V30 6664 H 621.128 2.65175 3.20658 0
M  V30 6665 H 620.004 3.14434 4.49914 0
M  V30 6666 H 620.265 1.43666 4.18106 0
M  V30 6667 N 619.324 -0.923095 1.27737 0
M  V30 6668 C 620.573 -1.66581 1.13727 0
M  V30 6669 C 620.886 -1.9304 -0.315433 0
M  V30 6670 O 622.092 -2.65309 -0.57651 0
M  V30 6671 C 620.548 -3.00047 1.98745 0
M  V30 6672 C 620.156 -2.8127 3.48699 0
M  V30 6673 C 621.9 -3.77887 1.93395 0
M  V30 6674 C 619.807 -4.1032 4.25901 0
M  V30 6675 H 618.737 -0.624834 0.422017 0
M  V30 6676 H 621.388 -1.02514 1.52194 0
M  V30 6677 H 619.77 -3.65197 1.53125 0
M  V30 6678 H 620.944 -2.24859 4.02213 0
M  V30 6679 H 619.259 -2.16854 3.55476 0
M  V30 6680 H 621.856 -4.73526 2.48348 0
M  V30 6681 H 622.199 -4.06264 0.908605 0
M  V30 6682 H 622.732 -3.19541 2.36935 0
M  V30 6683 H 619.471 -3.8712 5.28978 0
M  V30 6684 H 618.991 -4.66377 3.77163 0
M  V30 6685 H 620.67 -4.78648 4.35321 0
M  V30 6686 N 620.802 -1.09834 -1.13024 0
M  V30 6687 C 622.03 -0.858902 -1.8823 0
M  V30 6688 C 622.445 0.590164 -1.79339 0
M  V30 6689 O 621.802 1.4065 -1.16292 0
M  V30 6690 C 621.853 -1.29066 -3.37675 0
M  V30 6691 O 621.574 -2.6829 -3.46341 0
M  V30 6692 C 623.075 -1.08421 -4.29837 0
M  V30 6693 H 620.295 -0.308713 -0.595766 0
M  V30 6694 H 622.839 -1.4614 -1.4305 0
M  V30 6695 H 620.994 -0.731961 -3.80422 0
M  V30 6696 H 621.408 -2.86598 -4.39274 0
M  V30 6697 H 622.882 -1.43553 -5.33007 0
M  V30 6698 H 623.359 -0.0223315 -4.39194 0
M  V30 6699 H 623.965 -1.62907 -3.92863 0
M  V30 6700 N 622.28 1.30327 -0.886154 0
M  V30 6701 C 623.213 2.26241 -0.298407 0
M  V30 6702 C 624.191 1.51839 0.581704 0
M  V30 6703 O 625.375 1.80851 0.531536 0
M  V30 6704 C 622.502 3.33768 0.575888 0
M  V30 6705 C 621.548 4.25852 -0.235057 0
M  V30 6706 S 622.381 5.10277 -1.62411 0
M  V30 6707 C 623.537 6.21313 -0.756368 0
M  V30 6708 H 623.77 2.75744 -1.11141 0
M  V30 6709 H 621.303 1.38341 -0.685651 0
M  V30 6710 H 623.261 3.96186 1.07458 0
M  V30 6711 H 621.922 2.82986 1.363 0
M  V30 6712 H 621.115 5.02143 0.432198 0
M  V30 6713 H 620.717 3.68015 -0.666409 0
M  V30 6714 H 623.009 6.77495 0.0261451 0
M  V30 6715 H 623.952 6.92226 -1.49093 0
M  V30 6716 H 624.36 5.63611 -0.316749 0
M  V30 6717 N 623.758 0.647228 1.43697 0
M  V30 6718 C 624.986 0.16575 2.06235 0
M  V30 6719 C 625.401 -1.1662 1.48476 0
M  V30 6720 O 624.758 -1.7187 0.613762 0
M  V30 6721 C 624.809 0.0621651 3.61447 0
M  V30 6722 O 624.53 1.34146 4.17057 0
M  V30 6723 C 626.031 -0.446102 4.4105 0
M  V30 6724 H 623.251 0.0871158 0.665321 0
M  V30 6725 H 625.795 0.886183 1.84301 0
M  V30 6726 H 623.95 -0.608794 3.82587 0
M  V30 6727 H 624.364 1.19675 5.10664 0
M  V30 6728 H 625.838 -0.46755 5.50016 0
M  V30 6729 H 626.315 -1.47627 4.13646 0
M  V30 6730 H 626.921 0.192159 4.24866 0
M  V30 6731 N 625.236 -1.5273 0.388769 0
M  V30 6732 C 626.464 -2.05992 -0.193677 0
M  V30 6733 C 626.879 -1.26053 -1.40557 0
M  V30 6734 O 626.236 -0.307049 -1.79898 0
M  V30 6735 C 626.287 -3.57068 -0.564321 0
M  V30 6736 O 626.008 -4.3398 0.599422 0
M  V30 6737 C 627.509 -4.26674 -1.20269 0
M  V30 6738 H 624.729 -0.670358 -0.0293445 0
M  V30 6739 H 627.273 -1.96857 0.553844 0
M  V30 6740 H 625.428 -3.66277 -1.26174 0
M  V30 6741 H 625.842 -5.2367 0.294895 0
M  V30 6742 H 627.316 -5.33625 -1.4124 0
M  V30 6743 H 627.793 -3.81854 -2.16989 0
M  V30 6744 H 628.399 -4.2178 -0.546047 0
M  V30 6745 N 626.714 -0.118576 -1.57153 0
M  V30 6746 C 627.96 0.540326 -1.95469 0
M  V30 6747 C 628.293 1.66356 -1.00196 0
M  V30 6748 O 627.568 1.94461 -0.039104 0
M  V30 6749 C 627.851 1.07342 -3.43729 0
M  V30 6750 C 627.704 -0.0463732 -4.49776 0
M  V30 6751 C 629.023 1.96442 -3.93826 0
M  V30 6752 H 626.142 0.19494 -0.710751 0
M  V30 6753 H 628.784 -0.19405 -1.89006 0
M  V30 6754 H 626.934 1.69925 -3.49368 0
M  V30 6755 H 628.606 -0.681648 -4.56236 0
M  V30 6756 H 626.849 -0.709574 -4.27957 0
M  V30 6757 H 627.52 0.367856 -5.50773 0
M  V30 6758 H 629.996 1.43731 -3.90488 0
M  V30 6759 H 628.872 2.3066 -4.98084 0
M  V30 6760 H 629.133 2.89077 -3.34495 0
M  V30 6761 N 628.193 1.56834 0.155195 0
M  V30 6762 C 629.441 1.82536 0.867462 0
M  V30 6763 C 629.762 0.698168 1.82073 0
M  V30 6764 O 629.032 -0.280807 1.93877 0
M  V30 6765 H 627.612 0.673401 0.323327 0
M  V30 6766 H 630.274 1.94313 0.151156 0
M  V30 6767 H 629.37 2.77171 1.43466 0
M  V30 6768 N 629.671 -0.424282 1.51781 0
M  V30 6769 C 630.901 -1.19297 1.68677 0
M  V30 6770 C 631.309 -1.85152 0.389258 0
M  V30 6771 O 630.652 -1.72067 -0.643311 0
M  V30 6772 C 630.714 -2.30929 2.75521 0
M  V30 6773 C 630.378 -1.85335 4.17732 0
M  V30 6774 C 631.375 -1.34951 5.0208 0
M  V30 6775 C 629.06 -1.92629 4.63896 0
M  V30 6776 C 631.054 -0.924636 6.30658 0
M  V30 6777 C 628.741 -1.49754 5.92467 0
M  V30 6778 C 629.739 -0.997543 6.75676 0
M  V30 6779 O 629.427 -0.57492 8.01842 0
M  V30 6780 H 629.159 -0.36512 0.568914 0
M  V30 6781 H 631.713 -0.507327 1.99036 0
M  V30 6782 H 629.943 -3.02811 2.40505 0
M  V30 6783 H 631.632 -2.92748 2.81165 0
M  V30 6784 H 632.398 -1.287 4.67612 0
M  V30 6785 H 628.277 -2.30491 3.99243 0
M  V30 6786 H 631.821 -0.533682 6.95556 0
M  V30 6787 H 627.718 -1.55679 6.26446 0
M  V30 6788 H 628.486 -0.699597 8.15505 0
M  V30 6789 N 631.149 -1.42148 -0.680565 0
M  V30 6790 C 632.397 -1.42029 -1.43779 0
M  V30 6791 C 632.718 -0.0356347 -1.94967 0
M  V30 6792 O 631.988 0.924936 -1.7269 0
M  V30 6793 H 630.568 -0.522835 -0.533529 0
M  V30 6794 H 633.23 -1.7752 -0.804538 0
M  V30 6795 H 632.326 -2.11658 -2.29363 0
M  V30 6796 N 632.627 0.916307 -1.28225 0
M  V30 6797 C 633.904 1.64429 -1.05936 0
M  V30 6798 C 634.284 2.07234 0.402139 0
M  V30 6799 O 633.632 1.81535 1.3877 0
M  V30 6800 C 633.842 2.83773 -2.03159 0
M  V30 6801 C 635.19 3.54852 -2.33164 0
M  V30 6802 O 636.214 2.93918 -2.01223 0
M  V30 6803 O 635.073 4.64663 -2.87664 0
M  V30 6804 H 632.167 0.721221 -0.404683 0
M  V30 6805 H 634.713 0.965838 -1.39534 0
M  V30 6806 H 633.485 2.49217 -3.01673 0
M  V30 6807 H 633.108 3.59333 -1.70192 0
M  V30 6808 N 634.105 1.10431 1.1244 0
M  V30 6809 C 635.038 0.696987 2.17296 0
M  V30 6810 C 636.016 -0.301673 1.59777 0
M  V30 6811 O 637.2 -0.200583 1.8743 0
M  V30 6812 C 634.327 0.0284094 3.38688 0
M  V30 6813 C 633.373 0.990536 4.14838 0
M  V30 6814 S 634.206 2.50785 4.73146 0
M  V30 6815 C 635.362 1.85198 5.97873 0
M  V30 6816 H 635.595 1.58523 2.51511 0
M  V30 6817 H 633.128 0.921312 1.239 0
M  V30 6818 H 635.086 -0.351009 4.08997 0
M  V30 6819 H 633.747 -0.836629 3.02753 0
M  V30 6820 H 632.94 0.469991 5.01804 0
M  V30 6821 H 632.542 1.31186 3.50237 0
M  V30 6822 H 634.834 1.18217 6.67106 0
M  V30 6823 H 635.777 2.7012 6.54554 0
M  V30 6824 H 636.185 1.31653 5.48933 0
M  V30 6825 N 635.583 -1.29855 0.893053 0
M  V30 6826 C 636.829 -1.96116 0.516349 0
M  V30 6827 C 637.162 -1.70281 -0.933695 0
M  V30 6828 O 636.437 -1.01205 -1.66096 0
M  V30 6829 C 636.72 -3.51068 0.801455 0
M  V30 6830 C 636.573 -3.86387 2.30272 0
M  V30 6831 C 637.892 -4.39186 0.283423 0
M  V30 6832 H 635.011 -0.712335 0.189072 0
M  V30 6833 H 637.653 -1.53587 1.11852 0
M  V30 6834 H 635.803 -3.87424 0.288949 0
M  V30 6835 H 637.475 -3.60012 2.88425 0
M  V30 6836 H 635.718 -3.34167 2.76613 0
M  V30 6837 H 636.389 -4.94512 2.45279 0
M  V30 6838 H 638.865 -4.09785 0.722187 0
M  V30 6839 H 637.741 -5.46505 0.512169 0
M  V30 6840 H 638.002 -4.34511 -0.815643 0
M  V30 6841 N 637.061 -0.65484 -1.43351 0
M  V30 6842 C 638.472 -0.248506 -1.85039 0
M  V30 6843 C 638.823 1.20526 -1.54816 0
M  V30 6844 O 637.948 1.92016 -0.99794 0
M  V30 6845 C 638.543 -0.444241 -3.35875 0
M  V30 6846 C 637.102 -0.0922108 -3.76287 0
M  V30 6847 C 636.249 -0.746327 -2.67068 0
M  V30 6848 H 639.2 -0.8584 -1.33481 0
M  V30 6849 H 639.221 0.309762 -3.79237 0
M  V30 6850 H 638.733 -1.50239 -3.5784 0
M  V30 6851 H 636.834 0.96328 -3.59933 0
M  V30 6852 H 636.947 -0.518807 -4.76283 0
M  V30 6853 H 635.311 -0.179416 -2.54067 0
M  V30 6854 H 636.094 -1.80754 -2.91861 0
M  V30 6855 N 638.539 1.52521 -0.396863 0
M  V30 6856 C 639.955 1.5953 -0.0471659 0
M  V30 6857 C 640.155 1.41044 1.43906 0
M  V30 6858 O 639.211 1.23122 2.20448 0
M  V30 6859 C 640.524 2.95972 -0.531113 0
M  V30 6860 C 642.072 3.09172 -0.488024 0
M  V30 6861 C 642.547 4.48075 -0.948281 0
M  V30 6862 N 644.038 4.54281 -0.9046 0
M  V30 6863 C 644.773 5.60007 -1.23205 0
M  V30 6864 N 644.269 6.73343 -1.63036 0
M  V30 6865 N 646.062 5.50151 -1.15282 0
M  V30 6866 H 638.213 1.62786 -1.36435 0
M  V30 6867 H 640.476 0.76514 -0.559701 0
M  V30 6868 H 640.182 3.14741 -1.56942 0
M  V30 6869 H 640.056 3.77143 0.0657922 0
M  V30 6870 H 642.443 2.90095 0.541211 0
M  V30 6871 H 642.524 2.29937 -1.12083 0
M  V30 6872 H 642.168 4.67894 -1.97578 0
M  V30 6873 H 642.098 5.25788 -0.292412 0
M  V30 6874 H 644.589 3.72918 -0.6116 0
M  V30 6875 H 644.902 7.49992 -1.86365 0
M  V30 6876 H 643.247 6.74655 -1.66929 0
M  V30 6877 H 646.438 4.6049 -0.840602 0
M  V30 6878 H 646.611 6.32444 -1.41133 0
M  V30 6879 N 640.017 0.126909 1.57088 0
M  V30 6880 C 641.242 -0.53997 2.00248 0
M  V30 6881 C 641.667 -1.58927 1.00618 0
M  V30 6882 O 641.025 -1.81288 -0.0210131 0
M  V30 6883 C 641.073 -1.13565 3.4225 0
M  V30 6884 O 640.177 -2.25103 3.45547 0
M  V30 6885 H 639.518 -0.13412 0.650314 0
M  V30 6886 H 642.048 0.217718 2.03438 0
M  V30 6887 H 642.058 -1.46925 3.80627 0
M  V30 6888 H 640.733 -0.367122 4.14277 0
M  V30 6889 H 639.31 -1.93123 3.18995 0
M  V30 6890 N 641.495 -1.56914 -0.146875 0
M  V30 6891 C 642.723 -1.87515 -0.874394 0
M  V30 6892 C 643.138 -0.715116 -1.74733 0
M  V30 6893 O 642.495 0.315113 -1.79759 0
M  V30 6894 C 642.546 -3.17362 -1.731 0
M  V30 6895 O 642.267 -4.28897 -0.893245 0
M  V30 6896 C 643.768 -3.61479 -2.56609 0
M  V30 6897 H 640.988 -0.621546 -0.252827 0
M  V30 6898 H 643.532 -2.04023 -0.139627 0
M  V30 6899 H 641.687 -3.02608 -2.41883 0
M  V30 6900 H 642.101 -5.03146 -1.48137 0
M  V30 6901 H 643.575 -4.5517 -3.12289 0
M  V30 6902 H 644.052 -2.86773 -3.32653 0
M  V30 6903 H 644.658 -3.78927 -1.93117 0
M  V30 6904 N 642.974 0.416227 -1.52004 0
M  V30 6905 C 644.385 0.995319 -1.57957 0
M  V30 6906 C 644.736 1.91744 -0.415754 0
M  V30 6907 O 643.861 2.11349 0.464808 0
M  V30 6908 C 644.456 1.81191 -2.86278 0
M  V30 6909 C 643.015 2.34115 -2.94732 0
M  V30 6910 C 642.162 1.139 -2.52828 0
M  V30 6911 H 645.113 0.196716 -1.57476 0
M  V30 6912 H 645.134 2.66859 -2.71231 0
M  V30 6913 H 644.646 1.14051 -3.70963 0
M  V30 6914 H 642.747 3.04647 -2.14525 0
M  V30 6915 H 642.86 2.65466 -3.98829 0
M  V30 6916 H 641.224 1.49081 -2.06511 0
M  V30 6917 H 642.007 0.483383 -3.3988 0
M  V30 6918 N 644.452 1.42507 0.673017 0
M  V30 6919 C 645.7 1.42789 1.43023 0
M  V30 6920 C 646.021 0.0459738 1.94946 0
M  V30 6921 O 645.291 -0.915765 1.73178 0
M  V30 6922 H 643.871 0.525657 0.530748 0
M  V30 6923 H 646.533 1.77944 0.795113 0
M  V30 6924 H 645.629 2.12872 2.28237 0
M  V30 6925 N 645.93 -0.909495 1.28709 0
M  V30 6926 C 646.862 -2.01729 1.08804 0
M  V30 6927 C 647.875 -1.62755 0.0384739 0
M  V30 6928 O 649.064 -1.76259 0.281977 0
M  V30 6929 C 646.164 -3.32952 0.63217 0
M  V30 6930 C 645.337 -4.00512 1.75809 0
M  V30 6931 C 644.396 -5.10019 1.29488 0
M  V30 6932 O 643.422 -5.32986 1.99787 0
M  V30 6933 N 644.624 -5.80278 0.1604 0
M  V30 6934 H 647.389 -2.19362 2.04207 0
M  V30 6935 H 644.95 -1.08106 1.20518 0
M  V30 6936 H 646.942 -4.03543 0.305802 0
M  V30 6937 H 645.512 -3.11759 -0.229134 0
M  V30 6938 H 644.732 -3.23413 2.25383 0
M  V30 6939 H 646.02 -4.42395 2.51325 0
M  V30 6940 H 645.418 -5.64094 -0.425937 0
M  V30 6941 H 643.975 -6.51713 -0.106663 0
M  V30 6942 N 647.408 -1.11026 -1.11852 0
M  V30 6943 C 648.654 -0.857729 -1.83768 0
M  V30 6944 C 648.987 0.615143 -1.842 0
M  V30 6945 O 648.262 1.45391 -1.29196 0
M  V30 6946 C 648.545 -1.41453 -3.31154 0
M  V30 6947 C 648.398 -2.95471 -3.39142 0
M  V30 6948 C 649.717 -1.0619 -4.27097 0
M  V30 6949 H 646.836 -0.313044 -0.667212 0
M  V30 6950 H 649.478 -1.37443 -1.31185 0
M  V30 6951 H 647.628 -0.975052 -3.76065 0
M  V30 6952 H 649.3 -3.4799 -3.02821 0
M  V30 6953 H 647.543 -3.31759 -2.79497 0
M  V30 6954 H 648.214 -3.29515 -4.42859 0
M  V30 6955 H 650.69 -1.44122 -3.90344 0
M  V30 6956 H 649.566 -1.47832 -5.28618 0
M  V30 6957 H 649.827 0.0278912 -4.42091 0
M  V30 6958 N 648.886 1.2938 -0.899927 0
M  V30 6959 C 650.132 1.9584 -0.526742 0
M  V30 6960 C 650.465 1.70774 0.924651 0
M  V30 6961 O 649.74 1.02084 1.65557 0
M  V30 6962 C 650.023 3.50638 -0.820062 0
M  V30 6963 C 649.876 3.85161 -2.32317 0
M  V30 6964 C 651.195 4.3903 -0.30671 0
M  V30 6965 H 648.314 0.711322 -0.192848 0
M  V30 6966 H 650.956 1.52992 -1.12665 0
M  V30 6967 H 649.106 3.87265 -0.309491 0
M  V30 6968 H 650.778 3.58477 -2.9033 0
M  V30 6969 H 649.021 3.32696 -2.78381 0
M  V30 6970 H 649.692 4.93204 -2.47898 0
M  V30 6971 H 652.168 4.09396 -0.743908 0
M  V30 6972 H 651.044 5.46226 -0.541144 0
M  V30 6973 H 651.305 4.34937 0.792588 0
M  V30 6974 N 650.364 0.662433 1.43002 0
M  V30 6975 C 651.327 -0.0142016 2.29196 0
M  V30 6976 C 652.327 -0.741394 1.42688 0
M  V30 6977 O 653.517 -0.581257 1.64216 0
M  V30 6978 C 650.649 -1.03084 3.24941 0
M  V30 6979 H 651.842 0.7443 2.90517 0
M  V30 6980 H 649.395 0.424133 1.50435 0
M  V30 6981 H 650.13 -1.81826 2.68533 0
M  V30 6982 H 649.915 -0.512946 3.8873 0
M  V30 6983 H 651.405 -1.50308 3.89612 0
M  V30 6984 N 651.842 -1.52309 0.404946 0
M  V30 6985 C 652.772 -2.29805 -0.41376 0
M  V30 6986 C 653.753 -1.3384 -1.0498 0
M  V30 6987 O 654.938 -1.62745 -1.05961 0
M  V30 6988 C 652.068 -3.11639 -1.53292 0
M  V30 6989 C 651.022 -4.15616 -1.02211 0
M  V30 6990 C 650.348 -4.8577 -2.23455 0
M  V30 6991 C 651.648 -5.2224 -0.0790725 0
M  V30 6992 H 653.342 -2.98493 0.232878 0
M  V30 6993 H 650.888 -1.43552 0.113441 0
M  V30 6994 H 652.841 -3.64618 -2.11262 0
M  V30 6995 H 651.565 -2.40712 -2.20738 0
M  V30 6996 H 650.224 -3.63641 -0.46484 0
M  V30 6997 H 649.872 -4.11376 -2.89445 0
M  V30 6998 H 649.572 -5.56058 -1.89929 0
M  V30 6999 H 651.096 -5.4156 -2.82038 0
M  V30 7000 H 652.51 -5.70485 -0.567438 0
M  V30 7001 H 650.907 -5.99867 0.167167 0
M  V30 7002 H 651.977 -4.77078 0.867447 0
M  V30 7003 N 653.32 -0.135238 -1.57019 0
M  V30 7004 C 654.545 0.529343 -2.00531 0
M  V30 7005 C 654.97 1.58391 -1.01459 0
M  V30 7006 O 654.328 1.81296 0.0113986 0
M  V30 7007 C 654.376 1.11748 -3.42848 0
M  V30 7008 O 653.48 2.23267 -3.46736 0
M  V30 7009 H 652.821 0.130669 -0.651016 0
M  V30 7010 H 655.351 -0.228503 -2.0332 0
M  V30 7011 H 655.361 1.44905 -3.81401 0
M  V30 7012 H 654.036 0.345147 -4.14465 0
M  V30 7013 H 652.613 1.91428 -3.20015 0
M  V30 7014 N 654.798 1.5699 0.138552 0
M  V30 7015 C 656.023 1.88344 0.86841 0
M  V30 7016 C 656.448 0.725159 1.7356 0
M  V30 7017 O 655.806 -0.324992 1.78363 0
M  V30 7018 C 655.854 3.18334 1.69398 0
M  V30 7019 O 654.958 3.02863 2.79907 0
M  V30 7020 H 654.299 0.618577 0.241367 0
M  V30 7021 H 656.829 2.04207 0.126826 0
M  V30 7022 H 656.839 3.50567 2.08726 0
M  V30 7023 H 655.514 4.02238 1.05725 0
M  V30 7024 H 654.091 2.82056 2.43924 0
M  V30 7025 N 656.276 -0.40816 1.52223 0
M  V30 7026 C 657.525 -1.15212 1.65557 0
M  V30 7027 C 657.838 -1.9163 0.392096 0
M  V30 7028 O 659.044 -2.68458 0.405256 0
M  V30 7029 C 657.5 -2.09691 2.92502 0
M  V30 7030 C 657.108 -1.38785 4.25961 0
M  V30 7031 C 658.852 -2.8434 3.152 0
M  V30 7032 C 656.759 -2.31919 5.44029 0
M  V30 7033 H 655.689 -0.433776 0.616729 0
M  V30 7034 H 658.34 -0.4165 1.78711 0
M  V30 7035 H 656.722 -2.8681 2.7305 0
M  V30 7036 H 657.896 -0.670248 4.55899 0
M  V30 7037 H 656.211 -0.761741 4.09373 0
M  V30 7038 H 658.808 -3.54166 4.00587 0
M  V30 7039 H 659.151 -3.47344 2.29473 0
M  V30 7040 H 659.684 -2.14321 3.35129 0
M  V30 7041 H 656.423 -1.7356 6.32105 0
M  V30 7042 H 655.943 -3.0165 5.18428 0
M  V30 7043 H 657.622 -2.92424 5.77146 0
M  V30 7044 N 657.755 -1.42862 -0.66545 0
M  V30 7045 C 658.685 -1.49867 -1.79059 0
M  V30 7046 C 659.666 -0.354394 -1.66367 0
M  V30 7047 O 660.851 -0.569969 -1.85647 0
M  V30 7048 C 657.981 -1.40943 -3.17415 0
M  V30 7049 C 656.935 -2.53495 -3.44854 0
M  V30 7050 C 656.261 -2.29626 -4.82883 0
M  V30 7051 C 657.561 -3.95781 -3.40815 0
M  V30 7052 H 659.255 -2.44037 -1.73453 0
M  V30 7053 H 656.801 -1.17456 -0.833071 0
M  V30 7054 H 658.754 -1.4445 -3.95869 0
M  V30 7055 H 657.478 -0.432716 -3.23721 0
M  V30 7056 H 656.137 -2.4932 -2.68766 0
M  V30 7057 H 655.785 -1.30226 -4.8585 0
M  V30 7058 H 655.485 -3.05065 -5.02204 0
M  V30 7059 H 657.009 -2.34897 -5.63609 0
M  V30 7060 H 658.423 -4.01508 -4.09224 0
M  V30 7061 H 656.82 -4.71148 -3.71672 0
M  V30 7062 H 657.89 -4.21786 -2.39216 0
M  V30 7063 N 659.233 0.902656 -1.29189 0
M  V30 7064 C 660.458 1.69167 -1.19989 0
M  V30 7065 C 660.883 1.86607 0.236495 0
M  V30 7066 O 660.241 1.38425 1.17082 0
M  V30 7067 C 660.289 3.05532 -1.91527 0
M  V30 7068 O 659.393 3.93621 -1.2303 0
M  V30 7069 H 658.734 0.517584 -0.415936 0
M  V30 7070 H 661.264 1.12785 -1.70706 0
M  V30 7071 H 661.274 3.55693 -1.99866 0
M  V30 7072 H 659.949 2.92156 -2.96003 0
M  V30 7073 H 658.526 3.52055 -1.22928 0
M  V30 7074 N 660.711 1.11618 1.11262 0
M  V30 7075 C 661.959 0.864469 1.82678 0
M  V30 7076 C 662.28 -0.611564 1.85162 0
M  V30 7077 O 661.55 -1.44429 1.32352 0
M  V30 7078 H 660.13 0.316821 0.676486 0
M  V30 7079 H 662.792 1.40894 1.34666 0
M  V30 7080 H 661.888 1.23832 2.86482 0
M  V30 7081 N 662.189 -1.289 0.906776 0
M  V30 7082 C 663.438 -1.9455 0.532262 0
M  V30 7083 C 663.751 -1.72219 -0.927353 0
M  V30 7084 O 664.957 -2.32033 -1.40971 0
M  V30 7085 C 663.413 -3.48438 0.901041 0
M  V30 7086 C 663.021 -3.79558 2.37991 0
M  V30 7087 C 664.765 -4.20284 0.596777 0
M  V30 7088 C 662.672 -5.26723 2.68918 0
M  V30 7089 H 661.602 -0.728259 0.195333 0
M  V30 7090 H 664.253 -1.46519 1.10474 0
M  V30 7091 H 662.635 -3.95162 0.257419 0
M  V30 7092 H 663.809 -3.43668 3.06967 0
M  V30 7093 H 662.124 -3.20868 2.65391 0
M  V30 7094 H 664.721 -5.28612 0.8046 0
M  V30 7095 H 665.064 -4.13694 -0.465072 0
M  V30 7096 H 665.597 -3.79315 1.19855 0
M  V30 7097 H 662.336 -5.38384 3.73928 0
M  V30 7098 H 661.856 -5.63836 2.04571 0
M  V30 7099 H 663.535 -5.94391 2.55555 0
M  V30 7100 N 663.667 -0.670007 -1.42649 0
M  V30 7101 C 664.597 -0.00258501 -2.335 0
M  V30 7102 C 665.578 0.794364 -1.50412 0
M  V30 7103 O 666.763 0.75248 -1.79029 0
M  V30 7104 C 663.893 0.952748 -3.33976 0
M  V30 7105 C 662.847 0.264733 -4.2718 0
M  V30 7106 C 662.173 1.33267 -5.17826 0
M  V30 7107 C 663.473 -0.853289 -5.15283 0
M  V30 7108 H 665.167 -0.761326 -2.89559 0
M  V30 7109 H 662.713 -0.367561 -1.3923 0
M  V30 7110 H 664.666 1.4287 -3.96442 0
M  V30 7111 H 663.39 1.74285 -2.7621 0
M  V30 7112 H 662.049 -0.190938 -3.66102 0
M  V30 7113 H 661.697 2.11464 -4.5639 0
M  V30 7114 H 661.397 0.877476 -5.81011 0
M  V30 7115 H 662.921 1.80965 -5.83167 0
M  V30 7116 H 664.335 -0.458763 -5.71462 0
M  V30 7117 H 662.732 -1.23398 -5.87276 0
M  V30 7118 H 663.802 -1.70412 -4.53969 0
M  V30 7119 N 665.145 1.52092 -0.413018 0
M  V30 7120 C 666.075 2.30021 0.401567 0
M  V30 7121 C 667.056 1.34395 1.04269 0
M  V30 7122 O 668.241 1.63304 1.05097 0
M  V30 7123 C 665.371 3.12447 1.51638 0
M  V30 7124 C 664.325 4.16153 1.00005 0
M  V30 7125 C 663.651 4.86948 2.20875 0
M  V30 7126 C 664.951 5.22275 0.0513757 0
M  V30 7127 H 666.645 2.98365 -0.248704 0
M  V30 7128 H 664.191 1.4349 -0.121052 0
M  V30 7129 H 666.144 3.65733 2.09326 0
M  V30 7130 H 664.868 2.41879 2.19458 0
M  V30 7131 H 663.527 3.63882 0.445549 0
M  V30 7132 H 663.175 4.12905 2.8726 0
M  V30 7133 H 662.875 5.57057 1.86978 0
M  V30 7134 H 664.399 5.43048 2.79162 0
M  V30 7135 H 665.813 5.70778 0.537176 0
M  V30 7136 H 664.21 5.9977 -0.198977 0
M  V30 7137 H 665.28 4.76611 -0.892736 0
M  V30 7138 N 666.623 0.143563 1.56945 0
M  V30 7139 C 667.556 -0.835367 2.1236 0
M  V30 7140 C 668.534 -1.24466 1.04627 0
M  V30 7141 O 669.718 -1.34138 1.32436 0
M  V30 7142 C 666.845 -2.12123 2.64048 0
M  V30 7143 C 665.891 -1.85812 3.83896 0
M  V30 7144 S 666.724 -1.05222 5.25061 0
M  V30 7145 C 667.88 -2.34935 5.80135 0
M  V30 7146 H 668.113 -0.364109 2.95062 0
M  V30 7147 H 665.646 -0.0706601 1.54238 0
M  V30 7148 H 667.604 -2.85993 2.94479 0
M  V30 7149 H 666.265 -2.56364 1.81483 0
M  V30 7150 H 665.458 -2.81151 4.18294 0
M  V30 7151 H 665.06 -1.20052 3.54208 0
M  V30 7152 H 667.352 -3.3061 5.91357 0
M  V30 7153 H 668.295 -2.05046 6.77762 0
M  V30 7154 H 668.703 -2.45426 5.08356 0
M  V30 7155 N 668.101 -1.57061 -0.130224 0
M  V30 7156 C 669.064 -1.98593 -1.14426 0
M  V30 7157 C 670.064 -0.874584 -1.34936 0
M  V30 7158 O 671.254 -1.14086 -1.31643 0
M  V30 7159 C 668.386 -2.31639 -2.50112 0
M  V30 7160 H 669.579 -2.89374 -0.787561 0
M  V30 7161 H 667.132 -1.51756 -0.374146 0
M  V30 7162 H 667.867 -1.43703 -2.90723 0
M  V30 7163 H 667.652 -3.12684 -2.36583 0
M  V30 7164 H 669.142 -2.64551 -3.23114 0
M  V30 7165 N 669.579 0.400081 -1.52437 0
M  V30 7166 C 670.826 1.14619 -1.6694 0
M  V30 7167 C 671.154 1.90262 -0.403797 0
M  V30 7168 O 670.409 1.85835 0.61351 0
M  V30 7169 C 670.708 2.15914 -2.84808 0
M  V30 7170 C 670.374 1.57011 -4.2268 0
M  V30 7171 C 669.036 1.40672 -4.60179 0
M  V30 7172 C 671.388 1.14081 -5.08562 0
M  V30 7173 C 668.716 0.799335 -5.81229 0
M  V30 7174 C 671.068 0.547573 -6.30226 0
M  V30 7175 C 669.732 0.371389 -6.66466 0
M  V30 7176 H 669.002 0.419419 -0.610875 0
M  V30 7177 H 671.649 0.432227 -1.86558 0
M  V30 7178 H 669.954 2.93488 -2.59561 0
M  V30 7179 H 671.651 2.73533 -2.93225 0
M  V30 7180 H 668.241 1.70713 -3.93135 0
M  V30 7181 H 672.425 1.2551 -4.80168 0
M  V30 7182 H 667.681 0.65093 -6.07925 0
M  V30 7183 H 671.855 0.206575 -6.96094 0
M  V30 7184 H 669.482 -0.10135 -7.60132 0
M  V30 7185 N 671.057 1.43213 0.657864 0
M  V30 7186 C 672.468 1.39669 1.23893 0
M  V30 7187 C 672.819 0.0984217 1.95953 0
M  V30 7188 O 671.944 -0.8023 2.00978 0
M  V30 7189 C 672.539 2.53004 2.25332 0
M  V30 7190 C 671.098 2.5274 2.78926 0
M  V30 7191 C 670.245 2.30941 1.53497 0
M  V30 7192 H 673.196 1.52181 0.450172 0
M  V30 7193 H 673.217 2.24226 3.07413 0
M  V30 7194 H 672.729 3.4748 1.72856 0
M  V30 7195 H 670.83 1.6213 3.35477 0
M  V30 7196 H 670.943 3.50352 3.26787 0
M  V30 7197 H 669.307 1.7952 1.80678 0
M  V30 7198 H 670.09 3.27496 1.02963 0
M  V30 7199 N 672.536 -0.895792 1.29666 0
M  V30 7200 C 673.782 -1.64908 1.18039 0
M  V30 7201 C 674.115 -1.9236 -0.266682 0
M  V30 7202 O 673.39 -1.53682 -1.19214 0
M  V30 7203 C 673.673 -2.99574 1.99819 0
M  V30 7204 C 673.526 -2.79163 3.52687 0
M  V30 7205 C 674.845 -4.00358 1.82761 0
M  V30 7206 H 671.964 -0.598437 0.430165 0
M  V30 7207 H 674.606 -1.03736 1.59182 0
M  V30 7208 H 672.756 -3.51786 1.64859 0
M  V30 7209 H 674.428 -2.33821 3.9765 0
M  V30 7210 H 672.671 -2.13871 3.77414 0
M  V30 7211 H 673.342 -3.74871 4.05186 0
M  V30 7212 H 675.818 -3.57268 2.13304 0
M  V30 7213 H 674.694 -4.92514 2.42325 0
M  V30 7214 H 674.955 -4.35096 0.783839 0
M  V30 7215 N 674.014 -1.12206 -1.10668 0
M  V30 7216 C 675.242 -0.898635 -1.86366 0
M  V30 7217 C 675.657 0.551991 -1.80551 0
M  V30 7218 O 675.014 1.38152 -1.19249 0
M  V30 7219 C 675.065 -1.36199 -3.34861 0
M  V30 7220 O 674.786 -2.75576 -3.40573 0
M  V30 7221 C 676.287 -1.17515 -4.2744 0
M  V30 7222 H 673.507 -0.321281 -0.589084 0
M  V30 7223 H 676.051 -1.49142 -1.39918 0
M  V30 7224 H 674.206 -0.81249 -3.78784 0
M  V30 7225 H 674.62 -2.95851 -4.33096 0
M  V30 7226 H 676.094 -1.54827 -5.29842 0
M  V30 7227 H 676.571 -0.115486 -4.39048 0
M  V30 7228 H 677.177 -1.71203 -3.89319 0
M  V30 7229 N 675.492 1.28418 -0.913599 0
M  V30 7230 C 676.717 1.99643 -0.561899 0
M  V30 7231 C 677.142 1.67819 0.849608 0
M  V30 7232 O 676.5 0.910503 1.56779 0
M  V30 7233 C 676.548 3.52116 -0.777622 0
M  V30 7234 O 675.652 4.12076 0.163457 0
M  V30 7235 H 674.993 0.627229 -0.217898 0
M  V30 7236 H 677.523 1.63575 -1.229 0
M  V30 7237 H 677.533 4.02163 -0.687666 0
M  V30 7238 H 676.208 3.74613 -1.8066 0
M  V30 7239 H 674.785 3.72892 0.0247827 0
M  V30 7240 N 676.97 0.677563 1.42291 0
M  V30 7241 C 678.219 0.198173 2.00724 0
M  V30 7242 C 678.532 -1.20325 1.54211 0
M  V30 7243 O 679.738 -1.77916 2.05081 0
M  V30 7244 C 678.194 0.303432 3.58619 0
M  V30 7245 C 677.802 1.70909 4.14119 0
M  V30 7246 C 679.546 -0.117103 4.24338 0
M  V30 7247 C 677.453 1.76696 5.64387 0
M  V30 7248 H 676.383 0.070329 0.750713 0
M  V30 7249 H 679.034 0.843147 1.62982 0
M  V30 7250 H 677.416 -0.409482 3.93877 0
M  V30 7251 H 678.59 2.44931 3.90315 0
M  V30 7252 H 676.905 2.07771 3.6086 0
M  V30 7253 H 679.502 -0.0940471 5.34617 0
M  V30 7254 H 679.845 -1.15283 4.00019 0
M  V30 7255 H 680.378 0.5449 3.9405 0
M  V30 7256 H 677.117 2.7826 5.93508 0
M  V30 7257 H 676.637 1.07034 5.90173 0
M  V30 7258 H 678.316 1.52166 6.28852 0
M  V30 7259 N 678.448 -1.51871 0.421078 0
M  V30 7260 C 679.695 -2.01938 -0.15079 0
M  V30 7261 C 680.023 -1.30611 -1.44121 0
M  V30 7262 O 679.278 -0.404631 -1.91471 0
M  V30 7263 C 679.577 -3.54764 -0.433292 0
M  V30 7264 C 679.243 -4.44288 0.76936 0
M  V30 7265 C 677.905 -4.68477 1.09921 0
M  V30 7266 C 680.257 -4.96915 1.57242 0
M  V30 7267 C 677.585 -5.4254 2.2331 0
M  V30 7268 C 679.937 -5.7222 2.69716 0
M  V30 7269 C 678.601 -5.94678 3.03174 0
M  V30 7270 H 677.871 -0.738943 -0.0551781 0
M  V30 7271 H 680.518 -1.82977 0.564945 0
M  V30 7272 H 678.823 -3.71968 -1.23074 0
M  V30 7273 H 680.52 -3.91023 -0.888922 0
M  V30 7274 H 677.11 -4.25646 0.502305 0
M  V30 7275 H 681.294 -4.78125 1.3308 0
M  V30 7276 H 676.55 -5.58146 2.49565 0
M  V30 7277 H 680.724 -6.11992 3.32323 0
M  V30 7278 H 678.351 -6.51848 3.9115 0
M  V30 7279 N 679.926 -0.151884 -1.56866 0
M  V30 7280 C 680.876 0.797799 -2.13586 0
M  V30 7281 C 681.86 1.20613 -1.06496 0
M  V30 7282 O 683.052 1.17173 -1.32663 0
M  V30 7283 C 680.181 2.03493 -2.76488 0
M  V30 7284 C 679.267 1.64948 -3.90708 0
M  V30 7285 N 679.658 0.972513 -4.96363 0
M  V30 7286 C 677.956 1.94186 -4.01507 0
M  V30 7287 C 678.657 0.785661 -5.7637 0
M  V30 7288 N 677.633 1.32105 -5.27304 0
M  V30 7289 H 681.435 0.271403 -2.92644 0
M  V30 7290 H 678.949 0.049487 -1.62325 0
M  V30 7291 H 680.946 2.72532 -3.15487 0
M  V30 7292 H 679.606 2.56646 -1.98904 0
M  V30 7293 H 680.617 0.632724 -5.1402 0
M  V30 7294 H 677.294 2.49154 -3.35005 0
M  V30 7295 H 678.684 0.251749 -6.71428 0
M  V30 7296 N 681.404 1.57128 0.121893 0
M  V30 7297 C 682.632 1.88883 0.844451 0
M  V30 7298 C 683.047 0.742824 1.73573 0
M  V30 7299 O 682.404 -0.286475 1.80238 0
M  V30 7300 C 682.455 3.20076 1.68029 0
M  V30 7301 O 682.176 4.30264 0.824898 0
M  V30 7302 C 683.677 3.65515 2.50826 0
M  V30 7303 H 680.897 0.62549 0.242907 0
M  V30 7304 H 683.441 2.04219 0.107151 0
M  V30 7305 H 681.596 3.06418 2.37038 0
M  V30 7306 H 682.01 5.05439 1.40113 0
M  V30 7307 H 683.484 4.60081 3.05008 0
M  V30 7308 H 683.961 2.92029 3.28048 0
M  V30 7309 H 684.567 3.81952 1.87064 0
M  V30 7310 N 682.882 -0.391992 1.52647 0
M  V30 7311 C 684.129 -1.13732 1.67545 0
M  V30 7312 C 684.457 -1.90045 0.413881 0
M  V30 7313 O 683.712 -1.86157 -0.603646 0
M  V30 7314 C 684.011 -2.14401 2.85949 0
M  V30 7315 C 683.677 -1.54767 4.23507 0
M  V30 7316 C 682.339 -1.38229 4.60919 0
M  V30 7317 C 684.691 -1.11382 5.0916 0
M  V30 7318 C 682.019 -0.7685 5.81645 0
M  V30 7319 C 684.371 -0.514143 6.30507 0
M  V30 7320 C 683.035 -0.33604 6.66654 0
M  V30 7321 H 682.305 -0.416174 0.613091 0
M  V30 7322 H 684.952 -0.422327 1.86785 0
M  V30 7323 H 683.257 -2.92108 2.61114 0
M  V30 7324 H 684.954 -2.71974 2.94671 0
M  V30 7325 H 681.544 -1.68626 3.94035 0
M  V30 7326 H 685.728 -1.22962 4.80826 0
M  V30 7327 H 680.984 -0.618681 6.08262 0
M  V30 7328 H 685.158 -0.169657 6.96193 0
M  V30 7329 H 682.785 0.14166 7.60068 0
M  V30 7330 N 684.36 -1.4356 -0.65026 0
M  V30 7331 C 685.585 -1.48995 -1.44275 0
M  V30 7332 C 686.01 -0.109954 -1.87778 0
M  V30 7333 O 685.368 0.896926 -1.57559 0
M  V30 7334 C 685.416 -2.44341 -2.65198 0
M  V30 7335 O 684.52 -1.93172 -3.6436 0
M  V30 7336 H 683.861 -0.503852 -0.432469 0
M  V30 7337 H 686.391 -1.88504 -0.795446 0
M  V30 7338 H 686.401 -2.61743 -3.12977 0
M  V30 7339 H 685.076 -3.44588 -2.32877 0
M  V30 7340 H 683.653 -1.85445 -3.23519 0
M  V30 7341 N 685.838 0.888903 -1.30139 0
M  V30 7342 C 687.254 1.17153 -1.08385 0
M  V30 7343 C 687.454 2.0088 0.157925 0
M  V30 7344 O 686.51 2.37668 0.852652 0
M  V30 7345 C 687.823 1.882 -2.34523 0
M  V30 7346 C 689.371 2.00981 -2.39949 0
M  V30 7347 C 689.846 2.75441 -3.65918 0
M  V30 7348 N 691.337 2.82989 -3.66704 0
M  V30 7349 C 692.072 3.41167 -4.60861 0
M  V30 7350 N 691.568 4.00425 -5.6536 0
M  V30 7351 N 693.361 3.38944 -4.48412 0
M  V30 7352 H 685.512 0.33053 -2.09812 0
M  V30 7353 H 687.775 0.208964 -0.924683 0
M  V30 7354 H 687.481 1.34119 -3.25123 0
M  V30 7355 H 687.355 2.88609 -2.42868 0
M  V30 7356 H 689.742 2.54234 -1.4983 0
M  V30 7357 H 689.823 0.996725 -2.35582 0
M  V30 7358 H 689.467 2.22861 -4.56394 0
M  V30 7359 H 689.397 3.77118 -3.67546 0
M  V30 7360 H 691.888 2.40912 -2.91153 0
M  V30 7361 H 692.201 4.42871 -6.33313 0
M  V30 7362 H 690.546 3.98856 -5.69157 0
M  V30 7363 H 693.737 2.91875 -3.6596 0
M  V30 7364 H 693.91 3.83989 -5.21974 0
M  V30 7365 N 687.317 1.12792 1.10072 0
M  V30 7366 C 688.542 0.908838 1.86427 0
M  V30 7367 C 688.967 -0.536793 1.80278 0
M  V30 7368 O 688.325 -1.38033 1.17543 0
M  V30 7369 C 688.373 1.39295 3.3261 0
M  V30 7370 O 687.477 0.573846 4.08388 0
M  V30 7371 H 686.818 0.326234 0.578331 0
M  V30 7372 H 689.348 1.50094 1.39043 0
M  V30 7373 H 689.358 1.39366 3.83459 0
M  V30 7374 H 688.033 2.44555 3.36401 0
M  V30 7375 H 686.61 0.640438 3.67359 0
M  V30 7376 N 688.795 -1.27931 0.920396 0
M  V30 7377 C 690.025 -1.98516 0.572256 0
M  V30 7378 C 690.433 -1.68912 -0.852375 0
M  V30 7379 O 689.776 -0.94203 -1.57707 0
M  V30 7380 C 689.838 -3.5243 0.709485 0
M  V30 7381 C 689.502 -4.0564 2.10489 0
M  V30 7382 C 690.499 -4.1897 3.07831 0
M  V30 7383 C 688.184 -4.40168 2.41986 0
M  V30 7384 C 690.178 -4.66093 4.34783 0
M  V30 7385 C 687.865 -4.86983 3.69176 0
M  V30 7386 C 688.863 -4.99903 4.65388 0
M  V30 7387 O 688.551 -5.45694 5.90316 0
M  V30 7388 H 688.283 -0.64047 0.216274 0
M  V30 7389 H 690.837 -1.6393 1.23758 0
M  V30 7390 H 689.067 -3.86698 -0.0129263 0
M  V30 7391 H 690.756 -4.04233 0.367474 0
M  V30 7392 H 691.522 -3.92562 2.84816 0
M  V30 7393 H 687.401 -4.29358 1.67846 0
M  V30 7394 H 690.945 -4.76092 5.09884 0
M  V30 7395 H 686.842 -5.12832 3.92012 0
M  V30 7396 H 687.61 -5.63965 5.932 0
M  V30 7397 N 690.273 -0.685099 -1.4193 0
M  V30 7398 C 691.203 -0.0273506 -2.33484 0
M  V30 7399 C 692.184 0.778366 -1.51246 0
M  V30 7400 O 693.369 0.733449 -1.79817 0
M  V30 7401 C 690.499 0.917272 -3.34968 0
M  V30 7402 C 689.453 0.21941 -4.27437 0
M  V30 7403 C 688.779 1.27768 -5.1921 0
M  V30 7404 C 690.079 -0.907894 -5.14349 0
M  V30 7405 H 691.773 -0.791994 -2.88735 0
M  V30 7406 H 689.319 -0.382308 -1.38832 0
M  V30 7407 H 691.272 1.38657 -3.97935 0
M  V30 7408 H 689.996 1.71346 -2.78043 0
M  V30 7409 H 688.655 -0.229757 -3.65879 0
M  V30 7410 H 688.303 2.06612 -4.58607 0
M  V30 7411 H 688.003 0.815803 -5.81909 0
M  V30 7412 H 689.527 1.7477 -5.85054 0
M  V30 7413 H 690.941 -0.519348 -5.70943 0
M  V30 7414 H 689.338 -1.2962 -5.85934 0
M  V30 7415 H 690.408 -1.75218 -4.52136 0
M  V30 7416 N 691.751 1.51645 -0.429126 0
M  V30 7417 C 692.661 2.31288 0.392809 0
M  V30 7418 C 693.677 1.39852 1.03525 0
M  V30 7419 O 694.853 1.72926 1.03241 0
M  V30 7420 C 691.918 3.13347 1.48372 0
M  V30 7421 C 690.979 4.20551 0.862268 0
M  V30 7422 C 690.212 4.98688 1.9012 0
M  V30 7423 O 690.435 4.77359 3.12225 0
M  V30 7424 O 689.369 5.83005 1.4963 0
M  V30 7425 H 693.195 3.02609 -0.257138 0
M  V30 7426 H 690.78 1.48163 -0.191851 0
M  V30 7427 H 692.662 3.64387 2.1166 0
M  V30 7428 H 691.337 2.44799 2.1179 0
M  V30 7429 H 690.244 3.73609 0.191568 0
M  V30 7430 H 691.577 4.91449 0.271704 0
M  V30 7431 N 693.229 0.160201 1.56784 0
M  V30 7432 C 694.159 -0.770264 2.2043 0
M  V30 7433 C 695.14 -1.24736 1.15651 0
M  V30 7434 O 696.325 -1.30253 1.44041 0
M  V30 7435 C 693.455 -2.00427 2.83631 0
M  V30 7436 C 692.409 -1.66345 3.94352 0
M  V30 7437 C 691.735 -2.97119 4.4455 0
M  V30 7438 C 693.035 -0.899972 5.14488 0
M  V30 7439 H 694.729 -0.239783 2.98438 0
M  V30 7440 H 692.275 -0.113891 1.43549 0
M  V30 7441 H 694.228 -2.66012 3.26827 0
M  V30 7442 H 692.952 -2.5587 2.02973 0
M  V30 7443 H 691.611 -1.03133 3.51794 0
M  V30 7444 H 691.259 -3.5058 3.60698 0
M  V30 7445 H 690.959 -2.75073 5.19238 0
M  V30 7446 H 692.483 -3.63753 4.90425 0
M  V30 7447 H 693.897 -1.45818 5.54446 0
M  V30 7448 H 692.294 -0.778968 5.95023 0
M  V30 7449 H 693.364 0.105827 4.84785 0
M  V30 7450 N 694.707 -1.5719 -0.113559 0
M  V30 7451 C 695.654 -2.00736 -1.13901 0
M  V30 7452 C 696.624 -0.88044 -1.40846 0
M  V30 7453 O 697.809 -1.14507 -1.5262 0
M  V30 7454 C 694.949 -2.42132 -2.45899 0
M  V30 7455 C 694.062 -3.68264 -2.25844 0
M  V30 7456 C 693.197 -3.98617 -3.5111 0
M  V30 7457 C 692.236 -5.17915 -3.26236 0
M  V30 7458 N 691.373 -5.44111 -4.4372 0
M  V30 7459 H 696.213 -2.88128 -0.760677 0
M  V30 7460 H 693.75 -1.42523 -0.364099 0
M  V30 7461 H 695.708 -2.6417 -3.22908 0
M  V30 7462 H 694.338 -1.57775 -2.81615 0
M  V30 7463 H 693.39 -3.53809 -1.39726 0
M  V30 7464 H 694.702 -4.55425 -2.03444 0
M  V30 7465 H 693.856 -4.21333 -4.36536 0
M  V30 7466 H 692.595 -3.09942 -3.76546 0
M  V30 7467 H 691.6 -4.95038 -2.39202 0
M  V30 7468 H 692.825 -6.08172 -3.02165 0
M  V30 7469 H 690.771 -4.58394 -4.69266 0
M  V30 7470 H 690.688 -6.25606 -4.24444 0
M  V30 7471 H 691.956 -5.71351 -5.30263 0
M  V30 7472 N 696.185 0.383891 -1.52853 0
M  V30 7473 C 697.117 1.48889 -1.74255 0
M  V30 7474 C 698.13 1.50405 -0.623063 0
M  V30 7475 O 699.319 1.54215 -0.898887 0
M  V30 7476 C 696.419 2.87721 -1.79081 0
M  V30 7477 C 695.592 3.10111 -3.08464 0
M  V30 7478 C 694.651 4.28954 -3.0477 0
M  V30 7479 O 693.677 4.25012 -3.78621 0
M  V30 7480 N 694.879 5.35411 -2.24311 0
M  V30 7481 H 697.644 1.30915 -2.69595 0
M  V30 7482 H 695.205 0.573454 -1.51404 0
M  V30 7483 H 697.197 3.65333 -1.7411 0
M  V30 7484 H 695.767 2.99029 -0.911052 0
M  V30 7485 H 694.987 2.20319 -3.26884 0
M  V30 7486 H 696.275 3.21928 -3.94005 0
M  V30 7487 H 695.673 5.41471 -1.63787 0
M  V30 7488 H 694.23 6.1167 -2.25175 0
M  V30 7489 N 697.663 1.43903 0.642637 0
M  V30 7490 C 698.573 1.52349 1.78401 0
M  V30 7491 C 699.589 0.409869 1.69104 0
M  V30 7492 O 700.765 0.665548 1.90085 0
M  V30 7493 C 697.83 1.45408 3.14734 0
M  V30 7494 C 696.891 2.67528 3.35749 0
M  V30 7495 C 696.124 2.60909 4.65577 0
M  V30 7496 O 696.347 1.6627 5.45628 0
M  V30 7497 O 695.281 3.5158 4.88544 0
M  V30 7498 H 699.107 2.48752 1.7423 0
M  V30 7499 H 696.692 1.26021 0.802439 0
M  V30 7500 H 698.574 1.44019 3.96026 0
M  V30 7501 H 697.249 0.521437 3.19473 0
M  V30 7502 H 696.156 2.74487 2.5418 0
M  V30 7503 H 697.489 3.598 3.35864 0
M  V30 7504 N 699.141 -0.881989 1.30609 0
M  V30 7505 C 700.073 -1.99375 1.13058 0
M  V30 7506 C 701.086 -1.62636 0.0729879 0
M  V30 7507 O 702.275 -1.75621 0.319301 0
M  V30 7508 C 699.375 -3.31536 0.702651 0
M  V30 7509 C 698.548 -3.96693 1.84265 0
M  V30 7510 C 697.607 -5.07158 1.40277 0
M  V30 7511 O 696.633 -5.28628 2.11048 0
M  V30 7512 N 697.835 -5.79808 0.283449 0
M  V30 7513 H 700.6 -2.14981 2.08814 0
M  V30 7514 H 698.161 -1.05526 1.22784 0
M  V30 7515 H 700.153 -4.02804 0.391331 0
M  V30 7516 H 698.723 -3.12175 -0.162954 0
M  V30 7517 H 697.943 -3.1856 2.32192 0
M  V30 7518 H 699.231 -4.36964 2.60653 0
M  V30 7519 H 698.629 -5.64871 -0.306189 0
M  V30 7520 H 697.186 -6.51792 0.0315985 0
M  V30 7521 N 700.619 -1.13374 -1.09472 0
M  V30 7522 C 701.529 -0.824029 -2.19652 0
M  V30 7523 C 702.545 0.19118 -1.72947 0
M  V30 7524 O 703.721 0.0223464 -2.01388 0
M  V30 7525 C 700.786 -0.294009 -3.45451 0
M  V30 7526 C 699.847 -1.3704 -4.0684 0
M  V30 7527 C 699.08 -0.86558 -5.26634 0
M  V30 7528 O 699.303 0.29702 -5.69626 0
M  V30 7529 O 698.237 -1.63968 -5.79136 0
M  V30 7530 H 702.063 -1.74454 -2.48595 0
M  V30 7531 H 699.648 -0.911155 -1.18399 0
M  V30 7532 H 701.53 -0.00381039 -4.214 0
M  V30 7533 H 700.205 0.598921 -3.18111 0
M  V30 7534 H 699.112 -1.71391 -3.3253 0
M  V30 7535 H 700.445 -2.23746 -4.38405 0
M  V30 7536 N 702.098 1.27442 -0.927168 0
M  V30 7537 C 703.514 1.46754 -0.627329 0
M  V30 7538 C 703.714 1.83902 0.823549 0
M  V30 7539 O 702.77 1.95215 1.60148 0
M  V30 7540 C 704.083 2.56045 -1.57674 0
M  V30 7541 C 705.631 2.69906 -1.58491 0
M  V30 7542 C 706.106 3.82355 -2.52128 0
M  V30 7543 N 707.597 3.89728 -2.50332 0
M  V30 7544 C 708.332 4.76155 -3.19475 0
M  V30 7545 N 707.828 5.67073 -3.97995 0
M  V30 7546 N 709.621 4.6988 -3.08496 0
M  V30 7547 H 701.772 1.01613 -1.86517 0
M  V30 7548 H 704.035 0.507443 -0.800753 0
M  V30 7549 H 703.741 2.35542 -2.61176 0
M  V30 7550 H 703.615 3.53423 -1.31804 0
M  V30 7551 H 706.002 2.89792 -0.557208 0
M  V30 7552 H 706.083 1.73018 -1.8841 0
M  V30 7553 H 705.727 3.63224 -3.55008 0
M  V30 7554 H 705.657 4.7867 -2.19505 0
M  V30 7555 H 708.148 3.24717 -1.93306 0
M  V30 7556 H 708.461 6.2988 -4.4774 0
M  V30 7557 H 706.806 5.6687 -4.02098 0
M  V30 7558 H 709.997 3.97848 -2.46646 0
M  V30 7559 H 710.17 5.37017 -3.62652 0
M  V30 7560 N 703.576 0.692616 1.41565 0
M  V30 7561 C 704.822 0.222664 2.01574 0
M  V30 7562 C 705.155 -1.1737 1.54719 0
M  V30 7563 O 704.43 -1.79161 0.757084 0
M  V30 7564 C 704.713 0.277064 3.59033 0
M  V30 7565 C 704.566 1.71016 4.16021 0
M  V30 7566 C 705.885 -0.36479 4.38586 0
M  V30 7567 H 703.004 0.0823839 0.732381 0
M  V30 7568 H 705.646 0.880778 1.68352 0
M  V30 7569 H 703.796 -0.283288 3.87466 0
M  V30 7570 H 705.468 2.32413 3.98475 0
M  V30 7571 H 703.711 2.24525 3.71175 0
M  V30 7572 H 704.382 1.69978 5.25178 0
M  V30 7573 H 706.858 0.112404 4.15948 0
M  V30 7574 H 705.734 -0.296169 5.481 0
M  V30 7575 H 705.995 -1.44506 4.17816 0
M  V30 7576 N 705.054 -1.51416 0.437162 0
M  V30 7577 C 705.987 -2.24309 -0.419602 0
M  V30 7578 C 706.965 -1.26236 -1.02485 0
M  V30 7579 O 708.149 -1.5537 -1.06735 0
M  V30 7580 C 705.276 -2.99335 -1.58482 0
M  V30 7581 C 704.322 -4.12064 -1.10027 0
M  V30 7582 S 705.155 -5.35483 -0.0424476 0
M  V30 7583 C 706.311 -6.14047 -1.21234 0
M  V30 7584 H 706.544 -2.96632 0.199259 0
M  V30 7585 H 704.077 -1.528 0.22168 0
M  V30 7586 H 706.035 -3.43159 -2.25282 0
M  V30 7587 H 704.696 -2.26602 -2.17509 0
M  V30 7588 H 703.889 -4.63836 -1.97161 0
M  V30 7589 H 703.491 -3.70499 -0.510507 0
M  V30 7590 H 705.783 -6.43123 -2.13072 0
M  V30 7591 H 706.726 -7.04279 -0.734582 0
M  V30 7592 H 707.134 -5.45538 -1.45082 0
M  V30 7593 N 706.532 -0.168513 -1.56696 0
M  V30 7594 C 707.779 0.477158 -1.96798 0
M  V30 7595 C 708.107 1.63442 -1.05437 0
M  V30 7596 O 707.362 1.95503 -0.0878903 0
M  V30 7597 C 707.661 1.00441 -3.42996 0
M  V30 7598 C 707.327 -0.0366556 -4.50885 0
M  V30 7599 C 705.989 -0.322785 -4.80116 0
M  V30 7600 C 708.341 -0.743447 -5.1587 0
M  V30 7601 C 705.669 -1.32114 -5.71632 0
M  V30 7602 C 708.021 -1.73077 -6.08463 0
M  V30 7603 C 706.685 -2.02437 -6.36062 0
M  V30 7604 H 705.955 0.174604 -0.720135 0
M  V30 7605 H 708.602 -0.259884 -1.89728 0
M  V30 7606 H 706.907 1.81922 -3.47004 0
M  V30 7607 H 708.604 1.51294 -3.71364 0
M  V30 7608 H 705.194 0.196532 -4.28149 0
M  V30 7609 H 709.378 -0.535602 -4.93401 0
M  V30 7610 H 704.634 -1.55482 -5.913 0
M  V30 7611 H 708.808 -2.28382 -6.57886 0
M  V30 7612 H 706.435 -2.79946 -7.06777 0
M  V30 7613 N 708.01 1.57248 0.105221 0
M  V30 7614 C 709.426 1.52853 0.459153 0
M  V30 7615 C 709.626 0.883674 1.8109 0
M  V30 7616 O 708.682 0.471864 2.48052 0
M  V30 7617 C 709.995 2.97596 0.43096 0
M  V30 7618 C 711.543 3.08758 0.513536 0
M  V30 7619 C 712.018 4.55089 0.515593 0
M  V30 7620 N 713.509 4.59597 0.576639 0
M  V30 7621 C 714.244 5.70253 0.599904 0
M  V30 7622 N 713.74 6.90368 0.579985 0
M  V30 7623 N 715.533 5.58399 0.643953 0
M  V30 7624 H 707.684 1.97547 -0.780306 0
M  V30 7625 H 709.947 0.902758 -0.289363 0
M  V30 7626 H 709.653 3.48201 -0.494903 0
M  V30 7627 H 709.527 3.55756 1.2537 0
M  V30 7628 H 711.914 2.58148 1.42982 0
M  V30 7629 H 711.995 2.53568 -0.337148 0
M  V30 7630 H 711.639 5.06348 -0.396701 0
M  V30 7631 H 711.569 5.08105 1.38335 0
M  V30 7632 H 714.06 3.73144 0.597639 0
M  V30 7633 H 714.373 7.70462 0.600741 0
M  V30 7634 H 712.718 6.92843 0.547191 0
M  V30 7635 H 715.909 4.63467 0.656975 0
M  V30 7636 H 716.082 6.44644 0.658616 0
M  V30 7637 N 709.488 -0.375779 1.53054 0
M  V30 7638 C 710.904 -0.716764 1.426 0
M  V30 7639 C 711.104 -1.93651 0.556931 0
M  V30 7640 O 710.16 -2.52475 0.0354461 0
M  V30 7641 C 711.473 -0.939499 2.85646 0
M  V30 7642 C 713.021 -1.04015 2.95212 0
M  V30 7643 C 713.496 -1.29543 4.39298 0
M  V30 7644 N 714.987 -1.36335 4.42682 0
M  V30 7645 C 715.722 -1.57778 5.51266 0
M  V30 7646 N 715.218 -1.76604 6.69913 0
M  V30 7647 N 717.011 -1.60065 5.38828 0
M  V30 7648 H 709.162 0.42664 2.08071 0
M  V30 7649 H 711.425 0.128758 0.939215 0
M  V30 7650 H 711.131 -0.115189 3.51511 0
M  V30 7651 H 711.005 -1.85048 3.2869 0
M  V30 7652 H 713.392 -1.85501 2.29507 0
M  V30 7653 H 713.473 -0.106785 2.55577 0
M  V30 7654 H 713.117 -0.485611 5.05573 0
M  V30 7655 H 713.047 -2.24184 4.76497 0
M  V30 7656 H 715.538 -1.23441 3.5717 0
M  V30 7657 H 715.851 -1.9251 7.48438 0
M  V30 7658 H 714.196 -1.73802 6.72917 0
M  V30 7659 H 717.387 -1.44917 4.45103 0
M  V30 7660 H 717.56 -1.76435 6.23518 0
M  V30 7661 N 710.966 -1.44241 -0.634997 0
M  V30 7662 C 711.929 -1.50457 -1.72903 0
M  V30 7663 C 712.929 -0.387058 -1.56072 0
M  V30 7664 O 714.119 -0.649531 -1.61638 0
M  V30 7665 C 711.251 -1.37477 -3.1195 0
M  V30 7666 H 712.444 -2.47907 -1.68767 0
M  V30 7667 H 709.997 -1.31276 -0.84831 0
M  V30 7668 H 710.732 -0.41106 -3.21684 0
M  V30 7669 H 710.517 -2.18506 -3.25573 0
M  V30 7670 H 712.007 -1.44799 -3.91692 0
M  V30 7671 N 712.444 0.87505 -1.31075 0
M  V30 7672 C 713.376 1.98773 -1.14114 0
M  V30 7673 C 714.389 1.62595 -0.0816119 0
M  V30 7674 O 715.578 1.75449 -0.32861 0
M  V30 7675 C 712.678 3.31159 -0.720224 0
M  V30 7676 C 711.851 3.9571 -1.86366 0
M  V30 7677 C 710.91 5.06407 -1.42965 0
M  V30 7678 O 709.936 5.27501 -2.13848 0
M  V30 7679 N 711.138 5.79649 -0.314194 0
M  V30 7680 H 713.903 2.1387 -2.09951 0
M  V30 7681 H 711.464 1.04873 -1.23342 0
M  V30 7682 H 713.456 4.0259 -0.412687 0
M  V30 7683 H 712.026 3.12257 0.146396 0
M  V30 7684 H 711.246 3.17324 -2.33879 0
M  V30 7685 H 712.534 4.35576 -2.62966 0
M  V30 7686 H 711.932 5.65025 0.276228 0
M  V30 7687 H 710.489 6.51766 -0.0661641 0
M  V30 7688 N 713.922 1.13953 1.08869 0
M  V30 7689 C 715.169 0.90481 1.81161 0
M  V30 7690 C 715.497 -0.568824 1.85996 0
M  V30 7691 O 714.752 -1.43723 1.32823 0
M  V30 7692 C 715.051 1.44495 3.26888 0
M  V30 7693 C 714.717 2.93641 3.42178 0
M  V30 7694 C 713.379 3.34361 3.46059 0
M  V30 7695 C 715.731 3.89568 3.46246 0
M  V30 7696 C 713.059 4.69681 3.51592 0
M  V30 7697 C 715.411 5.2474 3.53314 0
M  V30 7698 C 714.075 5.64979 3.55465 0
M  V30 7699 H 713.345 0.331094 0.662916 0
M  V30 7700 H 715.992 1.42242 1.28217 0
M  V30 7701 H 714.297 0.848169 3.82509 0
M  V30 7702 H 715.994 1.23934 3.81368 0
M  V30 7703 H 712.584 2.61156 3.39846 0
M  V30 7704 H 716.768 3.59192 3.42483 0
M  V30 7705 H 712.024 5.00224 3.51547 0
M  V30 7706 H 716.198 5.98882 3.55406 0
M  V30 7707 H 713.825 6.69821 3.59505 0
M  V30 7708 N 715.4 -1.26948 0.933913 0
M  V30 7709 C 716.33 -2.29017 0.45534 0
M  V30 7710 C 717.311 -1.62961 -0.487605 0
M  V30 7711 O 718.496 -1.90223 -0.391022 0
M  V30 7712 C 715.626 -3.46112 -0.287015 0
M  V30 7713 C 714.58 -4.24205 0.568682 0
M  V30 7714 C 713.906 -5.3384 -0.303206 0
M  V30 7715 C 715.206 -4.88954 1.83633 0
M  V30 7716 H 716.9 -2.69298 1.30839 0
M  V30 7717 H 714.446 -1.29459 0.630579 0
M  V30 7718 H 716.399 -4.16622 -0.6328 0
M  V30 7719 H 715.123 -3.04765 -1.17414 0
M  V30 7720 H 713.782 -3.5545 0.897261 0
M  V30 7721 H 713.43 -4.88734 -1.18947 0
M  V30 7722 H 713.13 -5.86998 0.265879 0
M  V30 7723 H 714.654 -6.0719 -0.644423 0
M  V30 7724 H 716.068 -5.51717 1.55823 0
M  V30 7725 H 714.465 -5.52198 2.34941 0
M  V30 7726 H 715.535 -4.12305 2.55211 0
M  V30 7727 N 716.879 -0.700114 -1.41195 0
M  V30 7728 C 718.128 -0.230082 -2.00383 0
M  V30 7729 C 718.441 1.17857 -1.56106 0
M  V30 7730 O 719.647 1.74631 -2.07885 0
M  V30 7731 C 718.103 -0.360447 -3.5809 0
M  V30 7732 C 717.711 -1.77475 -4.11347 0
M  V30 7733 C 719.455 0.0495799 -4.24471 0
M  V30 7734 C 717.362 -1.85653 -5.61504 0
M  V30 7735 H 716.292 -0.0822633 -0.749499 0
M  V30 7736 H 718.943 -0.868969 -1.6162 0
M  V30 7737 H 717.325 0.346768 -3.94479 0
M  V30 7738 H 718.499 -2.51109 -3.86369 0
M  V30 7739 H 716.814 -2.13486 -3.57509 0
M  V30 7740 H 719.411 0.00898219 -5.34699 0
M  V30 7741 H 719.754 1.08904 -4.01803 0
M  V30 7742 H 720.287 -0.607521 -3.93134 0
M  V30 7743 H 717.026 -2.87667 -5.89006 0
M  V30 7744 H 716.546 -1.1641 -5.88395 0
M  V30 7745 H 718.225 -1.62151 -6.26351 0
M  V30 7746 N 718.357 1.51182 -0.445186 0
M  V30 7747 C 719.304 2.27939 0.362291 0
M  V30 7748 C 720.274 1.31864 1.01 0
M  V30 7749 O 721.459 1.60776 1.02741 0
M  V30 7750 C 718.599 3.13016 1.45311 0
M  V30 7751 C 717.712 4.24093 0.822757 0
M  V30 7752 C 716.847 4.96467 1.88928 0
M  V30 7753 C 715.886 5.99454 1.23778 0
M  V30 7754 N 715.023 6.65206 2.24602 0
M  V30 7755 H 719.863 2.965 -0.29862 0
M  V30 7756 H 717.4 1.46237 -0.15911 0
M  V30 7757 H 719.358 3.60673 2.09692 0
M  V30 7758 H 717.988 2.46553 2.08354 0
M  V30 7759 H 717.04 3.80341 0.0670364 0
M  V30 7760 H 718.352 4.97853 0.307184 0
M  V30 7761 H 717.506 5.47712 2.60953 0
M  V30 7762 H 716.245 4.22355 2.4386 0
M  V30 7763 H 715.25 5.47494 0.503042 0
M  V30 7764 H 716.475 6.75527 0.695694 0
M  V30 7765 H 714.421 5.93901 2.78599 0
M  V30 7766 H 714.338 7.34756 1.77958 0
M  V30 7767 H 715.606 7.21078 2.96085 0
M  V30 7768 N 719.835 0.176821 1.56605 0
M  V30 7769 C 721.063 -0.472828 2.01425 0
M  V30 7770 C 721.478 -1.56436 1.05703 0
M  V30 7771 O 720.835 -1.82405 0.058808 0
M  V30 7772 C 720.886 -1.04607 3.46034 0
M  V30 7773 O 720.607 0.00189608 4.381 0
M  V30 7774 C 722.108 -1.7734 4.06282 0
M  V30 7775 H 719.328 -0.120503 0.660091 0
M  V30 7776 H 721.872 0.280166 2.02572 0
M  V30 7777 H 720.027 -1.74953 3.45645 0
M  V30 7778 H 720.441 -0.422118 5.22799 0
M  V30 7779 H 721.915 -2.12703 5.09374 0
M  V30 7780 H 722.392 -2.67043 3.4869 0
M  V30 7781 H 722.998 -1.11623 4.10391 0
M  V30 7782 N 721.313 -1.57302 -0.09688 0
M  V30 7783 C 722.26 -2.01933 -1.11766 0
M  V30 7784 C 723.23 -0.895329 -1.39904 0
M  V30 7785 O 724.415 -1.16119 -1.51397 0
M  V30 7786 C 721.555 -2.44726 -2.43317 0
M  V30 7787 C 720.668 -3.70639 -2.21925 0
M  V30 7788 C 719.803 -4.02318 -3.46862 0
M  V30 7789 C 718.842 -5.21346 -3.20725 0
M  V30 7790 N 717.979 -5.48787 -4.37924 0
M  V30 7791 H 722.819 -2.88919 -0.730075 0
M  V30 7792 H 720.356 -1.42901 -0.348962 0
M  V30 7793 H 722.314 -2.6758 -3.20088 0
M  V30 7794 H 720.944 -1.60753 -2.79926 0
M  V30 7795 H 719.996 -3.55271 -1.35965 0
M  V30 7796 H 721.308 -4.57557 -1.98603 0
M  V30 7797 H 720.462 -4.25939 -4.32042 0
M  V30 7798 H 719.201 -3.13918 -3.73238 0
M  V30 7799 H 718.206 -4.97547 -2.33938 0
M  V30 7800 H 719.431 -6.11343 -2.95697 0
M  V30 7801 H 717.377 -4.63346 -4.64378 0
M  V30 7802 H 717.294 -6.30073 -4.17785 0
M  V30 7803 H 718.562 -5.76943 -5.24173 0
M  V30 7804 N 722.791 0.367657 -1.53252 0
M  V30 7805 C 724.016 1.13566 -1.73544 0
M  V30 7806 C 724.441 1.82329 -0.462344 0
M  V30 7807 O 723.799 1.71655 0.583472 0
M  V30 7808 C 723.847 2.14322 -2.89997 0
M  V30 7809 O 722.951 3.21359 -2.58461 0
M  V30 7810 H 722.292 0.329614 -0.576412 0
M  V30 7811 H 724.822 0.425417 -2.00128 0
M  V30 7812 H 724.832 2.57958 -3.16104 0
M  V30 7813 H 723.507 1.63664 -3.82344 0
M  V30 7814 H 722.084 2.8271 -2.43165 0
M  V30 7815 N 724.269 1.44576 0.627338 0
M  V30 7816 C 725.201 1.47724 1.75243 0
M  V30 7817 C 726.214 0.370193 1.58535 0
M  V30 7818 O 727.403 0.636151 1.66779 0
M  V30 7819 C 724.503 1.2991 3.13012 0
M  V30 7820 C 723.676 2.5393 3.56143 0
M  V30 7821 C 722.735 2.30961 4.72804 0
M  V30 7822 O 721.761 3.04469 4.80923 0
M  V30 7823 N 722.963 1.34261 5.6476 0
M  V30 7824 H 725.728 2.44718 1.73012 0
M  V30 7825 H 723.289 1.40064 0.812022 0
M  V30 7826 H 725.281 1.12385 3.88782 0
M  V30 7827 H 723.851 0.412668 3.09864 0
M  V30 7828 H 723.071 2.86707 2.70542 0
M  V30 7829 H 724.359 3.36411 3.81713 0
M  V30 7830 H 723.757 0.735573 5.60897 0
M  V30 7831 H 722.314 1.22713 6.40144 0
M  V30 7832 N 725.747 -0.868086 1.31537 0
M  V30 7833 C 726.677 -1.99131 1.21939 0
M  V30 7834 C 727.658 -1.69768 0.106166 0
M  V30 7835 O 728.843 -1.92006 0.291081 0
M  V30 7836 C 725.973 -3.34676 0.927879 0
M  V30 7837 C 724.927 -3.7835 2.00088 0
M  V30 7838 C 724.253 -5.11375 1.56203 0
M  V30 7839 C 725.553 -3.95256 3.41424 0
M  V30 7840 H 727.247 -2.07419 2.15911 0
M  V30 7841 H 724.793 -0.996569 1.03945 0
M  V30 7842 H 726.746 -4.12793 0.847327 0
M  V30 7843 H 725.47 -3.26565 -0.0475042 0
M  V30 7844 H 724.129 -3.02474 2.07135 0
M  V30 7845 H 723.777 -4.99709 0.57445 0
M  V30 7846 H 723.477 -5.41568 2.27985 0
M  V30 7847 H 725.001 -5.92001 1.49558 0
M  V30 7848 H 726.415 -4.63764 3.3704 0
M  V30 7849 H 724.812 -4.36849 4.1144 0
M  V30 7850 H 725.882 -2.98579 3.82072 0
M  V30 7851 N 727.225 -1.14528 -1.08264 0
M  V30 7852 C 728.45 -0.938381 -1.84957 0
M  V30 7853 C 728.875 0.508044 -1.81109 0
M  V30 7854 O 728.233 1.36146 -1.19724 0
M  V30 7855 C 728.281 -1.44568 -3.30352 0
M  V30 7856 O 727.385 -0.638745 -4.07423 0
M  V30 7857 H 726.726 -0.335394 -0.573068 0
M  V30 7858 H 729.256 -1.52287 -1.36637 0
M  V30 7859 H 729.266 -1.45449 -3.81194 0
M  V30 7860 H 727.941 -2.49876 -3.32468 0
M  V30 7861 H 726.518 -0.698801 -3.66294 0
M  V30 7862 N 728.703 1.26451 -0.940633 0
M  V30 7863 C 729.949 1.94065 -0.58878 0
M  V30 7864 C 730.282 1.7363 0.869853 0
M  V30 7865 O 729.557 1.073 1.62225 0
M  V30 7866 C 729.84 3.47852 -0.931199 0
M  V30 7867 C 729.693 3.77575 -2.44453 0
M  V30 7868 C 731.012 4.37832 -0.446229 0
M  V30 7869 H 728.131 0.704827 -0.21538 0
M  V30 7870 H 730.773 1.4933 -1.17475 0
M  V30 7871 H 728.923 3.86085 -0.432539 0
M  V30 7872 H 730.595 3.49059 -3.01588 0
M  V30 7873 H 728.838 3.23671 -2.88825 0
M  V30 7874 H 729.509 4.85068 -2.63464 0
M  V30 7875 H 731.985 4.06822 -0.873778 0
M  V30 7876 H 730.861 5.44228 -0.714648 0
M  V30 7877 H 731.122 4.37239 0.653815 0
M  V30 7878 N 730.181 0.707592 1.40822 0
M  V30 7879 C 731.406 0.251626 2.05868 0
M  V30 7880 C 731.831 -1.09503 1.5294 0
M  V30 7881 O 731.189 -1.68806 0.661385 0
M  V30 7882 C 731.237 0.23287 3.59847 0
M  V30 7883 O 730.341 -0.788477 4.04792 0
M  V30 7884 H 729.682 0.119936 0.653078 0
M  V30 7885 H 732.212 0.96583 1.80369 0
M  V30 7886 H 732.222 0.0678204 4.07944 0
M  V30 7887 H 730.897 1.21565 3.97737 0
M  V30 7888 H 729.474 -0.591802 3.68174 0
M  V30 7889 N 731.66 -1.50943 0.453197 0
M  V30 7890 C 732.592 -2.25922 -0.38623 0
M  V30 7891 C 733.605 -1.3055 -0.972652 0
M  V30 7892 O 734.794 -1.56191 -0.864097 0
M  V30 7893 C 731.894 -3.01176 -1.5539 0
M  V30 7894 C 731.067 -4.23768 -1.0835 0
M  V30 7895 C 730.126 -4.81466 -2.12313 0
M  V30 7896 O 729.152 -5.42875 -1.71101 0
M  V30 7897 N 730.354 -4.66889 -3.44956 0
M  V30 7898 H 733.119 -2.98601 0.256468 0
M  V30 7899 H 730.68 -1.59408 0.282965 0
M  V30 7900 H 732.672 -3.36659 -2.24594 0
M  V30 7901 H 731.242 -2.31409 -2.10163 0
M  V30 7902 H 730.462 -3.93597 -0.217961 0
M  V30 7903 H 731.75 -5.03289 -0.746857 0
M  V30 7904 H 731.148 -4.18011 -3.81161 0
M  V30 7905 H 729.705 -5.06691 -4.1001 0
M  V30 7906 N 733.138 -0.185124 -1.56509 0
M  V30 7907 C 734.415 0.503348 -1.89013 0
M  V30 7908 C 734.795 1.80349 -1.09715 0
M  V30 7909 O 734.143 2.27665 -0.195203 0
M  V30 7910 C 734.353 0.731839 -3.41241 0
M  V30 7911 C 735.701 1.05568 -4.11267 0
M  V30 7912 O 736.725 0.819906 -3.46635 0
M  V30 7913 O 735.584 1.50116 -5.25478 0
M  V30 7914 H 732.678 0.261139 -0.784688 0
M  V30 7915 H 735.224 -0.224592 -1.68207 0
M  V30 7916 H 733.996 -0.18672 -3.90854 0
M  V30 7917 H 733.619 1.5126 -3.67704 0
M  V30 7918 N 734.616 1.57351 0.0885366 0
M  V30 7919 C 735.841 1.91011 0.80805 0
M  V30 7920 C 736.266 0.780009 1.71165 0
M  V30 7921 O 735.624 -0.268083 1.79307 0
M  V30 7922 C 735.672 3.23562 1.59185 0
M  V30 7923 O 734.776 3.11615 2.7013 0
M  V30 7924 H 734.117 0.625943 0.221565 0
M  V30 7925 H 736.647 2.04507 0.0617954 0
M  V30 7926 H 736.657 3.5703 1.97468 0
M  V30 7927 H 735.332 4.05398 0.928741 0
M  V30 7928 H 733.909 2.89673 2.34827 0
M  V30 7929 N 736.094 -0.359525 1.53444 0
M  V30 7930 C 737.371 -1.11756 1.6053 0
M  V30 7931 C 737.751 -2.06949 0.416587 0
M  V30 7932 O 737.099 -2.20681 -0.592628 0
M  V30 7933 C 737.309 -1.85133 2.95849 0
M  V30 7934 C 738.657 -2.3945 3.50641 0
M  V30 7935 O 739.681 -1.95251 2.97918 0
M  V30 7936 O 738.54 -3.20266 4.42823 0
M  V30 7937 H 735.634 -0.513005 0.648656 0
M  V30 7938 H 738.18 -0.362301 1.65787 0
M  V30 7939 H 736.952 -1.15694 3.73806 0
M  V30 7940 H 736.575 -2.67554 2.9411 0
M  V30 7941 N 737.572 -1.44907 -0.619662 0
M  V30 7942 C 738.821 -1.47569 -1.37501 0
M  V30 7943 C 739.134 -0.116707 -1.95252 0
M  V30 7944 O 740.34 -0.020909 -2.71492 0
M  V30 7945 C 738.796 -2.59851 -2.49009 0
M  V30 7946 C 738.404 -4.02008 -1.97722 0
M  V30 7947 C 740.148 -2.71746 -3.2612 0
M  V30 7948 C 738.055 -5.05693 -3.0664 0
M  V30 7949 H 736.985 -0.549068 -0.51676 0
M  V30 7950 H 739.636 -1.71009 -0.665437 0
M  V30 7951 H 738.018 -2.29671 -3.22594 0
M  V30 7952 H 739.192 -4.41809 -1.30925 0
M  V30 7953 H 737.507 -3.94456 -1.33392 0
M  V30 7954 H 740.104 -3.46382 -4.07337 0
M  V30 7955 H 740.447 -1.77959 -3.76346 0
M  V30 7956 H 740.98 -3.01392 -2.5963 0
M  V30 7957 H 737.719 -6.01148 -2.61345 0
M  V30 7958 H 737.239 -4.70473 -3.72042 0
M  V30 7959 H 738.918 -5.29906 -3.71226 0
M  V30 7960 N 739.05 0.861098 -1.31996 0
M  V30 7961 C 739.98 1.98482 -1.22993 0
M  V30 7962 C 740.961 1.6971 -0.115168 0
M  V30 7963 O 742.146 1.91849 -0.30126 0
M  V30 7964 C 739.276 3.34179 -0.945615 0
M  V30 7965 C 738.23 3.77284 -2.02091 0
M  V30 7966 C 737.556 5.1054 -1.58912 0
M  V30 7967 C 738.856 3.93439 -3.43515 0
M  V30 7968 H 740.55 2.06271 -2.17008 0
M  V30 7969 H 738.096 0.991043 -1.04472 0
M  V30 7970 H 740.049 4.12338 -0.869206 0
M  V30 7971 H 738.773 3.26586 0.0301849 0
M  V30 7972 H 737.432 3.01371 -2.08737 0
M  V30 7973 H 737.08 4.99397 -0.600942 0
M  V30 7974 H 736.78 5.40352 -2.30854 0
M  V30 7975 H 738.304 5.91199 -1.52696 0
M  V30 7976 H 739.718 4.6197 -3.39495 0
M  V30 7977 H 738.115 4.34661 -4.13751 0
M  V30 7978 H 739.185 2.96548 -3.8365 0
M  V30 7979 N 740.528 1.15101 1.07655 0
M  V30 7980 C 741.775 0.923974 1.80191 0
M  V30 7981 C 742.103 -0.549065 1.86589 0
M  V30 7982 O 741.358 -1.42307 1.3434 0
M  V30 7983 C 741.657 1.47954 3.25337 0
M  V30 7984 C 741.323 2.97253 3.39044 0
M  V30 7985 C 739.985 3.38012 3.42493 0
M  V30 7986 C 742.337 3.93219 3.42094 0
M  V30 7987 C 739.665 4.73384 3.4659 0
M  V30 7988 C 742.017 5.28458 3.47728 0
M  V30 7989 C 740.681 5.68717 3.49453 0
M  V30 7990 H 739.951 0.338106 0.659367 0
M  V30 7991 H 742.598 1.43594 1.26701 0
M  V30 7992 H 740.903 0.888691 3.81588 0
M  V30 7993 H 742.6 1.27972 3.80032 0
M  V30 7994 H 739.19 2.64746 3.37057 0
M  V30 7995 H 743.374 3.62805 3.38654 0
M  V30 7996 H 738.63 5.03925 3.46222 0
M  V30 7997 H 742.804 6.02618 3.49034 0
M  V30 7998 H 740.431 6.73596 3.5238 0
M  V30 7999 N 742.006 -1.2595 0.947325 0
M  V30 8000 C 743.254 -1.93081 0.596996 0
M  V30 8001 C 743.575 -1.74632 -0.867672 0
M  V30 8002 O 742.845 -1.1056 -1.6172 0
M  V30 8003 H 741.425 -0.714542 0.217805 0
M  V30 8004 H 744.087 -1.53265 1.20398 0
M  V30 8005 H 743.183 -3.01134 0.82004 0
M  V30 8006 N 743.484 -0.715051 -1.40445 0
M  V30 8007 C 744.709 -0.26254 -2.05732 0
M  V30 8008 C 745.134 1.08691 -1.53519 0
M  V30 8009 O 744.492 1.68453 -0.670328 0
M  V30 8010 C 744.54 -0.25195 -3.59719 0
M  V30 8011 O 743.644 0.766998 -4.05205 0
M  V30 8012 H 742.985 -0.123398 -0.652433 0
M  V30 8013 H 745.515 -0.975382 -1.79854 0
M  V30 8014 H 745.525 -0.0894537 -4.07902 0
M  V30 8015 H 744.2 -1.23672 -3.97087 0
M  V30 8016 H 742.777 0.572269 -3.68483 0
M  V30 8017 N 744.962 1.50701 -0.461195 0
M  V30 8018 C 745.925 2.2686 0.326679 0
M  V30 8019 C 746.925 1.31243 0.929085 0
M  V30 8020 O 748.115 1.54754 0.799807 0
M  V30 8021 C 745.247 3.07844 1.46441 0
M  V30 8022 H 746.44 2.97954 -0.341095 0
M  V30 8023 H 743.993 1.54814 -0.214984 0
M  V30 8024 H 744.728 2.41223 2.16753 0
M  V30 8025 H 744.513 3.78101 1.03836 0
M  V30 8026 H 746.003 3.65469 2.02044 0
M  V30 8027 N 746.441 0.193421 1.56409 0
M  V30 8028 C 747.666 -0.454552 2.02358 0
M  V30 8029 C 748.091 -1.54516 1.07268 0
M  V30 8030 O 747.449 -1.81214 0.0558962 0
M  V30 8031 C 747.497 -0.989469 3.46759 0
M  V30 8032 O 746.601 -2.10244 3.54783 0
M  V30 8033 H 745.942 -0.106417 0.655417 0
M  V30 8034 H 748.472 0.303807 2.02332 0
M  V30 8035 H 748.482 -1.30649 3.86516 0
M  V30 8036 H 747.157 -0.191083 4.15461 0
M  V30 8037 H 745.734 -1.79419 3.26899 0
M  V30 8038 N 747.919 -1.57396 -0.0801906 0
M  V30 8039 C 749.144 -1.91437 -0.797909 0
M  V30 8040 C 749.569 -0.789075 -1.70749 0
M  V30 8041 O 748.927 0.25857 -1.79447 0
M  V30 8042 C 748.975 -3.24402 -1.57467 0
M  V30 8043 O 748.079 -3.13043 -2.68473 0
M  V30 8044 H 747.42 -0.627109 -0.218243 0
M  V30 8045 H 749.95 -2.04537 -0.050949 0
M  V30 8046 H 749.96 -3.58072 -1.95571 0
M  V30 8047 H 748.635 -4.05884 -0.907229 0
M  V30 8048 H 747.212 -2.90915 -2.33287 0
M  V30 8049 N 749.397 0.351382 -1.53633 0
M  V30 8050 C 750.674 1.10903 -1.6112 0
M  V30 8051 C 751.054 2.06725 -0.427556 0
M  V30 8052 O 750.402 2.20992 0.580916 0
M  V30 8053 C 750.612 1.83561 -2.96827 0
M  V30 8054 C 751.96 2.37587 -3.51906 0
M  V30 8055 O 752.984 1.93669 -2.9895 0
M  V30 8056 O 751.843 3.17913 -4.44515 0
M  V30 8057 H 748.937 0.509558 -0.651368 0
M  V30 8058 H 751.483 0.353504 -1.65977 0
M  V30 8059 H 750.255 1.1371 -3.74414 0
M  V30 8060 H 749.878 2.6599 -2.95525 0
M  V30 8061 N 750.875 1.45233 0.611969 0
M  V30 8062 C 752.103 1.52539 1.39784 0
M  V30 8063 C 752.518 0.156533 1.8815 0
M  V30 8064 O 751.875 -0.84112 1.61961 0
M  V30 8065 C 751.926 2.50614 2.60528 0
M  V30 8066 O 751.647 3.8218 2.14173 0
M  V30 8067 C 753.148 2.67574 3.53439 0
M  V30 8068 H 750.368 0.51674 0.428043 0
M  V30 8069 H 752.912 1.90379 0.746727 0
M  V30 8070 H 751.067 2.15858 3.2169 0
M  V30 8071 H 751.481 4.35305 2.92592 0
M  V30 8072 H 752.955 3.40184 4.34717 0
M  V30 8073 H 753.432 1.73458 4.03496 0
M  V30 8074 H 754.038 3.0331 2.98133 0
M  V30 8075 N 752.353 -0.854086 1.3245 0
M  V30 8076 C 753.769 -1.14238 1.11453 0
M  V30 8077 C 753.969 -2.01228 -0.10461 0
M  V30 8078 O 753.025 -2.39845 -0.789339 0
M  V30 8079 C 754.338 -1.81916 2.39431 0
M  V30 8080 C 755.886 -1.94549 2.45193 0
M  V30 8081 C 756.361 -2.65642 3.73093 0
M  V30 8082 N 757.852 -2.73167 3.74078 0
M  V30 8083 C 758.587 -3.28828 4.69744 0
M  V30 8084 N 758.083 -3.85295 5.75778 0
M  V30 8085 N 759.876 -3.26936 4.57241 0
M  V30 8086 H 752.027 -0.274786 2.10615 0
M  V30 8087 H 754.29 -0.184375 0.929898 0
M  V30 8088 H 753.996 -1.25452 3.28565 0
M  V30 8089 H 753.87 -2.82068 2.50434 0
M  V30 8090 H 756.257 -2.50172 1.56518 0
M  V30 8091 H 756.338 -0.933914 2.38142 0
M  V30 8092 H 755.982 -2.10683 4.62142 0
M  V30 8093 H 755.912 -3.6724 3.77415 0
M  V30 8094 H 758.403 -2.33108 2.97438 0
M  V30 8095 H 758.716 -4.25925 6.44832 0
M  V30 8096 H 757.061 -3.83625 5.79531 0
M  V30 8097 H 760.252 -2.8207 3.7357 0
M  V30 8098 H 760.425 -3.70014 5.31971 0
M  V30 8099 N 753.831 -1.1567 -1.07043 0
M  V30 8100 C 755.108 -0.843948 -1.76456 0
M  V30 8101 C 755.488 0.659806 -2.00524 0
M  V30 8102 O 754.836 1.60518 -1.62623 0
M  V30 8103 C 755.046 -1.65822 -3.0709 0
M  V30 8104 C 756.394 -1.8664 -3.8138 0
M  V30 8105 O 757.418 -1.62624 -3.1691 0
M  V30 8106 O 756.277 -2.26884 -4.97178 0
M  V30 8107 H 753.371 -0.310677 -0.766426 0
M  V30 8108 H 755.917 -1.26266 -1.1338 0
M  V30 8109 H 754.689 -2.67902 -2.85209 0
M  V30 8110 H 754.312 -1.23605 -3.77899 0
M  V30 8111 N 755.309 1.25446 -0.953992 0
M  V30 8112 C 756.257 2.27909 -0.46478 0
M  V30 8113 C 757.251 1.62904 0.464607 0
M  V30 8114 O 758.457 1.76733 0.341407 0
M  V30 8115 H 754.832 0.74036 -0.131798 0
M  V30 8116 H 756.803 2.66559 -1.34122 0
M  V30 8117 C 755.552 3.46853 0.242589 0
M  V30 8118 H 754.875 3.97105 -0.463418 0
M  V30 8119 H 756.315 4.20432 0.548919 0
M  V30 8120 C 754.774 3.03386 1.46487 0
M  V30 8121 O 755.304 3.09342 2.56262 0
M  V30 8122 N 753.51 2.58584 1.32599 0
M  V30 8123 H 753.057 2.53938 0.432834 0
M  V30 8124 H 753.015 2.29866 2.14497 0
M  V30 8125 N 756.787 0.722489 1.40064 0
M  V30 8126 C 757.735 0.063329 2.32514 0
M  V30 8127 C 758.729 -0.73953 1.52405 0
M  V30 8128 O 759.935 -0.642122 1.68157 0
M  V30 8129 H 756.31 0.00167692 0.751998 0
M  V30 8130 H 758.281 0.859656 2.85749 0
M  V30 8131 C 757.03 -0.839219 3.3742 0
M  V30 8132 H 756.353 -0.230836 3.99133 0
M  V30 8133 H 757.793 -1.26827 4.04587 0
M  V30 8134 C 756.252 -1.96783 2.73456 0
M  V30 8135 O 756.782 -3.05933 2.60323 0
M  V30 8136 N 754.988 -1.75351 2.31734 0
M  V30 8137 H 754.535 -0.865787 2.42615 0
M  V30 8138 H 754.493 -2.51043 1.89275 0
M  V30 8139 O 758.304 -1.49494 0.611055 0
M  V30 8140 H 758.995 -1.93303 0.123934 0
M  V30 END ATOM
M  V30 BEGIN BOND
M  V30 END BOND
M  V30 END CTAB
M  END
$$$$
