drugbank_target|Q9UJT1 Tubulin delta chain (DB00570)
 OpenBabel12092120373D

  0  0  0     0  0            999 V3000
M  V30 BEGIN CTAB
M  V30 COUNTS 7099 7185 0 0 0
M  V30 BEGIN ATOM
M  V30 1 H -0.908 1.98254 -0.117106 0
M  V30 2 N 0 1.576 0 0
M  V30 3 C 0.933 2.03868 1.02534 0
M  V30 4 C 1.911 0.928543 1.3348 0
M  V30 5 O 3.095 1.19667 1.45644 0
M  V30 6 C 0.222 2.43627 2.35294 0
M  V30 7 C -0.732 3.65373 2.2001 0
M  V30 8 S 0.101 5.13292 1.52614 0
M  V30 9 C 1.257 5.56322 2.86805 0
M  V30 10 H 1.49 2.90518 0.631377 0
M  V30 11 H -0.977 1.52953 0.210867 0
M  V30 12 H 0.981 2.67203 3.11629 0
M  V30 13 H -0.358 1.57376 2.7183 0
M  V30 14 H -1.165 3.90944 3.18086 0
M  V30 15 H -1.563 3.418 1.51819 0
M  V30 16 H 0.729 5.58782 3.83104 0
M  V30 17 H 1.672 6.56266 2.65933 0
M  V30 18 H 2.08 4.83886 2.90714 0
M  V30 19 N 1.4781 -0.272755 1.55222 0
M  V30 20 C 2.7031 -1.02683 1.80197 0
M  V30 21 C 3.1281 -1.79142 0.573551 0
M  V30 22 O 2.4861 -1.74917 -0.476849 0
M  V30 23 C 2.5341 -1.9609 3.02624 0
M  V30 24 O 1.6381 -3.04863 2.77727 0
M  V30 25 H 0.9791 -0.293557 0.595584 0
M  V30 26 H 3.5091 -0.30159 2.02365 0
M  V30 27 H 3.5191 -2.38039 3.31363 0
M  V30 28 H 2.1941 -1.39851 3.91682 0
M  V30 29 H 0.7711 -2.67228 2.60084 0
M  V30 30 N 2.9562 -1.48159 -0.537278 0
M  V30 31 C 4.2052 -1.5506 -1.28993 0
M  V30 32 C 4.5182 -0.226211 -1.94288 0
M  V30 33 O 5.7242 -0.173395 -2.70946 0
M  V30 34 C 4.1802 -2.73429 -2.34018 0
M  V30 35 C 3.7882 -4.1248 -1.74825 0
M  V30 36 C 5.5322 -2.89638 -3.10339 0
M  V30 37 C 3.4392 -5.22121 -2.77747 0
M  V30 38 H 2.3692 -0.577231 -0.485098 0
M  V30 39 H 5.0202 -1.74478 -0.568317 0
M  V30 40 H 3.4022 -2.47431 -3.09182 0
M  V30 41 H 4.5762 -4.48466 -1.05899 0
M  V30 42 H 2.8912 -4.01327 -1.11022 0
M  V30 43 H 5.4882 -3.68718 -3.87235 0
M  V30 44 H 5.8312 -1.9882 -3.65754 0
M  V30 45 H 6.3642 -3.15502 -2.42288 0
M  V30 46 H 3.1032 -6.1488 -2.27161 0
M  V30 47 H 2.6232 -4.90631 -3.45024 0
M  V30 48 H 4.3022 -5.49924 -3.4087 0
M  V30 49 N 4.4343 0.785586 -1.36625 0
M  V30 50 C 5.6803 1.54591 -1.31261 0
M  V30 51 C 6.0133 1.93906 0.106823 0
M  V30 52 O 5.2883 1.63007 1.06108 0
M  V30 53 C 5.5713 2.82038 -2.23889 0
M  V30 54 C 5.4243 2.49066 -3.74548 0
M  V30 55 C 6.7433 3.83887 -2.15217 0
M  V30 56 H 3.8623 0.560846 -0.478143 0
M  V30 57 H 6.5043 0.902278 -1.67209 0
M  V30 58 H 4.6543 3.36961 -1.93363 0
M  V30 59 H 6.3263 2.00164 -4.15611 0
M  V30 60 H 4.5693 1.81954 -3.93796 0
M  V30 61 H 5.2403 3.40109 -4.34776 0
M  V30 62 H 7.7163 3.38421 -2.42096 0
M  V30 63 H 6.5923 4.70806 -2.82193 0
M  V30 64 H 6.8533 4.27131 -1.14068 0
M  V30 65 N 5.9124 1.20967 1.01018 0
M  V30 66 C 7.1404 1.04956 1.78303 0
M  V30 67 C 7.5554 -0.400915 1.84494 0
M  V30 68 O 6.9124 -1.27826 1.30257 0
M  V30 69 C 6.9634 1.63403 3.22462 0
M  V30 70 O 6.6844 3.02775 3.16637 0
M  V30 71 C 8.1854 1.52432 4.16268 0
M  V30 72 H 5.4054 0.368858 0.560522 0
M  V30 73 H 7.9494 1.60193 1.27116 0
M  V30 74 H 6.1044 1.1227 3.70775 0
M  V30 75 H 6.5184 3.30626 4.07169 0
M  V30 76 H 7.9924 1.98078 5.15237 0
M  V30 77 H 8.4694 0.477875 4.36592 0
M  V30 78 H 9.0754 2.02787 3.73841 0
M  V30 79 N 7.3905 -1.2043 1.01659 0
M  V30 80 C 8.6365 -1.90079 0.706963 0
M  V30 81 C 8.9695 -1.78648 -0.761474 0
M  V30 82 O 8.2445 -1.17069 -1.55323 0
M  V30 83 C 8.5275 -3.41469 1.14327 0
M  V30 84 C 8.3805 -3.61833 2.67201 0
M  V30 85 C 9.6995 -4.34261 0.714529 0
M  V30 86 H 6.8185 -0.690254 0.2583 0
M  V30 87 H 9.4605 -1.41826 1.26433 0
M  V30 88 H 7.6105 -3.82696 0.669056 0
M  V30 89 H 9.2825 -3.2986 3.22475 0
M  V30 90 H 7.5255 -3.05304 3.08175 0
M  V30 91 H 8.1965 -4.67955 2.92783 0
M  V30 92 H 10.6725 -4.00682 1.12221 0
M  V30 93 H 9.5485 -5.38806 1.04784 0
M  V30 94 H 9.8095 -4.40431 -0.383799 0
M  V30 95 N 8.8686 -0.792821 -1.36206 0
M  V30 96 C 9.8006 -0.151469 -2.28699 0
M  V30 97 C 10.8136 0.641262 -1.49638 0
M  V30 98 O 12.0026 0.475885 -1.72039 0
M  V30 99 C 9.1026 0.808424 -3.29117 0
M  V30 100 C 8.2756 0.0650202 -4.37352 0
M  V30 101 C 7.3346 0.941358 -5.17711 0
M  V30 102 O 6.3606 0.397352 -5.67811 0
M  V30 103 N 7.5626 2.2652 -5.3448 0
M  V30 104 H 10.3276 -0.945982 -2.84379 0
M  V30 105 H 7.8886 -0.647032 -1.48409 0
M  V30 106 H 9.8806 1.3986 -3.79765 0
M  V30 107 H 8.4506 1.5038 -2.74052 0
M  V30 108 H 7.6706 -0.706255 -3.87822 0
M  V30 109 H 8.9586 -0.447847 -5.06825 0
M  V30 110 H 8.3566 2.73128 -4.95396 0
M  V30 111 H 6.9136 2.80493 -5.88359 0
M  V30 112 N 10.3467 1.47872 -0.545128 0
M  V30 113 C 11.2767 2.32661 0.197793 0
M  V30 114 C 12.2577 1.43041 0.920504 0
M  V30 115 O 13.4427 1.71912 0.90333 0
M  V30 116 C 10.5727 3.24569 1.23582 0
M  V30 117 C 9.5267 4.23333 0.630323 0
M  V30 118 C 8.8527 5.0448 1.77211 0
M  V30 119 C 10.1527 5.20704 -0.407974 0
M  V30 120 H 11.8467 2.95024 -0.510045 0
M  V30 121 H 9.3927 1.4187 -0.246731 0
M  V30 122 H 11.3457 3.8272 1.76362 0
M  V30 123 H 10.0697 2.60236 1.97344 0
M  V30 124 H 8.7287 3.6639 0.123922 0
M  V30 125 H 8.3767 4.36561 2.49847 0
M  V30 126 H 8.0767 5.71339 1.37281 0
M  V30 127 H 9.6007 5.65487 2.3034 0
M  V30 128 H 11.0147 5.7329 0.033305 0
M  V30 129 H 9.4117 5.95699 -0.725486 0
M  V30 130 H 10.4817 4.66917 -1.30828 0
M  V30 131 N 11.8248 0.280983 1.55075 0
M  V30 132 C 13.0728 -0.333455 1.9933 0
M  V30 133 C 13.3938 -1.55937 1.17085 0
M  V30 134 O 12.6638 -1.94143 0.261805 0
M  V30 135 H 11.2438 -0.126197 0.736263 0
M  V30 136 H 13.9058 0.387678 1.91005 0
M  V30 137 H 13.0018 -0.619292 3.05894 0
M  V30 138 N 13.3029 -1.57598 0.00835791 0
M  V30 139 C 14.2349 -2.05811 -1.00868 0
M  V30 140 C 15.2479 -0.977579 -1.30182 0
M  V30 141 O 16.4369 -1.25421 -1.27011 0
M  V30 142 C 13.5369 -2.45016 -2.34137 0
M  V30 143 C 12.7099 -3.75903 -2.23643 0
M  V30 144 C 11.7689 -4.01884 -3.3967 0
M  V30 145 O 10.7949 -4.72433 -3.17483 0
M  V30 146 N 11.9969 -3.50432 -4.62793 0
M  V30 147 H 14.7619 -2.93684 -0.597458 0
M  V30 148 H 12.3229 -1.60909 -0.178852 0
M  V30 149 H 14.3149 -2.59506 -3.10546 0
M  V30 150 H 12.8849 -1.62618 -2.66972 0
M  V30 151 H 12.1049 -3.7141 -1.32091 0
M  V30 152 H 13.3929 -4.61695 -2.13812 0
M  V30 153 H 12.7909 -2.93317 -4.83716 0
M  V30 154 H 11.3479 -3.70236 -5.3644 0
M  V30 155 N 14.781 0.264519 -1.55364 0
M  V30 156 C 16.021 1.00254 -1.78125 0
M  V30 157 C 16.385 1.83187 -0.575017 0
M  V30 158 O 17.586 2.60029 -0.681042 0
M  V30 159 C 15.857 1.85478 -3.05504 0
M  V30 160 S 17.416 2.6543 -3.49417 0
M  V30 161 H 14.234 0.337522 -0.625779 0
M  V30 162 H 16.836 0.272111 -1.93597 0
M  V30 163 H 15.54 1.23491 -3.9138 0
M  V30 164 H 15.071 2.62827 -2.92721 0
M  V30 165 H 17.086 3.87958 -3.09359 0
M  V30 166 N 16.2591 1.48442 0.529413 0
M  V30 167 C 17.5071 1.56179 1.28267 0
M  V30 168 C 17.8281 0.237721 1.93546 0
M  V30 169 O 17.0981 -0.740779 1.81354 0
M  V30 170 H 15.6781 0.575367 0.476405 0
M  V30 171 H 18.3401 1.84909 0.61602 0
M  V30 172 H 17.4361 2.34312 2.06165 0
M  V30 173 N 17.7372 -0.778329 1.37039 0
M  V30 174 C 18.6852 -1.91278 1.32345 0
M  V30 175 C 19.6792 -1.68051 0.213331 0
M  V30 176 O 20.8852 -1.75922 0.38098 0
M  V30 177 H 17.2602 -0.628909 0.412283 0
M  V30 178 H 19.2312 -1.92355 2.28127 0
M  V30 179 C 17.9802 -3.28455 1.14073 0
M  V30 180 H 17.3032 -3.46901 1.98746 0
M  V30 181 H 18.7432 -4.08152 1.14837 0
M  V30 182 C 17.2022 -3.36548 -0.154015 0
M  V30 183 O 17.7322 -3.85186 -1.13993 0
M  V30 184 N 15.9382 -2.89894 -0.202475 0
M  V30 185 H 15.4852 -2.50504 0.600476 0
M  V30 186 H 15.4432 -2.9569 -1.06841 0
M  V30 187 N 19.2153 -1.21501 -1.00376 0
M  V30 188 C 20.1473 -0.933174 -2.09343 0
M  V30 189 C 21.1603 0.0840896 -1.62583 0
M  V30 190 O 22.3493 -0.148563 -1.77881 0
M  V30 191 C 19.4493 -0.379869 -3.36764 0
M  V30 192 C 18.6223 -1.45176 -4.12605 0
M  V30 193 C 17.6813 -0.907476 -5.18316 0
M  V30 194 O 16.7073 -1.5912 -5.46507 0
M  V30 195 N 17.9093 0.276649 -5.7984 0
M  V30 196 H 20.6743 -1.87124 -2.34104 0
M  V30 197 H 18.2353 -1.12043 -1.16867 0
M  V30 198 H 20.2273 -0.00131488 -4.047 0
M  V30 199 H 18.7973 0.463048 -3.09151 0
M  V30 200 H 18.0173 -2.00411 -3.39454 0
M  V30 201 H 19.3053 -2.17328 -4.6005 0
M  V30 202 H 18.7033 0.849147 -5.59291 0
M  V30 203 H 17.2603 0.596702 -6.49063 0
M  V30 204 N 20.6934 1.19889 -1.02296 0
M  V30 205 C 21.9424 1.88743 -0.711257 0
M  V30 206 C 22.2554 1.80112 0.762817 0
M  V30 207 O 23.4614 2.44161 1.18733 0
M  V30 208 C 21.9174 3.38525 -1.22185 0
M  V30 209 C 21.5254 3.55727 -2.72328 0
M  V30 210 C 23.2694 4.12893 -0.985864 0
M  V30 211 C 21.1764 4.99369 -3.16835 0
M  V30 212 H 20.1064 0.706885 -0.262353 0
M  V30 213 H 22.7574 1.35586 -1.23648 0
M  V30 214 H 21.1394 3.91044 -0.624571 0
M  V30 215 H 22.3134 3.13564 -3.3766 0
M  V30 216 H 20.6284 2.94739 -2.9414 0
M  V30 217 H 23.2254 5.18813 -1.29374 0
M  V30 218 H 23.5684 4.16228 0.0775055 0
M  V30 219 H 24.1014 3.66494 -1.54684 0
M  V30 220 H 20.8404 5.01193 -4.22476 0
M  V30 221 H 20.3604 5.42317 -2.56228 0
M  V30 222 H 22.0394 5.67988 -3.09837 0
M  V30 223 N 22.1715 0.800033 1.35784 0
M  V30 224 C 23.4195 0.376597 1.9856 0
M  V30 225 C 23.7405 -1.05812 1.63795 0
M  V30 226 O 23.0105 -1.73103 0.917171 0
M  V30 227 H 21.5905 0.136261 0.734467 0
M  V30 228 H 24.2525 1.02442 1.65806 0
M  V30 229 H 23.3485 0.477002 3.08433 0
M  V30 230 N 23.6496 -1.47581 0.552962 0
M  V30 231 C 24.8966 -2.02482 0.0273243 0
M  V30 232 C 25.2246 -1.42776 -1.32081 0
M  V30 233 O 24.4796 -0.571393 -1.87173 0
M  V30 234 C 24.7786 -3.57199 -0.119728 0
M  V30 235 C 24.4446 -4.35804 1.15697 0
M  V30 236 C 23.1066 -4.57 1.50681 0
M  V30 237 C 25.4586 -4.81167 2.00319 0
M  V30 238 C 22.7866 -5.20807 2.70142 0
M  V30 239 C 25.1386 -5.46293 3.18978 0
M  V30 240 C 23.8026 -5.65722 3.54281 0
M  V30 241 H 23.0726 -0.740933 0.00999866 0
M  V30 242 H 25.7196 -1.77302 0.72362 0
M  V30 243 H 24.0246 -3.81348 -0.89896 0
M  V30 244 H 25.7216 -3.97324 -0.541718 0
M  V30 245 H 22.3116 -4.19582 0.874561 0
M  V30 246 H 26.4956 -4.64574 1.74599 0
M  V30 247 H 21.7516 -5.34045 2.97668 0
M  V30 248 H 25.9256 -5.80407 3.84838 0
M  V30 249 H 23.5526 -6.14936 4.46942 0
M  V30 250 N 25.1277 -0.289203 -1.54924 0
M  V30 251 C 26.0377 0.601863 -2.26748 0
M  V30 252 C 27.0537 1.15834 -1.2984 0
M  V30 253 O 28.2297 1.18564 -1.62802 0
M  V30 254 C 25.2947 1.76299 -2.98529 0
M  V30 255 C 24.3557 1.24178 -4.10948 0
M  V30 256 C 23.5887 2.34757 -4.79296 0
M  V30 257 O 23.8117 3.54411 -4.46933 0
M  V30 258 O 22.7457 2.02115 -5.66951 0
M  V30 259 H 26.5717 0.0195879 -3.03694 0
M  V30 260 H 24.1567 -0.0560868 -1.49295 0
M  V30 261 H 26.0387 2.43973 -3.43592 0
M  V30 262 H 24.7137 2.33209 -2.24488 0
M  V30 263 H 23.6207 0.531104 -3.70311 0
M  V30 264 H 24.9537 0.718252 -4.86931 0
M  V30 265 N 26.6058 1.57591 -0.0167156 0
M  V30 266 C 27.8518 1.91567 0.665582 0
M  V30 267 C 28.1848 0.892298 1.72487 0
M  V30 268 O 27.4598 -0.0867127 1.94307 0
M  V30 269 C 27.7428 3.36069 1.29342 0
M  V30 270 C 27.5958 4.49135 0.244541 0
M  V30 271 C 28.9148 3.803 2.21495 0
M  V30 272 H 26.0338 0.69666 0.240488 0
M  V30 273 H 28.6758 1.89866 -0.0714356 0
M  V30 274 H 26.8258 3.3765 1.92158 0
M  V30 275 H 28.4978 4.59689 -0.385228 0
M  V30 276 H 26.7408 4.3165 -0.431379 0
M  V30 277 H 27.4118 5.47242 0.723207 0
M  V30 278 H 29.8878 3.80377 1.68678 0
M  V30 279 H 28.7638 4.82127 2.62382 0
M  V30 280 H 29.0248 3.15104 3.101 0
M  V30 281 N 28.0839 -0.256276 1.55502 0
M  V30 282 C 29.3309 -0.985619 1.76895 0
M  V30 283 C 29.6589 -1.85671 0.579355 0
M  V30 284 O 28.9139 -1.90744 -0.437651 0
M  V30 285 C 29.2129 -1.88432 3.03691 0
M  V30 286 C 28.8789 -1.16936 4.35473 0
M  V30 287 C 27.5409 -0.97173 4.71286 0
M  V30 288 C 29.8929 -0.661889 5.1698 0
M  V30 289 C 27.2209 -0.254179 5.86149 0
M  V30 290 C 29.5729 0.042149 6.32586 0
M  V30 291 C 28.2369 0.25134 6.67027 0
M  V30 292 H 27.5069 -0.360663 0.647304 0
M  V30 293 H 30.1539 -0.256483 1.89775 0
M  V30 294 H 28.4589 -2.68021 2.85783 0
M  V30 295 H 30.1559 -2.45015 3.1744 0
M  V30 296 H 26.7459 -1.33332 4.07333 0
M  V30 297 H 30.9299 -0.802145 4.89775 0
M  V30 298 H 26.1859 -0.0815408 6.11346 0
M  V30 299 H 30.3599 0.443049 6.94989 0
M  V30 300 H 27.9869 0.809314 7.5588 0
M  V30 301 N 29.562 -1.4872 -0.521534 0
M  V30 302 C 30.839 -1.4766 -1.2828 0
M  V30 303 C 31.219 -0.19292 -2.10217 0
M  V30 304 O 30.567 0.825193 -2.13079 0
M  V30 305 C 30.777 -2.74358 -2.15705 0
M  V30 306 C 32.125 -3.23028 -2.75569 0
M  V30 307 O 33.149 -2.75333 -2.25987 0
M  V30 308 O 32.008 -4.0604 -3.65778 0
M  V30 309 H 29.102 -0.590085 -0.579421 0
M  V30 310 H 31.648 -1.60963 -0.537492 0
M  V30 311 H 30.42 -3.59292 -1.54999 0
M  V30 312 H 30.043 -2.63816 -2.97467 0
M  V30 313 N 31.0401 0.771051 -1.3745 0
M  V30 314 C 32.0031 1.86598 -1.33093 0
M  V30 315 C 33.0031 1.59076 -0.234845 0
M  V30 316 O 34.1931 1.67145 -0.490732 0
M  V30 317 C 31.3251 3.23747 -1.06773 0
M  V30 318 H 32.5181 1.91873 -2.30488 0
M  V30 319 H 30.0711 0.970876 -1.2249 0
M  V30 320 H 30.8061 3.24148 -0.099129 0
M  V30 321 H 30.5911 3.45115 -1.86112 0
M  V30 322 H 32.0811 4.03824 -1.06377 0
M  V30 323 N 32.5182 1.22032 0.997298 0
M  V30 324 C 33.4482 1.01065 2.10495 0
M  V30 325 C 34.4292 -0.0669542 1.69968 0
M  V30 326 O 35.6142 0.0943987 1.9397 0
M  V30 327 C 32.7442 0.582874 3.42374 0
M  V30 328 C 31.6982 1.60592 3.96729 0
M  V30 329 C 31.0242 1.03412 5.24605 0
M  V30 330 C 32.3242 2.99478 4.27914 0
M  V30 331 H 34.0182 1.93708 2.28292 0
M  V30 332 H 31.5642 0.932761 1.09707 0
M  V30 333 H 33.5172 0.423332 4.19268 0
M  V30 334 H 32.2412 -0.379213 3.24391 0
M  V30 335 H 30.9002 1.75316 3.21963 0
M  V30 336 H 30.5482 0.063518 5.0296 0
M  V30 337 H 30.2482 1.71754 5.61938 0
M  V30 338 H 31.7722 0.886066 6.04137 0
M  V30 339 H 33.1862 2.88153 4.95622 0
M  V30 340 H 31.5832 3.64903 4.76409 0
M  V30 341 H 32.6532 3.49742 3.3587 0
M  V30 342 N 33.9963 -1.19345 1.0293 0
M  V30 343 C 34.9263 -2.2481 0.631105 0
M  V30 344 C 35.9073 -1.66245 -0.360104 0
M  V30 345 O 37.0923 -1.92677 -0.242726 0
M  V30 346 C 34.2223 -3.47295 -0.0184607 0
M  V30 347 C 33.1763 -4.18536 0.895073 0
M  V30 348 C 32.5023 -5.34586 0.110592 0
M  V30 349 C 33.8023 -4.73287 2.209 0
M  V30 350 H 35.4963 -2.58372 1.51275 0
M  V30 351 H 33.0423 -1.24194 0.728818 0
M  V30 352 H 34.9953 -4.20268 -0.308675 0
M  V30 353 H 33.7193 -3.12933 -0.934907 0
M  V30 354 H 32.3783 -3.47446 1.16949 0
M  V30 355 H 32.0263 -4.96469 -0.807902 0
M  V30 356 H 31.7263 -5.83183 0.719087 0
M  V30 357 H 33.2503 -6.10355 -0.172871 0
M  V30 358 H 34.6643 -5.38013 1.98028 0
M  V30 359 H 33.0613 -5.32373 2.76946 0
M  V30 360 H 34.1313 -3.91331 2.86336 0
M  V30 361 N 35.4744 -0.807222 -1.35358 0
M  V30 362 C 36.6994 -0.399309 -2.0352 0
M  V30 363 C 37.1244 0.981986 -1.60433 0
M  V30 364 O 36.4824 1.63601 -0.781299 0
M  V30 365 C 36.5304 -0.491552 -3.57234 0
M  V30 366 O 35.6344 0.494754 -4.09421 0
M  V30 367 H 34.9754 -0.166682 -0.642739 0
M  V30 368 H 37.5054 -1.09328 -1.72941 0
M  V30 369 H 37.5154 -0.361588 -4.06395 0
M  V30 370 H 36.1904 -1.49907 -3.87944 0
M  V30 371 H 34.7674 0.324977 -3.71481 0
M  V30 372 N 36.9525 1.47285 -0.560781 0
M  V30 373 C 38.2295 1.9558 0.0277798 0
M  V30 374 C 38.6095 1.5034 1.48192 0
M  V30 375 O 37.9575 0.743882 2.16052 0
M  V30 376 C 38.1675 3.48789 -0.121418 0
M  V30 377 C 39.5155 4.24594 0.0220912 0
M  V30 378 O 40.5395 3.56166 -0.0491439 0
M  V30 379 O 39.3985 5.46217 0.175958 0
M  V30 380 H 36.4925 0.824663 0.0621342 0
M  V30 381 H 39.0385 1.5767 -0.627556 0
M  V30 382 H 37.8105 3.74533 -1.13316 0
M  V30 383 H 37.4335 3.93473 0.571366 0
M  V30 384 N 38.4306 0.297415 1.54768 0
M  V30 385 C 39.6556 -0.318435 2.04941 0
M  V30 386 C 40.0806 -1.4701 1.17345 0
M  V30 387 O 39.4386 -1.80436 0.176758 0
M  V30 388 C 39.4866 -0.755749 3.52592 0
M  V30 389 O 38.5906 -1.86088 3.68028 0
M  V30 390 H 37.9316 -0.062421 0.661059 0
M  V30 391 H 40.4616 0.438215 1.99852 0
M  V30 392 H 40.4716 -1.04552 3.94376 0
M  V30 393 H 39.1466 0.0867233 4.1581 0
M  V30 394 H 37.7236 -1.57193 3.38149 0
M  V30 395 N 39.9087 -1.5758 0.0250728 0
M  V30 396 C 40.8587 -2.06468 -0.967201 0
M  V30 397 C 41.8427 -0.964376 -1.28797 0
M  V30 398 O 43.0347 -1.22797 -1.27475 0
M  V30 399 C 40.1637 -2.59203 -2.25097 0
M  V30 400 C 39.2497 -3.76157 -1.95874 0
M  V30 401 N 39.6407 -4.86919 -1.36905 0
M  V30 402 C 37.9387 -3.84566 -2.25887 0
M  V30 403 C 38.6397 -5.68172 -1.24724 0
M  V30 404 N 37.6157 -5.14953 -1.74138 0
M  V30 405 H 41.4177 -2.89508 -0.506176 0
M  V30 406 H 38.9317 -1.61399 -0.18004 0
M  V30 407 H 40.9287 -2.92517 -2.97052 0
M  V30 408 H 39.5887 -1.77592 -2.71829 0
M  V30 409 H 40.5997 -5.07256 -1.04459 0
M  V30 410 H 37.2767 -3.13854 -2.75321 0
M  V30 411 H 38.6667 -6.67221 -0.791605 0
M  V30 412 N 41.3868 0.248026 -1.55636 0
M  V30 413 C 42.6118 0.998028 -1.81808 0
M  V30 414 C 43.0368 1.78207 -0.601979 0
M  V30 415 O 42.3948 1.75653 0.448961 0
M  V30 416 C 42.4428 1.9125 -3.05705 0
M  V30 417 O 41.5468 3.00406 -2.82542 0
M  V30 418 H 40.8878 0.284045 -0.600179 0
M  V30 419 H 43.4178 0.269357 -2.02819 0
M  V30 420 H 43.4278 2.32737 -3.35108 0
M  V30 421 H 42.1028 1.33602 -3.93857 0
M  V30 422 H 40.6798 2.63056 -2.64303 0
M  V30 423 N 42.8649 1.48995 0.513639 0
M  V30 424 C 44.0899 1.61792 1.29762 0
M  V30 425 C 44.5149 0.284475 1.85936 0
M  V30 426 O 43.8729 -0.746185 1.65232 0
M  V30 427 C 43.9209 2.67993 2.41272 0
M  V30 428 O 43.0249 2.26287 3.44772 0
M  V30 429 H 42.3659 0.541963 0.38363 0
M  V30 430 H 44.8959 1.95097 0.616307 0
M  V30 431 H 44.9059 2.89772 2.87221 0
M  V30 432 H 43.5809 3.64791 1.9975 0
M  V30 433 H 42.1579 2.14788 3.04829 0
M  V30 434 N 44.343 -0.763751 1.37857 0
M  V30 435 C 45.275 -1.88664 1.30148 0
M  V30 436 C 46.288 -1.61365 0.215685 0
M  V30 437 O 47.477 -1.72134 0.472459 0
M  V30 438 C 44.577 -3.24075 0.991396 0
M  V30 439 C 43.75 -3.78958 2.18426 0
M  V30 440 C 42.809 -4.92862 1.8432 0
M  V30 441 O 41.835 -5.08027 2.56704 0
M  V30 442 N 43.037 -5.75071 0.792081 0
M  V30 443 H 45.802 -1.95791 2.26905 0
M  V30 444 H 43.363 -0.943226 1.31586 0
M  V30 445 H 45.355 -3.97804 0.743935 0
M  V30 446 H 43.925 -3.12399 0.112122 0
M  V30 447 H 43.145 -2.96913 2.59299 0
M  V30 448 H 44.433 -4.12357 2.98058 0
M  V30 449 H 43.831 -5.65375 0.191595 0
M  V30 450 H 42.388 -6.48991 0.60449 0
M  V30 451 N 45.8211 -1.22559 -0.990812 0
M  V30 452 C 47.0691 -1.04933 -1.72724 0
M  V30 453 C 47.3901 0.416158 -1.90508 0
M  V30 454 O 46.6601 1.29918 -1.46622 0
M  V30 455 H 45.2401 -0.385296 -0.639965 0
M  V30 456 H 47.9021 -1.54105 -1.19322 0
M  V30 457 H 46.9981 -1.52886 -2.72089 0
M  V30 458 N 47.2992 1.18797 -1.03562 0
M  V30 459 C 48.2292 2.24472 -0.643019 0
M  V30 460 C 49.2102 1.66433 0.351283 0
M  V30 461 O 50.3952 1.92803 0.232505 0
M  V30 462 C 47.5252 3.473 4.24935e-05 0
M  V30 463 C 46.4792 4.18055 -0.917257 0
M  V30 464 C 45.8052 5.34519 -0.138941 0
M  V30 465 C 47.1052 4.72109 -2.23407 0
M  V30 466 H 48.7992 2.57566 -1.52643 0
M  V30 467 H 46.3452 1.23806 -0.735394 0
M  V30 468 H 48.2982 4.20426 0.286383 0
M  V30 469 H 47.0222 3.13424 0.918299 0
M  V30 470 H 45.6812 3.46821 -1.1879 0
M  V30 471 H 45.3292 4.96891 0.781562 0
M  V30 472 H 45.0292 5.82794 -0.750005 0
M  V30 473 H 46.5532 6.10438 0.1405 0
M  V30 474 H 47.9672 5.36955 -2.00879 0
M  V30 475 H 46.3642 5.30897 -2.79765 0
M  V30 476 H 47.4342 3.89807 -2.88407 0
M  V30 477 N 48.7773 0.814389 1.34928 0
M  V30 478 C 50.0173 0.404165 2.00364 0
M  V30 479 C 50.3813 -1.01166 1.63185 0
M  V30 480 O 51.5823 -1.52431 2.21401 0
M  V30 481 C 49.8533 0.590718 3.52484 0
M  V30 482 S 51.4123 0.272075 4.37956 0
M  V30 483 H 48.2303 0.15311 0.694319 0
M  V30 484 H 50.8323 1.05834 1.64376 0
M  V30 485 H 49.5363 1.62099 3.77031 0
M  V30 486 H 49.0673 -0.0785013 3.93322 0
M  V30 487 H 51.0823 -0.917405 4.87645 0
M  V30 488 N 50.2554 -1.46986 0.568584 0
M  V30 489 C 51.4804 -2.07335 0.0520528 0
M  V30 490 C 51.9054 -1.41675 -1.23733 0
M  V30 491 O 51.2634 -0.495623 -1.74394 0
M  V30 492 C 51.3114 -3.60417 -0.11501 0
M  V30 493 O 50.4154 -3.95309 -1.17492 0
M  V30 494 H 49.7564 -0.661597 0.0564385 0
M  V30 495 H 52.2864 -1.88837 0.787507 0
M  V30 496 H 52.2964 -4.06698 -0.325644 0
M  V30 497 H 50.9714 -4.07601 0.826675 0
M  V30 498 H 49.5484 -3.60757 -0.943869 0
M  V30 499 N 51.7335 -0.305618 -1.54608 0
M  V30 500 C 52.6665 0.610536 -2.19881 0
M  V30 501 C 53.6445 1.1294 -1.16976 0
M  V30 502 O 54.8285 1.19673 -1.45638 0
M  V30 503 C 51.9555 1.83583 -2.84631 0
M  V30 504 C 51.0015 1.4498 -4.01102 0
M  V30 505 S 51.8345 0.501793 -5.33144 0
M  V30 506 C 52.9905 1.73478 -6.01379 0
M  V30 507 H 53.2235 0.0560177 -2.97247 0
M  V30 508 H 50.7565 -0.0897434 -1.54139 0
M  V30 509 H 52.7145 2.53898 -3.22562 0
M  V30 510 H 51.3755 2.36152 -2.07102 0
M  V30 511 H 50.5685 2.36236 -4.45206 0
M  V30 512 H 50.1705 0.826553 -3.64752 0
M  V30 513 H 52.4625 2.67473 -6.22467 0
M  V30 514 H 53.4055 1.33622 -6.95378 0
M  V30 515 H 53.8135 1.9136 -5.31076 0
M  V30 516 N 53.2116 1.57565 -0.0334293 0
M  V30 517 C 54.6276 1.56297 0.322997 0
M  V30 518 C 54.8276 1.03945 1.7262 0
M  V30 519 O 53.8836 0.688109 2.42943 0
M  V30 520 C 55.1966 3.00232 0.167664 0
M  V30 521 C 56.7446 3.12078 0.240107 0
M  V30 522 C 57.2196 4.57859 0.113513 0
M  V30 523 N 58.7106 4.62887 0.170359 0
M  V30 524 C 59.4456 5.73319 0.0962517 0
M  V30 525 N 58.9416 6.92794 -0.0291881 0
M  V30 526 N 60.7346 5.61898 0.150551 0
M  V30 527 H 52.8856 1.89923 -0.950956 0
M  V30 528 H 55.1486 0.873824 -0.367608 0
M  V30 529 H 54.8546 3.42501 -0.799102 0
M  V30 530 H 54.7286 3.654 0.936083 0
M  V30 531 H 57.1156 2.69718 1.19733 0
M  V30 532 H 57.1966 2.49623 -0.558763 0
M  V30 533 H 56.8406 5.009 -0.840314 0
M  V30 534 H 56.7706 5.18299 0.931302 0
M  V30 535 H 59.2616 3.76954 0.26728 0
M  V30 536 H 59.5746 7.7276 -0.0789252 0
M  V30 537 H 57.9196 6.94971 -0.0640299 0
M  V30 538 H 61.1106 4.67448 0.246981 0
M  V30 539 H 61.2836 6.47938 0.0893365 0
M  V30 540 N 54.6897 -0.239769 1.55765 0
M  V30 541 C 55.5997 -1.31831 1.94056 0
M  V30 542 C 56.6157 -1.52275 0.841925 0
M  V30 543 O 57.7917 -1.65759 1.14394 0
M  V30 544 C 54.8567 -2.65156 2.23368 0
M  V30 545 C 53.9177 -2.53173 3.46701 0
M  V30 546 C 53.1507 -3.8014 3.74606 0
M  V30 547 O 53.3737 -4.82343 3.04469 0
M  V30 548 O 52.3077 -3.78344 4.68123 0
M  V30 549 H 56.1337 -1.02347 2.85935 0
M  V30 550 H 53.7187 -0.441123 1.42739 0
M  V30 551 H 55.6007 -3.43929 2.43497 0
M  V30 552 H 54.2757 -2.94358 1.34666 0
M  V30 553 H 53.1827 -1.72662 3.31871 0
M  V30 554 H 54.5157 -2.28915 4.35728 0
M  V30 555 N 56.1678 -1.49265 -0.50573 0
M  V30 556 C 57.1158 -1.66065 -1.62866 0
M  V30 557 C 58.1098 -0.526636 -1.61006 0
M  V30 558 O 59.3158 -0.706126 -1.65571 0
M  V30 559 H 55.6908 -0.52356 -0.539805 0
M  V30 560 H 57.6618 -2.60329 -1.45848 0
M  V30 561 C 56.4108 -1.74008 -3.01026 0
M  V30 562 H 55.7338 -2.6064 -3.03161 0
M  V30 563 H 57.1738 -1.89798 -3.79147 0
M  V30 564 C 55.6328 -0.483868 -3.33407 0
M  V30 565 O 56.1628 0.392548 -3.99777 0
M  V30 566 N 54.3688 -0.348236 -2.88506 0
M  V30 567 H 53.9158 -1.06242 -2.34671 0
M  V30 568 H 53.8738 0.491204 -3.10539 0
M  V30 569 N 57.6459 0.756429 -1.3826 0
M  V30 570 C 58.5559 1.9009 -1.37488 0
M  V30 571 C 59.5719 1.71855 -0.272366 0
M  V30 572 O 60.7479 1.94827 -0.510318 0
M  V30 573 C 57.8129 3.25421 -1.19592 0
M  V30 574 C 56.8739 3.56202 -2.39622 0
M  V30 575 C 56.1069 4.85075 -2.2257 0
M  V30 576 O 56.3299 5.57246 -1.21793 0
M  V30 577 O 55.2639 5.15269 -3.11098 0
M  V30 578 H 59.0899 1.93695 -2.33914 0
M  V30 579 H 56.6749 0.901313 -1.1915 0
M  V30 580 H 58.5569 4.06337 -1.11661 0
M  V30 581 H 57.2319 3.22634 -0.262486 0
M  V30 582 H 56.1389 2.75458 -2.53128 0
M  V30 583 H 57.4719 3.63747 -3.31586 0
M  V30 584 N 59.124 1.23083 0.984299 0
M  V30 585 C 60.087 1.00979 2.05757 0
M  V30 586 C 61.087 -0.0269573 1.60777 0
M  V30 587 O 62.277 0.212403 1.729 0
M  V30 588 C 59.409 0.527072 3.36801 0
M  V30 589 H 60.602 1.9622 2.26799 0
M  V30 590 H 58.155 1.05072 1.15714 0
M  V30 591 H 58.89 -0.429294 3.21446 0
M  V30 592 H 58.675 1.27515 3.70786 0
M  V30 593 H 60.165 0.392942 4.15747 0
M  V30 594 N 60.6021 -1.18246 1.0419 0
M  V30 595 C 61.8321 -1.91916 0.764961 0
M  V30 596 C 62.2401 -1.76485 -0.681898 0
M  V30 597 O 61.5831 -1.09275 -1.47664 0
M  V30 598 C 61.6451 -3.4373 1.05309 0
M  V30 599 C 61.3091 -3.8294 2.4941 0
M  V30 600 C 62.3061 -3.86621 3.47592 0
M  V30 601 C 59.9911 -4.142 2.84155 0
M  V30 602 C 61.9851 -4.21013 4.78568 0
M  V30 603 C 59.6721 -4.48262 4.15337 0
M  V30 604 C 60.6701 -4.51645 5.12353 0
M  V30 605 O 60.3581 -4.84911 6.41183 0
M  V30 606 H 60.0901 -0.61606 0.278292 0
M  V30 607 H 62.6441 -1.50947 1.39299 0
M  V30 608 H 60.8741 -3.84946 0.367933 0
M  V30 609 H 62.5631 -3.9865 0.763752 0
M  V30 610 H 63.3291 -3.62607 3.22089 0
M  V30 611 H 59.2081 -4.10743 2.09311 0
M  V30 612 H 62.7521 -4.23568 5.54289 0
M  V30 613 H 58.6491 -4.71737 4.40607 0
M  V30 614 H 59.4171 -5.02809 6.45852 0
M  V30 615 N 62.0802 -0.821533 -1.34494 0
M  V30 616 C 63.0122 -0.199946 -2.28326 0
M  V30 617 C 64.0252 0.609377 -1.50965 0
M  V30 618 O 65.2142 0.439285 -1.7301 0
M  V30 619 C 62.3142 0.738431 -3.30757 0
M  V30 620 C 61.4872 -0.0277632 -4.37391 0
M  V30 621 C 60.5462 0.831332 -5.19591 0
M  V30 622 O 59.5722 0.276822 -5.68526 0
M  V30 623 N 60.7742 2.15132 -5.39165 0
M  V30 624 H 63.5392 -1.00609 -2.82308 0
M  V30 625 H 61.1002 -0.678366 -1.47003 0
M  V30 626 H 63.0922 1.31773 -3.82646 0
M  V30 627 H 61.6622 1.44533 -2.7718 0
M  V30 628 H 60.8822 -0.788359 -3.86236 0
M  V30 629 H 62.1702 -0.555251 -5.05761 0
M  V30 630 H 61.5682 2.62559 -5.01078 0
M  V30 631 H 60.1252 2.6795 -5.94177 0
M  V30 632 N 63.5583 1.46682 -0.576371 0
M  V30 633 C 64.5213 2.28707 0.150239 0
M  V30 634 C 65.5213 1.38035 0.824794 0
M  V30 635 O 66.7113 1.60476 0.677719 0
M  V30 636 C 63.8433 3.18248 1.22192 0
M  V30 637 H 65.0363 2.94423 -0.570521 0
M  V30 638 H 62.5893 1.52688 -0.334078 0
M  V30 639 H 63.3243 2.57265 1.97447 0
M  V30 640 H 63.1093 3.85 0.742812 0
M  V30 641 H 64.5993 3.80001 1.73172 0
M  V30 642 N 65.0364 0.313813 1.54444 0
M  V30 643 C 66.2614 -0.296681 2.05267 0
M  V30 644 C 66.6864 -1.45757 1.18897 0
M  V30 645 O 66.0444 -1.80239 0.195886 0
M  V30 646 C 66.0924 -0.71831 3.53373 0
M  V30 647 O 65.1964 -1.82175 3.69981 0
M  V30 648 H 64.5374 -0.0554061 0.661684 0
M  V30 649 H 67.0674 0.459387 1.99376 0
M  V30 650 H 67.0774 -1.00364 3.95463 0
M  V30 651 H 65.7524 0.130821 4.15694 0
M  V30 652 H 64.3294 -1.53598 3.39797 0
M  V30 653 N 66.5145 -1.57545 0.0417849 0
M  V30 654 C 67.7545 -1.94185 -0.63809 0
M  V30 655 C 68.1185 -0.919339 -1.68559 0
M  V30 656 O 69.3195 -1.17236 -2.41886 0
M  V30 657 C 67.5905 -3.35672 -1.22714 0
M  V30 658 S 69.1495 -3.94256 -1.92633 0
M  V30 659 H 65.9675 -0.679353 -0.209764 0
M  V30 660 H 68.5695 -1.95199 0.108479 0
M  V30 661 H 67.2735 -4.07898 -0.452503 0
M  V30 662 H 66.8045 -3.38132 -2.01073 0
M  V30 663 H 68.8195 -3.7872 -3.20602 0
M  V30 664 N 67.9926 0.231505 -1.5589 0
M  V30 665 C 68.9396 1.28682 -1.91598 0
M  V30 666 C 69.9096 1.47071 -0.771974 0
M  V30 667 O 71.0946 1.60802 -1.027 0
M  V30 668 C 68.2346 2.6342 -2.22944 0
M  V30 669 C 67.3476 2.52912 -3.50228 0
M  V30 670 C 66.4826 3.80106 -3.7107 0
M  V30 671 C 65.5216 3.64279 -4.91902 0
M  V30 672 N 64.6586 4.834 -5.09184 0
M  V30 673 H 69.4986 0.975305 -2.81588 0
M  V30 674 H 67.0356 0.470299 -1.39379 0
M  V30 675 H 68.9936 3.41869 -2.39126 0
M  V30 676 H 67.6236 2.92687 -1.36139 0
M  V30 677 H 66.6756 1.6595 -3.42294 0
M  V30 678 H 67.9876 2.37133 -4.38827 0
M  V30 679 H 67.1416 4.66999 -3.87295 0
M  V30 680 H 65.8806 3.98799 -2.80733 0
M  V30 681 H 64.8856 2.7577 -4.75637 0
M  V30 682 H 66.1106 3.47067 -5.83714 0
M  V30 683 H 64.0566 5.02425 -4.21788 0
M  V30 684 H 63.9736 4.70311 -5.91898 0
M  V30 685 H 65.2416 5.71747 -5.29835 0
M  V30 686 N 69.4707 1.49531 0.497807 0
M  V30 687 C 70.3807 1.69176 1.62532 0
M  V30 688 C 71.3967 0.5744 1.64246 0
M  V30 689 O 72.5727 0.849497 1.82608 0
M  V30 690 C 69.6377 1.75695 2.98885 0
M  V30 691 C 68.6987 2.9929 3.07773 0
M  V30 692 C 67.9317 3.05488 4.37622 0
M  V30 693 O 68.1547 2.19192 5.26603 0
M  V30 694 O 67.0887 3.9798 4.51548 0
M  V30 695 H 70.9147 2.647 1.48887 0
M  V30 696 H 68.4997 1.3331 0.674441 0
M  V30 697 H 70.3817 1.82317 3.79919 0
M  V30 698 H 69.0567 0.8335 3.12785 0
M  V30 699 H 67.9637 2.98183 2.25915 0
M  V30 700 H 69.2967 3.91125 2.98801 0
M  V30 701 N 70.9488 -0.749086 1.3866 0
M  V30 702 C 72.3648 -1.05276 1.19955 0
M  V30 703 C 72.5648 -2.01435 0.05134 0
M  V30 704 O 71.6208 -2.45232 -0.60147 0
M  V30 705 C 72.9338 -1.62853 2.52783 0
M  V30 706 C 74.4818 -1.75002 2.59506 0
M  V30 707 C 74.9568 -2.35991 3.92521 0
M  V30 708 N 76.4478 -2.43416 3.94085 0
M  V30 709 C 77.1828 -2.91511 4.9377 0
M  V30 710 N 76.6788 -3.39608 6.03853 0
M  V30 711 N 78.4718 -2.90592 4.81157 0
M  V30 712 H 70.6228 -0.111066 2.12109 0
M  V30 713 H 72.8858 -0.111901 0.941373 0
M  V30 714 H 72.5918 -0.99664 3.37283 0
M  V30 715 H 72.4658 -2.61854 2.715 0
M  V30 716 H 74.8528 -2.37317 1.75398 0
M  V30 717 H 74.9338 -0.74693 2.44652 0
M  V30 718 H 74.5778 -1.74308 4.77053 0
M  V30 719 H 74.5078 -3.3695 4.04688 0
M  V30 720 H 76.9988 -2.09405 3.14576 0
M  V30 721 H 77.3118 -3.74775 6.75843 0
M  V30 722 H 75.6568 -3.37653 6.07466 0
M  V30 723 H 78.8478 -2.52332 3.94267 0
M  V30 724 H 79.0208 -3.27762 5.58996 0
M  V30 725 N 72.4269 -1.23603 -0.977757 0
M  V30 726 C 73.6739 -1.06971 -1.71941 0
M  V30 727 C 74.0019 0.393009 -1.90488 0
M  V30 728 O 73.2569 1.30719 -1.4564 0
M  V30 729 C 73.5559 -1.7433 -3.11999 0
M  V30 730 C 73.2219 -3.24252 -3.13323 0
M  V30 731 C 71.8839 -3.65156 -3.13392 0
M  V30 732 C 74.2359 -4.20141 -3.08433 0
M  V30 733 C 71.5639 -5.00403 -3.0629 0
M  V30 734 C 73.9159 -5.55384 -3.02873 0
M  V30 735 C 72.5799 -5.95647 -3.01265 0
M  V30 736 H 71.8499 -0.391433 -0.629175 0
M  V30 737 H 74.4969 -1.53572 -1.14403 0
M  V30 738 H 72.8019 -1.20096 -3.7294 0
M  V30 739 H 74.4989 -1.58936 -3.68158 0
M  V30 740 H 71.0889 -2.91692 -3.14029 0
M  V30 741 H 75.2729 -3.89547 -3.07517 0
M  V30 742 H 70.5289 -5.3081 -3.03399 0
M  V30 743 H 74.7029 -6.29398 -2.98046 0
M  V30 744 H 72.3299 -7.0041 -2.95516 0
M  V30 745 N 73.905 1.17692 -1.04816 0
M  V30 746 C 75.152 1.87859 -0.75599 0
M  V30 747 C 75.48 1.80812 0.716752 0
M  V30 748 O 74.735 1.20819 1.53952 0
M  V30 749 C 75.034 3.37462 -1.17703 0
M  V30 750 C 74.7 3.64713 -2.65133 0
M  V30 751 C 73.362 3.71859 -3.05408 0
M  V30 752 C 75.714 3.76492 -3.60421 0
M  V30 753 C 73.042 3.88271 -4.39843 0
M  V30 754 C 75.394 3.94421 -4.94585 0
M  V30 755 C 74.058 3.99806 -5.3452 0
M  V30 756 H 73.328 0.687425 -0.276636 0
M  V30 757 H 75.975 1.39255 -1.31455 0
M  V30 758 H 74.28 3.88097 -0.537395 0
M  V30 759 H 75.977 3.90109 -0.928218 0
M  V30 760 H 72.567 3.59772 -2.32942 0
M  V30 761 H 76.751 3.70295 -3.30447 0
M  V30 762 H 72.007 3.90687 -4.70291 0
M  V30 763 H 76.181 4.02477 -5.68318 0
M  V30 764 H 73.808 4.12276 -6.38696 0
M  V30 765 N 75.3831 0.828654 1.34056 0
M  V30 766 C 76.6081 0.431637 2.02859 0
M  V30 767 C 77.0331 -0.956339 1.61975 0
M  V30 768 O 76.3911 -1.62338 0.807228 0
M  V30 769 C 76.4391 0.548323 3.56407 0
M  V30 770 O 75.5431 -0.429556 4.10157 0
M  V30 771 H 74.8841 0.176886 0.640006 0
M  V30 772 H 77.4141 1.12066 1.71179 0
M  V30 773 H 77.4241 0.426196 4.05768 0
M  V30 774 H 76.0991 1.5606 3.8551 0
M  V30 775 H 74.6761 -0.265836 3.71951 0
M  V30 776 N 76.8612 -1.46375 0.584142 0
M  V30 777 C 77.7712 -2.34115 -0.150728 0
M  V30 778 C 78.7872 -1.49838 -0.884567 0
M  V30 779 O 79.9632 -1.82704 -0.847429 0
M  V30 780 C 77.0282 -3.2705 -1.15062 0
M  V30 781 C 76.0892 -4.27228 -0.421293 0
M  V30 782 C 75.3222 -5.15722 -1.37355 0
M  V30 783 O 75.5452 -5.07176 -2.61014 0
M  V30 784 O 74.4792 -5.95383 -0.883355 0
M  V30 785 H 78.3052 -2.98309 0.569708 0
M  V30 786 H 75.8902 -1.45373 0.344535 0
M  V30 787 H 77.7722 -3.84381 -1.72712 0
M  V30 788 H 76.4472 -2.65451 -1.8525 0
M  V30 789 H 75.3542 -3.7358 0.197085 0
M  V30 790 H 76.6872 -4.91616 0.239641 0
M  V30 791 N 78.3393 -0.321999 -1.54275 0
M  V30 792 C 79.2493 0.553631 -2.27974 0
M  V30 793 C 80.2653 1.13054 -1.32268 0
M  V30 794 O 81.4413 1.15084 -1.6528 0
M  V30 795 C 78.5063 1.69927 -3.02201 0
M  V30 796 C 77.5673 1.15433 -4.1349 0
M  V30 797 C 76.8003 2.24537 -4.84168 0
M  V30 798 O 77.0233 3.44852 -4.5435 0
M  V30 799 O 75.9573 1.90044 -5.7111 0
M  V30 800 H 79.7833 -0.0448345 -3.03667 0
M  V30 801 H 77.3683 -0.0877418 -1.49142 0
M  V30 802 H 79.2503 2.3663 -3.48689 0
M  V30 803 H 77.9253 2.28395 -2.29385 0
M  V30 804 H 76.8323 0.452436 -3.71354 0
M  V30 805 H 78.1653 0.614805 -4.88345 0
M  V30 806 N 79.8174 1.5752 -0.0501392 0
M  V30 807 C 80.7274 2.14952 0.939827 0
M  V30 808 C 81.7434 1.10706 1.34239 0
M  V30 809 O 82.9194 1.42869 1.41952 0
M  V30 810 C 79.9844 2.68232 2.19665 0
M  V30 811 C 79.0454 3.87272 1.85253 0
M  V30 812 C 78.2784 4.38002 3.04943 0
M  V30 813 O 78.5014 3.87811 4.18281 0
M  V30 814 O 77.4354 5.29602 2.86017 0
M  V30 815 H 81.2614 2.9986 0.481392 0
M  V30 816 H 78.8464 1.4841 0.171699 0
M  V30 817 H 80.7284 3.02475 2.93406 0
M  V30 818 H 79.4034 1.86395 2.64648 0
M  V30 819 H 78.3104 3.5792 1.0883 0
M  V30 820 H 79.6434 4.70336 1.4507 0
M  V30 821 N 81.2955 -0.223234 1.56011 0
M  V30 822 C 82.2435 -1.29627 1.93131 0
M  V30 823 C 83.2375 -1.48608 0.813146 0
M  V30 824 O 84.4435 -1.49802 0.997966 0
M  V30 825 H 80.8185 -0.434563 0.613726 0
M  V30 826 H 82.7895 -0.955995 2.82672 0
M  V30 827 C 81.5385 -2.63983 2.26292 0
M  V30 828 H 80.8615 -2.50185 3.11846 0
M  V30 829 H 82.3015 -3.3788 2.56151 0
M  V30 830 C 80.7605 -3.18866 1.08747 0
M  V30 831 O 81.2905 -4.00192 0.347727 0
M  V30 832 N 79.4965 -2.77217 0.871743 0
M  V30 833 H 79.0435 -2.1119 1.47501 0
M  V30 834 H 79.0015 -3.1428 0.0869905 0
M  V30 835 N 82.7736 -1.49793 -0.48987 0
M  V30 836 C 84.0216 -1.59525 -1.24081 0
M  V30 837 C 84.3426 -0.288953 -1.92847 0
M  V30 838 O 83.6126 0.692436 -1.83254 0
M  V30 839 H 82.1926 -0.587796 -0.460983 0
M  V30 840 H 84.8546 -1.86477 -0.566778 0
M  V30 841 H 83.9506 -2.39696 -1.99881 0
M  V30 842 N 84.2517 0.741722 -1.39055 0
M  V30 843 C 85.4977 1.50336 -1.36113 0
M  V30 844 C 85.8307 1.94148 0.0450796 0
M  V30 845 O 85.1057 1.66301 1.00868 0
M  V30 846 C 85.3887 2.74773 -2.32749 0
M  V30 847 C 85.2417 2.37023 -3.82283 0
M  V30 848 C 86.5607 3.76846 -2.27322 0
M  V30 849 H 83.6797 0.545351 -0.495743 0
M  V30 850 H 86.3217 0.848624 -1.69995 0
M  V30 851 H 84.4717 3.30639 -2.03986 0
M  V30 852 H 86.1437 1.8684 -4.21768 0
M  V30 853 H 84.3867 1.69334 -3.99385 0
M  V30 854 H 85.0577 3.26104 -4.45376 0
M  V30 855 H 87.5337 3.30548 -2.5274 0
M  V30 856 H 86.4097 4.6159 -2.97028 0
M  V30 857 H 86.6707 4.23286 -1.27599 0
M  V30 858 N 85.7298 1.2412 0.971189 0
M  V30 859 C 87.1408 1.07236 1.52831 0
M  V30 860 C 87.4918 -0.357352 1.92918 0
M  V30 861 O 86.6168 -1.24528 1.76979 0
M  V30 862 C 87.2118 1.94043 2.77728 0
M  V30 863 C 85.7708 1.81394 3.29808 0
M  V30 864 C 84.9178 1.89189 2.02738 0
M  V30 865 H 87.8688 1.37648 0.789864 0
M  V30 866 H 87.8898 1.47066 3.5093 0
M  V30 867 H 87.4018 2.98093 2.4852 0
M  V30 868 H 85.5028 0.801634 3.63874 0
M  V30 869 H 85.6158 2.65294 3.98944 0
M  V30 870 H 83.9798 1.32877 2.17292 0
M  V30 871 H 84.7628 2.94812 1.759 0
M  V30 872 N 87.2079 -1.17134 1.05439 0
M  V30 873 C 88.4569 -1.86791 0.761049 0
M  V30 874 C 88.7699 -1.82072 -0.714795 0
M  V30 875 O 89.9759 -2.47223 -1.12218 0
M  V30 876 C 88.4319 -3.35166 1.31117 0
M  V30 877 C 88.0399 -3.48381 2.81664 0
M  V30 878 C 89.7839 -4.10134 1.09499 0
M  V30 879 C 87.6909 -4.90793 3.29964 0
M  V30 880 H 86.6209 -0.699681 0.281002 0
M  V30 881 H 89.2719 -1.3226 1.27199 0
M  V30 882 H 87.6539 -3.8925 0.72803 0
M  V30 883 H 88.8279 -3.04502 3.45855 0
M  V30 884 H 87.1429 -2.86836 3.01851 0
M  V30 885 H 89.7399 -5.152 1.43084 0
M  V30 886 H 90.0829 -4.16287 0.0328772 0
M  V30 887 H 90.6159 -3.62264 1.64346 0
M  V30 888 H 87.3549 -4.89816 4.35616 0
M  V30 889 H 86.8749 -5.35333 2.70516 0
M  V30 890 H 88.5539 -5.59573 3.24787 0
M  V30 891 N 88.686 -0.835752 -1.33615 0
M  V30 892 C 89.649 -0.272 -2.2758 0
M  V30 893 C 90.649 0.557487 -1.50827 0
M  V30 894 O 91.839 0.37173 -1.70188 0
M  V30 895 C 88.971 0.617173 -3.35267 0
M  V30 896 H 90.164 -1.10111 -2.78954 0
M  V30 897 H 87.717 -0.608594 -1.43965 0
M  V30 898 H 88.452 1.46884 -2.89129 0
M  V30 899 H 88.237 0.0237066 -3.92093 0
M  V30 900 H 89.727 1.005 -4.05326 0
M  V30 901 N 90.1641 1.46063 -0.591896 0
M  V30 902 C 91.5801 1.57561 -0.254288 0
M  V30 903 C 91.7801 1.58565 1.24336 0
M  V30 904 O 90.8361 1.50753 2.02558 0
M  V30 905 C 92.1491 2.86549 -0.911611 0
M  V30 906 C 93.6971 3.00197 -0.886059 0
M  V30 907 C 94.1721 4.31933 -1.5231 0
M  V30 908 N 95.6631 4.38654 -1.48786 0
M  V30 909 C 96.3981 5.39222 -1.95006 0
M  V30 910 N 95.8941 6.46414 -2.49241 0
M  V30 911 N 97.6871 5.3048 -1.85868 0
M  V30 912 H 89.8381 1.43655 -1.56451 0
M  V30 913 H 92.1011 0.68583 -0.654478 0
M  V30 914 H 91.8071 2.91651 -1.96551 0
M  V30 915 H 91.6811 3.74794 -0.425368 0
M  V30 916 H 94.0681 2.9467 0.159246 0
M  V30 917 H 94.1491 2.13403 -1.41041 0
M  V30 918 H 93.7931 4.38217 -2.56765 0
M  V30 919 H 93.7231 5.17516 -0.973891 0
M  V30 920 H 96.2141 3.61793 -1.09151 0
M  V30 921 H 96.5271 7.19376 -2.82344 0
M  V30 922 H 94.8721 6.47208 -2.53272 0
M  V30 923 H 98.0631 4.45643 -1.43248 0
M  V30 924 H 98.2361 6.08711 -2.22204 0
M  V30 925 N 91.6422 0.330177 1.54103 0
M  V30 926 C 92.6052 -0.520144 2.2322 0
M  V30 927 C 93.6052 -1.03828 1.22786 0
M  V30 928 O 94.7952 -0.929652 1.4732 0
M  V30 929 C 91.9272 -1.72317 2.94142 0
M  V30 930 H 93.1202 0.0841605 2.99782 0
M  V30 931 H 90.6732 0.0813433 1.56088 0
M  V30 932 H 91.4082 -2.36653 2.21734 0
M  V30 933 H 91.1932 -1.35898 3.67796 0
M  V30 934 H 92.6832 -2.3266 3.46784 0
M  V30 935 N 93.1203 -1.57491 0.0584922 0
M  V30 936 C 94.3663 -1.93264 -0.614558 0
M  V30 937 C 94.6993 -0.937717 -1.7006 0
M  V30 938 O 93.9743 0.0351652 -1.94468 0
M  V30 939 C 94.2573 -3.3938 -1.20386 0
M  V30 940 C 94.1103 -4.49625 -0.125375 0
M  V30 941 C 95.4293 -3.86039 -2.11334 0
M  V30 942 H 92.5483 -0.702791 -0.221933 0
M  V30 943 H 95.1903 -1.8961 0.12175 0
M  V30 944 H 93.3403 -3.42626 -1.83139 0
M  V30 945 H 95.0123 -4.58506 0.506971 0
M  V30 946 H 93.2553 -4.30354 0.545672 0
M  V30 947 H 93.9263 -5.48967 -0.577861 0
M  V30 948 H 96.4023 -3.84716 -1.58534 0
M  V30 949 H 95.2783 -4.88914 -2.49507 0
M  V30 950 H 95.5393 -3.23215 -3.01636 0
M  V30 951 N 94.5984 0.214957 -1.56127 0
M  V30 952 C 95.5284 1.2695 -1.95974 0
M  V30 953 C 96.5094 1.48539 -0.828868 0
M  V30 954 O 97.6944 1.60611 -1.09168 0
M  V30 955 C 94.8244 2.61794 -2.28214 0
M  V30 956 C 93.7784 2.54851 -3.43853 0
M  V30 957 C 93.1044 3.93785 -3.61715 0
M  V30 958 C 94.4044 2.09065 -4.78632 0
M  V30 959 H 96.0984 0.93846 -2.84312 0
M  V30 960 H 93.6444 0.449996 -1.36788 0
M  V30 961 H 95.5974 3.35731 -2.54682 0
M  V30 962 H 94.3214 2.96599 -1.36736 0
M  V30 963 H 92.9804 1.8337 -3.17444 0
M  V30 964 H 92.6284 4.25908 -2.67602 0
M  V30 965 H 92.3284 3.90019 -4.39498 0
M  V30 966 H 93.8524 4.69374 -3.90539 0
M  V30 967 H 95.2664 2.7275 -5.04262 0
M  V30 968 H 93.6634 2.16346 -5.59745 0
M  V30 969 H 94.7334 1.04315 -4.73547 0
M  V30 970 N 96.0765 1.50051 0.48192 0
M  V30 971 C 97.3225 1.60736 1.2366 0
M  V30 972 C 97.6555 0.301786 1.91841 0
M  V30 973 O 96.9305 -0.696025 1.8162 0
M  V30 974 C 97.2135 2.78009 2.28874 0
M  V30 975 C 97.0665 4.18416 1.65069 0
M  V30 976 C 98.3855 2.90867 3.30279 0
M  V30 977 H 95.5045 0.585031 0.448228 0
M  V30 978 H 98.1465 1.82402 0.531946 0
M  V30 979 H 96.2965 2.59667 2.88973 0
M  V30 980 H 97.9685 4.48322 1.0865 0
M  V30 981 H 96.2115 4.23177 0.954148 0
M  V30 982 H 96.8825 4.96381 2.41474 0
M  V30 983 H 99.3585 3.07623 2.80191 0
M  V30 984 H 98.2345 3.74566 4.01238 0
M  V30 985 H 98.4955 2.01021 3.93755 0
M  V30 986 N 97.5546 -0.734337 1.39446 0
M  V30 987 C 98.8316 -1.48579 1.27215 0
M  V30 988 C 99.2116 -2.1077 -0.117968 0
M  V30 989 O 98.5596 -1.98646 -1.12924 0
M  V30 990 C 98.7696 -2.53667 2.39696 0
M  V30 991 C 100.118 -3.20031 2.79044 0
M  V30 992 O 101.142 -2.6398 2.39151 0
M  V30 993 O 100.001 -4.21455 3.47905 0
M  V30 994 H 97.0946 -0.659816 0.49857 0
M  V30 995 H 99.6406 -0.768106 1.51322 0
M  V30 996 H 98.4126 -2.06096 3.32626 0
M  V30 997 H 98.0356 -3.32994 2.17258 0
M  V30 998 N 99.0327 -1.24633 -0.964593 0
M  V30 999 C 99.9657 -0.984662 -2.05863 0
M  V30 1000 C 100.944 0.0826554 -1.6239 0
M  V30 1001 O 102.128 -0.0549296 -1.8842 0
M  V30 1002 C 99.2547 -0.486529 -3.35187 0
M  V30 1003 C 98.3007 -1.54286 -3.97615 0
M  V30 1004 S 99.1337 -3.12513 -4.34851 0
M  V30 1005 C 100.29 -2.6441 -5.67308 0
M  V30 1006 H 100.523 -1.91104 -2.27743 0
M  V30 1007 H 98.0557 -1.08052 -1.10291 0
M  V30 1008 H 100.014 -0.205757 -4.09984 0
M  V30 1009 H 98.6747 0.419186 -3.1129 0
M  V30 1010 H 97.8677 -1.14481 -4.90826 0
M  V30 1011 H 97.4697 -1.7738 -3.2926 0
M  V30 1012 H 99.7617 -2.07416 -6.44969 0
M  V30 1013 H 100.705 -3.56222 -6.11973 0
M  V30 1014 H 101.113 -2.04734 -5.26065 0
M  V30 1015 N 100.511 1.16574 -1.06058 0
M  V30 1016 C 101.421 2.2452 -0.680282 0
M  V30 1017 C 102.437 1.71348 0.302604 0
M  V30 1018 O 103.613 2.00822 0.152513 0
M  V30 1019 C 100.678 3.46629 -0.0700315 0
M  V30 1020 C 99.7388 4.14849 -1.10448 0
M  V30 1021 C 98.9718 5.31129 -0.523256 0
M  V30 1022 O 99.1948 5.66514 0.664709 0
M  V30 1023 O 98.1288 5.88526 -1.26179 0
M  V30 1024 H 101.955 2.59355 -1.58015 0
M  V30 1025 H 99.5398 1.24043 -0.832694 0
M  V30 1026 H 101.422 4.20543 0.268667 0
M  V30 1027 H 100.097 3.13573 0.803353 0
M  V30 1028 H 99.0038 3.42916 -1.49532 0
M  V30 1029 H 100.337 4.51954 -1.94931 0
M  V30 1030 N 101.989 0.842826 1.3317 0
M  V30 1031 C 103.4 0.496651 1.79973 0
M  V30 1032 C 103.751 -0.984641 1.69703 0
M  V30 1033 O 102.876 -1.76743 1.24863 0
M  V30 1034 C 103.471 0.894727 3.26772 0
M  V30 1035 C 102.03 0.600629 3.71577 0
M  V30 1036 C 101.177 1.10091 2.5451 0
M  V30 1037 H 104.128 1.03116 1.20635 0
M  V30 1038 H 104.149 0.206347 3.7994 0
M  V30 1039 H 103.661 1.97287 3.34215 0
M  V30 1040 H 101.762 -0.467284 3.69658 0
M  V30 1041 H 101.875 1.15863 4.64879 0
M  V30 1042 H 100.239 0.52162 2.49301 0
M  V30 1043 H 101.022 2.18591 2.64713 0
M  V30 1044 N 103.467 -1.45747 0.599634 0
M  V30 1045 C 104.414 -2.30467 -0.123849 0
M  V30 1046 C 105.384 -1.41632 -0.86774 0
M  V30 1047 O 106.569 -1.70568 -0.855056 0
M  V30 1048 C 103.709 -3.26402 -1.12051 0
M  V30 1049 C 102.822 -4.3034 -0.37832 0
M  V30 1050 C 101.957 -5.13389 -1.364 0
M  V30 1051 C 100.996 -6.09061 -0.609171 0
M  V30 1052 N 100.133 -6.84918 -1.54374 0
M  V30 1053 H 104.973 -2.91802 0.604627 0
M  V30 1054 H 102.51 -1.43797 0.309972 0
M  V30 1055 H 104.468 -3.80482 -1.7114 0
M  V30 1056 H 103.098 -2.66839 -1.8165 0
M  V30 1057 H 102.15 -3.78984 0.327929 0
M  V30 1058 H 103.462 -4.98354 0.210997 0
M  V30 1059 H 102.616 -5.7183 -2.02719 0
M  V30 1060 H 101.355 -4.45376 -1.98725 0
M  V30 1061 H 100.36 -5.49758 0.0676979 0
M  V30 1062 H 101.585 -6.79099 0.00891991 0
M  V30 1063 H 99.531 -6.19601 -2.15478 0
M  V30 1064 H 99.448 -7.49254 -1.00766 0
M  V30 1065 H 100.716 -7.47906 -2.19676 0
M  V30 1066 N 104.945 -0.338344 -1.53925 0
M  V30 1067 C 106.191 0.260143 -2.01125 0
M  V30 1068 C 106.524 1.50617 -1.22589 0
M  V30 1069 O 105.799 1.91979 -0.312113 0
M  V30 1070 C 106.082 0.579499 -3.55407 0
M  V30 1071 C 105.935 -0.678264 -4.44657 0
M  V30 1072 C 107.254 1.39122 -4.17532 0
M  V30 1073 H 104.373 0.0930772 -0.731099 0
M  V30 1074 H 107.015 -0.457852 -1.84401 0
M  V30 1075 H 105.165 1.19118 -3.69788 0
M  V30 1076 H 106.837 -1.31631 -4.42121 0
M  V30 1077 H 105.08 -1.3042 -4.13731 0
M  V30 1078 H 105.751 -0.410143 -5.50474 0
M  V30 1079 H 108.227 0.874035 -4.06817 0
M  V30 1080 H 107.103 1.58342 -5.25565 0
M  V30 1081 H 107.364 2.39178 -3.71815 0
M  V30 1082 N 106.423 1.57458 -0.0668435 0
M  V30 1083 C 107.672 1.92477 0.602947 0
M  V30 1084 C 107.985 0.948419 1.71068 0
M  V30 1085 O 109.191 1.19124 2.43971 0
M  V30 1086 C 107.647 3.41903 1.12383 0
M  V30 1087 C 107.255 4.47975 0.04737 0
M  V30 1088 C 108.999 3.85931 1.76797 0
M  V30 1089 C 106.906 5.88529 0.582022 0
M  V30 1090 H 105.836 0.718387 0.22899 0
M  V30 1091 H 108.487 1.82978 -0.138276 0
M  V30 1092 H 106.869 3.46459 1.91787 0
M  V30 1093 H 108.043 4.55029 -0.726978 0
M  V30 1094 H 106.358 4.13384 -0.500243 0
M  V30 1095 H 108.955 4.88322 2.17821 0
M  V30 1096 H 109.298 3.23029 2.62599 0
M  V30 1097 H 109.831 3.83958 1.04024 0
M  V30 1098 H 106.57 6.55065 -0.238721 0
M  V30 1099 H 106.09 5.85004 1.324 0
M  V30 1100 H 107.769 6.38258 1.05999 0
M  V30 1101 N 107.901 -0.206675 1.56239 0
M  V30 1102 C 108.849 -1.27571 1.94495 0
M  V30 1103 C 109.843 -1.47737 0.828862 0
M  V30 1104 O 111.049 -1.48735 1.0138 0
M  V30 1105 H 107.424 -0.428029 0.6183 0
M  V30 1106 H 109.395 -0.925961 2.8367 0
M  V30 1107 C 108.144 -2.61568 2.29079 0
M  V30 1108 H 107.467 -2.46863 3.14482 0
M  V30 1109 H 108.907 -3.35144 2.5972 0
M  V30 1110 C 107.366 -3.17695 1.12123 0
M  V30 1111 O 107.896 -3.99801 0.390153 0
M  V30 1112 N 106.102 -2.76276 0.901097 0
M  V30 1113 H 105.649 -2.09613 1.49733 0
M  V30 1114 H 105.607 -3.1417 0.120319 0
M  V30 1115 N 109.379 -1.50304 -0.473955 0
M  V30 1116 C 110.311 -1.65109 -1.58971 0
M  V30 1117 C 111.324 -0.532676 -1.53839 0
M  V30 1118 O 112.513 -0.805751 -1.59279 0
M  V30 1119 C 109.613 -1.61684 -2.97845 0
M  V30 1120 C 108.786 -2.8951 -3.27876 0
M  V30 1121 C 107.845 -2.78768 -4.4629 0
M  V30 1122 O 106.871 -3.52722 -4.46739 0
M  V30 1123 N 108.073 -1.9213 -5.47783 0
M  V30 1124 H 110.838 -2.61347 -1.46689 0
M  V30 1125 H 108.399 -1.47732 -0.662324 0
M  V30 1126 H 110.391 -1.52114 -3.75024 0
M  V30 1127 H 108.961 -0.731925 -3.03911 0
M  V30 1128 H 108.181 -3.13228 -2.39336 0
M  V30 1129 H 109.469 -3.74199 -3.4475 0
M  V30 1130 H 108.867 -1.31353 -5.50239 0
M  V30 1131 H 107.424 -1.88466 -6.23958 0
M  V30 1132 N 110.857 0.726932 -1.39834 0
M  V30 1133 C 111.79 1.8501 -1.33592 0
M  V30 1134 C 112.768 1.61262 -0.208191 0
M  V30 1135 O 113.952 1.84422 -0.389981 0
M  V30 1136 C 111.079 3.21143 -1.07633 0
M  V30 1137 C 110.125 3.63737 -2.22705 0
M  V30 1138 S 110.958 3.72167 -3.85035 0
M  V30 1139 C 112.114 5.11077 -3.61318 0
M  V30 1140 H 112.347 1.90022 -2.28646 0
M  V30 1141 H 109.88 0.892595 -1.25985 0
M  V30 1142 H 111.838 3.99747 -0.933415 0
M  V30 1143 H 110.499 3.13776 -0.142526 0
M  V30 1144 H 109.692 4.62551 -2.00155 0
M  V30 1145 H 109.294 2.9236 -2.33242 0
M  V30 1146 H 111.586 5.97656 -3.19083 0
M  V30 1147 H 112.529 5.38658 -4.59623 0
M  V30 1148 H 112.937 4.81135 -2.95245 0
M  V30 1149 N 112.336 1.25143 0.95797 0
M  V30 1150 C 113.266 1.07711 2.07173 0
M  V30 1151 C 114.247 -0.0128462 1.70095 0
M  V30 1152 O 115.432 0.156061 1.93572 0
M  V30 1153 C 112.562 0.691503 3.40346 0
M  V30 1154 C 111.516 1.73132 3.9142 0
M  V30 1155 C 110.842 1.20049 5.21049 0
M  V30 1156 C 112.142 3.1294 4.1817 0
M  V30 1157 H 113.836 2.00873 2.22014 0
M  V30 1158 H 111.382 0.967191 1.06684 0
M  V30 1159 H 113.335 0.556505 4.17709 0
M  V30 1160 H 112.059 -0.275819 3.25433 0
M  V30 1161 H 110.718 1.8547 3.16222 0
M  V30 1162 H 110.366 0.223499 5.02503 0
M  V30 1163 H 110.066 1.89545 5.56189 0
M  V30 1164 H 111.59 1.07782 6.01012 0
M  V30 1165 H 113.004 3.03775 4.86203 0
M  V30 1166 H 111.401 3.79875 4.64559 0
M  V30 1167 H 112.471 3.6025 3.24573 0
M  V30 1168 N 113.814 -1.1601 1.06675 0
M  V30 1169 C 115.039 -1.91068 0.806706 0
M  V30 1170 C 115.464 -1.77112 -0.633485 0
M  V30 1171 O 114.822 -1.09908 -1.44187 0
M  V30 1172 C 114.87 -3.39655 1.21106 0
M  V30 1173 O 113.974 -4.10893 0.352189 0
M  V30 1174 H 113.315 -0.595125 0.294486 0
M  V30 1175 H 115.845 -1.46955 1.42356 0
M  V30 1176 H 115.855 -3.90434 1.18428 0
M  V30 1177 H 114.53 -3.49132 2.26008 0
M  V30 1178 H 113.107 -3.70285 0.440868 0
M  V30 1179 N 115.292 -0.849877 -1.32721 0
M  V30 1180 C 116.239 -0.289033 -2.28983 0
M  V30 1181 C 117.209 0.601324 -1.54833 0
M  V30 1182 O 118.394 0.537253 -1.8308 0
M  V30 1183 C 115.534 0.520623 -3.4115 0
M  V30 1184 C 114.647 -0.394989 -4.3019 0
M  V30 1185 C 113.782 0.426834 -5.29482 0
M  V30 1186 C 112.821 -0.486476 -6.10164 0
M  V30 1187 N 111.958 0.297879 -7.01468 0
M  V30 1188 H 116.798 -1.11519 -2.76347 0
M  V30 1189 H 114.335 -0.56138 -1.35967 0
M  V30 1190 H 116.293 1.00563 -4.04899 0
M  V30 1191 H 114.923 1.31165 -2.9495 0
M  V30 1192 H 113.975 -0.99836 -3.67065 0
M  V30 1193 H 115.287 -1.09612 -4.86607 0
M  V30 1194 H 114.441 0.975205 -5.98811 0
M  V30 1195 H 113.18 1.16136 -4.73671 0
M  V30 1196 H 112.185 -1.04677 -5.39743 0
M  V30 1197 H 113.41 -1.21953 -6.6806 0
M  V30 1198 H 111.356 1.01558 -6.48091 0
M  V30 1199 H 111.273 -0.344318 -7.55216 0
M  V30 1200 H 112.541 0.828131 -7.75089 0
M  V30 1201 N 116.77 1.45427 -0.607355 0
M  V30 1202 C 117.733 2.28974 0.101693 0
M  V30 1203 C 118.733 1.39754 0.795329 0
M  V30 1204 O 119.923 1.61878 0.643527 0
M  V30 1205 C 117.055 3.20768 1.15414 0
M  V30 1206 H 118.248 2.93147 -0.632844 0
M  V30 1207 H 115.801 1.51945 -0.366391 0
M  V30 1208 H 116.536 2.61395 1.91945 0
M  V30 1209 H 116.321 3.86489 0.66098 0
M  V30 1210 H 117.811 3.83589 1.65073 0
M  V30 1211 N 118.248 0.346503 1.53744 0
M  V30 1212 C 119.211 -0.496439 2.23759 0
M  V30 1213 C 120.211 -1.0252 1.2388 0
M  V30 1214 O 121.401 -0.913974 1.48297 0
M  V30 1215 C 118.533 -1.69187 2.95954 0
M  V30 1216 H 119.726 0.115952 2.99676 0
M  V30 1217 H 117.279 0.0978939 1.55993 0
M  V30 1218 H 118.014 -2.34288 2.24231 0
M  V30 1219 H 117.799 -1.31989 3.69217 0
M  V30 1220 H 119.289 -2.28969 3.49232 0
M  V30 1221 N 119.726 -1.57421 0.075193 0
M  V30 1222 C 120.658 -2.09904 -0.920483 0
M  V30 1223 C 121.671 -1.03191 -1.25918 0
M  V30 1224 O 122.86 -1.30695 -1.21577 0
M  V30 1225 C 119.96 -2.54726 -2.23534 0
M  V30 1226 C 119.133 -3.8505 -2.07498 0
M  V30 1227 C 118.192 -4.15929 -3.22319 0
M  V30 1228 O 117.218 -4.85474 -2.9716 0
M  V30 1229 N 118.42 -3.69745 -4.47514 0
M  V30 1230 H 121.185 -2.95954 -0.472359 0
M  V30 1231 H 118.746 -1.61523 -0.110444 0
M  V30 1232 H 120.738 -2.72443 -2.9926 0
M  V30 1233 H 119.308 -1.73795 -2.59835 0
M  V30 1234 H 118.528 -3.76679 -1.16219 0
M  V30 1235 H 119.816 -4.70348 -1.94038 0
M  V30 1236 H 119.214 -3.13569 -4.7084 0
M  V30 1237 H 117.771 -3.92655 -5.20255 0
M  V30 1238 N 121.204 0.198386 -1.56346 0
M  V30 1239 C 122.429 0.939682 -1.84891 0
M  V30 1240 C 122.854 1.76202 -0.658369 0
M  V30 1241 O 122.212 1.76993 0.392851 0
M  V30 1242 C 122.26 1.81428 -3.11635 0
M  V30 1243 O 121.364 2.91265 -2.91956 0
M  V30 1244 H 120.705 0.264807 -0.608912 0
M  V30 1245 H 123.235 0.204695 -2.03573 0
M  V30 1246 H 123.245 2.21958 -3.42343 0
M  V30 1247 H 121.92 1.21004 -3.97908 0
M  V30 1248 H 120.497 2.54514 -2.72538 0
M  V30 1249 N 122.682 1.50554 0.465978 0
M  V30 1250 C 123.93 1.61479 1.21528 0
M  V30 1251 C 124.251 0.319596 1.92363 0
M  V30 1252 O 123.521 -0.663194 1.84333 0
M  V30 1253 H 122.101 0.595055 0.451573 0
M  V30 1254 H 124.763 1.87355 0.53704 0
M  V30 1255 H 123.859 2.42846 1.96042 0
M  V30 1256 N 124.16 -0.719506 1.40217 0
M  V30 1257 C 125.092 -1.84428 1.36084 0
M  V30 1258 C 126.105 -1.60597 0.266913 0
M  V30 1259 O 127.294 -1.70544 0.526983 0
M  V30 1260 C 124.394 -3.20757 1.094 0
M  V30 1261 C 123.567 -3.71817 2.30372 0
M  V30 1262 C 122.626 -4.86748 1.99907 0
M  V30 1263 O 121.652 -4.99603 2.72737 0
M  V30 1264 N 122.854 -5.7226 0.974635 0
M  V30 1265 H 125.619 -1.88473 2.33019 0
M  V30 1266 H 123.18 -0.900885 1.3452 0
M  V30 1267 H 125.172 -3.95235 0.870116 0
M  V30 1268 H 123.742 -3.11884 0.211452 0
M  V30 1269 H 122.962 -2.88514 2.68614 0
M  V30 1270 H 124.25 -4.02666 3.11026 0
M  V30 1271 H 123.648 -5.6448 0.371368 0
M  V30 1272 H 122.205 -6.46739 0.810656 0
M  V30 1273 N 125.638 -1.25649 -0.95132 0
M  V30 1274 C 126.884 -1.11766 -1.69941 0
M  V30 1275 C 127.239 0.33735 -1.89419 0
M  V30 1276 O 126.532 1.24491 -1.45645 0
M  V30 1277 C 126.726 -1.80909 -3.08231 0
M  V30 1278 C 126.555 -3.32984 -3.02245 0
M  V30 1279 C 125.325 -4.02247 -3.05819 0
M  V30 1280 C 127.523 -4.29332 -2.83157 0
M  V30 1281 N 125.505 -5.41072 -2.90024 0
M  V30 1282 C 126.876 -5.55265 -2.75828 0
M  V30 1283 C 128.931 -4.19707 -2.67863 0
M  V30 1284 C 127.634 -6.72671 -2.54767 0
M  V30 1285 C 129.66 -5.36809 -2.48173 0
M  V30 1286 C 129.022 -6.61683 -2.41567 0
M  V30 1287 H 125.121 -0.463708 -0.629682 0
M  V30 1288 H 127.705 -1.58796 -1.12659 0
M  V30 1289 H 125.876 -1.36369 -3.63673 0
M  V30 1290 H 127.608 -1.59739 -3.71841 0
M  V30 1291 H 124.363 -3.53531 -3.15139 0
M  V30 1292 H 124.787 -6.13938 -2.85323 0
M  V30 1293 H 129.429 -3.23907 -2.71743 0
M  V30 1294 H 127.147 -7.68577 -2.49629 0
M  V30 1295 H 130.733 -5.31224 -2.37259 0
M  V30 1296 H 129.613 -7.50768 -2.26531 0
M  V30 1297 N 127.117 1.15442 -1.07289 0
M  V30 1298 C 128.064 2.20161 -0.692653 0
M  V30 1299 C 129.034 1.63073 0.31564 0
M  V30 1300 O 130.219 1.89725 0.202235 0
M  V30 1301 C 127.359 3.44967 -0.0959509 0
M  V30 1302 C 126.472 4.16256 -1.15564 0
M  V30 1303 C 125.607 5.28609 -0.524011 0
M  V30 1304 C 124.646 5.91715 -1.56653 0
M  V30 1305 N 123.783 6.9554 -0.957531 0
M  V30 1306 H 128.623 2.52037 -1.59002 0
M  V30 1307 H 126.16 1.2378 -0.794798 0
M  V30 1308 H 128.118 4.16341 0.267628 0
M  V30 1309 H 126.748 3.1361 0.764772 0
M  V30 1310 H 125.8 3.43385 -1.6368 0
M  V30 1311 H 127.112 4.59268 -1.94613 0
M  V30 1312 H 126.266 6.06604 -0.108032 0
M  V30 1313 H 125.005 4.86787 0.29825 0
M  V30 1314 H 124.01 5.12433 -1.9923 0
M  V30 1315 H 125.235 6.35614 -2.39107 0
M  V30 1316 H 123.181 6.55814 -0.156162 0
M  V30 1317 H 123.098 7.36977 -1.68526 0
M  V30 1318 H 124.366 7.77435 -0.567032 0
M  V30 1319 N 128.595 0.856903 1.32268 0
M  V30 1320 C 129.825 0.47475 2.01071 0
M  V30 1321 C 130.233 -0.933746 1.64553 0
M  V30 1322 O 129.576 -1.62114 0.863989 0
M  V30 1323 C 129.638 0.536746 3.55471 0
M  V30 1324 C 129.302 1.90453 4.15423 0
M  V30 1325 C 130.299 2.87029 4.33486 0
M  V30 1326 C 127.984 2.20229 4.51447 0
M  V30 1327 C 129.978 4.11532 4.86744 0
M  V30 1328 C 127.665 3.44984 5.0441 0
M  V30 1329 C 128.663 4.40452 5.22007 0
M  V30 1330 O 128.351 5.62998 5.73837 0
M  V30 1331 H 128.083 0.184778 0.650256 0
M  V30 1332 H 130.637 1.15615 1.69771 0
M  V30 1333 H 128.867 -0.20152 3.86175 0
M  V30 1334 H 130.556 0.169875 4.05544 0
M  V30 1335 H 131.322 2.6533 4.05986 0
M  V30 1336 H 127.201 1.46705 4.37034 0
M  V30 1337 H 130.745 4.86056 5.00395 0
M  V30 1338 H 126.642 3.66532 5.31342 0
M  V30 1339 H 127.41 5.64987 5.92226 0
M  V30 1340 N 130.073 -1.45103 0.615059 0
M  V30 1341 C 131.321 -2.01784 0.112955 0
M  V30 1342 C 131.642 -1.48504 -1.26378 0
M  V30 1343 O 130.912 -0.682245 -1.83636 0
M  V30 1344 H 129.492 -0.745993 0.0387668 0
M  V30 1345 H 132.154 -1.77808 0.798141 0
M  V30 1346 H 131.25 -3.12025 0.0684069 0
M  V30 1347 N 131.551 -0.354651 -1.53558 0
M  V30 1348 C 132.483 0.5315 -2.22952 0
M  V30 1349 C 133.496 1.05503 -1.23988 0
M  V30 1350 O 134.685 0.963279 -1.50277 0
M  V30 1351 C 131.785 1.74538 -2.90499 0
M  V30 1352 C 130.958 1.35524 -4.15875 0
M  V30 1353 C 130.017 2.42999 -4.66731 0
M  V30 1354 O 129.043 2.05844 -5.30676 0
M  V30 1355 N 130.245 3.74423 -4.43608 0
M  V30 1356 H 133.01 -0.0628615 -2.99634 0
M  V30 1357 H 130.571 -0.179302 -1.60904 0
M  V30 1358 H 132.563 2.45892 -3.21433 0
M  V30 1359 H 131.133 2.24686 -2.17336 0
M  V30 1360 H 130.353 0.471998 -3.91364 0
M  V30 1361 H 131.641 1.07071 -4.97406 0
M  V30 1362 H 131.039 4.07391 -3.92491 0
M  V30 1363 H 129.596 4.41913 -4.7912 0
M  V30 1364 N 133.029 1.57378 -0.0835403 0
M  V30 1365 C 133.979 2.09916 0.889905 0
M  V30 1366 C 134.963 1.01151 1.25129 0
M  V30 1367 O 136.155 1.27443 1.2283 0
M  V30 1368 C 133.284 2.67379 2.15322 0
M  V30 1369 C 132.37 3.83167 1.81779 0
M  V30 1370 N 132.761 4.91665 1.18739 0
M  V30 1371 C 131.059 3.92685 2.11459 0
M  V30 1372 C 131.76 5.72409 1.0355 0
M  V30 1373 N 130.736 5.21062 1.54906 0
M  V30 1374 H 134.538 2.91188 0.398378 0
M  V30 1375 H 132.052 1.61956 0.120013 0
M  V30 1376 H 134.049 3.0334 2.8599 0
M  V30 1377 H 132.709 1.87558 2.65051 0
M  V30 1378 H 133.72 5.10784 0.855604 0
M  V30 1379 H 130.397 3.23856 2.63483 0
M  V30 1380 H 131.787 6.69699 0.543425 0
M  V30 1381 N 134.507 -0.190092 1.56449 0
M  V30 1382 C 135.47 -1.21925 1.9408 0
M  V30 1383 C 136.47 -1.38176 0.822431 0
M  V30 1384 O 137.66 -1.35903 1.08977 0
M  V30 1385 C 134.792 -2.58773 2.21922 0
M  V30 1386 H 135.985 -0.897464 2.86157 0
M  V30 1387 H 133.538 -0.43181 1.50217 0
M  V30 1388 H 134.273 -2.95998 1.32499 0
M  V30 1389 H 134.058 -2.48348 3.03424 0
M  V30 1390 H 135.548 -3.32978 2.52022 0
M  V30 1391 N 135.985 -1.50799 -0.457987 0
M  V30 1392 C 137.225 -1.64088 -1.21879 0
M  V30 1393 C 137.589 -0.339848 -1.88968 0
M  V30 1394 O 138.79 -0.348301 -2.66534 0
M  V30 1395 C 137.061 -2.79726 -2.2246 0
M  V30 1396 S 138.62 -3.13225 -3.07303 0
M  V30 1397 H 135.438 -0.578314 -0.41361 0
M  V30 1398 H 138.04 -1.88632 -0.513645 0
M  V30 1399 H 136.744 -3.72722 -1.71775 0
M  V30 1400 H 136.275 -2.57308 -2.97584 0
M  V30 1401 H 138.29 -2.58062 -4.23814 0
M  V30 1402 N 137.463 0.71206 -1.40597 0
M  V30 1403 C 138.71 1.47197 -1.39065 0
M  V30 1404 C 139.038 1.94499 0.00583891 0
M  V30 1405 O 138.293 1.68752 0.99102 0
M  V30 1406 C 138.592 2.71039 -2.32965 0
M  V30 1407 C 138.258 2.42484 -3.80148 0
M  V30 1408 C 136.92 2.34406 -4.20247 0
M  V30 1409 C 139.272 2.18598 -4.73143 0
M  V30 1410 C 136.6 2.00516 -5.51371 0
M  V30 1411 C 138.952 1.8622 -6.0457 0
M  V30 1412 C 137.616 1.76626 -6.43708 0
M  V30 1413 H 136.886 0.538634 -0.508876 0
M  V30 1414 H 139.533 0.815325 -1.73276 0
M  V30 1415 H 137.838 3.41558 -1.91951 0
M  V30 1416 H 139.535 3.29138 -2.29061 0
M  V30 1417 H 136.125 2.49659 -3.4838 0
M  V30 1418 H 140.309 2.23793 -4.42979 0
M  V30 1419 H 135.565 1.91628 -5.80593 0
M  V30 1420 H 139.739 1.66752 -6.76141 0
M  V30 1421 H 137.366 1.50133 -7.45228 0
M  V30 1422 N 138.941 1.26152 0.944643 0
M  V30 1423 C 140.181 1.12708 1.70517 0
M  V30 1424 C 140.545 -0.324727 1.89234 0
M  V30 1425 O 141.746 -0.581211 2.62441 0
M  V30 1426 C 140.017 1.8713 3.04495 0
M  V30 1427 S 141.576 1.89698 3.95677 0
M  V30 1428 H 138.394 0.402665 0.585988 0
M  V30 1429 H 140.996 1.59821 1.12594 0
M  V30 1430 H 139.7 2.91833 2.88551 0
M  V30 1431 H 139.231 1.40444 3.67477 0
M  V30 1432 H 141.246 0.981198 4.86402 0
M  V30 1433 N 140.419 -1.14872 1.07899 0
M  V30 1434 C 141.351 -2.19425 0.662231 0
M  V30 1435 C 142.364 -1.60231 -0.288079 0
M  V30 1436 O 143.553 -1.78336 -0.076534 0
M  V30 1437 C 140.653 -3.38867 -0.0470695 0
M  V30 1438 C 139.826 -4.27597 0.920831 0
M  V30 1439 C 138.885 -5.25616 0.247805 0
M  V30 1440 O 137.911 -5.62189 0.890599 0
M  V30 1441 N 139.113 -5.71746 -1.00435 0
M  V30 1442 H 141.878 -2.55797 1.56166 0
M  V30 1443 H 139.439 -1.30042 0.964404 0
M  V30 1444 H 141.431 -4.01497 -0.50813 0
M  V30 1445 H 140.001 -3.00864 -0.848523 0
M  V30 1446 H 139.221 -3.61982 1.56087 0
M  V30 1447 H 140.509 -4.83748 1.57688 0
M  V30 1448 H 139.907 -5.44153 -1.54642 0
M  V30 1449 H 138.464 -6.36389 -1.40899 0
M  V30 1450 N 141.898 -0.863906 -1.31812 0
M  V30 1451 C 142.845 -0.313303 -2.28664 0
M  V30 1452 C 143.815 0.584868 -1.55462 0
M  V30 1453 O 145 0.517805 -1.83639 0
M  V30 1454 C 142.14 0.48441 -3.41683 0
M  V30 1455 C 141.253 -0.440594 -4.29747 0
M  V30 1456 C 140.388 0.370652 -5.29905 0
M  V30 1457 C 139.427 -0.551164 -6.09613 0
M  V30 1458 N 138.564 0.223462 -7.01744 0
M  V30 1459 H 143.404 -1.14444 -2.75148 0
M  V30 1460 H 140.941 -0.575769 -1.35364 0
M  V30 1461 H 142.899 0.962627 -4.05943 0
M  V30 1462 H 141.529 1.28029 -2.96325 0
M  V30 1463 H 140.581 -1.03724 -3.65986 0
M  V30 1464 H 141.893 -1.14767 -4.85417 0
M  V30 1465 H 141.047 0.911638 -5.99812 0
M  V30 1466 H 139.786 1.11105 -4.74876 0
M  V30 1467 H 138.791 -1.10396 -5.38603 0
M  V30 1468 H 140.016 -1.29032 -6.66729 0
M  V30 1469 H 137.962 0.946787 -6.49132 0
M  V30 1470 H 137.879 -0.424399 -7.54808 0
M  V30 1471 H 139.147 0.745876 -7.75923 0
M  V30 1472 N 143.376 1.44774 -0.622745 0
M  V30 1473 C 144.308 2.28856 0.125485 0
M  V30 1474 C 145.321 1.40811 0.817069 0
M  V30 1475 O 146.51 1.65044 0.679918 0
M  V30 1476 C 143.61 3.16963 1.19949 0
M  V30 1477 C 142.783 4.33374 0.592064 0
M  V30 1478 C 141.842 5.02577 1.55893 0
M  V30 1479 O 140.868 5.58873 1.07933 0
M  V30 1480 N 142.07 5.03256 2.89334 0
M  V30 1481 H 144.835 2.93713 -0.596068 0
M  V30 1482 H 142.396 1.55129 -0.463303 0
M  V30 1483 H 144.388 3.60123 1.84644 0
M  V30 1484 H 142.958 2.53913 1.82337 0
M  V30 1485 H 142.178 3.93509 -0.233322 0
M  V30 1486 H 143.466 5.08527 0.166738 0
M  V30 1487 H 142.864 4.58836 3.30887 0
M  V30 1488 H 141.421 5.50232 3.49412 0
M  V30 1489 N 144.854 0.36279 1.53368 0
M  V30 1490 C 146.102 -0.227326 2.00817 0
M  V30 1491 C 146.423 -1.49511 1.25186 0
M  V30 1492 O 145.693 -1.92482 0.364348 0
M  V30 1493 H 144.273 -0.0869923 0.741917 0
M  V30 1494 H 146.935 0.488381 1.88682 0
M  V30 1495 H 146.031 -0.456273 3.08747 0
M  V30 1496 N 146.332 -1.57332 0.0918853 0
M  V30 1497 C 147.557 -1.98995 -0.584442 0
M  V30 1498 C 147.982 -0.970528 -1.61128 0
M  V30 1499 O 147.34 0.0613904 -1.81196 0
M  V30 1500 C 147.388 -3.39636 -1.21161 0
M  V30 1501 O 146.492 -3.40447 -2.32744 0
M  V30 1502 H 145.833 -0.647165 -0.148572 0
M  V30 1503 H 148.363 -2.03873 0.172347 0
M  V30 1504 H 148.373 -3.7726 -1.55367 0
M  V30 1505 H 147.048 -4.13356 -0.459313 0
M  V30 1506 H 145.625 -3.14614 -2.0018 0
M  V30 1507 N 147.81 0.181792 -1.56548 0
M  V30 1508 C 149.058 0.89832 -1.81038 0
M  V30 1509 C 149.379 1.83232 -0.667164 0
M  V30 1510 O 148.649 1.93372 0.313673 0
M  V30 1511 H 147.229 0.33471 -0.667816 0
M  V30 1512 H 149.891 0.184116 -1.94028 0
M  V30 1513 H 148.987 1.4815 -2.74696 0
M  V30 1514 N 149.288 1.51039 0.449983 0
M  V30 1515 C 150.236 1.71995 1.5659 0
M  V30 1516 C 151.23 0.586029 1.5894 0
M  V30 1517 O 152.436 0.76709 1.62837 0
M  V30 1518 H 148.811 0.543233 0.520001 0
M  V30 1519 H 150.782 2.65562 1.36085 0
M  V30 1520 C 149.531 1.8506 2.9436 0
M  V30 1521 H 148.854 2.71712 2.93279 0
M  V30 1522 H 150.294 2.0374 3.71842 0
M  V30 1523 C 148.753 0.607277 3.31382 0
M  V30 1524 O 149.283 -0.243903 4.00959 0
M  V30 1525 N 147.489 0.455073 2.87015 0
M  V30 1526 H 147.036 1.14879 2.30566 0
M  V30 1527 H 146.994 -0.375611 3.12148 0
M  V30 1528 N 150.766 -0.704594 1.40972 0
M  V30 1529 C 151.714 -1.83994 1.42299 0
M  V30 1530 C 152.708 -1.66684 0.302111 0
M  V30 1531 O 153.914 -1.73655 0.473697 0
M  V30 1532 H 150.289 -0.606171 0.44504 0
M  V30 1533 H 152.26 -1.79992 2.38003 0
M  V30 1534 C 151.009 -3.21946 1.31323 0
M  V30 1535 H 150.332 -3.35878 2.16855 0
M  V30 1536 H 151.772 -4.01491 1.36311 0
M  V30 1537 C 150.231 -3.36891 0.0245977 0
M  V30 1538 O 150.761 -3.90687 -0.934153 0
M  V30 1539 N 148.967 -2.90559 -0.0485243 0
M  V30 1540 H 148.514 -2.46968 0.732419 0
M  V30 1541 H 148.472 -3.00937 -0.910171 0
M  V30 1542 N 152.244 -1.26651 -0.937939 0
M  V30 1543 C 153.49 -1.13562 -1.68746 0
M  V30 1544 C 153.845 0.317241 -1.89767 0
M  V30 1545 O 153.138 1.22939 -1.46957 0
M  V30 1546 C 153.332 -1.84168 -3.06295 0
M  V30 1547 C 153.161 -3.36171 -2.98696 0
M  V30 1548 C 151.931 -4.05468 -3.01535 0
M  V30 1549 C 154.129 -4.32312 -2.78588 0
M  V30 1550 N 152.111 -5.44118 -2.84269 0
M  V30 1551 C 153.482 -5.58159 -2.69924 0
M  V30 1552 C 155.537 -4.22524 -2.63396 0
M  V30 1553 C 154.24 -6.75335 -2.47618 0
M  V30 1554 C 156.266 -5.39411 -2.42466 0
M  V30 1555 C 155.628 -6.64208 -2.34536 0
M  V30 1556 H 151.727 -0.470361 -0.624728 0
M  V30 1557 H 154.311 -1.59982 -1.10968 0
M  V30 1558 H 152.482 -1.40219 -3.62206 0
M  V30 1559 H 154.214 -1.63674 -3.70126 0
M  V30 1560 H 150.969 -3.56854 -3.11372 0
M  V30 1561 H 151.393 -6.1693 -2.78795 0
M  V30 1562 H 156.035 -3.26771 -2.68292 0
M  V30 1563 H 153.753 -7.71182 -2.41463 0
M  V30 1564 H 157.339 -5.33711 -2.31611 0
M  V30 1565 H 156.219 -7.53129 -2.18555 0
M  V30 1566 N 153.722 1.14298 -1.08507 0
M  V30 1567 C 154.685 2.17607 -0.719711 0
M  V30 1568 C 155.685 1.58907 0.245997 0
M  V30 1569 O 156.875 1.74181 0.0254081 0
M  V30 1570 C 154.007 3.40842 -0.0627695 0
M  V30 1571 H 155.2 2.51443 -1.63452 0
M  V30 1572 H 152.753 1.28963 -0.88307 0
M  V30 1573 H 153.488 3.12587 0.863716 0
M  V30 1574 H 153.273 3.84713 -0.757504 0
M  V30 1575 H 154.763 4.17221 0.177786 0
M  V30 1576 N 155.201 0.870884 1.31352 0
M  V30 1577 C 156.431 0.496049 2.00557 0
M  V30 1578 C 156.839 -0.916241 1.65534 0
M  V30 1579 O 156.182 -1.61188 0.881134 0
M  V30 1580 C 156.244 0.574418 3.54881 0
M  V30 1581 C 155.908 1.94849 4.1338 0
M  V30 1582 C 156.905 2.91611 4.30417 0
M  V30 1583 C 154.59 2.25005 4.49086 0
M  V30 1584 C 156.584 4.16672 4.82352 0
M  V30 1585 C 154.271 3.50315 5.00722 0
M  V30 1586 C 155.269 4.45964 5.17306 0
M  V30 1587 O 154.957 5.69052 5.67833 0
M  V30 1588 H 154.689 0.191664 0.64826 0
M  V30 1589 H 157.243 1.17409 1.68536 0
M  V30 1590 H 155.473 -0.160549 3.86367 0
M  V30 1591 H 157.162 0.212879 4.05341 0
M  V30 1592 H 157.928 2.69622 4.03149 0
M  V30 1593 H 153.807 1.51332 4.35453 0
M  V30 1594 H 157.351 4.91336 4.95211 0
M  V30 1595 H 153.248 3.72147 5.27424 0
M  V30 1596 H 154.016 5.71236 5.86201 0
M  V30 1597 N 156.679 -1.44442 0.630414 0
M  V30 1598 C 157.927 -2.01653 0.134351 0
M  V30 1599 C 158.248 -1.49836 -1.24796 0
M  V30 1600 O 157.518 -0.701684 -1.82902 0
M  V30 1601 H 156.098 -0.74554 0.0466769 0
M  V30 1602 H 158.76 -1.76952 0.816955 0
M  V30 1603 H 157.856 -3.11935 0.101498 0
M  V30 1604 N 158.157 -0.370918 -1.53173 0
M  V30 1605 C 159.387 0.217389 -2.05453 0
M  V30 1606 C 159.795 1.42568 -1.24382 0
M  V30 1607 O 159.138 1.81571 -0.278839 0
M  V30 1608 C 159.2 0.669827 -3.53205 0
M  V30 1609 C 158.864 -0.4225 -4.55043 0
M  V30 1610 C 159.861 -1.27407 -5.04047 0
M  V30 1611 C 157.546 -0.58427 -4.9889 0
M  V30 1612 C 159.54 -2.27271 -5.95505 0
M  V30 1613 C 157.227 -1.58627 -5.90153 0
M  V30 1614 C 158.225 -2.42892 -6.38351 0
M  V30 1615 O 157.913 -3.41382 -7.27814 0
M  V30 1616 H 157.645 0.0408171 -0.674767 0
M  V30 1617 H 160.199 -0.5292 -1.98466 0
M  V30 1618 H 158.429 1.4681 -3.57748 0
M  V30 1619 H 160.118 1.18173 -3.88317 0
M  V30 1620 H 160.884 -1.16031 -4.70916 0
M  V30 1621 H 156.763 0.061851 -4.60959 0
M  V30 1622 H 160.307 -2.93079 -6.33049 0
M  V30 1623 H 156.204 -1.70048 -6.22699 0
M  V30 1624 H 156.972 -3.37173 -7.45826 0
M  V30 1625 N 159.635 1.57281 -0.100228 0
M  V30 1626 C 160.86 1.99302 0.573881 0
M  V30 1627 C 161.285 0.979059 1.60611 0
M  V30 1628 O 160.643 -0.0517803 1.81226 0
M  V30 1629 C 160.691 3.40274 1.19358 0
M  V30 1630 O 159.795 3.41676 2.30935 0
M  V30 1631 H 159.136 0.647944 0.145138 0
M  V30 1632 H 161.666 2.03779 -0.183156 0
M  V30 1633 H 161.676 3.78078 1.53365 0
M  V30 1634 H 160.351 4.13594 0.437385 0
M  V30 1635 H 158.928 3.15672 1.98509 0
M  V30 1636 N 161.113 -0.173488 1.56642 0
M  V30 1637 C 162.359 -0.891784 1.8214 0
M  V30 1638 C 162.692 -1.8199 0.677736 0
M  V30 1639 O 161.967 -1.91842 -0.320446 0
M  V30 1640 C 162.25 -1.68933 3.18015 0
M  V30 1641 C 162.103 -0.784487 4.42906 0
M  V30 1642 C 163.422 -2.65748 3.50808 0
M  V30 1643 H 160.541 -0.322761 0.662567 0
M  V30 1644 H 163.183 -0.158095 1.89341 0
M  V30 1645 H 161.333 -2.31482 3.12007 0
M  V30 1646 H 163.005 -0.172046 4.60979 0
M  V30 1647 H 161.248 -0.0924117 4.33702 0
M  V30 1648 H 161.919 -1.37799 5.34524 0
M  V30 1649 H 164.395 -2.13327 3.57255 0
M  V30 1650 H 163.271 -3.18619 4.4696 0
M  V30 1651 H 163.532 -3.45842 2.75401 0
M  V30 1652 N 162.591 -1.51276 -0.441967 0
M  V30 1653 C 163.541 -1.6864 -1.53442 0
M  V30 1654 C 164.525 -0.540444 -1.51552 0
M  V30 1655 O 165.717 -0.796157 -1.58083 0
M  V30 1656 C 162.846 -1.8106 -2.91672 0
M  V30 1657 C 161.932 -3.01424 -2.98336 0
M  V30 1658 N 162.323 -4.2467 -2.74752 0
M  V30 1659 C 160.621 -3.00584 -3.29493 0
M  V30 1660 C 161.322 -5.05891 -2.87139 0
M  V30 1661 N 160.298 -4.40442 -3.18609 0
M  V30 1662 H 164.1 -2.61598 -1.33954 0
M  V30 1663 H 161.614 -1.4886 -0.6492 0
M  V30 1664 H 163.611 -1.91609 -3.70259 0
M  V30 1665 H 162.271 -0.892795 -3.12185 0
M  V30 1666 H 163.282 -4.53691 -2.49769 0
M  V30 1667 H 159.959 -2.18417 -3.55809 0
M  V30 1668 H 161.349 -6.13983 -2.72899 0
M  V30 1669 N 164.069 0.697108 -1.41344 0
M  V30 1670 C 165.317 1.45426 -1.40341 0
M  V30 1671 C 165.638 1.94996 -0.0128787 0
M  V30 1672 O 164.908 1.71599 0.945027 0
M  V30 1673 H 163.488 0.539594 -0.516573 0
M  V30 1674 H 166.15 0.825201 -1.76569 0
M  V30 1675 H 165.246 2.31817 -2.08967 0
M  V30 1676 N 165.547 1.27147 0.931209 0
M  V30 1677 C 166.958 1.12044 1.49342 0
M  V30 1678 C 167.309 -0.295795 1.93957 0
M  V30 1679 O 166.434 -1.18835 1.80852 0
M  V30 1680 C 167.029 2.02781 2.71414 0
M  V30 1681 C 165.588 1.91794 3.2387 0
M  V30 1682 C 164.735 1.95543 1.96617 0
M  V30 1683 H 167.686 1.40091 0.745672 0
M  V30 1684 H 167.707 1.58156 3.46074 0
M  V30 1685 H 167.219 3.05848 2.38911 0
M  V30 1686 H 165.32 0.916992 3.6114 0
M  V30 1687 H 165.433 2.77852 3.90302 0
M  V30 1688 H 163.797 1.39722 2.12955 0
M  V30 1689 H 164.58 3.00259 1.66432 0
M  V30 1690 N 167.025 -1.13721 1.09112 0
M  V30 1691 C 168.441 -1.36914 0.820174 0
M  V30 1692 C 168.641 -1.93356 -0.567079 0
M  V30 1693 O 167.697 -2.15093 -1.32255 0
M  V30 1694 C 169.01 -2.3235 1.90877 0
M  V30 1695 C 170.558 -2.45973 1.93562 0
M  V30 1696 C 171.033 -3.44714 3.01556 0
M  V30 1697 N 172.524 -3.52263 3.00775 0
M  V30 1698 C 173.259 -4.28536 3.80978 0
M  V30 1699 N 172.755 -5.07991 4.71081 0
M  V30 1700 N 174.548 -4.23804 3.69251 0
M  V30 1701 H 166.699 -0.754348 1.98553 0
M  V30 1702 H 168.962 -0.3944 0.862063 0
M  V30 1703 H 168.668 -1.98027 2.90651 0
M  V30 1704 H 168.542 -3.32332 1.78424 0
M  V30 1705 H 170.929 -2.79584 0.944286 0
M  V30 1706 H 171.01 -1.45926 2.10093 0
M  V30 1707 H 170.654 -3.11835 4.00901 0
M  V30 1708 H 170.584 -4.44558 2.82269 0
M  V30 1709 H 173.075 -2.95567 2.35475 0
M  V30 1710 H 173.388 -5.63487 5.28869 0
M  V30 1711 H 171.733 -5.07235 4.75119 0
M  V30 1712 H 174.924 -3.60806 2.98222 0
M  V30 1713 H 175.097 -4.82995 4.31995 0
M  V30 1714 N 168.503 -0.877838 -1.30888 0
M  V30 1715 C 169.453 -0.310872 -2.25871 0
M  V30 1716 C 170.437 0.556596 -1.50966 0
M  V30 1717 O 171.629 0.402187 -1.7237 0
M  V30 1718 C 168.758 0.479821 -3.3993 0
M  V30 1719 C 167.844 -0.401333 -4.22197 0
M  V30 1720 N 168.235 -1.49848 -4.83093 0
M  V30 1721 C 166.533 -0.195167 -4.45573 0
M  V30 1722 C 167.234 -2.0425 -5.44662 0
M  V30 1723 N 166.21 -1.33843 -5.26865 0
M  V30 1724 H 170.012 -1.1493 -2.70496 0
M  V30 1725 H 167.526 -0.726458 -1.45246 0
M  V30 1726 H 169.523 0.902582 -4.07012 0
M  V30 1727 H 168.183 1.31577 -2.96846 0
M  V30 1728 H 169.194 -1.88137 -4.82519 0
M  V30 1729 H 165.871 0.604192 -4.13105 0
M  V30 1730 H 167.261 -2.96345 -6.03017 0
M  V30 1731 N 169.982 1.44106 -0.638065 0
M  V30 1732 C 170.892 2.34513 0.0637334 0
M  V30 1733 C 171.908 1.53018 0.828346 0
M  V30 1734 O 173.084 1.85723 0.779036 0
M  V30 1735 C 170.149 3.31095 1.02844 0
M  V30 1736 C 169.21 4.28497 0.26244 0
M  V30 1737 C 168.443 5.20465 1.1812 0
M  V30 1738 O 168.666 5.16514 2.42011 0
M  V30 1739 O 167.6 5.98251 0.661774 0
M  V30 1740 H 171.426 2.95989 -0.68003 0
M  V30 1741 H 169.011 1.43994 -0.398252 0
M  V30 1742 H 170.893 3.90526 1.58327 0
M  V30 1743 H 169.568 2.72144 1.7527 0
M  V30 1744 H 168.475 3.72592 -0.335602 0
M  V30 1745 H 169.808 4.90388 -0.421936 0
M  V30 1746 N 171.46 0.379036 1.52974 0
M  V30 1747 C 172.37 -0.468639 2.29872 0
M  V30 1748 C 173.386 -1.08067 1.36373 0
M  V30 1749 O 174.562 -1.08871 1.69438 0
M  V30 1750 C 171.627 -1.58594 3.083 0
M  V30 1751 C 170.688 -1.00007 4.17489 0
M  V30 1752 C 169.921 -2.06413 4.92168 0
M  V30 1753 O 170.144 -3.27751 4.66835 0
M  V30 1754 O 169.078 -1.68717 5.7777 0
M  V30 1755 H 172.904 0.157508 3.03291 0
M  V30 1756 H 170.489 0.143035 1.48714 0
M  V30 1757 H 172.371 -2.23525 3.57232 0
M  V30 1758 H 171.046 -2.19724 2.37703 0
M  V30 1759 H 169.953 -0.314299 3.72777 0
M  V30 1760 H 171.286 -0.433135 4.90291 0
M  V30 1761 N 172.938 -1.57226 0.108567 0
M  V30 1762 C 174.163 -1.99604 -0.563303 0
M  V30 1763 C 174.588 -0.987563 -1.6009 0
M  V30 1764 O 173.946 0.0421687 -1.81251 0
M  V30 1765 C 173.994 -3.40902 -1.17552 0
M  V30 1766 O 173.098 -3.42896 -2.2912 0
M  V30 1767 H 172.439 -0.648704 -0.1417 0
M  V30 1768 H 174.969 -2.03679 0.193961 0
M  V30 1769 H 174.979 -3.78886 -1.51357 0
M  V30 1770 H 173.654 -4.1382 -0.415445 0
M  V30 1771 H 172.231 -3.1672 -1.96832 0
M  V30 1772 N 174.416 0.165178 -1.56732 0
M  V30 1773 C 175.665 0.879143 -1.81532 0
M  V30 1774 C 175.978 1.83144 -0.686842 0
M  V30 1775 O 177.184 2.58823 -0.819944 0
M  V30 1776 C 175.64 1.61388 -3.21686 0
M  V30 1777 C 175.248 0.704904 -4.4242 0
M  V30 1778 C 176.992 2.3157 -3.55774 0
M  V30 1779 C 174.899 1.44022 -5.73595 0
M  V30 1780 H 173.829 0.332033 -0.676957 0
M  V30 1781 H 176.48 0.132008 -1.83025 0
M  V30 1782 H 174.862 2.40599 -3.14529 0
M  V30 1783 H 176.036 -0.0506815 -4.60772 0
M  V30 1784 H 174.351 0.112419 -4.16248 0
M  V30 1785 H 176.948 2.8719 -4.51028 0
M  V30 1786 H 177.291 3.07201 -2.8095 0
M  V30 1787 H 177.824 1.59297 -3.64513 0
M  V30 1788 H 174.563 0.72612 -6.51466 0
M  V30 1789 H 174.083 2.16898 -5.5921 0
M  V30 1790 H 175.762 1.98606 -6.15764 0
M  V30 1791 N 175.894 1.51508 0.433938 0
M  V30 1792 C 176.827 1.67756 1.54704 0
M  V30 1793 C 177.805 0.525127 1.53887 0
M  V30 1794 O 178.989 0.749393 1.72963 0
M  V30 1795 C 176.116 1.69424 2.9328 0
M  V30 1796 C 175.162 2.90673 3.12108 0
M  V30 1797 S 175.995 4.51431 2.88046 0
M  V30 1798 C 177.151 4.55849 4.28897 0
M  V30 1799 H 177.384 2.61904 1.40689 0
M  V30 1800 H 174.917 1.41235 0.62386 0
M  V30 1801 H 176.875 1.7107 3.73156 0
M  V30 1802 H 175.536 0.764464 3.04655 0
M  V30 1803 H 174.729 2.88251 4.13434 0
M  V30 1804 H 174.331 2.86786 2.40062 0
M  V30 1805 H 176.623 4.31699 5.22152 0
M  V30 1806 H 177.566 5.57676 4.36351 0
M  V30 1807 H 177.974 3.85137 4.12711 0
M  V30 1808 N 177.372 -0.689602 1.41712 0
M  V30 1809 C 178.32 -1.82475 1.44242 0
M  V30 1810 C 179.314 -1.66354 0.319774 0
M  V30 1811 O 180.52 -1.73143 0.492089 0
M  V30 1812 H 176.895 -0.601416 0.451445 0
M  V30 1813 H 178.866 -1.77458 2.39899 0
M  V30 1814 C 177.615 -3.20535 1.3473 0
M  V30 1815 H 176.938 -3.33559 2.20405 0
M  V30 1816 H 178.378 -4.00023 1.40562 0
M  V30 1817 C 176.837 -3.36846 0.0603281 0
M  V30 1818 O 177.367 -3.91656 -0.892663 0
M  V30 1819 N 175.573 -2.90595 -0.0177039 0
M  V30 1820 H 175.12 -2.46178 0.758572 0
M  V30 1821 H 175.078 -3.01886 -0.878201 0
M  V30 1822 N 178.85 -1.27639 -0.924453 0
M  V30 1823 C 180.099 -1.13549 -1.66702 0
M  V30 1824 C 180.412 0.317487 -1.93006 0
M  V30 1825 O 181.618 0.579333 -2.65247 0
M  V30 1826 C 180.074 -1.98426 -3.00259 0
M  V30 1827 C 179.682 -3.484 -2.81641 0
M  V30 1828 C 181.426 -1.92993 -3.78092 0
M  V30 1829 C 179.333 -4.25464 -4.10773 0
M  V30 1830 H 178.263 -0.421351 -0.625283 0
M  V30 1831 H 180.914 -1.52085 -1.02676 0
M  V30 1832 H 179.296 -1.52736 -3.6536 0
M  V30 1833 H 180.47 -4.01973 -2.25287 0
M  V30 1834 H 178.785 -3.55245 -2.17232 0
M  V30 1835 H 181.382 -2.47844 -4.7379 0
M  V30 1836 H 181.725 -0.904281 -4.0636 0
M  V30 1837 H 182.258 -2.36595 -3.19793 0
M  V30 1838 H 178.997 -5.28566 -3.87683 0
M  V30 1839 H 178.517 -3.76667 -4.66779 0
M  V30 1840 H 180.196 -4.34812 -4.79111 0
M  V30 1841 N 180.328 1.1314 -1.09713 0
M  V30 1842 C 181.577 1.83838 -0.829851 0
M  V30 1843 C 181.89 1.84599 0.646728 0
M  V30 1844 O 183.096 2.51218 1.02965 0
M  V30 1845 C 181.552 3.30069 -1.43466 0
M  V30 1846 C 181.16 3.37688 -2.94399 0
M  V30 1847 C 182.904 4.05788 -1.24645 0
M  V30 1848 C 180.811 4.78209 -3.47952 0
M  V30 1849 H 179.741 0.68877 -0.306777 0
M  V30 1850 H 182.392 1.27448 -1.3202 0
M  V30 1851 H 180.774 3.8628 -0.871996 0
M  V30 1852 H 181.948 2.91456 -3.56918 0
M  V30 1853 H 180.263 2.75436 -3.12289 0
M  V30 1854 H 182.86 5.09535 -1.62107 0
M  V30 1855 H 183.203 4.15878 -0.187357 0
M  V30 1856 H 183.736 3.55915 -1.77678 0
M  V30 1857 H 180.475 4.73311 -4.53495 0
M  V30 1858 H 179.995 5.24924 -2.90198 0
M  V30 1859 H 181.674 5.47133 -3.45332 0
M  V30 1860 N 181.806 0.884767 1.30421 0
M  V30 1861 C 183.222 0.57874 1.48737 0
M  V30 1862 C 183.422 -0.883567 1.81095 0
M  V30 1863 O 182.478 -1.6648 1.89844 0
M  V30 1864 C 183.791 1.49171 2.61091 0
M  V30 1865 C 185.339 1.49532 2.74971 0
M  V30 1866 C 185.814 2.39421 3.90438 0
M  V30 1867 N 187.305 2.37383 3.97748 0
M  V30 1868 C 188.04 3.03647 4.86401 0
M  V30 1869 N 187.536 3.79136 5.79852 0
M  V30 1870 N 189.329 2.9288 4.79768 0
M  V30 1871 H 181.48 1.83075 1.0769 0
M  V30 1872 H 183.743 0.783637 0.533495 0
M  V30 1873 H 183.449 2.53291 2.44001 0
M  V30 1874 H 183.323 1.20113 3.57565 0
M  V30 1875 H 185.71 0.46163 2.91467 0
M  V30 1876 H 185.791 1.8262 1.79119 0
M  V30 1877 H 185.435 3.42874 3.74699 0
M  V30 1878 H 185.365 2.03649 4.85628 0
M  V30 1879 H 187.856 1.82525 3.30897 0
M  V30 1880 H 188.169 4.26789 6.4426 0
M  V30 1881 H 186.514 3.83243 5.79784 0
M  V30 1882 H 189.705 2.33433 4.05742 0
M  V30 1883 H 189.878 3.448 5.4865 0
M  V30 1884 N 183.284 -1.43765 0.645699 0
M  V30 1885 C 184.231 -2.30745 -0.0504648 0
M  V30 1886 C 185.201 -1.4432 -0.822241 0
M  V30 1887 O 186.386 -1.73202 -0.800358 0
M  V30 1888 C 183.526 -3.29802 -1.0161 0
M  V30 1889 C 182.639 -4.31326 -0.241219 0
M  V30 1890 C 181.774 -5.17469 -1.19998 0
M  V30 1891 C 180.813 -6.10691 -0.415094 0
M  V30 1892 N 179.95 -6.89483 -1.32506 0
M  V30 1893 H 184.79 -2.8973 0.697155 0
M  V30 1894 H 182.327 -1.42738 0.355563 0
M  V30 1895 H 184.285 -3.85734 -1.58949 0
M  V30 1896 H 182.915 -2.72483 -1.73069 0
M  V30 1897 H 181.967 -3.77749 0.448334 0
M  V30 1898 H 183.279 -4.9743 0.369437 0
M  V30 1899 H 182.433 -5.7799 -1.84424 0
M  V30 1900 H 181.172 -4.51473 -1.84455 0
M  V30 1901 H 180.177 -5.49265 0.242565 0
M  V30 1902 H 181.402 -6.78727 0.224966 0
M  V30 1903 H 179.348 -6.26142 -1.95657 0
M  V30 1904 H 179.265 -7.52081 -0.768783 0
M  V30 1905 H 180.533 -7.54516 -1.9577 0
M  V30 1906 N 184.763 -0.387143 -1.52771 0
M  V30 1907 C 185.673 0.456442 -2.30117 0
M  V30 1908 C 186.689 1.07342 -1.36944 0
M  V30 1909 O 187.865 1.07971 -1.70013 0
M  V30 1910 C 184.93 1.56957 -3.09136 0
M  V30 1911 C 183.991 0.977916 -4.18014 0
M  V30 1912 C 183.224 2.038 -4.93256 0
M  V30 1913 O 183.447 3.25271 -4.68567 0
M  V30 1914 O 182.381 1.6565 -5.78657 0
M  V30 1915 H 186.207 -0.17359 -3.03203 0
M  V30 1916 H 183.792 -0.150919 -1.48636 0
M  V30 1917 H 185.674 2.21628 -3.58412 0
M  V30 1918 H 184.349 2.18461 -2.38865 0
M  V30 1919 H 183.256 0.294525 -3.72939 0
M  V30 1920 H 184.589 0.407128 -4.90513 0
M  V30 1921 N 186.241 1.57166 -0.116904 0
M  V30 1922 C 187.487 1.95412 0.542405 0
M  V30 1923 C 187.82 1.00019 1.66463 0
M  V30 1924 O 187.095 0.0370346 1.94465 0
M  V30 1925 C 187.378 3.43615 1.07708 0
M  V30 1926 C 187.231 4.49781 -0.0415868 0
M  V30 1927 C 188.55 3.93616 1.96861 0
M  V30 1928 H 185.669 0.710543 0.195696 0
M  V30 1929 H 188.311 1.89027 -0.192038 0
M  V30 1930 H 186.461 3.49187 1.70296 0
M  V30 1931 H 188.133 4.56308 -0.676793 0
M  V30 1932 H 186.376 4.28033 -0.705019 0
M  V30 1933 H 187.047 5.50733 0.373717 0
M  V30 1934 H 189.523 3.90335 1.44146 0
M  V30 1935 H 188.399 4.97838 2.3119 0
M  V30 1936 H 188.66 3.34188 2.89432 0
M  V30 1937 N 187.719 -0.156864 1.56817 0
M  V30 1938 C 188.629 -1.2136 2.00771 0
M  V30 1939 C 189.645 -1.47598 0.921459 0
M  V30 1940 O 190.821 -1.59462 1.2302 0
M  V30 1941 C 187.886 -2.52943 2.37109 0
M  V30 1942 C 186.947 -2.34439 3.59634 0
M  V30 1943 C 186.18 -3.59748 3.94229 0
M  V30 1944 O 186.403 -4.65526 3.29609 0
M  V30 1945 O 185.337 -3.52998 4.8752 0
M  V30 1946 H 189.163 -0.870468 2.90958 0
M  V30 1947 H 186.748 -0.36484 1.44877 0
M  V30 1948 H 188.63 -3.30538 2.61386 0
M  V30 1949 H 187.305 -2.86806 1.5008 0
M  V30 1950 H 186.212 -1.54828 3.40557 0
M  V30 1951 H 187.545 -2.05496 4.4725 0
M  V30 1952 N 189.197 -1.51736 -0.425897 0
M  V30 1953 C 190.144 -1.73875 -1.51776 0
M  V30 1954 C 191.114 -0.580702 -1.55618 0
M  V30 1955 O 192.299 -0.81641 -1.72451 0
M  V30 1956 C 189.439 -1.88012 -2.89388 0
M  V30 1957 C 188.552 -3.15606 -2.94986 0
M  V30 1958 C 187.687 -3.20271 -4.23793 0
M  V30 1959 C 186.726 -4.42134 -4.23302 0
M  V30 1960 N 185.863 -4.44284 -5.43651 0
M  V30 1961 H 190.703 -2.67071 -1.32201 0
M  V30 1962 H 188.24 -1.32351 -0.642008 0
M  V30 1963 H 190.198 -1.9419 -3.69251 0
M  V30 1964 H 188.828 -0.98213 -3.07496 0
M  V30 1965 H 187.88 -3.18681 -2.07717 0
M  V30 1966 H 189.192 -4.05486 -2.90486 0
M  V30 1967 H 188.346 -3.25428 -5.12036 0
M  V30 1968 H 187.085 -2.28299 -4.30965 0
M  V30 1969 H 186.09 -4.3714 -3.3345 0
M  V30 1970 H 187.315 -5.35382 -4.17783 0
M  V30 1971 H 185.261 -3.55188 -5.51523 0
M  V30 1972 H 185.178 -5.27988 -5.41078 0
M  V30 1973 H 186.446 -4.53649 -6.33895 0
M  V30 1974 N 190.675 0.682077 -1.42076 0
M  V30 1975 C 191.915 1.45424 -1.43636 0
M  V30 1976 C 192.279 1.91939 -0.0484001 0
M  V30 1977 O 193.48 2.6873 0.0612514 0
M  V30 1978 C 191.751 2.62427 -2.42625 0
M  V30 1979 S 193.31 3.51379 -2.62827 0
M  V30 1980 H 190.128 0.496779 -0.508657 0
M  V30 1981 H 192.73 0.794645 -1.78621 0
M  V30 1982 H 191.434 2.26481 -3.42249 0
M  V30 1983 H 190.965 3.33266 -2.09039 0
M  V30 1984 H 192.98 4.58141 -1.9058 0
M  V30 1985 N 192.153 1.28127 0.917671 0
M  V30 1986 C 193.43 1.05761 1.64542 0
M  V30 1987 C 193.81 -0.404344 2.07191 0
M  V30 1988 O 193.158 -1.38963 1.81388 0
M  V30 1989 C 193.368 2.02857 2.83989 0
M  V30 1990 C 194.716 2.32786 3.551 0
M  V30 1991 O 195.74 2.0091 2.94132 0
M  V30 1992 O 194.599 2.87169 4.64969 0
M  V30 1993 H 191.693 0.403916 0.721652 0
M  V30 1994 H 194.239 1.39431 0.967322 0
M  V30 1995 H 193.011 3.01407 2.49538 0
M  V30 1996 H 192.634 1.69809 3.59514 0
M  V30 1997 N 193.631 -1.12557 1.10312 0
M  V30 1998 C 194.856 -1.88405 0.867085 0
M  V30 1999 C 195.281 -1.79038 -0.576817 0
M  V30 2000 O 194.639 -1.14439 -1.40618 0
M  V30 2001 C 194.687 -3.3563 1.31851 0
M  V30 2002 O 193.791 -4.09565 0.482734 0
M  V30 2003 H 193.132 -0.585455 0.313271 0
M  V30 2004 H 195.662 -1.42352 1.4696 0
M  V30 2005 H 195.672 -3.86469 1.3079 0
M  V30 2006 H 194.347 -3.41765 2.37001 0
M  V30 2007 H 192.924 -3.68695 0.558448 0
M  V30 2008 N 195.109 -0.891671 -1.2995 0
M  V30 2009 C 196.356 -0.513501 -1.95881 0
M  V30 2010 C 196.684 0.938655 -1.70351 0
M  V30 2011 O 195.939 1.67936 -1.00478 0
M  V30 2012 C 196.238 -0.742868 -3.49594 0
M  V30 2013 C 195.904 -2.17114 -3.95186 0
M  V30 2014 C 194.566 -2.56169 -4.07346 0
M  V30 2015 C 196.918 -3.10162 -4.18866 0
M  V30 2016 C 194.246 -3.87469 -4.4055 0
M  V30 2017 C 196.598 -4.41001 -4.53542 0
M  V30 2018 C 195.262 -4.79941 -4.63911 0
M  V30 2019 H 194.532 -0.187903 -0.71678 0
M  V30 2020 H 197.179 -1.1288 -1.54694 0
M  V30 2021 H 195.484 -0.044586 -3.91775 0
M  V30 2022 H 197.181 -0.429767 -3.9869 0
M  V30 2023 H 193.771 -1.85801 -3.86233 0
M  V30 2024 H 197.955 -2.81206 -4.08946 0
M  V30 2025 H 193.211 -4.17371 -4.46779 0
M  V30 2026 H 197.385 -5.13133 -4.70815 0
M  V30 2027 H 195.012 -5.81719 -4.89395 0
M  V30 2028 N 196.587 1.43421 -0.653314 0
M  V30 2029 C 197.812 2.06678 -0.172846 0
M  V30 2030 C 198.237 1.48648 1.15262 0
M  V30 2031 O 197.595 0.596457 1.71208 0
M  V30 2032 C 197.643 3.60474 -0.0953184 0
M  V30 2033 O 196.747 4.01487 0.942442 0
M  V30 2034 H 196.088 0.657181 -0.0949155 0
M  V30 2035 H 198.618 1.83925 -0.896265 0
M  V30 2036 H 198.628 4.07905 0.0879728 0
M  V30 2037 H 197.303 4.02088 -1.06291 0
M  V30 2038 H 195.88 3.65646 0.731932 0
M  V30 2039 N 198.065 0.39524 1.52563 0
M  V30 2040 C 199.313 -0.184678 2.01254 0
M  V30 2041 C 199.634 -1.46822 1.28329 0
M  V30 2042 O 198.904 -1.91666 0.405094 0
M  V30 2043 H 197.484 -0.0712355 0.743596 0
M  V30 2044 H 200.146 0.528293 1.87603 0
M  V30 2045 H 199.242 -0.390681 3.09645 0
M  V30 2046 N 199.544 -1.57102 0.125237 0
M  V30 2047 C 200.791 -1.95407 -0.531248 0
M  V30 2048 C 201.119 -1.0089 -1.66287 0
M  V30 2049 O 200.374 -0.0339431 -1.95671 0
M  V30 2050 C 200.673 -3.40096 -1.09862 0
M  V30 2051 C 200.339 -4.50815 -0.0876989 0
M  V30 2052 C 199.001 -4.80824 0.19026 0
M  V30 2053 C 201.353 -5.17724 0.600902 0
M  V30 2054 C 198.681 -5.75058 1.163 0
M  V30 2055 C 201.033 -6.13005 1.56231 0
M  V30 2056 C 199.697 -6.41403 1.8482 0
M  V30 2057 H 198.967 -0.715046 -0.194397 0
M  V30 2058 H 201.614 -1.90373 0.207463 0
M  V30 2059 H 199.919 -3.41855 -1.91422 0
M  V30 2060 H 201.616 -3.6705 -1.61478 0
M  V30 2061 H 198.206 -4.27444 -0.314528 0
M  V30 2062 H 202.39 -4.94691 0.399333 0
M  V30 2063 H 197.646 -5.95362 1.39117 0
M  V30 2064 H 201.82 -6.63934 2.10153 0
M  V30 2065 H 199.447 -7.14229 2.60349 0
M  V30 2066 N 201.022 0.148545 -1.56898 0
M  V30 2067 C 202.269 0.861418 -1.83264 0
M  V30 2068 C 202.597 1.81239 -0.705883 0
M  V30 2069 O 201.852 1.93305 0.305212 0
M  V30 2070 C 202.151 1.67064 -3.1595 0
M  V30 2071 C 201.817 0.866591 -4.42494 0
M  V30 2072 C 200.479 0.644762 -4.76861 0
M  V30 2073 C 202.831 0.30418 -5.20312 0
M  V30 2074 C 200.159 -0.15021 -5.86508 0
M  V30 2075 C 202.511 -0.477824 -6.30793 0
M  V30 2076 C 201.175 -0.710244 -6.63711 0
M  V30 2077 H 200.445 0.315215 -0.670612 0
M  V30 2078 H 203.092 0.125142 -1.91091 0
M  V30 2079 H 201.397 2.47698 -3.03567 0
M  V30 2080 H 203.094 2.22566 -3.33565 0
M  V30 2081 H 199.684 1.04955 -4.15551 0
M  V30 2082 H 203.868 0.462844 -4.94137 0
M  V30 2083 H 199.124 -0.339796 -6.10455 0
M  V30 2084 H 203.298 -0.92076 -6.90286 0
M  V30 2085 H 200.925 -1.3281 -7.48509 0
M  V30 2086 N 202.5 1.5196 0.417844 0
M  V30 2087 C 203.749 1.6482 1.16264 0
M  V30 2088 C 204.062 0.379886 1.91876 0
M  V30 2089 O 205.268 0.388154 2.68711 0
M  V30 2090 C 203.724 2.91161 2.1155 0
M  V30 2091 C 203.332 4.25068 1.41495 0
M  V30 2092 C 205.076 3.13383 2.86341 0
M  V30 2093 C 202.983 5.42541 2.35379 0
M  V30 2094 H 201.913 0.613954 0.437694 0
M  V30 2095 H 204.564 1.78442 0.427871 0
M  V30 2096 H 202.946 2.71218 2.88543 0
M  V30 2097 H 204.12 4.55463 0.699263 0
M  V30 2098 H 202.435 4.0888 0.787792 0
M  V30 2099 H 205.032 3.98324 3.5671 0
M  V30 2100 H 205.375 2.27256 3.48798 0
M  V30 2101 H 205.908 3.33757 2.1645 0
M  V30 2102 H 202.647 6.30987 1.77582 0
M  V30 2103 H 202.167 5.16497 3.04945 0
M  V30 2104 H 203.846 5.75272 2.96093 0
M  V30 2105 N 203.978 -0.674533 1.42435 0
M  V30 2106 C 205.227 -1.43034 1.42212 0
M  V30 2107 C 205.54 -1.95555 0.0420788 0
M  V30 2108 O 206.746 -2.71374 -0.0827558 0
M  V30 2109 C 205.202 -2.58748 2.50155 0
M  V30 2110 C 204.81 -2.12925 3.94166 0
M  V30 2111 C 206.554 -3.36257 2.59098 0
M  V30 2112 C 204.461 -3.25723 4.93618 0
M  V30 2113 H 203.391 -0.537345 0.528939 0
M  V30 2114 H 206.042 -0.73024 1.68344 0
M  V30 2115 H 204.424 -3.31128 2.17188 0
M  V30 2116 H 205.598 -1.47697 4.36488 0
M  V30 2117 H 203.913 -1.48354 3.89076 0
M  V30 2118 H 206.51 -4.20264 3.30578 0
M  V30 2119 H 206.853 -3.82866 1.63461 0
M  V30 2120 H 207.386 -2.70947 2.9126 0
M  V30 2121 H 204.125 -2.84105 5.90732 0
M  V30 2122 H 203.645 -3.89732 4.55926 0
M  V30 2123 H 205.324 -3.91186 5.15347 0
M  V30 2124 N 205.456 -1.28612 -0.910864 0
M  V30 2125 C 206.389 -1.07109 -2.01502 0
M  V30 2126 C 207.367 0.013706 -1.62594 0
M  V30 2127 O 208.551 -0.134796 -1.88017 0
M  V30 2128 C 205.678 -0.628255 -3.32822 0
M  V30 2129 C 204.724 -1.71012 -3.90714 0
M  V30 2130 S 205.557 -3.30676 -4.21205 0
M  V30 2131 C 206.713 -2.88234 -5.55583 0
M  V30 2132 H 206.946 -2.00591 -2.19432 0
M  V30 2133 H 204.479 -1.12633 -1.05609 0
M  V30 2134 H 206.437 -0.37946 -4.08742 0
M  V30 2135 H 205.098 0.28678 -3.12788 0
M  V30 2136 H 204.291 -1.35195 -4.85529 0
M  V30 2137 H 203.893 -1.91186 -3.21441 0
M  V30 2138 H 206.185 -2.34584 -6.35591 0
M  V30 2139 H 207.128 -3.81857 -5.96314 0
M  V30 2140 H 207.536 -2.26862 -5.16908 0
M  V30 2141 N 206.934 1.1197 -1.10907 0
M  V30 2142 C 208.159 1.87942 -0.877064 0
M  V30 2143 C 208.584 1.79341 0.567314 0
M  V30 2144 O 207.942 1.15184 1.40009 0
M  V30 2145 C 207.99 3.34926 -1.33629 0
M  V30 2146 O 207.094 4.09303 -0.504447 0
M  V30 2147 H 206.435 0.583785 -0.316371 0
M  V30 2148 H 208.965 1.4157 -1.47712 0
M  V30 2149 H 208.975 3.8577 -1.32837 0
M  V30 2150 H 207.65 3.40504 -2.3881 0
M  V30 2151 H 206.227 3.68393 -0.577993 0
M  V30 2152 N 208.412 0.89855 1.29475 0
M  V30 2153 C 209.345 0.319981 2.25945 0
M  V30 2154 C 210.323 -0.567189 1.52387 0
M  V30 2155 O 211.507 -0.514254 1.8135 0
M  V30 2156 C 208.634 -0.544013 3.34303 0
M  V30 2157 C 207.68 0.275682 4.25608 0
M  V30 2158 S 208.513 1.67272 5.08704 0
M  V30 2159 C 209.669 0.815621 6.20563 0
M  V30 2160 H 209.902 1.13767 2.74671 0
M  V30 2161 H 207.435 0.69882 1.3768 0
M  V30 2162 H 209.393 -1.03673 3.97193 0
M  V30 2163 H 208.054 -1.33593 2.84274 0
M  V30 2164 H 207.247 -0.384263 5.02533 0
M  V30 2165 H 206.849 0.701496 3.67362 0
M  V30 2166 H 209.141 0.0385042 6.77489 0
M  V30 2167 H 210.084 1.55691 6.90772 0
M  V30 2168 H 210.492 0.370516 5.63283 0
M  V30 2169 N 209.89 -1.43072 0.660911 0
M  V30 2170 C 210.853 -2.29194 -0.0166406 0
M  V30 2171 C 211.853 -1.42609 -0.742912 0
M  V30 2172 O 213.043 -1.64155 -0.583004 0
M  V30 2173 C 210.175 -3.24831 -1.0343 0
M  V30 2174 H 211.368 -2.90596 0.741208 0
M  V30 2175 H 208.921 -1.5048 0.422532 0
M  V30 2176 H 209.656 -2.68339 -1.82111 0
M  V30 2177 H 209.441 -3.88676 -0.517082 0
M  V30 2178 H 210.931 -3.89451 -1.50723 0
M  V30 2179 N 211.368 -0.403325 -1.52352 0
M  V30 2180 C 212.616 0.174003 -2.0135 0
M  V30 2181 C 212.937 1.46139 -1.29106 0
M  V30 2182 O 212.207 1.91448 -0.415253 0
M  V30 2183 H 210.787 0.0672911 -0.743963 0
M  V30 2184 H 213.449 -0.538235 -1.87321 0
M  V30 2185 H 212.545 0.374254 -3.09848 0
M  V30 2186 N 212.846 1.57033 -0.133567 0
M  V30 2187 C 214.094 1.953 0.519848 0
M  V30 2188 C 214.415 1.01866 1.66278 0
M  V30 2189 O 213.685 0.0776513 1.95746 0
M  V30 2190 H 212.265 0.721091 0.195032 0
M  V30 2191 H 214.927 1.93809 -0.205921 0
M  V30 2192 H 214.023 2.98695 0.904854 0
M  V30 2193 N 214.325 -0.140222 1.56975 0
M  V30 2194 C 215.553 -0.866437 1.87884 0
M  V30 2195 C 215.968 -1.74428 0.722517 0
M  V30 2196 O 215.325 -1.79891 -0.30749 0
M  V30 2197 C 215.376 -1.71753 3.18093 0
M  V30 2198 O 215.097 -0.875056 4.29272 0
M  V30 2199 C 216.598 -2.55074 3.62563 0
M  V30 2200 H 213.818 -0.25019 0.622612 0
M  V30 2201 H 216.362 -0.130977 2.0408 0
M  V30 2202 H 214.517 -2.40598 3.03631 0
M  V30 2203 H 214.931 -1.46002 5.03769 0
M  V30 2204 H 216.405 -3.10356 4.5649 0
M  V30 2205 H 216.882 -3.31434 2.88181 0
M  V30 2206 H 217.488 -1.91509 3.79743 0
M  V30 2207 N 215.803 -1.52179 -0.40978 0
M  V30 2208 C 217.051 -1.65878 -1.15451 0
M  V30 2209 C 217.372 -0.390771 -1.91044 0
M  V30 2210 O 216.642 0.594323 -1.86667 0
M  V30 2211 H 215.222 -0.611405 -0.429177 0
M  V30 2212 H 217.884 -1.89219 -0.467134 0
M  V30 2213 H 216.98 -2.49954 -1.86894 0
M  V30 2214 N 217.281 0.66697 -1.42791 0
M  V30 2215 C 218.506 1.46004 -1.47301 0
M  V30 2216 C 218.931 1.87894 -0.0880317 0
M  V30 2217 O 218.289 1.56502 0.915253 0
M  V30 2218 C 218.337 2.68031 -2.41229 0
M  V30 2219 O 217.441 3.6659 -1.88906 0
M  V30 2220 H 216.782 0.43832 -0.49877 0
M  V30 2221 H 219.312 0.817391 -1.87563 0
M  V30 2222 H 219.322 3.1601 -2.58073 0
M  V30 2223 H 217.997 2.36883 -3.41847 0
M  V30 2224 H 216.574 3.25661 -1.81656 0
M  V30 2225 N 218.759 1.29093 0.90403 0
M  V30 2226 C 220.007 1.16583 1.65085 0
M  V30 2227 C 220.328 -0.283933 1.92922 0
M  V30 2228 O 219.598 -1.19509 1.55224 0
M  V30 2229 H 218.178 0.428467 0.611903 0
M  V30 2230 H 220.84 1.61959 1.08422 0
M  V30 2231 H 219.936 1.71266 2.6091 0
M  V30 2232 N 220.237 -1.11381 1.11499 0
M  V30 2233 C 221.167 -2.19509 0.796125 0
M  V30 2234 C 222.148 -1.68458 -0.235796 0
M  V30 2235 O 223.333 -1.93947 -0.0991344 0
M  V30 2236 C 220.463 -3.46475 0.239205 0
M  V30 2237 C 219.417 -4.10744 1.20307 0
M  V30 2238 C 218.743 -5.32293 0.50683 0
M  V30 2239 C 220.043 -4.55597 2.55399 0
M  V30 2240 H 221.737 -2.46439 1.70024 0
M  V30 2241 H 219.283 -1.18446 0.818935 0
M  V30 2242 H 221.236 -4.214 0.00392006 0
M  V30 2243 H 219.96 -3.19006 -0.700206 0
M  V30 2244 H 218.619 -3.37813 1.42399 0
M  V30 2245 H 218.267 -5.01095 -0.437408 0
M  V30 2246 H 217.967 -5.76243 1.1497 0
M  V30 2247 H 219.491 -6.09956 0.280351 0
M  V30 2248 H 220.905 -5.21841 2.37391 0
M  V30 2249 H 219.302 -5.10363 3.15673 0
M  V30 2250 H 220.372 -3.69013 3.14575 0
M  V30 2251 N 221.715 -0.905404 -1.28997 0
M  V30 2252 C 222.963 -0.533192 -1.9494 0
M  V30 2253 C 223.284 0.924618 -1.71685 0
M  V30 2254 O 222.554 1.65268 -1.05183 0
M  V30 2255 H 221.134 -0.194194 -0.721317 0
M  V30 2256 H 223.796 -1.15294 -1.57141 0
M  V30 2257 H 222.892 -0.72059 -3.03667 0
M  V30 2258 N 223.193 1.4272 -0.668489 0
M  V30 2259 C 224.156 2.292 0.00448567 0
M  V30 2260 C 225.156 1.43001 0.735339 0
M  V30 2261 O 226.346 1.64461 0.57429 0
M  V30 2262 C 223.478 3.25375 1.01705 0
M  V30 2263 H 224.671 2.90199 -0.756608 0
M  V30 2264 H 222.224 1.50254 -0.430506 0
M  V30 2265 H 222.959 2.69301 1.80686 0
M  V30 2266 H 222.744 3.88944 0.496463 0
M  V30 2267 H 224.234 3.90245 1.48655 0
M  V30 2268 N 224.671 0.411399 1.52136 0
M  V30 2269 C 225.918 -0.163645 2.01838 0
M  V30 2270 C 226.246 -1.4495 1.29691 0
M  V30 2271 O 225.501 -1.91725 0.392431 0
M  V30 2272 C 225.8 -0.455872 3.54481 0
M  V30 2273 C 225.466 0.741055 4.44769 0
M  V30 2274 C 224.128 1.06936 4.69167 0
M  V30 2275 C 226.48 1.54075 4.97906 0
M  V30 2276 C 223.808 2.19851 5.43951 0
M  V30 2277 C 226.16 2.66067 5.73926 0
M  V30 2278 C 224.824 2.99381 5.96596 0
M  V30 2279 H 224.094 -0.0598821 0.738576 0
M  V30 2280 H 226.741 0.553283 1.83333 0
M  V30 2281 H 225.046 -1.2544 3.71177 0
M  V30 2282 H 226.743 -0.913802 3.90449 0
M  V30 2283 H 223.333 0.475192 4.25958 0
M  V30 2284 H 227.517 1.30033 4.78963 0
M  V30 2285 H 222.773 2.46006 5.59724 0
M  V30 2286 H 226.947 3.28419 6.14096 0
M  V30 2287 H 224.574 3.86992 6.54325 0
M  V30 2288 N 226.149 -1.5696 0.141893 0
M  V30 2289 C 227.395 -1.9625 -0.511248 0
M  V30 2290 C 227.728 -1.02654 -1.64851 0
M  V30 2291 O 227.003 -0.0679676 -1.94381 0
M  V30 2292 C 227.286 -3.45285 -1.02227 0
M  V30 2293 C 227.139 -4.49658 0.113138 0
M  V30 2294 C 228.458 -3.96698 -1.90574 0
M  V30 2295 H 225.577 -0.713567 -0.184367 0
M  V30 2296 H 228.219 -1.88698 0.222087 0
M  V30 2297 H 226.369 -3.51852 -1.64719 0
M  V30 2298 H 228.041 -4.55174 0.749302 0
M  V30 2299 H 226.284 -4.26857 0.773026 0
M  V30 2300 H 226.955 -5.51258 -0.286053 0
M  V30 2301 H 229.431 -3.92578 -1.37918 0
M  V30 2302 H 228.307 -5.01453 -2.2324 0
M  V30 2303 H 228.568 -3.3875 -2.84079 0
M  V30 2304 N 227.627 0.131896 -1.57047 0
M  V30 2305 C 228.855 0.856461 -1.88341 0
M  V30 2306 C 229.27 1.74042 -0.731757 0
M  V30 2307 O 228.627 1.80051 0.297945 0
M  V30 2308 C 228.678 1.70064 -3.18999 0
M  V30 2309 O 228.399 0.852278 -4.2973 0
M  V30 2310 C 229.9 2.53148 -3.63911 0
M  V30 2311 H 227.12 0.246885 -0.62393 0
M  V30 2312 H 229.664 0.120152 -2.04147 0
M  V30 2313 H 227.819 2.38984 -3.04902 0
M  V30 2314 H 228.233 1.43329 -5.04537 0
M  V30 2315 H 229.707 3.07931 -4.58129 0
M  V30 2316 H 230.184 3.29901 -2.89935 0
M  V30 2317 H 230.79 1.89492 -3.80753 0
M  V30 2318 N 229.106 1.52395 0.401703 0
M  V30 2319 C 230.038 1.72505 1.50912 0
M  V30 2320 C 231.051 0.605468 1.51122 0
M  V30 2321 O 232.24 0.880828 1.55254 0
M  V30 2322 C 229.34 1.75711 2.89791 0
M  V30 2323 C 228.513 3.04824 3.1369 0
M  V30 2324 C 227.572 2.99743 4.32482 0
M  V30 2325 O 226.598 3.73635 4.29402 0
M  V30 2326 N 227.8 2.18047 5.37992 0
M  V30 2327 H 230.565 2.68049 1.34052 0
M  V30 2328 H 228.126 1.50724 0.591084 0
M  V30 2329 H 230.118 1.69834 3.6734 0
M  V30 2330 H 228.688 0.876092 3.00072 0
M  V30 2331 H 227.908 3.2429 2.24119 0
M  V30 2332 H 229.196 3.90221 3.26504 0
M  V30 2333 H 228.594 1.57456 5.43345 0
M  V30 2334 H 227.151 2.18021 6.14256 0
M  V30 2335 N 230.584 -0.659388 1.43143 0
M  V30 2336 C 231.532 -1.79374 1.4808 0
M  V30 2337 C 232.526 -1.65639 0.354988 0
M  V30 2338 O 233.732 -1.7206 0.528704 0
M  V30 2339 H 230.107 -0.591705 0.4641 0
M  V30 2340 H 232.078 -1.72329 2.43609 0
M  V30 2341 C 230.827 -3.17606 1.41499 0
M  V30 2342 H 230.15 -3.28809 2.27431 0
M  V30 2343 H 231.59 -3.96951 1.49015 0
M  V30 2344 C 230.049 -3.36642 0.131765 0
M  V30 2345 O 230.579 -3.93461 -0.809386 0
M  V30 2346 N 228.785 -2.90567 0.0439396 0
M  V30 2347 H 228.332 -2.44513 0.810619 0
M  V30 2348 H 228.29 -3.03681 -0.813969 0
M  V30 2349 N 232.062 -1.29571 -0.897171 0
M  V30 2350 C 232.992 -1.17473 -2.01798 0
M  V30 2351 C 233.973 -0.068323 -1.69963 0
M  V30 2352 O 235.158 -0.248239 -1.92607 0
M  V30 2353 C 232.288 -0.853099 -3.36659 0
M  V30 2354 C 231.242 -1.9161 -3.82713 0
M  V30 2355 C 230.568 -1.44773 -5.14728 0
M  V30 2356 C 231.868 -3.32535 -4.02763 0
M  V30 2357 H 233.562 -2.11237 -2.12177 0
M  V30 2358 H 231.108 -1.01699 -1.01948 0
M  V30 2359 H 233.061 -0.755165 -4.14578 0
M  V30 2360 H 231.785 0.120236 -3.26379 0
M  V30 2361 H 230.444 -2.00346 -3.07013 0
M  V30 2362 H 230.092 -0.462995 -5.00865 0
M  V30 2363 H 229.792 -2.15865 -5.46513 0
M  V30 2364 H 231.316 -1.36334 -5.95185 0
M  V30 2365 H 232.73 -3.26626 -4.71156 0
M  V30 2366 H 231.127 -4.01607 -4.45905 0
M  V30 2367 H 232.197 -3.75326 -3.07016 0
M  V30 2368 N 233.54 1.10788 -1.12088 0
M  V30 2369 C 234.45 2.20599 -0.798338 0
M  V30 2370 C 235.466 1.72712 0.21135 0
M  V30 2371 O 236.642 2.01348 0.0458477 0
M  V30 2372 C 233.707 3.45771 -0.253674 0
M  V30 2373 C 232.768 4.08411 -1.32283 0
M  V30 2374 C 232.001 5.27608 -0.80406 0
M  V30 2375 O 232.224 5.69241 0.363478 0
M  V30 2376 O 231.158 5.8101 -1.57198 0
M  V30 2377 H 234.984 2.50614 -1.7154 0
M  V30 2378 H 232.569 1.19454 -0.897275 0
M  V30 2379 H 234.451 4.21376 0.0453691 0
M  V30 2380 H 233.126 3.1739 0.636005 0
M  V30 2381 H 232.033 3.34507 -1.67499 0
M  V30 2382 H 233.366 4.40986 -2.18614 0
M  V30 2383 N 235.018 0.912232 1.28515 0
M  V30 2384 C 236.295 0.463597 1.90027 0
M  V30 2385 C 236.675 -1.05753 1.82701 0
M  V30 2386 O 236.023 -1.90492 1.26194 0
M  V30 2387 C 236.233 0.992253 3.34597 0
M  V30 2388 C 237.581 1.04344 4.11579 0
M  V30 2389 O 238.605 0.94079 3.43551 0
M  V30 2390 O 237.464 1.1995 5.33174 0
M  V30 2391 H 234.558 0.146666 0.813891 0
M  V30 2392 H 237.104 1.00292 1.36893 0
M  V30 2393 H 235.876 2.03623 3.34146 0
M  V30 2394 H 235.499 0.433672 3.95228 0
M  V30 2395 N 236.496 -1.42363 0.676048 0
M  V30 2396 C 237.428 -2.29164 -0.0404605 0
M  V30 2397 C 238.441 -1.43747 -0.764245 0
M  V30 2398 O 239.63 -1.67453 -0.618195 0
M  V30 2399 C 236.73 -3.21196 -1.08103 0
M  V30 2400 C 235.903 -4.35273 -0.430812 0
M  V30 2401 C 234.962 -5.08017 -1.37133 0
M  V30 2402 O 233.988 -5.62494 -0.87116 0
M  V30 2403 N 235.19 -5.13647 -2.70456 0
M  V30 2404 H 237.955 -2.91298 0.704667 0
M  V30 2405 H 235.516 -1.53303 0.520559 0
M  V30 2406 H 237.508 -3.66728 -1.71152 0
M  V30 2407 H 236.078 -2.60505 -1.72788 0
M  V30 2408 H 235.298 -3.92372 0.379209 0
M  V30 2409 H 236.586 -5.08795 0.0221132 0
M  V30 2410 H 235.984 -4.708 -3.1363 0
M  V30 2411 H 234.541 -5.62821 -3.28749 0
M  V30 2412 N 237.974 -0.419461 -1.51915 0
M  V30 2413 C 239.204 0.151915 -2.06041 0
M  V30 2414 C 239.612 1.38539 -1.28855 0
M  V30 2415 O 238.955 1.80592 -0.336463 0
M  V30 2416 C 239.017 0.557119 -3.55157 0
M  V30 2417 C 238.681 -0.567054 -4.53468 0
M  V30 2418 C 239.678 -1.43379 -4.99738 0
M  V30 2419 C 237.363 -0.742693 -4.96779 0
M  V30 2420 C 239.357 -2.46102 -5.87973 0
M  V30 2421 C 237.044 -1.77322 -5.84808 0
M  V30 2422 C 238.042 -2.63078 -6.30301 0
M  V30 2423 O 237.73 -3.64364 -7.16585 0
M  V30 2424 H 237.462 0.0193293 -0.675724 0
M  V30 2425 H 240.016 -0.592073 -1.96682 0
M  V30 2426 H 238.246 1.35355 -3.62238 0
M  V30 2427 H 239.935 1.05759 -3.9188 0
M  V30 2428 H 240.701 -1.30954 -4.66986 0
M  V30 2429 H 236.58 -0.0848307 -4.60922 0
M  V30 2430 H 240.124 -3.13071 -6.23404 0
M  V30 2431 H 236.021 -1.89773 -6.16974 0
M  V30 2432 H 236.789 -3.60731 -7.34721 0
M  V30 2433 N 239.452 1.56882 -0.150215 0
M  V30 2434 C 240.677 2.01027 0.510184 0
M  V30 2435 C 241.102 1.02966 1.57415 0
M  V30 2436 O 240.46 0.00590158 1.81299 0
M  V30 2437 C 240.508 3.43899 1.08472 0
M  V30 2438 O 239.612 3.4885 2.19948 0
M  V30 2439 H 238.953 0.652233 0.124451 0
M  V30 2440 H 241.483 2.03093 -0.247894 0
M  V30 2441 H 241.493 3.82766 1.41259 0
M  V30 2442 H 240.168 4.14776 0.305582 0
M  V30 2443 H 238.745 3.21827 1.88366 0
M  V30 2444 N 240.93 -0.123565 1.57115 0
M  V30 2445 C 241.878 -1.17082 2.00984 0
M  V30 2446 C 242.872 -1.43136 0.906009 0
M  V30 2447 O 244.078 -1.43152 1.09121 0
M  V30 2448 H 240.453 -0.394653 0.64012 0
M  V30 2449 H 242.424 -0.774292 2.88179 0
M  V30 2450 C 241.173 -2.49057 2.42623 0
M  V30 2451 H 240.496 -2.29846 3.27125 0
M  V30 2452 H 241.936 -3.20906 2.7712 0
M  V30 2453 C 240.395 -3.11305 1.28805 0
M  V30 2454 O 240.925 -3.97171 0.60153 0
M  V30 2455 N 239.131 -2.71111 1.04628 0
M  V30 2456 H 238.678 -2.01382 1.60634 0
M  V30 2457 H 238.636 -3.1309 0.286685 0
M  V30 2458 N 242.408 -1.52605 -0.393616 0
M  V30 2459 C 243.633 -1.71592 -1.16495 0
M  V30 2460 C 244.058 -0.43133 -1.83088 0
M  V30 2461 O 243.416 0.612523 -1.7064 0
M  V30 2462 C 243.464 -2.86318 -2.19213 0
M  V30 2463 O 242.568 -2.52969 -3.257 0
M  V30 2464 H 241.909 -0.570734 -0.33935 0
M  V30 2465 H 244.439 -1.99377 -0.459324 0
M  V30 2466 H 244.449 -3.1168 -2.63286 0
M  V30 2467 H 243.124 -3.79511 -1.7013 0
M  V30 2468 H 241.701 -2.38332 -2.86797 0
M  V30 2469 N 243.887 0.651787 -1.4349 0
M  V30 2470 C 244.817 1.77621 -1.51569 0
M  V30 2471 C 245.798 1.66022 -0.370253 0
M  V30 2472 O 246.983 1.85095 -0.587658 0
M  V30 2473 C 244.113 3.16056 -1.43966 0
M  V30 2474 C 243.067 3.4242 -2.56774 0
M  V30 2475 C 242.393 4.8067 -2.34223 0
M  V30 2476 C 243.693 3.37023 -3.99015 0
M  V30 2477 H 245.387 1.71117 -2.45681 0
M  V30 2478 H 242.933 0.821825 -1.18246 0
M  V30 2479 H 244.886 3.94472 -1.48221 0
M  V30 2480 H 243.61 3.23293 -0.463586 0
M  V30 2481 H 242.269 2.66375 -2.51873 0
M  V30 2482 H 241.917 4.84585 -1.34856 0
M  V30 2483 H 241.617 4.9927 -3.09844 0
M  V30 2484 H 243.141 5.61342 -2.40265 0
M  V30 2485 H 244.555 4.05374 -4.05395 0
M  V30 2486 H 242.952 3.67159 -4.74673 0
M  V30 2487 H 244.022 2.3518 -4.2405 0
M  V30 2488 N 245.365 1.30045 0.890287 0
M  V30 2489 C 246.312 1.15976 1.99545 0
M  V30 2490 C 247.282 0.0506202 1.66023 0
M  V30 2491 O 248.467 0.219847 1.89529 0
M  V30 2492 C 245.607 0.852054 3.34416 0
M  V30 2493 C 244.72 2.04255 3.80662 0
M  V30 2494 C 243.855 1.6734 5.04154 0
M  V30 2495 C 242.894 2.82916 5.42794 0
M  V30 2496 N 242.031 2.46333 6.57468 0
M  V30 2497 H 246.871 2.10524 2.10911 0
M  V30 2498 H 244.408 1.04749 1.03276 0
M  V30 2499 H 246.366 0.654296 4.12037 0
M  V30 2500 H 244.996 -0.0565502 3.2275 0
M  V30 2501 H 244.048 2.35172 2.98995 0
M  V30 2502 H 245.36 2.90826 4.05242 0
M  V30 2503 H 244.514 1.43908 5.89386 0
M  V30 2504 H 243.253 0.779308 4.81433 0
M  V30 2505 H 242.258 3.0702 4.56091 0
M  V30 2506 H 243.483 3.73004 5.6749 0
M  V30 2507 H 241.429 1.59423 6.36334 0
M  V30 2508 H 241.346 3.26436 6.81891 0
M  V30 2509 H 242.614 2.26244 7.45945 0
M  V30 2510 N 246.843 -1.10192 1.12674 0
M  V30 2511 C 247.776 -2.15847 0.740625 0
M  V30 2512 C 248.754 -1.60352 -0.269421 0
M  V30 2513 O 249.938 -1.87796 -0.16278 0
M  V30 2514 C 247.065 -3.38562 0.096641 0
M  V30 2515 C 246.111 -4.12758 1.07391 0
M  V30 2516 S 246.944 -4.67997 2.60267 0
M  V30 2517 C 248.1 -5.94021 1.97206 0
M  V30 2518 H 248.333 -2.48266 1.63558 0
M  V30 2519 H 245.866 -1.22019 0.946087 0
M  V30 2520 H 247.824 -4.09621 -0.268535 0
M  V30 2521 H 246.485 -3.04377 -0.775462 0
M  V30 2522 H 245.678 -5.00755 0.570997 0
M  V30 2523 H 245.28 -3.47523 1.38216 0
M  V30 2524 H 247.572 -6.64589 1.31634 0
M  V30 2525 H 248.515 -6.48979 2.83253 0
M  V30 2526 H 248.923 -5.46169 1.42686 0
M  V30 2527 N 248.321 -0.919034 -1.28029 0
M  V30 2528 C 249.269 -0.401753 -2.29104 0
M  V30 2529 C 250.263 0.509354 -1.61561 0
M  V30 2530 O 251.469 0.390014 -1.75724 0
M  V30 2531 H 247.844 -0.111331 -0.743713 0
M  V30 2532 H 249.815 -1.2672 -2.70156 0
M  V30 2533 C 248.564 0.338148 -3.46052 0
M  V30 2534 H 247.887 -0.353732 -3.98232 0
M  V30 2535 H 249.327 0.664653 -4.18758 0
M  V30 2536 C 247.786 1.54798 -2.99231 0
M  V30 2537 O 248.316 2.64696 -3.02157 0
M  V30 2538 N 246.522 1.3968 -2.54829 0
M  V30 2539 H 246.069 0.502698 -2.52647 0
M  V30 2540 H 246.027 2.20755 -2.23863 0
M  V30 2541 N 249.799 1.42003 -0.683588 0
M  V30 2542 C 250.731 2.29183 0.0283068 0
M  V30 2543 C 251.744 1.4415 0.756611 0
M  V30 2544 O 252.933 1.67779 0.609306 0
M  V30 2545 C 250.033 3.21765 1.06398 0
M  V30 2546 C 249.206 4.35496 0.407723 0
M  V30 2547 C 248.265 5.08737 1.34437 0
M  V30 2548 O 247.291 5.62948 0.841318 0
M  V30 2549 N 248.493 5.15075 2.67728 0
M  V30 2550 H 251.258 2.9092 -0.720105 0
M  V30 2551 H 248.819 1.53025 -0.528682 0
M  V30 2552 H 250.811 3.6763 1.69204 0
M  V30 2553 H 249.381 2.61418 1.71404 0
M  V30 2554 H 248.601 3.92165 -0.400012 0
M  V30 2555 H 249.889 5.08776 -0.0490956 0
M  V30 2556 H 249.287 4.72457 3.11129 0
M  V30 2557 H 247.844 5.64556 3.2576 0
M  V30 2558 N 251.277 0.427512 1.51691 0
M  V30 2559 C 252.526 -0.143679 2.01188 0
M  V30 2560 C 252.839 -1.44642 1.31674 0
M  V30 2561 O 254.045 -2.09997 1.72086 0
M  V30 2562 C 252.501 -0.306602 3.58592 0
M  V30 2563 C 252.109 0.985125 4.37035 0
M  V30 2564 C 253.853 -0.832091 4.16265 0
M  V30 2565 C 251.76 0.788382 5.86122 0
M  V30 2566 H 250.69 -0.0574701 0.751807 0
M  V30 2567 H 253.341 0.555772 1.74881 0
M  V30 2568 H 251.723 -1.06882 3.81303 0
M  V30 2569 H 252.897 1.75492 4.26074 0
M  V30 2570 H 251.212 1.4384 3.90767 0
M  V30 2571 H 253.809 -0.995617 5.25349 0
M  V30 2572 H 254.152 -1.81186 3.74803 0
M  V30 2573 H 254.685 -0.128444 3.97593 0
M  V30 2574 H 251.424 1.74025 6.31978 0
M  V30 2575 H 250.944 0.0582143 5.99772 0
M  V30 2576 H 252.623 0.437722 6.45518 0
M  V30 2577 N 252.755 -1.56801 0.158532 0
M  V30 2578 C 254.004 -1.95665 -0.489702 0
M  V30 2579 C 254.317 -1.04654 -1.65248 0
M  V30 2580 O 255.523 -1.33146 -2.3661 0
M  V30 2581 C 253.979 -3.47874 -0.922582 0
M  V30 2582 C 253.587 -4.47489 0.213893 0
M  V30 2583 C 255.331 -3.95583 -1.53996 0
M  V30 2584 C 253.238 -5.90921 -0.237903 0
M  V30 2585 H 252.168 -0.730516 -0.186716 0
M  V30 2586 H 254.819 -1.81861 0.244722 0
M  V30 2587 H 253.201 -3.57051 -1.71261 0
M  V30 2588 H 254.375 -4.50017 0.991036 0
M  V30 2589 H 252.69 -4.09764 0.740407 0
M  V30 2590 H 255.287 -5.0019 -1.8898 0
M  V30 2591 H 255.63 -3.37789 -2.43319 0
M  V30 2592 H 256.163 -3.8937 -0.814611 0
M  V30 2593 H 252.902 -6.52559 0.620236 0
M  V30 2594 H 252.422 -5.91729 -0.980676 0
M  V30 2595 H 254.101 -6.43352 -0.686067 0
M  V30 2596 N 254.233 0.115231 -1.57178 0
M  V30 2597 C 255.479 0.818565 -1.86202 0
M  V30 2598 C 255.834 1.77316 -0.746785 0
M  V30 2599 O 255.127 1.89923 0.25291 0
M  V30 2600 C 255.321 1.60324 -3.19423 0
M  V30 2601 C 255.15 0.726138 -4.43799 0
M  V30 2602 C 253.92 0.379535 -5.03873 0
M  V30 2603 C 256.118 0.0420774 -5.14283 0
M  V30 2604 N 254.1 -0.507841 -6.11796 0
M  V30 2605 C 255.471 -0.704152 -6.15988 0
M  V30 2606 C 257.526 -0.0339486 -4.97888 0
M  V30 2607 C 256.229 -1.51927 -7.03072 0
M  V30 2608 C 258.255 -0.835906 -5.85463 0
M  V30 2609 C 257.617 -1.57031 -6.86673 0
M  V30 2610 H 253.716 0.276343 -0.731545 0
M  V30 2611 H 256.3 0.0821032 -1.94527 0
M  V30 2612 H 254.471 2.31072 -3.12186 0
M  V30 2613 H 256.203 2.2522 -3.36241 0
M  V30 2614 H 252.958 0.722634 -4.68054 0
M  V30 2615 H 253.382 -0.94349 -6.70393 0
M  V30 2616 H 258.024 0.519496 -4.19596 0
M  V30 2617 H 255.742 -2.08386 -7.80769 0
M  V30 2618 H 259.328 -0.89714 -5.74841 0
M  V30 2619 H 258.208 -2.18088 -7.53264 0
M  V30 2620 N 255.711 1.52812 0.385517 0
M  V30 2621 C 257.122 1.5993 0.963293 0
M  V30 2622 C 257.473 0.454302 1.90868 0
M  V30 2623 O 256.598 -0.422132 2.12243 0
M  V30 2624 C 257.193 2.89871 1.75387 0
M  V30 2625 C 255.752 2.99389 2.28129 0
M  V30 2626 C 254.899 2.55071 1.08783 0
M  V30 2627 H 257.85 1.5784 0.164948 0
M  V30 2628 H 257.871 2.76553 2.61341 0
M  V30 2629 H 257.383 3.73186 1.06554 0
M  V30 2630 H 255.484 2.20619 3.00263 0
M  V30 2631 H 255.597 4.04096 2.57377 0
M  V30 2632 H 253.961 2.09473 1.4489 0
M  V30 2633 H 254.744 3.40785 0.414807 0
M  V30 2634 N 257.189 -0.644168 1.43834 0
M  V30 2635 C 258.419 -1.42939 1.49171 0
M  V30 2636 C 258.827 -1.88874 0.111048 0
M  V30 2637 O 258.17 -1.60656 -0.8908 0
M  V30 2638 C 258.232 -2.69151 2.38324 0
M  V30 2639 C 257.896 -2.45097 3.85715 0
M  V30 2640 C 258.893 -2.07747 4.76589 0
M  V30 2641 C 256.578 -2.59141 4.30292 0
M  V30 2642 C 258.572 -1.8475 6.10038 0
M  V30 2643 C 256.259 -2.35759 5.63792 0
M  V30 2644 C 257.257 -1.9862 6.53482 0
M  V30 2645 O 256.945 -1.75489 7.84512 0
M  V30 2646 H 256.677 -0.445271 0.508635 0
M  V30 2647 H 259.231 -0.79621 1.8934 0
M  V30 2648 H 257.461 -3.3506 1.93058 0
M  V30 2649 H 259.15 -3.31123 2.3476 0
M  V30 2650 H 259.916 -1.96465 4.43426 0
M  V30 2651 H 255.795 -2.87022 3.60749 0
M  V30 2652 H 259.339 -1.55686 6.80006 0
M  V30 2653 H 255.236 -2.46646 5.9652 0
M  V30 2654 H 256.004 -1.89841 7.9618 0
M  V30 2655 N 258.668 -1.30515 -0.883378 0
M  V30 2656 C 259.916 -1.19194 -1.63209 0
M  V30 2657 C 260.237 0.253205 -1.93349 0
M  V30 2658 O 259.507 1.17025 -1.57105 0
M  V30 2659 H 258.087 -0.438148 -0.605009 0
M  V30 2660 H 260.749 -1.63663 -1.05832 0
M  V30 2661 H 259.845 -1.75396 -2.58153 0
M  V30 2662 N 260.146 1.09593 -1.13257 0
M  V30 2663 C 261.374 1.855 -0.916378 0
M  V30 2664 C 261.789 1.81069 0.534738 0
M  V30 2665 O 261.146 1.20562 1.37007 0
M  V30 2666 C 261.197 3.33546 -1.39388 0
M  V30 2667 O 260.918 3.37927 -2.78813 0
M  V30 2668 C 262.419 4.26299 -1.21588 0
M  V30 2669 H 259.639 0.585991 -0.326887 0
M  V30 2670 H 262.183 1.38488 -1.5047 0
M  V30 2671 H 260.338 3.77992 -0.848597 0
M  V30 2672 H 260.752 4.30254 -2.9997 0
M  V30 2673 H 262.226 5.28341 -1.59876 0
M  V30 2674 H 262.703 4.38918 -0.157376 0
M  V30 2675 H 263.309 3.87668 -1.7491 0
M  V30 2676 N 261.624 0.925811 1.2754 0
M  V30 2677 C 262.872 0.564138 1.94067 0
M  V30 2678 C 263.193 -0.897188 1.73134 0
M  V30 2679 O 262.463 -1.63573 1.07799 0
M  V30 2680 H 261.043 0.205645 0.718136 0
M  V30 2681 H 263.705 1.1778 1.55287 0
M  V30 2682 H 262.801 0.76881 3.02483 0
M  V30 2683 N 263.102 -1.41638 0.69111 0
M  V30 2684 C 264.012 -2.34588 0.0233487 0
M  V30 2685 C 265.028 -1.55987 -0.770984 0
M  V30 2686 O 266.204 -1.88486 -0.709569 0
M  V30 2687 C 263.269 -3.34684 -0.904851 0
M  V30 2688 C 262.33 -4.29176 -0.103225 0
M  V30 2689 C 261.563 -5.2449 -0.987216 0
M  V30 2690 O 261.786 -5.2514 -2.22674 0
M  V30 2691 O 260.72 -6.00295 -0.439281 0
M  V30 2692 H 264.546 -2.93261 0.789416 0
M  V30 2693 H 262.131 -1.42417 0.45142 0
M  V30 2694 H 264.013 -3.96133 -1.43724 0
M  V30 2695 H 262.688 -2.78461 -1.65049 0
M  V30 2696 H 261.595 -3.71089 0.473655 0
M  V30 2697 H 262.928 -4.88484 0.60365 0
M  V30 2698 N 264.58 -0.43555 -1.51462 0
M  V30 2699 C 265.826 0.131709 -2.02372 0
M  V30 2700 C 266.159 1.42516 -1.3192 0
M  V30 2701 O 265.434 1.89606 -0.433573 0
M  V30 2702 C 265.717 0.352301 -3.58373 0
M  V30 2703 C 265.57 -0.959676 -4.39443 0
M  V30 2704 C 266.889 1.12286 -4.25535 0
M  V30 2705 H 264.008 0.0463936 -0.735538 0
M  V30 2706 H 266.65 -0.574197 -1.81116 0
M  V30 2707 H 264.8 0.9536 -3.76615 0
M  V30 2708 H 266.472 -1.59482 -4.32855 0
M  V30 2709 H 264.715 -1.56468 -4.04599 0
M  V30 2710 H 265.386 -0.759394 -5.46752 0
M  V30 2711 H 267.862 0.613545 -4.11552 0
M  V30 2712 H 266.738 1.24598 -5.34571 0
M  V30 2713 H 266.999 2.15048 -3.86273 0
M  V30 2714 N 266.058 1.56714 -0.166846 0
M  V30 2715 C 267.307 1.95922 0.479318 0
M  V30 2716 C 267.62 1.05529 1.6469 0
M  V30 2717 O 268.826 1.34399 2.35901 0
M  V30 2718 C 267.282 3.48359 0.90412 0
M  V30 2719 C 266.89 4.47369 -0.237621 0
M  V30 2720 C 268.634 3.96394 1.51896 0
M  V30 2721 C 266.541 5.91039 0.206561 0
M  V30 2722 H 265.471 0.731495 0.18284 0
M  V30 2723 H 268.122 1.81728 -0.254363 0
M  V30 2724 H 266.504 3.57955 1.69365 0
M  V30 2725 H 267.678 4.49485 -1.01489 0
M  V30 2726 H 265.993 4.09366 -0.762128 0
M  V30 2727 H 268.59 5.01186 1.86325 0
M  V30 2728 H 268.933 3.39075 2.41524 0
M  V30 2729 H 269.466 3.89796 0.79395 0
M  V30 2730 H 266.205 6.52221 -0.654834 0
M  V30 2731 H 265.725 5.9224 0.949282 0
M  V30 2732 H 267.404 6.43707 0.651939 0
M  V30 2733 N 267.536 -0.106894 1.57237 0
M  V30 2734 C 268.782 -0.81373 1.85759 0
M  V30 2735 C 269.115 -1.78952 0.754315 0
M  V30 2736 O 268.39 -1.93029 -0.23879 0
M  V30 2737 C 268.673 -1.55293 3.24894 0
M  V30 2738 C 268.526 -0.595929 4.45835 0
M  V30 2739 C 269.845 -2.5063 3.61763 0
M  V30 2740 H 266.964 -0.294369 0.67566 0
M  V30 2741 H 269.606 -0.0776472 1.89841 0
M  V30 2742 H 267.756 -2.1804 3.21544 0
M  V30 2743 H 269.428 0.0236262 4.61294 0
M  V30 2744 H 267.671 0.0916191 4.33703 0
M  V30 2745 H 268.342 -1.15004 5.39887 0
M  V30 2746 H 270.818 -1.97982 3.65981 0
M  V30 2747 H 269.694 -2.99376 4.60071 0
M  V30 2748 H 269.955 -3.3385 2.89821 0
M  V30 2749 N 269.014 -1.53014 -0.377408 0
M  V30 2750 C 269.946 -1.74884 -1.48149 0
M  V30 2751 C 270.959 -0.629433 -1.5014 0
M  V30 2752 O 272.148 -0.905416 -1.53833 0
M  V30 2753 C 269.248 -1.80299 -2.86959 0
M  V30 2754 C 268.421 -3.09776 -3.08801 0
M  V30 2755 C 267.48 -3.06586 -4.27658 0
M  V30 2756 O 266.506 -3.80419 -4.23403 0
M  V30 2757 N 267.708 -2.26578 -5.34455 0
M  V30 2758 H 270.473 -2.70147 -1.29771 0
M  V30 2759 H 268.034 -1.51646 -0.56703 0
M  V30 2760 H 270.026 -1.75657 -3.64591 0
M  V30 2761 H 268.596 -0.92372 -2.98641 0
M  V30 2762 H 267.816 -3.27815 -2.18931 0
M  V30 2763 H 269.104 -3.95366 -3.20255 0
M  V30 2764 H 268.502 -1.66081 -5.40771 0
M  V30 2765 H 267.059 -2.27766 -6.10709 0
M  V30 2766 N 270.492 0.636531 -1.44174 0
M  V30 2767 C 271.44 1.76995 -1.50915 0
M  V30 2768 C 272.434 1.65053 -0.381295 0
M  V30 2769 O 273.64 1.71197 -0.55601 0
M  V30 2770 H 270.015 0.584247 -0.473455 0
M  V30 2771 H 271.986 1.68432 -2.4632 0
M  V30 2772 C 270.735 3.15314 -1.46534 0
M  V30 2773 H 270.058 3.25149 -2.32633 0
M  V30 2774 H 271.498 3.9453 -1.55312 0
M  V30 2775 C 269.957 3.3639 -0.185305 0
M  V30 2776 O 270.487 3.94699 0.746688 0
M  V30 2777 N 268.693 2.9046 -0.0901606 0
M  V30 2778 H 268.24 2.43193 -0.849416 0
M  V30 2779 H 268.198 3.04937 0.765553 0
M  V30 2780 N 271.97 1.30982 0.876444 0
M  V30 2781 C 273.2 1.23063 1.65949 0
M  V30 2782 C 273.608 -0.207537 1.88058 0
M  V30 2783 O 272.951 -1.14781 1.43426 0
M  V30 2784 C 273.013 1.89768 3.05333 0
M  V30 2785 C 272.677 3.39106 3.0636 0
M  V30 2786 C 273.674 4.3496 2.84791 0
M  V30 2787 C 271.359 3.80693 3.27686 0
M  V30 2788 C 273.353 5.70375 2.84519 0
M  V30 2789 C 271.04 5.16223 3.27043 0
M  V30 2790 C 272.038 6.10875 3.05485 0
M  V30 2791 O 271.726 7.43928 3.04674 0
M  V30 2792 H 271.458 0.426685 0.524324 0
M  V30 2793 H 274.012 1.7329 1.10271 0
M  V30 2794 H 272.242 1.34082 3.6271 0
M  V30 2795 H 273.931 1.75853 3.65829 0
M  V30 2796 H 274.697 4.0416 2.68103 0
M  V30 2797 H 270.576 3.07457 3.43499 0
M  V30 2798 H 274.12 6.44228 2.67611 0
M  V30 2799 H 270.017 5.4666 3.43269 0
M  V30 2800 H 270.785 7.53022 3.2078 0
M  V30 2801 N 273.449 -1.08991 1.13837 0
M  V30 2802 C 274.397 -2.17841 0.815347 0
M  V30 2803 C 275.391 -1.68164 -0.204233 0
M  V30 2804 O 276.597 -1.79897 -0.0609304 0
M  V30 2805 H 272.972 -0.710654 0.245915 0
M  V30 2806 H 274.943 -2.42315 1.74143 0
M  V30 2807 C 273.692 -3.46381 0.302614 0
M  V30 2808 H 273.015 -3.84979 1.0785 0
M  V30 2809 H 274.455 -4.23844 0.115074 0
M  V30 2810 C 272.914 -3.22556 -0.972591 0
M  V30 2811 O 273.444 -3.45599 -2.04754 0
M  V30 2812 N 271.65 -2.76134 -0.905455 0
M  V30 2813 H 271.197 -2.57582 -0.0305421 0
M  V30 2814 H 271.155 -2.60571 -1.75926 0
M  V30 2815 N 274.927 -0.932562 -1.27047 0
M  V30 2816 C 276.152 -0.591474 -1.98787 0
M  V30 2817 C 276.577 0.824601 -1.69062 0
M  V30 2818 O 275.935 1.5541 -0.933677 0
M  V30 2819 C 275.983 -0.829808 -3.50922 0
M  V30 2820 O 275.087 0.102266 -4.12273 0
M  V30 2821 H 274.428 -0.227185 -0.623926 0
M  V30 2822 H 276.958 -1.25314 -1.61733 0
M  V30 2823 H 276.968 -0.747292 -4.01098 0
M  V30 2824 H 275.643 -1.86201 -3.7189 0
M  V30 2825 H 274.22 -0.0305761 -3.72887 0
M  V30 2826 N 276.405 1.4127 -0.698611 0
M  V30 2827 C 277.654 2.00408 -0.227949 0
M  V30 2828 C 277.967 1.55981 1.18023 0
M  V30 2829 O 279.173 2.07699 1.74852 0
M  V30 2830 C 277.629 3.58129 -0.356636 0
M  V30 2831 C 277.237 4.11536 -1.77037 0
M  V30 2832 C 278.981 4.24466 0.0540969 0
M  V30 2833 C 276.888 5.61701 -1.85055 0
M  V30 2834 H 275.818 0.749586 -0.0814657 0
M  V30 2835 H 278.469 1.61713 -0.867249 0
M  V30 2836 H 276.851 3.94442 0.350965 0
M  V30 2837 H 278.025 3.86636 -2.50698 0
M  V30 2838 H 276.34 3.57736 -2.13105 0
M  V30 2839 H 278.937 5.34698 0.0146723 0
M  V30 2840 H 279.28 4.01687 1.09332 0
M  V30 2841 H 279.813 3.93198 -0.603337 0
M  V30 2842 H 276.552 5.89312 -2.8704 0
M  V30 2843 H 276.072 5.88519 -1.15783 0
M  V30 2844 H 277.751 6.26524 -1.61484 0
M  V30 2845 N 277.883 0.443576 1.51229 0
M  V30 2846 C 278.813 -0.355142 2.30783 0
M  V30 2847 C 279.794 -1.0154 1.36468 0
M  V30 2848 O 280.979 -1.01785 1.65389 0
M  V30 2849 C 278.109 -1.45312 3.15439 0
M  V30 2850 C 277.063 -0.916002 4.18083 0
M  V30 2851 C 276.389 -2.1102 4.91299 0
M  V30 2852 C 277.689 0.0538602 5.22272 0
M  V30 2853 H 279.383 0.308767 2.97804 0
M  V30 2854 H 276.929 0.149937 1.43217 0
M  V30 2855 H 278.882 -2.01914 3.69876 0
M  V30 2856 H 277.606 -2.14541 2.46252 0
M  V30 2857 H 276.265 -0.372145 3.64706 0
M  V30 2858 H 275.913 -2.78882 4.18609 0
M  V30 2859 H 275.613 -1.75717 5.60712 0
M  V30 2860 H 277.137 -2.68164 5.48562 0
M  V30 2861 H 278.551 -0.422069 5.71744 0
M  V30 2862 H 276.948 0.319776 5.99247 0
M  V30 2863 H 278.018 0.98858 4.74716 0
M  V30 2864 N 279.361 -1.56624 0.175154 0
M  V30 2865 C 280.589 -2.01374 -0.474971 0
M  V30 2866 C 281.004 -1.05537 -1.56548 0
M  V30 2867 O 280.361 -0.0568668 -1.82411 0
M  V30 2868 C 280.412 -3.45923 -1.04975 0
M  V30 2869 O 280.133 -4.381 -0.00276605 0
M  V30 2870 C 281.634 -4.06093 -1.77773 0
M  V30 2871 H 278.854 -0.659962 -0.121206 0
M  V30 2872 H 281.398 -2.02601 0.27801 0
M  V30 2873 H 279.553 -3.45458 -1.75321 0
M  V30 2874 H 279.967 -5.22753 -0.427681 0
M  V30 2875 H 281.441 -5.09147 -2.13245 0
M  V30 2876 H 281.918 -3.48405 -2.67414 0
M  V30 2877 H 282.524 -4.10272 -1.12059 0
M  V30 2878 N 280.839 0.0985539 -1.57292 0
M  V30 2879 C 281.769 1.12064 -2.04851 0
M  V30 2880 C 282.75 1.41981 -0.936767 0
M  V30 2881 O 283.935 1.52071 -1.20781 0
M  V30 2882 C 281.065 2.44144 -2.47004 0
M  V30 2883 C 280.019 2.28643 -3.6181 0
M  V30 2884 C 279.345 3.65869 -3.89929 0
M  V30 2885 C 280.645 1.72986 -4.92822 0
M  V30 2886 H 282.339 0.724979 -2.9049 0
M  V30 2887 H 279.885 0.34729 -1.39749 0
M  V30 2888 H 281.838 3.15914 -2.78884 0
M  V30 2889 H 280.562 2.85639 -1.5836 0
M  V30 2890 H 279.221 1.59318 -3.30172 0
M  V30 2891 H 278.869 4.04885 -2.98458 0
M  V30 2892 H 278.569 3.56344 -4.67218 0
M  V30 2893 H 280.093 4.39112 -4.2428 0
M  V30 2894 H 281.507 2.34593 -5.23105 0
M  V30 2895 H 279.904 1.74229 -5.74251 0
M  V30 2896 H 280.974 0.689007 -4.7998 0
M  V30 2897 N 282.317 1.53212 0.369288 0
M  V30 2898 C 283.542 1.73423 1.1375 0
M  V30 2899 C 283.967 0.460404 1.82378 0
M  V30 2900 O 283.325 -0.585298 1.71592 0
M  V30 2901 C 283.373 2.89769 2.1463 0
M  V30 2902 O 282.477 2.58119 3.21634 0
M  V30 2903 H 281.818 0.576061 0.330227 0
M  V30 2904 H 284.348 2.00083 0.427547 0
M  V30 2905 H 284.358 3.15829 2.58294 0
M  V30 2906 H 283.033 3.8217 1.64071 0
M  V30 2907 H 281.61 2.42864 2.82969 0
M  V30 2908 N 283.795 -0.628877 1.44509 0
M  V30 2909 C 284.745 -1.7345 1.47983 0
M  V30 2910 C 285.729 -1.5715 0.345373 0
M  V30 2911 O 286.921 -1.66848 0.590829 0
M  V30 2912 C 284.05 -3.12143 1.42904 0
M  V30 2913 C 283.136 -3.33906 2.61472 0
M  V30 2914 N 283.527 -3.26024 3.86706 0
M  V30 2915 C 281.825 -3.64709 2.56716 0
M  V30 2916 C 282.526 -3.48536 4.65722 0
M  V30 2917 N 281.502 -3.71517 3.96832 0
M  V30 2918 H 285.304 -1.65818 2.42655 0
M  V30 2919 H 282.818 -0.831419 1.39503 0
M  V30 2920 H 284.815 -3.91433 1.43476 0
M  V30 2921 H 283.475 -3.2094 0.492717 0
M  V30 2922 H 284.486 -3.04893 4.18641 0
M  V30 2923 H 281.163 -3.80473 1.71891 0
M  V30 2924 H 282.553 -3.48016 5.74747 0
M  V30 2925 N 285.273 -1.31445 -0.869486 0
M  V30 2926 C 286.203 -1.21727 -1.99261 0
M  V30 2927 C 287.184 -0.104359 -1.6978 0
M  V30 2928 O 288.369 -0.289038 -1.92037 0
M  V30 2929 C 285.499 -0.924317 -3.34774 0
M  V30 2930 C 284.453 -1.99685 -3.78563 0
M  V30 2931 C 283.779 -1.55658 -5.11541 0
M  V30 2932 C 285.079 -3.41003 -3.95619 0
M  V30 2933 H 286.773 -2.1569 -2.07649 0
M  V30 2934 H 284.319 -1.03839 -0.997675 0
M  V30 2935 H 286.272 -0.842934 -4.12883 0
M  V30 2936 H 284.996 0.0509793 -3.2656 0
M  V30 2937 H 283.655 -2.06813 -3.02694 0
M  V30 2938 H 283.303 -0.569132 -4.9977 0
M  V30 2939 H 283.003 -2.27409 -5.41811 0
M  V30 2940 H 284.527 -1.48928 -5.92159 0
M  V30 2941 H 285.941 -3.36547 -4.64122 0
M  V30 2942 H 284.338 -4.10975 -4.37286 0
M  V30 2943 H 285.408 -3.81754 -2.98985 0
M  V30 2944 N 286.751 1.08385 -1.14413 0
M  V30 2945 C 287.981 1.8425 -0.934644 0
M  V30 2946 C 288.389 1.81907 0.520234 0
M  V30 2947 O 287.732 1.22126 1.37226 0
M  V30 2948 C 287.794 3.32853 -1.35828 0
M  V30 2949 C 287.458 3.5893 -2.82875 0
M  V30 2950 C 288.455 3.53756 -3.80989 0
M  V30 2951 C 286.14 3.86934 -3.20293 0
M  V30 2952 C 288.134 3.76216 -5.14529 0
M  V30 2953 C 285.821 4.09047 -4.54008 0
M  V30 2954 C 286.819 4.03682 -5.50936 0
M  V30 2955 O 286.507 4.25214 -6.82238 0
M  V30 2956 H 286.239 0.588502 -0.332628 0
M  V30 2957 H 288.793 1.37792 -1.52324 0
M  V30 2958 H 287.023 3.8007 -0.713019 0
M  V30 2959 H 288.712 3.90154 -1.11957 0
M  V30 2960 H 289.478 3.32135 -3.53428 0
M  V30 2961 H 285.357 3.9023 -2.45442 0
M  V30 2962 H 288.901 3.71943 -5.90173 0
M  V30 2963 H 284.798 4.30151 -4.8129 0
M  V30 2964 H 285.566 4.42619 -6.88499 0
M  V30 2965 N 288.23 0.939286 1.26551 0
M  V30 2966 C 289.646 0.641304 1.46149 0
M  V30 2967 C 289.846 -0.805964 1.84679 0
M  V30 2968 O 288.902 -1.58278 1.96734 0
M  V30 2969 C 290.215 1.6011 2.54529 0
M  V30 2970 C 291.763 1.6106 2.68382 0
M  V30 2971 C 292.238 2.55765 3.79932 0
M  V30 2972 N 293.729 2.5404 3.87322 0
M  V30 2973 C 294.464 3.24004 4.73085 0
M  V30 2974 N 293.96 4.03388 5.63249 0
M  V30 2975 N 295.753 3.12965 4.66914 0
M  V30 2976 H 287.904 1.87478 0.998285 0
M  V30 2977 H 290.167 0.805559 0.499779 0
M  V30 2978 H 289.873 2.63412 2.33039 0
M  V30 2979 H 289.747 1.35171 3.52149 0
M  V30 2980 H 292.134 0.584835 2.89247 0
M  V30 2981 H 292.215 1.90053 1.71212 0
M  V30 2982 H 291.859 3.58458 3.5982 0
M  V30 2983 H 291.789 2.24063 4.76554 0
M  V30 2984 H 294.28 1.96396 3.22858 0
M  V30 2985 H 294.593 4.5373 6.25579 0
M  V30 2986 H 292.938 4.07489 5.63008 0
M  V30 2987 H 296.129 2.50432 3.95476 0
M  V30 2988 H 296.302 3.67759 5.33533 0
M  V30 2989 N 289.708 -1.40897 0.706093 0
M  V30 2990 C 290.933 -2.05895 0.249435 0
M  V30 2991 C 291.358 -1.52823 -1.09666 0
M  V30 2992 O 290.716 -0.659589 -1.68876 0
M  V30 2993 C 290.764 -3.59872 0.22904 0
M  V30 2994 O 289.868 -4.04708 -0.792784 0
M  V30 2995 H 289.209 -0.653206 0.119241 0
M  V30 2996 H 291.739 -1.80471 0.96391 0
M  V30 2997 H 291.749 -4.07951 0.0634791 0
M  V30 2998 H 290.424 -3.97866 1.21141 0
M  V30 2999 H 289.001 -3.68111 -0.59572 0
M  V30 3000 N 291.186 -0.45159 -1.50991 0
M  V30 3001 C 292.411 0.110667 -2.07105 0
M  V30 3002 C 292.836 1.3446 -1.31538 0
M  V30 3003 O 292.194 1.77743 -0.357365 0
M  V30 3004 C 292.242 0.397238 -3.58405 0
M  V30 3005 O 291.346 1.48124 -3.84881 0
M  V30 3006 H 290.687 -0.00439271 -0.663985 0
M  V30 3007 H 293.217 -0.637026 -1.9443 0
M  V30 3008 H 293.227 0.64351 -4.02893 0
M  V30 3009 H 291.902 -0.504553 -4.12828 0
M  V30 3010 H 290.479 1.22381 -3.52246 0
M  V30 3011 N 292.664 1.56529 -0.183458 0
M  V30 3012 C 293.941 1.88959 0.50536 0
M  V30 3013 C 294.321 1.09523 1.80466 0
M  V30 3014 O 293.669 0.19278 2.27685 0
M  V30 3015 C 293.879 3.41162 0.73547 0
M  V30 3016 C 295.227 4.11155 1.06005 0
M  V30 3017 O 296.251 3.46548 0.823594 0
M  V30 3018 O 295.11 5.25318 1.50675 0
M  V30 3019 H 292.204 0.78441 0.261973 0
M  V30 3020 H 294.75 1.68231 -0.222802 0
M  V30 3021 H 293.522 3.90874 -0.182561 0
M  V30 3022 H 293.145 3.67543 1.51651 0
M  V30 3023 N 294.142 -0.090211 1.57342 0
M  V30 3024 C 295.105 -1.09335 2.01441 0
M  V30 3025 C 296.105 -1.32666 0.908641 0
M  V30 3026 O 297.295 -1.28697 1.174 0
M  V30 3027 C 294.427 -2.44136 2.3793 0
M  V30 3028 H 295.62 -0.713662 2.91285 0
M  V30 3029 H 293.173 -0.335404 1.52659 0
M  V30 3030 H 293.908 -2.86972 1.51055 0
M  V30 3031 H 293.693 -2.28548 3.18603 0
M  V30 3032 H 295.183 -3.16277 2.72688 0
M  V30 3033 N 295.62 -1.53406 -0.361157 0
M  V30 3034 C 296.55 -1.83136 -1.44857 0
M  V30 3035 C 297.531 -0.685174 -1.5569 0
M  V30 3036 O 298.716 -0.93544 -1.70186 0
M  V30 3037 C 295.846 -2.02522 -2.82138 0
M  V30 3038 C 294.8 -3.18302 -2.86126 0
M  V30 3039 C 294.126 -3.22989 -4.26125 0
M  V30 3040 C 295.426 -4.56796 -2.53248 0
M  V30 3041 H 297.12 -2.74201 -1.20226 0
M  V30 3042 H 294.666 -1.31938 -0.576922 0
M  V30 3043 H 296.619 -2.21904 -3.58241 0
M  V30 3044 H 295.343 -1.08172 -3.08166 0
M  V30 3045 H 294.002 -2.98747 -2.12475 0
M  V30 3046 H 293.65 -2.26267 -4.49235 0
M  V30 3047 H 293.35 -4.00781 -4.29708 0
M  V30 3048 H 294.874 -3.44559 -5.04094 0
M  V30 3049 H 296.288 -4.7631 -3.19064 0
M  V30 3050 H 294.685 -5.36862 -2.68141 0
M  V30 3051 H 295.755 -4.61606 -1.48484 0
M  V30 3052 N 297.098 0.621204 -1.44841 0
M  V30 3053 C 298.028 1.74366 -1.55303 0
M  V30 3054 C 299.009 1.65199 -0.405385 0
M  V30 3055 O 300.194 1.83807 -0.626787 0
M  V30 3056 C 297.324 3.12931 -1.50637 0
M  V30 3057 C 296.278 3.36896 -2.63979 0
M  V30 3058 C 295.604 4.75594 -2.44366 0
M  V30 3059 C 296.904 3.28483 -4.06074 0
M  V30 3060 H 298.598 1.65867 -2.49256 0
M  V30 3061 H 296.144 0.796558 -1.19962 0
M  V30 3062 H 298.097 3.9124 -1.56555 0
M  V30 3063 H 296.821 3.22237 -0.532057 0
M  V30 3064 H 295.48 2.60972 -2.57467 0
M  V30 3065 H 295.128 4.81616 -1.45105 0
M  V30 3066 H 294.828 4.92586 -3.20364 0
M  V30 3067 H 296.352 5.5612 -2.52117 0
M  V30 3068 H 297.766 3.96684 -4.13902 0
M  V30 3069 H 296.163 3.57008 -4.82354 0
M  V30 3070 H 297.233 2.26133 -4.28943 0
M  V30 3071 N 298.576 1.31904 0.862503 0
M  V30 3072 C 299.506 1.22782 1.98612 0
M  V30 3073 C 300.487 0.113362 1.69722 0
M  V30 3074 O 301.672 0.299218 1.91881 0
M  V30 3075 C 298.802 0.942058 3.34279 0
M  V30 3076 C 297.756 2.0169 3.77499 0
M  V30 3077 C 297.082 1.58369 5.10709 0
M  V30 3078 C 298.382 3.43096 3.93805 0
M  V30 3079 H 300.076 2.16788 2.06502 0
M  V30 3080 H 297.622 1.04366 0.992154 0
M  V30 3081 H 299.575 0.864818 4.1243 0
M  V30 3082 H 298.299 -0.0336603 3.26583 0
M  V30 3083 H 296.958 2.08416 3.01593 0
M  V30 3084 H 296.606 0.595628 4.99461 0
M  V30 3085 H 296.306 2.30279 5.40597 0
M  V30 3086 H 297.83 1.52067 5.91361 0
M  V30 3087 H 299.244 3.39003 4.62331 0
M  V30 3088 H 297.641 4.13288 4.35101 0
M  V30 3089 H 298.711 3.83334 2.96957 0
M  V30 3090 N 300.054 -1.07777 1.14986 0
M  V30 3091 C 301.004 -2.13082 0.811181 0
M  V30 3092 C 301.988 -1.59619 -0.202597 0
M  V30 3093 O 303.18 -1.77 -0.00398275 0
M  V30 3094 C 300.309 -3.42009 0.297439 0
M  V30 3095 C 299.395 -4.02337 1.34112 0
M  V30 3096 N 299.786 -4.36982 2.54716 0
M  V30 3097 C 298.084 -4.29752 1.19285 0
M  V30 3098 C 298.785 -4.84729 3.21578 0
M  V30 3099 N 297.761 -4.83233 2.48972 0
M  V30 3100 H 301.563 -2.37696 1.72853 0
M  V30 3101 H 299.077 -1.25173 1.03468 0
M  V30 3102 H 301.074 -4.16884 0.0364777 0
M  V30 3103 H 299.734 -3.18841 -0.614022 0
M  V30 3104 H 300.745 -4.27807 2.91894 0
M  V30 3105 H 297.422 -4.16106 0.340926 0
M  V30 3106 H 298.812 -5.20863 4.24442 0
M  V30 3107 N 301.532 -0.945985 -1.26051 0
M  V30 3108 C 302.442 -0.465633 -2.29933 0
M  V30 3109 C 303.458 0.462761 -1.67733 0
M  V30 3110 O 304.634 0.341118 -1.9849 0
M  V30 3111 C 301.699 0.256994 -3.45746 0
M  V30 3112 C 300.76 -0.708549 -4.23412 0
M  V30 3113 C 299.993 -0.0203135 -5.33696 0
M  V30 3114 O 300.216 1.19571 -5.57726 0
M  V30 3115 O 299.15 -0.701459 -5.97799 0
M  V30 3116 H 302.976 -1.32866 -2.73094 0
M  V30 3117 H 300.561 -0.712071 -1.31339 0
M  V30 3118 H 302.443 0.663852 -4.16138 0
M  V30 3119 H 301.118 1.09533 -3.04605 0
M  V30 3120 H 300.025 -1.16545 -3.55483 0
M  V30 3121 H 301.358 -1.51465 -4.68315 0
M  V30 3122 N 303.011 1.40521 -0.713556 0
M  V30 3123 C 303.959 2.32549 -0.0485227 0
M  V30 3124 C 304.953 1.51931 0.74922 0
M  V30 3125 O 306.159 1.67745 0.652816 0
M  V30 3126 H 302.534 0.751994 0.00311138 0
M  V30 3127 H 304.505 2.86291 -0.841443 0
M  V30 3128 C 303.254 3.36879 0.860687 0
M  V30 3129 H 302.577 3.98978 0.256246 0
M  V30 3130 H 304.017 4.03772 1.294 0
M  V30 3131 C 302.476 2.72197 1.9852 0
M  V30 3132 O 303.006 2.5837 3.07584 0
M  V30 3133 N 301.212 2.30612 1.76823 0
M  V30 3134 H 300.759 2.42059 0.881217 0
M  V30 3135 H 300.717 1.87672 2.52243 0
M  V30 3136 N 304.489 0.459591 1.5075 0
M  V30 3137 C 305.766 -0.160371 1.94941 0
M  V30 3138 C 306.146 -1.58048 1.39943 0
M  V30 3139 O 305.494 -2.206 0.595629 0
M  V30 3140 C 305.704 -0.115432 3.48809 0
M  V30 3141 C 307.052 -0.310026 4.23467 0
M  V30 3142 O 308.076 -0.192543 3.55679 0
M  V30 3143 O 306.935 -0.546031 5.43765 0
M  V30 3144 H 304.029 -0.117925 0.818549 0
M  V30 3145 H 306.575 0.519169 1.61563 0
M  V30 3146 H 305.347 0.87652 3.81357 0
M  V30 3147 H 304.97 -0.836928 3.88692 0
M  V30 3148 N 305.967 -1.56429 0.191757 0
M  V30 3149 C 306.93 -2.17707 -0.716688 0
M  V30 3150 C 307.93 -1.13061 -1.14341 0
M  V30 3151 O 309.12 -1.38464 -1.05704 0
M  V30 3152 C 306.252 -2.77644 -1.97804 0
M  V30 3153 H 307.445 -2.99342 -0.1829 0
M  V30 3154 H 304.998 -1.56193 -0.0578566 0
M  V30 3155 H 305.733 -1.99799 -2.55443 0
M  V30 3156 H 305.518 -3.54246 -1.68083 0
M  V30 3157 H 307.008 -3.24708 -2.62592 0
M  V30 3158 N 307.445 0.0818655 -1.57387 0
M  V30 3159 C 308.694 0.781681 -1.85937 0
M  V30 3160 C 309.007 1.79246 -0.782957 0
M  V30 3161 O 310.213 2.54112 -0.955987 0
M  V30 3162 C 308.669 1.44109 -3.29789 0
M  V30 3163 C 308.277 0.469396 -4.45534 0
M  V30 3164 C 310.021 2.12386 -3.67549 0
M  V30 3165 C 307.928 1.13415 -5.80423 0
M  V30 3166 H 306.858 0.295682 -0.693605 0
M  V30 3167 H 309.509 0.0348051 -1.83467 0
M  V30 3168 H 307.891 2.23588 -3.2684 0
M  V30 3169 H 309.065 -0.294856 -4.59856 0
M  V30 3170 H 307.38 -0.108383 -4.16259 0
M  V30 3171 H 309.977 2.62878 -4.65617 0
M  V30 3172 H 310.32 2.91877 -2.96839 0
M  V30 3173 H 310.853 1.39751 -3.72444 0
M  V30 3174 H 307.592 0.379771 -6.54399 0
M  V30 3175 H 307.112 1.8695 -5.69921 0
M  V30 3176 H 308.791 1.65686 -6.25426 0
M  V30 3177 N 308.923 1.53595 0.353017 0
M  V30 3178 C 309.873 1.77299 1.43349 0
M  V30 3179 C 310.857 0.627884 1.48143 0
M  V30 3180 O 312.049 0.88697 1.53173 0
M  V30 3181 C 309.178 1.97757 2.80619 0
M  V30 3182 C 308.264 3.18305 2.80254 0
M  V30 3183 N 308.655 4.39967 2.49526 0
M  V30 3184 C 306.953 3.19283 3.11407 0
M  V30 3185 C 307.654 5.21772 2.57156 0
M  V30 3186 N 306.63 4.58269 2.92388 0
M  V30 3187 H 310.432 2.68963 1.18474 0
M  V30 3188 H 307.946 1.52391 0.561306 0
M  V30 3189 H 309.943 2.1287 3.58458 0
M  V30 3190 H 308.603 1.07329 3.06448 0
M  V30 3191 H 309.614 4.67482 2.22893 0
M  V30 3192 H 306.291 2.3879 3.4247 0
M  V30 3193 H 307.681 6.2885 2.36638 0
M  V30 3194 N 310.401 -0.613514 1.45168 0
M  V30 3195 C 311.348 -1.72456 1.53387 0
M  V30 3196 C 312.318 -1.6169 0.380191 0
M  V30 3197 O 313.503 -1.81356 0.592836 0
M  V30 3198 C 310.643 -3.10753 1.50088 0
M  V30 3199 C 309.756 -3.32368 2.75963 0
M  V30 3200 C 308.891 -4.60737 2.64376 0
M  V30 3201 C 307.93 -4.7559 3.85332 0
M  V30 3202 N 307.067 -5.95253 3.72315 0
M  V30 3203 H 311.907 -1.64768 2.48305 0
M  V30 3204 H 309.444 -0.803503 1.23216 0
M  V30 3205 H 311.402 -3.90758 1.46164 0
M  V30 3206 H 310.032 -3.17413 0.587243 0
M  V30 3207 H 309.084 -2.4618 2.89999 0
M  V30 3208 H 310.396 -3.39218 3.65695 0
M  V30 3209 H 309.55 -5.48928 2.58385 0
M  V30 3210 H 308.289 -4.56275 1.72233 0
M  V30 3211 H 307.294 -3.85824 3.91688 0
M  V30 3212 H 308.519 -4.81854 4.78533 0
M  V30 3213 H 306.465 -5.91847 2.82937 0
M  V30 3214 H 306.382 -6.03236 4.55677 0
M  V30 3215 H 307.65 -6.85958 3.70246 0
M  V30 3216 N 311.879 -1.3236 -0.855495 0
M  V30 3217 C 313.128 -1.22226 -1.60448 0
M  V30 3218 C 313.441 0.214733 -1.94418 0
M  V30 3219 O 314.647 0.437917 -2.67945 0
M  V30 3220 C 313.103 -2.14063 -2.89318 0
M  V30 3221 C 312.711 -3.62839 -2.62777 0
M  V30 3222 C 314.455 -2.12764 -3.67331 0
M  V30 3223 C 312.362 -4.4664 -3.87643 0
M  V30 3224 H 311.292 -0.453904 -0.602069 0
M  V30 3225 H 313.943 -1.57314 -0.944698 0
M  V30 3226 H 312.325 -1.71889 -3.5675 0
M  V30 3227 H 313.499 -4.1335 -2.03662 0
M  V30 3228 H 311.814 -3.66261 -1.98096 0
M  V30 3229 H 314.411 -2.72611 -4.59987 0
M  V30 3230 H 314.754 -1.11841 -4.00995 0
M  V30 3231 H 315.287 -2.53214 -3.06802 0
M  V30 3232 H 312.026 -5.48373 -3.5912 0
M  V30 3233 H 311.546 -4.0088 -4.46156 0
M  V30 3234 H 313.225 -4.59597 -4.55389 0
M  V30 3235 N 313.357 1.07166 -1.15556 0
M  V30 3236 C 314.597 1.81391 -0.94216 0
M  V30 3237 C 314.961 1.84788 0.521272 0
M  V30 3238 O 316.162 2.54904 0.85307 0
M  V30 3239 C 314.433 3.22431 -1.54185 0
M  V30 3240 S 315.992 4.13379 -1.47183 0
M  V30 3241 H 312.81 0.624963 -0.339031 0
M  V30 3242 H 315.412 1.28725 -1.4714 0
M  V30 3243 H 314.116 3.17548 -2.59984 0
M  V30 3244 H 313.647 3.80172 -1.01156 0
M  V30 3245 H 315.662 4.94007 -0.466004 0
M  V30 3246 N 314.835 0.952656 1.25548 0
M  V30 3247 C 315.798 0.475794 2.24207 0
M  V30 3248 C 316.798 -0.419428 1.55234 0
M  V30 3249 O 317.988 -0.216994 1.72843 0
M  V30 3250 C 315.12 -0.312814 3.39462 0
M  V30 3251 H 316.313 1.34779 2.67908 0
M  V30 3252 H 313.866 0.735739 1.37901 0
M  V30 3253 H 314.601 -1.20257 3.01179 0
M  V30 3254 H 314.386 0.329404 3.90714 0
M  V30 3255 H 315.876 -0.635986 4.12729 0
M  V30 3256 N 316.313 -1.40141 0.720998 0
M  V30 3257 C 317.26 -2.30688 0.071919 0
M  V30 3258 C 318.23 -1.48476 -0.744584 0
M  V30 3259 O 319.415 -1.77201 -0.707423 0
M  V30 3260 C 316.555 -3.34724 -0.839855 0
M  V30 3261 C 315.668 -4.31998 -0.0122438 0
M  V30 3262 C 314.803 -5.23102 -0.923995 0
M  V30 3263 C 313.842 -6.12033 -0.0907969 0
M  V30 3264 N 312.979 -6.95537 -0.957718 0
M  V30 3265 H 317.819 -2.85628 0.849755 0
M  V30 3266 H 315.356 -1.40653 0.430726 0
M  V30 3267 H 317.314 -3.93618 -1.38279 0
M  V30 3268 H 315.944 -2.81274 -1.58381 0
M  V30 3269 H 314.996 -3.74841 0.64794 0
M  V30 3270 H 316.308 -4.94772 0.632595 0
M  V30 3271 H 315.462 -5.86953 -1.53527 0
M  V30 3272 H 314.201 -4.60615 -1.60264 0
M  V30 3273 H 313.206 -5.47207 0.533377 0
M  V30 3274 H 314.431 -6.76581 0.584428 0
M  V30 3275 H 312.377 -6.35633 -1.62192 0
M  V30 3276 H 312.294 -7.55099 -0.36904 0
M  V30 3277 H 313.562 -7.63832 -1.555 0
M  V30 3278 N 317.792 -0.46758 -1.50504 0
M  V30 3279 C 318.722 0.318381 -2.31319 0
M  V30 3280 C 319.703 0.993564 -1.38066 0
M  V30 3281 O 320.888 0.991411 -1.66987 0
M  V30 3282 C 318.018 1.40275 -3.17711 0
M  V30 3283 C 316.972 0.849373 -4.19487 0
M  V30 3284 C 316.298 2.03177 -4.94594 0
M  V30 3285 C 317.598 -0.136942 -5.2212 0
M  V30 3286 H 319.292 -0.356106 -2.97275 0
M  V30 3287 H 316.838 -0.172703 -1.42961 0
M  V30 3288 H 318.791 1.96004 -3.73042 0
M  V30 3289 H 317.515 2.10596 -2.49634 0
M  V30 3290 H 316.174 0.314076 -3.65252 0
M  V30 3291 H 315.822 2.72187 -4.22993 0
M  V30 3292 H 315.522 1.66774 -5.63436 0
M  V30 3293 H 317.046 2.59403 -5.52759 0
M  V30 3294 H 318.46 0.331056 -5.72343 0
M  V30 3295 H 316.857 -0.41507 -5.98663 0
M  V30 3296 H 317.927 -1.06398 -4.73083 0
M  V30 3297 N 319.27 1.56325 -0.20005 0
M  V30 3298 C 320.203 2.15234 0.758267 0
M  V30 3299 C 321.181 1.09046 1.20614 0
M  V30 3300 O 322.365 1.37186 1.29276 0
M  V30 3301 C 319.492 2.71524 2.02466 0
M  V30 3302 C 318.538 3.90345 1.71852 0
M  V30 3303 S 319.371 5.28513 0.862249 0
M  V30 3304 C 320.527 5.88227 2.13868 0
M  V30 3305 H 320.76 2.96183 0.2575 0
M  V30 3306 H 318.293 1.54393 0.0150099 0
M  V30 3307 H 320.251 3.04598 2.75191 0
M  V30 3308 H 318.912 1.90607 2.49655 0
M  V30 3309 H 318.105 4.28158 2.65888 0
M  V30 3310 H 317.707 3.58306 1.07205 0
M  V30 3311 H 319.999 6.02891 3.09076 0
M  V30 3312 H 320.942 6.84714 1.80479 0
M  V30 3313 H 321.35 5.16874 2.2694 0
M  V30 3314 N 320.748 -0.0735177 1.57428 0
M  V30 3315 C 321.696 -1.10628 2.04607 0
M  V30 3316 C 322.69 -1.40181 0.951088 0
M  V30 3317 O 323.896 -1.39608 1.1362 0
M  V30 3318 H 320.271 -0.374088 0.652351 0
M  V30 3319 H 322.242 -0.682218 2.90497 0
M  V30 3320 C 320.991 -2.41212 2.50423 0
M  V30 3321 H 320.314 -2.19322 3.34272 0
M  V30 3322 H 321.754 -3.11927 2.87189 0
M  V30 3323 C 320.213 -3.0705 1.38644 0
M  V30 3324 O 320.743 -3.95056 0.727582 0
M  V30 3325 N 318.949 -2.67645 1.132 0
M  V30 3326 H 318.496 -1.96169 1.66959 0
M  V30 3327 H 318.454 -3.1202 0.386147 0
M  V30 3328 N 322.226 -1.5378 -0.344866 0
M  V30 3329 C 323.475 -1.7018 -1.08267 0
M  V30 3330 C 323.788 -0.471 -1.89845 0
M  V30 3331 O 324.994 -0.515917 -2.66553 0
M  V30 3332 C 323.45 -3.00923 -1.97417 0
M  V30 3333 C 323.058 -4.31335 -1.21053 0
M  V30 3334 C 324.802 -3.26688 -2.71063 0
M  V30 3335 C 322.709 -5.53153 -2.09225 0
M  V30 3336 H 321.639 -0.634138 -0.407903 0
M  V30 3337 H 324.29 -1.8028 -0.342246 0
M  V30 3338 H 322.672 -2.84676 -2.75274 0
M  V30 3339 H 323.846 -4.58281 -0.481159 0
M  V30 3340 H 322.161 -4.12173 -0.591813 0
M  V30 3341 H 324.758 -4.1489 -3.37299 0
M  V30 3342 H 325.101 -2.43639 -3.37558 0
M  V30 3343 H 325.634 -3.43705 -2.0028 0
M  V30 3344 H 322.373 -6.38741 -1.47274 0
M  V30 3345 H 321.893 -5.30458 -2.79955 0
M  V30 3346 H 323.572 -5.88744 -2.68308 0
M  V30 3347 N 323.704 0.605807 -1.45491 0
M  V30 3348 C 324.651 1.7164 -1.54299 0
M  V30 3349 C 325.621 1.61486 -0.388761 0
M  V30 3350 O 326.806 1.81039 -0.602445 0
M  V30 3351 C 323.946 3.09953 -1.51734 0
M  V30 3352 C 323.059 3.309 -2.77721 0
M  V30 3353 C 322.194 4.59329 -2.66816 0
M  V30 3354 C 321.233 4.7354 -3.87848 0
M  V30 3355 N 320.37 5.9327 -3.75467 0
M  V30 3356 H 325.21 1.63449 -2.49176 0
M  V30 3357 H 322.747 0.796957 -1.23641 0
M  V30 3358 H 324.705 3.89977 -1.48235 0
M  V30 3359 H 323.335 3.17098 -0.604068 0
M  V30 3360 H 322.387 2.44639 -2.913 0
M  V30 3361 H 323.699 3.37274 -3.67488 0
M  V30 3362 H 322.853 5.4755 -2.61292 0
M  V30 3363 H 321.592 4.55355 -1.74651 0
M  V30 3364 H 320.597 3.83741 -3.93729 0
M  V30 3365 H 321.822 4.79309 -4.81082 0
M  V30 3366 H 319.768 5.90338 -2.86072 0
M  V30 3367 H 319.685 6.00811 -4.5887 0
M  V30 3368 H 320.953 6.83984 -3.73879 0
M  V30 3369 N 325.182 1.32811 0.848464 0
M  V30 3370 C 326.114 1.18095 1.96433 0
M  V30 3371 C 327.127 0.114354 1.62398 0
M  V30 3372 O 328.316 0.363892 1.74751 0
M  V30 3373 C 325.416 0.786798 3.2964 0
M  V30 3374 C 324.589 1.943 3.91875 0
M  V30 3375 C 323.648 1.53138 5.03423 0
M  V30 3376 O 322.674 2.24432 5.23086 0
M  V30 3377 N 323.876 0.430915 5.78898 0
M  V30 3378 H 326.641 2.14218 2.09597 0
M  V30 3379 H 324.202 1.2543 1.02367 0
M  V30 3380 H 326.194 0.493715 4.01677 0
M  V30 3381 H 324.764 -0.0834541 3.12489 0
M  V30 3382 H 323.984 2.40224 3.12547 0
M  V30 3383 H 325.272 2.71689 4.30189 0
M  V30 3384 H 324.67 -0.162333 5.65467 0
M  V30 3385 H 323.227 0.197466 6.51501 0
M  V30 3386 N 326.66 -1.06551 1.16123 0
M  V30 3387 C 327.909 -1.78687 0.935622 0
M  V30 3388 C 328.222 -1.88056 -0.538001 0
M  V30 3389 O 329.428 -2.56794 -0.88143 0
M  V30 3390 C 327.884 -3.21143 1.62466 0
M  V30 3391 C 327.492 -3.19949 3.13587 0
M  V30 3392 C 329.236 -3.9783 1.48092 0
M  V30 3393 C 327.143 -4.57108 3.75241 0
M  V30 3394 H 326.073 -0.669712 0.346412 0
M  V30 3395 H 328.724 -1.19534 1.39226 0
M  V30 3396 H 327.106 -3.80539 1.09572 0
M  V30 3397 H 328.28 -2.70151 3.73303 0
M  V30 3398 H 326.595 -2.5676 3.27816 0
M  V30 3399 H 329.192 -4.99217 1.91538 0
M  V30 3400 H 329.535 -4.14078 0.429507 0
M  V30 3401 H 330.068 -3.4495 1.98127 0
M  V30 3402 H 326.807 -4.46065 4.80319 0
M  V30 3403 H 326.327 -5.07111 3.20309 0
M  V30 3404 H 328.006 -5.26069 3.76644 0
M  V30 3405 N 328.138 -0.959301 -1.25041 0
M  V30 3406 C 329.363 -0.633507 -1.97488 0
M  V30 3407 C 329.788 0.788555 -1.70773 0
M  V30 3408 O 329.146 1.53394 -0.966431 0
M  V30 3409 C 329.194 -0.904057 -3.49083 0
M  V30 3410 O 328.298 0.0147939 -4.12397 0
M  V30 3411 H 327.639 -0.240368 -0.618966 0
M  V30 3412 H 330.169 -1.28717 -1.59038 0
M  V30 3413 H 330.179 -0.832203 -3.99423 0
M  V30 3414 H 328.854 -1.94048 -3.67856 0
M  V30 3415 H 327.431 -0.109664 -3.72739 0
M  V30 3416 N 329.616 1.39756 -0.72842 0
M  V30 3417 C 330.863 2.00645 -0.273487 0
M  V30 3418 C 331.191 1.57786 1.13727 0
M  V30 3419 O 330.446 0.794886 1.7883 0
M  V30 3420 C 330.745 3.56002 -0.315776 0
M  V30 3421 C 330.411 4.18489 -1.67863 0
M  V30 3422 C 329.073 4.3527 -2.05166 0
M  V30 3423 C 331.425 4.53219 -2.57375 0
M  V30 3424 C 328.753 4.84069 -3.31503 0
M  V30 3425 C 331.105 5.03423 -3.83077 0
M  V30 3426 C 329.769 5.18413 -4.20481 0
M  V30 3427 H 329.039 0.734211 -0.100076 0
M  V30 3428 H 331.686 1.6718 -0.933972 0
M  V30 3429 H 329.991 3.89452 0.428285 0
M  V30 3430 H 331.688 4.00963 0.0542575 0
M  V30 3431 H 328.278 4.05824 -1.37858 0
M  V30 3432 H 332.462 4.39878 -2.29827 0
M  V30 3433 H 327.718 4.93859 -3.60435 0
M  V30 3434 H 331.892 5.2927 -4.52599 0
M  V30 3435 H 329.519 5.55987 -5.18443 0
M  V30 3436 N 331.094 0.475555 1.50254 0
M  V30 3437 C 332.319 -0.0777042 2.07254 0
M  V30 3438 C 332.744 -1.3235 1.3366 0
M  V30 3439 O 332.102 -1.77152 0.385597 0
M  V30 3440 C 332.15 -0.340169 3.58992 0
M  V30 3441 O 331.254 -1.41982 3.87188 0
M  V30 3442 H 330.595 0.0149556 0.663832 0
M  V30 3443 H 333.125 0.667878 1.93392 0
M  V30 3444 H 333.135 -0.579332 4.03866 0
M  V30 3445 H 331.81 0.570167 4.11973 0
M  V30 3446 H 330.387 -1.16762 3.54148 0
M  V30 3447 N 332.573 -1.56217 0.208337 0
M  V30 3448 C 333.85 -1.89739 -0.475234 0
M  V30 3449 C 334.23 -1.1238 -1.78701 0
M  V30 3450 O 333.578 -0.228979 -2.2735 0
M  V30 3451 C 333.788 -3.42289 -0.681101 0
M  V30 3452 C 335.136 -4.12789 -0.994507 0
M  V30 3453 O 336.16 -3.47814 -0.768357 0
M  V30 3454 O 335.019 -5.27649 -1.42299 0
M  V30 3455 H 332.113 -0.788478 -0.249461 0
M  V30 3456 H 334.659 -1.67855 0.249538 0
M  V30 3457 H 333.431 -3.90534 0.244722 0
M  V30 3458 H 333.054 -3.69909 -1.45785 0
M  V30 3459 N 334.051 0.0651679 -1.57465 0
M  V30 3460 C 335.3 0.761916 -1.86756 0
M  V30 3461 C 335.613 1.78406 -0.801925 0
M  V30 3462 O 336.819 2.53084 -0.982885 0
M  V30 3463 C 335.275 1.40603 -3.31299 0
M  V30 3464 C 334.883 0.422115 -4.46007 0
M  V30 3465 C 336.627 2.08476 -3.69781 0
M  V30 3466 C 334.534 1.07252 -5.81593 0
M  V30 3467 H 333.464 0.288308 -0.696702 0
M  V30 3468 H 336.115 0.015344 -1.83494 0
M  V30 3469 H 334.497 2.20109 -3.29193 0
M  V30 3470 H 335.671 -0.343613 -4.59517 0
M  V30 3471 H 333.986 -0.152527 -4.16121 0
M  V30 3472 H 336.583 2.57925 -4.68379 0
M  V30 3473 H 336.926 2.88712 -2.99919 0
M  V30 3474 H 337.459 1.35792 -3.73905 0
M  V30 3475 H 334.198 0.310342 -6.54765 0
M  V30 3476 H 333.718 1.80895 -5.71872 0
M  V30 3477 H 335.397 1.59043 -6.27148 0
M  V30 3478 N 335.529 1.53961 0.336706 0
M  V30 3479 C 336.477 1.83136 1.43401 0
M  V30 3480 C 337.471 0.702313 1.54156 0
M  V30 3481 O 338.677 0.885765 1.56698 0
M  V30 3482 H 335.052 0.580309 0.478273 0
M  V30 3483 H 337.023 2.74925 1.16012 0
M  V30 3484 C 335.772 2.06385 2.79822 0
M  V30 3485 H 335.095 2.92718 2.72316 0
M  V30 3486 H 336.535 2.30761 3.55704 0
M  V30 3487 C 334.994 0.851414 3.25964 0
M  V30 3488 O 335.524 0.0541904 4.01663 0
M  V30 3489 N 333.73 0.66672 2.82848 0
M  V30 3490 H 333.277 1.31665 2.21409 0
M  V30 3491 H 333.235 -0.143032 3.14074 0
M  V30 3492 N 337.007 -0.598083 1.45811 0
M  V30 3493 C 337.939 -1.72231 1.51225 0
M  V30 3494 C 338.952 -1.57757 0.402059 0
M  V30 3495 O 340.141 -1.65464 0.669624 0
M  V30 3496 C 337.241 -3.10331 1.3619 0
M  V30 3497 C 336.414 -3.50955 2.61054 0
M  V30 3498 C 335.473 -4.68055 2.40439 0
M  V30 3499 O 334.499 -4.74691 3.14097 0
M  V30 3500 N 335.701 -5.61941 1.45612 0
M  V30 3501 H 338.466 -1.68046 2.48154 0
M  V30 3502 H 336.027 -0.783637 1.41671 0
M  V30 3503 H 338.019 -3.86439 1.20195 0
M  V30 3504 H 336.589 -3.0897 0.475015 0
M  V30 3505 H 335.809 -2.64711 2.92099 0
M  V30 3506 H 337.097 -3.74858 3.44034 0
M  V30 3507 H 336.495 -5.59301 0.848431 0
M  V30 3508 H 335.052 -6.37542 1.35585 0
M  V30 3509 N 338.485 -1.33259 -0.841409 0
M  V30 3510 C 339.731 -1.24757 -1.59886 0
M  V30 3511 C 340.064 0.186913 -1.93298 0
M  V30 3512 O 339.339 1.12757 -1.5848 0
M  V30 3513 C 339.622 -2.12036 -2.91055 0
M  V30 3514 C 339.475 -3.63929 -2.6434 0
M  V30 3515 C 340.794 -1.9916 -3.92458 0
M  V30 3516 H 337.913 -0.454542 -0.580138 0
M  V30 3517 H 340.555 -1.63335 -0.970647 0
M  V30 3518 H 338.705 -1.79265 -3.44669 0
M  V30 3519 H 340.377 -4.06978 -2.17178 0
M  V30 3520 H 338.62 -3.85935 -1.98082 0
M  V30 3521 H 339.291 -4.20341 -3.57796 0
M  V30 3522 H 341.767 -2.27895 -3.48143 0
M  V30 3523 H 340.643 -2.62484 -4.82072 0
M  V30 3524 H 340.904 -0.963082 -4.31482 0
M  V30 3525 N 339.963 1.05934 -1.16686 0
M  V30 3526 C 340.893 2.1546 -0.899949 0
M  V30 3527 C 341.874 1.69391 0.155154 0
M  V30 3528 O 343.059 1.94199 0.00648693 0
M  V30 3529 C 340.189 3.44939 -0.404241 0
M  V30 3530 C 339.143 4.04536 -1.39767 0
M  V30 3531 C 338.469 5.29268 -0.760216 0
M  V30 3532 C 339.769 4.42893 -2.76845 0
M  V30 3533 H 341.463 2.38046 -1.81588 0
M  V30 3534 H 339.009 1.14404 -0.874514 0
M  V30 3535 H 340.962 4.20901 -0.204971 0
M  V30 3536 H 339.686 3.21983 0.547206 0
M  V30 3537 H 338.345 3.30635 -1.58355 0
M  V30 3538 H 337.993 5.02611 0.197831 0
M  V30 3539 H 337.693 5.70101 -1.42332 0
M  V30 3540 H 339.217 6.07924 -0.57105 0
M  V30 3541 H 340.631 5.09921 -2.62019 0
M  V30 3542 H 339.028 4.94721 -3.39663 0
M  V30 3543 H 340.098 3.53584 -3.31823 0
M  V30 3544 N 341.441 0.965919 1.2453 0
M  V30 3545 C 342.404 0.499547 2.2369 0
M  V30 3546 C 343.404 -0.40294 1.5567 0
M  V30 3547 O 344.594 -0.19865 1.73064 0
M  V30 3548 C 341.726 -0.276792 3.39774 0
M  V30 3549 H 342.919 1.37613 2.66463 0
M  V30 3550 H 340.472 0.750324 1.37112 0
M  V30 3551 H 341.207 -1.17055 3.02438 0
M  V30 3552 H 340.992 0.370826 3.90343 0
M  V30 3553 H 342.482 -0.592175 4.1338 0
M  V30 3554 N 342.919 -1.39368 0.735821 0
M  V30 3555 C 343.869 -2.27885 0.0724287 0
M  V30 3556 C 344.853 -1.44301 -0.711756 0
M  V30 3557 O 346.045 -1.67206 -0.58063 0
M  V30 3558 C 343.174 -3.33029 -0.833454 0
M  V30 3559 C 342.26 -4.24078 -0.0433749 0
M  V30 3560 N 342.651 -4.96138 0.983903 0
M  V30 3561 C 340.949 -4.45164 -0.272905 0
M  V30 3562 C 341.65 -5.63069 1.4604 0
M  V30 3563 N 340.626 -5.37991 0.778857 0
M  V30 3564 H 344.428 -2.81052 0.859467 0
M  V30 3565 H 341.942 -1.5206 0.570227 0
M  V30 3566 H 343.939 -3.95311 -1.32419 0
M  V30 3567 H 342.599 -2.81421 -1.61964 0
M  V30 3568 H 343.61 -4.9958 1.36528 0
M  V30 3569 H 340.287 -4.04497 -1.03383 0
M  V30 3570 H 341.677 -6.30755 2.31511 0
M  V30 3571 N 344.397 -0.483516 -1.5 0
M  V30 3572 C 345.329 0.340634 -2.26655 0
M  V30 3573 C 346.342 0.946152 -1.32483 0
M  V30 3574 O 347.531 0.832453 -1.579 0
M  V30 3575 C 344.631 1.4929 -3.04246 0
M  V30 3576 C 343.804 0.997903 -4.25865 0
M  V30 3577 C 342.863 2.02569 -4.85646 0
M  V30 3578 O 341.889 1.60128 -5.46212 0
M  V30 3579 N 343.091 3.3548 -4.73744 0
M  V30 3580 H 345.856 -0.316577 -2.98023 0
M  V30 3581 H 343.417 -0.315024 -1.58806 0
M  V30 3582 H 345.409 2.17766 -3.41116 0
M  V30 3583 H 343.979 2.05458 -2.35597 0
M  V30 3584 H 343.199 0.138617 -3.93956 0
M  V30 3585 H 344.487 0.645305 -5.04691 0
M  V30 3586 H 343.885 3.72661 -4.25605 0
M  V30 3587 H 342.442 3.99718 -5.14848 0
M  V30 3588 N 345.875 1.56104 -0.216619 0
M  V30 3589 C 346.805 2.23063 0.690296 0
M  V30 3590 C 347.786 1.20072 1.20485 0
M  V30 3591 O 348.971 1.48643 1.24976 0
M  V30 3592 C 346.101 2.90672 1.90072 0
M  V30 3593 C 345.055 4.00092 1.5202 0
M  V30 3594 C 344.381 4.54972 2.80899 0
M  V30 3595 C 345.681 5.17398 0.71391 0
M  V30 3596 H 347.375 2.99109 0.132038 0
M  V30 3597 H 344.921 1.43866 0.0620664 0
M  V30 3598 H 346.874 3.36204 2.54057 0
M  V30 3599 H 345.598 2.12066 2.48386 0
M  V30 3600 H 344.257 3.55283 0.903839 0
M  V30 3601 H 343.905 3.73102 3.37348 0
M  V30 3602 H 343.605 5.28817 2.56176 0
M  V30 3603 H 345.129 5.0322 3.45836 0
M  V30 3604 H 346.543 5.59342 1.25735 0
M  V30 3605 H 344.94 5.97444 0.563951 0
M  V30 3606 H 346.01 4.84088 -0.280527 0
M  V30 3607 N 347.353 -0.0568162 1.57498 0
M  V30 3608 C 348.601 -0.751617 1.87604 0
M  V30 3609 C 348.922 -1.77351 0.81066 0
M  V30 3610 O 348.192 -1.95254 -0.159018 0
M  V30 3611 H 346.772 -0.280583 0.692302 0
M  V30 3612 H 349.434 -0.0293483 1.94878 0
M  V30 3613 H 348.53 -1.25852 2.856 0
M  V30 3614 N 348.832 -1.54138 -0.328536 0
M  V30 3615 C 350.057 -1.76378 -1.09112 0
M  V30 3616 C 350.482 -0.508596 -1.81094 0
M  V30 3617 O 349.84 0.539598 -1.73084 0
M  V30 3618 C 349.888 -2.95358 -2.06872 0
M  V30 3619 O 348.992 -2.66556 -3.14677 0
M  V30 3620 H 348.333 -0.584614 -0.314838 0
M  V30 3621 H 350.863 -2.01146 -0.374348 0
M  V30 3622 H 350.873 -3.22566 -2.4983 0
M  V30 3623 H 349.548 -3.86385 -1.5388 0
M  V30 3624 H 348.125 -2.50282 -2.7643 0
M  V30 3625 N 350.31 0.590341 -1.46126 0
M  V30 3626 C 351.556 1.35082 -1.51264 0
M  V30 3627 C 351.889 1.93534 -0.160711 0
M  V30 3628 O 351.164 1.76045 0.826956 0
M  V30 3629 C 351.447 2.48588 -2.6053 0
M  V30 3630 C 351.3 1.95221 -4.05227 0
M  V30 3631 C 352.619 3.50662 -2.6594 0
M  V30 3632 H 349.738 0.489803 -0.550692 0
M  V30 3633 H 352.38 0.663887 -1.78024 0
M  V30 3634 H 350.53 3.07186 -2.37843 0
M  V30 3635 H 352.202 1.41139 -4.39178 0
M  V30 3636 H 350.445 1.26101 -4.15068 0
M  V30 3637 H 351.116 2.77121 -4.77397 0
M  V30 3638 H 353.592 3.01934 -2.86313 0
M  V30 3639 H 352.468 4.27551 -3.44226 0
M  V30 3640 H 352.729 4.07399 -1.71694 0
M  V30 3641 N 351.788 1.33704 0.83433 0
M  V30 3642 C 353.035 1.25417 1.58987 0
M  V30 3643 C 353.363 -0.178869 1.93676 0
M  V30 3644 O 352.618 -1.13723 1.59265 0
M  V30 3645 C 352.917 2.07926 2.90692 0
M  V30 3646 C 352.583 3.57066 2.75345 0
M  V30 3647 C 351.245 3.97724 2.70867 0
M  V30 3648 C 353.597 4.51817 2.59828 0
M  V30 3649 C 350.925 5.31344 2.48778 0
M  V30 3650 C 353.277 5.85604 2.39272 0
M  V30 3651 C 351.941 6.25439 2.33199 0
M  V30 3652 H 351.211 0.458934 0.581774 0
M  V30 3653 H 353.858 1.65335 0.966261 0
M  V30 3654 H 352.163 1.608 3.57282 0
M  V30 3655 H 353.86 1.98868 3.48213 0
M  V30 3656 H 350.45 3.24785 2.79665 0
M  V30 3657 H 354.634 4.21311 2.62319 0
M  V30 3658 H 349.89 5.61241 2.42526 0
M  V30 3659 H 354.064 6.58623 2.2625 0
M  V30 3660 H 351.691 7.28914 2.15843 0
M  V30 3661 N 353.266 -1.05314 1.17247 0
M  V30 3662 C 354.198 -2.13023 0.845812 0
M  V30 3663 C 355.211 -1.62096 -0.151246 0
M  V30 3664 O 356.4 -1.78343 0.0748818 0
M  V30 3665 C 353.5 -3.38047 0.240292 0
M  V30 3666 C 352.673 -4.18255 1.27991 0
M  V30 3667 C 351.732 -5.21625 0.692375 0
M  V30 3668 O 350.758 -5.52619 1.36385 0
M  V30 3669 N 351.96 -5.78201 -0.516178 0
M  V30 3670 H 354.725 -2.41642 1.77283 0
M  V30 3671 H 352.286 -1.21401 1.07115 0
M  V30 3672 H 354.278 -4.04359 -0.16603 0
M  V30 3673 H 352.848 -3.06972 -0.590487 0
M  V30 3674 H 352.068 -3.47451 1.86203 0
M  V30 3675 H 353.356 -4.68643 1.98119 0
M  V30 3676 H 352.754 -5.55301 -1.07969 0
M  V30 3677 H 351.311 -6.4604 -0.86458 0
M  V30 3678 N 354.744 -0.972509 -1.24016 0
M  V30 3679 C 356.155 -0.67517 -1.74064 0
M  V30 3680 C 356.506 0.808939 -1.78747 0
M  V30 3681 O 355.631 1.63286 -1.42009 0
M  V30 3682 C 356.226 -1.21889 -3.16115 0
M  V30 3683 C 354.785 -0.971358 -3.6365 0
M  V30 3684 C 353.932 -1.35134 -2.42145 0
M  V30 3685 H 356.883 -1.14727 -1.09651 0
M  V30 3686 H 356.904 -0.587489 -3.75937 0
M  V30 3687 H 356.416 -2.29906 -3.12674 0
M  V30 3688 H 354.517 0.0930686 -3.72484 0
M  V30 3689 H 354.63 -1.62039 -4.50866 0
M  V30 3690 H 352.994 -0.769751 -2.4279 0
M  V30 3691 H 353.777 -2.4411 -2.41381 0
M  V30 3692 N 356.222 1.38976 -0.743202 0
M  V30 3693 C 357.45 2.04636 -0.30525 0
M  V30 3694 C 357.865 1.56044 1.06281 0
M  V30 3695 O 357.222 0.728921 1.67311 0
M  V30 3696 C 357.273 3.60193 -0.307177 0
M  V30 3697 O 356.994 4.06998 -1.62124 0
M  V30 3698 C 358.495 4.4306 0.145928 0
M  V30 3699 H 355.715 0.65788 -0.132041 0
M  V30 3700 H 358.259 1.77866 -1.00915 0
M  V30 3701 H 356.414 3.85835 0.347898 0
M  V30 3702 H 356.828 5.01371 -1.54036 0
M  V30 3703 H 358.302 5.51921 0.0934183 0
M  V30 3704 H 358.779 4.22706 1.19231 0
M  V30 3705 H 359.385 4.22584 -0.479886 0
M  V30 3706 N 357.7 0.491464 1.49741 0
M  V30 3707 C 358.93 -0.0534375 2.06531 0
M  V30 3708 C 359.338 -1.32233 1.35318 0
M  V30 3709 O 358.681 -1.78781 0.422243 0
M  V30 3710 C 358.743 -0.387034 3.57411 0
M  V30 3711 C 358.407 0.782764 4.50246 0
M  V30 3712 C 359.404 1.67059 4.92329 0
M  V30 3713 C 357.089 0.978866 4.9267 0
M  V30 3714 C 359.083 2.73874 5.75562 0
M  V30 3715 C 356.77 2.05022 5.75682 0
M  V30 3716 C 357.768 2.92851 6.17031 0
M  V30 3717 O 357.456 3.98138 6.98385 0
M  V30 3718 H 357.188 0.0129324 0.675876 0
M  V30 3719 H 359.742 0.685238 1.93633 0
M  V30 3720 H 357.972 -1.17918 3.68283 0
M  V30 3721 H 359.661 -0.869419 3.96479 0
M  V30 3722 H 360.427 1.53086 4.60206 0
M  V30 3723 H 356.306 0.304646 4.59992 0
M  V30 3724 H 359.85 3.42458 6.07757 0
M  V30 3725 H 355.747 2.18993 6.07217 0
M  V30 3726 H 356.515 3.95374 7.16674 0
M  V30 3727 N 359.178 -1.55987 0.224894 0
M  V30 3728 C 360.403 -2.03232 -0.41369 0
M  V30 3729 C 360.828 -1.10359 -1.52323 0
M  V30 3730 O 360.186 -0.092395 -1.81064 0
M  V30 3731 C 360.234 -3.48682 -0.919405 0
M  V30 3732 O 359.338 -3.58947 -2.03054 0
M  V30 3733 H 358.679 -0.657428 -0.0931903 0
M  V30 3734 H 361.209 -2.01679 0.34451 0
M  V30 3735 H 361.219 -3.8907 -1.22835 0
M  V30 3736 H 359.894 -4.15761 -0.107339 0
M  V30 3737 H 358.471 -3.30448 -1.72796 0
M  V30 3738 N 360.656 0.0484629 -1.57525 0
M  V30 3739 C 361.619 1.03956 -2.04269 0
M  V30 3740 C 362.619 1.30211 -0.943496 0
M  V30 3741 O 363.809 1.25539 -1.20771 0
M  V30 3742 C 360.941 2.37742 -2.44319 0
M  V30 3743 H 362.134 0.636182 -2.93075 0
M  V30 3744 H 359.687 0.294811 -1.53494 0
M  V30 3745 H 360.422 2.82866 -1.5861 0
M  V30 3746 H 360.207 2.20021 -3.24551 0
M  V30 3747 H 361.697 3.08936 -2.80978 0
M  V30 3748 N 362.134 1.5431 0.320358 0
M  V30 3749 C 363.044 1.86946 1.41734 0
M  V30 3750 C 364.06 0.761689 1.56443 0
M  V30 3751 O 365.236 1.05629 1.71477 0
M  V30 3752 C 362.301 2.09293 2.76401 0
M  V30 3753 C 361.362 3.33082 2.70841 0
M  V30 3754 C 360.595 3.54353 3.99086 0
M  V30 3755 O 360.818 2.79002 4.97508 0
M  V30 3756 O 359.752 4.47838 4.0215 0
M  V30 3757 H 363.578 2.80232 1.17062 0
M  V30 3758 H 361.163 1.40255 0.514673 0
M  V30 3759 H 363.045 2.25303 3.56113 0
M  V30 3760 H 361.72 1.19194 3.00956 0
M  V30 3761 H 360.627 3.22454 1.89668 0
M  V30 3762 H 361.96 4.23249 2.5124 0
M  V30 3763 N 363.613 -0.582584 1.46437 0
M  V30 3764 C 364.838 -1.37168 1.55563 0
M  V30 3765 C 365.263 -1.87061 0.19743 0
M  V30 3766 O 364.621 -1.61572 -0.822451 0
M  V30 3767 C 364.669 -2.53511 2.56446 0
M  V30 3768 O 363.773 -3.54953 2.09958 0
M  V30 3769 H 363.114 -0.408494 0.523477 0
M  V30 3770 H 365.644 -0.706646 1.9201 0
M  V30 3771 H 365.654 -3.00426 2.76058 0
M  V30 3772 H 364.329 -2.16549 3.55076 0
M  V30 3773 H 362.906 -3.14516 2.00334 0
M  V30 3774 N 365.091 -1.34144 -0.827227 0
M  V30 3775 C 366.316 -1.29476 -1.62021 0
M  V30 3776 C 366.741 0.129292 -1.87655 0
M  V30 3777 O 366.099 1.08967 -1.449 0
M  V30 3778 C 366.147 -2.08702 -2.94068 0
M  V30 3779 O 365.251 -1.45359 -3.85933 0
M  V30 3780 H 364.592 -0.444881 -0.492927 0
M  V30 3781 H 367.122 -1.76882 -1.02829 0
M  V30 3782 H 367.132 -2.19898 -3.43669 0
M  V30 3783 H 365.807 -3.12241 -2.74734 0
M  V30 3784 H 364.384 -1.42879 -3.44442 0
M  V30 3785 N 366.569 1.04691 -1.17803 0
M  V30 3786 C 367.816 1.77782 -0.969532 0
M  V30 3787 C 368.144 1.87926 0.501401 0
M  V30 3788 O 367.399 1.37918 1.38842 0
M  V30 3789 C 367.698 3.21467 -1.56186 0
M  V30 3790 C 367.364 3.3137 -3.05786 0
M  V30 3791 C 366.026 3.3378 -3.46619 0
M  V30 3792 C 368.378 3.31976 -4.01797 0
M  V30 3793 C 365.706 3.34431 -4.82051 0
M  V30 3794 C 368.058 3.34167 -5.37136 0
M  V30 3795 C 366.722 3.34866 -5.77426 0
M  V30 3796 H 365.992 0.650549 -0.354777 0
M  V30 3797 H 368.639 1.23006 -1.46772 0
M  V30 3798 H 366.944 3.79203 -0.985515 0
M  V30 3799 H 368.641 3.76652 -1.37602 0
M  V30 3800 H 365.231 3.3021 -2.73238 0
M  V30 3801 H 369.415 3.29311 -3.71306 0
M  V30 3802 H 364.671 3.33285 -5.12573 0
M  V30 3803 H 368.845 3.33585 -6.11305 0
M  V30 3804 H 366.472 3.35124 -6.82346 0
M  V30 3805 N 368.047 0.979072 1.23499 0
M  V30 3806 C 368.997 0.489378 2.22686 0
M  V30 3807 C 369.981 -0.434871 1.54912 0
M  V30 3808 O 371.173 -0.263941 1.75021 0
M  V30 3809 C 368.302 -0.208178 3.42668 0
M  V30 3810 C 367.388 0.735563 4.17672 0
M  V30 3811 N 367.779 1.87763 4.69658 0
M  V30 3812 C 366.077 0.548625 4.42613 0
M  V30 3813 C 366.778 2.46886 5.26709 0
M  V30 3814 N 365.754 1.75287 5.14563 0
M  V30 3815 H 369.556 1.36062 2.60508 0
M  V30 3816 H 367.07 0.83958 1.39014 0
M  V30 3817 H 369.067 -0.576295 4.12898 0
M  V30 3818 H 367.727 -1.07572 3.06363 0
M  V30 3819 H 368.738 2.25885 4.66043 0
M  V30 3820 H 365.415 -0.274006 4.166 0
M  V30 3821 H 366.805 3.43326 5.77561 0
M  V30 3822 N 369.525 -1.3858 0.750561 0
M  V30 3823 C 370.755 -2.04175 0.31564 0
M  V30 3824 C 371.163 -1.56726 -1.05989 0
M  V30 3825 O 370.506 -0.734225 -1.68389 0
M  V30 3826 C 370.568 -3.58585 0.256389 0
M  V30 3827 C 370.232 -4.29077 1.57296 0
M  V30 3828 C 371.229 -4.54656 2.52159 0
M  V30 3829 C 368.914 -4.67324 1.84156 0
M  V30 3830 C 370.908 -5.17512 3.72103 0
M  V30 3831 C 368.595 -5.29905 3.04374 0
M  V30 3832 C 369.593 -5.54933 3.98168 0
M  V30 3833 O 369.281 -6.16212 5.16273 0
M  V30 3834 H 369.013 -0.662742 0.133226 0
M  V30 3835 H 371.567 -1.78313 1.01948 0
M  V30 3836 H 369.797 -3.83406 -0.503677 0
M  V30 3837 H 371.486 -4.05628 -0.148612 0
M  V30 3838 H 372.252 -4.25539 2.32683 0
M  V30 3839 H 368.131 -4.47191 1.11988 0
M  V30 3840 H 371.675 -5.36963 4.45327 0
M  V30 3841 H 367.572 -5.58444 3.23745 0
M  V30 3842 H 368.34 -6.34701 5.16815 0
M  V30 3843 N 371.003 -0.499398 -1.49478 0
M  V30 3844 C 372.419 -0.155261 -1.58843 0
M  V30 3845 C 372.619 1.34008 -1.50479 0
M  V30 3846 O 371.675 2.11589 -1.37791 0
M  V30 3847 C 372.988 -0.730636 -2.91689 0
M  V30 3848 C 374.536 -0.696599 -3.0515 0
M  V30 3849 C 375.011 -1.25001 -4.40612 0
M  V30 3850 N 376.502 -1.21064 -4.47099 0
M  V30 3851 C 377.237 -1.60905 -5.50361 0
M  V30 3852 N 376.733 -2.08331 -6.60735 0
M  V30 3853 N 378.526 -1.52331 -5.41065 0
M  V30 3854 H 370.677 -1.47162 -1.53158 0
M  V30 3855 H 372.94 -0.610309 -0.725415 0
M  V30 3856 H 372.646 -1.77928 -3.03372 0
M  V30 3857 H 372.52 -0.190161 -3.7672 0
M  V30 3858 H 374.907 0.343204 -2.93097 0
M  V30 3859 H 374.988 -1.2742 -2.21806 0
M  V30 3860 H 374.632 -2.28859 -4.53416 0
M  V30 3861 H 374.562 -0.64836 -5.22593 0
M  V30 3862 H 377.053 -0.863128 -3.67911 0
M  V30 3863 H 377.366 -2.36805 -7.35624 0
M  V30 3864 H 375.711 -2.12304 -6.6178 0
M  V30 3865 H 378.902 -1.151 -4.53729 0
M  V30 3866 H 379.075 -1.83704 -6.21415 0
M  V30 3867 N 372.481 1.55866 -0.233164 0
M  V30 3868 C 373.897 1.59133 0.121988 0
M  V30 3869 C 374.097 1.25016 1.58029 0
M  V30 3870 O 373.153 0.990922 2.32243 0
M  V30 3871 C 374.466 2.99932 -0.214792 0
M  V30 3872 C 376.014 3.12601 -0.157971 0
M  V30 3873 C 376.489 4.55597 -0.46859 0
M  V30 3874 N 377.98 4.61305 -0.418585 0
M  V30 3875 C 378.715 5.69903 -0.63227 0
M  V30 3876 N 378.211 6.86819 -0.90835 0
M  V30 3877 N 380.004 5.59264 -0.563913 0
M  V30 3878 H 372.155 1.76315 -1.18434 0
M  V30 3879 H 374.418 0.820093 -0.475553 0
M  V30 3880 H 374.124 3.29588 -1.22739 0
M  V30 3881 H 373.998 3.74327 0.464691 0
M  V30 3882 H 376.385 2.82735 0.845283 0
M  V30 3883 H 376.466 2.40511 -0.871102 0
M  V30 3884 H 376.11 4.86182 -1.46934 0
M  V30 3885 H 376.04 5.25928 0.265865 0
M  V30 3886 H 378.531 3.77297 -0.213368 0
M  V30 3887 H 378.844 7.65507 -1.05919 0
M  V30 3888 H 377.189 6.88536 -0.945673 0
M  V30 3889 H 380.38 4.66802 -0.348372 0
M  V30 3890 H 380.553 6.43831 -0.733847 0
M  V30 3891 N 373.959 -0.0401083 1.57549 0
M  V30 3892 C 374.907 -1.06264 2.06908 0
M  V30 3893 C 375.901 -1.38132 0.980608 0
M  V30 3894 O 377.107 -1.37167 1.16556 0
M  V30 3895 H 373.482 -0.360166 0.660139 0
M  V30 3896 H 375.453 -0.620445 2.91878 0
M  V30 3897 C 374.202 -2.35846 2.55483 0
M  V30 3898 H 373.525 -2.12183 3.38849 0
M  V30 3899 H 374.965 -3.05765 2.93741 0
M  V30 3900 C 373.424 -3.0404 1.45126 0
M  V30 3901 O 373.954 -3.93424 0.811216 0
M  V30 3902 N 372.16 -2.65184 1.18852 0
M  V30 3903 H 371.707 -1.92584 1.71083 0
M  V30 3904 H 371.665 -3.1113 0.452244 0
M  V30 3905 N 375.437 -1.54477 -0.31217 0
M  V30 3906 C 376.848 -1.64344 -0.885891 0
M  V30 3907 C 377.199 -0.54485 -1.88483 0
M  V30 3908 O 376.324 0.320387 -2.14015 0
M  V30 3909 C 376.919 -2.97908 -1.61357 0
M  V30 3910 C 375.478 -3.09933 -2.13585 0
M  V30 3911 C 374.625 -2.59971 -0.964897 0
M  V30 3912 H 377.576 -1.58448 -0.0894528 0
M  V30 3913 H 377.597 -2.88706 -2.47848 0
M  V30 3914 H 377.109 -3.77845 -0.886277 0
M  V30 3915 H 375.21 -2.34694 -2.89395 0
M  V30 3916 H 375.323 -4.15916 -2.37804 0
M  V30 3917 H 373.687 -2.16147 -1.34731 0
M  V30 3918 H 374.47 -3.42376 -0.251742 0
M  V30 3919 N 376.915 0.57481 -1.46744 0
M  V30 3920 C 377.845 1.69337 -1.60771 0
M  V30 3921 C 378.826 1.63825 -0.457736 0
M  V30 3922 O 380.011 1.8172 -0.684947 0
M  V30 3923 C 377.141 3.0798 -1.60517 0
M  V30 3924 C 376.095 3.28327 -2.74564 0
M  V30 3925 C 375.421 4.67578 -2.59373 0
M  V30 3926 C 376.721 3.15398 -4.16319 0
M  V30 3927 H 378.415 1.57853 -2.54407 0
M  V30 3928 H 375.961 0.75799 -1.22436 0
M  V30 3929 H 377.914 3.86061 -1.68923 0
M  V30 3930 H 376.638 3.20381 -0.634305 0
M  V30 3931 H 375.297 2.52649 -2.65639 0
M  V30 3932 H 374.945 4.76755 -1.60353 0
M  V30 3933 H 374.645 4.82144 -3.35873 0
M  V30 3934 H 376.169 5.47817 -2.69682 0
M  V30 3935 H 377.583 3.83315 -4.26313 0
M  V30 3936 H 375.98 3.41482 -4.93468 0
M  V30 3937 H 377.05 2.12372 -4.3592 0
M  V30 3938 N 378.394 1.34581 0.820102 0
M  V30 3939 C 379.642 1.26845 1.57336 0
M  V30 3940 C 379.963 -0.160667 1.94337 0
M  V30 3941 O 379.233 -1.09396 1.6251 0
M  V30 3942 H 377.813 0.466514 0.583415 0
M  V30 3943 H 380.475 1.68526 0.979027 0
M  V30 3944 H 379.571 1.87513 2.4949 0
M  V30 3945 N 379.872 -1.04064 1.18357 0
M  V30 3946 C 381.149 -1.74252 0.888581 0
M  V30 3947 C 381.529 -2.02138 -0.60856 0
M  V30 3948 O 380.877 -1.66656 -1.56327 0
M  V30 3949 C 381.087 -3.0277 1.73584 0
M  V30 3950 C 382.435 -3.76506 1.96286 0
M  V30 3951 O 383.459 -3.12668 1.70637 0
M  V30 3952 O 382.318 -4.91243 2.39464 0
M  V30 3953 H 379.412 -0.758271 0.330082 0
M  V30 3954 H 381.958 -1.1013 1.2911 0
M  V30 3955 H 380.73 -2.78299 2.75073 0
M  V30 3956 H 380.353 -3.74631 1.33183 0
M  V30 3957 N 381.35 -0.985608 -1.22978 0
M  V30 3958 C 382.28 -0.549649 -2.26939 0
M  V30 3959 C 383.261 0.419803 -1.64838 0
M  V30 3960 O 384.446 0.31203 -1.91677 0
M  V30 3961 C 381.576 0.143652 -3.47003 0
M  V30 3962 C 380.53 -0.743606 -4.21491 0
M  V30 3963 C 379.856 0.0822027 -5.34637 0
M  V30 3964 C 381.156 -2.03694 -4.80943 0
M  V30 3965 H 382.85 -1.41862 -2.63658 0
M  V30 3966 H 380.396 -0.683571 -1.26741 0
M  V30 3967 H 382.349 0.459985 -4.18882 0
M  V30 3968 H 381.073 1.04711 -3.09359 0
M  V30 3969 H 379.732 -1.04347 -3.51436 0
M  V30 3970 H 379.38 0.986359 -4.93234 0
M  V30 3971 H 379.08 -0.508377 -5.85397 0
M  V30 3972 H 380.604 0.392797 -6.09335 0
M  V30 3973 H 382.018 -1.78504 -5.44802 0
M  V30 3974 H 380.415 -2.57573 -5.42011 0
M  V30 3975 H 381.485 -2.72042 -4.01399 0
M  V30 3976 N 382.828 1.3818 -0.7579 0
M  V30 3977 C 383.761 2.28055 -0.0814093 0
M  V30 3978 C 384.739 1.45603 0.723779 0
M  V30 3979 O 385.923 1.74961 0.701491 0
M  V30 3980 C 383.05 3.2676 0.891394 0
M  V30 3981 C 382.096 4.26153 0.171909 0
M  V30 3982 S 382.929 5.23434 -1.13035 0
M  V30 3983 C 384.085 6.25694 -0.160727 0
M  V30 3984 H 384.318 2.85082 -0.84353 0
M  V30 3985 H 381.851 1.44246 -0.550671 0
M  V30 3986 H 383.809 3.8414 1.44731 0
M  V30 3987 H 382.47 2.68706 1.62652 0
M  V30 3988 H 381.663 4.95738 0.908843 0
M  V30 3989 H 381.265 3.72691 -0.312606 0
M  V30 3990 H 383.557 6.74161 0.671773 0
M  V30 3991 H 384.5 7.03285 -0.824353 0
M  V30 3992 H 384.908 5.64064 0.221892 0
M  V30 3993 N 384.306 0.507319 1.49211 0
M  V30 3994 C 385.216 -0.272136 2.33016 0
M  V30 3995 C 386.232 -0.961206 1.45041 0
M  V30 3996 O 387.408 -0.941191 1.78055 0
M  V30 3997 C 384.473 -1.31895 3.20631 0
M  V30 3998 C 383.534 -0.642648 4.24463 0
M  V30 3999 C 382.767 -1.63959 5.07891 0
M  V30 4000 O 382.99 -2.87007 4.92933 0
M  V30 4001 O 381.924 -1.19143 5.8999 0
M  V30 4002 H 385.75 0.413982 3.00865 0
M  V30 4003 H 383.335 0.268556 1.46966 0
M  V30 4004 H 385.217 -1.92446 3.7489 0
M  V30 4005 H 383.892 -1.98788 2.5547 0
M  V30 4006 H 382.799 0.00276252 3.741 0
M  V30 4007 H 384.132 -0.0160534 4.92197 0
M  V30 4008 N 385.784 -1.5574 0.241426 0
M  V30 4009 C 386.734 -2.17803 -0.674233 0
M  V30 4010 C 387.718 -1.13225 -1.14319 0
M  V30 4011 O 388.91 -1.39153 -1.09387 0
M  V30 4012 C 386.039 -2.87682 -1.87333 0
M  V30 4013 C 385.125 -3.99509 -1.42313 0
M  V30 4014 N 385.516 -5.01115 -0.686798 0
M  V30 4015 C 383.814 -4.11964 -1.70885 0
M  V30 4016 C 384.515 -5.79922 -0.454456 0
M  V30 4017 N 383.491 -5.34001 -1.01705 0
M  V30 4018 H 387.293 -2.93718 -0.103447 0
M  V30 4019 H 384.807 -1.62342 0.0435095 0
M  V30 4020 H 386.804 -3.3057 -2.54026 0
M  V30 4021 H 385.464 -2.13269 -2.4484 0
M  V30 4022 H 386.475 -5.16799 -0.337459 0
M  V30 4023 H 383.152 -3.48718 -2.2957 0
M  V30 4024 H 384.542 -6.71768 0.132992 0
M  V30 4025 N 387.262 0.0317525 -1.57568 0
M  V30 4026 C 388.192 1.03274 -2.0942 0
M  V30 4027 C 389.173 1.3788 -0.996143 0
M  V30 4028 O 390.358 1.46811 -1.27122 0
M  V30 4029 C 387.488 2.33448 -2.57137 0
M  V30 4030 C 386.442 2.13091 -3.71182 0
M  V30 4031 C 385.768 3.49001 -4.05095 0
M  V30 4032 C 387.068 1.51928 -4.99715 0
M  V30 4033 H 388.762 0.60112 -2.93303 0
M  V30 4034 H 386.308 0.287705 -1.41097 0
M  V30 4035 H 388.261 3.03802 -2.92032 0
M  V30 4036 H 386.985 2.78665 -1.70333 0
M  V30 4037 H 385.644 1.45171 -3.36632 0
M  V30 4038 H 385.292 3.91862 -3.15362 0
M  V30 4039 H 384.992 3.36207 -4.81911 0
M  V30 4040 H 386.516 4.20721 -4.42522 0
M  V30 4041 H 387.93 2.12196 -5.32584 0
M  V30 4042 H 386.327 1.49716 -5.81124 0
M  V30 4043 H 387.397 0.484811 -4.8247 0
M  V30 4044 N 388.74 1.54641 0.303973 0
M  V30 4045 C 389.986 1.74038 1.04109 0
M  V30 4046 C 390.319 0.523051 1.87024 0
M  V30 4047 O 389.594 -0.479874 1.88487 0
M  V30 4048 C 389.877 3.02761 1.94955 0
M  V30 4049 C 389.73 4.34787 1.1524 0
M  V30 4050 C 391.049 3.27336 2.94175 0
M  V30 4051 H 388.168 0.63323 0.377079 0
M  V30 4052 H 390.81 1.87354 0.316001 0
M  V30 4053 H 388.96 2.9154 2.56782 0
M  V30 4054 H 390.632 4.57922 0.557236 0
M  V30 4055 H 388.875 4.31407 0.455053 0
M  V30 4056 H 389.546 5.21116 1.8205 0
M  V30 4057 H 392.022 3.38148 2.42477 0
M  V30 4058 H 390.898 4.18726 3.54908 0
M  V30 4059 H 391.159 2.45491 3.67677 0
M  V30 4060 N 390.218 -0.567019 1.47046 0
M  V30 4061 C 391.629 -1.14916 1.47143 0
M  V30 4062 C 391.98 -1.94954 0.220767 0
M  V30 4063 O 391.105 -2.05602 -0.67505 0
M  V30 4064 C 391.7 -2.09069 2.666 0
M  V30 4065 C 390.259 -2.62575 2.69687 0
M  V30 4066 C 389.406 -1.38755 2.40088 0
M  V30 4067 H 392.357 -0.354126 1.54699 0
M  V30 4068 H 392.378 -2.92789 2.43011 0
M  V30 4069 H 391.89 -1.50789 3.57609 0
M  V30 4070 H 389.991 -3.24681 1.82792 0
M  V30 4071 H 390.104 -3.04239 3.70102 0
M  V30 4072 H 388.468 -1.69098 1.90468 0
M  V30 4073 H 389.251 -0.822822 3.33293 0
M  V30 4074 N 391.696 -1.35014 -0.812953 0
M  V30 4075 C 392.646 -1.23959 -1.91359 0
M  V30 4076 C 393.63 -0.136306 -1.60322 0
M  V30 4077 O 394.822 -0.366925 -1.73155 0
M  V30 4078 C 391.951 -1.00736 -3.28188 0
M  V30 4079 C 391.037 -2.15426 -3.65311 0
M  V30 4080 N 391.428 -3.40612 -3.73921 0
M  V30 4081 C 389.726 -2.06672 -3.95225 0
M  V30 4082 C 390.427 -4.15994 -4.06601 0
M  V30 4083 N 389.403 -3.44685 -4.20349 0
M  V30 4084 H 393.205 -2.18815 -1.96208 0
M  V30 4085 H 390.719 -1.27395 -1.00718 0
M  V30 4086 H 392.716 -0.909052 -4.06868 0
M  V30 4087 H 391.376 -0.067586 -3.2463 0
M  V30 4088 H 392.387 -3.75043 -3.5716 0
M  V30 4089 H 389.064 -1.20511 -3.99729 0
M  V30 4090 H 390.454 -5.24145 -4.20382 0
M  V30 4091 N 393.175 1.03435 -1.18907 0
M  V30 4092 C 394.586 1.58195 -0.991523 0
M  V30 4093 C 394.937 1.90801 0.457081 0
M  V30 4094 O 394.062 1.70272 1.33553 0
M  V30 4095 C 394.657 2.87432 -1.79355 0
M  V30 4096 C 393.216 3.38785 -1.64017 0
M  V30 4097 C 392.363 2.12292 -1.78402 0
M  V30 4098 H 395.314 0.860299 -1.33359 0
M  V30 4099 H 395.335 3.58096 -1.28638 0
M  V30 4100 H 394.847 2.63669 -2.84781 0
M  V30 4101 H 392.948 3.67547 -0.611536 0
M  V30 4102 H 393.061 4.12186 -2.44212 0
M  V30 4103 H 391.425 2.23901 -1.2141 0
M  V30 4104 H 392.208 1.90977 -2.85277 0
M  V30 4105 N 394.653 0.992116 1.22453 0
M  V30 4106 C 395.563 0.55065 2.28046 0
M  V30 4107 C 396.579 -0.400189 1.69335 0
M  V30 4108 O 397.755 -0.267215 1.99619 0
M  V30 4109 C 394.82 -0.128496 3.46462 0
M  V30 4110 C 393.881 0.865208 4.20491 0
M  V30 4111 C 393.114 0.218377 5.33253 0
M  V30 4112 O 393.337 -0.987894 5.6178 0
M  V30 4113 O 392.271 0.922845 5.94783 0
M  V30 4114 H 396.097 1.4291 2.67975 0
M  V30 4115 H 393.682 0.760326 1.28606 0
M  V30 4116 H 395.564 -0.508947 4.18315 0
M  V30 4117 H 394.239 -0.981526 3.0846 0
M  V30 4118 H 393.146 1.29658 3.50913 0
M  V30 4119 H 394.479 1.68741 4.62371 0
M  V30 4120 N 396.131 -1.37776 0.765217 0
M  V30 4121 C 397.378 -1.99849 0.326588 0
M  V30 4122 C 397.706 -1.60746 -1.09504 0
M  V30 4123 O 396.961 -0.84202 -1.76659 0
M  V30 4124 C 397.26 -3.5504 0.410053 0
M  V30 4125 C 396.926 -4.13891 1.78899 0
M  V30 4126 C 395.588 -4.29678 2.16635 0
M  V30 4127 C 397.94 -4.46236 2.69301 0
M  V30 4128 C 395.268 -4.7511 3.44221 0
M  V30 4129 C 397.62 -4.93089 3.9629 0
M  V30 4130 C 396.284 -5.07082 4.34078 0
M  V30 4131 H 395.554 -0.7313 0.119507 0
M  V30 4132 H 398.201 -1.64645 0.977968 0
M  V30 4133 H 396.506 -3.90451 -0.324878 0
M  V30 4134 H 398.203 -4.00966 0.0520699 0
M  V30 4135 H 394.793 -4.02026 1.48569 0
M  V30 4136 H 398.977 -4.3363 2.41409 0
M  V30 4137 H 394.233 -4.84129 3.73402 0
M  V30 4138 H 398.407 -5.17084 4.66472 0
M  V30 4139 H 396.034 -5.42046 5.33001 0
M  V30 4140 N 397.609 -0.515225 -1.4894 0
M  V30 4141 C 398.556 0.255567 -2.29381 0
M  V30 4142 C 399.526 0.947387 -1.36432 0
M  V30 4143 O 400.711 0.951288 -1.65394 0
M  V30 4144 C 397.851 1.30551 -3.19453 0
M  V30 4145 C 396.964 0.624029 -4.27469 0
M  V30 4146 C 396.099 1.65563 -5.0474 0
M  V30 4147 C 395.138 0.956802 -6.04576 0
M  V30 4148 N 394.275 1.93326 -6.74959 0
M  V30 4149 H 399.115 -0.436607 -2.94784 0
M  V30 4150 H 396.652 -0.227154 -1.45336 0
M  V30 4151 H 398.61 1.92639 -3.70062 0
M  V30 4152 H 397.24 1.96626 -2.56004 0
M  V30 4153 H 396.292 -0.110459 -3.8024 0
M  V30 4154 H 397.604 0.0746092 -4.98744 0
M  V30 4155 H 396.758 2.35119 -5.59289 0
M  V30 4156 H 395.497 2.23893 -4.3327 0
M  V30 4157 H 394.502 0.247097 -5.49244 0
M  V30 4158 H 395.727 0.379814 -6.78037 0
M  V30 4159 H 393.673 2.50591 -6.06251 0
M  V30 4160 H 393.59 1.43489 -7.42258 0
M  V30 4161 H 394.858 2.62126 -7.34105 0
M  V30 4162 N 399.087 1.5561 -0.249682 0
M  V30 4163 C 400.02 2.17537 0.689408 0
M  V30 4164 C 400.998 1.12829 1.17083 0
M  V30 4165 O 402.182 1.41229 1.24846 0
M  V30 4166 C 399.309 2.77828 1.93725 0
M  V30 4167 C 398.355 3.95615 1.59346 0
M  V30 4168 S 399.188 5.30988 0.69367 0
M  V30 4169 C 400.344 5.94734 1.95046 0
M  V30 4170 H 400.577 2.96852 0.163142 0
M  V30 4171 H 398.11 1.54362 -0.0341166 0
M  V30 4172 H 400.068 3.13199 2.65361 0
M  V30 4173 H 398.729 1.98454 2.43465 0
M  V30 4174 H 397.922 4.364 2.52132 0
M  V30 4175 H 397.524 3.61535 0.957512 0
M  V30 4176 H 399.816 6.12419 2.89739 0
M  V30 4177 H 400.759 6.90109 1.58604 0
M  V30 4178 H 401.167 5.23832 2.10381 0
M  V30 4179 N 400.565 -0.0233959 1.57583 0
M  V30 4180 C 401.495 -1.02162 2.09965 0
M  V30 4181 C 402.476 -1.3735 1.00344 0
M  V30 4182 O 403.661 -1.46135 1.27899 0
M  V30 4183 C 400.791 -2.32081 2.58371 0
M  V30 4184 C 399.745 -2.1112 3.72307 0
M  V30 4185 C 399.071 -3.46848 4.06941 0
M  V30 4186 C 400.371 -1.49276 5.00514 0
M  V30 4187 H 402.065 -0.585557 2.93618 0
M  V30 4188 H 399.611 -0.280218 1.41247 0
M  V30 4189 H 401.564 -3.02249 2.93639 0
M  V30 4190 H 400.288 -2.77758 1.71808 0
M  V30 4191 H 398.947 -1.43384 3.37397 0
M  V30 4192 H 398.595 -3.90184 3.17436 0
M  V30 4193 H 398.295 -3.33646 4.83688 0
M  V30 4194 H 399.819 -4.18369 4.44747 0
M  V30 4195 H 401.233 -2.09368 5.33702 0
M  V30 4196 H 399.63 -1.46632 5.8191 0
M  V30 4197 H 400.7 -0.459217 4.82721 0
M  V30 4198 N 402.043 -1.548 -0.295768 0
M  V30 4199 C 403.268 -1.78653 -1.05346 0
M  V30 4200 C 403.693 -0.546894 -1.79974 0
M  V30 4201 O 403.051 0.502763 -1.7419 0
M  V30 4202 C 403.099 -2.99679 -2.00561 0
M  V30 4203 O 402.203 -2.7317 -3.08953 0
M  V30 4204 H 401.544 -0.59116 -0.302367 0
M  V30 4205 H 404.074 -2.01895 -0.331598 0
M  V30 4206 H 404.084 -3.27793 -2.42932 0
M  V30 4207 H 402.759 -3.89562 -1.4565 0
M  V30 4208 H 401.336 -2.56089 -2.71059 0
M  V30 4209 N 403.521 0.559213 -1.47345 0
M  V30 4210 C 404.767 1.31843 -1.54095 0
M  V30 4211 C 405.1 1.93149 -0.201726 0
M  V30 4212 O 404.375 1.77759 0.789428 0
M  V30 4213 C 404.658 2.43006 -2.65744 0
M  V30 4214 C 404.511 1.86581 -4.09277 0
M  V30 4215 C 405.83 3.44943 -2.73318 0
M  V30 4216 H 402.949 0.478012 -0.560957 0
M  V30 4217 H 405.591 0.625977 -1.79392 0
M  V30 4218 H 403.741 3.02072 -2.44305 0
M  V30 4219 H 405.413 1.31792 -4.42073 0
M  V30 4220 H 403.656 1.17268 -4.17649 0
M  V30 4221 H 404.327 2.66933 -4.83168 0
M  V30 4222 H 406.803 2.95793 -2.92653 0
M  V30 4223 H 405.679 4.20153 -3.53218 0
M  V30 4224 H 405.94 4.03665 -1.80296 0
M  V30 4225 N 404.999 1.35443 0.805782 0
M  V30 4226 C 406.415 1.15499 1.10146 0
M  V30 4227 C 406.615 -0.0319975 2.01475 0
M  V30 4228 O 405.671 -0.70236 2.42535 0
M  V30 4229 C 406.984 2.45833 1.73166 0
M  V30 4230 C 408.532 2.52047 1.85583 0
M  V30 4231 C 409.007 3.82427 2.52019 0
M  V30 4232 N 410.498 3.83682 2.59504 0
M  V30 4233 C 411.233 4.81294 3.11679 0
M  V30 4234 N 410.729 5.89294 3.64287 0
M  V30 4235 N 412.522 4.6873 3.1024 0
M  V30 4236 H 404.673 2.11469 0.198678 0
M  V30 4237 H 406.936 0.93594 0.150731 0
M  V30 4238 H 406.642 3.32874 1.13526 0
M  V30 4239 H 406.516 2.6044 2.72857 0
M  V30 4240 H 408.903 1.65435 2.44367 0
M  V30 4241 H 408.984 2.41354 0.847455 0
M  V30 4242 H 408.628 4.69437 1.93885 0
M  V30 4243 H 408.558 3.90409 3.53395 0
M  V30 4244 H 411.049 3.05648 2.22234 0
M  V30 4245 H 411.362 6.59768 4.02401 0
M  V30 4246 H 409.707 5.92985 3.62483 0
M  V30 4247 H 412.898 3.83496 2.68419 0
M  V30 4248 H 413.071 5.44965 3.50596 0
M  V30 4249 N 406.477 -1.02803 1.19454 0
M  V30 4250 C 407.425 -2.13213 0.929673 0
M  V30 4251 C 408.419 -1.69011 -0.114806 0
M  V30 4252 O 409.625 -1.79967 0.0345147 0
M  V30 4253 H 406 -0.69662 0.28324 0
M  V30 4254 H 407.971 -2.32744 1.86743 0
M  V30 4255 C 406.72 -3.4429 0.485797 0
M  V30 4256 H 406.043 -3.7872 1.28105 0
M  V30 4257 H 407.483 -4.22638 0.339582 0
M  V30 4258 C 405.942 -3.27258 -0.800244 0
M  V30 4259 O 406.472 -3.55967 -1.86146 0
M  V30 4260 N 404.678 -2.80545 -0.75781 0
M  V30 4261 H 404.225 -2.57382 0.106039 0
M  V30 4262 H 404.183 -2.6953 -1.61867 0
M  V30 4263 N 407.956 -0.998596 -1.21925 0
M  V30 4264 C 409.205 -0.673085 -1.90138 0
M  V30 4265 C 409.518 0.79895 -1.78539 0
M  V30 4266 O 410.724 1.23628 -2.4172 0
M  V30 4267 C 409.18 -1.15339 -3.40918 0
M  V30 4268 C 408.788 -2.65106 -3.61141 0
M  V30 4269 C 410.532 -0.902476 -4.14796 0
M  V30 4270 C 408.439 -3.0671 -5.05651 0
M  V30 4271 H 407.369 -0.248057 -0.712028 0
M  V30 4272 H 410.02 -1.20891 -1.38049 0
M  V30 4273 H 408.402 -0.545658 -3.92223 0
M  V30 4274 H 409.576 -3.31274 -3.20304 0
M  V30 4275 H 407.891 -2.88142 -3.00605 0
M  V30 4276 H 410.488 -1.18895 -5.21314 0
M  V30 4277 H 410.831 0.161349 -4.15987 0
M  V30 4278 H 411.364 -1.47269 -3.69536 0
M  V30 4279 H 408.103 -4.12292 -5.09603 0
M  V30 4280 H 407.623 -2.45249 -5.47369 0
M  V30 4281 H 409.302 -2.9833 -5.74115 0
M  V30 4282 N 409.434 1.37368 -0.772513 0
M  V30 4283 C 410.845 1.8231 -0.402493 0
M  V30 4284 C 411.196 1.6436 1.07146 0
M  V30 4285 O 410.321 1.15514 1.82991 0
M  V30 4286 C 410.916 3.30979 -0.723776 0
M  V30 4287 C 409.475 3.74195 -0.406802 0
M  V30 4288 C 408.622 2.59885 -0.967218 0
M  V30 4289 H 411.573 1.25829 -0.967099 0
M  V30 4290 H 411.594 3.80499 -0.00870832 0
M  V30 4291 H 411.106 3.44011 -1.7966 0
M  V30 4292 H 409.207 3.66732 0.658673 0
M  V30 4293 H 409.32 4.7027 -0.915588 0
M  V30 4294 H 407.684 2.51674 -0.391416 0
M  V30 4295 H 408.467 2.7571 -2.04546 0
M  V30 4296 N 410.912 0.523116 1.48665 0
M  V30 4297 C 411.862 -0.263106 2.26477 0
M  V30 4298 C 412.846 -0.916005 1.32281 0
M  V30 4299 O 414.038 -0.819946 1.56863 0
M  V30 4300 C 411.167 -1.31361 3.17174 0
M  V30 4301 C 410.253 -0.665849 4.1884 0
M  V30 4302 N 410.644 0.244434 5.05209 0
M  V30 4303 C 408.942 -0.923863 4.36326 0
M  V30 4304 C 409.643 0.617443 5.78414 0
M  V30 4305 N 408.619 -0.0198686 5.43596 0
M  V30 4306 H 412.421 0.437295 2.90629 0
M  V30 4307 H 409.935 0.340675 1.58787 0
M  V30 4308 H 411.932 -1.89052 3.71571 0
M  V30 4309 H 410.592 -2.01546 2.54576 0
M  V30 4310 H 411.603 0.616621 5.14216 0
M  V30 4311 H 408.28 -1.6168 3.84923 0
M  V30 4312 H 409.67 1.36346 6.57921 0
M  V30 4313 N 412.39 -1.55475 0.257931 0
M  V30 4314 C 413.323 -2.179 -0.677862 0
M  V30 4315 C 414.301 -1.13448 -1.16483 0
M  V30 4316 O 415.485 -1.41889 -1.24095 0
M  V30 4317 C 412.612 -2.78851 -1.92249 0
M  V30 4318 C 411.658 -3.96454 -1.57246 0
M  V30 4319 S 412.491 -5.31349 -0.665501 0
M  V30 4320 C 413.647 -5.9576 -1.91889 0
M  V30 4321 H 413.88 -2.96934 -0.147396 0
M  V30 4322 H 411.413 -1.54342 0.0423023 0
M  V30 4323 H 413.371 -3.14602 -2.63697 0
M  V30 4324 H 412.032 -1.99742 -2.42409 0
M  V30 4325 H 411.225 -4.37731 -2.49814 0
M  V30 4326 H 410.827 -3.62038 -0.938325 0
M  V30 4327 H 413.119 -6.13947 -2.86487 0
M  V30 4328 H 414.062 -6.9094 -1.54942 0
M  V30 4329 H 414.47 -5.2494 -2.076 0
M  V30 4330 N 413.868 0.0150385 -1.57593 0
M  V30 4331 C 415.093 0.718067 -1.94573 0
M  V30 4332 C 415.518 1.6734 -0.859005 0
M  V30 4333 O 414.876 1.80362 0.184147 0
M  V30 4334 C 414.924 1.43918 -3.30636 0
M  V30 4335 O 414.028 2.55299 -3.23876 0
M  V30 4336 H 413.369 0.192125 -0.635597 0
M  V30 4337 H 415.899 -0.0336708 -2.04572 0
M  V30 4338 H 415.909 1.80598 -3.65853 0
M  V30 4339 H 414.584 0.738619 -4.09289 0
M  V30 4340 H 413.161 2.21058 -3.00312 0
M  V30 4341 N 415.346 1.54954 0.287554 0
M  V30 4342 C 416.256 1.8991 1.37736 0
M  V30 4343 C 417.272 0.794701 1.54792 0
M  V30 4344 O 418.448 1.09243 1.69198 0
M  V30 4345 C 415.513 2.15108 2.71899 0
M  V30 4346 C 414.574 3.38752 2.63715 0
M  V30 4347 C 413.807 3.62739 3.91479 0
M  V30 4348 O 414.03 2.89492 4.91478 0
M  V30 4349 O 412.964 4.56267 3.92561 0
M  V30 4350 H 416.79 2.82652 1.11092 0
M  V30 4351 H 414.375 1.41315 0.484807 0
M  V30 4352 H 416.257 2.32806 3.51254 0
M  V30 4353 H 414.932 1.25551 2.9836 0
M  V30 4354 H 413.839 3.26405 1.82786 0
M  V30 4355 H 415.172 4.28483 2.42205 0
M  V30 4356 N 416.824 -0.551391 1.4764 0
M  V30 4357 C 417.772 -1.67896 1.60978 0
M  V30 4358 C 418.766 -1.62549 0.476877 0
M  V30 4359 O 419.972 -1.67664 0.654878 0
M  V30 4360 H 416.347 -0.555649 0.506713 0
M  V30 4361 H 418.318 -1.53784 2.55721 0
M  V30 4362 C 417.067 -3.06234 1.64669 0
M  V30 4363 H 416.39 -3.11033 2.51194 0
M  V30 4364 H 417.83 -3.84804 1.7805 0
M  V30 4365 C 416.289 -3.34737 0.381115 0
M  V30 4366 O 416.819 -3.98381 -0.515297 0
M  V30 4367 N 415.025 -2.8944 0.259354 0
M  V30 4368 H 414.572 -2.37827 0.98976 0
M  V30 4369 H 414.53 -3.08882 -0.586464 0
M  V30 4370 N 418.302 -1.35869 -0.798587 0
M  V30 4371 C 419.527 -1.32883 -1.59238 0
M  V30 4372 C 419.952 0.0894587 -1.87887 0
M  V30 4373 O 419.31 1.05869 -1.47178 0
M  V30 4374 C 419.358 -2.14892 -2.89575 0
M  V30 4375 O 418.462 -1.53512 -3.82763 0
M  V30 4376 H 417.803 -0.455236 -0.48338 0
M  V30 4377 H 420.333 -1.79024 -0.990539 0
M  V30 4378 H 420.343 -2.27139 -3.38928 0
M  V30 4379 H 419.018 -3.17998 -2.68049 0
M  V30 4380 H 417.595 -1.50153 -3.41334 0
M  V30 4381 N 419.78 1.02168 -1.19998 0
M  V30 4382 C 420.71 2.12488 -0.96804 0
M  V30 4383 C 421.691 1.69799 0.101185 0
M  V30 4384 O 422.876 1.94121 -0.0552993 0
M  V30 4385 C 420.006 3.43479 -0.513776 0
M  V30 4386 C 418.96 3.99884 -1.52566 0
M  V30 4387 C 418.286 5.26582 -0.928214 0
M  V30 4388 C 419.586 4.33861 -2.90795 0
M  V30 4389 H 421.28 2.32149 -1.89069 0
M  V30 4390 H 418.826 1.11564 -0.910468 0
M  V30 4391 H 420.779 4.20036 -0.338774 0
M  V30 4392 H 419.503 3.23561 0.444493 0
M  V30 4393 H 418.162 3.25429 -1.68794 0
M  V30 4394 H 417.81 5.02986 0.0378289 0
M  V30 4395 H 417.51 5.65284 -1.60397 0
M  V30 4396 H 419.034 6.05799 -0.764167 0
M  V30 4397 H 420.448 5.01327 -2.78109 0
M  V30 4398 H 418.845 4.83664 -3.55231 0
M  V30 4399 H 419.915 3.42848 -3.42904 0
M  V30 4400 N 421.258 1.00505 1.21394 0
M  V30 4401 C 422.221 0.570459 2.21987 0
M  V30 4402 C 423.221 -0.353211 1.56873 0
M  V30 4403 O 424.411 -0.14349 1.73608 0
M  V30 4404 C 421.543 -0.168555 3.40483 0
M  V30 4405 H 422.736 1.46021 2.6195 0
M  V30 4406 H 420.289 0.793565 1.34656 0
M  V30 4407 H 421.024 -1.07374 3.06009 0
M  V30 4408 H 420.809 0.494823 3.88965 0
M  V30 4409 H 422.299 -0.460362 4.15055 0
M  V30 4410 N 422.737 -1.36956 0.779787 0
M  V30 4411 C 423.967 -2.03459 0.358877 0
M  V30 4412 C 424.375 -1.58939 -1.02641 0
M  V30 4413 O 423.718 -0.769777 -1.66794 0
M  V30 4414 C 423.78 -3.5796 0.332393 0
M  V30 4415 C 423.444 -4.25644 1.66362 0
M  V30 4416 C 424.441 -4.49205 2.61746 0
M  V30 4417 C 422.126 -4.63313 1.94027 0
M  V30 4418 C 424.12 -5.09503 3.82996 0
M  V30 4419 C 421.807 -5.2333 3.15546 0
M  V30 4420 C 422.805 -5.46363 4.0985 0
M  V30 4421 O 422.493 -6.05122 5.29228 0
M  V30 4422 H 422.225 -0.659767 0.147254 0
M  V30 4423 H 424.779 -1.76111 1.05708 0
M  V30 4424 H 423.009 -3.84388 -0.422237 0
M  V30 4425 H 424.698 -4.05852 -0.0625389 0
M  V30 4426 H 425.464 -4.20508 2.41657 0
M  V30 4427 H 421.343 -4.44715 1.21448 0
M  V30 4428 H 424.887 -5.27397 4.56617 0
M  V30 4429 H 420.784 -5.51451 3.35517 0
M  V30 4430 H 421.552 -6.23595 5.30161 0
M  V30 4431 N 424.215 -0.530993 -1.48385 0
M  V30 4432 C 425.443 -0.00134122 -2.069 0
M  V30 4433 C 425.858 1.2805 -1.3874 0
M  V30 4434 O 425.215 1.76204 -0.475244 0
M  V30 4435 C 425.266 0.225256 -3.60798 0
M  V30 4436 O 424.987 -1.0058 -4.26398 0
M  V30 4437 C 426.488 0.795172 -4.3611 0
M  V30 4438 H 423.708 -0.0339704 -0.67014 0
M  V30 4439 H 426.252 -0.736926 -1.90761 0
M  V30 4440 H 424.407 0.910891 -3.76539 0
M  V30 4441 H 424.821 -0.787165 -5.1856 0
M  V30 4442 H 426.295 0.903143 -5.44562 0
M  V30 4443 H 426.772 1.80031 -4.00606 0
M  V30 4444 H 427.378 0.146069 -4.25049 0
M  V30 4445 N 425.693 1.55336 -0.266172 0
M  V30 4446 C 426.921 2.03801 0.356756 0
M  V30 4447 C 427.336 1.14485 1.50129 0
M  V30 4448 O 426.693 0.163121 1.8177 0
M  V30 4449 C 426.744 3.51455 0.846281 0
M  V30 4450 O 426.465 4.37371 -0.252663 0
M  V30 4451 C 427.966 4.15767 1.53794 0
M  V30 4452 H 425.186 0.665906 0.0825218 0
M  V30 4453 H 427.73 2.00636 -0.39566 0
M  V30 4454 H 425.885 3.55092 1.54881 0
M  V30 4455 H 426.299 5.24358 0.122173 0
M  V30 4456 H 427.773 5.20714 1.83198 0
M  V30 4457 H 428.25 3.63404 2.46646 0
M  V30 4458 H 428.856 4.16107 0.879488 0
M  V30 4459 N 427.171 -0.0066808 1.57599 0
M  V30 4460 C 428.418 -0.69292 1.90276 0
M  V30 4461 C 428.746 -1.74148 0.866192 0
M  V30 4462 O 428.001 -1.95268 -0.129933 0
M  V30 4463 C 428.3 -1.37939 3.29708 0
M  V30 4464 C 427.966 -0.464679 4.48499 0
M  V30 4465 C 426.628 -0.212809 4.80729 0
M  V30 4466 C 428.98 0.16551 5.20937 0
M  V30 4467 C 426.308 0.677653 5.82773 0
M  V30 4468 C 428.66 1.04381 6.23929 0
M  V30 4469 C 427.324 1.30492 6.54621 0
M  V30 4470 H 426.594 -0.253558 0.696268 0
M  V30 4471 H 429.241 0.0474123 1.91441 0
M  V30 4472 H 427.546 -2.1936 3.24636 0
M  V30 4473 H 429.243 -1.9163 3.52249 0
M  V30 4474 H 425.833 -0.671153 4.23313 0
M  V30 4475 H 430.017 -0.0160756 4.96297 0
M  V30 4476 H 425.273 0.88803 6.04917 0
M  V30 4477 H 429.447 1.53851 6.79193 0
M  V30 4478 H 427.074 1.99662 7.33512 0
M  V30 4479 N 428.649 -1.55105 -0.279332 0
M  V30 4480 C 429.877 -1.7943 -1.03017 0
M  V30 4481 C 430.292 -0.564456 -1.80165 0
M  V30 4482 O 429.649 0.466326 -1.76442 0
M  V30 4483 C 429.7 -3.0155 -1.99374 0
M  V30 4484 O 429.421 -4.19784 -1.25352 0
M  V30 4485 C 430.922 -3.3843 -2.86321 0
M  V30 4486 H 428.142 -0.597882 -0.304594 0
M  V30 4487 H 430.686 -2.02105 -0.312035 0
M  V30 4488 H 428.841 -2.81019 -2.66659 0
M  V30 4489 H 429.255 -4.88781 -1.90246 0
M  V30 4490 H 430.729 -4.27066 -3.49741 0
M  V30 4491 H 431.206 -2.57549 -3.5576 0
M  V30 4492 H 431.812 -3.61197 -2.24536 0
M  V30 4493 N 430.127 0.543554 -1.4793 0
M  V30 4494 C 431.373 1.29961 -1.56466 0
M  V30 4495 C 431.728 1.91024 -0.229696 0
M  V30 4496 O 431.021 1.75619 0.766072 0
M  V30 4497 C 431.215 2.42078 -2.62932 0
M  V30 4498 C 431.044 1.92003 -4.06651 0
M  V30 4499 C 429.814 1.75223 -4.73946 0
M  V30 4500 C 432.012 1.45648 -4.93245 0
M  V30 4501 N 429.994 1.19632 -6.02131 0
M  V30 4502 C 431.365 1.01914 -6.11566 0
M  V30 4503 C 433.42 1.33826 -4.79578 0
M  V30 4504 C 432.123 0.475301 -7.17728 0
M  V30 4505 C 434.149 0.808427 -5.85848 0
M  V30 4506 C 433.511 0.381081 -7.03368 0
M  V30 4507 H 429.61 0.467086 -0.62718 0
M  V30 4508 H 432.194 0.614543 -1.84747 0
M  V30 4509 H 430.365 3.08098 -2.36496 0
M  V30 4510 H 432.097 3.09096 -2.61231 0
M  V30 4511 H 428.852 1.98345 -4.30065 0
M  V30 4512 H 429.276 0.93885 -6.70458 0
M  V30 4513 H 433.918 1.65474 -3.89074 0
M  V30 4514 H 431.636 0.146472 -8.07967 0
M  V30 4515 H 435.222 0.720315 -5.77324 0
M  V30 4516 H 434.102 -0.0225344 -7.84197 0
M  V30 4517 N 431.605 1.3629 0.791371 0
M  V30 4518 C 432.568 1.30309 1.88553 0
M  V30 4519 C 433.568 0.211204 1.59407 0
M  V30 4520 O 434.758 0.465865 1.67855 0
M  V30 4521 C 431.89 1.01956 3.25297 0
M  V30 4522 H 433.083 2.27614 1.95273 0
M  V30 4523 H 430.636 1.21035 0.988953 0
M  V30 4524 H 431.371 0.050998 3.2426 0
M  V30 4525 H 431.156 1.80968 3.4784 0
M  V30 4526 H 432.646 1.0037 4.05359 0
M  V30 4527 N 433.083 -1.0153 1.20538 0
M  V30 4528 C 434.331 -1.74803 1.01432 0
M  V30 4529 C 434.652 -1.8963 -0.454456 0
M  V30 4530 O 433.922 -1.43975 -1.32846 0
M  V30 4531 H 432.502 -0.647598 0.372324 0
M  V30 4532 H 435.164 -1.22402 1.5167 0
M  V30 4533 H 434.26 -2.75114 1.47373 0
M  V30 4534 N 434.561 -1.01147 -1.20859 0
M  V30 4535 C 435.491 -0.597663 -2.25722 0
M  V30 4536 C 436.472 0.384744 -1.65692 0
M  V30 4537 O 437.657 0.271303 -1.92296 0
M  V30 4538 C 434.787 0.0700149 -3.47229 0
M  V30 4539 C 433.741 -0.832843 -4.19819 0
M  V30 4540 C 433.067 -0.0312202 -5.34691 0
M  V30 4541 C 434.367 -2.1385 -4.76514 0
M  V30 4542 H 436.061 -1.47423 -2.60589 0
M  V30 4543 H 433.607 -0.710301 -1.25263 0
M  V30 4544 H 435.56 0.37103 -4.19763 0
M  V30 4545 H 434.284 0.981259 -3.11511 0
M  V30 4546 H 432.943 -1.11778 -3.49144 0
M  V30 4547 H 432.591 0.881515 -4.95215 0
M  V30 4548 H 432.291 -0.632434 -5.84187 0
M  V30 4549 H 433.815 0.26346 -6.10031 0
M  V30 4550 H 435.229 -1.9002 -5.40893 0
M  V30 4551 H 433.626 -2.69012 -5.36426 0
M  V30 4552 H 434.696 -2.80495 -3.95538 0
M  V30 4553 N 436.039 1.36541 -0.78704 0
M  V30 4554 C 436.969 2.32659 -0.197992 0
M  V30 4555 C 437.95 1.56533 0.665697 0
M  V30 4556 O 439.135 1.84698 0.60001 0
M  V30 4557 C 436.265 3.40778 0.669901 0
M  V30 4558 C 435.219 4.27897 -0.0937039 0
M  V30 4559 C 434.545 5.27163 0.894629 0
M  V30 4560 C 435.845 5.06334 -1.28154 0
M  V30 4561 H 437.539 2.82171 -1.00099 0
M  V30 4562 H 435.085 1.35665 -0.482793 0
M  V30 4563 H 437.038 4.07008 1.09191 0
M  V30 4564 H 435.762 2.89827 1.50558 0
M  V30 4565 H 434.421 3.6322 -0.49666 0
M  V30 4566 H 434.069 4.72486 1.72527 0
M  V30 4567 H 433.769 5.86317 0.388149 0
M  V30 4568 H 435.293 5.96266 1.31525 0
M  V30 4569 H 436.707 5.65617 -0.93541 0
M  V30 4570 H 435.104 5.74888 -1.72115 0
M  V30 4571 H 436.174 4.38114 -2.07807 0
M  V30 4572 N 437.518 0.538854 1.48102 0
M  V30 4573 C 438.465 -0.219042 2.29758 0
M  V30 4574 C 439.435 -0.925562 1.37922 0
M  V30 4575 O 440.62 -0.924855 1.66886 0
M  V30 4576 C 437.76 -1.25452 3.2149 0
M  V30 4577 C 436.873 -0.555943 4.28408 0
M  V30 4578 C 436.008 -1.57512 5.0731 0
M  V30 4579 C 435.047 -0.860498 6.06021 0
M  V30 4580 N 434.184 -1.82564 6.77949 0
M  V30 4581 H 439.024 0.483449 2.94052 0
M  V30 4582 H 436.561 0.250247 1.44956 0
M  V30 4583 H 438.519 -1.86727 3.7308 0
M  V30 4584 H 437.149 -1.92528 2.591 0
M  V30 4585 H 436.201 0.170938 3.80016 0
M  V30 4586 H 437.513 0.00474616 4.988 0
M  V30 4587 H 436.667 -2.26191 5.62959 0
M  V30 4588 H 435.406 -2.16972 4.36778 0
M  V30 4589 H 434.411 -0.159686 5.49568 0
M  V30 4590 H 435.636 -0.271897 6.78555 0
M  V30 4591 H 433.582 -2.40915 6.10161 0
M  V30 4592 H 433.499 -1.31662 7.44447 0
M  V30 4593 H 434.767 -2.50414 7.38182 0
M  V30 4594 N 438.996 -1.55193 0.274407 0
M  V30 4595 C 439.946 -2.19184 -0.627882 0
M  V30 4596 C 440.93 -1.15625 -1.11892 0
M  V30 4597 O 442.122 -1.41441 -1.06411 0
M  V30 4598 C 439.251 -2.91591 -1.81189 0
M  V30 4599 C 438.337 -4.02438 -1.33807 0
M  V30 4600 N 438.728 -5.0246 -0.580349 0
M  V30 4601 C 437.026 -4.15496 -1.62109 0
M  V30 4602 C 437.727 -5.80756 -0.331344 0
M  V30 4603 N 436.703 -5.36038 -0.903556 0
M  V30 4604 H 440.505 -2.93871 -0.0411216 0
M  V30 4605 H 438.019 -1.62213 0.0779348 0
M  V30 4606 H 440.016 -3.35883 -2.46957 0
M  V30 4607 H 438.676 -2.18414 -2.40261 0
M  V30 4608 H 439.687 -5.17399 -0.227762 0
M  V30 4609 H 436.364 -3.53509 -2.22121 0
M  V30 4610 H 437.754 -6.71335 0.275454 0
M  V30 4611 N 440.474 -0.00167713 -1.576 0
M  V30 4612 C 441.404 0.988091 -2.11563 0
M  V30 4613 C 442.385 1.35736 -1.02517 0
M  V30 4614 O 443.57 1.44082 -1.30208 0
M  V30 4615 C 440.7 2.27941 -2.62031 0
M  V30 4616 C 439.654 2.0517 -3.75619 0
M  V30 4617 C 438.98 3.4033 -4.12407 0
M  V30 4618 C 440.28 1.41294 -5.02825 0
M  V30 4619 H 441.974 0.538771 -2.94513 0
M  V30 4620 H 439.52 0.257712 -1.41675 0
M  V30 4621 H 441.473 2.97539 -2.9841 0
M  V30 4622 H 440.197 2.74989 -1.76205 0
M  V30 4623 H 438.856 1.37998 -3.39635 0
M  V30 4624 H 438.504 3.85085 -3.23603 0
M  V30 4625 H 438.204 3.25909 -4.88935 0
M  V30 4626 H 439.728 4.1124 -4.51347 0
M  V30 4627 H 441.142 2.00851 -5.36965 0
M  V30 4628 H 439.539 1.37356 -5.84169 0
M  V30 4629 H 440.609 0.382362 -4.8339 0
M  V30 4630 N 441.952 1.55251 0.271103 0
M  V30 4631 C 443.368 1.47133 0.618393 0
M  V30 4632 C 443.568 0.686994 1.89427 0
M  V30 4633 O 442.624 0.206609 2.51653 0
M  V30 4634 C 443.937 2.91361 0.743593 0
M  V30 4635 C 445.485 3.01587 0.837522 0
M  V30 4636 C 445.96 4.47073 0.994483 0
M  V30 4637 N 447.451 4.50909 1.05996 0
M  V30 4638 C 448.186 5.60698 1.20024 0
M  V30 4639 N 447.682 6.80348 1.30759 0
M  V30 4640 N 449.475 5.48444 1.23149 0
M  V30 4641 H 441.626 2.04698 -0.566784 0
M  V30 4642 H 443.889 0.928319 -0.192165 0
M  V30 4643 H 443.595 3.51483 -0.123493 0
M  V30 4644 H 443.469 3.40484 1.62328 0
M  V30 4645 H 445.856 2.4156 1.69507 0
M  V30 4646 H 445.937 2.55713 -0.0668086 0
M  V30 4647 H 445.581 5.07703 0.141582 0
M  V30 4648 H 445.511 4.90605 1.91349 0
M  V30 4649 H 448.002 3.6472 0.989316 0
M  V30 4650 H 448.315 7.59772 1.41303 0
M  V30 4651 H 446.66 6.83156 1.27761 0
M  V30 4652 H 449.851 4.53907 1.14394 0
M  V30 4653 H 450.024 6.34049 1.33738 0
M  V30 4654 N 443.43 -0.535701 1.48216 0
M  V30 4655 C 444.362 -1.65662 1.58394 0
M  V30 4656 C 445.375 -1.5591 0.468607 0
M  V30 4657 O 446.564 -1.62475 0.7392 0
M  V30 4658 C 443.664 -3.04276 1.4923 0
M  V30 4659 C 442.837 -3.39567 2.75705 0
M  V30 4660 C 441.896 -4.57436 2.60075 0
M  V30 4661 O 440.922 -4.60942 3.33948 0
M  V30 4662 N 442.124 -5.55259 1.69315 0
M  V30 4663 H 444.889 -1.5737 2.55058 0
M  V30 4664 H 442.45 -0.722845 1.44867 0
M  V30 4665 H 444.442 -3.80994 1.36477 0
M  V30 4666 H 443.012 -3.06677 0.605632 0
M  V30 4667 H 442.232 -2.52083 3.03064 0
M  V30 4668 H 443.52 -3.59929 3.59623 0
M  V30 4669 H 442.918 -5.552 1.08489 0
M  V30 4670 H 441.475 -6.31218 1.62504 0
M  V30 4671 N 444.908 -1.36708 -0.784132 0
M  V30 4672 C 445.841 -1.25827 -1.90375 0
M  V30 4673 C 446.819 -0.141331 -1.61985 0
M  V30 4674 O 448.003 -0.313389 -1.85877 0
M  V30 4675 C 445.13 -0.942621 -3.25319 0
M  V30 4676 C 444.176 -2.07474 -3.72635 0
M  V30 4677 S 445.009 -3.69317 -3.8777 0
M  V30 4678 C 446.165 -3.39876 -5.25581 0
M  V30 4679 H 446.398 -2.20593 -1.99314 0
M  V30 4680 H 443.931 -1.22186 -0.943926 0
M  V30 4681 H 445.889 -0.767321 -4.03265 0
M  V30 4682 H 444.55 -0.0126566 -3.14097 0
M  V30 4683 H 443.743 -1.80858 -4.70432 0
M  V30 4684 H 443.345 -2.20953 -3.01754 0
M  V30 4685 H 445.637 -2.94097 -6.10339 0
M  V30 4686 H 446.58 -4.36956 -5.57203 0
M  V30 4687 H 446.988 -2.75098 -4.92931 0
M  V30 4688 N 446.386 1.0089 -1.21074 0
M  V30 4689 C 447.316 2.1145 -0.990523 0
M  V30 4690 C 448.297 1.69897 0.0831699 0
M  V30 4691 O 449.482 1.94052 -0.0758853 0
M  V30 4692 C 446.612 3.42914 -0.550177 0
M  V30 4693 C 445.566 3.98244 -1.56799 0
M  V30 4694 C 444.892 5.25568 -0.984013 0
M  V30 4695 C 446.192 4.30752 -2.95381 0
M  V30 4696 H 447.886 2.3013 -1.91521 0
M  V30 4697 H 445.432 1.10592 -0.92225 0
M  V30 4698 H 447.385 4.19653 -0.383305 0
M  V30 4699 H 446.109 3.24014 0.41015 0
M  V30 4700 H 444.768 3.23621 -1.72236 0
M  V30 4701 H 444.416 5.02998 -0.0155216 0
M  V30 4702 H 444.116 5.63551 -1.66384 0
M  V30 4703 H 445.64 6.04955 -0.828378 0
M  V30 4704 H 447.054 4.98349 -2.8341 0
M  V30 4705 H 445.451 4.79869 -3.60341 0
M  V30 4706 H 446.521 3.39192 -3.46521 0
M  V30 4707 N 447.864 1.01787 1.20321 0
M  V30 4708 C 449.113 0.703249 1.89043 0
M  V30 4709 C 449.426 -0.770445 1.79787 0
M  V30 4710 O 450.632 -1.19767 2.43656 0
M  V30 4711 C 449.088 1.20749 3.3904 0
M  V30 4712 C 448.696 2.70817 3.56878 0
M  V30 4713 C 450.44 0.968352 4.13308 0
M  V30 4714 C 448.347 3.14716 5.00708 0
M  V30 4715 H 447.277 0.259354 0.707991 0
M  V30 4716 H 449.928 1.23072 1.36108 0
M  V30 4717 H 448.31 0.607989 3.91305 0
M  V30 4718 H 449.484 3.36327 3.14993 0
M  V30 4719 H 447.799 2.92888 2.95983 0
M  V30 4720 H 450.396 1.27173 5.19356 0
M  V30 4721 H 450.739 -0.095149 4.16191 0
M  V30 4722 H 451.272 1.53129 3.67146 0
M  V30 4723 H 448.011 4.20347 5.02979 0
M  V30 4724 H 447.531 2.53927 5.43398 0
M  V30 4725 H 449.21 3.07426 5.69296 0
M  V30 4726 N 449.342 -1.36122 0.79427 0
M  V30 4727 C 450.567 -2.03891 0.379871 0
M  V30 4728 C 450.992 -1.59488 -0.997251 0
M  V30 4729 O 450.35 -0.765652 -1.64339 0
M  V30 4730 C 450.398 -3.57687 0.457442 0
M  V30 4731 O 449.502 -4.08931 -0.5338 0
M  V30 4732 H 448.843 -0.6443 0.160541 0
M  V30 4733 H 451.373 -1.73976 1.07673 0
M  V30 4734 H 451.383 -4.06721 0.322792 0
M  V30 4735 H 450.058 -3.89357 1.46199 0
M  V30 4736 H 448.635 -3.71154 -0.360409 0
M  V30 4737 N 450.82 -0.546701 -1.47814 0
M  V30 4738 C 451.768 0.220048 -2.31557 0
M  V30 4739 C 452.762 0.919472 -1.42275 0
M  V30 4740 O 453.968 0.841953 -1.59095 0
M  V30 4741 H 450.343 0.0898334 -0.746615 0
M  V30 4742 H 452.314 -0.505589 -2.94086 0
M  V30 4743 C 451.063 1.24353 -3.24702 0
M  V30 4744 H 450.386 0.714758 -3.93359 0
M  V30 4745 H 451.826 1.75112 -3.8615 0
M  V30 4746 C 450.285 2.28593 -2.47481 0
M  V30 4747 O 450.815 3.35334 -2.21165 0
M  V30 4748 N 449.021 2.02244 -2.08676 0
M  V30 4749 H 448.568 1.15455 -2.30278 0
M  V30 4750 H 448.526 2.72207 -1.57323 0
M  V30 4751 N 452.299 1.55045 -0.282633 0
M  V30 4752 C 453.262 2.21515 0.588539 0
M  V30 4753 C 454.262 1.19535 1.07554 0
M  V30 4754 O 455.452 1.44391 0.974514 0
M  V30 4755 C 452.584 2.88704 1.8128 0
M  V30 4756 H 453.777 2.99899 0.00806397 0
M  V30 4757 H 451.33 1.56265 -0.0333067 0
M  V30 4758 H 452.065 2.14352 2.43359 0
M  V30 4759 H 451.85 3.63443 1.47144 0
M  V30 4760 H 453.34 3.39465 2.43214 0
M  V30 4761 N 453.777 0.010035 1.57597 0
M  V30 4762 C 454.724 -0.978122 2.09049 0
M  V30 4763 C 455.694 -1.33509 0.988159 0
M  V30 4764 O 456.879 -1.43172 1.26121 0
M  V30 4765 C 454.019 -2.26158 2.60666 0
M  V30 4766 C 453.132 -1.96275 3.84838 0
M  V30 4767 C 452.267 -3.18776 4.24918 0
M  V30 4768 C 451.306 -2.84625 5.41899 0
M  V30 4769 N 450.443 -3.99693 5.77226 0
M  V30 4770 H 455.283 -0.532431 2.93205 0
M  V30 4771 H 452.82 -0.251234 1.44939 0
M  V30 4772 H 454.778 -3.01202 2.88675 0
M  V30 4773 H 453.408 -2.68378 1.79369 0
M  V30 4774 H 452.46 -1.11555 3.63675 0
M  V30 4775 H 453.772 -1.67111 4.69974 0
M  V30 4776 H 452.926 -4.02157 4.54262 0
M  V30 4777 H 451.665 -3.51087 3.38511 0
M  V30 4778 H 450.67 -1.99653 5.12268 0
M  V30 4779 H 451.895 -2.53551 6.29991 0
M  V30 4780 H 449.841 -4.31882 4.93776 0
M  V30 4781 H 449.758 -3.74087 6.56959 0
M  V30 4782 H 451.026 -4.83834 6.11167 0
M  V30 4783 N 455.255 -1.55392 -0.262866 0
M  V30 4784 C 456.188 -1.8391 -1.35101 0
M  V30 4785 C 457.166 -0.692901 -1.47097 0
M  V30 4786 O 458.35 -0.936979 -1.63563 0
M  V30 4787 C 455.477 -2.00969 -2.72634 0
M  V30 4788 C 454.523 -3.23559 -2.7787 0
M  V30 4789 S 455.356 -4.80647 -2.3609 0
M  V30 4790 C 456.512 -5.00692 -3.75578 0
M  V30 4791 H 456.745 -2.75918 -1.1071 0
M  V30 4792 H 454.278 -1.47294 -0.463029 0
M  V30 4793 H 456.236 -2.11482 -3.51832 0
M  V30 4794 H 454.897 -1.09832 -2.94272 0
M  V30 4795 H 454.09 -3.32413 -3.78837 0
M  V30 4796 H 453.692 -3.11689 -2.06702 0
M  V30 4797 H 455.984 -4.87055 -4.70939 0
M  V30 4798 H 456.927 -6.02717 -3.71669 0
M  V30 4799 H 457.335 -4.28619 -3.6735 0
M  V30 4800 N 456.733 0.527833 -1.48498 0
M  V30 4801 C 457.643 1.65907 -1.65867 0
M  V30 4802 C 458.659 1.6537 -0.541192 0
M  V30 4803 O 459.835 1.84282 -0.812534 0
M  V30 4804 C 456.9 3.02364 -1.69637 0
M  V30 4805 C 455.961 3.1374 -2.93028 0
M  V30 4806 C 455.194 4.43688 -2.96609 0
M  V30 4807 O 455.417 5.30913 -2.08538 0
M  V30 4808 O 454.351 4.59475 -3.88802 0
M  V30 4809 H 458.177 1.5419 -2.61647 0
M  V30 4810 H 455.762 0.701163 -1.31924 0
M  V30 4811 H 457.644 3.83515 -1.74625 0
M  V30 4812 H 456.319 3.14401 -0.770312 0
M  V30 4813 H 455.226 2.31877 -2.93571 0
M  V30 4814 H 456.559 3.06621 -3.85026 0
M  V30 4815 N 458.211 1.37122 0.776871 0
M  V30 4816 C 459.121 1.34651 1.9211 0
M  V30 4817 C 460.137 0.246824 1.7224 0
M  V30 4818 O 461.313 0.48134 1.95563 0
M  V30 4819 C 458.378 1.14748 3.2716 0
M  V30 4820 C 457.439 2.34308 3.5972 0
M  V30 4821 C 456.672 2.15345 4.88326 0
M  V30 4822 O 456.895 1.13507 5.58992 0
M  V30 4823 O 455.829 3.03414 5.1983 0
M  V30 4824 H 459.655 2.31013 1.97146 0
M  V30 4825 H 457.24 1.17799 0.918901 0
M  V30 4826 H 459.122 1.05616 4.0795 0
M  V30 4827 H 457.797 0.214562 3.22988 0
M  V30 4828 H 456.704 2.49011 2.79185 0
M  V30 4829 H 458.037 3.26149 3.68629 0
M  V30 4830 N 459.689 -1.00246 1.21608 0
M  V30 4831 C 460.937 -1.73717 1.0328 0
M  V30 4832 C 461.258 -1.90102 -0.434318 0
M  V30 4833 O 460.528 -1.45376 -1.31311 0
M  V30 4834 H 459.108 -0.643613 0.379172 0
M  V30 4835 H 461.77 -1.20787 1.52959 0
M  V30 4836 H 460.866 -2.73535 1.50283 0
M  V30 4837 N 461.167 -1.02423 -1.1978 0
M  V30 4838 C 462.416 -0.713265 -1.88667 0
M  V30 4839 C 462.729 0.7609 -1.80193 0
M  V30 4840 O 463.935 1.18473 -2.44288 0
M  V30 4841 C 462.391 -1.22545 -3.38394 0
M  V30 4842 C 461.999 -2.72706 -3.55437 0
M  V30 4843 C 463.743 -0.990257 -4.12788 0
M  V30 4844 C 461.65 -3.17367 -4.99031 0
M  V30 4845 H 460.58 -0.263105 -0.706606 0
M  V30 4846 H 463.231 -1.23792 -1.35454 0
M  V30 4847 H 461.613 -0.628732 -3.90977 0
M  V30 4848 H 462.787 -3.37993 -3.13205 0
M  V30 4849 H 461.102 -2.94453 -2.94425 0
M  V30 4850 H 463.699 -1.29926 -5.18675 0
M  V30 4851 H 464.042 0.0730761 -4.16236 0
M  V30 4852 H 464.575 -1.55074 -3.66329 0
M  V30 4853 H 461.314 -4.23009 -5.00743 0
M  V30 4854 H 460.834 -2.56805 -5.42044 0
M  V30 4855 H 462.513 -3.10441 -5.67658 0
M  V30 4856 N 462.645 1.35699 -0.801477 0
M  V30 4857 C 463.922 1.9324 -0.302937 0
M  V30 4858 C 464.302 1.73209 1.20672 0
M  V30 4859 O 463.65 1.09809 2.00385 0
M  V30 4860 C 463.86 3.41728 -0.708747 0
M  V30 4861 C 465.208 4.18868 -0.695328 0
M  V30 4862 O 466.232 3.5022 -0.649971 0
M  V30 4863 O 465.091 5.41342 -0.749081 0
M  V30 4864 H 462.185 0.82331 -0.0780367 0
M  V30 4865 H 464.731 1.44806 -0.884832 0
M  V30 4866 H 463.503 3.50015 -1.74944 0
M  V30 4867 H 463.126 3.97471 -0.101384 0
M  V30 4868 N 464.123 0.554532 1.47522 0
M  V30 4869 C 465.539 0.214107 1.58157 0
M  V30 4870 C 465.739 -1.28331 1.55349 0
M  V30 4871 O 464.795 -2.06329 1.45549 0
M  V30 4872 C 466.108 0.838391 2.88776 0
M  V30 4873 C 467.656 0.809374 3.02354 0
M  V30 4874 C 468.131 1.41268 4.35669 0
M  V30 4875 N 469.622 1.37574 4.42298 0
M  V30 4876 C 470.357 1.8122 5.4401 0
M  V30 4877 N 469.853 2.3271 6.52547 0
M  V30 4878 N 471.646 1.72307 5.35039 0
M  V30 4879 H 463.797 1.52744 1.4759 0
M  V30 4880 H 466.06 0.636812 0.702264 0
M  V30 4881 H 465.766 1.89065 2.96559 0
M  V30 4882 H 465.64 0.329847 3.75755 0
M  V30 4883 H 468.027 -0.234187 2.94169 0
M  V30 4884 H 468.108 1.35565 2.16924 0
M  V30 4885 H 467.752 2.45529 4.4461 0
M  V30 4886 H 467.682 0.841871 5.19827 0
M  V30 4887 H 470.173 0.999081 3.64454 0
M  V30 4888 H 470.486 2.63944 7.26329 0
M  V30 4889 H 468.831 2.36719 6.53444 0
M  V30 4890 H 472.022 1.3186 4.49144 0
M  V30 4891 H 472.195 2.06641 6.14169 0
M  V30 4892 N 465.601 -1.54893 0.290851 0
M  V30 4893 C 466.551 -2.19838 -0.604599 0
M  V30 4894 C 467.535 -1.16805 -1.10659 0
M  V30 4895 O 468.727 -1.42562 -1.04905 0
M  V30 4896 C 465.856 -2.93497 -1.78086 0
M  V30 4897 C 464.942 -4.03835 -1.29531 0
M  V30 4898 N 465.333 -5.03047 -0.527024 0
M  V30 4899 C 463.631 -4.17192 -1.57693 0
M  V30 4900 C 464.332 -5.81074 -0.269728 0
M  V30 4901 N 463.308 -5.36966 -0.846651 0
M  V30 4902 H 467.11 -2.93898 -0.00995032 0
M  V30 4903 H 464.624 -1.62121 0.0951353 0
M  V30 4904 H 466.621 -3.38484 -2.43381 0
M  V30 4905 H 465.281 -2.2095 -2.37931 0
M  V30 4906 H 466.292 -5.17611 -0.172872 0
M  V30 4907 H 462.969 -3.55845 -2.18359 0
M  V30 4908 H 464.359 -6.71005 0.346643 0
M  V30 4909 N 467.08 -0.0183926 -1.57589 0
M  V30 4910 C 468.326 0.663543 -1.91638 0
M  V30 4911 C 468.659 1.72392 -0.894134 0
M  V30 4912 O 467.934 1.94316 0.0846449 0
M  V30 4913 C 468.217 1.28984 -3.36207 0
M  V30 4914 C 468.07 0.239761 -4.49161 0
M  V30 4915 C 469.389 2.2109 -3.80536 0
M  V30 4916 H 466.508 0.239746 -0.696915 0
M  V30 4917 H 469.15 -0.073456 -1.89858 0
M  V30 4918 H 467.3 1.91799 -3.37854 0
M  V30 4919 H 468.972 -0.390119 -4.59647 0
M  V30 4920 H 467.215 -0.435972 -4.31604 0
M  V30 4921 H 467.886 0.717383 -5.47319 0
M  V30 4922 H 470.362 1.68273 -3.80557 0
M  V30 4923 H 469.238 2.61869 -4.82406 0
M  V30 4924 H 469.499 3.09764 -3.15434 0
M  V30 4925 N 468.558 1.5553 0.254621 0
M  V30 4926 C 469.804 1.7818 0.980989 0
M  V30 4927 C 470.159 0.586059 1.83257 0
M  V30 4928 O 469.452 -0.420889 1.8692 0
M  V30 4929 C 469.646 3.03891 1.88109 0
M  V30 4930 C 469.475 4.35578 1.11812 0
M  V30 4931 C 468.245 4.98497 0.826343 0
M  V30 4932 C 470.443 5.11869 0.499486 0
M  V30 4933 N 468.425 6.13888 0.0385095 0
M  V30 4934 C 469.796 6.1981 -0.153292 0
M  V30 4935 C 471.851 4.96216 0.409175 0
M  V30 4936 C 470.554 7.13801 -0.8877 0
M  V30 4937 C 472.58 5.90578 -0.311683 0
M  V30 4938 C 471.942 6.97922 -0.953129 0
M  V30 4939 H 468.041 0.704057 0.340335 0
M  V30 4940 H 470.625 1.93025 0.254855 0
M  V30 4941 H 468.796 2.90389 2.57932 0
M  V30 4942 H 470.528 3.14869 2.54244 0
M  V30 4943 H 467.283 4.59769 1.13621 0
M  V30 4944 H 467.707 6.76129 -0.343275 0
M  V30 4945 H 472.349 4.1331 0.890765 0
M  V30 4946 H 470.067 7.96214 -1.38092 0
M  V30 4947 H 473.653 5.80544 -0.382125 0
M  V30 4948 H 472.533 7.69681 -1.50203 0
M  V30 4949 N 470.036 -0.519951 1.48776 0
M  V30 4950 C 471.447 -1.10177 1.50725 0
M  V30 4951 C 471.798 -1.94153 0.282678 0
M  V30 4952 O 470.923 -2.07645 -0.609298 0
M  V30 4953 C 471.518 -2.00482 2.73116 0
M  V30 4954 C 470.077 -2.53862 2.77905 0
M  V30 4955 C 469.224 -1.31047 2.44381 0
M  V30 4956 H 472.175 -0.30473 1.55747 0
M  V30 4957 H 472.196 -2.8491 2.52203 0
M  V30 4958 H 471.708 -1.39335 3.62225 0
M  V30 4959 H 469.809 -3.18702 1.93029 0
M  V30 4960 H 469.922 -2.9231 3.79594 0
M  V30 4961 H 468.286 -1.62953 1.95751 0
M  V30 4962 H 469.069 -0.71637 3.35743 0
M  V30 4963 N 471.514 -1.37532 -0.769588 0
M  V30 4964 C 472.925 -1.29382 -1.346 0
M  V30 4965 C 473.276 0.0576039 -1.96115 0
M  V30 4966 O 472.401 0.95947 -1.93967 0
M  V30 4967 C 472.996 -2.34298 -2.44724 0
M  V30 4968 C 471.555 -2.29776 -2.98128 0
M  V30 4969 C 470.702 -2.18013 -1.71364 0
M  V30 4970 H 473.653 -1.48123 -0.56968 0
M  V30 4971 H 473.674 -1.99089 -3.24259 0
M  V30 4972 H 473.186 -3.32645 -1.99922 0
M  V30 4973 H 471.287 -1.34959 -3.47299 0
M  V30 4974 H 471.4 -3.23276 -3.53595 0
M  V30 4975 H 469.764 -1.64595 -1.94372 0
M  V30 4976 H 470.547 -3.18278 -1.28662 0
M  V30 4977 N 472.992 0.995999 -1.22138 0
M  V30 4978 C 473.922 2.10387 -1.01289 0
M  V30 4979 C 474.903 1.69975 0.0651454 0
M  V30 4980 O 476.088 1.9396 -0.0964628 0
M  V30 4981 C 473.218 3.42312 -0.586517 0
M  V30 4982 C 472.172 3.96558 -1.61014 0
M  V30 4983 C 471.498 5.24494 -1.0397 0
M  V30 4984 C 472.798 4.27595 -2.99933 0
M  V30 4985 H 474.492 2.28086 -1.93951 0
M  V30 4986 H 472.038 1.09607 -0.933928 0
M  V30 4987 H 473.991 4.19223 -0.427793 0
M  V30 4988 H 472.715 3.24431 0.375761 0
M  V30 4989 H 471.374 3.21776 -1.75658 0
M  V30 4990 H 471.022 5.02953 -0.0688703 0
M  V30 4991 H 470.722 5.61755 -1.72352 0
M  V30 4992 H 472.246 6.04042 -0.892494 0
M  V30 4993 H 473.66 4.95315 -2.8868 0
M  V30 4994 H 472.057 4.76021 -3.6541 0
M  V30 4995 H 473.127 3.35498 -3.50099 0
M  V30 4996 N 474.47 1.03057 1.19235 0
M  V30 4997 C 475.695 0.74757 1.93458 0
M  V30 4998 C 476.12 -0.687648 1.7508 0
M  V30 4999 O 475.478 -1.47499 1.05422 0
M  V30 5000 C 475.526 1.10604 3.43219 0
M  V30 5001 O 474.63 0.225671 4.11782 0
M  V30 5002 H 473.971 0.276047 0.603899 0
M  V30 5003 H 476.501 1.3777 1.51263 0
M  V30 5004 H 476.511 1.06366 3.93891 0
M  V30 5005 H 475.186 2.15165 3.55917 0
M  V30 5006 H 473.763 0.326795 3.71465 0
M  V30 5007 N 475.948 -1.35272 0.808662 0
M  V30 5008 C 477.196 -1.98316 0.389233 0
M  V30 5009 C 477.517 -1.64465 -1.04767 0
M  V30 5010 O 476.787 -0.928175 -1.72516 0
M  V30 5011 H 475.367 -0.733585 0.140935 0
M  V30 5012 H 478.029 -1.6515 1.03496 0
M  V30 5013 H 477.125 -3.08123 0.496631 0
M  V30 5014 N 477.426 -0.562348 -1.47226 0
M  V30 5015 C 478.356 0.170627 -2.32876 0
M  V30 5016 C 479.337 0.903748 -1.44106 0
M  V30 5017 O 480.522 0.883206 -1.72954 0
M  V30 5018 C 477.652 1.19786 -3.25989 0
M  V30 5019 C 476.606 0.580875 -4.2404 0
M  V30 5020 C 475.932 1.71311 -5.06514 0
M  V30 5021 C 477.232 -0.468714 -5.20193 0
M  V30 5022 H 478.926 -0.544441 -2.94408 0
M  V30 5023 H 476.472 -0.263271 -1.41573 0
M  V30 5024 H 478.425 1.71884 -3.84752 0
M  V30 5025 H 477.149 1.94294 -2.62521 0
M  V30 5026 H 475.808 0.0811538 -3.6651 0
M  V30 5027 H 475.456 2.44736 -4.39447 0
M  V30 5028 H 475.156 1.30604 -5.72902 0
M  V30 5029 H 476.68 2.23725 -5.68137 0
M  V30 5030 H 478.094 -0.0336028 -5.7329 0
M  V30 5031 H 476.491 -0.794957 -5.94811 0
M  V30 5032 H 477.561 -1.36269 -4.65359 0
M  V30 5033 N 478.904 1.54736 -0.299062 0
M  V30 5034 C 480.315 1.8569 0.193971 0
M  V30 5035 C 480.666 1.22101 1.53577 0
M  V30 5036 O 479.791 0.51799 2.10109 0
M  V30 5037 C 480.386 3.36895 0.358733 0
M  V30 5038 C 478.945 3.67887 0.795986 0
M  V30 5039 C 478.092 2.77131 -0.096807 0
M  V30 5040 H 481.043 1.49934 -0.520134 0
M  V30 5041 H 481.064 3.61294 1.19361 0
M  V30 5042 H 480.576 3.83148 -0.617998 0
M  V30 5043 H 478.677 3.27151 1.78334 0
M  V30 5044 H 478.79 4.75114 0.616718 0
M  V30 5045 H 477.154 2.51153 0.423581 0
M  V30 5046 H 477.937 3.26204 -1.06986 0
M  V30 5047 N 480.382 0.0267497 1.57577 0
M  V30 5048 C 481.793 -0.512413 1.79531 0
M  V30 5049 C 482.144 -1.72391 0.936791 0
M  V30 5050 O 481.269 -2.15903 0.146543 0
M  V30 5051 C 481.864 -0.936378 3.25603 0
M  V30 5052 C 480.423 -1.42067 3.4856 0
M  V30 5053 C 479.57 -0.384278 2.74624 0
M  V30 5054 H 482.521 0.252797 1.56674 0
M  V30 5055 H 482.542 -1.80088 3.35184 0
M  V30 5056 H 482.054 -0.0544332 3.88062 0
M  V30 5057 H 480.155 -2.32262 2.9135 0
M  V30 5058 H 480.268 -1.42968 4.57271 0
M  V30 5059 H 478.632 -0.851855 2.40032 0
M  V30 5060 H 479.415 0.489159 3.39797 0
M  V30 5061 N 481.861 -1.55662 -0.24637 0
M  V30 5062 C 482.791 -1.93377 -1.30873 0
M  V30 5063 C 483.772 -0.798773 -1.50179 0
M  V30 5064 O 484.957 -1.0591 -1.62778 0
M  V30 5065 C 482.087 -2.22893 -2.66338 0
M  V30 5066 C 481.041 -3.38649 -2.61727 0
M  V30 5067 C 480.367 -3.53708 -4.00992 0
M  V30 5068 C 481.667 -4.74323 -2.18666 0
M  V30 5069 H 483.361 -2.82363 -0.995552 0
M  V30 5070 H 480.907 -1.35854 -0.477464 0
M  V30 5071 H 482.86 -2.47866 -3.40794 0
M  V30 5072 H 481.584 -1.30733 -2.99293 0
M  V30 5073 H 480.243 -3.13685 -1.89729 0
M  V30 5074 H 479.891 -2.58967 -4.31214 0
M  V30 5075 H 479.591 -4.31551 -3.98795 0
M  V30 5076 H 481.115 -3.81003 -4.77147 0
M  V30 5077 H 482.529 -4.98665 -2.82854 0
M  V30 5078 H 480.926 -5.55273 -2.27579 0
M  V30 5079 H 481.996 -4.71349 -1.13834 0
M  V30 5080 N 483.339 0.512053 -1.4905 0
M  V30 5081 C 484.564 1.2959 -1.6193 0
M  V30 5082 C 484.989 1.85906 -0.286454 0
M  V30 5083 O 484.347 1.65312 0.744426 0
M  V30 5084 C 484.395 2.40987 -2.68249 0
M  V30 5085 O 483.499 3.44531 -2.26654 0
M  V30 5086 H 482.84 0.383053 -0.542371 0
M  V30 5087 H 485.37 0.614231 -1.95162 0
M  V30 5088 H 485.38 2.86913 -2.90078 0
M  V30 5089 H 484.055 1.99361 -3.65004 0
M  V30 5090 H 482.632 3.046 -2.15112 0
M  V30 5091 N 484.817 1.37938 0.762283 0
M  V30 5092 C 485.764 1.34467 1.87583 0
M  V30 5093 C 486.734 0.208633 1.64785 0
M  V30 5094 O 487.919 0.399494 1.86571 0
M  V30 5095 C 485.059 1.16692 3.24772 0
M  V30 5096 C 484.172 2.39608 3.59461 0
M  V30 5097 C 483.307 2.14631 4.85908 0
M  V30 5098 C 482.346 3.33364 5.13357 0
M  V30 5099 N 481.483 3.07877 6.30996 0
M  V30 5100 H 486.323 2.29669 1.89885 0
M  V30 5101 H 483.86 1.14116 0.928219 0
M  V30 5102 H 485.818 1.04405 4.03925 0
M  V30 5103 H 484.448 0.251333 3.2182 0
M  V30 5104 H 483.5 2.626 2.75219 0
M  V30 5105 H 484.812 3.28128 3.75678 0
M  V30 5106 H 483.966 1.99429 5.72986 0
M  V30 5107 H 482.705 1.23463 4.71814 0
M  V30 5108 H 481.71 3.49094 4.24751 0
M  V30 5109 H 482.935 4.25395 5.29354 0
M  V30 5110 H 480.881 2.19348 6.18241 0
M  V30 5111 H 480.798 3.89944 6.47673 0
M  V30 5112 H 482.066 2.96313 7.20985 0
M  V30 5113 N 486.295 -0.989507 1.22664 0
M  V30 5114 C 487.228 -2.07805 0.942985 0
M  V30 5115 C 488.206 -1.6219 -0.115356 0
M  V30 5116 O 489.39 -1.88492 0.0169565 0
M  V30 5117 C 486.517 -3.361 0.418898 0
M  V30 5118 C 485.563 -4.00643 1.46244 0
M  V30 5119 S 486.396 -4.41059 3.03689 0
M  V30 5120 C 487.552 -5.7252 2.52927 0
M  V30 5121 H 487.785 -2.31547 1.86476 0
M  V30 5122 H 485.318 -1.12446 1.05808 0
M  V30 5123 H 487.276 -4.10315 0.123114 0
M  V30 5124 H 485.937 -3.10383 -0.481818 0
M  V30 5125 H 485.13 -4.93033 1.04569 0
M  V30 5126 H 484.732 -3.32767 1.7071 0
M  V30 5127 H 487.024 -6.49017 1.94379 0
M  V30 5128 H 487.967 -6.19026 3.4382 0
M  V30 5129 H 488.375 -5.30083 1.94094 0
M  V30 5130 N 487.773 -1.03688 -1.18687 0
M  V30 5131 C 488.998 -0.757819 -1.93059 0
M  V30 5132 C 489.423 0.678353 -1.75442 0
M  V30 5133 O 488.781 1.46938 -1.06203 0
M  V30 5134 C 488.829 -1.12423 -3.42627 0
M  V30 5135 O 487.933 -0.247505 -4.11657 0
M  V30 5136 H 487.274 -0.279245 -0.602427 0
M  V30 5137 H 489.804 -1.3857 -1.5053 0
M  V30 5138 H 489.814 -1.08454 -3.93322 0
M  V30 5139 H 488.489 -2.17049 -3.54771 0
M  V30 5140 H 487.066 -0.34649 -3.71287 0
M  V30 5141 N 489.251 1.34841 -0.815825 0
M  V30 5142 C 490.181 2.32187 -0.247298 0
M  V30 5143 C 491.162 1.5791 0.632344 0
M  V30 5144 O 492.347 1.8593 0.560698 0
M  V30 5145 C 489.477 3.42122 0.597466 0
M  V30 5146 C 488.431 4.27602 -0.184446 0
M  V30 5147 C 487.757 5.28942 0.782609 0
M  V30 5148 C 489.057 5.03502 -1.38865 0
M  V30 5149 H 490.751 2.79985 -1.06061 0
M  V30 5150 H 488.297 1.34611 -0.511461 0
M  V30 5151 H 490.25 4.09232 1.00533 0
M  V30 5152 H 488.974 2.92956 1.44376 0
M  V30 5153 H 487.633 3.62085 -0.573592 0
M  V30 5154 H 487.281 4.7604 1.62466 0
M  V30 5155 H 486.981 5.87008 0.263695 0
M  V30 5156 H 488.505 5.98922 1.18848 0
M  V30 5157 H 489.919 5.63506 -1.05518 0
M  V30 5158 H 488.316 5.71108 -1.8427 0
M  V30 5159 H 489.386 4.33608 -2.17054 0
M  V30 5160 N 490.729 0.570148 1.46925 0
M  V30 5161 C 491.677 -0.183181 2.31878 0
M  V30 5162 C 492.671 -0.896721 1.43719 0
M  V30 5163 O 493.877 -0.816536 1.60414 0
M  V30 5164 H 490.252 -0.077944 0.74795 0
M  V30 5165 H 492.223 0.552312 2.93244 0
M  V30 5166 C 490.972 -1.19172 3.2664 0
M  V30 5167 H 490.295 -0.652088 3.94446 0
M  V30 5168 H 491.735 -1.68946 3.88887 0
M  V30 5169 C 490.194 -2.24627 2.51086 0
M  V30 5170 O 490.724 -3.31773 2.26472 0
M  V30 5171 N 488.93 -1.98898 2.11867 0
M  V30 5172 H 488.477 -1.11777 2.32086 0
M  V30 5173 H 488.435 -2.6967 1.61634 0
M  V30 5174 N 492.207 -1.54576 0.307264 0
M  V30 5175 C 493.154 -2.23751 -0.56604 0
M  V30 5176 C 494.124 -1.22235 -1.12462 0
M  V30 5177 O 495.309 -1.50873 -1.16799 0
M  V30 5178 C 492.449 -2.98661 -1.72903 0
M  V30 5179 C 491.562 -4.14963 -1.20124 0
M  V30 5180 C 490.697 -4.77441 -2.3286 0
M  V30 5181 C 489.736 -5.85875 -1.77247 0
M  V30 5182 N 488.873 -6.42282 -2.8358 0
M  V30 5183 H 493.713 -2.97984 0.0304578 0
M  V30 5184 H 491.25 -1.47076 0.0268015 0
M  V30 5185 H 493.208 -3.40329 -2.41313 0
M  V30 5186 H 491.838 -2.26793 -2.29706 0
M  V30 5187 H 490.89 -3.78193 -0.409198 0
M  V30 5188 H 492.202 -4.93066 -0.754171 0
M  V30 5189 H 491.356 -5.21993 -3.09205 0
M  V30 5190 H 490.095 -3.98684 -2.80896 0
M  V30 5191 H 489.1 -5.40741 -0.993926 0
M  V30 5192 H 490.325 -6.6652 -1.30107 0
M  V30 5193 H 488.271 -5.66406 -3.30939 0
M  V30 5194 H 488.188 -7.1575 -2.43388 0
M  V30 5195 H 489.456 -6.91492 -3.59804 0
M  V30 5196 N 493.685 -0.035106 -1.57561 0
M  V30 5197 C 494.962 0.681212 -1.83354 0
M  V30 5198 C 495.342 1.89986 -0.920252 0
M  V30 5199 O 494.69 2.28489 0.0226815 0
M  V30 5200 C 494.9 1.05376 -3.32712 0
M  V30 5201 C 496.248 1.44286 -3.99333 0
M  V30 5202 O 497.272 1.14656 -3.37242 0
M  V30 5203 O 496.131 1.99518 -5.08778 0
M  V30 5204 H 493.225 0.334741 -0.756226 0
M  V30 5205 H 495.771 -0.0632448 -1.69582 0
M  V30 5206 H 494.543 0.186668 -3.90854 0
M  V30 5207 H 494.166 1.85619 -3.51613 0
M  V30 5208 N 495.163 1.55791 0.238111 0
M  V30 5209 C 496.093 1.94068 1.29846 0
M  V30 5210 C 497.074 0.806726 1.49753 0
M  V30 5211 O 498.259 1.06772 1.62214 0
M  V30 5212 C 495.389 2.24302 2.65153 0
M  V30 5213 C 494.343 3.40032 2.59927 0
M  V30 5214 C 493.669 3.55829 3.99111 0
M  V30 5215 C 494.969 4.75476 2.16148 0
M  V30 5216 H 496.663 2.82887 0.980563 0
M  V30 5217 H 494.209 1.36105 0.470253 0
M  V30 5218 H 496.162 2.4967 3.39475 0
M  V30 5219 H 494.886 1.32318 2.98596 0
M  V30 5220 H 493.545 3.14687 1.88063 0
M  V30 5221 H 493.193 2.6125 4.29834 0
M  V30 5222 H 492.893 4.3366 3.96501 0
M  V30 5223 H 494.417 3.83528 4.7512 0
M  V30 5224 H 495.831 5.00158 2.80205 0
M  V30 5225 H 494.228 5.56472 2.24631 0
M  V30 5226 H 495.298 4.71946 1.11333 0
M  V30 5227 N 496.642 -0.504142 1.49319 0
M  V30 5228 C 497.592 -1.60284 1.62151 0
M  V30 5229 C 498.576 -1.53657 0.477315 0
M  V30 5230 O 499.768 -1.6124 0.730108 0
M  V30 5231 C 496.897 -2.98909 1.68844 0
M  V30 5232 C 495.983 -3.10544 2.8883 0
M  V30 5233 N 496.374 -2.92078 4.12946 0
M  V30 5234 C 494.672 -3.4164 2.86702 0
M  V30 5235 C 495.373 -3.07812 4.93585 0
M  V30 5236 N 494.349 -3.36549 4.26891 0
M  V30 5237 H 498.151 -1.44656 2.55835 0
M  V30 5238 H 495.665 -0.710198 1.46048 0
M  V30 5239 H 497.662 -3.77865 1.76134 0
M  V30 5240 H 496.322 -3.15609 0.762943 0
M  V30 5241 H 497.333 -2.68316 4.42975 0
M  V30 5242 H 494.01 -3.64537 2.03517 0
M  V30 5243 H 495.4 -2.98054 6.02174 0
M  V30 5244 N 498.12 -1.38341 -0.754957 0
M  V30 5245 C 499.367 -1.34473 -1.51404 0
M  V30 5246 C 499.695 0.0656458 -1.94389 0
M  V30 5247 O 498.95 1.04244 -1.65625 0
M  V30 5248 C 499.249 -2.2452 -2.78075 0
M  V30 5249 C 498.915 -3.72512 -2.54059 0
M  V30 5250 C 497.577 -4.1284 -2.47218 0
M  V30 5251 C 499.929 -4.66197 -2.33044 0
M  V30 5252 C 497.257 -5.44945 -2.17376 0
M  V30 5253 C 499.609 -5.98558 -2.04723 0
M  V30 5254 C 498.273 -6.37972 -1.96337 0
M  V30 5255 H 497.543 -0.492072 -0.554027 0
M  V30 5256 H 500.19 -1.70687 -0.868223 0
M  V30 5257 H 498.495 -1.81357 -3.473 0
M  V30 5258 H 500.192 -2.18832 -3.36026 0
M  V30 5259 H 496.782 -3.40538 -2.60253 0
M  V30 5260 H 500.966 -4.35888 -2.37309 0
M  V30 5261 H 496.222 -5.74426 -2.09391 0
M  V30 5262 H 500.396 -6.70693 -1.87465 0
M  V30 5263 H 498.023 -7.40258 -1.72978 0
M  V30 5264 N 499.598 0.982988 -1.23187 0
M  V30 5265 C 500.546 2.09616 -1.00817 0
M  V30 5266 C 501.54 1.6932 0.0519995 0
M  V30 5267 O 502.746 1.79715 -0.101284 0
M  V30 5268 H 499.121 0.685628 -0.308899 0
M  V30 5269 H 501.092 2.25652 -1.95253 0
M  V30 5270 C 499.841 3.42249 -0.613243 0
M  V30 5271 H 499.164 3.73705 -1.42073 0
M  V30 5272 H 500.604 4.21086 -0.496208 0
M  V30 5273 C 499.063 3.30002 0.678233 0
M  V30 5274 O 499.593 3.6263 1.72807 0
M  V30 5275 N 497.799 2.83164 0.653165 0
M  V30 5276 H 497.346 2.56811 -0.201492 0
M  V30 5277 H 497.304 2.75352 1.51752 0
M  V30 5278 N 501.076 1.04316 1.18135 0
M  V30 5279 C 502.304 0.768117 1.92113 0
M  V30 5280 C 502.719 -0.675057 1.76319 0
M  V30 5281 O 502.076 -1.46038 1.09449 0
M  V30 5282 C 502.127 1.12808 3.43448 0
M  V30 5283 O 501.848 2.5146 3.58747 0
M  V30 5284 C 503.349 0.8779 4.3452 0
M  V30 5285 H 500.569 0.279937 0.609817 0
M  V30 5286 H 503.113 1.39149 1.49859 0
M  V30 5287 H 501.268 0.549623 3.83481 0
M  V30 5288 H 501.682 2.65313 4.52448 0
M  V30 5289 H 503.156 1.17959 5.39249 0
M  V30 5290 H 503.633 -0.187239 4.38801 0
M  V30 5291 H 504.239 1.43977 4.00188 0
M  V30 5292 N 502.554 -1.34406 0.822964 0
M  V30 5293 C 503.779 -2.0304 0.423034 0
M  V30 5294 C 504.204 -1.61568 -0.963196 0
M  V30 5295 O 503.562 -0.800339 -1.62678 0
M  V30 5296 C 503.61 -3.56636 0.53321 0
M  V30 5297 O 502.714 -4.09971 -0.446939 0
M  V30 5298 H 502.055 -0.64075 0.174171 0
M  V30 5299 H 504.585 -1.71653 1.11339 0
M  V30 5300 H 504.595 -4.05945 0.408991 0
M  V30 5301 H 503.27 -3.86168 1.54425 0
M  V30 5302 H 501.847 -3.71835 -0.281601 0
M  V30 5303 N 504.032 -0.577932 -1.46621 0
M  V30 5304 C 505.281 -0.0594281 -2.01612 0
M  V30 5305 C 505.594 1.30663 -1.45556 0
M  V30 5306 O 506.8 1.91621 -1.92337 0
M  V30 5307 C 505.256 -0.0556666 -3.59857 0
M  V30 5308 C 504.864 -1.41975 -4.24908 0
M  V30 5309 C 506.608 0.409143 -4.22524 0
M  V30 5310 C 504.515 -1.37397 -5.75218 0
M  V30 5311 H 503.445 -0.0184469 -0.753774 0
M  V30 5312 H 506.096 -0.728869 -1.68404 0
M  V30 5313 H 504.478 0.679843 -3.90121 0
M  V30 5314 H 505.652 -2.17461 -4.0626 0
M  V30 5315 H 503.967 -1.82419 -3.74316 0
M  V30 5316 H 506.564 0.46211 -5.32699 0
M  V30 5317 H 506.907 1.42565 -3.91128 0
M  V30 5318 H 507.44 -0.272152 -3.96868 0
M  V30 5319 H 504.179 -2.36714 -6.11267 0
M  V30 5320 H 503.699 -0.661239 -5.96144 0
M  V30 5321 H 505.378 -1.08484 -6.3784 0
M  V30 5322 N 505.51 1.54411 -0.315457 0
M  V30 5323 C 506.473 2.22713 0.54142 0
M  V30 5324 C 507.473 1.2179 1.04995 0
M  V30 5325 O 508.663 1.46426 0.943667 0
M  V30 5326 C 505.795 2.92485 1.75116 0
M  V30 5327 H 506.988 2.99849 -0.0555508 0
M  V30 5328 H 504.541 1.56159 -0.0664453 0
M  V30 5329 H 505.276 2.19466 2.38758 0
M  V30 5330 H 505.061 3.66483 1.39401 0
M  V30 5331 H 506.551 3.44548 2.35959 0
M  V30 5332 N 506.988 0.0434614 1.5754 0
M  V30 5333 C 507.936 -0.951465 2.1225 0
M  V30 5334 C 508.93 -1.3274 1.05245 0
M  V30 5335 O 510.136 -1.30795 1.23663 0
M  V30 5336 H 506.511 -0.324667 0.678303 0
M  V30 5337 H 508.482 -0.464855 2.94757 0
M  V30 5338 C 507.231 -2.21972 2.67626 0
M  V30 5339 H 506.554 -1.93923 3.4962 0
M  V30 5340 H 507.994 -2.89765 3.09536 0
M  V30 5341 C 506.453 -2.95919 1.61038 0
M  V30 5342 O 506.983 -3.8857 1.01862 0
M  V30 5343 N 505.189 -2.58511 1.32741 0
M  V30 5344 H 504.736 -1.83244 1.81051 0
M  V30 5345 H 504.694 -3.08296 0.616531 0
M  V30 5346 N 508.466 -1.55915 -0.229846 0
M  V30 5347 C 509.396 -1.94754 -1.28815 0
M  V30 5348 C 510.377 -0.814657 -1.49323 0
M  V30 5349 O 511.562 -1.07631 -1.61645 0
M  V30 5350 C 508.692 -2.25705 -2.63959 0
M  V30 5351 C 507.646 -3.41406 -2.5812 0
M  V30 5352 C 506.972 -3.57941 -3.97218 0
M  V30 5353 C 508.272 -4.76616 -2.13623 0
M  V30 5354 H 509.966 -2.83404 -0.965547 0
M  V30 5355 H 507.512 -1.36353 -0.463028 0
M  V30 5356 H 509.465 -2.51467 -3.38146 0
M  V30 5357 H 508.189 -1.339 -2.9789 0
M  V30 5358 H 506.848 -3.1568 -1.86391 0
M  V30 5359 H 506.496 -2.63526 -4.28443 0
M  V30 5360 H 506.196 -4.35757 -3.94195 0
M  V30 5361 H 507.72 -3.86042 -4.73079 0
M  V30 5362 H 509.134 -5.01637 -2.77549 0
M  V30 5363 H 507.531 -5.57655 -2.21677 0
M  V30 5364 H 508.601 -4.7253 -1.08829 0
M  V30 5365 N 509.944 0.496216 -1.49584 0
M  V30 5366 C 511.19 1.25189 -1.59548 0
M  V30 5367 C 511.523 1.9212 -0.283466 0
M  V30 5368 O 510.798 1.80947 0.713324 0
M  V30 5369 C 511.081 2.31516 -2.75812 0
M  V30 5370 C 510.934 1.69054 -4.16822 0
M  V30 5371 C 512.253 3.3304 -2.87702 0
M  V30 5372 H 509.372 0.45379 -0.580727 0
M  V30 5373 H 512.014 0.549327 -1.81886 0
M  V30 5374 H 510.164 2.91438 -2.56897 0
M  V30 5375 H 511.836 1.12923 -4.47265 0
M  V30 5376 H 510.079 0.994485 -4.22247 0
M  V30 5377 H 510.75 2.462 -4.94054 0
M  V30 5378 H 513.226 2.83114 -3.04936 0
M  V30 5379 H 512.102 4.04794 -3.7072 0
M  V30 5380 H 512.363 3.95655 -1.97255 0
M  V30 5381 N 511.423 1.38739 0.74761 0
M  V30 5382 C 512.672 1.3459 1.50228 0
M  V30 5383 C 512.985 -0.0595592 1.95509 0
M  V30 5384 O 514.191 -0.22361 2.70578 0
M  V30 5385 C 512.647 2.36377 2.71393 0
M  V30 5386 C 512.255 3.82573 2.33113 0
M  V30 5387 C 513.999 2.41281 3.49262 0
M  V30 5388 C 511.906 4.76032 3.50924 0
M  V30 5389 H 510.836 0.500312 0.564096 0
M  V30 5390 H 513.487 1.64324 0.8167 0
M  V30 5391 H 511.869 1.99694 3.41962 0
M  V30 5392 H 513.043 4.28227 1.70171 0
M  V30 5393 H 511.358 3.80844 1.68365 0
M  V30 5394 H 513.955 3.08301 4.36869 0
M  V30 5395 H 514.298 1.43353 3.9084 0
M  V30 5396 H 514.831 2.76793 2.85711 0
M  V30 5397 H 511.57 5.75177 3.14408 0
M  V30 5398 H 511.09 4.35066 4.12889 0
M  V30 5399 H 512.769 4.94331 4.17427 0
M  V30 5400 N 512.901 -0.976442 1.23707 0
M  V30 5401 C 513.831 -2.08749 1.04624 0
M  V30 5402 C 514.812 -1.70057 -0.0380956 0
M  V30 5403 O 515.997 -1.93782 0.127308 0
M  V30 5404 C 513.127 -3.41335 0.640902 0
M  V30 5405 C 512.081 -3.93947 1.67302 0
M  V30 5406 C 511.407 -5.22774 1.12301 0
M  V30 5407 C 512.707 -4.22769 3.06697 0
M  V30 5408 H 514.401 -2.24972 1.97555 0
M  V30 5409 H 511.947 -1.08108 0.951247 0
M  V30 5410 H 513.9 -4.18489 0.494434 0
M  V30 5411 H 512.624 -3.24988 -0.324099 0
M  V30 5412 H 511.283 -3.18941 1.80755 0
M  V30 5413 H 510.931 -5.0278 0.148877 0
M  V30 5414 H 510.631 -5.58942 1.81267 0
M  V30 5415 H 512.155 -6.02546 0.988479 0
M  V30 5416 H 513.569 -4.90659 2.96524 0
M  V30 5417 H 511.966 -4.70147 3.72937 0
M  V30 5418 H 513.036 -3.29885 3.55392 0
M  V30 5419 N 514.379 -1.04941 -1.1758 0
M  V30 5420 C 515.795 -0.770282 -1.39781 0
M  V30 5421 C 515.995 0.636417 -1.91186 0
M  V30 5422 O 515.051 1.39923 -2.10185 0
M  V30 5423 C 516.364 -1.82376 -2.3908 0
M  V30 5424 C 517.912 -1.84569 -2.52791 0
M  V30 5425 C 518.387 -2.88933 -3.55361 0
M  V30 5426 N 519.878 -2.8788 -3.62877 0
M  V30 5427 C 520.613 -3.65282 -4.41992 0
M  V30 5428 N 520.109 -4.52461 -5.24643 0
M  V30 5429 N 521.902 -3.53732 -4.36841 0
M  V30 5430 H 514.053 -1.95705 -0.825438 0
M  V30 5431 H 516.316 -0.847284 -0.425222 0
M  V30 5432 H 516.022 -2.83323 -2.08376 0
M  V30 5433 H 515.896 -1.66327 -3.38549 0
M  V30 5434 H 518.283 -0.842879 -2.82807 0
M  V30 5435 H 518.364 -2.04696 -1.53406 0
M  V30 5436 H 518.008 -3.89398 -3.26085 0
M  V30 5437 H 517.938 -2.66059 -4.54445 0
M  V30 5438 H 520.429 -2.24666 -3.03864 0
M  V30 5439 H 520.742 -5.08211 -5.82187 0
M  V30 5440 H 519.087 -4.56524 -5.24033 0
M  V30 5441 H 522.278 -2.85021 -3.71323 0
M  V30 5442 H 522.451 -4.14302 -4.98255 0
M  V30 5443 N 515.857 1.33968 -0.830081 0
M  V30 5444 C 517.105 1.97672 -0.420734 0
M  V30 5445 C 517.426 1.66111 1.02138 0
M  V30 5446 O 516.696 0.955503 1.71017 0
M  V30 5447 H 515.276 0.73125 -0.152587 0
M  V30 5448 H 517.938 1.63483 -1.0611 0
M  V30 5449 H 517.034 3.07294 -0.545588 0
M  V30 5450 N 517.335 0.585699 1.46312 0
M  V30 5451 C 518.282 -0.145835 2.30339 0
M  V30 5452 C 519.252 -0.881215 1.40797 0
M  V30 5453 O 520.437 -0.871293 1.69744 0
M  V30 5454 C 517.577 -1.15161 3.25318 0
M  V30 5455 C 516.69 -0.419367 4.2996 0
M  V30 5456 C 515.825 -1.41293 5.12064 0
M  V30 5457 C 514.864 -0.667261 6.08452 0
M  V30 5458 N 514.001 -1.60903 6.83414 0
M  V30 5459 H 518.841 0.576755 2.92365 0
M  V30 5460 H 516.378 0.296237 1.44086 0
M  V30 5461 H 518.336 -1.74763 3.78832 0
M  V30 5462 H 516.966 -1.84188 2.65094 0
M  V30 5463 H 516.018 0.291751 3.7928 0
M  V30 5464 H 517.33 0.163433 4.98532 0
M  V30 5465 H 516.484 -2.08167 5.6987 0
M  V30 5466 H 515.223 -2.02966 4.43459 0
M  V30 5467 H 514.228 0.0152356 5.49798 0
M  V30 5468 H 515.453 -0.0558817 6.79077 0
M  V30 5469 H 513.399 -2.21381 6.17516 0
M  V30 5470 H 513.316 -1.07911 7.48259 0
M  V30 5471 H 514.584 -2.26802 7.45775 0
M  V30 5472 N 518.813 -1.54241 0.323641 0
M  V30 5473 C 520.09 -1.92741 -0.333181 0
M  V30 5474 C 520.47 -1.25326 -1.69872 0
M  V30 5475 O 519.818 -0.396991 -2.25025 0
M  V30 5476 C 520.028 -3.46399 -0.425322 0
M  V30 5477 C 521.376 -4.19029 -0.68557 0
M  V30 5478 O 522.4 -3.52555 -0.50824 0
M  V30 5479 O 521.259 -5.36751 -1.02767 0
M  V30 5480 H 518.353 -0.804811 -0.190286 0
M  V30 5481 H 520.899 -1.65542 0.373361 0
M  V30 5482 H 519.671 -3.87643 0.533737 0
M  V30 5483 H 519.294 -3.79704 -1.17944 0
M  V30 5484 N 520.291 -0.0518155 -1.57515 0
M  V30 5485 C 521.537 0.622745 -1.93002 0
M  V30 5486 C 521.87 1.70456 -0.930499 0
M  V30 5487 O 521.145 1.94452 0.0434086 0
M  V30 5488 C 521.428 1.21824 -3.38867 0
M  V30 5489 C 521.281 0.144434 -4.49568 0
M  V30 5490 C 522.6 2.12968 -3.8514 0
M  V30 5491 H 519.719 0.22491 -0.701844 0
M  V30 5492 H 522.361 -0.113711 -1.89659 0
M  V30 5493 H 520.511 1.8459 -3.41846 0
M  V30 5494 H 522.183 -0.48753 -4.58717 0
M  V30 5495 H 520.426 -0.527424 -4.30582 0
M  V30 5496 H 521.097 0.601127 -5.48717 0
M  V30 5497 H 523.573 1.60163 -3.8404 0
M  V30 5498 H 522.449 2.51578 -4.87852 0
M  V30 5499 H 522.71 3.03004 -3.21934 0
M  V30 5500 N 521.769 1.56035 0.221574 0
M  V30 5501 C 522.701 1.889 1.29805 0
M  V30 5502 C 523.714 0.777269 1.43047 0
M  V30 5503 O 524.903 1.05557 1.43945 0
M  V30 5504 C 522.003 2.0825 2.67367 0
M  V30 5505 C 521.176 3.39267 2.76073 0
M  V30 5506 C 520.235 3.48049 3.94649 0
M  V30 5507 O 519.261 4.2108 3.82988 0
M  V30 5508 N 520.463 2.79191 5.08953 0
M  V30 5509 H 523.228 2.81831 1.01938 0
M  V30 5510 H 520.789 1.5658 0.411612 0
M  V30 5511 H 522.781 2.11441 3.45072 0
M  V30 5512 H 521.351 1.21944 2.87834 0
M  V30 5513 H 520.571 3.48175 1.84846 0
M  V30 5514 H 521.859 4.25575 2.7886 0
M  V30 5515 H 521.257 2.19635 5.21322 0
M  V30 5516 H 519.814 2.88043 5.84701 0
M  V30 5517 N 523.247 -0.488276 1.49845 0
M  V30 5518 C 524.472 -1.26997 1.63971 0
M  V30 5519 C 524.897 -1.85427 0.315994 0
M  V30 5520 O 524.255 -1.66475 -0.718032 0
M  V30 5521 C 524.303 -2.36689 2.72049 0
M  V30 5522 O 523.407 -3.40882 2.32107 0
M  V30 5523 H 522.748 -0.374376 0.548396 0
M  V30 5524 H 525.278 -0.583104 1.96115 0
M  V30 5525 H 525.288 -2.82262 2.94605 0
M  V30 5526 H 523.963 -1.93529 3.68129 0
M  V30 5527 H 522.54 -3.01139 2.19931 0
M  V30 5528 N 524.725 -1.39134 -0.740242 0
M  V30 5529 C 525.688 -1.37217 -1.83587 0
M  V30 5530 C 526.688 -0.270221 -1.58513 0
M  V30 5531 O 527.878 -0.527843 -1.6601 0
M  V30 5532 C 525.01 -1.13959 -3.21288 0
M  V30 5533 H 526.203 -2.34705 -1.86691 0
M  V30 5534 H 523.756 -1.24622 -0.94335 0
M  V30 5535 H 524.491 -0.17131 -3.23847 0
M  V30 5536 H 524.276 -1.93754 -3.40884 0
M  V30 5537 H 525.766 -1.15346 -4.01354 0
M  V30 5538 N 526.204 0.969867 -1.24223 0
M  V30 5539 C 527.481 1.68774 -0.988664 0
M  V30 5540 C 527.861 2.05342 0.489673 0
M  V30 5541 O 527.209 1.75486 1.46345 0
M  V30 5542 C 527.419 2.92135 -1.90941 0
M  V30 5543 C 528.767 3.64422 -2.17903 0
M  V30 5544 O 529.791 3.02188 -1.88576 0
M  V30 5545 O 528.65 4.76446 -2.67697 0
M  V30 5546 H 525.744 0.737736 -0.37373 0
M  V30 5547 H 528.29 1.02415 -1.35312 0
M  V30 5548 H 527.062 2.61788 -2.90831 0
M  V30 5549 H 526.685 3.66228 -1.54798 0
M  V30 5550 N 527.682 1.05563 1.17022 0
M  V30 5551 C 528.928 0.769074 1.87652 0
M  V30 5552 C 529.261 -0.702326 1.81055 0
M  V30 5553 O 528.536 -1.5139 1.22112 0
M  V30 5554 C 528.819 1.25492 3.37526 0
M  V30 5555 C 528.672 2.78953 3.52853 0
M  V30 5556 C 529.991 0.856919 4.31677 0
M  V30 5557 H 527.11 0.280854 0.681388 0
M  V30 5558 H 529.752 1.31027 1.37593 0
M  V30 5559 H 527.902 0.794516 3.80289 0
M  V30 5560 H 529.574 3.33146 3.19079 0
M  V30 5561 H 527.817 3.18046 2.95007 0
M  V30 5562 H 528.488 3.08011 4.58076 0
M  V30 5563 H 530.964 1.25334 3.96775 0
M  V30 5564 H 529.84 1.22443 5.35069 0
M  V30 5565 H 530.101 -0.238787 4.41455 0
M  V30 5566 N 529.16 -1.33526 0.837174 0
M  V30 5567 C 530.07 -2.33023 0.271568 0
M  V30 5568 C 531.086 -1.63272 -0.601514 0
M  V30 5569 O 532.262 -1.94939 -0.506038 0
M  V30 5570 C 529.327 -3.42382 -0.545448 0
M  V30 5571 C 528.388 -4.27857 0.351709 0
M  V30 5572 C 527.621 -5.31994 -0.426409 0
M  V30 5573 O 527.844 -5.45763 -1.65828 0
M  V30 5574 O 526.778 -6.01572 0.1987 0
M  V30 5575 H 530.604 -2.83256 1.09545 0
M  V30 5576 H 528.189 -1.36837 0.599655 0
M  V30 5577 H 530.071 -4.09122 -1.00979 0
M  V30 5578 H 528.746 -2.94369 -1.34641 0
M  V30 5579 H 527.653 -3.6399 0.863853 0
M  V30 5580 H 528.986 -4.79349 1.1174 0
M  V30 5581 N 530.638 -0.59345 -1.46 0
M  V30 5582 C 531.886 -0.082988 -2.0193 0
M  V30 5583 C 532.207 1.28569 -1.46612 0
M  V30 5584 O 531.477 1.84629 -0.654909 0
M  V30 5585 H 530.057 -0.0276882 -0.746487 0
M  V30 5586 H 532.719 -0.771657 -1.78973 0
M  V30 5587 H 531.815 -0.022079 -3.12092 0
M  V30 5588 N 532.116 1.54067 -0.331816 0
M  V30 5589 C 533.363 2.00715 0.268269 0
M  V30 5590 C 533.691 1.21986 1.51491 0
M  V30 5591 O 532.946 0.292309 1.93505 0
M  V30 5592 C 533.245 3.51634 0.639392 0
M  V30 5593 C 532.911 4.48018 -0.509019 0
M  V30 5594 C 531.573 4.74089 -0.824209 0
M  V30 5595 C 533.925 5.05237 -1.28003 0
M  V30 5596 C 531.253 5.54637 -1.91298 0
M  V30 5597 C 533.605 5.86972 -2.35895 0
M  V30 5598 C 532.269 6.11342 -2.67987 0
M  V30 5599 H 531.539 0.734469 0.0981667 0
M  V30 5600 H 534.186 1.8596 -0.457304 0
M  V30 5601 H 532.491 3.6416 1.44551 0
M  V30 5602 H 534.188 3.85175 1.11539 0
M  V30 5603 H 530.778 4.27851 -0.253287 0
M  V30 5604 H 534.962 4.8507 -1.04978 0
M  V30 5605 H 530.218 5.71747 -2.16599 0
M  V30 5606 H 534.392 6.30327 -2.96076 0
M  V30 5607 H 532.019 6.73544 -3.5248 0
M  V30 5608 N 533.594 0.0601682 1.57485 0
M  V30 5609 C 534.541 -0.91112 2.12055 0
M  V30 5610 C 535.511 -1.30298 1.03013 0
M  V30 5611 O 536.696 -1.39087 1.30612 0
M  V30 5612 C 533.836 -2.1775 2.67729 0
M  V30 5613 C 532.949 -1.83933 3.90887 0
M  V30 5614 C 532.084 -3.05096 4.34845 0
M  V30 5615 C 531.123 -2.67241 5.5068 0
M  V30 5616 N 530.26 -3.81127 5.8965 0
M  V30 5617 H 535.1 -0.43888 2.9475 0
M  V30 5618 H 532.637 -0.204995 1.45665 0
M  V30 5619 H 534.595 -2.91866 2.98111 0
M  V30 5620 H 533.225 -2.62535 1.87816 0
M  V30 5621 H 532.277 -0.999287 3.6704 0
M  V30 5622 H 533.589 -1.52074 4.75052 0
M  V30 5623 H 532.743 -3.87502 4.66827 0
M  V30 5624 H 531.482 -3.40139 3.49509 0
M  V30 5625 H 530.487 -1.83254 5.18361 0
M  V30 5626 H 531.712 -2.3338 6.37738 0
M  V30 5627 H 529.658 -4.15954 5.07266 0
M  V30 5628 H 529.575 -3.52997 6.68528 0
M  V30 5629 H 530.843 -4.64145 6.2625 0
M  V30 5630 N 535.072 -1.5615 -0.213296 0
M  V30 5631 C 536.349 -1.70349 -0.961281 0
M  V30 5632 C 536.729 -0.609791 -2.02101 0
M  V30 5633 O 536.077 0.381987 -2.25285 0
M  V30 5634 C 536.287 -3.11982 -1.56424 0
M  V30 5635 C 537.635 -3.71649 -2.05334 0
M  V30 5636 O 538.659 -3.14995 -1.66302 0
M  V30 5637 O 537.518 -4.71038 -2.77102 0
M  V30 5638 H 534.612 -0.694121 -0.449582 0
M  V30 5639 H 537.158 -1.68464 -0.204426 0
M  V30 5640 H 535.93 -3.83046 -0.799457 0
M  V30 5641 H 535.553 -3.18019 -2.38641 0
M  V30 5642 N 536.55 0.480323 -1.50102 0
M  V30 5643 C 537.961 1.06142 -1.53593 0
M  V30 5644 C 538.312 1.93335 -0.334055 0
M  V30 5645 O 537.437 2.09188 0.55403 0
M  V30 5646 C 538.032 1.9317 -2.78336 0
M  V30 5647 C 536.591 2.46405 -2.84538 0
M  V30 5648 C 535.738 1.24521 -2.4777 0
M  V30 5649 H 538.689 0.26333 -1.565 0
M  V30 5650 H 538.71 2.78123 -2.59669 0
M  V30 5651 H 538.222 1.29683 -3.65792 0
M  V30 5652 H 536.323 3.13472 -2.01411 0
M  V30 5653 H 536.436 2.82143 -3.87211 0
M  V30 5654 H 534.8 1.57706 -2.00003 0
M  V30 5655 H 535.583 0.627102 -3.37524 0
M  V30 5656 N 538.028 1.39524 0.732853 0
M  V30 5657 C 538.991 1.38189 1.82857 0
M  V30 5658 C 539.991 0.278624 1.58368 0
M  V30 5659 O 541.181 0.536639 1.65728 0
M  V30 5660 C 538.313 1.15661 3.2068 0
M  V30 5661 H 539.506 2.35692 1.85444 0
M  V30 5662 H 537.059 1.2512 0.936728 0
M  V30 5663 H 537.794 0.188482 3.23752 0
M  V30 5664 H 537.579 1.95559 3.39852 0
M  V30 5665 H 539.069 1.17472 4.00737 0
M  V30 5666 N 539.506 -0.963266 1.24736 0
M  V30 5667 C 540.436 -2.07628 1.06832 0
M  V30 5668 C 541.417 -1.70088 -0.0200566 0
M  V30 5669 O 542.602 -1.93636 0.147854 0
M  V30 5670 C 539.732 -3.40636 0.677069 0
M  V30 5671 C 538.686 -3.9215 1.71471 0
M  V30 5672 C 538.012 -5.21553 1.1784 0
M  V30 5673 C 539.312 -4.19493 3.11164 0
M  V30 5674 H 541.006 -2.22864 1.9993 0
M  V30 5675 H 538.552 -1.07093 0.96266 0
M  V30 5676 H 540.505 -4.17941 0.538792 0
M  V30 5677 H 539.229 -3.25313 -0.289612 0
M  V30 5678 H 537.888 -3.17005 1.84128 0
M  V30 5679 H 537.536 -5.02593 0.202195 0
M  V30 5680 H 537.236 -5.56988 1.87185 0
M  V30 5681 H 538.76 -6.01463 1.05233 0
M  V30 5682 H 540.174 -4.87487 3.01711 0
M  V30 5683 H 538.571 -4.66165 3.77902 0
M  V30 5684 H 539.641 -3.26097 3.58871 0
M  V30 5685 N 540.985 -1.06182 -1.16461 0
M  V30 5686 C 542.215 -0.797425 -1.9059 0
M  V30 5687 C 542.623 0.651845 -1.77616 0
M  V30 5688 O 541.966 1.45788 -1.11766 0
M  V30 5689 C 542.028 -1.11128 -3.41893 0
M  V30 5690 C 541.692 -2.55874 -3.78652 0
M  V30 5691 C 542.689 -3.54104 -3.80665 0
M  V30 5692 C 540.374 -2.91144 -4.09317 0
M  V30 5693 C 542.368 -4.85645 -4.12829 0
M  V30 5694 C 540.055 -4.22885 -4.41148 0
M  V30 5695 C 541.053 -5.19945 -4.42883 0
M  V30 5696 O 540.741 -6.49322 -4.73959 0
M  V30 5697 H 540.473 -0.288709 -0.611247 0
M  V30 5698 H 543.027 -1.41841 -1.4856 0
M  V30 5699 H 541.257 -0.433217 -3.84266 0
M  V30 5700 H 542.946 -0.831306 -3.97296 0
M  V30 5701 H 543.712 -3.28197 -3.57088 0
M  V30 5702 H 539.591 -2.16252 -4.07131 0
M  V30 5703 H 543.135 -5.61398 -4.14099 0
M  V30 5704 H 539.032 -4.48551 -4.6419 0
M  V30 5705 H 539.8 -6.54294 -4.91774 0
M  V30 5706 N 542.463 1.3308 -0.844243 0
M  V30 5707 C 543.691 2.01808 -0.456203 0
M  V30 5708 C 544.106 1.63498 0.944131 0
M  V30 5709 O 543.463 0.85102 1.61443 0
M  V30 5710 C 543.514 3.56922 -0.573513 0
M  V30 5711 O 543.235 3.93851 -1.91868 0
M  V30 5712 C 544.736 4.42922 -0.183125 0
M  V30 5713 H 541.956 0.646273 -0.180477 0
M  V30 5714 H 544.5 1.69891 -1.1383 0
M  V30 5715 H 542.655 3.87352 0.0607367 0
M  V30 5716 H 543.069 4.88564 -1.90802 0
M  V30 5717 H 544.543 5.51093 -0.316241 0
M  V30 5718 H 545.02 4.30386 0.875477 0
M  V30 5719 H 545.626 4.1786 -0.792027 0
M  V30 5720 N 543.941 0.601185 1.45683 0
M  V30 5721 C 545.166 0.0982245 2.07167 0
M  V30 5722 C 545.591 -1.20546 1.44396 0
M  V30 5723 O 544.949 -1.73247 0.534347 0
M  V30 5724 C 544.997 -0.0346976 3.60583 0
M  V30 5725 O 544.101 -1.08657 3.97828 0
M  V30 5726 H 543.442 0.0711618 0.660176 0
M  V30 5727 H 545.972 0.829376 1.87036 0
M  V30 5728 H 545.982 -0.234969 4.07323 0
M  V30 5729 H 544.657 0.917265 4.05659 0
M  V30 5730 H 543.234 -0.863275 3.6277 0
M  V30 5731 N 545.419 -1.53889 0.339982 0
M  V30 5732 C 546.665 -2.01849 -0.250694 0
M  V30 5733 C 547.02 -1.22356 -1.48482 0
M  V30 5734 O 546.313 -0.301906 -1.89206 0
M  V30 5735 C 546.507 -3.51968 -0.620735 0
M  V30 5736 C 546.336 -4.45996 0.575981 0
M  V30 5737 C 545.106 -4.93619 1.08019 0
M  V30 5738 C 547.304 -4.93923 1.43332 0
M  V30 5739 N 545.286 -5.7159 2.2396 0
M  V30 5740 C 546.657 -5.69982 2.43969 0
M  V30 5741 C 548.712 -4.76038 1.45918 0
M  V30 5742 C 547.415 -6.30057 3.47016 0
M  V30 5743 C 549.441 -5.36961 2.47845 0
M  V30 5744 C 548.803 -6.12884 3.47208 0
M  V30 5745 H 544.902 -0.780054 -0.0551368 0
M  V30 5746 H 547.486 -1.88722 0.478741 0
M  V30 5747 H 545.657 -3.65308 -1.31928 0
M  V30 5748 H 547.389 -3.86677 -1.19429 0
M  V30 5749 H 544.144 -4.69134 0.64884 0
M  V30 5750 H 544.568 -6.15247 2.82489 0
M  V30 5751 H 549.21 -4.16887 0.704608 0
M  V30 5752 H 546.928 -6.88319 4.23371 0
M  V30 5753 H 550.514 -5.2503 2.50668 0
M  V30 5754 H 549.394 -6.59187 4.24785 0
M  V30 5755 N 546.897 -0.0685191 -1.57451 0
M  V30 5756 C 547.827 0.89747 -2.15564 0
M  V30 5757 C 548.808 1.31266 -1.08181 0
M  V30 5758 O 549.993 1.38429 -1.36202 0
M  V30 5759 C 547.123 2.16623 -2.71463 0
M  V30 5760 C 546.077 1.89054 -3.83982 0
M  V30 5761 C 545.403 3.22532 -4.26471 0
M  V30 5762 C 546.703 1.1984 -5.08366 0
M  V30 5763 H 548.397 0.413373 -2.96533 0
M  V30 5764 H 545.943 0.197391 -1.42641 0
M  V30 5765 H 547.896 2.84614 -3.10761 0
M  V30 5766 H 546.62 2.67269 -1.8771 0
M  V30 5767 H 545.279 1.23469 -3.45183 0
M  V30 5768 H 544.927 3.71013 -3.39644 0
M  V30 5769 H 544.627 3.04879 -5.02317 0
M  V30 5770 H 546.151 3.91727 -4.68383 0
M  V30 5771 H 547.565 1.77896 -5.45001 0
M  V30 5772 H 545.962 1.12456 -5.89469 0
M  V30 5773 H 547.032 0.176996 -4.84577 0
M  V30 5774 N 548.375 1.56261 0.205012 0
M  V30 5775 C 549.322 1.93754 1.25411 0
M  V30 5776 C 550.292 0.796826 1.45739 0
M  V30 5777 O 551.477 1.05414 1.59036 0
M  V30 5778 C 548.617 2.27383 2.59598 0
M  V30 5779 C 547.73 3.5447 2.46931 0
M  V30 5780 C 546.865 3.77468 3.73753 0
M  V30 5781 C 545.904 4.98014 3.55877 0
M  V30 5782 N 545.041 5.17316 4.74688 0
M  V30 5783 H 549.881 2.83203 0.92737 0
M  V30 5784 H 547.418 1.40158 0.446574 0
M  V30 5785 H 549.376 2.44895 3.37761 0
M  V30 5786 H 548.006 1.41088 2.90335 0
M  V30 5787 H 547.058 3.45061 1.60116 0
M  V30 5788 H 548.37 4.42789 2.29651 0
M  V30 5789 H 547.524 3.95165 4.60358 0
M  V30 5790 H 546.263 2.87461 3.93976 0
M  V30 5791 H 545.268 4.80249 2.67657 0
M  V30 5792 H 546.493 5.8952 3.37109 0
M  V30 5793 H 544.439 4.30255 4.95194 0
M  V30 5794 H 544.356 5.99796 4.60197 0
M  V30 5795 H 545.624 5.39463 5.62672 0
M  V30 5796 N 549.853 -0.472356 1.50355 0
M  V30 5797 C 551.264 -1.05326 1.54154 0
M  V30 5798 C 551.615 -1.93155 0.344303 0
M  V30 5799 O 550.74 -2.09479 -0.542928 0
M  V30 5800 C 551.335 -1.91691 2.79356 0
M  V30 5801 C 549.894 -2.44892 2.8584 0
M  V30 5802 C 549.041 -1.23205 2.48426 0
M  V30 5803 H 551.992 -0.255027 1.56637 0
M  V30 5804 H 552.013 -2.76742 2.6114 0
M  V30 5805 H 551.525 -1.27741 3.66475 0
M  V30 5806 H 549.626 -3.12399 2.0307 0
M  V30 5807 H 549.739 -2.80086 3.88701 0
M  V30 5808 H 548.103 -1.56643 2.00836 0
M  V30 5809 H 548.886 -0.609194 3.37852 0
M  V30 5810 N 551.331 -1.39911 -0.725443 0
M  V30 5811 C 552.577 -1.37858 -1.48738 0
M  V30 5812 C 552.91 0.0224187 -1.94187 0
M  V30 5813 O 552.185 0.989204 -1.67466 0
M  V30 5814 C 552.468 -2.3594 -2.72038 0
M  V30 5815 C 552.321 -3.85023 -2.32546 0
M  V30 5816 C 553.64 -2.31704 -3.74167 0
M  V30 5817 H 550.759 -0.502074 -0.539528 0
M  V30 5818 H 553.401 -1.70974 -0.828728 0
M  V30 5819 H 551.551 -2.0783 -3.28236 0
M  V30 5820 H 553.223 -4.2392 -1.81905 0
M  V30 5821 H 551.466 -4.01334 -1.64661 0
M  V30 5822 H 552.137 -4.49152 -3.20884 0
M  V30 5823 H 554.613 -2.5658 -3.27576 0
M  V30 5824 H 553.489 -3.02395 -4.58092 0
M  V30 5825 H 553.75 -1.3253 -4.21768 0
M  V30 5826 N 552.809 0.956637 -1.25245 0
M  V30 5827 C 553.757 2.0743 -1.0524 0
M  V30 5828 C 554.751 1.69392 0.0160725 0
M  V30 5829 O 555.957 1.7946 -0.139382 0
M  V30 5830 H 552.332 0.678921 -0.323373 0
M  V30 5831 H 554.303 2.2146 -1.99995 0
M  V30 5832 C 553.052 3.40872 -0.685702 0
M  V30 5833 H 552.375 3.70607 -1.49968 0
M  V30 5834 H 553.815 4.19939 -0.585415 0
M  V30 5835 C 552.274 3.31367 0.608082 0
M  V30 5836 O 552.804 3.66214 1.65076 0
M  V30 5837 N 551.01 2.84486 0.592955 0
M  V30 5838 H 550.557 2.56326 -0.25592 0
M  V30 5839 H 550.515 2.78509 1.45877 0
M  V30 5840 N 554.287 1.06798 1.15896 0
M  V30 5841 C 555.25 0.687328 2.18651 0
M  V30 5842 C 556.25 -0.269559 1.58524 0
M  V30 5843 O 557.44 -0.0512627 1.74125 0
M  V30 5844 C 554.572 0.0121642 3.40898 0
M  V30 5845 H 555.765 1.59701 2.53842 0
M  V30 5846 H 553.318 0.863828 1.3026 0
M  V30 5847 H 554.053 -0.910025 3.1127 0
M  V30 5848 H 553.838 0.700309 3.85795 0
M  V30 5849 H 555.328 -0.239703 4.16911 0
M  V30 5850 N 555.766 -1.3263 0.851289 0
M  V30 5851 C 557.013 -1.97368 0.453023 0
M  V30 5852 C 557.341 -1.67384 -0.990596 0
M  V30 5853 O 556.596 -0.952665 -1.70947 0
M  V30 5854 C 556.895 -3.51713 0.635015 0
M  V30 5855 C 556.561 -4.01676 2.04859 0
M  V30 5856 C 555.223 -4.15031 2.43522 0
M  V30 5857 C 557.575 -4.28206 2.97135 0
M  V30 5858 C 554.903 -4.52257 3.73739 0
M  V30 5859 C 557.255 -4.66889 4.26846 0
M  V30 5860 C 555.919 -4.7845 4.65448 0
M  V30 5861 H 555.189 -0.722219 0.165773 0
M  V30 5862 H 557.836 -1.58092 1.0807 0
M  V30 5863 H 556.141 -3.91726 -0.0759081 0
M  V30 5864 H 557.838 -3.99823 0.306964 0
M  V30 5865 H 554.428 -3.91764 1.73836 0
M  V30 5866 H 558.612 -4.174 2.68498 0
M  V30 5867 H 553.868 -4.59402 4.03435 0
M  V30 5868 H 558.042 -4.86372 4.98413 0
M  V30 5869 H 555.669 -5.07052 5.66395 0
M  V30 5870 N 557.244 -0.608902 -1.45362 0
M  V30 5871 C 558.192 0.121639 -2.32282 0
M  V30 5872 C 559.186 0.858301 -1.46046 0
M  V30 5873 O 560.392 0.773718 -1.62523 0
M  V30 5874 H 556.767 0.058086 -0.749753 0
M  V30 5875 H 558.738 -0.629866 -2.91677 0
M  V30 5876 C 557.487 1.1047 -3.29684 0
M  V30 5877 H 556.81 0.547278 -3.96036 0
M  V30 5878 H 558.25 1.58576 -3.9323 0
M  V30 5879 C 556.709 2.17891 -2.56954 0
M  V30 5880 O 557.239 3.25652 -2.35189 0
M  V30 5881 N 555.445 1.93211 -2.17066 0
M  V30 5882 H 554.992 1.05584 -2.34967 0
M  V30 5883 H 554.95 2.6529 -1.68727 0
M  V30 5884 N 558.722 1.53707 -0.348139 0
M  V30 5885 C 559.968 2.01286 0.247332 0
M  V30 5886 C 560.301 1.23546 1.49834 0
M  V30 5887 O 559.576 0.324331 1.91777 0
M  V30 5888 C 559.859 3.55768 0.556858 0
M  V30 5889 C 559.712 4.44216 -0.706564 0
M  V30 5890 C 561.031 4.1841 1.3646 0
M  V30 5891 H 558.15 0.731677 0.0884201 0
M  V30 5892 H 560.792 1.84106 -0.469584 0
M  V30 5893 H 558.942 3.70539 1.16761 0
M  V30 5894 H 560.614 4.41274 -1.34444 0
M  V30 5895 H 558.857 4.12892 -1.33052 0
M  V30 5896 H 559.528 5.50202 -0.445186 0
M  V30 5897 H 562.004 4.07365 0.848113 0
M  V30 5898 H 560.88 5.26563 1.54992 0
M  V30 5899 H 561.141 3.7333 2.36805 0
M  V30 5900 N 560.2 0.0768682 1.57412 0
M  V30 5901 C 561.446 -0.585926 1.94778 0
M  V30 5902 C 561.801 -1.66912 0.956982 0
M  V30 5903 O 561.094 -1.9159 -0.0199454 0
M  V30 5904 C 561.288 -1.20268 3.36557 0
M  V30 5905 C 561.117 -0.18076 4.49337 0
M  V30 5906 C 559.887 0.236362 5.04747 0
M  V30 5907 C 562.085 0.583978 5.10974 0
M  V30 5908 N 560.067 1.24846 6.01071 0
M  V30 5909 C 561.438 1.44841 6.02844 0
M  V30 5910 C 563.493 0.639492 4.93776 0
M  V30 5911 C 562.196 2.36343 6.79363 0
M  V30 5912 C 564.222 1.54204 5.70942 0
M  V30 5913 C 563.584 2.39414 6.62465 0
M  V30 5914 H 559.683 -0.185281 0.759734 0
M  V30 5915 H 562.267 0.155193 1.9408 0
M  V30 5916 H 560.438 -1.9137 3.37982 0
M  V30 5917 H 562.17 -1.82636 3.61146 0
M  V30 5918 H 558.925 -0.14777 4.73369 0
M  V30 5919 H 559.349 1.75217 6.53933 0
M  V30 5920 H 563.991 -0.00510074 4.228 0
M  V30 5921 H 561.709 3.01836 7.49614 0
M  V30 5922 H 565.295 1.5899 5.59655 0
M  V30 5923 H 564.175 3.0812 7.21132 0
M  V30 5924 N 561.678 -1.56367 -0.196722 0
M  V30 5925 C 562.625 -1.94417 -1.24382 0
M  V30 5926 C 563.595 -0.804543 -1.45315 0
M  V30 5927 O 564.78 -1.06256 -1.58475 0
M  V30 5928 C 561.92 -2.28757 -2.58388 0
M  V30 5929 C 561.033 -3.55775 -2.45047 0
M  V30 5930 C 560.168 -3.79445 -3.71746 0
M  V30 5931 C 559.207 -4.99894 -3.53231 0
M  V30 5932 N 558.344 -5.19826 -4.71938 0
M  V30 5933 H 563.184 -2.83691 -0.912338 0
M  V30 5934 H 560.721 -1.40392 -0.439135 0
M  V30 5935 H 562.679 -2.46682 -3.36457 0
M  V30 5936 H 561.309 -1.42625 -2.89582 0
M  V30 5937 H 560.361 -3.45905 -1.58284 0
M  V30 5938 H 561.673 -4.44 -2.27299 0
M  V30 5939 H 560.827 -3.97601 -4.58256 0
M  V30 5940 H 559.566 -2.89546 -3.92446 0
M  V30 5941 H 558.571 -4.81662 -2.65107 0
M  V30 5942 H 559.796 -5.913 -3.33978 0
M  V30 5943 H 557.742 -4.32875 -4.92905 0
M  V30 5944 H 557.659 -6.02228 -4.57009 0
M  V30 5945 H 558.927 -5.42439 -5.59803 0
M  V30 5946 N 563.156 0.464375 -1.50603 0
M  V30 5947 C 564.384 1.23907 -1.65695 0
M  V30 5948 C 564.799 1.85658 -0.343027 0
M  V30 5949 O 564.156 1.69529 0.675739 0
M  V30 5950 C 564.207 2.3429 -2.75301 0
M  V30 5951 O 563.928 1.7507 -4.01599 0
M  V30 5952 C 565.429 3.25051 -3.01424 0
M  V30 5953 H 562.649 0.374485 -0.556778 0
M  V30 5954 H 565.193 0.55353 -1.96866 0
M  V30 5955 H 563.348 2.98607 -2.46804 0
M  V30 5956 H 563.762 2.47812 -4.62266 0
M  V30 5957 H 565.236 3.98699 -3.81763 0
M  V30 5958 H 565.713 3.84227 -2.12758 0
M  V30 5959 H 566.319 2.66463 -3.31477 0
M  V30 5960 N 564.634 1.40294 0.718013 0
M  V30 5961 C 565.566 1.36281 1.84283 0
M  V30 5962 C 566.579 0.268621 1.60569 0
M  V30 5963 O 567.768 0.528798 1.70487 0
M  V30 5964 C 564.868 1.09741 3.2064 0
M  V30 5965 C 564.041 2.30767 3.71571 0
M  V30 5966 C 563.1 2.00424 4.86535 0
M  V30 5967 O 562.126 2.73268 4.99313 0
M  V30 5968 N 563.328 0.980724 5.72156 0
M  V30 5969 H 566.093 2.3322 1.88225 0
M  V30 5970 H 563.654 1.34616 0.899453 0
M  V30 5971 H 565.646 0.874322 3.95143 0
M  V30 5972 H 564.216 0.214771 3.11861 0
M  V30 5973 H 563.436 2.68921 2.88228 0
M  V30 5974 H 564.724 3.11455 4.02335 0
M  V30 5975 H 564.122 0.377375 5.6444 0
M  V30 5976 H 562.679 0.817538 6.46653 0
M  V30 5977 N 566.112 -0.949982 1.2575 0
M  V30 5978 C 567.528 -1.22191 1.02672 0
M  V30 5979 C 567.728 -1.99898 -0.253588 0
M  V30 5980 O 566.784 -2.33329 -0.965076 0
M  V30 5981 C 568.097 -1.99175 2.25277 0
M  V30 5982 C 569.645 -2.12201 2.30087 0
M  V30 5983 C 570.12 -2.92586 3.5236 0
M  V30 5984 N 571.611 -3.00163 3.52784 0
M  V30 5985 C 572.346 -3.62766 4.44059 0
M  V30 5986 N 571.842 -4.26943 5.45611 0
M  V30 5987 N 573.635 -3.59953 4.3173 0
M  V30 5988 H 565.786 -0.430258 2.07996 0
M  V30 5989 H 568.049 -0.252844 0.91366 0
M  V30 5990 H 567.755 -1.49479 3.18354 0
M  V30 5991 H 567.629 -2.99868 2.28821 0
M  V30 5992 H 570.016 -2.61093 1.3753 0
M  V30 5993 H 570.097 -1.10799 2.30559 0
M  V30 5994 H 569.741 -2.44383 4.45241 0
M  V30 5995 H 569.671 -3.94224 3.49134 0
M  V30 5996 H 572.162 -2.54529 2.79327 0
M  V30 5997 H 572.475 -4.72583 6.11461 0
M  V30 5998 H 570.82 -4.25557 5.49478 0
M  V30 5999 H 574.011 -3.09003 3.51617 0
M  V30 6000 H 574.184 -4.08455 5.03059 0
M  V30 6001 N 567.59 -1.07411 -1.15328 0
M  V30 6002 C 568.553 -0.698914 -2.18284 0
M  V30 6003 C 569.553 0.261149 -1.58665 0
M  V30 6004 O 570.743 0.0420277 -1.74149 0
M  V30 6005 C 567.875 -0.0302427 -3.40887 0
M  V30 6006 H 569.068 -1.61045 -2.52991 0
M  V30 6007 H 566.621 -0.870724 -1.298 0
M  V30 6008 H 567.356 0.893505 -3.11748 0
M  V30 6009 H 567.141 -0.720759 -3.85419 0
M  V30 6010 H 568.631 0.21759 -4.17033 0
M  V30 6011 N 569.068 1.32177 -0.85831 0
M  V30 6012 C 570.315 1.97125 -0.463484 0
M  V30 6013 C 570.643 1.67907 0.981705 0
M  V30 6014 O 569.898 0.961717 1.70439 0
M  V30 6015 C 570.197 3.51372 -0.653658 0
M  V30 6016 C 569.863 4.00584 -2.06987 0
M  V30 6017 C 568.525 4.13733 -2.4572 0
M  V30 6018 C 570.877 4.26624 -2.99402 0
M  V30 6019 C 568.205 4.50268 -3.76132 0
M  V30 6020 C 570.557 4.64618 -4.29316 0
M  V30 6021 C 569.221 4.75975 -4.67979 0
M  V30 6022 H 568.491 0.72133 -0.169601 0
M  V30 6023 H 571.138 1.57517 -1.08907 0
M  V30 6024 H 569.443 3.91761 0.0551328 0
M  V30 6025 H 571.14 3.99655 -0.328163 0
M  V30 6026 H 567.73 3.90837 -1.75911 0
M  V30 6027 H 571.914 4.1597 -2.70708 0
M  V30 6028 H 567.17 4.57256 -4.05865 0
M  V30 6029 H 571.344 4.83722 -5.00985 0
M  V30 6030 H 568.971 5.04041 -5.69076 0
M  V30 6031 N 570.547 0.616602 1.45037 0
M  V30 6032 C 571.772 0.120192 2.07051 0
M  V30 6033 C 572.197 -1.19008 1.45666 0
M  V30 6034 O 571.555 -1.7267 0.552692 0
M  V30 6035 C 571.603 0.00354901 3.606 0
M  V30 6036 O 570.707 -1.04431 3.98958 0
M  V30 6037 H 570.048 0.0781599 0.659384 0
M  V30 6038 H 572.578 0.849167 1.86146 0
M  V30 6039 H 572.588 -0.191754 4.07549 0
M  V30 6040 H 571.263 0.960239 4.04663 0
M  V30 6041 H 569.84 -0.824749 3.63665 0
M  V30 6042 N 572.025 -1.5352 0.356285 0
M  V30 6043 C 572.972 -2.25439 -0.494569 0
M  V30 6044 C 573.942 -1.25752 -1.08516 0
M  V30 6045 O 575.127 -1.54513 -1.1194 0
M  V30 6046 C 572.267 -3.04011 -1.63313 0
M  V30 6047 C 571.38 -4.18574 -1.06862 0
M  V30 6048 C 570.515 -4.84607 -2.17552 0
M  V30 6049 C 569.554 -5.91218 -1.58518 0
M  V30 6050 N 568.691 -6.50979 -2.63003 0
M  V30 6051 H 573.531 -2.97737 0.125244 0
M  V30 6052 H 571.068 -1.46916 0.0735789 0
M  V30 6053 H 573.026 -3.47834 -2.30363 0
M  V30 6054 H 571.656 -2.33986 -2.22374 0
M  V30 6055 H 570.708 -3.79303 -0.288672 0
M  V30 6056 H 572.02 -4.95215 -0.596924 0
M  V30 6057 H 571.174 -5.31566 -2.92442 0
M  V30 6058 H 569.913 -4.07418 -2.6807 0
M  V30 6059 H 568.918 -5.4363 -0.821391 0
M  V30 6060 H 570.143 -6.70322 -1.08836 0
M  V30 6061 H 568.089 -5.76648 -3.12751 0
M  V30 6062 H 568.006 -7.23131 -2.20493 0
M  V30 6063 H 569.274 -7.02589 -3.37623 0
M  V30 6064 N 573.503 -0.0852151 -1.57369 0
M  V30 6065 C 574.733 0.588605 -1.98038 0
M  V30 6066 C 575.141 1.62869 -0.962817 0
M  V30 6067 O 574.484 1.83611 0.057134 0
M  V30 6068 C 574.546 1.30303 -3.35054 0
M  V30 6069 C 574.21 0.414855 -4.55113 0
M  V30 6070 C 575.207 -0.333011 -5.18832 0
M  V30 6071 C 572.892 0.335804 -5.01176 0
M  V30 6072 C 574.886 -1.14801 -6.26976 0
M  V30 6073 C 572.573 -0.482857 -6.09189 0
M  V30 6074 C 573.571 -1.22342 -6.71953 0
M  V30 6075 O 573.259 -2.02855 -7.77885 0
M  V30 6076 H 572.991 0.163249 -0.655992 0
M  V30 6077 H 575.545 -0.1582 -2.0479 0
M  V30 6078 H 573.775 2.0962 -3.24956 0
M  V30 6079 H 575.464 1.87041 -3.60237 0
M  V30 6080 H 576.23 -0.281611 -4.84182 0
M  V30 6081 H 572.109 0.901869 -4.52092 0
M  V30 6082 H 575.653 -1.72654 -6.75897 0
M  V30 6083 H 571.55 -0.535773 -6.43273 0
M  V30 6084 H 572.318 -1.95432 -7.94826 0
M  V30 6085 N 574.981 1.5647 0.188427 0
M  V30 6086 C 575.891 1.98285 1.2538 0
M  V30 6087 C 576.907 0.891535 1.49424 0
M  V30 6088 O 578.083 1.19782 1.61908 0
M  V30 6089 C 575.148 2.31965 2.57669 0
M  V30 6090 C 574.209 3.54838 2.41638 0
M  V30 6091 C 573.442 3.86901 3.67618 0
M  V30 6092 O 573.665 3.20163 4.72072 0
M  V30 6093 O 572.599 4.80309 3.62749 0
M  V30 6094 H 576.425 2.89145 0.928912 0
M  V30 6095 H 574.01 1.44112 0.393955 0
M  V30 6096 H 575.892 2.54673 3.35737 0
M  V30 6097 H 574.567 1.44271 2.89771 0
M  V30 6098 H 573.474 3.37369 1.61658 0
M  V30 6099 H 574.807 4.43019 2.14465 0
M  V30 6100 N 576.459 -0.456382 1.50847 0
M  V30 6101 C 577.406 -1.55249 1.70782 0
M  V30 6102 C 578.376 -1.56757 0.549231 0
M  V30 6103 O 579.561 -1.74061 0.7815 0
M  V30 6104 C 576.701 -2.93118 1.82143 0
M  V30 6105 C 575.814 -3.01285 3.09598 0
M  V30 6106 C 574.949 -4.30159 3.11667 0
M  V30 6107 C 573.988 -4.32124 4.33515 0
M  V30 6108 N 573.125 -5.52492 4.3324 0
M  V30 6109 H 577.965 -1.37555 2.64353 0
M  V30 6110 H 575.502 -0.668543 1.3103 0
M  V30 6111 H 577.46 -3.73088 1.86711 0
M  V30 6112 H 576.09 -3.09413 0.919978 0
M  V30 6113 H 575.142 -2.14096 3.14431 0
M  V30 6114 H 576.454 -2.98597 3.99551 0
M  V30 6115 H 575.608 -5.18489 3.15046 0
M  V30 6116 H 574.347 -4.35477 2.1957 0
M  V30 6117 H 573.352 -3.42189 4.30333 0
M  V30 6118 H 574.577 -4.28485 5.26856 0
M  V30 6119 H 572.523 -5.58567 3.44004 0
M  V30 6120 H 572.44 -5.51605 5.16979 0
M  V30 6121 H 573.708 -6.42906 4.40786 0
M  V30 6122 N 577.937 -1.40673 -0.710563 0
M  V30 6123 C 579.162 -1.42741 -1.50465 0
M  V30 6124 C 579.587 -0.0302116 -1.88076 0
M  V30 6125 O 578.945 0.962945 -1.53613 0
M  V30 6126 C 578.993 -2.32873 -2.75322 0
M  V30 6127 O 578.097 -1.77544 -3.72226 0
M  V30 6128 H 577.438 -0.485056 -0.45345 0
M  V30 6129 H 579.968 -1.84961 -0.874681 0
M  V30 6130 H 579.978 -2.48233 -3.23797 0
M  V30 6131 H 578.653 -3.34401 -2.47283 0
M  V30 6132 H 577.23 -1.71556 -3.31093 0
M  V30 6133 N 579.415 0.9433 -1.26252 0
M  V30 6134 C 580.378 2.02326 -1.07689 0
M  V30 6135 C 581.378 1.60779 -0.0259174 0
M  V30 6136 O 582.568 1.72108 -0.269134 0
M  V30 6137 C 579.7 3.34886 -0.63752 0
M  V30 6138 H 580.893 2.20225 -2.0357 0
M  V30 6139 H 578.446 1.12197 -1.08819 0
M  V30 6140 H 579.181 3.22684 0.323377 0
M  V30 6141 H 578.966 3.66393 -1.39637 0
M  V30 6142 H 580.456 4.14231 -0.529418 0
M  V30 6143 N 580.893 1.08022 1.14757 0
M  V30 6144 C 582.139 0.808705 1.85978 0
M  V30 6145 C 582.472 -0.663764 1.82504 0
M  V30 6146 O 581.747 -1.48765 1.25296 0
M  V30 6147 C 582.03 1.32623 3.34788 0
M  V30 6148 C 581.883 2.86375 3.46856 0
M  V30 6149 C 583.202 0.948291 4.29762 0
M  V30 6150 H 580.321 0.295244 0.675278 0
M  V30 6151 H 582.963 1.33917 1.34783 0
M  V30 6152 H 581.113 0.875002 3.78518 0
M  V30 6153 H 582.785 3.39839 3.11941 0
M  V30 6154 H 581.028 3.24232 2.88194 0
M  V30 6155 H 581.699 3.17658 4.51439 0
M  V30 6156 H 584.175 1.33722 3.94028 0
M  V30 6157 H 583.051 1.33765 5.32352 0
M  V30 6158 H 583.312 -0.145094 4.41862 0
M  V30 6159 N 582.371 -1.3172 0.865308 0
M  V30 6160 C 583.301 -2.31109 0.333302 0
M  V30 6161 C 584.282 -1.60148 -0.573301 0
M  V30 6162 O 585.467 -1.87882 -0.491305 0
M  V30 6163 C 582.597 -3.44104 -0.470078 0
M  V30 6164 C 581.551 -4.26623 0.343021 0
M  V30 6165 C 580.877 -5.31482 -0.585756 0
M  V30 6166 C 582.177 -4.98001 1.57456 0
M  V30 6167 H 583.871 -2.75855 1.1638 0
M  V30 6168 H 581.417 -1.3262 0.561069 0
M  V30 6169 H 583.37 -4.12682 -0.852752 0
M  V30 6170 H 582.094 -2.98112 -1.33404 0
M  V30 6171 H 580.753 -3.59707 0.707583 0
M  V30 6172 H 580.401 -4.81741 -1.44686 0
M  V30 6173 H 580.101 -5.87582 -0.0456494 0
M  V30 6174 H 581.625 -6.0292 -0.965375 0
M  V30 6175 H 583.039 -5.59201 1.26359 0
M  V30 6176 H 581.436 -5.63876 2.05339 0
M  V30 6177 H 582.506 -4.25253 2.32997 0
M  V30 6178 N 583.85 -0.624285 -1.44708 0
M  V30 6179 C 585.096 -0.126237 -2.02407 0
M  V30 6180 C 585.428 1.24618 -1.48943 0
M  V30 6181 O 584.704 1.82569 -0.670742 0
M  V30 6182 C 584.986 -0.105449 -3.59946 0
M  V30 6183 C 584.84 -1.50972 -4.23707 0
M  V30 6184 C 586.159 0.573629 -4.36346 0
M  V30 6185 H 583.278 -0.0473472 -0.735478 0
M  V30 6186 H 585.92 -0.799452 -1.72362 0
M  V30 6187 H 584.07 0.46783 -3.85673 0
M  V30 6188 H 585.742 -2.13136 -4.0911 0
M  V30 6189 H 583.985 -2.0656 -3.81465 0
M  V30 6190 H 584.656 -1.44727 -5.32689 0
M  V30 6191 H 587.132 0.0861787 -4.16011 0
M  V30 6192 H 586.008 0.557338 -5.46063 0
M  V30 6193 H 586.269 1.64276 -4.10446 0
M  V30 6194 N 585.328 1.53329 -0.364422 0
M  V30 6195 C 586.553 2.06132 0.229033 0
M  V30 6196 C 586.978 1.23625 1.41769 0
M  V30 6197 O 586.336 0.255038 1.79497 0
M  V30 6198 C 586.384 3.55544 0.60174 0
M  V30 6199 O 585.488 3.75771 1.69912 0
M  V30 6200 H 584.829 0.663148 0.0336213 0
M  V30 6201 H 587.359 1.97758 -0.524689 0
M  V30 6202 H 587.369 3.98549 0.873073 0
M  V30 6203 H 586.044 4.15039 -0.267421 0
M  V30 6204 H 584.621 3.44663 1.42343 0
M  V30 6205 N 586.806 0.0935595 1.57322 0
M  V30 6206 C 587.754 -0.883457 2.15169 0
M  V30 6207 C 588.748 -1.29324 1.09415 0
M  V30 6208 O 589.954 -1.26795 1.27762 0
M  V30 6209 H 586.329 -0.302923 0.688289 0
M  V30 6210 H 588.3 -0.370845 2.96087 0
M  V30 6211 C 587.049 -2.13345 2.74552 0
M  V30 6212 H 586.372 -1.82702 3.55612 0
M  V30 6213 H 587.812 -2.7977 3.18598 0
M  V30 6214 C 586.271 -2.90646 1.70371 0
M  V30 6215 O 586.801 -3.85133 1.14173 0
M  V30 6216 N 585.007 -2.54157 1.40899 0
M  V30 6217 H 584.554 -1.77391 1.86789 0
M  V30 6218 H 584.512 -3.06178 0.714301 0
M  V30 6219 N 588.284 -1.56567 -0.180126 0
M  V30 6220 C 589.509 -1.85975 -0.918041 0
M  V30 6221 C 589.934 -0.678888 -1.75422 0
M  V30 6222 O 589.292 0.372168 -1.77439 0
M  V30 6223 C 589.34 -3.13731 -1.77779 0
M  V30 6224 O 588.444 -2.95335 -2.87838 0
M  V30 6225 H 587.785 -0.61196 -0.257683 0
M  V30 6226 H 590.315 -2.03798 -0.180923 0
M  V30 6227 H 590.325 -3.4491 -2.17948 0
M  V30 6228 H 589 -3.99293 -1.16352 0
M  V30 6229 H 587.577 -2.7549 -2.51316 0
M  V30 6230 N 589.762 0.448376 -1.51087 0
M  V30 6231 C 590.694 1.56146 -1.67783 0
M  V30 6232 C 591.707 1.52913 -0.55871 0
M  V30 6233 O 592.896 1.57889 -0.83267 0
M  V30 6234 C 589.996 2.95057 -1.66716 0
M  V30 6235 C 589.169 3.22915 -2.95033 0
M  V30 6236 C 588.228 4.41495 -2.86302 0
M  V30 6237 O 587.254 4.40688 -3.60254 0
M  V30 6238 N 588.456 5.44443 -2.014 0
M  V30 6239 H 591.221 1.42232 -2.638 0
M  V30 6240 H 588.782 0.637153 -1.48835 0
M  V30 6241 H 590.774 3.72388 -1.58458 0
M  V30 6242 H 589.344 3.02624 -0.783403 0
M  V30 6243 H 588.564 2.33985 -3.17245 0
M  V30 6244 H 589.852 3.38349 -3.79996 0
M  V30 6245 H 589.25 5.4793 -1.40674 0
M  V30 6246 H 587.807 6.2067 -1.99029 0
M  V30 6247 N 591.24 1.41047 0.703093 0
M  V30 6248 C 592.487 1.4 1.46309 0
M  V30 6249 C 592.815 0.00654574 1.94499 0
M  V30 6250 O 592.07 -0.980255 1.6938 0
M  V30 6251 C 592.369 2.34686 2.6955 0
M  V30 6252 C 592.035 3.81684 2.40058 0
M  V30 6253 C 590.697 4.21731 2.31725 0
M  V30 6254 C 593.049 4.74525 2.15581 0
M  V30 6255 C 590.377 5.52637 1.97001 0
M  V30 6256 C 592.729 6.05744 1.82366 0
M  V30 6257 C 591.393 6.44819 1.72524 0
M  V30 6258 H 590.663 0.512295 0.535382 0
M  V30 6259 H 593.31 1.73792 0.804275 0
M  V30 6260 H 591.615 1.94122 3.40329 0
M  V30 6261 H 593.312 2.31152 3.27673 0
M  V30 6262 H 589.902 3.49963 2.47435 0
M  V30 6263 H 594.086 4.44395 2.20968 0
M  V30 6264 H 589.342 5.81802 1.87928 0
M  V30 6265 H 593.516 6.77189 1.62444 0
M  V30 6266 H 591.143 7.46168 1.45385 0
M  V30 6267 N 592.718 -0.936591 1.26751 0
M  V30 6268 C 593.648 -2.05315 1.11212 0
M  V30 6269 C 594.629 -1.70092 0.0160262 0
M  V30 6270 O 595.814 -1.93279 0.188894 0
M  V30 6271 C 592.944 -3.39123 0.749171 0
M  V30 6272 C 591.898 -3.88425 1.79751 0
M  V30 6273 C 591.224 -5.18936 1.28876 0
M  V30 6274 C 592.524 -4.12798 3.19992 0
M  V30 6275 H 594.218 -2.18573 2.04613 0
M  V30 6276 H 591.764 -1.05027 0.985159 0
M  V30 6277 H 593.717 -4.16704 0.627323 0
M  V30 6278 H 592.441 -3.25855 -0.220543 0
M  V30 6279 H 591.1 -3.13028 1.90811 0
M  V30 6280 H 590.748 -5.02051 0.308757 0
M  V30 6281 H 590.448 -5.52892 1.98958 0
M  V30 6282 H 591.972 -5.99096 1.17967 0
M  V30 6283 H 593.386 -4.80977 3.11983 0
M  V30 6284 H 591.783 -4.58044 3.87705 0
M  V30 6285 H 592.853 -3.18412 3.65707 0
M  V30 6286 N 594.196 -1.08629 -1.14182 0
M  V30 6287 C 595.442 -0.818556 -1.85546 0
M  V30 6288 C 595.775 0.654076 -1.82854 0
M  V30 6289 O 595.05 1.48099 -1.26083 0
M  V30 6290 C 595.333 -1.34397 -3.3408 0
M  V30 6291 C 595.186 -2.8821 -3.45333 0
M  V30 6292 C 596.505 -0.971069 -4.29253 0
M  V30 6293 H 593.624 -0.298821 -0.673702 0
M  V30 6294 H 596.266 -1.34629 -1.34071 0
M  V30 6295 H 594.416 -0.895064 -3.78049 0
M  V30 6296 H 596.088 -3.41488 -3.10134 0
M  V30 6297 H 594.331 -3.25756 -2.86471 0
M  V30 6298 H 595.002 -3.20047 -4.49749 0
M  V30 6299 H 597.478 -1.35809 -3.93313 0
M  V30 6300 H 596.354 -1.36586 -5.31635 0
M  V30 6301 H 596.615 0.121659 -4.41933 0
M  V30 6302 N 595.674 1.31259 -0.872281 0
M  V30 6303 C 596.621 2.28459 -0.327857 0
M  V30 6304 C 597.591 1.55831 0.574957 0
M  V30 6305 O 598.776 1.83965 0.506101 0
M  V30 6306 C 595.916 3.41985 0.462644 0
M  V30 6307 C 595.029 4.29458 -0.467949 0
M  V30 6308 C 594.164 5.30131 0.336903 0
M  V30 6309 C 593.203 6.0925 -0.58997 0
M  V30 6310 N 592.34 7.01872 0.178775 0
M  V30 6311 H 597.18 2.74414 -1.16193 0
M  V30 6312 H 594.717 1.34994 -0.584376 0
M  V30 6313 H 596.675 4.06547 0.936759 0
M  V30 6314 H 595.305 2.97134 1.2614 0
M  V30 6315 H 594.357 3.65318 -1.06052 0
M  V30 6316 H 595.669 4.84677 -1.17856 0
M  V30 6317 H 594.823 6.0038 0.873427 0
M  V30 6318 H 593.562 4.75573 1.08079 0
M  V30 6319 H 592.567 5.37889 -1.13823 0
M  V30 6320 H 593.792 6.65894 -1.33275 0
M  V30 6321 H 591.738 6.49721 0.905435 0
M  V30 6322 H 591.655 7.54522 -0.472452 0
M  V30 6323 H 592.923 7.76382 0.696454 0
M  V30 6324 N 597.152 0.631951 1.44375 0
M  V30 6325 C 598.563 0.219036 1.85411 0
M  V30 6326 C 598.914 -1.22974 1.52879 0
M  V30 6327 O 598.039 -1.93579 0.967266 0
M  V30 6328 C 598.634 0.39075 3.36539 0
M  V30 6329 C 597.193 0.0323351 3.76386 0
M  V30 6330 C 596.34 0.703744 2.68221 0
M  V30 6331 H 599.291 0.837056 1.3483 0
M  V30 6332 H 599.312 -0.370056 3.78696 0
M  V30 6333 H 598.824 1.44527 3.60185 0
M  V30 6334 H 596.925 -1.02042 3.58355 0
M  V30 6335 H 597.038 0.442969 4.77048 0
M  V30 6336 H 595.402 0.138974 2.54321 0
M  V30 6337 H 596.185 1.76088 2.947 0
M  V30 6338 N 598.631 -1.53133 0.372548 0
M  V30 6339 C 599.561 -2.28876 -0.462412 0
M  V30 6340 C 600.542 -1.31583 -1.07796 0
M  V30 6341 O 601.727 -1.60461 -1.09389 0
M  V30 6342 C 598.857 -3.08317 -1.59868 0
M  V30 6343 C 597.811 -4.13355 -1.11003 0
M  V30 6344 C 597.137 -4.8092 -2.33708 0
M  V30 6345 C 598.437 -5.21955 -0.18983 0
M  V30 6346 H 600.131 -2.9892 0.169511 0
M  V30 6347 H 597.677 -1.43761 0.0829658 0
M  V30 6348 H 599.63 -3.60055 -2.18949 0
M  V30 6349 H 598.354 -2.35976 -2.25794 0
M  V30 6350 H 597.013 -3.62573 -0.541869 0
M  V30 6351 H 596.661 -4.05144 -2.98106 0
M  V30 6352 H 596.361 -5.51904 -2.01682 0
M  V30 6353 H 597.885 -5.35455 -2.93462 0
M  V30 6354 H 599.299 -5.69153 -0.688319 0
M  V30 6355 H 597.696 -6.00087 0.0398887 0
M  V30 6356 H 598.766 -4.78811 0.766057 0
M  V30 6357 N 600.109 -0.101901 -1.5727 0
M  V30 6358 C 601.386 0.602832 -1.86079 0
M  V30 6359 C 601.766 1.85912 -1 0
M  V30 6360 O 601.114 2.28379 -0.0742488 0
M  V30 6361 C 601.324 0.911694 -3.36881 0
M  V30 6362 C 602.672 1.2722 -4.05093 0
M  V30 6363 O 603.696 1.0025 -3.41802 0
M  V30 6364 O 602.555 1.7776 -5.16782 0
M  V30 6365 H 599.649 0.302366 -0.769743 0
M  V30 6366 H 602.195 -0.135113 -1.69161 0
M  V30 6367 H 600.967 0.0207256 -3.91295 0
M  V30 6368 H 600.59 1.70538 -3.59169 0
M  V30 6369 N 601.587 1.56661 0.17182 0
M  V30 6370 C 602.52 1.91474 1.24149 0
M  V30 6371 C 603.498 0.777485 1.42807 0
M  V30 6372 O 604.682 1.03075 1.57822 0
M  V30 6373 C 601.809 2.16523 2.60453 0
M  V30 6374 C 600.855 3.39209 2.58533 0
M  V30 6375 S 601.688 4.93594 2.07665 0
M  V30 6376 C 602.844 5.21737 3.45747 0
M  V30 6377 H 603.077 2.81903 0.944346 0
M  V30 6378 H 600.61 1.49743 0.376364 0
M  V30 6379 H 602.568 2.31635 3.38903 0
M  V30 6380 H 601.229 1.26802 2.87368 0
M  V30 6381 H 600.422 3.53935 3.58812 0
M  V30 6382 H 600.024 3.2321 1.88178 0
M  V30 6383 H 602.316 5.13684 4.41741 0
M  V30 6384 H 603.259 6.23361 3.35896 0
M  V30 6385 H 603.667 4.49307 3.41736 0
M  V30 6386 N 603.065 -0.440357 1.51323 0
M  V30 6387 C 604.314 -1.18697 1.63076 0
M  V30 6388 C 604.627 -1.92418 0.35136 0
M  V30 6389 O 605.833 -2.69258 0.348221 0
M  V30 6390 C 604.289 -2.15849 2.87988 0
M  V30 6391 C 603.897 -1.47789 4.22921 0
M  V30 6392 C 605.641 -2.90962 3.09098 0
M  V30 6393 C 603.548 -2.43407 5.38987 0
M  V30 6394 H 602.478 -0.44676 0.607389 0
M  V30 6395 H 605.129 -0.454313 1.77787 0
M  V30 6396 H 603.511 -2.92537 2.66905 0
M  V30 6397 H 604.685 -0.7668 4.54375 0
M  V30 6398 H 603 -0.848404 4.07665 0
M  V30 6399 H 605.597 -3.62584 3.92985 0
M  V30 6400 H 605.94 -3.52133 2.22053 0
M  V30 6401 H 606.473 -2.21381 3.30507 0
M  V30 6402 H 603.212 -1.86929 6.28282 0
M  V30 6403 H 602.732 -3.12579 5.11913 0
M  V30 6404 H 604.411 -3.046 5.70813 0
M  V30 6405 N 604.543 -1.41418 -0.695603 0
M  V30 6406 C 605.789 -1.40982 -1.4578 0
M  V30 6407 C 606.122 -0.0187763 -1.94191 0
M  V30 6408 O 605.397 0.95346 -1.69527 0
M  V30 6409 C 605.68 -2.41657 -2.66972 0
M  V30 6410 C 605.533 -3.89869 -2.24327 0
M  V30 6411 C 606.852 -2.39589 -3.69168 0
M  V30 6412 H 603.971 -0.513405 -0.528757 0
M  V30 6413 H 606.613 -1.72693 -0.792275 0
M  V30 6414 H 604.763 -2.14746 -3.23754 0
M  V30 6415 H 606.435 -4.27683 -1.72872 0
M  V30 6416 H 604.678 -4.04737 -1.56111 0
M  V30 6417 H 605.349 -4.55857 -3.11285 0
M  V30 6418 H 607.825 -2.63471 -3.2206 0
M  V30 6419 H 606.701 -3.12044 -4.51575 0
M  V30 6420 H 606.962 -1.41447 -4.18862 0
M  V30 6421 N 606.021 0.929856 -1.27246 0
M  V30 6422 C 607.269 1.674 -1.13233 0
M  V30 6423 C 607.59 1.92311 0.322744 0
M  V30 6424 O 606.86 1.52784 1.22612 0
M  V30 6425 H 605.44 0.620411 -0.416052 0
M  V30 6426 H 608.102 1.11663 -1.59741 0
M  V30 6427 H 607.198 2.64308 -1.65975 0
M  V30 6428 N 607.499 1.09233 1.13605 0
M  V30 6429 C 608.446 0.729921 2.18954 0
M  V30 6430 C 609.416 -0.287916 1.63586 0
M  V30 6431 O 610.601 -0.170003 1.90041 0
M  V30 6432 C 607.741 0.154489 3.44754 0
M  V30 6433 C 606.854 1.22613 4.14234 0
M  V30 6434 C 605.989 0.613657 5.27644 0
M  V30 6435 C 605.028 1.66674 5.8897 0
M  V30 6436 N 604.165 1.07545 6.93814 0
M  V30 6437 H 609.005 1.63257 2.49302 0
M  V30 6438 H 606.542 0.815693 1.22413 0
M  V30 6439 H 608.5 -0.196923 4.16735 0
M  V30 6440 H 607.13 -0.711433 3.14863 0
M  V30 6441 H 606.182 1.69485 3.40557 0
M  V30 6442 H 607.494 2.0238 4.55899 0
M  V30 6443 H 606.648 0.210976 6.06333 0
M  V30 6444 H 605.387 -0.215584 4.87223 0
M  V30 6445 H 604.392 2.07899 5.08978 0
M  V30 6446 H 605.617 2.49861 6.31464 0
M  V30 6447 H 603.563 0.267451 6.55455 0
M  V30 6448 H 603.48 1.81011 7.3401 0
M  V30 6449 H 604.748 0.698906 7.7636 0
M  V30 6450 N 608.977 -1.30795 0.87923 0
M  V30 6451 C 609.94 -2.26563 0.346676 0
M  V30 6452 C 610.94 -1.52578 -0.507597 0
M  V30 6453 O 612.13 -1.71318 -0.315575 0
M  V30 6454 C 609.262 -3.37115 -0.506611 0
M  V30 6455 H 610.455 -2.75183 1.19223 0
M  V30 6456 H 608.008 -1.41886 0.655598 0
M  V30 6457 H 608.743 -2.93802 -1.37299 0
M  V30 6458 H 608.528 -3.91959 0.105218 0
M  V30 6459 H 610.018 -4.08412 -0.871192 0
M  V30 6460 N 610.455 -0.639598 -1.44038 0
M  V30 6461 C 611.701 -0.156248 -2.02799 0
M  V30 6462 C 612.056 1.21145 -1.49471 0
M  V30 6463 O 611.349 1.79406 -0.672608 0
M  V30 6464 C 611.543 -0.0925348 -3.5728 0
M  V30 6465 C 611.372 -1.45252 -4.25596 0
M  V30 6466 C 610.142 -2.04145 -4.62226 0
M  V30 6467 C 612.34 -2.38812 -4.55492 0
M  V30 6468 N 610.322 -3.3329 -5.15549 0
M  V30 6469 C 611.693 -3.52578 -5.09989 0
M  V30 6470 C 613.748 -2.37785 -4.3745 0
M  V30 6471 C 612.451 -4.65525 -5.48342 0
M  V30 6472 C 614.477 -3.49802 -4.76857 0
M  V30 6473 C 613.839 -4.62292 -5.31475 0
M  V30 6474 H 609.938 -0.101292 -0.775412 0
M  V30 6475 H 612.522 -0.844938 -1.75411 0
M  V30 6476 H 610.693 0.565459 -3.84262 0
M  V30 6477 H 612.425 0.400426 -4.02714 0
M  V30 6478 H 609.18 -1.56999 -4.4682 0
M  V30 6479 H 609.604 -3.9934 -5.46678 0
M  V30 6480 H 614.246 -1.52061 -3.94509 0
M  V30 6481 H 611.964 -5.51951 -5.90233 0
M  V30 6482 H 615.55 -3.50193 -4.64603 0
M  V30 6483 H 614.43 -5.47536 -5.61403 0
M  V30 6484 N 611.933 1.52934 -0.380664 0
M  V30 6485 C 612.881 2.27727 0.47361 0
M  V30 6486 C 613.875 1.31288 1.0705 0
M  V30 6487 O 615.081 1.4886 1.01197 0
M  V30 6488 H 611.456 0.732189 0.171475 0
M  V30 6489 H 613.427 2.97864 -0.178785 0
M  V30 6490 C 612.176 3.0904 1.59341 0
M  V30 6491 H 611.499 3.831 1.14343 0
M  V30 6492 H 612.939 3.64527 2.16555 0
M  V30 6493 C 611.398 2.20813 2.54447 0
M  V30 6494 O 611.928 1.82907 3.57642 0
M  V30 6495 N 610.134 1.85145 2.23986 0
M  V30 6496 H 609.681 2.16169 1.40103 0
M  V30 6497 H 609.639 1.26402 2.87871 0
M  V30 6498 N 613.412 0.11024 1.57214 0
M  V30 6499 C 614.345 -0.880224 2.1054 0
M  V30 6500 C 615.323 -1.26658 1.01964 0
M  V30 6501 O 616.507 -1.36917 1.29561 0
M  V30 6502 C 613.634 -2.17676 2.59489 0
M  V30 6503 C 612.68 -1.93914 3.79868 0
M  V30 6504 S 613.513 -1.16336 5.2271 0
M  V30 6505 C 614.669 -2.47188 5.75021 0
M  V30 6506 H 614.902 -0.426614 2.94223 0
M  V30 6507 H 612.435 -0.10336 1.54054 0
M  V30 6508 H 614.393 -2.92175 2.88347 0
M  V30 6509 H 613.054 -2.60156 1.76005 0
M  V30 6510 H 612.247 -2.8996 4.12236 0
M  V30 6511 H 611.849 -1.27539 3.51582 0
M  V30 6512 H 614.141 -3.43079 5.84211 0
M  V30 6513 H 615.084 -2.19377 6.7326 0
M  V30 6514 H 615.492 -2.56154 5.03036 0
M  V30 6515 N 614.89 -1.56749 -0.16351 0
M  V30 6516 C 616.137 -1.82434 -0.878866 0
M  V30 6517 C 616.465 -0.688557 -1.81904 0
M  V30 6518 O 615.72 0.323644 -1.93005 0
M  V30 6519 C 616.019 -3.14342 -1.70071 0
M  V30 6520 C 615.685 -4.41647 -0.908775 0
M  V30 6521 C 614.347 -4.76224 -0.690236 0
M  V30 6522 C 616.699 -5.19998 -0.353815 0
M  V30 6523 C 614.027 -5.86624 0.0942374 0
M  V30 6524 C 616.379 -6.3122 0.41761 0
M  V30 6525 C 615.043 -6.64358 0.646879 0
M  V30 6526 H 614.313 -0.667574 -0.3216 0
M  V30 6527 H 616.96 -1.90963 -0.14337 0
M  V30 6528 H 615.265 -3.0119 -2.50583 0
M  V30 6529 H 616.962 -3.31426 -2.25738 0
M  V30 6530 H 613.552 -4.1453 -1.08916 0
M  V30 6531 H 617.736 -4.93673 -0.509975 0
M  V30 6532 H 612.992 -6.10751 0.281529 0
M  V30 6533 H 617.166 -6.91133 0.854849 0
M  V30 6534 H 614.793 -7.49742 1.25662 0
M  V30 6535 N 616.368 0.432326 -1.51554 0
M  V30 6536 C 617.331 1.50765 -1.72634 0
M  V30 6537 C 618.331 1.49334 -0.596314 0
M  V30 6538 O 619.521 1.51268 -0.863925 0
M  V30 6539 C 616.653 2.90284 -1.7874 0
M  V30 6540 H 617.846 1.33377 -2.68609 0
M  V30 6541 H 615.399 0.661329 -1.4162 0
M  V30 6542 H 616.134 3.13071 -0.845977 0
M  V30 6543 H 615.919 2.92727 -2.6087 0
M  V30 6544 H 617.409 3.68282 -1.96871 0
M  V30 6545 N 617.846 1.41785 0.688094 0
M  V30 6546 C 619.071 1.45117 1.48175 0
M  V30 6547 C 619.496 0.060129 1.88004 0
M  V30 6548 O 618.854 -0.938385 1.55126 0
M  V30 6549 C 618.902 2.37224 2.71583 0
M  V30 6550 O 618.006 1.83443 3.69354 0
M  V30 6551 H 617.347 0.492208 0.445676 0
M  V30 6552 H 619.877 1.86329 0.845145 0
M  V30 6553 H 619.887 2.53353 3.19806 0
M  V30 6554 H 618.562 3.38293 2.41931 0
M  V30 6555 H 617.139 1.76802 3.28322 0
M  V30 6556 N 619.324 -0.923095 1.27737 0
M  V30 6557 C 620.271 -2.02432 1.1086 0
M  V30 6558 C 621.241 -1.66098 0.00835195 0
M  V30 6559 O 622.426 -1.90027 0.171542 0
M  V30 6560 C 619.566 -3.36476 0.766671 0
M  V30 6561 C 618.679 -3.85737 1.94501 0
M  V30 6562 C 617.814 -5.08249 1.54455 0
M  V30 6563 C 616.853 -5.49818 2.6901 0
M  V30 6564 N 615.99 -6.63524 2.29521 0
M  V30 6565 H 620.83 -2.16201 2.05089 0
M  V30 6566 H 618.367 -1.05909 1.02087 0
M  V30 6567 H 620.325 -4.13569 0.549223 0
M  V30 6568 H 618.955 -3.22502 -0.13867 0
M  V30 6569 H 618.007 -3.04883 2.27487 0
M  V30 6570 H 619.319 -4.12513 2.80419 0
M  V30 6571 H 618.473 -5.92857 1.28862 0
M  V30 6572 H 617.212 -4.83261 0.656534 0
M  V30 6573 H 616.217 -4.63757 2.95313 0
M  V30 6574 H 617.442 -5.76799 3.5844 0
M  V30 6575 H 615.388 -6.40185 1.43177 0
M  V30 6576 H 615.305 -6.89978 3.08977 0
M  V30 6577 H 616.573 -7.51461 2.07187 0
M  V30 6578 N 620.802 -1.09834 -1.13024 0
M  V30 6579 C 621.765 -0.745058 -2.16752 0
M  V30 6580 C 622.765 0.227435 -1.59183 0
M  V30 6581 O 623.955 0.0050786 -1.74199 0
M  V30 6582 C 621.087 -0.102543 -3.40746 0
M  V30 6583 H 622.28 -1.66375 -2.49518 0
M  V30 6584 H 619.833 -0.898061 -1.27924 0
M  V30 6585 H 620.568 0.827177 -3.13573 0
M  V30 6586 H 620.353 -0.80235 -3.83803 0
M  V30 6587 H 621.843 0.129082 -4.174 0
M  V30 6588 N 622.28 1.30327 -0.886154 0
M  V30 6589 C 623.51 1.99964 -0.519421 0
M  V30 6590 C 623.918 1.66593 0.89686 0
M  V30 6591 O 623.261 0.899886 1.60149 0
M  V30 6592 C 623.323 3.54187 -0.615795 0
M  V30 6593 C 622.987 4.11078 -1.9966 0
M  V30 6594 C 623.984 4.26985 -2.96614 0
M  V30 6595 C 621.669 4.46429 -2.30231 0
M  V30 6596 C 623.663 4.77456 -4.22273 0
M  V30 6597 C 621.35 4.966 -3.56135 0
M  V30 6598 C 622.348 5.12066 -4.5197 0
M  V30 6599 O 622.036 5.61154 -5.7564 0
M  V30 6600 H 621.768 0.645979 -0.199217 0
M  V30 6601 H 624.322 1.67154 -1.19368 0
M  V30 6602 H 622.552 3.86528 0.115448 0
M  V30 6603 H 624.241 4.05065 -0.26017 0
M  V30 6604 H 625.007 3.99975 -2.74308 0
M  V30 6605 H 620.886 4.33658 -1.56404 0
M  V30 6606 H 624.43 4.89444 -4.97082 0
M  V30 6607 H 620.327 5.23045 -3.78277 0
M  V30 6608 H 621.095 5.79494 -5.78039 0
M  V30 6609 N 623.758 0.647228 1.43697 0
M  V30 6610 C 625.007 0.155552 2.01099 0
M  V30 6611 C 625.32 -1.23569 1.51624 0
M  V30 6612 O 626.526 -1.82226 2.01261 0
M  V30 6613 C 624.982 0.227296 3.59182 0
M  V30 6614 C 624.59 1.62086 4.17651 0
M  V30 6615 C 626.334 -0.207085 4.23995 0
M  V30 6616 C 624.241 1.64685 5.68008 0
M  V30 6617 H 623.171 0.0543895 0.752036 0
M  V30 6618 H 625.822 0.808386 1.64734 0
M  V30 6619 H 624.204 -0.492937 3.9292 0
M  V30 6620 H 625.378 2.36597 3.95422 0
M  V30 6621 H 623.693 2.0007 3.65186 0
M  V30 6622 H 626.29 -0.207426 5.34298 0
M  V30 6623 H 626.633 -1.23742 3.97484 0
M  V30 6624 H 627.166 0.461193 3.95118 0
M  V30 6625 H 623.905 2.65608 5.99277 0
M  V30 6626 H 623.425 0.944914 5.9231 0
M  V30 6627 H 625.104 1.38792 6.31938 0
M  V30 6628 N 625.236 -1.5273 0.388769 0
M  V30 6629 C 626.186 -2.23238 -0.463567 0
M  V30 6630 C 627.17 -1.23606 -1.03007 0
M  V30 6631 O 628.362 -1.48945 -0.956261 0
M  V30 6632 C 625.491 -3.04228 -1.5906 0
M  V30 6633 C 624.577 -4.11255 -1.03587 0
M  V30 6634 N 624.968 -5.0538 -0.206038 0
M  V30 6635 C 623.266 -4.26376 -1.30841 0
M  V30 6636 C 623.967 -5.81613 0.100359 0
M  V30 6637 N 622.943 -5.41264 -0.503447 0
M  V30 6638 H 626.745 -2.93367 0.176978 0
M  V30 6639 H 624.259 -1.61188 0.198046 0
M  V30 6640 H 626.256 -3.53277 -2.21362 0
M  V30 6641 H 624.916 -2.35634 -2.23398 0
M  V30 6642 H 625.927 -5.17663 0.156659 0
M  V30 6643 H 622.604 -3.69011 -1.95287 0
M  V30 6644 H 623.994 -6.67442 0.772676 0
M  V30 6645 N 626.714 -0.118576 -1.57153 0
M  V30 6646 C 627.646 0.862247 -2.12363 0
M  V30 6647 C 628.659 1.23025 -1.06625 0
M  V30 6648 O 629.848 1.17927 -1.33998 0
M  V30 6649 C 626.948 2.16425 -2.60794 0
M  V30 6650 C 626.121 1.96801 -3.90626 0
M  V30 6651 C 625.18 3.10726 -4.2466 0
M  V30 6652 O 624.206 2.83659 -4.93484 0
M  V30 6653 N 625.408 4.37147 -3.81946 0
M  V30 6654 H 628.173 0.390564 -2.97144 0
M  V30 6655 H 625.734 0.0658591 -1.61766 0
M  V30 6656 H 627.726 2.91633 -2.80593 0
M  V30 6657 H 626.296 2.54943 -1.80895 0
M  V30 6658 H 625.516 1.05787 -3.7974 0
M  V30 6659 H 626.804 1.80993 -4.7552 0
M  V30 6660 H 626.202 4.62014 -3.26435 0
M  V30 6661 H 624.759 5.09229 -4.06853 0
M  V30 6662 N 628.193 1.56834 0.155195 0
M  V30 6663 C 629.423 1.86778 0.883044 0
M  V30 6664 C 629.831 0.703824 1.75622 0
M  V30 6665 O 629.174 -0.33581 1.80605 0
M  V30 6666 C 629.236 3.1133 1.79761 0
M  V30 6667 C 628.9 4.43504 1.10242 0
M  V30 6668 C 629.897 5.17859 0.460204 0
M  V30 6669 C 627.582 4.90233 1.09437 0
M  V30 6670 C 629.576 6.37144 -0.180782 0
M  V30 6671 C 627.263 6.09444 0.449569 0
M  V30 6672 C 628.261 6.82744 -0.186888 0
M  V30 6673 O 627.949 7.99692 -0.821486 0
M  V30 6674 H 627.681 0.62352 0.261149 0
M  V30 6675 H 630.235 2.04813 0.155204 0
M  V30 6676 H 628.465 2.89282 2.56618 0
M  V30 6677 H 630.154 3.27587 2.39669 0
M  V30 6678 H 630.92 4.8283 0.458289 0
M  V30 6679 H 626.799 4.33109 1.57917 0
M  V30 6680 H 630.343 6.94296 -0.678154 0
M  V30 6681 H 626.24 6.43936 0.449123 0
M  V30 6682 H 627.008 8.15306 -0.722337 0
M  V30 6683 N 629.671 -0.424282 1.51781 0
M  V30 6684 C 630.899 -1.1947 1.68921 0
M  V30 6685 C 631.314 -1.84683 0.39213 0
M  V30 6686 O 630.671 -1.71261 -0.630554 0
M  V30 6687 C 630.722 -2.26909 2.81416 0
M  V30 6688 O 630.443 -1.64361 4.061 0
M  V30 6689 C 631.944 -3.16945 3.09937 0
M  V30 6690 H 629.164 -0.359591 0.566511 0
M  V30 6691 H 631.708 -0.501139 1.98265 0
M  V30 6692 H 629.863 -2.91959 2.54635 0
M  V30 6693 H 630.277 -2.35468 4.68674 0
M  V30 6694 H 631.751 -3.88437 3.922 0
M  V30 6695 H 632.228 -3.78451 2.22871 0
M  V30 6696 H 632.834 -2.57581 3.38426 0
M  V30 6697 N 631.149 -1.42148 -0.680565 0
M  V30 6698 C 632.096 -1.45175 -1.79424 0
M  V30 6699 C 633.066 -0.304352 -1.63288 0
M  V30 6700 O 634.251 -0.507591 -1.83924 0
M  V30 6701 C 631.391 -1.35429 -3.17416 0
M  V30 6702 C 630.504 -2.60158 -3.4488 0
M  V30 6703 C 629.639 -2.42596 -4.72568 0
M  V30 6704 C 628.678 -3.62727 -4.93047 0
M  V30 6705 N 627.815 -3.44143 -6.11973 0
M  V30 6706 H 632.655 -2.40349 -1.76172 0
M  V30 6707 H 630.192 -1.19334 -0.860107 0
M  V30 6708 H 632.15 -1.27777 -3.97151 0
M  V30 6709 H 630.78 -0.438536 -3.19807 0
M  V30 6710 H 629.832 -2.78199 -2.5944 0
M  V30 6711 H 631.144 -3.49473 -3.55908 0
M  V30 6712 H 630.298 -2.32497 -5.60384 0
M  V30 6713 H 629.037 -1.50761 -4.63813 0
M  V30 6714 H 628.042 -3.73264 -4.03676 0
M  V30 6715 H 629.267 -4.55534 -5.03652 0
M  V30 6716 H 627.213 -2.5502 -6.04401 0
M  V30 6717 H 627.13 -4.27041 -6.23836 0
M  V30 6718 H 628.398 -3.37845 -7.02482 0
M  V30 6719 N 632.627 0.916307 -1.28225 0
M  V30 6720 C 633.874 1.66518 -1.1523 0
M  V30 6721 C 634.202 1.92178 0.299632 0
M  V30 6722 O 633.457 1.51842 1.2346 0
M  V30 6723 C 633.756 3.03125 -1.8934 0
M  V30 6724 C 633.422 2.97135 -3.39148 0
M  V30 6725 C 632.084 2.95208 -3.80007 0
M  V30 6726 C 634.436 2.87574 -4.34685 0
M  V30 6727 C 631.764 2.81518 -5.14747 0
M  V30 6728 C 634.116 2.75424 -5.69495 0
M  V30 6729 C 632.78 2.71854 -6.09632 0
M  V30 6730 H 632.05 0.609334 -0.421655 0
M  V30 6731 H 634.697 1.06776 -1.58969 0
M  V30 6732 H 633.002 3.66639 -1.38143 0
M  V30 6733 H 634.699 3.59968 -1.76704 0
M  V30 6734 H 631.289 2.99428 -3.06661 0
M  V30 6735 H 635.473 2.88152 -4.04082 0
M  V30 6736 H 630.729 2.77148 -5.44976 0
M  V30 6737 H 634.903 2.66993 -6.43185 0
M  V30 6738 H 632.53 2.61003 -7.1399 0
M  V30 6739 N 634.105 1.10431 1.1244 0
M  V30 6740 C 635.353 0.845045 1.83585 0
M  V30 6741 C 635.674 -0.631168 1.84503 0
M  V30 6742 O 634.944 -1.45825 1.30813 0
M  V30 6743 H 633.524 0.309628 0.679809 0
M  V30 6744 H 636.186 1.39458 1.36153 0
M  V30 6745 H 635.282 1.20786 2.8778 0
M  V30 6746 N 635.583 -1.29855 0.893053 0
M  V30 6747 C 636.832 -1.95104 0.511597 0
M  V30 6748 C 637.145 -1.71226 -0.945567 0
M  V30 6749 O 638.351 -2.30525 -1.43424 0
M  V30 6750 C 636.807 -3.49374 0.864034 0
M  V30 6751 C 636.415 -3.82061 2.33952 0
M  V30 6752 C 638.159 -4.20894 0.552167 0
M  V30 6753 C 636.066 -5.29546 2.63316 0
M  V30 6754 H 634.996 -0.73029 0.187597 0
M  V30 6755 H 637.647 -1.47682 1.08914 0
M  V30 6756 H 636.029 -3.95413 0.215493 0
M  V30 6757 H 637.203 -3.46904 3.03305 0
M  V30 6758 H 635.518 -3.23665 2.61973 0
M  V30 6759 H 638.115 -5.29435 0.748489 0
M  V30 6760 H 638.458 -4.13178 -0.508924 0
M  V30 6761 H 638.991 -3.80564 1.15825 0
M  V30 6762 H 635.73 -5.4232 3.68197 0
M  V30 6763 H 635.25 -5.65974 1.9858 0
M  V30 6764 H 636.929 -5.97068 2.49236 0
M  V30 6765 N 637.061 -0.65484 -1.43351 0
M  V30 6766 C 637.971 0.0363603 -2.34572 0
M  V30 6767 C 638.987 0.810432 -1.53974 0
M  V30 6768 O 640.163 0.757308 -1.86619 0
M  V30 6769 C 637.228 0.989733 -3.32273 0
M  V30 6770 C 636.289 0.212414 -4.28774 0
M  V30 6771 C 635.522 1.12038 -5.21808 0
M  V30 6772 O 635.745 2.35967 -5.19303 0
M  V30 6773 O 634.679 0.59191 -5.98982 0
M  V30 6774 H 638.505 -0.714527 -2.95175 0
M  V30 6775 H 636.09 -0.415029 -1.4352 0
M  V30 6776 H 637.972 1.53759 -3.92347 0
M  V30 6777 H 636.647 1.72082 -2.74171 0
M  V30 6778 H 635.554 -0.379062 -3.72175 0
M  V30 6779 H 636.887 -0.479138 -4.89862 0
M  V30 6780 N 638.539 1.52521 -0.396863 0
M  V30 6781 C 639.449 2.30403 0.44178 0
M  V30 6782 C 640.465 1.37625 1.06468 0
M  V30 6783 O 641.641 1.70697 1.06886 0
M  V30 6784 C 638.706 3.1013 1.54986 0
M  V30 6785 C 637.767 4.18628 0.951279 0
M  V30 6786 C 637 4.94543 2.00655 0
M  V30 6787 O 637.223 4.70629 3.22281 0
M  V30 6788 O 636.157 5.797 1.61962 0
M  V30 6789 H 639.983 3.03087 -0.192892 0
M  V30 6790 H 637.568 1.48537 -0.16038 0
M  V30 6791 H 639.45 3.59816 2.19341 0
M  V30 6792 H 638.125 2.40251 2.16935 0
M  V30 6793 H 637.032 3.73119 0.270773 0
M  V30 6794 H 638.365 4.90763 0.375887 0
M  V30 6795 N 640.017 0.126909 1.57088 0
M  V30 6796 C 640.927 -0.833867 2.1928 0
M  V30 6797 C 641.943 -1.2868 1.17122 0
M  V30 6798 O 643.119 -1.34815 1.49622 0
M  V30 6799 C 640.184 -2.0632 2.78627 0
M  V30 6800 C 639.245 -1.66143 3.95847 0
M  V30 6801 C 638.478 -2.83217 4.52354 0
M  V30 6802 O 638.701 -3.98868 4.0775 0
M  V30 6803 O 637.635 -2.59846 5.42922 0
M  V30 6804 H 641.461 -0.334564 3.01852 0
M  V30 6805 H 639.046 -0.0991091 1.49071 0
M  V30 6806 H 640.928 -2.78304 3.16425 0
M  V30 6807 H 639.603 -2.55242 1.99082 0
M  V30 6808 H 638.51 -0.912435 3.62802 0
M  V30 6809 H 639.843 -1.21957 4.76852 0
M  V30 6810 N 641.495 -1.56914 -0.146875 0
M  V30 6811 C 642.772 -1.74273 -0.888165 0
M  V30 6812 C 643.152 -0.69496 -1.99333 0
M  V30 6813 O 642.5 0.286093 -2.26702 0
M  V30 6814 C 642.71 -3.18336 -1.43051 0
M  V30 6815 C 644.058 -3.80024 -1.89387 0
M  V30 6816 O 645.082 -3.21765 -1.52792 0
M  V30 6817 O 643.941 -4.82367 -2.56874 0
M  V30 6818 H 641.035 -0.712565 -0.419738 0
M  V30 6819 H 643.581 -1.6918 -0.132791 0
M  V30 6820 H 642.353 -3.86092 -0.636274 0
M  V30 6821 H 641.976 -3.27854 -2.24938 0
M  V30 6822 N 642.974 0.416227 -1.52004 0
M  V30 6823 C 644.221 1.16383 -1.65714 0
M  V30 6824 C 644.549 1.9068 -0.383594 0
M  V30 6825 O 643.804 1.85174 0.633185 0
M  V30 6826 C 644.103 2.18923 -2.82502 0
M  V30 6827 C 643.769 1.61485 -4.20991 0
M  V30 6828 C 642.431 1.45545 -4.58661 0
M  V30 6829 C 644.783 1.19468 -5.07323 0
M  V30 6830 C 642.111 0.860937 -5.80349 0
M  V30 6831 C 644.463 0.614386 -6.29609 0
M  V30 6832 C 643.127 0.442056 -6.66035 0
M  V30 6833 H 642.397 0.425875 -0.606392 0
M  V30 6834 H 645.044 0.45199 -1.8609 0
M  V30 6835 H 643.349 2.96225 -2.56433 0
M  V30 6836 H 645.046 2.76628 -2.90307 0
M  V30 6837 H 641.636 1.74873 -3.91302 0
M  V30 6838 H 645.82 1.30596 -4.78809 0
M  V30 6839 H 641.076 0.715372 -6.072 0
M  V30 6840 H 645.25 0.280393 -6.95835 0
M  V30 6841 H 642.877 -0.0207218 -7.60197 0
M  V30 6842 N 644.452 1.42507 0.673017 0
M  V30 6843 C 645.382 1.48916 1.79851 0
M  V30 6844 C 646.363 0.345566 1.66553 0
M  V30 6845 O 647.548 0.560116 1.85947 0
M  V30 6846 C 644.678 1.39258 3.18158 0
M  V30 6847 C 643.632 2.51662 3.46194 0
M  V30 6848 C 642.958 2.27062 4.84094 0
M  V30 6849 C 644.258 3.93968 3.42909 0
M  V30 6850 H 645.952 2.43114 1.74745 0
M  V30 6851 H 643.498 1.17013 0.839288 0
M  V30 6852 H 645.451 1.42349 3.96629 0
M  V30 6853 H 644.175 0.415542 3.23946 0
M  V30 6854 H 642.834 2.47891 2.70084 0
M  V30 6855 H 642.482 1.27648 4.86534 0
M  V30 6856 H 642.182 3.02398 5.03815 0
M  V30 6857 H 643.706 2.31905 5.64847 0
M  V30 6858 H 645.12 3.99332 4.11347 0
M  V30 6859 H 643.517 4.6917 3.74165 0
M  V30 6860 H 644.587 4.20512 2.41449 0
M  V30 6861 N 645.93 -0.909495 1.28709 0
M  V30 6862 C 647.207 -1.63865 1.06806 0
M  V30 6863 C 647.587 -2.07445 -0.391143 0
M  V30 6864 O 646.935 -1.82269 -1.37805 0
M  V30 6865 C 647.145 -2.82692 2.04661 0
M  V30 6866 C 648.493 -3.5361 2.35042 0
M  V30 6867 O 649.517 -2.92847 2.02779 0
M  V30 6868 O 648.376 -4.63131 2.90124 0
M  V30 6869 H 645.47 -0.719065 0.408502 0
M  V30 6870 H 648.016 -0.958424 1.40044 0
M  V30 6871 H 646.788 -2.47614 3.0299 0
M  V30 6872 H 646.411 -3.58426 1.72095 0
M  V30 6873 N 647.408 -1.11026 -1.11852 0
M  V30 6874 C 648.633 -0.879064 -1.87849 0
M  V30 6875 C 649.058 0.565406 -1.79401 0
M  V30 6876 O 648.416 1.39886 -1.15333 0
M  V30 6877 C 648.464 -1.33985 -3.34784 0
M  V30 6878 O 647.568 -0.508803 -4.09249 0
M  V30 6879 H 646.909 -0.316992 -0.583448 0
M  V30 6880 H 649.439 -1.47863 -1.41413 0
M  V30 6881 H 649.449 -1.33248 -3.85628 0
M  V30 6882 H 648.124 -2.39172 -3.40249 0
M  V30 6883 H 646.701 -0.581913 -3.68332 0
M  V30 6884 N 648.886 1.2938 -0.899927 0
M  V30 6885 C 650.133 1.9555 -0.525963 0
M  V30 6886 C 650.461 1.70945 0.927789 0
M  V30 6887 O 649.716 1.01545 1.67293 0
M  V30 6888 C 650.015 3.49114 -0.765113 0
M  V30 6889 C 649.681 3.93796 -2.19626 0
M  V30 6890 C 648.343 4.05707 -2.58758 0
M  V30 6891 C 650.695 4.16883 -3.12823 0
M  V30 6892 C 648.023 4.38074 -3.90267 0
M  V30 6893 C 650.375 4.50725 -4.4388 0
M  V30 6894 C 649.039 4.60845 -4.82885 0
M  V30 6895 H 648.309 0.715569 -0.192463 0
M  V30 6896 H 650.956 1.53972 -1.13863 0
M  V30 6897 H 649.261 3.91738 -0.069531 0
M  V30 6898 H 650.958 3.98409 -0.455144 0
M  V30 6899 H 647.548 3.85042 -1.88256 0
M  V30 6900 H 651.732 4.07147 -2.83804 0
M  V30 6901 H 646.988 4.44112 -4.20207 0
M  V30 6902 H 651.162 4.67538 -5.16121 0
M  V30 6903 H 648.789 4.85681 -5.84823 0
M  V30 6904 N 650.364 0.662433 1.43002 0
M  V30 6905 C 651.592 0.187615 2.06048 0
M  V30 6906 C 652.007 -1.15039 1.49705 0
M  V30 6907 O 651.364 -1.71209 0.631956 0
M  V30 6908 C 651.415 0.100498 3.6136 0
M  V30 6909 O 651.136 1.38562 4.15611 0
M  V30 6910 C 652.637 -0.399298 4.41498 0
M  V30 6911 H 649.857 0.0941675 0.664359 0
M  V30 6912 H 652.401 0.905681 1.83351 0
M  V30 6913 H 650.556 -0.568181 3.83211 0
M  V30 6914 H 650.97 1.25084 5.09366 0
M  V30 6915 H 652.444 -0.409187 5.50481 0
M  V30 6916 H 652.921 -1.43232 4.15188 0
M  V30 6917 H 653.527 0.23721 4.24638 0
M  V30 6918 N 651.842 -1.52309 0.404946 0
M  V30 6919 C 653.067 -2.06666 -0.1743 0
M  V30 6920 C 653.492 -1.27341 -1.38441 0
M  V30 6921 O 652.85 -0.302539 -1.78758 0
M  V30 6922 C 652.898 -3.57014 -0.507262 0
M  V30 6923 O 652.002 -3.80144 -1.59889 0
M  V30 6924 H 651.343 -0.663807 -0.0160273 0
M  V30 6925 H 653.873 -1.96297 0.576937 0
M  V30 6926 H 653.883 -4.00724 -0.767098 0
M  V30 6927 H 652.558 -4.14184 0.377368 0
M  V30 6928 H 651.135 -3.48316 -1.33155 0
M  V30 6929 N 653.32 -0.135238 -1.57019 0
M  V30 6930 C 654.25 0.805235 -2.19176 0
M  V30 6931 C 655.231 1.2656 -1.13651 0
M  V30 6932 O 656.416 1.32528 -1.4195 0
M  V30 6933 C 653.546 2.04914 -2.80406 0
M  V30 6934 C 652.5 1.72598 -3.91655 0
M  V30 6935 C 651.826 3.04154 -4.39766 0
M  V30 6936 C 653.126 0.981709 -5.12991 0
M  V30 6937 H 654.82 0.287232 -2.98019 0
M  V30 6938 H 652.366 0.136714 -1.4335 0
M  V30 6939 H 654.319 2.71178 -3.22553 0
M  V30 6940 H 653.043 2.59067 -1.98877 0
M  V30 6941 H 651.702 1.08717 -3.50109 0
M  V30 6942 H 651.35 3.56274 -3.55075 0
M  V30 6943 H 651.05 2.83299 -5.14796 0
M  V30 6944 H 652.574 3.71509 -4.84576 0
M  V30 6945 H 653.988 1.5462 -5.52056 0
M  V30 6946 H 652.385 0.873533 -5.93708 0
M  V30 6947 H 653.455 -0.0286887 -4.84892 0
M  V30 6948 N 654.798 1.5699 0.138552 0
M  V30 6949 C 655.708 2.02174 1.19008 0
M  V30 6950 C 656.724 0.938622 1.46512 0
M  V30 6951 O 657.9 1.24872 1.58016 0
M  V30 6952 C 654.965 2.40045 2.50159 0
M  V30 6953 C 654.026 3.62346 2.30226 0
M  V30 6954 C 653.259 3.98401 3.55123 0
M  V30 6955 O 653.482 3.35019 4.61647 0
M  V30 6956 O 652.416 4.91606 3.47285 0
M  V30 6957 H 656.242 2.91954 0.836452 0
M  V30 6958 H 653.827 1.45293 0.347907 0
M  V30 6959 H 655.709 2.65225 3.27465 0
M  V30 6960 H 654.384 1.53417 2.85035 0
M  V30 6961 H 653.291 3.42341 1.50843 0
M  V30 6962 H 654.624 4.49617 2.00262 0
M  V30 6963 N 656.276 -0.40816 1.52223 0
M  V30 6964 C 657.208 -1.51642 1.71864 0
M  V30 6965 C 658.221 -1.51378 0.599056 0
M  V30 6966 O 659.41 -1.55626 0.874239 0
M  V30 6967 C 656.51 -2.90534 1.74481 0
M  V30 6968 C 655.683 -3.14979 3.03491 0
M  V30 6969 C 654.742 -4.33749 2.97907 0
M  V30 6970 O 653.768 -4.30982 3.71811 0
M  V30 6971 N 654.97 -5.38912 2.15764 0
M  V30 6972 H 657.735 -1.35188 2.67478 0
M  V30 6973 H 655.296 -0.597468 1.50472 0
M  V30 6974 H 657.288 -3.68056 1.68275 0
M  V30 6975 H 655.858 -3.00441 0.863363 0
M  V30 6976 H 655.078 -2.25492 3.23337 0
M  V30 6977 H 656.366 -3.28156 3.88833 0
M  V30 6978 H 655.764 -5.44008 1.55152 0
M  V30 6979 H 654.321 -6.15174 2.15415 0
M  V30 6980 N 657.755 -1.42862 -0.66545 0
M  V30 6981 C 659.001 -1.44043 -1.42757 0
M  V30 6982 C 659.334 -0.0599629 -1.94107 0
M  V30 6983 O 658.609 0.917286 -1.71511 0
M  V30 6984 C 658.892 -2.47266 -2.61786 0
M  V30 6985 C 658.745 -3.94539 -2.16007 0
M  V30 6986 C 660.064 -2.47365 -3.64003 0
M  V30 6987 H 657.183 -0.524506 -0.517748 0
M  V30 6988 H 659.825 -1.74335 -0.755466 0
M  V30 6989 H 657.975 -2.21565 -3.19126 0
M  V30 6990 H 659.647 -4.31254 -1.63762 0
M  V30 6991 H 657.89 -4.07957 -1.47491 0
M  V30 6992 H 658.561 -4.62357 -3.01546 0
M  V30 6993 H 661.037 -2.70243 -3.16399 0
M  V30 6994 H 659.913 -3.21552 -4.44854 0
M  V30 6995 H 660.174 -1.50299 -4.15767 0
M  V30 6996 N 659.233 0.902656 -1.29189 0
M  V30 6997 C 660.479 1.65532 -1.17163 0
M  V30 6998 C 660.812 1.92216 0.276879 0
M  V30 6999 O 660.087 1.53048 1.20027 0
M  V30 7000 C 660.37 3.00629 -1.98228 0
M  V30 7001 C 660.223 2.81029 -3.51202 0
M  V30 7002 C 661.542 4.01321 -1.80635 0
M  V30 7003 H 658.661 0.60071 -0.426985 0
M  V30 7004 H 661.303 1.04578 -1.5863 0
M  V30 7005 H 659.453 3.52656 -1.62991 0
M  V30 7006 H 661.125 2.35927 -3.96404 0
M  V30 7007 H 659.368 2.1587 -3.76275 0
M  V30 7008 H 660.039 3.77014 -4.03192 0
M  V30 7009 H 662.515 3.58394 -2.11406 0
M  V30 7010 H 661.391 4.93792 -2.3971 0
M  V30 7011 H 661.652 4.35505 -0.760754 0
M  V30 7012 N 660.711 1.11618 1.11262 0
M  V30 7013 C 661.674 0.779447 2.15539 0
M  V30 7014 C 662.674 -0.202081 1.59525 0
M  V30 7015 O 663.864 0.0226356 1.74185 0
M  V30 7016 C 660.996 0.15674 3.40539 0
M  V30 7017 H 662.189 1.70324 2.4684 0
M  V30 7018 H 659.742 0.918298 1.26479 0
M  V30 7019 H 660.477 -0.777186 3.1485 0
M  V30 7020 H 660.262 0.863308 3.82478 0
M  V30 7021 H 661.752 -0.062661 4.17553 0
M  V30 7022 N 662.189 -1.289 0.906776 0
M  V30 7023 C 663.414 -1.99939 0.551303 0
M  V30 7024 C 663.839 -1.67366 -0.858496 0
M  V30 7025 O 663.197 -0.902176 -1.57259 0
M  V30 7026 C 663.245 -3.52523 0.758937 0
M  V30 7027 O 662.349 -4.11983 -0.185308 0
M  V30 7028 H 661.69 -0.628376 0.214568 0
M  V30 7029 H 664.22 -1.64225 1.2203 0
M  V30 7030 H 664.23 -4.02522 0.666329 0
M  V30 7031 H 662.905 -3.75566 1.78671 0
M  V30 7032 H 661.482 -3.72873 -0.0445577 0
M  V30 7033 N 663.667 -0.670007 -1.42649 0
M  V30 7034 C 664.897 -0.198252 -2.05647 0
M  V30 7035 C 665.305 1.14786 -1.50402 0
M  V30 7036 O 664.648 1.72316 -0.636634 0
M  V30 7037 C 664.71 -0.0507132 -3.59464 0
M  V30 7038 C 664.374 -1.32478 -4.37377 0
M  V30 7039 C 665.371 -2.2572 -4.68344 0
M  V30 7040 C 663.056 -1.57104 -4.77099 0
M  V30 7041 C 665.05 -3.4187 -5.37963 0
M  V30 7042 C 662.737 -2.73543 -5.46459 0
M  V30 7043 C 663.735 -3.65751 -5.76815 0
M  V30 7044 O 663.423 -4.80154 -6.44753 0
M  V30 7045 H 663.155 -0.0950721 -0.669281 0
M  V30 7046 H 665.709 -0.915745 -1.83857 0
M  V30 7047 H 663.939 0.722314 -3.79894 0
M  V30 7048 H 665.628 0.380552 -4.04112 0
M  V30 7049 H 666.394 -2.07943 -4.38161 0
M  V30 7050 H 662.273 -0.862069 -4.52868 0
M  V30 7051 H 665.817 -4.13861 -5.61574 0
M  V30 7052 H 661.714 -2.91248 -5.7606 0
M  V30 7053 H 662.482 -4.79637 -6.63243 0
M  V30 7054 N 665.145 1.52092 -0.413018 0
M  V30 7055 C 666.385 2.03765 0.160975 0
M  V30 7056 C 666.749 1.29174 1.4205 0
M  V30 7057 O 667.95 1.71093 2.07318 0
M  V30 7058 C 666.221 3.55167 0.398871 0
M  V30 7059 S 667.78 4.28619 0.939755 0
M  V30 7060 H 664.598 0.709685 0.0432281 0
M  V30 7061 H 667.2 1.87102 -0.566831 0
M  V30 7062 H 665.904 4.07034 -0.524544 0
M  V30 7063 H 665.435 3.7608 1.15444 0
M  V30 7064 H 667.45 4.43773 2.21991 0
M  V30 7065 N 666.623 0.143563 1.56945 0
M  V30 7066 C 667.571 -0.814556 2.17871 0
M  V30 7067 C 668.565 -1.25778 1.13474 0
M  V30 7068 O 669.771 -1.22666 1.31731 0
M  V30 7069 H 666.146 -0.280873 0.697578 0
M  V30 7070 H 668.117 -0.276459 2.97117 0
M  V30 7071 C 666.866 -2.04503 2.81201 0
M  V30 7072 H 666.189 -1.71296 3.61245 0
M  V30 7073 H 667.629 -2.69493 3.27337 0
M  V30 7074 C 666.088 -2.85079 1.79532 0
M  V30 7075 O 666.618 -3.81306 1.26368 0
M  V30 7076 N 664.824 -2.49546 1.48913 0
M  V30 7077 H 664.371 -1.71359 1.92338 0
M  V30 7078 H 664.329 -3.03751 0.811348 0
M  V30 7079 N 668.101 -1.57061 -0.130224 0
M  V30 7080 C 669.031 -2.02552 -1.16168 0
M  V30 7081 C 670.012 -0.907971 -1.4384 0
M  V30 7082 O 671.197 -1.17693 -1.54473 0
M  V30 7083 C 668.327 -2.42035 -2.49071 0
M  V30 7084 C 667.281 -3.5713 -2.35886 0
M  V30 7085 C 666.607 -3.82478 -3.7365 0
M  V30 7086 C 667.907 -4.89236 -1.8288 0
M  V30 7087 H 669.601 -2.8897 -0.783359 0
M  V30 7088 H 667.147 -1.39021 -0.375376 0
M  V30 7089 H 669.1 -2.72462 -3.21469 0
M  V30 7090 H 667.824 -1.52573 -2.88771 0
M  V30 7091 H 666.483 -3.26895 -1.65938 0
M  V30 7092 H 666.131 -2.9024 -4.10816 0
M  V30 7093 H 665.831 -4.59944 -3.65685 0
M  V30 7094 H 667.355 -4.15347 -4.47571 0
M  V30 7095 H 668.769 -5.18272 -2.45085 0
M  V30 7096 H 667.166 -5.70624 -1.85763 0
M  V30 7097 H 668.236 -4.78494 -0.785571 0
M  V30 7098 O 669.618 0.274706 -1.59147 0
M  V30 7099 H 670.309 0.920013 -1.70457 0
M  V30 END ATOM
M  V30 BEGIN BOND
M  V30 END BOND
M  V30 END CTAB
M  END
$$$$
