drugbank_target|Q9UJX1 Alanine-glyoxylate aminotransferase homolog (DB00114)
 OpenBabel12092120063D

  0  0  0     0  0            999 V3000
M  V30 BEGIN CTAB
M  V30 COUNTS 3979 4038 0 0 0
M  V30 BEGIN ATOM
M  V30 1 H -0.908 1.98254 -0.117106 0
M  V30 2 N 0 1.576 0 0
M  V30 3 C 0.933 2.03868 1.02534 0
M  V30 4 C 1.911 0.928543 1.3348 0
M  V30 5 O 3.095 1.19667 1.45644 0
M  V30 6 C 0.222 2.43627 2.35294 0
M  V30 7 C -0.732 3.65373 2.2001 0
M  V30 8 S 0.101 5.13292 1.52614 0
M  V30 9 C 1.257 5.56322 2.86805 0
M  V30 10 H 1.49 2.90518 0.631377 0
M  V30 11 H -0.977 1.52953 0.210867 0
M  V30 12 H 0.981 2.67203 3.11629 0
M  V30 13 H -0.358 1.57376 2.7183 0
M  V30 14 H -1.165 3.90944 3.18086 0
M  V30 15 H -1.563 3.418 1.51819 0
M  V30 16 H 0.729 5.58782 3.83104 0
M  V30 17 H 1.672 6.56266 2.65933 0
M  V30 18 H 2.08 4.83886 2.90714 0
M  V30 19 N 1.4781 -0.272755 1.55222 0
M  V30 20 C 2.4411 -1.32041 1.87344 0
M  V30 21 C 3.4411 -1.42342 0.74803 0
M  V30 22 O 4.6311 -1.41488 1.0162 0
M  V30 23 C 1.7631 -2.70173 2.07893 0
M  V30 24 H 2.9561 -1.04789 2.80997 0
M  V30 25 H 0.5091 -0.51083 1.47717 0
M  V30 26 H 1.2441 -3.02605 1.16622 0
M  V30 27 H 1.0291 -2.64082 2.89833 0
M  V30 28 H 2.5191 -3.45869 2.34017 0
M  V30 29 N 2.9562 -1.48159 -0.537278 0
M  V30 30 C 3.8862 -1.65029 -1.6519 0
M  V30 31 C 4.8672 -0.499281 -1.62607 0
M  V30 32 O 6.0522 -0.730972 -1.79918 0
M  V30 33 C 3.1822 -1.68303 -3.03795 0
M  V30 34 C 2.1362 -2.8283 -3.21234 0
M  V30 35 C 1.4622 -2.71189 -4.60826 0
M  V30 36 C 2.7622 -4.24211 -3.04701 0
M  V30 37 H 4.4562 -2.58341 -1.51328 0
M  V30 38 H 2.0022 -1.24325 -0.726585 0
M  V30 39 H 3.9552 -1.78693 -3.81637 0
M  V30 40 H 2.6792 -0.715635 -3.18663 0
M  V30 41 H 1.3382 -2.71983 -2.45807 0
M  V30 42 H 0.9862 -1.72435 -4.7252 0
M  V30 43 H 0.6862 -3.48035 -4.7344 0
M  V30 44 H 2.2102 -2.83537 -5.40777 0
M  V30 45 H 3.6242 -4.3593 -3.72341 0
M  V30 46 H 2.0212 -5.01998 -3.28813 0
M  V30 47 H 3.0912 -4.41184 -2.01209 0
M  V30 48 N 4.4343 0.785586 -1.36625 0
M  V30 49 C 5.8503 1.08419 -1.17122 0
M  V30 50 C 6.0503 2.015 0.00208491 0
M  V30 51 O 5.1063 2.43551 0.666278 0
M  V30 52 C 6.4193 1.69498 -2.48377 0
M  V30 53 C 7.9673 1.81821 -2.54775 0
M  V30 54 C 8.4423 2.46315 -3.86126 0
M  V30 55 N 9.9333 2.53779 -3.87492 0
M  V30 56 C 10.6683 3.045 -4.85868 0
M  V30 57 N 10.1643 3.55499 -5.94637 0
M  V30 58 N 11.9573 3.03247 -4.73284 0
M  V30 59 H 4.1083 0.167264 -2.1174 0
M  V30 60 H 6.3713 0.13682 -0.938075 0
M  V30 61 H 6.0773 1.08571 -3.34522 0
M  V30 62 H 5.9513 2.6896 -2.64462 0
M  V30 63 H 8.3383 2.41884 -1.69045 0
M  V30 64 H 8.4193 0.811532 -2.42586 0
M  V30 65 H 8.0633 1.86895 -4.72263 0
M  V30 66 H 7.9933 3.47561 -3.95612 0
M  V30 67 H 10.4843 2.17672 -3.08913 0
M  V30 68 H 10.7973 3.92562 -6.65669 0
M  V30 69 H 9.1423 3.5364 -5.98301 0
M  V30 70 H 12.3333 2.62696 -3.87438 0
M  V30 71 H 12.5063 3.42467 -5.50109 0
M  V30 72 N 5.9124 1.20967 1.01018 0
M  V30 73 C 7.1604 1.02172 1.74371 0
M  V30 74 C 7.4814 -0.446414 1.89821 0
M  V30 75 O 6.7514 -1.32234 1.44537 0
M  V30 76 H 5.3314 0.375066 0.646014 0
M  V30 77 H 7.9934 1.52187 1.21758 0
M  V30 78 H 7.0894 1.48538 2.74487 0
M  V30 79 N 7.3905 -1.2043 1.01659 0
M  V30 80 C 8.8015 -1.71517 0.737482 0
M  V30 81 C 9.1525 -1.81547 -0.743973 0
M  V30 82 O 8.2775 -1.47803 -1.58061 0
M  V30 83 C 8.8725 -3.11515 1.33206 0
M  V30 84 C 7.4315 -3.59912 1.10183 0
M  V30 85 C 6.5785 -2.37116 1.43776 0
M  V30 86 H 9.5295 -1.05444 1.18606 0
M  V30 87 H 9.5505 -3.73575 0.722636 0
M  V30 88 H 9.0625 -3.04182 2.41028 0
M  V30 89 H 7.1635 -3.72577 0.0412756 0
M  V30 90 H 7.2765 -4.44731 1.78188 0
M  V30 91 H 5.6405 -2.39857 0.856778 0
M  V30 92 H 6.4235 -2.32424 2.52654 0
M  V30 93 N 8.8686 -0.792821 -1.36206 0
M  V30 94 C 10.1166 -0.366062 -1.98757 0
M  V30 95 C 10.4376 1.0668 -1.63231 0
M  V30 96 O 9.7076 1.73587 -0.907978 0
M  V30 97 H 8.2876 -0.132364 -0.735179 0
M  V30 98 H 10.9496 -1.01562 -1.66347 0
M  V30 99 H 10.0456 -0.460638 -3.08682 0
M  V30 100 N 10.3467 1.47872 -0.545128 0
M  V30 101 C 11.2767 2.32661 0.197793 0
M  V30 102 C 12.2577 1.43041 0.920504 0
M  V30 103 O 13.4427 1.71912 0.90333 0
M  V30 104 C 10.5727 3.24569 1.23582 0
M  V30 105 C 9.5267 4.23333 0.630323 0
M  V30 106 C 8.8527 5.0448 1.77211 0
M  V30 107 C 10.1527 5.20704 -0.407974 0
M  V30 108 H 11.8467 2.95024 -0.510045 0
M  V30 109 H 9.3927 1.4187 -0.246731 0
M  V30 110 H 11.3457 3.8272 1.76362 0
M  V30 111 H 10.0697 2.60236 1.97344 0
M  V30 112 H 8.7287 3.6639 0.123922 0
M  V30 113 H 8.3767 4.36561 2.49847 0
M  V30 114 H 8.0767 5.71339 1.37281 0
M  V30 115 H 9.6007 5.65487 2.3034 0
M  V30 116 H 11.0147 5.7329 0.033305 0
M  V30 117 H 9.4117 5.95699 -0.725486 0
M  V30 118 H 10.4817 4.66917 -1.30828 0
M  V30 119 N 11.8248 0.280983 1.55075 0
M  V30 120 C 12.7348 -0.61388 2.26426 0
M  V30 121 C 13.7508 -1.16521 1.29224 0
M  V30 122 O 14.9268 -1.19426 1.62171 0
M  V30 123 C 11.9918 -1.7788 2.9759 0
M  V30 124 C 11.0528 -1.26355 4.10284 0
M  V30 125 C 10.2858 -2.37295 4.78045 0
M  V30 126 O 10.5088 -3.56777 4.45047 0
M  V30 127 O 9.4428 -2.05119 5.65871 0
M  V30 128 H 13.2688 -0.0356932 3.03679 0
M  V30 129 H 10.8538 0.0481686 1.49322 0
M  V30 130 H 12.7358 -2.45791 3.42293 0
M  V30 131 H 11.4108 -2.34397 2.23249 0
M  V30 132 H 10.3178 -0.550735 3.70024 0
M  V30 133 H 11.6508 -0.744065 4.86543 0
M  V30 134 N 13.3029 -1.57598 0.00835791 0
M  V30 135 C 14.7189 -1.55764 -0.347822 0
M  V30 136 C 14.9189 -1.01186 -1.74252 0
M  V30 137 O 13.9749 -0.649371 -2.44007 0
M  V30 138 C 15.2879 -2.99927 -0.215407 0
M  V30 139 C 16.8359 -3.11656 -0.289725 0
M  V30 140 C 17.3109 -4.57621 -0.18634 0
M  V30 141 N 18.8019 -4.62557 -0.243978 0
M  V30 142 C 19.5369 -5.73094 -0.18745 0
M  V30 143 N 19.0329 -6.92753 -0.0810331 0
M  V30 144 N 20.8259 -5.61588 -0.239925 0
M  V30 145 H 12.9769 -1.91411 0.92062 0
M  V30 146 H 15.2399 -0.879562 0.353659 0
M  V30 147 H 14.9459 -3.43729 0.744512 0
M  V30 148 H 14.8199 -3.63865 -0.994097 0
M  V30 149 H 17.2069 -2.67779 -1.24009 0
M  V30 150 H 17.2879 -2.5048 0.51898 0
M  V30 151 H 16.9319 -5.02174 0.760519 0
M  V30 152 H 16.8619 -5.16752 -1.01364 0
M  V30 153 H 19.3529 -3.76481 -0.327217 0
M  V30 154 H 19.6659 -7.72787 -0.0440241 0
M  V30 155 H 18.0109 -6.94984 -0.0465419 0
M  V30 156 H 21.2019 -4.66996 -0.321317 0
M  V30 157 H 21.3749 -6.47714 -0.192407 0
M  V30 158 N 14.781 0.264519 -1.55364 0
M  V30 159 C 16.192 0.834936 -1.6699 0
M  V30 160 C 16.543 1.86718 -0.602552 0
M  V30 161 O 15.668 2.14899 0.254425 0
M  V30 162 C 16.263 1.5212 -3.02729 0
M  V30 163 C 14.822 2.03954 -3.16354 0
M  V30 164 C 13.969 0.884498 -2.62815 0
M  V30 165 H 16.92 0.0406869 -1.58648 0
M  V30 166 H 16.941 2.38853 -2.96191 0
M  V30 167 H 16.453 0.769668 -3.80392 0
M  V30 168 H 14.554 2.82041 -2.43482 0
M  V30 169 H 14.667 2.24902 -4.23032 0
M  V30 170 H 13.031 1.2802 -2.20188 0
M  V30 171 H 13.814 0.14634 -3.42988 0
M  V30 172 N 16.2591 1.48442 0.529413 0
M  V30 173 C 17.6701 1.5002 1.11134 0
M  V30 174 C 18.0211 0.27031 1.94329 0
M  V30 175 O 17.1461 -0.622507 2.07253 0
M  V30 176 C 17.7411 2.71834 2.02217 0
M  V30 177 C 16.3001 2.76283 2.55627 0
M  V30 178 C 15.4471 2.43542 1.326 0
M  V30 179 H 18.3981 1.5555 0.314641 0
M  V30 180 H 18.4191 2.50384 2.8651 0
M  V30 181 H 17.9311 3.61331 1.41639 0
M  V30 182 H 16.0321 1.90995 3.19924 0
M  V30 183 H 16.1451 3.77725 2.94721 0
M  V30 184 H 14.5091 1.94709 1.64196 0
M  V30 185 H 15.2921 3.3528 0.737734 0
M  V30 186 N 17.7372 -0.778329 1.37039 0
M  V30 187 C 18.6672 -1.90546 1.34962 0
M  V30 188 C 19.6482 -1.68681 0.219274 0
M  V30 189 O 20.8332 -1.89634 0.418624 0
M  V30 190 C 17.9632 -3.27734 1.14925 0
M  V30 191 C 16.9172 -3.64147 2.24902 0
M  V30 192 C 16.2432 -4.99806 1.89996 0
M  V30 193 C 17.5432 -3.71579 3.67051 0
M  V30 194 H 19.2372 -1.92541 2.29277 0
M  V30 195 H 16.7832 -0.924948 1.10366 0
M  V30 196 H 18.7362 -4.06215 1.12104 0
M  V30 197 H 17.4602 -3.26154 0.170631 0
M  V30 198 H 16.1192 -2.8797 2.26868 0
M  V30 199 H 15.7672 -4.94759 0.906796 0
M  V30 200 H 15.4672 -5.25139 2.63634 0
M  V30 201 H 16.9912 -5.80694 1.88749 0
M  V30 202 H 18.4052 -4.40227 3.67251 0
M  V30 203 H 16.8022 -4.08405 4.39688 0
M  V30 204 H 17.8722 -2.72404 4.01154 0
M  V30 205 N 19.2153 -1.21501 -1.00376 0
M  V30 206 C 20.4433 -1.059 -1.77744 0
M  V30 207 C 20.8583 0.391125 -1.84704 0
M  V30 208 O 20.2153 1.27133 -1.30933 0
M  V30 209 C 20.2663 -1.65111 -3.21591 0
M  V30 210 O 19.9873 -3.0445 -3.15027 0
M  V30 211 C 21.4883 -1.54637 -4.15454 0
M  V30 212 H 18.7083 -0.371825 -0.558558 0
M  V30 213 H 21.2523 -1.60865 -1.26264 0
M  V30 214 H 19.4073 -1.14235 -3.70175 0
M  V30 215 H 19.8213 -3.3278 -4.0541 0
M  V30 216 H 21.2953 -2.00808 -5.14179 0
M  V30 217 H 21.7723 -0.501022 -4.36333 0
M  V30 218 H 22.3783 -2.04767 -3.72761 0
M  V30 219 N 20.6934 1.19889 -1.02296 0
M  V30 220 C 21.9334 1.91125 -0.724602 0
M  V30 221 C 22.2974 1.77464 0.732835 0
M  V30 222 O 23.4984 2.43241 1.144 0
M  V30 223 C 21.7694 3.38187 -1.15604 0
M  V30 224 S 23.3284 4.27702 -0.980621 0
M  V30 225 H 20.1464 0.66018 -0.263976 0
M  V30 226 H 22.7484 1.44978 -1.31155 0
M  V30 227 H 21.4524 3.45653 -2.21251 0
M  V30 228 H 20.9834 3.89363 -0.562131 0
M  V30 229 H 22.9984 4.96073 0.112225 0
M  V30 230 N 22.1715 0.800033 1.35784 0
M  V30 231 C 23.5825 0.439142 1.81462 0
M  V30 232 C 23.9335 -1.03813 1.66485 0
M  V30 233 O 23.0585 -1.80626 1.19177 0
M  V30 234 C 23.6535 0.790314 3.29453 0
M  V30 235 C 22.2125 0.482111 3.733 0
M  V30 236 C 21.3595 1.01938 2.57883 0
M  V30 237 H 24.3105 0.992254 1.23855 0
M  V30 238 H 24.3315 0.0853677 3.80404 0
M  V30 239 H 23.8435 1.86554 3.40322 0
M  V30 240 H 21.9445 -0.584652 3.67984 0
M  V30 241 H 22.0575 1.01015 4.6833 0
M  V30 242 H 20.4215 0.442043 2.50835 0
M  V30 243 H 21.2045 2.10059 2.71533 0
M  V30 244 N 23.6496 -1.47581 0.552962 0
M  V30 245 C 24.5596 -2.33743 -0.200353 0
M  V30 246 C 25.5756 -1.47928 -0.916151 0
M  V30 247 O 26.7516 -1.80865 -0.885993 0
M  V30 248 C 23.8166 -3.24536 -1.21973 0
M  V30 249 C 22.8776 -4.26238 -0.511819 0
M  V30 250 C 22.1106 -5.12693 -1.48263 0
M  V30 251 O 22.3336 -5.01525 -2.71714 0
M  V30 252 O 21.2676 -5.93375 -1.00945 0
M  V30 253 H 25.0936 -2.9945 0.506304 0
M  V30 254 H 22.6786 -1.46071 0.313622 0
M  V30 255 H 24.5606 -3.80631 -1.80827 0
M  V30 256 H 23.2356 -2.61462 -1.90839 0
M  V30 257 H 22.1426 -3.73914 0.117799 0
M  V30 258 H 23.4756 -4.92014 0.135308 0
M  V30 259 N 25.1277 -0.289203 -1.54924 0
M  V30 260 C 26.0577 0.58549 -2.2604 0
M  V30 261 C 27.0387 1.14753 -1.25562 0
M  V30 262 O 28.2237 1.17906 -1.54311 0
M  V30 263 C 25.3537 1.76305 -2.99222 0
M  V30 264 C 24.3077 1.33191 -4.06748 0
M  V30 265 C 23.6337 2.5937 -4.6758 0
M  V30 266 C 24.9337 0.471775 -5.20165 0
M  V30 267 H 26.6277 -0.00763532 -2.99399 0
M  V30 268 H 24.1737 -0.00511229 -1.43999 0
M  V30 269 H 26.1267 2.38097 -3.47689 0
M  V30 270 H 24.8507 2.38223 -2.23422 0
M  V30 271 H 23.5097 0.737121 -3.59113 0
M  V30 272 H 23.1577 3.19576 -3.88433 0
M  V30 273 H 22.8577 2.31228 -5.40192 0
M  V30 274 H 24.3817 3.21985 -5.18804 0
M  V30 275 H 25.7957 0.995056 -5.64599 0
M  V30 276 H 24.1927 0.284639 -5.99425 0
M  V30 277 H 25.2627 -0.506041 -4.82252 0
M  V30 278 N 26.6058 1.57591 -0.0167156 0
M  V30 279 C 28.0218 1.55946 0.339557 0
M  V30 280 C 28.2218 1.02109 1.73713 0
M  V30 281 O 27.2778 0.662303 2.43659 0
M  V30 282 C 28.5908 3.00037 0.199499 0
M  V30 283 C 30.1388 3.11805 0.273193 0
M  V30 284 C 30.6138 4.57713 0.162068 0
M  V30 285 N 32.1048 4.6268 0.219444 0
M  V30 286 C 32.8398 5.73185 0.157054 0
M  V30 287 N 32.3358 6.92786 0.0442936 0
M  V30 288 N 34.1288 5.61707 0.21014 0
M  V30 289 H 26.2798 1.90921 -0.930758 0
M  V30 290 H 28.5428 0.877674 -0.358319 0
M  V30 291 H 28.2488 3.4333 -0.76273 0
M  V30 292 H 28.1228 3.64387 0.974786 0
M  V30 293 H 30.5098 2.68433 1.22587 0
M  V30 294 H 30.5908 2.50201 -0.532256 0
M  V30 295 H 30.2348 5.01763 -0.78714 0
M  V30 296 H 30.1648 5.17283 0.986222 0
M  V30 297 H 32.6558 3.76649 0.307246 0
M  V30 298 H 32.9688 7.728 0.00304069 0
M  V30 299 H 31.3138 6.94999 0.00968457 0
M  V30 300 H 34.5048 4.6716 0.296546 0
M  V30 301 H 34.6778 6.47807 0.158054 0
M  V30 302 N 28.0839 -0.256276 1.55502 0
M  V30 303 C 29.0159 -1.33981 1.85962 0
M  V30 304 C 30.0289 -1.44743 0.745212 0
M  V30 305 O 31.2179 -1.4626 1.02324 0
M  V30 306 C 28.3179 -2.7194 2.02242 0
M  V30 307 C 27.4909 -2.83562 3.33033 0
M  V30 308 C 26.5499 -4.02304 3.39172 0
M  V30 309 O 25.5759 -3.92273 4.12444 0
M  V30 310 N 26.7779 -5.15045 2.67784 0
M  V30 311 H 29.5429 -1.08191 2.7949 0
M  V30 312 H 27.1039 -0.446388 1.55624 0
M  V30 313 H 29.0959 -3.49697 2.03701 0
M  V30 314 H 27.6659 -2.90479 1.15502 0
M  V30 315 H 26.8859 -1.92555 3.43971 0
M  V30 316 H 28.1739 -2.88271 4.19258 0
M  V30 317 H 27.5719 -5.26085 2.07968 0
M  V30 318 H 26.1289 -5.90972 2.74947 0
M  V30 319 N 29.562 -1.4872 -0.521534 0
M  V30 320 C 30.472 -1.66569 -1.65203 0
M  V30 321 C 31.488 -0.548197 -1.65139 0
M  V30 322 O 32.664 -0.820339 -1.83936 0
M  V30 323 C 29.729 -1.70917 -3.01642 0
M  V30 324 C 28.79 -2.94356 -3.12495 0
M  V30 325 C 28.023 -2.98487 -4.42426 0
M  V30 326 O 28.246 -2.10786 -5.30024 0
M  V30 327 O 27.18 -3.90746 -4.57822 0
M  V30 328 H 31.006 -2.62298 -1.5308 0
M  V30 329 H 28.591 -1.3222 -0.695565 0
M  V30 330 H 30.473 -1.7625 -3.82771 0
M  V30 331 H 29.148 -0.783633 -3.14071 0
M  V30 332 H 28.055 -2.94552 -2.3063 0
M  V30 333 H 29.388 -3.86322 -3.04986 0
M  V30 334 N 31.0401 0.771051 -1.3745 0
M  V30 335 C 31.9721 1.89352 -1.29146 0
M  V30 336 C 32.9851 1.61477 -0.207124 0
M  V30 337 O 34.1741 1.72382 -0.463324 0
M  V30 338 C 31.2741 3.24596 -0.974195 0
M  V30 339 C 30.4471 3.80111 -2.16413 0
M  V30 340 C 29.5061 4.93832 -1.81703 0
M  V30 341 O 28.5321 5.09382 -2.54006 0
M  V30 342 N 29.7341 5.75483 -0.761573 0
M  V30 343 H 32.4991 1.96991 -2.25864 0
M  V30 344 H 30.0601 0.950191 -1.31084 0
M  V30 345 H 32.0521 3.98193 -0.722828 0
M  V30 346 H 30.6221 3.12454 -0.0955527 0
M  V30 347 H 29.8421 2.98284 -2.57721 0
M  V30 348 H 31.1301 4.13932 -2.95867 0
M  V30 349 H 30.5281 5.65469 -0.161609 0
M  V30 350 H 29.0851 6.49302 -0.570064 0
M  V30 351 N 32.5182 1.22032 0.997298 0
M  V30 352 C 33.7582 1.05375 1.75144 0
M  V30 353 C 34.1222 -0.404696 1.87686 0
M  V30 354 O 35.3232 -0.691998 2.5974 0
M  V30 355 C 33.5942 1.74046 3.12158 0
M  V30 356 S 35.1532 1.72745 4.03366 0
M  V30 357 H 31.9712 0.377449 0.602539 0
M  V30 358 H 34.5732 1.54902 1.19272 0
M  V30 359 H 33.2772 2.79332 3.00669 0
M  V30 360 H 32.8082 1.24731 3.73103 0
M  V30 361 H 34.8232 0.774015 4.90126 0
M  V30 362 N 33.9963 -1.19345 1.0293 0
M  V30 363 C 35.2363 -1.90738 0.734727 0
M  V30 364 C 35.6003 -1.7785 -0.723414 0
M  V30 365 O 36.8013 -2.43844 -1.13108 0
M  V30 366 C 35.0723 -3.37569 1.17396 0
M  V30 367 S 36.6313 -4.27176 1.00329 0
M  V30 368 H 33.4493 -0.658771 0.267474 0
M  V30 369 H 36.0513 -1.4428 1.31922 0
M  V30 370 H 34.7553 -3.44475 2.23081 0
M  V30 371 H 34.2863 -3.8906 0.582772 0
M  V30 372 H 36.3013 -4.96126 -0.0859152 0
M  V30 373 N 35.4744 -0.807222 -1.35358 0
M  V30 374 C 36.7224 -0.387122 -1.98358 0
M  V30 375 C 37.0434 1.04942 -1.64354 0
M  V30 376 O 36.3134 1.72615 -0.926339 0
M  V30 377 H 34.8934 -0.140154 -0.733734 0
M  V30 378 H 37.5554 -1.0332 -1.6526 0
M  V30 379 H 36.6514 -0.493352 -3.08176 0
M  V30 380 N 36.9525 1.47285 -0.560781 0
M  V30 381 C 38.2005 2.02064 -0.0379868 0
M  V30 382 C 38.5215 1.43711 1.31803 0
M  V30 383 O 37.7915 0.61362 1.86042 0
M  V30 384 H 36.3715 0.746918 -0.0110531 0
M  V30 385 H 39.0335 1.80648 -0.731598 0
M  V30 386 H 38.1295 3.12064 0.0474463 0
M  V30 387 N 38.4306 0.297415 1.54768 0
M  V30 388 C 39.6706 -0.313829 2.01976 0
M  V30 389 C 40.0346 -1.51366 1.1812 0
M  V30 390 O 41.2356 -2.19603 1.5501 0
M  V30 391 C 39.5066 -0.664964 3.51159 0
M  V30 392 S 41.0656 -1.25958 4.20333 0
M  V30 393 H 37.8836 -0.0965014 0.704421 0
M  V30 394 H 40.4856 0.424451 1.90837 0
M  V30 395 H 39.1896 0.21681 4.09827 0
M  V30 396 H 38.7206 -1.43413 3.66328 0
M  V30 397 H 40.7356 -2.54751 4.25813 0
M  V30 398 N 39.9087 -1.5758 0.0250728 0
M  V30 399 C 40.8407 -2.06869 -0.986796 0
M  V30 400 C 41.8537 -0.991332 -1.29137 0
M  V30 401 O 43.0427 -1.26761 -1.25674 0
M  V30 402 C 40.1427 -2.47486 -2.31525 0
M  V30 403 C 39.3157 -3.78253 -2.19643 0
M  V30 404 C 38.3747 -4.05464 -3.35388 0
M  V30 405 O 37.4007 -4.75774 -3.12454 0
M  V30 406 N 38.6027 -3.55321 -4.59051 0
M  V30 407 H 41.3677 -2.94302 -0.566276 0
M  V30 408 H 38.9287 -1.6109 -0.161776 0
M  V30 409 H 40.9207 -2.62785 -3.07776 0
M  V30 410 H 39.4907 -1.65441 -2.65232 0
M  V30 411 H 38.7107 -3.7279 -1.28144 0
M  V30 412 H 39.9987 -4.63936 -2.08903 0
M  V30 413 H 39.3967 -2.98431 -4.80578 0
M  V30 414 H 37.9537 -3.75905 -5.32483 0
M  V30 415 N 41.3868 0.248026 -1.55636 0
M  V30 416 C 42.6328 0.97767 -1.77678 0
M  V30 417 C 42.9658 1.85016 -0.590135 0
M  V30 418 O 42.2408 1.90095 0.411611 0
M  V30 419 C 42.5238 1.83914 -3.09593 0
M  V30 420 C 42.3768 0.99491 -4.38659 0
M  V30 421 C 43.6958 2.82183 -3.37729 0
M  V30 422 H 40.8148 0.354005 -0.646413 0
M  V30 423 H 43.4568 0.248253 -1.88371 0
M  V30 424 H 41.6068 2.46104 -3.00608 0
M  V30 425 H 43.2788 0.391789 -4.59633 0
M  V30 426 H 41.5218 0.299231 -4.32767 0
M  V30 427 H 42.1928 1.63145 -5.2734 0
M  V30 428 H 44.6688 2.30129 -3.4667 0
M  V30 429 H 43.5448 3.39582 -4.31249 0
M  V30 430 H 43.8058 3.58588 -2.58586 0
M  V30 431 N 42.8649 1.48995 0.513639 0
M  V30 432 C 44.1129 1.57531 1.26604 0
M  V30 433 C 44.4339 0.258236 1.93283 0
M  V30 434 O 43.7039 -0.721502 1.8213 0
M  V30 435 H 42.2839 0.580387 0.470276 0
M  V30 436 H 44.9459 1.85552 0.596373 0
M  V30 437 H 44.0419 2.36486 2.03669 0
M  V30 438 N 44.343 -0.763751 1.37857 0
M  V30 439 C 45.591 -1.51957 1.33243 0
M  V30 440 C 45.912 -1.94835 -0.0801709 0
M  V30 441 O 45.182 -1.66894 -1.02582 0
M  V30 442 H 43.762 -0.563626 0.49024 0
M  V30 443 H 46.424 -0.908504 1.7243 0
M  V30 444 H 45.52 -2.41523 1.97669 0
M  V30 445 N 45.8211 -1.22559 -0.990812 0
M  V30 446 C 46.7841 -0.998863 -2.0629 0
M  V30 447 C 47.7841 0.0354834 -1.60761 0
M  V30 448 O 48.9741 -0.203231 -1.7301 0
M  V30 449 C 46.1061 -0.509203 -3.37076 0
M  V30 450 H 47.2991 -1.95014 -2.27837 0
M  V30 451 H 44.8521 -1.04456 -1.16269 0
M  V30 452 H 45.5871 0.446335 -3.21214 0
M  V30 453 H 45.3721 -1.25547 -3.71457 0
M  V30 454 H 46.8621 -0.370888 -4.1595 0
M  V30 455 N 47.2992 1.18797 -1.03562 0
M  V30 456 C 48.5472 1.88278 -0.734569 0
M  V30 457 C 48.8682 1.8043 0.739586 0
M  V30 458 O 48.1382 1.21925 1.53333 0
M  V30 459 H 46.7182 0.696991 -0.268725 0
M  V30 460 H 49.3802 1.44192 -1.31129 0
M  V30 461 H 48.4762 2.94443 -1.03489 0
M  V30 462 N 48.7773 0.814389 1.34928 0
M  V30 463 C 50.1883 0.458364 1.80986 0
M  V30 464 C 50.5393 -1.02042 1.67577 0
M  V30 465 O 49.6643 -1.79352 1.21086 0
M  V30 466 C 50.2593 0.825212 3.28597 0
M  V30 467 C 48.8183 0.521677 3.72767 0
M  V30 468 C 47.9653 1.04668 2.56788 0
M  V30 469 H 50.9163 1.00533 1.22795 0
M  V30 470 H 50.9373 0.12571 3.80292 0
M  V30 471 H 50.4493 1.90154 3.38324 0
M  V30 472 H 48.5503 -0.545589 3.68584 0
M  V30 473 H 48.6633 1.05977 4.67232 0
M  V30 474 H 47.0273 0.468622 2.50352 0
M  V30 475 H 47.8103 2.12927 2.6929 0
M  V30 476 N 50.2554 -1.46986 0.568584 0
M  V30 477 C 51.1654 -2.33942 -0.17555 0
M  V30 478 C 52.1814 -1.48891 -0.90041 0
M  V30 479 O 53.3574 -1.81794 -0.86676 0
M  V30 480 C 50.4224 -3.25811 -1.18524 0
M  V30 481 C 49.4834 -4.26757 -0.466582 0
M  V30 482 C 48.7164 -5.14236 -1.42817 0
M  V30 483 O 48.9394 -5.04379 -2.66379 0
M  V30 484 O 47.8734 -5.94412 -0.946453 0
M  V30 485 H 51.6994 -2.98896 0.538036 0
M  V30 486 H 49.2844 -1.4573 0.329097 0
M  V30 487 H 51.1664 -3.82527 -1.76779 0
M  V30 488 H 49.8414 -2.63471 -1.88055 0
M  V30 489 H 48.7484 -3.73769 0.157451 0
M  V30 490 H 50.0814 -4.91843 0.187485 0
M  V30 491 N 51.7335 -0.305618 -1.54608 0
M  V30 492 C 53.1495 0.0476228 -1.59529 0
M  V30 493 C 53.3495 1.52025 -1.32252 0
M  V30 494 O 52.4055 2.27368 -1.09818 0
M  V30 495 C 53.7185 -0.354471 -2.98603 0
M  V30 496 C 55.2665 -0.303622 -3.11524 0
M  V30 497 C 55.7415 -0.680608 -4.52915 0
M  V30 498 N 57.2325 -0.63332 -4.5885 0
M  V30 499 C 57.9675 -0.897432 -5.66334 0
M  V30 500 N 57.4635 -1.22775 -6.81834 0
M  V30 501 N 59.2565 -0.824186 -5.56025 0
M  V30 502 H 51.4075 -1.2653 -1.70599 0
M  V30 503 H 53.6705 -0.513291 -0.797017 0
M  V30 504 H 53.3765 -1.3798 -3.23503 0
M  V30 505 H 53.2505 0.289568 -3.76087 0
M  V30 506 H 55.6375 0.712472 -2.8637 0
M  V30 507 H 55.7185 -0.982348 -2.36185 0
M  V30 508 H 55.3625 -1.69453 -4.78799 0
M  V30 509 H 55.2925 0.0202385 -5.26596 0
M  V30 510 H 57.7835 -0.389138 -3.75891 0
M  V30 511 H 58.0965 -1.41513 -7.59733 0
M  V30 512 H 56.4415 -1.26583 -6.83375 0
M  V30 513 H 59.6325 -0.565748 -4.64669 0
M  V30 514 H 59.8055 -1.03338 -6.39707 0
M  V30 515 N 53.2116 1.57565 -0.0334293 0
M  V30 516 C 54.6276 1.56297 0.322997 0
M  V30 517 C 54.8276 1.03945 1.7262 0
M  V30 518 O 53.8836 0.688109 2.42943 0
M  V30 519 C 55.1966 3.00232 0.167664 0
M  V30 520 C 56.7446 3.12078 0.240107 0
M  V30 521 C 57.2196 4.57859 0.113513 0
M  V30 522 N 58.7106 4.62887 0.170359 0
M  V30 523 C 59.4456 5.73319 0.0962517 0
M  V30 524 N 58.9416 6.92794 -0.0291881 0
M  V30 525 N 60.7346 5.61898 0.150551 0
M  V30 526 H 52.8856 1.89923 -0.950956 0
M  V30 527 H 55.1486 0.873824 -0.367608 0
M  V30 528 H 54.8546 3.42501 -0.799102 0
M  V30 529 H 54.7286 3.654 0.936083 0
M  V30 530 H 57.1156 2.69718 1.19733 0
M  V30 531 H 57.1966 2.49623 -0.558763 0
M  V30 532 H 56.8406 5.009 -0.840314 0
M  V30 533 H 56.7706 5.18299 0.931302 0
M  V30 534 H 59.2616 3.76954 0.26728 0
M  V30 535 H 59.5746 7.7276 -0.0789252 0
M  V30 536 H 57.9196 6.94971 -0.0640299 0
M  V30 537 H 61.1106 4.67448 0.246981 0
M  V30 538 H 61.2836 6.47938 0.0893365 0
M  V30 539 N 54.6897 -0.239769 1.55765 0
M  V30 540 C 55.9377 -0.964892 1.77579 0
M  V30 541 C 56.2587 -1.85582 0.598699 0
M  V30 542 O 55.5287 -1.92075 -0.385226 0
M  V30 543 H 54.1087 -0.359265 0.654933 0
M  V30 544 H 56.7707 -0.256001 1.93211 0
M  V30 545 H 55.8667 -1.58243 2.69009 0
M  V30 546 N 56.1678 -1.49265 -0.50573 0
M  V30 547 C 57.4158 -1.582 -1.25766 0
M  V30 548 C 57.7368 -0.268482 -1.93143 0
M  V30 549 O 57.0068 0.711833 -1.8251 0
M  V30 550 H 55.5868 -0.582873 -0.467191 0
M  V30 551 H 58.2488 -1.85865 -0.586525 0
M  V30 552 H 57.3448 -2.37563 -2.02412 0
M  V30 553 N 57.6459 0.756429 -1.3826 0
M  V30 554 C 58.5759 1.88374 -1.37976 0
M  V30 555 C 59.5569 1.68311 -0.246082 0
M  V30 556 O 60.7419 1.88944 -0.44874 0
M  V30 557 C 57.8719 3.25864 -1.20125 0
M  V30 558 C 56.8259 3.60523 -2.30666 0
M  V30 559 C 56.1519 4.9672 -1.97923 0
M  V30 560 C 57.4519 3.65692 -3.72916 0
M  V30 561 H 59.1459 1.88869 -2.32312 0
M  V30 562 H 56.6919 0.907272 -1.11824 0
M  V30 563 H 58.6449 4.0438 -1.18552 0
M  V30 564 H 57.3689 3.25841 -0.222498 0
M  V30 565 H 56.0279 2.84324 -2.3142 0
M  V30 566 H 55.6759 4.93253 -0.985393 0
M  V30 567 H 55.3759 5.20878 -2.71955 0
M  V30 568 H 56.8999 5.77618 -1.97964 0
M  V30 569 H 58.3139 4.34328 -3.74208 0
M  V30 570 H 56.7109 4.01358 -4.4613 0
M  V30 571 H 57.7809 2.65987 -4.05436 0
M  V30 572 N 59.124 1.23083 0.984299 0
M  V30 573 C 60.372 1.05848 1.72165 0
M  V30 574 C 60.693 -0.406049 1.90726 0
M  V30 575 O 59.963 -1.29139 1.47309 0
M  V30 576 H 58.543 0.388685 0.637913 0
M  V30 577 H 61.205 1.54736 1.18503 0
M  V30 578 H 60.301 1.54327 2.71274 0
M  V30 579 N 60.6021 -1.18246 1.0419 0
M  V30 580 C 61.5651 -2.20128 0.638452 0
M  V30 581 C 62.5651 -1.57885 -0.304805 0
M  V30 582 O 63.7551 -1.73967 -0.0900369 0
M  V30 583 C 60.8871 -3.4084 -0.0637751 0
M  V30 584 H 62.0801 -2.57336 1.54007 0
M  V30 585 H 59.6331 -1.32152 0.834598 0
M  V30 586 H 60.3681 -3.09166 -0.979136 0
M  V30 587 H 60.1531 -3.8726 0.614198 0
M  V30 588 H 61.6431 -4.16274 -0.332512 0
M  V30 589 N 62.0802 -0.821533 -1.34494 0
M  V30 590 C 63.3052 -0.420873 -2.03085 0
M  V30 591 C 63.7302 0.964915 -1.61465 0
M  V30 592 O 63.0882 1.62763 -0.798607 0
M  V30 593 C 63.1362 -0.529414 -3.56693 0
M  V30 594 O 62.2402 0.451302 -4.09923 0
M  V30 595 H 61.5812 -0.173489 -0.640935 0
M  V30 596 H 64.1112 -1.11157 -1.71771 0
M  V30 597 H 64.1212 -0.404671 -4.05988 0
M  V30 598 H 62.7962 -1.54014 -3.86332 0
M  V30 599 H 61.3732 0.285558 -3.71805 0
M  V30 600 N 63.5583 1.46682 -0.576371 0
M  V30 601 C 64.7863 2.06798 -0.0649635 0
M  V30 602 C 65.2013 1.42612 1.23723 0
M  V30 603 O 64.5583 0.529203 1.74659 0
M  V30 604 C 64.6093 3.6132 0.114202 0
M  V30 605 O 64.3303 4.23104 -1.13644 0
M  V30 606 C 65.8313 4.38349 0.66069 0
M  V30 607 H 63.0513 0.668778 -0.0545616 0
M  V30 608 H 65.5953 1.88404 -0.795237 0
M  V30 609 H 63.7503 3.79162 0.794673 0
M  V30 610 H 64.1643 5.15894 -0.946253 0
M  V30 611 H 65.6383 5.47081 0.73526 0
M  V30 612 H 66.1153 4.05953 1.67627 0
M  V30 613 H 66.7213 4.25297 0.0152951 0
M  V30 614 N 65.0364 0.313813 1.54444 0
M  V30 615 C 65.9664 -0.549454 2.26943 0
M  V30 616 C 66.9474 -1.12741 1.27372 0
M  V30 617 O 68.1324 -1.15436 1.56167 0
M  V30 618 C 65.2624 -1.71523 3.01989 0
M  V30 619 C 64.2164 -1.26703 4.08816 0
M  V30 620 C 63.5424 -2.51898 4.71647 0
M  V30 621 C 64.8424 -0.388962 5.2085 0
M  V30 622 H 66.5364 0.0552661 2.99349 0
M  V30 623 H 64.0824 0.0280207 1.43973 0
M  V30 624 H 66.0354 -2.32535 3.51433 0
M  V30 625 H 64.7594 -2.34639 2.27183 0
M  V30 626 H 63.4184 -0.679896 3.6024 0
M  V30 627 H 63.0664 -3.13356 3.93468 0
M  V30 628 H 62.7664 -2.22605 5.43802 0
M  V30 629 H 64.2904 -3.1369 5.23861 0
M  V30 630 H 65.7044 -0.905107 5.6611 0
M  V30 631 H 64.1014 -0.18924 5.99802 0
M  V30 632 H 65.1714 0.582699 4.81386 0
M  V30 633 N 66.5145 -1.57545 0.0417849 0
M  V30 634 C 67.7395 -1.97035 -0.647455 0
M  V30 635 C 68.1645 -0.918775 -1.64135 0
M  V30 636 O 67.5225 0.119006 -1.80909 0
M  V30 637 C 67.5705 -3.35609 -1.31905 0
M  V30 638 O 66.6745 -3.3287 -2.43457 0
M  V30 639 H 66.0155 -0.64211 -0.169086 0
M  V30 640 H 68.5455 -2.04318 0.107399 0
M  V30 641 H 68.5555 -3.72126 -1.67291 0
M  V30 642 H 67.2305 -4.11685 -0.590586 0
M  V30 643 H 65.8075 -3.08087 -2.10088 0
M  V30 644 N 67.9926 0.231505 -1.5589 0
M  V30 645 C 69.4036 0.799327 -1.68724 0
M  V30 646 C 69.7546 1.85398 -0.642022 0
M  V30 647 O 68.8796 2.1539 0.208784 0
M  V30 648 C 69.4746 1.45664 -3.05888 0
M  V30 649 C 68.0336 1.97197 -3.20609 0
M  V30 650 C 67.1806 0.828552 -2.64632 0
M  V30 651 H 70.1316 0.00702616 -1.58698 0
M  V30 652 H 70.1526 2.32517 -3.01191 0
M  V30 653 H 69.6646 0.688808 -3.81939 0
M  V30 654 H 67.7656 2.76813 -2.4941 0
M  V30 655 H 67.8786 2.15878 -4.27707 0
M  V30 656 H 66.2426 1.23321 -2.22854 0
M  V30 657 H 67.0256 0.0735544 -3.43221 0
M  V30 658 N 69.4707 1.49531 0.497807 0
M  V30 659 C 70.7187 1.58865 1.24926 0
M  V30 660 C 71.0397 0.278721 1.92998 0
M  V30 661 O 70.3097 -0.702144 1.82885 0
M  V30 662 H 68.8897 0.585343 0.464094 0
M  V30 663 H 71.5517 1.86174 0.57666 0
M  V30 664 H 70.6477 2.38633 2.01149 0
M  V30 665 N 70.9488 -0.749086 1.3866 0
M  V30 666 C 72.3598 -1.32664 1.31366 0
M  V30 667 C 72.7108 -1.96179 -0.028484 0
M  V30 668 O 71.8358 -1.9537 -0.93057 0
M  V30 669 C 72.4308 -2.41219 2.37905 0
M  V30 670 C 70.9898 -2.94684 2.34176 0
M  V30 671 C 70.1368 -1.68108 2.20533 0
M  V30 672 H 73.0878 -0.547628 1.48952 0
M  V30 673 H 73.1088 -3.21268 2.0388 0
M  V30 674 H 72.6208 -1.94962 3.35576 0
M  V30 675 H 70.7218 -3.45258 1.401 0
M  V30 676 H 70.8348 -3.48757 3.2849 0
M  V30 677 H 69.1988 -1.91907 1.67463 0
M  V30 678 H 69.9818 -1.23923 3.20153 0
M  V30 679 N 72.4269 -1.23603 -0.977757 0
M  V30 680 C 73.7039 -0.977897 -1.69401 0
M  V30 681 C 74.0839 0.502738 -2.05026 0
M  V30 682 O 73.4319 1.47459 -1.74551 0
M  V30 683 C 73.6419 -1.89077 -2.93345 0
M  V30 684 C 74.9899 -2.15579 -3.65802 0
M  V30 685 O 76.0139 -1.86648 -3.03383 0
M  V30 686 O 74.8729 -2.64658 -4.78141 0
M  V30 687 H 71.9669 -0.369025 -0.740101 0
M  V30 688 H 74.5129 -1.34657 -1.03274 0
M  V30 689 H 73.2849 -2.89158 -2.63634 0
M  V30 690 H 72.9079 -1.52463 -3.67207 0
M  V30 691 N 73.905 1.17692 -1.04816 0
M  V30 692 C 75.316 1.69501 -0.782698 0
M  V30 693 C 75.667 1.83456 0.695577 0
M  V30 694 O 74.792 1.51942 1.54086 0
M  V30 695 C 75.387 3.07874 -1.41419 0
M  V30 696 C 73.946 3.56864 -1.19686 0
M  V30 697 C 73.093 2.3322 -1.50012 0
M  V30 698 H 76.044 1.02262 -1.2136 0
M  V30 699 H 76.065 3.71528 -0.821428 0
M  V30 700 H 75.577 2.97685 -2.49009 0
M  V30 701 H 73.678 3.72337 -0.140043 0
M  V30 702 H 73.791 4.39851 -1.89916 0
M  V30 703 H 72.155 2.37501 -0.920071 0
M  V30 704 H 72.938 2.25644 -2.58727 0
M  V30 705 N 75.3831 0.828654 1.34056 0
M  V30 706 C 76.3131 0.269443 2.3194 0
M  V30 707 C 77.2941 -0.617247 1.58506 0
M  V30 708 O 78.4791 -0.542931 1.86456 0
M  V30 709 C 75.6091 -0.564793 3.42677 0
M  V30 710 C 74.5631 0.225241 4.27407 0
M  V30 711 C 73.8891 -0.7321 5.29664 0
M  V30 712 C 75.1891 1.43663 5.02154 0
M  V30 713 H 76.8831 1.08728 2.7896 0
M  V30 714 H 74.4291 0.524283 1.34117 0
M  V30 715 H 76.3821 -0.966233 4.10173 0
M  V30 716 H 75.1061 -1.41574 2.9432 0
M  V30 717 H 73.7651 0.608117 3.61521 0
M  V30 718 H 73.4131 -1.57916 4.77568 0
M  V30 719 H 73.1131 -0.20767 5.87233 0
M  V30 720 H 74.6371 -1.13128 6.00029 0
M  V30 721 H 76.0511 1.1089 5.62473 0
M  V30 722 H 74.4481 1.89711 5.69324 0
M  V30 723 H 75.5181 2.21181 4.31517 0
M  V30 724 N 76.8612 -1.46375 0.584142 0
M  V30 725 C 77.7932 -2.28443 -0.186119 0
M  V30 726 C 78.8062 -1.38596 -0.854115 0
M  V30 727 O 79.9952 -1.63183 -0.723438 0
M  V30 728 C 77.0952 -3.13671 -1.28311 0
M  V30 729 C 76.2682 -4.31652 -0.706758 0
M  V30 730 C 75.3272 -4.98267 -1.69163 0
M  V30 731 O 74.3532 -5.55815 -1.22712 0
M  V30 732 N 75.5552 -4.95408 -3.02575 0
M  V30 733 H 78.3202 -2.9519 0.517986 0
M  V30 734 H 75.8812 -1.56303 0.42201 0
M  V30 735 H 77.8732 -3.55101 -1.94128 0
M  V30 736 H 76.4432 -2.48989 -1.89005 0
M  V30 737 H 75.6632 -3.93989 0.128908 0
M  V30 738 H 76.9512 -5.07906 -0.301506 0
M  V30 739 H 76.3492 -4.49902 -3.42936 0
M  V30 740 H 74.9062 -5.40774 -3.63877 0
M  V30 741 N 78.3393 -0.321999 -1.54275 0
M  V30 742 C 79.7503 0.166384 -1.85957 0
M  V30 743 C 80.1013 1.51747 -1.24367 0
M  V30 744 O 79.2263 2.09317 -0.549124 0
M  V30 745 C 79.8213 0.308681 -3.37391 0
M  V30 746 C 78.3803 0.741286 -3.69028 0
M  V30 747 C 77.5273 -0.137937 -2.76957 0
M  V30 748 H 80.4783 -0.542335 -1.49146 0
M  V30 749 H 80.4993 1.13984 -3.63026 0
M  V30 750 H 80.0113 -0.674809 -3.82188 0
M  V30 751 H 78.1123 1.73458 -3.29762 0
M  V30 752 H 78.2253 0.546118 -4.75977 0
M  V30 753 H 76.5893 0.386251 -2.51754 0
M  V30 754 H 77.3723 -1.11816 -3.2458 0
M  V30 755 N 79.8174 1.5752 -0.0501392 0
M  V30 756 C 81.0574 1.94521 0.627783 0
M  V30 757 C 81.4214 0.928265 1.68069 0
M  V30 758 O 82.6224 1.18517 2.41261 0
M  V30 759 C 80.8934 3.36319 1.20932 0
M  V30 760 S 82.4524 3.95272 1.90539 0
M  V30 761 H 79.2704 0.680456 0.206158 0
M  V30 762 H 81.8724 1.95139 -0.118829 0
M  V30 763 H 80.5764 4.08132 0.430865 0
M  V30 764 H 80.1074 3.39193 1.99277 0
M  V30 765 H 82.1224 3.80415 3.18589 0
M  V30 766 N 81.2955 -0.223234 1.56011 0
M  V30 767 C 82.5415 -0.949279 1.79211 0
M  V30 768 C 82.8745 -1.84054 0.619494 0
M  V30 769 O 82.1495 -1.90726 -0.381317 0
M  V30 770 C 82.4325 -1.78965 3.12479 0
M  V30 771 C 82.2855 -0.924997 4.40186 0
M  V30 772 C 83.6045 -2.76774 3.42175 0
M  V30 773 H 80.7235 -0.343676 0.651963 0
M  V30 774 H 83.3655 -0.218253 1.88742 0
M  V30 775 H 81.5155 -2.41291 3.04485 0
M  V30 776 H 83.1875 -0.318615 4.60198 0
M  V30 777 H 81.4305 -0.230344 4.33188 0
M  V30 778 H 82.1015 -1.54735 5.29869 0
M  V30 779 H 84.5775 -2.24584 3.50287 0
M  V30 780 H 83.4535 -3.32678 4.36597 0
M  V30 781 H 83.7145 -3.54429 2.64258 0
M  V30 782 N 82.7736 -1.49793 -0.48987 0
M  V30 783 C 83.7366 -1.66752 -1.57246 0
M  V30 784 C 84.7366 -0.538867 -1.51502 0
M  V30 785 O 85.9266 -0.805545 -1.54456 0
M  V30 786 C 83.0586 -1.67528 -2.96896 0
M  V30 787 H 84.2516 -2.63321 -1.43534 0
M  V30 788 H 81.8046 -1.38992 -0.714914 0
M  V30 789 H 82.5396 -0.725837 -3.16073 0
M  V30 790 H 82.3246 -2.49504 -3.02473 0
M  V30 791 H 83.8146 -1.82667 -3.7553 0
M  V30 792 N 84.2517 0.741722 -1.39055 0
M  V30 793 C 85.1837 1.8657 -1.33133 0
M  V30 794 C 86.1967 1.61001 -0.241329 0
M  V30 795 O 87.3857 1.7136 -0.499784 0
M  V30 796 C 84.4857 3.22457 -1.04283 0
M  V30 797 C 83.6587 3.75435 -2.24427 0
M  V30 798 C 82.7177 4.89867 -1.92138 0
M  V30 799 O 81.7437 5.03879 -2.64754 0
M  V30 800 N 82.9457 5.73738 -0.88347 0
M  V30 801 H 85.7107 1.92156 -2.29991 0
M  V30 802 H 83.2717 0.922172 -1.3307 0
M  V30 803 H 85.2637 3.9657 -0.807128 0
M  V30 804 H 83.8337 3.12181 -0.161807 0
M  V30 805 H 83.0537 2.92751 -2.6399 0
M  V30 806 H 84.3417 4.07563 -3.04581 0
M  V30 807 H 83.7397 5.64999 -0.281517 0
M  V30 808 H 82.2967 6.47947 -0.707662 0
M  V30 809 N 85.7298 1.2412 0.971189 0
M  V30 810 C 86.6618 0.988349 2.06795 0
M  V30 811 C 87.6748 -0.0409541 1.62748 0
M  V30 812 O 88.8638 0.195673 1.77424 0
M  V30 813 C 85.9638 0.469023 3.35639 0
M  V30 814 C 85.1368 1.56065 4.08611 0
M  V30 815 C 84.1958 1.04458 5.15728 0
M  V30 816 O 83.2218 1.73553 5.42096 0
M  V30 817 N 84.4238 -0.122817 5.8037 0
M  V30 818 H 87.1888 1.93265 2.29061 0
M  V30 819 H 84.7498 1.15102 1.13856 0
M  V30 820 H 86.7418 0.108613 4.04554 0
M  V30 821 H 85.3118 -0.380919 3.1027 0
M  V30 822 H 84.5318 2.09341 3.34021 0
M  V30 823 H 85.8198 2.29449 4.54126 0
M  V30 824 H 85.2178 -0.700563 5.61345 0
M  V30 825 H 83.7748 -0.424404 6.50417 0
M  V30 826 N 87.2079 -1.17134 1.05439 0
M  V30 827 C 88.6189 -1.69084 0.791676 0
M  V30 828 C 88.9699 -1.83822 -0.685839 0
M  V30 829 O 88.0949 -1.52757 -1.53278 0
M  V30 830 C 88.6899 -3.07119 1.4305 0
M  V30 831 C 87.2489 -3.56225 1.21577 0
M  V30 832 C 86.3959 -2.32421 1.51247 0
M  V30 833 H 89.3469 -1.01617 1.219 0
M  V30 834 H 89.3679 -3.71087 0.84112 0
M  V30 835 H 88.8799 -2.9636 2.50584 0
M  V30 836 H 86.9809 -3.72257 0.159787 0
M  V30 837 H 87.0939 -4.38837 1.92246 0
M  V30 838 H 85.4579 -2.3701 0.932653 0
M  V30 839 H 86.2409 -2.24268 2.5992 0
M  V30 840 N 88.686 -0.835752 -1.33615 0
M  V30 841 C 89.933 -0.429959 -1.97883 0
M  V30 842 C 90.261 1.01006 -1.66217 0
M  V30 843 O 89.516 1.72047 -0.93265 0
M  V30 844 C 89.815 -0.593925 -3.52431 0
M  V30 845 C 89.481 -2.00158 -4.04039 0
M  V30 846 C 88.143 -2.38662 -4.17844 0
M  V30 847 C 90.495 -2.92117 -4.31644 0
M  V30 848 C 87.823 -3.68435 -4.56588 0
M  V30 849 C 90.175 -4.21368 -4.71838 0
M  V30 850 C 88.839 -4.59833 -4.83849 0
M  V30 851 H 88.109 -0.157333 -0.724104 0
M  V30 852 H 90.756 -1.06217 -1.59343 0
M  V30 853 H 89.061 0.121619 -3.91611 0
M  V30 854 H 90.758 -0.260282 -4.00154 0
M  V30 855 H 87.348 -1.69252 -3.93766 0
M  V30 856 H 91.532 -2.63608 -4.20505 0
M  V30 857 H 86.788 -3.98046 -4.64079 0
M  V30 858 H 90.962 -4.92703 -4.92155 0
M  V30 859 H 88.589 -5.60438 -5.13627 0
M  V30 860 N 90.1641 1.46063 -0.591896 0
M  V30 861 C 91.5751 1.85944 -0.167822 0
M  V30 862 C 91.9261 1.49429 1.27143 0
M  V30 863 O 91.0511 0.913515 1.96173 0
M  V30 864 C 91.6461 3.37489 -0.297794 0
M  V30 865 C 90.2051 3.76332 0.0714732 0
M  V30 866 C 89.3521 2.7006 -0.629509 0
M  V30 867 H 92.3031 1.37087 -0.799555 0
M  V30 868 H 92.3241 3.77532 0.474349 0
M  V30 869 H 91.8361 3.64034 -1.3454 0
M  V30 870 H 89.9371 3.55405 1.11886 0
M  V30 871 H 90.0501 4.78088 -0.311245 0
M  V30 872 H 88.4141 2.54607 -0.0687867 0
M  V30 873 H 89.1971 2.99444 -1.67894 0
M  V30 874 N 91.6422 0.330177 1.54103 0
M  V30 875 C 92.8672 -0.274893 2.0557 0
M  V30 876 C 93.2922 -1.44487 1.20437 0
M  V30 877 O 92.6502 -1.80021 0.214991 0
M  V30 878 C 92.6982 -0.68079 3.54115 0
M  V30 879 O 91.8022 -1.7824 3.71893 0
M  V30 880 H 91.1432 -0.0483849 0.662235 0
M  V30 881 H 93.6732 0.480508 1.98878 0
M  V30 882 H 93.6832 -0.961635 3.96505 0
M  V30 883 H 92.3582 0.174903 4.15532 0
M  V30 884 H 90.9352 -1.49985 3.41407 0
M  V30 885 N 93.1203 -1.57491 0.0584922 0
M  V30 886 C 94.0503 -2.14988 -0.911178 0
M  V30 887 C 95.0313 -1.07343 -1.31952 0
M  V30 888 O 96.2163 -1.35318 -1.39294 0
M  V30 889 C 93.3463 -2.70078 -2.18347 0
M  V30 890 C 92.3003 -3.82771 -1.91495 0
M  V30 891 C 91.6263 -4.24408 -3.25241 0
M  V30 892 C 92.9263 -5.07592 -1.23075 0
M  V30 893 H 94.6203 -2.96263 -0.432246 0
M  V30 894 H 92.1663 -1.42512 -0.206469 0
M  V30 895 H 94.1193 -3.08943 -2.86587 0
M  V30 896 H 92.8433 -1.86005 -2.68458 0
M  V30 897 H 91.5023 -3.44389 -1.25664 0
M  V30 898 H 91.1503 -3.37275 -3.73168 0
M  V30 899 H 90.8503 -5.00366 -3.08071 0
M  V30 900 H 92.3743 -4.65879 -3.94701 0
M  V30 901 H 93.7883 -5.43857 -1.81362 0
M  V30 902 H 92.1853 -5.88741 -1.16207 0
M  V30 903 H 93.2553 -4.84454 -0.207847 0
M  V30 904 N 94.5984 0.214957 -1.56127 0
M  V30 905 C 96.0094 0.781386 -1.69562 0
M  V30 906 C 96.3604 1.84707 -0.66165 0
M  V30 907 O 95.4854 2.156 0.185927 0
M  V30 908 C 96.0804 1.42411 -3.07416 0
M  V30 909 C 94.6394 1.93786 -3.22683 0
M  V30 910 C 93.7864 0.800438 -2.65496 0
M  V30 911 H 96.7374 -0.00980633 -1.58697 0
M  V30 912 H 96.7584 2.29309 -3.0364 0
M  V30 913 H 96.2704 0.64826 -3.82648 0
M  V30 914 H 94.3714 2.74152 -2.52332 0
M  V30 915 H 94.4844 2.1133 -4.29973 0
M  V30 916 H 92.8484 1.2095 -2.2415 0
M  V30 917 H 93.6314 0.0371471 -3.4328 0
M  V30 918 N 96.0765 1.50051 0.48192 0
M  V30 919 C 97.3015 1.64508 1.26301 0
M  V30 920 C 97.7265 0.323851 1.85291 0
M  V30 921 O 97.0845 -0.710969 1.66778 0
M  V30 922 C 97.1325 2.7305 2.35533 0
M  V30 923 O 96.2365 2.3355 3.39895 0
M  V30 924 H 95.5775 0.549978 0.372048 0
M  V30 925 H 98.1075 1.9636 0.574786 0
M  V30 926 H 98.1175 2.95799 2.8101 0
M  V30 927 H 96.7925 3.68946 1.91967 0
M  V30 928 H 95.3695 2.21205 3.00204 0
M  V30 929 N 97.5546 -0.734337 1.39446 0
M  V30 930 C 98.9656 -1.31264 1.32766 0
M  V30 931 C 99.3166 -1.96198 -0.00767497 0
M  V30 932 O 98.4416 -1.96346 -0.909796 0
M  V30 933 C 99.0366 -2.38682 2.4045 0
M  V30 934 C 97.5956 -2.92184 2.37288 0
M  V30 935 C 96.7426 -1.6576 2.22304 0
M  V30 936 H 99.6936 -0.531799 1.49525 0
M  V30 937 H 99.7146 -3.19087 2.07276 0
M  V30 938 H 99.2266 -1.91392 3.37625 0
M  V30 939 H 97.3276 -3.43752 1.43754 0
M  V30 940 H 97.4406 -3.45253 3.3217 0
M  V30 941 H 95.8046 -1.9012 1.69489 0
M  V30 942 H 96.5876 -1.20521 3.21449 0
M  V30 943 N 99.0327 -1.24633 -0.964593 0
M  V30 944 C 99.9627 -1.06611 -2.07741 0
M  V30 945 C 100.944 0.0218666 -1.70086 0
M  V30 946 O 102.129 -0.145793 -1.93652 0
M  V30 947 C 99.2587 -0.673444 -3.40708 0
M  V30 948 C 98.2127 -1.71054 -3.92332 0
M  V30 949 C 97.5387 -1.17285 -5.21678 0
M  V30 950 C 98.8387 -3.10718 -4.19824 0
M  V30 951 H 100.533 -1.99693 -2.23076 0
M  V30 952 H 98.0787 -0.96152 -1.07195 0
M  V30 953 H 100.032 -0.534345 -4.17998 0
M  V30 954 H 98.7557 0.293073 -3.25282 0
M  V30 955 H 97.4147 -1.83791 -3.17201 0
M  V30 956 H 97.0627 -0.196847 -5.02615 0
M  V30 957 H 96.7627 -1.86592 -5.57187 0
M  V30 958 H 98.2867 -1.04593 -6.01575 0
M  V30 959 H 99.7007 -3.01192 -4.87808 0
M  V30 960 H 98.0977 -3.77406 -4.66567 0
M  V30 961 H 99.1677 -3.58524 -3.26479 0
M  V30 962 N 100.511 1.16574 -1.06058 0
M  V30 963 C 101.922 1.68662 -0.800632 0
M  V30 964 C 102.273 1.84184 0.67608 0
M  V30 965 O 101.398 1.53568 1.52466 0
M  V30 966 C 101.993 3.06356 -1.44676 0
M  V30 967 C 100.552 3.55575 -1.23465 0
M  V30 968 C 99.6988 2.31616 -1.52477 0
M  V30 969 H 102.65 1.00969 -1.22438 0
M  V30 970 H 102.671 3.70636 -0.860788 0
M  V30 971 H 102.183 2.95027 -2.52152 0
M  V30 972 H 100.284 3.72167 -0.179527 0
M  V30 973 H 100.397 4.37812 -1.94571 0
M  V30 974 H 98.7608 2.36512 -0.945209 0
M  V30 975 H 99.5438 2.22887 -2.61106 0
M  V30 976 N 101.989 0.842826 1.3317 0
M  V30 977 C 102.919 0.294028 2.31641 0
M  V30 978 C 103.9 -0.600401 1.59151 0
M  V30 979 O 105.085 -0.523124 1.87022 0
M  V30 980 C 102.215 -0.528416 3.43257 0
M  V30 981 C 101.169 0.27056 4.27144 0
M  V30 982 C 100.495 -0.675881 5.30411 0
M  V30 983 C 101.795 1.48981 5.00602 0
M  V30 984 H 103.489 1.11681 2.77791 0
M  V30 985 H 101.035 0.538478 1.33553 0
M  V30 986 H 102.988 -0.922674 4.11175 0
M  V30 987 H 101.712 -1.38445 2.95805 0
M  V30 988 H 100.371 0.646427 3.60856 0
M  V30 989 H 100.019 -1.52842 4.79216 0
M  V30 990 H 99.7189 -0.145374 5.8742 0
M  V30 991 H 101.243 -1.06757 6.01195 0
M  V30 992 H 102.657 1.16849 5.61266 0
M  V30 993 H 101.054 1.95739 5.6728 0
M  V30 994 H 102.124 2.25746 4.29147 0
M  V30 995 N 103.467 -1.45747 0.599634 0
M  V30 996 C 104.399 -2.28628 -0.161879 0
M  V30 997 C 105.412 -1.39494 -0.839367 0
M  V30 998 O 106.601 -1.63941 -0.706089 0
M  V30 999 C 103.701 -3.15014 -1.24976 0
M  V30 1000 C 102.874 -4.32378 -0.660935 0
M  V30 1001 C 101.933 -5.00033 -1.63869 0
M  V30 1002 O 100.959 -5.57085 -1.1681 0
M  V30 1003 N 102.161 -4.98589 -2.97303 0
M  V30 1004 H 104.926 -2.94624 0.549265 0
M  V30 1005 H 102.487 -1.55847 0.438565 0
M  V30 1006 H 104.479 -3.5714 -1.9035 0
M  V30 1007 H 103.049 -2.5098 -1.86354 0
M  V30 1008 H 102.269 -3.9383 0.170688 0
M  V30 1009 H 103.557 -5.08197 -0.247619 0
M  V30 1010 H 102.955 -4.53514 -3.38145 0
M  V30 1011 H 101.512 -5.44603 -3.58121 0
M  V30 1012 N 104.945 -0.338344 -1.53925 0
M  V30 1013 C 106.193 0.259245 -2.0043 0
M  V30 1014 C 106.514 1.51484 -1.22791 0
M  V30 1015 O 105.784 1.93037 -0.33368 0
M  V30 1016 H 104.364 0.0987845 -0.740439 0
M  V30 1017 H 107.026 -0.458302 -1.89435 0
M  V30 1018 H 106.122 0.505334 -3.07982 0
M  V30 1019 N 106.423 1.57458 -0.0668435 0
M  V30 1020 C 107.651 1.97624 0.612565 0
M  V30 1021 C 108.066 0.94502 1.63447 0
M  V30 1022 O 107.423 -0.0689276 1.8237 0
M  V30 1023 C 107.474 3.37869 1.28555 0
M  V30 1024 O 107.195 4.3704 0.304557 0
M  V30 1025 C 108.696 3.92882 2.05325 0
M  V30 1026 H 105.916 0.650045 0.166381 0
M  V30 1027 H 108.46 2.04035 -0.137782 0
M  V30 1028 H 106.615 3.3256 1.98702 0
M  V30 1029 H 107.029 5.18565 0.786779 0
M  V30 1030 H 108.503 4.93247 2.47812 0
M  V30 1031 H 108.98 3.29156 2.9078 0
M  V30 1032 H 109.586 4.01577 1.40056 0
M  V30 1033 N 107.901 -0.206675 1.56239 0
M  V30 1034 C 108.831 -1.25909 1.96645 0
M  V30 1035 C 109.812 -1.48097 0.836734 0
M  V30 1036 O 110.997 -1.6003 1.10019 0
M  V30 1037 C 108.127 -2.6058 2.29599 0
M  V30 1038 C 107.081 -2.53024 3.452 0
M  V30 1039 C 106.407 -3.91861 3.63798 0
M  V30 1040 C 107.707 -2.06524 4.79734 0
M  V30 1041 H 109.401 -0.923369 2.84806 0
M  V30 1042 H 106.947 -0.442735 1.37025 0
M  V30 1043 H 108.9 -3.34375 2.56459 0
M  V30 1044 H 107.624 -2.95869 1.38307 0
M  V30 1045 H 106.283 -1.81684 3.18412 0
M  V30 1046 H 105.931 -4.24483 2.69857 0
M  V30 1047 H 105.631 -3.87683 4.4156 0
M  V30 1048 H 107.155 -4.67296 3.93022 0
M  V30 1049 H 108.569 -2.70072 5.05702 0
M  V30 1050 H 106.966 -2.13374 5.60885 0
M  V30 1051 H 108.036 -1.01802 4.74093 0
M  V30 1052 N 109.379 -1.50304 -0.473955 0
M  V30 1053 C 110.329 -1.65347 -1.56985 0
M  V30 1054 C 111.313 -0.508176 -1.52664 0
M  V30 1055 O 112.505 -0.762446 -1.59737 0
M  V30 1056 C 109.634 -1.74832 -2.95447 0
M  V30 1057 C 108.72 -2.95028 -3.04662 0
M  V30 1058 N 109.111 -4.18747 -2.83698 0
M  V30 1059 C 107.409 -2.93527 -3.35795 0
M  V30 1060 C 108.11 -4.99687 -2.97805 0
M  V30 1061 N 107.086 -4.33585 -3.2788 0
M  V30 1062 H 110.888 -2.58698 -1.39472 0
M  V30 1063 H 108.402 -1.47449 -0.680629 0
M  V30 1064 H 110.399 -1.83712 -3.7424 0
M  V30 1065 H 109.059 -0.826376 -3.14008 0
M  V30 1066 H 110.07 -4.48291 -2.59337 0
M  V30 1067 H 106.747 -2.10821 -3.60362 0
M  V30 1068 H 108.137 -6.08057 -2.85861 0
M  V30 1069 N 110.857 0.726932 -1.39834 0
M  V30 1070 C 112.082 1.52121 -1.40976 0
M  V30 1071 C 112.507 1.88098 -0.00826029 0
M  V30 1072 O 111.865 1.52479 0.980807 0
M  V30 1073 C 111.913 2.78021 -2.29644 0
M  V30 1074 O 111.017 3.74272 -1.73188 0
M  V30 1075 H 110.358 0.45908 -0.479731 0
M  V30 1076 H 112.888 0.896207 -1.83927 0
M  V30 1077 H 112.898 3.26671 -2.44438 0
M  V30 1078 H 111.573 2.51169 -3.31492 0
M  V30 1079 H 110.15 3.33073 -1.6768 0
M  V30 1080 N 112.336 1.25143 0.95797 0
M  V30 1081 C 113.561 1.12521 1.74223 0
M  V30 1082 C 113.986 -0.317402 1.85403 0
M  V30 1083 O 113.344 -1.2299 1.33204 0
M  V30 1084 C 113.392 1.78062 3.1357 0
M  V30 1085 O 112.496 1.058 3.98598 0
M  V30 1086 H 111.837 0.39304 0.535178 0
M  V30 1087 H 114.367 1.65641 1.201 0
M  V30 1088 H 114.377 1.84213 3.64046 0
M  V30 1089 H 113.052 2.83021 3.04749 0
M  V30 1090 H 111.629 1.07506 3.57067 0
M  V30 1091 N 113.814 -1.1601 1.06675 0
M  V30 1092 C 115.225 -1.68235 0.809565 0
M  V30 1093 C 115.576 -1.8454 -0.666303 0
M  V30 1094 O 114.701 -1.54374 -1.5165 0
M  V30 1095 C 115.296 -3.05585 1.46299 0
M  V30 1096 C 113.855 -3.54915 1.25349 0
M  V30 1097 C 113.002 -2.30804 1.53703 0
M  V30 1098 H 115.953 -1.00318 1.22971 0
M  V30 1099 H 115.974 -3.70174 0.880431 0
M  V30 1100 H 115.486 -2.93686 2.53713 0
M  V30 1101 H 113.587 -3.72067 0.199261 0
M  V30 1102 H 113.7 -4.36774 1.9689 0
M  V30 1103 H 112.064 -2.36007 0.957739 0
M  V30 1104 H 112.847 -2.21499 2.62284 0
M  V30 1105 N 115.292 -0.849877 -1.32721 0
M  V30 1106 C 116.703 -0.506188 -1.79707 0
M  V30 1107 C 117.054 0.975627 -1.70223 0
M  V30 1108 O 116.179 1.76078 -1.25799 0
M  V30 1109 C 116.774 -0.912044 -3.26293 0
M  V30 1110 C 115.333 -0.620326 -3.71253 0
M  V30 1111 C 114.48 -1.11439 -2.53922 0
M  V30 1112 H 117.431 -1.03754 -1.20087 0
M  V30 1113 H 117.452 -0.226493 -3.79825 0
M  V30 1114 H 116.964 -1.99057 -3.33164 0
M  V30 1115 H 115.065 0.447674 -3.69901 0
M  V30 1116 H 115.178 -1.18327 -4.64258 0
M  V30 1117 H 113.542 -0.534834 -2.49021 0
M  V30 1118 H 114.325 -2.19992 -2.6355 0
M  V30 1119 N 116.77 1.45427 -0.607355 0
M  V30 1120 C 118.018 2.01841 -0.102253 0
M  V30 1121 C 118.339 1.47832 1.27164 0
M  V30 1122 O 117.609 0.672497 1.83995 0
M  V30 1123 H 116.189 0.746188 -0.0348101 0
M  V30 1124 H 118.851 1.78229 -0.7887 0
M  V30 1125 H 117.947 3.12057 -0.0518585 0
M  V30 1126 N 118.248 0.346503 1.53744 0
M  V30 1127 C 119.211 -0.496439 2.23759 0
M  V30 1128 C 120.211 -1.0252 1.2388 0
M  V30 1129 O 121.401 -0.913974 1.48297 0
M  V30 1130 C 118.533 -1.69187 2.95954 0
M  V30 1131 H 119.726 0.115952 2.99676 0
M  V30 1132 H 117.279 0.0978939 1.55993 0
M  V30 1133 H 118.014 -2.34288 2.24231 0
M  V30 1134 H 117.799 -1.31989 3.69217 0
M  V30 1135 H 119.289 -2.28969 3.49232 0
M  V30 1136 N 119.726 -1.57421 0.075193 0
M  V30 1137 C 120.954 -1.97946 -0.602076 0
M  V30 1138 C 121.369 -0.953674 -1.62943 0
M  V30 1139 O 120.726 0.0592551 -1.82404 0
M  V30 1140 C 120.777 -3.38546 -1.26762 0
M  V30 1141 O 120.498 -4.37195 -0.281376 0
M  V30 1142 C 121.999 -3.93966 -2.03239 0
M  V30 1143 H 119.219 -0.650918 -0.162931 0
M  V30 1144 H 121.763 -2.03959 0.148601 0
M  V30 1145 H 119.918 -3.33609 -1.96936 0
M  V30 1146 H 120.332 -5.18975 -0.759267 0
M  V30 1147 H 121.806 -4.94555 -2.45193 0
M  V30 1148 H 122.283 -3.30693 -2.8903 0
M  V30 1149 H 122.889 -4.02315 -1.37924 0
M  V30 1150 N 121.204 0.198386 -1.56346 0
M  V30 1151 C 122.452 0.91747 -1.80075 0
M  V30 1152 C 122.773 1.83929 -0.647692 0
M  V30 1153 O 122.043 1.93029 0.334166 0
M  V30 1154 H 120.623 0.341774 -0.664228 0
M  V30 1155 H 123.285 0.204684 -1.93822 0
M  V30 1156 H 122.381 1.51055 -2.7311 0
M  V30 1157 N 122.682 1.50554 0.465978 0
M  V30 1158 C 124.098 1.38093 0.800154 0
M  V30 1159 C 124.298 0.440988 1.96615 0
M  V30 1160 O 123.354 -0.114499 2.5224 0
M  V30 1161 C 124.667 2.79565 1.10742 0
M  V30 1162 C 126.215 2.88516 1.21357 0
M  V30 1163 C 126.69 4.30833 1.55393 0
M  V30 1164 N 128.181 4.33807 1.62375 0
M  V30 1165 C 128.916 5.40927 1.90225 0
M  V30 1166 N 128.412 6.58247 2.16062 0
M  V30 1167 N 130.205 5.28376 1.9177 0
M  V30 1168 H 122.356 2.10237 -0.302366 0
M  V30 1169 H 124.619 0.945203 -0.0727746 0
M  V30 1170 H 124.325 3.50208 0.323661 0
M  V30 1171 H 124.199 3.17125 2.04234 0
M  V30 1172 H 126.586 2.1809 1.98799 0
M  V30 1173 H 126.667 2.54492 0.258321 0
M  V30 1174 H 126.311 5.01799 0.784889 0
M  V30 1175 H 126.241 4.62347 2.52076 0
M  V30 1176 H 128.732 3.49212 1.44427 0
M  V30 1177 H 129.045 7.3569 2.36601 0
M  V30 1178 H 127.39 6.61413 2.13444 0
M  V30 1179 H 130.581 4.35715 1.71085 0
M  V30 1180 H 130.754 6.11944 2.13139 0
M  V30 1181 N 124.16 -0.719506 1.40217 0
M  V30 1182 C 125.571 -1.29848 1.34151 0
M  V30 1183 C 125.922 -1.96196 0.0131349 0
M  V30 1184 O 125.047 -1.973 -0.88892 0
M  V30 1185 C 125.642 -2.36118 2.42968 0
M  V30 1186 C 124.201 -2.8965 2.40374 0
M  V30 1187 C 123.348 -1.63393 2.24049 0
M  V30 1188 H 126.299 -0.51591 1.5008 0
M  V30 1189 H 126.32 -3.16871 2.10649 0
M  V30 1190 H 125.832 -1.878 3.39636 0
M  V30 1191 H 123.933 -3.42208 1.47392 0
M  V30 1192 H 124.046 -3.4171 3.35814 0
M  V30 1193 H 122.41 -1.88312 1.71495 0
M  V30 1194 H 123.193 -1.17104 3.2271 0
M  V30 1195 N 125.638 -1.25649 -0.95132 0
M  V30 1196 C 127.049 -1.09654 -1.51106 0
M  V30 1197 C 127.4 0.326615 -1.93462 0
M  V30 1198 O 126.525 1.21697 -1.78938 0
M  V30 1199 C 127.12 -1.98437 -2.74605 0
M  V30 1200 C 125.679 -1.86618 -3.2688 0
M  V30 1201 C 124.826 -1.9239 -1.99703 0
M  V30 1202 H 127.777 -1.38887 -0.767865 0
M  V30 1203 H 127.798 -1.5263 -3.48546 0
M  V30 1204 H 127.31 -3.02009 -2.43746 0
M  V30 1205 H 125.411 -0.859421 -3.62553 0
M  V30 1206 H 125.524 -2.71607 -3.94673 0
M  V30 1207 H 123.888 -1.36317 -2.15151 0
M  V30 1208 H 124.671 -2.97573 -1.71188 0
M  V30 1209 N 127.117 1.15442 -1.07289 0
M  V30 1210 C 128.047 2.22312 -0.714107 0
M  V30 1211 C 129.028 1.67467 0.298155 0
M  V30 1212 O 130.213 1.93445 0.171048 0
M  V30 1213 C 127.343 3.47124 -0.110448 0
M  V30 1214 C 126.297 4.14926 -1.04979 0
M  V30 1215 C 125.623 5.33807 -0.308924 0
M  V30 1216 C 126.923 4.64762 -2.38314 0
M  V30 1217 H 128.617 2.5258 -1.6076 0
M  V30 1218 H 126.163 1.21404 -0.77441 0
M  V30 1219 H 128.116 4.21124 0.152482 0
M  V30 1220 H 126.84 3.16187 0.81812 0
M  V30 1221 H 125.499 3.42866 -1.29764 0
M  V30 1222 H 125.147 4.99126 0.623084 0
M  V30 1223 H 124.847 5.80113 -0.935036 0
M  V30 1224 H 126.371 6.10576 -0.0537771 0
M  V30 1225 H 127.785 5.30292 -2.1786 0
M  V30 1226 H 126.182 5.21728 -2.96514 0
M  V30 1227 H 127.252 3.80434 -3.00663 0
M  V30 1228 N 128.595 0.856903 1.32268 0
M  V30 1229 C 129.835 0.467705 1.98977 0
M  V30 1230 C 130.199 -0.959231 1.66321 0
M  V30 1231 O 131.4 -1.4531 2.26138 0
M  V30 1232 C 129.671 0.70256 3.50427 0
M  V30 1233 S 131.23 0.411269 4.36868 0
M  V30 1234 H 128.048 0.175121 0.689096 0
M  V30 1235 H 130.65 1.1101 1.60925 0
M  V30 1236 H 129.354 1.74012 3.71683 0
M  V30 1237 H 128.885 0.0466707 3.93372 0
M  V30 1238 H 130.9 -0.761799 4.90317 0
M  V30 1239 N 130.073 -1.45103 0.615059 0
M  V30 1240 C 131.003 -2.33339 -0.0865619 0
M  V30 1241 C 131.984 -1.4727 -0.851209 0
M  V30 1242 O 133.169 -1.76026 -0.820281 0
M  V30 1243 C 130.299 -3.30095 -1.07956 0
M  V30 1244 C 129.253 -4.25858 -0.427628 0
M  V30 1245 C 128.579 -5.12361 -1.5294 0
M  V30 1246 C 129.879 -5.18165 0.655944 0
M  V30 1247 H 131.573 -2.92254 0.650224 0
M  V30 1248 H 129.119 -1.40532 0.314138 0
M  V30 1249 H 131.072 -3.90698 -1.57901 0
M  V30 1250 H 129.796 -2.69355 -1.84703 0
M  V30 1251 H 128.455 -3.66564 0.0510292 0
M  V30 1252 H 128.103 -4.47984 -2.28734 0
M  V30 1253 H 127.803 -5.77238 -1.09865 0
M  V30 1254 H 129.327 -5.75833 -2.03098 0
M  V30 1255 H 130.741 -5.72796 0.240257 0
M  V30 1256 H 129.138 -5.91559 1.00888 0
M  V30 1257 H 130.208 -4.60144 1.52957 0
M  V30 1258 N 131.551 -0.354651 -1.53558 0
M  V30 1259 C 132.776 0.242153 -2.05981 0
M  V30 1260 C 133.201 1.42553 -1.2272 0
M  V30 1261 O 132.559 1.79656 -0.243604 0
M  V30 1262 C 132.607 0.624367 -3.55154 0
M  V30 1263 O 131.711 1.72301 -3.74681 0
M  V30 1264 H 131.052 0.0378432 -0.662921 0
M  V30 1265 H 133.582 -0.512087 -1.98088 0
M  V30 1266 H 133.592 0.898433 -3.97985 0
M  V30 1267 H 132.267 -0.240989 -4.15201 0
M  V30 1268 H 130.844 1.44535 -3.4375 0
M  V30 1269 N 133.029 1.57378 -0.0835403 0
M  V30 1270 C 133.939 2.16897 0.894021 0
M  V30 1271 C 134.955 1.13528 1.31861 0
M  V30 1272 O 136.131 1.45848 1.3889 0
M  V30 1273 C 133.196 2.72831 2.13925 0
M  V30 1274 C 132.257 3.91115 1.76997 0
M  V30 1275 C 131.49 4.44371 2.95584 0
M  V30 1276 O 131.713 3.96596 4.09961 0
M  V30 1277 O 130.647 5.35549 2.74719 0
M  V30 1278 H 134.473 3.00814 0.417679 0
M  V30 1279 H 132.058 1.48741 0.140181 0
M  V30 1280 H 133.94 3.0863 2.86924 0
M  V30 1281 H 132.615 1.91967 2.60635 0
M  V30 1282 H 131.522 3.60148 1.01214 0
M  V30 1283 H 132.855 4.73307 1.3506 0
M  V30 1284 N 134.507 -0.190092 1.56449 0
M  V30 1285 C 135.918 -0.754312 1.70784 0
M  V30 1286 C 136.269 -1.83631 0.690951 0
M  V30 1287 O 135.394 -2.15868 -0.151604 0
M  V30 1288 C 135.989 -1.37503 3.09642 0
M  V30 1289 C 134.548 -1.88628 3.25725 0
M  V30 1290 C 133.695 -0.758098 2.66736 0
M  V30 1291 H 136.646 0.0350524 1.58661 0
M  V30 1292 H 136.667 -2.2445 3.0725 0
M  V30 1293 H 136.179 -0.587302 3.83631 0
M  V30 1294 H 134.28 -2.70103 2.56661 0
M  V30 1295 H 134.393 -2.04462 4.3328 0
M  V30 1296 H 132.757 -1.17369 2.26046 0
M  V30 1297 H 133.54 0.0174705 3.43296 0
M  V30 1298 N 135.985 -1.50799 -0.457987 0
M  V30 1299 C 137.21 -1.66496 -1.23668 0
M  V30 1300 C 137.635 -0.353288 -1.84752 0
M  V30 1301 O 136.993 0.684346 -1.67888 0
M  V30 1302 C 137.041 -2.76763 -2.3116 0
M  V30 1303 O 136.145 -2.38928 -3.36136 0
M  V30 1304 H 135.486 -0.555828 -0.363252 0
M  V30 1305 H 138.016 -1.9725 -0.543474 0
M  V30 1306 H 138.026 -3.00232 -2.76269 0
M  V30 1307 H 136.701 -3.71954 -1.86073 0
M  V30 1308 H 135.278 -2.25953 -2.96647 0
M  V30 1309 N 137.463 0.71206 -1.40597 0
M  V30 1310 C 138.688 1.50617 -1.42581 0
M  V30 1311 C 139.113 1.88079 -0.0282102 0
M  V30 1312 O 138.471 1.53511 0.964579 0
M  V30 1313 C 138.519 2.7557 -2.3258 0
M  V30 1314 O 137.623 3.72414 -1.77148 0
M  V30 1315 H 136.964 0.453966 -0.484573 0
M  V30 1316 H 139.494 0.876649 -1.84868 0
M  V30 1317 H 139.504 3.2406 -2.47889 0
M  V30 1318 H 138.179 2.47639 -3.34138 0
M  V30 1319 H 136.756 3.31276 -1.71204 0
M  V30 1320 N 138.941 1.26152 0.944643 0
M  V30 1321 C 140.187 1.11657 1.69294 0
M  V30 1322 C 140.52 -0.339926 1.91202 0
M  V30 1323 O 139.795 -1.24994 1.49019 0
M  V30 1324 C 140.078 1.88236 3.06984 0
M  V30 1325 C 139.931 3.41772 2.92424 0
M  V30 1326 C 141.25 1.67343 4.07043 0
M  V30 1327 H 138.369 0.407004 0.614424 0
M  V30 1328 H 141.011 1.55106 1.09737 0
M  V30 1329 H 139.161 1.51308 3.57824 0
M  V30 1330 H 140.833 3.88433 2.48832 0
M  V30 1331 H 139.076 3.68974 2.28124 0
M  V30 1332 H 139.747 3.90579 3.90067 0
M  V30 1333 H 142.223 1.99509 3.65151 0
M  V30 1334 H 141.099 2.23346 5.01406 0
M  V30 1335 H 141.36 0.617158 4.37771 0
M  V30 1336 N 140.419 -1.14872 1.07899 0
M  V30 1337 C 141.644 -1.90202 0.826926 0
M  V30 1338 C 142.069 -1.77774 -0.614664 0
M  V30 1339 O 141.427 -1.11431 -1.43013 0
M  V30 1340 C 141.475 -3.38352 1.24702 0
M  V30 1341 O 140.579 -4.10497 0.39575 0
M  V30 1342 H 139.92 -0.591968 0.300782 0
M  V30 1343 H 142.45 -1.45437 1.43907 0
M  V30 1344 H 142.46 -3.89156 1.22563 0
M  V30 1345 H 141.135 -3.46715 2.29698 0
M  V30 1346 H 139.712 -3.69796 0.480117 0
M  V30 1347 N 141.898 -0.863906 -1.31812 0
M  V30 1348 C 143.309 -0.52522 -1.7916 0
M  V30 1349 C 143.66 0.957518 -1.71248 0
M  V30 1350 O 142.785 1.74734 -1.27659 0
M  V30 1351 C 143.38 -0.9466 -3.25307 0
M  V30 1352 C 141.939 -0.659668 -3.70574 0
M  V30 1353 C 141.086 -1.14126 -2.52726 0
M  V30 1354 H 144.037 -1.05022 -1.1898 0
M  V30 1355 H 144.058 -0.266766 -3.79564 0
M  V30 1356 H 143.57 -2.02579 -3.31034 0
M  V30 1357 H 141.671 0.408416 -3.70355 0
M  V30 1358 H 141.784 -1.23245 -4.62977 0
M  V30 1359 H 140.148 -0.561216 -2.4844 0
M  V30 1360 H 140.931 -2.22775 -2.61201 0
M  V30 1361 N 143.376 1.44774 -0.622745 0
M  V30 1362 C 144.792 1.56986 -0.287652 0
M  V30 1363 C 144.992 1.61167 1.20944 0
M  V30 1364 O 144.048 1.55015 1.99315 0
M  V30 1365 C 145.361 2.84551 -0.972188 0
M  V30 1366 C 146.909 2.9825 -0.949536 0
M  V30 1367 C 147.384 4.28605 -1.61437 0
M  V30 1368 N 148.875 4.35399 -1.58057 0
M  V30 1369 C 149.61 5.34964 -2.064 0
M  V30 1370 N 149.106 6.40981 -2.62897 0
M  V30 1371 N 150.899 5.26419 -1.97078 0
M  V30 1372 H 143.05 1.40304 -1.59463 0
M  V30 1373 H 145.313 0.671794 -0.668878 0
M  V30 1374 H 145.019 2.87417 -2.02693 0
M  V30 1375 H 144.893 3.73807 -0.504771 0
M  V30 1376 H 147.28 2.94941 0.0967067 0
M  V30 1377 H 147.361 2.10364 -1.45536 0
M  V30 1378 H 147.005 4.32672 -2.66002 0
M  V30 1379 H 146.935 5.15334 -1.08344 0
M  V30 1380 H 149.426 3.59397 -1.16801 0
M  V30 1381 H 149.739 7.13225 -2.97539 0
M  V30 1382 H 148.084 6.4169 -2.66943 0
M  V30 1383 H 151.275 4.42504 -1.52669 0
M  V30 1384 H 151.448 6.03861 -2.35066 0
M  V30 1385 N 144.854 0.36279 1.53368 0
M  V30 1386 C 146.265 -0.117022 1.86333 0
M  V30 1387 C 146.616 -1.48397 1.28347 0
M  V30 1388 O 145.741 -2.07787 0.604428 0
M  V30 1389 C 146.336 -0.21912 3.38091 0
M  V30 1390 C 144.895 -0.643184 3.70864 0
M  V30 1391 C 144.042 0.211318 2.76494 0
M  V30 1392 H 146.993 0.581687 1.47655 0
M  V30 1393 H 147.014 -1.04319 3.6592 0
M  V30 1394 H 146.526 0.775902 3.80265 0
M  V30 1395 H 144.627 -1.64654 3.34245 0
M  V30 1396 H 144.74 -0.41973 4.77258 0
M  V30 1397 H 143.104 -0.319367 2.5269 0
M  V30 1398 H 143.887 1.20383 3.21501 0
M  V30 1399 N 146.332 -1.57332 0.0918853 0
M  V30 1400 C 147.748 -1.57389 -0.264766 0
M  V30 1401 C 147.948 -1.10281 -1.68643 0
M  V30 1402 O 147.004 -0.777801 -2.40222 0
M  V30 1403 C 148.317 -3.00648 -0.0561195 0
M  V30 1404 C 149.865 -3.12754 -0.124116 0
M  V30 1405 C 150.34 -4.57965 0.0564972 0
M  V30 1406 N 151.831 -4.632 0.00155611 0
M  V30 1407 C 152.566 -5.73281 0.116598 0
M  V30 1408 N 152.062 -6.92208 0.286294 0
M  V30 1409 N 153.855 -5.6207 0.0580973 0
M  V30 1410 H 146.006 -1.86262 1.02079 0
M  V30 1411 H 148.269 -0.859579 0.399786 0
M  V30 1412 H 147.975 -3.393 0.925669 0
M  V30 1413 H 147.849 -3.68623 -0.799823 0
M  V30 1414 H 150.236 -2.73976 -1.09641 0
M  V30 1415 H 150.317 -2.47377 0.651024 0
M  V30 1416 H 149.961 -4.97436 1.02564 0
M  V30 1417 H 149.891 -5.21399 -0.738297 0
M  V30 1418 H 152.382 -3.77686 -0.127192 0
M  V30 1419 H 152.695 -7.71934 0.365676 0
M  V30 1420 H 151.04 -6.94254 0.32192 0
M  V30 1421 H 154.231 -4.68043 -0.0733204 0
M  V30 1422 H 154.404 -6.47824 0.151203 0
M  V30 1423 N 147.81 0.181792 -1.56548 0
M  V30 1424 C 149.05 0.906711 -1.83189 0
M  V30 1425 C 149.414 1.79882 -0.671312 0
M  V30 1426 O 150.615 2.56054 -0.81792 0
M  V30 1427 C 148.886 1.69023 -3.14906 0
M  V30 1428 S 150.445 2.46535 -3.62996 0
M  V30 1429 H 147.263 0.303877 -0.642791 0
M  V30 1430 H 149.865 0.169107 -1.94767 0
M  V30 1431 H 148.569 1.02571 -3.97376 0
M  V30 1432 H 148.1 2.46941 -3.06241 0
M  V30 1433 H 150.115 3.71014 -3.29489 0
M  V30 1434 N 149.288 1.51039 0.449983 0
M  V30 1435 C 150.535 1.63081 1.20045 0
M  V30 1436 C 150.863 0.341024 1.91487 0
M  V30 1437 O 150.118 -0.674276 1.83717 0
M  V30 1438 C 150.417 2.77556 2.25161 0
M  V30 1439 C 150.083 4.17289 1.70823 0
M  V30 1440 C 148.745 4.55305 1.55725 0
M  V30 1441 C 151.097 5.04536 1.3074 0
M  V30 1442 C 148.425 5.78287 0.989999 0
M  V30 1443 C 150.777 6.28085 0.754482 0
M  V30 1444 C 149.441 6.64885 0.590308 0
M  V30 1445 H 148.711 0.596755 0.439277 0
M  V30 1446 H 151.358 1.85037 0.49333 0
M  V30 1447 H 149.663 2.49771 3.01863 0
M  V30 1448 H 151.36 2.84073 2.83026 0
M  V30 1449 H 147.95 3.8731 1.83546 0
M  V30 1450 H 152.134 4.75782 1.41229 0
M  V30 1451 H 147.39 6.05456 0.850451 0
M  V30 1452 H 151.564 6.95038 0.435324 0
M  V30 1453 H 149.191 7.60055 0.14862 0
M  V30 1454 N 150.766 -0.704594 1.40972 0
M  V30 1455 C 151.696 -1.83124 1.44872 0
M  V30 1456 C 152.677 -1.67281 0.30838 0
M  V30 1457 O 153.862 -1.87149 0.518556 0
M  V30 1458 C 150.992 -3.21181 1.32136 0
M  V30 1459 C 149.946 -3.51714 2.43888 0
M  V30 1460 C 149.272 -4.89032 2.16222 0
M  V30 1461 C 150.572 -3.516 3.86232 0
M  V30 1462 H 152.266 -1.80117 2.39161 0
M  V30 1463 H 149.812 -0.865145 1.15114 0
M  V30 1464 H 151.765 -3.99702 1.33479 0
M  V30 1465 H 150.489 -3.24791 0.343279 0
M  V30 1466 H 149.148 -2.75539 2.41813 0
M  V30 1467 H 148.796 -4.89256 1.16778 0
M  V30 1468 H 148.496 -5.10426 2.911 0
M  V30 1469 H 150.02 -5.69873 2.19265 0
M  V30 1470 H 151.434 -4.2014 3.9007 0
M  V30 1471 H 149.831 -3.84523 4.60719 0
M  V30 1472 H 150.901 -2.50757 4.15029 0
M  V30 1473 N 152.244 -1.26651 -0.937939 0
M  V30 1474 C 153.174 -1.10993 -2.05433 0
M  V30 1475 C 154.155 -0.0142161 -1.70094 0
M  V30 1476 O 155.34 -0.186837 -1.93299 0
M  V30 1477 C 152.47 -0.745561 -3.39203 0
M  V30 1478 C 151.424 -1.79337 -3.88616 0
M  V30 1479 C 150.75 -1.28324 -5.19073 0
M  V30 1480 C 152.05 -3.19553 -4.13138 0
M  V30 1481 H 153.744 -2.0438 -2.1879 0
M  V30 1482 H 151.29 -0.984041 -1.05131 0
M  V30 1483 H 153.243 -0.622888 -4.16771 0
M  V30 1484 H 151.967 0.22401 -3.25831 0
M  V30 1485 H 150.626 -1.90477 -3.13231 0
M  V30 1486 H 150.274 -0.303414 -5.02084 0
M  V30 1487 H 149.974 -1.98369 -5.53103 0
M  V30 1488 H 151.498 -1.1733 -5.99221 0
M  V30 1489 H 152.912 -3.11471 -4.81309 0
M  V30 1490 H 151.309 -3.87218 -4.58457 0
M  V30 1491 H 152.379 -3.65368 -3.18801 0
M  V30 1492 N 153.722 1.14298 -1.08507 0
M  V30 1493 C 155.133 1.66926 -0.836227 0
M  V30 1494 C 155.484 1.85576 0.63686 0
M  V30 1495 O 154.609 1.56767 1.49175 0
M  V30 1496 C 155.204 3.03219 -1.51142 0
M  V30 1497 C 153.763 3.52876 -1.30979 0
M  V30 1498 C 152.91 2.2833 -1.57356 0
M  V30 1499 H 155.861 0.983491 -1.24552 0
M  V30 1500 H 155.882 3.68726 -0.939211 0
M  V30 1501 H 155.394 2.89612 -2.58353 0
M  V30 1502 H 153.495 3.71703 -0.258429 0
M  V30 1503 H 153.608 4.33586 -2.03814 0
M  V30 1504 H 151.972 2.34454 -0.995164 0
M  V30 1505 H 152.755 2.17298 -2.65775 0
M  V30 1506 N 155.201 0.870884 1.31352 0
M  V30 1507 C 156.447 0.492314 1.97352 0
M  V30 1508 C 156.802 -0.945174 1.67583 0
M  V30 1509 O 156.095 -1.65674 0.962423 0
M  V30 1510 C 156.289 0.687157 3.50732 0
M  V30 1511 C 156.118 2.14203 3.95407 0
M  V30 1512 C 154.888 2.78382 4.21701 0
M  V30 1513 C 157.086 3.1144 4.09279 0
M  V30 1514 N 155.068 4.14611 4.52737 0
M  V30 1515 C 156.439 4.32702 4.44037 0
M  V30 1516 C 158.494 3.07418 3.91661 0
M  V30 1517 C 157.197 5.50463 4.63015 0
M  V30 1518 C 159.223 4.24438 4.11833 0
M  V30 1519 C 158.585 5.44463 4.46923 0
M  V30 1520 H 154.684 0.229206 0.747655 0
M  V30 1521 H 157.268 1.12568 1.5886 0
M  V30 1522 H 155.439 0.083384 3.8831 0
M  V30 1523 H 157.171 0.276883 4.03752 0
M  V30 1524 H 153.926 2.29326 4.14375 0
M  V30 1525 H 154.35 4.84928 4.72413 0
M  V30 1526 H 158.992 2.15732 3.6362 0
M  V30 1527 H 156.71 6.42666 4.89904 0
M  V30 1528 H 160.296 4.2278 3.99685 0
M  V30 1529 H 159.176 6.33504 4.62214 0
M  V30 1530 N 156.679 -1.44442 0.630414 0
M  V30 1531 C 157.927 -2.01653 0.134351 0
M  V30 1532 C 158.248 -1.49836 -1.24796 0
M  V30 1533 O 157.518 -0.701684 -1.82902 0
M  V30 1534 H 156.098 -0.74554 0.0466769 0
M  V30 1535 H 158.76 -1.76952 0.816955 0
M  V30 1536 H 157.856 -3.11935 0.101498 0
M  V30 1537 N 158.157 -0.370918 -1.53173 0
M  V30 1538 C 159.382 0.220293 -2.06227 0
M  V30 1539 C 159.807 1.41243 -1.24225 0
M  V30 1540 O 159.165 1.79387 -0.262645 0
M  V30 1541 C 159.213 0.586663 -3.55796 0
M  V30 1542 O 158.317 1.68317 -3.76488 0
M  V30 1543 H 157.658 0.0308099 -0.663285 0
M  V30 1544 H 160.188 -0.533068 -1.97534 0
M  V30 1545 H 160.198 0.85617 -3.98916 0
M  V30 1546 H 158.873 -0.285013 -4.14922 0
M  V30 1547 H 157.45 1.40881 -3.45264 0
M  V30 1548 N 159.635 1.57281 -0.100228 0
M  V30 1549 C 161.046 1.81725 0.428107 0
M  V30 1550 C 161.397 1.01619 1.67833 0
M  V30 1551 O 160.522 0.247098 2.14985 0
M  V30 1552 C 161.117 3.29617 0.78347 0
M  V30 1553 C 159.676 3.54808 1.25653 0
M  V30 1554 C 158.823 2.76118 0.255752 0
M  V30 1555 H 161.774 1.55324 -0.325608 0
M  V30 1556 H 161.795 3.4322 1.64256 0
M  V30 1557 H 161.307 3.87893 -0.12665 0
M  V30 1558 H 159.408 3.01868 2.18418 0
M  V30 1559 H 159.521 4.63443 1.21482 0
M  V30 1560 H 157.885 2.43745 0.738956 0
M  V30 1561 H 158.668 3.37145 -0.647136 0
M  V30 1562 N 161.113 -0.173488 1.56642 0
M  V30 1563 C 162.529 -0.525174 1.50712 0
M  V30 1564 C 162.729 -1.8476 0.804107 0
M  V30 1565 O 161.785 -2.49869 0.363574 0
M  V30 1566 C 163.098 -0.559937 2.95441 0
M  V30 1567 C 164.646 -0.647288 3.06234 0
M  V30 1568 C 165.121 -0.712963 4.52417 0
M  V30 1569 N 166.612 -0.775911 4.56655 0
M  V30 1570 C 167.347 -0.847264 5.67106 0
M  V30 1571 N 166.843 -0.879585 6.87194 0
M  V30 1572 N 168.636 -0.886117 5.55071 0
M  V30 1573 H 160.787 0.693681 2.00753 0
M  V30 1574 H 163.05 0.249841 0.914485 0
M  V30 1575 H 162.756 0.343049 3.50023 0
M  V30 1576 H 162.63 -1.40718 3.49969 0
M  V30 1577 H 165.017 -1.5407 2.51687 0
M  V30 1578 H 165.098 0.226586 2.54794 0
M  V30 1579 H 164.742 0.176183 5.07594 0
M  V30 1580 H 164.672 -1.60295 5.0161 0
M  V30 1581 H 167.163 -0.759304 3.70193 0
M  V30 1582 H 167.476 -0.935144 7.67121 0
M  V30 1583 H 165.821 -0.847898 6.89808 0
M  V30 1584 H 169.012 -0.857853 4.60172 0
M  V30 1585 H 169.185 -0.938263 6.41171 0
M  V30 1586 N 162.591 -1.51276 -0.441967 0
M  V30 1587 C 164.002 -1.56244 -1.02199 0
M  V30 1588 C 164.353 -0.383149 -1.92422 0
M  V30 1589 O 163.478 0.500613 -2.1053 0
M  V30 1590 C 164.073 -2.83162 -1.86024 0
M  V30 1591 C 162.632 -2.90716 -2.39084 0
M  V30 1592 C 161.779 -2.50858 -1.18175 0
M  V30 1593 H 164.73 -1.5712 -0.223416 0
M  V30 1594 H 164.751 -2.66663 -2.71425 0
M  V30 1595 H 164.263 -3.68974 -1.20331 0
M  V30 1596 H 162.364 -2.09323 -3.08244 0
M  V30 1597 H 162.477 -3.94266 -2.72198 0
M  V30 1598 H 160.841 -2.03951 -1.52565 0
M  V30 1599 H 161.624 -3.3901 -0.541001 0
M  V30 1600 N 164.069 0.697108 -1.41344 0
M  V30 1601 C 165.309 1.46939 -1.42085 0
M  V30 1602 C 165.673 1.9198 -0.0280397 0
M  V30 1603 O 166.874 2.6865 0.0897504 0
M  V30 1604 C 165.145 2.64985 -2.39828 0
M  V30 1605 S 166.704 3.54147 -2.59085 0
M  V30 1606 H 163.522 0.502146 -0.503359 0
M  V30 1607 H 166.124 0.813546 -1.77769 0
M  V30 1608 H 164.828 2.30098 -3.39828 0
M  V30 1609 H 164.359 3.35464 -2.05493 0
M  V30 1610 H 166.374 4.60137 -1.85711 0
M  V30 1611 N 165.547 1.27147 0.931209 0
M  V30 1612 C 166.958 1.12044 1.49342 0
M  V30 1613 C 167.309 -0.295795 1.93957 0
M  V30 1614 O 166.434 -1.18835 1.80852 0
M  V30 1615 C 167.029 2.02781 2.71414 0
M  V30 1616 C 165.588 1.91794 3.2387 0
M  V30 1617 C 164.735 1.95543 1.96617 0
M  V30 1618 H 167.686 1.40091 0.745672 0
M  V30 1619 H 167.707 1.58156 3.46074 0
M  V30 1620 H 167.219 3.05848 2.38911 0
M  V30 1621 H 165.32 0.916992 3.6114 0
M  V30 1622 H 165.433 2.77852 3.90302 0
M  V30 1623 H 163.797 1.39722 2.12955 0
M  V30 1624 H 164.58 3.00259 1.66432 0
M  V30 1625 N 167.025 -1.13721 1.09112 0
M  V30 1626 C 168.441 -1.36914 0.820174 0
M  V30 1627 C 168.641 -1.93356 -0.567079 0
M  V30 1628 O 167.697 -2.15093 -1.32255 0
M  V30 1629 C 169.01 -2.3235 1.90877 0
M  V30 1630 C 170.558 -2.45973 1.93562 0
M  V30 1631 C 171.033 -3.44714 3.01556 0
M  V30 1632 N 172.524 -3.52263 3.00775 0
M  V30 1633 C 173.259 -4.28536 3.80978 0
M  V30 1634 N 172.755 -5.07991 4.71081 0
M  V30 1635 N 174.548 -4.23804 3.69251 0
M  V30 1636 H 166.699 -0.754348 1.98553 0
M  V30 1637 H 168.962 -0.3944 0.862063 0
M  V30 1638 H 168.668 -1.98027 2.90651 0
M  V30 1639 H 168.542 -3.32332 1.78424 0
M  V30 1640 H 170.929 -2.79584 0.944286 0
M  V30 1641 H 171.01 -1.45926 2.10093 0
M  V30 1642 H 170.654 -3.11835 4.00901 0
M  V30 1643 H 170.584 -4.44558 2.82269 0
M  V30 1644 H 173.075 -2.95567 2.35475 0
M  V30 1645 H 173.388 -5.63487 5.28869 0
M  V30 1646 H 171.733 -5.07235 4.75119 0
M  V30 1647 H 174.924 -3.60806 2.98222 0
M  V30 1648 H 175.097 -4.82995 4.31995 0
M  V30 1649 N 168.503 -0.877838 -1.30888 0
M  V30 1650 C 169.435 -0.296607 -2.27273 0
M  V30 1651 C 170.448 0.544799 -1.53414 0
M  V30 1652 O 171.637 0.365511 -1.74718 0
M  V30 1653 C 168.737 0.597481 -3.33592 0
M  V30 1654 C 167.91 -0.213251 -4.3688 0
M  V30 1655 C 166.969 0.610208 -5.2265 0
M  V30 1656 O 165.995 0.035441 -5.69189 0
M  V30 1657 N 167.197 1.92071 -5.47804 0
M  V30 1658 H 169.962 -1.12492 -2.77787 0
M  V30 1659 H 167.523 -0.740105 -1.43993 0
M  V30 1660 H 169.515 1.15425 -3.87891 0
M  V30 1661 H 168.085 1.32647 -2.83061 0
M  V30 1662 H 167.305 -0.951466 -3.82545 0
M  V30 1663 H 168.593 -0.769262 -5.02951 0
M  V30 1664 H 167.991 2.4107 -5.11763 0
M  V30 1665 H 166.548 2.42508 -6.05007 0
M  V30 1666 N 169.982 1.44106 -0.638065 0
M  V30 1667 C 171.207 2.0685 -0.150916 0
M  V30 1668 C 171.632 1.47417 1.16833 0
M  V30 1669 O 170.99 0.578264 1.71831 0
M  V30 1670 C 171.038 3.60555 -0.05708 0
M  V30 1671 O 170.142 4.00465 0.984972 0
M  V30 1672 H 169.483 0.658151 -0.0879399 0
M  V30 1673 H 172.013 1.84865 -0.876707 0
M  V30 1674 H 172.023 4.07789 0.131232 0
M  V30 1675 H 170.698 4.03193 -1.02021 0
M  V30 1676 H 169.275 3.64849 0.770672 0
M  V30 1677 N 171.46 0.379036 1.52974 0
M  V30 1678 C 172.392 -0.495963 2.2377 0
M  V30 1679 C 173.405 -1.03517 1.25651 0
M  V30 1680 O 174.594 -0.939249 1.51791 0
M  V30 1681 C 171.694 -1.69894 2.93239 0
M  V30 1682 C 170.867 -1.2889 4.17979 0
M  V30 1683 C 169.926 -2.35543 4.70538 0
M  V30 1684 O 168.952 -1.97375 5.33883 0
M  V30 1685 N 170.154 -3.67318 4.49508 0
M  V30 1686 H 172.919 0.110523 2.99496 0
M  V30 1687 H 170.48 0.204878 1.60598 0
M  V30 1688 H 172.472 -2.40747 3.25304 0
M  V30 1689 H 171.042 -2.212 2.20883 0
M  V30 1690 H 170.262 -0.409676 3.92065 0
M  V30 1691 H 171.55 -0.991443 4.99047 0
M  V30 1692 H 170.948 -4.01095 3.98923 0
M  V30 1693 H 169.505 -4.34235 4.8609 0
M  V30 1694 N 172.938 -1.57226 0.108567 0
M  V30 1695 C 174.166 -1.99179 -0.559954 0
M  V30 1696 C 174.581 -0.988022 -1.60884 0
M  V30 1697 O 173.938 0.0205512 -1.82488 0
M  V30 1698 C 173.989 -3.41159 -1.19552 0
M  V30 1699 O 173.71 -4.37694 -0.188577 0
M  V30 1700 C 175.211 -3.98188 -1.94837 0
M  V30 1701 H 172.431 -0.654228 -0.149088 0
M  V30 1702 H 174.975 -2.03598 0.19183 0
M  V30 1703 H 173.13 -3.37711 -1.89815 0
M  V30 1704 H 173.544 -5.20469 -0.649014 0
M  V30 1705 H 175.018 -4.99644 -2.34648 0
M  V30 1706 H 175.495 -3.3675 -2.81951 0
M  V30 1707 H 176.101 -4.0515 -1.2936 0
M  V30 1708 N 174.416 0.165178 -1.56732 0
M  V30 1709 C 175.664 0.879068 -1.8198 0
M  V30 1710 C 175.985 1.82514 -0.686561 0
M  V30 1711 O 175.255 1.93694 0.293146 0
M  V30 1712 H 173.835 0.327608 -0.671329 0
M  V30 1713 H 176.497 0.163526 -1.94213 0
M  V30 1714 H 175.593 1.45228 -2.76252 0
M  V30 1715 N 175.894 1.51508 0.433938 0
M  V30 1716 C 177.142 1.6402 1.18075 0
M  V30 1717 C 177.463 0.360328 1.91642 0
M  V30 1718 O 176.733 -0.623945 1.85698 0
M  V30 1719 H 175.313 0.6045 0.43885 0
M  V30 1720 H 177.975 1.88452 0.497178 0
M  V30 1721 H 177.071 2.46949 1.90847 0
M  V30 1722 N 177.372 -0.689602 1.41712 0
M  V30 1723 C 178.597 -1.48329 1.44959 0
M  V30 1724 C 179.022 -1.8801 0.0581283 0
M  V30 1725 O 178.38 -1.55026 -0.940035 0
M  V30 1726 C 178.428 -2.71835 2.36935 0
M  V30 1727 O 177.532 -3.69549 1.8305 0
M  V30 1728 H 176.873 -0.446199 0.491734 0
M  V30 1729 H 179.403 -0.847127 1.86239 0
M  V30 1730 H 179.413 -3.20076 2.53013 0
M  V30 1731 H 178.088 -2.42291 3.38035 0
M  V30 1732 H 176.665 -3.2851 1.76452 0
M  V30 1733 N 178.85 -1.27639 -0.924453 0
M  V30 1734 C 180.266 -1.05113 -1.20097 0
M  V30 1735 C 180.466 0.213262 -2.00368 0
M  V30 1736 O 179.522 0.91787 -2.35226 0
M  V30 1737 C 180.835 -2.29244 -1.94596 0
M  V30 1738 C 182.383 -2.34315 -2.07522 0
M  V30 1739 C 182.858 -3.58183 -2.85427 0
M  V30 1740 N 184.349 -3.5876 -2.92994 0
M  V30 1741 C 185.084 -4.51277 -3.53746 0
M  V30 1742 N 184.58 -5.54102 -4.15863 0
M  V30 1743 N 186.373 -4.38894 -3.51181 0
M  V30 1744 H 178.524 -2.08821 -0.388264 0
M  V30 1745 H 180.787 -0.918568 -0.234385 0
M  V30 1746 H 180.493 -3.21301 -1.43034 0
M  V30 1747 H 180.367 -2.34816 -2.95197 0
M  V30 1748 H 182.754 -1.42762 -2.58269 0
M  V30 1749 H 182.835 -2.32744 -1.06131 0
M  V30 1750 H 182.479 -4.50074 -2.35363 0
M  V30 1751 H 182.409 -3.57006 -3.8711 0
M  V30 1752 H 184.9 -2.84398 -2.4885 0
M  V30 1753 H 185.213 -6.20859 -4.60168 0
M  V30 1754 H 183.558 -5.57941 -4.144 0
M  V30 1755 H 186.749 -3.57772 -3.01856 0
M  V30 1756 H 186.922 -5.11186 -3.98237 0
M  V30 1757 N 180.328 1.1314 -1.09713 0
M  V30 1758 C 181.576 1.84119 -0.833338 0
M  V30 1759 C 181.897 1.84097 0.642904 0
M  V30 1760 O 181.167 1.29881 1.46655 0
M  V30 1761 H 179.747 0.681766 -0.305293 0
M  V30 1762 H 182.409 1.37038 -1.38588 0
M  V30 1763 H 181.505 2.88543 -1.18951 0
M  V30 1764 N 181.806 0.884767 1.30421 0
M  V30 1765 C 183.031 0.517288 2.00845 0
M  V30 1766 C 183.456 -0.886779 1.65885 0
M  V30 1767 O 182.814 -1.58768 0.875354 0
M  V30 1768 C 182.862 0.698994 3.5376 0
M  V30 1769 O 181.966 -0.255208 4.1161 0
M  V30 1770 H 181.307 0.203872 0.631927 0
M  V30 1771 H 183.837 1.19225 1.66272 0
M  V30 1772 H 183.847 0.597912 4.03595 0
M  V30 1773 H 182.522 1.72271 3.78544 0
M  V30 1774 H 181.099 -0.10784 3.72744 0
M  V30 1775 N 183.284 -1.43765 0.645699 0
M  V30 1776 C 184.695 -1.85193 0.236719 0
M  V30 1777 C 185.046 -1.54045 -1.21509 0
M  V30 1778 O 184.171 -0.985694 -1.92647 0
M  V30 1779 C 184.766 -3.36151 0.422845 0
M  V30 1780 C 183.325 -3.76338 0.0682492 0
M  V30 1781 C 182.472 -2.67538 0.729306 0
M  V30 1782 H 185.423 -1.34025 0.849883 0
M  V30 1783 H 185.444 -3.79032 -0.333904 0
M  V30 1784 H 184.956 -3.5879 1.47958 0
M  V30 1785 H 183.057 -3.59312 -0.986179 0
M  V30 1786 H 183.17 -4.76603 0.488469 0
M  V30 1787 H 181.534 -2.54176 0.163235 0
M  V30 1788 H 182.317 -2.93006 1.78892 0
M  V30 1789 N 184.763 -0.387143 -1.52771 0
M  V30 1790 C 185.726 0.436939 -2.24997 0
M  V30 1791 C 186.726 0.991991 -1.26555 0
M  V30 1792 O 187.916 0.874335 -1.50669 0
M  V30 1793 C 185.048 1.61281 -3.00335 0
M  V30 1794 H 186.241 -0.195365 -2.99263 0
M  V30 1795 H 183.794 -0.139218 -1.55679 0
M  V30 1796 H 184.529 2.2826 -2.30364 0
M  V30 1797 H 184.314 1.22154 -3.72587 0
M  V30 1798 H 185.804 2.19629 -3.5518 0
M  V30 1799 N 186.241 1.57166 -0.116904 0
M  V30 1800 C 187.652 1.82169 0.408809 0
M  V30 1801 C 188.003 1.03393 1.66746 0
M  V30 1802 O 187.128 0.269886 2.1471 0
M  V30 1803 C 187.723 3.30429 0.748466 0
M  V30 1804 C 186.282 3.5612 1.21882 0
M  V30 1805 C 185.429 2.76374 0.226452 0
M  V30 1806 H 188.38 1.5497 -0.342063 0
M  V30 1807 H 188.401 3.44943 1.60607 0
M  V30 1808 H 187.913 3.87737 -0.167784 0
M  V30 1809 H 186.014 3.04168 2.15204 0
M  V30 1810 H 186.127 4.64705 1.16559 0
M  V30 1811 H 184.491 2.44515 0.713063 0
M  V30 1812 H 185.274 3.3644 -0.682859 0
M  V30 1813 N 187.719 -0.156864 1.56817 0
M  V30 1814 C 189.135 -0.50916 1.5126 0
M  V30 1815 C 189.335 -1.83897 0.823658 0
M  V30 1816 O 188.391 -2.49469 0.390055 0
M  V30 1817 C 189.704 -0.52857 2.96018 0
M  V30 1818 C 191.252 -0.614771 3.06903 0
M  V30 1819 C 191.727 -0.664938 4.53147 0
M  V30 1820 N 193.218 -0.727433 4.57452 0
M  V30 1821 C 193.953 -0.787067 5.67973 0
M  V30 1822 N 193.449 -0.806649 6.88088 0
M  V30 1823 N 195.242 -0.827195 5.5598 0
M  V30 1824 H 187.393 0.714935 2.00006 0
M  V30 1825 H 189.656 0.259526 0.911784 0
M  V30 1826 H 189.362 0.380154 3.49639 0
M  V30 1827 H 189.236 -1.36998 3.51442 0
M  V30 1828 H 191.623 -1.51392 2.53307 0
M  V30 1829 H 191.704 0.253597 2.5454 0
M  V30 1830 H 191.348 0.230011 5.07379 0
M  V30 1831 H 191.278 -1.54966 5.03282 0
M  V30 1832 H 193.769 -0.719998 3.70978 0
M  V30 1833 H 194.082 -0.853727 7.6807 0
M  V30 1834 H 192.427 -0.774687 6.90669 0
M  V30 1835 H 195.618 -0.808998 4.61056 0
M  V30 1836 H 195.791 -0.870206 6.4213 0
M  V30 1837 N 189.197 -1.51736 -0.425897 0
M  V30 1838 C 190.608 -1.5732 -1.00536 0
M  V30 1839 C 190.959 -0.403537 -1.92005 0
M  V30 1840 O 190.084 0.478256 -2.11049 0
M  V30 1841 C 190.679 -2.85119 -1.8301 0
M  V30 1842 C 189.238 -2.93236 -2.35987 0
M  V30 1843 C 188.385 -2.52098 -1.15508 0
M  V30 1844 H 191.336 -1.57348 -0.206739 0
M  V30 1845 H 191.357 -2.69526 -2.68581 0
M  V30 1846 H 190.869 -3.7023 -1.16411 0
M  V30 1847 H 188.97 -2.12581 -3.06007 0
M  V30 1848 H 189.083 -3.9713 -2.68001 0
M  V30 1849 H 187.447 -2.05558 -1.50393 0
M  V30 1850 H 188.23 -3.39565 -0.505014 0
M  V30 1851 N 190.675 0.682077 -1.42076 0
M  V30 1852 C 191.638 1.77756 -1.44691 0
M  V30 1853 C 192.638 1.5726 -0.335535 0
M  V30 1854 O 193.828 1.63686 -0.596037 0
M  V30 1855 C 190.96 3.16301 -1.27146 0
M  V30 1856 H 192.153 1.76826 -2.42224 0
M  V30 1857 H 189.706 0.891012 -1.28416 0
M  V30 1858 H 190.441 3.22862 -0.305075 0
M  V30 1859 H 190.226 3.32581 -2.07683 0
M  V30 1860 H 191.716 3.96241 -1.31843 0
M  V30 1861 N 192.153 1.28127 0.917671 0
M  V30 1862 C 193.063 1.13556 2.05286 0
M  V30 1863 C 194.079 0.0630914 1.73886 0
M  V30 1864 O 195.255 0.271598 1.9956 0
M  V30 1865 C 192.32 0.794676 3.3747 0
M  V30 1866 C 191.381 1.94909 3.82504 0
M  V30 1867 C 190.614 1.62437 5.0838 0
M  V30 1868 O 190.837 0.536905 5.67867 0
M  V30 1869 O 189.771 2.46677 5.4903 0
M  V30 1870 H 193.597 2.08844 2.20495 0
M  V30 1871 H 191.182 1.07409 1.03845 0
M  V30 1872 H 193.064 0.618344 4.16839 0
M  V30 1873 H 191.739 -0.128581 3.23445 0
M  V30 1874 H 190.646 2.18055 3.03978 0
M  V30 1875 H 191.979 2.85291 4.01086 0
M  V30 1876 N 193.631 -1.12557 1.10312 0
M  V30 1877 C 194.856 -1.88405 0.867085 0
M  V30 1878 C 195.281 -1.79038 -0.576817 0
M  V30 1879 O 194.639 -1.14439 -1.40618 0
M  V30 1880 C 194.687 -3.3563 1.31851 0
M  V30 1881 O 193.791 -4.09565 0.482734 0
M  V30 1882 H 193.132 -0.585455 0.313271 0
M  V30 1883 H 195.662 -1.42352 1.4696 0
M  V30 1884 H 195.672 -3.86469 1.3079 0
M  V30 1885 H 194.347 -3.41765 2.37001 0
M  V30 1886 H 192.924 -3.68695 0.558448 0
M  V30 1887 N 195.109 -0.891671 -1.2995 0
M  V30 1888 C 196.357 -0.512486 -1.95494 0
M  V30 1889 C 196.678 0.942776 -1.70695 0
M  V30 1890 O 195.948 1.66374 -1.03424 0
M  V30 1891 H 194.528 -0.186533 -0.723336 0
M  V30 1892 H 197.19 -1.13621 -1.58355 0
M  V30 1893 H 196.286 -0.688342 -3.04415 0
M  V30 1894 N 196.587 1.43421 -0.653314 0
M  V30 1895 C 197.812 2.06678 -0.172846 0
M  V30 1896 C 198.237 1.48648 1.15262 0
M  V30 1897 O 197.595 0.596457 1.71208 0
M  V30 1898 C 197.643 3.60474 -0.0953184 0
M  V30 1899 O 196.747 4.01487 0.942442 0
M  V30 1900 H 196.088 0.657181 -0.0949155 0
M  V30 1901 H 198.618 1.83925 -0.896265 0
M  V30 1902 H 198.628 4.07905 0.0879728 0
M  V30 1903 H 197.303 4.02088 -1.06291 0
M  V30 1904 H 195.88 3.65646 0.731932 0
M  V30 1905 N 198.065 0.39524 1.52563 0
M  V30 1906 C 199.29 -0.187456 2.06551 0
M  V30 1907 C 199.715 -1.39249 1.26457 0
M  V30 1908 O 199.073 -1.78947 0.291151 0
M  V30 1909 C 199.121 -0.529985 3.56684 0
M  V30 1910 O 198.225 -1.62307 3.79118 0
M  V30 1911 H 197.566 -0.0202537 0.663691 0
M  V30 1912 H 200.096 0.564426 1.96661 0
M  V30 1913 H 200.106 -0.792598 4.00227 0
M  V30 1914 H 198.781 0.350987 4.14416 0
M  V30 1915 H 197.358 -1.3537 3.47461 0
M  V30 1916 N 199.544 -1.57102 0.125237 0
M  V30 1917 C 200.769 -2.0019 -0.542101 0
M  V30 1918 C 201.194 -1.00449 -1.59034 0
M  V30 1919 O 200.552 0.0229423 -1.81285 0
M  V30 1920 C 200.6 -3.42129 -1.13929 0
M  V30 1921 O 199.704 -3.45307 -2.2547 0
M  V30 1922 H 199.045 -0.650171 -0.134812 0
M  V30 1923 H 201.575 -2.03461 0.215553 0
M  V30 1924 H 201.585 -3.80471 -1.4733 0
M  V30 1925 H 200.26 -4.14237 -0.371531 0
M  V30 1926 H 198.837 -3.1879 -1.93462 0
M  V30 1927 N 201.022 0.148545 -1.56898 0
M  V30 1928 C 202.438 0.501131 -1.51528 0
M  V30 1929 C 202.638 1.83458 -0.833399 0
M  V30 1930 O 201.694 2.49259 -0.40328 0
M  V30 1931 C 203.007 0.512864 -2.96294 0
M  V30 1932 C 204.555 0.598487 -3.07225 0
M  V30 1933 C 205.03 0.640897 -4.53494 0
M  V30 1934 N 206.521 0.703163 -4.57832 0
M  V30 1935 C 207.256 0.756935 -5.68382 0
M  V30 1936 N 206.752 0.770147 -6.88506 0
M  V30 1937 N 208.545 0.797698 -5.56411 0
M  V30 1938 H 200.696 -0.725532 -1.99624 0
M  V30 1939 H 202.959 -0.264358 -0.910395 0
M  V30 1940 H 202.665 -0.398691 -3.49433 0
M  V30 1941 H 202.539 1.35133 -3.52163 0
M  V30 1942 H 204.926 1.50046 -2.54106 0
M  V30 1943 H 205.007 -0.267093 -2.54402 0
M  V30 1944 H 204.651 -0.256915 -5.0725 0
M  V30 1945 H 204.581 1.52295 -5.04097 0
M  V30 1946 H 207.072 0.700314 -3.71354 0
M  V30 1947 H 207.385 0.812983 -7.68512 0
M  V30 1948 H 205.73 0.738049 -6.9107 0
M  V30 1949 H 208.921 0.784535 -4.61479 0
M  V30 1950 H 209.094 0.83614 -6.42583 0
M  V30 1951 N 202.5 1.5196 0.417844 0
M  V30 1952 C 203.728 1.69426 1.18753 0
M  V30 1953 C 204.143 0.399955 1.84515 0
M  V30 1954 O 203.5 -0.623288 1.71527 0
M  V30 1955 C 203.551 2.82375 2.25714 0
M  V30 1956 O 203.272 4.06793 1.62638 0
M  V30 1957 C 204.773 3.11277 3.15628 0
M  V30 1958 H 201.993 0.568031 0.357186 0
M  V30 1959 H 204.537 1.98475 0.49273 0
M  V30 1960 H 202.692 2.5587 2.90877 0
M  V30 1961 H 203.106 4.69667 2.3348 0
M  V30 1962 H 204.58 3.93843 3.86771 0
M  V30 1963 H 205.057 2.24473 3.77503 0
M  V30 1964 H 205.663 3.39515 2.56144 0
M  V30 1965 N 203.978 -0.674533 1.42435 0
M  V30 1966 C 205.206 -1.46283 1.46317 0
M  V30 1967 C 205.621 -1.88653 0.0745836 0
M  V30 1968 O 204.978 -1.58151 -0.91074 0
M  V30 1969 C 205.029 -2.71178 2.3905 0
M  V30 1970 O 204.75 -2.30586 3.72507 0
M  V30 1971 C 206.251 -3.64738 2.51955 0
M  V30 1972 H 203.471 -0.450104 0.497642 0
M  V30 1973 H 206.015 -0.828792 1.86953 0
M  V30 1974 H 204.17 -3.3077 2.01667 0
M  V30 1975 H 204.584 -3.11241 4.22172 0
M  V30 1976 H 206.058 -4.49096 3.20962 0
M  V30 1977 H 206.535 -4.10656 1.55752 0
M  V30 1978 H 207.141 -3.11038 2.90061 0
M  V30 1979 N 205.456 -1.28612 -0.910864 0
M  V30 1980 C 206.366 -1.14643 -2.0468 0
M  V30 1981 C 207.382 -0.0723121 -1.7385 0
M  V30 1982 O 208.558 -0.282178 -1.99413 0
M  V30 1983 C 205.623 -0.812561 -3.37044 0
M  V30 1984 C 204.684 -1.96935 -3.81465 0
M  V30 1985 C 203.917 -1.65131 -5.07511 0
M  V30 1986 O 204.14 -0.567013 -5.67575 0
M  V30 1987 O 203.074 -2.49585 -5.47714 0
M  V30 1988 H 206.9 -2.1001 -2.19384 0
M  V30 1989 H 204.485 -1.07958 -1.03274 0
M  V30 1990 H 206.367 -0.640441 -4.16505 0
M  V30 1991 H 205.042 0.111426 -3.23508 0
M  V30 1992 H 203.949 -2.19664 -3.02818 0
M  V30 1993 H 205.282 -2.87414 -3.99567 0
M  V30 1994 N 206.934 1.1197 -1.10907 0
M  V30 1995 C 208.182 1.83225 -0.852819 0
M  V30 1996 C 208.503 1.84769 0.623341 0
M  V30 1997 O 207.773 1.3143 1.45269 0
M  V30 1998 H 206.353 0.67849 -0.312507 0
M  V30 1999 H 209.015 1.3556 -1.40033 0
M  V30 2000 H 208.111 2.87265 -1.22005 0
M  V30 2001 N 208.412 0.89855 1.29475 0
M  V30 2002 C 209.66 0.522847 1.9522 0
M  V30 2003 C 209.981 -0.93371 1.71192 0
M  V30 2004 O 209.251 -1.65823 1.04305 0
M  V30 2005 H 207.831 0.190366 0.722336 0
M  V30 2006 H 210.493 1.14459 1.5775 0
M  V30 2007 H 209.589 0.704476 3.04045 0
M  V30 2008 N 209.89 -1.43072 0.660911 0
M  V30 2009 C 210.853 -2.29194 -0.0166406 0
M  V30 2010 C 211.853 -1.42609 -0.742912 0
M  V30 2011 O 213.043 -1.64155 -0.583004 0
M  V30 2012 C 210.175 -3.24831 -1.0343 0
M  V30 2013 H 211.368 -2.90596 0.741208 0
M  V30 2014 H 208.921 -1.5048 0.422532 0
M  V30 2015 H 209.656 -2.68339 -1.82111 0
M  V30 2016 H 209.441 -3.88676 -0.517082 0
M  V30 2017 H 210.931 -3.89451 -1.50723 0
M  V30 2018 N 211.368 -0.403325 -1.52352 0
M  V30 2019 C 212.593 0.176499 -2.06648 0
M  V30 2020 C 213.018 1.38577 -1.27193 0
M  V30 2021 O 212.376 1.7879 -0.300637 0
M  V30 2022 C 212.424 0.511061 -3.5696 0
M  V30 2023 O 211.528 1.60294 -3.79973 0
M  V30 2024 H 210.869 0.0167337 -0.663789 0
M  V30 2025 H 213.399 -0.574848 -1.96359 0
M  V30 2026 H 213.409 0.771362 -4.00642 0
M  V30 2027 H 212.084 -0.37296 -4.14224 0
M  V30 2028 H 210.661 1.33526 -3.48174 0
M  V30 2029 N 212.846 1.57033 -0.133567 0
M  V30 2030 C 214.086 1.97575 0.523789 0
M  V30 2031 C 214.45 1.01605 1.62912 0
M  V30 2032 O 215.651 1.3114 2.3464 0
M  V30 2033 C 213.922 3.42256 1.02935 0
M  V30 2034 S 215.481 4.04817 1.69319 0
M  V30 2035 H 212.299 0.690427 0.169799 0
M  V30 2036 H 214.901 1.94234 -0.222101 0
M  V30 2037 H 213.605 4.09842 0.213917 0
M  V30 2038 H 213.136 3.4928 1.81017 0
M  V30 2039 H 215.151 3.96767 2.97977 0
M  V30 2040 N 214.325 -0.140222 1.56975 0
M  V30 2041 C 215.736 -0.699596 1.73097 0
M  V30 2042 C 216.087 -1.8134 0.749022 0
M  V30 2043 O 215.212 -2.16241 -0.0828503 0
M  V30 2044 C 215.807 -1.27582 3.1386 0
M  V30 2045 C 214.366 -1.78169 3.31561 0
M  V30 2046 C 213.513 -0.672855 2.69013 0
M  V30 2047 H 216.464 0.0855115 1.58469 0
M  V30 2048 H 216.485 -2.14561 3.14235 0
M  V30 2049 H 215.997 -0.464955 3.85305 0
M  V30 2050 H 214.098 -2.61801 2.65124 0
M  V30 2051 H 214.211 -1.90574 4.39566 0
M  V30 2052 H 212.575 -1.10118 2.29665 0
M  V30 2053 H 213.358 0.126679 3.43066 0
M  V30 2054 N 215.803 -1.52179 -0.40978 0
M  V30 2055 C 217.214 -1.58377 -0.988615 0
M  V30 2056 C 217.565 -0.423879 -1.91566 0
M  V30 2057 O 216.69 0.455844 -2.11544 0
M  V30 2058 C 217.285 -2.87044 -1.79976 0
M  V30 2059 C 215.844 -2.95722 -2.32863 0
M  V30 2060 C 214.991 -2.53309 -1.12828 0
M  V30 2061 H 217.942 -1.57558 -0.190039 0
M  V30 2062 H 217.963 -2.7236 -2.65707 0
M  V30 2063 H 217.475 -3.71444 -1.12478 0
M  V30 2064 H 215.576 -2.15814 -3.03735 0
M  V30 2065 H 215.689 -3.99951 -2.63773 0
M  V30 2066 H 214.053 -2.07142 -1.48204 0
M  V30 2067 H 214.836 -3.40082 -0.46897 0
M  V30 2068 N 217.281 0.66697 -1.42791 0
M  V30 2069 C 218.231 1.77313 -1.43332 0
M  V30 2070 C 219.215 1.5801 -0.303586 0
M  V30 2071 O 220.407 1.68356 -0.546385 0
M  V30 2072 C 217.536 3.15822 -1.34578 0
M  V30 2073 C 216.622 3.40721 -2.52528 0
M  V30 2074 N 217.013 3.36162 -3.77927 0
M  V30 2075 C 215.311 3.71387 -2.46956 0
M  V30 2076 C 216.012 3.60762 -4.56318 0
M  V30 2077 N 214.988 3.81908 -3.86843 0
M  V30 2078 H 218.79 1.72193 -2.38174 0
M  V30 2079 H 216.304 0.868114 -1.3725 0
M  V30 2080 H 218.301 3.951 -1.33048 0
M  V30 2081 H 216.961 3.22133 -0.407453 0
M  V30 2082 H 217.972 3.15885 -4.10411 0
M  V30 2083 H 214.649 3.84897 -1.61743 0
M  V30 2084 H 216.039 3.63132 -5.65318 0
M  V30 2085 N 218.759 1.29093 0.90403 0
M  V30 2086 C 220.17 1.15186 1.46932 0
M  V30 2087 C 220.521 -0.254587 1.94541 0
M  V30 2088 O 219.646 -1.14972 1.83332 0
M  V30 2089 C 220.241 2.08492 2.67051 0
M  V30 2090 C 218.8 1.98621 3.19729 0
M  V30 2091 C 217.947 1.9967 1.92425 0
M  V30 2092 H 220.898 1.41641 0.715789 0
M  V30 2093 H 220.919 1.65461 3.42641 0
M  V30 2094 H 220.431 3.10847 2.3237 0
M  V30 2095 H 218.532 0.993389 3.59114 0
M  V30 2096 H 218.645 2.86068 3.8432 0
M  V30 2097 H 217.009 1.44208 2.09943 0
M  V30 2098 H 217.792 3.03721 1.60026 0
M  V30 2099 N 220.237 -1.11381 1.11499 0
M  V30 2100 C 221.477 -1.84763 0.874188 0
M  V30 2101 C 221.841 -1.82726 -0.589496 0
M  V30 2102 O 223.042 -2.51562 -0.947089 0
M  V30 2103 C 221.313 -3.27931 1.42112 0
M  V30 2104 S 222.872 -4.18557 1.31739 0
M  V30 2105 H 219.69 -0.637115 0.315603 0
M  V30 2106 H 222.292 -1.34097 1.42261 0
M  V30 2107 H 220.996 -3.26978 2.48019 0
M  V30 2108 H 220.527 -3.83665 0.869761 0
M  V30 2109 H 222.542 -4.95396 0.282335 0
M  V30 2110 N 221.715 -0.905404 -1.28997 0
M  V30 2111 C 222.665 -0.358713 -2.25161 0
M  V30 2112 C 223.649 0.524449 -1.52113 0
M  V30 2113 O 224.841 0.365534 -1.73184 0
M  V30 2114 C 221.97 0.407609 -3.40872 0
M  V30 2115 C 221.056 -0.490797 -4.21251 0
M  V30 2116 N 221.447 -1.60061 -4.79806 0
M  V30 2117 C 219.745 -0.289636 -4.45059 0
M  V30 2118 C 220.446 -2.15757 -5.40207 0
M  V30 2119 N 219.422 -1.44988 -5.23908 0
M  V30 2120 H 223.224 -1.20642 -2.67998 0
M  V30 2121 H 220.738 -0.757103 -1.43672 0
M  V30 2122 H 222.735 0.816046 -4.08835 0
M  V30 2123 H 221.395 1.25251 -2.9957 0
M  V30 2124 H 222.406 -1.98329 -4.7842 0
M  V30 2125 H 219.083 0.51643 -4.14294 0
M  V30 2126 H 220.473 -3.09069 -5.96595 0
M  V30 2127 N 223.193 1.4272 -0.668489 0
M  V30 2128 C 224.433 2.03497 -0.19194 0
M  V30 2129 C 224.797 1.51684 1.17712 0
M  V30 2130 O 225.998 2.04205 1.74796 0
M  V30 2131 C 224.269 3.56734 -0.218032 0
M  V30 2132 S 225.828 4.38395 0.188438 0
M  V30 2133 H 222.646 0.706542 -0.0794959 0
M  V30 2134 H 225.248 1.74563 -0.880235 0
M  V30 2135 H 223.952 3.91943 -1.2169 0
M  V30 2136 H 223.483 3.90333 0.490303 0
M  V30 2137 H 225.498 4.75345 1.42345 0
M  V30 2138 N 224.671 0.411399 1.52136 0
M  V30 2139 C 226.082 -0.0576826 1.86611 0
M  V30 2140 C 226.433 -1.44238 1.33003 0
M  V30 2141 O 225.558 -2.05759 0.670228 0
M  V30 2142 C 226.153 -0.111448 3.38617 0
M  V30 2143 C 224.712 -0.52487 3.72723 0
M  V30 2144 C 223.859 0.299176 2.75681 0
M  V30 2145 H 226.81 0.628368 1.4573 0
M  V30 2146 H 226.831 -0.926252 3.69054 0
M  V30 2147 H 226.343 0.896488 3.77604 0
M  V30 2148 H 224.444 -1.53936 3.39315 0
M  V30 2149 H 224.557 -0.267681 4.78352 0
M  V30 2150 H 222.921 -0.238814 2.53578 0
M  V30 2151 H 223.704 1.3055 3.17508 0
M  V30 2152 N 226.149 -1.5696 0.141893 0
M  V30 2153 C 227.56 -1.82797 -0.379776 0
M  V30 2154 C 227.911 -1.06033 -1.6508 0
M  V30 2155 O 227.036 -0.304011 -2.14254 0
M  V30 2156 C 227.631 -3.31578 -0.695802 0
M  V30 2157 C 226.19 -3.58014 -1.16201 0
M  V30 2158 C 225.337 -2.76699 -0.182455 0
M  V30 2159 H 228.288 -1.54406 0.366675 0
M  V30 2160 H 228.309 -3.47454 -1.55099 0
M  V30 2161 H 227.821 -3.87421 0.229449 0
M  V30 2162 H 225.922 -3.07553 -2.10338 0
M  V30 2163 H 226.035 -4.66501 -1.09151 0
M  V30 2164 H 224.399 -2.45618 -0.674072 0
M  V30 2165 H 225.182 -3.35311 0.736297 0
M  V30 2166 N 227.627 0.131896 -1.57047 0
M  V30 2167 C 228.59 1.14638 -1.98471 0
M  V30 2168 C 229.59 1.35029 -0.873148 0
M  V30 2169 O 230.78 1.31764 -1.13946 0
M  V30 2170 C 227.912 2.50358 -2.31373 0
M  V30 2171 H 229.105 0.79064 -2.8929 0
M  V30 2172 H 226.658 0.375761 -1.51716 0
M  V30 2173 H 227.393 2.90876 -1.43393 0
M  V30 2174 H 227.178 2.36915 -3.12432 0
M  V30 2175 H 228.668 3.23395 -2.64207 0
M  V30 2176 N 229.106 1.52395 0.401703 0
M  V30 2177 C 230.517 1.58899 0.980202 0
M  V30 2178 C 230.868 0.434032 1.91339 0
M  V30 2179 O 229.993 -0.444619 2.11783 0
M  V30 2180 C 230.588 2.87994 1.78451 0
M  V30 2181 C 229.147 2.96953 2.31292 0
M  V30 2182 C 228.294 2.53903 1.11483 0
M  V30 2183 H 231.245 1.57657 0.18168 0
M  V30 2184 H 231.266 2.73765 2.64259 0
M  V30 2185 H 230.778 3.72035 1.10506 0
M  V30 2186 H 228.879 2.17422 3.02586 0
M  V30 2187 H 228.992 4.01344 2.61649 0
M  V30 2188 H 227.356 2.07925 1.47104 0
M  V30 2189 H 228.139 3.40326 0.450928 0
M  V30 2190 N 230.584 -0.659388 1.43143 0
M  V30 2191 C 231.809 -1.45221 1.48073 0
M  V30 2192 C 232.234 -1.87845 0.097995 0
M  V30 2193 O 231.592 -1.56985 -0.90694 0
M  V30 2194 C 231.64 -2.66748 2.42647 0
M  V30 2195 O 230.744 -3.65583 1.90848 0
M  V30 2196 H 230.085 -0.435669 0.501088 0
M  V30 2197 H 232.615 -0.807432 1.87994 0
M  V30 2198 H 232.625 -3.14637 2.59745 0
M  V30 2199 H 231.3 -2.35067 3.43098 0
M  V30 2200 H 229.877 -3.24693 1.83381 0
M  V30 2201 N 232.062 -1.29571 -0.897171 0
M  V30 2202 C 233.473 -1.15964 -1.46319 0
M  V30 2203 C 233.824 0.244267 -1.94674 0
M  V30 2204 O 232.949 1.13998 -1.83939 0
M  V30 2205 C 233.544 -2.09906 -2.65942 0
M  V30 2206 C 232.103 -2.00314 -3.18671 0
M  V30 2207 C 231.25 -2.00687 -1.91363 0
M  V30 2208 H 234.201 -1.42019 -0.708268 0
M  V30 2209 H 234.222 -1.67276 -3.41759 0
M  V30 2210 H 233.734 -3.12075 -2.30718 0
M  V30 2211 H 231.835 -1.01242 -3.58582 0
M  V30 2212 H 231.948 -2.88102 -3.82798 0
M  V30 2213 H 230.312 -1.45319 -2.09175 0
M  V30 2214 H 231.095 -3.04566 -1.58413 0
M  V30 2215 N 233.54 1.10788 -1.12088 0
M  V30 2216 C 234.768 1.86461 -0.896651 0
M  V30 2217 C 235.183 1.80492 0.553912 0
M  V30 2218 O 234.54 1.19102 1.38278 0
M  V30 2219 C 234.591 3.35006 -1.35843 0
M  V30 2220 O 234.312 3.40866 -2.75213 0
M  V30 2221 C 235.813 4.27565 -1.1706 0
M  V30 2222 H 233.033 0.589425 -0.320654 0
M  V30 2223 H 235.577 1.40076 -1.48993 0
M  V30 2224 H 233.732 3.7887 -0.808458 0
M  V30 2225 H 234.146 4.33411 -2.9539 0
M  V30 2226 H 235.62 5.30007 -1.54263 0
M  V30 2227 H 236.097 4.3906 -0.110814 0
M  V30 2228 H 236.703 3.89501 -1.70789 0
M  V30 2229 N 235.018 0.912232 1.28515 0
M  V30 2230 C 235.95 0.35676 2.26406 0
M  V30 2231 C 236.963 -0.503933 1.54804 0
M  V30 2232 O 238.152 -0.319059 1.75625 0
M  V30 2233 C 235.252 -0.508825 3.35058 0
M  V30 2234 C 234.425 0.329007 4.36161 0
M  V30 2235 C 233.484 -0.471422 5.24084 0
M  V30 2236 O 232.51 0.115482 5.69083 0
M  V30 2237 N 233.712 -1.77479 5.52704 0
M  V30 2238 H 236.477 1.19818 2.74707 0
M  V30 2239 H 234.038 0.778022 1.4198 0
M  V30 2240 H 236.03 -1.051 3.90815 0
M  V30 2241 H 234.6 -1.25095 2.86478 0
M  V30 2242 H 233.82 1.05256 3.79888 0
M  V30 2243 H 235.108 0.90234 5.00735 0
M  V30 2244 H 234.506 -2.27417 5.17975 0
M  V30 2245 H 233.063 -2.26382 6.11224 0
M  V30 2246 N 236.496 -1.42363 0.676048 0
M  V30 2247 C 237.744 -2.01123 0.198437 0
M  V30 2248 C 238.065 -1.53731 -1.19966 0
M  V30 2249 O 237.335 -0.759518 -1.80577 0
M  V30 2250 H 235.915 -0.743678 0.0703721 0
M  V30 2251 H 238.577 -1.74263 0.872837 0
M  V30 2252 H 237.673 -3.11454 0.200686 0
M  V30 2253 N 237.974 -0.419461 -1.51915 0
M  V30 2254 C 238.904 0.391813 -2.30189 0
M  V30 2255 C 239.885 1.03699 -1.34836 0
M  V30 2256 O 241.07 1.04403 -1.63748 0
M  V30 2257 C 238.2 1.50312 -3.13087 0
M  V30 2258 C 237.154 0.9824 -4.16573 0
M  V30 2259 C 236.48 2.18809 -4.8788 0
M  V30 2260 C 237.78 0.0292356 -5.22292 0
M  V30 2261 H 239.474 -0.26135 -2.98257 0
M  V30 2262 H 237.02 -0.127134 -1.43438 0
M  V30 2263 H 238.973 2.07773 -3.66617 0
M  V30 2264 H 237.697 2.18431 -2.42807 0
M  V30 2265 H 236.356 0.430119 -3.64068 0
M  V30 2266 H 236.004 2.85507 -4.14119 0
M  V30 2267 H 235.704 1.84615 -5.57845 0
M  V30 2268 H 237.228 2.76858 -5.44226 0
M  V30 2269 H 238.642 0.512976 -5.71 0
M  V30 2270 H 237.039 -0.2244 -5.9968 0
M  V30 2271 H 238.109 -0.912931 -4.76228 0
M  V30 2272 N 239.452 1.56882 -0.150215 0
M  V30 2273 C 240.362 2.20494 0.801222 0
M  V30 2274 C 241.378 1.19019 1.26927 0
M  V30 2275 O 242.554 1.51607 1.32579 0
M  V30 2276 C 239.619 2.81659 2.02161 0
M  V30 2277 C 238.68 3.9827 1.60249 0
M  V30 2278 C 237.913 4.56508 2.7647 0
M  V30 2279 O 238.136 4.13627 3.92771 0
M  V30 2280 O 237.07 5.46719 2.51757 0
M  V30 2281 H 240.896 3.02315 0.289717 0
M  V30 2282 H 238.481 1.49202 0.0769684 0
M  V30 2283 H 240.363 3.20522 2.73576 0
M  V30 2284 H 239.038 2.02849 2.52258 0
M  V30 2285 H 237.945 3.64117 0.858477 0
M  V30 2286 H 239.278 4.78609 1.14864 0
M  V30 2287 N 240.93 -0.123565 1.57115 0
M  V30 2288 C 241.878 -1.17082 2.00984 0
M  V30 2289 C 242.872 -1.43136 0.906009 0
M  V30 2290 O 244.078 -1.43152 1.09121 0
M  V30 2291 H 240.453 -0.394653 0.64012 0
M  V30 2292 H 242.424 -0.774292 2.88179 0
M  V30 2293 C 241.173 -2.49057 2.42623 0
M  V30 2294 H 240.496 -2.29846 3.27125 0
M  V30 2295 H 241.936 -3.20906 2.7712 0
M  V30 2296 C 240.395 -3.11305 1.28805 0
M  V30 2297 O 240.925 -3.97171 0.60153 0
M  V30 2298 N 239.131 -2.71111 1.04628 0
M  V30 2299 H 238.678 -2.01382 1.60634 0
M  V30 2300 H 238.636 -3.1309 0.286685 0
M  V30 2301 N 242.408 -1.52605 -0.393616 0
M  V30 2302 C 243.633 -1.71592 -1.16495 0
M  V30 2303 C 244.058 -0.43133 -1.83088 0
M  V30 2304 O 243.416 0.612523 -1.7064 0
M  V30 2305 C 243.464 -2.86318 -2.19213 0
M  V30 2306 O 242.568 -2.52969 -3.257 0
M  V30 2307 H 241.909 -0.570734 -0.33935 0
M  V30 2308 H 244.439 -1.99377 -0.459324 0
M  V30 2309 H 244.449 -3.1168 -2.63286 0
M  V30 2310 H 243.124 -3.79511 -1.7013 0
M  V30 2311 H 241.701 -2.38332 -2.86797 0
M  V30 2312 N 243.887 0.651787 -1.4349 0
M  V30 2313 C 245.133 1.4121 -1.46395 0
M  V30 2314 C 245.488 1.92202 -0.087366 0
M  V30 2315 O 244.781 1.69452 0.894231 0
M  V30 2316 C 244.975 2.60914 -2.44251 0
M  V30 2317 C 244.804 2.21639 -3.91288 0
M  V30 2318 C 243.574 2.09897 -4.59643 0
M  V30 2319 C 245.772 1.81835 -4.81083 0
M  V30 2320 N 243.754 1.63967 -5.91598 0
M  V30 2321 C 245.125 1.46998 -6.02322 0
M  V30 2322 C 247.18 1.69031 -4.6833 0
M  V30 2323 C 245.883 1.00638 -7.12225 0
M  V30 2324 C 247.909 1.24077 -5.78238 0
M  V30 2325 C 247.271 0.901772 -6.98604 0
M  V30 2326 H 243.37 0.512322 -0.590805 0
M  V30 2327 H 245.954 0.74989 -1.7968 0
M  V30 2328 H 244.125 3.24792 -2.1299 0
M  V30 2329 H 245.857 3.27622 -2.37584 0
M  V30 2330 H 242.612 2.297 -4.14168 0
M  V30 2331 H 243.036 1.43359 -6.61647 0
M  V30 2332 H 247.678 1.93878 -3.75727 0
M  V30 2333 H 245.396 0.745399 -8.04655 0
M  V30 2334 H 248.982 1.14657 -5.7039 0
M  V30 2335 H 247.862 0.559226 -7.82203 0
M  V30 2336 N 245.365 1.30045 0.890287 0
M  V30 2337 C 246.781 1.08261 1.17268 0
M  V30 2338 C 246.981 -0.160063 2.00863 0
M  V30 2339 O 246.037 -0.855181 2.37577 0
M  V30 2340 C 247.35 2.34323 1.8845 0
M  V30 2341 C 248.898 2.39735 2.01237 0
M  V30 2342 C 249.373 3.65625 2.7583 0
M  V30 2343 N 250.864 3.66402 2.83379 0
M  V30 2344 C 251.599 4.60498 3.41657 0
M  V30 2345 N 251.095 5.64933 4.01026 0
M  V30 2346 N 252.888 4.48051 3.39421 0
M  V30 2347 H 245.039 2.09777 0.332762 0
M  V30 2348 H 247.302 0.92446 0.209948 0
M  V30 2349 H 247.008 3.2498 1.34465 0
M  V30 2350 H 246.882 2.4256 2.88867 0
M  V30 2351 H 249.269 1.4956 2.54393 0
M  V30 2352 H 249.35 2.35476 0.999232 0
M  V30 2353 H 248.994 4.56156 2.23347 0
M  V30 2354 H 248.924 3.67144 3.77509 0
M  V30 2355 H 251.415 2.90896 2.41222 0
M  V30 2356 H 251.728 6.32841 4.43545 0
M  V30 2357 H 250.073 5.68732 3.99461 0
M  V30 2358 H 253.264 3.65649 2.92264 0
M  V30 2359 H 253.437 5.21565 3.84544 0
M  V30 2360 N 246.843 -1.10192 1.12674 0
M  V30 2361 C 247.775 -2.16418 0.754701 0
M  V30 2362 C 248.788 -1.61309 -0.21986 0
M  V30 2363 O 249.977 -1.785 -0.000826841 0
M  V30 2364 C 247.077 -3.38762 0.096698 0
M  V30 2365 C 246.25 -4.23307 1.10136 0
M  V30 2366 C 245.309 -5.24092 0.470513 0
M  V30 2367 O 244.335 -5.57906 1.12824 0
M  V30 2368 N 245.537 -5.75491 -0.760948 0
M  V30 2369 H 248.302 -2.48943 1.66875 0
M  V30 2370 H 245.863 -1.25834 1.01869 0
M  V30 2371 H 247.855 -4.03291 -0.337384 0
M  V30 2372 H 246.425 -3.04192 -0.720153 0
M  V30 2373 H 245.645 -3.55036 1.71299 0
M  V30 2374 H 246.933 -4.76624 1.78064 0
M  V30 2375 H 246.331 -5.50222 -1.31424 0
M  V30 2376 H 244.888 -6.41792 -1.13781 0
M  V30 2377 N 248.321 -0.919034 -1.28029 0
M  V30 2378 C 249.271 -0.382574 -2.24767 0
M  V30 2379 C 250.255 0.508286 -1.52661 0
M  V30 2380 O 251.447 0.347145 -1.73562 0
M  V30 2381 C 248.576 0.371432 -3.41285 0
M  V30 2382 C 247.662 -0.535449 -4.20706 0
M  V30 2383 N 248.053 -1.65141 -4.78082 0
M  V30 2384 C 246.351 -0.336824 -4.44726 0
M  V30 2385 C 247.052 -2.21475 -5.37888 0
M  V30 2386 N 246.028 -1.50537 -5.22341 0
M  V30 2387 H 249.83 -1.23477 -2.66703 0
M  V30 2388 H 247.344 -0.772299 -1.42861 0
M  V30 2389 H 249.341 0.772638 -4.09678 0
M  V30 2390 H 248.001 1.22066 -3.00882 0
M  V30 2391 H 249.012 -2.03392 -4.7629 0
M  V30 2392 H 245.689 0.47246 -4.14818 0
M  V30 2393 H 247.079 -3.15379 -5.93284 0
M  V30 2394 N 249.799 1.42003 -0.683588 0
M  V30 2395 C 251.215 1.55625 -0.353976 0
M  V30 2396 C 251.415 1.66151 1.14 0
M  V30 2397 O 250.471 1.63329 1.92561 0
M  V30 2398 C 251.784 2.80171 -1.092 0
M  V30 2399 C 253.332 2.93954 -1.07518 0
M  V30 2400 C 253.807 4.21372 -1.79471 0
M  V30 2401 N 255.298 4.28303 -1.76381 0
M  V30 2402 C 256.033 5.25729 -2.28904 0
M  V30 2403 N 255.529 6.29254 -2.89846 0
M  V30 2404 N 257.322 5.17586 -2.19228 0
M  V30 2405 H 249.473 1.33415 -1.6527 0
M  V30 2406 H 251.736 0.64282 -0.696769 0
M  V30 2407 H 251.442 2.78561 -2.14701 0
M  V30 2408 H 251.316 3.7133 -0.662862 0
M  V30 2409 H 253.703 2.95086 -0.028475 0
M  V30 2410 H 253.784 2.04002 -1.54328 0
M  V30 2411 H 253.428 4.21001 -2.84114 0
M  V30 2412 H 253.358 5.10275 -1.30104 0
M  V30 2413 H 255.849 3.54119 -1.31939 0
M  V30 2414 H 256.162 6.99964 -3.27522 0
M  V30 2415 H 254.507 6.29791 -2.93919 0
M  V30 2416 H 257.698 4.35631 -1.71299 0
M  V30 2417 H 257.871 5.93348 -2.60466 0
M  V30 2418 N 251.277 0.427512 1.51691 0
M  V30 2419 C 252.187 -0.39527 2.31246 0
M  V30 2420 C 253.203 -1.03674 1.39742 0
M  V30 2421 O 254.379 -1.03425 1.72816 0
M  V30 2422 C 251.444 -1.48706 3.13189 0
M  V30 2423 C 250.505 -0.866743 4.20459 0
M  V30 2424 C 249.738 -1.90651 4.98486 0
M  V30 2425 O 249.961 -3.12733 4.77026 0
M  V30 2426 O 248.895 -1.5025 5.82845 0
M  V30 2427 H 252.721 0.253918 3.02637 0
M  V30 2428 H 250.306 0.190274 1.48183 0
M  V30 2429 H 252.188 -2.12047 3.64162 0
M  V30 2430 H 250.863 -2.12051 2.44573 0
M  V30 2431 H 249.77 -0.195544 3.73589 0
M  V30 2432 H 251.103 -0.276934 4.9142 0
M  V30 2433 N 252.755 -1.56801 0.158532 0
M  V30 2434 C 253.718 -2.16138 -0.762705 0
M  V30 2435 C 254.718 -1.1061 -1.16713 0
M  V30 2436 O 255.908 -1.36191 -1.08617 0
M  V30 2437 C 253.04 -2.73386 -2.03649 0
M  V30 2438 H 254.233 -2.98886 -0.246354 0
M  V30 2439 H 251.786 -1.56035 -0.0909744 0
M  V30 2440 H 252.521 -1.94335 -2.59623 0
M  V30 2441 H 252.306 -3.50601 -1.75559 0
M  V30 2442 H 253.796 -3.19065 -2.6942 0
M  V30 2443 N 254.233 0.115231 -1.57178 0
M  V30 2444 C 255.196 1.12526 -1.99676 0
M  V30 2445 C 256.196 1.34095 -0.88742 0
M  V30 2446 O 257.386 1.30548 -1.15337 0
M  V30 2447 C 254.518 2.4789 -2.34015 0
M  V30 2448 H 255.711 0.759912 -2.90113 0
M  V30 2449 H 253.264 0.359648 -1.52106 0
M  V30 2450 H 253.999 2.89339 -1.4647 0
M  V30 2451 H 253.784 2.33588 -3.14927 0
M  V30 2452 H 255.274 3.20575 -2.67622 0
M  V30 2453 N 255.711 1.52812 0.385517 0
M  V30 2454 C 256.674 1.77188 1.45386 0
M  V30 2455 C 257.674 0.641953 1.4743 0
M  V30 2456 O 258.864 0.910033 1.4854 0
M  V30 2457 C 255.996 1.87582 2.8465 0
M  V30 2458 H 257.189 2.72583 1.25054 0
M  V30 2459 H 254.742 1.43586 0.617467 0
M  V30 2460 H 255.477 0.941849 3.10322 0
M  V30 2461 H 255.262 2.69748 2.84567 0
M  V30 2462 H 256.752 2.08102 3.62054 0
M  V30 2463 N 257.189 -0.644168 1.43834 0
M  V30 2464 C 258.419 -1.42939 1.49171 0
M  V30 2465 C 258.827 -1.88874 0.111048 0
M  V30 2466 O 258.17 -1.60656 -0.8908 0
M  V30 2467 C 258.232 -2.69151 2.38324 0
M  V30 2468 C 257.896 -2.45097 3.85715 0
M  V30 2469 C 258.893 -2.07747 4.76589 0
M  V30 2470 C 256.578 -2.59141 4.30292 0
M  V30 2471 C 258.572 -1.8475 6.10038 0
M  V30 2472 C 256.259 -2.35759 5.63792 0
M  V30 2473 C 257.257 -1.9862 6.53482 0
M  V30 2474 O 256.945 -1.75489 7.84512 0
M  V30 2475 H 256.677 -0.445271 0.508635 0
M  V30 2476 H 259.231 -0.79621 1.8934 0
M  V30 2477 H 257.461 -3.3506 1.93058 0
M  V30 2478 H 259.15 -3.31123 2.3476 0
M  V30 2479 H 259.916 -1.96465 4.43426 0
M  V30 2480 H 255.795 -2.87022 3.60749 0
M  V30 2481 H 259.339 -1.55686 6.80006 0
M  V30 2482 H 255.236 -2.46646 5.9652 0
M  V30 2483 H 256.004 -1.89841 7.9618 0
M  V30 2484 N 258.668 -1.30515 -0.883378 0
M  V30 2485 C 259.598 -1.19607 -2.00541 0
M  V30 2486 C 260.579 -0.086346 -1.69881 0
M  V30 2487 O 261.764 -0.268654 -1.92333 0
M  V30 2488 C 258.894 -0.888758 -3.35736 0
M  V30 2489 C 257.848 -1.95659 -3.8066 0
M  V30 2490 C 257.174 -1.50224 -5.13164 0
M  V30 2491 C 258.474 -3.36788 -3.99213 0
M  V30 2492 H 260.168 -2.13476 -2.09925 0
M  V30 2493 H 257.714 -1.02775 -1.00863 0
M  V30 2494 H 259.667 -0.799094 -4.13754 0
M  V30 2495 H 258.391 0.0856125 -3.26488 0
M  V30 2496 H 257.05 -2.03591 -3.04871 0
M  V30 2497 H 256.698 -0.516092 -5.00345 0
M  V30 2498 H 256.398 -2.2165 -5.44192 0
M  V30 2499 H 257.922 -1.42639 -5.93706 0
M  V30 2500 H 259.336 -3.31605 -4.67665 0
M  V30 2501 H 257.733 -4.06314 -4.41621 0
M  V30 2502 H 258.803 -3.78561 -3.03017 0
M  V30 2503 N 260.146 1.09593 -1.13257 0
M  V30 2504 C 261.096 2.14345 -0.777179 0
M  V30 2505 C 262.08 1.59277 0.227966 0
M  V30 2506 O 263.272 1.76971 0.0321413 0
M  V30 2507 C 260.401 3.42439 -0.242991 0
M  V30 2508 C 259.487 4.04419 -1.27694 0
M  V30 2509 N 259.878 4.40979 -2.47732 0
M  V30 2510 C 258.176 4.31596 -1.12432 0
M  V30 2511 C 258.877 4.89784 -3.13826 0
M  V30 2512 N 257.853 4.87133 -2.41252 0
M  V30 2513 H 261.655 2.40415 -1.69049 0
M  V30 2514 H 259.169 1.26803 -1.01463 0
M  V30 2515 H 261.166 4.16889 0.0298496 0
M  V30 2516 H 259.826 3.17824 0.66467 0
M  V30 2517 H 260.837 4.32396 -2.85051 0
M  V30 2518 H 257.514 4.16595 -0.274684 0
M  V30 2519 H 258.904 5.2755 -4.16102 0
M  V30 2520 N 261.624 0.925811 1.2754 0
M  V30 2521 C 262.872 0.564138 1.94067 0
M  V30 2522 C 263.193 -0.897188 1.73134 0
M  V30 2523 O 262.463 -1.63573 1.07799 0
M  V30 2524 H 261.043 0.205645 0.718136 0
M  V30 2525 H 263.705 1.1778 1.55287 0
M  V30 2526 H 262.801 0.76881 3.02483 0
M  V30 2527 N 263.102 -1.41638 0.69111 0
M  V30 2528 C 264.518 -1.55435 0.362224 0
M  V30 2529 C 264.718 -1.66754 -1.13117 0
M  V30 2530 O 263.774 -1.64348 -1.91692 0
M  V30 2531 C 265.087 -2.79588 1.10684 0
M  V30 2532 C 266.635 -2.9338 1.09075 0
M  V30 2533 C 267.11 -4.20414 1.81703 0
M  V30 2534 N 268.601 -4.27362 1.7865 0
M  V30 2535 C 269.336 -5.24507 2.31689 0
M  V30 2536 N 268.832 -6.27708 2.93179 0
M  V30 2537 N 270.625 -5.16416 2.2197 0
M  V30 2538 H 262.776 -1.32536 1.65976 0
M  V30 2539 H 265.039 -0.639115 0.700168 0
M  V30 2540 H 264.745 -2.77419 2.16175 0
M  V30 2541 H 264.619 -3.70973 0.682545 0
M  V30 2542 H 267.006 -2.95067 0.0441238 0
M  V30 2543 H 267.087 -2.0318 1.55407 0
M  V30 2544 H 266.731 -4.19488 2.86343 0
M  V30 2545 H 266.661 -5.09578 1.32808 0
M  V30 2546 H 269.152 -3.53415 1.33815 0
M  V30 2547 H 269.465 -6.98217 3.31229 0
M  V30 2548 H 267.81 -6.28223 2.97255 0
M  V30 2549 H 271.001 -4.34716 1.73607 0
M  V30 2550 H 271.174 -5.91958 2.63609 0
M  V30 2551 N 264.58 -0.43555 -1.51462 0
M  V30 2552 C 265.51 0.367376 -2.30592 0
M  V30 2553 C 266.491 1.02263 -1.35928 0
M  V30 2554 O 267.676 1.02661 -1.64847 0
M  V30 2555 C 264.806 1.46983 -3.14664 0
M  V30 2556 C 263.76 0.938161 -4.17591 0
M  V30 2557 C 263.086 2.13622 -4.90173 0
M  V30 2558 C 264.386 -0.0261621 -5.22293 0
M  V30 2559 H 266.08 -0.292969 -2.97963 0
M  V30 2560 H 263.626 -0.14234 -1.43295 0
M  V30 2561 H 265.579 2.03873 -3.688 0
M  V30 2562 H 264.303 2.15843 -2.4511 0
M  V30 2563 H 262.962 0.391481 -3.64504 0
M  V30 2564 H 262.61 2.81098 -4.17124 0
M  V30 2565 H 262.31 1.78688 -5.59772 0
M  V30 2566 H 263.834 2.7107 -5.47132 0
M  V30 2567 H 265.248 0.452384 -5.71512 0
M  V30 2568 H 263.645 -0.287992 -5.99409 0
M  V30 2569 H 264.715 -0.963391 -4.75233 0
M  V30 2570 N 266.058 1.56714 -0.166846 0
M  V30 2571 C 266.99 2.14914 0.796537 0
M  V30 2572 C 268.003 1.10357 1.19688 0
M  V30 2573 O 269.192 1.37561 1.13751 0
M  V30 2574 C 266.292 2.67326 2.08303 0
M  V30 2575 C 265.465 3.96493 1.84696 0
M  V30 2576 C 264.524 4.34014 2.97521 0
M  V30 2577 O 263.55 5.01973 2.6835 0
M  V30 2578 N 264.752 3.95208 4.25196 0
M  V30 2579 H 267.517 2.98205 0.299006 0
M  V30 2580 H 265.078 1.61892 0.0160839 0
M  V30 2581 H 267.07 2.89428 2.82867 0
M  V30 2582 H 265.64 1.88649 2.4926 0
M  V30 2583 H 264.86 3.82814 0.940602 0
M  V30 2584 H 266.148 4.8086 1.66285 0
M  V30 2585 H 265.546 3.40487 4.51758 0
M  V30 2586 H 264.103 4.2232 4.96477 0
M  V30 2587 N 267.536 -0.106894 1.57237 0
M  V30 2588 C 268.499 -1.11466 2.0027 0
M  V30 2589 C 269.499 -1.33623 0.894519 0
M  V30 2590 O 270.689 -1.29935 1.16028 0
M  V30 2591 C 267.821 -2.46646 2.35327 0
M  V30 2592 H 269.014 -0.744516 2.90512 0
M  V30 2593 H 266.567 -0.351576 1.52295 0
M  V30 2594 H 267.302 -2.88558 1.48003 0
M  V30 2595 H 267.087 -2.31915 3.16161 0
M  V30 2596 H 268.577 -3.19151 2.69318 0
M  V30 2597 N 269.014 -1.53014 -0.377408 0
M  V30 2598 C 269.944 -1.81589 -1.46791 0
M  V30 2599 C 270.925 -0.668622 -1.56408 0
M  V30 2600 O 272.11 -0.917337 -1.71168 0
M  V30 2601 C 269.24 -1.99519 -2.8427 0
M  V30 2602 C 268.194 -3.15249 -2.89486 0
M  V30 2603 C 267.52 -3.18451 -4.29527 0
M  V30 2604 C 268.82 -4.54084 -2.58079 0
M  V30 2605 H 270.514 -2.7291 -1.23127 0
M  V30 2606 H 268.06 -1.31319 -0.590883 0
M  V30 2607 H 270.013 -2.18092 -3.60575 0
M  V30 2608 H 268.737 -1.04897 -3.09296 0
M  V30 2609 H 267.396 -2.96477 -2.15631 0
M  V30 2610 H 267.044 -2.2149 -4.5161 0
M  V30 2611 H 266.744 -3.962 -4.33934 0
M  V30 2612 H 268.268 -3.39193 -5.07721 0
M  V30 2613 H 269.682 -4.72899 -3.24098 0
M  V30 2614 H 268.079 -5.33987 -2.7382 0
M  V30 2615 H 269.149 -4.60006 -1.53372 0
M  V30 2616 N 270.492 0.636531 -1.44174 0
M  V30 2617 C 271.74 1.39343 -1.46383 0
M  V30 2618 C 272.061 1.94766 -0.0955715 0
M  V30 2619 O 271.331 1.75452 0.871395 0
M  V30 2620 H 269.911 0.517199 -0.538994 0
M  V30 2621 H 272.573 0.74957 -1.7991 0
M  V30 2622 H 271.669 2.22746 -2.18611 0
M  V30 2623 N 271.97 1.30982 0.876444 0
M  V30 2624 C 272.9 1.20668 1.99903 0
M  V30 2625 C 273.881 0.095354 1.69833 0
M  V30 2626 O 275.066 0.27885 1.92188 0
M  V30 2627 C 272.196 0.90655 3.3526 0
M  V30 2628 C 271.15 1.97675 3.79617 0
M  V30 2629 C 270.476 1.52943 5.1236 0
M  V30 2630 C 271.776 3.389 3.97422 0
M  V30 2631 H 273.47 2.14586 2.0879 0
M  V30 2632 H 271.016 1.03308 1.00317 0
M  V30 2633 H 272.969 0.821025 4.13324 0
M  V30 2634 H 271.693 -0.0682969 3.26529 0
M  V30 2635 H 270.352 2.05205 3.03787 0
M  V30 2636 H 270 0.54262 5.00065 0
M  V30 2637 H 269.7 2.24532 5.43009 0
M  V30 2638 H 271.224 1.45786 5.92941 0
M  V30 2639 H 272.638 3.34081 4.659 0
M  V30 2640 H 271.035 4.0865 4.3946 0
M  V30 2641 H 272.105 3.80163 3.01006 0
M  V30 2642 N 273.449 -1.08991 1.13837 0
M  V30 2643 C 274.381 -2.15606 0.777612 0
M  V30 2644 C 275.394 -1.61533 -0.202739 0
M  V30 2645 O 276.583 -1.78491 0.0181055 0
M  V30 2646 C 273.683 -3.3864 0.132623 0
M  V30 2647 C 272.856 -4.22115 1.1462 0
M  V30 2648 C 271.915 -5.23564 0.526074 0
M  V30 2649 O 270.941 -5.56678 1.18735 0
M  V30 2650 N 272.143 -5.76266 -0.699866 0
M  V30 2651 H 274.908 -2.47159 1.69506 0
M  V30 2652 H 272.469 -1.24747 1.03198 0
M  V30 2653 H 274.461 -4.03626 -0.29459 0
M  V30 2654 H 273.031 -3.04938 -0.687849 0
M  V30 2655 H 272.251 -3.53199 1.75055 0
M  V30 2656 H 273.539 -4.74709 1.83109 0
M  V30 2657 H 272.937 -5.51585 -1.25581 0
M  V30 2658 H 271.494 -6.42963 -1.06968 0
M  V30 2659 N 274.927 -0.932562 -1.27047 0
M  V30 2660 C 275.857 -0.452902 -2.29066 0
M  V30 2661 C 276.838 0.489338 -1.62909 0
M  V30 2662 O 278.023 0.393046 -1.90181 0
M  V30 2663 C 275.153 0.290698 -3.46081 0
M  V30 2664 C 274.107 -0.564168 -4.24265 0
M  V30 2665 C 273.433 0.308886 -5.33807 0
M  V30 2666 C 274.733 -1.83112 -4.89149 0
M  V30 2667 H 276.427 -1.30552 -2.69437 0
M  V30 2668 H 273.973 -0.629201 -1.29526 0
M  V30 2669 H 275.926 0.637233 -4.16554 0
M  V30 2670 H 274.65 1.17738 -3.0464 0
M  V30 2671 H 273.309 -0.893477 -3.55545 0
M  V30 2672 H 272.957 1.19467 -4.88607 0
M  V30 2673 H 272.657 -0.259633 -5.87026 0
M  V30 2674 H 274.181 0.650884 -6.07121 0
M  V30 2675 H 275.595 -1.55236 -5.51883 0
M  V30 2676 H 273.992 -2.34353 -5.52448 0
M  V30 2677 H 275.062 -2.54772 -4.12576 0
M  V30 2678 N 276.405 1.4127 -0.698611 0
M  V30 2679 C 277.652 2.0118 -0.230865 0
M  V30 2680 C 277.98 1.55338 1.17049 0
M  V30 2681 O 277.235 0.756775 1.80475 0
M  V30 2682 C 277.534 3.56592 -0.240192 0
M  V30 2683 C 277.2 4.21955 -1.58948 0
M  V30 2684 C 275.862 4.39524 -1.95887 0
M  V30 2685 C 278.214 4.58576 -2.47704 0
M  V30 2686 C 275.542 4.90992 -3.2116 0
M  V30 2687 C 277.894 5.11435 -3.72313 0
M  V30 2688 C 276.558 5.27215 -4.0939 0
M  V30 2689 H 275.828 0.736169 -0.0844796 0
M  V30 2690 H 278.475 1.69124 -0.8983 0
M  V30 2691 H 276.78 3.88456 0.510797 0
M  V30 2692 H 278.477 4.00758 0.139296 0
M  V30 2693 H 275.067 4.08657 -1.29219 0
M  V30 2694 H 279.251 4.44654 -2.20445 0
M  V30 2695 H 274.507 5.01393 -3.49878 0
M  V30 2696 H 278.681 5.38752 -4.4127 0
M  V30 2697 H 276.308 5.66859 -5.06533 0
M  V30 2698 N 277.883 0.443576 1.51229 0
M  V30 2699 C 279.129 -0.120975 2.02439 0
M  V30 2700 C 279.462 -1.41815 1.32674 0
M  V30 2701 O 278.737 -1.89373 0.443622 0
M  V30 2702 C 279.02 -0.333291 3.58554 0
M  V30 2703 C 278.873 0.982968 4.38928 0
M  V30 2704 C 280.192 -1.10028 4.26124 0
M  V30 2705 H 277.311 -0.0424923 0.735774 0
M  V30 2706 H 279.953 0.583794 1.80809 0
M  V30 2707 H 278.103 -0.933614 3.77115 0
M  V30 2708 H 279.775 1.61775 4.32003 0
M  V30 2709 H 278.018 1.58611 4.03763 0
M  V30 2710 H 278.689 0.788379 5.46341 0
M  V30 2711 H 281.165 -0.591711 4.11871 0
M  V30 2712 H 280.041 -1.21761 5.35225 0
M  V30 2713 H 280.302 -2.12996 3.87408 0
M  V30 2714 N 279.361 -1.56624 0.175154 0
M  V30 2715 C 280.308 -2.18149 -0.753634 0
M  V30 2716 C 281.278 -1.12265 -1.22417 0
M  V30 2717 O 282.463 -1.40432 -1.29165 0
M  V30 2718 C 279.603 -2.82933 -1.97592 0
M  V30 2719 C 278.716 -4.03289 -1.5486 0
M  V30 2720 C 277.851 -4.55988 -2.72485 0
M  V30 2721 C 276.89 -5.68746 -2.26262 0
M  V30 2722 N 276.027 -6.15938 -3.36994 0
M  V30 2723 H 280.867 -2.9717 -0.222195 0
M  V30 2724 H 278.404 -1.46774 -0.0979422 0
M  V30 2725 H 280.362 -3.18653 -2.69288 0
M  V30 2726 H 278.992 -2.06509 -2.481 0
M  V30 2727 H 278.044 -3.73364 -0.728246 0
M  V30 2728 H 279.356 -4.849 -1.16933 0
M  V30 2729 H 278.51 -4.9391 -3.52332 0
M  V30 2730 H 277.249 -3.73443 -3.13674 0
M  V30 2731 H 276.254 -5.30372 -1.44863 0
M  V30 2732 H 277.479 -6.53095 -1.86127 0
M  V30 2733 H 275.425 -5.36321 -3.77751 0
M  V30 2734 H 275.342 -6.92548 -3.03172 0
M  V30 2735 H 276.61 -6.58511 -4.17114 0
M  V30 2736 N 280.839 0.0985539 -1.57292 0
M  V30 2737 C 282.116 0.834155 -1.76921 0
M  V30 2738 C 282.496 1.97101 -0.755928 0
M  V30 2739 O 281.844 2.27474 0.216245 0
M  V30 2740 C 282.054 1.33194 -3.22584 0
M  V30 2741 C 283.402 1.77611 -3.85668 0
M  V30 2742 O 284.426 1.42825 -3.26312 0
M  V30 2743 O 283.285 2.4192 -4.90038 0
M  V30 2744 H 280.379 0.397628 -0.725135 0
M  V30 2745 H 282.925 0.0807044 -1.69508 0
M  V30 2746 H 281.697 0.517248 -3.87866 0
M  V30 2747 H 281.32 2.1475 -3.34616 0
M  V30 2748 N 282.317 1.53212 0.369288 0
M  V30 2749 C 283.728 1.60943 0.946276 0
M  V30 2750 C 284.079 0.47452 1.90375 0
M  V30 2751 O 283.204 -0.399597 2.12679 0
M  V30 2752 C 283.799 2.91715 1.72302 0
M  V30 2753 C 282.358 3.01792 2.24941 0
M  V30 2754 C 281.505 2.56211 1.06072 0
M  V30 2755 H 284.456 1.58007 0.148198 0
M  V30 2756 H 284.477 2.79309 2.58393 0
M  V30 2757 H 283.989 3.74295 1.0259 0
M  V30 2758 H 282.09 2.23791 2.97906 0
M  V30 2759 H 282.203 4.06803 2.53077 0
M  V30 2760 H 280.567 2.10998 1.4266 0
M  V30 2761 H 281.35 3.41206 0.378639 0
M  V30 2762 N 283.795 -0.628877 1.44509 0
M  V30 2763 C 284.758 -1.72263 1.51188 0
M  V30 2764 C 285.758 -1.55907 0.39367 0
M  V30 2765 O 286.948 -1.61361 0.656377 0
M  V30 2766 C 284.08 -3.11365 1.38798 0
M  V30 2767 H 285.273 -1.67714 2.4862 0
M  V30 2768 H 282.826 -0.842737 1.31634 0
M  V30 2769 H 283.561 -3.21507 0.424693 0
M  V30 2770 H 283.346 -3.24644 2.19884 0
M  V30 2771 H 284.836 -3.91075 1.46458 0
M  V30 2772 N 285.273 -1.31445 -0.869486 0
M  V30 2773 C 286.203 -1.21727 -1.99261 0
M  V30 2774 C 287.184 -0.104359 -1.6978 0
M  V30 2775 O 288.369 -0.289038 -1.92037 0
M  V30 2776 C 285.499 -0.924317 -3.34774 0
M  V30 2777 C 284.453 -1.99685 -3.78563 0
M  V30 2778 C 283.779 -1.55658 -5.11541 0
M  V30 2779 C 285.079 -3.41003 -3.95619 0
M  V30 2780 H 286.773 -2.1569 -2.07649 0
M  V30 2781 H 284.319 -1.03839 -0.997675 0
M  V30 2782 H 286.272 -0.842934 -4.12883 0
M  V30 2783 H 284.996 0.0509793 -3.2656 0
M  V30 2784 H 283.655 -2.06813 -3.02694 0
M  V30 2785 H 283.303 -0.569132 -4.9977 0
M  V30 2786 H 283.003 -2.27409 -5.41811 0
M  V30 2787 H 284.527 -1.48928 -5.92159 0
M  V30 2788 H 285.941 -3.36547 -4.64122 0
M  V30 2789 H 284.338 -4.10975 -4.37286 0
M  V30 2790 H 285.408 -3.81754 -2.98985 0
M  V30 2791 N 286.751 1.08385 -1.14413 0
M  V30 2792 C 288.167 1.32844 -0.884563 0
M  V30 2793 C 288.367 1.95841 0.474181 0
M  V30 2794 O 287.423 2.21158 1.21842 0
M  V30 2795 C 288.736 2.22978 -2.01745 0
M  V30 2796 C 290.284 2.36458 -2.05077 0
M  V30 2797 C 290.759 3.29934 -3.1766 0
M  V30 2798 N 292.25 3.37511 -3.17239 0
M  V30 2799 C 292.985 4.09871 -4.0099 0
M  V30 2800 N 292.481 4.84936 -4.94781 0
M  V30 2801 N 294.274 4.05704 -3.89051 0
M  V30 2802 H 286.425 0.658756 -2.01926 0
M  V30 2803 H 288.688 0.352821 -0.879899 0
M  V30 2804 H 288.394 1.83934 -2.99769 0
M  V30 2805 H 288.268 3.23441 -1.94077 0
M  V30 2806 H 290.655 2.7476 -1.0766 0
M  V30 2807 H 290.736 1.35736 -2.16816 0
M  V30 2808 H 290.38 2.92352 -4.15322 0
M  V30 2809 H 290.31 4.30584 -3.03158 0
M  V30 2810 H 292.801 2.83996 -2.49308 0
M  V30 2811 H 293.114 5.37612 -5.55151 0
M  V30 2812 H 291.459 4.83988 -4.98779 0
M  V30 2813 H 294.65 3.46167 -3.15097 0
M  V30 2814 H 294.823 4.61834 -4.54547 0
M  V30 2815 N 288.23 0.939286 1.26551 0
M  V30 2816 C 289.16 0.465044 2.28822 0
M  V30 2817 C 290.141 -0.480692 1.63167 0
M  V30 2818 O 291.326 -0.382955 1.90387 0
M  V30 2819 C 288.456 -0.27234 3.46231 0
M  V30 2820 C 287.41 0.58666 4.2396 0
M  V30 2821 C 286.736 -0.280573 5.33963 0
M  V30 2822 C 288.036 1.85704 4.88171 0
M  V30 2823 H 289.73 1.31979 2.68741 0
M  V30 2824 H 287.276 0.636061 1.29191 0
M  V30 2825 H 289.229 -0.615133 4.16886 0
M  V30 2826 H 287.953 -1.16121 3.0526 0
M  V30 2827 H 286.612 0.91232 3.55067 0
M  V30 2828 H 286.26 -1.16874 4.89234 0
M  V30 2829 H 285.96 0.29076 5.8688 0
M  V30 2830 H 287.484 -0.618678 6.07458 0
M  V30 2831 H 288.898 1.58161 5.51052 0
M  V30 2832 H 287.295 2.37279 5.51197 0
M  V30 2833 H 288.365 2.56957 4.11219 0
M  V30 2834 N 289.708 -1.40897 0.706093 0
M  V30 2835 C 291.119 -1.84023 0.315052 0
M  V30 2836 C 291.47 -1.5906 -1.14866 0
M  V30 2837 O 290.595 -1.06651 -1.88293 0
M  V30 2838 C 291.19 -3.34055 0.565038 0
M  V30 2839 C 289.749 -3.7571 0.227806 0
M  V30 2840 C 288.896 -2.64204 0.842122 0
M  V30 2841 H 291.847 -1.303 0.905963 0
M  V30 2842 H 291.868 -3.80107 -0.172843 0
M  V30 2843 H 291.38 -3.52192 1.63042 0
M  V30 2844 H 289.481 -3.63172 -0.832895 0
M  V30 2845 H 289.594 -4.74103 0.690174 0
M  V30 2846 H 287.958 -2.53255 0.270893 0
M  V30 2847 H 288.741 -2.85155 1.91158 0
M  V30 2848 N 291.186 -0.45159 -1.50991 0
M  V30 2849 C 292.414 0.108334 -2.06616 0
M  V30 2850 C 292.829 1.35224 -1.31757 0
M  V30 2851 O 292.186 1.78475 -0.381174 0
M  V30 2852 C 292.237 0.41619 -3.59096 0
M  V30 2853 O 291.958 -0.778361 -4.3113 0
M  V30 2854 C 293.459 1.02523 -4.31282 0
M  V30 2855 H 290.679 0.00159995 -0.670998 0
M  V30 2856 H 293.223 -0.634771 -1.94399 0
M  V30 2857 H 291.378 1.10921 -3.71181 0
M  V30 2858 H 291.792 -0.511181 -5.22003 0
M  V30 2859 H 293.266 1.19053 -5.39009 0
M  V30 2860 H 293.743 2.01013 -3.905 0
M  V30 2861 H 294.349 0.371173 -4.23677 0
M  V30 2862 N 292.664 1.56529 -0.183458 0
M  V30 2863 C 293.91 1.97537 0.459036 0
M  V30 2864 C 294.243 1.06989 1.62071 0
M  V30 2865 O 293.518 0.11948 1.94133 0
M  V30 2866 C 293.801 3.47874 0.930368 0
M  V30 2867 C 293.654 4.492 -0.232317 0
M  V30 2868 C 294.973 4.01612 1.79989 0
M  V30 2869 H 292.092 0.718204 0.165383 0
M  V30 2870 H 294.734 1.88042 -0.272038 0
M  V30 2871 H 292.884 3.56095 1.55333 0
M  V30 2872 H 294.556 4.53027 -0.86972 0
M  V30 2873 H 292.799 4.24657 -0.885928 0
M  V30 2874 H 293.47 5.51823 0.139796 0
M  V30 2875 H 295.946 3.96097 1.27461 0
M  V30 2876 H 294.822 5.07195 2.09867 0
M  V30 2877 H 295.083 3.46163 2.74998 0
M  V30 2878 N 294.142 -0.090211 1.57342 0
M  V30 2879 C 295.37 -0.806224 1.90546 0
M  V30 2880 C 295.785 -1.72041 0.777644 0
M  V30 2881 O 295.142 -1.80778 -0.250103 0
M  V30 2882 C 295.193 -1.61546 3.23396 0
M  V30 2883 O 294.914 -0.738043 4.31839 0
M  V30 2884 C 296.415 -2.4341 3.70495 0
M  V30 2885 H 293.635 -0.230256 0.630257 0
M  V30 2886 H 296.179 -0.0659843 2.04394 0
M  V30 2887 H 294.334 -2.30816 3.11131 0
M  V30 2888 H 294.748 -1.29901 5.08159 0
M  V30 2889 H 296.222 -2.95676 4.66133 0
M  V30 2890 H 296.699 -3.22098 2.98579 0
M  V30 2891 H 297.305 -1.79331 3.85643 0
M  V30 2892 N 295.62 -1.53406 -0.361157 0
M  V30 2893 C 296.848 -1.73717 -1.12383 0
M  V30 2894 C 297.263 -0.468161 -1.82904 0
M  V30 2895 O 296.62 0.559198 -1.73722 0
M  V30 2896 C 296.671 -2.90558 -2.15078 0
M  V30 2897 O 296.392 -4.12549 -1.47428 0
M  V30 2898 C 297.893 -3.22777 -3.03858 0
M  V30 2899 H 295.113 -0.580896 -0.335858 0
M  V30 2900 H 297.657 -2.00167 -0.418728 0
M  V30 2901 H 295.812 -2.66489 -2.8118 0
M  V30 2902 H 296.226 -4.78009 -2.15887 0
M  V30 2903 H 297.7 -4.07927 -3.71887 0
M  V30 2904 H 298.177 -2.38329 -3.68912 0
M  V30 2905 H 298.783 -3.48787 -2.43367 0
M  V30 2906 N 297.098 0.621204 -1.44841 0
M  V30 2907 C 298.344 1.3826 -1.48365 0
M  V30 2908 C 298.677 1.93831 -0.119624 0
M  V30 2909 O 297.952 1.74251 0.864111 0
M  V30 2910 C 298.235 2.54058 -2.55199 0
M  V30 2911 C 298.088 2.03772 -4.00995 0
M  V30 2912 C 299.407 3.56225 -2.58442 0
M  V30 2913 H 296.526 0.501374 -0.540179 0
M  V30 2914 H 299.168 0.7015 -1.76576 0
M  V30 2915 H 297.318 3.12162 -2.31274 0
M  V30 2916 H 298.99 1.50423 -4.36086 0
M  V30 2917 H 297.233 1.34876 -4.12299 0
M  V30 2918 H 297.904 2.87185 -4.71411 0
M  V30 2919 H 300.38 3.07939 -2.79844 0
M  V30 2920 H 299.256 4.34756 -3.3508 0
M  V30 2921 H 299.517 4.10949 -1.63013 0
M  V30 2922 N 298.576 1.31904 0.862503 0
M  V30 2923 C 299.539 1.20131 1.95195 0
M  V30 2924 C 300.539 0.126409 1.60302 0
M  V30 2925 O 301.729 0.376234 1.70089 0
M  V30 2926 C 298.861 0.845691 3.30244 0
M  V30 2927 H 300.054 2.16943 2.07064 0
M  V30 2928 H 297.607 1.15622 1.05172 0
M  V30 2929 H 298.342 -0.120957 3.24074 0
M  V30 2930 H 298.127 1.62276 3.56944 0
M  V30 2931 H 299.617 0.787418 4.10109 0
M  V30 2932 N 300.054 -1.07777 1.14986 0
M  V30 2933 C 301.3 -1.80557 0.923422 0
M  V30 2934 C 301.633 -1.86298 -0.548337 0
M  V30 2935 O 300.908 -1.34354 -1.40639 0
M  V30 2936 C 301.191 -3.25839 1.53299 0
M  V30 2937 C 301.044 -3.28269 3.07505 0
M  V30 2938 C 302.363 -4.22991 1.21518 0
M  V30 2939 H 299.482 -0.655493 0.336894 0
M  V30 2940 H 302.124 -1.26144 1.42083 0
M  V30 2941 H 300.274 -3.72306 1.10999 0
M  V30 2942 H 301.946 -2.90079 3.58681 0
M  V30 2943 H 300.189 -2.67355 3.4162 0
M  V30 2944 H 300.86 -4.30691 3.45266 0
M  V30 2945 H 303.336 -3.84894 1.581 0
M  V30 2946 H 302.212 -5.22945 1.66793 0
M  V30 2947 H 302.473 -4.41904 0.131505 0
M  V30 2948 N 301.532 -0.945985 -1.26051 0
M  V30 2949 C 302.943 -0.638096 -1.75457 0
M  V30 2950 C 303.294 0.846672 -1.76991 0
M  V30 2951 O 302.419 1.66262 -1.38513 0
M  V30 2952 C 303.014 -1.15157 -3.18629 0
M  V30 2953 C 301.573 -0.894004 -3.65629 0
M  V30 2954 C 300.72 -1.29967 -2.44957 0
M  V30 2955 H 303.671 -1.12376 -1.1206 0
M  V30 2956 H 303.692 -0.507615 -3.77099 0
M  V30 2957 H 303.204 -2.23222 -3.1748 0
M  V30 2958 H 301.305 0.172057 -3.72203 0
M  V30 2959 H 301.418 -1.52439 -4.54202 0
M  V30 2960 H 299.782 -0.718078 -2.44368 0
M  V30 2961 H 300.565 -2.38935 -2.46505 0
M  V30 2962 N 303.011 1.40521 -0.713556 0
M  V30 2963 C 303.974 2.29098 -0.0684347 0
M  V30 2964 C 304.974 1.45268 0.689472 0
M  V30 2965 O 306.164 1.66205 0.521677 0
M  V30 2966 C 303.296 3.28446 0.913024 0
M  V30 2967 H 304.489 2.87645 -0.84855 0
M  V30 2968 H 302.042 1.48809 -0.47809 0
M  V30 2969 H 302.777 2.74913 1.72027 0
M  V30 2970 H 302.562 3.90327 0.372472 0
M  V30 2971 H 304.052 3.94777 1.36165 0
M  V30 2972 N 304.489 0.459591 1.5075 0
M  V30 2973 C 305.737 -0.0991532 2.01857 0
M  V30 2974 C 306.058 -1.41247 1.34441 0
M  V30 2975 O 305.328 -1.89775 0.486022 0
M  V30 2976 H 303.908 -0.039633 0.745948 0
M  V30 2977 H 306.57 0.607387 1.85194 0
M  V30 2978 H 305.666 -0.258998 3.11023 0
M  V30 2979 N 305.967 -1.56429 0.191757 0
M  V30 2980 C 307.197 -2.01574 -0.452928 0
M  V30 2981 C 307.605 -1.07107 -1.55964 0
M  V30 2982 O 306.948 -0.067534 -1.83576 0
M  V30 2983 C 307.01 -3.43121 -1.07278 0
M  V30 2984 C 306.674 -4.56879 -0.105214 0
M  V30 2985 C 307.671 -5.15379 0.684149 0
M  V30 2986 C 305.356 -5.023 0.00489824 0
M  V30 2987 C 307.35 -6.17746 1.57062 0
M  V30 2988 C 305.037 -6.04511 0.894935 0
M  V30 2989 C 306.035 -6.62108 1.67637 0
M  V30 2990 O 305.723 -7.62335 2.55149 0
M  V30 2991 H 305.455 -0.665554 -0.118379 0
M  V30 2992 H 308.009 -2.03245 0.296737 0
M  V30 2993 H 306.239 -3.38425 -1.87097 0
M  V30 2994 H 307.928 -3.72093 -1.62177 0
M  V30 2995 H 308.694 -4.81157 0.609365 0
M  V30 2996 H 304.573 -4.57168 -0.593156 0
M  V30 2997 H 308.117 -6.6263 2.181 0
M  V30 2998 H 304.014 -6.38157 0.970847 0
M  V30 2999 H 304.782 -7.79741 2.48892 0
M  V30 3000 N 307.445 0.0818655 -1.57387 0
M  V30 3001 C 308.722 0.815343 -1.77796 0
M  V30 3002 C 309.102 1.96289 -0.77679 0
M  V30 3003 O 308.45 2.27691 0.192106 0
M  V30 3004 C 308.66 1.29765 -3.23978 0
M  V30 3005 C 310.008 1.7351 -3.8753 0
M  V30 3006 O 311.032 1.39356 -3.27808 0
M  V30 3007 O 309.891 2.36708 -4.92576 0
M  V30 3008 H 306.985 0.389914 -0.729312 0
M  V30 3009 H 309.531 0.0627213 -1.69584 0
M  V30 3010 H 308.303 0.47608 -3.88393 0
M  V30 3011 H 307.926 2.11189 -3.36875 0
M  V30 3012 N 308.923 1.53595 0.353017 0
M  V30 3013 C 310.169 1.71581 1.09232 0
M  V30 3014 C 310.524 0.468328 1.86613 0
M  V30 3015 O 309.817 -0.538911 1.83865 0
M  V30 3016 C 310.011 2.91313 2.07054 0
M  V30 3017 C 309.84 4.27585 1.39287 0
M  V30 3018 C 308.61 4.92233 1.1417 0
M  V30 3019 C 310.808 5.07656 0.824005 0
M  V30 3020 N 308.79 6.124 0.428841 0
M  V30 3021 C 310.161 6.19531 0.241195 0
M  V30 3022 C 312.216 4.92609 0.723922 0
M  V30 3023 C 310.919 7.18002 -0.431952 0
M  V30 3024 C 312.945 5.91365 0.0645334 0
M  V30 3025 C 312.307 7.02571 -0.507347 0
M  V30 3026 H 308.406 0.680987 0.384422 0
M  V30 3027 H 310.99 1.91013 0.377096 0
M  V30 3028 H 309.161 2.73398 2.75877 0
M  V30 3029 H 310.893 2.98062 2.73753 0
M  V30 3030 H 307.648 4.51612 1.42631 0
M  V30 3031 H 308.072 6.76944 0.0874131 0
M  V30 3032 H 312.714 4.06808 1.15181 0
M  V30 3033 H 310.432 8.03384 -0.871758 0
M  V30 3034 H 314.018 5.81799 -0.0121469 0
M  V30 3035 H 312.898 7.77675 -1.0095 0
M  V30 3036 N 310.401 -0.613514 1.45168 0
M  V30 3037 C 311.817 -0.933629 1.29443 0
M  V30 3038 C 312.017 -2.00028 0.243101 0
M  V30 3039 O 311.073 -2.49848 -0.364992 0
M  V30 3040 C 312.386 -1.38018 2.67155 0
M  V30 3041 C 313.934 -1.49471 2.75004 0
M  V30 3042 C 314.409 -1.97503 4.13227 0
M  V30 3043 N 315.9 -2.04746 4.15491 0
M  V30 3044 C 316.635 -2.43121 5.19307 0
M  V30 3045 N 316.131 -2.80506 6.33473 0
M  V30 3046 N 317.924 -2.43408 5.06664 0
M  V30 3047 H 310.075 0.0916097 2.12202 0
M  V30 3048 H 312.338 -0.0216655 0.947752 0
M  V30 3049 H 312.044 -0.670625 3.45247 0
M  V30 3050 H 311.918 -2.34784 2.95222 0
M  V30 3051 H 314.305 -2.19519 1.9722 0
M  V30 3052 H 314.386 -0.510342 2.50657 0
M  V30 3053 H 314.03 -1.28045 4.91495 0
M  V30 3054 H 313.96 -2.96843 4.34962 0
M  V30 3055 H 316.451 -1.78468 3.33103 0
M  V30 3056 H 316.764 -3.08652 7.08487 0
M  V30 3057 H 315.109 -2.78216 6.36884 0
M  V30 3058 H 318.3 -2.13604 4.16523 0
M  V30 3059 H 318.473 -2.72989 5.87691 0
M  V30 3060 N 311.879 -1.3236 -0.855495 0
M  V30 3061 C 313.156 -1.13491 -1.59309 0
M  V30 3062 C 313.536 0.30503 -2.08885 0
M  V30 3063 O 312.884 1.30151 -1.87811 0
M  V30 3064 C 313.094 -2.16176 -2.73987 0
M  V30 3065 C 314.442 -2.49463 -3.43589 0
M  V30 3066 O 315.466 -2.14715 -2.84211 0
M  V30 3067 O 314.325 -3.09027 -4.50738 0
M  V30 3068 H 311.419 -0.437887 -0.701559 0
M  V30 3069 H 313.965 -1.43887 -0.899696 0
M  V30 3070 H 312.737 -3.1297 -2.34873 0
M  V30 3071 H 312.36 -1.86769 -3.51003 0
M  V30 3072 N 313.357 1.07166 -1.15556 0
M  V30 3073 C 314.606 1.79181 -0.926132 0
M  V30 3074 C 314.919 1.87768 0.547967 0
M  V30 3075 O 316.125 2.56323 0.895036 0
M  V30 3076 C 314.581 3.22 -1.60761 0
M  V30 3077 C 314.189 3.21607 -3.11886 0
M  V30 3078 C 315.933 3.9861 -1.4598 0
M  V30 3079 C 313.84 4.59092 -3.72812 0
M  V30 3080 H 312.77 0.67154 -0.342856 0
M  V30 3081 H 315.421 1.2027 -1.3859 0
M  V30 3082 H 313.803 3.81115 -1.07553 0
M  V30 3083 H 314.977 2.72127 -3.71865 0
M  V30 3084 H 313.292 2.58495 -3.2645 0
M  V30 3085 H 315.889 5.00225 -1.88888 0
M  V30 3086 H 316.232 4.143 -0.407541 0
M  V30 3087 H 316.765 3.45996 -1.96295 0
M  V30 3088 H 313.504 4.48606 -4.77946 0
M  V30 3089 H 313.024 5.08803 -3.17616 0
M  V30 3090 H 314.703 5.28059 -3.73848 0
M  V30 3091 N 314.835 0.952656 1.25548 0
M  V30 3092 C 316.081 0.607272 1.93494 0
M  V30 3093 C 316.414 -0.853245 1.74452 0
M  V30 3094 O 315.689 -1.61194 1.08843 0
M  V30 3095 C 315.972 0.96435 3.46947 0
M  V30 3096 C 315.825 2.48045 3.75225 0
M  V30 3097 C 317.144 0.487987 4.37386 0
M  V30 3098 H 314.263 0.222096 0.702739 0
M  V30 3099 H 316.905 1.18895 1.48203 0
M  V30 3100 H 315.055 0.469361 3.85654 0
M  V30 3101 H 316.727 3.04905 3.46166 0
M  V30 3102 H 314.97 2.919 3.209 0
M  V30 3103 H 315.641 2.6808 4.82532 0
M  V30 3104 H 318.117 0.912558 4.0597 0
M  V30 3105 H 316.993 0.766547 5.43521 0
M  V30 3106 H 317.254 -0.612063 4.37843 0
M  V30 3107 N 316.313 -1.40141 0.720998 0
M  V30 3108 C 317.538 -2.05618 0.271258 0
M  V30 3109 C 317.963 -1.53978 -1.08039 0
M  V30 3110 O 317.321 -0.677463 -1.68167 0
M  V30 3111 C 317.369 -3.59609 0.267197 0
M  V30 3112 O 316.473 -4.05526 -0.749814 0
M  V30 3113 H 315.814 -0.651904 0.126162 0
M  V30 3114 H 318.344 -1.79439 0.982997 0
M  V30 3115 H 318.354 -4.0786 0.106744 0
M  V30 3116 H 317.029 -3.96559 1.25354 0
M  V30 3117 H 315.606 -3.68722 -0.556644 0
M  V30 3118 N 317.792 -0.46758 -1.50504 0
M  V30 3119 C 319.022 0.086288 -2.0642 0
M  V30 3120 C 319.43 1.34369 -1.33197 0
M  V30 3121 O 318.773 1.79431 -0.393747 0
M  V30 3122 C 318.835 0.443846 -3.5675 0
M  V30 3123 C 318.499 -0.711035 -4.51435 0
M  V30 3124 C 319.496 -1.59205 -4.94924 0
M  V30 3125 C 317.181 -0.900363 -4.94165 0
M  V30 3126 C 319.175 -2.64683 -5.79846 0
M  V30 3127 C 316.862 -1.95837 -5.7887 0
M  V30 3128 C 317.86 -2.82997 -6.21612 0
M  V30 3129 O 317.548 -3.86977 -7.0463 0
M  V30 3130 H 317.28 -0.00217814 -0.675996 0
M  V30 3131 H 319.834 -0.654346 -1.94698 0
M  V30 3132 H 318.064 1.23762 -3.6636 0
M  V30 3133 H 319.753 0.932386 -3.95046 0
M  V30 3134 H 320.519 -1.45745 -4.62583 0
M  V30 3135 H 316.398 -0.231427 -4.60419 0
M  V30 3136 H 319.942 -3.32745 -6.13128 0
M  V30 3137 H 315.839 -2.09305 -6.10624 0
M  V30 3138 H 316.607 -3.83923 -7.22873 0
M  V30 3139 N 319.27 1.56325 -0.20005 0
M  V30 3140 C 320.516 1.98012 0.438059 0
M  V30 3141 C 320.849 1.08702 1.60927 0
M  V30 3142 O 320.124 0.140064 1.93995 0
M  V30 3143 C 320.407 3.48841 0.893419 0
M  V30 3144 C 320.26 4.48928 -0.279947 0
M  V30 3145 C 321.579 4.03498 1.75719 0
M  V30 3146 H 318.698 0.719918 0.157757 0
M  V30 3147 H 321.34 1.87743 -0.291968 0
M  V30 3148 H 319.49 3.57723 1.51547 0
M  V30 3149 H 321.162 4.52079 -0.91772 0
M  V30 3150 H 319.405 4.23694 -0.930919 0
M  V30 3151 H 320.076 5.5194 0.0812601 0
M  V30 3152 H 322.552 3.97427 1.23253 0
M  V30 3153 H 321.428 5.09393 2.04476 0
M  V30 3154 H 321.689 3.4906 2.71311 0
M  V30 3155 N 320.748 -0.0735177 1.57428 0
M  V30 3156 C 321.997 -0.771809 1.86349 0
M  V30 3157 C 322.31 -1.78828 0.792452 0
M  V30 3158 O 323.516 -2.53602 0.96945 0
M  V30 3159 C 321.972 -1.42358 3.30548 0
M  V30 3160 C 321.58 -0.445761 4.45777 0
M  V30 3161 C 323.324 -2.10434 3.6867 0
M  V30 3162 C 321.231 -1.10335 5.81016 0
M  V30 3163 H 320.161 -0.291999 0.695164 0
M  V30 3164 H 322.812 -0.0250749 1.83483 0
M  V30 3165 H 321.194 -2.21852 3.28021 0
M  V30 3166 H 322.368 0.319239 4.59693 0
M  V30 3167 H 320.683 0.130457 4.16196 0
M  V30 3168 H 323.28 -2.60405 4.67004 0
M  V30 3169 H 323.623 -2.90298 2.98383 0
M  V30 3170 H 324.156 -1.37773 3.7318 0
M  V30 3171 H 320.895 -0.345061 6.54591 0
M  V30 3172 H 320.415 -1.83925 5.70904 0
M  V30 3173 H 322.094 -1.62367 6.26295 0
M  V30 3174 N 322.226 -1.5378 -0.344866 0
M  V30 3175 C 323.503 -1.61589 -1.10219 0
M  V30 3176 C 323.883 -0.436316 -2.06542 0
M  V30 3177 O 323.231 0.571543 -2.21237 0
M  V30 3178 C 323.441 -2.97602 -1.82301 0
M  V30 3179 C 324.789 -3.5291 -2.36093 0
M  V30 3180 O 325.813 -2.99768 -1.924 0
M  V30 3181 O 324.672 -4.45859 -3.16026 0
M  V30 3182 H 321.766 -0.653522 -0.506792 0
M  V30 3183 H 324.312 -1.66126 -0.346465 0
M  V30 3184 H 323.084 -3.74893 -1.12121 0
M  V30 3185 H 322.707 -2.9665 -2.64735 0
M  V30 3186 N 323.704 0.605807 -1.45491 0
M  V30 3187 C 324.654 1.71074 -1.50724 0
M  V30 3188 C 325.638 1.5658 -0.37033 0
M  V30 3189 O 326.83 1.65887 -0.617299 0
M  V30 3190 C 323.959 3.0983 -1.47852 0
M  V30 3191 C 323.045 3.29704 -2.66751 0
M  V30 3192 N 323.436 3.19831 -3.91844 0
M  V30 3193 C 321.734 3.60579 -2.62486 0
M  V30 3194 C 322.435 3.41083 -4.71208 0
M  V30 3195 N 321.411 3.65157 -4.02693 0
M  V30 3196 H 325.213 1.61937 -2.45263 0
M  V30 3197 H 322.727 0.80912 -1.40808 0
M  V30 3198 H 324.724 3.89101 -1.49686 0
M  V30 3199 H 323.384 3.20115 -0.543714 0
M  V30 3200 H 324.395 2.98194 -4.23439 0
M  V30 3201 H 321.072 3.7769 -1.77922 0
M  V30 3202 H 322.462 3.38828 -5.80211 0
M  V30 3203 N 325.182 1.32811 0.848464 0
M  V30 3204 C 326.429 1.23724 1.60308 0
M  V30 3205 C 326.757 -0.1994 1.93475 0
M  V30 3206 O 326.012 -1.15406 1.5805 0
M  V30 3207 C 326.311 2.04831 2.92881 0
M  V30 3208 C 325.977 3.54125 2.79117 0
M  V30 3209 C 324.639 3.94829 2.7507 0
M  V30 3210 C 326.991 4.49036 2.64606 0
M  V30 3211 C 324.319 5.28675 2.544 0
M  V30 3212 C 326.671 5.83033 2.4547 0
M  V30 3213 C 325.335 6.22931 2.39819 0
M  V30 3214 H 324.605 0.452737 0.586609 0
M  V30 3215 H 327.252 1.64301 0.983743 0
M  V30 3216 H 325.557 1.57001 3.58968 0
M  V30 3217 H 327.254 1.95164 3.50303 0
M  V30 3218 H 323.844 3.21801 2.83094 0
M  V30 3219 H 328.028 4.18505 2.66772 0
M  V30 3220 H 323.284 5.58637 2.48465 0
M  V30 3221 H 327.458 6.56186 2.33222 0
M  V30 3222 H 325.085 7.26584 2.23562 0
M  V30 3223 N 326.66 -1.06551 1.16123 0
M  V30 3224 C 327.937 -1.76097 0.85142 0
M  V30 3225 C 328.317 -2.00802 -0.6513 0
M  V30 3226 O 327.665 -1.63302 -1.59827 0
M  V30 3227 C 327.875 -3.06384 1.67122 0
M  V30 3228 C 329.223 -3.80585 1.88255 0
M  V30 3229 O 330.247 -3.16218 1.63966 0
M  V30 3230 O 329.106 -4.96212 2.2899 0
M  V30 3231 H 326.2 -0.765102 0.313923 0
M  V30 3232 H 328.746 -1.12844 1.26745 0
M  V30 3233 H 327.518 -2.84071 2.69108 0
M  V30 3234 H 327.141 -3.77371 1.25206 0
M  V30 3235 N 328.138 -0.959301 -1.25041 0
M  V30 3236 C 329.387 -0.612254 -1.92183 0
M  V30 3237 C 329.7 0.855347 -1.75907 0
M  V30 3238 O 330.906 1.31256 -2.37664 0
M  V30 3239 C 329.362 -1.04435 -3.44414 0
M  V30 3240 C 328.97 -2.53482 -3.69393 0
M  V30 3241 C 330.714 -0.770055 -4.17457 0
M  V30 3242 C 328.621 -2.90468 -5.15153 0
M  V30 3243 H 327.551 -0.225279 -0.719559 0
M  V30 3244 H 330.202 -1.16438 -1.41825 0
M  V30 3245 H 328.584 -0.4206 -3.9376 0
M  V30 3246 H 329.758 -3.20916 -3.30681 0
M  V30 3247 H 328.073 -2.78432 -3.0962 0
M  V30 3248 H 330.67 -1.02249 -5.24832 0
M  V30 3249 H 331.013 0.293611 -4.15263 0
M  V30 3250 H 331.546 -1.35437 -3.74034 0
M  V30 3251 H 328.285 -3.95871 -5.22462 0
M  V30 3252 H 327.805 -2.27711 -5.54894 0
M  V30 3253 H 329.484 -2.79914 -5.83315 0
M  V30 3254 N 329.616 1.39756 -0.72842 0
M  V30 3255 C 330.526 2.34444 -0.0855374 0
M  V30 3256 C 331.542 1.57976 0.729356 0
M  V30 3257 O 332.718 1.90301 0.659346 0
M  V30 3258 C 329.783 3.36965 0.815798 0
M  V30 3259 C 328.844 4.29299 -0.0105996 0
M  V30 3260 C 328.077 5.26923 0.84781 0
M  V30 3261 O 328.3 5.30859 2.08673 0
M  V30 3262 O 327.234 6.01249 0.279969 0
M  V30 3263 H 331.06 2.91065 -0.866892 0
M  V30 3264 H 328.645 1.4117 -0.48902 0
M  V30 3265 H 330.527 3.99804 1.33171 0
M  V30 3266 H 329.202 2.82739 1.57608 0
M  V30 3267 H 328.109 3.69703 -0.571877 0
M  V30 3268 H 329.442 4.86712 -0.73295 0
M  V30 3269 N 331.094 0.475555 1.50254 0
M  V30 3270 C 332.343 -0.0795996 2.01543 0
M  V30 3271 C 332.656 -1.4038 1.36209 0
M  V30 3272 O 333.862 -2.04415 1.7868 0
M  V30 3273 C 332.318 -0.192363 3.59386 0
M  V30 3274 C 331.926 1.12367 4.33679 0
M  V30 3275 C 333.67 -0.699238 4.18701 0
M  V30 3276 C 331.577 0.974453 5.83317 0
M  V30 3277 H 330.507 -0.0335228 0.753254 0
M  V30 3278 H 333.158 0.611128 1.73025 0
M  V30 3279 H 331.54 -0.946974 3.84511 0
M  V30 3280 H 332.714 1.88958 4.20276 0
M  V30 3281 H 331.029 1.562 3.85993 0
M  V30 3282 H 333.626 -0.827978 5.28251 0
M  V30 3283 H 333.969 -1.69171 3.80377 0
M  V30 3284 H 334.502 -0.00188807 3.978 0
M  V30 3285 H 331.241 1.94042 6.26121 0
M  V30 3286 H 330.761 0.248998 5.99283 0
M  V30 3287 H 332.44 0.642867 6.43798 0
M  V30 3288 N 332.573 -1.56217 0.208337 0
M  V30 3289 C 333.506 -2.15633 -0.746842 0
M  V30 3290 C 334.484 -1.09685 -1.20034 0
M  V30 3291 O 335.668 -1.3787 -1.28547 0
M  V30 3292 C 332.795 -2.72594 -2.01023 0
M  V30 3293 C 331.841 -3.91251 -1.69779 0
M  V30 3294 S 332.674 -5.28962 -0.834209 0
M  V30 3295 C 333.83 -5.89353 -2.10745 0
M  V30 3296 H 334.063 -2.96315 -0.241789 0
M  V30 3297 H 331.596 -1.54398 -0.00682183 0
M  V30 3298 H 333.554 -3.06053 -2.73572 0
M  V30 3299 H 332.215 -1.91929 -2.48641 0
M  V30 3300 H 331.408 -4.29562 -2.63614 0
M  V30 3301 H 331.01 -3.58869 -1.05303 0
M  V30 3302 H 333.302 -6.04522 -3.05875 0
M  V30 3303 H 334.245 -6.85661 -1.76845 0
M  V30 3304 H 334.653 -5.1807 -2.24196 0
M  V30 3305 N 334.051 0.0651679 -1.57465 0
M  V30 3306 C 335.299 0.761555 -1.87202 0
M  V30 3307 C 335.62 1.77778 -0.801243 0
M  V30 3308 O 334.89 1.95166 0.16937 0
M  V30 3309 H 333.47 0.284251 -0.690804 0
M  V30 3310 H 336.132 0.0396827 -1.9486 0
M  V30 3311 H 335.228 1.27365 -2.84929 0
M  V30 3312 N 335.529 1.53961 0.336706 0
M  V30 3313 C 336.777 1.71197 1.07405 0
M  V30 3314 C 337.098 0.481475 1.88962 0
M  V30 3315 O 336.368 -0.504585 1.8929 0
M  V30 3316 H 334.948 0.631185 0.399517 0
M  V30 3317 H 337.61 1.91232 0.376323 0
M  V30 3318 H 336.706 2.58587 1.74755 0
M  V30 3319 N 337.007 -0.598083 1.45811 0
M  V30 3320 C 337.937 -1.71873 1.58057 0
M  V30 3321 C 338.918 -1.64533 0.431615 0
M  V30 3322 O 340.103 -1.82787 0.65595 0
M  V30 3323 C 337.233 -3.10495 1.55597 0
M  V30 3324 C 336.187 -3.32654 2.69305 0
M  V30 3325 C 335.513 -4.71646 2.51902 0
M  V30 3326 C 336.813 -3.21981 4.11248 0
M  V30 3327 H 338.507 -1.61881 2.51863 0
M  V30 3328 H 336.053 -0.777372 1.21214 0
M  V30 3329 H 338.006 -3.88699 1.6276 0
M  V30 3330 H 336.73 -3.2135 0.583255 0
M  V30 3331 H 335.389 -2.56843 2.61586 0
M  V30 3332 H 335.037 -4.79246 1.52748 0
M  V30 3333 H 334.737 -4.87426 3.2816 0
M  V30 3334 H 336.261 -5.52038 2.60933 0
M  V30 3335 H 337.675 -3.90049 4.20161 0
M  V30 3336 H 336.072 -3.49289 4.87972 0
M  V30 3337 H 337.142 -2.1928 4.32486 0
M  V30 3338 N 338.485 -1.33259 -0.841409 0
M  V30 3339 C 339.733 -1.24326 -1.59334 0
M  V30 3340 C 340.054 0.191564 -1.94057 0
M  V30 3341 O 339.324 1.11967 -1.60749 0
M  V30 3342 H 337.904 -0.457174 -0.590763 0
M  V30 3343 H 340.566 -1.66947 -1.00571 0
M  V30 3344 H 339.662 -1.8352 -2.52442 0
M  V30 3345 N 339.963 1.05934 -1.16686 0
M  V30 3346 C 341.374 1.60263 -0.957745 0
M  V30 3347 C 341.725 1.89789 0.49745 0
M  V30 3348 O 340.85 1.67401 1.37135 0
M  V30 3349 C 341.445 2.91172 -1.73218 0
M  V30 3350 C 340.004 3.42188 -1.56794 0
M  V30 3351 C 339.151 2.16028 -1.73859 0
M  V30 3352 H 342.102 0.888392 -1.31504 0
M  V30 3353 H 342.123 3.60744 -1.21014 0
M  V30 3354 H 341.635 2.6965 -2.79124 0
M  V30 3355 H 339.736 3.68762 -0.533437 0
M  V30 3356 H 339.849 4.17273 -2.35414 0
M  V30 3357 H 338.213 2.26426 -1.16633 0
M  V30 3358 H 338.996 1.96985 -2.81161 0
M  V30 3359 N 341.441 0.965919 1.2453 0
M  V30 3360 C 342.666 0.643971 1.97149 0
M  V30 3361 C 343.091 -0.779487 1.71189 0
M  V30 3362 O 342.449 -1.5288 0.974553 0
M  V30 3363 C 342.497 0.922557 3.48599 0
M  V30 3364 O 341.601 0.00707672 4.12399 0
M  V30 3365 H 340.942 0.243647 0.617683 0
M  V30 3366 H 343.472 1.29558 1.58353 0
M  V30 3367 H 343.482 0.853373 3.98976 0
M  V30 3368 H 342.157 1.95996 3.66822 0
M  V30 3369 H 340.734 0.12943 3.72675 0
M  V30 3370 N 342.919 -1.39368 0.735821 0
M  V30 3371 C 344.147 -2.04795 0.294393 0
M  V30 3372 C 344.562 -1.55478 -1.07107 0
M  V30 3373 O 343.919 -0.720038 -1.67695 0
M  V30 3374 C 343.97 -3.6035 0.288071 0
M  V30 3375 O 343.691 -4.07852 1.59963 0
M  V30 3376 C 345.192 -4.42976 -0.169422 0
M  V30 3377 H 342.412 -0.658571 0.128551 0
M  V30 3378 H 344.956 -1.78399 0.999701 0
M  V30 3379 H 343.111 -3.85645 -0.368355 0
M  V30 3380 H 343.525 -5.02181 1.51375 0
M  V30 3381 H 344.999 -5.51864 -0.122687 0
M  V30 3382 H 345.476 -4.22068 -1.21472 0
M  V30 3383 H 346.082 -4.22832 0.457469 0
M  V30 3384 N 344.397 -0.483516 -1.5 0
M  V30 3385 C 345.645 0.067027 -2.01989 0
M  V30 3386 C 345.966 1.3909 -1.36671 0
M  V30 3387 O 345.236 1.88978 -0.516152 0
M  V30 3388 H 343.816 0.0277606 -0.746484 0
M  V30 3389 H 346.478 -0.636773 -1.84204 0
M  V30 3390 H 345.574 0.209484 -3.11396 0
M  V30 3391 N 345.875 1.56104 -0.216619 0
M  V30 3392 C 346.822 2.2007 0.695531 0
M  V30 3393 C 347.792 1.15471 1.19397 0
M  V30 3394 O 348.977 1.43807 1.25396 0
M  V30 3395 C 346.117 2.88073 1.90021 0
M  V30 3396 C 345.23 4.07253 1.44113 0
M  V30 3397 C 344.365 4.63052 2.603 0
M  V30 3398 C 343.404 5.74545 2.11103 0
M  V30 3399 N 342.541 6.24656 3.20545 0
M  V30 3400 H 347.381 2.97655 0.143327 0
M  V30 3401 H 344.918 1.46982 0.0589934 0
M  V30 3402 H 346.876 3.25681 2.60745 0
M  V30 3403 H 345.506 2.13015 2.42538 0
M  V30 3404 H 344.558 3.75164 0.628999 0
M  V30 3405 H 345.87 4.8783 1.04036 0
M  V30 3406 H 345.024 5.03078 3.39113 0
M  V30 3407 H 343.763 3.81628 3.03663 0
M  V30 3408 H 342.768 5.34027 1.3075 0
M  V30 3409 H 343.993 6.57801 1.68746 0
M  V30 3410 H 341.939 5.46148 3.63399 0
M  V30 3411 H 341.856 7.00343 2.84704 0
M  V30 3412 H 343.124 6.69338 3.99508 0
M  V30 3413 N 347.353 -0.0568162 1.57498 0
M  V30 3414 C 348.599 -0.75422 1.88253 0
M  V30 3415 C 348.932 -1.76461 0.810865 0
M  V30 3416 O 348.207 -1.93691 -0.177259 0
M  V30 3417 C 348.49 -1.44878 3.2967 0
M  V30 3418 C 348.343 -0.453789 4.47505 0
M  V30 3419 C 349.662 -2.38994 3.69554 0
M  V30 3420 H 346.781 -0.272724 0.684683 0
M  V30 3421 H 349.423 -0.0172113 1.89992 0
M  V30 3422 H 347.573 -2.077 3.28318 0
M  V30 3423 H 349.245 0.170371 4.60985 0
M  V30 3424 H 347.488 0.229552 4.33192 0
M  V30 3425 H 348.159 -0.977699 5.43273 0
M  V30 3426 H 350.635 -1.86239 3.72095 0
M  V30 3427 H 349.511 -2.84587 4.69363 0
M  V30 3428 H 349.772 -3.24461 3.00296 0
M  V30 3429 N 348.832 -1.54138 -0.328536 0
M  V30 3430 C 349.762 -1.86167 -1.40939 0
M  V30 3431 C 350.743 -0.718044 -1.54202 0
M  V30 3432 O 351.928 -0.971328 -1.68163 0
M  V30 3433 C 349.058 -2.08461 -2.77779 0
M  V30 3434 C 348.012 -3.24299 -2.7931 0
M  V30 3435 C 347.338 -3.31955 -4.19178 0
M  V30 3436 C 348.638 -4.62065 -2.43502 0
M  V30 3437 H 350.332 -2.76689 -1.14383 0
M  V30 3438 H 347.878 -1.33132 -0.548806 0
M  V30 3439 H 349.831 -2.29453 -3.53454 0
M  V30 3440 H 348.555 -1.14684 -3.05802 0
M  V30 3441 H 347.214 -3.03187 -2.0609 0
M  V30 3442 H 346.862 -2.35745 -4.44335 0
M  V30 3443 H 346.562 -4.09805 -4.2111 0
M  V30 3444 H 348.086 -3.55175 -4.96672 0
M  V30 3445 H 349.5 -4.8297 -3.08889 0
M  V30 3446 H 347.897 -5.42429 -2.56693 0
M  V30 3447 H 348.967 -4.64652 -1.38659 0
M  V30 3448 N 350.31 0.590341 -1.46126 0
M  V30 3449 C 351.726 0.912917 -1.30912 0
M  V30 3450 C 351.926 1.99616 -0.274893 0
M  V30 3451 O 350.982 2.50397 0.325197 0
M  V30 3452 C 352.295 1.3375 -2.69317 0
M  V30 3453 C 353.843 1.45077 -2.77348 0
M  V30 3454 C 354.318 1.90904 -4.16317 0
M  V30 3455 N 355.809 1.9811 -4.18696 0
M  V30 3456 C 356.544 2.34828 -5.23109 0
M  V30 3457 N 356.04 2.70393 -6.37856 0
M  V30 3458 N 357.833 2.35317 -5.10473 0
M  V30 3459 H 349.984 -0.125358 -2.1203 0
M  V30 3460 H 352.247 0.00658481 -0.947977 0
M  V30 3461 H 351.953 0.615614 -3.4627 0
M  V30 3462 H 351.827 2.30058 -2.9892 0
M  V30 3463 H 354.214 2.16353 -2.00687 0
M  V30 3464 H 354.295 0.4704 -2.51438 0
M  V30 3465 H 353.939 1.20209 -4.9347 0
M  V30 3466 H 353.869 2.89886 -4.39629 0
M  V30 3467 H 356.36 1.73146 -3.359 0
M  V30 3468 H 356.673 2.97341 -7.13308 0
M  V30 3469 H 355.018 2.68048 -6.41229 0
M  V30 3470 H 358.209 2.0695 -4.19868 0
M  V30 3471 H 358.382 2.63605 -5.9196 0
M  V30 3472 N 351.788 1.33704 0.83433 0
M  V30 3473 C 353.037 1.24763 1.58484 0
M  V30 3474 C 353.35 -0.183775 1.94735 0
M  V30 3475 O 354.556 -0.395234 2.68608 0
M  V30 3476 C 353.012 2.18638 2.85876 0
M  V30 3477 C 352.62 3.66974 2.56971 0
M  V30 3478 C 354.364 2.18581 3.63899 0
M  V30 3479 C 352.271 4.5275 3.80488 0
M  V30 3480 H 351.201 0.463425 0.594772 0
M  V30 3481 H 353.852 1.58797 0.919551 0
M  V30 3482 H 352.234 1.77542 3.5397 0
M  V30 3483 H 353.408 4.16538 1.9706 0
M  V30 3484 H 351.723 3.69366 1.92244 0
M  V30 3485 H 354.32 2.79894 4.55591 0
M  V30 3486 H 354.663 1.18207 3.99165 0
M  V30 3487 H 355.196 2.58062 3.02735 0
M  V30 3488 H 351.935 5.54017 3.5035 0
M  V30 3489 H 351.455 4.07927 4.39722 0
M  V30 3490 H 353.134 4.66784 4.4802 0
M  V30 3491 N 353.266 -1.05314 1.17247 0
M  V30 3492 C 354.514 -1.77941 0.958194 0
M  V30 3493 C 354.835 -1.88089 -0.514556 0
M  V30 3494 O 354.105 -1.39676 -1.37359 0
M  V30 3495 H 352.685 -0.659116 0.351533 0
M  V30 3496 H 355.347 -1.27166 1.47699 0
M  V30 3497 H 354.443 -2.79663 1.38546 0
M  V30 3498 N 354.744 -0.972509 -1.24016 0
M  V30 3499 C 355.674 -0.525548 -2.27509 0
M  V30 3500 C 356.655 0.437262 -1.64384 0
M  V30 3501 O 357.84 0.332343 -1.91335 0
M  V30 3502 C 354.97 0.180448 -3.46831 0
M  V30 3503 C 353.924 -0.698859 -4.22256 0
M  V30 3504 C 353.25 0.138903 -5.3452 0
M  V30 3505 C 354.55 -1.98582 -4.83076 0
M  V30 3506 H 356.244 -1.39058 -2.65148 0
M  V30 3507 H 353.79 -0.67009 -1.27459 0
M  V30 3508 H 355.743 0.504387 -4.18371 0
M  V30 3509 H 354.467 1.07987 -3.08231 0
M  V30 3510 H 353.126 -1.00614 -3.52523 0
M  V30 3511 H 352.774 1.03862 -4.9216 0
M  V30 3512 H 352.474 -0.446259 -5.85903 0
M  V30 3513 H 353.998 0.457404 -6.08884 0
M  V30 3514 H 355.412 -1.72715 -5.46665 0
M  V30 3515 H 353.809 -2.5181 -5.44713 0
M  V30 3516 H 354.879 -2.67769 -4.04262 0
M  V30 3517 N 356.222 1.38976 -0.743202 0
M  V30 3518 C 357.152 2.33171 -0.123873 0
M  V30 3519 C 358.133 1.54336 0.71516 0
M  V30 3520 O 359.318 1.82696 0.658467 0
M  V30 3521 C 356.448 3.38474 0.777978 0
M  V30 3522 C 355.402 4.27979 0.0424758 0
M  V30 3523 C 354.728 5.2405 1.06189 0
M  V30 3524 C 356.028 5.10155 -1.1198 0
M  V30 3525 H 357.722 2.85213 -0.910709 0
M  V30 3526 H 355.268 1.37133 -0.439388 0
M  V30 3527 H 357.221 4.03328 1.22084 0
M  V30 3528 H 355.945 2.84891 1.59702 0
M  V30 3529 H 354.604 3.64616 -0.380853 0
M  V30 3530 H 354.252 4.66758 1.87472 0
M  V30 3531 H 353.952 5.84785 0.574485 0
M  V30 3532 H 355.476 5.9178 1.50428 0
M  V30 3533 H 356.89 5.68307 -0.75499 0
M  V30 3534 H 355.287 5.80073 -1.53738 0
M  V30 3535 H 356.357 4.44504 -1.93764 0
M  V30 3536 N 357.7 0.491464 1.49741 0
M  V30 3537 C 358.948 -0.0563141 2.02022 0
M  V30 3538 C 359.269 -1.38363 1.37407 0
M  V30 3539 O 358.539 -1.88702 0.526166 0
M  V30 3540 H 357.119 -0.0238014 0.746621 0
M  V30 3541 H 359.781 0.646533 1.83864 0
M  V30 3542 H 358.877 -0.192967 3.11503 0
M  V30 3543 N 359.178 -1.55987 0.224894 0
M  V30 3544 C 360.418 -2.00293 -0.407706 0
M  V30 3545 C 360.782 -1.1093 -1.56711 0
M  V30 3546 O 361.983 -1.44597 -2.26595 0
M  V30 3547 C 360.254 -3.47675 -0.82805 0
M  V30 3548 S 361.813 -4.14 -1.45429 0
M  V30 3549 H 358.631 -0.699152 -0.129256 0
M  V30 3550 H 361.233 -1.92609 0.334967 0
M  V30 3551 H 359.937 -4.10392 0.0253964 0
M  V30 3552 H 359.468 -3.59239 -1.60345 0
M  V30 3553 H 361.483 -4.13465 -2.74337 0
M  V30 3554 N 360.656 0.0484629 -1.57525 0
M  V30 3555 C 361.604 1.07359 -2.06341 0
M  V30 3556 C 362.598 1.3865 -0.973269 0
M  V30 3557 O 363.804 1.37783 -1.15827 0
M  V30 3558 H 360.179 0.363662 -0.65822 0
M  V30 3559 H 362.15 0.635916 -2.91545 0
M  V30 3560 C 360.899 2.37198 -2.54229 0
M  V30 3561 H 360.222 2.13977 -3.37719 0
M  V30 3562 H 361.662 3.07319 -2.92115 0
M  V30 3563 C 360.121 3.04805 -1.43511 0
M  V30 3564 O 360.651 3.93848 -0.79034 0
M  V30 3565 N 358.857 2.65811 -1.17444 0
M  V30 3566 H 358.404 1.93488 -1.70059 0
M  V30 3567 H 358.362 3.11366 -0.435737 0
M  V30 3568 N 362.134 1.5431 0.320358 0
M  V30 3569 C 363.097 1.83195 1.3774 0
M  V30 3570 C 364.097 0.703906 1.44575 0
M  V30 3571 O 365.287 0.972214 1.44546 0
M  V30 3572 C 362.419 1.99487 2.76438 0
M  V30 3573 H 363.612 2.77642 1.1338 0
M  V30 3574 H 361.165 1.46076 0.556012 0
M  V30 3575 H 361.9 1.07262 3.06048 0
M  V30 3576 H 361.685 2.81575 2.7287 0
M  V30 3577 H 363.175 2.23271 3.52902 0
M  V30 3578 N 363.613 -0.582584 1.46437 0
M  V30 3579 C 364.841 -1.36682 1.55324 0
M  V30 3580 C 365.256 -1.87796 0.194409 0
M  V30 3581 O 364.613 -1.63623 -0.808318 0
M  V30 3582 C 364.664 -2.55426 2.55812 0
M  V30 3583 O 364.385 -2.0643 3.86417 0
M  V30 3584 C 365.886 -3.47976 2.74641 0
M  V30 3585 H 363.106 -0.417545 0.525259 0
M  V30 3586 H 365.65 -0.708219 1.91845 0
M  V30 3587 H 363.805 -3.17275 2.22295 0
M  V30 3588 H 364.219 -2.83762 4.41111 0
M  V30 3589 H 365.693 -4.27775 3.48874 0
M  V30 3590 H 366.17 -3.99919 1.81553 0
M  V30 3591 H 366.776 -2.91962 3.09255 0
M  V30 3592 N 365.091 -1.34144 -0.827227 0
M  V30 3593 C 366.507 -1.13732 -1.11969 0
M  V30 3594 C 366.707 0.0640463 -2.01398 0
M  V30 3595 O 365.763 0.740856 -2.41387 0
M  V30 3596 C 367.076 -2.43047 -1.77055 0
M  V30 3597 C 368.624 -2.49063 -1.89569 0
M  V30 3598 C 369.099 -3.78369 -2.58072 0
M  V30 3599 N 370.59 -3.79505 -2.65575 0
M  V30 3600 C 371.325 -4.76274 -3.19297 0
M  V30 3601 N 370.821 -5.83424 -3.73616 0
M  V30 3602 N 372.614 -4.63735 -3.17658 0
M  V30 3603 H 364.765 -2.11126 -0.232296 0
M  V30 3604 H 367.028 -0.933424 -0.165602 0
M  V30 3605 H 366.734 -3.31025 -1.18807 0
M  V30 3606 H 366.608 -2.56066 -2.76966 0
M  V30 3607 H 368.995 -1.61527 -2.46968 0
M  V30 3608 H 369.076 -2.39975 -0.885745 0
M  V30 3609 H 368.72 -4.66293 -2.01329 0
M  V30 3610 H 368.65 -3.84737 -3.59562 0
M  V30 3611 H 371.141 -3.02074 -2.27068 0
M  V30 3612 H 371.454 -6.53282 -4.12846 0
M  V30 3613 H 369.799 -5.87143 -3.71871 0
M  V30 3614 H 372.99 -3.79177 -2.74486 0
M  V30 3615 H 373.163 -5.39318 -3.59221 0
M  V30 3616 N 366.569 1.04691 -1.17803 0
M  V30 3617 C 367.479 2.16057 -0.914151 0
M  V30 3618 C 368.495 1.73589 0.119503 0
M  V30 3619 O 369.671 2.01308 -0.0609468 0
M  V30 3620 C 366.736 3.4394 -0.436603 0
M  V30 3621 C 365.797 4.00825 -1.53746 0
M  V30 3622 C 365.03 5.22604 -1.0826 0
M  V30 3623 O 365.253 5.70367 0.0612244 0
M  V30 3624 O 364.187 5.7186 -1.87775 0
M  V30 3625 H 368.013 2.41169 -1.84584 0
M  V30 3626 H 365.598 1.1453 -0.959334 0
M  V30 3627 H 367.48 4.21024 -0.178057 0
M  V30 3628 H 366.155 3.20316 0.466869 0
M  V30 3629 H 365.062 3.25158 -1.84995 0
M  V30 3630 H 366.395 4.28778 -2.41683 0
M  V30 3631 N 368.047 0.979072 1.23499 0
M  V30 3632 C 368.995 0.510604 2.26926 0
M  V30 3633 C 369.989 -0.431691 1.63807 0
M  V30 3634 O 371.195 -0.30573 1.77385 0
M  V30 3635 H 367.57 0.146688 0.737554 0
M  V30 3636 H 369.541 1.39466 2.63803 0
M  V30 3637 C 368.29 -0.172658 3.47271 0
M  V30 3638 H 367.613 0.543331 3.96091 0
M  V30 3639 H 369.053 -0.464101 4.21452 0
M  V30 3640 C 367.512 -1.40345 3.06276 0
M  V30 3641 O 368.042 -2.49978 3.14442 0
M  V30 3642 N 366.248 -1.27362 2.61203 0
M  V30 3643 H 365.795 -0.381584 2.54758 0
M  V30 3644 H 365.753 -2.09822 2.34141 0
M  V30 3645 N 369.525 -1.3858 0.750561 0
M  V30 3646 C 370.771 -2.00481 0.305825 0
M  V30 3647 C 371.104 -1.5944 -1.10872 0
M  V30 3648 O 370.379 -0.83052 -1.75877 0
M  V30 3649 C 370.662 -3.5758 0.425287 0
M  V30 3650 C 370.515 -4.08594 1.88072 0
M  V30 3651 C 371.834 -4.39719 -0.183122 0
M  V30 3652 H 368.953 -0.728348 0.112598 0
M  V30 3653 H 371.595 -1.64566 0.949638 0
M  V30 3654 H 369.745 -3.88306 -0.122828 0
M  V30 3655 H 371.417 -3.88523 2.48691 0
M  V30 3656 H 369.66 -3.61574 2.39681 0
M  V30 3657 H 370.331 -5.177 1.91548 0
M  V30 3658 H 372.807 -4.15128 0.284303 0
M  V30 3659 H 371.683 -5.48856 -0.0692757 0
M  V30 3660 H 371.944 -4.23434 -1.27106 0
M  V30 3661 N 371.003 -0.499398 -1.49478 0
M  V30 3662 C 372.28 0.108629 -1.95298 0
M  V30 3663 C 372.66 1.54282 -1.44084 0
M  V30 3664 O 372.008 2.18944 -0.653908 0
M  V30 3665 C 372.218 0.0229111 -3.48992 0
M  V30 3666 C 373.566 0.197643 -4.2414 0
M  V30 3667 O 374.59 0.0981735 -3.56065 0
M  V30 3668 O 373.449 0.401669 -5.45022 0
M  V30 3669 H 370.543 0.096181 -0.821388 0
M  V30 3670 H 373.089 -0.561822 -1.6013 0
M  V30 3671 H 371.861 -0.977321 -3.78899 0
M  V30 3672 H 371.484 0.733579 -3.90774 0
M  V30 3673 N 372.481 1.55866 -0.233164 0
M  V30 3674 C 373.897 1.59133 0.121988 0
M  V30 3675 C 374.097 1.25016 1.58029 0
M  V30 3676 O 373.153 0.990922 2.32243 0
M  V30 3677 C 374.466 2.99932 -0.214792 0
M  V30 3678 C 376.014 3.12601 -0.157971 0
M  V30 3679 C 376.489 4.55597 -0.46859 0
M  V30 3680 N 377.98 4.61305 -0.418585 0
M  V30 3681 C 378.715 5.69903 -0.63227 0
M  V30 3682 N 378.211 6.86819 -0.90835 0
M  V30 3683 N 380.004 5.59264 -0.563913 0
M  V30 3684 H 372.155 1.76315 -1.18434 0
M  V30 3685 H 374.418 0.820093 -0.475553 0
M  V30 3686 H 374.124 3.29588 -1.22739 0
M  V30 3687 H 373.998 3.74327 0.464691 0
M  V30 3688 H 376.385 2.82735 0.845283 0
M  V30 3689 H 376.466 2.40511 -0.871102 0
M  V30 3690 H 376.11 4.86182 -1.46934 0
M  V30 3691 H 376.04 5.25928 0.265865 0
M  V30 3692 H 378.531 3.77297 -0.213368 0
M  V30 3693 H 378.844 7.65507 -1.05919 0
M  V30 3694 H 377.189 6.88536 -0.945673 0
M  V30 3695 H 380.38 4.66802 -0.348372 0
M  V30 3696 H 380.553 6.43831 -0.733847 0
M  V30 3697 N 373.959 -0.0401083 1.57549 0
M  V30 3698 C 375.205 -0.734211 1.89043 0
M  V30 3699 C 375.538 -1.75591 0.829535 0
M  V30 3700 O 374.813 -1.93868 -0.156706 0
M  V30 3701 C 375.096 -1.41374 3.31188 0
M  V30 3702 C 374.949 -0.406299 4.47961 0
M  V30 3703 C 376.268 -2.35061 3.72068 0
M  V30 3704 H 373.387 -0.265447 0.687537 0
M  V30 3705 H 376.029 0.00294087 1.9 0
M  V30 3706 H 374.179 -2.04206 3.30503 0
M  V30 3707 H 375.851 0.219255 4.60779 0
M  V30 3708 H 374.094 0.275485 4.32924 0
M  V30 3709 H 374.765 -0.920022 5.44279 0
M  V30 3710 H 377.241 -1.82282 3.74049 0
M  V30 3711 H 376.117 -2.79593 4.72355 0
M  V30 3712 H 376.378 -3.21258 3.0372 0
M  V30 3713 N 375.437 -1.54477 -0.31217 0
M  V30 3714 C 376.665 -1.77205 -1.068 0
M  V30 3715 C 377.08 -0.526114 -1.81321 0
M  V30 3716 O 376.437 0.503647 -1.75413 0
M  V30 3717 C 376.488 -2.97253 -2.05725 0
M  V30 3718 O 376.209 -4.1703 -1.34228 0
M  V30 3719 C 377.71 -3.32281 -2.93435 0
M  V30 3720 H 374.93 -0.591287 -0.317208 0
M  V30 3721 H 377.474 -2.01398 -0.354834 0
M  V30 3722 H 375.629 -2.753 -2.72559 0
M  V30 3723 H 376.043 -4.84636 -2.00571 0
M  V30 3724 H 377.517 -4.19551 -3.58721 0
M  V30 3725 H 377.994 -2.49945 -3.61143 0
M  V30 3726 H 378.6 -3.56353 -2.32147 0
M  V30 3727 N 376.915 0.57481 -1.46744 0
M  V30 3728 C 377.825 1.711 -1.60505 0
M  V30 3729 C 378.841 1.67008 -0.488307 0
M  V30 3730 O 380.017 1.86774 -0.753495 0
M  V30 3731 C 377.082 3.07608 -1.59932 0
M  V30 3732 C 376.143 3.22904 -2.82898 0
M  V30 3733 C 375.376 4.529 -2.82343 0
M  V30 3734 O 375.599 5.37278 -1.91542 0
M  V30 3735 O 374.533 4.71611 -3.73987 0
M  V30 3736 H 378.359 1.62436 -2.56609 0
M  V30 3737 H 375.944 0.742779 -1.29627 0
M  V30 3738 H 377.826 3.88877 -1.62336 0
M  V30 3739 H 376.501 3.16692 -0.669898 0
M  V30 3740 H 375.408 2.41099 -2.86046 0
M  V30 3741 H 376.741 3.18715 -3.75076 0
M  V30 3742 N 378.394 1.34581 0.820102 0
M  V30 3743 C 379.357 1.2628 1.91275 0
M  V30 3744 C 380.357 0.177344 1.59819 0
M  V30 3745 O 381.547 0.430156 1.68806 0
M  V30 3746 C 378.679 0.950327 3.27386 0
M  V30 3747 H 379.872 2.23421 2.00057 0
M  V30 3748 H 377.425 1.1891 1.0144 0
M  V30 3749 H 378.16 -0.0177938 3.24295 0
M  V30 3750 H 377.945 1.73549 3.51601 0
M  V30 3751 H 379.435 0.917492 4.07396 0
M  V30 3752 N 379.872 -1.04064 1.18357 0
M  V30 3753 C 380.802 -2.14001 0.934113 0
M  V30 3754 C 381.783 -1.69616 -0.128186 0
M  V30 3755 O 382.968 -1.94185 0.0244093 0
M  V30 3756 C 380.098 -3.44253 0.459066 0
M  V30 3757 C 379.052 -4.02261 1.46185 0
M  V30 3758 C 378.378 -5.27992 0.844322 0
M  V30 3759 C 379.678 -4.38432 2.83856 0
M  V30 3760 H 381.372 -2.35127 1.85352 0
M  V30 3761 H 378.918 -1.12998 0.892604 0
M  V30 3762 H 380.871 -4.20522 0.271907 0
M  V30 3763 H 379.595 -3.22813 -0.495912 0
M  V30 3764 H 378.254 -3.28074 1.63595 0
M  V30 3765 H 377.902 -5.02862 -0.117845 0
M  V30 3766 H 377.602 -5.67765 1.51384 0
M  V30 3767 H 379.126 -6.06938 0.667693 0
M  V30 3768 H 380.54 -5.05688 2.70098 0
M  V30 3769 H 378.937 -4.89254 3.47491 0
M  V30 3770 H 380.007 -3.4826 3.37406 0
M  V30 3771 N 381.35 -0.985608 -1.22978 0
M  V30 3772 C 382.766 -0.695104 -1.43668 0
M  V30 3773 C 382.966 0.736866 -1.87543 0
M  V30 3774 O 382.022 1.50868 -2.02473 0
M  V30 3775 C 383.335 -1.69447 -2.48412 0
M  V30 3776 C 384.883 -1.70909 -2.62219 0
M  V30 3777 C 385.358 -2.6969 -3.70178 0
M  V30 3778 N 386.849 -2.6824 -3.77626 0
M  V30 3779 C 387.584 -3.41339 -4.60733 0
M  V30 3780 N 387.08 -4.24015 -5.4789 0
M  V30 3781 N 388.873 -3.30079 -4.54977 0
M  V30 3782 H 381.024 -1.91054 -0.928016 0
M  V30 3783 H 383.287 -0.823553 -0.469536 0
M  V30 3784 H 382.993 -2.7188 -2.23102 0
M  V30 3785 H 382.867 -1.48147 -3.46889 0
M  V30 3786 H 385.254 -0.691785 -2.86877 0
M  V30 3787 H 385.335 -1.96276 -1.6404 0
M  V30 3788 H 384.979 -3.71566 -3.46268 0
M  V30 3789 H 384.909 -2.41595 -4.67909 0
M  V30 3790 H 387.4 -2.08243 -3.15346 0
M  V30 3791 H 387.713 -4.76636 -6.08308 0
M  V30 3792 H 386.058 -4.28104 -5.47496 0
M  V30 3793 H 389.249 -2.64937 -3.85909 0
M  V30 3794 H 389.422 -3.87308 -5.19516 0
M  V30 3795 N 382.828 1.3818 -0.7579 0
M  V30 3796 C 383.791 2.28764 -0.141286 0
M  V30 3797 C 384.791 1.47388 0.642907 0
M  V30 3798 O 385.981 1.67781 0.468536 0
M  V30 3799 C 383.113 3.31184 0.808069 0
M  V30 3800 H 384.306 2.848 -0.939633 0
M  V30 3801 H 381.859 1.47212 -0.525191 0
M  V30 3802 H 382.594 2.80247 1.63193 0
M  V30 3803 H 382.379 3.91314 0.248104 0
M  V30 3804 H 383.869 3.98909 1.23536 0
M  V30 3805 N 384.306 0.507319 1.49211 0
M  V30 3806 C 385.269 -0.256763 2.27757 0
M  V30 3807 C 386.269 -0.888287 1.34038 0
M  V30 3808 O 387.459 -0.751841 1.5714 0
M  V30 3809 C 384.591 -1.36905 3.12202 0
M  V30 3810 H 385.784 0.432557 2.96764 0
M  V30 3811 H 383.337 0.262488 1.5408 0
M  V30 3812 H 384.072 -2.09233 2.47775 0
M  V30 3813 H 383.857 -0.921599 3.81115 0
M  V30 3814 H 385.347 -1.9071 3.7151 0
M  V30 3815 N 385.784 -1.5574 0.241426 0
M  V30 3816 C 386.714 -2.24133 -0.654722 0
M  V30 3817 C 387.695 -1.21974 -1.1856 0
M  V30 3818 O 388.88 -1.50612 -1.22595 0
M  V30 3819 C 386.01 -2.93659 -1.85423 0
M  V30 3820 C 384.964 -4.0246 -1.45636 0
M  V30 3821 C 384.29 -4.59383 -2.73626 0
M  V30 3822 C 385.59 -5.18468 -0.631506 0
M  V30 3823 H 387.284 -2.99281 -0.0844353 0
M  V30 3824 H 384.83 -1.43947 -0.0391707 0
M  V30 3825 H 386.783 -3.40203 -2.48676 0
M  V30 3826 H 385.507 -2.15991 -2.44981 0
M  V30 3827 H 384.166 -3.56676 -0.847202 0
M  V30 3828 H 383.814 -3.78422 -3.3137 0
M  V30 3829 H 383.514 -5.32826 -2.4773 0
M  V30 3830 H 385.038 -5.08658 -3.37786 0
M  V30 3831 H 386.452 -5.61272 -1.1682 0
M  V30 3832 H 384.849 -5.98266 -0.468831 0
M  V30 3833 H 385.919 -4.8358 0.357506 0
M  V30 3834 N 387.262 0.0317525 -1.57568 0
M  V30 3835 C 388.194 1.06073 -2.03178 0
M  V30 3836 C 389.207 1.32627 -0.944132 0
M  V30 3837 O 390.396 1.30162 -1.22148 0
M  V30 3838 C 387.496 2.40297 -2.38978 0
M  V30 3839 C 386.669 2.33137 -3.70089 0
M  V30 3840 C 385.728 3.49787 -3.9311 0
M  V30 3841 O 384.754 3.29403 -4.64201 0
M  V30 3842 N 385.956 4.71562 -3.38541 0
M  V30 3843 H 388.721 0.672006 -2.92069 0
M  V30 3844 H 386.282 0.219745 -1.60402 0
M  V30 3845 H 388.274 3.1705 -2.51518 0
M  V30 3846 H 386.844 2.71024 -1.55771 0
M  V30 3847 H 386.064 1.415 -3.67928 0
M  V30 3848 H 387.352 2.25493 -4.56104 0
M  V30 3849 H 386.75 4.91024 -2.80912 0
M  V30 3850 H 385.307 5.45689 -3.56464 0
M  V30 3851 N 388.74 1.54641 0.303973 0
M  V30 3852 C 389.69 1.8177 1.37636 0
M  V30 3853 C 390.674 0.674697 1.46071 0
M  V30 3854 O 391.866 0.935251 1.50273 0
M  V30 3855 C 388.995 2.06584 2.74186 0
M  V30 3856 C 388.081 3.2706 2.69986 0
M  V30 3857 N 388.472 4.47682 2.35402 0
M  V30 3858 C 386.77 3.29028 3.01092 0
M  V30 3859 C 387.471 5.29689 2.40426 0
M  V30 3860 N 386.447 4.67339 2.7766 0
M  V30 3861 H 390.249 2.72596 1.09857 0
M  V30 3862 H 387.763 1.541 0.51254 0
M  V30 3863 H 389.76 2.24166 3.51504 0
M  V30 3864 H 388.42 1.17024 3.02879 0
M  V30 3865 H 389.431 4.74336 2.07908 0
M  V30 3866 H 386.108 2.49565 3.34699 0
M  V30 3867 H 387.498 6.3606 2.16512 0
M  V30 3868 N 390.218 -0.567019 1.47046 0
M  V30 3869 C 391.458 -1.3355 1.54738 0
M  V30 3870 C 391.822 -1.90947 0.200772 0
M  V30 3871 O 393.023 -2.68367 0.152489 0
M  V30 3872 C 391.294 -2.42317 2.62712 0
M  V30 3873 S 392.853 -3.29383 2.89918 0
M  V30 3874 H 389.671 -0.454788 0.546525 0
M  V30 3875 H 392.273 -0.650191 1.84371 0
M  V30 3876 H 390.977 -1.98568 3.59164 0
M  V30 3877 H 390.508 -3.15601 2.34861 0
M  V30 3878 H 392.523 -4.41548 2.26384 0
M  V30 3879 N 391.696 -1.35014 -0.812953 0
M  V30 3880 C 393.107 -1.25035 -1.38648 0
M  V30 3881 C 393.458 0.119967 -1.95833 0
M  V30 3882 O 392.583 1.02069 -1.90816 0
M  V30 3883 C 393.178 -2.26394 -2.52054 0
M  V30 3884 C 391.737 -2.20175 -3.05287 0
M  V30 3885 C 390.884 -2.12451 -1.78213 0
M  V30 3886 H 393.835 -1.46235 -0.616516 0
M  V30 3887 H 393.856 -1.88672 -3.30429 0
M  V30 3888 H 393.368 -3.26116 -2.10404 0
M  V30 3889 H 391.469 -1.23841 -3.51417 0
M  V30 3890 H 391.582 -3.11863 -3.63701 0
M  V30 3891 H 389.946 -1.58328 -1.9951 0
M  V30 3892 H 390.729 -3.14024 -1.38723 0
M  V30 3893 N 393.175 1.03435 -1.18907 0
M  V30 3894 C 394.122 2.11591 -0.921837 0
M  V30 3895 C 395.092 1.65499 0.141226 0
M  V30 3896 O 396.277 1.908 0.000242829 0
M  V30 3897 C 393.417 3.42012 -0.460616 0
M  V30 3898 C 392.53 4.01682 -1.58982 0
M  V30 3899 C 391.665 5.20091 -1.08069 0
M  V30 3900 C 390.704 5.71805 -2.18416 0
M  V30 3901 N 389.841 6.81494 -1.68849 0
M  V30 3902 H 394.681 2.33787 -1.8479 0
M  V30 3903 H 392.218 1.1467 -0.921373 0
M  V30 3904 H 394.176 4.16834 -0.174642 0
M  V30 3905 H 392.806 3.19944 0.428467 0
M  V30 3906 H 391.858 3.24127 -1.99113 0
M  V30 3907 H 393.17 4.36084 -2.4214 0
M  V30 3908 H 392.324 6.02051 -0.749615 0
M  V30 3909 H 391.063 4.87209 -0.218771 0
M  V30 3910 H 390.068 4.88461 -2.5236 0
M  V30 3911 H 391.293 6.06728 -3.05054 0
M  V30 3912 H 389.239 6.50475 -0.849572 0
M  V30 3913 H 389.156 7.14994 -2.45601 0
M  V30 3914 H 390.424 7.67063 -1.38689 0
M  V30 3915 N 394.653 0.992116 1.22453 0
M  V30 3916 C 395.6 0.541731 2.24352 0
M  V30 3917 C 396.57 -0.425519 1.60557 0
M  V30 3918 O 397.755 -0.330453 1.87917 0
M  V30 3919 C 394.895 -0.138248 3.44823 0
M  V30 3920 C 394.008 0.870649 4.23136 0
M  V30 3921 C 393.143 0.164269 5.30946 0
M  V30 3922 C 392.182 1.16159 6.00977 0
M  V30 3923 N 391.319 0.483568 7.00433 0
M  V30 3924 H 396.159 1.41541 2.62241 0
M  V30 3925 H 393.696 0.709013 1.28885 0
M  V30 3926 H 395.654 -0.5494 4.13567 0
M  V30 3927 H 394.284 -0.975721 3.077 0
M  V30 3928 H 393.336 1.40013 3.53696 0
M  V30 3929 H 394.648 1.63014 4.7141 0
M  V30 3930 H 393.802 -0.303653 6.0594 0
M  V30 3931 H 392.541 -0.627733 4.83643 0
M  V30 3932 H 391.546 1.64015 5.24766 0
M  V30 3933 H 392.771 1.95445 6.50368 0
M  V30 3934 H 390.717 -0.289012 6.55363 0
M  V30 3935 H 390.634 1.18152 7.4671 0
M  V30 3936 H 391.902 0.0384219 7.79491 0
M  V30 3937 N 396.131 -1.37776 0.765217 0
M  V30 3938 C 397.078 -2.30342 0.145274 0
M  V30 3939 C 398.048 -1.5077 -0.696971 0
M  V30 3940 O 399.233 -1.79362 -0.650689 0
M  V30 3941 C 396.373 -3.37227 -0.732939 0
M  V30 3942 C 395.486 -4.31819 0.125199 0
M  V30 3943 C 394.621 -5.25777 -0.757107 0
M  V30 3944 C 393.66 -6.12012 0.103963 0
M  V30 3945 N 392.797 -6.98232 -0.735953 0
M  V30 3946 H 397.637 -2.8278 0.940195 0
M  V30 3947 H 395.174 -1.39211 0.475255 0
M  V30 3948 H 397.132 -3.97818 -1.25686 0
M  V30 3949 H 395.762 -2.86171 -1.49353 0
M  V30 3950 H 394.814 -3.7259 0.766865 0
M  V30 3951 H 396.126 -4.92509 0.789683 0
M  V30 3952 H 395.28 -5.91541 -1.34776 0
M  V30 3953 H 394.019 -4.65481 -1.45529 0
M  V30 3954 H 393.024 -5.45233 0.707197 0
M  V30 3955 H 394.249 -6.74379 0.799381 0
M  V30 3956 H 392.195 -6.40472 -1.41887 0
M  V30 3957 H 392.112 -7.55891 -0.128624 0
M  V30 3958 H 393.38 -7.68393 -1.31121 0
M  V30 3959 N 397.609 -0.515225 -1.4894 0
M  V30 3960 C 398.539 0.244628 -2.32215 0
M  V30 3961 C 399.52 0.949136 -1.41157 0
M  V30 3962 O 400.705 0.937783 -1.70057 0
M  V30 3963 C 397.835 1.30096 -3.22013 0
M  V30 3964 C 396.789 0.715486 -4.21977 0
M  V30 3965 C 396.115 1.87339 -5.00808 0
M  V30 3966 C 397.415 -0.302982 -5.2142 0
M  V30 3967 H 399.109 -0.450501 -2.95991 0
M  V30 3968 H 396.655 -0.218098 -1.42339 0
M  V30 3969 H 398.608 1.84037 -3.79089 0
M  V30 3970 H 397.332 2.02547 -2.56207 0
M  V30 3971 H 395.991 0.197715 -3.66066 0
M  V30 3972 H 395.639 2.58592 -4.31438 0
M  V30 3973 H 395.339 1.48764 -5.68457 0
M  V30 3974 H 396.863 2.41686 -5.60732 0
M  V30 3975 H 398.277 0.148802 -5.73107 0
M  V30 3976 H 396.674 -0.60532 -5.97039 0
M  V30 3977 H 397.744 -1.21395 -4.69459 0
M  V30 3978 O 399.126 1.56684 -0.391475 0
M  V30 3979 H 399.817 1.93093 0.153177 0
M  V30 END ATOM
M  V30 BEGIN BOND
M  V30 END BOND
M  V30 END CTAB
M  END
$$$$
