drugbank_target|Q9UJ96 Potassium voltage-gated channel subfamily G member 2 (DB00228; DB01069; DB01110)
 OpenBabel12092121213D

  0  0  0     0  0            999 V3000
M  V30 BEGIN CTAB
M  V30 COUNTS 7263 7333 0 0 0
M  V30 BEGIN ATOM
M  V30 1 H -0.908 1.98254 -0.117106 0
M  V30 2 N 0 1.576 0 0
M  V30 3 C 0.933 2.03868 1.02534 0
M  V30 4 C 1.911 0.928543 1.3348 0
M  V30 5 O 3.095 1.19667 1.45644 0
M  V30 6 C 0.222 2.43627 2.35294 0
M  V30 7 C -0.732 3.65373 2.2001 0
M  V30 8 S 0.101 5.13292 1.52614 0
M  V30 9 C 1.257 5.56322 2.86805 0
M  V30 10 H 1.49 2.90518 0.631377 0
M  V30 11 H -0.977 1.52953 0.210867 0
M  V30 12 H 0.981 2.67203 3.11629 0
M  V30 13 H -0.358 1.57376 2.7183 0
M  V30 14 H -1.165 3.90944 3.18086 0
M  V30 15 H -1.563 3.418 1.51819 0
M  V30 16 H 0.729 5.58782 3.83104 0
M  V30 17 H 1.672 6.56266 2.65933 0
M  V30 18 H 2.08 4.83886 2.90714 0
M  V30 19 N 1.4781 -0.272755 1.55222 0
M  V30 20 C 2.3881 -1.35918 1.91216 0
M  V30 21 C 3.4041 -1.54026 0.809436 0
M  V30 22 O 4.5801 -1.68148 1.10852 0
M  V30 23 C 1.6451 -2.69834 2.17693 0
M  V30 24 C 0.7061 -2.6047 3.41253 0
M  V30 25 C -0.0609 -3.88 3.66458 0
M  V30 26 O 0.1621 -4.88693 2.94169 0
M  V30 27 O -0.9039 -3.88189 4.59992 0
M  V30 28 H 2.9221 -1.0839 2.83699 0
M  V30 29 H 0.5071 -0.471301 1.41771 0
M  V30 30 H 2.3891 -3.49017 2.36147 0
M  V30 31 H 1.0641 -2.97148 1.28392 0
M  V30 32 H -0.0289 -1.79663 3.28134 0
M  V30 33 H 1.3041 -2.38106 4.30774 0
M  V30 34 N 2.9562 -1.48159 -0.537278 0
M  V30 35 C 4.3672 -1.49429 -1.11928 0
M  V30 36 C 4.7182 -0.26 -1.9447 0
M  V30 37 O 3.8432 0.633489 -2.0692 0
M  V30 38 C 4.4382 -2.70758 -2.03656 0
M  V30 39 C 2.9972 -2.74923 -2.57088 0
M  V30 40 C 2.1442 -2.42835 -1.3389 0
M  V30 41 H 5.0952 -1.55381 -0.322886 0
M  V30 42 H 5.1162 -2.48861 -2.87834 0
M  V30 43 H 4.6282 -3.60575 -1.43553 0
M  V30 44 H 2.7292 -1.89296 -3.20933 0
M  V30 45 H 2.8422 -3.76157 -2.9672 0
M  V30 46 H 1.2062 -1.93836 -1.65226 0
M  V30 47 H 1.9892 -3.34884 -0.755504 0
M  V30 48 N 4.4343 0.785586 -1.36625 0
M  V30 49 C 5.6803 1.5452 -1.32269 0
M  V30 50 C 6.0353 1.92159 0.0962266 0
M  V30 51 O 5.3283 1.60158 1.05167 0
M  V30 52 C 5.5223 2.83007 -2.1827 0
M  V30 53 C 5.3513 2.57925 -3.68382 0
M  V30 54 C 4.1213 2.52752 -4.37544 0
M  V30 55 C 6.3193 2.26861 -4.61561 0
M  V30 56 N 4.3013 2.19608 -5.73276 0
M  V30 57 C 5.6723 2.03738 -5.85569 0
M  V30 58 C 7.7273 2.129 -4.50087 0
M  V30 59 C 6.4303 1.68065 -6.9939 0
M  V30 60 C 8.4563 1.78626 -5.63779 0
M  V30 61 C 7.8183 1.56353 -6.86828 0
M  V30 62 H 3.9173 0.566301 -0.539283 0
M  V30 63 H 6.5013 0.917736 -1.71714 0
M  V30 64 H 4.6723 3.43614 -1.81063 0
M  V30 65 H 6.4043 3.48775 -2.05275 0
M  V30 66 H 3.1593 2.6813 -3.90389 0
M  V30 67 H 3.5833 2.05771 -6.44971 0
M  V30 68 H 8.2253 2.28808 -3.55537 0
M  V30 69 H 5.9433 1.50895 -7.93887 0
M  V30 70 H 9.5293 1.68502 -5.56865 0
M  V30 71 H 8.4093 1.30223 -7.73312 0
M  V30 72 N 5.9124 1.20967 1.01018 0
M  V30 73 C 7.3234 1.02319 1.56165 0
M  V30 74 C 7.6744 -0.418546 1.91684 0
M  V30 75 O 6.7994 -1.30096 1.72928 0
M  V30 76 C 7.3944 1.85109 2.8376 0
M  V30 77 C 5.9534 1.70809 3.35412 0
M  V30 78 C 5.1004 1.82643 2.08655 0
M  V30 79 H 8.0514 1.35065 0.833255 0
M  V30 80 H 8.0724 1.35827 3.55431 0
M  V30 81 H 7.5844 2.90035 2.57878 0
M  V30 82 H 5.6854 0.685464 3.66241 0
M  V30 83 H 5.7984 2.52467 4.07182 0
M  V30 84 H 4.1624 1.25896 2.21409 0
M  V30 85 H 4.9454 2.89066 1.85191 0
M  V30 86 N 7.3905 -1.2043 1.01659 0
M  V30 87 C 8.6305 -1.91507 0.714456 0
M  V30 88 C 8.9945 -1.77073 -0.742237 0
M  V30 89 O 10.1955 -2.42631 -1.15688 0
M  V30 90 C 8.4665 -3.38795 1.13809 0
M  V30 91 S 10.0255 -4.28216 0.957925 0
M  V30 92 H 6.8435 -0.661571 0.260471 0
M  V30 93 H 9.4455 -1.45671 1.30384 0
M  V30 94 H 8.1495 -3.46822 2.19415 0
M  V30 95 H 7.6805 -3.89656 0.541474 0
M  V30 96 H 9.6955 -4.96007 -0.138531 0
M  V30 97 N 8.8686 -0.792821 -1.36206 0
M  V30 98 C 10.0936 -0.377701 -2.03932 0
M  V30 99 C 10.5186 0.998947 -1.59382 0
M  V30 100 O 9.8766 1.64421 -0.763903 0
M  V30 101 C 9.9246 -0.453635 -3.57735 0
M  V30 102 O 9.0286 0.538151 -4.08874 0
M  V30 103 H 8.3696 -0.159855 -0.644471 0
M  V30 104 H 10.8996 -1.07488 -1.7409 0
M  V30 105 H 10.9096 -0.318464 -4.06755 0
M  V30 106 H 9.5846 -1.45784 -3.89512 0
M  V30 107 H 8.1616 0.364359 -3.71116 0
M  V30 108 N 10.3467 1.47872 -0.545128 0
M  V30 109 C 11.7577 1.86384 -0.108581 0
M  V30 110 C 12.1087 1.45309 1.31832 0
M  V30 111 O 11.2337 0.850641 1.9898 0
M  V30 112 C 11.8287 3.38265 -0.190274 0
M  V30 113 C 10.3877 3.75914 0.191164 0
M  V30 114 C 9.5347 2.71926 -0.543273 0
M  V30 115 H 12.4857 1.39561 -0.755537 0
M  V30 116 H 12.5067 3.75831 0.594217 0
M  V30 117 H 12.0187 3.6813 -1.2289 0
M  V30 118 H 10.1197 3.51665 1.23136 0
M  V30 119 H 10.2327 4.78836 -0.158987 0
M  V30 120 H 8.5967 2.54697 0.0122495 0
M  V30 121 H 9.3797 3.04634 -1.58282 0
M  V30 122 N 11.8248 0.280983 1.55075 0
M  V30 123 C 13.0728 -0.333455 1.9933 0
M  V30 124 C 13.3938 -1.55937 1.17085 0
M  V30 125 O 12.6638 -1.94143 0.261805 0
M  V30 126 H 11.2438 -0.126197 0.736263 0
M  V30 127 H 13.9058 0.387678 1.91005 0
M  V30 128 H 13.0018 -0.619292 3.05894 0
M  V30 129 N 13.3029 -1.57598 0.00835791 0
M  V30 130 C 14.5509 -1.90551 -0.6734 0
M  V30 131 C 14.8719 -0.883301 -1.73847 0
M  V30 132 O 14.1419 0.0781442 -1.95744 0
M  V30 133 H 12.7219 -0.703312 -0.251717 0
M  V30 134 H 15.3839 -1.94833 0.0512592 0
M  V30 135 H 14.4799 -2.9056 -1.13935 0
M  V30 136 N 14.781 0.264519 -1.55364 0
M  V30 137 C 16.029 0.993021 -1.76021 0
M  V30 138 C 16.35 1.86511 -0.569099 0
M  V30 139 O 15.62 1.91438 0.415735 0
M  V30 140 H 14.2 0.369639 -0.649135 0
M  V30 141 H 16.862 0.286707 -1.9278 0
M  V30 142 H 15.958 1.62502 -2.66457 0
M  V30 143 N 16.2591 1.48442 0.529413 0
M  V30 144 C 17.5071 1.56179 1.28267 0
M  V30 145 C 17.8281 0.237721 1.93546 0
M  V30 146 O 17.0981 -0.740779 1.81354 0
M  V30 147 H 15.6781 0.575367 0.476405 0
M  V30 148 H 18.3401 1.84909 0.61602 0
M  V30 149 H 17.4361 2.34312 2.06165 0
M  V30 150 N 17.7372 -0.778329 1.37039 0
M  V30 151 C 18.9852 -1.53361 1.31623 0
M  V30 152 C 19.3062 -1.94739 -0.100831 0
M  V30 153 O 18.5762 -1.65797 -1.04347 0
M  V30 154 H 17.1562 -0.568794 0.484234 0
M  V30 155 H 19.8182 -0.926742 1.71457 0
M  V30 156 H 18.9142 -2.43606 1.95096 0
M  V30 157 N 19.2153 -1.21501 -1.00376 0
M  V30 158 C 20.4433 -1.059 -1.77744 0
M  V30 159 C 20.8583 0.391125 -1.84704 0
M  V30 160 O 20.2153 1.27133 -1.30933 0
M  V30 161 C 20.2663 -1.65111 -3.21591 0
M  V30 162 O 19.9873 -3.0445 -3.15027 0
M  V30 163 C 21.4883 -1.54637 -4.15454 0
M  V30 164 H 18.7083 -0.371825 -0.558558 0
M  V30 165 H 21.2523 -1.60865 -1.26264 0
M  V30 166 H 19.4073 -1.14235 -3.70175 0
M  V30 167 H 19.8213 -3.3278 -4.0541 0
M  V30 168 H 21.2953 -2.00808 -5.14179 0
M  V30 169 H 21.7723 -0.501022 -4.36333 0
M  V30 170 H 22.3783 -2.04767 -3.72761 0
M  V30 171 N 20.6934 1.19889 -1.02296 0
M  V30 172 C 22.1094 1.41462 -0.738954 0
M  V30 173 C 22.3094 1.89721 0.678846 0
M  V30 174 O 21.3654 2.07016 1.4457 0
M  V30 175 C 22.6784 2.43083 -1.77005 0
M  V30 176 C 24.2264 2.5684 -1.78892 0
M  V30 177 C 24.7014 3.61709 -2.80945 0
M  V30 178 N 26.1924 3.69199 -2.79725 0
M  V30 179 C 26.9274 4.50019 -3.55345 0
M  V30 180 N 26.4234 5.34592 -4.40662 0
M  V30 181 N 28.2164 4.44612 -3.43914 0
M  V30 182 H 20.3674 0.868827 -1.93817 0
M  V30 183 H 22.6304 0.44399 -0.837602 0
M  V30 184 H 22.3364 2.14636 -2.78612 0
M  V30 185 H 22.2104 3.4217 -1.58744 0
M  V30 186 H 24.5974 2.84614 -0.779674 0
M  V30 187 H 24.6784 1.57927 -2.01228 0
M  V30 188 H 24.3224 3.34678 -3.82038 0
M  V30 189 H 24.2524 4.60259 -2.5587 0
M  V30 190 H 26.7434 3.08794 -2.17842 0
M  V30 191 H 27.0564 5.93363 -4.95116 0
M  V30 192 H 25.4014 5.34073 -4.44737 0
M  V30 193 H 28.5924 3.7758 -2.76679 0
M  V30 194 H 28.7654 5.0736 -4.031 0
M  V30 195 N 22.1715 0.800033 1.35784 0
M  V30 196 C 23.1345 0.211565 2.28221 0
M  V30 197 C 24.1345 -0.59728 1.49296 0
M  V30 198 O 25.3245 -0.416721 1.69142 0
M  V30 199 C 22.4565 -0.705846 3.33513 0
M  V30 200 H 23.6495 1.02677 2.81776 0
M  V30 201 H 21.2025 0.570211 1.45528 0
M  V30 202 H 21.9375 -1.54498 2.85133 0
M  V30 203 H 21.7225 -0.127655 3.91892 0
M  V30 204 H 23.2125 -1.11211 4.02519 0
M  V30 205 N 23.6496 -1.47581 0.552962 0
M  V30 206 C 25.0656 -1.5818 0.212424 0
M  V30 207 C 25.2656 -1.55213 -1.28496 0
M  V30 208 O 24.3216 -1.45329 -2.06484 0
M  V30 209 C 25.6346 -2.88865 0.835318 0
M  V30 210 C 27.1826 -3.0244 0.806156 0
M  V30 211 C 27.6576 -4.35819 1.40804 0
M  V30 212 N 29.1486 -4.42444 1.37103 0
M  V30 213 C 29.8836 -5.44202 1.80641 0
M  V30 214 N 29.3796 -6.52795 2.32015 0
M  V30 215 N 31.1726 -5.35222 1.71738 0
M  V30 216 H 23.3236 -1.47753 1.52587 0
M  V30 217 H 25.5866 -0.702941 0.636064 0
M  V30 218 H 25.2926 -2.9676 1.88749 0
M  V30 219 H 25.1666 -3.7579 0.325848 0
M  V30 220 H 27.5536 -2.94144 -0.237317 0
M  V30 221 H 27.6346 -2.17068 1.35334 0
M  V30 222 H 27.2786 -4.44871 2.45056 0
M  V30 223 H 27.2086 -5.19916 0.836338 0
M  V30 224 H 29.6996 -3.6456 0.995202 0
M  V30 225 H 30.0126 -7.26609 2.63171 0
M  V30 226 H 28.3576 -6.53696 2.36023 0
M  V30 227 H 31.5486 -4.49284 1.31382 0
M  V30 228 H 31.7216 -6.14389 2.05987 0
M  V30 229 N 25.1277 -0.289203 -1.54924 0
M  V30 230 C 26.0777 0.606939 -2.19773 0
M  V30 231 C 27.0617 1.10783 -1.16687 0
M  V30 232 O 28.2537 1.05057 -1.4245 0
M  V30 233 C 25.3827 1.78398 -2.93307 0
M  V30 234 C 24.4687 1.29961 -4.03697 0
M  V30 235 N 24.8597 0.532377 -5.0299 0
M  V30 236 C 23.1577 1.58136 -4.17024 0
M  V30 237 C 23.8587 0.275912 -5.81045 0
M  V30 238 N 22.8347 0.852365 -5.36876 0
M  V30 239 H 26.6367 0.0130779 -2.93897 0
M  V30 240 H 24.1507 -0.09341 -1.62131 0
M  V30 241 H 26.1477 2.43741 -3.38225 0
M  V30 242 H 24.8077 2.38166 -2.20697 0
M  V30 243 H 25.8187 0.17838 -5.17593 0
M  V30 244 H 22.4957 2.18738 -3.55612 0
M  V30 245 H 23.8857 -0.339502 -6.71042 0
M  V30 246 N 26.6058 1.57591 -0.0167156 0
M  V30 247 C 27.8518 1.91567 0.665582 0
M  V30 248 C 28.1848 0.892298 1.72487 0
M  V30 249 O 27.4598 -0.0867127 1.94307 0
M  V30 250 C 27.7428 3.36069 1.29342 0
M  V30 251 C 27.5958 4.49135 0.244541 0
M  V30 252 C 28.9148 3.803 2.21495 0
M  V30 253 H 26.0338 0.69666 0.240488 0
M  V30 254 H 28.6758 1.89866 -0.0714356 0
M  V30 255 H 26.8258 3.3765 1.92158 0
M  V30 256 H 28.4978 4.59689 -0.385228 0
M  V30 257 H 26.7408 4.3165 -0.431379 0
M  V30 258 H 27.4118 5.47242 0.723207 0
M  V30 259 H 29.8878 3.80377 1.68678 0
M  V30 260 H 28.7638 4.82127 2.62382 0
M  V30 261 H 29.0248 3.15104 3.101 0
M  V30 262 N 28.0839 -0.256276 1.55502 0
M  V30 263 C 29.3329 -0.983486 1.76098 0
M  V30 264 C 29.6459 -1.86837 0.578896 0
M  V30 265 O 30.8519 -2.63163 0.667648 0
M  V30 266 C 29.3079 -1.79868 3.1173 0
M  V30 267 C 28.9159 -0.961648 4.37557 0
M  V30 268 C 30.6599 -2.51919 3.41668 0
M  V30 269 C 28.5669 -1.77219 5.64223 0
M  V30 270 H 27.4969 -0.370936 0.656447 0
M  V30 271 H 30.1479 -0.238492 1.81944 0
M  V30 272 H 28.5299 -2.58527 2.99966 0
M  V30 273 H 29.7039 -0.218048 4.60284 0
M  V30 274 H 28.0189 -0.354913 4.14885 0
M  V30 275 H 30.6159 -3.12998 4.33516 0
M  V30 276 H 30.9589 -3.23059 2.62562 0
M  V30 277 H 31.4919 -1.80278 3.54605 0
M  V30 278 H 28.2309 -1.10471 6.46124 0
M  V30 279 H 27.7509 -2.49132 5.45613 0
M  V30 280 H 29.4299 -2.34169 6.03137 0
M  V30 281 N 29.562 -1.4872 -0.521534 0
M  V30 282 C 30.811 -1.56419 -1.27341 0
M  V30 283 C 31.124 -0.246805 -1.94037 0
M  V30 284 O 32.33 -0.202122 -2.70747 0
M  V30 285 C 30.786 -2.75896 -2.31105 0
M  V30 286 C 30.394 -4.14311 -1.70441 0
M  V30 287 C 32.138 -2.92913 -3.07249 0
M  V30 288 C 30.045 -5.25038 -2.72194 0
M  V30 289 H 28.975 -0.582344 -0.478949 0
M  V30 290 H 31.626 -1.75071 -0.549779 0
M  V30 291 H 30.008 -2.50697 -3.06541 0
M  V30 292 H 31.182 -4.49564 -1.01136 0
M  V30 293 H 29.497 -4.02482 -1.06759 0
M  V30 294 H 32.094 -3.72805 -3.83302 0
M  V30 295 H 32.437 -2.02689 -3.63625 0
M  V30 296 H 32.97 -3.18054 -2.38928 0
M  V30 297 H 29.709 -6.17255 -2.20627 0
M  V30 298 H 29.229 -4.94263 -3.39801 0
M  V30 299 H 30.908 -5.53508 -3.35019 0
M  V30 300 N 31.0401 0.771051 -1.3745 0
M  V30 301 C 31.9881 1.90574 -1.33358 0
M  V30 302 C 32.9821 1.67936 -0.22224 0
M  V30 303 O 34.1881 1.75717 -0.390304 0
M  V30 304 H 30.5631 0.626714 -0.415612 0
M  V30 305 H 32.5341 1.91142 -2.29144 0
M  V30 306 C 31.2831 3.27845 -1.15813 0
M  V30 307 H 30.6061 3.45842 -2.00583 0
M  V30 308 H 32.0461 4.07538 -1.17 0
M  V30 309 C 30.5051 3.36625 0.136165 0
M  V30 310 O 31.0351 3.85785 1.11949 0
M  V30 311 N 29.2411 2.89997 0.187099 0
M  V30 312 H 28.7881 2.50182 -0.613753 0
M  V30 313 H 28.7461 2.96252 1.05272 0
M  V30 314 N 32.5182 1.22032 0.997298 0
M  V30 315 C 33.7642 1.04376 1.73878 0
M  V30 316 C 34.0972 -0.420716 1.89588 0
M  V30 317 O 33.3722 -1.31202 1.43583 0
M  V30 318 C 33.6552 1.75047 3.14691 0
M  V30 319 C 33.5082 3.29062 3.06656 0
M  V30 320 C 34.8272 1.49928 4.13775 0
M  V30 321 H 31.9462 0.380578 0.631133 0
M  V30 322 H 34.5882 1.50312 1.16217 0
M  V30 323 H 32.7382 1.35996 3.63919 0
M  V30 324 H 34.4102 3.7753 2.65083 0
M  V30 325 H 32.6532 3.58967 2.43568 0
M  V30 326 H 33.3242 3.73683 4.06282 0
M  V30 327 H 35.8002 1.83842 3.73285 0
M  V30 328 H 34.6762 2.01878 5.10428 0
M  V30 329 H 34.9372 0.430929 4.39995 0
M  V30 330 N 33.9963 -1.19345 1.0293 0
M  V30 331 C 35.2443 -1.88665 0.724574 0
M  V30 332 C 35.5653 -1.80036 -0.749144 0
M  V30 333 O 34.8353 -1.2111 -1.53978 0
M  V30 334 H 33.4153 -0.698406 0.265025 0
M  V30 335 H 36.0773 -1.44885 1.30362 0
M  V30 336 H 35.1733 -2.94987 1.01926 0
M  V30 337 N 35.4744 -0.807222 -1.35358 0
M  V30 338 C 36.7224 -0.387122 -1.98358 0
M  V30 339 C 37.0434 1.04942 -1.64354 0
M  V30 340 O 36.3134 1.72615 -0.926339 0
M  V30 341 H 34.8934 -0.140154 -0.733734 0
M  V30 342 H 37.5554 -1.0332 -1.6526 0
M  V30 343 H 36.6514 -0.493352 -3.08176 0
M  V30 344 N 36.9525 1.47285 -0.560781 0
M  V30 345 C 38.1925 2.0436 -0.0404627 0
M  V30 346 C 38.5565 1.42534 1.28639 0
M  V30 347 O 39.7575 1.90677 1.89462 0
M  V30 348 C 38.0285 3.57369 0.0471856 0
M  V30 349 S 39.5875 4.3579 0.513109 0
M  V30 350 H 36.4055 0.710492 -0.0268674 0
M  V30 351 H 39.0075 1.80611 -0.748323 0
M  V30 352 H 37.7115 3.9989 -0.922817 0
M  V30 353 H 37.2425 3.8562 0.778491 0
M  V30 354 H 39.2575 4.63476 1.77212 0
M  V30 355 N 38.4306 0.297415 1.54768 0
M  V30 356 C 39.8466 -0.0560823 1.59501 0
M  V30 357 C 40.0466 -1.52725 1.31444 0
M  V30 358 O 39.1026 -2.27947 1.08611 0
M  V30 359 C 40.4156 0.338631 2.98787 0
M  V30 360 C 41.9636 0.287097 3.11681 0
M  V30 361 C 42.4386 0.656579 4.53269 0
M  V30 362 N 43.9296 0.608977 4.59179 0
M  V30 363 C 44.6646 0.867385 5.66802 0
M  V30 364 N 44.1606 1.19157 6.82476 0
M  V30 365 N 45.9536 0.794687 5.56454 0
M  V30 366 H 38.1046 1.25624 1.71267 0
M  V30 367 H 40.3676 0.509057 0.799728 0
M  V30 368 H 40.0736 1.36263 3.2423 0
M  V30 369 H 39.9476 -0.309508 3.75928 0
M  V30 370 H 42.3346 -0.727649 2.85988 0
M  V30 371 H 42.4156 0.969809 2.36703 0
M  V30 372 H 42.0596 1.66912 4.7969 0
M  V30 373 H 41.9896 -0.0481649 5.26578 0
M  V30 374 H 44.4806 0.369198 3.76092 0
M  V30 375 H 44.7936 1.37482 7.60473 0
M  V30 376 H 43.1386 1.22958 6.84037 0
M  V30 377 H 46.3296 0.541098 4.64962 0
M  V30 378 H 46.5026 0.999445 6.40246 0
M  V30 379 N 39.9087 -1.5758 0.0250728 0
M  V30 380 C 41.1547 -1.91917 -0.655413 0
M  V30 381 C 41.4877 -0.901433 -1.72011 0
M  V30 382 O 40.7627 0.0764069 -1.9435 0
M  V30 383 C 41.0457 -3.36751 -1.27558 0
M  V30 384 C 40.8987 -4.49258 -0.220719 0
M  V30 385 C 42.2177 -3.81469 -2.19475 0
M  V30 386 H 39.3367 -0.697925 -0.23679 0
M  V30 387 H 41.9787 -1.89825 0.0815036 0
M  V30 388 H 40.1287 -3.38664 -1.90365 0
M  V30 389 H 41.8007 -4.59478 0.409601 0
M  V30 390 H 40.0437 -4.31415 0.454264 0
M  V30 391 H 40.7147 -5.47618 -0.694175 0
M  V30 392 H 43.1907 -3.81266 -1.66659 0
M  V30 393 H 42.0667 -4.83512 -2.59822 0
M  V30 394 H 42.3277 -3.16744 -3.08424 0
M  V30 395 N 41.3868 0.248026 -1.55636 0
M  V30 396 C 42.8028 0.596483 -1.48035 0
M  V30 397 C 43.0028 1.88386 -0.715039 0
M  V30 398 O 42.0588 2.51319 -0.243944 0
M  V30 399 C 43.3718 0.700258 -2.92433 0
M  V30 400 C 44.9198 0.792659 -3.02797 0
M  V30 401 C 45.3948 0.928005 -4.485 0
M  V30 402 N 46.8858 0.992903 -4.52433 0
M  V30 403 C 47.6208 1.11687 -5.62418 0
M  V30 404 N 47.1168 1.20645 -6.82214 0
M  V30 405 N 48.9098 1.14994 -5.50212 0
M  V30 406 H 41.0608 -0.597109 -2.03834 0
M  V30 407 H 43.3238 -0.205925 -0.925364 0
M  V30 408 H 43.0298 -0.175658 -3.51261 0
M  V30 409 H 42.9038 1.57255 -3.42857 0
M  V30 410 H 45.2908 1.65903 -2.4405 0
M  V30 411 H 45.3718 -0.104762 -2.55585 0
M  V30 412 H 45.0158 0.0661971 -5.07857 0
M  V30 413 H 44.9458 1.84045 -4.93391 0
M  V30 414 H 47.4368 0.935064 -3.66149 0
M  V30 415 H 47.7498 1.30008 -7.61786 0
M  V30 416 H 46.0948 1.17605 -6.84977 0
M  V30 417 H 49.2858 1.07643 -4.55555 0
M  V30 418 H 49.4588 1.24311 -6.35965 0
M  V30 419 N 42.8649 1.48995 0.513639 0
M  V30 420 C 43.7949 1.67636 1.62544 0
M  V30 421 C 44.7759 0.525087 1.61793 0
M  V30 422 O 45.9609 0.759502 1.78732 0
M  V30 423 C 43.0909 1.73114 3.01079 0
M  V30 424 C 42.0449 2.87905 3.16693 0
M  V30 425 C 41.3709 2.78486 4.56453 0
M  V30 426 C 42.6709 4.29005 2.97913 0
M  V30 427 H 44.3649 2.60716 1.47198 0
M  V30 428 H 41.9109 1.25465 0.706714 0
M  V30 429 H 43.8639 1.84742 3.78746 0
M  V30 430 H 42.5879 0.766241 3.17484 0
M  V30 431 H 41.2469 2.75859 2.41448 0
M  V30 432 H 40.8949 1.7993 4.69717 0
M  V30 433 H 40.5949 3.55523 4.67843 0
M  V30 434 H 42.1189 2.92104 5.36197 0
M  V30 435 H 43.5329 4.41798 3.65359 0
M  V30 436 H 41.9299 5.07166 3.20785 0
M  V30 437 H 42.9999 4.44329 1.94165 0
M  V30 438 N 44.343 -0.763751 1.37857 0
M  V30 439 C 45.306 -1.85889 1.34081 0
M  V30 440 C 46.306 -1.58949 0.243277 0
M  V30 441 O 47.496 -1.66882 0.499589 0
M  V30 442 C 44.628 -3.23176 1.08489 0
M  V30 443 H 45.821 -1.90648 2.31502 0
M  V30 444 H 43.374 -0.964367 1.23003 0
M  V30 445 H 44.109 -3.24091 0.116318 0
M  V30 446 H 43.894 -3.44124 1.8794 0
M  V30 447 H 45.384 -4.03254 1.08517 0
M  V30 448 N 45.8211 -1.22559 -0.990812 0
M  V30 449 C 47.0671 -1.06303 -1.73411 0
M  V30 450 C 47.4221 0.397442 -1.8825 0
M  V30 451 O 46.7151 1.29062 -1.41611 0
M  V30 452 C 46.9091 -1.71011 -3.13831 0
M  V30 453 C 46.7381 -3.232 -3.12685 0
M  V30 454 C 45.5081 -3.92314 -3.18461 0
M  V30 455 C 47.7061 -4.20107 -2.96673 0
M  V30 456 N 45.6881 -5.31571 -3.07091 0
M  V30 457 C 47.0591 -5.46208 -2.93354 0
M  V30 458 C 49.1141 -4.10973 -2.8108 0
M  V30 459 C 47.8171 -6.64225 -2.76039 0
M  V30 460 C 49.8431 -5.28642 -2.65126 0
M  V30 461 C 49.2051 -6.53663 -2.62496 0
M  V30 462 H 45.3041 -0.443441 -0.644115 0
M  V30 463 H 47.8881 -1.55131 -1.17654 0
M  V30 464 H 46.0591 -1.2473 -3.67827 0
M  V30 465 H 47.7911 -1.47828 -3.76735 0
M  V30 466 H 44.5461 -3.43326 -3.26227 0
M  V30 467 H 44.9701 -6.0455 -3.0471 0
M  V30 468 H 49.6121 -3.15098 -2.8191 0
M  V30 469 H 47.3301 -7.60246 -2.73954 0
M  V30 470 H 50.9161 -5.23407 -2.54039 0
M  V30 471 H 49.7961 -7.43182 -2.50302 0
M  V30 472 N 47.2992 1.18797 -1.03562 0
M  V30 473 C 48.2622 2.20464 -0.626769 0
M  V30 474 C 49.2622 1.57721 0.313173 0
M  V30 475 O 50.4522 1.73917 0.0992615 0
M  V30 476 C 47.5842 3.40802 0.0818498 0
M  V30 477 H 48.7772 2.58149 -1.5264 0
M  V30 478 H 46.3302 1.32593 -0.827578 0
M  V30 479 H 47.0652 3.08642 0.995518 0
M  V30 480 H 46.8502 3.8758 -0.593652 0
M  V30 481 H 48.3402 4.16092 0.354584 0
M  V30 482 N 48.7773 0.814389 1.34928 0
M  V30 483 C 49.7403 0.235759 2.27984 0
M  V30 484 C 50.7403 -0.581412 1.49921 0
M  V30 485 O 51.9303 -0.398758 1.69575 0
M  V30 486 C 49.0623 -0.670433 3.34242 0
M  V30 487 H 50.2553 1.05659 2.80671 0
M  V30 488 H 47.8083 0.585614 1.44915 0
M  V30 489 H 48.5433 -1.51466 2.86755 0
M  V30 490 H 48.3283 -0.0860822 3.92005 0
M  V30 491 H 49.8183 -1.06935 4.03676 0
M  V30 492 N 50.2554 -1.46986 0.568584 0
M  V30 493 C 51.1854 -2.32946 -0.160753 0
M  V30 494 C 52.1664 -1.44487 -0.897631 0
M  V30 495 O 53.3514 -1.73327 -0.875867 0
M  V30 496 C 50.4814 -3.26494 -1.18403 0
M  V30 497 C 49.4354 -4.24282 -0.562895 0
M  V30 498 C 48.7614 -5.07236 -1.69163 0
M  V30 499 C 50.0614 -5.19989 0.490761 0
M  V30 500 H 51.7554 -2.94175 0.556916 0
M  V30 501 H 49.3014 -1.4146 0.26927 0
M  V30 502 H 51.2544 -3.85477 -1.70251 0
M  V30 503 H 49.9784 -2.63343 -1.93179 0
M  V30 504 H 48.6374 -3.66541 -0.0656164 0
M  V30 505 H 48.2854 -4.4048 -2.42871 0
M  V30 506 H 47.9854 -5.7345 -1.28174 0
M  V30 507 H 49.5094 -5.6908 -2.21314 0
M  V30 508 H 50.9234 -5.73271 0.0579047 0
M  V30 509 H 49.3204 -5.94469 0.820165 0
M  V30 510 H 50.3904 -4.64777 1.3824 0
M  V30 511 N 51.7335 -0.305618 -1.54608 0
M  V30 512 C 52.6965 0.555591 -2.22364 0
M  V30 513 C 53.6965 1.05768 -1.21119 0
M  V30 514 O 54.8865 0.952972 -1.45822 0
M  V30 515 C 52.0185 1.76974 -2.91364 0
M  V30 516 H 53.2115 -0.0364572 -2.99878 0
M  V30 517 H 50.7645 -0.0565007 -1.56198 0
M  V30 518 H 51.4995 2.40151 -2.17941 0
M  V30 519 H 51.2845 1.41732 -3.65588 0
M  V30 520 H 52.7745 2.38148 -3.43038 0
M  V30 521 N 53.2116 1.57565 -0.0334293 0
M  V30 522 C 54.6276 1.56297 0.322997 0
M  V30 523 C 54.8276 1.03945 1.7262 0
M  V30 524 O 53.8836 0.688109 2.42943 0
M  V30 525 C 55.1966 3.00232 0.167664 0
M  V30 526 C 56.7446 3.12078 0.240107 0
M  V30 527 C 57.2196 4.57859 0.113513 0
M  V30 528 N 58.7106 4.62887 0.170359 0
M  V30 529 C 59.4456 5.73319 0.0962517 0
M  V30 530 N 58.9416 6.92794 -0.0291881 0
M  V30 531 N 60.7346 5.61898 0.150551 0
M  V30 532 H 52.8856 1.89923 -0.950956 0
M  V30 533 H 55.1486 0.873824 -0.367608 0
M  V30 534 H 54.8546 3.42501 -0.799102 0
M  V30 535 H 54.7286 3.654 0.936083 0
M  V30 536 H 57.1156 2.69718 1.19733 0
M  V30 537 H 57.1966 2.49623 -0.558763 0
M  V30 538 H 56.8406 5.009 -0.840314 0
M  V30 539 H 56.7706 5.18299 0.931302 0
M  V30 540 H 59.2616 3.76954 0.26728 0
M  V30 541 H 59.5746 7.7276 -0.0789252 0
M  V30 542 H 57.9196 6.94971 -0.0640299 0
M  V30 543 H 61.1106 4.67448 0.246981 0
M  V30 544 H 61.2836 6.47938 0.0893365 0
M  V30 545 N 54.6897 -0.239769 1.55765 0
M  V30 546 C 55.9297 -0.974076 1.79697 0
M  V30 547 C 56.2937 -1.82249 0.604088 0
M  V30 548 O 57.4947 -2.58913 0.722324 0
M  V30 549 C 55.7657 -1.80595 3.08416 0
M  V30 550 S 57.3247 -2.59838 3.53596 0
M  V30 551 H 54.1427 -0.327524 0.63107 0
M  V30 552 H 56.7447 -0.241277 1.94005 0
M  V30 553 H 55.4487 -1.17249 3.93295 0
M  V30 554 H 54.9797 -2.58137 2.96865 0
M  V30 555 H 56.9947 -3.82987 3.15492 0
M  V30 556 N 56.1678 -1.49265 -0.50573 0
M  V30 557 C 57.5788 -1.51769 -1.08734 0
M  V30 558 C 57.9298 -0.301192 -1.93874 0
M  V30 559 O 57.0548 0.589456 -2.08217 0
M  V30 560 C 57.6498 -2.75017 -1.97867 0
M  V30 561 C 56.2088 -2.80314 -2.51199 0
M  V30 562 C 55.3558 -2.4562 -1.28709 0
M  V30 563 H 58.3068 -1.56031 -0.289855 0
M  V30 564 H 58.3278 -2.5491 -2.82491 0
M  V30 565 H 57.8398 -3.63539 -1.35873 0
M  V30 566 H 55.9408 -1.96061 -3.16845 0
M  V30 567 H 56.0538 -3.82366 -2.88675 0
M  V30 568 H 54.4178 -1.97297 -1.61078 0
M  V30 569 H 55.2008 -3.36411 -0.6843 0
M  V30 570 N 57.6459 0.756429 -1.3826 0
M  V30 571 C 58.5759 1.88374 -1.37976 0
M  V30 572 C 59.5569 1.68311 -0.246082 0
M  V30 573 O 60.7419 1.88944 -0.44874 0
M  V30 574 C 57.8719 3.25864 -1.20125 0
M  V30 575 C 56.8259 3.60523 -2.30666 0
M  V30 576 C 56.1519 4.9672 -1.97923 0
M  V30 577 C 57.4519 3.65692 -3.72916 0
M  V30 578 H 59.1459 1.88869 -2.32312 0
M  V30 579 H 56.6919 0.907272 -1.11824 0
M  V30 580 H 58.6449 4.0438 -1.18552 0
M  V30 581 H 57.3689 3.25841 -0.222498 0
M  V30 582 H 56.0279 2.84324 -2.3142 0
M  V30 583 H 55.6759 4.93253 -0.985393 0
M  V30 584 H 55.3759 5.20878 -2.71955 0
M  V30 585 H 56.8999 5.77618 -1.97964 0
M  V30 586 H 58.3139 4.34328 -3.74208 0
M  V30 587 H 56.7109 4.01358 -4.4613 0
M  V30 588 H 57.7809 2.65987 -4.05436 0
M  V30 589 N 59.124 1.23083 0.984299 0
M  V30 590 C 60.087 1.00979 2.05757 0
M  V30 591 C 61.087 -0.0269573 1.60777 0
M  V30 592 O 62.277 0.212403 1.729 0
M  V30 593 C 59.409 0.527072 3.36801 0
M  V30 594 H 60.602 1.9622 2.26799 0
M  V30 595 H 58.155 1.05072 1.15714 0
M  V30 596 H 58.89 -0.429294 3.21446 0
M  V30 597 H 58.675 1.27515 3.70786 0
M  V30 598 H 60.165 0.392942 4.15747 0
M  V30 599 N 60.6021 -1.18246 1.0419 0
M  V30 600 C 62.0181 -1.40269 0.761366 0
M  V30 601 C 62.2181 -1.90777 -0.648578 0
M  V30 602 O 61.2741 -2.0929 -1.41258 0
M  V30 603 C 62.5871 -2.40237 1.8085 0
M  V30 604 C 64.1351 -2.53961 1.82955 0
M  V30 605 C 64.6101 -3.57194 2.86664 0
M  V30 606 N 66.1011 -3.64702 2.85563 0
M  V30 607 C 66.8361 -4.44309 3.6246 0
M  V30 608 N 66.3321 -5.27514 4.49111 0
M  V30 609 N 68.1251 -4.39084 3.50944 0
M  V30 610 H 60.2761 -0.837882 1.95175 0
M  V30 611 H 62.5391 -0.430608 0.84456 0
M  V30 612 H 62.2451 -2.10176 2.81991 0
M  V30 613 H 62.1191 -3.39601 1.64168 0
M  V30 614 H 64.5061 -2.83338 0.824855 0
M  V30 615 H 64.5871 -1.54706 2.03715 0
M  V30 616 H 64.2311 -3.28558 3.87314 0
M  V30 617 H 64.1611 -4.5613 2.6316 0
M  V30 618 H 66.6521 -3.05289 2.22727 0
M  V30 619 H 66.9651 -5.85411 5.04493 0
M  V30 620 H 65.3101 -5.2693 4.53178 0
M  V30 621 H 68.5011 -3.7313 2.82651 0
M  V30 622 H 68.6741 -5.00883 4.11121 0
M  V30 623 N 62.0802 -0.821533 -1.34494 0
M  V30 624 C 63.0102 -0.257138 -2.3208 0
M  V30 625 C 63.9912 0.625645 -1.58176 0
M  V30 626 O 65.1762 0.552811 -1.86166 0
M  V30 627 C 62.3062 0.582958 -3.42372 0
M  V30 628 C 61.2602 -0.202571 -4.2752 0
M  V30 629 C 60.5862 0.760179 -5.29269 0
M  V30 630 C 61.8862 -1.40998 -5.02908 0
M  V30 631 H 63.5802 -1.07247 -2.79532 0
M  V30 632 H 61.1262 -0.517163 -1.34393 0
M  V30 633 H 63.0792 0.987972 -4.09655 0
M  V30 634 H 61.8032 1.43133 -2.93565 0
M  V30 635 H 60.4622 -0.588936 -3.61838 0
M  V30 636 H 60.1102 1.60447 -4.76724 0
M  V30 637 H 59.8102 0.238809 -5.87115 0
M  V30 638 H 61.3342 1.16308 -5.9942 0
M  V30 639 H 62.7482 -1.07905 -5.63054 0
M  V30 640 H 61.1452 -1.86689 -5.70322 0
M  V30 641 H 62.2152 -2.1889 -4.32684 0
M  V30 642 N 63.5583 1.46682 -0.576371 0
M  V30 643 C 64.4683 2.34032 0.163141 0
M  V30 644 C 65.4843 1.49367 0.892501 0
M  V30 645 O 66.6603 1.82252 0.857106 0
M  V30 646 C 63.7253 3.26435 1.16795 0
M  V30 647 C 62.7863 4.26998 0.443944 0
M  V30 648 C 62.0193 5.14986 1.40088 0
M  V30 649 O 62.2423 5.05785 2.637 0
M  V30 650 O 61.1763 5.94906 0.914917 0
M  V30 651 H 65.0023 2.98607 -0.55388 0
M  V30 652 H 62.5873 1.45554 -0.336821 0
M  V30 653 H 64.4693 3.83459 1.74748 0
M  V30 654 H 63.1443 2.64465 1.86655 0
M  V30 655 H 62.0513 3.7368 -0.177271 0
M  V30 656 H 63.3843 4.91736 -0.213566 0
M  V30 657 N 65.0364 0.313813 1.54444 0
M  V30 658 C 66.4524 -0.0391619 1.59552 0
M  V30 659 C 66.6524 -1.51322 1.33056 0
M  V30 660 O 65.7084 -2.26782 1.11022 0
M  V30 661 C 67.0214 0.370302 2.98411 0
M  V30 662 C 68.5694 0.320139 3.11358 0
M  V30 663 C 69.0444 0.704617 4.52547 0
M  V30 664 N 70.5354 0.657645 4.58508 0
M  V30 665 C 71.2704 0.927453 5.6585 0
M  V30 666 N 70.7664 1.26389 6.81174 0
M  V30 667 N 72.5594 0.853662 5.5558 0
M  V30 668 H 64.7104 1.27433 1.69925 0
M  V30 669 H 66.9734 0.517511 0.794284 0
M  V30 670 H 66.6794 1.39694 3.22767 0
M  V30 671 H 66.5534 -0.269619 3.76235 0
M  V30 672 H 68.9404 -0.697275 2.86744 0
M  V30 673 H 69.0214 0.99486 2.35661 0
M  V30 674 H 68.6654 1.7199 4.77893 0
M  V30 675 H 68.5954 0.00768843 5.26599 0
M  V30 676 H 71.0864 0.409067 3.75679 0
M  V30 677 H 71.3994 1.4554 7.58972 0
M  V30 678 H 69.7444 1.30206 6.82694 0
M  V30 679 H 72.9354 0.590383 4.64362 0
M  V30 680 H 73.1084 1.0673 6.3915 0
M  V30 681 N 66.5145 -1.57545 0.0417849 0
M  V30 682 C 67.4445 -2.14009 -0.933929 0
M  V30 683 C 68.4255 -1.05938 -1.33083 0
M  V30 684 O 69.6105 -1.33833 -1.40721 0
M  V30 685 C 66.7405 -2.67747 -2.21199 0
M  V30 686 C 65.6945 -3.80718 -1.95544 0
M  V30 687 C 65.0205 -4.20935 -3.29724 0
M  V30 688 C 66.3205 -5.06258 -1.28452 0
M  V30 689 H 68.0145 -2.95788 -0.463645 0
M  V30 690 H 65.5605 -1.42285 -0.221573 0
M  V30 691 H 67.5135 -3.05886 -2.89848 0
M  V30 692 H 66.2375 -1.83147 -2.70416 0
M  V30 693 H 64.8965 -3.43037 -1.2931 0
M  V30 694 H 64.5445 -3.33298 -3.76724 0
M  V30 695 H 64.2445 -4.9707 -3.13361 0
M  V30 696 H 65.7685 -4.61666 -3.9962 0
M  V30 697 H 67.1825 -5.41903 -1.8712 0
M  V30 698 H 65.5795 -5.87475 -1.22445 0
M  V30 699 H 66.6495 -4.84207 -0.259219 0
M  V30 700 N 67.9926 0.231505 -1.5589 0
M  V30 701 C 69.4086 0.580748 -1.48659 0
M  V30 702 C 69.6086 1.87617 -0.73498 0
M  V30 703 O 68.6646 2.51046 -0.270586 0
M  V30 704 C 69.9776 0.669202 -2.93159 0
M  V30 705 C 71.5256 0.760499 -3.03621 0
M  V30 706 C 72.0006 0.880383 -4.49459 0
M  V30 707 N 73.4916 0.944861 -4.53461 0
M  V30 708 C 74.2266 1.05716 -5.63571 0
M  V30 709 N 73.7226 1.13403 -6.83456 0
M  V30 710 N 75.5156 1.09152 -5.514 0
M  V30 711 H 67.6666 -0.618695 -2.03189 0
M  V30 712 H 69.9296 -0.215728 -0.923128 0
M  V30 713 H 69.6356 -0.212904 -3.51055 0
M  V30 714 H 69.5096 1.5361 -3.44505 0
M  V30 715 H 71.8966 1.63305 -2.45796 0
M  V30 716 H 71.9776 -0.131864 -2.5546 0
M  V30 717 H 71.6216 0.0123284 -5.07899 0
M  V30 718 H 71.5516 1.78802 -4.95316 0
M  V30 719 H 74.0426 0.896176 -3.6712 0
M  V30 720 H 74.3556 1.21921 -7.63122 0
M  V30 721 H 72.7006 1.10333 -6.86186 0
M  V30 722 H 75.8916 1.02805 -4.56671 0
M  V30 723 H 76.0646 1.17558 -6.37247 0
M  V30 724 N 69.4707 1.49531 0.497807 0
M  V30 725 C 70.4337 1.65916 1.58128 0
M  V30 726 C 71.4337 0.530825 1.51786 0
M  V30 727 O 72.6237 0.797342 1.54881 0
M  V30 728 C 69.7557 1.65951 2.9778 0
M  V30 729 H 70.9487 2.62556 1.44929 0
M  V30 730 H 68.5017 1.38611 0.722275 0
M  V30 731 H 69.2367 0.709065 3.16453 0
M  V30 732 H 69.0217 2.47897 3.03792 0
M  V30 733 H 70.5117 1.80673 3.76493 0
M  V30 734 N 70.9488 -0.749086 1.3866 0
M  V30 735 C 72.1888 -1.52112 1.36534 0
M  V30 736 C 72.5528 -1.91951 -0.0432316 0
M  V30 737 O 73.7538 -2.68132 -0.189396 0
M  V30 738 C 72.0248 -2.73704 2.29828 0
M  V30 739 S 73.5838 -3.63519 2.45763 0
M  V30 740 H 70.4018 -0.520482 0.484375 0
M  V30 741 H 73.0038 -0.878963 1.74627 0
M  V30 742 H 71.7078 -2.42552 3.31054 0
M  V30 743 H 71.2388 -3.4286 1.929 0
M  V30 744 H 73.2538 -4.66712 1.68505 0
M  V30 745 N 72.4269 -1.23603 -0.977757 0
M  V30 746 C 73.8429 -0.999251 -1.24447 0
M  V30 747 C 74.0429 0.298053 -1.99283 0
M  V30 748 O 73.0989 1.01681 -2.31122 0
M  V30 749 C 74.4119 -2.20784 -2.04144 0
M  V30 750 C 75.9599 -2.25303 -2.17273 0
M  V30 751 C 76.4349 -3.45755 -3.00362 0
M  V30 752 N 77.9259 -3.4601 -3.07947 0
M  V30 753 C 78.6609 -4.35868 -3.72568 0
M  V30 754 N 78.1569 -5.35966 -4.38991 0
M  V30 755 N 79.9499 -4.23605 -3.6948 0
M  V30 756 H 72.1009 -2.06986 -0.476483 0
M  V30 757 H 74.3639 -0.907801 -0.273134 0
M  V30 758 H 74.0699 -3.14945 -1.56533 0
M  V30 759 H 73.9439 -2.22085 -3.04891 0
M  V30 760 H 76.3309 -1.3168 -2.64092 0
M  V30 761 H 76.4119 -2.28033 -1.15907 0
M  V30 762 H 76.0559 -4.39687 -2.5424 0
M  V30 763 H 75.9859 -3.40266 -4.01904 0
M  V30 764 H 78.4769 -2.73588 -2.60688 0
M  V30 765 H 78.7899 -6.00783 -4.86086 0
M  V30 766 H 77.1349 -5.39863 -4.37691 0
M  V30 767 H 80.3259 -3.44647 -3.16759 0
M  V30 768 H 80.4989 -4.93836 -4.1956 0
M  V30 769 N 73.905 1.17692 -1.04816 0
M  V30 770 C 75.153 1.87488 -0.754497 0
M  V30 771 C 75.474 1.81205 0.720407 0
M  V30 772 O 74.744 1.23544 1.52032 0
M  V30 773 H 73.324 0.694101 -0.276102 0
M  V30 774 H 75.986 1.42793 -1.32651 0
M  V30 775 H 75.082 2.93328 -1.06606 0
M  V30 776 N 75.3831 0.828654 1.34056 0
M  V30 777 C 76.3331 0.226828 2.26869 0
M  V30 778 C 77.3171 -0.612243 1.48796 0
M  V30 779 O 78.5091 -0.465884 1.70759 0
M  V30 780 C 75.6381 -0.605654 3.37915 0
M  V30 781 C 74.7241 0.244361 4.23395 0
M  V30 782 N 75.1151 1.31815 4.88322 0
M  V30 783 C 73.4131 0.0296616 4.4599 0
M  V30 784 C 74.1141 1.83895 5.51867 0
M  V30 785 N 73.0901 1.14196 5.3147 0
M  V30 786 H 76.8921 1.04811 2.74576 0
M  V30 787 H 74.4061 0.67205 1.47842 0
M  V30 788 H 76.4031 -1.05302 4.03382 0
M  V30 789 H 75.0631 -1.42504 2.91758 0
M  V30 790 H 76.0741 1.70099 4.8917 0
M  V30 791 H 72.7511 -0.757097 4.10578 0
M  V30 792 H 74.1411 2.7376 6.136 0
M  V30 793 N 76.8612 -1.46375 0.584142 0
M  V30 794 C 78.1382 -1.956 0.0033388 0
M  V30 795 C 78.5182 -1.52679 -1.45782 0
M  V30 796 O 77.8662 -0.77816 -2.14842 0
M  V30 797 C 78.0762 -3.48551 0.176891 0
M  V30 798 C 79.4242 -4.24576 0.0454609 0
M  V30 799 O 80.4482 -3.56043 0.105801 0
M  V30 800 O 79.3072 -5.46427 -0.0890376 0
M  V30 801 H 76.4012 -0.825547 -0.0490066 0
M  V30 802 H 78.9472 -1.56652 0.65256 0
M  V30 803 H 77.7192 -3.72683 1.1926 0
M  V30 804 H 77.3422 -3.94332 -0.508695 0
M  V30 805 N 78.3393 -0.321999 -1.54275 0
M  V30 806 C 79.6163 0.335232 -1.92706 0
M  V30 807 C 79.9963 1.70006 -1.25145 0
M  V30 808 O 79.3443 2.25067 -0.394596 0
M  V30 809 C 79.5543 0.429008 -3.46353 0
M  V30 810 C 80.9023 0.690029 -4.18956 0
M  V30 811 O 81.9263 0.511992 -3.52501 0
M  V30 812 O 80.7853 1.03338 -5.36641 0
M  V30 813 H 77.8793 0.191143 -0.804608 0
M  V30 814 H 80.4253 -0.3716 -1.65581 0
M  V30 815 H 79.1973 -0.529611 -3.87699 0
M  V30 816 H 78.8203 1.18348 -3.79578 0
M  V30 817 N 79.8174 1.5752 -0.0501392 0
M  V30 818 C 80.7474 2.14502 0.922566 0
M  V30 819 C 81.7284 1.06642 1.3252 0
M  V30 820 O 82.9134 1.34577 1.4001 0
M  V30 821 C 80.0434 2.68916 2.19776 0
M  V30 822 C 78.9974 3.8175 1.93523 0
M  V30 823 C 78.3234 4.22677 3.27487 0
M  V30 824 C 79.6234 5.06932 1.25765 0
M  V30 825 H 81.3174 2.9603 0.447952 0
M  V30 826 H 78.8634 1.42401 0.214024 0
M  V30 827 H 80.8164 3.07419 2.88222 0
M  V30 828 H 79.5404 1.84578 2.69441 0
M  V30 829 H 78.1994 3.43718 1.27489 0
M  V30 830 H 77.8474 3.35291 3.74952 0
M  V30 831 H 77.5474 4.98725 3.1072 0
M  V30 832 H 79.0714 4.63779 3.97166 0
M  V30 833 H 80.4854 5.42888 1.84244 0
M  V30 834 H 78.8824 5.88116 1.19328 0
M  V30 835 H 79.9524 4.84337 0.233536 0
M  V30 836 N 81.2955 -0.223234 1.56011 0
M  V30 837 C 82.2255 -1.27988 1.95298 0
M  V30 838 C 83.2065 -1.48976 0.820979 0
M  V30 839 O 84.3915 -1.61188 1.08315 0
M  V30 840 C 81.5215 -2.63 2.26822 0
M  V30 841 C 80.4755 -2.56671 3.42497 0
M  V30 842 C 79.8015 -3.95697 3.59622 0
M  V30 843 C 81.1015 -2.11601 4.77517 0
M  V30 844 H 82.7955 -0.953525 2.8381 0
M  V30 845 H 80.3415 -0.457244 1.36548 0
M  V30 846 H 82.2945 -3.37077 2.52898 0
M  V30 847 H 81.0185 -2.9732 1.35161 0
M  V30 848 H 79.6775 -1.85051 3.16467 0
M  V30 849 H 79.3255 -4.27322 2.6534 0
M  V30 850 H 79.0255 -3.92345 4.37424 0
M  V30 851 H 80.5495 -4.71438 3.88044 0
M  V30 852 H 81.9635 -2.7542 5.02809 0
M  V30 853 H 80.3605 -2.19311 5.5859 0
M  V30 854 H 81.4305 -1.06824 4.72987 0
M  V30 855 N 82.7736 -1.49793 -0.48987 0
M  V30 856 C 84.1896 -1.36803 -0.822022 0
M  V30 857 C 84.3896 -0.409652 -1.97292 0
M  V30 858 O 83.4456 0.154614 -2.52026 0
M  V30 859 C 84.7586 -2.77768 -1.15175 0
M  V30 860 C 86.3066 -2.86549 -1.25931 0
M  V30 861 C 86.7816 -4.28306 -1.62228 0
M  V30 862 N 88.2726 -4.31169 -1.69256 0
M  V30 863 C 89.0076 -5.37832 -1.98807 0
M  V30 864 N 88.5036 -6.54726 -2.26507 0
M  V30 865 N 90.2966 -5.25258 -2.00152 0
M  V30 866 H 82.4476 -2.10691 0.268881 0
M  V30 867 H 84.7106 -0.946241 0.057728 0
M  V30 868 H 84.4166 -3.49648 -0.379335 0
M  V30 869 H 84.2906 -3.13836 -2.09253 0
M  V30 870 H 86.6776 -2.14899 -2.02243 0
M  V30 871 H 86.7586 -2.54049 -0.298776 0
M  V30 872 H 86.4026 -5.00486 -0.864622 0
M  V30 873 H 86.3326 -4.58279 -2.594 0
M  V30 874 H 88.8236 -3.4687 -1.49965 0
M  V30 875 H 89.1366 -7.31833 -2.48276 0
M  V30 876 H 87.4816 -6.57933 -2.23939 0
M  V30 877 H 90.6726 -4.32938 -1.77996 0
M  V30 878 H 90.8456 -6.08476 -2.22848 0
M  V30 879 N 84.2517 0.741722 -1.39055 0
M  V30 880 C 85.4977 1.50336 -1.36113 0
M  V30 881 C 85.8307 1.94148 0.0450796 0
M  V30 882 O 85.1057 1.66301 1.00868 0
M  V30 883 C 85.3887 2.74773 -2.32749 0
M  V30 884 C 85.2417 2.37023 -3.82283 0
M  V30 885 C 86.5607 3.76846 -2.27322 0
M  V30 886 H 83.6797 0.545351 -0.495743 0
M  V30 887 H 86.3217 0.848624 -1.69995 0
M  V30 888 H 84.4717 3.30639 -2.03986 0
M  V30 889 H 86.1437 1.8684 -4.21768 0
M  V30 890 H 84.3867 1.69334 -3.99385 0
M  V30 891 H 85.0577 3.26104 -4.45376 0
M  V30 892 H 87.5337 3.30548 -2.5274 0
M  V30 893 H 86.4097 4.6159 -2.97028 0
M  V30 894 H 86.6707 4.23286 -1.27599 0
M  V30 895 N 85.7298 1.2412 0.971189 0
M  V30 896 C 86.9698 1.09066 1.7287 0
M  V30 897 C 87.3338 -0.364794 1.88503 0
M  V30 898 O 88.5348 -0.636748 2.61149 0
M  V30 899 C 86.8058 1.80629 3.08396 0
M  V30 900 S 88.3648 1.81263 3.99611 0
M  V30 901 H 85.1828 0.390145 0.594397 0
M  V30 902 H 87.7848 1.57397 1.15959 0
M  V30 903 H 86.4888 2.85647 2.94676 0
M  V30 904 H 86.0198 1.32617 3.70373 0
M  V30 905 H 88.0348 0.877804 4.88374 0
M  V30 906 N 87.2079 -1.17134 1.05439 0
M  V30 907 C 88.4849 -1.83411 0.679699 0
M  V30 908 C 88.8649 -1.9368 -0.839726 0
M  V30 909 O 88.2129 -1.47325 -1.74664 0
M  V30 910 C 88.4229 -3.20918 1.37159 0
M  V30 911 C 89.7709 -3.96796 1.51123 0
M  V30 912 O 90.7949 -3.30406 1.3308 0
M  V30 913 O 89.6539 -5.15778 1.80651 0
M  V30 914 H 86.7479 -0.79154 0.239569 0
M  V30 915 H 89.2939 -1.24411 1.15413 0
M  V30 916 H 88.0659 -3.08428 2.40807 0
M  V30 917 H 87.6889 -3.87587 0.886674 0
M  V30 918 N 88.686 -0.835752 -1.33615 0
M  V30 919 C 89.963 -0.352017 -1.92406 0
M  V30 920 C 90.343 1.16225 -1.76224 0
M  V30 921 O 89.691 1.97526 -1.14873 0
M  V30 922 C 89.901 -0.795485 -3.39813 0
M  V30 923 C 91.249 -0.801703 -4.16963 0
M  V30 924 O 92.273 -0.738889 -3.48452 0
M  V30 925 O 91.132 -0.886607 -5.3926 0
M  V30 926 H 88.226 -0.0989641 -0.821057 0
M  V30 927 H 90.772 -0.921397 -1.42507 0
M  V30 928 H 89.544 -1.83795 -3.45449 0
M  V30 929 H 89.167 -0.202505 -3.97084 0
M  V30 930 N 90.1641 1.46063 -0.591896 0
M  V30 931 C 91.3941 2.06418 -0.0867676 0
M  V30 932 C 91.8021 1.43975 1.22751 0
M  V30 933 O 91.1451 0.542531 1.75506 0
M  V30 934 C 91.2071 3.59213 0.143725 0
M  V30 935 C 90.8711 4.439 -1.08635 0
M  V30 936 C 91.8681 4.79864 -2.00067 0
M  V30 937 C 89.5531 4.84896 -1.31077 0
M  V30 938 C 91.5471 5.55661 -3.12282 0
M  V30 939 C 89.2341 5.6045 -2.43596 0
M  V30 940 C 90.2321 5.95747 -3.34027 0
M  V30 941 O 89.9201 6.69772 -4.4459 0
M  V30 942 H 89.6521 0.673443 -0.0587447 0
M  V30 943 H 92.2061 1.88539 -0.814994 0
M  V30 944 H 90.4361 3.75433 0.926668 0
M  V30 945 H 92.1251 4.01463 0.5985 0
M  V30 946 H 92.8911 4.48763 -1.83947 0
M  V30 947 H 88.7701 4.56867 -0.61594 0
M  V30 948 H 92.3141 5.8313 -3.82891 0
M  V30 949 H 88.2111 5.90965 -2.59674 0
M  V30 950 H 88.9791 6.88207 -4.43073 0
M  V30 951 N 91.6422 0.330177 1.54103 0
M  V30 952 C 92.9192 -0.325007 1.92881 0
M  V30 953 C 93.2992 -1.6934 1.26045 0
M  V30 954 O 92.6472 -2.24855 0.406526 0
M  V30 955 C 92.8572 -0.410634 3.46576 0
M  V30 956 C 94.2052 -0.667801 4.19316 0
M  V30 957 O 95.2292 -0.49329 3.52768 0
M  V30 958 O 94.0882 -1.00491 5.37181 0
M  V30 959 H 91.1822 -0.186873 0.80561 0
M  V30 960 H 93.7282 0.380376 1.65382 0
M  V30 961 H 92.5002 0.550164 3.87413 0
M  V30 962 H 92.1232 -1.16333 3.802 0
M  V30 963 N 93.1203 -1.57491 0.0584922 0
M  V30 964 C 94.3663 -1.93264 -0.614558 0
M  V30 965 C 94.6993 -0.937717 -1.7006 0
M  V30 966 O 93.9743 0.0351652 -1.94468 0
M  V30 967 C 94.2573 -3.3938 -1.20386 0
M  V30 968 C 94.1103 -4.49625 -0.125375 0
M  V30 969 C 95.4293 -3.86039 -2.11334 0
M  V30 970 H 92.5483 -0.702791 -0.221933 0
M  V30 971 H 95.1903 -1.8961 0.12175 0
M  V30 972 H 93.3403 -3.42626 -1.83139 0
M  V30 973 H 95.0123 -4.58506 0.506971 0
M  V30 974 H 93.2553 -4.30354 0.545672 0
M  V30 975 H 93.9263 -5.48967 -0.577861 0
M  V30 976 H 96.4023 -3.84716 -1.58534 0
M  V30 977 H 95.2783 -4.88914 -2.49507 0
M  V30 978 H 95.5393 -3.23215 -3.01636 0
M  V30 979 N 94.5984 0.214957 -1.56127 0
M  V30 980 C 95.8234 0.95924 -1.83884 0
M  V30 981 C 96.2484 1.7689 -0.639644 0
M  V30 982 O 95.6064 1.76566 0.411601 0
M  V30 983 C 95.6544 1.84723 -3.09693 0
M  V30 984 O 94.7584 2.94346 -2.8885 0
M  V30 985 H 94.0994 0.27125 -0.606069 0
M  V30 986 H 96.6294 0.226276 -2.03345 0
M  V30 987 H 96.6394 2.25576 -3.39969 0
M  V30 988 H 95.3144 1.25218 -3.96602 0
M  V30 989 H 93.8914 2.57391 -2.69823 0
M  V30 990 N 96.0765 1.50051 0.48192 0
M  V30 991 C 97.4925 1.37237 0.814756 0
M  V30 992 C 97.6925 0.420109 1.97072 0
M  V30 993 O 96.7485 -0.141246 2.52105 0
M  V30 994 C 98.0615 2.78375 1.13701 0
M  V30 995 C 99.6095 2.87213 1.2441 0
M  V30 996 C 100.084 4.29161 1.59954 0
M  V30 997 N 101.575 4.32061 1.66967 0
M  V30 998 C 102.31 5.38879 1.95952 0
M  V30 999 N 101.806 6.55918 2.23031 0
M  V30 1000 N 103.599 5.26312 1.97363 0
M  V30 1001 H 95.7505 2.10546 -0.28005 0
M  V30 1002 H 98.0135 0.945921 -0.0627454 0
M  V30 1003 H 97.7195 3.49845 0.360787 0
M  V30 1004 H 97.5935 3.14941 2.07586 0
M  V30 1005 H 99.9805 2.15969 2.01101 0
M  V30 1006 H 100.061 2.54204 0.285299 0
M  V30 1007 H 99.7055 5.00938 0.838067 0
M  V30 1008 H 99.6355 4.59648 2.56966 0
M  V30 1009 H 102.126 3.47661 1.48123 0
M  V30 1010 H 102.439 7.33139 2.44391 0
M  V30 1011 H 100.784 6.59112 2.20447 0
M  V30 1012 H 103.975 4.33876 1.75697 0
M  V30 1013 H 104.148 6.09649 2.19618 0
M  V30 1014 N 97.5546 -0.734337 1.39446 0
M  V30 1015 C 98.8316 -1.48579 1.27215 0
M  V30 1016 C 99.2116 -2.1077 -0.117968 0
M  V30 1017 O 98.5596 -1.98646 -1.12924 0
M  V30 1018 C 98.7696 -2.53667 2.39696 0
M  V30 1019 C 100.118 -3.20031 2.79044 0
M  V30 1020 O 101.142 -2.6398 2.39151 0
M  V30 1021 O 100.001 -4.21455 3.47905 0
M  V30 1022 H 97.0946 -0.659816 0.49857 0
M  V30 1023 H 99.6406 -0.768106 1.51322 0
M  V30 1024 H 98.4126 -2.06096 3.32626 0
M  V30 1025 H 98.0356 -3.32994 2.17258 0
M  V30 1026 N 99.0327 -1.24633 -0.964593 0
M  V30 1027 C 99.9427 -1.05859 -2.09359 0
M  V30 1028 C 100.959 0.00148855 -1.74 0
M  V30 1029 O 102.135 -0.197346 -2.00431 0
M  V30 1030 C 99.1997 -0.668879 -3.40187 0
M  V30 1031 C 98.2607 -1.80578 -3.89474 0
M  V30 1032 C 97.4937 -1.43457 -5.14058 0
M  V30 1033 O 97.7167 -0.325775 -5.69469 0
M  V30 1034 O 96.6507 -2.2613 -5.57807 0
M  V30 1035 H 100.477 -2.00516 -2.28094 0
M  V30 1036 H 98.0617 -1.03481 -1.0776 0
M  V30 1037 H 99.9437 -0.463211 -4.18846 0
M  V30 1038 H 98.6187 0.248536 -3.22744 0
M  V30 1039 H 97.5257 -2.06623 -3.11862 0
M  V30 1040 H 98.8587 -2.70208 -4.11398 0
M  V30 1041 N 100.511 1.16574 -1.06058 0
M  V30 1042 C 101.758 1.87047 -0.775873 0
M  V30 1043 C 102.086 1.81562 0.697534 0
M  V30 1044 O 101.341 1.22445 1.52662 0
M  V30 1045 C 101.64 3.36195 -1.21275 0
M  V30 1046 C 101.306 3.6188 -2.68986 0
M  V30 1047 C 99.9678 3.68599 -3.09335 0
M  V30 1048 C 102.32 3.72648 -3.64394 0
M  V30 1049 C 99.6478 3.83584 -4.43937 0
M  V30 1050 C 102 3.89154 -4.98741 0
M  V30 1051 C 100.664 3.94114 -5.3873 0
M  V30 1052 H 99.9338 0.684452 -0.283912 0
M  V30 1053 H 102.581 1.37853 -1.32925 0
M  V30 1054 H 100.886 3.87505 -0.578528 0
M  V30 1055 H 102.583 3.89103 -0.969542 0
M  V30 1056 H 99.1728 3.57281 -2.36744 0
M  V30 1057 H 103.357 3.66769 -3.34356 0
M  V30 1058 H 98.6128 3.85677 -4.74409 0
M  V30 1059 H 102.787 3.96427 -5.72554 0
M  V30 1060 H 100.414 4.05478 -6.43033 0
M  V30 1061 N 101.989 0.842826 1.3317 0
M  V30 1062 C 103.236 0.440447 1.97652 0
M  V30 1063 C 103.564 -1.00123 1.6675 0
M  V30 1064 O 102.819 -1.7155 0.941761 0
M  V30 1065 C 103.118 0.612607 3.52111 0
M  V30 1066 C 102.784 2.02297 4.02972 0
M  V30 1067 C 101.446 2.40874 4.16573 0
M  V30 1068 C 103.798 2.94402 4.30089 0
M  V30 1069 C 101.126 3.70852 4.54627 0
M  V30 1070 C 103.478 4.23865 4.69597 0
M  V30 1071 C 102.142 4.62392 4.81404 0
M  V30 1072 H 101.412 0.161171 0.72326 0
M  V30 1073 H 104.059 1.07061 1.58777 0
M  V30 1074 H 102.364 -0.100849 3.9167 0
M  V30 1075 H 104.061 0.2815 4.00011 0
M  V30 1076 H 100.651 1.71338 3.92863 0
M  V30 1077 H 104.835 2.65835 4.19101 0
M  V30 1078 H 100.091 4.00501 4.61962 0
M  V30 1079 H 104.265 4.95306 4.89536 0
M  V30 1080 H 101.892 5.63154 5.10648 0
M  V30 1081 N 103.467 -1.45747 0.599634 0
M  V30 1082 C 104.714 -2.02292 0.0917284 0
M  V30 1083 C 105.042 -1.46906 -1.27472 0
M  V30 1084 O 104.297 -0.630652 -1.8526 0
M  V30 1085 C 104.596 -3.57399 -0.00602758 0
M  V30 1086 C 104.262 -4.31902 1.29503 0
M  V30 1087 C 102.924 -4.51974 1.65144 0
M  V30 1088 C 105.276 -4.74551 2.15525 0
M  V30 1089 C 102.604 -5.11949 2.86574 0
M  V30 1090 C 104.956 -5.35868 3.36196 0
M  V30 1091 C 103.62 -5.54165 3.72099 0
M  V30 1092 H 102.89 -0.740239 0.0335658 0
M  V30 1093 H 105.537 -1.7491 0.779661 0
M  V30 1094 H 103.842 -3.84014 -0.777183 0
M  V30 1095 H 105.539 -3.98846 -0.415038 0
M  V30 1096 H 102.129 -4.16588 1.00761 0
M  V30 1097 H 106.313 -4.58784 1.8929 0
M  V30 1098 H 101.569 -5.24305 3.14507 0
M  V30 1099 H 105.743 -5.6787 4.03109 0
M  V30 1100 H 103.37 -6.00406 4.6628 0
M  V30 1101 N 104.945 -0.338344 -1.53925 0
M  V30 1102 C 106.222 0.314774 -1.93051 0
M  V30 1103 C 106.602 1.68669 -1.26941 0
M  V30 1104 O 105.95 2.24636 -0.418445 0
M  V30 1105 C 106.16 0.392249 -3.46789 0
M  V30 1106 C 107.508 0.645554 -4.19664 0
M  V30 1107 O 108.532 0.474575 -3.53024 0
M  V30 1108 O 107.391 0.976408 -5.37707 0
M  V30 1109 H 104.485 0.182598 -0.80659 0
M  V30 1110 H 107.031 -0.389141 -1.65178 0
M  V30 1111 H 105.803 -0.570702 -3.87116 0
M  V30 1112 H 105.426 1.14316 -3.80812 0
M  V30 1113 N 106.423 1.57458 -0.0668435 0
M  V30 1114 C 107.839 1.56947 0.289772 0
M  V30 1115 C 108.039 1.07584 1.70376 0
M  V30 1116 O 107.095 0.739486 2.41429 0
M  V30 1117 C 108.408 3.0052 0.103943 0
M  V30 1118 C 109.956 3.12517 0.173857 0
M  V30 1119 C 110.431 4.57997 0.0163682 0
M  V30 1120 N 111.922 4.63144 0.0721352 0
M  V30 1121 C 112.657 5.73394 -0.0253794 0
M  V30 1122 N 112.153 6.92576 -0.176133 0
M  V30 1123 N 113.946 5.62091 0.0313305 0
M  V30 1124 H 106.097 1.87863 -0.991027 0
M  V30 1125 H 108.36 0.86583 -0.38606 0
M  V30 1126 H 108.066 3.40729 -0.871572 0
M  V30 1127 H 107.94 3.67304 0.858366 0
M  V30 1128 H 110.327 2.72197 1.13985 0
M  V30 1129 H 110.408 2.48381 -0.611586 0
M  V30 1130 H 110.052 4.99005 -0.946374 0
M  V30 1131 H 109.982 5.20158 0.821153 0
M  V30 1132 H 112.473 3.77436 0.187263 0
M  V30 1133 H 112.786 7.72418 -0.242821 0
M  V30 1134 H 111.131 6.94678 -0.211429 0
M  V30 1135 H 114.322 4.67867 0.147773 0
M  V30 1136 H 114.495 6.47982 -0.048121 0
M  V30 1137 N 107.901 -0.206675 1.56239 0
M  V30 1138 C 109.126 -0.949474 1.8439 0
M  V30 1139 C 109.551 -1.76549 0.649016 0
M  V30 1140 O 108.909 -1.76782 -0.402231 0
M  V30 1141 C 108.957 -1.83078 3.10668 0
M  V30 1142 O 108.061 -2.9281 2.90407 0
M  V30 1143 H 107.402 -0.268033 0.607499 0
M  V30 1144 H 109.932 -0.215488 2.03462 0
M  V30 1145 H 109.942 -2.2377 3.41161 0
M  V30 1146 H 108.617 -1.23112 3.97261 0
M  V30 1147 H 107.194 -2.55956 2.71184 0
M  V30 1148 N 109.379 -1.50304 -0.473955 0
M  V30 1149 C 110.79 -1.54042 -1.0549 0
M  V30 1150 C 111.141 -0.342248 -1.93192 0
M  V30 1151 O 110.266 0.545157 -2.09421 0
M  V30 1152 C 110.861 -2.79152 -1.91989 0
M  V30 1153 C 109.42 -2.8558 -2.45196 0
M  V30 1154 C 108.567 -2.48295 -1.2347 0
M  V30 1155 H 111.518 -1.5661 -0.256693 0
M  V30 1156 H 111.539 -2.60845 -2.7702 0
M  V30 1157 H 111.051 -3.66339 -1.28131 0
M  V30 1158 H 109.152 -2.02738 -3.12615 0
M  V30 1159 H 109.265 -3.88403 -2.80499 0
M  V30 1160 H 107.629 -2.00669 -1.56856 0
M  V30 1161 H 108.412 -3.37787 -0.612789 0
M  V30 1162 N 110.857 0.726932 -1.39834 0
M  V30 1163 C 112.097 1.4992 -1.38936 0
M  V30 1164 C 112.461 1.91996 0.0126883 0
M  V30 1165 O 113.662 2.68399 0.146715 0
M  V30 1166 C 111.933 2.70013 -2.34153 0
M  V30 1167 S 113.492 3.59563 -2.51515 0
M  V30 1168 H 110.31 0.51271 -0.492595 0
M  V30 1169 H 112.912 0.85107 -1.76003 0
M  V30 1170 H 111.616 2.37254 -3.34871 0
M  V30 1171 H 111.147 3.39748 -1.98331 0
M  V30 1172 H 113.162 4.63973 -1.75909 0
M  V30 1173 N 112.336 1.25143 0.95797 0
M  V30 1174 C 113.299 1.05321 2.03569 0
M  V30 1175 C 114.299 0.007152 1.60798 0
M  V30 1176 O 115.489 0.24903 1.72411 0
M  V30 1177 C 112.621 0.598394 3.35607 0
M  V30 1178 H 113.814 2.00986 2.22586 0
M  V30 1179 H 111.367 1.07502 1.13459 0
M  V30 1180 H 112.102 -0.361014 3.22284 0
M  V30 1181 H 111.887 1.35351 3.67998 0
M  V30 1182 H 113.377 0.48104 4.1482 0
M  V30 1183 N 113.814 -1.1601 1.06675 0
M  V30 1184 C 115.061 -1.86633 0.785781 0
M  V30 1185 C 115.389 -1.81929 -0.687896 0
M  V30 1186 O 114.644 -1.23253 -1.52011 0
M  V30 1187 C 114.943 -3.35547 1.23057 0
M  V30 1188 C 114.609 -3.60448 2.70902 0
M  V30 1189 C 113.271 -3.66954 3.11285 0
M  V30 1190 C 115.623 -3.7071 3.66365 0
M  V30 1191 C 112.951 -3.81225 4.45965 0
M  V30 1192 C 115.303 -3.86503 5.00797 0
M  V30 1193 C 113.967 -3.91252 5.40813 0
M  V30 1194 H 113.237 -0.682937 0.287538 0
M  V30 1195 H 115.884 -1.37146 1.33654 0
M  V30 1196 H 114.189 -3.87193 0.59907 0
M  V30 1197 H 115.886 -3.88583 0.990163 0
M  V30 1198 H 112.476 -3.56021 2.38636 0
M  V30 1199 H 116.66 -3.64991 3.36296 0
M  V30 1200 H 111.916 -3.83155 4.76447 0
M  V30 1201 H 116.09 -3.93385 5.74649 0
M  V30 1202 H 113.717 -4.02062 6.45174 0
M  V30 1203 N 115.292 -0.849877 -1.32721 0
M  V30 1204 C 116.708 -0.539102 -1.50219 0
M  V30 1205 C 116.908 0.931271 -1.78689 0
M  V30 1206 O 115.964 1.71455 -1.85363 0
M  V30 1207 C 117.277 -1.42196 -2.64954 0
M  V30 1208 C 118.825 -1.42189 -2.78839 0
M  V30 1209 C 119.3 -2.28985 -3.96648 0
M  V30 1210 N 120.791 -2.26754 -4.03902 0
M  V30 1211 C 121.526 -2.90644 -4.94281 0
M  V30 1212 N 121.022 -3.63629 -5.897 0
M  V30 1213 N 122.815 -2.80057 -4.87365 0
M  V30 1214 H 114.966 -1.80156 -1.12506 0
M  V30 1215 H 117.229 -0.769217 -0.554085 0
M  V30 1216 H 116.935 -2.46733 -2.50631 0
M  V30 1217 H 116.809 -1.10591 -3.60624 0
M  V30 1218 H 119.196 -0.38419 -2.92588 0
M  V30 1219 H 119.277 -1.77807 -1.83898 0
M  V30 1220 H 118.921 -3.32819 -3.83658 0
M  V30 1221 H 118.851 -1.90702 -4.90857 0
M  V30 1222 H 121.342 -1.73688 -3.3562 0
M  V30 1223 H 121.655 -4.09558 -6.55349 0
M  V30 1224 H 120 -3.67737 -5.89741 0
M  V30 1225 H 123.191 -2.22593 -4.11789 0
M  V30 1226 H 123.364 -3.30132 -5.57599 0
M  V30 1227 N 116.77 1.45427 -0.607355 0
M  V30 1228 C 117.733 2.28974 0.101693 0
M  V30 1229 C 118.733 1.39754 0.795329 0
M  V30 1230 O 119.923 1.61878 0.643527 0
M  V30 1231 C 117.055 3.20768 1.15414 0
M  V30 1232 H 118.248 2.93147 -0.632844 0
M  V30 1233 H 115.801 1.51945 -0.366391 0
M  V30 1234 H 116.536 2.61395 1.91945 0
M  V30 1235 H 116.321 3.86489 0.66098 0
M  V30 1236 H 117.811 3.83589 1.65073 0
M  V30 1237 N 118.248 0.346503 1.53744 0
M  V30 1238 C 119.497 -0.250122 2.00143 0
M  V30 1239 C 119.81 -1.51418 1.23822 0
M  V30 1240 O 121.016 -2.18823 1.60713 0
M  V30 1241 C 119.472 -0.496252 3.56462 0
M  V30 1242 C 119.08 0.752077 4.41642 0
M  V30 1243 C 120.824 -1.05157 4.11269 0
M  V30 1244 C 118.731 0.476583 5.89477 0
M  V30 1245 H 117.661 -0.0972409 0.747703 0
M  V30 1246 H 120.312 0.46229 1.77581 0
M  V30 1247 H 118.694 -1.26944 3.75102 0
M  V30 1248 H 119.868 1.5266 4.34778 0
M  V30 1249 H 118.183 1.22925 3.97842 0
M  V30 1250 H 120.78 -1.27269 5.19333 0
M  V30 1251 H 121.123 -2.00799 3.64672 0
M  V30 1252 H 121.656 -0.339019 3.96353 0
M  V30 1253 H 118.395 1.4028 6.40314 0
M  V30 1254 H 117.915 -0.259794 5.99237 0
M  V30 1255 H 119.594 0.0949315 6.4693 0
M  V30 1256 N 119.726 -1.57421 0.075193 0
M  V30 1257 C 120.972 -1.93905 -0.594025 0
M  V30 1258 C 121.305 -0.955701 -1.69056 0
M  V30 1259 O 120.58 0.0145373 -1.94495 0
M  V30 1260 C 120.863 -3.40638 -1.1678 0
M  V30 1261 C 120.716 -4.49733 -0.0776792 0
M  V30 1262 C 122.035 -3.88259 -2.07228 0
M  V30 1263 H 119.154 -0.705105 -0.214466 0
M  V30 1264 H 121.796 -1.8947 0.141854 0
M  V30 1265 H 119.946 -3.44549 -1.79494 0
M  V30 1266 H 121.618 -4.57942 0.555573 0
M  V30 1267 H 119.861 -4.29751 0.591286 0
M  V30 1268 H 120.532 -5.49549 -0.519603 0
M  V30 1269 H 123.008 -3.86376 -1.54445 0
M  V30 1270 H 121.884 -4.91533 -2.44308 0
M  V30 1271 H 122.145 -3.26396 -2.98191 0
M  V30 1272 N 121.204 0.198386 -1.56346 0
M  V30 1273 C 122.167 1.22952 -1.93431 0
M  V30 1274 C 123.167 1.38611 -0.815092 0
M  V30 1275 O 124.357 1.36479 -1.08255 0
M  V30 1276 C 121.489 2.59946 -2.20546 0
M  V30 1277 H 122.682 0.912626 -2.85677 0
M  V30 1278 H 120.235 0.43977 -1.49986 0
M  V30 1279 H 120.97 2.96696 -1.30927 0
M  V30 1280 H 120.755 2.49953 -3.02102 0
M  V30 1281 H 122.245 3.3431 -2.50253 0
M  V30 1282 N 122.682 1.50554 0.465978 0
M  V30 1283 C 123.612 1.72722 1.57128 0
M  V30 1284 C 124.593 0.576294 1.6004 0
M  V30 1285 O 125.778 0.81598 1.76225 0
M  V30 1286 C 122.908 1.82605 2.95419 0
M  V30 1287 C 121.862 2.97835 3.07373 0
M  V30 1288 C 121.188 2.92867 4.47363 0
M  V30 1289 C 122.488 4.38265 2.84114 0
M  V30 1290 H 124.182 2.65267 1.38829 0
M  V30 1291 H 121.728 1.2765 0.666441 0
M  V30 1292 H 123.681 1.96698 3.72677 0
M  V30 1293 H 122.405 0.866858 3.14886 0
M  V30 1294 H 121.064 2.83401 2.3255 0
M  V30 1295 H 120.712 1.94783 4.63755 0
M  V30 1296 H 120.412 3.70227 4.56296 0
M  V30 1297 H 121.936 3.09015 5.26633 0
M  V30 1298 H 123.35 4.53198 3.51118 0
M  V30 1299 H 121.747 5.17115 3.04487 0
M  V30 1300 H 122.817 4.50281 1.7993 0
M  V30 1301 N 124.16 -0.719506 1.40217 0
M  V30 1302 C 125.09 -1.8465 1.42922 0
M  V30 1303 C 126.071 -1.67599 0.29062 0
M  V30 1304 O 127.256 -1.87688 0.498677 0
M  V30 1305 C 124.386 -3.22565 1.28722 0
M  V30 1306 C 123.34 -3.54281 2.40144 0
M  V30 1307 C 122.666 -4.91298 2.11023 0
M  V30 1308 C 123.966 -3.55676 3.82481 0
M  V30 1309 H 125.66 -1.82644 2.37237 0
M  V30 1310 H 123.206 -0.877305 1.1419 0
M  V30 1311 H 125.159 -4.01095 1.29232 0
M  V30 1312 H 123.883 -3.25137 0.308811 0
M  V30 1313 H 122.542 -2.78088 2.38877 0
M  V30 1314 H 122.19 -4.90468 1.11582 0
M  V30 1315 H 121.89 -5.13485 2.8567 0
M  V30 1316 H 123.414 -5.72166 2.13209 0
M  V30 1317 H 124.828 -4.24254 3.85592 0
M  V30 1318 H 123.225 -3.89388 4.56614 0
M  V30 1319 H 124.295 -2.55144 4.12346 0
M  V30 1320 N 125.638 -1.25649 -0.95132 0
M  V30 1321 C 127.054 -1.02542 -1.223 0
M  V30 1322 C 127.254 0.255715 -1.99871 0
M  V30 1323 O 126.31 0.967558 -2.33226 0
M  V30 1324 C 127.623 -2.25065 -1.99415 0
M  V30 1325 C 129.171 -2.29861 -2.12446 0
M  V30 1326 C 129.646 -3.52048 -2.92961 0
M  V30 1327 N 131.137 -3.52465 -3.00538 0
M  V30 1328 C 131.872 -4.43672 -3.63239 0
M  V30 1329 N 131.368 -5.45157 -4.27523 0
M  V30 1330 N 133.161 -4.31346 -3.60412 0
M  V30 1331 H 125.312 -2.07951 -0.432471 0
M  V30 1332 H 127.575 -0.91339 -0.253816 0
M  V30 1333 H 127.281 -3.18194 -1.49817 0
M  V30 1334 H 127.155 -2.28502 -3.00111 0
M  V30 1335 H 129.542 -1.37252 -2.61239 0
M  V30 1336 H 129.623 -2.3044 -1.11044 0
M  V30 1337 H 129.267 -4.44981 -2.44856 0
M  V30 1338 H 129.197 -3.48715 -3.94596 0
M  V30 1339 H 131.688 -2.79056 -2.54826 0
M  V30 1340 H 132.001 -6.10958 -4.73234 0
M  V30 1341 H 130.346 -5.49025 -4.26141 0
M  V30 1342 H 133.537 -3.51288 -3.09377 0
M  V30 1343 H 133.71 -5.02624 -4.0899 0
M  V30 1344 N 127.117 1.15442 -1.07289 0
M  V30 1345 C 128.08 2.18358 -0.696591 0
M  V30 1346 C 129.08 1.58637 0.262837 0
M  V30 1347 O 130.27 1.74145 0.0438809 0
M  V30 1348 C 127.402 3.4089 -0.0266151 0
M  V30 1349 H 128.595 2.53162 -1.60776 0
M  V30 1350 H 126.148 1.29893 -0.869342 0
M  V30 1351 H 126.883 3.11653 0.896822 0
M  V30 1352 H 126.668 3.85495 -0.716657 0
M  V30 1353 H 128.158 4.17009 0.222028 0
M  V30 1354 N 128.595 0.856903 1.32268 0
M  V30 1355 C 129.843 0.460474 1.96784 0
M  V30 1356 C 130.164 -0.987701 1.68135 0
M  V30 1357 O 129.434 -1.69058 0.989765 0
M  V30 1358 H 128.014 0.167289 0.728027 0
M  V30 1359 H 130.676 1.09383 1.61312 0
M  V30 1360 H 129.772 0.60739 3.06133 0
M  V30 1361 N 130.073 -1.45103 0.615059 0
M  V30 1362 C 131.02 -2.30586 -0.0993978 0
M  V30 1363 C 131.99 -1.42544 -0.852669 0
M  V30 1364 O 133.175 -1.71465 -0.836917 0
M  V30 1365 C 130.315 -3.27572 -1.08583 0
M  V30 1366 C 129.428 -4.30717 -0.332656 0
M  V30 1367 C 128.563 -5.14807 -1.30947 0
M  V30 1368 C 127.602 -6.09673 -0.544538 0
M  V30 1369 N 126.739 -6.86517 -1.47101 0
M  V30 1370 H 131.579 -2.91144 0.635542 0
M  V30 1371 H 129.116 -1.4346 0.325206 0
M  V30 1372 H 131.074 -3.82276 -1.67095 0
M  V30 1373 H 129.704 -2.68751 -1.78809 0
M  V30 1374 H 128.756 -3.78615 0.368107 0
M  V30 1375 H 130.068 -4.98102 0.263842 0
M  V30 1376 H 129.222 -5.73948 -1.96643 0
M  V30 1377 H 127.961 -4.47458 -1.9399 0
M  V30 1378 H 126.966 -5.49656 0.126003 0
M  V30 1379 H 128.191 -6.79052 0.080947 0
M  V30 1380 H 126.137 -6.21851 -2.08895 0
M  V30 1381 H 126.054 -7.50281 -0.928137 0
M  V30 1382 H 127.322 -7.50194 -2.11731 0
M  V30 1383 N 131.551 -0.354651 -1.53558 0
M  V30 1384 C 132.481 0.489091 -2.2832 0
M  V30 1385 C 133.462 1.09324 -1.30316 0
M  V30 1386 O 134.647 1.11255 -1.59173 0
M  V30 1387 C 131.777 1.63456 -3.0643 0
M  V30 1388 C 130.731 1.1582 -4.12031 0
M  V30 1389 C 130.057 2.39305 -4.7816 0
M  V30 1390 C 131.357 0.250731 -5.21698 0
M  V30 1391 H 133.051 -0.134614 -2.99097 0
M  V30 1392 H 130.597 -0.0661826 -1.43848 0
M  V30 1393 H 132.55 2.23136 -3.57475 0
M  V30 1394 H 131.274 2.28533 -2.33325 0
M  V30 1395 H 129.933 0.584146 -3.61916 0
M  V30 1396 H 129.581 3.02814 -4.01637 0
M  V30 1397 H 129.281 2.08109 -5.49513 0
M  V30 1398 H 130.805 2.99691 -5.31994 0
M  V30 1399 H 132.219 0.754695 -5.68311 0
M  V30 1400 H 130.616 0.0301468 -6.00092 0
M  V30 1401 H 131.686 -0.710125 -4.79672 0
M  V30 1402 N 133.029 1.57378 -0.0835403 0
M  V30 1403 C 134.445 1.57246 0.273109 0
M  V30 1404 C 134.645 1.09385 1.69225 0
M  V30 1405 O 133.701 0.765051 2.40631 0
M  V30 1406 C 135.014 3.00614 0.0720628 0
M  V30 1407 C 136.562 3.12684 0.1407 0
M  V30 1408 C 137.037 4.57989 -0.0322094 0
M  V30 1409 N 138.528 4.63194 0.0230085 0
M  V30 1410 C 139.263 5.73335 -0.0861941 0
M  V30 1411 N 138.759 6.9235 -0.24958 0
M  V30 1412 N 140.552 5.62093 -0.0282886 0
M  V30 1413 H 132.703 1.86801 -1.0109 0
M  V30 1414 H 134.966 0.861687 -0.395222 0
M  V30 1415 H 134.672 3.39786 -0.907662 0
M  V30 1416 H 134.546 3.68193 0.81936 0
M  V30 1417 H 136.933 2.73391 1.11092 0
M  V30 1418 H 137.014 2.47719 -0.637896 0
M  V30 1419 H 136.658 4.97973 -0.999247 0
M  V30 1420 H 136.588 5.21 0.765937 0
M  V30 1421 H 139.079 3.77613 0.14722 0
M  V30 1422 H 139.392 7.72117 -0.324733 0
M  V30 1423 H 137.737 6.94415 -0.285097 0
M  V30 1424 H 140.928 4.67997 0.0981408 0
M  V30 1425 H 141.101 6.47895 -0.116845 0
M  V30 1426 N 134.507 -0.190092 1.56449 0
M  V30 1427 C 135.437 -1.23816 1.97969 0
M  V30 1428 C 136.418 -1.47201 0.852395 0
M  V30 1429 O 137.603 -1.58854 1.1171 0
M  V30 1430 C 134.733 -2.5813 2.3235 0
M  V30 1431 C 133.687 -2.49348 3.47864 0
M  V30 1432 C 133.013 -3.8798 3.67934 0
M  V30 1433 C 134.313 -2.01424 4.81898 0
M  V30 1434 H 136.007 -0.89311 2.85769 0
M  V30 1435 H 133.553 -0.428177 1.37487 0
M  V30 1436 H 135.506 -3.31637 2.59991 0
M  V30 1437 H 134.23 -2.94386 1.41438 0
M  V30 1438 H 132.889 -1.78297 3.20321 0
M  V30 1439 H 132.537 -4.21597 2.74344 0
M  V30 1440 H 132.237 -3.82978 4.45648 0
M  V30 1441 H 133.761 -4.63101 3.97957 0
M  V30 1442 H 135.175 -2.64693 5.08538 0
M  V30 1443 H 133.572 -2.07413 5.63116 0
M  V30 1444 H 134.642 -0.967677 4.75146 0
M  V30 1445 N 135.985 -1.50799 -0.457987 0
M  V30 1446 C 136.915 -1.73553 -1.5621 0
M  V30 1447 C 137.896 -0.584774 -1.59732 0
M  V30 1448 O 139.081 -0.825314 -1.7579 0
M  V30 1449 C 136.211 -1.84169 -2.94447 0
M  V30 1450 C 135.165 -2.99461 -3.0579 0
M  V30 1451 C 134.491 -2.95235 -4.45803 0
M  V30 1452 C 135.791 -4.39766 -2.81786 0
M  V30 1453 H 137.485 -2.66 -1.37421 0
M  V30 1454 H 135.031 -1.28002 -0.659662 0
M  V30 1455 H 136.984 -1.98672 -3.71628 0
M  V30 1456 H 135.708 -0.883545 -3.14422 0
M  V30 1457 H 134.367 -2.8463 -2.31044 0
M  V30 1458 H 134.015 -1.97239 -4.62715 0
M  V30 1459 H 133.715 -3.72642 -4.54326 0
M  V30 1460 H 135.239 -3.11803 -5.24987 0
M  V30 1461 H 136.653 -4.55054 -3.4871 0
M  V30 1462 H 135.05 -5.18722 -3.0174 0
M  V30 1463 H 136.12 -4.51229 -1.7754 0
M  V30 1464 N 137.463 0.71206 -1.40597 0
M  V30 1465 C 138.879 1.02058 -1.22704 0
M  V30 1466 C 139.079 2.01228 -0.104729 0
M  V30 1467 O 138.135 2.4674 0.53624 0
M  V30 1468 C 139.448 1.56094 -2.57012 0
M  V30 1469 C 140.996 1.6806 -2.64054 0
M  V30 1470 C 141.471 2.25501 -3.9864 0
M  V30 1471 N 142.962 2.32882 -4.004 0
M  V30 1472 C 143.697 2.78317 -5.01325 0
M  V30 1473 N 143.193 3.23478 -6.12645 0
M  V30 1474 N 144.986 2.77733 -4.88693 0
M  V30 1475 H 137.137 0.0547896 -2.12329 0
M  V30 1476 H 139.4 0.0869027 -0.944008 0
M  V30 1477 H 139.106 0.906865 -3.39807 0
M  V30 1478 H 138.98 2.54564 -2.78347 0
M  V30 1479 H 141.367 2.32583 -1.81629 0
M  V30 1480 H 141.448 0.681802 -2.46546 0
M  V30 1481 H 141.092 1.61598 -4.81506 0
M  V30 1482 H 141.022 3.26102 -4.13479 0
M  V30 1483 H 143.513 2.00991 -3.20017 0
M  V30 1484 H 143.826 3.56725 -6.85542 0
M  V30 1485 H 142.171 3.21429 -6.16205 0
M  V30 1486 H 145.362 2.4179 -4.00818 0
M  V30 1487 H 145.535 3.12826 -5.67489 0
M  V30 1488 N 138.941 1.26152 0.944643 0
M  V30 1489 C 140.189 1.11271 1.6871 0
M  V30 1490 C 140.51 -0.345166 1.91921 0
M  V30 1491 O 139.78 -1.24387 1.51343 0
M  V30 1492 H 138.36 0.408783 0.625224 0
M  V30 1493 H 141.022 1.58427 1.1352 0
M  V30 1494 H 140.118 1.62879 2.66227 0
M  V30 1495 N 140.419 -1.14872 1.07899 0
M  V30 1496 C 141.83 -1.67367 0.827363 0
M  V30 1497 C 142.181 -1.85236 -0.646693 0
M  V30 1498 O 141.306 -1.55974 -1.50004 0
M  V30 1499 C 141.901 -3.04016 1.49532 0
M  V30 1500 C 140.46 -3.53566 1.29106 0
M  V30 1501 C 139.607 -2.29161 1.56143 0
M  V30 1502 H 142.558 -0.990083 1.24028 0
M  V30 1503 H 142.579 -3.69219 0.919643 0
M  V30 1504 H 142.091 -2.90978 2.56814 0
M  V30 1505 H 140.192 -3.71835 0.238713 0
M  V30 1506 H 140.305 -4.34661 2.01511 0
M  V30 1507 H 138.669 -2.34978 0.982717 0
M  V30 1508 H 139.452 -2.18705 2.64619 0
M  V30 1509 N 141.898 -0.863906 -1.31812 0
M  V30 1510 C 143.138 -0.47825 -1.98726 0
M  V30 1511 C 143.502 0.950397 -1.66828 0
M  V30 1512 O 144.703 1.44109 -2.26905 0
M  V30 1513 C 142.974 -0.721134 -3.50049 0
M  V30 1514 S 144.533 -0.434432 -4.36644 0
M  V30 1515 H 141.351 -0.178773 -0.688158 0
M  V30 1516 H 143.953 -1.11862 -1.60334 0
M  V30 1517 H 142.657 -1.75981 -3.70755 0
M  V30 1518 H 142.188 -0.0675315 -3.93342 0
M  V30 1519 H 144.203 0.735786 -4.90714 0
M  V30 1520 N 143.376 1.44774 -0.622745 0
M  V30 1521 C 144.339 2.29069 0.0774015 0
M  V30 1522 C 145.339 1.4059 0.780461 0
M  V30 1523 O 146.529 1.62551 0.626322 0
M  V30 1524 C 143.661 3.21974 1.12006 0
M  V30 1525 H 144.854 2.92459 -0.663901 0
M  V30 1526 H 142.407 1.51548 -0.382486 0
M  V30 1527 H 143.142 2.63417 1.89162 0
M  V30 1528 H 142.927 3.87168 0.619951 0
M  V30 1529 H 144.417 3.85318 1.60995 0
M  V30 1530 N 144.854 0.36279 1.53368 0
M  V30 1531 C 145.784 -0.476976 2.28576 0
M  V30 1532 C 146.765 -1.08631 1.30894 0
M  V30 1533 O 147.95 -1.10409 1.59761 0
M  V30 1534 C 145.08 -1.61828 3.07293 0
M  V30 1535 C 144.034 -1.13633 4.1264 0
M  V30 1536 C 143.36 -2.36766 4.79423 0
M  V30 1537 C 144.66 -0.223061 5.21823 0
M  V30 1538 H 146.354 0.150474 2.99022 0
M  V30 1539 H 143.9 0.0738103 1.43811 0
M  V30 1540 H 145.853 -2.21237 3.58653 0
M  V30 1541 H 144.577 -2.27292 2.34533 0
M  V30 1542 H 143.236 -0.564945 3.62221 0
M  V30 1543 H 142.884 -3.0068 4.03238 0
M  V30 1544 H 142.584 -2.05192 5.50609 0
M  V30 1545 H 144.108 -2.96865 5.33576 0
M  V30 1546 H 145.522 -0.724545 5.68703 0
M  V30 1547 H 143.919 0.001678 6.001 0
M  V30 1548 H 144.989 0.735553 4.79289 0
M  V30 1549 N 146.332 -1.57332 0.0918853 0
M  V30 1550 C 147.295 -2.12708 -0.85369 0
M  V30 1551 C 148.295 -1.05561 -1.213 0
M  V30 1552 O 149.485 -1.31461 -1.14296 0
M  V30 1553 C 146.617 -2.64503 -2.15061 0
M  V30 1554 H 147.81 -2.97573 -0.3729 0
M  V30 1555 H 145.363 -1.55509 -0.157072 0
M  V30 1556 H 146.098 -1.83149 -2.67632 0
M  V30 1557 H 145.883 -3.4284 -1.90272 0
M  V30 1558 H 147.373 -3.07351 -2.82711 0
M  V30 1559 N 147.81 0.181792 -1.56548 0
M  V30 1560 C 149.057 0.900097 -1.81396 0
M  V30 1561 C 149.385 1.82695 -0.667281 0
M  V30 1562 O 148.64 1.92614 0.346146 0
M  V30 1563 C 148.939 1.73728 -3.12335 0
M  V30 1564 C 148.605 0.960255 -4.40556 0
M  V30 1565 C 147.267 0.745766 -4.75386 0
M  V30 1566 C 149.619 0.414477 -5.19549 0
M  V30 1567 C 146.947 -0.0257694 -5.86694 0
M  V30 1568 C 149.299 -0.343916 -6.31664 0
M  V30 1569 C 147.963 -0.569301 -6.65068 0
M  V30 1570 H 147.233 0.329369 -0.663775 0
M  V30 1571 H 149.88 0.165647 -1.90782 0
M  V30 1572 H 148.185 2.54081 -2.98245 0
M  V30 1573 H 149.882 2.29591 -3.28769 0
M  V30 1574 H 146.472 1.13746 -4.13231 0
M  V30 1575 H 150.656 0.567554 -4.93044 0
M  V30 1576 H 145.912 -0.210233 -6.11038 0
M  V30 1577 H 150.086 -0.774133 -6.92084 0
M  V30 1578 H 147.713 -1.16903 -7.51158 0
M  V30 1579 N 149.288 1.51039 0.449983 0
M  V30 1580 C 150.704 1.38934 0.785462 0
M  V30 1581 C 150.904 0.461817 1.96136 0
M  V30 1582 O 149.96 -0.0877389 2.52348 0
M  V30 1583 C 151.273 2.80724 1.0777 0
M  V30 1584 C 152.821 2.89787 1.1829 0
M  V30 1585 C 153.296 4.32457 1.50815 0
M  V30 1586 N 154.787 4.35505 1.57764 0
M  V30 1587 C 155.522 5.42914 1.84477 0
M  V30 1588 N 155.018 6.60502 2.09068 0
M  V30 1589 N 156.811 5.3038 1.86155 0
M  V30 1590 H 148.962 2.09904 -0.324647 0
M  V30 1591 H 151.225 0.944378 -0.0827957 0
M  V30 1592 H 150.931 3.50531 0.286498 0
M  V30 1593 H 150.805 3.19273 2.00859 0
M  V30 1594 H 153.192 2.20186 1.96474 0
M  V30 1595 H 153.273 2.54752 0.231314 0
M  V30 1596 H 152.917 5.02603 0.731622 0
M  V30 1597 H 152.847 4.64995 2.47158 0
M  V30 1598 H 155.338 3.50724 1.40715 0
M  V30 1599 H 155.651 7.38158 2.28785 0
M  V30 1600 H 153.996 6.63639 2.06416 0
M  V30 1601 H 157.187 4.37505 1.66454 0
M  V30 1602 H 157.36 6.1417 2.06637 0
M  V30 1603 N 150.766 -0.704594 1.40972 0
M  V30 1604 C 152.043 -1.45847 1.30338 0
M  V30 1605 C 152.423 -2.10973 -0.0732344 0
M  V30 1606 O 151.771 -2.00997 -1.08685 0
M  V30 1607 C 151.981 -2.48525 2.45023 0
M  V30 1608 C 153.329 -3.1404 2.8577 0
M  V30 1609 O 154.353 -2.58848 2.44696 0
M  V30 1610 O 153.212 -4.13981 3.56766 0
M  V30 1611 H 150.306 -0.649092 0.512454 0
M  V30 1612 H 152.852 -0.735836 1.52917 0
M  V30 1613 H 151.624 -1.98994 3.36923 0
M  V30 1614 H 151.247 -3.2831 2.24272 0
M  V30 1615 N 152.244 -1.26651 -0.937939 0
M  V30 1616 C 153.154 -1.10276 -2.07066 0
M  V30 1617 C 154.17 -0.0354197 -1.73964 0
M  V30 1618 O 155.346 -0.239816 -1.99967 0
M  V30 1619 C 152.411 -0.740887 -3.38691 0
M  V30 1620 C 151.472 -1.88799 -3.85556 0
M  V30 1621 C 150.705 -1.54329 -5.10899 0
M  V30 1622 O 150.928 -0.446494 -5.6865 0
M  V30 1623 O 149.862 -2.37911 -5.52885 0
M  V30 1624 H 153.688 -2.05309 -2.23789 0
M  V30 1625 H 151.273 -1.05743 -1.0554 0
M  V30 1626 H 153.155 -0.55195 -4.1777 0
M  V30 1627 H 151.83 0.180022 -3.23199 0
M  V30 1628 H 150.737 -2.13191 -3.07409 0
M  V30 1629 H 152.07 -2.78874 -4.05574 0
M  V30 1630 N 153.722 1.14298 -1.08507 0
M  V30 1631 C 154.652 2.21542 -0.737646 0
M  V30 1632 C 155.633 1.67773 0.280377 0
M  V30 1633 O 156.818 1.93616 0.150521 0
M  V30 1634 C 153.948 3.46988 -0.147259 0
M  V30 1635 C 152.902 4.13789 -1.09374 0
M  V30 1636 C 152.228 5.33449 -0.365524 0
M  V30 1637 C 153.528 4.62208 -2.4323 0
M  V30 1638 H 155.222 2.5086 -1.6343 0
M  V30 1639 H 152.768 1.20576 -0.787243 0
M  V30 1640 H 154.721 4.21262 0.107808 0
M  V30 1641 H 153.445 3.17037 0.784538 0
M  V30 1642 H 152.104 3.4147 -1.33393 0
M  V30 1643 H 151.752 4.99759 0.57011 0
M  V30 1644 H 151.452 5.79088 -0.996512 0
M  V30 1645 H 152.976 6.10485 -0.118534 0
M  V30 1646 H 154.39 5.27952 -2.23472 0
M  V30 1647 H 152.787 5.18553 -3.02031 0
M  V30 1648 H 153.857 3.77224 -3.04681 0
M  V30 1649 N 155.201 0.870884 1.31352 0
M  V30 1650 C 156.164 0.332243 2.26779 0
M  V30 1651 C 157.164 -0.517302 1.52252 0
M  V30 1652 O 158.354 -0.326477 1.71113 0
M  V30 1653 C 155.486 -0.528066 3.36785 0
M  V30 1654 H 156.679 1.17469 2.75937 0
M  V30 1655 H 154.232 0.64655 1.423 0
M  V30 1656 H 154.967 -1.39167 2.92922 0
M  V30 1657 H 154.752 0.0802582 3.92018 0
M  V30 1658 H 156.242 -0.897179 4.07849 0
M  V30 1659 N 156.679 -1.44442 0.630414 0
M  V30 1660 C 157.909 -2.06115 0.141465 0
M  V30 1661 C 158.317 -1.47179 -1.1889 0
M  V30 1662 O 157.66 -0.588873 -1.74006 0
M  V30 1663 C 157.722 -3.59467 -0.0484355 0
M  V30 1664 C 157.386 -4.40864 1.20366 0
M  V30 1665 C 158.383 -4.74391 2.12719 0
M  V30 1666 C 156.068 -4.8125 1.43887 0
M  V30 1667 C 158.062 -5.47186 3.26904 0
M  V30 1668 C 155.749 -5.53795 2.5837 0
M  V30 1669 C 156.747 -5.86682 3.49705 0
M  V30 1670 O 156.435 -6.57749 4.62191 0
M  V30 1671 H 156.167 -0.671648 0.0765792 0
M  V30 1672 H 158.721 -1.86312 0.864695 0
M  V30 1673 H 156.951 -3.77758 -0.826803 0
M  V30 1674 H 158.64 -4.02909 -0.491849 0
M  V30 1675 H 159.406 -4.43728 1.95781 0
M  V30 1676 H 155.285 -4.55073 0.736853 0
M  V30 1677 H 158.829 -5.72773 3.98217 0
M  V30 1678 H 154.726 -5.83872 2.75251 0
M  V30 1679 H 155.494 -6.76217 4.61164 0
M  V30 1680 N 158.157 -0.370918 -1.53173 0
M  V30 1681 C 159.403 0.209976 -2.02313 0
M  V30 1682 C 159.758 1.45987 -1.25322 0
M  V30 1683 O 159.051 1.8856 -0.339965 0
M  V30 1684 C 159.245 0.549696 -3.53147 0
M  V30 1685 C 159.074 -0.665721 -4.44745 0
M  V30 1686 C 157.844 -1.17942 -4.91343 0
M  V30 1687 C 160.042 -1.53255 -4.90935 0
M  V30 1688 N 158.024 -2.35431 -5.66962 0
M  V30 1689 C 159.395 -2.55403 -5.64951 0
M  V30 1690 C 161.45 -1.5548 -4.73002 0
M  V30 1691 C 160.153 -3.5964 -6.22938 0
M  V30 1692 C 162.179 -2.58613 -5.31858 0
M  V30 1693 C 161.541 -3.59485 -6.05764 0
M  V30 1694 H 157.64 0.0394095 -0.781006 0
M  V30 1695 H 160.224 -0.516666 -1.8772 0
M  V30 1696 H 158.395 1.24541 -3.67891 0
M  V30 1697 H 160.127 1.11614 -3.89004 0
M  V30 1698 H 156.882 -0.743228 -4.67732 0
M  V30 1699 H 157.306 -2.94827 -6.09431 0
M  V30 1700 H 161.948 -0.788457 -4.15383 0
M  V30 1701 H 159.666 -4.37153 -6.79649 0
M  V30 1702 H 163.252 -2.61195 -5.19873 0
M  V30 1703 H 162.132 -4.3798 -6.50495 0
M  V30 1704 N 159.635 1.57281 -0.100228 0
M  V30 1705 C 160.883 1.94153 0.561157 0
M  V30 1706 C 161.204 0.983157 1.68401 0
M  V30 1707 O 160.474 0.0361132 1.95867 0
M  V30 1708 H 159.054 0.716791 0.210283 0
M  V30 1709 H 161.716 1.94202 -0.164765 0
M  V30 1710 H 160.812 2.96709 0.968008 0
M  V30 1711 N 161.113 -0.173488 1.56642 0
M  V30 1712 C 162.362 -0.888758 1.81063 0
M  V30 1713 C 162.675 -1.83506 0.67712 0
M  V30 1714 O 163.881 -2.59254 0.806206 0
M  V30 1715 C 162.337 -1.63091 3.20826 0
M  V30 1716 C 161.945 -0.728357 4.4204 0
M  V30 1717 C 163.689 -2.33454 3.54541 0
M  V30 1718 C 161.596 -1.47062 5.72823 0
M  V30 1719 H 160.526 -0.335618 0.675186 0
M  V30 1720 H 163.177 -0.141712 1.82952 0
M  V30 1721 H 161.559 -2.42263 3.13248 0
M  V30 1722 H 162.733 0.0262449 4.60793 0
M  V30 1723 H 161.048 -0.134492 4.16183 0
M  V30 1724 H 163.645 -2.89578 4.49498 0
M  V30 1725 H 163.988 -3.08687 2.79317 0
M  V30 1726 H 164.521 -1.61227 3.63663 0
M  V30 1727 H 161.26 -0.760658 6.51072 0
M  V30 1728 H 160.78 -2.1986 5.58052 0
M  V30 1729 H 162.459 -2.01868 6.14702 0
M  V30 1730 N 162.591 -1.51276 -0.441967 0
M  V30 1731 C 163.868 -1.54252 -1.20273 0
M  V30 1732 C 164.248 -0.30408 -2.08898 0
M  V30 1733 O 163.596 0.711084 -2.17154 0
M  V30 1734 C 163.806 -2.85406 -2.00859 0
M  V30 1735 C 165.154 -3.37181 -2.58059 0
M  V30 1736 O 166.178 -2.86925 -2.11074 0
M  V30 1737 O 165.037 -4.24858 -3.43741 0
M  V30 1738 H 162.131 -0.619969 -0.547328 0
M  V30 1739 H 164.677 -1.63586 -0.451413 0
M  V30 1740 H 163.449 -3.67003 -1.35736 0
M  V30 1741 H 163.072 -2.79213 -2.83065 0
M  V30 1742 N 164.069 0.697108 -1.41344 0
M  V30 1743 C 164.979 1.84088 -1.45427 0
M  V30 1744 C 165.995 1.70545 -0.34501 0
M  V30 1745 O 167.171 1.92488 -0.592492 0
M  V30 1746 C 164.236 3.20056 -1.33286 0
M  V30 1747 C 163.297 3.45718 -2.54514 0
M  V30 1748 C 162.53 4.75199 -2.42944 0
M  V30 1749 O 162.753 5.51579 -1.45318 0
M  V30 1750 O 161.687 5.0161 -3.32672 0
M  V30 1751 H 165.513 1.836 -2.41919 0
M  V30 1752 H 163.098 0.849966 -1.22866 0
M  V30 1753 H 164.98 4.01236 -1.28794 0
M  V30 1754 H 163.655 3.2123 -0.39909 0
M  V30 1755 H 162.562 2.64474 -2.64583 0
M  V30 1756 H 163.895 3.49356 -3.46715 0
M  V30 1757 N 165.547 1.27147 0.931209 0
M  V30 1758 C 166.51 1.09615 2.01289 0
M  V30 1759 C 167.51 0.0412581 1.60747 0
M  V30 1760 O 168.7 0.285545 1.71844 0
M  V30 1761 C 165.832 0.669447 3.34262 0
M  V30 1762 H 167.025 2.05662 2.18273 0
M  V30 1763 H 164.578 1.09885 1.11153 0
M  V30 1764 H 165.313 -0.292572 3.22978 0
M  V30 1765 H 165.098 1.43127 3.65044 0
M  V30 1766 H 166.588 0.568921 4.13706 0
M  V30 1767 N 167.025 -1.13721 1.09112 0
M  V30 1768 C 168.441 -1.36914 0.820174 0
M  V30 1769 C 168.641 -1.93356 -0.567079 0
M  V30 1770 O 167.697 -2.15093 -1.32255 0
M  V30 1771 C 169.01 -2.3235 1.90877 0
M  V30 1772 C 170.558 -2.45973 1.93562 0
M  V30 1773 C 171.033 -3.44714 3.01556 0
M  V30 1774 N 172.524 -3.52263 3.00775 0
M  V30 1775 C 173.259 -4.28536 3.80978 0
M  V30 1776 N 172.755 -5.07991 4.71081 0
M  V30 1777 N 174.548 -4.23804 3.69251 0
M  V30 1778 H 166.699 -0.754348 1.98553 0
M  V30 1779 H 168.962 -0.3944 0.862063 0
M  V30 1780 H 168.668 -1.98027 2.90651 0
M  V30 1781 H 168.542 -3.32332 1.78424 0
M  V30 1782 H 170.929 -2.79584 0.944286 0
M  V30 1783 H 171.01 -1.45926 2.10093 0
M  V30 1784 H 170.654 -3.11835 4.00901 0
M  V30 1785 H 170.584 -4.44558 2.82269 0
M  V30 1786 H 173.075 -2.95567 2.35475 0
M  V30 1787 H 173.388 -5.63487 5.28869 0
M  V30 1788 H 171.733 -5.07235 4.75119 0
M  V30 1789 H 174.924 -3.60806 2.98222 0
M  V30 1790 H 175.097 -4.82995 4.31995 0
M  V30 1791 N 168.503 -0.877838 -1.30888 0
M  V30 1792 C 169.433 -0.35534 -2.3078 0
M  V30 1793 C 170.414 0.557994 -1.60687 0
M  V30 1794 O 171.599 0.473355 -1.88343 0
M  V30 1795 C 168.729 0.437221 -3.44537 0
M  V30 1796 C 167.683 -0.383715 -4.26276 0
M  V30 1797 C 167.009 0.535014 -5.32017 0
M  V30 1798 C 168.309 -1.62201 -4.96476 0
M  V30 1799 H 170.003 -1.19007 -2.74732 0
M  V30 1800 H 167.549 -0.573698 -1.32078 0
M  V30 1801 H 169.502 0.813334 -4.13477 0
M  V30 1802 H 168.226 1.30553 -2.99372 0
M  V30 1803 H 166.885 -0.741874 -3.59015 0
M  V30 1804 H 166.533 1.40083 -4.831 0
M  V30 1805 H 166.233 -0.0104211 -5.87599 0
M  V30 1806 H 167.757 0.907799 -6.03814 0
M  V30 1807 H 169.171 -1.31689 -5.5797 0
M  V30 1808 H 167.568 -2.10711 -5.61891 0
M  V30 1809 H 168.638 -2.37044 -4.23011 0
M  V30 1810 N 169.982 1.44106 -0.638065 0
M  V30 1811 C 170.892 2.34513 0.0637334 0
M  V30 1812 C 171.908 1.53018 0.828346 0
M  V30 1813 O 173.084 1.85723 0.779036 0
M  V30 1814 C 170.149 3.31095 1.02844 0
M  V30 1815 C 169.21 4.28497 0.26244 0
M  V30 1816 C 168.443 5.20465 1.1812 0
M  V30 1817 O 168.666 5.16514 2.42011 0
M  V30 1818 O 167.6 5.98251 0.661774 0
M  V30 1819 H 171.426 2.95989 -0.68003 0
M  V30 1820 H 169.011 1.43994 -0.398252 0
M  V30 1821 H 170.893 3.90526 1.58327 0
M  V30 1822 H 169.568 2.72144 1.7527 0
M  V30 1823 H 168.475 3.72592 -0.335602 0
M  V30 1824 H 169.808 4.90388 -0.421936 0
M  V30 1825 N 171.46 0.379036 1.52974 0
M  V30 1826 C 172.876 0.0285448 1.59574 0
M  V30 1827 C 173.076 -1.45542 1.39355 0
M  V30 1828 O 172.132 -2.2187 1.20541 0
M  V30 1829 C 173.445 0.496535 2.96572 0
M  V30 1830 C 174.993 0.451909 3.0972 0
M  V30 1831 C 175.468 0.895924 4.49152 0
M  V30 1832 N 176.959 0.851522 4.55306 0
M  V30 1833 C 177.694 1.16661 5.61407 0
M  V30 1834 N 177.19 1.55166 6.752 0
M  V30 1835 N 178.983 1.08853 5.51459 0
M  V30 1836 H 171.134 1.34525 1.64367 0
M  V30 1837 H 173.397 0.550733 0.771619 0
M  V30 1838 H 173.103 1.53258 3.16552 0
M  V30 1839 H 172.977 -0.109802 3.7704 0
M  V30 1840 H 175.364 -0.575029 2.89443 0
M  V30 1841 H 175.445 1.09392 2.3123 0
M  V30 1842 H 175.089 1.92104 4.70168 0
M  V30 1843 H 175.019 0.23103 5.26093 0
M  V30 1844 H 177.51 0.568038 3.73606 0
M  V30 1845 H 177.823 1.776 7.52116 0
M  V30 1846 H 176.168 1.59044 6.76557 0
M  V30 1847 H 179.359 0.786803 4.6144 0
M  V30 1848 H 179.532 1.33742 6.34048 0
M  V30 1849 N 172.938 -1.57226 0.108567 0
M  V30 1850 C 174.178 -1.96717 -0.555155 0
M  V30 1851 C 174.542 -0.990003 -1.64508 0
M  V30 1852 O 175.743 -1.2739 -2.36696 0
M  V30 1853 C 174.014 -3.40575 -1.08367 0
M  V30 1854 S 175.573 -4.02072 -1.75737 0
M  V30 1855 H 172.391 -0.687638 -0.180762 0
M  V30 1856 H 174.993 -1.94563 0.191172 0
M  V30 1857 H 173.697 -4.0945 -0.279092 0
M  V30 1858 H 173.228 -3.46356 -1.86551 0
M  V30 1859 H 175.243 -3.91977 -3.04251 0
M  V30 1860 N 174.416 0.165178 -1.56732 0
M  V30 1861 C 175.656 0.887231 -1.8414 0
M  V30 1862 C 176.02 1.79159 -0.690353 0
M  V30 1863 O 177.221 2.55172 -0.845032 0
M  V30 1864 C 175.492 1.65674 -3.16681 0
M  V30 1865 S 177.051 2.42671 -3.6559 0
M  V30 1866 H 173.869 0.297042 -0.645978 0
M  V30 1867 H 176.471 0.148439 -1.94936 0
M  V30 1868 H 175.175 0.983507 -3.98441 0
M  V30 1869 H 174.706 2.43679 -3.08843 0
M  V30 1870 H 176.721 3.67499 -3.33406 0
M  V30 1871 N 175.894 1.51508 0.433938 0
M  V30 1872 C 176.824 1.76016 1.53429 0
M  V30 1873 C 177.805 0.610112 1.58782 0
M  V30 1874 O 178.99 0.853177 1.74455 0
M  V30 1875 C 176.12 1.88831 2.9148 0
M  V30 1876 C 175.074 3.04288 3.00987 0
M  V30 1877 C 174.4 3.0229 4.4105 0
M  V30 1878 C 175.7 4.44193 2.74754 0
M  V30 1879 H 177.394 2.68152 1.33171 0
M  V30 1880 H 174.94 1.29035 0.639214 0
M  V30 1881 H 176.893 2.04559 3.6842 0
M  V30 1882 H 175.617 0.933455 3.12976 0
M  V30 1883 H 174.276 2.8827 2.26486 0
M  V30 1884 H 173.924 2.04576 4.59519 0
M  V30 1885 H 173.624 3.79822 4.4834 0
M  V30 1886 H 175.148 3.20116 5.1996 0
M  V30 1887 H 176.562 4.60544 3.41426 0
M  V30 1888 H 174.959 5.23457 2.9345 0
M  V30 1889 H 176.029 4.53996 1.70339 0
M  V30 1890 N 177.372 -0.689602 1.41712 0
M  V30 1891 C 178.788 -1.00093 1.24312 0
M  V30 1892 C 178.988 -2.01036 0.136729 0
M  V30 1893 O 178.044 -2.47562 -0.496918 0
M  V30 1894 C 179.357 -1.51985 2.59463 0
M  V30 1895 C 180.905 -1.63838 2.66695 0
M  V30 1896 C 181.38 -2.1913 4.02177 0
M  V30 1897 N 182.871 -2.26483 4.04054 0
M  V30 1898 C 183.606 -2.70306 5.0569 0
M  V30 1899 N 183.102 -3.13691 6.17713 0
M  V30 1900 N 184.895 -2.69923 4.9305 0
M  V30 1901 H 177.046 -0.0210029 2.1239 0
M  V30 1902 H 179.309 -0.0718733 0.945272 0
M  V30 1903 H 179.015 -0.85269 3.41207 0
M  V30 1904 H 178.889 -2.50103 2.82362 0
M  V30 1905 H 181.276 -2.29664 1.85306 0
M  V30 1906 H 181.357 -0.642492 2.476 0
M  V30 1907 H 181.001 -1.53918 4.84016 0
M  V30 1908 H 180.931 -3.19482 4.18615 0
M  V30 1909 H 183.422 -1.95874 3.23174 0
M  V30 1910 H 183.735 -3.45773 6.9113 0
M  V30 1911 H 182.08 -3.11585 6.21241 0
M  V30 1912 H 185.271 -2.35382 4.04614 0
M  V30 1913 H 185.444 -3.03758 5.72394 0
M  V30 1914 N 178.85 -1.27639 -0.924453 0
M  V30 1915 C 180.266 -1.05113 -1.20097 0
M  V30 1916 C 180.466 0.213262 -2.00368 0
M  V30 1917 O 179.522 0.91787 -2.35226 0
M  V30 1918 C 180.835 -2.29244 -1.94596 0
M  V30 1919 C 182.383 -2.34315 -2.07522 0
M  V30 1920 C 182.858 -3.58183 -2.85427 0
M  V30 1921 N 184.349 -3.5876 -2.92994 0
M  V30 1922 C 185.084 -4.51277 -3.53746 0
M  V30 1923 N 184.58 -5.54102 -4.15863 0
M  V30 1924 N 186.373 -4.38894 -3.51181 0
M  V30 1925 H 178.524 -2.08821 -0.388264 0
M  V30 1926 H 180.787 -0.918568 -0.234385 0
M  V30 1927 H 180.493 -3.21301 -1.43034 0
M  V30 1928 H 180.367 -2.34816 -2.95197 0
M  V30 1929 H 182.754 -1.42762 -2.58269 0
M  V30 1930 H 182.835 -2.32744 -1.06131 0
M  V30 1931 H 182.479 -4.50074 -2.35363 0
M  V30 1932 H 182.409 -3.57006 -3.8711 0
M  V30 1933 H 184.9 -2.84398 -2.4885 0
M  V30 1934 H 185.213 -6.20859 -4.60168 0
M  V30 1935 H 183.558 -5.57941 -4.144 0
M  V30 1936 H 186.749 -3.57772 -3.01856 0
M  V30 1937 H 186.922 -5.11186 -3.98237 0
M  V30 1938 N 180.328 1.1314 -1.09713 0
M  V30 1939 C 181.258 2.20748 -0.761102 0
M  V30 1940 C 182.239 1.68061 0.262566 0
M  V30 1941 O 183.424 1.93765 0.129977 0
M  V30 1942 C 180.554 3.46812 -0.184054 0
M  V30 1943 C 179.508 4.12606 -1.13757 0
M  V30 1944 C 178.834 5.33031 -0.422083 0
M  V30 1945 C 180.134 4.59603 -2.48118 0
M  V30 1946 H 181.828 2.49113 -1.66082 0
M  V30 1947 H 179.374 1.19734 -0.799987 0
M  V30 1948 H 181.327 4.21353 0.0631215 0
M  V30 1949 H 180.051 3.17851 0.750868 0
M  V30 1950 H 178.71 3.40036 -1.37007 0
M  V30 1951 H 178.358 5.00335 0.517072 0
M  V30 1952 H 178.058 5.77999 -1.05788 0
M  V30 1953 H 179.582 6.10325 -0.183277 0
M  V30 1954 H 180.996 5.25552 -2.29059 0
M  V30 1955 H 179.393 5.15321 -3.07514 0
M  V30 1956 H 180.463 3.73971 -3.08665 0
M  V30 1957 N 181.806 0.884767 1.30421 0
M  V30 1958 C 183.222 0.57874 1.48737 0
M  V30 1959 C 183.422 -0.883567 1.81095 0
M  V30 1960 O 182.478 -1.6648 1.89844 0
M  V30 1961 C 183.791 1.49171 2.61091 0
M  V30 1962 C 185.339 1.49532 2.74971 0
M  V30 1963 C 185.814 2.39421 3.90438 0
M  V30 1964 N 187.305 2.37383 3.97748 0
M  V30 1965 C 188.04 3.03647 4.86401 0
M  V30 1966 N 187.536 3.79136 5.79852 0
M  V30 1967 N 189.329 2.9288 4.79768 0
M  V30 1968 H 181.48 1.83075 1.0769 0
M  V30 1969 H 183.743 0.783637 0.533495 0
M  V30 1970 H 183.449 2.53291 2.44001 0
M  V30 1971 H 183.323 1.20113 3.57565 0
M  V30 1972 H 185.71 0.46163 2.91467 0
M  V30 1973 H 185.791 1.8262 1.79119 0
M  V30 1974 H 185.435 3.42874 3.74699 0
M  V30 1975 H 185.365 2.03649 4.85628 0
M  V30 1976 H 187.856 1.82525 3.30897 0
M  V30 1977 H 188.169 4.26789 6.4426 0
M  V30 1978 H 186.514 3.83243 5.79784 0
M  V30 1979 H 189.705 2.33433 4.05742 0
M  V30 1980 H 189.878 3.448 5.4865 0
M  V30 1981 N 183.284 -1.43765 0.645699 0
M  V30 1982 C 184.7 -1.56509 0.312591 0
M  V30 1983 C 184.9 -1.6307 -1.18365 0
M  V30 1984 O 183.956 -1.58167 -1.96824 0
M  V30 1985 C 185.269 -2.82968 1.01733 0
M  V30 1986 C 186.817 -2.96701 0.996865 0
M  V30 1987 C 187.292 -4.25982 1.68236 0
M  V30 1988 N 188.783 -4.32829 1.64964 0
M  V30 1989 C 189.518 -5.31613 2.14885 0
M  V30 1990 N 189.014 -6.36718 2.73061 0
M  V30 1991 N 190.807 -5.23217 2.05428 0
M  V30 1992 H 182.958 -1.3775 1.61675 0
M  V30 1993 H 185.221 -0.661067 0.679481 0
M  V30 1994 H 184.927 -2.84156 2.0724 0
M  V30 1995 H 184.801 -3.72957 0.564177 0
M  V30 1996 H 187.188 -2.95058 -0.0497719 0
M  V30 1997 H 187.269 -2.08022 1.48865 0
M  V30 1998 H 186.913 -4.28386 2.72852 0
M  V30 1999 H 186.843 -5.13545 1.16529 0
M  V30 2000 H 189.334 -3.57493 1.22503 0
M  V30 2001 H 189.647 -7.08401 3.08848 0
M  V30 2002 H 187.992 -6.37362 2.77118 0
M  V30 2003 H 191.183 -4.40019 1.59689 0
M  V30 2004 H 191.356 -6.00045 2.44643 0
M  V30 2005 N 184.763 -0.387143 -1.52771 0
M  V30 2006 C 186.179 -0.037007 -1.59557 0
M  V30 2007 C 186.379 1.44801 -1.40124 0
M  V30 2008 O 185.435 2.21227 -1.21716 0
M  V30 2009 C 186.748 -0.512256 -2.96305 0
M  V30 2010 C 188.296 -0.468328 -3.09476 0
M  V30 2011 C 188.771 -0.919731 -4.4867 0
M  V30 2012 N 190.262 -0.875656 -4.54848 0
M  V30 2013 C 190.997 -1.19637 -5.6078 0
M  V30 2014 N 190.493 -1.58745 -6.74368 0
M  V30 2015 N 192.286 -1.11776 -5.50874 0
M  V30 2016 H 184.437 -1.35395 -1.63652 0
M  V30 2017 H 186.7 -0.554818 -0.768688 0
M  V30 2018 H 186.406 -1.54935 -3.15734 0
M  V30 2019 H 186.28 0.089805 -3.77093 0
M  V30 2020 H 188.667 0.559671 -2.89744 0
M  V30 2021 H 188.748 -1.10616 -2.30646 0
M  V30 2022 H 188.392 -1.94595 -4.69143 0
M  V30 2023 H 188.322 -0.258927 -5.25963 0
M  V30 2024 H 190.813 -0.587843 -3.733 0
M  V30 2025 H 191.126 -1.81586 -7.51163 0
M  V30 2026 H 189.471 -1.6263 -6.75705 0
M  V30 2027 H 192.662 -0.811264 -4.61016 0
M  V30 2028 H 192.835 -1.37103 -6.3333 0
M  V30 2029 N 186.241 1.57166 -0.116904 0
M  V30 2030 C 187.151 2.18745 0.847812 0
M  V30 2031 C 188.167 1.163 1.29423 0
M  V30 2032 O 189.343 1.48761 1.35765 0
M  V30 2033 C 186.408 2.77307 2.0809 0
M  V30 2034 C 185.469 3.94781 1.68661 0
M  V30 2035 C 184.702 4.50541 2.86091 0
M  V30 2036 O 184.925 4.05202 4.01456 0
M  V30 2037 O 183.859 5.41256 2.63298 0
M  V30 2038 H 187.685 3.01632 0.353778 0
M  V30 2039 H 185.27 1.49005 0.108599 0
M  V30 2040 H 187.152 3.14647 2.80313 0
M  V30 2041 H 185.827 1.97452 2.56504 0
M  V30 2042 H 184.734 3.62214 0.935518 0
M  V30 2043 H 186.067 4.76065 1.24991 0
M  V30 2044 N 187.719 -0.156864 1.56817 0
M  V30 2045 C 188.629 -1.2136 2.00771 0
M  V30 2046 C 189.645 -1.47598 0.921459 0
M  V30 2047 O 190.821 -1.59462 1.2302 0
M  V30 2048 C 187.886 -2.52943 2.37109 0
M  V30 2049 C 186.947 -2.34439 3.59634 0
M  V30 2050 C 186.18 -3.59748 3.94229 0
M  V30 2051 O 186.403 -4.65526 3.29609 0
M  V30 2052 O 185.337 -3.52998 4.8752 0
M  V30 2053 H 189.163 -0.870468 2.90958 0
M  V30 2054 H 186.748 -0.36484 1.44877 0
M  V30 2055 H 188.63 -3.30538 2.61386 0
M  V30 2056 H 187.305 -2.86806 1.5008 0
M  V30 2057 H 186.212 -1.54828 3.40557 0
M  V30 2058 H 187.545 -2.05496 4.4725 0
M  V30 2059 N 189.197 -1.51736 -0.425897 0
M  V30 2060 C 190.107 -1.76738 -1.54275 0
M  V30 2061 C 191.123 -0.65211 -1.61318 0
M  V30 2062 O 192.299 -0.935654 -1.78346 0
M  V30 2063 C 189.364 -1.89755 -2.90162 0
M  V30 2064 C 188.425 -3.13633 -2.93143 0
M  V30 2065 C 187.658 -3.2602 -4.22548 0
M  V30 2066 O 187.881 -2.44067 -5.15546 0
M  V30 2067 O 186.815 -4.19071 -4.32046 0
M  V30 2068 H 190.641 -2.71502 -1.36089 0
M  V30 2069 H 188.226 -1.36376 -0.610069 0
M  V30 2070 H 190.108 -2.00236 -3.70788 0
M  V30 2071 H 188.783 -0.981785 -3.08452 0
M  V30 2072 H 187.69 -3.08622 -2.11431 0
M  V30 2073 H 189.023 -4.04936 -2.798 0
M  V30 2074 N 190.675 0.682077 -1.42076 0
M  V30 2075 C 191.638 1.77756 -1.44691 0
M  V30 2076 C 192.638 1.5726 -0.335535 0
M  V30 2077 O 193.828 1.63686 -0.596037 0
M  V30 2078 C 190.96 3.16301 -1.27146 0
M  V30 2079 H 192.153 1.76826 -2.42224 0
M  V30 2080 H 189.706 0.891012 -1.28416 0
M  V30 2081 H 190.441 3.22862 -0.305075 0
M  V30 2082 H 190.226 3.32581 -2.07683 0
M  V30 2083 H 191.716 3.96241 -1.31843 0
M  V30 2084 N 192.153 1.28127 0.917671 0
M  V30 2085 C 193.116 1.11744 2.00115 0
M  V30 2086 C 194.116 0.0583052 1.60694 0
M  V30 2087 O 195.306 0.303755 1.71531 0
M  V30 2088 C 192.438 0.704862 3.33533 0
M  V30 2089 H 193.631 2.07966 2.16079 0
M  V30 2090 H 191.184 1.11058 1.09981 0
M  V30 2091 H 191.919 -0.258299 3.2327 0
M  V30 2092 H 191.704 1.4699 3.63505 0
M  V30 2093 H 193.194 0.612768 4.1308 0
M  V30 2094 N 193.631 -1.12557 1.10312 0
M  V30 2095 C 194.541 -2.21841 0.763142 0
M  V30 2096 C 195.557 -1.72354 -0.238801 0
M  V30 2097 O 196.733 -2.01249 -0.0778746 0
M  V30 2098 C 193.798 -3.46131 0.198632 0
M  V30 2099 C 192.859 -4.10464 1.25769 0
M  V30 2100 C 192.092 -5.28821 0.72002 0
M  V30 2101 O 192.315 -5.6859 -0.453993 0
M  V30 2102 O 191.249 -5.83437 1.47935 0
M  V30 2103 H 195.075 -2.53312 1.67532 0
M  V30 2104 H 192.66 -1.20867 0.878157 0
M  V30 2105 H 194.542 -4.2125 -0.112401 0
M  V30 2106 H 193.217 -3.16338 -0.686419 0
M  V30 2107 H 192.124 -3.3713 1.62156 0
M  V30 2108 H 193.457 -4.44408 2.11571 0
M  V30 2109 N 195.109 -0.891671 -1.2995 0
M  V30 2110 C 196.072 -0.36828 -2.26222 0
M  V30 2111 C 197.072 0.493014 -1.53056 0
M  V30 2112 O 198.262 0.299213 -1.71611 0
M  V30 2113 C 195.394 0.47442 -3.37583 0
M  V30 2114 H 196.587 -1.21844 -2.74033 0
M  V30 2115 H 194.14 -0.669107 -1.41254 0
M  V30 2116 H 194.875 1.34489 -2.95099 0
M  V30 2117 H 194.66 -0.142615 -3.91841 0
M  V30 2118 H 196.15 0.83218 -4.09224 0
M  V30 2119 N 196.587 1.43421 -0.653314 0
M  V30 2120 C 198.003 1.56341 -0.320886 0
M  V30 2121 C 198.203 1.63696 1.17499 0
M  V30 2122 O 197.259 1.59208 1.95982 0
M  V30 2123 C 198.572 2.82424 -1.03233 0
M  V30 2124 C 200.12 2.96168 -1.01259 0
M  V30 2125 C 200.595 4.25084 -1.70492 0
M  V30 2126 N 202.086 4.31948 -1.67257 0
M  V30 2127 C 202.821 5.30466 -2.17701 0
M  V30 2128 N 202.317 6.35261 -2.76434 0
M  V30 2129 N 204.11 5.2212 -2.082 0
M  V30 2130 H 196.261 1.3689 -1.62403 0
M  V30 2131 H 198.524 0.657455 -0.682977 0
M  V30 2132 H 198.23 2.83053 -2.08744 0
M  V30 2133 H 198.104 3.72653 -0.583948 0
M  V30 2134 H 200.491 2.9508 0.0341235 0
M  V30 2135 H 200.572 2.07229 -1.49966 0
M  V30 2136 H 200.216 4.26932 -2.7512 0
M  V30 2137 H 200.146 5.1292 -1.19251 0
M  V30 2138 H 202.637 3.56838 -1.24398 0
M  V30 2139 H 202.95 7.06754 -3.12601 0
M  V30 2140 H 201.295 6.35884 -2.80495 0
M  V30 2141 H 204.486 4.39166 -1.62021 0
M  V30 2142 H 204.659 5.98739 -2.47822 0
M  V30 2143 N 198.065 0.39524 1.52563 0
M  V30 2144 C 199.028 -0.425001 2.25225 0
M  V30 2145 C 200.028 -0.985266 1.27079 0
M  V30 2146 O 201.218 -0.866332 1.5113 0
M  V30 2147 C 198.35 -1.59686 3.01186 0
M  V30 2148 H 199.543 0.211233 2.99155 0
M  V30 2149 H 197.096 0.147472 1.55603 0
M  V30 2150 H 197.831 -2.27035 2.31572 0
M  V30 2151 H 197.616 -1.20176 3.73229 0
M  V30 2152 H 199.106 -2.17743 3.5634 0
M  V30 2153 N 199.544 -1.57102 0.125237 0
M  V30 2154 C 200.792 -1.95021 -0.530198 0
M  V30 2155 C 201.113 -1.00982 -1.66816 0
M  V30 2156 O 200.383 -0.0672693 -1.95784 0
M  V30 2157 H 198.963 -0.720046 -0.198853 0
M  V30 2158 H 201.625 -1.93916 0.19564 0
M  V30 2159 H 200.721 -2.98211 -0.920681 0
M  V30 2160 N 201.022 0.148545 -1.56898 0
M  V30 2161 C 202.433 0.708766 -1.72723 0
M  V30 2162 C 202.784 1.81734 -0.739395 0
M  V30 2163 O 201.909 2.16194 0.0943169 0
M  V30 2164 C 202.504 1.29245 -3.13179 0
M  V30 2165 C 201.063 1.79925 -3.30611 0
M  V30 2166 C 200.21 0.687111 -2.68652 0
M  V30 2167 H 203.161 -0.0771063 -1.58513 0
M  V30 2168 H 203.182 2.16224 -3.13093 0
M  V30 2169 H 202.694 0.485382 -3.85053 0
M  V30 2170 H 200.795 2.63203 -2.63732 0
M  V30 2171 H 200.908 1.92903 -4.38549 0
M  V30 2172 H 199.272 1.11335 -2.29078 0
M  V30 2173 H 200.055 -0.108483 -3.43129 0
M  V30 2174 N 202.5 1.5196 0.417844 0
M  V30 2175 C 203.728 1.69426 1.18753 0
M  V30 2176 C 204.143 0.399955 1.84515 0
M  V30 2177 O 203.5 -0.623288 1.71527 0
M  V30 2178 C 203.551 2.82375 2.25714 0
M  V30 2179 O 203.272 4.06793 1.62638 0
M  V30 2180 C 204.773 3.11277 3.15628 0
M  V30 2181 H 201.993 0.568031 0.357186 0
M  V30 2182 H 204.537 1.98475 0.49273 0
M  V30 2183 H 202.692 2.5587 2.90877 0
M  V30 2184 H 203.106 4.69667 2.3348 0
M  V30 2185 H 204.58 3.93843 3.86771 0
M  V30 2186 H 205.057 2.24473 3.77503 0
M  V30 2187 H 205.663 3.39515 2.56144 0
M  V30 2188 N 203.978 -0.674533 1.42435 0
M  V30 2189 C 204.888 -1.81751 1.48337 0
M  V30 2190 C 205.904 -1.69975 0.372099 0
M  V30 2191 O 207.08 -1.91521 0.62304 0
M  V30 2192 C 204.145 -3.17895 1.38361 0
M  V30 2193 C 203.206 -3.41625 2.59982 0
M  V30 2194 C 202.439 -4.71274 2.50473 0
M  V30 2195 O 202.662 -5.49197 1.54075 0
M  V30 2196 O 201.596 -4.96254 3.4061 0
M  V30 2197 H 205.422 -1.79728 2.44809 0
M  V30 2198 H 203.007 -0.830312 1.24202 0
M  V30 2199 H 204.889 -3.99136 1.35161 0
M  V30 2200 H 203.564 -3.20555 0.450144 0
M  V30 2201 H 202.471 -2.60231 2.68757 0
M  V30 2202 H 203.804 -3.43796 3.52229 0
M  V30 2203 N 205.456 -1.28612 -0.910864 0
M  V30 2204 C 206.872 -1.06381 -1.18976 0
M  V30 2205 C 207.072 0.191998 -2.00583 0
M  V30 2206 O 206.128 0.892869 -2.36187 0
M  V30 2207 C 207.441 -2.31295 -1.92154 0
M  V30 2208 C 208.989 -2.36503 -2.05025 0
M  V30 2209 C 209.464 -3.61191 -2.81612 0
M  V30 2210 N 210.955 -3.61847 -2.89172 0
M  V30 2211 C 211.69 -4.55004 -3.4894 0
M  V30 2212 N 211.186 -5.58482 -4.09963 0
M  V30 2213 N 212.979 -4.42594 -3.46506 0
M  V30 2214 H 205.13 -2.09221 -0.366094 0
M  V30 2215 H 207.393 -0.921003 -0.224629 0
M  V30 2216 H 207.099 -3.228 -1.39618 0
M  V30 2217 H 206.973 -2.37934 -2.9269 0
M  V30 2218 H 209.36 -1.45494 -2.5674 0
M  V30 2219 H 209.441 -2.33857 -1.03657 0
M  V30 2220 H 209.085 -4.52545 -2.30576 0
M  V30 2221 H 209.015 -3.61092 -3.83302 0
M  V30 2222 H 211.506 -2.87022 -2.45819 0
M  V30 2223 H 211.819 -6.25704 -4.53557 0
M  V30 2224 H 210.164 -5.62305 -4.08459 0
M  V30 2225 H 213.355 -3.60953 -2.98045 0
M  V30 2226 H 213.528 -5.15381 -3.92793 0
M  V30 2227 N 206.934 1.1197 -1.10907 0
M  V30 2228 C 208.182 1.83225 -0.852819 0
M  V30 2229 C 208.503 1.84769 0.623341 0
M  V30 2230 O 207.773 1.3143 1.45269 0
M  V30 2231 H 206.353 0.67849 -0.312507 0
M  V30 2232 H 209.015 1.3556 -1.40033 0
M  V30 2233 H 208.111 2.87265 -1.22005 0
M  V30 2234 N 208.412 0.89855 1.29475 0
M  V30 2235 C 209.375 0.380272 2.26023 0
M  V30 2236 C 210.375 -0.484891 1.53315 0
M  V30 2237 O 211.565 -0.290108 1.71767 0
M  V30 2238 C 208.697 -0.45651 3.3783 0
M  V30 2239 H 209.89 1.23295 2.73383 0
M  V30 2240 H 207.443 0.676589 1.40897 0
M  V30 2241 H 208.178 -1.32922 2.95808 0
M  V30 2242 H 207.963 0.163393 3.91759 0
M  V30 2243 H 209.453 -0.810466 4.0966 0
M  V30 2244 N 209.89 -1.43072 0.660911 0
M  V30 2245 C 210.822 -2.29108 -0.0647641 0
M  V30 2246 C 211.835 -1.42928 -0.779448 0
M  V30 2247 O 213.024 -1.66788 -0.635921 0
M  V30 2248 C 210.124 -3.20032 -1.11503 0
M  V30 2249 C 209.297 -4.34792 -0.476955 0
M  V30 2250 C 208.356 -5.06534 -1.42513 0
M  V30 2251 O 207.382 -5.61538 -0.930771 0
M  V30 2252 N 208.584 -5.1075 -2.75889 0
M  V30 2253 H 211.349 -2.92029 0.673731 0
M  V30 2254 H 208.91 -1.53846 0.50427 0
M  V30 2255 H 210.902 -3.64892 -1.75032 0
M  V30 2256 H 209.472 -2.58658 -1.75541 0
M  V30 2257 H 208.692 -3.92752 0.337572 0
M  V30 2258 H 209.98 -5.0879 -0.0318525 0
M  V30 2259 H 209.378 -4.67447 -3.18606 0
M  V30 2260 H 207.935 -5.59302 -3.347 0
M  V30 2261 N 211.368 -0.403325 -1.52352 0
M  V30 2262 C 212.616 0.174003 -2.0135 0
M  V30 2263 C 212.937 1.46139 -1.29106 0
M  V30 2264 O 212.207 1.91448 -0.415253 0
M  V30 2265 H 210.787 0.0672911 -0.743963 0
M  V30 2266 H 213.449 -0.538235 -1.87321 0
M  V30 2267 H 212.545 0.374254 -3.09848 0
M  V30 2268 N 212.846 1.57033 -0.133567 0
M  V30 2269 C 214.071 2.00475 0.531477 0
M  V30 2270 C 214.496 1.01291 1.58499 0
M  V30 2271 O 213.854 -0.0133279 1.81295 0
M  V30 2272 C 213.902 3.42729 1.12113 0
M  V30 2273 O 213.006 3.46498 2.23636 0
M  V30 2274 H 212.347 0.650876 0.131362 0
M  V30 2275 H 214.877 2.03344 -0.22634 0
M  V30 2276 H 214.887 3.81246 1.4531 0
M  V30 2277 H 213.562 4.14428 0.349557 0
M  V30 2278 H 212.139 3.19811 1.91769 0
M  V30 2279 N 214.325 -0.140222 1.56975 0
M  V30 2280 C 215.736 -0.699596 1.73097 0
M  V30 2281 C 216.087 -1.8134 0.749022 0
M  V30 2282 O 215.212 -2.16241 -0.0828503 0
M  V30 2283 C 215.807 -1.27582 3.1386 0
M  V30 2284 C 214.366 -1.78169 3.31561 0
M  V30 2285 C 213.513 -0.672855 2.69013 0
M  V30 2286 H 216.464 0.0855115 1.58469 0
M  V30 2287 H 216.485 -2.14561 3.14235 0
M  V30 2288 H 215.997 -0.464955 3.85305 0
M  V30 2289 H 214.098 -2.61801 2.65124 0
M  V30 2290 H 214.211 -1.90574 4.39566 0
M  V30 2291 H 212.575 -1.10118 2.29665 0
M  V30 2292 H 213.358 0.126679 3.43066 0
M  V30 2293 N 215.803 -1.52179 -0.40978 0
M  V30 2294 C 216.766 -1.74853 -1.48186 0
M  V30 2295 C 217.766 -0.618417 -1.48433 0
M  V30 2296 O 218.956 -0.886286 -1.49969 0
M  V30 2297 C 216.088 -1.8303 -2.87598 0
M  V30 2298 H 217.281 -2.70559 -1.29374 0
M  V30 2299 H 214.834 -1.42586 -0.640233 0
M  V30 2300 H 215.569 -0.89236 -3.11781 0
M  V30 2301 H 215.354 -2.65187 -2.88822 0
M  V30 2302 H 216.844 -2.02316 -3.65319 0
M  V30 2303 N 217.281 0.66697 -1.42791 0
M  V30 2304 C 218.697 0.981027 -1.25889 0
M  V30 2305 C 218.897 2.00793 -0.168695 0
M  V30 2306 O 217.953 2.48321 0.45747 0
M  V30 2307 C 219.266 1.47838 -2.61848 0
M  V30 2308 C 220.814 1.59575 -2.69267 0
M  V30 2309 C 221.289 2.12704 -4.05612 0
M  V30 2310 N 222.78 2.20026 -4.07606 0
M  V30 2311 C 223.515 2.62227 -5.09926 0
M  V30 2312 N 223.011 3.03824 -6.22626 0
M  V30 2313 N 224.804 2.62045 -4.97281 0
M  V30 2314 H 216.955 -0.0127891 -2.12396 0
M  V30 2315 H 219.218 0.0568258 -0.946295 0
M  V30 2316 H 218.924 0.798299 -3.4252 0
M  V30 2317 H 218.798 2.45579 -2.86305 0
M  V30 2318 H 221.185 2.26687 -1.88936 0
M  V30 2319 H 221.266 0.60302 -2.48591 0
M  V30 2320 H 220.91 1.46198 -4.86404 0
M  V30 2321 H 220.84 3.12782 -4.23645 0
M  V30 2322 H 223.331 1.90708 -3.2625 0
M  V30 2323 H 223.644 3.34734 -6.96544 0
M  V30 2324 H 221.989 3.01662 -6.26119 0
M  V30 2325 H 225.18 2.28916 -4.08308 0
M  V30 2326 H 225.353 2.94613 -5.77154 0
M  V30 2327 N 218.759 1.29093 0.90403 0
M  V30 2328 C 219.722 1.1386 1.98919 0
M  V30 2329 C 220.722 0.0753457 1.60623 0
M  V30 2330 O 221.912 0.321931 1.71199 0
M  V30 2331 C 219.044 0.740198 3.32767 0
M  V30 2332 H 220.237 2.10246 2.13861 0
M  V30 2333 H 217.79 1.12218 1.08797 0
M  V30 2334 H 218.525 -0.223997 3.23525 0
M  V30 2335 H 218.31 1.50838 3.61926 0
M  V30 2336 H 219.8 0.656546 4.12407 0
M  V30 2337 N 220.237 -1.11381 1.11499 0
M  V30 2338 C 221.167 -2.19509 0.796125 0
M  V30 2339 C 222.148 -1.68458 -0.235796 0
M  V30 2340 O 223.333 -1.93947 -0.0991344 0
M  V30 2341 C 220.463 -3.46475 0.239205 0
M  V30 2342 C 219.417 -4.10744 1.20307 0
M  V30 2343 C 218.743 -5.32293 0.50683 0
M  V30 2344 C 220.043 -4.55597 2.55399 0
M  V30 2345 H 221.737 -2.46439 1.70024 0
M  V30 2346 H 219.283 -1.18446 0.818935 0
M  V30 2347 H 221.236 -4.214 0.00392006 0
M  V30 2348 H 219.96 -3.19006 -0.700206 0
M  V30 2349 H 218.619 -3.37813 1.42399 0
M  V30 2350 H 218.267 -5.01095 -0.437408 0
M  V30 2351 H 217.967 -5.76243 1.1497 0
M  V30 2352 H 219.491 -6.09956 0.280351 0
M  V30 2353 H 220.905 -5.21841 2.37391 0
M  V30 2354 H 219.302 -5.10363 3.15673 0
M  V30 2355 H 220.372 -3.69013 3.14575 0
M  V30 2356 N 221.715 -0.905404 -1.28997 0
M  V30 2357 C 222.963 -0.533192 -1.9494 0
M  V30 2358 C 223.284 0.924618 -1.71685 0
M  V30 2359 O 222.554 1.65268 -1.05183 0
M  V30 2360 H 221.134 -0.194194 -0.721317 0
M  V30 2361 H 223.796 -1.15294 -1.57141 0
M  V30 2362 H 222.892 -0.72059 -3.03667 0
M  V30 2363 N 223.193 1.4272 -0.668489 0
M  V30 2364 C 224.604 1.84793 -0.266151 0
M  V30 2365 C 224.955 1.55959 1.19043 0
M  V30 2366 O 224.08 1.01622 1.91055 0
M  V30 2367 C 224.675 3.35436 -0.476271 0
M  V30 2368 C 223.234 3.76182 -0.128113 0
M  V30 2369 C 222.381 2.66344 -0.771777 0
M  V30 2370 H 225.332 1.32656 -0.871098 0
M  V30 2371 H 225.353 3.79515 0.273561 0
M  V30 2372 H 224.865 3.5639 -1.53647 0
M  V30 2373 H 222.966 3.60836 0.928891 0
M  V30 2374 H 223.079 4.75766 -0.564231 0
M  V30 2375 H 221.443 2.53885 -0.203652 0
M  V30 2376 H 222.226 2.90123 -1.83531 0
M  V30 2377 N 224.671 0.411399 1.52136 0
M  V30 2378 C 226.087 0.0623865 1.59478 0
M  V30 2379 C 226.287 -1.42554 1.4241 0
M  V30 2380 O 225.343 -2.19263 1.2522 0
M  V30 2381 C 226.656 0.559331 2.95452 0
M  V30 2382 C 228.204 0.517503 3.08692 0
M  V30 2383 C 228.679 0.990994 4.4715 0
M  V30 2384 N 230.17 0.947908 4.53397 0
M  V30 2385 C 230.905 1.28544 5.58806 0
M  V30 2386 N 230.401 1.69454 6.71757 0
M  V30 2387 N 232.194 1.20526 5.49026 0
M  V30 2388 H 224.345 1.37982 1.61477 0
M  V30 2389 H 226.608 0.566977 0.759764 0
M  V30 2390 H 226.314 1.59938 3.1323 0
M  V30 2391 H 226.188 -0.0298014 3.77188 0
M  V30 2392 H 228.575 -0.513505 2.90598 0
M  V30 2393 H 228.656 1.14272 2.28857 0
M  V30 2394 H 228.3 2.02034 4.65988 0
M  V30 2395 H 228.23 0.34257 5.25485 0
M  V30 2396 H 230.721 0.647157 3.72317 0
M  V30 2397 H 231.034 1.93513 7.48179 0
M  V30 2398 H 229.379 1.73359 6.73032 0
M  V30 2399 H 232.57 0.884505 4.59667 0
M  V30 2400 H 232.743 1.47161 6.31069 0
M  V30 2401 N 226.149 -1.5696 0.141893 0
M  V30 2402 C 227.397 -1.95573 -0.509484 0
M  V30 2403 C 227.718 -1.02746 -1.65736 0
M  V30 2404 O 226.988 -0.0880311 -1.95702 0
M  V30 2405 H 225.568 -0.722115 -0.191205 0
M  V30 2406 H 228.23 -1.93697 0.216196 0
M  V30 2407 H 227.326 -2.99171 -0.889 0
M  V30 2408 N 227.627 0.131896 -1.57047 0
M  V30 2409 C 229.043 0.485031 -1.52051 0
M  V30 2410 C 229.243 1.82563 -0.85281 0
M  V30 2411 O 228.299 2.48817 -0.429694 0
M  V30 2412 C 229.612 0.481409 -2.96821 0
M  V30 2413 C 231.16 0.565868 -3.07842 0
M  V30 2414 C 231.635 0.592762 -4.54148 0
M  V30 2415 N 233.126 0.654564 -4.58552 0
M  V30 2416 C 233.861 0.696608 -5.69153 0
M  V30 2417 N 233.357 0.697078 -6.89284 0
M  V30 2418 N 235.15 0.738639 -5.57226 0
M  V30 2419 H 227.301 -0.746664 -1.98843 0
M  V30 2420 H 229.564 -0.273999 -0.90754 0
M  V30 2421 H 229.27 -0.435731 -3.4899 0
M  V30 2422 H 229.144 1.3139 -3.53577 0
M  V30 2423 H 231.531 1.47343 -2.55684 0
M  V30 2424 H 231.612 -0.29406 -2.54104 0
M  V30 2425 H 231.256 -0.310701 -5.06949 0
M  V30 2426 H 231.186 1.46939 -5.05684 0
M  V30 2427 H 233.677 0.660887 -3.72076 0
M  V30 2428 H 233.99 0.731426 -7.69331 0
M  V30 2429 H 232.335 0.66471 -6.91814 0
M  V30 2430 H 235.526 0.735545 -4.62285 0
M  V30 2431 H 235.699 0.767938 -6.43434 0
M  V30 2432 N 229.106 1.52395 0.401703 0
M  V30 2433 C 230.036 1.79231 1.49661 0
M  V30 2434 C 231.017 0.643654 1.57452 0
M  V30 2435 O 232.202 0.889989 1.72606 0
M  V30 2436 C 229.332 1.94971 2.87409 0
M  V30 2437 C 228.286 3.10604 2.94465 0
M  V30 2438 C 227.612 3.11577 4.34538 0
M  V30 2439 C 228.912 4.49921 2.6527 0
M  V30 2440 H 230.606 2.70917 1.27454 0
M  V30 2441 H 228.152 1.30362 0.6117 0
M  V30 2442 H 230.105 2.12328 3.63999 0
M  V30 2443 H 228.829 0.999632 3.10926 0
M  V30 2444 H 227.488 2.93009 2.20321 0
M  V30 2445 H 227.136 2.14277 4.55076 0
M  V30 2446 H 226.836 3.89247 4.40183 0
M  V30 2447 H 228.36 3.31073 5.13053 0
M  V30 2448 H 229.774 4.67683 3.31581 0
M  V30 2449 H 228.171 5.29564 2.82281 0
M  V30 2450 H 229.241 4.57507 1.60671 0
M  V30 2451 N 230.584 -0.659388 1.43143 0
M  V30 2452 C 231.516 -1.7849 1.43784 0
M  V30 2453 C 232.529 -1.5932 0.334787 0
M  V30 2454 O 233.718 -1.68155 0.598842 0
M  V30 2455 C 230.818 -3.15828 1.22906 0
M  V30 2456 C 229.991 -3.61711 2.45934 0
M  V30 2457 C 229.05 -4.77831 2.20371 0
M  V30 2458 O 228.076 -4.87586 2.93681 0
M  V30 2459 N 229.278 -5.67611 1.21647 0
M  V30 2460 H 232.043 -1.7842 2.40803 0
M  V30 2461 H 229.604 -0.84302 1.3822 0
M  V30 2462 H 231.596 -3.91189 1.03697 0
M  V30 2463 H 230.166 -3.10707 0.343542 0
M  V30 2464 H 229.386 -2.76861 2.80609 0
M  V30 2465 H 230.674 -3.89112 3.27825 0
M  V30 2466 H 230.072 -5.62397 0.610449 0
M  V30 2467 H 228.629 -6.42719 1.08423 0
M  V30 2468 N 232.062 -1.29571 -0.897171 0
M  V30 2469 C 233.478 -1.07637 -1.17841 0
M  V30 2470 C 233.678 0.170713 -2.00776 0
M  V30 2471 O 232.734 0.867768 -2.3712 0
M  V30 2472 C 234.047 -2.3332 -1.8969 0
M  V30 2473 C 235.595 -2.38664 -2.02505 0
M  V30 2474 C 236.07 -3.64157 -2.77765 0
M  V30 2475 N 237.561 -3.64894 -2.85318 0
M  V30 2476 C 238.296 -4.58679 -3.44094 0
M  V30 2477 N 237.792 -5.62799 -4.04017 0
M  V30 2478 N 239.585 -4.46245 -3.41793 0
M  V30 2479 H 231.736 -2.09598 -0.343883 0
M  V30 2480 H 233.999 -0.923333 -0.214848 0
M  V30 2481 H 233.705 -3.24262 -1.36187 0
M  V30 2482 H 233.579 -2.41025 -2.9015 0
M  V30 2483 H 235.966 -1.48208 -2.55183 0
M  V30 2484 H 236.047 -2.34943 -1.01171 0
M  V30 2485 H 235.691 -4.54965 -2.25763 0
M  V30 2486 H 235.621 -3.65137 -3.7945 0
M  V30 2487 H 238.112 -2.89613 -2.42761 0
M  V30 2488 H 238.425 -6.3048 -4.46895 0
M  V30 2489 H 236.77 -5.66605 -4.02472 0
M  V30 2490 H 239.961 -3.64094 -2.94199 0
M  V30 2491 H 240.134 -5.19518 -3.87304 0
M  V30 2492 N 233.54 1.10788 -1.12088 0
M  V30 2493 C 234.788 1.8231 -0.872205 0
M  V30 2494 C 235.109 1.85419 0.603709 0
M  V30 2495 O 234.379 1.32963 1.43867 0
M  V30 2496 H 232.959 0.675137 -0.319686 0
M  V30 2497 H 235.621 1.34068 -1.41463 0
M  V30 2498 H 234.717 2.85955 -1.25045 0
M  V30 2499 N 235.018 0.912232 1.28515 0
M  V30 2500 C 236.434 0.610159 1.47476 0
M  V30 2501 C 236.634 -0.844955 1.82928 0
M  V30 2502 O 235.69 -1.62416 1.93332 0
M  V30 2503 C 237.003 1.54675 2.57868 0
M  V30 2504 C 238.551 1.55331 2.71738 0
M  V30 2505 C 239.026 2.47649 3.85272 0
M  V30 2506 N 240.517 2.45767 3.92623 0
M  V30 2507 C 241.252 3.13896 4.79851 0
M  V30 2508 N 240.748 3.9135 5.71679 0
M  V30 2509 N 242.541 3.02991 4.73448 0
M  V30 2510 H 234.692 1.85318 1.03783 0
M  V30 2511 H 236.955 0.794777 0.516753 0
M  V30 2512 H 236.661 2.5841 2.38574 0
M  V30 2513 H 236.535 1.27671 3.54937 0
M  V30 2514 H 238.922 0.52335 2.90422 0
M  V30 2515 H 239.003 1.86378 1.75205 0
M  V30 2516 H 238.647 3.50745 3.67342 0
M  V30 2517 H 238.577 2.13904 4.81199 0
M  V30 2518 H 241.068 1.89503 3.26951 0
M  V30 2519 H 241.381 4.40359 6.35062 0
M  V30 2520 H 239.726 3.95455 5.71524 0
M  V30 2521 H 242.917 2.41987 4.007 0
M  V30 2522 H 243.09 3.5636 5.41213 0
M  V30 2523 N 236.496 -1.42363 0.676048 0
M  V30 2524 C 237.912 -1.55811 0.345718 0
M  V30 2525 C 238.112 -1.65544 -1.14879 0
M  V30 2526 O 237.168 -1.62306 -1.93424 0
M  V30 2527 C 238.481 -2.80746 1.07713 0
M  V30 2528 C 240.029 -2.9452 1.05958 0
M  V30 2529 C 240.504 -4.22318 1.77233 0
M  V30 2530 N 241.995 -4.29233 1.74108 0
M  V30 2531 C 242.73 -5.26935 2.26113 0
M  V30 2532 N 242.226 -6.30783 2.86505 0
M  V30 2533 N 244.019 -5.18741 2.1648 0
M  V30 2534 H 236.17 -1.34289 1.6456 0
M  V30 2535 H 238.433 -0.646506 0.69335 0
M  V30 2536 H 238.139 -2.79696 2.13221 0
M  V30 2537 H 238.013 -3.71676 0.64316 0
M  V30 2538 H 240.4 -2.95097 0.0128255 0
M  V30 2539 H 240.481 -2.04817 1.53244 0
M  V30 2540 H 240.125 -4.22502 2.81877 0
M  V30 2541 H 240.055 -5.10958 1.27396 0
M  V30 2542 H 242.546 -3.54814 1.30059 0
M  V30 2543 H 242.859 -7.01691 3.23805 0
M  V30 2544 H 241.204 -6.31341 2.90575 0
M  V30 2545 H 244.395 -4.36533 1.68987 0
M  V30 2546 H 244.568 -5.94721 2.57316 0
M  V30 2547 N 237.974 -0.419461 -1.51915 0
M  V30 2548 C 239.39 -0.0708431 -1.59443 0
M  V30 2549 C 239.59 1.41796 -1.43164 0
M  V30 2550 O 238.646 2.18596 -1.26381 0
M  V30 2551 C 239.959 -0.574991 -2.95151 0
M  V30 2552 C 241.507 -0.533867 -3.08413 0
M  V30 2553 C 241.982 -1.01469 -4.46618 0
M  V30 2554 N 243.473 -0.971939 -4.52888 0
M  V30 2555 C 244.208 -1.31505 -5.58116 0
M  V30 2556 N 243.704 -1.73014 -6.70849 0
M  V30 2557 N 245.497 -1.23436 -5.48379 0
M  V30 2558 H 237.648 -1.38836 -1.60743 0
M  V30 2559 H 239.911 -0.570998 -0.756747 0
M  V30 2560 H 239.617 -1.61597 -3.12377 0
M  V30 2561 H 239.491 0.00979777 -3.77199 0
M  V30 2562 H 241.878 0.498086 -2.90866 0
M  V30 2563 H 241.959 -1.15484 -2.28248 0
M  V30 2564 H 241.603 -2.04502 -4.6491 0
M  V30 2565 H 241.533 -0.370433 -5.25295 0
M  V30 2566 H 244.024 -0.666893 -3.71969 0
M  V30 2567 H 244.337 -1.97479 -7.47143 0
M  V30 2568 H 242.682 -1.76926 -6.72103 0
M  V30 2569 H 245.873 -0.908869 -4.59192 0
M  V30 2570 H 246.046 -1.50506 -6.30279 0
M  V30 2571 N 239.452 1.56882 -0.150215 0
M  V30 2572 C 240.382 2.19935 0.784284 0
M  V30 2573 C 241.363 1.14854 1.25469 0
M  V30 2574 O 242.548 1.43209 1.31168 0
M  V30 2575 C 239.678 2.82349 2.02229 0
M  V30 2576 C 238.632 3.93285 1.68853 0
M  V30 2577 C 237.958 4.42649 2.99944 0
M  V30 2578 C 239.258 5.13904 0.932714 0
M  V30 2579 H 240.952 2.9828 0.258781 0
M  V30 2580 H 238.498 1.43473 0.123029 0
M  V30 2581 H 240.451 3.25126 2.68088 0
M  V30 2582 H 239.175 2.0134 2.57157 0
M  V30 2583 H 237.834 3.5113 1.05371 0
M  V30 2584 H 237.482 3.58458 3.52869 0
M  V30 2585 H 237.182 5.17476 2.78374 0
M  V30 2586 H 238.706 4.88099 3.66868 0
M  V30 2587 H 240.12 5.53506 1.49345 0
M  V30 2588 H 238.517 5.94515 0.81684 0
M  V30 2589 H 239.587 4.84842 -0.0749568 0
M  V30 2590 N 240.93 -0.123565 1.57115 0
M  V30 2591 C 242.346 -0.476961 1.52306 0
M  V30 2592 C 242.546 -1.82109 0.86248 0
M  V30 2593 O 241.602 -2.48586 0.442884 0
M  V30 2594 C 242.915 -0.465661 2.97073 0
M  V30 2595 C 244.463 -0.549534 3.08138 0
M  V30 2596 C 244.938 -0.568669 4.54456 0
M  V30 2597 N 246.429 -0.630237 4.58892 0
M  V30 2598 C 247.164 -0.666415 5.69514 0
M  V30 2599 N 246.66 -0.660514 6.89644 0
M  V30 2600 N 248.453 -0.709077 5.5761 0
M  V30 2601 H 240.604 0.757198 1.98445 0
M  V30 2602 H 242.867 0.278808 0.906074 0
M  V30 2603 H 242.573 0.454232 3.48754 0
M  V30 2604 H 242.447 -1.29513 3.54269 0
M  V30 2605 H 244.834 -1.45985 2.56461 0
M  V30 2606 H 244.915 0.307532 2.53945 0
M  V30 2607 H 244.559 0.337581 5.06777 0
M  V30 2608 H 244.489 -1.44256 5.06456 0
M  V30 2609 H 246.98 -0.641146 3.72421 0
M  V30 2610 H 247.293 -0.690616 7.69708 0
M  V30 2611 H 245.638 -0.628012 6.92157 0
M  V30 2612 H 248.829 -0.711019 4.62668 0
M  V30 2613 H 249.002 -0.733804 6.43832 0
M  V30 2614 N 242.408 -1.52605 -0.393616 0
M  V30 2615 C 243.685 -1.58001 -1.15304 0
M  V30 2616 C 244.065 -0.370385 -2.07825 0
M  V30 2617 O 243.413 0.641638 -2.19306 0
M  V30 2618 C 243.623 -2.91652 -1.91677 0
M  V30 2619 C 244.971 -3.4522 -2.47201 0
M  V30 2620 O 245.995 -2.93495 -2.01839 0
M  V30 2621 O 244.854 -4.35579 -3.3005 0
M  V30 2622 H 241.948 -0.637068 -0.527327 0
M  V30 2623 H 244.494 -1.64939 -0.399141 0
M  V30 2624 H 243.266 -3.71136 -1.23992 0
M  V30 2625 H 242.889 -2.88077 -2.74039 0
M  V30 2626 N 243.887 0.651787 -1.4349 0
M  V30 2627 C 245.133 1.41376 -1.45398 0
M  V30 2628 C 245.466 1.94041 -0.0784823 0
M  V30 2629 O 244.741 1.72379 0.900878 0
M  V30 2630 C 245.024 2.59414 -2.49752 0
M  V30 2631 C 244.877 2.12232 -3.96582 0
M  V30 2632 C 246.196 3.61626 -2.50827 0
M  V30 2633 H 243.315 0.512719 -0.529422 0
M  V30 2634 H 245.957 0.738796 -1.75048 0
M  V30 2635 H 244.107 3.16997 -2.246 0
M  V30 2636 H 245.779 1.59639 -4.32797 0
M  V30 2637 H 244.022 1.43592 -4.09346 0
M  V30 2638 H 244.693 2.9712 -4.65214 0
M  V30 2639 H 247.169 3.13805 -2.7325 0
M  V30 2640 H 246.045 4.41766 -3.25783 0
M  V30 2641 H 246.306 4.14314 -1.5426 0
M  V30 2642 N 245.365 1.30045 0.890287 0
M  V30 2643 C 246.611 1.18737 1.64406 0
M  V30 2644 C 246.944 -0.258525 1.92472 0
M  V30 2645 O 246.219 -1.18562 1.54186 0
M  V30 2646 C 246.502 2.01087 2.98724 0
M  V30 2647 C 246.355 3.53867 2.77665 0
M  V30 2648 C 247.674 1.84457 3.9958 0
M  V30 2649 H 244.793 0.432698 0.596608 0
M  V30 2650 H 247.435 1.5962 1.0306 0
M  V30 2651 H 245.585 1.66349 3.51084 0
M  V30 2652 H 247.257 3.98637 2.32133 0
M  V30 2653 H 245.5 3.78318 2.12269 0
M  V30 2654 H 246.171 4.06772 3.7315 0
M  V30 2655 H 248.647 2.14817 3.56361 0
M  V30 2656 H 247.523 2.44411 4.91482 0
M  V30 2657 H 247.784 0.802276 4.3476 0
M  V30 2658 N 246.843 -1.10192 1.12674 0
M  V30 2659 C 248.12 -1.78717 0.794965 0
M  V30 2660 C 248.5 -1.98628 -0.714853 0
M  V30 2661 O 247.848 -1.58135 -1.64941 0
M  V30 2662 C 248.058 -3.11546 1.5729 0
M  V30 2663 C 249.406 -3.86382 1.76052 0
M  V30 2664 O 250.43 -3.21274 1.53823 0
M  V30 2665 O 249.289 -5.03246 2.13087 0
M  V30 2666 H 246.383 -0.774702 0.289423 0
M  V30 2667 H 248.929 -1.16819 1.23091 0
M  V30 2668 H 247.701 -2.92489 2.59935 0
M  V30 2669 H 247.324 -3.81164 1.13137 0
M  V30 2670 N 248.321 -0.919034 -1.28029 0
M  V30 2671 C 249.269 -0.401753 -2.29104 0
M  V30 2672 C 250.263 0.509354 -1.61561 0
M  V30 2673 O 251.469 0.390014 -1.75724 0
M  V30 2674 H 247.844 -0.111331 -0.743713 0
M  V30 2675 H 249.815 -1.2672 -2.70156 0
M  V30 2676 C 248.564 0.338148 -3.46052 0
M  V30 2677 H 247.887 -0.353732 -3.98232 0
M  V30 2678 H 249.327 0.664653 -4.18758 0
M  V30 2679 C 247.786 1.54798 -2.99231 0
M  V30 2680 O 248.316 2.64696 -3.02157 0
M  V30 2681 N 246.522 1.3968 -2.54829 0
M  V30 2682 H 246.069 0.502698 -2.52647 0
M  V30 2683 H 246.027 2.20755 -2.23863 0
M  V30 2684 N 249.799 1.42003 -0.683588 0
M  V30 2685 C 251.21 1.84501 -0.285736 0
M  V30 2686 C 251.561 1.57213 1.17382 0
M  V30 2687 O 250.686 1.03642 1.89966 0
M  V30 2688 C 251.281 3.34912 -0.511821 0
M  V30 2689 C 249.84 3.76025 -0.168005 0
M  V30 2690 C 248.987 2.6551 -0.799983 0
M  V30 2691 H 251.938 1.31724 -0.885119 0
M  V30 2692 H 251.959 3.79784 0.233292 0
M  V30 2693 H 251.471 3.54741 -1.57418 0
M  V30 2694 H 249.572 3.61801 0.890567 0
M  V30 2695 H 249.685 4.75141 -0.614661 0
M  V30 2696 H 248.049 2.53654 -0.230568 0
M  V30 2697 H 248.832 2.8816 -1.86597 0
M  V30 2698 N 251.277 0.427512 1.51691 0
M  V30 2699 C 252.227 -0.406604 2.24345 0
M  V30 2700 C 253.211 -0.998276 1.26187 0
M  V30 2701 O 254.403 -0.918045 1.51331 0
M  V30 2702 C 251.532 -1.51266 3.08177 0
M  V30 2703 C 250.618 -0.930868 4.13758 0
M  V30 2704 N 251.009 -0.0773552 5.05741 0
M  V30 2705 C 249.307 -1.19948 4.29568 0
M  V30 2706 C 250.008 0.248344 5.8117 0
M  V30 2707 N 248.984 -0.365535 5.4237 0
M  V30 2708 H 252.786 0.251581 2.92821 0
M  V30 2709 H 250.3 0.239003 1.60632 0
M  V30 2710 H 252.297 -2.123 3.58796 0
M  V30 2711 H 250.957 -2.17328 2.41244 0
M  V30 2712 H 251.968 0.288351 5.17097 0
M  V30 2713 H 248.645 -1.85832 3.73862 0
M  V30 2714 H 250.035 0.942286 6.6526 0
M  V30 2715 N 252.755 -1.56801 0.158532 0
M  V30 2716 C 253.98 -2.01295 -0.499516 0
M  V30 2717 C 254.405 -1.03799 -1.56867 0
M  V30 2718 O 253.763 -0.0155162 -1.81293 0
M  V30 2719 C 253.811 -3.44469 -1.06647 0
M  V30 2720 O 252.915 -3.50012 -2.18095 0
M  V30 2721 H 252.256 -0.652884 -0.12099 0
M  V30 2722 H 254.786 -2.02958 0.258661 0
M  V30 2723 H 254.796 -3.8351 -1.39227 0
M  V30 2724 H 253.471 -4.14932 -0.283581 0
M  V30 2725 H 252.048 -3.22822 -1.86656 0
M  V30 2726 N 254.233 0.115231 -1.57178 0
M  V30 2727 C 255.481 0.820727 -1.84685 0
M  V30 2728 C 255.802 1.80237 -0.744279 0
M  V30 2729 O 255.072 1.94529 0.231375 0
M  V30 2730 H 253.652 0.306084 -0.681411 0
M  V30 2731 H 256.314 0.101656 -1.94635 0
M  V30 2732 H 255.41 1.36366 -2.80733 0
M  V30 2733 N 255.711 1.52812 0.385517 0
M  V30 2734 C 256.641 1.80808 1.47752 0
M  V30 2735 C 257.622 0.660318 1.5676 0
M  V30 2736 O 258.807 0.908246 1.71652 0
M  V30 2737 C 255.937 1.98008 2.85324 0
M  V30 2738 C 254.891 3.13709 2.91154 0
M  V30 2739 C 254.217 3.16169 4.31209 0
M  V30 2740 C 255.517 4.52709 2.60483 0
M  V30 2741 H 257.211 2.72253 1.24573 0
M  V30 2742 H 254.757 1.31003 0.597839 0
M  V30 2743 H 256.71 2.16176 3.61726 0
M  V30 2744 H 255.434 1.03255 3.09848 0
M  V30 2745 H 254.093 2.95329 2.17201 0
M  V30 2746 H 253.741 2.19092 4.52778 0
M  V30 2747 H 253.441 3.93894 4.36029 0
M  V30 2748 H 254.965 3.36496 5.09512 0
M  V30 2749 H 256.379 4.71173 3.26602 0
M  V30 2750 H 254.776 5.32528 2.76648 0
M  V30 2751 H 255.846 4.59186 1.55809 0
M  V30 2752 N 257.189 -0.644168 1.43834 0
M  V30 2753 C 258.152 -1.73857 1.49353 0
M  V30 2754 C 259.152 -1.56315 0.377112 0
M  V30 2755 O 260.342 -1.62048 0.639226 0
M  V30 2756 C 257.474 -3.12819 1.35488 0
M  V30 2757 H 258.667 -1.70342 2.46827 0
M  V30 2758 H 256.22 -0.856652 1.30733 0
M  V30 2759 H 256.955 -3.2194 0.390569 0
M  V30 2760 H 256.74 -3.26958 2.16428 0
M  V30 2761 H 258.23 -3.92606 1.42302 0
M  V30 2762 N 258.668 -1.30515 -0.883378 0
M  V30 2763 C 259.916 -1.19194 -1.63209 0
M  V30 2764 C 260.237 0.253205 -1.93349 0
M  V30 2765 O 259.507 1.17025 -1.57105 0
M  V30 2766 H 258.087 -0.438148 -0.605009 0
M  V30 2767 H 260.749 -1.63663 -1.05832 0
M  V30 2768 H 259.845 -1.75396 -2.58153 0
M  V30 2769 N 260.146 1.09593 -1.13257 0
M  V30 2770 C 261.093 2.1618 -0.808381 0
M  V30 2771 C 262.063 1.64517 0.228754 0
M  V30 2772 O 263.248 1.9053 0.101381 0
M  V30 2773 C 260.388 3.43973 -0.278675 0
M  V30 2774 C 259.501 4.09545 -1.37466 0
M  V30 2775 C 258.636 5.25088 -0.803479 0
M  V30 2776 C 257.675 5.82579 -1.87799 0
M  V30 2777 N 256.812 6.89486 -1.32488 0
M  V30 2778 H 261.652 2.43254 -1.72138 0
M  V30 2779 H 259.189 1.19392 -0.859294 0
M  V30 2780 H 261.147 4.17174 0.0465583 0
M  V30 2781 H 259.777 3.17223 0.597459 0
M  V30 2782 H 258.829 3.34226 -1.81652 0
M  V30 2783 H 260.141 4.48307 -2.18684 0
M  V30 2784 H 259.295 6.05178 -0.429427 0
M  V30 2785 H 258.034 4.87684 0.0397956 0
M  V30 2786 H 257.039 5.01152 -2.26113 0
M  V30 2787 H 258.264 6.22045 -2.72463 0
M  V30 2788 H 256.21 6.54064 -0.503575 0
M  V30 2789 H 256.127 7.27007 -2.07355 0
M  V30 2790 H 257.395 7.73336 -0.978336 0
M  V30 2791 N 261.624 0.925811 1.2754 0
M  V30 2792 C 262.554 0.440748 2.29303 0
M  V30 2793 C 263.535 -0.497971 1.62648 0
M  V30 2794 O 264.72 -0.403126 1.8997 0
M  V30 2795 C 261.85 -0.309048 3.45922 0
M  V30 2796 C 260.804 0.54166 4.24559 0
M  V30 2797 C 260.13 -0.337191 5.33636 0
M  V30 2798 C 261.43 1.80516 4.90114 0
M  V30 2799 H 263.124 1.29121 2.70126 0
M  V30 2800 H 260.67 0.622323 1.29858 0
M  V30 2801 H 262.623 -0.659315 4.1621 0
M  V30 2802 H 261.347 -1.19352 3.04011 0
M  V30 2803 H 260.006 0.874609 3.56014 0
M  V30 2804 H 259.654 -1.22056 4.87966 0
M  V30 2805 H 259.354 0.228497 5.87156 0
M  V30 2806 H 260.878 -0.683072 6.06767 0
M  V30 2807 H 262.292 1.52307 5.52698 0
M  V30 2808 H 260.689 2.3142 5.53683 0
M  V30 2809 H 261.759 2.52581 4.13921 0
M  V30 2810 N 263.102 -1.41638 0.69111 0
M  V30 2811 C 264.349 -2.01299 0.220193 0
M  V30 2812 C 264.677 -1.54715 -1.17871 0
M  V30 2813 O 263.932 -0.747193 -1.80874 0
M  V30 2814 C 264.231 -3.56714 0.221277 0
M  V30 2815 C 263.897 -4.22792 1.56709 0
M  V30 2816 C 262.559 -4.40557 1.93554 0
M  V30 2817 C 264.911 -4.59883 2.45268 0
M  V30 2818 C 262.239 -4.92688 3.18552 0
M  V30 2819 C 264.591 -5.13403 3.69595 0
M  V30 2820 C 263.255 -5.29379 4.06589 0
M  V30 2821 H 262.525 -0.736606 0.0805743 0
M  V30 2822 H 265.172 -1.69598 0.889319 0
M  V30 2823 H 263.477 -3.8818 -0.531391 0
M  V30 2824 H 265.174 -4.00678 -0.160547 0
M  V30 2825 H 261.764 -4.09336 1.2705 0
M  V30 2826 H 265.948 -4.45817 2.18084 0
M  V30 2827 H 261.204 -5.03242 3.47214 0
M  V30 2828 H 265.378 -5.41084 4.38407 0
M  V30 2829 H 263.005 -5.69537 5.03519 0
M  V30 2830 N 264.58 -0.43555 -1.51462 0
M  V30 2831 C 265.543 0.365137 -2.26273 0
M  V30 2832 C 266.543 0.951227 -1.29647 0
M  V30 2833 O 267.733 0.825958 -1.53374 0
M  V30 2834 C 264.865 1.51645 -3.05314 0
M  V30 2835 H 266.058 -0.290474 -2.9849 0
M  V30 2836 H 263.611 -0.188676 -1.55157 0
M  V30 2837 H 264.346 2.20816 -2.3751 0
M  V30 2838 H 264.131 1.10238 -3.76284 0
M  V30 2839 H 265.621 2.08218 -3.61987 0
M  V30 2840 N 266.058 1.56714 -0.166846 0
M  V30 2841 C 267.298 1.98641 0.481763 0
M  V30 2842 C 267.662 1.05038 1.6072 0
M  V30 2843 O 268.863 1.36087 2.31805 0
M  V30 2844 C 267.134 3.44362 0.956517 0
M  V30 2845 S 268.693 4.08317 1.60694 0
M  V30 2846 H 265.511 0.693873 0.155116 0
M  V30 2847 H 268.113 1.93719 -0.263251 0
M  V30 2848 H 266.817 4.10204 0.126936 0
M  V30 2849 H 266.348 3.53041 1.73568 0
M  V30 2850 H 268.363 4.02999 2.89494 0
M  V30 2851 N 267.536 -0.106894 1.57237 0
M  V30 2852 C 268.782 -0.81373 1.85759 0
M  V30 2853 C 269.115 -1.78952 0.754315 0
M  V30 2854 O 268.39 -1.93029 -0.23879 0
M  V30 2855 C 268.673 -1.55293 3.24894 0
M  V30 2856 C 268.526 -0.595929 4.45835 0
M  V30 2857 C 269.845 -2.5063 3.61763 0
M  V30 2858 H 266.964 -0.294369 0.67566 0
M  V30 2859 H 269.606 -0.0776472 1.89841 0
M  V30 2860 H 267.756 -2.1804 3.21544 0
M  V30 2861 H 269.428 0.0236262 4.61294 0
M  V30 2862 H 267.671 0.0916191 4.33703 0
M  V30 2863 H 268.342 -1.15004 5.39887 0
M  V30 2864 H 270.818 -1.97982 3.65981 0
M  V30 2865 H 269.694 -2.99376 4.60071 0
M  V30 2866 H 269.955 -3.3385 2.89821 0
M  V30 2867 N 269.014 -1.53014 -0.377408 0
M  V30 2868 C 270.239 -1.72818 -1.14668 0
M  V30 2869 C 270.664 -0.450725 -1.8262 0
M  V30 2870 O 270.022 0.59439 -1.7128 0
M  V30 2871 C 270.07 -2.88627 -2.16164 0
M  V30 2872 O 269.174 -2.56409 -3.22998 0
M  V30 2873 H 268.515 -0.574301 -0.333278 0
M  V30 2874 H 271.045 -1.99853 -0.438152 0
M  V30 2875 H 271.055 -3.14455 -2.59966 0
M  V30 2876 H 269.73 -3.81294 -1.66095 0
M  V30 2877 H 268.307 -2.4136 -2.84253 0
M  V30 2878 N 270.492 0.636531 -1.44174 0
M  V30 2879 C 271.738 1.39826 -1.4689 0
M  V30 2880 C 272.071 1.93947 -0.0990585 0
M  V30 2881 O 271.346 1.73325 0.882544 0
M  V30 2882 C 271.629 2.56751 -2.5249 0
M  V30 2883 C 271.482 2.08014 -3.98811 0
M  V30 2884 C 272.801 3.58946 -2.54649 0
M  V30 2885 H 269.92 0.507075 -0.53483 0
M  V30 2886 H 272.562 0.720188 -1.75822 0
M  V30 2887 H 270.712 3.14597 -2.2795 0
M  V30 2888 H 272.384 1.5504 -4.34466 0
M  V30 2889 H 270.627 1.39242 -4.10846 0
M  V30 2890 H 271.298 2.92169 -4.68339 0
M  V30 2891 H 273.774 3.1089 -2.76563 0
M  V30 2892 H 272.65 4.38286 -3.3045 0
M  V30 2893 H 272.911 4.12655 -1.58646 0
M  V30 2894 N 271.97 1.30982 0.876444 0
M  V30 2895 C 273.195 1.23373 1.66715 0
M  V30 2896 C 273.62 -0.19885 1.87046 0
M  V30 2897 O 272.978 -1.1427 1.40756 0
M  V30 2898 C 273.026 1.97644 3.01611 0
M  V30 2899 O 272.13 1.30935 3.91062 0
M  V30 2900 H 271.471 0.426279 0.509099 0
M  V30 2901 H 274.001 1.72944 1.09323 0
M  V30 2902 H 274.011 2.06992 3.51594 0
M  V30 2903 H 272.686 3.01829 2.86133 0
M  V30 2904 H 271.263 1.29996 3.49507 0
M  V30 2905 N 273.449 -1.08991 1.13837 0
M  V30 2906 C 274.696 -1.81258 0.902882 0
M  V30 2907 C 275.024 -1.85936 -0.570803 0
M  V30 2908 O 274.279 -1.3267 -1.43865 0
M  V30 2909 C 274.578 -3.27042 1.44147 0
M  V30 2910 C 274.244 -3.4249 2.93276 0
M  V30 2911 C 272.906 -3.46414 3.33992 0
M  V30 2912 C 275.258 -3.4666 3.892 0
M  V30 2913 C 272.586 -3.52091 4.69307 0
M  V30 2914 C 274.938 -3.53872 5.24364 0
M  V30 2915 C 273.602 -3.56066 5.646 0
M  V30 2916 H 272.872 -0.663268 0.330388 0
M  V30 2917 H 275.519 -1.28368 1.42105 0
M  V30 2918 H 273.824 -3.82599 0.844097 0
M  V30 2919 H 275.521 -3.81499 1.23528 0
M  V30 2920 H 272.111 -3.40124 2.60794 0
M  V30 2921 H 276.295 -3.42865 3.58828 0
M  V30 2922 H 271.551 -3.52079 4.9985 0
M  V30 2923 H 275.725 -3.56043 5.98503 0
M  V30 2924 H 273.352 -3.60218 6.69438 0
M  V30 2925 N 274.927 -0.932562 -1.27047 0
M  V30 2926 C 276.173 -0.576412 -1.94436 0
M  V30 2927 C 276.506 0.880891 -1.73072 0
M  V30 2928 O 275.781 1.62905 -1.06264 0
M  V30 2929 C 276.064 -0.909031 -3.48437 0
M  V30 2930 C 275.917 -2.42044 -3.79123 0
M  V30 2931 C 277.236 -0.418341 -4.38107 0
M  V30 2932 H 274.355 -0.210888 -0.706184 0
M  V30 2933 H 276.997 -1.16522 -1.50075 0
M  V30 2934 H 275.147 -0.407947 -3.86352 0
M  V30 2935 H 276.819 -2.99359 -3.50973 0
M  V30 2936 H 275.062 -2.86758 -3.25503 0
M  V30 2937 H 275.733 -2.6037 -4.86736 0
M  V30 2938 H 278.209 -0.847856 -4.0737 0
M  V30 2939 H 277.085 -0.679981 -5.44672 0
M  V30 2940 H 277.346 0.681642 -4.36814 0
M  V30 2941 N 276.405 1.4127 -0.698611 0
M  V30 2942 C 277.368 2.29158 -0.044132 0
M  V30 2943 C 278.368 1.44529 0.704841 0
M  V30 2944 O 279.558 1.65643 0.539276 0
M  V30 2945 C 276.69 3.27459 0.947809 0
M  V30 2946 H 277.883 2.88529 -0.817994 0
M  V30 2947 H 275.436 1.49307 -0.46228 0
M  V30 2948 H 276.171 2.73073 1.74933 0
M  V30 2949 H 275.956 3.8991 0.41385 0
M  V30 2950 H 277.446 3.93311 1.40344 0
M  V30 2951 N 277.883 0.443576 1.51229 0
M  V30 2952 C 279.129 -0.120975 2.02439 0
M  V30 2953 C 279.462 -1.41815 1.32674 0
M  V30 2954 O 278.737 -1.89373 0.443622 0
M  V30 2955 C 279.02 -0.333291 3.58554 0
M  V30 2956 C 278.873 0.982968 4.38928 0
M  V30 2957 C 280.192 -1.10028 4.26124 0
M  V30 2958 H 277.311 -0.0424923 0.735774 0
M  V30 2959 H 279.953 0.583794 1.80809 0
M  V30 2960 H 278.103 -0.933614 3.77115 0
M  V30 2961 H 279.775 1.61775 4.32003 0
M  V30 2962 H 278.018 1.58611 4.03763 0
M  V30 2963 H 278.689 0.788379 5.46341 0
M  V30 2964 H 281.165 -0.591711 4.11871 0
M  V30 2965 H 280.041 -1.21761 5.35225 0
M  V30 2966 H 280.302 -2.12996 3.87408 0
M  V30 2967 N 279.361 -1.56624 0.175154 0
M  V30 2968 C 280.589 -2.01374 -0.474971 0
M  V30 2969 C 281.004 -1.05537 -1.56548 0
M  V30 2970 O 280.361 -0.0568668 -1.82411 0
M  V30 2971 C 280.412 -3.45923 -1.04975 0
M  V30 2972 O 280.133 -4.381 -0.00276605 0
M  V30 2973 C 281.634 -4.06093 -1.77773 0
M  V30 2974 H 278.854 -0.659962 -0.121206 0
M  V30 2975 H 281.398 -2.02601 0.27801 0
M  V30 2976 H 279.553 -3.45458 -1.75321 0
M  V30 2977 H 279.967 -5.22753 -0.427681 0
M  V30 2978 H 281.441 -5.09147 -2.13245 0
M  V30 2979 H 281.918 -3.48405 -2.67414 0
M  V30 2980 H 282.524 -4.10272 -1.12059 0
M  V30 2981 N 280.839 0.0985539 -1.57292 0
M  V30 2982 C 281.802 1.10402 -2.00858 0
M  V30 2983 C 282.802 1.33146 -0.901593 0
M  V30 2984 O 283.992 1.29318 -1.16716 0
M  V30 2985 C 281.124 2.45394 -2.36632 0
M  V30 2986 H 282.317 0.729099 -2.90902 0
M  V30 2987 H 279.87 0.343495 -1.52479 0
M  V30 2988 H 280.605 2.87769 -1.49531 0
M  V30 2989 H 280.39 2.30235 -3.17387 0
M  V30 2990 H 281.88 3.17718 -2.71007 0
M  V30 2991 N 282.317 1.53212 0.369288 0
M  V30 2992 C 283.563 1.69466 1.11397 0
M  V30 2993 C 283.896 0.443257 1.89074 0
M  V30 2994 O 283.171 -0.559386 1.86282 0
M  V30 2995 C 283.454 2.9422 2.07621 0
M  V30 2996 C 283.307 4.29508 1.33577 0
M  V30 2997 C 284.626 3.14565 3.07794 0
M  V30 2998 H 281.745 0.616667 0.403597 0
M  V30 2999 H 284.387 1.85845 0.395179 0
M  V30 3000 H 282.537 2.80387 2.68916 0
M  V30 3001 H 284.209 4.55147 0.750955 0
M  V30 3002 H 282.452 4.29088 0.637618 0
M  V30 3003 H 283.123 5.12926 2.03989 0
M  V30 3004 H 285.599 3.2756 2.56601 0
M  V30 3005 H 284.475 4.03297 3.72348 0
M  V30 3006 H 284.736 2.29675 3.77759 0
M  V30 3007 N 283.795 -0.628877 1.44509 0
M  V30 3008 C 285.043 -1.38565 1.4712 0
M  V30 3009 C 285.364 -1.94712 0.105899 0
M  V30 3010 O 284.634 -1.75912 -0.862079 0
M  V30 3011 H 283.214 -0.514333 0.541729 0
M  V30 3012 H 285.876 -0.740018 1.80305 0
M  V30 3013 H 284.972 -2.21583 2.19789 0
M  V30 3014 N 285.273 -1.31445 -0.869486 0
M  V30 3015 C 286.203 -1.21727 -1.99261 0
M  V30 3016 C 287.184 -0.104359 -1.6978 0
M  V30 3017 O 288.369 -0.289038 -1.92037 0
M  V30 3018 C 285.499 -0.924317 -3.34774 0
M  V30 3019 C 284.453 -1.99685 -3.78563 0
M  V30 3020 C 283.779 -1.55658 -5.11541 0
M  V30 3021 C 285.079 -3.41003 -3.95619 0
M  V30 3022 H 286.773 -2.1569 -2.07649 0
M  V30 3023 H 284.319 -1.03839 -0.997675 0
M  V30 3024 H 286.272 -0.842934 -4.12883 0
M  V30 3025 H 284.996 0.0509793 -3.2656 0
M  V30 3026 H 283.655 -2.06813 -3.02694 0
M  V30 3027 H 283.303 -0.569132 -4.9977 0
M  V30 3028 H 283.003 -2.27409 -5.41811 0
M  V30 3029 H 284.527 -1.48928 -5.92159 0
M  V30 3030 H 285.941 -3.36547 -4.64122 0
M  V30 3031 H 284.338 -4.10975 -4.37286 0
M  V30 3032 H 285.408 -3.81754 -2.98985 0
M  V30 3033 N 286.751 1.08385 -1.14413 0
M  V30 3034 C 287.991 1.8238 -0.922868 0
M  V30 3035 C 288.355 1.84225 0.540842 0
M  V30 3036 O 289.556 2.53985 0.880058 0
M  V30 3037 C 287.827 3.24048 -1.50757 0
M  V30 3038 S 289.386 4.14917 -1.4279 0
M  V30 3039 H 286.204 0.628524 -0.332384 0
M  V30 3040 H 288.806 1.30278 -1.45766 0
M  V30 3041 H 287.51 3.20288 -2.56601 0
M  V30 3042 H 287.041 3.81224 -0.971178 0
M  V30 3043 H 289.056 4.94473 -0.413582 0
M  V30 3044 N 288.23 0.939286 1.26551 0
M  V30 3045 C 289.16 0.465044 2.28822 0
M  V30 3046 C 290.141 -0.480692 1.63167 0
M  V30 3047 O 291.326 -0.382955 1.90387 0
M  V30 3048 C 288.456 -0.27234 3.46231 0
M  V30 3049 C 287.41 0.58666 4.2396 0
M  V30 3050 C 286.736 -0.280573 5.33963 0
M  V30 3051 C 288.036 1.85704 4.88171 0
M  V30 3052 H 289.73 1.31979 2.68741 0
M  V30 3053 H 287.276 0.636061 1.29191 0
M  V30 3054 H 289.229 -0.615133 4.16886 0
M  V30 3055 H 287.953 -1.16121 3.0526 0
M  V30 3056 H 286.612 0.91232 3.55067 0
M  V30 3057 H 286.26 -1.16874 4.89234 0
M  V30 3058 H 285.96 0.29076 5.8688 0
M  V30 3059 H 287.484 -0.618678 6.07458 0
M  V30 3060 H 288.898 1.58161 5.51052 0
M  V30 3061 H 287.295 2.37279 5.51197 0
M  V30 3062 H 288.365 2.56957 4.11219 0
M  V30 3063 N 289.708 -1.40897 0.706093 0
M  V30 3064 C 290.933 -2.05895 0.249435 0
M  V30 3065 C 291.358 -1.52823 -1.09666 0
M  V30 3066 O 290.716 -0.659589 -1.68876 0
M  V30 3067 C 290.764 -3.59872 0.22904 0
M  V30 3068 O 289.868 -4.04708 -0.792784 0
M  V30 3069 H 289.209 -0.653206 0.119241 0
M  V30 3070 H 291.739 -1.80471 0.96391 0
M  V30 3071 H 291.749 -4.07951 0.0634791 0
M  V30 3072 H 290.424 -3.97866 1.21141 0
M  V30 3073 H 289.001 -3.68111 -0.59572 0
M  V30 3074 N 291.186 -0.45159 -1.50991 0
M  V30 3075 C 292.414 0.108334 -2.06616 0
M  V30 3076 C 292.829 1.35224 -1.31757 0
M  V30 3077 O 292.186 1.78475 -0.381174 0
M  V30 3078 C 292.237 0.41619 -3.59096 0
M  V30 3079 O 291.958 -0.778361 -4.3113 0
M  V30 3080 C 293.459 1.02523 -4.31282 0
M  V30 3081 H 290.679 0.00159995 -0.670998 0
M  V30 3082 H 293.223 -0.634771 -1.94399 0
M  V30 3083 H 291.378 1.10921 -3.71181 0
M  V30 3084 H 291.792 -0.511181 -5.22003 0
M  V30 3085 H 293.266 1.19053 -5.39009 0
M  V30 3086 H 293.743 2.01013 -3.905 0
M  V30 3087 H 294.349 0.371173 -4.23677 0
M  V30 3088 N 292.664 1.56529 -0.183458 0
M  V30 3089 C 293.597 2.14417 0.781052 0
M  V30 3090 C 294.575 1.07761 1.21763 0
M  V30 3091 O 295.759 1.35807 1.30724 0
M  V30 3092 C 292.886 2.69361 2.05335 0
M  V30 3093 C 291.932 3.885 1.75982 0
M  V30 3094 S 292.765 5.27568 0.918256 0
M  V30 3095 C 293.921 5.85926 2.20095 0
M  V30 3096 H 294.154 2.95893 0.2889 0
M  V30 3097 H 291.687 1.54368 0.0313844 0
M  V30 3098 H 293.645 3.01662 2.78406 0
M  V30 3099 H 292.306 1.87949 2.51663 0
M  V30 3100 H 291.499 4.25314 2.70415 0
M  V30 3101 H 291.101 3.57149 1.10999 0
M  V30 3102 H 293.393 5.99579 3.15453 0
M  V30 3103 H 294.336 6.82761 1.87731 0
M  V30 3104 H 294.744 5.14438 2.32409 0
M  V30 3105 N 294.142 -0.090211 1.57342 0
M  V30 3106 C 295.553 -0.644173 1.75235 0
M  V30 3107 C 295.904 -1.78865 0.806335 0
M  V30 3108 O 295.029 -2.16395 -0.0140128 0
M  V30 3109 C 295.624 -1.17532 3.1776 0
M  V30 3110 C 294.183 -1.67531 3.37061 0
M  V30 3111 C 293.33 -0.58693 2.71017 0
M  V30 3112 H 296.281 0.135884 1.58117 0
M  V30 3113 H 296.302 -2.04455 3.20902 0
M  V30 3114 H 295.814 -0.342138 3.86589 0
M  V30 3115 H 293.915 -2.53234 2.73319 0
M  V30 3116 H 294.028 -1.76493 4.45406 0
M  V30 3117 H 292.392 -1.02756 2.33052 0
M  V30 3118 H 293.175 0.235758 3.4249 0
M  V30 3119 N 295.62 -1.53406 -0.361157 0
M  V30 3120 C 296.897 -1.60411 -1.11927 0
M  V30 3121 C 297.277 -0.414385 -2.06993 0
M  V30 3122 O 296.625 0.594976 -2.20618 0
M  V30 3123 C 296.835 -2.95652 -1.85448 0
M  V30 3124 C 298.183 -3.50386 -2.39823 0
M  V30 3125 O 299.207 -2.97711 -1.95568 0
M  V30 3126 O 298.066 -4.42482 -3.20737 0
M  V30 3127 H 295.16 -0.64811 -0.513695 0
M  V30 3128 H 297.706 -1.65749 -0.364065 0
M  V30 3129 H 296.478 -3.73682 -1.16091 0
M  V30 3130 H 296.101 -2.93825 -2.67866 0
M  V30 3131 N 297.098 0.621204 -1.44841 0
M  V30 3132 C 298.347 1.37658 -1.47422 0
M  V30 3133 C 298.66 1.95264 -0.114629 0
M  V30 3134 O 299.866 2.71494 -0.0180199 0
M  V30 3135 C 298.322 2.49285 -2.59586 0
M  V30 3136 C 297.93 1.98149 -4.01797 0
M  V30 3137 C 299.674 3.26409 -2.71399 0
M  V30 3138 C 297.581 3.07178 -5.05367 0
M  V30 3139 H 296.511 0.517344 -0.548517 0
M  V30 3140 H 299.162 0.667257 -1.70938 0
M  V30 3141 H 297.544 3.22839 -2.29328 0
M  V30 3142 H 298.718 1.31395 -4.41669 0
M  V30 3143 H 297.033 1.33812 -3.94314 0
M  V30 3144 H 299.63 4.07706 -3.45948 0
M  V30 3145 H 299.973 3.76535 -1.77559 0
M  V30 3146 H 300.506 2.5995 -3.01116 0
M  V30 3147 H 297.245 2.61985 -6.00869 0
M  V30 3148 H 296.765 3.72542 -4.70077 0
M  V30 3149 H 298.444 3.71789 -5.29511 0
M  V30 3150 N 298.576 1.31904 0.862503 0
M  V30 3151 C 299.992 1.10724 1.14945 0
M  V30 3152 C 300.192 -0.117421 2.01158 0
M  V30 3153 O 299.248 -0.804595 2.39338 0
M  V30 3154 C 300.561 2.38267 1.83437 0
M  V30 3155 C 302.109 2.43949 1.96106 0
M  V30 3156 C 302.584 3.71394 2.68013 0
M  V30 3157 N 304.075 3.72331 2.75543 0
M  V30 3158 C 304.81 4.67641 3.31812 0
M  V30 3159 N 304.306 5.73313 3.88953 0
M  V30 3160 N 306.099 4.5515 3.29841 0
M  V30 3161 H 298.25 2.10436 0.288191 0
M  V30 3162 H 300.513 0.928705 0.190292 0
M  V30 3163 H 300.219 3.27759 1.27542 0
M  V30 3164 H 300.093 2.48633 2.83657 0
M  V30 3165 H 302.48 1.54922 2.51164 0
M  V30 3166 H 302.561 2.37543 0.949059 0
M  V30 3167 H 302.205 4.60791 2.13621 0
M  V30 3168 H 302.135 3.75069 3.69636 0
M  V30 3169 H 304.626 2.95947 2.34997 0
M  V30 3170 H 304.939 6.42107 4.30022 0
M  V30 3171 H 303.284 5.77077 3.87308 0
M  V30 3172 H 306.475 3.71766 2.84443 0
M  V30 3173 H 306.648 5.29604 3.73394 0
M  V30 3174 N 300.054 -1.07777 1.14986 0
M  V30 3175 C 301.017 -2.13041 0.845358 0
M  V30 3176 C 302.017 -1.60071 -0.152931 0
M  V30 3177 O 303.207 -1.74033 0.0761879 0
M  V30 3178 C 300.339 -3.39896 0.261383 0
M  V30 3179 H 301.532 -2.41485 1.77834 0
M  V30 3180 H 299.085 -1.23595 0.956757 0
M  V30 3181 H 299.82 -3.17091 -0.68 0
M  V30 3182 H 299.605 -3.79642 0.980514 0
M  V30 3183 H 301.095 -4.17548 0.0657687 0
M  V30 3184 N 301.532 -0.945985 -1.26051 0
M  V30 3185 C 302.442 -0.465633 -2.29933 0
M  V30 3186 C 303.458 0.462761 -1.67733 0
M  V30 3187 O 304.634 0.341118 -1.9849 0
M  V30 3188 C 301.699 0.256994 -3.45746 0
M  V30 3189 C 300.76 -0.708549 -4.23412 0
M  V30 3190 C 299.993 -0.0203135 -5.33696 0
M  V30 3191 O 300.216 1.19571 -5.57726 0
M  V30 3192 O 299.15 -0.701459 -5.97799 0
M  V30 3193 H 302.976 -1.32866 -2.73094 0
M  V30 3194 H 300.561 -0.712071 -1.31339 0
M  V30 3195 H 302.443 0.663852 -4.16138 0
M  V30 3196 H 301.118 1.09533 -3.04605 0
M  V30 3197 H 300.025 -1.16545 -3.55483 0
M  V30 3198 H 301.358 -1.51465 -4.68315 0
M  V30 3199 N 303.011 1.40521 -0.713556 0
M  V30 3200 C 303.921 2.34522 -0.0606667 0
M  V30 3201 C 304.937 1.57193 0.74607 0
M  V30 3202 O 306.113 1.89591 0.679493 0
M  V30 3203 C 303.178 3.36081 0.851491 0
M  V30 3204 C 302.239 4.29286 0.0349339 0
M  V30 3205 C 301.472 5.25994 0.903649 0
M  V30 3206 O 301.695 5.28616 2.14292 0
M  V30 3207 O 300.629 6.00918 0.343723 0
M  V30 3208 H 304.455 2.91968 -0.835972 0
M  V30 3209 H 302.04 1.41681 -0.47402 0
M  V30 3210 H 303.922 3.98369 1.37404 0
M  V30 3211 H 302.597 2.81052 1.60598 0
M  V30 3212 H 301.504 3.70289 -0.532633 0
M  V30 3213 H 302.837 4.87462 -0.681287 0
M  V30 3214 N 304.489 0.459591 1.5075 0
M  V30 3215 C 305.399 -0.34613 2.32033 0
M  V30 3216 C 306.415 -1.00686 1.41909 0
M  V30 3217 O 307.591 -0.997361 1.7497 0
M  V30 3218 C 304.656 -1.42029 3.16273 0
M  V30 3219 C 303.717 -0.777362 4.22203 0
M  V30 3220 C 302.95 -1.80034 5.02418 0
M  V30 3221 O 303.173 -3.02544 4.83553 0
M  V30 3222 O 302.107 -1.37853 5.85901 0
M  V30 3223 H 305.933 0.318054 3.0203 0
M  V30 3224 H 303.518 0.221663 1.47746 0
M  V30 3225 H 305.4 -2.04275 3.68578 0
M  V30 3226 H 304.075 -2.06815 2.49016 0
M  V30 3227 H 302.982 -0.116256 3.73919 0
M  V30 3228 H 304.315 -0.172634 4.91897 0
M  V30 3229 N 305.967 -1.56429 0.191757 0
M  V30 3230 C 307.383 -1.58754 -0.164137 0
M  V30 3231 C 307.583 -1.20782 -1.61288 0
M  V30 3232 O 306.639 -0.928999 -2.34789 0
M  V30 3233 C 307.952 -3.00396 0.135195 0
M  V30 3234 C 309.5 -3.1291 0.0750351 0
M  V30 3235 C 309.975 -4.56679 0.347632 0
M  V30 3236 N 311.466 -4.62252 0.296131 0
M  V30 3237 C 312.201 -5.71379 0.480948 0
M  V30 3238 N 311.697 -6.88986 0.725933 0
M  V30 3239 N 313.49 -5.60563 0.415435 0
M  V30 3240 H 305.641 -1.79393 1.13718 0
M  V30 3241 H 307.904 -0.832414 0.453643 0
M  V30 3242 H 307.61 -3.32726 1.13958 0
M  V30 3243 H 307.484 -3.72963 -0.563773 0
M  V30 3244 H 309.871 -2.80394 -0.919948 0
M  V30 3245 H 309.952 -2.42736 0.807029 0
M  V30 3246 H 309.596 -4.89907 1.33992 0
M  V30 3247 H 309.526 -5.25039 -0.405212 0
M  V30 3248 H 312.017 -3.7773 0.113259 0
M  V30 3249 H 312.33 -7.68046 0.855857 0
M  V30 3250 H 310.675 -6.90801 0.762788 0
M  V30 3251 H 313.866 -4.67561 0.224486 0
M  V30 3252 H 314.039 -6.45551 0.562889 0
M  V30 3253 N 307.445 0.0818655 -1.57387 0
M  V30 3254 C 308.693 0.781368 -1.86384 0
M  V30 3255 C 309.014 1.78618 -0.782342 0
M  V30 3256 O 308.284 1.94976 0.190061 0
M  V30 3257 H 306.864 0.291562 -0.687751 0
M  V30 3258 H 309.526 0.060348 -1.94807 0
M  V30 3259 H 308.622 1.3038 -2.83562 0
M  V30 3260 N 308.923 1.53595 0.353017 0
M  V30 3261 C 309.833 1.83897 1.45667 0
M  V30 3262 C 310.849 0.728334 1.58023 0
M  V30 3263 O 312.025 1.01968 1.73679 0
M  V30 3264 C 309.09 2.03383 2.80778 0
M  V30 3265 C 308.151 3.27262 2.77845 0
M  V30 3266 C 307.384 3.45809 4.06512 0
M  V30 3267 O 307.607 2.68387 5.03314 0
M  V30 3268 O 306.541 4.39207 4.11559 0
M  V30 3269 H 310.367 2.77686 1.2298 0
M  V30 3270 H 307.952 1.39132 0.544308 0
M  V30 3271 H 309.834 2.17698 3.60812 0
M  V30 3272 H 308.509 1.12783 3.03417 0
M  V30 3273 H 307.416 3.18359 1.96465 0
M  V30 3274 H 308.749 4.17824 2.60161 0
M  V30 3275 N 310.401 -0.613514 1.45168 0
M  V30 3276 C 311.641 -1.38405 1.5041 0
M  V30 3277 C 312.005 -1.91489 0.139922 0
M  V30 3278 O 313.206 -2.68716 0.067033 0
M  V30 3279 C 311.477 -2.50552 2.5487 0
M  V30 3280 S 313.036 -3.38439 2.79292 0
M  V30 3281 H 309.854 -0.471945 0.531779 0
M  V30 3282 H 312.456 -0.708518 1.82209 0
M  V30 3283 H 311.16 -2.09894 3.52665 0
M  V30 3284 H 310.691 -3.22913 2.24701 0
M  V30 3285 H 312.706 -4.48527 2.12222 0
M  V30 3286 N 311.879 -1.3236 -0.855495 0
M  V30 3287 C 313.104 -1.2601 -1.64731 0
M  V30 3288 C 313.529 0.169068 -1.87339 0
M  V30 3289 O 312.887 1.12016 -1.42556 0
M  V30 3290 C 312.935 -2.02417 -2.98429 0
M  V30 3291 O 312.039 -1.3714 -3.8893 0
M  V30 3292 H 311.38 -0.434325 -0.502253 0
M  V30 3293 H 313.91 -1.74661 -1.06558 0
M  V30 3294 H 313.92 -2.12559 -3.48257 0
M  V30 3295 H 312.595 -3.06343 -2.81295 0
M  V30 3296 H 311.172 -1.3554 -3.47395 0
M  V30 3297 N 313.357 1.07166 -1.15556 0
M  V30 3298 C 314.768 1.6127 -0.940693 0
M  V30 3299 C 315.119 1.89251 0.517551 0
M  V30 3300 O 314.244 1.65937 1.38903 0
M  V30 3301 C 314.839 2.92993 -1.7012 0
M  V30 3302 C 313.398 3.43832 -1.53156 0
M  V30 3303 C 312.545 2.1786 -1.71558 0
M  V30 3304 H 315.496 0.90229 -1.30554 0
M  V30 3305 H 315.517 3.62007 -1.17181 0
M  V30 3306 H 315.029 2.72596 -2.76248 0
M  V30 3307 H 313.13 3.69307 -0.494294 0
M  V30 3308 H 313.243 4.19747 -2.30975 0
M  V30 3309 H 311.607 2.2765 -1.14225 0
M  V30 3310 H 312.39 1.99956 -2.79056 0
M  V30 3311 N 314.835 0.952656 1.25548 0
M  V30 3312 C 315.782 0.47008 2.25962 0
M  V30 3313 C 316.752 -0.476384 1.59122 0
M  V30 3314 O 317.937 -0.39007 1.8677 0
M  V30 3315 C 315.077 -0.247881 3.44209 0
M  V30 3316 C 314.19 0.735591 4.25691 0
M  V30 3317 C 313.325 -0.0047306 5.312 0
M  V30 3318 C 312.364 0.969805 6.04368 0
M  V30 3319 N 311.501 0.260486 7.01617 0
M  V30 3320 H 316.341 1.33126 2.66611 0
M  V30 3321 H 313.878 0.66765 1.31076 0
M  V30 3322 H 315.836 -0.680695 4.1161 0
M  V30 3323 H 314.466 -1.07312 3.0444 0
M  V30 3324 H 313.518 1.28689 3.57971 0
M  V30 3325 H 314.83 1.47934 4.76358 0
M  V30 3326 H 313.984 -0.496275 6.04667 0
M  V30 3327 H 312.723 -0.781282 4.81401 0
M  V30 3328 H 311.728 1.47237 5.29718 0
M  V30 3329 H 312.953 1.74655 6.56256 0
M  V30 3330 H 310.899 -0.497364 6.54112 0
M  V30 3331 H 310.816 0.943362 7.50091 0
M  V30 3332 H 312.084 -0.209587 7.79218 0
M  V30 3333 N 316.313 -1.40141 0.720998 0
M  V30 3334 C 317.553 -2.02644 0.267335 0
M  V30 3335 C 317.917 -1.55948 -1.12001 0
M  V30 3336 O 319.118 -2.10552 -1.67097 0
M  V30 3337 C 317.389 -3.55679 0.350281 0
M  V30 3338 S 318.948 -4.38793 -0.0256004 0
M  V30 3339 H 315.766 -0.703105 0.105664 0
M  V30 3340 H 318.368 -1.71175 0.944416 0
M  V30 3341 H 317.072 -3.87157 1.36153 0
M  V30 3342 H 316.603 -3.91883 -0.345096 0
M  V30 3343 H 318.618 -4.803 -1.24604 0
M  V30 3344 N 317.792 -0.46758 -1.50504 0
M  V30 3345 C 319.208 -0.121533 -1.59137 0
M  V30 3346 C 319.408 1.3717 -1.47603 0
M  V30 3347 O 318.464 2.14464 -1.33272 0
M  V30 3348 C 319.777 -0.6686 -2.93173 0
M  V30 3349 C 321.325 -0.631716 -3.06559 0
M  V30 3350 C 321.8 -1.15627 -4.43164 0
M  V30 3351 N 323.291 -1.11553 -4.49567 0
M  V30 3352 C 324.026 -1.49195 -5.5365 0
M  V30 3353 N 323.522 -1.94269 -6.65005 0
M  V30 3354 N 325.315 -1.4082 -5.44175 0
M  V30 3355 H 317.466 -1.4388 -1.56245 0
M  V30 3356 H 319.729 -0.594784 -0.738198 0
M  V30 3357 H 319.435 -1.71453 -3.07078 0
M  V30 3358 H 319.309 -0.11021 -3.77039 0
M  V30 3359 H 321.696 0.405297 -2.92304 0
M  V30 3360 H 321.777 -1.22687 -2.24458 0
M  V30 3361 H 321.421 -2.1919 -4.58168 0
M  V30 3362 H 321.351 -0.537365 -5.23851 0
M  V30 3363 H 323.842 -0.784895 -3.69659 0
M  V30 3364 H 324.155 -2.21148 -7.40482 0
M  V30 3365 H 322.5 -1.98219 -6.66134 0
M  V30 3366 H 325.691 -1.0545 -4.56068 0
M  V30 3367 H 325.864 -1.70481 -6.25172 0
M  V30 3368 N 319.27 1.56325 -0.20005 0
M  V30 3369 C 320.495 2.02548 0.44597 0
M  V30 3370 C 320.92 1.07922 1.5406 0
M  V30 3371 O 320.278 0.0635775 1.81188 0
M  V30 3372 C 320.326 3.47175 0.974761 0
M  V30 3373 O 319.43 3.55671 2.08739 0
M  V30 3374 H 318.771 0.655862 0.103638 0
M  V30 3375 H 321.301 2.02201 -0.312381 0
M  V30 3376 H 321.311 3.87067 1.2901 0
M  V30 3377 H 319.986 4.15538 0.17347 0
M  V30 3378 H 318.563 3.27657 1.78032 0
M  V30 3379 N 320.748 -0.0735177 1.57428 0
M  V30 3380 C 321.678 -1.0879 2.06608 0
M  V30 3381 C 322.659 -1.40473 0.959237 0
M  V30 3382 O 323.844 -1.5013 1.23185 0
M  V30 3383 C 320.974 -2.40183 2.50857 0
M  V30 3384 C 319.928 -2.22858 3.65402 0
M  V30 3385 C 319.254 -3.59619 3.957 0
M  V30 3386 C 320.554 -1.65123 4.95511 0
M  V30 3387 H 322.248 -0.678673 2.91607 0
M  V30 3388 H 319.794 -0.325013 1.40284 0
M  V30 3389 H 321.747 -3.11437 2.83874 0
M  V30 3390 H 320.471 -2.83083 1.62885 0
M  V30 3391 H 319.13 -1.54045 3.32664 0
M  V30 3392 H 318.778 -4.00086 3.04861 0
M  V30 3393 H 318.478 -3.48866 4.72828 0
M  V30 3394 H 320.002 -4.32306 4.31212 0
M  V30 3395 H 321.416 -2.26241 5.26771 0
M  V30 3396 H 319.813 -1.65071 5.7695 0
M  V30 3397 H 320.883 -0.612559 4.81015 0
M  V30 3398 N 322.226 -1.5378 -0.344866 0
M  V30 3399 C 323.473 -1.70963 -1.08526 0
M  V30 3400 C 323.801 -0.472126 -1.88683 0
M  V30 3401 O 323.056 0.546116 -1.87926 0
M  V30 3402 C 323.355 -2.92407 -2.05506 0
M  V30 3403 C 323.021 -4.28066 -1.41671 0
M  V30 3404 C 321.683 -4.64951 -1.2399 0
M  V30 3405 C 324.035 -5.12344 -0.956726 0
M  V30 3406 C 321.363 -5.83733 -0.589277 0
M  V30 3407 C 323.715 -6.3179 -0.320015 0
M  V30 3408 C 322.379 -6.67372 -0.130881 0
M  V30 3409 H 321.649 -0.625598 -0.397124 0
M  V30 3410 H 324.296 -1.87995 -0.36469 0
M  V30 3411 H 322.601 -2.69973 -2.8394 0
M  V30 3412 H 324.298 -3.02895 -2.62784 0
M  V30 3413 H 320.888 -3.99034 -1.56429 0
M  V30 3414 H 325.072 -4.8438 -1.08118 0
M  V30 3415 H 320.328 -6.09877 -0.431344 0
M  V30 3416 H 324.502 -6.96386 0.0445072 0
M  V30 3417 H 322.129 -7.59273 0.375318 0
M  V30 3418 N 323.704 0.605807 -1.45491 0
M  V30 3419 C 324.95 1.36679 -1.49823 0
M  V30 3420 C 325.283 1.93693 -0.140175 0
M  V30 3421 O 324.558 1.75158 0.845581 0
M  V30 3422 C 324.841 2.51337 -2.57879 0
M  V30 3423 C 324.694 1.99508 -4.03134 0
M  V30 3424 C 326.013 3.53463 -2.62205 0
M  V30 3425 H 323.132 0.495617 -0.545466 0
M  V30 3426 H 325.774 0.682732 -1.7731 0
M  V30 3427 H 323.924 3.09691 -2.34571 0
M  V30 3428 H 325.596 1.45789 -4.37656 0
M  V30 3429 H 323.839 1.30496 -4.13707 0
M  V30 3430 H 324.51 2.82169 -4.74431 0
M  V30 3431 H 326.986 3.04953 -2.83095 0
M  V30 3432 H 325.862 4.31178 -3.39672 0
M  V30 3433 H 326.123 4.09197 -1.67363 0
M  V30 3434 N 325.182 1.32811 0.848464 0
M  V30 3435 C 326.112 1.24882 1.97299 0
M  V30 3436 C 327.093 0.131357 1.69592 0
M  V30 3437 O 328.278 0.319553 1.91553 0
M  V30 3438 C 325.408 0.97746 3.33261 0
M  V30 3439 C 324.362 2.05682 3.75338 0
M  V30 3440 C 323.688 1.63777 5.09 0
M  V30 3441 C 324.988 3.47254 3.90144 0
M  V30 3442 H 326.682 2.18966 2.04191 0
M  V30 3443 H 324.228 1.05413 0.981029 0
M  V30 3444 H 326.181 0.908513 4.1149 0
M  V30 3445 H 324.905 0.000980011 3.266 0
M  V30 3446 H 323.564 2.11603 2.99366 0
M  V30 3447 H 323.212 0.648569 4.98801 0
M  V30 3448 H 322.912 2.36 5.38124 0
M  V30 3449 H 324.436 1.5833 5.89715 0
M  V30 3450 H 325.85 3.43888 4.58709 0
M  V30 3451 H 324.247 4.1788 4.30693 0
M  V30 3452 H 325.317 3.86462 2.92874 0
M  V30 3453 N 326.66 -1.06551 1.16123 0
M  V30 3454 C 327.57 -2.17484 0.879662 0
M  V30 3455 C 328.586 -1.73377 -0.147104 0
M  V30 3456 O 329.762 -2.01379 0.0289128 0
M  V30 3457 C 326.827 -3.44591 0.381829 0
M  V30 3458 C 325.888 -4.0322 1.4735 0
M  V30 3459 C 325.121 -5.24261 0.999324 0
M  V30 3460 O 325.344 -5.70198 -0.151957 0
M  V30 3461 O 324.278 -5.74775 1.78653 0
M  V30 3462 H 328.104 -2.44075 1.80724 0
M  V30 3463 H 325.689 -1.16042 0.940992 0
M  V30 3464 H 327.571 -4.21254 0.111053 0
M  V30 3465 H 326.246 -3.19532 -0.51777 0
M  V30 3466 H 325.153 -3.2806 1.79798 0
M  V30 3467 H 326.486 -4.32568 2.34831 0
M  V30 3468 N 328.138 -0.959301 -1.25041 0
M  V30 3469 C 329.366 -0.633949 -1.96948 0
M  V30 3470 C 329.781 0.794916 -1.7125 0
M  V30 3471 O 329.138 1.53231 -0.991287 0
M  V30 3472 C 329.189 -0.888805 -3.50403 0
M  V30 3473 O 328.91 -2.26149 -3.75218 0
M  V30 3474 C 330.411 -0.576482 -4.39536 0
M  V30 3475 H 327.631 -0.237263 -0.627652 0
M  V30 3476 H 330.175 -1.28495 -1.59089 0
M  V30 3477 H 328.33 -0.284145 -3.86357 0
M  V30 3478 H 328.744 -2.33514 -4.6965 0
M  V30 3479 H 330.218 -0.805314 -5.46094 0
M  V30 3480 H 330.695 0.489075 -4.36468 0
M  V30 3481 H 331.301 -1.16067 -4.09156 0
M  V30 3482 N 329.616 1.39756 -0.72842 0
M  V30 3483 C 330.862 2.00942 -0.273892 0
M  V30 3484 C 331.195 1.57656 1.13394 0
M  V30 3485 O 330.47 0.802434 1.77176 0
M  V30 3486 C 330.753 3.58211 -0.368346 0
M  V30 3487 C 330.606 4.11534 -1.81548 0
M  V30 3488 C 331.925 4.39372 0.253054 0
M  V30 3489 H 329.044 0.730047 -0.100996 0
M  V30 3490 H 331.686 1.66056 -0.923337 0
M  V30 3491 H 329.836 3.88061 0.184588 0
M  V30 3492 H 331.508 3.92431 -2.42478 0
M  V30 3493 H 329.751 3.65341 -2.33898 0
M  V30 3494 H 330.422 5.20682 -1.83288 0
M  V30 3495 H 332.898 4.15527 -0.218224 0
M  V30 3496 H 331.774 5.48677 0.156585 0
M  V30 3497 H 332.035 4.21358 1.33826 0
M  V30 3498 N 331.094 0.475555 1.50254 0
M  V30 3499 C 332.334 -0.0765802 2.04256 0
M  V30 3500 C 332.698 -1.36587 1.34937 0
M  V30 3501 O 333.899 -2.00066 1.79519 0
M  V30 3502 C 332.17 -0.251668 3.56513 0
M  V30 3503 S 333.729 -0.761716 4.32138 0
M  V30 3504 H 330.547 -0.0138456 0.710865 0
M  V30 3505 H 333.149 0.643714 1.84598 0
M  V30 3506 H 331.853 0.692404 4.04517 0
M  V30 3507 H 331.384 -0.997946 3.80532 0
M  V30 3508 H 333.399 -2.03451 4.52573 0
M  V30 3509 N 332.573 -1.56217 0.208337 0
M  V30 3510 C 333.819 -1.98242 -0.427552 0
M  V30 3511 C 334.152 -1.09554 -1.60348 0
M  V30 3512 O 333.427 -0.15035 -1.93918 0
M  V30 3513 C 333.71 -3.4931 -0.874907 0
M  V30 3514 C 333.563 -4.48773 0.303751 0
M  V30 3515 C 334.882 -4.04424 -1.73577 0
M  V30 3516 H 332.001 -0.720744 -0.153936 0
M  V30 3517 H 334.643 -1.87586 0.30192 0
M  V30 3518 H 332.793 -3.58522 -1.49648 0
M  V30 3519 H 334.465 -4.51586 0.941682 0
M  V30 3520 H 332.708 -4.23194 0.953375 0
M  V30 3521 H 333.379 -5.51976 -0.0519883 0
M  V30 3522 H 335.855 -3.98075 -1.21143 0
M  V30 3523 H 334.731 -5.1047 -2.01771 0
M  V30 3524 H 334.992 -3.50494 -2.69456 0
M  V30 3525 N 334.051 0.0651679 -1.57465 0
M  V30 3526 C 335.014 1.06117 -2.03155 0
M  V30 3527 C 336.014 1.31204 -0.929632 0
M  V30 3528 O 337.204 1.26813 -1.19432 0
M  V30 3529 C 334.336 2.4032 -2.41783 0
M  V30 3530 H 335.529 0.667231 -2.92383 0
M  V30 3531 H 333.082 0.311075 -1.53173 0
M  V30 3532 H 333.817 2.84532 -1.55601 0
M  V30 3533 H 333.602 2.23451 -3.22199 0
M  V30 3534 H 335.092 3.11898 -2.77685 0
M  V30 3535 N 335.529 1.53961 0.336706 0
M  V30 3536 C 336.775 1.7273 1.07406 0
M  V30 3537 C 337.13 0.488095 1.86106 0
M  V30 3538 O 336.423 -0.519379 1.84426 0
M  V30 3539 C 336.617 2.93493 2.03953 0
M  V30 3540 C 336.446 4.29039 1.34744 0
M  V30 3541 C 335.216 4.93416 1.08942 0
M  V30 3542 C 337.414 5.08501 0.770115 0
M  V30 3543 N 335.396 6.12821 0.363864 0
M  V30 3544 C 336.767 6.19752 0.175472 0
M  V30 3545 C 338.822 4.93349 0.671633 0
M  V30 3546 C 337.525 7.17503 -0.508081 0
M  V30 3547 C 339.551 5.914 0.0018076 0
M  V30 3548 C 338.913 7.01993 -0.581835 0
M  V30 3549 H 335.012 0.685026 0.377177 0
M  V30 3550 H 337.596 1.91403 0.356815 0
M  V30 3551 H 335.767 2.76308 2.72962 0
M  V30 3552 H 337.499 3.00949 2.70577 0
M  V30 3553 H 334.254 4.53099 1.37833 0
M  V30 3554 H 334.678 6.76998 0.0156092 0
M  V30 3555 H 339.32 4.08007 1.1086 0
M  V30 3556 H 337.038 8.02414 -0.956918 0
M  V30 3557 H 340.624 5.81753 -0.0738538 0
M  V30 3558 H 339.504 7.76561 -1.09192 0
M  V30 3559 N 337.007 -0.598083 1.45811 0
M  V30 3560 C 338.254 -1.35681 1.50323 0
M  V30 3561 C 338.582 -1.9393 0.148739 0
M  V30 3562 O 337.837 -1.76094 -0.853787 0
M  V30 3563 C 338.136 -2.51669 2.53766 0
M  V30 3564 C 337.802 -2.11508 3.98215 0
M  V30 3565 C 336.464 -2.0027 4.37545 0
M  V30 3566 C 338.816 -1.80308 4.89018 0
M  V30 3567 C 336.144 -1.56067 5.65562 0
M  V30 3568 C 338.496 -1.37589 6.17456 0
M  V30 3569 C 337.16 -1.24916 6.55708 0
M  V30 3570 H 336.43 -0.496492 0.550069 0
M  V30 3571 H 339.077 -0.675052 1.79207 0
M  V30 3572 H 337.382 -3.25225 2.18486 0
M  V30 3573 H 339.079 -3.09895 2.54492 0
M  V30 3574 H 335.669 -2.21185 3.67117 0
M  V30 3575 H 339.853 -1.87884 4.59362 0
M  V30 3576 H 335.109 -1.44886 5.93985 0
M  V30 3577 H 339.283 -1.12495 6.87254 0
M  V30 3578 H 336.91 -0.904386 7.54801 0
M  V30 3579 N 338.485 -1.33259 -0.841409 0
M  V30 3580 C 339.71 -1.2775 -1.63385 0
M  V30 3581 C 340.135 0.149188 -1.87507 0
M  V30 3582 O 339.493 1.10498 -1.43736 0
M  V30 3583 C 339.541 -2.05571 -2.96265 0
M  V30 3584 O 338.645 -1.41257 -3.87453 0
M  V30 3585 H 337.986 -0.439627 -0.497618 0
M  V30 3586 H 340.516 -1.75782 -1.04699 0
M  V30 3587 H 340.526 -2.16241 -3.45982 0
M  V30 3588 H 339.201 -3.09309 -2.7803 0
M  V30 3589 H 337.778 -1.39217 -3.45938 0
M  V30 3590 N 339.963 1.05934 -1.16686 0
M  V30 3591 C 341.21 1.788 -0.950622 0
M  V30 3592 C 341.538 1.87384 0.521305 0
M  V30 3593 O 340.793 1.36438 1.40297 0
M  V30 3594 C 341.092 3.23105 -1.52767 0
M  V30 3595 C 340.758 3.34594 -3.02254 0
M  V30 3596 C 339.42 3.37437 -3.43059 0
M  V30 3597 C 341.772 3.36219 -3.98254 0
M  V30 3598 C 339.1 3.39525 -4.78477 0
M  V30 3599 C 341.452 3.39845 -5.33562 0
M  V30 3600 C 340.116 3.40971 -5.73842 0
M  V30 3601 H 339.386 0.654275 -0.347857 0
M  V30 3602 H 342.033 1.24555 -1.45459 0
M  V30 3603 H 340.338 3.80227 -0.94524 0
M  V30 3604 H 342.035 3.7809 -1.336 0
M  V30 3605 H 338.625 3.3309 -2.6972 0
M  V30 3606 H 342.809 3.33231 -3.67792 0
M  V30 3607 H 338.065 3.38703 -5.09009 0
M  V30 3608 H 342.239 3.4005 -6.07733 0
M  V30 3609 H 339.866 3.42342 -6.78753 0
M  V30 3610 N 341.441 0.965919 1.2453 0
M  V30 3611 C 342.351 0.502154 2.29163 0
M  V30 3612 C 343.367 -0.436017 1.68448 0
M  V30 3613 O 344.543 -0.309497 1.99008 0
M  V30 3614 C 341.608 -0.201956 3.46111 0
M  V30 3615 C 340.669 0.775821 4.22232 0
M  V30 3616 C 339.902 0.105217 5.33596 0
M  V30 3617 O 340.125 -1.10683 5.59558 0
M  V30 3618 O 339.059 0.796475 5.96607 0
M  V30 3619 H 342.885 1.37194 2.70946 0
M  V30 3620 H 340.47 0.732875 1.30189 0
M  V30 3621 H 342.352 -0.597564 4.17142 0
M  V30 3622 H 341.027 -1.04673 3.06309 0
M  V30 3623 H 339.934 1.22185 3.53584 0
M  V30 3624 H 341.267 1.58896 4.65846 0
M  V30 3625 N 342.919 -1.39368 0.735821 0
M  V30 3626 C 344.166 -2.00497 0.284123 0
M  V30 3627 C 344.494 -1.58387 -1.12889 0
M  V30 3628 O 343.749 -0.804359 -1.78406 0
M  V30 3629 C 344.048 -3.5583 0.334651 0
M  V30 3630 C 343.714 -4.17593 1.7008 0
M  V30 3631 C 342.376 -4.34176 2.07472 0
M  V30 3632 C 344.728 -4.51848 2.59775 0
M  V30 3633 C 342.056 -4.82304 3.34065 0
M  V30 3634 C 344.408 -5.01384 3.85741 0
M  V30 3635 C 343.072 -5.16175 4.23225 0
M  V30 3636 H 342.342 -0.73367 0.103968 0
M  V30 3637 H 344.989 -1.66683 0.942825 0
M  V30 3638 H 343.294 -3.89674 -0.407625 0
M  V30 3639 H 344.991 -4.00986 -0.0329927 0
M  V30 3640 H 341.581 -4.05087 1.40008 0
M  V30 3641 H 345.765 -4.38653 2.32157 0
M  V30 3642 H 341.021 -4.91941 3.63049 0
M  V30 3643 H 345.195 -5.26863 4.55399 0
M  V30 3644 H 342.822 -5.5323 5.21384 0
M  V30 3645 N 344.397 -0.483516 -1.5 0
M  V30 3646 C 345.327 0.293829 -2.31644 0
M  V30 3647 C 346.308 0.978864 -1.39112 0
M  V30 3648 O 347.493 0.973644 -1.68029 0
M  V30 3649 C 344.623 1.36897 -3.19181 0
M  V30 3650 C 343.577 0.804833 -4.20365 0
M  V30 3651 C 342.903 1.9792 -4.96721 0
M  V30 3652 C 344.203 -0.192313 -5.21946 0
M  V30 3653 H 345.897 -0.387616 -2.9688 0
M  V30 3654 H 343.443 -0.187856 -1.42769 0
M  V30 3655 H 345.396 1.92037 -3.751 0
M  V30 3656 H 344.12 2.07936 -2.51853 0
M  V30 3657 H 342.779 0.275319 -3.65565 0
M  V30 3658 H 342.427 2.67686 -4.25856 0
M  V30 3659 H 342.127 1.60789 -5.65173 0
M  V30 3660 H 343.651 2.53526 -5.55479 0
M  V30 3661 H 345.065 0.270333 -5.72662 0
M  V30 3662 H 343.462 -0.478543 -5.98189 0
M  V30 3663 H 344.532 -1.11409 -4.71928 0
M  V30 3664 N 345.875 1.56104 -0.216619 0
M  V30 3665 C 346.805 2.23063 0.690296 0
M  V30 3666 C 347.786 1.20072 1.20485 0
M  V30 3667 O 348.971 1.48643 1.24976 0
M  V30 3668 C 346.101 2.90672 1.90072 0
M  V30 3669 C 345.055 4.00092 1.5202 0
M  V30 3670 C 344.381 4.54972 2.80899 0
M  V30 3671 C 345.681 5.17398 0.71391 0
M  V30 3672 H 347.375 2.99109 0.132038 0
M  V30 3673 H 344.921 1.43866 0.0620664 0
M  V30 3674 H 346.874 3.36204 2.54057 0
M  V30 3675 H 345.598 2.12066 2.48386 0
M  V30 3676 H 344.257 3.55283 0.903839 0
M  V30 3677 H 343.905 3.73102 3.37348 0
M  V30 3678 H 343.605 5.28817 2.56176 0
M  V30 3679 H 345.129 5.0322 3.45836 0
M  V30 3680 H 346.543 5.59342 1.25735 0
M  V30 3681 H 344.94 5.97444 0.563951 0
M  V30 3682 H 346.01 4.84088 -0.280527 0
M  V30 3683 N 347.353 -0.0568162 1.57498 0
M  V30 3684 C 348.769 -0.411933 1.54192 0
M  V30 3685 C 348.969 -1.78287 0.938942 0
M  V30 3686 O 348.025 -2.46483 0.547919 0
M  V30 3687 C 349.338 -0.339244 2.9878 0
M  V30 3688 C 350.886 -0.418348 3.10192 0
M  V30 3689 C 351.361 -0.375407 4.56459 0
M  V30 3690 N 352.852 -0.435038 4.61153 0
M  V30 3691 C 353.587 -0.424265 5.71828 0
M  V30 3692 N 353.083 -0.367418 6.91825 0
M  V30 3693 N 354.876 -0.471938 5.60115 0
M  V30 3694 H 347.027 0.840684 1.95055 0
M  V30 3695 H 349.29 0.316987 0.893433 0
M  V30 3696 H 348.996 0.601742 3.46514 0
M  V30 3697 H 348.87 -1.14371 3.59443 0
M  V30 3698 H 351.257 -1.34976 2.62422 0
M  V30 3699 H 351.338 0.414962 2.52412 0
M  V30 3700 H 350.982 0.552219 5.04889 0
M  V30 3701 H 350.912 -1.22645 5.12119 0
M  V30 3702 H 353.403 -0.482612 3.74806 0
M  V30 3703 H 353.716 -0.363535 7.71944 0
M  V30 3704 H 352.061 -0.333879 6.94198 0
M  V30 3705 H 355.252 -0.514145 4.65268 0
M  V30 3706 H 355.425 -0.460073 6.46365 0
M  V30 3707 N 348.832 -1.54138 -0.328536 0
M  V30 3708 C 350.057 -1.76378 -1.09112 0
M  V30 3709 C 350.482 -0.508596 -1.81094 0
M  V30 3710 O 349.84 0.539598 -1.73084 0
M  V30 3711 C 349.888 -2.95358 -2.06872 0
M  V30 3712 O 348.992 -2.66556 -3.14677 0
M  V30 3713 H 348.333 -0.584614 -0.314838 0
M  V30 3714 H 350.863 -2.01146 -0.374348 0
M  V30 3715 H 350.873 -3.22566 -2.4983 0
M  V30 3716 H 349.548 -3.86385 -1.5388 0
M  V30 3717 H 348.125 -2.50282 -2.7643 0
M  V30 3718 N 350.31 0.590341 -1.46126 0
M  V30 3719 C 351.24 1.71032 -1.58966 0
M  V30 3720 C 352.221 1.64302 -0.440335 0
M  V30 3721 O 353.406 1.82436 -0.665634 0
M  V30 3722 C 350.536 3.09665 -1.57241 0
M  V30 3723 C 349.49 3.31221 -2.71066 0
M  V30 3724 C 348.816 4.70303 -2.54399 0
M  V30 3725 C 350.116 3.19796 -4.1295 0
M  V30 3726 H 351.81 1.60543 -2.52718 0
M  V30 3727 H 349.356 0.770933 -1.21625 0
M  V30 3728 H 351.309 3.87831 -1.64819 0
M  V30 3729 H 350.033 3.21036 -0.600289 0
M  V30 3730 H 348.692 2.55452 -2.62944 0
M  V30 3731 H 348.34 4.78429 -1.55288 0
M  V30 3732 H 348.04 4.85679 -3.30741 0
M  V30 3733 H 349.564 5.50647 -2.63857 0
M  V30 3734 H 350.978 3.87815 -4.22223 0
M  V30 3735 H 349.375 3.46696 -4.89818 0
M  V30 3736 H 350.445 2.16983 -4.33643 0
M  V30 3737 N 351.788 1.33704 0.83433 0
M  V30 3738 C 352.72 1.20172 1.9517 0
M  V30 3739 C 353.733 0.131572 1.62267 0
M  V30 3740 O 354.922 0.382406 1.74356 0
M  V30 3741 C 352.022 0.821716 3.28787 0
M  V30 3742 C 351.195 1.98446 3.89792 0
M  V30 3743 C 350.254 1.58469 5.01771 0
M  V30 3744 O 349.28 2.29968 5.20676 0
M  V30 3745 N 350.482 0.492291 5.78409 0
M  V30 3746 H 353.247 2.16429 2.07313 0
M  V30 3747 H 350.808 1.26509 1.0103 0
M  V30 3748 H 352.8 0.536291 4.01131 0
M  V30 3749 H 351.37 -0.0503058 3.1256 0
M  V30 3750 H 350.59 2.43526 3.09982 0
M  V30 3751 H 351.878 2.76236 4.27283 0
M  V30 3752 H 351.276 -0.102349 5.65607 0
M  V30 3753 H 349.833 0.266555 6.51255 0
M  V30 3754 N 353.266 -1.05314 1.17247 0
M  V30 3755 C 354.229 -2.112 0.890357 0
M  V30 3756 C 355.229 -1.60359 -0.118943 0
M  V30 3757 O 356.419 -1.73833 0.113086 0
M  V30 3758 C 353.551 -3.39266 0.333422 0
M  V30 3759 H 354.744 -2.37659 1.82916 0
M  V30 3760 H 352.297 -1.21538 0.982758 0
M  V30 3761 H 353.032 -3.18462 -0.612587 0
M  V30 3762 H 352.817 -3.77477 1.06082 0
M  V30 3763 H 354.307 -4.17315 0.154322 0
M  V30 3764 N 354.744 -0.972509 -1.24016 0
M  V30 3765 C 355.654 -0.5143 -2.28893 0
M  V30 3766 C 356.67 0.427078 -1.68677 0
M  V30 3767 O 357.846 0.298939 -1.99169 0
M  V30 3768 C 354.911 0.183598 -3.46214 0
M  V30 3769 C 353.972 -0.798202 -4.21814 0
M  V30 3770 C 353.205 -0.133514 -5.33533 0
M  V30 3771 O 353.428 1.07714 -5.60137 0
M  V30 3772 O 352.362 -0.828103 -5.96176 0
M  V30 3773 H 356.188 -1.38629 -2.70214 0
M  V30 3774 H 353.773 -0.739769 -1.29799 0
M  V30 3775 H 355.655 0.575433 -4.17453 0
M  V30 3776 H 354.33 1.03048 -3.0686 0
M  V30 3777 H 353.237 -1.24059 -3.52931 0
M  V30 3778 H 354.57 -1.61364 -4.64997 0
M  V30 3779 N 356.222 1.38976 -0.743202 0
M  V30 3780 C 357.447 2.05161 -0.303936 0
M  V30 3781 C 357.872 1.55677 1.05576 0
M  V30 3782 O 357.23 0.704131 1.67068 0
M  V30 3783 C 357.278 3.59138 -0.324373 0
M  V30 3784 O 356.382 4.06668 0.685204 0
M  V30 3785 H 355.723 0.649815 -0.136518 0
M  V30 3786 H 358.253 1.77852 -1.01142 0
M  V30 3787 H 358.263 4.07639 -0.171618 0
M  V30 3788 H 356.938 3.94515 -1.31647 0
M  V30 3789 H 355.515 3.69561 0.497913 0
M  V30 3790 N 357.7 0.491464 1.49741 0
M  V30 3791 C 358.647 -0.292027 2.28945 0
M  V30 3792 C 359.617 -0.968973 1.34908 0
M  V30 3793 O 360.802 -0.97748 1.6386 0
M  V30 3794 C 357.942 -1.35617 3.17336 0
M  V30 3795 C 357.055 -0.691957 4.26422 0
M  V30 3796 C 356.19 -1.73572 5.02042 0
M  V30 3797 C 355.229 -1.05286 6.02977 0
M  V30 3798 N 354.366 -2.0404 6.71798 0
M  V30 3799 H 359.206 0.389654 2.95442 0
M  V30 3800 H 356.743 0.204003 1.45679 0
M  V30 3801 H 358.701 -1.98502 3.66951 0
M  V30 3802 H 357.331 -2.00674 2.52844 0
M  V30 3803 H 356.383 0.0499523 3.80367 0
M  V30 3804 H 357.695 -0.153946 4.98562 0
M  V30 3805 H 356.849 -2.43987 5.55478 0
M  V30 3806 H 355.588 -2.30757 4.29654 0
M  V30 3807 H 354.593 -0.334446 5.48782 0
M  V30 3808 H 355.818 -0.487636 6.77347 0
M  V30 3809 H 353.764 -2.60205 6.02187 0
M  V30 3810 H 353.681 -1.55279 7.39881 0
M  V30 3811 H 354.949 -2.73772 7.29842 0
M  V30 3812 N 359.178 -1.55987 0.224894 0
M  V30 3813 C 360.418 -2.00293 -0.407706 0
M  V30 3814 C 360.782 -1.1093 -1.56711 0
M  V30 3815 O 361.983 -1.44597 -2.26595 0
M  V30 3816 C 360.254 -3.47675 -0.82805 0
M  V30 3817 S 361.813 -4.14 -1.45429 0
M  V30 3818 H 358.631 -0.699152 -0.129256 0
M  V30 3819 H 361.233 -1.92609 0.334967 0
M  V30 3820 H 359.937 -4.10392 0.0253964 0
M  V30 3821 H 359.468 -3.59239 -1.60345 0
M  V30 3822 H 361.483 -4.13465 -2.74337 0
M  V30 3823 N 360.656 0.0484629 -1.57525 0
M  V30 3824 C 361.619 1.03956 -2.04269 0
M  V30 3825 C 362.619 1.30211 -0.943496 0
M  V30 3826 O 363.809 1.25539 -1.20771 0
M  V30 3827 C 360.941 2.37742 -2.44319 0
M  V30 3828 H 362.134 0.636182 -2.93075 0
M  V30 3829 H 359.687 0.294811 -1.53494 0
M  V30 3830 H 360.422 2.82866 -1.5861 0
M  V30 3831 H 360.207 2.20021 -3.24551 0
M  V30 3832 H 361.697 3.08936 -2.80978 0
M  V30 3833 N 362.134 1.5431 0.320358 0
M  V30 3834 C 363.381 1.72668 1.05792 0
M  V30 3835 C 363.709 0.502084 1.87908 0
M  V30 3836 O 362.964 -0.516149 1.88771 0
M  V30 3837 C 363.263 2.95639 2.00828 0
M  V30 3838 C 362.929 4.30265 1.34843 0
M  V30 3839 C 361.591 4.66865 1.16578 0
M  V30 3840 C 363.943 5.13801 0.875095 0
M  V30 3841 C 361.271 5.84597 0.496336 0
M  V30 3842 C 363.623 6.32219 0.219463 0
M  V30 3843 C 362.287 6.67495 0.0246915 0
M  V30 3844 H 361.557 0.631837 0.387121 0
M  V30 3845 H 364.204 1.88552 0.334735 0
M  V30 3846 H 362.509 2.74456 2.79609 0
M  V30 3847 H 364.206 3.07038 2.57932 0
M  V30 3848 H 360.796 4.01472 1.50061 0
M  V30 3849 H 364.98 4.86039 1.00398 0
M  V30 3850 H 360.236 6.10486 0.334264 0
M  V30 3851 H 364.41 6.96227 -0.155291 0
M  V30 3852 H 362.037 7.5858 -0.496065 0
M  V30 3853 N 363.613 -0.582584 1.46437 0
M  V30 3854 C 364.543 -1.70187 1.59871 0
M  V30 3855 C 365.524 -1.64066 0.449042 0
M  V30 3856 O 366.709 -1.82081 0.6753 0
M  V30 3857 C 363.839 -3.08827 1.58881 0
M  V30 3858 C 362.793 -3.29779 2.72819 0
M  V30 3859 C 362.119 -4.68947 2.5689 0
M  V30 3860 C 363.419 -3.17601 4.1464 0
M  V30 3861 H 365.113 -1.592 2.53566 0
M  V30 3862 H 362.659 -0.764472 1.22032 0
M  V30 3863 H 364.612 -3.86951 1.66873 0
M  V30 3864 H 363.336 -3.20713 0.617306 0
M  V30 3865 H 361.995 -2.54054 2.64296 0
M  V30 3866 H 361.643 -4.77599 1.57823 0
M  V30 3867 H 361.343 -4.83919 3.33312 0
M  V30 3868 H 362.867 -5.4924 2.66773 0
M  V30 3869 H 364.281 -3.8557 4.24274 0
M  V30 3870 H 362.678 -3.44094 4.9165 0
M  V30 3871 H 363.748 -2.14681 4.34788 0
M  V30 3872 N 365.091 -1.34144 -0.827227 0
M  V30 3873 C 366.507 -1.13732 -1.11969 0
M  V30 3874 C 366.707 0.0640463 -2.01398 0
M  V30 3875 O 365.763 0.740856 -2.41387 0
M  V30 3876 C 367.076 -2.43047 -1.77055 0
M  V30 3877 C 368.624 -2.49063 -1.89569 0
M  V30 3878 C 369.099 -3.78369 -2.58072 0
M  V30 3879 N 370.59 -3.79505 -2.65575 0
M  V30 3880 C 371.325 -4.76274 -3.19297 0
M  V30 3881 N 370.821 -5.83424 -3.73616 0
M  V30 3882 N 372.614 -4.63735 -3.17658 0
M  V30 3883 H 364.765 -2.11126 -0.232296 0
M  V30 3884 H 367.028 -0.933424 -0.165602 0
M  V30 3885 H 366.734 -3.31025 -1.18807 0
M  V30 3886 H 366.608 -2.56066 -2.76966 0
M  V30 3887 H 368.995 -1.61527 -2.46968 0
M  V30 3888 H 369.076 -2.39975 -0.885745 0
M  V30 3889 H 368.72 -4.66293 -2.01329 0
M  V30 3890 H 368.65 -3.84737 -3.59562 0
M  V30 3891 H 371.141 -3.02074 -2.27068 0
M  V30 3892 H 371.454 -6.53282 -4.12846 0
M  V30 3893 H 369.799 -5.87143 -3.71871 0
M  V30 3894 H 372.99 -3.79177 -2.74486 0
M  V30 3895 H 373.163 -5.39318 -3.59221 0
M  V30 3896 N 366.569 1.04691 -1.17803 0
M  V30 3897 C 367.532 2.10724 -0.901545 0
M  V30 3898 C 368.532 1.6042 0.110437 0
M  V30 3899 O 369.722 1.7377 -0.122303 0
M  V30 3900 C 366.854 3.39084 -0.351409 0
M  V30 3901 H 368.047 2.36686 -1.84174 0
M  V30 3902 H 365.6 1.21015 -0.98919 0
M  V30 3903 H 366.335 3.18782 0.59569 0
M  V30 3904 H 366.12 3.76909 -1.08083 0
M  V30 3905 H 367.61 4.17227 -0.176451 0
M  V30 3906 N 368.047 0.979072 1.23499 0
M  V30 3907 C 369.458 0.684391 1.73704 0
M  V30 3908 C 369.809 -0.799448 1.79174 0
M  V30 3909 O 368.934 -1.62531 1.42873 0
M  V30 3910 C 369.529 1.23564 3.15464 0
M  V30 3911 C 368.088 0.99063 3.6313 0
M  V30 3912 C 367.235 1.36416 2.41425 0
M  V30 3913 H 370.186 1.15307 1.09041 0
M  V30 3914 H 370.207 0.607417 3.7562 0
M  V30 3915 H 369.719 2.31561 3.1145 0
M  V30 3916 H 367.82 -0.0733136 3.72528 0
M  V30 3917 H 367.933 1.64427 4.5 0
M  V30 3918 H 366.297 0.782616 2.42378 0
M  V30 3919 H 367.08 2.45387 2.40083 0
M  V30 3920 N 369.525 -1.3858 0.750561 0
M  V30 3921 C 370.455 -2.33102 0.136237 0
M  V30 3922 C 371.436 -1.54713 -0.706965 0
M  V30 3923 O 372.621 -1.83043 -0.648769 0
M  V30 3924 C 369.751 -3.38882 -0.760017 0
M  V30 3925 C 368.705 -4.27995 -0.0197785 0
M  V30 3926 C 368.031 -5.24605 -1.03408 0
M  V30 3927 C 369.331 -5.09554 1.14684 0
M  V30 3928 H 371.025 -2.84726 0.925822 0
M  V30 3929 H 368.571 -1.36898 0.446654 0
M  V30 3930 H 370.524 -4.0397 -1.19943 0
M  V30 3931 H 369.248 -2.85734 -1.58189 0
M  V30 3932 H 367.907 -3.64409 0.400184 0
M  V30 3933 H 367.555 -4.67746 -1.84994 0
M  V30 3934 H 367.255 -5.85081 -0.543464 0
M  V30 3935 H 368.779 -5.9257 -1.47288 0
M  V30 3936 H 370.193 -5.67899 0.785118 0
M  V30 3937 H 368.59 -5.7925 1.56812 0
M  V30 3938 H 369.66 -4.4347 1.96118 0
M  V30 3939 N 371.003 -0.499398 -1.49478 0
M  V30 3940 C 371.951 0.293604 -2.3074 0
M  V30 3941 C 372.945 0.96427 -1.39277 0
M  V30 3942 O 374.151 0.892141 -1.56336 0
M  V30 3943 H 370.526 0.113541 -0.743379 0
M  V30 3944 H 372.497 -0.411772 -2.95545 0
M  V30 3945 C 371.246 1.3462 -3.20582 0
M  V30 3946 H 370.569 0.83954 -3.90886 0
M  V30 3947 H 372.009 1.87308 -3.80384 0
M  V30 3948 C 370.468 2.36351 -2.40083 0
M  V30 3949 O 370.998 3.422 -2.10385 0
M  V30 3950 N 369.204 2.0878 -2.02137 0
M  V30 3951 H 368.751 1.22723 -2.26488 0
M  V30 3952 H 368.709 2.77075 -1.48583 0
M  V30 3953 N 372.481 1.55866 -0.233164 0
M  V30 3954 C 373.73 1.97779 0.39579 0
M  V30 3955 C 374.043 1.12419 1.60066 0
M  V30 3956 O 375.249 1.44283 2.29988 0
M  V30 3957 C 373.705 3.5188 0.755556 0
M  V30 3958 C 373.313 4.45959 -0.427152 0
M  V30 3959 C 375.057 4.02479 1.34946 0
M  V30 3960 C 372.964 5.91383 -0.0443043 0
M  V30 3961 H 371.894 0.738592 0.15165 0
M  V30 3962 H 374.545 1.80486 -0.331212 0
M  V30 3963 H 372.927 3.64816 1.5403 0
M  V30 3964 H 374.101 4.44776 -1.20462 0
M  V30 3965 H 372.416 4.05765 -0.935068 0
M  V30 3966 H 375.013 5.08637 1.649 0
M  V30 3967 H 375.356 3.49014 2.26925 0
M  V30 3968 H 375.889 3.92813 0.62791 0
M  V30 3969 H 372.628 6.48857 -0.930874 0
M  V30 3970 H 372.148 5.95734 0.697238 0
M  V30 3971 H 373.827 6.45893 0.378334 0
M  V30 3972 N 373.959 -0.0401083 1.57549 0
M  V30 3973 C 375.208 -0.732108 1.87944 0
M  V30 3974 C 375.521 -1.77107 0.830206 0
M  V30 3975 O 376.727 -2.51488 1.02302 0
M  V30 3976 C 375.183 -1.35315 3.33494 0
M  V30 3977 C 374.791 -0.351105 4.46622 0
M  V30 3978 C 376.535 -2.02566 3.73051 0
M  V30 3979 C 374.442 -0.979859 5.83226 0
M  V30 3980 H 373.372 -0.277188 0.701201 0
M  V30 3981 H 376.023 0.0138501 1.83495 0
M  V30 3982 H 374.405 -2.14844 3.32653 0
M  V30 3983 H 375.579 0.416674 4.58912 0
M  V30 3984 H 373.894 0.218708 4.15825 0
M  V30 3985 H 376.491 -2.50441 4.72423 0
M  V30 3986 H 376.834 -2.83904 3.04474 0
M  V30 3987 H 377.367 -1.29827 3.76018 0
M  V30 3988 H 374.106 -0.206135 6.55176 0
M  V30 3989 H 373.626 -1.71774 5.74677 0
M  V30 3990 H 375.305 -1.49046 6.29599 0
M  V30 3991 N 375.437 -1.54477 -0.31217 0
M  V30 3992 C 376.714 -1.63891 -1.06767 0
M  V30 3993 C 377.094 -0.480028 -2.0557 0
M  V30 3994 O 376.442 0.524487 -2.22399 0
M  V30 3995 C 376.652 -3.01402 -1.75948 0
M  V30 3996 C 378 -3.57838 -2.28554 0
M  V30 3997 O 379.024 -3.03782 -1.85998 0
M  V30 3998 O 377.883 -4.52462 -3.06497 0
M  V30 3999 H 374.977 -0.664125 -0.492816 0
M  V30 4000 H 377.523 -1.66823 -0.311149 0
M  V30 4001 H 376.295 -3.77187 -1.04144 0
M  V30 4002 H 375.918 -3.02199 -2.58383 0
M  V30 4003 N 376.915 0.57481 -1.46744 0
M  V30 4004 C 378.164 1.32898 -1.51727 0
M  V30 4005 C 378.477 1.948 -0.176692 0
M  V30 4006 O 379.683 2.71299 -0.104385 0
M  V30 4007 C 378.139 2.40901 -2.67385 0
M  V30 4008 C 377.747 1.85266 -4.07898 0
M  V30 4009 C 379.491 3.17609 -2.81646 0
M  V30 4010 C 377.398 2.90945 -5.14883 0
M  V30 4011 H 376.328 0.499631 -0.564699 0
M  V30 4012 H 378.979 0.612536 -1.72975 0
M  V30 4013 H 377.361 3.15379 -2.39483 0
M  V30 4014 H 378.535 1.17278 -4.45626 0
M  V30 4015 H 376.85 1.21199 -3.98371 0
M  V30 4016 H 379.447 3.96493 -3.58744 0
M  V30 4017 H 379.79 3.70696 -1.89448 0
M  V30 4018 H 380.323 2.50239 -3.09233 0
M  V30 4019 H 377.062 2.42736 -6.089 0
M  V30 4020 H 376.582 3.57398 -4.81691 0
M  V30 4021 H 378.261 3.54755 -5.41071 0
M  V30 4022 N 378.394 1.34581 0.820102 0
M  V30 4023 C 379.324 1.29038 1.94606 0
M  V30 4024 C 380.305 0.1673 1.69275 0
M  V30 4025 O 381.49 0.360112 1.90832 0
M  V30 4026 C 378.62 1.04793 3.31113 0
M  V30 4027 C 377.574 2.13597 3.70891 0
M  V30 4028 C 376.9 1.74537 5.05412 0
M  V30 4029 C 378.2 3.55451 3.8269 0
M  V30 4030 H 379.894 2.23248 1.99501 0
M  V30 4031 H 377.44 1.0747 0.958449 0
M  V30 4032 H 379.393 0.995592 4.0947 0
M  V30 4033 H 378.117 0.0702565 3.26524 0
M  V30 4034 H 376.776 2.17905 2.9481 0
M  V30 4035 H 376.424 0.754226 4.97313 0
M  V30 4036 H 376.124 2.47361 5.32997 0
M  V30 4037 H 377.648 1.70803 5.86224 0
M  V30 4038 H 379.062 3.5354 4.51312 0
M  V30 4039 H 377.459 4.26922 4.21732 0
M  V30 4040 H 378.529 3.92587 2.84611 0
M  V30 4041 N 379.872 -1.04064 1.18357 0
M  V30 4042 C 380.835 -2.10243 0.912707 0
M  V30 4043 C 381.835 -1.60477 -0.101928 0
M  V30 4044 O 383.025 -1.73703 0.131517 0
M  V30 4045 C 380.157 -3.38893 0.369387 0
M  V30 4046 H 381.35 -2.35706 1.85426 0
M  V30 4047 H 378.903 -1.20489 0.995594 0
M  V30 4048 H 379.638 -3.19094 -0.578776 0
M  V30 4049 H 379.423 -3.76331 1.1008 0
M  V30 4050 H 380.913 -4.17128 0.198575 0
M  V30 4051 N 381.35 -0.985608 -1.22978 0
M  V30 4052 C 382.28 -0.549649 -2.26939 0
M  V30 4053 C 383.261 0.419803 -1.64838 0
M  V30 4054 O 384.446 0.31203 -1.91677 0
M  V30 4055 C 381.576 0.143652 -3.47003 0
M  V30 4056 C 380.53 -0.743606 -4.21491 0
M  V30 4057 C 379.856 0.0822027 -5.34637 0
M  V30 4058 C 381.156 -2.03694 -4.80943 0
M  V30 4059 H 382.85 -1.41862 -2.63658 0
M  V30 4060 H 380.396 -0.683571 -1.26741 0
M  V30 4061 H 382.349 0.459985 -4.18882 0
M  V30 4062 H 381.073 1.04711 -3.09359 0
M  V30 4063 H 379.732 -1.04347 -3.51436 0
M  V30 4064 H 379.38 0.986359 -4.93234 0
M  V30 4065 H 379.08 -0.508377 -5.85397 0
M  V30 4066 H 380.604 0.392797 -6.09335 0
M  V30 4067 H 382.018 -1.78504 -5.44802 0
M  V30 4068 H 380.415 -2.57573 -5.42011 0
M  V30 4069 H 381.485 -2.72042 -4.01399 0
M  V30 4070 N 382.828 1.3818 -0.7579 0
M  V30 4071 C 383.758 2.33027 -0.148597 0
M  V30 4072 C 384.739 1.55085 0.69875 0
M  V30 4073 O 385.924 1.83384 0.639053 0
M  V30 4074 C 383.054 3.3928 0.742034 0
M  V30 4075 C 382.008 4.28 -0.00291946 0
M  V30 4076 C 381.334 5.25146 1.00625 0
M  V30 4077 C 382.634 5.08938 -1.17385 0
M  V30 4078 H 384.328 2.84231 -0.940909 0
M  V30 4079 H 381.874 1.36659 -0.453908 0
M  V30 4080 H 383.827 4.046 1.17799 0
M  V30 4081 H 382.551 2.86569 1.56671 0
M  V30 4082 H 381.21 3.64192 -0.419504 0
M  V30 4083 H 380.858 4.68721 1.8251 0
M  V30 4084 H 380.558 5.85361 0.512428 0
M  V30 4085 H 382.082 5.93342 1.44143 0
M  V30 4086 H 383.496 5.67474 -0.815224 0
M  V30 4087 H 381.893 5.7841 -1.59882 0
M  V30 4088 H 382.963 4.42424 -1.98468 0
M  V30 4089 N 384.306 0.507319 1.49211 0
M  V30 4090 C 385.717 0.0611118 1.866 0
M  V30 4091 C 386.068 -1.35488 1.41907 0
M  V30 4092 O 385.193 -2.0108 0.799726 0
M  V30 4093 C 385.788 0.104125 3.3864 0
M  V30 4094 C 384.347 -0.28677 3.75306 0
M  V30 4095 C 383.494 0.473893 2.73221 0
M  V30 4096 H 386.445 0.719775 1.41439 0
M  V30 4097 H 386.466 -0.689672 3.74198 0
M  V30 4098 H 385.978 1.13482 3.71138 0
M  V30 4099 H 384.079 -1.32046 3.48417 0
M  V30 4100 H 384.192 0.0370745 4.79086 0
M  V30 4101 H 382.556 -0.0770644 2.54583 0
M  V30 4102 H 383.339 1.50478 3.08563 0
M  V30 4103 N 385.784 -1.5574 0.241426 0
M  V30 4104 C 387.031 -1.9881 -0.384836 0
M  V30 4105 C 387.359 -1.12947 -1.58346 0
M  V30 4106 O 386.614 -0.178993 -1.9488 0
M  V30 4107 C 386.913 -3.47308 -0.843317 0
M  V30 4108 C 386.579 -4.50223 0.246946 0
M  V30 4109 C 385.241 -4.78088 0.546399 0
M  V30 4110 C 387.593 -5.11841 0.983282 0
M  V30 4111 C 384.921 -5.64846 1.58636 0
M  V30 4112 C 387.273 -5.99727 2.01272 0
M  V30 4113 C 385.937 -6.25927 2.31888 0
M  V30 4114 H 385.207 -0.727496 -0.140821 0
M  V30 4115 H 387.854 -1.8831 0.348106 0
M  V30 4116 H 386.159 -3.55112 -1.65537 0
M  V30 4117 H 387.856 -3.78017 -1.33806 0
M  V30 4118 H 384.446 -4.286 0.00340639 0
M  V30 4119 H 388.63 -4.90366 0.765182 0
M  V30 4120 H 383.886 -5.83403 1.82896 0
M  V30 4121 H 388.06 -6.46517 2.58823 0
M  V30 4122 H 385.687 -6.92949 3.12611 0
M  V30 4123 N 387.262 0.0317525 -1.57568 0
M  V30 4124 C 388.492 0.733884 -1.93126 0
M  V30 4125 C 388.9 1.69563 -0.839352 0
M  V30 4126 O 388.243 1.82681 0.193175 0
M  V30 4127 C 388.305 1.54798 -3.24465 0
M  V30 4128 C 387.969 0.751304 -4.50782 0
M  V30 4129 C 388.966 0.0527632 -5.19873 0
M  V30 4130 C 386.651 0.706639 -4.97305 0
M  V30 4131 C 388.645 -0.679774 -6.33765 0
M  V30 4132 C 386.332 -0.0296449 -6.11093 0
M  V30 4133 C 387.33 -0.721614 -6.79177 0
M  V30 4134 O 387.018 -1.44595 -7.90789 0
M  V30 4135 H 386.75 0.211459 -0.642076 0
M  V30 4136 H 389.304 -0.00585615 -2.05399 0
M  V30 4137 H 387.534 2.33147 -3.08512 0
M  V30 4138 H 389.223 2.13247 -3.4537 0
M  V30 4139 H 389.989 0.0783188 -4.84937 0
M  V30 4140 H 385.868 1.23474 -4.44157 0
M  V30 4141 H 389.412 -1.22042 -6.86842 0
M  V30 4142 H 385.309 -0.0571331 -6.45475 0
M  V30 4143 H 386.077 -1.35935 -8.07133 0
M  V30 4144 N 388.74 1.54641 0.303973 0
M  V30 4145 C 389.986 1.74038 1.04109 0
M  V30 4146 C 390.319 0.523051 1.87024 0
M  V30 4147 O 389.594 -0.479874 1.88487 0
M  V30 4148 C 389.877 3.02761 1.94955 0
M  V30 4149 C 389.73 4.34787 1.1524 0
M  V30 4150 C 391.049 3.27336 2.94175 0
M  V30 4151 H 388.168 0.63323 0.377079 0
M  V30 4152 H 390.81 1.87354 0.316001 0
M  V30 4153 H 388.96 2.9154 2.56782 0
M  V30 4154 H 390.632 4.57922 0.557236 0
M  V30 4155 H 388.875 4.31407 0.455053 0
M  V30 4156 H 389.546 5.21116 1.8205 0
M  V30 4157 H 392.022 3.38148 2.42477 0
M  V30 4158 H 390.898 4.18726 3.54908 0
M  V30 4159 H 391.159 2.45491 3.67677 0
M  V30 4160 N 390.218 -0.567019 1.47046 0
M  V30 4161 C 391.443 -1.3551 1.57009 0
M  V30 4162 C 391.868 -1.86841 0.217259 0
M  V30 4163 O 391.226 -1.62435 -0.805268 0
M  V30 4164 C 391.274 -2.50777 2.5912 0
M  V30 4165 O 390.378 -3.52706 2.13711 0
M  V30 4166 H 389.719 -0.402919 0.52778 0
M  V30 4167 H 392.249 -0.686241 1.92748 0
M  V30 4168 H 392.259 -2.97481 2.79229 0
M  V30 4169 H 390.934 -2.12771 3.57353 0
M  V30 4170 H 389.511 -3.12374 2.03659 0
M  V30 4171 N 391.696 -1.35014 -0.812953 0
M  V30 4172 C 392.626 -1.30069 -1.93919 0
M  V30 4173 C 393.607 -0.176275 -1.69184 0
M  V30 4174 O 394.792 -0.370227 -1.90638 0
M  V30 4175 C 391.922 -1.06547 -3.30552 0
M  V30 4176 C 390.876 -2.15561 -3.69753 0
M  V30 4177 C 390.202 -1.77214 -5.04479 0
M  V30 4178 C 391.502 -3.57476 -3.808 0
M  V30 4179 H 393.196 -2.24303 -1.98314 0
M  V30 4180 H 390.742 -1.07977 -0.952736 0
M  V30 4181 H 392.695 -1.01729 -4.08937 0
M  V30 4182 H 391.419 -0.0875719 -3.26483 0
M  V30 4183 H 390.078 -2.19466 -2.9365 0
M  V30 4184 H 389.726 -0.780589 -4.96906 0
M  V30 4185 H 389.426 -2.50184 -5.31678 0
M  V30 4186 H 390.95 -1.7391 -5.8531 0
M  V30 4187 H 392.364 -3.55929 -4.4943 0
M  V30 4188 H 390.761 -4.29152 -4.19462 0
M  V30 4189 H 391.831 -3.94091 -2.82525 0
M  V30 4190 N 393.175 1.03435 -1.18907 0
M  V30 4191 C 394.105 2.13503 -0.945448 0
M  V30 4192 C 395.086 1.69682 0.119189 0
M  V30 4193 O 396.271 1.94169 -0.034707 0
M  V30 4194 C 393.401 3.44004 -0.477316 0
M  V30 4195 C 392.355 4.0148 -1.48316 0
M  V30 4196 C 391.681 5.27537 -0.872311 0
M  V30 4197 C 392.981 4.36921 -2.86177 0
M  V30 4198 H 394.675 2.34141 -1.86597 0
M  V30 4199 H 392.221 1.12523 -0.898584 0
M  V30 4200 H 394.174 4.20372 -0.294204 0
M  V30 4201 H 392.898 3.23072 0.478786 0
M  V30 4202 H 391.557 3.27201 -1.65332 0
M  V30 4203 H 391.205 5.02917 0.0911752 0
M  V30 4204 H 390.905 5.66954 -1.54393 0
M  V30 4205 H 392.429 6.06576 -0.699871 0
M  V30 4206 H 393.843 5.04248 -2.72776 0
M  V30 4207 H 392.24 4.87405 -3.50081 0
M  V30 4208 H 393.31 3.46466 -3.39248 0
M  V30 4209 N 394.653 0.992116 1.22453 0
M  V30 4210 C 395.583 0.561677 2.26644 0
M  V30 4211 C 396.564 -0.411055 1.65059 0
M  V30 4212 O 397.749 -0.301861 1.9184 0
M  V30 4213 C 394.879 -0.125247 3.47074 0
M  V30 4214 C 393.833 0.765948 4.21091 0
M  V30 4215 C 393.159 -0.0538484 5.34673 0
M  V30 4216 C 394.459 2.06242 4.79856 0
M  V30 4217 H 396.153 1.43259 2.62902 0
M  V30 4218 H 393.699 0.690283 1.26377 0
M  V30 4219 H 395.652 -0.437764 4.1912 0
M  V30 4220 H 394.376 -1.03069 3.0991 0
M  V30 4221 H 393.035 1.0621 3.50878 0
M  V30 4222 H 392.683 -0.960188 4.9375 0
M  V30 4223 H 392.383 0.539415 5.85119 0
M  V30 4224 H 393.907 -0.360477 6.09535 0
M  V30 4225 H 395.321 1.8139 5.43848 0
M  V30 4226 H 393.718 2.60444 5.40638 0
M  V30 4227 H 394.788 2.74167 3.99951 0
M  V30 4228 N 396.131 -1.37776 0.765217 0
M  V30 4229 C 397.379 -1.99454 0.325943 0
M  V30 4230 C 397.7 -1.61049 -1.09947 0
M  V30 4231 O 396.97 -0.872821 -1.75381 0
M  V30 4232 H 395.55 -0.737697 0.117525 0
M  V30 4233 H 398.212 -1.68359 0.981895 0
M  V30 4234 H 397.308 -3.09547 0.398353 0
M  V30 4235 N 397.609 -0.515225 -1.4894 0
M  V30 4236 C 398.539 0.244628 -2.32215 0
M  V30 4237 C 399.52 0.949136 -1.41157 0
M  V30 4238 O 400.705 0.937783 -1.70057 0
M  V30 4239 C 397.835 1.30096 -3.22013 0
M  V30 4240 C 396.789 0.715486 -4.21977 0
M  V30 4241 C 396.115 1.87339 -5.00808 0
M  V30 4242 C 397.415 -0.302982 -5.2142 0
M  V30 4243 H 399.109 -0.450501 -2.95991 0
M  V30 4244 H 396.655 -0.218098 -1.42339 0
M  V30 4245 H 398.608 1.84037 -3.79089 0
M  V30 4246 H 397.332 2.02547 -2.56207 0
M  V30 4247 H 395.991 0.197715 -3.66066 0
M  V30 4248 H 395.639 2.58592 -4.31438 0
M  V30 4249 H 395.339 1.48764 -5.68457 0
M  V30 4250 H 396.863 2.41686 -5.60732 0
M  V30 4251 H 398.277 0.148802 -5.73107 0
M  V30 4252 H 396.674 -0.60532 -5.97039 0
M  V30 4253 H 397.744 -1.21395 -4.69459 0
M  V30 4254 N 399.087 1.5561 -0.249682 0
M  V30 4255 C 400.05 2.20217 0.635394 0
M  V30 4256 C 401.05 1.17227 1.10066 0
M  V30 4257 O 402.24 1.42292 1.00492 0
M  V30 4258 C 399.372 2.84794 1.87363 0
M  V30 4259 H 400.565 2.99814 0.0716752 0
M  V30 4260 H 398.118 1.563 -0.000153234 0
M  V30 4261 H 398.853 2.09142 2.47851 0
M  V30 4262 H 398.638 3.60241 1.5482 0
M  V30 4263 H 400.128 3.3423 2.5036 0
M  V30 4264 N 400.565 -0.0233959 1.57583 0
M  V30 4265 C 401.528 -1.00693 2.05897 0
M  V30 4266 C 402.528 -1.28693 0.964092 0
M  V30 4267 O 403.718 -1.23602 1.22753 0
M  V30 4268 C 400.85 -2.33825 2.4807 0
M  V30 4269 H 402.043 -0.589476 2.9405 0
M  V30 4270 H 399.596 -0.270354 1.53944 0
M  V30 4271 H 400.331 -2.80307 1.6309 0
M  V30 4272 H 400.116 -2.1483 3.2801 0
M  V30 4273 H 401.606 -3.04426 2.85857 0
M  V30 4274 N 402.043 -1.548 -0.295768 0
M  V30 4275 C 403.291 -1.73985 -1.02828 0
M  V30 4276 C 403.612 -0.531406 -1.87619 0
M  V30 4277 O 402.882 0.454221 -1.90561 0
M  V30 4278 H 401.462 -0.641556 -0.382642 0
M  V30 4279 H 404.124 -1.92163 -0.325489 0
M  V30 4280 H 403.22 -2.63129 -1.67838 0
M  V30 4281 N 403.521 0.559213 -1.47345 0
M  V30 4282 C 404.932 1.14134 -1.47751 0
M  V30 4283 C 405.283 1.94834 -0.231103 0
M  V30 4284 O 404.408 2.05957 0.664137 0
M  V30 4285 C 405.003 2.07653 -2.67705 0
M  V30 4286 C 403.562 2.61141 -2.71076 0
M  V30 4287 C 402.709 1.3748 -2.40821 0
M  V30 4288 H 405.66 0.345917 -1.54884 0
M  V30 4289 H 405.681 2.91497 -2.44561 0
M  V30 4290 H 405.193 1.4889 -3.58404 0
M  V30 4291 H 403.294 3.23707 -1.84511 0
M  V30 4292 H 403.407 3.02272 -3.7171 0
M  V30 4293 H 401.771 1.68086 -1.91362 0
M  V30 4294 H 402.554 0.805135 -3.33725 0
M  V30 4295 N 404.999 1.35443 0.805782 0
M  V30 4296 C 406.247 1.28507 1.55982 0
M  V30 4297 C 406.568 -0.140046 1.94496 0
M  V30 4298 O 405.838 -1.07666 1.63661 0
M  V30 4299 H 404.418 0.472676 0.578434 0
M  V30 4300 H 407.08 1.69555 0.961098 0
M  V30 4301 H 406.176 1.90148 2.47488 0
M  V30 4302 N 406.477 -1.02803 1.19454 0
M  V30 4303 C 407.725 -1.75869 0.995722 0
M  V30 4304 C 408.046 -1.89138 -0.474543 0
M  V30 4305 O 407.316 -1.42558 -1.34366 0
M  V30 4306 H 405.896 -0.651511 0.365435 0
M  V30 4307 H 408.558 -1.24004 1.50363 0
M  V30 4308 H 407.654 -2.76661 1.44447 0
M  V30 4309 N 407.956 -0.998596 -1.21925 0
M  V30 4310 C 409.184 -0.696286 -1.94832 0
M  V30 4311 C 409.599 0.740032 -1.73692 0
M  V30 4312 O 408.956 1.5 -1.03953 0
M  V30 4313 C 409.007 -0.999833 -3.47398 0
M  V30 4314 O 408.728 -2.37972 -3.67833 0
M  V30 4315 C 410.229 -0.716025 -4.37479 0
M  V30 4316 H 407.449 -0.257111 -0.619786 0
M  V30 4317 H 409.993 -1.33491 -1.54921 0
M  V30 4318 H 408.148 -0.406918 -3.85257 0
M  V30 4319 H 408.562 -2.48338 -4.61983 0
M  V30 4320 H 410.036 -0.978642 -5.43256 0
M  V30 4321 H 410.513 0.349968 -4.37803 0
M  V30 4322 H 411.119 -1.29025 -4.05256 0
M  V30 4323 N 409.434 1.37368 -0.772513 0
M  V30 4324 C 410.381 2.30262 -0.157488 0
M  V30 4325 C 411.351 1.51137 0.688965 0
M  V30 4326 O 412.536 1.79704 0.641168 0
M  V30 4327 C 409.676 3.37611 0.715045 0
M  V30 4328 C 408.789 4.31746 -0.148098 0
M  V30 4329 C 407.924 5.26171 0.729213 0
M  V30 4330 C 406.963 6.11948 -0.136418 0
M  V30 4331 N 406.1 6.98613 0.698914 0
M  V30 4332 H 410.94 2.82277 -0.955179 0
M  V30 4333 H 408.477 1.38957 -0.482631 0
M  V30 4334 H 410.435 3.98479 1.23575 0
M  V30 4335 H 409.065 2.86959 1.47833 0
M  V30 4336 H 408.117 3.72178 -0.786613 0
M  V30 4337 H 409.429 4.92084 -0.81579 0
M  V30 4338 H 408.583 5.92247 1.31637 0
M  V30 4339 H 407.322 4.66246 1.43059 0
M  V30 4340 H 406.327 5.4485 -0.736102 0
M  V30 4341 H 407.552 6.73945 -0.835134 0
M  V30 4342 H 405.498 6.41215 1.38489 0
M  V30 4343 H 405.415 7.55948 0.0885358 0
M  V30 4344 H 406.683 7.69077 1.27044 0
M  V30 4345 N 410.912 0.523116 1.48665 0
M  V30 4346 C 411.842 -0.23231 2.32342 0
M  V30 4347 C 412.823 -0.941637 1.41659 0
M  V30 4348 O 414.008 -0.928751 1.70552 0
M  V30 4349 C 411.138 -1.28387 3.22698 0
M  V30 4350 C 410.092 -0.693098 4.22351 0
M  V30 4351 C 409.418 -1.8468 5.01794 0
M  V30 4352 C 410.718 0.33063 5.21252 0
M  V30 4353 H 412.412 0.466192 2.95748 0
M  V30 4354 H 409.958 0.225643 1.42221 0
M  V30 4355 H 411.911 -1.82024 3.80059 0
M  V30 4356 H 410.635 -2.01186 2.57278 0
M  V30 4357 H 409.294 -0.178299 3.66166 0
M  V30 4358 H 408.942 -2.56301 4.32804 0
M  V30 4359 H 408.642 -1.45747 5.69238 0
M  V30 4360 H 410.166 -2.38709 5.62006 0
M  V30 4361 H 411.58 -0.118407 5.73178 0
M  V30 4362 H 409.977 0.636974 5.9671 0
M  V30 4363 H 411.047 1.23883 4.68808 0
M  V30 4364 N 412.39 -1.55475 0.257931 0
M  V30 4365 C 413.32 -2.24815 -0.630912 0
M  V30 4366 C 414.301 -1.23224 -1.17259 0
M  V30 4367 O 415.486 -1.51904 -1.20991 0
M  V30 4368 C 412.616 -2.95609 -1.82298 0
M  V30 4369 C 411.57 -4.03982 -1.41359 0
M  V30 4370 C 410.896 -4.6226 -2.68738 0
M  V30 4371 C 412.196 -5.19109 -0.57648 0
M  V30 4372 H 413.89 -2.99354 -0.0526878 0
M  V30 4373 H 411.436 -1.4398 -0.023901 0
M  V30 4374 H 413.389 -3.42822 -2.45054 0
M  V30 4375 H 412.113 -2.18577 -2.42676 0
M  V30 4376 H 410.772 -3.57555 -0.809324 0
M  V30 4377 H 410.42 -3.81915 -3.27338 0
M  V30 4378 H 410.12 -5.35424 -2.42065 0
M  V30 4379 H 411.644 -5.12212 -3.32372 0
M  V30 4380 H 413.058 -5.62479 -1.10861 0
M  V30 4381 H 411.455 -5.98729 -0.405351 0
M  V30 4382 H 412.525 -4.83174 0.408776 0
M  V30 4383 N 413.868 0.0150385 -1.57593 0
M  V30 4384 C 414.778 1.02791 -2.10882 0
M  V30 4385 C 415.794 1.38702 -1.0506 0
M  V30 4386 O 416.97 1.47739 -1.36877 0
M  V30 4387 C 414.035 2.30568 -2.58919 0
M  V30 4388 C 413.096 2.01108 -3.79281 0
M  V30 4389 C 412.329 3.22794 -4.25018 0
M  V30 4390 O 412.552 4.33959 -3.70183 0
M  V30 4391 O 411.486 3.07672 -5.17322 0
M  V30 4392 H 415.312 0.604973 -2.97613 0
M  V30 4393 H 412.897 0.23292 -1.47573 0
M  V30 4394 H 414.779 3.05662 -2.90084 0
M  V30 4395 H 413.454 2.72129 -1.75293 0
M  V30 4396 H 412.361 1.23537 -3.53114 0
M  V30 4397 H 413.694 1.64394 -4.63935 0
M  V30 4398 N 415.346 1.54954 0.287554 0
M  V30 4399 C 416.762 1.46469 0.633964 0
M  V30 4400 C 416.962 0.666865 1.90145 0
M  V30 4401 O 416.018 0.179906 2.51858 0
M  V30 4402 C 417.331 2.90556 0.774454 0
M  V30 4403 C 418.879 3.00681 0.869462 0
M  V30 4404 C 419.354 4.45993 1.04184 0
M  V30 4405 N 420.845 4.4976 1.10772 0
M  V30 4406 C 421.58 5.59393 1.25964 0
M  V30 4407 N 421.076 6.78923 1.37968 0
M  V30 4408 N 422.869 5.47107 1.28959 0
M  V30 4409 H 415.02 2.05288 -0.545041 0
M  V30 4410 H 417.283 0.930305 -0.182308 0
M  V30 4411 H 416.989 3.51594 -0.086207 0
M  V30 4412 H 416.863 3.38743 1.6593 0
M  V30 4413 H 419.25 2.39749 1.7206 0
M  V30 4414 H 419.331 2.55769 -0.0396831 0
M  V30 4415 H 418.975 5.07524 0.195422 0
M  V30 4416 H 418.905 4.88548 1.96542 0
M  V30 4417 H 421.396 3.63651 1.02794 0
M  V30 4418 H 421.709 7.58231 1.49353 0
M  V30 4419 H 420.054 6.81763 1.34999 0
M  V30 4420 H 423.245 4.52668 1.19202 0
M  V30 4421 H 423.418 6.32595 1.40455 0
M  V30 4422 N 416.824 -0.551391 1.4764 0
M  V30 4423 C 417.787 -1.64007 1.60107 0
M  V30 4424 C 418.787 -1.53601 0.47576 0
M  V30 4425 O 419.977 -1.57655 0.740988 0
M  V30 4426 C 417.109 -3.03569 1.55108 0
M  V30 4427 H 418.302 -1.543 2.57161 0
M  V30 4428 H 415.855 -0.771776 1.35917 0
M  V30 4429 H 416.59 -3.18804 0.594519 0
M  V30 4430 H 416.375 -3.12532 2.36783 0
M  V30 4431 H 417.865 -3.82762 1.66982 0
M  V30 4432 N 418.302 -1.35869 -0.798587 0
M  V30 4433 C 419.55 -1.29332 -1.55298 0
M  V30 4434 C 419.871 0.129729 -1.94568 0
M  V30 4435 O 419.141 1.06796 -1.6423 0
M  V30 4436 H 417.721 -0.475737 -0.57592 0
M  V30 4437 H 420.383 -1.70062 -0.952093 0
M  V30 4438 H 419.479 -1.91458 -2.46476 0
M  V30 4439 N 419.78 1.02168 -1.19998 0
M  V30 4440 C 420.71 2.12488 -0.96804 0
M  V30 4441 C 421.691 1.69799 0.101185 0
M  V30 4442 O 422.876 1.94121 -0.0552993 0
M  V30 4443 C 420.006 3.43479 -0.513776 0
M  V30 4444 C 418.96 3.99884 -1.52566 0
M  V30 4445 C 418.286 5.26582 -0.928214 0
M  V30 4446 C 419.586 4.33861 -2.90795 0
M  V30 4447 H 421.28 2.32149 -1.89069 0
M  V30 4448 H 418.826 1.11564 -0.910468 0
M  V30 4449 H 420.779 4.20036 -0.338774 0
M  V30 4450 H 419.503 3.23561 0.444493 0
M  V30 4451 H 418.162 3.25429 -1.68794 0
M  V30 4452 H 417.81 5.02986 0.0378289 0
M  V30 4453 H 417.51 5.65284 -1.60397 0
M  V30 4454 H 419.034 6.05799 -0.764167 0
M  V30 4455 H 420.448 5.01327 -2.78109 0
M  V30 4456 H 418.845 4.83664 -3.55231 0
M  V30 4457 H 419.915 3.42848 -3.42904 0
M  V30 4458 N 421.258 1.00505 1.21394 0
M  V30 4459 C 422.504 0.688793 1.90745 0
M  V30 4460 C 422.837 -0.778486 1.77914 0
M  V30 4461 O 422.112 -1.56433 1.15581 0
M  V30 4462 C 422.395 1.11063 3.42545 0
M  V30 4463 C 422.248 2.63737 3.64367 0
M  V30 4464 C 423.567 0.673059 4.34923 0
M  V30 4465 H 420.686 0.251702 0.692687 0
M  V30 4466 H 423.328 1.25074 1.43026 0
M  V30 4467 H 421.478 0.632508 3.83317 0
M  V30 4468 H 423.15 3.19313 3.32922 0
M  V30 4469 H 421.393 3.05248 3.08231 0
M  V30 4470 H 422.064 2.88305 4.70727 0
M  V30 4471 H 424.54 1.08392 4.01734 0
M  V30 4472 H 423.416 0.996383 5.39781 0
M  V30 4473 H 423.677 -0.425808 4.40045 0
M  V30 4474 N 422.737 -1.36956 0.779787 0
M  V30 4475 C 423.667 -2.32761 0.185651 0
M  V30 4476 C 424.648 -1.56177 -0.673989 0
M  V30 4477 O 425.833 -1.84378 -0.609797 0
M  V30 4478 C 422.963 -3.40418 -0.687964 0
M  V30 4479 C 421.917 -4.27941 0.0710102 0
M  V30 4480 C 421.243 -5.26681 -0.922573 0
M  V30 4481 C 422.543 -5.07006 1.25467 0
M  V30 4482 H 424.237 -2.82698 0.986008 0
M  V30 4483 H 421.783 -1.3592 0.475592 0
M  V30 4484 H 423.736 -4.06423 -1.11348 0
M  V30 4485 H 422.46 -2.89025 -1.52093 0
M  V30 4486 H 421.119 -3.63478 0.47739 0
M  V30 4487 H 420.767 -4.71565 -1.7503 0
M  V30 4488 H 420.467 -5.86103 -0.419237 0
M  V30 4489 H 421.991 -5.9556 -1.34686 0
M  V30 4490 H 423.405 -5.66105 0.905401 0
M  V30 4491 H 421.802 -5.75793 1.69063 0
M  V30 4492 H 422.872 -4.3921 2.05481 0
M  V30 4493 N 424.215 -0.530993 -1.48385 0
M  V30 4494 C 425.631 -0.188919 -1.58478 0
M  V30 4495 C 425.831 1.30786 -1.53288 0
M  V30 4496 O 424.887 2.08619 -1.42248 0
M  V30 4497 C 426.2 -0.792343 -2.90073 0
M  V30 4498 C 427.748 -0.76117 -3.03604 0
M  V30 4499 C 428.223 -1.34319 -4.37861 0
M  V30 4500 N 429.714 -1.3052 -4.44431 0
M  V30 4501 C 430.449 -1.72543 -5.46824 0
M  V30 4502 N 429.945 -2.22299 -6.56167 0
M  V30 4503 N 431.738 -1.63773 -5.37712 0
M  V30 4504 H 423.889 -1.50377 -1.50002 0
M  V30 4505 H 426.152 -0.625559 -0.712306 0
M  V30 4506 H 425.858 -1.84323 -2.99529 0
M  V30 4507 H 425.732 -0.270026 -3.76232 0
M  V30 4508 H 428.119 0.280957 -2.93759 0
M  V30 4509 H 428.2 -1.32097 -2.19053 0
M  V30 4510 H 427.844 -2.38425 -4.4846 0
M  V30 4511 H 427.774 -0.759064 -5.21101 0
M  V30 4512 H 430.265 -0.940973 -3.65997 0
M  V30 4513 H 430.578 -2.52356 -7.30436 0
M  V30 4514 H 428.923 -2.26293 -6.57127 0
M  V30 4515 H 432.114 -1.24698 -4.51185 0
M  V30 4516 H 432.287 -1.96844 -6.17379 0
M  V30 4517 N 425.693 1.55336 -0.266172 0
M  V30 4518 C 426.623 2.25146 0.618981 0
M  V30 4519 C 427.604 1.23845 1.16604 0
M  V30 4520 O 428.789 1.52544 1.20183 0
M  V30 4521 C 425.919 2.96572 1.80728 0
M  V30 4522 C 424.873 4.04726 1.39215 0
M  V30 4523 C 424.199 4.63678 2.66283 0
M  V30 4524 C 425.499 5.19407 0.548942 0
M  V30 4525 H 427.193 2.99377 0.0368116 0
M  V30 4526 H 424.739 1.43991 0.0162651 0
M  V30 4527 H 426.692 3.44116 2.43232 0
M  V30 4528 H 425.416 2.19861 2.41514 0
M  V30 4529 H 424.075 3.57979 0.790351 0
M  V30 4530 H 423.723 3.83646 3.25308 0
M  V30 4531 H 423.423 5.367 2.39222 0
M  V30 4532 H 424.947 5.13967 3.29651 0
M  V30 4533 H 426.361 5.63059 1.07876 0
M  V30 4534 H 424.758 5.98936 0.373593 0
M  V30 4535 H 425.828 4.8295 -0.434394 0
M  V30 4536 N 427.171 -0.0066808 1.57599 0
M  V30 4537 C 428.101 -0.999296 2.11036 0
M  V30 4538 C 429.082 -1.36278 1.01795 0
M  V30 4539 O 430.267 -1.4477 1.29442 0
M  V30 4540 C 427.397 -2.29328 2.60818 0
M  V30 4541 C 426.351 -2.07159 3.74525 0
M  V30 4542 C 425.677 -3.42512 4.10596 0
M  V30 4543 C 426.977 -1.43959 5.02069 0
M  V30 4544 H 428.671 -0.554382 2.94223 0
M  V30 4545 H 426.217 -0.265221 1.41536 0
M  V30 4546 H 428.17 -2.99117 2.96828 0
M  V30 4547 H 426.894 -2.7592 1.74745 0
M  V30 4548 H 425.553 -1.39797 3.38899 0
M  V30 4549 H 425.201 -3.86795 3.21556 0
M  V30 4550 H 424.901 -3.28498 4.87199 0
M  V30 4551 H 426.425 -4.13628 4.4916 0
M  V30 4552 H 427.839 -2.03696 5.35893 0
M  V30 4553 H 426.236 -1.40452 5.83432 0
M  V30 4554 H 427.306 -0.407992 4.83181 0
M  V30 4555 N 428.649 -1.55105 -0.279332 0
M  V30 4556 C 430.065 -1.46803 -0.626187 0
M  V30 4557 C 430.265 -0.676939 -1.89789 0
M  V30 4558 O 429.321 -0.19326 -2.51759 0
M  V30 4559 C 430.634 -2.90962 -0.759034 0
M  V30 4560 C 432.182 -3.01138 -0.853504 0
M  V30 4561 C 432.657 -4.46539 -1.01818 0
M  V30 4562 N 434.148 -4.50341 -1.08386 0
M  V30 4563 C 434.883 -5.60053 -1.22996 0
M  V30 4564 N 434.379 -6.79645 -1.34366 0
M  V30 4565 N 436.172 -5.47783 -1.26056 0
M  V30 4566 H 428.323 -2.04996 0.555921 0
M  V30 4567 H 430.586 -0.929325 0.187239 0
M  V30 4568 H 430.292 -3.51544 0.104852 0
M  V30 4569 H 430.166 -3.39619 -1.64131 0
M  V30 4570 H 432.553 -2.40658 -1.70786 0
M  V30 4571 H 432.634 -2.55745 0.0532466 0
M  V30 4572 H 432.278 -5.0762 -0.168504 0
M  V30 4573 H 432.208 -4.89583 -1.93948 0
M  V30 4574 H 434.699 -3.64191 -1.00864 0
M  V30 4575 H 435.012 -7.59012 -1.4533 0
M  V30 4576 H 433.357 -6.82469 -1.31382 0
M  V30 4577 H 436.548 -4.53294 -1.168 0
M  V30 4578 H 436.721 -6.33331 -1.37098 0
M  V30 4579 N 430.127 0.543554 -1.4793 0
M  V30 4580 C 431.09 1.63156 -1.60975 0
M  V30 4581 C 432.09 1.53346 -0.483899 0
M  V30 4582 O 433.28 1.5726 -0.749339 0
M  V30 4583 C 430.412 3.02743 -1.56716 0
M  V30 4584 H 431.605 1.52934 -2.57975 0
M  V30 4585 H 429.158 0.764557 -1.36324 0
M  V30 4586 H 429.893 3.18484 -0.611418 0
M  V30 4587 H 429.678 3.11272 -2.38438 0
M  V30 4588 H 431.168 3.81871 -1.6901 0
M  V30 4589 N 431.605 1.3629 0.791371 0
M  V30 4590 C 432.535 1.33137 1.91825 0
M  V30 4591 C 433.516 0.203168 1.68882 0
M  V30 4592 O 434.701 0.400509 1.90025 0
M  V30 4593 C 431.831 1.11793 3.28816 0
M  V30 4594 C 430.785 2.21417 3.66277 0
M  V30 4595 C 430.111 1.85218 5.01596 0
M  V30 4596 C 431.411 3.63489 3.75064 0
M  V30 4597 H 433.105 2.2743 1.9472 0
M  V30 4598 H 430.651 1.09479 0.935437 0
M  V30 4599 H 432.604 1.08222 4.07266 0
M  V30 4600 H 431.328 0.139501 3.26302 0
M  V30 4601 H 429.987 2.2411 2.90121 0
M  V30 4602 H 429.635 0.859544 4.95602 0
M  V30 4603 H 429.335 2.58611 5.27631 0
M  V30 4604 H 430.859 1.832 5.82469 0
M  V30 4605 H 432.273 3.63034 4.43711 0
M  V30 4606 H 430.67 4.35771 4.12582 0
M  V30 4607 H 431.74 3.98536 2.76219 0
M  V30 4608 N 433.083 -1.0153 1.20538 0
M  V30 4609 C 434.499 -1.27461 0.96051 0
M  V30 4610 C 434.699 -1.98273 -0.359193 0
M  V30 4611 O 433.755 -2.27886 -1.0874 0
M  V30 4612 C 435.068 -2.10837 2.14402 0
M  V30 4613 C 436.616 -2.24099 2.18515 0
M  V30 4614 C 437.091 -3.10852 3.36355 0
M  V30 4615 N 438.582 -3.18441 3.36377 0
M  V30 4616 C 439.317 -3.85795 4.24205 0
M  V30 4617 N 438.813 -4.55264 5.22213 0
M  V30 4618 N 440.606 -3.82331 4.12043 0
M  V30 4619 H 432.757 -0.539907 2.05423 0
M  V30 4620 H 435.02 -0.30092 0.898972 0
M  V30 4621 H 434.726 -1.66144 3.09983 0
M  V30 4622 H 434.6 -3.11576 2.12604 0
M  V30 4623 H 436.987 -2.68016 1.23497 0
M  V30 4624 H 437.068 -1.22865 2.24361 0
M  V30 4625 H 436.712 -2.6764 4.31661 0
M  V30 4626 H 436.642 -4.12177 3.27746 0
M  V30 4627 H 439.133 -2.68978 2.65442 0
M  V30 4628 H 439.446 -5.04331 5.85551 0
M  V30 4629 H 437.791 -4.54085 5.26148 0
M  V30 4630 H 440.982 -3.27207 3.34743 0
M  V30 4631 H 441.155 -4.34547 4.807 0
M  V30 4632 N 434.561 -1.01147 -1.20859 0
M  V30 4633 C 435.807 -0.698899 -1.90377 0
M  V30 4634 C 436.14 0.76904 -1.78324 0
M  V30 4635 O 435.415 1.55817 -1.16409 0
M  V30 4636 C 435.698 -1.12878 -3.41951 0
M  V30 4637 C 435.551 -2.65665 -3.62963 0
M  V30 4638 C 436.87 -0.696114 -4.3456 0
M  V30 4639 H 433.989 -0.255372 -0.691342 0
M  V30 4640 H 436.631 -1.25831 -1.42361 0
M  V30 4641 H 434.781 -0.652827 -3.82976 0
M  V30 4642 H 436.453 -3.21074 -3.31224 0
M  V30 4643 H 434.696 -3.06878 -3.06608 0
M  V30 4644 H 435.367 -2.90797 -4.69192 0
M  V30 4645 H 437.843 -1.10521 -4.01154 0
M  V30 4646 H 436.719 -1.025 -5.39245 0
M  V30 4647 H 436.98 0.402465 -4.40264 0
M  V30 4648 N 436.039 1.36541 -0.78704 0
M  V30 4649 C 436.969 2.32659 -0.197992 0
M  V30 4650 C 437.95 1.56533 0.665697 0
M  V30 4651 O 439.135 1.84698 0.60001 0
M  V30 4652 C 436.265 3.40778 0.669901 0
M  V30 4653 C 435.219 4.27897 -0.0937039 0
M  V30 4654 C 434.545 5.27163 0.894629 0
M  V30 4655 C 435.845 5.06334 -1.28154 0
M  V30 4656 H 437.539 2.82171 -1.00099 0
M  V30 4657 H 435.085 1.35665 -0.482793 0
M  V30 4658 H 437.038 4.07008 1.09191 0
M  V30 4659 H 435.762 2.89827 1.50558 0
M  V30 4660 H 434.421 3.6322 -0.49666 0
M  V30 4661 H 434.069 4.72486 1.72527 0
M  V30 4662 H 433.769 5.86317 0.388149 0
M  V30 4663 H 435.293 5.96266 1.31525 0
M  V30 4664 H 436.707 5.65617 -0.93541 0
M  V30 4665 H 435.104 5.74888 -1.72115 0
M  V30 4666 H 436.174 4.38114 -2.07807 0
M  V30 4667 N 437.518 0.538854 1.48102 0
M  V30 4668 C 438.748 0.0122958 2.06596 0
M  V30 4669 C 439.156 -1.27861 1.39457 0
M  V30 4670 O 438.499 -1.77348 0.478907 0
M  V30 4671 C 438.561 -0.273131 3.58461 0
M  V30 4672 C 438.225 0.92561 4.47528 0
M  V30 4673 C 439.222 1.82637 4.86765 0
M  V30 4674 C 436.907 1.13511 4.89306 0
M  V30 4675 C 438.901 2.92047 5.66558 0
M  V30 4676 C 436.588 2.23233 5.68868 0
M  V30 4677 C 437.586 3.12333 6.07402 0
M  V30 4678 O 437.274 4.20155 6.85365 0
M  V30 4679 H 437.006 0.0344283 0.675123 0
M  V30 4680 H 439.56 0.746494 1.91355 0
M  V30 4681 H 437.79 -1.06141 3.71848 0
M  V30 4682 H 439.479 -0.742842 3.99045 0
M  V30 4683 H 440.245 1.67649 4.55103 0
M  V30 4684 H 436.124 0.450835 4.5879 0
M  V30 4685 H 439.668 3.6162 5.96554 0
M  V30 4686 H 435.565 2.38201 5.99942 0
M  V30 4687 H 436.333 4.17975 7.03732 0
M  V30 4688 N 438.996 -1.55193 0.274407 0
M  V30 4689 C 440.242 -1.99877 -0.343086 0
M  V30 4690 C 440.575 -1.16256 -1.55558 0
M  V30 4691 O 439.85 -0.232462 -1.93106 0
M  V30 4692 C 440.133 -3.52706 -0.725965 0
M  V30 4693 C 439.986 -4.47081 0.493818 0
M  V30 4694 C 441.305 -4.11422 -1.56268 0
M  V30 4695 H 438.424 -0.726625 -0.123229 0
M  V30 4696 H 441.066 -1.86136 0.38121 0
M  V30 4697 H 439.216 -3.64546 -1.34307 0
M  V30 4698 H 440.888 -4.47186 1.13237 0
M  V30 4699 H 439.131 -4.1877 1.13201 0
M  V30 4700 H 439.802 -5.51699 0.18217 0
M  V30 4701 H 442.278 -4.02855 -1.04151 0
M  V30 4702 H 441.154 -5.18568 -1.79939 0
M  V30 4703 H 441.415 -3.61607 -2.54348 0
M  V30 4704 N 440.474 -0.00167713 -1.576 0
M  V30 4705 C 441.407 1.02317 -2.03977 0
M  V30 4706 C 442.385 1.33381 -0.929963 0
M  V30 4707 O 443.569 1.45517 -1.19822 0
M  V30 4708 C 440.696 2.35035 -2.43878 0
M  V30 4709 C 439.742 2.19621 -3.65607 0
M  V30 4710 S 440.575 1.52068 -5.13455 0
M  V30 4711 C 441.731 2.86212 -5.56627 0
M  V30 4712 H 441.964 0.628285 -2.90585 0
M  V30 4713 H 439.497 0.209239 -1.52976 0
M  V30 4714 H 441.455 3.11345 -2.67534 0
M  V30 4715 H 440.116 2.71663 -1.57665 0
M  V30 4716 H 439.309 3.1767 -3.91282 0
M  V30 4717 H 438.911 1.51455 -3.41961 0
M  V30 4718 H 441.203 3.82509 -5.59189 0
M  V30 4719 H 442.146 2.65235 -6.56549 0
M  V30 4720 H 442.554 2.90199 -4.84195 0
M  V30 4721 N 441.952 1.55251 0.271103 0
M  V30 4722 C 443.368 1.47133 0.618393 0
M  V30 4723 C 443.568 0.686994 1.89427 0
M  V30 4724 O 442.624 0.206609 2.51653 0
M  V30 4725 C 443.937 2.91361 0.743593 0
M  V30 4726 C 445.485 3.01587 0.837522 0
M  V30 4727 C 445.96 4.47073 0.994483 0
M  V30 4728 N 447.451 4.50909 1.05996 0
M  V30 4729 C 448.186 5.60698 1.20024 0
M  V30 4730 N 447.682 6.80348 1.30759 0
M  V30 4731 N 449.475 5.48444 1.23149 0
M  V30 4732 H 441.626 2.04698 -0.566784 0
M  V30 4733 H 443.889 0.928319 -0.192165 0
M  V30 4734 H 443.595 3.51483 -0.123493 0
M  V30 4735 H 443.469 3.40484 1.62328 0
M  V30 4736 H 445.856 2.4156 1.69507 0
M  V30 4737 H 445.937 2.55713 -0.0668086 0
M  V30 4738 H 445.581 5.07703 0.141582 0
M  V30 4739 H 445.511 4.90605 1.91349 0
M  V30 4740 H 448.002 3.6472 0.989316 0
M  V30 4741 H 448.315 7.59772 1.41303 0
M  V30 4742 H 446.66 6.83156 1.27761 0
M  V30 4743 H 449.851 4.53907 1.14394 0
M  V30 4744 H 450.024 6.34049 1.33738 0
M  V30 4745 N 443.43 -0.535701 1.48216 0
M  V30 4746 C 444.36 -1.65014 1.65204 0
M  V30 4747 C 445.341 -1.62554 0.501011 0
M  V30 4748 O 446.526 -1.7984 0.732886 0
M  V30 4749 C 443.656 -3.03616 1.68626 0
M  V30 4750 C 442.61 -3.20932 2.83172 0
M  V30 4751 C 441.936 -4.60537 2.71679 0
M  V30 4752 C 443.236 -3.04249 4.24535 0
M  V30 4753 H 444.93 -1.51053 2.58502 0
M  V30 4754 H 442.476 -0.725262 1.24402 0
M  V30 4755 H 444.429 -3.81446 1.79099 0
M  V30 4756 H 443.153 -3.18587 0.719026 0
M  V30 4757 H 441.812 -2.45517 2.72244 0
M  V30 4758 H 441.46 -4.72336 1.72937 0
M  V30 4759 H 441.16 -4.73069 3.48538 0
M  V30 4760 H 442.684 -5.40475 2.84112 0
M  V30 4761 H 444.098 -3.71877 4.36326 0
M  V30 4762 H 442.495 -3.28278 5.02348 0
M  V30 4763 H 443.565 -2.00739 4.41397 0
M  V30 4764 N 444.908 -1.36708 -0.784132 0
M  V30 4765 C 445.871 -1.31307 -1.87859 0
M  V30 4766 C 446.871 -0.219654 -1.59293 0
M  V30 4767 O 448.061 -0.47476 -1.67606 0
M  V30 4768 C 445.193 -1.03679 -3.24751 0
M  V30 4769 H 446.386 -2.28647 -1.94064 0
M  V30 4770 H 443.939 -1.21558 -0.98252 0
M  V30 4771 H 444.674 -0.0681936 -3.24228 0
M  V30 4772 H 444.459 -1.82811 -3.46876 0
M  V30 4773 H 445.949 -1.02518 -4.04821 0
M  V30 4774 N 446.386 1.0089 -1.21074 0
M  V30 4775 C 447.802 1.2695 -0.967257 0
M  V30 4776 C 448.002 1.9846 0.348673 0
M  V30 4777 O 447.058 2.28459 1.0753 0
M  V30 4778 C 448.371 2.09697 -2.15517 0
M  V30 4779 C 449.919 2.22937 -2.197 0
M  V30 4780 C 450.394 3.09064 -3.37999 0
M  V30 4781 N 451.885 3.16653 -3.38061 0
M  V30 4782 C 452.62 3.8354 -4.26245 0
M  V30 4783 N 452.116 4.52488 -5.2462 0
M  V30 4784 N 453.909 3.80141 -4.14064 0
M  V30 4785 H 446.06 0.529005 -2.05707 0
M  V30 4786 H 448.323 0.296148 -0.900556 0
M  V30 4787 H 448.029 1.64497 -3.10859 0
M  V30 4788 H 447.903 3.10444 -2.14253 0
M  V30 4789 H 450.29 2.67357 -1.24916 0
M  V30 4790 H 450.371 1.21673 -2.2501 0
M  V30 4791 H 450.015 2.65347 -4.33074 0
M  V30 4792 H 449.945 4.10433 -3.29928 0
M  V30 4793 H 452.436 2.67566 -2.66865 0
M  V30 4794 H 452.749 5.01219 -5.88217 0
M  V30 4795 H 451.094 4.51288 -5.28549 0
M  V30 4796 H 454.285 3.25427 -3.36474 0
M  V30 4797 H 454.458 4.31992 -4.82998 0
M  V30 4798 N 447.864 1.01787 1.20321 0
M  V30 4799 C 448.814 0.559976 2.21016 0
M  V30 4800 C 449.798 -0.385366 1.56217 0
M  V30 4801 O 450.99 -0.208126 1.75772 0
M  V30 4802 C 448.119 -0.0990553 3.43157 0
M  V30 4803 C 447.205 0.86807 4.15121 0
M  V30 4804 N 447.596 2.0261 4.63447 0
M  V30 4805 C 445.894 0.689162 4.40643 0
M  V30 4806 C 446.595 2.63518 5.18588 0
M  V30 4807 N 445.571 1.91569 5.08726 0
M  V30 4808 H 449.373 1.44281 2.56048 0
M  V30 4809 H 446.887 0.883381 1.36272 0
M  V30 4810 H 448.884 -0.444643 4.14522 0
M  V30 4811 H 447.544 -0.977709 3.0963 0
M  V30 4812 H 448.555 2.40598 4.58621 0
M  V30 4813 H 445.232 -0.14133 4.17261 0
M  V30 4814 H 446.622 3.61527 5.66346 0
M  V30 4815 N 449.342 -1.36122 0.79427 0
M  V30 4816 C 450.567 -2.03891 0.379871 0
M  V30 4817 C 450.992 -1.59488 -0.997251 0
M  V30 4818 O 450.35 -0.765652 -1.64339 0
M  V30 4819 C 450.398 -3.57687 0.457442 0
M  V30 4820 O 449.502 -4.08931 -0.5338 0
M  V30 4821 H 448.843 -0.6443 0.160541 0
M  V30 4822 H 451.373 -1.73976 1.07673 0
M  V30 4823 H 451.383 -4.06721 0.322792 0
M  V30 4824 H 450.058 -3.89357 1.46199 0
M  V30 4825 H 448.635 -3.71154 -0.360409 0
M  V30 4826 N 450.82 -0.546701 -1.47814 0
M  V30 4827 C 451.75 0.195317 -2.32682 0
M  V30 4828 C 452.731 0.918981 -1.43139 0
M  V30 4829 O 453.916 0.901501 -1.72008 0
M  V30 4830 C 451.046 1.23237 -3.247 0
M  V30 4831 C 450 0.625818 -4.234 0
M  V30 4832 C 449.326 1.76674 -5.04669 0
M  V30 4833 C 450.626 -0.413515 -5.2066 0
M  V30 4834 H 452.32 -0.513184 -2.94969 0
M  V30 4835 H 449.866 -0.248241 -1.41844 0
M  V30 4836 H 451.819 1.75955 -3.82907 0
M  V30 4837 H 450.543 1.97067 -2.60446 0
M  V30 4838 H 449.202 0.120023 -3.66403 0
M  V30 4839 H 448.85 2.49383 -4.36826 0
M  V30 4840 H 448.55 1.36673 -5.71484 0
M  V30 4841 H 450.074 2.29738 -5.65732 0
M  V30 4842 H 451.488 0.0272042 -5.73294 0
M  V30 4843 H 449.885 -0.731825 -5.95621 0
M  V30 4844 H 450.955 -1.31325 -4.66778 0
M  V30 4845 N 452.299 1.55045 -0.282633 0
M  V30 4846 C 453.547 1.99365 0.331334 0
M  V30 4847 C 453.868 1.1725 1.55812 0
M  V30 4848 O 453.138 0.263871 1.94115 0
M  V30 4849 H 451.718 0.736397 0.125414 0
M  V30 4850 H 454.38 1.90964 -0.389711 0
M  V30 4851 H 453.476 3.0596 0.616036 0
M  V30 4852 N 453.777 0.010035 1.57597 0
M  V30 4853 C 454.707 -0.976857 2.12084 0
M  V30 4854 C 455.688 -1.35191 1.03235 0
M  V30 4855 O 456.873 -1.43389 1.3097 0
M  V30 4856 C 454.003 -2.26548 2.63236 0
M  V30 4857 C 452.957 -2.03175 3.76701 0
M  V30 4858 C 452.283 -3.38138 4.14206 0
M  V30 4859 C 453.583 -1.38625 5.03568 0
M  V30 4860 H 455.277 -0.523145 2.94794 0
M  V30 4861 H 452.823 -0.250195 1.4181 0
M  V30 4862 H 454.776 -2.95952 2.99984 0
M  V30 4863 H 453.5 -2.74051 1.77661 0
M  V30 4864 H 452.159 -1.36195 3.40362 0
M  V30 4865 H 451.807 -3.83363 3.25641 0
M  V30 4866 H 451.507 -3.23312 4.90656 0
M  V30 4867 H 453.031 -4.08841 4.53521 0
M  V30 4868 H 454.445 -1.98 5.38023 0
M  V30 4869 H 452.842 -1.34256 5.84889 0
M  V30 4870 H 453.912 -0.356722 4.83586 0
M  V30 4871 N 455.255 -1.55392 -0.262866 0
M  V30 4872 C 456.671 -1.47459 -0.610582 0
M  V30 4873 C 456.871 -0.697031 -1.8906 0
M  V30 4874 O 455.927 -0.219952 -2.5154 0
M  V30 4875 C 457.24 -2.91751 -0.728131 0
M  V30 4876 C 458.788 -3.02027 -0.821517 0
M  V30 4877 C 459.263 -4.47594 -0.97076 0
M  V30 4878 N 460.754 -4.51465 -1.03603 0
M  V30 4879 C 461.489 -5.61326 -1.17049 0
M  V30 4880 N 460.985 -6.81032 -1.2715 0
M  V30 4881 N 462.778 -5.49089 -1.20239 0
M  V30 4882 H 454.929 -2.04395 0.577632 0
M  V30 4883 H 457.192 -0.927287 0.197086 0
M  V30 4884 H 456.898 -3.51413 0.142132 0
M  V30 4885 H 456.772 -3.4134 -1.6052 0
M  V30 4886 H 459.159 -2.42456 -1.68224 0
M  V30 4887 H 459.24 -2.55674 0.0803688 0
M  V30 4888 H 458.884 -5.07771 -0.114655 0
M  V30 4889 H 458.814 -4.91613 -1.88745 0
M  V30 4890 H 461.305 -3.6524 -0.96996 0
M  V30 4891 H 461.618 -7.60511 -1.37271 0
M  V30 4892 H 459.963 -6.83824 -1.24136 0
M  V30 4893 H 463.154 -4.54507 -1.11985 0
M  V30 4894 H 463.327 -6.34749 -1.30373 0
M  V30 4895 N 456.733 0.527833 -1.48498 0
M  V30 4896 C 457.958 1.313 -1.60546 0
M  V30 4897 C 458.383 1.86199 -0.26672 0
M  V30 4898 O 457.741 1.64513 0.761918 0
M  V30 4899 C 457.789 2.43818 -2.65678 0
M  V30 4900 O 456.893 3.46916 -2.22987 0
M  V30 4901 H 456.234 0.388784 -0.538277 0
M  V30 4902 H 458.764 0.634896 -1.945 0
M  V30 4903 H 458.774 2.89973 -2.87018 0
M  V30 4904 H 457.449 2.03222 -3.62869 0
M  V30 4905 H 456.026 3.06864 -2.11869 0
M  V30 4906 N 458.211 1.37122 0.776871 0
M  V30 4907 C 459.141 1.35164 1.90402 0
M  V30 4908 C 460.122 0.221069 1.68657 0
M  V30 4909 O 461.307 0.420642 1.8959 0
M  V30 4910 C 458.437 1.15274 3.27611 0
M  V30 4911 C 457.391 2.25289 3.63908 0
M  V30 4912 C 456.717 1.90527 4.99603 0
M  V30 4913 C 458.017 3.67446 3.71188 0
M  V30 4914 H 459.711 2.29482 1.92297 0
M  V30 4915 H 457.257 1.10465 0.923773 0
M  V30 4916 H 459.21 1.12536 4.06096 0
M  V30 4917 H 457.934 0.174102 3.26136 0
M  V30 4918 H 456.593 2.27174 2.87728 0
M  V30 4919 H 456.241 0.91206 4.94662 0
M  V30 4920 H 455.941 2.64193 5.24858 0
M  V30 4921 H 457.465 1.89367 5.80493 0
M  V30 4922 H 458.879 3.67719 4.39836 0
M  V30 4923 H 457.276 4.40123 4.07936 0
M  V30 4924 H 458.346 4.01443 2.71977 0
M  V30 4925 N 459.689 -1.00246 1.21608 0
M  V30 4926 C 460.937 -1.73717 1.0328 0
M  V30 4927 C 461.258 -1.90102 -0.434318 0
M  V30 4928 O 460.528 -1.45376 -1.31311 0
M  V30 4929 H 459.108 -0.643613 0.379172 0
M  V30 4930 H 461.77 -1.20787 1.52959 0
M  V30 4931 H 460.866 -2.73535 1.50283 0
M  V30 4932 N 461.167 -1.02423 -1.1978 0
M  V30 4933 C 462.097 -0.62157 -2.25075 0
M  V30 4934 C 463.078 0.367148 -1.6609 0
M  V30 4935 O 464.263 0.250892 -1.92573 0
M  V30 4936 C 461.393 0.0331826 -3.47284 0
M  V30 4937 C 460.347 -0.877323 -4.18912 0
M  V30 4938 C 459.673 -0.0879296 -5.34628 0
M  V30 4939 C 460.973 -2.18892 -4.74219 0
M  V30 4940 H 462.667 -1.50179 -2.59011 0
M  V30 4941 H 460.213 -0.723547 -1.24502 0
M  V30 4942 H 462.166 0.326488 -4.20133 0
M  V30 4943 H 460.89 0.948164 -3.12534 0
M  V30 4944 H 459.549 -1.15475 -3.47938 0
M  V30 4945 H 459.197 0.828941 -4.96123 0
M  V30 4946 H 458.897 -0.694359 -5.83483 0
M  V30 4947 H 460.421 0.198743 -6.10276 0
M  V30 4948 H 461.835 -1.95746 -5.38847 0
M  V30 4949 H 460.232 -2.74686 -5.33542 0
M  V30 4950 H 461.302 -2.84674 -3.92541 0
M  V30 4951 N 462.645 1.35699 -0.801477 0
M  V30 4952 C 463.873 2.03157 -0.391768 0
M  V30 4953 C 464.288 1.60412 0.995668 0
M  V30 4954 O 463.645 0.799228 1.64069 0
M  V30 4955 C 463.696 3.58566 -0.459671 0
M  V30 4956 O 463.417 3.99756 -1.7924 0
M  V30 4957 C 464.918 4.4328 -0.0421205 0
M  V30 4958 H 462.138 0.651688 -0.159825 0
M  V30 4959 H 464.682 1.73426 -1.08368 0
M  V30 4960 H 462.837 3.86963 0.183939 0
M  V30 4961 H 463.251 4.94387 -1.75162 0
M  V30 4962 H 464.725 5.51821 -0.140754 0
M  V30 4963 H 465.202 4.27383 1.01196 0
M  V30 4964 H 465.808 4.20168 -0.658687 0
M  V30 4965 N 464.123 0.554532 1.47522 0
M  V30 4966 C 465.056 -0.242442 2.26908 0
M  V30 4967 C 466.034 -0.922722 1.33883 0
M  V30 4968 O 467.218 -0.942244 1.63261 0
M  V30 4969 C 464.345 -1.34525 3.10839 0
M  V30 4970 C 463.391 -0.773805 4.19422 0
M  V30 4971 S 464.224 0.377525 5.34168 0
M  V30 4972 C 465.38 -0.727164 6.21662 0
M  V30 4973 H 465.613 0.431218 2.94156 0
M  V30 4974 H 463.146 0.3408 1.50592 0
M  V30 4975 H 465.104 -1.97683 3.59766 0
M  V30 4976 H 463.765 -1.99073 2.42958 0
M  V30 4977 H 462.958 -1.60187 4.77866 0
M  V30 4978 H 462.56 -0.218448 3.73361 0
M  V30 4979 H 464.852 -1.61992 6.57849 0
M  V30 4980 H 465.795 -0.180135 7.07871 0
M  V30 4981 H 466.203 -1.01863 5.55233 0
M  V30 4982 N 465.601 -1.54893 0.290851 0
M  V30 4983 C 467.017 -1.59476 -0.0628432 0
M  V30 4984 C 467.217 -1.30795 -1.5328 0
M  V30 4985 O 466.273 -1.07644 -2.28406 0
M  V30 4986 C 467.586 -2.98928 0.325962 0
M  V30 4987 C 469.134 -3.11799 0.273882 0
M  V30 4988 C 469.609 -4.53544 0.637359 0
M  V30 4989 N 471.1 -4.59433 0.589507 0
M  V30 4990 C 471.835 -5.67164 0.84335 0
M  V30 4991 N 471.331 -6.82975 1.16263 0
M  V30 4992 N 473.124 -5.56786 0.771091 0
M  V30 4993 H 465.275 -1.71798 1.24896 0
M  V30 4994 H 467.538 -0.801879 0.505663 0
M  V30 4995 H 467.244 -3.24805 1.34887 0
M  V30 4996 H 467.118 -3.75793 -0.325441 0
M  V30 4997 H 469.505 -2.85677 -0.739765 0
M  V30 4998 H 469.586 -2.37112 0.959766 0
M  V30 4999 H 469.23 -4.80394 1.64877 0
M  V30 5000 H 469.16 -5.26553 -0.0704866 0
M  V30 5001 H 471.651 -3.76245 0.353252 0
M  V30 5002 H 471.964 -7.61048 1.34257 0
M  V30 5003 H 470.309 -6.84552 1.20057 0
M  V30 5004 H 473.5 -4.65187 0.521383 0
M  V30 5005 H 473.673 -6.40664 0.972295 0
M  V30 5006 N 467.08 -0.0183926 -1.57589 0
M  V30 5007 C 468.496 0.337897 -1.55982 0
M  V30 5008 C 468.696 1.73604 -1.02294 0
M  V30 5009 O 467.752 2.43589 -0.664895 0
M  V30 5010 C 469.065 0.196305 -3.00059 0
M  V30 5011 C 470.613 0.269875 -3.11834 0
M  V30 5012 C 471.088 0.157197 -4.5773 0
M  V30 5013 N 472.579 0.214521 -4.62703 0
M  V30 5014 C 473.314 0.150955 -5.73201 0
M  V30 5015 N 472.81 0.0369212 -6.9279 0
M  V30 5016 N 474.603 0.204162 -5.61729 0
M  V30 5017 H 466.754 -0.93279 -1.90821 0
M  V30 5018 H 469.017 -0.359253 -0.877292 0
M  V30 5019 H 468.723 -0.766383 -3.43248 0
M  V30 5020 H 468.597 0.970908 -3.6449 0
M  V30 5021 H 470.984 1.22302 -2.68563 0
M  V30 5022 H 471.065 -0.534918 -2.50144 0
M  V30 5023 H 470.709 -0.792479 -5.01679 0
M  V30 5024 H 470.639 0.980717 -5.17387 0
M  V30 5025 H 473.13 0.303238 -3.76681 0
M  V30 5026 H 473.443 -0.00518321 -7.728 0
M  V30 5027 H 471.788 0.0022886 -6.95 0
M  V30 5028 H 474.979 0.291575 -4.67191 0
M  V30 5029 H 475.152 0.15116 -6.47824 0
M  V30 5030 N 468.558 1.5553 0.254621 0
M  V30 5031 C 469.798 1.7876 0.991179 0
M  V30 5032 C 470.162 0.586669 1.82817 0
M  V30 5033 O 471.363 0.697585 2.5959 0
M  V30 5034 C 469.634 3.06679 1.83529 0
M  V30 5035 S 471.193 3.511 2.632 0
M  V30 5036 H 468.011 0.627916 0.333531 0
M  V30 5037 H 470.613 1.93766 0.259778 0
M  V30 5038 H 469.317 3.92158 1.20996 0
M  V30 5039 H 468.848 2.94388 2.60958 0
M  V30 5040 H 470.863 3.11823 3.8598 0
M  V30 5041 N 470.036 -0.519951 1.48776 0
M  V30 5042 C 470.999 -1.60574 1.6355 0
M  V30 5043 C 471.999 -1.52557 0.508234 0
M  V30 5044 O 473.189 -1.56047 0.774262 0
M  V30 5045 C 470.321 -3.00211 1.61512 0
M  V30 5046 H 471.514 -1.4881 2.60376 0
M  V30 5047 H 469.067 -0.742772 1.37523 0
M  V30 5048 H 469.802 -3.17471 0.662009 0
M  V30 5049 H 469.587 -3.07439 2.43359 0
M  V30 5050 H 471.077 -3.79134 1.75064 0
M  V30 5051 N 471.514 -1.37532 -0.769588 0
M  V30 5052 C 472.93 -1.18379 -1.07045 0
M  V30 5053 C 473.13 -0.0214312 -2.01489 0
M  V30 5054 O 472.186 0.637809 -2.44312 0
M  V30 5055 C 473.499 -2.50338 -1.66588 0
M  V30 5056 C 475.047 -2.56879 -1.78835 0
M  V30 5057 C 475.522 -3.88974 -2.41792 0
M  V30 5058 N 477.013 -3.90428 -2.4924 0
M  V30 5059 C 477.748 -4.89388 -2.98809 0
M  V30 5060 N 477.244 -5.98745 -3.48535 0
M  V30 5061 N 479.037 -4.76791 -2.97703 0
M  V30 5062 H 471.188 -2.11921 -0.142541 0
M  V30 5063 H 473.451 -0.939608 -0.125863 0
M  V30 5064 H 473.157 -3.35767 -1.0466 0
M  V30 5065 H 473.031 -2.67583 -2.65856 0
M  V30 5066 H 475.418 -1.71856 -2.39895 0
M  V30 5067 H 475.499 -2.43516 -0.783166 0
M  V30 5068 H 475.143 -4.74412 -1.81371 0
M  V30 5069 H 475.073 -3.99641 -3.4292 0
M  V30 5070 H 477.564 -3.11433 -2.14052 0
M  V30 5071 H 477.877 -6.70205 -3.84767 0
M  V30 5072 H 476.222 -6.02387 -3.46634 0
M  V30 5073 H 479.413 -3.90478 -2.58157 0
M  V30 5074 H 479.586 -5.54069 -3.36024 0
M  V30 5075 N 472.992 0.995999 -1.22138 0
M  V30 5076 C 473.902 2.11985 -1.00496 0
M  V30 5077 C 474.918 1.7394 0.0457701 0
M  V30 5078 O 476.094 2.00868 -0.146273 0
M  V30 5079 C 473.159 3.41779 -0.582086 0
M  V30 5080 C 472.22 3.93943 -1.70608 0
M  V30 5081 C 471.453 5.17542 -1.30328 0
M  V30 5082 O 471.676 5.70114 -0.180743 0
M  V30 5083 O 470.61 5.63382 -2.11861 0
M  V30 5084 H 474.436 2.33123 -1.94647 0
M  V30 5085 H 472.021 1.10358 -1.00705 0
M  V30 5086 H 473.903 4.1989 -0.356467 0
M  V30 5087 H 472.578 3.22007 0.330592 0
M  V30 5088 H 471.485 3.17019 -1.98619 0
M  V30 5089 H 472.818 4.18141 -2.59651 0
M  V30 5090 N 474.47 1.03057 1.19235 0
M  V30 5091 C 475.717 0.728019 1.88961 0
M  V30 5092 C 476.045 -0.743515 1.79728 0
M  V30 5093 O 475.3 -1.55729 1.1852 0
M  V30 5094 C 475.599 1.1268 3.39172 0
M  V30 5095 C 475.265 2.5969 3.68608 0
M  V30 5096 C 473.927 2.99854 3.76352 0
M  V30 5097 C 476.279 3.54793 3.81801 0
M  V30 5098 C 473.607 4.34031 3.94758 0
M  V30 5099 C 475.959 4.88675 4.0172 0
M  V30 5100 C 474.623 5.28526 4.07697 0
M  V30 5101 H 473.893 0.266401 0.691456 0
M  V30 5102 H 476.54 1.29373 1.41191 0
M  V30 5103 H 474.845 0.479722 3.88852 0
M  V30 5104 H 476.542 0.870203 3.91444 0
M  V30 5105 H 473.132 2.27575 3.63191 0
M  V30 5106 H 477.316 3.24914 3.7516 0
M  V30 5107 H 472.572 4.6444 3.97625 0
M  V30 5108 H 476.746 5.6228 4.1087 0
M  V30 5109 H 474.373 6.32506 4.21712 0
M  V30 5110 N 475.948 -1.35272 0.808662 0
M  V30 5111 C 477.196 -1.98316 0.389233 0
M  V30 5112 C 477.517 -1.64465 -1.04767 0
M  V30 5113 O 476.787 -0.928175 -1.72516 0
M  V30 5114 H 475.367 -0.733585 0.140935 0
M  V30 5115 H 478.029 -1.6515 1.03496 0
M  V30 5116 H 477.125 -3.08123 0.496631 0
M  V30 5117 N 477.426 -0.562348 -1.47226 0
M  V30 5118 C 478.356 0.170627 -2.32876 0
M  V30 5119 C 479.337 0.903748 -1.44106 0
M  V30 5120 O 480.522 0.883206 -1.72954 0
M  V30 5121 C 477.652 1.19786 -3.25989 0
M  V30 5122 C 476.606 0.580875 -4.2404 0
M  V30 5123 C 475.932 1.71311 -5.06514 0
M  V30 5124 C 477.232 -0.468714 -5.20193 0
M  V30 5125 H 478.926 -0.544441 -2.94408 0
M  V30 5126 H 476.472 -0.263271 -1.41573 0
M  V30 5127 H 478.425 1.71884 -3.84752 0
M  V30 5128 H 477.149 1.94294 -2.62521 0
M  V30 5129 H 475.808 0.0811538 -3.6651 0
M  V30 5130 H 475.456 2.44736 -4.39447 0
M  V30 5131 H 475.156 1.30604 -5.72902 0
M  V30 5132 H 476.68 2.23725 -5.68137 0
M  V30 5133 H 478.094 -0.0336028 -5.7329 0
M  V30 5134 H 476.491 -0.794957 -5.94811 0
M  V30 5135 H 477.561 -1.36269 -4.65359 0
M  V30 5136 N 478.904 1.54736 -0.299062 0
M  V30 5137 C 479.834 2.26409 0.571085 0
M  V30 5138 C 480.815 1.2629 1.13951 0
M  V30 5139 O 482 1.55059 1.16921 0
M  V30 5140 C 479.13 3.00338 1.74396 0
M  V30 5141 C 478.084 4.07588 1.30599 0
M  V30 5142 C 477.41 4.69222 2.56387 0
M  V30 5143 C 478.71 5.20455 0.438645 0
M  V30 5144 H 480.404 2.99388 -0.0266991 0
M  V30 5145 H 477.95 1.43993 -0.0142812 0
M  V30 5146 H 479.903 3.49198 2.35878 0
M  V30 5147 H 478.627 2.24934 2.36796 0
M  V30 5148 H 477.286 3.59575 0.71424 0
M  V30 5149 H 476.934 3.9046 3.17097 0
M  V30 5150 H 476.634 5.41653 2.27784 0
M  V30 5151 H 478.158 5.20844 3.18675 0
M  V30 5152 H 479.572 5.65221 0.959085 0
M  V30 5153 H 477.969 5.99594 0.246466 0
M  V30 5154 H 479.039 4.8192 -0.536738 0
M  V30 5155 N 480.382 0.0267497 1.57577 0
M  V30 5156 C 481.312 -0.954308 2.13108 0
M  V30 5157 C 482.293 -1.34088 1.04663 0
M  V30 5158 O 483.478 -1.41992 1.32484 0
M  V30 5159 C 480.608 -2.23744 2.65624 0
M  V30 5160 C 479.562 -1.99168 3.78835 0
M  V30 5161 C 478.888 -3.33726 4.17769 0
M  V30 5162 C 480.188 -1.33277 5.0501 0
M  V30 5163 H 481.882 -0.491848 2.95332 0
M  V30 5164 H 479.428 -0.23514 1.42067 0
M  V30 5165 H 481.381 -2.92754 3.03106 0
M  V30 5166 H 480.105 -2.72151 1.80558 0
M  V30 5167 H 478.764 -1.32577 3.41788 0
M  V30 5168 H 478.412 -3.79888 3.29688 0
M  V30 5169 H 478.112 -3.18089 4.94058 0
M  V30 5170 H 479.636 -4.04008 4.57832 0
M  V30 5171 H 481.05 -1.92283 5.40093 0
M  V30 5172 H 479.447 -1.28045 5.8628 0
M  V30 5173 H 480.517 -0.305411 4.83937 0
M  V30 5174 N 481.861 -1.55662 -0.24637 0
M  V30 5175 C 482.791 -1.93377 -1.30873 0
M  V30 5176 C 483.772 -0.798773 -1.50179 0
M  V30 5177 O 484.957 -1.0591 -1.62778 0
M  V30 5178 C 482.087 -2.22893 -2.66338 0
M  V30 5179 C 481.041 -3.38649 -2.61727 0
M  V30 5180 C 480.367 -3.53708 -4.00992 0
M  V30 5181 C 481.667 -4.74323 -2.18666 0
M  V30 5182 H 483.361 -2.82363 -0.995552 0
M  V30 5183 H 480.907 -1.35854 -0.477464 0
M  V30 5184 H 482.86 -2.47866 -3.40794 0
M  V30 5185 H 481.584 -1.30733 -2.99293 0
M  V30 5186 H 480.243 -3.13685 -1.89729 0
M  V30 5187 H 479.891 -2.58967 -4.31214 0
M  V30 5188 H 479.591 -4.31551 -3.98795 0
M  V30 5189 H 481.115 -3.81003 -4.77147 0
M  V30 5190 H 482.529 -4.98665 -2.82854 0
M  V30 5191 H 480.926 -5.55273 -2.27579 0
M  V30 5192 H 481.996 -4.71349 -1.13834 0
M  V30 5193 N 483.339 0.512053 -1.4905 0
M  V30 5194 C 484.586 1.26686 -1.57978 0
M  V30 5195 C 484.914 1.92733 -0.261553 0
M  V30 5196 O 484.169 1.80772 0.749667 0
M  V30 5197 C 484.468 2.36446 -2.68008 0
M  V30 5198 C 484.134 1.87932 -4.09869 0
M  V30 5199 C 482.796 1.74419 -4.48477 0
M  V30 5200 C 485.148 1.5149 -4.98698 0
M  V30 5201 C 482.476 1.22827 -5.73699 0
M  V30 5202 C 484.828 1.01355 -6.24428 0
M  V30 5203 C 483.492 0.864735 -6.61875 0
M  V30 5204 H 482.762 0.463577 -0.578081 0
M  V30 5205 H 485.409 0.569421 -1.82838 0
M  V30 5206 H 483.714 3.11933 -2.37076 0
M  V30 5207 H 485.411 2.9453 -2.72127 0
M  V30 5208 H 482.001 1.99405 -3.79389 0
M  V30 5209 H 486.185 1.60782 -4.69535 0
M  V30 5210 H 481.441 1.10008 -6.01422 0
M  V30 5211 H 485.615 0.722351 -6.92644 0
M  V30 5212 H 483.242 0.462777 -7.5879 0
M  V30 5213 N 484.817 1.37938 0.762283 0
M  V30 5214 C 485.747 1.37176 1.88958 0
M  V30 5215 C 486.728 0.238945 1.68413 0
M  V30 5216 O 487.913 0.440726 1.89133 0
M  V30 5217 C 485.043 1.18742 3.2637 0
M  V30 5218 C 483.997 2.29136 3.61498 0
M  V30 5219 C 483.323 1.95816 4.97554 0
M  V30 5220 C 484.623 3.71363 3.6727 0
M  V30 5221 H 486.317 2.31509 1.89853 0
M  V30 5222 H 483.863 1.11438 0.912005 0
M  V30 5223 H 485.816 1.16837 4.04879 0
M  V30 5224 H 484.54 0.208683 3.25933 0
M  V30 5225 H 483.199 2.30213 2.85303 0
M  V30 5226 H 482.847 0.964475 4.93667 0
M  V30 5227 H 482.547 2.69745 5.22026 0
M  V30 5228 H 484.071 1.95513 5.78452 0
M  V30 5229 H 485.485 3.72364 4.35911 0
M  V30 5230 H 483.882 4.44425 4.03245 0
M  V30 5231 H 484.952 4.04305 2.67704 0
M  V30 5232 N 486.295 -0.989507 1.22664 0
M  V30 5233 C 487.535 -1.7447 1.06488 0
M  V30 5234 C 487.899 -1.8794 -0.392737 0
M  V30 5235 O 489.1 -2.60175 -0.675446 0
M  V30 5236 C 487.371 -3.11043 1.76031 0
M  V30 5237 S 488.93 -4.02258 1.7531 0
M  V30 5238 H 485.748 -0.600123 0.381278 0
M  V30 5239 H 488.35 -1.18283 1.55658 0
M  V30 5240 H 487.054 -2.98884 2.81241 0
M  V30 5241 H 486.585 -3.72301 1.27105 0
M  V30 5242 H 488.6 -4.89623 0.805208 0
M  V30 5243 N 487.773 -1.03688 -1.18687 0
M  V30 5244 C 489.019 -0.739123 -1.88851 0
M  V30 5245 C 489.352 0.731042 -1.79915 0
M  V30 5246 O 488.627 1.53313 -1.19688 0
M  V30 5247 C 488.91 -1.20106 -3.3948 0
M  V30 5248 C 488.763 -2.73304 -3.57246 0
M  V30 5249 C 490.082 -0.788134 -4.32986 0
M  V30 5250 H 487.201 -0.269978 -0.68577 0
M  V30 5251 H 489.843 -1.28822 -1.3966 0
M  V30 5252 H 487.993 -0.733915 -3.81505 0
M  V30 5253 H 489.665 -3.28027 -3.24339 0
M  V30 5254 H 487.908 -3.13313 -3.00029 0
M  V30 5255 H 488.579 -3.00684 -4.62918 0
M  V30 5256 H 491.055 -1.19005 -3.98719 0
M  V30 5257 H 489.931 -1.13915 -5.36949 0
M  V30 5258 H 490.192 0.308988 -4.41019 0
M  V30 5259 N 489.251 1.34841 -0.815825 0
M  V30 5260 C 490.214 2.27959 -0.238185 0
M  V30 5261 C 491.214 1.49983 0.579816 0
M  V30 5262 O 492.404 1.69617 0.396953 0
M  V30 5263 C 489.536 3.34314 0.666876 0
M  V30 5264 H 490.729 2.80558 -1.05958 0
M  V30 5265 H 488.282 1.44852 -0.587156 0
M  V30 5266 H 489.017 2.86916 1.5116 0
M  V30 5267 H 488.802 3.92014 0.0819106 0
M  V30 5268 H 490.292 4.0379 1.06506 0
M  V30 5269 N 490.729 0.570148 1.46925 0
M  V30 5270 C 491.662 -0.218362 2.27153 0
M  V30 5271 C 492.64 -0.90847 1.34854 0
M  V30 5272 O 493.824 -0.924875 1.64251 0
M  V30 5273 C 490.951 -1.3122 3.12248 0
M  V30 5274 C 489.997 -0.729277 4.20219 0
M  V30 5275 S 490.83 0.434159 5.33737 0
M  V30 5276 C 491.986 -0.661188 6.22398 0
M  V30 5277 H 492.219 0.462393 2.93682 0
M  V30 5278 H 489.752 0.356753 1.50222 0
M  V30 5279 H 491.71 -1.93856 3.61842 0
M  V30 5280 H 490.371 -1.96485 2.45056 0
M  V30 5281 H 489.564 -1.5511 4.79538 0
M  V30 5282 H 489.166 -0.178836 3.73572 0
M  V30 5283 H 491.458 -1.55006 6.5953 0
M  V30 5284 H 492.401 -0.105046 7.08022 0
M  V30 5285 H 492.809 -0.959682 5.56283 0
M  V30 5286 N 492.207 -1.54576 0.307264 0
M  V30 5287 C 493.17 -2.22423 -0.553224 0
M  V30 5288 C 494.17 -1.21231 -1.05639 0
M  V30 5289 O 495.36 -1.45923 -0.951419 0
M  V30 5290 C 492.492 -2.91552 -1.76664 0
M  V30 5291 H 493.685 -2.99874 0.0396484 0
M  V30 5292 H 491.238 -1.56192 0.0581629 0
M  V30 5293 H 491.973 -2.18196 -2.39918 0
M  V30 5294 H 491.758 -3.65738 -1.41343 0
M  V30 5295 H 493.248 -3.43292 -2.37783 0
M  V30 5296 N 493.685 -0.035106 -1.57561 0
M  V30 5297 C 494.615 0.942993 -2.13612 0
M  V30 5298 C 495.596 1.33531 -1.05373 0
M  V30 5299 O 496.781 1.41287 -1.33235 0
M  V30 5300 C 493.911 2.22332 -2.66807 0
M  V30 5301 C 492.865 1.97156 -3.79886 0
M  V30 5302 C 492.191 3.31506 -4.19533 0
M  V30 5303 C 493.491 1.30596 -5.05709 0
M  V30 5304 H 495.185 0.476179 -2.95589 0
M  V30 5305 H 492.731 0.227602 -1.4219 0
M  V30 5306 H 494.684 2.91142 -3.04654 0
M  V30 5307 H 493.408 2.7119 -1.81999 0
M  V30 5308 H 492.067 1.30763 -3.42486 0
M  V30 5309 H 491.715 3.78134 -3.31698 0
M  V30 5310 H 491.415 3.15465 -4.95738 0
M  V30 5311 H 492.939 4.01574 -4.59968 0
M  V30 5312 H 494.353 1.89416 -5.41105 0
M  V30 5313 H 492.75 1.24934 -5.86951 0
M  V30 5314 H 493.82 0.279742 -4.84092 0
M  V30 5315 N 495.163 1.55791 0.238111 0
M  V30 5316 C 496.41 1.78033 0.964907 0
M  V30 5317 C 496.738 0.600984 1.84982 0
M  V30 5318 O 495.993 -0.41536 1.91241 0
M  V30 5319 C 496.292 3.05869 1.84875 0
M  V30 5320 C 495.958 4.36808 1.11846 0
M  V30 5321 C 494.62 4.72388 0.916662 0
M  V30 5322 C 496.972 5.17717 0.60151 0
M  V30 5323 C 494.3 5.86406 0.185756 0
M  V30 5324 C 496.652 6.32494 -0.115972 0
M  V30 5325 C 495.316 6.66688 -0.329168 0
M  V30 5326 H 494.586 0.651469 0.353085 0
M  V30 5327 H 497.233 1.90061 0.234318 0
M  V30 5328 H 495.538 2.88891 2.64668 0
M  V30 5329 H 497.235 3.20278 2.41294 0
M  V30 5330 H 493.825 4.08862 1.28569 0
M  V30 5331 H 498.009 4.90678 0.744932 0
M  V30 5332 H 493.265 6.11399 0.0101886 0
M  V30 5333 H 497.439 6.94425 -0.524127 0
M  V30 5334 H 495.066 7.54884 -0.897474 0
M  V30 5335 N 496.642 -0.504142 1.49319 0
M  V30 5336 C 497.605 -1.5883 1.65244 0
M  V30 5337 C 498.605 -1.52009 0.524386 0
M  V30 5338 O 499.795 -1.55218 0.79077 0
M  V30 5339 C 496.927 -2.98481 1.64687 0
M  V30 5340 H 498.12 -1.4604 2.61939 0
M  V30 5341 H 495.673 -0.728144 1.38303 0
M  V30 5342 H 496.408 -3.16751 0.695644 0
M  V30 5343 H 496.193 -3.0484 2.46607 0
M  V30 5344 H 497.683 -3.77256 1.79075 0
M  V30 5345 N 498.12 -1.38341 -0.754957 0
M  V30 5346 C 499.531 -1.30803 -1.3322 0
M  V30 5347 C 499.882 0.0368 -1.96165 0
M  V30 5348 O 499.007 0.938844 -1.94974 0
M  V30 5349 C 499.602 -2.3688 -2.42225 0
M  V30 5350 C 498.161 -2.32925 -2.95674 0
M  V30 5351 C 497.308 -2.19819 -1.69042 0
M  V30 5352 H 500.259 -1.48719 -0.553937 0
M  V30 5353 H 500.28 -2.02517 -3.22129 0
M  V30 5354 H 499.792 -3.34747 -1.96383 0
M  V30 5355 H 497.893 -1.38635 -3.45848 0
M  V30 5356 H 498.006 -3.27008 -3.50146 0
M  V30 5357 H 496.37 -1.66648 -1.92615 0
M  V30 5358 H 497.153 -3.19625 -1.25279 0
M  V30 5359 N 499.598 0.982988 -1.23187 0
M  V30 5360 C 500.528 2.09301 -1.03515 0
M  V30 5361 C 501.509 1.70035 0.0471136 0
M  V30 5362 O 502.694 1.93847 -0.117029 0
M  V30 5363 C 499.824 3.4167 -0.622791 0
M  V30 5364 C 498.778 3.94828 -1.65211 0
M  V30 5365 C 498.104 5.23362 -1.09527 0
M  V30 5366 C 499.404 4.2439 -3.04451 0
M  V30 5367 H 501.098 2.26016 -1.96359 0
M  V30 5368 H 498.644 1.08611 -0.945501 0
M  V30 5369 H 500.597 4.18746 -0.472233 0
M  V30 5370 H 499.321 3.24811 0.341329 0
M  V30 5371 H 497.98 3.19895 -1.79061 0
M  V30 5372 H 497.628 5.02852 -0.122211 0
M  V30 5373 H 497.328 5.59895 -1.783 0
M  V30 5374 H 498.852 6.03062 -0.956511 0
M  V30 5375 H 500.266 4.92225 -2.93917 0
M  V30 5376 H 498.663 4.72118 -3.70438 0
M  V30 5377 H 499.733 3.31765 -3.53638 0
M  V30 5378 N 501.076 1.04316 1.18135 0
M  V30 5379 C 502.322 0.749128 1.88457 0
M  V30 5380 C 502.655 -0.72149 1.803 0
M  V30 5381 O 501.93 -1.52676 1.205 0
M  V30 5382 C 502.213 1.21905 3.38838 0
M  V30 5383 C 502.066 2.75195 3.55792 0
M  V30 5384 C 503.385 0.811085 4.32561 0
M  V30 5385 H 500.504 0.273611 0.684329 0
M  V30 5386 H 503.146 1.29561 1.38975 0
M  V30 5387 H 501.296 0.754137 3.8111 0
M  V30 5388 H 502.968 3.29743 3.22595 0
M  V30 5389 H 501.211 3.14899 2.98364 0
M  V30 5390 H 501.882 3.03135 4.61317 0
M  V30 5391 H 504.358 1.21118 3.98082 0
M  V30 5392 H 503.234 1.16761 5.36338 0
M  V30 5393 H 503.495 -0.285596 4.41177 0
M  V30 5394 N 502.554 -1.34406 0.822964 0
M  V30 5395 C 503.504 -2.26963 0.217208 0
M  V30 5396 C 504.488 -1.48536 -0.618545 0
M  V30 5397 O 505.68 -1.7056 -0.473118 0
M  V30 5398 C 502.809 -3.37655 -0.619973 0
M  V30 5399 C 501.895 -4.23495 0.226411 0
M  V30 5400 N 502.286 -4.88876 1.29744 0
M  V30 5401 C 500.584 -4.45999 0.0107554 0
M  V30 5402 C 501.285 -5.52642 1.81553 0
M  V30 5403 N 500.261 -5.31949 1.11942 0
M  V30 5404 H 504.063 -2.75017 1.03647 0
M  V30 5405 H 501.577 -1.48126 0.665777 0
M  V30 5406 H 503.574 -4.02932 -1.07011 0
M  V30 5407 H 502.234 -2.91151 -1.43739 0
M  V30 5408 H 503.245 -4.89886 1.68024 0
M  V30 5409 H 499.922 -4.10253 -0.774495 0
M  V30 5410 H 501.312 -6.14755 2.71156 0
M  V30 5411 N 504.032 -0.577932 -1.46621 0
M  V30 5412 C 504.962 0.145917 -2.33044 0
M  V30 5413 C 505.943 0.888412 -1.45056 0
M  V30 5414 O 507.128 0.864812 -1.73881 0
M  V30 5415 C 504.258 1.16322 -3.27241 0
M  V30 5416 C 503.212 0.535868 -4.24632 0
M  V30 5417 C 502.538 1.65929 -5.08303 0
M  V30 5418 C 503.838 -0.523861 -5.19666 0
M  V30 5419 H 505.532 -0.575636 -2.93814 0
M  V30 5420 H 503.078 -0.278272 -1.41286 0
M  V30 5421 H 505.031 1.67793 -3.86553 0
M  V30 5422 H 503.755 1.91498 -2.64567 0
M  V30 5423 H 502.414 0.0422759 -3.66576 0
M  V30 5424 H 502.062 2.40061 -4.42018 0
M  V30 5425 H 501.762 1.2452 -5.74255 0
M  V30 5426 H 503.286 2.17686 -5.70478 0
M  V30 5427 H 504.7 -0.0944059 -5.73222 0
M  V30 5428 H 503.097 -0.858 -5.93935 0
M  V30 5429 H 504.167 -1.41197 -4.63887 0
M  V30 5430 N 505.51 1.54411 -0.315457 0
M  V30 5431 C 506.473 2.22713 0.54142 0
M  V30 5432 C 507.473 1.2179 1.04995 0
M  V30 5433 O 508.663 1.46426 0.943667 0
M  V30 5434 C 505.795 2.92485 1.75116 0
M  V30 5435 H 506.988 2.99849 -0.0555508 0
M  V30 5436 H 504.541 1.56159 -0.0664453 0
M  V30 5437 H 505.276 2.19466 2.38758 0
M  V30 5438 H 505.061 3.66483 1.39401 0
M  V30 5439 H 506.551 3.44548 2.35959 0
M  V30 5440 N 506.988 0.0434614 1.5754 0
M  V30 5441 C 507.898 -0.94893 2.14552 0
M  V30 5442 C 508.914 -1.34707 1.10136 0
M  V30 5443 O 510.09 -1.42557 1.42266 0
M  V30 5444 C 507.155 -2.208 2.67298 0
M  V30 5445 C 506.216 -1.86893 3.86484 0
M  V30 5446 C 505.449 -3.06797 4.36705 0
M  V30 5447 O 505.672 -4.19921 3.86034 0
M  V30 5448 O 504.606 -2.8826 5.28384 0
M  V30 5449 H 508.432 -0.494099 2.99654 0
M  V30 5450 H 506.017 -0.177989 1.48336 0
M  V30 5451 H 507.899 -2.94686 3.01228 0
M  V30 5452 H 506.574 -2.65436 1.85272 0
M  V30 5453 H 505.481 -1.10347 3.57455 0
M  V30 5454 H 506.814 -1.47062 4.69716 0
M  V30 5455 N 508.466 -1.55915 -0.229846 0
M  V30 5456 C 509.882 -1.48721 -0.579166 0
M  V30 5457 C 510.082 -0.736976 -1.87539 0
M  V30 5458 O 509.138 -0.273258 -2.51017 0
M  V30 5459 C 510.451 -2.9323 -0.666082 0
M  V30 5460 C 511.999 -3.03701 -0.757267 0
M  V30 5461 C 512.474 -4.49552 -0.8756 0
M  V30 5462 N 513.965 -4.53561 -0.940035 0
M  V30 5463 C 514.7 -5.63683 -1.05116 0
M  V30 5464 N 514.196 -6.83576 -1.12675 0
M  V30 5465 N 515.989 -5.51516 -1.08565 0
M  V30 5466 H 508.14 -2.03123 0.620857 0
M  V30 5467 H 510.403 -0.922898 0.21671 0
M  V30 5468 H 510.109 -3.51032 0.21664 0
M  V30 5469 H 509.983 -3.44668 -1.53243 0
M  V30 5470 H 512.37 -2.45969 -1.63043 0
M  V30 5471 H 512.451 -2.55446 0.134583 0
M  V30 5472 H 512.095 -5.079 -0.00692351 0
M  V30 5473 H 512.025 -4.95506 -1.78274 0
M  V30 5474 H 514.516 -3.67215 -0.892269 0
M  V30 5475 H 514.829 -7.63251 -1.21109 0
M  V30 5476 H 513.174 -6.86303 -1.09603 0
M  V30 5477 H 516.365 -4.5678 -1.02319 0
M  V30 5478 H 516.538 -6.37372 -1.1688 0
M  V30 5479 N 509.944 0.496216 -1.49584 0
M  V30 5480 C 510.854 1.62352 -1.69349 0
M  V30 5481 C 511.87 1.64184 -0.576147 0
M  V30 5482 O 513.046 1.82517 -0.85144 0
M  V30 5483 C 510.111 2.98698 -1.76013 0
M  V30 5484 C 509.172 3.07454 -2.99617 0
M  V30 5485 C 508.405 4.37296 -3.05953 0
M  V30 5486 O 508.628 5.2637 -2.19752 0
M  V30 5487 O 507.562 4.51124 -3.9846 0
M  V30 5488 H 511.388 1.48606 -2.64859 0
M  V30 5489 H 508.973 0.673022 -1.33382 0
M  V30 5490 H 510.855 3.79725 -1.82721 0
M  V30 5491 H 509.53 3.12696 -0.836828 0
M  V30 5492 H 508.437 2.25597 -2.98424 0
M  V30 5493 H 509.77 2.98385 -3.91443 0
M  V30 5494 N 511.423 1.38739 0.74761 0
M  V30 5495 C 512.353 1.39173 1.87492 0
M  V30 5496 C 513.334 0.256794 1.6815 0
M  V30 5497 O 514.519 0.460762 1.88655 0
M  V30 5498 C 511.649 1.22197 3.25093 0
M  V30 5499 C 510.603 2.32957 3.59047 0
M  V30 5500 C 509.929 2.01082 4.95449 0
M  V30 5501 C 511.229 3.75237 3.6331 0
M  V30 5502 H 512.923 2.3351 1.87386 0
M  V30 5503 H 510.469 1.12399 0.900134 0
M  V30 5504 H 512.422 1.21124 4.03617 0
M  V30 5505 H 511.146 0.243241 3.25693 0
M  V30 5506 H 509.805 2.33226 2.82845 0
M  V30 5507 H 509.453 1.01678 4.92616 0
M  V30 5508 H 509.153 2.75267 5.19136 0
M  V30 5509 H 510.677 2.01638 5.76346 0
M  V30 5510 H 512.091 3.76966 4.31937 0
M  V30 5511 H 510.488 4.48677 3.98509 0
M  V30 5512 H 511.558 4.07122 2.634 0
M  V30 5513 N 512.901 -0.976442 1.23707 0
M  V30 5514 C 514.149 -1.71487 1.06942 0
M  V30 5515 C 514.47 -1.9098 -0.393897 0
M  V30 5516 O 513.74 -1.48128 -1.28198 0
M  V30 5517 H 512.32 -0.635425 0.392739 0
M  V30 5518 H 514.982 -1.17515 1.55487 0
M  V30 5519 H 514.078 -2.70286 1.56051 0
M  V30 5520 N 514.379 -1.04941 -1.1758 0
M  V30 5521 C 515.342 -0.652456 -2.19717 0
M  V30 5522 C 516.342 0.294745 -1.58076 0
M  V30 5523 O 517.532 0.0789579 -1.74021 0
M  V30 5524 C 514.664 0.0420712 -3.40874 0
M  V30 5525 H 515.857 -1.55642 -2.5635 0
M  V30 5526 H 513.41 -0.842995 -1.31618 0
M  V30 5527 H 514.145 0.95943 -3.09783 0
M  V30 5528 H 513.93 -0.638844 -3.86861 0
M  V30 5529 H 515.42 0.306 -4.16477 0
M  V30 5530 N 515.857 1.33968 -0.830081 0
M  V30 5531 C 517.273 1.51003 -0.516742 0
M  V30 5532 C 517.473 1.77286 0.957694 0
M  V30 5533 O 516.529 1.82797 1.74188 0
M  V30 5534 C 517.842 2.67036 -1.38247 0
M  V30 5535 C 519.39 2.80919 -1.38034 0
M  V30 5536 C 519.865 4.00004 -2.23071 0
M  V30 5537 N 521.356 4.07224 -2.20733 0
M  V30 5538 C 522.091 4.98541 -2.83275 0
M  V30 5539 N 521.587 5.95033 -3.54835 0
M  V30 5540 N 523.38 4.91469 -2.72791 0
M  V30 5541 H 515.531 1.15168 -1.78466 0
M  V30 5542 H 517.794 0.565443 -0.760906 0
M  V30 5543 H 517.5 2.54266 -2.42985 0
M  V30 5544 H 517.374 3.62226 -1.05225 0
M  V30 5545 H 519.761 2.93127 -0.340713 0
M  V30 5546 H 519.842 1.86517 -1.75057 0
M  V30 5547 H 519.486 3.88557 -3.27087 0
M  V30 5548 H 519.416 4.93634 -1.83394 0
M  V30 5549 H 521.907 3.38162 -1.68687 0
M  V30 5550 H 522.22 6.61357 -3.99784 0
M  V30 5551 H 520.565 5.95135 -3.58942 0
M  V30 5552 H 523.756 4.15048 -2.16456 0
M  V30 5553 H 523.929 5.62439 -3.21818 0
M  V30 5554 N 517.335 0.585699 1.46312 0
M  V30 5555 C 518.751 0.247607 1.57668 0
M  V30 5556 C 518.951 -1.25007 1.58037 0
M  V30 5557 O 518.007 -2.03196 1.49893 0
M  V30 5558 C 519.32 0.899456 2.86933 0
M  V30 5559 C 520.868 0.873326 3.00569 0
M  V30 5560 C 521.343 1.50477 4.32574 0
M  V30 5561 N 522.834 1.46925 4.3928 0
M  V30 5562 C 523.569 1.92719 5.40044 0
M  V30 5563 N 523.065 2.46499 6.47464 0
M  V30 5564 N 524.858 1.83617 5.31264 0
M  V30 5565 H 517.009 1.55841 1.44317 0
M  V30 5566 H 519.272 0.651564 0.688599 0
M  V30 5567 H 518.978 1.95313 2.92482 0
M  V30 5568 H 518.852 0.409476 3.74971 0
M  V30 5569 H 521.239 -0.171736 2.946 0
M  V30 5570 H 521.32 1.40136 2.13999 0
M  V30 5571 H 520.964 2.54905 4.39302 0
M  V30 5572 H 520.894 0.951944 5.17924 0
M  V30 5573 H 523.385 1.07616 3.62253 0
M  V30 5574 H 523.698 2.79291 7.20567 0
M  V30 5575 H 522.043 2.50526 6.48276 0
M  V30 5576 H 525.234 1.41358 4.46246 0
M  V30 5577 H 525.407 2.19622 6.09648 0
M  V30 5578 N 518.813 -1.54241 0.323641 0
M  V30 5579 C 520.09 -1.92741 -0.333181 0
M  V30 5580 C 520.47 -1.25326 -1.69872 0
M  V30 5581 O 519.818 -0.396991 -2.25025 0
M  V30 5582 C 520.028 -3.46399 -0.425322 0
M  V30 5583 C 521.376 -4.19029 -0.68557 0
M  V30 5584 O 522.4 -3.52555 -0.50824 0
M  V30 5585 O 521.259 -5.36751 -1.02767 0
M  V30 5586 H 518.353 -0.804811 -0.190286 0
M  V30 5587 H 520.899 -1.65542 0.373361 0
M  V30 5588 H 519.671 -3.87643 0.533737 0
M  V30 5589 H 519.294 -3.79704 -1.17944 0
M  V30 5590 N 520.291 -0.0518155 -1.57515 0
M  V30 5591 C 521.538 0.621823 -1.92716 0
M  V30 5592 C 521.866 1.70813 -0.930229 0
M  V30 5593 O 521.121 1.95616 0.0573708 0
M  V30 5594 C 521.42 1.25607 -3.34601 0
M  V30 5595 C 521.086 0.297901 -4.49915 0
M  V30 5596 C 519.748 0.034243 -4.81188 0
M  V30 5597 C 522.1 -0.358738 -5.19964 0
M  V30 5598 C 519.428 -0.893479 -5.79857 0
M  V30 5599 C 521.78 -1.27466 -6.19625 0
M  V30 5600 C 520.444 -1.54698 -6.49326 0
M  V30 5601 H 519.714 0.227541 -0.705199 0
M  V30 5602 H 522.361 -0.118432 -1.91133 0
M  V30 5603 H 520.666 2.07161 -3.32553 0
M  V30 5604 H 522.363 1.78424 -3.59118 0
M  V30 5605 H 518.953 0.513581 -4.25512 0
M  V30 5606 H 523.137 -0.168133 -4.96015 0
M  V30 5607 H 518.393 -1.11193 -6.01204 0
M  V30 5608 H 522.567 -1.78953 -6.73015 0
M  V30 5609 H 520.194 -2.26748 -7.25596 0
M  V30 5610 N 521.769 1.56035 0.221574 0
M  V30 5611 C 522.994 1.83476 0.967026 0
M  V30 5612 C 523.419 0.632139 1.7716 0
M  V30 5613 O 522.777 -0.419082 1.7639 0
M  V30 5614 C 522.825 3.08907 1.86034 0
M  V30 5615 O 521.929 2.876 2.95567 0
M  V30 5616 H 521.27 0.604913 0.273817 0
M  V30 5617 H 523.8 2.03247 0.234893 0
M  V30 5618 H 523.81 3.3901 2.27016 0
M  V30 5619 H 522.485 3.96068 1.26898 0
M  V30 5620 H 521.062 2.6873 2.58532 0
M  V30 5621 N 523.247 -0.488276 1.49845 0
M  V30 5622 C 524.472 -1.26997 1.63971 0
M  V30 5623 C 524.897 -1.85427 0.315994 0
M  V30 5624 O 524.255 -1.66475 -0.718032 0
M  V30 5625 C 524.303 -2.36689 2.72049 0
M  V30 5626 O 523.407 -3.40882 2.32107 0
M  V30 5627 H 522.748 -0.374376 0.548396 0
M  V30 5628 H 525.278 -0.583104 1.96115 0
M  V30 5629 H 525.288 -2.82262 2.94605 0
M  V30 5630 H 523.963 -1.93529 3.68129 0
M  V30 5631 H 522.54 -3.01139 2.19931 0
M  V30 5632 N 524.725 -1.39134 -0.740242 0
M  V30 5633 C 525.971 -1.36273 -1.50192 0
M  V30 5634 C 526.304 0.0430136 -1.94152 0
M  V30 5635 O 525.579 1.00691 -1.66408 0
M  V30 5636 C 525.862 -2.33041 -2.74525 0
M  V30 5637 C 525.715 -3.82535 -2.36617 0
M  V30 5638 C 527.034 -2.27723 -3.76604 0
M  V30 5639 H 524.153 -0.496323 -0.544823 0
M  V30 5640 H 526.795 -1.70085 -0.846815 0
M  V30 5641 H 524.945 -2.04337 -3.30422 0
M  V30 5642 H 526.617 -4.21967 -1.86391 0
M  V30 5643 H 524.86 -3.99565 -1.68909 0
M  V30 5644 H 525.531 -4.45723 -3.2563 0
M  V30 5645 H 528.007 -2.53091 -3.30279 0
M  V30 5646 H 526.883 -2.97519 -4.61274 0
M  V30 5647 H 527.144 -1.28049 -4.2315 0
M  V30 5648 N 526.204 0.969867 -1.24223 0
M  V30 5649 C 527.615 1.52717 -1.07399 0
M  V30 5650 C 527.966 1.92956 0.355298 0
M  V30 5651 O 527.091 1.77112 1.2434 0
M  V30 5652 C 527.686 2.77521 -1.94339 0
M  V30 5653 C 526.245 3.29615 -1.81744 0
M  V30 5654 C 525.392 2.02537 -1.89405 0
M  V30 5655 H 528.343 0.788399 -1.37732 0
M  V30 5656 H 528.364 3.50773 -1.47439 0
M  V30 5657 H 527.876 2.48203 -2.98357 0
M  V30 5658 H 525.977 3.63789 -0.805505 0
M  V30 5659 H 526.09 3.98661 -2.65718 0
M  V30 5660 H 524.454 2.17151 -1.33108 0
M  V30 5661 H 525.237 1.75587 -2.94999 0
M  V30 5662 N 527.682 1.05563 1.17022 0
M  V30 5663 C 528.645 0.664098 2.19368 0
M  V30 5664 C 529.645 -0.286358 1.5823 0
M  V30 5665 O 530.835 -0.069728 1.7406 0
M  V30 5666 C 527.967 -0.0239932 3.40892 0
M  V30 5667 H 529.16 1.57 2.55521 0
M  V30 5668 H 526.713 0.849964 1.31169 0
M  V30 5669 H 527.448 -0.942988 3.10287 0
M  V30 5670 H 527.233 0.659351 3.86516 0
M  V30 5671 H 528.723 -0.283909 4.16634 0
M  V30 5672 N 529.16 -1.33526 0.837174 0
M  V30 5673 C 530.385 -2.0258 0.444545 0
M  V30 5674 C 530.81 -1.6258 -0.946006 0
M  V30 5675 O 530.168 -0.817548 -1.6182 0
M  V30 5676 C 530.216 -3.5605 0.571006 0
M  V30 5677 O 529.32 -4.10422 -0.403431 0
M  V30 5678 H 528.661 -0.638866 0.180958 0
M  V30 5679 H 531.191 -1.70462 1.13154 0
M  V30 5680 H 531.201 -4.05488 0.452024 0
M  V30 5681 H 529.876 -3.84509 1.58512 0
M  V30 5682 H 528.453 -3.72113 -0.242147 0
M  V30 5683 N 530.638 -0.59345 -1.46 0
M  V30 5684 C 531.868 -0.0889642 -2.06408 0
M  V30 5685 C 532.276 1.22597 -1.44106 0
M  V30 5686 O 531.619 1.75448 -0.544398 0
M  V30 5687 C 531.681 0.139902 -3.59228 0
M  V30 5688 C 531.345 -1.09107 -4.43784 0
M  V30 5689 C 532.342 -2.00577 -4.79651 0
M  V30 5690 C 530.027 -1.31593 -4.84756 0
M  V30 5691 C 532.021 -3.12873 -5.55328 0
M  V30 5692 C 529.708 -2.44192 -5.60191 0
M  V30 5693 C 530.706 -3.34661 -5.95392 0
M  V30 5694 O 530.394 -4.45302 -6.69299 0
M  V30 5695 H 530.126 -0.0594613 -0.67338 0
M  V30 5696 H 532.68 -0.817 -1.88452 0
M  V30 5697 H 530.91 0.922672 -3.75531 0
M  V30 5698 H 532.599 0.594228 -4.01527 0
M  V30 5699 H 533.365 -1.84425 -4.48567 0
M  V30 5700 H 529.244 -0.620801 -4.56801 0
M  V30 5701 H 532.788 -3.83511 -5.82722 0
M  V30 5702 H 528.685 -2.60303 -5.90688 0
M  V30 5703 H 529.453 -4.43805 -6.87735 0
M  V30 5704 N 532.116 1.54067 -0.331816 0
M  V30 5705 C 533.362 2.01713 0.261395 0
M  V30 5706 C 533.717 1.21566 1.49129 0
M  V30 5707 O 533.01 0.291867 1.89364 0
M  V30 5708 C 533.204 3.51634 0.639392 0
M  V30 5709 C 533.033 4.46295 -0.552321 0
M  V30 5710 C 531.803 4.94185 -1.05399 0
M  V30 5711 C 534.001 4.94677 -1.40711 0
M  V30 5712 N 531.983 5.7277 -2.20925 0
M  V30 5713 C 533.354 5.71267 -2.40943 0
M  V30 5714 C 535.409 4.76805 -1.43392 0
M  V30 5715 C 534.112 6.31889 -3.4367 0
M  V30 5716 C 536.138 5.38268 -2.44994 0
M  V30 5717 C 535.5 6.14716 -3.43952 0
M  V30 5718 H 531.599 0.77975 0.0592729 0
M  V30 5719 H 534.183 1.88974 -0.468726 0
M  V30 5720 H 532.354 3.64603 1.33863 0
M  V30 5721 H 534.086 3.86038 1.21478 0
M  V30 5722 H 530.841 4.69472 -0.623952 0
M  V30 5723 H 531.265 6.16737 -2.79222 0
M  V30 5724 H 535.907 4.17255 -0.682489 0
M  V30 5725 H 533.625 6.90554 -4.19715 0
M  V30 5726 H 537.211 5.26352 -2.4788 0
M  V30 5727 H 536.091 6.6143 -4.21283 0
M  V30 5728 N 533.594 0.0601682 1.57485 0
M  V30 5729 C 534.84 -0.606552 1.94146 0
M  V30 5730 C 535.195 -1.67918 0.939225 0
M  V30 5731 O 534.488 -1.91558 -0.0402649 0
M  V30 5732 C 534.682 -1.23831 3.35262 0
M  V30 5733 C 534.511 -0.228408 4.4912 0
M  V30 5734 C 533.281 0.182813 5.04969 0
M  V30 5735 C 535.479 0.52975 5.11564 0
M  V30 5736 N 533.461 1.18464 6.02362 0
M  V30 5737 C 534.832 1.38439 6.04346 0
M  V30 5738 C 536.887 0.587084 4.94427 0
M  V30 5739 C 535.59 2.29125 6.81832 0
M  V30 5740 C 537.616 1.4814 5.72546 0
M  V30 5741 C 536.978 2.32375 6.64967 0
M  V30 5742 H 533.077 -0.193328 0.757726 0
M  V30 5743 H 535.661 0.1346 1.94234 0
M  V30 5744 H 533.832 -1.94944 3.35933 0
M  V30 5745 H 535.564 -1.86456 3.59188 0
M  V30 5746 H 532.319 -0.197968 4.73186 0
M  V30 5747 H 532.743 1.68271 6.55754 0
M  V30 5748 H 537.385 -0.049944 4.22771 0
M  V30 5749 H 535.103 2.93868 7.52773 0
M  V30 5750 H 538.689 1.53045 5.6131 0
M  V30 5751 H 537.569 3.00454 7.2436 0
M  V30 5752 N 535.072 -1.5615 -0.213296 0
M  V30 5753 C 536.035 -1.92249 -1.24792 0
M  V30 5754 C 537.035 -0.801828 -1.39382 0
M  V30 5755 O 538.225 -1.06948 -1.37506 0
M  V30 5756 C 535.357 -2.18056 -2.62039 0
M  V30 5757 H 536.55 -2.84793 -0.939845 0
M  V30 5758 H 534.103 -1.49559 -0.454062 0
M  V30 5759 H 534.838 -1.2809 -2.97932 0
M  V30 5760 H 534.623 -2.99703 -2.52825 0
M  V30 5761 H 536.113 -2.47051 -3.36683 0
M  V30 5762 N 536.55 0.480323 -1.50102 0
M  V30 5763 C 537.796 1.23489 -1.60867 0
M  V30 5764 C 538.129 1.91809 -0.303827 0
M  V30 5765 O 537.404 1.81694 0.694092 0
M  V30 5766 C 537.687 2.28578 -2.78252 0
M  V30 5767 C 537.54 1.64624 -4.18592 0
M  V30 5768 C 538.859 3.2997 -2.91218 0
M  V30 5769 H 535.978 0.447605 -0.585507 0
M  V30 5770 H 538.62 0.530005 -1.82458 0
M  V30 5771 H 536.77 2.88697 -2.59974 0
M  V30 5772 H 538.442 1.08173 -4.48438 0
M  V30 5773 H 536.685 0.949645 -4.23278 0
M  V30 5774 H 537.356 2.40946 -4.96638 0
M  V30 5775 H 539.832 2.79864 -3.07921 0
M  V30 5776 H 538.708 4.00839 -3.74993 0
M  V30 5777 H 538.969 3.93541 -2.0144 0
M  V30 5778 N 538.028 1.39524 0.732853 0
M  V30 5779 C 539.277 1.36175 1.48792 0
M  V30 5780 C 539.59 -0.0388195 1.95561 0
M  V30 5781 O 540.796 -0.194899 2.708 0
M  V30 5782 C 539.252 2.39242 2.68871 0
M  V30 5783 C 538.86 3.85024 2.29042 0
M  V30 5784 C 540.604 2.44972 3.46683 0
M  V30 5785 C 538.511 4.79727 3.45856 0
M  V30 5786 H 537.441 0.506267 0.558757 0
M  V30 5787 H 540.092 1.65181 0.799226 0
M  V30 5788 H 538.474 2.0331 3.39825 0
M  V30 5789 H 539.648 4.30008 1.6562 0
M  V30 5790 H 537.963 3.82609 1.64316 0
M  V30 5791 H 540.56 3.12918 4.33574 0
M  V30 5792 H 540.903 1.4749 3.89297 0
M  V30 5793 H 541.436 2.79808 2.82759 0
M  V30 5794 H 538.175 5.78479 3.08289 0
M  V30 5795 H 537.695 4.39421 4.08251 0
M  V30 5796 H 539.374 4.98731 4.12161 0
M  V30 5797 N 539.506 -0.963266 1.24736 0
M  V30 5798 C 540.731 -1.74699 1.11781 0
M  V30 5799 C 541.156 -1.85267 -0.325258 0
M  V30 5800 O 540.514 -1.32681 -1.23553 0
M  V30 5801 C 540.562 -3.14322 1.76731 0
M  V30 5802 O 539.666 -3.99043 1.04109 0
M  V30 5803 H 539.007 -0.53684 0.390767 0
M  V30 5804 H 541.537 -1.20801 1.65131 0
M  V30 5805 H 541.547 -3.64824 1.82668 0
M  V30 5806 H 540.222 -3.05946 2.81726 0
M  V30 5807 H 538.799 -3.5752 1.05991 0
M  V30 5808 N 540.985 -1.06182 -1.16461 0
M  V30 5809 C 541.918 -0.615859 -2.19733 0
M  V30 5810 C 542.896 0.360766 -1.58547 0
M  V30 5811 O 544.08 0.270009 -1.86556 0
M  V30 5812 C 541.207 0.097312 -3.3856 0
M  V30 5813 C 540.253 -0.835889 -4.18229 0
M  V30 5814 S 541.086 -2.33052 -4.82128 0
M  V30 5815 C 542.242 -1.62881 -6.04335 0
M  V30 5816 H 542.475 -1.49079 -2.57221 0
M  V30 5817 H 540.008 -0.874692 -1.27234 0
M  V30 5818 H 541.966 0.502563 -4.07412 0
M  V30 5819 H 540.627 0.948418 -2.99439 0
M  V30 5820 H 539.82 -0.283426 -5.03202 0
M  V30 5821 H 539.422 -1.18097 -3.54865 0
M  V30 5822 H 541.714 -0.933764 -6.71034 0
M  V30 5823 H 542.657 -2.45641 -6.64128 0
M  V30 5824 H 543.065 -1.11189 -5.53441 0
M  V30 5825 N 542.463 1.3308 -0.844243 0
M  V30 5826 C 543.691 2.01808 -0.456203 0
M  V30 5827 C 544.106 1.63498 0.944131 0
M  V30 5828 O 543.463 0.85102 1.61443 0
M  V30 5829 C 543.514 3.56922 -0.573513 0
M  V30 5830 O 543.235 3.93851 -1.91868 0
M  V30 5831 C 544.736 4.42922 -0.183125 0
M  V30 5832 H 541.956 0.646273 -0.180477 0
M  V30 5833 H 544.5 1.69891 -1.1383 0
M  V30 5834 H 542.655 3.87352 0.0607367 0
M  V30 5835 H 543.069 4.88564 -1.90802 0
M  V30 5836 H 544.543 5.51093 -0.316241 0
M  V30 5837 H 545.02 4.30386 0.875477 0
M  V30 5838 H 545.626 4.1786 -0.792027 0
M  V30 5839 N 543.941 0.601185 1.45683 0
M  V30 5840 C 545.169 0.100054 2.06658 0
M  V30 5841 C 545.584 -1.21285 1.44691 0
M  V30 5842 O 544.941 -1.73735 0.558772 0
M  V30 5843 C 544.992 -0.0528579 3.61461 0
M  V30 5844 O 544.713 1.20809 4.21114 0
M  V30 5845 C 546.214 -0.586193 4.39407 0
M  V30 5846 H 543.434 0.065905 0.667756 0
M  V30 5847 H 545.978 0.827101 1.87028 0
M  V30 5848 H 544.133 -0.730203 3.80456 0
M  V30 5849 H 544.547 1.03368 5.14213 0
M  V30 5850 H 546.021 -0.642297 5.4825 0
M  V30 5851 H 546.498 -1.60713 4.0874 0
M  V30 5852 H 547.104 0.0568935 4.25262 0
M  V30 5853 N 545.419 -1.53889 0.339982 0
M  V30 5854 C 546.665 -2.01152 -0.258003 0
M  V30 5855 C 546.998 -1.22749 -1.50487 0
M  V30 5856 O 546.273 -0.314156 -1.91946 0
M  V30 5857 C 546.556 -3.55468 -0.575717 0
M  V30 5858 C 546.409 -4.44584 0.682996 0
M  V30 5859 C 547.728 -4.1768 -1.38677 0
M  V30 5860 H 544.847 -0.731198 -0.0922992 0
M  V30 5861 H 547.489 -1.84352 0.459814 0
M  V30 5862 H 545.639 -3.69914 -1.18725 0
M  V30 5863 H 547.311 -4.41981 1.32102 0
M  V30 5864 H 545.554 -4.13592 1.3086 0
M  V30 5865 H 546.225 -5.5043 0.416001 0
M  V30 5866 H 548.701 -4.0691 -0.869705 0
M  V30 5867 H 547.577 -5.25734 -1.57783 0
M  V30 5868 H 547.838 -3.72069 -2.38782 0
M  V30 5869 N 546.897 -0.0685191 -1.57451 0
M  V30 5870 C 548.145 0.60016 -1.92983 0
M  V30 5871 C 548.466 1.70348 -0.949028 0
M  V30 5872 O 547.736 1.959 0.00335647 0
M  V30 5873 H 546.316 0.224682 -0.712409 0
M  V30 5874 H 548.978 -0.125605 -1.94495 0
M  V30 5875 H 548.074 1.02759 -2.94698 0
M  V30 5876 N 548.375 1.56261 0.205012 0
M  V30 5877 C 549.605 1.83874 0.942018 0
M  V30 5878 C 550.013 0.647595 1.77772 0
M  V30 5879 O 549.356 -0.393098 1.79445 0
M  V30 5880 C 549.418 3.05453 1.89575 0
M  V30 5881 C 549.082 4.39772 1.24296 0
M  V30 5882 C 550.079 5.16133 0.624724 0
M  V30 5883 C 547.764 4.86504 1.24978 0
M  V30 5884 C 549.758 6.37396 0.0220117 0
M  V30 5885 C 547.445 6.07705 0.643232 0
M  V30 5886 C 548.443 6.82993 0.0304164 0
M  V30 5887 O 548.131 8.019 -0.566654 0
M  V30 5888 H 547.863 0.614896 0.280854 0
M  V30 5889 H 550.417 2.04215 0.220285 0
M  V30 5890 H 548.647 2.80972 2.65691 0
M  V30 5891 H 550.336 3.19797 2.4997 0
M  V30 5892 H 551.102 4.81127 0.611666 0
M  V30 5893 H 546.981 4.27865 1.71616 0
M  V30 5894 H 550.525 6.96102 -0.456926 0
M  V30 5895 H 546.422 6.42181 0.653759 0
M  V30 5896 H 547.19 8.17192 -0.462588 0
M  V30 5897 N 549.853 -0.472356 1.50355 0
M  V30 5898 C 551.101 -1.22211 1.60962 0
M  V30 5899 C 551.422 -1.92497 0.311439 0
M  V30 5900 O 550.692 -1.8405 -0.671002 0
M  V30 5901 H 549.272 -0.454092 0.593135 0
M  V30 5902 H 551.934 -0.544977 1.87126 0
M  V30 5903 H 551.03 -1.9707 2.42012 0
M  V30 5904 N 551.331 -1.39911 -0.725443 0
M  V30 5905 C 552.608 -1.28158 -1.47766 0
M  V30 5906 C 552.988 0.104545 -2.10841 0
M  V30 5907 O 552.336 1.11657 -1.99361 0
M  V30 5908 C 552.546 -2.41306 -2.52135 0
M  V30 5909 C 553.894 -2.81076 -3.18247 0
M  V30 5910 O 554.918 -2.40827 -2.62452 0
M  V30 5911 O 553.777 -3.50581 -4.19231 0
M  V30 5912 H 550.871 -0.502761 -0.656628 0
M  V30 5913 H 553.417 -1.51808 -0.758456 0
M  V30 5914 H 552.189 -3.33932 -2.03974 0
M  V30 5915 H 551.812 -2.19374 -3.31603 0
M  V30 5916 N 552.809 0.956637 -1.25245 0
M  V30 5917 C 553.742 2.05232 -0.99775 0
M  V30 5918 C 554.72 1.62439 0.0723137 0
M  V30 5919 O 555.904 1.88381 -0.066926 0
M  V30 5920 C 553.031 3.34871 -0.507861 0
M  V30 5921 C 552.077 3.96625 -1.56815 0
M  V30 5922 S 552.91 4.32853 -3.15276 0
M  V30 5923 C 554.066 5.65613 -2.68017 0
M  V30 5924 H 554.299 2.26521 -1.9255 0
M  V30 5925 H 551.832 1.09601 -1.08752 0
M  V30 5926 H 553.79 4.09845 -0.231858 0
M  V30 5927 H 552.451 3.11551 0.399356 0
M  V30 5928 H 551.644 4.90087 -1.17604 0
M  V30 5929 H 551.246 3.28124 -1.79473 0
M  V30 5930 H 553.538 6.43635 -2.11518 0
M  V30 5931 H 554.481 6.09693 -3.60112 0
M  V30 5932 H 554.889 5.24751 -2.0808 0
M  V30 5933 N 554.287 1.06798 1.15896 0
M  V30 5934 C 555.533 0.788934 1.86825 0
M  V30 5935 C 555.866 -0.683084 1.8179 0
M  V30 5936 O 555.141 -1.50086 1.23711 0
M  V30 5937 C 555.424 1.29065 3.36176 0
M  V30 5938 C 555.277 2.8268 3.49874 0
M  V30 5939 C 556.596 0.902655 4.30744 0
M  V30 5940 H 553.715 0.288066 0.678371 0
M  V30 5941 H 556.357 1.32479 1.36195 0
M  V30 5942 H 554.507 0.834806 3.79425 0
M  V30 5943 H 556.179 3.36511 3.15528 0
M  V30 5944 H 554.422 3.21157 2.91617 0
M  V30 5945 H 555.093 3.12852 4.54783 0
M  V30 5946 H 557.569 1.29535 3.95424 0
M  V30 5947 H 556.445 1.28111 5.3374 0
M  V30 5948 H 556.706 -0.191951 4.41683 0
M  V30 5949 N 555.766 -1.3263 0.851289 0
M  V30 5950 C 557.177 -1.79653 0.5081 0
M  V30 5951 C 557.528 -1.70327 -0.973815 0
M  V30 5952 O 556.653 -1.25986 -1.75944 0
M  V30 5953 C 557.248 -3.26196 0.915515 0
M  V30 5954 C 555.807 -3.71187 0.624277 0
M  V30 5955 C 554.954 -2.53804 1.11709 0
M  V30 5956 H 557.905 -1.19976 1.03882 0
M  V30 5957 H 557.926 -3.79801 0.230535 0
M  V30 5958 H 557.438 -3.32952 1.99411 0
M  V30 5959 H 555.539 -3.69948 -0.443737 0
M  V30 5960 H 555.652 -4.64132 1.18821 0
M  V30 5961 H 554.016 -2.48964 0.537484 0
M  V30 5962 H 554.799 -2.63315 2.20272 0
M  V30 5963 N 557.244 -0.608902 -1.45362 0
M  V30 5964 C 558.66 -0.272659 -1.57254 0
M  V30 5965 C 558.86 1.22477 -1.60005 0
M  V30 5966 O 557.916 2.00785 -1.53106 0
M  V30 5967 C 559.229 -0.944991 -2.85465 0
M  V30 5968 C 560.777 -0.921033 -2.99142 0
M  V30 5969 C 561.252 -1.5734 -4.30126 0
M  V30 5970 N 562.743 -1.53895 -4.36887 0
M  V30 5971 C 563.478 -2.01286 -5.36909 0
M  V30 5972 N 562.974 -2.56768 -6.43461 0
M  V30 5973 N 564.767 -1.92046 -5.28275 0
M  V30 5974 H 556.918 -1.58117 -1.4182 0
M  V30 5975 H 559.181 -0.662437 -0.678146 0
M  V30 5976 H 558.887 -1.99941 -2.89338 0
M  V30 5977 H 558.761 -0.469079 -3.74272 0
M  V30 5978 H 561.148 0.124846 -2.94836 0
M  V30 5979 H 561.229 -1.43522 -2.11743 0
M  V30 5980 H 560.873 -2.61862 -4.35191 0
M  V30 5981 H 560.803 -1.03422 -5.16344 0
M  V30 5982 H 563.294 -1.13366 -3.60495 0
M  V30 5983 H 563.607 -2.9072 -7.16032 0
M  V30 5984 H 561.952 -2.60808 -6.44208 0
M  V30 5985 H 565.143 -1.48439 -4.43941 0
M  V30 5986 H 565.316 -2.29293 -6.06077 0
M  V30 5987 N 558.722 1.53707 -0.348139 0
M  V30 5988 C 559.947 2.05877 0.250883 0
M  V30 5989 C 560.372 1.22115 1.43072 0
M  V30 5990 O 559.73 0.235986 1.79758 0
M  V30 5991 C 559.778 3.54886 0.639416 0
M  V30 5992 O 558.882 3.73948 1.73888 0
M  V30 5993 H 558.223 0.662754 0.040653 0
M  V30 5994 H 560.753 1.98303 -0.503685 0
M  V30 5995 H 560.763 3.97601 0.915295 0
M  V30 5996 H 559.438 4.153 -0.223386 0
M  V30 5997 H 558.015 3.43134 1.45991 0
M  V30 5998 N 560.2 0.0768682 1.57412 0
M  V30 5999 C 561.13 -0.886026 2.16037 0
M  V30 6000 C 562.111 -1.30691 1.08876 0
M  V30 6001 O 563.296 -1.37705 1.36934 0
M  V30 6002 C 560.426 -2.1518 2.72608 0
M  V30 6003 C 559.38 -1.87015 3.8498 0
M  V30 6004 C 558.706 -3.20266 4.28175 0
M  V30 6005 C 560.006 -1.17143 5.08994 0
M  V30 6006 H 561.7 -0.397642 2.96748 0
M  V30 6007 H 559.246 -0.189823 1.42743 0
M  V30 6008 H 561.199 -2.82962 3.12266 0
M  V30 6009 H 559.923 -2.66269 1.89125 0
M  V30 6010 H 558.582 -1.21636 3.45833 0
M  V30 6011 H 558.23 -3.69207 3.41607 0
M  V30 6012 H 557.93 -3.0221 5.03927 0
M  V30 6013 H 559.454 -3.89237 4.70454 0
M  V30 6014 H 560.868 -1.75003 5.45937 0
M  V30 6015 H 559.265 -1.09328 5.90057 0
M  V30 6016 H 560.335 -0.151295 4.84664 0
M  V30 6017 N 561.678 -1.56367 -0.196722 0
M  V30 6018 C 563.089 -1.70462 -0.761545 0
M  V30 6019 C 563.44 -0.683161 -1.83922 0
M  V30 6020 O 562.565 0.160753 -2.15802 0
M  V30 6021 C 563.16 -3.09057 -1.38814 0
M  V30 6022 C 561.719 -3.24922 -1.90007 0
M  V30 6023 C 560.866 -2.66412 -0.769399 0
M  V30 6024 H 563.817 -1.58675 0.0283263 0
M  V30 6025 H 563.838 -3.06296 -2.2575 0
M  V30 6026 H 563.35 -3.83378 -0.603559 0
M  V30 6027 H 561.451 -2.55514 -2.71189 0
M  V30 6028 H 561.564 -4.3241 -2.06297 0
M  V30 6029 H 559.928 -2.25546 -1.18326 0
M  V30 6030 H 560.711 -3.433 0.00291773 0
M  V30 6031 N 563.156 0.464375 -1.50603 0
M  V30 6032 C 564.404 1.21356 -1.61608 0
M  V30 6033 C 564.725 1.92329 -0.321643 0
M  V30 6034 O 563.995 1.84403 0.661232 0
M  V30 6035 H 562.575 0.45094 -0.595535 0
M  V30 6036 H 565.237 0.535046 -1.87412 0
M  V30 6037 H 564.333 1.95783 -2.43054 0
M  V30 6038 N 564.634 1.40294 0.718013 0
M  V30 6039 C 565.566 1.36281 1.84283 0
M  V30 6040 C 566.579 0.268621 1.60569 0
M  V30 6041 O 567.768 0.528798 1.70487 0
M  V30 6042 C 564.868 1.09741 3.2064 0
M  V30 6043 C 564.041 2.30767 3.71571 0
M  V30 6044 C 563.1 2.00424 4.86535 0
M  V30 6045 O 562.126 2.73268 4.99313 0
M  V30 6046 N 563.328 0.980724 5.72156 0
M  V30 6047 H 566.093 2.3322 1.88225 0
M  V30 6048 H 563.654 1.34616 0.899453 0
M  V30 6049 H 565.646 0.874322 3.95143 0
M  V30 6050 H 564.216 0.214771 3.11861 0
M  V30 6051 H 563.436 2.68921 2.88228 0
M  V30 6052 H 564.724 3.11455 4.02335 0
M  V30 6053 H 564.122 0.377375 5.6444 0
M  V30 6054 H 562.679 0.817538 6.46653 0
M  V30 6055 N 566.112 -0.949982 1.2575 0
M  V30 6056 C 567.358 -1.69766 1.10938 0
M  V30 6057 C 567.691 -1.91056 -0.348028 0
M  V30 6058 O 566.966 -1.48488 -1.25625 0
M  V30 6059 C 567.249 -3.07779 1.86933 0
M  V30 6060 C 567.102 -2.9387 3.4053 0
M  V30 6061 C 568.421 -4.07749 1.65616 0
M  V30 6062 H 565.54 -0.616144 0.404396 0
M  V30 6063 H 568.182 -1.10394 1.54639 0
M  V30 6064 H 566.332 -3.58462 1.4979 0
M  V30 6065 H 568.004 -2.50476 3.87375 0
M  V30 6066 H 566.247 -2.29686 3.68004 0
M  V30 6067 H 566.918 -3.91719 3.88922 0
M  V30 6068 H 569.394 -3.65994 1.97959 0
M  V30 6069 H 568.27 -5.02348 2.21218 0
M  V30 6070 H 568.531 -4.38029 0.598595 0
M  V30 6071 N 567.59 -1.07411 -1.15328 0
M  V30 6072 C 568.836 -0.798831 -1.86404 0
M  V30 6073 C 569.169 0.673433 -1.8215 0
M  V30 6074 O 568.444 1.49428 -1.24505 0
M  V30 6075 C 568.727 -1.30846 -3.35487 0
M  V30 6076 C 568.58 -2.84532 -3.4837 0
M  V30 6077 C 569.899 -0.925486 -4.30259 0
M  V30 6078 H 567.018 -0.291659 -0.676834 0
M  V30 6079 H 569.66 -1.332 -1.35491 0
M  V30 6080 H 567.81 -0.854916 -3.78977 0
M  V30 6081 H 569.482 -3.3818 -3.13739 0
M  V30 6082 H 567.725 -3.22699 -2.8991 0
M  V30 6083 H 568.396 -3.15259 -4.53118 0
M  V30 6084 H 570.872 -1.3163 -3.94731 0
M  V30 6085 H 569.748 -1.3094 -5.33053 0
M  V30 6086 H 570.009 0.168525 -4.41779 0
M  V30 6087 N 569.068 1.32177 -0.85831 0
M  V30 6088 C 570.031 2.27086 -0.310588 0
M  V30 6089 C 571.031 1.51751 0.531806 0
M  V30 6090 O 572.221 1.70794 0.34279 0
M  V30 6091 C 569.353 3.36266 0.560179 0
M  V30 6092 H 570.546 2.77045 -1.1483 0
M  V30 6093 H 568.099 1.42911 -0.632942 0
M  V30 6094 H 568.834 2.9158 1.41956 0
M  V30 6095 H 568.619 3.92077 -0.0428473 0
M  V30 6096 H 570.109 4.06974 0.936056 0
M  V30 6097 N 570.547 0.616602 1.45037 0
M  V30 6098 C 571.477 -0.0840787 2.33349 0
M  V30 6099 C 572.458 -0.849641 1.4736 0
M  V30 6100 O 573.643 -0.818407 1.76113 0
M  V30 6101 C 570.773 -1.07604 3.3021 0
M  V30 6102 C 569.727 -0.423096 4.25904 0
M  V30 6103 C 569.053 -1.52394 5.12523 0
M  V30 6104 C 570.353 0.661457 5.18095 0
M  V30 6105 H 572.047 0.653333 2.92185 0
M  V30 6106 H 569.593 0.315634 1.40498 0
M  V30 6107 H 571.546 -1.57485 3.90866 0
M  V30 6108 H 570.27 -1.84416 2.69552 0
M  V30 6109 H 568.929 0.05493 3.66559 0
M  V30 6110 H 568.577 -2.28257 4.48227 0
M  V30 6111 H 568.277 -1.09251 5.77354 0
M  V30 6112 H 569.801 -2.02485 5.76049 0
M  V30 6113 H 571.215 0.246353 5.7277 0
M  V30 6114 H 569.612 1.01517 5.91451 0
M  V30 6115 H 570.682 1.53446 4.59981 0
M  V30 6116 N 572.025 -1.5352 0.356285 0
M  V30 6117 C 573.25 -2.06007 -0.239961 0
M  V30 6118 C 573.675 -1.22872 -1.42422 0
M  V30 6119 O 573.033 -0.245516 -1.7963 0
M  V30 6120 C 573.081 -3.5522 -0.620587 0
M  V30 6121 O 572.185 -3.74864 -1.71902 0
M  V30 6122 H 571.526 -0.662961 -0.0371377 0
M  V30 6123 H 574.056 -1.98033 0.514194 0
M  V30 6124 H 574.066 -3.98081 -0.894197 0
M  V30 6125 H 572.741 -4.15175 0.245407 0
M  V30 6126 H 571.318 -3.43904 -1.44169 0
M  V30 6127 N 573.503 -0.0852151 -1.57369 0
M  V30 6128 C 574.728 0.592872 -1.98746 0
M  V30 6129 C 575.153 1.61538 -0.963689 0
M  V30 6130 O 574.511 1.81168 0.069071 0
M  V30 6131 C 574.559 1.22599 -3.39119 0
M  V30 6132 O 573.663 2.34185 -3.39457 0
M  V30 6133 H 573.004 0.151314 -0.646529 0
M  V30 6134 H 575.534 -0.163703 -2.03944 0
M  V30 6135 H 575.544 1.56965 -3.76598 0
M  V30 6136 H 574.219 0.476831 -4.13158 0
M  V30 6137 H 572.796 2.01512 -3.13763 0
M  V30 6138 N 574.981 1.5647 0.188427 0
M  V30 6139 C 576.23 1.80207 0.905995 0
M  V30 6140 C 576.543 0.659579 1.84144 0
M  V30 6141 O 577.749 0.781431 2.60011 0
M  V30 6142 C 576.205 3.19255 1.66145 0
M  V30 6143 C 575.813 4.41324 0.770504 0
M  V30 6144 C 577.557 3.52298 2.36826 0
M  V30 6145 C 575.464 5.71394 1.52521 0
M  V30 6146 H 574.394 0.671953 0.342045 0
M  V30 6147 H 577.045 1.82808 0.159164 0
M  V30 6148 H 575.427 3.10922 2.45242 0
M  V30 6149 H 576.601 4.60797 0.0177261 0
M  V30 6150 H 574.916 4.16035 0.174199 0
M  V30 6151 H 577.513 4.46715 2.93854 0
M  V30 6152 H 577.856 2.76359 3.11338 0
M  V30 6153 H 578.389 3.62108 1.6469 0
M  V30 6154 H 575.128 6.50316 0.82275 0
M  V30 6155 H 574.648 5.55928 2.25175 0
M  V30 6156 H 576.327 6.12747 2.07725 0
M  V30 6157 N 576.459 -0.456382 1.50847 0
M  V30 6158 C 577.389 -1.56025 1.73719 0
M  V30 6159 C 578.37 -1.5967 0.586473 0
M  V30 6160 O 579.555 -1.75702 0.827185 0
M  V30 6161 C 576.685 -2.94251 1.84483 0
M  V30 6162 C 575.639 -3.05471 2.99786 0
M  V30 6163 C 574.965 -4.45489 2.95709 0
M  V30 6164 C 576.265 -2.81318 4.40065 0
M  V30 6165 H 577.959 -1.37138 2.66146 0
M  V30 6166 H 575.505 -0.658299 1.28072 0
M  V30 6167 H 577.458 -3.71417 1.99067 0
M  V30 6168 H 576.182 -3.14328 0.886891 0
M  V30 6169 H 574.841 -2.30741 2.84876 0
M  V30 6170 H 574.489 -4.62505 1.97732 0
M  V30 6171 H 574.189 -4.53929 3.73125 0
M  V30 6172 H 575.713 -5.24655 3.12362 0
M  V30 6173 H 577.127 -3.48226 4.55425 0
M  V30 6174 H 575.524 -3.01188 5.19043 0
M  V30 6175 H 576.594 -1.7706 4.51418 0
M  V30 6176 N 577.937 -1.40673 -0.710563 0
M  V30 6177 C 579.162 -1.42741 -1.50465 0
M  V30 6178 C 579.587 -0.0302116 -1.88076 0
M  V30 6179 O 578.945 0.962945 -1.53613 0
M  V30 6180 C 578.993 -2.32873 -2.75322 0
M  V30 6181 O 578.097 -1.77544 -3.72226 0
M  V30 6182 H 577.438 -0.485056 -0.45345 0
M  V30 6183 H 579.968 -1.84961 -0.874681 0
M  V30 6184 H 579.978 -2.48233 -3.23797 0
M  V30 6185 H 578.653 -3.34401 -2.47283 0
M  V30 6186 H 577.23 -1.71556 -3.31093 0
M  V30 6187 N 579.415 0.9433 -1.26252 0
M  V30 6188 C 580.663 1.68592 -1.11451 0
M  V30 6189 C 580.984 1.91957 0.343123 0
M  V30 6190 O 580.254 1.51475 1.24226 0
M  V30 6191 H 578.834 0.624789 -0.409448 0
M  V30 6192 H 581.496 1.13351 -1.58548 0
M  V30 6193 H 580.592 2.66054 -1.63162 0
M  V30 6194 N 580.893 1.08022 1.14757 0
M  V30 6195 C 582.142 0.802468 1.8505 0
M  V30 6196 C 582.455 -0.674061 1.83619 0
M  V30 6197 O 583.661 -1.06683 2.49662 0
M  V30 6198 C 582.117 1.38551 3.32162 0
M  V30 6199 C 581.725 2.89354 3.42021 0
M  V30 6200 C 583.469 1.18608 4.07594 0
M  V30 6201 C 581.376 3.40815 4.83321 0
M  V30 6202 H 580.306 0.296518 0.693248 0
M  V30 6203 H 582.957 1.30114 1.29393 0
M  V30 6204 H 581.339 0.814556 3.87532 0
M  V30 6205 H 582.513 3.52552 2.96722 0
M  V30 6206 H 580.828 3.08165 2.80041 0
M  V30 6207 H 583.425 1.54525 5.11885 0
M  V30 6208 H 583.768 0.125599 4.1611 0
M  V30 6209 H 584.301 1.72375 3.58513 0
M  V30 6210 H 581.04 4.46418 4.79991 0
M  V30 6211 H 580.56 2.82374 5.29174 0
M  V30 6212 H 582.239 3.37171 5.522 0
M  V30 6213 N 582.371 -1.3172 0.865308 0
M  V30 6214 C 583.301 -2.31109 0.333302 0
M  V30 6215 C 584.282 -1.60148 -0.573301 0
M  V30 6216 O 585.467 -1.87882 -0.491305 0
M  V30 6217 C 582.597 -3.44104 -0.470078 0
M  V30 6218 C 581.551 -4.26623 0.343021 0
M  V30 6219 C 580.877 -5.31482 -0.585756 0
M  V30 6220 C 582.177 -4.98001 1.57456 0
M  V30 6221 H 583.871 -2.75855 1.1638 0
M  V30 6222 H 581.417 -1.3262 0.561069 0
M  V30 6223 H 583.37 -4.12682 -0.852752 0
M  V30 6224 H 582.094 -2.98112 -1.33404 0
M  V30 6225 H 580.753 -3.59707 0.707583 0
M  V30 6226 H 580.401 -4.81741 -1.44686 0
M  V30 6227 H 580.101 -5.87582 -0.0456494 0
M  V30 6228 H 581.625 -6.0292 -0.965375 0
M  V30 6229 H 583.039 -5.59201 1.26359 0
M  V30 6230 H 581.436 -5.63876 2.05339 0
M  V30 6231 H 582.506 -4.25253 2.32997 0
M  V30 6232 N 583.85 -0.624285 -1.44708 0
M  V30 6233 C 584.779 0.0717025 -2.3339 0
M  V30 6234 C 585.76 0.841814 -1.47809 0
M  V30 6235 O 586.946 0.809056 -1.76544 0
M  V30 6236 C 584.076 1.05852 -3.30776 0
M  V30 6237 C 583.029 0.400503 -4.26122 0
M  V30 6238 C 582.356 1.49674 -5.13324 0
M  V30 6239 C 583.656 -0.688924 -5.17737 0
M  V30 6240 H 585.35 -0.668819 -2.91834 0
M  V30 6241 H 582.896 -0.32308 -1.40329 0
M  V30 6242 H 584.849 1.5541 -3.91696 0
M  V30 6243 H 583.572 1.82984 -2.70526 0
M  V30 6244 H 582.231 -0.0743687 -3.66525 0
M  V30 6245 H 581.88 2.25877 -4.49431 0
M  V30 6246 H 581.58 1.06188 -5.77926 0
M  V30 6247 H 583.104 1.99427 -5.77115 0
M  V30 6248 H 584.518 -0.276724 -5.72632 0
M  V30 6249 H 582.915 -1.04652 -5.90904 0
M  V30 6250 H 583.985 -1.55884 -4.5916 0
M  V30 6251 N 585.328 1.53329 -0.364422 0
M  V30 6252 C 586.261 2.22052 0.526145 0
M  V30 6253 C 587.239 1.21203 1.08391 0
M  V30 6254 O 588.423 1.50101 1.14026 0
M  V30 6255 C 585.55 2.91432 1.72583 0
M  V30 6256 C 584.596 4.06345 1.29562 0
M  V30 6257 S 585.429 5.34671 0.297885 0
M  V30 6258 C 586.585 6.07563 1.50392 0
M  V30 6259 H 586.818 2.97244 -0.0575055 0
M  V30 6260 H 584.351 1.53684 -0.148525 0
M  V30 6261 H 586.309 3.3202 2.41398 0
M  V30 6262 H 584.97 2.15966 2.28073 0
M  V30 6263 H 584.163 4.53901 2.19067 0
M  V30 6264 H 583.765 3.67642 0.686696 0
M  V30 6265 H 586.057 6.32224 2.43513 0
M  V30 6266 H 587 6.99973 1.06977 0
M  V30 6267 H 587.408 5.37994 1.70945 0
M  V30 6268 N 586.806 0.0935595 1.57322 0
M  V30 6269 C 587.769 -0.851426 2.12799 0
M  V30 6270 C 588.769 -1.21187 1.0569 0
M  V30 6271 O 589.959 -1.14156 1.31583 0
M  V30 6272 C 587.091 -2.14779 2.64731 0
M  V30 6273 H 588.284 -0.369733 2.97612 0
M  V30 6274 H 585.837 -0.155417 1.55525 0
M  V30 6275 H 586.572 -2.67437 1.83434 0
M  V30 6276 H 586.357 -1.89907 3.43042 0
M  V30 6277 H 587.847 -2.82383 3.07651 0
M  V30 6278 N 588.284 -1.56567 -0.180126 0
M  V30 6279 C 589.531 -1.81492 -0.898167 0
M  V30 6280 C 589.859 -0.669225 -1.82624 0
M  V30 6281 O 589.114 0.344096 -1.92651 0
M  V30 6282 C 589.413 -3.1252 -1.73395 0
M  V30 6283 C 589.079 -4.40658 -0.955567 0
M  V30 6284 C 587.741 -4.75465 -0.740707 0
M  V30 6285 C 590.093 -5.19593 -0.408948 0
M  V30 6286 C 587.421 -5.86691 0.0320128 0
M  V30 6287 C 589.773 -6.31627 0.350638 0
M  V30 6288 C 588.437 -6.65007 0.576378 0
M  V30 6289 H 587.707 -0.664125 -0.328662 0
M  V30 6290 H 590.354 -1.908 -0.163616 0
M  V30 6291 H 588.659 -2.98515 -2.53763 0
M  V30 6292 H 590.356 -3.29013 -2.29241 0
M  V30 6293 H 586.946 -4.13352 -1.13306 0
M  V30 6294 H 591.13 -4.93104 -0.562307 0
M  V30 6295 H 586.386 -6.11016 0.216735 0
M  V30 6296 H 590.56 -6.92001 0.781497 0
M  V30 6297 H 588.187 -7.51033 1.17703 0
M  V30 6298 N 589.762 0.448376 -1.51087 0
M  V30 6299 C 591.173 1.0286 -1.5581 0
M  V30 6300 C 591.524 1.92583 -0.374989 0
M  V30 6301 O 590.649 2.10316 0.509533 0
M  V30 6302 C 591.244 1.87223 -2.8237 0
M  V30 6303 C 589.803 2.40314 -2.897 0
M  V30 6304 C 588.95 1.19238 -2.50355 0
M  V30 6305 H 591.901 0.230075 -1.57023 0
M  V30 6306 H 591.922 2.72553 -2.6551 0
M  V30 6307 H 591.434 1.21894 -3.68461 0
M  V30 6308 H 589.535 3.09129 -2.08014 0
M  V30 6309 H 589.648 2.73866 -3.93108 0
M  V30 6310 H 588.012 1.53428 -2.03303 0
M  V30 6311 H 588.795 0.555367 -3.38778 0
M  V30 6312 N 591.24 1.41047 0.703093 0
M  V30 6313 C 592.486 1.40207 1.46526 0
M  V30 6314 C 592.819 0.00847763 1.94198 0
M  V30 6315 O 592.094 -0.962437 1.69019 0
M  V30 6316 C 592.377 2.40238 2.6825 0
M  V30 6317 C 592.23 3.88674 2.26391 0
M  V30 6318 C 593.549 2.37627 3.70434 0
M  V30 6319 H 590.668 0.510594 0.531472 0
M  V30 6320 H 593.31 1.72271 0.801422 0
M  V30 6321 H 591.46 2.13026 3.24888 0
M  V30 6322 H 593.132 4.2676 1.75138 0
M  V30 6323 H 591.375 4.03903 1.58255 0
M  V30 6324 H 592.046 4.542 3.13698 0
M  V30 6325 H 594.522 2.61759 3.23452 0
M  V30 6326 H 593.398 3.09645 4.53223 0
M  V30 6327 H 593.659 1.39223 4.19606 0
M  V30 6328 N 592.718 -0.936591 1.26751 0
M  V30 6329 C 593.946 -1.71758 1.15355 0
M  V30 6330 C 594.361 -1.86549 -0.290683 0
M  V30 6331 O 593.718 -1.37616 -1.19868 0
M  V30 6332 C 593.769 -3.12193 1.82258 0
M  V30 6333 O 593.49 -2.98105 3.21038 0
M  V30 6334 C 594.991 -4.06485 1.76875 0
M  V30 6335 H 592.211 -0.537636 0.401483 0
M  V30 6336 H 594.755 -1.17382 1.67457 0
M  V30 6337 H 592.91 -3.63456 1.34083 0
M  V30 6338 H 593.324 -3.86824 3.54214 0
M  V30 6339 H 594.798 -5.02569 2.28316 0
M  V30 6340 H 595.275 -4.32986 0.736216 0
M  V30 6341 H 595.881 -3.61144 2.24623 0
M  V30 6342 N 594.196 -1.08629 -1.14182 0
M  V30 6343 C 595.421 -0.83902 -1.89671 0
M  V30 6344 C 595.846 0.603332 -1.78161 0
M  V30 6345 O 595.204 1.42301 -1.12339 0
M  V30 6346 C 595.252 -1.26854 -3.37551 0
M  V30 6347 O 594.356 -0.42188 -4.10236 0
M  V30 6348 H 593.697 -0.304545 -0.590041 0
M  V30 6349 H 596.227 -1.4483 -1.44518 0
M  V30 6350 H 596.237 -1.25038 -3.88368 0
M  V30 6351 H 594.912 -2.31901 -3.45246 0
M  V30 6352 H 593.489 -0.503654 -3.69483 0
M  V30 6353 N 595.674 1.31259 -0.872281 0
M  V30 6354 C 596.923 1.95893 -0.480493 0
M  V30 6355 C 597.236 1.697 0.972688 0
M  V30 6356 O 598.442 2.28214 1.47073 0
M  V30 6357 C 596.898 3.50705 -0.808342 0
M  V30 6358 C 596.506 3.85735 -2.27844 0
M  V30 6359 C 598.25 4.21719 -0.485136 0
M  V30 6360 C 596.157 5.33668 -2.54858 0
M  V30 6361 H 595.087 0.733182 -0.175955 0
M  V30 6362 H 597.738 1.49396 -1.0655 0
M  V30 6363 H 596.12 3.95706 -0.152558 0
M  V30 6364 H 597.294 3.51686 -2.97748 0
M  V30 6365 H 595.609 3.27792 -2.56791 0
M  V30 6366 H 598.206 5.30559 -0.664166 0
M  V30 6367 H 598.549 4.12316 0.574592 0
M  V30 6368 H 599.082 3.82359 -1.09756 0
M  V30 6369 H 595.821 5.48109 -3.59523 0
M  V30 6370 H 595.341 5.69061 -1.8955 0
M  V30 6371 H 597.02 6.00958 -2.39706 0
M  V30 6372 N 597.152 0.631951 1.44375 0
M  V30 6373 C 598.399 0.136767 2.02038 0
M  V30 6374 C 598.727 -1.24168 1.49709 0
M  V30 6375 O 597.982 -1.83809 0.671763 0
M  V30 6376 C 598.281 0.0735861 3.57324 0
M  V30 6377 C 597.947 1.39092 4.28911 0
M  V30 6378 C 596.609 1.75171 4.48184 0
M  V30 6379 C 598.961 2.26042 4.69632 0
M  V30 6380 C 596.289 2.97907 5.05439 0
M  V30 6381 C 598.641 3.4805 5.28246 0
M  V30 6382 C 597.305 3.84351 5.45738 0
M  V30 6383 H 596.575 0.0500466 0.739308 0
M  V30 6384 H 599.222 0.818429 1.7313 0
M  V30 6385 H 597.527 -0.691449 3.8565 0
M  V30 6386 H 599.224 -0.326091 3.99672 0
M  V30 6387 H 595.814 1.10015 4.1424 0
M  V30 6388 H 599.998 1.99463 4.54454 0
M  V30 6389 H 595.254 3.26108 5.17169 0
M  V30 6390 H 599.428 4.15658 5.5875 0
M  V30 6391 H 597.055 4.79538 5.8987 0
M  V30 6392 N 598.631 -1.53133 0.372548 0
M  V30 6393 C 599.581 -2.22733 -0.487218 0
M  V30 6394 C 600.565 -1.22506 -1.04312 0
M  V30 6395 O 601.757 -1.47923 -0.972005 0
M  V30 6396 C 598.886 -3.02524 -1.62278 0
M  V30 6397 C 597.972 -4.10133 -1.07943 0
M  V30 6398 N 598.363 -5.05133 -0.259629 0
M  V30 6399 C 596.661 -4.24964 -1.35356 0
M  V30 6400 C 597.362 -5.81687 0.0386656 0
M  V30 6401 N 596.338 -5.40699 -0.560827 0
M  V30 6402 H 600.14 -2.93538 0.145853 0
M  V30 6403 H 597.654 -1.61389 0.180938 0
M  V30 6404 H 599.651 -3.50909 -2.25096 0
M  V30 6405 H 598.311 -2.33252 -2.25884 0
M  V30 6406 H 599.322 -5.178 0.101746 0
M  V30 6407 H 595.999 -3.66919 -1.9919 0
M  V30 6408 H 597.389 -6.68224 0.701841 0
M  V30 6409 N 600.109 -0.101901 -1.5727 0
M  V30 6410 C 601.337 0.568392 -1.98939 0
M  V30 6411 C 601.752 1.61301 -0.981194 0
M  V30 6412 O 601.109 1.82478 0.0282869 0
M  V30 6413 C 601.16 1.20997 -3.40649 0
M  V30 6414 O 600.881 0.207129 -4.3761 0
M  V30 6415 C 602.382 1.96523 -3.97358 0
M  V30 6416 H 599.602 0.15186 -0.65359 0
M  V30 6417 H 602.146 -0.183198 -2.03678 0
M  V30 6418 H 600.301 1.91245 -3.36904 0
M  V30 6419 H 600.715 0.671071 -5.20189 0
M  V30 6420 H 602.189 2.36764 -4.98645 0
M  V30 6421 H 602.666 2.83376 -3.35552 0
M  V30 6422 H 603.272 1.31076 -4.04598 0
M  V30 6423 N 601.587 1.56661 0.17182 0
M  V30 6424 C 602.834 1.81965 0.888529 0
M  V30 6425 C 603.162 0.6789 1.82267 0
M  V30 6426 O 602.417 -0.333875 1.92831 0
M  V30 6427 C 602.716 3.13435 1.71736 0
M  V30 6428 C 602.382 4.41159 0.932184 0
M  V30 6429 C 601.044 4.75851 0.715481 0
M  V30 6430 C 603.396 5.19803 0.381387 0
M  V30 6431 C 600.724 5.86666 -0.063126 0
M  V30 6432 C 603.076 6.31433 -0.384129 0
M  V30 6433 C 601.74 6.64692 -0.611637 0
M  V30 6434 H 601.01 0.665859 0.325136 0
M  V30 6435 H 603.657 1.90884 0.153495 0
M  V30 6436 H 601.962 2.99857 2.52177 0
M  V30 6437 H 603.659 3.30224 2.27493 0
M  V30 6438 H 600.249 4.13947 1.11112 0
M  V30 6439 H 604.433 4.93396 0.536148 0
M  V30 6440 H 599.689 6.10892 -0.249136 0
M  V30 6441 H 603.863 6.91577 -0.818185 0
M  V30 6442 H 601.49 7.50398 -1.21684 0
M  V30 6443 N 603.065 -0.440357 1.51323 0
M  V30 6444 C 604.29 -1.21716 1.67928 0
M  V30 6445 C 604.715 -1.84328 0.374826 0
M  V30 6446 O 604.073 -1.68675 -0.664706 0
M  V30 6447 C 604.121 -2.27914 2.79442 0
M  V30 6448 O 603.225 -3.33325 2.42834 0
M  V30 6449 H 602.566 -0.35674 0.560029 0
M  V30 6450 H 605.096 -0.520417 1.97871 0
M  V30 6451 H 605.106 -2.72746 3.03436 0
M  V30 6452 H 603.781 -1.8172 3.741 0
M  V30 6453 H 602.358 -2.9399 2.294 0
M  V30 6454 N 604.543 -1.41418 -0.695603 0
M  V30 6455 C 605.959 -1.23887 -1.00619 0
M  V30 6456 C 606.159 -0.128206 -2.01092 0
M  V30 6457 O 605.215 0.507408 -2.47349 0
M  V30 6458 C 606.528 -2.58816 -1.53083 0
M  V30 6459 C 608.076 -2.65998 -1.64967 0
M  V30 6460 C 608.551 -4.01244 -2.20833 0
M  V30 6461 N 610.042 -4.0309 -2.28194 0
M  V30 6462 C 610.777 -5.04539 -2.72448 0
M  V30 6463 N 610.273 -6.16378 -3.16306 0
M  V30 6464 N 612.066 -4.91901 -2.72011 0
M  V30 6465 H 604.217 -2.12379 -0.0300061 0
M  V30 6466 H 606.48 -0.944958 -0.0758797 0
M  V30 6467 H 606.186 -3.40842 -0.867147 0
M  V30 6468 H 606.06 -2.81299 -2.51298 0
M  V30 6469 H 608.447 -1.84331 -2.30448 0
M  V30 6470 H 608.528 -2.47325 -0.652982 0
M  V30 6471 H 608.172 -4.83359 -1.55968 0
M  V30 6472 H 608.102 -4.17257 -3.21254 0
M  V30 6473 H 610.593 -3.22341 -1.97242 0
M  V30 6474 H 610.906 -6.89658 -3.487 0
M  V30 6475 H 609.251 -6.19914 -3.14215 0
M  V30 6476 H 612.442 -4.03613 -2.37095 0
M  V30 6477 H 612.615 -5.71102 -3.06181 0
M  V30 6478 N 606.021 0.929856 -1.27246 0
M  V30 6479 C 607.246 1.71674 -1.16374 0
M  V30 6480 C 607.671 1.86064 0.276024 0
M  V30 6481 O 607.029 1.3591 1.19992 0
M  V30 6482 C 607.077 3.09526 -1.85003 0
M  V30 6483 O 606.181 3.96142 -1.14653 0
M  V30 6484 H 605.522 0.52629 -0.404863 0
M  V30 6485 H 608.052 1.16381 -1.68276 0
M  V30 6486 H 608.062 3.59852 -1.92276 0
M  V30 6487 H 606.737 2.98369 -2.89739 0
M  V30 6488 H 605.314 3.54584 -1.15433 0
M  V30 6489 N 607.499 1.09233 1.13605 0
M  V30 6490 C 608.729 0.847677 1.88409 0
M  V30 6491 C 609.137 -0.604524 1.79282 0
M  V30 6492 O 608.48 -1.42773 1.15592 0
M  V30 6493 C 608.542 1.20153 3.38827 0
M  V30 6494 C 608.206 2.65824 3.71735 0
M  V30 6495 C 609.203 3.64072 3.71143 0
M  V30 6496 C 606.888 3.01894 4.01454 0
M  V30 6497 C 608.882 4.96419 3.99808 0
M  V30 6498 C 606.569 4.34433 4.29781 0
M  V30 6499 C 607.567 5.31505 4.28942 0
M  V30 6500 O 607.255 6.61659 4.56576 0
M  V30 6501 H 606.987 0.304813 0.603378 0
M  V30 6502 H 609.541 1.4573 1.44748 0
M  V30 6503 H 607.771 0.534946 3.82982 0
M  V30 6504 H 609.46 0.936349 3.94952 0
M  V30 6505 H 610.226 3.37549 3.4826 0
M  V30 6506 H 606.105 2.26971 4.01255 0
M  V30 6507 H 609.649 5.7218 3.99069 0
M  V30 6508 H 605.546 4.607 4.52135 0
M  V30 6509 H 606.314 6.67102 4.74254 0
M  V30 6510 N 608.977 -1.30795 0.87923 0
M  V30 6511 C 610.202 -2.01063 0.508769 0
M  V30 6512 C 610.627 -1.65508 -0.893803 0
M  V30 6513 O 609.985 -0.868616 -1.59138 0
M  V30 6514 C 610.033 -3.54054 0.683991 0
M  V30 6515 O 609.137 -4.11498 -0.272654 0
M  V30 6516 H 608.478 -0.632786 0.201191 0
M  V30 6517 H 611.008 -1.66776 1.18519 0
M  V30 6518 H 611.018 -4.03845 0.580798 0
M  V30 6519 H 609.693 -3.79271 1.70665 0
M  V30 6520 H 608.27 -3.72695 -0.12364 0
M  V30 6521 N 610.455 -0.639598 -1.44038 0
M  V30 6522 C 611.365 0.0612377 -2.3452 0
M  V30 6523 C 612.381 0.826717 -1.53106 0
M  V30 6524 O 613.557 0.777059 -1.85806 0
M  V30 6525 C 610.622 1.02492 -3.31204 0
M  V30 6526 C 609.683 0.25788 -4.28525 0
M  V30 6527 C 608.916 1.17566 -5.2059 0
M  V30 6528 O 609.139 2.41461 -5.16771 0
M  V30 6529 O 608.073 0.655407 -5.98321 0
M  V30 6530 H 611.899 -0.68318 -2.95916 0
M  V30 6531 H 609.484 -0.399784 -1.43952 0
M  V30 6532 H 611.366 1.57911 -3.90694 0
M  V30 6533 H 610.041 1.7498 -2.7233 0
M  V30 6534 H 608.948 -0.339566 -3.72556 0
M  V30 6535 H 610.281 -0.427154 -4.90343 0
M  V30 6536 N 611.933 1.52934 -0.380664 0
M  V30 6537 C 612.863 2.29118 0.450268 0
M  V30 6538 C 613.844 1.32153 1.07096 0
M  V30 6539 O 615.029 1.61038 1.08537 0
M  V30 6540 C 612.159 3.09161 1.58231 0
M  V30 6541 C 611.113 4.13938 1.0881 0
M  V30 6542 C 610.439 4.82153 2.31155 0
M  V30 6543 C 611.739 5.22048 0.162146 0
M  V30 6544 H 613.433 2.98826 -0.185361 0
M  V30 6545 H 610.979 1.43715 -0.0905886 0
M  V30 6546 H 612.932 3.61211 2.17036 0
M  V30 6547 H 611.656 2.3717 2.2454 0
M  V30 6548 H 610.315 3.62855 0.522633 0
M  V30 6549 H 609.963 4.06719 2.95953 0
M  V30 6550 H 609.663 5.52966 1.98752 0
M  V30 6551 H 611.187 5.37004 2.90618 0
M  V30 6552 H 612.601 5.6951 0.658126 0
M  V30 6553 H 610.998 6.00057 -0.0717122 0
M  V30 6554 H 612.068 4.78398 -0.791438 0
M  V30 6555 N 613.412 0.11024 1.57214 0
M  V30 6556 C 614.359 -0.843195 2.14846 0
M  V30 6557 C 615.329 -1.26954 1.07107 0
M  V30 6558 O 616.514 -1.34861 1.34971 0
M  V30 6559 C 613.654 -2.09123 2.74521 0
M  V30 6560 C 612.767 -1.71404 3.96541 0
M  V30 6561 C 611.902 -2.91107 4.44331 0
M  V30 6562 C 610.941 -2.49586 5.58903 0
M  V30 6563 N 610.078 -3.62175 6.01477 0
M  V30 6564 H 614.918 -0.344886 2.95998 0
M  V30 6565 H 612.455 -0.15855 1.46243 0
M  V30 6566 H 614.413 -2.82234 3.07246 0
M  V30 6567 H 613.043 -2.56427 1.96074 0
M  V30 6568 H 612.095 -0.88201 3.70033 0
M  V30 6569 H 613.407 -1.36884 4.7965 0
M  V30 6570 H 612.561 -3.72454 4.78919 0
M  V30 6571 H 611.3 -3.28848 3.60153 0
M  V30 6572 H 610.305 -1.6667 5.23929 0
M  V30 6573 H 611.53 -2.12973 6.4484 0
M  V30 6574 H 609.476 -3.99605 5.20242 0
M  V30 6575 H 609.393 -3.3155 6.79419 0
M  V30 6576 H 610.661 -4.43987 6.407 0
M  V30 6577 N 614.89 -1.56749 -0.16351 0
M  V30 6578 C 615.8 -2.00255 -1.2221 0
M  V30 6579 C 616.816 -0.915194 -1.47987 0
M  V30 6580 O 617.992 -1.22342 -1.59982 0
M  V30 6581 C 615.057 -2.36035 -2.53946 0
M  V30 6582 C 614.118 -3.58637 -2.35962 0
M  V30 6583 C 613.351 -3.92701 -3.61416 0
M  V30 6584 O 613.574 -3.27632 -4.66919 0
M  V30 6585 O 612.508 -4.86019 -3.55062 0
M  V30 6586 H 616.334 -2.90586 -0.882794 0
M  V30 6587 H 613.919 -1.44721 -0.370978 0
M  V30 6588 H 615.801 -2.59982 -3.31643 0
M  V30 6589 H 614.476 -1.48863 -2.8744 0
M  V30 6590 H 613.383 -3.39898 -1.5627 0
M  V30 6591 H 614.716 -4.46374 -2.0739 0
M  V30 6592 N 616.368 0.432326 -1.51554 0
M  V30 6593 C 617.3 1.54357 -1.6943 0
M  V30 6594 C 618.313 1.52311 -0.574897 0
M  V30 6595 O 619.502 1.56997 -0.849369 0
M  V30 6596 C 616.602 2.93273 -1.69836 0
M  V30 6597 C 615.775 3.19768 -2.98442 0
M  V30 6598 C 614.834 4.38433 -2.90969 0
M  V30 6599 O 613.86 4.36842 -3.64908 0
M  V30 6600 N 615.062 5.42276 -2.07163 0
M  V30 6601 H 617.827 1.39426 -2.65293 0
M  V30 6602 H 615.388 0.621331 -1.49503 0
M  V30 6603 H 617.38 3.70687 -1.62399 0
M  V30 6604 H 615.95 3.01777 -0.815456 0
M  V30 6605 H 615.17 2.30607 -3.19709 0
M  V30 6606 H 616.458 3.343 -3.83563 0
M  V30 6607 H 615.856 5.46407 -1.46477 0
M  V30 6608 H 614.413 6.18524 -2.05601 0
M  V30 6609 N 617.846 1.41785 0.688094 0
M  V30 6610 C 618.778 1.40159 1.81351 0
M  V30 6611 C 619.791 0.30262 1.59963 0
M  V30 6612 O 620.98 0.564841 1.69327 0
M  V30 6613 C 618.08 1.16517 3.1824 0
M  V30 6614 C 617.253 2.38597 3.66593 0
M  V30 6615 C 616.312 2.10699 4.82174 0
M  V30 6616 O 615.338 2.83798 4.93404 0
M  V30 6617 N 616.54 1.10187 5.69947 0
M  V30 6618 H 619.305 2.3716 1.83236 0
M  V30 6619 H 616.866 1.36494 0.870697 0
M  V30 6620 H 618.858 0.957941 3.93199 0
M  V30 6621 H 617.428 0.280873 3.11336 0
M  V30 6622 H 616.648 2.74974 2.82459 0
M  V30 6623 H 617.936 3.19919 3.95638 0
M  V30 6624 H 617.334 0.497016 5.63512 0
M  V30 6625 H 615.891 0.954518 6.44773 0
M  V30 6626 N 619.324 -0.923095 1.27737 0
M  V30 6627 C 620.256 -2.02871 1.06658 0
M  V30 6628 C 621.269 -1.62786 0.0212095 0
M  V30 6629 O 622.458 -1.76548 0.263267 0
M  V30 6630 C 619.558 -3.33603 0.59682 0
M  V30 6631 C 618.731 -4.02354 1.71551 0
M  V30 6632 C 617.79 -5.11364 1.24071 0
M  V30 6633 O 616.816 -5.35075 1.94123 0
M  V30 6634 N 618.018 -5.80416 0.0988444 0
M  V30 6635 H 620.783 -2.21515 2.01869 0
M  V30 6636 H 618.344 -1.09378 1.19365 0
M  V30 6637 H 620.336 -4.03845 0.262984 0
M  V30 6638 H 618.906 -3.11499 -0.262187 0
M  V30 6639 H 618.126 -3.25786 2.2194 0
M  V30 6640 H 619.414 -4.45035 2.46619 0
M  V30 6641 H 618.812 -5.63611 -0.485743 0
M  V30 6642 H 617.369 -6.51563 -0.17578 0
M  V30 6643 N 620.802 -1.09834 -1.13024 0
M  V30 6644 C 622.218 -0.828875 -1.36388 0
M  V30 6645 C 622.418 0.554756 -1.93713 0
M  V30 6646 O 621.474 1.30882 -2.15931 0
M  V30 6647 C 622.787 -1.92352 -2.3113 0
M  V30 6648 C 624.335 -1.95124 -2.44735 0
M  V30 6649 C 624.81 -3.03745 -3.42787 0
M  V30 6650 N 626.301 -3.03012 -3.5034 0
M  V30 6651 C 627.036 -3.83699 -4.26101 0
M  V30 6652 N 626.532 -4.74306 -5.04981 0
M  V30 6653 N 628.325 -3.71942 -4.21445 0
M  V30 6654 H 620.476 -1.99029 -0.74169 0
M  V30 6655 H 622.739 -0.864557 -0.388903 0
M  V30 6656 H 622.445 -2.91906 -1.96172 0
M  V30 6657 H 622.319 -1.80536 -3.3119 0
M  V30 6658 H 624.706 -0.962069 -2.78977 0
M  V30 6659 H 624.787 -2.11018 -1.44586 0
M  V30 6660 H 624.431 -4.02878 -3.09276 0
M  V30 6661 H 624.361 -2.85094 -4.42752 0
M  V30 6662 H 626.852 -2.37352 -2.94062 0
M  V30 6663 H 627.165 -5.32446 -5.60108 0
M  V30 6664 H 625.51 -4.78339 -5.04199 0
M  V30 6665 H 628.701 -3.00513 -3.589 0
M  V30 6666 H 628.874 -4.35062 -4.80235 0
M  V30 6667 N 622.28 1.30327 -0.886154 0
M  V30 6668 C 623.243 2.26376 -0.358687 0
M  V30 6669 C 624.243 1.52845 0.499498 0
M  V30 6670 O 625.433 1.71483 0.306485 0
M  V30 6671 C 622.565 3.37379 0.488726 0
M  V30 6672 H 623.758 2.74547 -1.20681 0
M  V30 6673 H 621.311 1.41536 -0.663113 0
M  V30 6674 H 622.046 2.94526 1.35739 0
M  V30 6675 H 621.831 3.91897 -0.126003 0
M  V30 6676 H 623.321 4.08868 0.84952 0
M  V30 6677 N 623.758 0.647228 1.43697 0
M  V30 6678 C 624.721 -0.0385101 2.29168 0
M  V30 6679 C 625.721 -0.756487 1.41894 0
M  V30 6680 O 626.911 -0.598641 1.63591 0
M  V30 6681 C 624.043 -1.06524 3.23829 0
M  V30 6682 H 625.236 0.713445 2.9129 0
M  V30 6683 H 622.789 0.408153 1.50877 0
M  V30 6684 H 623.524 -1.84664 2.66589 0
M  V30 6685 H 623.309 -0.554147 3.88164 0
M  V30 6686 H 624.799 -1.54432 3.87996 0
M  V30 6687 N 625.236 -1.5273 0.388769 0
M  V30 6688 C 626.461 -2.0647 -0.19621 0
M  V30 6689 C 626.886 -1.25865 -1.39784 0
M  V30 6690 O 626.244 -0.283562 -1.79069 0
M  V30 6691 C 626.292 -3.56456 -0.5451 0
M  V30 6692 O 625.396 -3.78426 -1.63912 0
M  V30 6693 H 624.737 -0.663599 -0.023067 0
M  V30 6694 H 627.267 -1.96898 0.556084 0
M  V30 6695 H 627.277 -3.99888 -0.809557 0
M  V30 6696 H 625.952 -4.14561 0.333417 0
M  V30 6697 H 624.529 -3.46884 -1.36842 0
M  V30 6698 N 626.714 -0.118576 -1.57153 0
M  V30 6699 C 628.125 0.40687 -1.82213 0
M  V30 6700 C 628.476 1.66636 -1.03571 0
M  V30 6701 O 627.601 2.14682 -0.272171 0
M  V30 6702 C 628.196 0.744949 -3.30509 0
M  V30 6703 C 626.755 1.21503 -3.5625 0
M  V30 6704 C 625.902 0.223511 -2.76398 0
M  V30 6705 H 628.853 -0.343712 -1.54933 0
M  V30 6706 H 628.874 1.6024 -3.45114 0
M  V30 6707 H 628.386 -0.171911 -3.87719 0
M  V30 6708 H 626.487 2.1488 -3.04396 0
M  V30 6709 H 626.6 1.16065 -4.64829 0
M  V30 6710 H 624.964 0.71046 -2.44591 0
M  V30 6711 H 625.747 -0.686439 -3.36367 0
M  V30 6712 N 628.193 1.56834 0.155195 0
M  V30 6713 C 629.103 2.009 1.21146 0
M  V30 6714 C 630.119 0.923029 1.475 0
M  V30 6715 O 631.295 1.23189 1.59331 0
M  V30 6716 C 628.36 2.37378 2.52691 0
M  V30 6717 C 627.421 3.59883 2.34057 0
M  V30 6718 C 626.654 3.94612 3.59329 0
M  V30 6719 O 626.877 3.30104 4.65175 0
M  V30 6720 O 625.811 4.87895 3.52479 0
M  V30 6721 H 629.637 2.9105 0.867371 0
M  V30 6722 H 627.222 1.44916 0.363298 0
M  V30 6723 H 629.104 2.61737 3.3026 0
M  V30 6724 H 627.779 1.50385 2.86646 0
M  V30 6725 H 626.686 3.40722 1.54465 0
M  V30 6726 H 628.019 4.47468 2.0502 0
M  V30 6727 N 629.671 -0.424282 1.51781 0
M  V30 6728 C 631.082 -1.00368 1.57427 0
M  V30 6729 C 631.433 -1.91962 0.40558 0
M  V30 6730 O 630.558 -2.111 -0.47601 0
M  V30 6731 C 631.153 -1.82707 2.85313 0
M  V30 6732 C 629.712 -2.35675 2.93487 0
M  V30 6733 C 628.859 -1.1524 2.5222 0
M  V30 6734 H 631.81 -0.205064 1.5737 0
M  V30 6735 H 631.831 -2.68294 2.69812 0
M  V30 6736 H 631.343 -1.16017 3.70353 0
M  V30 6737 H 629.444 -3.05781 2.12906 0
M  V30 6738 H 629.557 -2.67578 3.97415 0
M  V30 6739 H 627.921 -1.50174 2.05718 0
M  V30 6740 H 628.704 -0.5014 3.39619 0
M  V30 6741 N 631.149 -1.42148 -0.680565 0
M  V30 6742 C 632.112 -1.4488 -1.77602 0
M  V30 6743 C 633.112 -0.337209 -1.57224 0
M  V30 6744 O 634.302 -0.597778 -1.63622 0
M  V30 6745 C 631.434 -1.27483 -3.16166 0
M  V30 6746 H 632.627 -2.42412 -1.76568 0
M  V30 6747 H 630.18 -1.28511 -0.889645 0
M  V30 6748 H 630.915 -0.30851 -3.22829 0
M  V30 6749 H 630.7 -2.08037 -3.3236 0
M  V30 6750 H 632.19 -1.32265 -3.96101 0
M  V30 6751 N 632.627 0.916307 -1.28225 0
M  V30 6752 C 633.557 2.0352 -1.14464 0
M  V30 6753 C 634.538 1.70045 -0.0430844 0
M  V30 6754 O 635.723 1.92954 -0.219619 0
M  V30 6755 C 632.853 3.37889 -0.803027 0
M  V30 6756 C 631.807 3.85516 -1.85908 0
M  V30 6757 C 631.133 5.1682 -1.37116 0
M  V30 6758 C 632.433 4.07655 -3.26519 0
M  V30 6759 H 634.127 2.1529 -2.08064 0
M  V30 6760 H 631.673 1.03446 -1.00174 0
M  V30 6761 H 633.626 4.15654 -0.693537 0
M  V30 6762 H 632.35 3.26164 0.168674 0
M  V30 6763 H 631.009 3.09953 -1.95767 0
M  V30 6764 H 630.657 5.01497 -0.38859 0
M  V30 6765 H 630.357 5.49657 -2.07728 0
M  V30 6766 H 631.881 5.97143 -1.27484 0
M  V30 6767 H 633.295 4.75953 -3.19596 0
M  V30 6768 H 631.692 4.51818 -3.94943 0
M  V30 6769 H 632.762 3.12553 -3.70727 0
M  V30 6770 N 634.105 1.10431 1.1244 0
M  V30 6771 C 635.037 0.710945 2.17895 0
M  V30 6772 C 636.05 -0.252315 1.60833 0
M  V30 6773 O 637.239 -0.03679 1.78462 0
M  V30 6774 C 634.339 0.0284262 3.38888 0
M  V30 6775 C 633.512 1.01585 4.2544 0
M  V30 6776 C 632.571 0.364826 5.24934 0
M  V30 6777 O 631.597 1.01561 5.60066 0
M  V30 6778 N 632.799 -0.87674 5.73841 0
M  V30 6779 H 635.564 1.61826 2.52255 0
M  V30 6780 H 633.125 0.993132 1.27861 0
M  V30 6781 H 635.117 -0.418568 4.0253 0
M  V30 6782 H 633.687 -0.781294 3.02679 0
M  V30 6783 H 632.907 1.64111 3.58415 0
M  V30 6784 H 634.195 1.68425 4.80115 0
M  V30 6785 H 633.593 -1.42483 5.47462 0
M  V30 6786 H 632.15 -1.26688 6.39369 0
M  V30 6787 N 635.583 -1.29855 0.893053 0
M  V30 6788 C 636.493 -2.31661 0.370157 0
M  V30 6789 C 637.509 -1.65677 -0.531723 0
M  V30 6790 O 638.685 -1.9691 -0.422902 0
M  V30 6791 C 635.75 -3.44388 -0.399741 0
M  V30 6792 C 634.811 -4.2598 0.532861 0
M  V30 6793 C 634.044 -5.33324 -0.200388 0
M  V30 6794 O 634.267 -5.52305 -1.42531 0
M  V30 6795 O 633.201 -6.00188 0.453668 0
M  V30 6796 H 637.027 -2.78354 1.2146 0
M  V30 6797 H 634.612 -1.34171 0.657153 0
M  V30 6798 H 636.494 -4.13037 -0.835358 0
M  V30 6799 H 635.169 -2.99815 -1.22035 0
M  V30 6800 H 634.076 -3.59998 1.01746 0
M  V30 6801 H 635.409 -4.74178 1.3197 0
M  V30 6802 N 637.061 -0.65484 -1.43351 0
M  V30 6803 C 638.338 -0.0987371 -1.95351 0
M  V30 6804 C 638.718 1.38161 -1.59608 0
M  V30 6805 O 638.066 2.10791 -0.882021 0
M  V30 6806 C 638.276 -0.346684 -3.47274 0
M  V30 6807 C 639.624 -0.25249 -4.23849 0
M  V30 6808 O 640.648 -0.279332 -3.55103 0
M  V30 6809 O 639.507 -0.177584 -5.46211 0
M  V30 6810 H 636.601 0.0086829 -0.826954 0
M  V30 6811 H 639.147 -0.728189 -1.53282 0
M  V30 6812 H 637.919 -1.37296 -3.66423 0
M  V30 6813 H 637.542 0.315757 -3.96344 0
M  V30 6814 N 638.539 1.52521 -0.396863 0
M  V30 6815 C 639.764 2.06571 0.185258 0
M  V30 6816 C 640.189 1.26605 1.39115 0
M  V30 6817 O 639.547 0.293055 1.78916 0
M  V30 6818 C 639.595 3.5674 0.526189 0
M  V30 6819 O 638.699 3.7929 1.61903 0
M  V30 6820 H 638.04 0.663712 0.0195474 0
M  V30 6821 H 640.57 1.966 -0.566519 0
M  V30 6822 H 640.58 4.00311 0.788338 0
M  V30 6823 H 639.255 4.14379 -0.355397 0
M  V30 6824 H 637.832 3.47605 1.35 0
M  V30 6825 N 640.017 0.126909 1.57088 0
M  V30 6826 C 641.245 -0.53667 1.99819 0
M  V30 6827 C 641.66 -1.5972 1.00673 0
M  V30 6828 O 641.017 -1.825 0.000747365 0
M  V30 6829 C 641.068 -1.15563 3.42531 0
M  V30 6830 O 640.789 -0.137483 4.37884 0
M  V30 6831 C 642.29 -1.90176 4.00435 0
M  V30 6832 H 639.51 -0.141443 0.655923 0
M  V30 6833 H 642.054 0.215578 2.03361 0
M  V30 6834 H 640.209 -1.85861 3.39904 0
M  V30 6835 H 640.623 -0.588229 5.21191 0
M  V30 6836 H 642.097 -2.28801 5.02349 0
M  V30 6837 H 642.574 -2.78002 3.40017 0
M  V30 6838 H 643.18 -1.24623 4.06632 0
M  V30 6839 N 641.495 -1.56914 -0.146875 0
M  V30 6840 C 642.445 -1.94693 -1.18653 0
M  V30 6841 C 643.429 -0.81821 -1.38543 0
M  V30 6842 O 644.621 -1.08167 -1.40103 0
M  V30 6843 C 641.75 -2.33117 -2.52014 0
M  V30 6844 C 640.836 -3.5256 -2.35717 0
M  V30 6845 N 641.227 -4.69091 -1.89175 0
M  V30 6846 C 639.525 -3.57647 -2.66467 0
M  V30 6847 C 640.226 -5.51187 -1.85924 0
M  V30 6848 N 639.202 -4.92899 -2.29242 0
M  V30 6849 H 643.004 -2.82264 -0.81879 0
M  V30 6850 H 640.518 -1.58474 -0.354929 0
M  V30 6851 H 642.515 -2.58387 -3.27172 0
M  V30 6852 H 641.175 -1.46898 -2.89571 0
M  V30 6853 H 642.186 -4.92844 -1.59139 0
M  V30 6854 H 638.863 -2.81967 -3.07898 0
M  V30 6855 H 640.253 -6.54613 -1.51431 0
M  V30 6856 N 642.974 0.416227 -1.52004 0
M  V30 6857 C 644.199 1.19029 -1.69843 0
M  V30 6858 C 644.624 1.83708 -0.404103 0
M  V30 6859 O 643.982 1.69711 0.637787 0
M  V30 6860 C 644.03 2.23439 -2.83032 0
M  V30 6861 O 643.134 3.29419 -2.48106 0
M  V30 6862 H 642.475 0.347785 -0.565634 0
M  V30 6863 H 645.005 0.488871 -1.98674 0
M  V30 6864 H 645.015 2.67884 -3.07737 0
M  V30 6865 H 643.69 1.75745 -3.76944 0
M  V30 6866 H 642.267 2.90303 -2.34048 0
M  V30 6867 N 644.452 1.42507 0.673017 0
M  V30 6868 C 645.415 1.4582 1.76831 0
M  V30 6869 C 646.415 0.345542 1.57043 0
M  V30 6870 O 647.605 0.606447 1.63303 0
M  V30 6871 C 644.737 1.29158 3.15485 0
M  V30 6872 H 645.93 2.43345 1.7528 0
M  V30 6873 H 643.483 1.28981 0.882817 0
M  V30 6874 H 644.218 0.325626 3.22661 0
M  V30 6875 H 644.003 2.09797 3.31252 0
M  V30 6876 H 645.493 1.34363 3.95394 0
M  V30 6877 N 645.93 -0.909495 1.28709 0
M  V30 6878 C 647.158 -1.69272 1.18973 0
M  V30 6879 C 647.573 -1.87123 -0.251048 0
M  V30 6880 O 646.93 -1.40127 -1.16922 0
M  V30 6881 C 646.981 -3.08257 1.88839 0
M  V30 6882 O 646.702 -2.91228 3.27289 0
M  V30 6883 C 648.203 -4.02642 1.85457 0
M  V30 6884 H 645.423 -0.528999 0.412797 0
M  V30 6885 H 647.967 -1.13803 1.69909 0
M  V30 6886 H 646.122 -3.6053 1.41762 0
M  V30 6887 H 646.536 -3.79223 3.6234 0
M  V30 6888 H 648.01 -4.97613 2.38925 0
M  V30 6889 H 648.487 -4.31327 0.827893 0
M  V30 6890 H 649.093 -3.56298 2.32233 0
M  V30 6891 N 647.408 -1.11026 -1.11852 0
M  V30 6892 C 648.371 -0.768006 -2.1595 0
M  V30 6893 C 649.371 0.210538 -1.59416 0
M  V30 6894 O 650.561 -0.0133978 -1.74195 0
M  V30 6895 C 647.693 -0.138678 -3.40618 0
M  V30 6896 H 648.886 -1.69012 -2.4774 0
M  V30 6897 H 646.439 -0.911578 -1.26964 0
M  V30 6898 H 647.174 0.793872 -3.14433 0
M  V30 6899 H 646.959 -0.843012 -3.8293 0
M  V30 6900 H 648.449 0.0848039 -4.17514 0
M  V30 6901 N 648.886 1.2938 -0.899927 0
M  V30 6902 C 650.114 1.99691 -0.541386 0
M  V30 6903 C 650.529 1.67355 0.873936 0
M  V30 6904 O 649.886 0.918728 1.57688 0
M  V30 6905 C 649.937 3.54168 -0.72438 0
M  V30 6906 O 649.658 3.85359 -2.08399 0
M  V30 6907 C 651.159 4.41746 -0.370819 0
M  V30 6908 H 648.379 0.638037 -0.207726 0
M  V30 6909 H 650.923 1.6491 -1.20934 0
M  V30 6910 H 649.078 3.87261 -0.103607 0
M  V30 6911 H 649.492 4.80032 -2.11352 0
M  V30 6912 H 650.966 5.49256 -0.549693 0
M  V30 6913 H 651.443 4.33712 0.692148 0
M  V30 6914 H 652.049 4.14125 -0.968543 0
M  V30 6915 N 650.364 0.662433 1.43002 0
M  V30 6916 C 651.274 -0.0239199 2.34588 0
M  V30 6917 C 652.29 -0.802255 1.54402 0
M  V30 6918 O 653.466 -0.747401 1.87018 0
M  V30 6919 C 650.531 -0.972098 3.32793 0
M  V30 6920 C 649.592 -0.189673 4.28881 0
M  V30 6921 C 648.825 -1.09269 5.22395 0
M  V30 6922 O 649.048 -2.33209 5.20547 0
M  V30 6923 O 647.982 -0.560136 5.99288 0
M  V30 6924 H 651.808 0.730171 2.94792 0
M  V30 6925 H 649.393 0.422635 1.43297 0
M  V30 6926 H 651.275 -1.51676 3.93157 0
M  V30 6927 H 649.95 -1.70626 2.75079 0
M  V30 6928 H 648.857 0.398794 3.71968 0
M  V30 6929 H 650.19 0.50511 4.89601 0
M  V30 6930 N 651.842 -1.52309 0.404946 0
M  V30 6931 C 653.119 -1.94237 -0.230544 0
M  V30 6932 C 653.499 -1.34154 -1.6299 0
M  V30 6933 O 652.847 -0.515713 -2.22604 0
M  V30 6934 C 653.057 -3.48166 -0.241106 0
M  V30 6935 C 654.405 -4.22074 -0.462488 0
M  V30 6936 O 655.429 -3.54754 -0.320644 0
M  V30 6937 O 654.288 -5.41443 -0.741708 0
M  V30 6938 H 651.382 -0.813766 -0.147358 0
M  V30 6939 H 653.928 -1.6333 0.460587 0
M  V30 6940 H 652.7 -3.84269 0.738467 0
M  V30 6941 H 652.323 -3.85422 -0.97651 0
M  V30 6942 N 653.32 -0.135238 -1.57019 0
M  V30 6943 C 654.545 0.529343 -2.00531 0
M  V30 6944 C 654.97 1.58391 -1.01459 0
M  V30 6945 O 654.328 1.81296 0.0113986 0
M  V30 6946 C 654.376 1.11748 -3.42848 0
M  V30 6947 O 653.48 2.23267 -3.46736 0
M  V30 6948 H 652.821 0.130669 -0.651016 0
M  V30 6949 H 655.351 -0.228503 -2.0332 0
M  V30 6950 H 655.361 1.44905 -3.81401 0
M  V30 6951 H 654.036 0.345147 -4.14465 0
M  V30 6952 H 652.613 1.91428 -3.20015 0
M  V30 6953 N 654.798 1.5699 0.138552 0
M  V30 6954 C 656.023 1.88344 0.86841 0
M  V30 6955 C 656.448 0.725159 1.7356 0
M  V30 6956 O 655.806 -0.324992 1.78363 0
M  V30 6957 C 655.854 3.18334 1.69398 0
M  V30 6958 O 654.958 3.02863 2.79907 0
M  V30 6959 H 654.299 0.618577 0.241367 0
M  V30 6960 H 656.829 2.04207 0.126826 0
M  V30 6961 H 656.839 3.50567 2.08726 0
M  V30 6962 H 655.514 4.02238 1.05725 0
M  V30 6963 H 654.091 2.82056 2.43924 0
M  V30 6964 N 656.276 -0.40816 1.52223 0
M  V30 6965 C 657.208 -1.51642 1.71864 0
M  V30 6966 C 658.221 -1.51378 0.599056 0
M  V30 6967 O 659.41 -1.55626 0.874239 0
M  V30 6968 C 656.51 -2.90534 1.74481 0
M  V30 6969 C 655.683 -3.14979 3.03491 0
M  V30 6970 C 654.742 -4.33749 2.97907 0
M  V30 6971 O 653.768 -4.30982 3.71811 0
M  V30 6972 N 654.97 -5.38912 2.15764 0
M  V30 6973 H 657.735 -1.35188 2.67478 0
M  V30 6974 H 655.296 -0.597468 1.50472 0
M  V30 6975 H 657.288 -3.68056 1.68275 0
M  V30 6976 H 655.858 -3.00441 0.863363 0
M  V30 6977 H 655.078 -2.25492 3.23337 0
M  V30 6978 H 656.366 -3.28156 3.88833 0
M  V30 6979 H 655.764 -5.44008 1.55152 0
M  V30 6980 H 654.321 -6.15174 2.15415 0
M  V30 6981 N 657.755 -1.42862 -0.66545 0
M  V30 6982 C 659.003 -1.43546 -1.42264 0
M  V30 6983 C 659.324 -0.0563116 -1.94919 0
M  V30 6984 O 658.594 0.906568 -1.73661 0
M  V30 6985 H 657.174 -0.528464 -0.527953 0
M  V30 6986 H 659.836 -1.78363 -0.785665 0
M  V30 6987 H 658.932 -2.14079 -2.27105 0
M  V30 6988 N 659.233 0.902656 -1.29189 0
M  V30 6989 C 660.644 1.46809 -1.15343 0
M  V30 6990 C 660.995 1.94568 0.252517 0
M  V30 6991 O 660.12 1.83454 1.14777 0
M  V30 6992 C 660.715 2.66829 -2.08776 0
M  V30 6993 C 659.274 3.19518 -1.98961 0
M  V30 6994 C 658.421 1.92212 -1.99874 0
M  V30 6995 H 661.372 0.714282 -1.41717 0
M  V30 6996 H 661.393 3.42465 -1.65826 0
M  V30 6997 H 660.905 2.32039 -3.11094 0
M  V30 6998 H 659.006 3.59008 -0.99721 0
M  V30 6999 H 659.119 3.84016 -2.86477 0
M  V30 7000 H 657.483 2.0979 -1.44431 0
M  V30 7001 H 658.266 1.59702 -3.03891 0
M  V30 7002 N 660.711 1.11618 1.11262 0
M  V30 7003 C 661.988 0.777876 1.79467 0
M  V30 7004 C 662.368 -0.733774 1.97937 0
M  V30 7005 O 661.716 -1.66443 1.56554 0
M  V30 7006 C 661.926 1.5431 3.13032 0
M  V30 7007 C 663.274 1.72357 3.88044 0
M  V30 7008 O 664.298 1.5075 3.22727 0
M  V30 7009 O 663.157 2.08276 5.05256 0
M  V30 7010 H 660.251 0.282018 0.777428 0
M  V30 7011 H 662.797 1.21971 1.17988 0
M  V30 7012 H 661.569 2.57132 2.94956 0
M  V30 7013 H 661.192 1.09495 3.82226 0
M  V30 7014 N 662.189 -1.289 0.906776 0
M  V30 7015 C 663.414 -1.99939 0.551303 0
M  V30 7016 C 663.839 -1.67366 -0.858496 0
M  V30 7017 O 663.197 -0.902176 -1.57259 0
M  V30 7018 C 663.245 -3.52523 0.758937 0
M  V30 7019 O 662.349 -4.11983 -0.185308 0
M  V30 7020 H 661.69 -0.628376 0.214568 0
M  V30 7021 H 664.22 -1.64225 1.2203 0
M  V30 7022 H 664.23 -4.02522 0.666329 0
M  V30 7023 H 662.905 -3.75566 1.78671 0
M  V30 7024 H 661.482 -3.72873 -0.0445577 0
M  V30 7025 N 663.667 -0.670007 -1.42649 0
M  V30 7026 C 664.63 0.00204659 -2.292 0
M  V30 7027 C 665.63 0.733817 -1.4308 0
M  V30 7028 O 666.82 0.57254 -1.64522 0
M  V30 7029 C 663.952 1.01359 -3.25483 0
M  V30 7030 H 665.145 -0.759696 -2.90118 0
M  V30 7031 H 662.698 -0.432105 -1.50208 0
M  V30 7032 H 663.433 1.80399 -2.69493 0
M  V30 7033 H 663.218 0.492323 -3.88997 0
M  V30 7034 H 664.708 1.4824 -3.90403 0
M  V30 7035 N 665.145 1.52092 -0.413018 0
M  V30 7036 C 666.393 2.01456 0.161178 0
M  V30 7037 C 666.714 1.30034 1.45314 0
M  V30 7038 O 665.984 0.427435 1.9118 0
M  V30 7039 H 664.564 0.744376 0.0625526 0
M  V30 7040 H 667.226 1.86974 -0.550151 0
M  V30 7041 H 666.322 3.1008 0.354517 0
M  V30 7042 N 666.623 0.143563 1.56945 0
M  V30 7043 C 667.553 -0.7936 2.196 0
M  V30 7044 C 668.534 -1.25955 1.14321 0
M  V30 7045 O 669.719 -1.31773 1.42651 0
M  V30 7046 C 666.849 -2.03424 2.81489 0
M  V30 7047 C 665.803 -1.70519 3.92565 0
M  V30 7048 C 665.129 -3.01817 4.41373 0
M  V30 7049 C 666.429 -0.95449 5.13504 0
M  V30 7050 H 668.123 -0.271423 2.98167 0
M  V30 7051 H 665.669 -0.12911 1.4342 0
M  V30 7052 H 667.622 -2.69463 3.23987 0
M  V30 7053 H 666.346 -2.58008 2.00248 0
M  V30 7054 H 665.005 -1.06859 3.5068 0
M  V30 7055 H 664.653 -3.54386 3.56959 0
M  V30 7056 H 664.353 -2.80565 5.16292 0
M  V30 7057 H 665.877 -3.68934 4.86539 0
M  V30 7058 H 667.291 -1.5169 5.52868 0
M  V30 7059 H 665.688 -0.842035 5.94163 0
M  V30 7060 H 666.758 0.0544033 4.84869 0
M  V30 7061 N 668.101 -1.57061 -0.130224 0
M  V30 7062 C 669.064 -1.98593 -1.14426 0
M  V30 7063 C 670.064 -0.874584 -1.34936 0
M  V30 7064 O 671.254 -1.14086 -1.31643 0
M  V30 7065 C 668.386 -2.31639 -2.50112 0
M  V30 7066 H 669.579 -2.89374 -0.787561 0
M  V30 7067 H 667.132 -1.51756 -0.374146 0
M  V30 7068 H 667.867 -1.43703 -2.90723 0
M  V30 7069 H 667.652 -3.12684 -2.36583 0
M  V30 7070 H 669.142 -2.64551 -3.23114 0
M  V30 7071 N 669.579 0.400081 -1.52437 0
M  V30 7072 C 670.856 1.15973 -1.57511 0
M  V30 7073 C 671.236 2.0798 -0.361572 0
M  V30 7074 O 670.584 2.19032 0.650929 0
M  V30 7075 C 670.794 1.92912 -2.90837 0
M  V30 7076 C 672.142 2.48662 -3.44169 0
M  V30 7077 O 673.166 2.03081 -2.92637 0
M  V30 7078 O 672.025 3.31894 -4.34176 0
M  V30 7079 H 669.119 0.530023 -0.634827 0
M  V30 7080 H 671.665 0.40613 -1.64769 0
M  V30 7081 H 670.437 1.25564 -3.70607 0
M  V30 7082 H 670.06 2.75257 -2.86913 0
M  V30 7083 N 671.057 1.43213 0.657864 0
M  V30 7084 C 672.334 1.35063 1.41483 0
M  V30 7085 C 672.714 -0.0038314 2.111 0
M  V30 7086 O 672.062 -1.02018 2.04462 0
M  V30 7087 C 672.272 2.53061 2.40335 0
M  V30 7088 C 673.62 2.9594 3.04474 0
M  V30 7089 O 674.644 2.53074 2.50663 0
M  V30 7090 O 673.503 3.70184 4.02027 0
M  V30 7091 H 670.597 0.533517 0.631893 0
M  V30 7092 H 673.143 1.55253 0.685162 0
M  V30 7093 H 671.915 3.43283 1.87809 0
M  V30 7094 H 671.538 2.34945 3.20759 0
M  V30 7095 N 672.536 -0.895792 1.29666 0
M  V30 7096 C 673.761 -1.68528 1.20885 0
M  V30 7097 C 674.186 -1.8673 -0.226595 0
M  V30 7098 O 673.544 -1.39044 -1.16347 0
M  V30 7099 C 673.592 -3.04512 1.93144 0
M  V30 7100 O 672.696 -3.92963 1.25115 0
M  V30 7101 H 672.037 -0.515371 0.418675 0
M  V30 7102 H 674.567 -1.11878 1.71302 0
M  V30 7103 H 674.577 -3.54628 2.0175 0
M  V30 7104 H 673.252 -2.90582 2.97548 0
M  V30 7105 H 671.829 -3.51399 1.24794 0
M  V30 7106 N 674.014 -1.12206 -1.10668 0
M  V30 7107 C 674.977 -0.790867 -2.15123 0
M  V30 7108 C 675.977 0.193618 -1.5963 0
M  V30 7109 O 677.167 -0.0318728 -1.74171 0
M  V30 7110 C 674.299 -0.174797 -3.40452 0
M  V30 7111 H 675.492 -1.7163 -2.45933 0
M  V30 7112 H 673.045 -0.924993 -1.2599 0
M  V30 7113 H 673.78 0.760478 -3.15257 0
M  V30 7114 H 673.565 -0.88358 -3.82015 0
M  V30 7115 H 675.055 0.0405162 -4.1758 0
M  V30 7116 N 675.492 1.28418 -0.913599 0
M  V30 7117 C 676.769 1.89977 -0.465619 0
M  V30 7118 C 677.149 1.82813 1.05559 0
M  V30 7119 O 676.497 1.26397 1.90358 0
M  V30 7120 C 676.707 3.34492 -0.995813 0
M  V30 7121 C 678.055 4.11468 -1.04782 0
M  V30 7122 O 679.079 3.43451 -0.944445 0
M  V30 7123 O 677.938 5.33046 -1.20518 0
M  V30 7124 H 675.032 0.813734 -0.147532 0
M  V30 7125 H 677.578 1.36786 -1.00437 0
M  V30 7126 H 676.35 3.33929 -2.03978 0
M  V30 7127 H 675.973 3.95181 -0.437878 0
M  V30 7128 N 676.97 0.677563 1.42291 0
M  V30 7129 C 677.933 0.0101085 2.29198 0
M  V30 7130 C 678.933 -0.726219 1.43467 0
M  V30 7131 O 680.123 -0.563807 1.64824 0
M  V30 7132 C 677.255 -0.996316 3.26016 0
M  V30 7133 H 678.448 0.775071 2.89711 0
M  V30 7134 H 676.001 0.440065 1.49977 0
M  V30 7135 H 676.736 -1.78967 2.70446 0
M  V30 7136 H 676.521 -0.471687 3.89253 0
M  V30 7137 H 678.011 -1.46167 3.91184 0
M  V30 7138 N 678.448 -1.51871 0.421078 0
M  V30 7139 C 679.378 -2.30231 -0.389363 0
M  V30 7140 C 680.359 -1.34946 -1.03555 0
M  V30 7141 O 681.544 -1.63859 -1.04229 0
M  V30 7142 C 678.674 -3.13247 -1.49979 0
M  V30 7143 C 677.628 -4.16677 -0.977966 0
M  V30 7144 C 676.954 -4.88112 -2.1829 0
M  V30 7145 C 678.254 -5.22295 -0.0236775 0
M  V30 7146 H 679.948 -2.98229 0.264524 0
M  V30 7147 H 677.494 -1.43424 0.12866 0
M  V30 7148 H 679.447 -3.66838 -2.07383 0
M  V30 7149 H 678.171 -2.4304 -2.18173 0
M  V30 7150 H 676.83 -3.64114 -0.426245 0
M  V30 7151 H 676.478 -4.14423 -2.85066 0
M  V30 7152 H 676.178 -5.58041 -1.84021 0
M  V30 7153 H 677.702 -5.44521 -2.76278 0
M  V30 7154 H 679.116 -5.71055 -0.506899 0
M  V30 7155 H 677.513 -5.99656 0.230782 0
M  V30 7156 H 678.583 -4.76131 0.917999 0
M  V30 7157 N 679.926 -0.151884 -1.56866 0
M  V30 7158 C 681.172 0.492327 -1.97352 0
M  V30 7159 C 681.527 1.62156 -1.03553 0
M  V30 7160 O 680.82 1.91467 -0.0714872 0
M  V30 7161 C 681.014 1.04074 -3.41911 0
M  V30 7162 C 680.843 -0.0338306 -4.49687 0
M  V30 7163 C 679.613 -0.476914 -5.03044 0
M  V30 7164 C 681.811 -0.827105 -5.07606 0
M  V30 7165 N 679.793 -1.53382 -5.9443 0
M  V30 7166 C 681.164 -1.73439 -5.95247 0
M  V30 7167 C 683.219 -0.874351 -4.90163 0
M  V30 7168 C 681.922 -2.68488 -6.67313 0
M  V30 7169 C 683.948 -1.81269 -5.62935 0
M  V30 7170 C 683.31 -2.70749 -6.50288 0
M  V30 7171 H 679.409 0.148822 -0.767708 0
M  V30 7172 H 681.993 -0.247615 -1.93119 0
M  V30 7173 H 680.164 1.75027 -3.46728 0
M  V30 7174 H 681.896 1.65197 -3.69448 0
M  V30 7175 H 678.651 -0.0782493 -4.73535 0
M  V30 7176 H 679.075 -2.06217 -6.44828 0
M  V30 7177 H 683.717 -0.196628 -4.22343 0
M  V30 7178 H 681.435 -3.37257 -7.34359 0
M  V30 7179 H 685.021 -1.85511 -5.51432 0
M  V30 7180 H 683.901 -3.42175 -7.0561 0
M  V30 7181 N 681.404 1.57128 0.121893 0
M  V30 7182 C 682.65 1.84974 0.831418 0
M  V30 7183 C 682.983 0.737204 1.79663 0
M  V30 7184 O 682.258 -0.257199 1.92792 0
M  V30 7185 C 682.541 3.23397 1.58386 0
M  V30 7186 C 682.394 4.45246 0.638445 0
M  V30 7187 C 683.713 3.59355 2.54071 0
M  V30 7188 H 680.832 0.67282 0.300803 0
M  V30 7189 H 683.474 1.89759 0.0957587 0
M  V30 7190 H 681.624 3.19449 2.21098 0
M  V30 7191 H 683.296 4.61295 0.0203925 0
M  V30 7192 H 681.539 4.33771 -0.05023 0
M  V30 7193 H 682.21 5.38765 1.20151 0
M  V30 7194 H 684.686 3.64075 2.01465 0
M  V30 7195 H 683.562 4.57193 3.03752 0
M  V30 7196 H 683.823 2.86622 3.36601 0
M  V30 7197 N 682.882 -0.391992 1.52647 0
M  V30 7198 C 684.298 -0.731848 1.41831 0
M  V30 7199 C 684.498 -1.9423 0.536361 0
M  V30 7200 O 683.554 -2.52499 0.00866571 0
M  V30 7201 C 684.867 -0.969743 2.84634 0
M  V30 7202 C 686.415 -1.0714 2.94092 0
M  V30 7203 C 686.89 -1.34195 4.37899 0
M  V30 7204 N 688.381 -1.41023 4.41211 0
M  V30 7205 C 689.116 -1.63616 5.49561 0
M  V30 7206 N 688.612 -1.83699 6.68002 0
M  V30 7207 N 690.405 -1.65771 5.371 0
M  V30 7208 H 682.556 0.404547 2.08512 0
M  V30 7209 H 684.819 0.11879 0.940528 0
M  V30 7210 H 684.525 -0.152465 3.51369 0
M  V30 7211 H 684.399 -1.88523 3.26709 0
M  V30 7212 H 686.786 -1.87925 2.27526 0
M  V30 7213 H 686.867 -0.133887 2.55449 0
M  V30 7214 H 686.511 -0.539207 5.0503 0
M  V30 7215 H 686.441 -2.29226 4.74092 0
M  V30 7216 H 688.932 -1.27223 3.55841 0
M  V30 7217 H 689.245 -2.00437 7.46354 0
M  V30 7218 H 687.59 -1.8093 6.71036 0
M  V30 7219 H 690.781 -1.4963 4.43541 0
M  V30 7220 H 690.954 -1.83038 6.21612 0
M  V30 7221 N 684.36 -1.4356 -0.65026 0
M  V30 7222 C 685.323 -1.48615 -1.74489 0
M  V30 7223 C 686.323 -0.370483 -1.56474 0
M  V30 7224 O 687.513 -0.632351 -1.62317 0
M  V30 7225 C 684.645 -1.34161 -3.13391 0
M  V30 7226 H 685.838 -2.46103 -1.71387 0
M  V30 7227 H 683.391 -1.30369 -0.862186 0
M  V30 7228 H 684.126 -0.376918 -3.22102 0
M  V30 7229 H 683.911 -2.1504 -3.27872 0
M  V30 7230 H 685.401 -1.40637 -3.93206 0
M  V30 7231 N 685.838 0.888903 -1.30139 0
M  V30 7232 C 687.086 1.63713 -1.18501 0
M  V30 7233 C 687.407 1.9324 0.261399 0
M  V30 7234 O 686.677 1.56608 1.17689 0
M  V30 7235 H 685.257 0.606861 -0.435579 0
M  V30 7236 H 687.919 1.06525 -1.63213 0
M  V30 7237 H 687.015 2.58894 -1.743 0
M  V30 7238 N 687.317 1.12792 1.10072 0
M  V30 7239 C 688.733 0.864745 1.34143 0
M  V30 7240 C 688.933 -0.503201 1.95116 0
M  V30 7241 O 687.989 -1.25111 2.19325 0
M  V30 7242 C 689.302 1.98413 2.25949 0
M  V30 7243 C 690.85 2.01545 2.39476 0
M  V30 7244 C 691.325 3.12727 3.34613 0
M  V30 7245 N 692.816 3.12194 3.42183 0
M  V30 7246 C 693.551 3.94862 4.15779 0
M  V30 7247 N 693.047 4.87528 4.92228 0
M  V30 7248 N 694.84 3.82985 4.11435 0
M  V30 7249 H 686.991 2.00926 0.68866 0
M  V30 7250 H 689.254 0.874564 0.365844 0
M  V30 7251 H 688.96 2.97005 1.88364 0
M  V30 7252 H 688.834 1.89254 3.26287 0
M  V30 7253 H 691.221 1.0357 2.76328 0
M  V30 7254 H 691.302 2.14777 1.3894 0
M  V30 7255 H 690.946 4.10936 2.98486 0
M  V30 7256 H 690.876 2.96732 4.35037 0
M  V30 7257 H 693.367 2.45065 2.87666 0
M  V30 7258 H 693.68 5.47109 5.45794 0
M  V30 7259 H 692.025 4.91539 4.9134 0
M  V30 7260 H 695.216 3.09923 3.50807 0
M  V30 7261 H 695.389 4.47641 4.68531 0
M  V30 7262 O 688.834 -1.22539 1.05197 0
M  V30 7263 H 689.525 -1.79492 0.728171 0
M  V30 END ATOM
M  V30 BEGIN BOND
M  V30 END BOND
M  V30 END CTAB
M  END
$$$$
