drugbank_target|Q9UJT0 Tubulin epsilon chain (DB00570)
 OpenBabel12092120373D

  0  0  0     0  0            999 V3000
M  V30 BEGIN CTAB
M  V30 COUNTS 7430 7502 0 0 0
M  V30 BEGIN ATOM
M  V30 1 H -0.908 1.98254 -0.117106 0
M  V30 2 N 0 1.576 0 0
M  V30 3 C 0.933 2.03868 1.02534 0
M  V30 4 C 1.911 0.928543 1.3348 0
M  V30 5 O 3.095 1.19667 1.45644 0
M  V30 6 C 0.222 2.43627 2.35294 0
M  V30 7 C -0.732 3.65373 2.2001 0
M  V30 8 S 0.101 5.13292 1.52614 0
M  V30 9 C 1.257 5.56322 2.86805 0
M  V30 10 H 1.49 2.90518 0.631377 0
M  V30 11 H -0.977 1.52953 0.210867 0
M  V30 12 H 0.981 2.67203 3.11629 0
M  V30 13 H -0.358 1.57376 2.7183 0
M  V30 14 H -1.165 3.90944 3.18086 0
M  V30 15 H -1.563 3.418 1.51819 0
M  V30 16 H 0.729 5.58782 3.83104 0
M  V30 17 H 1.672 6.56266 2.65933 0
M  V30 18 H 2.08 4.83886 2.90714 0
M  V30 19 N 1.4781 -0.272755 1.55222 0
M  V30 20 C 2.7061 -1.02255 1.79865 0
M  V30 21 C 3.1211 -1.79924 0.572088 0
M  V30 22 O 2.4781 -1.76638 -0.458842 0
M  V30 23 C 2.5291 -1.98094 3.02392 0
M  V30 24 O 2.2501 -1.23572 4.20311 0
M  V30 25 C 3.7511 -2.84884 3.39641 0
M  V30 26 H 0.9711 -0.302057 0.599168 0
M  V30 27 H 3.5151 -0.303465 2.02236 0
M  V30 28 H 1.6701 -2.65465 2.82147 0
M  V30 29 H 2.0841 -1.88172 4.89583 0
M  V30 30 H 3.5581 -3.47927 4.28545 0
M  V30 31 H 4.0351 -3.54665 2.59055 0
M  V30 32 H 4.6411 -2.23003 3.62146 0
M  V30 33 N 2.9562 -1.48159 -0.537278 0
M  V30 34 C 3.8882 -1.58218 -1.65831 0
M  V30 35 C 4.9012 -0.466948 -1.5596 0
M  V30 36 O 6.0902 -0.73747 -1.62553 0
M  V30 37 C 3.1902 -1.48906 -3.04434 0
M  V30 38 C 2.3632 -2.75343 -3.3986 0
M  V30 39 C 1.4222 -2.59588 -4.57712 0
M  V30 40 O 0.4482 -3.33457 -4.61297 0
M  V30 41 N 1.6502 -1.68724 -5.55439 0
M  V30 42 H 4.4152 -2.54891 -1.57641 0
M  V30 43 H 1.9762 -1.4479 -0.724386 0
M  V30 44 H 3.9682 -1.36072 -3.81139 0
M  V30 45 H 2.5382 -0.602368 -3.06741 0
M  V30 46 H 1.7582 -3.02795 -2.52406 0
M  V30 47 H 3.0462 -3.5924 -3.60311 0
M  V30 48 H 2.4442 -1.07898 -5.55315 0
M  V30 49 H 1.0012 -1.61832 -6.3139 0
M  V30 50 N 4.4343 0.785586 -1.36625 0
M  V30 51 C 5.6593 1.57963 -1.34397 0
M  V30 52 C 6.0843 1.87964 0.071526 0
M  V30 53 O 5.4423 1.48182 1.0446 0
M  V30 54 C 5.4903 2.87511 -2.17646 0
M  V30 55 O 4.5943 3.81281 -1.57158 0
M  V30 56 H 3.9353 0.479014 -0.459828 0
M  V30 57 H 6.4653 0.973411 -1.79961 0
M  V30 58 H 6.4753 3.36745 -2.30362 0
M  V30 59 H 5.1503 2.65002 -3.20541 0
M  V30 60 H 3.7273 3.39885 -1.53403 0
M  V30 61 N 5.9124 1.20967 1.01018 0
M  V30 62 C 7.1584 1.02526 1.74975 0
M  V30 63 C 7.4914 -0.4408 1.89131 0
M  V30 64 O 6.7664 -1.32718 1.42184 0
M  V30 65 C 7.0494 1.71699 3.1653 0
M  V30 66 C 6.9024 3.25791 3.10129 0
M  V30 67 C 8.2214 1.45531 4.15342 0
M  V30 68 H 5.3404 0.373863 0.635134 0
M  V30 69 H 7.9824 1.49071 1.17805 0
M  V30 70 H 6.1324 1.32128 3.65341 0
M  V30 71 H 7.8044 3.74697 2.69072 0
M  V30 72 H 6.0474 3.56363 2.47362 0
M  V30 73 H 6.7184 3.69353 4.10222 0
M  V30 74 H 9.1944 1.79872 3.75213 0
M  V30 75 H 8.0704 1.96453 5.1254 0
M  V30 76 H 8.3314 0.384237 4.40427 0
M  V30 77 N 7.3905 -1.2043 1.01659 0
M  V30 78 C 8.6365 -1.90079 0.706963 0
M  V30 79 C 8.9695 -1.78648 -0.761474 0
M  V30 80 O 8.2445 -1.17069 -1.55323 0
M  V30 81 C 8.5275 -3.41469 1.14327 0
M  V30 82 C 8.3805 -3.61833 2.67201 0
M  V30 83 C 9.6995 -4.34261 0.714529 0
M  V30 84 H 6.8185 -0.690254 0.2583 0
M  V30 85 H 9.4605 -1.41826 1.26433 0
M  V30 86 H 7.6105 -3.82696 0.669056 0
M  V30 87 H 9.2825 -3.2986 3.22475 0
M  V30 88 H 7.5255 -3.05304 3.08175 0
M  V30 89 H 8.1965 -4.67955 2.92783 0
M  V30 90 H 10.6725 -4.00682 1.12221 0
M  V30 91 H 9.5485 -5.38806 1.04784 0
M  V30 92 H 9.8095 -4.40431 -0.383799 0
M  V30 93 N 8.8686 -0.792821 -1.36206 0
M  V30 94 C 10.1146 -0.36733 -1.99446 0
M  V30 95 C 10.4476 1.05917 -1.62774 0
M  V30 96 O 9.7226 1.7324 -0.88421 0
M  V30 97 C 10.0056 -0.535044 -3.56103 0
M  V30 98 C 9.8586 -2.00548 -4.02617 0
M  V30 99 C 11.1776 0.0478191 -4.40074 0
M  V30 100 H 8.2966 -0.134941 -0.724541 0
M  V30 101 H 10.9386 -0.999794 -1.61568 0
M  V30 102 H 9.0886 0.00336329 -3.885 0
M  V30 103 H 10.7606 -2.60521 -3.80692 0
M  V30 104 H 9.0036 -2.50686 -3.54032 0
M  V30 105 H 9.6746 -2.07377 -5.11565 0
M  V30 106 H 12.1506 -0.411822 -4.14057 0
M  V30 107 H 11.0266 -0.0995336 -5.4881 0
M  V30 108 H 11.2876 1.14025 -4.27142 0
M  V30 109 N 10.3467 1.47872 -0.545128 0
M  V30 110 C 11.2787 2.27869 0.246621 0
M  V30 111 C 12.2917 1.36282 0.890561 0
M  V30 112 O 13.4807 1.61207 0.766449 0
M  V30 113 C 10.5807 3.10159 1.36582 0
M  V30 114 C 9.7537 4.29627 0.820954 0
M  V30 115 C 8.8127 4.93607 1.82314 0
M  V30 116 O 7.8387 5.52366 1.37406 0
M  V30 117 N 9.0407 4.87211 3.15603 0
M  V30 118 H 11.8057 2.96459 -0.439539 0
M  V30 119 H 9.3667 1.57367 -0.380421 0
M  V30 120 H 11.3587 3.49829 2.03474 0
M  V30 121 H 9.9287 2.43891 1.9554 0
M  V30 122 H 9.1487 3.94192 -0.0244032 0
M  V30 123 H 10.4367 5.06928 0.436063 0
M  V30 124 H 9.8347 4.40651 3.54744 0
M  V30 125 H 8.3917 5.30937 3.78087 0
M  V30 126 N 11.8248 0.280983 1.55075 0
M  V30 127 C 13.0708 -0.33461 2.00021 0
M  V30 128 C 13.4038 -1.55063 1.16915 0
M  V30 129 O 12.6788 -1.93006 0.240646 0
M  V30 130 C 12.9618 -0.711007 3.53011 0
M  V30 131 C 12.8148 0.512766 4.46868 0
M  V30 132 C 14.1338 -1.54522 4.12081 0
M  V30 133 H 11.2528 -0.120147 0.727141 0
M  V30 134 H 13.8948 0.389097 1.85973 0
M  V30 135 H 12.0448 -1.32761 3.65112 0
M  V30 136 H 13.7168 1.15131 4.46702 0
M  V30 137 H 11.9598 1.14975 4.18286 0
M  V30 138 H 12.6308 0.205556 5.51617 0
M  V30 139 H 15.1068 -1.02442 4.03293 0
M  V30 140 H 13.9828 -1.77739 5.19327 0
M  V30 141 H 14.2438 -2.52813 3.62682 0
M  V30 142 N 13.3029 -1.57598 0.00835791 0
M  V30 143 C 14.5509 -1.90551 -0.6734 0
M  V30 144 C 14.8719 -0.883301 -1.73847 0
M  V30 145 O 14.1419 0.0781442 -1.95744 0
M  V30 146 H 12.7219 -0.703312 -0.251717 0
M  V30 147 H 15.3839 -1.94833 0.0512592 0
M  V30 148 H 14.4799 -2.9056 -1.13935 0
M  V30 149 N 14.781 0.264519 -1.55364 0
M  V30 150 C 15.713 1.34965 -1.85248 0
M  V30 151 C 16.726 1.45136 -0.737525 0
M  V30 152 O 17.915 1.46801 -1.01547 0
M  V30 153 C 15.015 2.73008 -2.00797 0
M  V30 154 C 14.188 2.85324 -3.31525 0
M  V30 155 C 13.247 4.04097 -3.37034 0
M  V30 156 O 12.273 3.94455 -4.10358 0
M  V30 157 N 13.475 5.16458 -2.65049 0
M  V30 158 H 16.24 1.09672 -2.78913 0
M  V30 159 H 13.801 0.454635 -1.55386 0
M  V30 160 H 15.793 3.50772 -2.01844 0
M  V30 161 H 14.363 2.91087 -1.1396 0
M  V30 162 H 13.583 1.94377 -3.42945 0
M  V30 163 H 14.871 2.9049 -4.17724 0
M  V30 164 H 14.269 5.27181 -2.05175 0
M  V30 165 H 12.826 5.92422 -2.71809 0
M  V30 166 N 16.2591 1.48442 0.529413 0
M  V30 167 C 17.4991 1.58086 1.29569 0
M  V30 168 C 17.8631 0.249302 1.90375 0
M  V30 169 O 19.0641 0.220738 2.67892 0
M  V30 170 C 17.3351 2.68793 2.35552 0
M  V30 171 S 18.8941 2.98207 3.21898 0
M  V30 172 H 15.7121 0.557922 0.440732 0
M  V30 173 H 18.3141 1.85966 0.603059 0
M  V30 174 H 17.0181 3.64102 1.89363 0
M  V30 175 H 16.5491 2.42817 3.09522 0
M  V30 176 H 18.5641 2.37548 4.35644 0
M  V30 177 N 17.7372 -0.778329 1.37039 0
M  V30 178 C 18.9852 -1.53361 1.31623 0
M  V30 179 C 19.3062 -1.94739 -0.100831 0
M  V30 180 O 18.5762 -1.65797 -1.04347 0
M  V30 181 H 17.1562 -0.568794 0.484234 0
M  V30 182 H 19.8182 -0.926742 1.71457 0
M  V30 183 H 18.9142 -2.43606 1.95096 0
M  V30 184 N 19.2153 -1.21501 -1.00376 0
M  V30 185 C 20.1633 -0.972442 -2.11297 0
M  V30 186 C 21.1573 0.080731 -1.69208 0
M  V30 187 O 22.3633 -0.0707666 -1.79861 0
M  V30 188 H 18.7383 -0.297218 -0.690772 0
M  V30 189 H 20.7093 -1.91394 -2.28934 0
M  V30 190 C 19.4583 -0.555065 -3.43241 0
M  V30 191 H 18.7813 -1.35709 -3.76062 0
M  V30 192 H 20.2213 -0.424664 -4.21868 0
M  V30 193 C 18.6803 0.734147 -3.28804 0
M  V30 194 O 19.2103 1.78937 -3.59645 0
M  V30 195 N 17.4163 0.701133 -2.82015 0
M  V30 196 H 16.9633 -0.157874 -2.57116 0
M  V30 197 H 16.9213 1.56403 -2.72737 0
M  V30 198 N 20.6934 1.19889 -1.02296 0
M  V30 199 C 21.6254 2.22334 -0.556787 0
M  V30 200 C 22.6384 1.58674 0.364199 0
M  V30 201 O 23.8274 1.77768 0.161533 0
M  V30 202 C 20.9274 3.38257 0.208694 0
M  V30 203 C 20.1004 4.31504 -0.71577 0
M  V30 204 C 19.1594 5.262 0.00325597 0
M  V30 205 O 18.1854 5.65798 -0.621357 0
M  V30 206 N 19.3874 5.66303 1.27599 0
M  V30 207 H 22.1524 2.62957 -1.43784 0
M  V30 208 H 19.7134 1.34495 -0.901261 0
M  V30 209 H 21.7054 3.98616 0.699111 0
M  V30 210 H 20.2754 2.96472 0.991102 0
M  V30 211 H 19.4954 3.69016 -1.38638 0
M  V30 212 H 20.7834 4.9072 -1.34428 0
M  V30 213 H 20.1814 5.36155 1.80429 0
M  V30 214 H 18.7384 6.28942 1.71102 0
M  V30 215 N 22.1715 0.800033 1.35784 0
M  V30 216 C 23.4205 0.37387 1.98205 0
M  V30 217 C 23.7335 -1.06302 1.64193 0
M  V30 218 O 24.9395 -1.59198 2.19928 0
M  V30 219 C 23.3955 0.617532 3.54562 0
M  V30 220 C 23.0035 2.06654 3.9749 0
M  V30 221 C 24.7475 0.256401 4.23725 0
M  V30 222 C 22.6545 2.2563 5.46667 0
M  V30 223 H 21.5845 0.136055 0.741623 0
M  V30 224 H 24.2355 0.983166 1.54939 0
M  V30 225 H 22.6175 -0.0616248 3.95952 0
M  V30 226 H 23.7915 2.78296 3.67271 0
M  V30 227 H 22.1065 2.38691 3.41197 0
M  V30 228 H 24.7035 0.376318 5.33374 0
M  V30 229 H 25.0465 -0.796692 4.08606 0
M  V30 230 H 25.5795 0.889214 3.87734 0
M  V30 231 H 22.3185 3.2936 5.66747 0
M  V30 232 H 21.8385 1.58504 5.78478 0
M  V30 233 H 23.5175 2.06861 6.1304 0
M  V30 234 N 23.6496 -1.47581 0.552962 0
M  V30 235 C 24.8976 -2.02082 0.0272703 0
M  V30 236 C 25.2186 -1.4301 -1.32563 0
M  V30 237 O 24.4886 -0.603745 -1.86365 0
M  V30 238 H 23.0686 -0.746966 0.00709182 0
M  V30 239 H 25.7306 -1.81033 0.722008 0
M  V30 240 H 24.8266 -3.12034 -0.0639951 0
M  V30 241 N 25.1277 -0.289203 -1.54924 0
M  V30 242 C 26.3677 0.324536 -2.01807 0
M  V30 243 C 26.7317 1.5199 -1.17316 0
M  V30 244 O 27.9327 2.20422 -1.53843 0
M  V30 245 C 26.2037 0.683578 -3.50802 0
M  V30 246 S 27.7627 1.28185 -4.19659 0
M  V30 247 H 24.5807 0.100236 -0.703899 0
M  V30 248 H 27.1827 -0.414325 -1.91059 0
M  V30 249 H 25.8867 -0.195073 -4.09936 0
M  V30 250 H 25.4177 1.45354 -3.65562 0
M  V30 251 H 27.4327 2.57006 -4.24456 0
M  V30 252 N 26.6058 1.57591 -0.0167156 0
M  V30 253 C 27.8458 1.93145 0.668902 0
M  V30 254 C 28.2098 0.892406 1.7 0
M  V30 255 O 29.4108 1.13373 2.43721 0
M  V30 256 C 27.6818 3.33678 1.28039 0
M  V30 257 S 29.2408 3.91142 1.9888 0
M  V30 258 H 26.0588 0.67593 0.220545 0
M  V30 259 H 28.6608 1.95347 -0.0774105 0
M  V30 260 H 27.3648 4.07126 0.517339 0
M  V30 261 H 26.8958 3.3489 2.06427 0
M  V30 262 H 28.9108 3.73571 3.26587 0
M  V30 263 N 28.0839 -0.256276 1.55502 0
M  V30 264 C 29.3309 -0.985619 1.76895 0
M  V30 265 C 29.6589 -1.85671 0.579355 0
M  V30 266 O 28.9139 -1.90744 -0.437651 0
M  V30 267 C 29.2129 -1.88432 3.03691 0
M  V30 268 C 28.8789 -1.16936 4.35473 0
M  V30 269 C 27.5409 -0.97173 4.71286 0
M  V30 270 C 29.8929 -0.661889 5.1698 0
M  V30 271 C 27.2209 -0.254179 5.86149 0
M  V30 272 C 29.5729 0.042149 6.32586 0
M  V30 273 C 28.2369 0.25134 6.67027 0
M  V30 274 H 27.5069 -0.360663 0.647304 0
M  V30 275 H 30.1539 -0.256483 1.89775 0
M  V30 276 H 28.4589 -2.68021 2.85783 0
M  V30 277 H 30.1559 -2.45015 3.1744 0
M  V30 278 H 26.7459 -1.33332 4.07333 0
M  V30 279 H 30.9299 -0.802145 4.89775 0
M  V30 280 H 26.1859 -0.0815408 6.11346 0
M  V30 281 H 30.3599 0.443049 6.94989 0
M  V30 282 H 27.9869 0.809314 7.5588 0
M  V30 283 N 29.562 -1.4872 -0.521534 0
M  V30 284 C 30.808 -1.58378 -1.27624 0
M  V30 285 C 31.163 -0.258028 -1.90662 0
M  V30 286 O 30.456 0.739917 -1.76736 0
M  V30 287 C 30.65 -2.66497 -2.38148 0
M  V30 288 C 30.479 -4.09456 -1.85945 0
M  V30 289 C 29.249 -4.76495 -1.68168 0
M  V30 290 C 31.447 -4.95353 -1.3831 0
M  V30 291 N 29.429 -6.0384 -1.1068 0
M  V30 292 C 30.8 -6.13012 -0.928238 0
M  V30 293 C 32.855 -4.81512 -1.26692 0
M  V30 294 C 31.558 -7.18354 -0.368701 0
M  V30 295 C 33.584 -5.86984 -0.721368 0
M  V30 296 C 32.946 -7.03857 -0.276623 0
M  V30 297 H 29.045 -0.634045 -0.457724 0
M  V30 298 H 31.629 -1.85639 -0.587049 0
M  V30 299 H 29.8 -2.41043 -3.04553 0
M  V30 300 H 31.532 -2.65791 -3.05184 0
M  V30 301 H 28.287 -4.32962 -1.91939 0
M  V30 302 H 28.711 -6.71778 -0.839217 0
M  V30 303 H 33.353 -3.91487 -1.5968 0
M  V30 304 H 31.071 -8.08096 -0.0265122 0
M  V30 305 H 34.657 -5.78329 -0.634531 0
M  V30 306 H 33.537 -7.84077 0.138947 0
M  V30 307 N 31.0401 0.771051 -1.3745 0
M  V30 308 C 32.3171 1.519 -1.23231 0
M  V30 309 C 32.6971 2.10383 0.173809 0
M  V30 310 O 32.0451 1.95583 1.18151 0
M  V30 311 C 32.2551 2.59933 -2.32886 0
M  V30 312 C 33.6031 3.27316 -2.70461 0
M  V30 313 O 34.6271 2.70228 -2.32068 0
M  V30 314 O 33.4861 4.30531 -3.36608 0
M  V30 315 H 30.5801 0.672803 -0.480901 0
M  V30 316 H 33.1261 0.807957 -1.49232 0
M  V30 317 H 31.8981 2.14842 -3.27045 0
M  V30 318 H 31.5211 3.38637 -2.08353 0
M  V30 319 N 32.5182 1.22032 0.997298 0
M  V30 320 C 33.4482 1.01065 2.10495 0
M  V30 321 C 34.4292 -0.0669542 1.69968 0
M  V30 322 O 35.6142 0.0943987 1.9397 0
M  V30 323 C 32.7442 0.582874 3.42374 0
M  V30 324 C 31.6982 1.60592 3.96729 0
M  V30 325 C 31.0242 1.03412 5.24605 0
M  V30 326 C 32.3242 2.99478 4.27914 0
M  V30 327 H 34.0182 1.93708 2.28292 0
M  V30 328 H 31.5642 0.932761 1.09707 0
M  V30 329 H 33.5172 0.423332 4.19268 0
M  V30 330 H 32.2412 -0.379213 3.24391 0
M  V30 331 H 30.9002 1.75316 3.21963 0
M  V30 332 H 30.5482 0.063518 5.0296 0
M  V30 333 H 30.2482 1.71754 5.61938 0
M  V30 334 H 31.7722 0.886066 6.04137 0
M  V30 335 H 33.1862 2.88153 4.95622 0
M  V30 336 H 31.5832 3.64903 4.76409 0
M  V30 337 H 32.6532 3.49742 3.3587 0
M  V30 338 N 33.9963 -1.19345 1.0293 0
M  V30 339 C 34.9593 -2.20793 0.615069 0
M  V30 340 C 35.9593 -1.57553 -0.321533 0
M  V30 341 O 37.1493 -1.73862 -0.108483 0
M  V30 342 C 34.2813 -3.40754 -0.0999222 0
M  V30 343 H 35.4743 -2.58955 1.51269 0
M  V30 344 H 33.0273 -1.3303 0.820534 0
M  V30 345 H 33.7623 -3.0811 -1.01187 0
M  V30 346 H 33.5473 -3.87889 0.57309 0
M  V30 347 H 35.0373 -4.15898 -0.376645 0
M  V30 348 N 35.4744 -0.807222 -1.35358 0
M  V30 349 C 36.4044 -0.232509 -2.3234 0
M  V30 350 C 37.3854 0.642386 -1.57504 0
M  V30 351 O 38.5704 0.572526 -1.85569 0
M  V30 352 C 35.7004 0.619238 -3.41735 0
M  V30 353 C 34.6544 -0.157215 -4.27711 0
M  V30 354 C 33.9804 0.816273 -5.28433 0
M  V30 355 C 35.2804 -1.35656 -5.04376 0
M  V30 356 H 36.9744 -1.04276 -2.80654 0
M  V30 357 H 34.5204 -0.50288 -1.34934 0
M  V30 358 H 36.4734 1.03137 -4.08584 0
M  V30 359 H 35.1974 1.46239 -2.92031 0
M  V30 360 H 33.8564 -0.550525 -3.62443 0
M  V30 361 H 33.5044 1.65494 -4.74996 0
M  V30 362 H 33.2044 0.301067 -5.86828 0
M  V30 363 H 34.7284 1.22659 -5.98153 0
M  V30 364 H 36.1424 -1.01927 -5.64166 0
M  V30 365 H 34.5394 -1.8063 -5.7227 0
M  V30 366 H 35.6094 -2.14288 -4.34981 0
M  V30 367 N 36.9525 1.47285 -0.560781 0
M  V30 368 C 38.3685 1.58065 -0.22081 0
M  V30 369 C 38.5685 1.55892 1.27671 0
M  V30 370 O 37.6245 1.46422 2.0571 0
M  V30 371 C 38.9375 2.88418 -0.850625 0
M  V30 372 C 40.4855 3.02009 -0.822184 0
M  V30 373 C 40.9605 4.35066 -1.43113 0
M  V30 374 N 42.4515 4.41711 -1.39448 0
M  V30 375 C 43.1865 5.43237 -1.83525 0
M  V30 376 N 42.6825 6.51555 -2.35474 0
M  V30 377 N 44.4755 5.34304 -1.74574 0
M  V30 378 H 36.6265 1.46941 -1.53369 0
M  V30 379 H 38.8895 0.699558 -0.639783 0
M  V30 380 H 38.5955 2.95755 -1.9032 0
M  V30 381 H 38.4695 3.75612 -0.345773 0
M  V30 382 H 40.8565 2.94266 0.221714 0
M  V30 383 H 40.9375 2.16347 -1.36483 0
M  V30 384 H 40.5815 4.43565 -2.47412 0
M  V30 385 H 40.5115 5.19465 -0.863899 0
M  V30 386 H 43.0025 3.64027 -1.01452 0
M  V30 387 H 43.3155 7.25203 -2.67021 0
M  V30 388 H 41.6605 6.52435 -2.39487 0
M  V30 389 H 44.8515 4.48581 -1.33763 0
M  V30 390 H 45.0245 6.13288 -2.09242 0
M  V30 391 N 38.4306 0.297415 1.54768 0
M  V30 392 C 39.3406 -0.58983 2.27064 0
M  V30 393 C 40.3566 -1.15144 1.30453 0
M  V30 394 O 41.5326 -1.17699 1.63428 0
M  V30 395 C 38.5976 -1.74714 2.9946 0
M  V30 396 C 37.6586 -1.21997 4.11601 0
M  V30 397 C 36.8916 -2.32212 4.80535 0
M  V30 398 O 37.1146 -3.52036 4.48806 0
M  V30 399 O 36.0486 -1.99106 5.68014 0
M  V30 400 H 39.8746 -0.00348199 3.037 0
M  V30 401 H 37.4596 0.0640035 1.49263 0
M  V30 402 H 39.3416 -2.42147 3.44881 0
M  V30 403 H 38.0166 -2.32016 2.25722 0
M  V30 404 H 36.9236 -0.511458 3.70587 0
M  V30 405 H 38.2566 -0.692419 4.87305 0
M  V30 406 N 39.9087 -1.5758 0.0250728 0
M  V30 407 C 40.8587 -2.06468 -0.967201 0
M  V30 408 C 41.8427 -0.964376 -1.28797 0
M  V30 409 O 43.0347 -1.22797 -1.27475 0
M  V30 410 C 40.1637 -2.59203 -2.25097 0
M  V30 411 C 39.2497 -3.76157 -1.95874 0
M  V30 412 N 39.6407 -4.86919 -1.36905 0
M  V30 413 C 37.9387 -3.84566 -2.25887 0
M  V30 414 C 38.6397 -5.68172 -1.24724 0
M  V30 415 N 37.6157 -5.14953 -1.74138 0
M  V30 416 H 41.4177 -2.89508 -0.506176 0
M  V30 417 H 38.9317 -1.61399 -0.18004 0
M  V30 418 H 40.9287 -2.92517 -2.97052 0
M  V30 419 H 39.5887 -1.77592 -2.71829 0
M  V30 420 H 40.5997 -5.07256 -1.04459 0
M  V30 421 H 37.2767 -3.13854 -2.75321 0
M  V30 422 H 38.6667 -6.67221 -0.791605 0
M  V30 423 N 41.3868 0.248026 -1.55636 0
M  V30 424 C 42.3498 1.29044 -1.89421 0
M  V30 425 C 43.3498 1.41134 -0.770581 0
M  V30 426 O 44.5398 1.39854 -1.03858 0
M  V30 427 C 41.6718 2.66831 -2.12165 0
M  V30 428 H 42.8648 1.00305 -2.82629 0
M  V30 429 H 40.4178 0.487265 -1.48511 0
M  V30 430 H 41.1528 3.00711 -1.21422 0
M  V30 431 H 40.9378 2.59438 -2.93997 0
M  V30 432 H 42.4278 3.42103 -2.3949 0
M  V30 433 N 42.8649 1.48995 0.513639 0
M  V30 434 C 43.8279 1.64229 1.59879 0
M  V30 435 C 44.8279 0.514696 1.5234 0
M  V30 436 O 46.0179 0.78087 1.55718 0
M  V30 437 C 43.1499 1.62783 2.99524 0
M  V30 438 H 44.3429 2.61004 1.47705 0
M  V30 439 H 41.8959 1.37837 0.736936 0
M  V30 440 H 42.6309 0.675461 3.17188 0
M  V30 441 H 42.4159 2.4466 3.06404 0
M  V30 442 H 43.9059 1.76669 3.78388 0
M  V30 443 N 44.343 -0.763751 1.37857 0
M  V30 444 C 45.589 -1.52483 1.33704 0
M  V30 445 C 45.922 -1.94051 -0.0759612 0
M  V30 446 O 45.197 -1.64675 -1.03501 0
M  V30 447 C 45.48 -2.78441 2.28348 0
M  V30 448 C 45.333 -2.43075 3.78463 0
M  V30 449 C 46.652 -3.80415 2.21298 0
M  V30 450 H 43.771 -0.553169 0.487005 0
M  V30 451 H 46.413 -0.875562 1.68624 0
M  V30 452 H 44.563 -3.33842 1.987 0
M  V30 453 H 46.235 -1.93527 4.18742 0
M  V30 454 H 44.478 -1.75666 3.96641 0
M  V30 455 H 45.149 -3.33149 4.40132 0
M  V30 456 H 47.625 -3.34527 2.47449 0
M  V30 457 H 46.501 -4.66257 2.89647 0
M  V30 458 H 46.762 -4.25262 1.20849 0
M  V30 459 N 45.8211 -1.22559 -0.990812 0
M  V30 460 C 46.7691 -0.994798 -2.10253 0
M  V30 461 C 47.7631 0.0627798 -1.69284 0
M  V30 462 O 48.9691 -0.0898392 -1.79776 0
M  V30 463 H 45.3441 -0.304527 -0.687581 0
M  V30 464 H 47.3151 -1.93812 -2.26891 0
M  V30 465 C 46.0641 -0.591439 -3.42633 0
M  V30 466 H 45.3871 -1.3969 -3.74602 0
M  V30 467 H 46.8271 -0.469385 -4.21394 0
M  V30 468 C 45.2861 0.699232 -3.29564 0
M  V30 469 O 45.8161 1.75112 -3.61523 0
M  V30 470 N 44.0221 0.671182 -2.82743 0
M  V30 471 H 43.5691 -0.185136 -2.56934 0
M  V30 472 H 43.5271 1.53502 -2.7438 0
M  V30 473 N 47.2992 1.18797 -1.03562 0
M  V30 474 C 48.2312 2.21731 -0.580337 0
M  V30 475 C 49.2442 1.59051 0.347349 0
M  V30 476 O 50.4332 1.77929 0.142669 0
M  V30 477 C 47.5332 3.38459 0.172805 0
M  V30 478 C 46.7062 4.3072 -0.761496 0
M  V30 479 C 45.7652 5.26174 -0.0525547 0
M  V30 480 O 44.7912 5.65108 -0.681333 0
M  V30 481 N 45.9932 5.67624 1.21586 0
M  V30 482 H 48.7582 2.61417 -1.46565 0
M  V30 483 H 46.3192 1.33531 -0.915476 0
M  V30 484 H 48.3112 3.99335 0.656793 0
M  V30 485 H 46.8812 2.97507 0.959602 0
M  V30 486 H 46.1012 3.67525 -1.42544 0
M  V30 487 H 47.3892 4.89267 -1.39626 0
M  V30 488 H 46.7872 5.38038 1.74732 0
M  V30 489 H 45.3442 6.30721 1.64421 0
M  V30 490 N 48.7773 0.814389 1.34928 0
M  V30 491 C 49.7243 0.22822 2.29669 0
M  V30 492 C 50.6943 -0.642164 1.53184 0
M  V30 493 O 51.8793 -0.585605 1.81591 0
M  V30 494 C 49.0193 -0.61089 3.3965 0
M  V30 495 C 48.1323 0.280792 4.31086 0
M  V30 496 C 47.2673 -0.567067 5.28165 0
M  V30 497 C 46.3063 0.324531 6.11239 0
M  V30 498 N 45.4433 -0.483756 7.00431 0
M  V30 499 H 50.2833 1.04153 2.79206 0
M  V30 500 H 47.8203 0.525133 1.37407 0
M  V30 501 H 49.7783 -1.11263 4.0209 0
M  V30 502 H 48.4083 -1.38939 2.91369 0
M  V30 503 H 47.4603 0.900688 3.69583 0
M  V30 504 H 48.7723 0.966723 4.89342 0
M  V30 505 H 47.9263 -1.13363 5.96015 0
M  V30 506 H 46.6653 -1.28654 4.70425 0
M  V30 507 H 45.6703 0.903298 5.42329 0
M  V30 508 H 46.8953 1.04198 6.71059 0
M  V30 509 H 44.8413 -1.18706 6.45171 0
M  V30 510 H 44.7583 0.143965 7.55863 0
M  V30 511 H 46.0263 -1.03334 7.7262 0
M  V30 512 N 50.2554 -1.46986 0.568584 0
M  V30 513 C 51.5034 -2.02041 0.0487022 0
M  V30 514 C 51.8244 -1.44408 -1.31039 0
M  V30 515 O 51.0944 -0.623477 -1.85714 0
M  V30 516 H 49.6744 -0.746849 0.015014 0
M  V30 517 H 52.3364 -1.80257 0.741168 0
M  V30 518 H 51.4324 -3.12085 -0.0308961 0
M  V30 519 N 51.7335 -0.305618 -1.54608 0
M  V30 520 C 52.9825 0.303098 -1.9941 0
M  V30 521 C 53.2955 1.54648 -1.19764 0
M  V30 522 O 54.5015 2.23007 -1.54855 0
M  V30 523 C 52.9575 0.590588 -3.55021 0
M  V30 524 C 52.5655 -0.634719 -4.43481 0
M  V30 525 C 54.3095 1.16025 -4.08336 0
M  V30 526 C 52.2165 -0.320126 -5.90533 0
M  V30 527 H 51.1465 0.117031 -0.744862 0
M  V30 528 H 53.7975 -0.415045 -1.78745 0
M  V30 529 H 52.1795 1.36845 -3.71604 0
M  V30 530 H 53.3535 -1.41079 -4.38672 0
M  V30 531 H 51.6685 -1.12333 -4.00962 0
M  V30 532 H 54.2655 1.40994 -5.15776 0
M  V30 533 H 54.6085 2.10397 -3.5922 0
M  V30 534 H 55.1415 0.443985 -3.95315 0
M  V30 535 H 51.8805 -1.23254 -6.43808 0
M  V30 536 H 51.4005 0.418579 -5.98338 0
M  V30 537 H 53.0795 0.0766241 -6.46955 0
M  V30 538 N 53.2116 1.57565 -0.0334293 0
M  V30 539 C 54.4416 1.95996 0.653398 0
M  V30 540 C 54.8496 0.908749 1.65947 0
M  V30 541 O 54.1926 -0.117471 1.83324 0
M  V30 542 C 54.2546 3.30589 1.41249 0
M  V30 543 C 53.9186 4.53503 0.564263 0
M  V30 544 C 54.9156 5.19647 -0.16225 0
M  V30 545 C 52.6006 4.99801 0.500398 0
M  V30 546 C 54.5946 6.30412 -0.941255 0
M  V30 547 C 52.2816 6.10448 -0.282308 0
M  V30 548 C 53.2796 6.75612 -1.00184 0
M  V30 549 O 52.9676 7.84134 -1.77171 0
M  V30 550 H 52.6996 0.65027 0.184728 0
M  V30 551 H 55.2536 2.05199 -0.0907841 0
M  V30 552 H 53.4836 3.17888 2.20191 0
M  V30 553 H 55.1726 3.53892 1.98784 0
M  V30 554 H 55.9386 4.84846 -0.12227 0
M  V30 555 H 51.8176 4.48883 1.05002 0
M  V30 556 H 55.3616 6.81208 -1.50339 0
M  V30 557 H 51.2586 6.44686 -0.323989 0
M  V30 558 H 52.0266 8.00822 -1.69194 0
M  V30 559 N 54.6897 -0.239769 1.55765 0
M  V30 560 C 55.9667 -0.990056 1.68693 0
M  V30 561 C 56.3467 -2.03107 0.5754 0
M  V30 562 O 55.6947 -2.24604 -0.42017 0
M  V30 563 C 55.9047 -1.61696 3.09282 0
M  V30 564 C 57.2527 -2.11613 3.6811 0
M  V30 565 O 58.2767 -1.71624 3.12127 0
M  V30 566 O 57.1357 -2.85057 4.66267 0
M  V30 567 H 54.2297 -0.461299 0.686391 0
M  V30 568 H 56.7757 -0.232991 1.68093 0
M  V30 569 H 55.5477 -0.864357 3.81634 0
M  V30 570 H 55.1707 -2.44005 3.13923 0
M  V30 571 N 56.1678 -1.49265 -0.50573 0
M  V30 572 C 57.0778 -1.68312 -1.63427 0
M  V30 573 C 58.0938 -0.565682 -1.64548 0
M  V30 574 O 59.2698 -0.839801 -1.83055 0
M  V30 575 C 56.3348 -1.74107 -2.99813 0
M  V30 576 C 55.3958 -2.97653 -3.09356 0
M  V30 577 C 54.6288 -3.03163 -4.39236 0
M  V30 578 O 54.8518 -2.16396 -5.27758 0
M  V30 579 O 53.7858 -3.9558 -4.53652 0
M  V30 580 H 57.6118 -2.63907 -1.50289 0
M  V30 581 H 55.1968 -1.32951 -0.681502 0
M  V30 582 H 57.0788 -1.803 -3.80881 0
M  V30 583 H 55.7538 -0.816901 -3.13223 0
M  V30 584 H 54.6608 -2.96981 -2.27493 0
M  V30 585 H 55.9938 -3.89535 -3.00871 0
M  V30 586 N 57.6459 0.756429 -1.3826 0
M  V30 587 C 58.6089 1.85176 -1.35065 0
M  V30 588 C 59.6089 1.58818 -0.251703 0
M  V30 589 O 60.7989 1.66615 -0.508433 0
M  V30 590 C 57.9309 3.22596 -1.10201 0
M  V30 591 H 59.1239 1.89417 -2.3251 0
M  V30 592 H 56.6769 0.95783 -1.23512 0
M  V30 593 H 57.4119 3.24025 -0.133504 0
M  V30 594 H 57.1969 3.43122 -1.89762 0
M  V30 595 H 58.6869 4.02673 -1.10654 0
M  V30 596 N 59.124 1.23083 0.984299 0
M  V30 597 C 60.373 1.05466 1.71929 0
M  V30 598 C 60.686 -0.409211 1.91272 0
M  V30 599 O 61.892 -0.705226 2.62181 0
M  V30 600 C 60.348 1.83874 3.09384 0
M  V30 601 C 59.956 3.34566 2.97943 0
M  V30 602 C 61.7 1.74734 3.8687 0
M  V30 603 C 59.607 4.05381 4.30605 0
M  V30 604 H 58.537 0.391039 0.644674 0
M  V30 605 H 61.188 1.47013 1.09815 0
M  V30 606 H 59.57 1.35131 3.72231 0
M  V30 607 H 60.744 3.90767 2.44209 0
M  V30 608 H 59.059 3.44476 2.33934 0
M  V30 609 H 61.656 2.24957 4.85076 0
M  V30 610 H 61.999 0.709372 4.10212 0
M  V30 611 H 62.532 2.21067 3.30717 0
M  V30 612 H 59.271 5.09467 4.1246 0
M  V30 613 H 58.791 3.53967 4.84218 0
M  V30 614 H 60.47 4.11458 4.99311 0
M  V30 615 N 60.6021 -1.18246 1.0419 0
M  V30 616 C 61.8271 -1.92736 0.765996 0
M  V30 617 C 62.2521 -1.75728 -0.67091 0
M  V30 618 O 61.6101 -1.06825 -1.46486 0
M  V30 619 C 61.6581 -3.42148 1.13875 0
M  V30 620 O 60.7621 -4.11548 0.264954 0
M  V30 621 H 60.1031 -0.601238 0.281797 0
M  V30 622 H 62.6331 -1.49942 1.39207 0
M  V30 623 H 62.6431 -3.92858 1.1012 0
M  V30 624 H 61.3181 -3.53848 2.18551 0
M  V30 625 H 59.8951 -3.71137 0.362226 0
M  V30 626 N 62.0802 -0.821533 -1.34494 0
M  V30 627 C 63.3052 -0.420873 -2.03085 0
M  V30 628 C 63.7302 0.964915 -1.61465 0
M  V30 629 O 63.0882 1.62763 -0.798607 0
M  V30 630 C 63.1362 -0.529414 -3.56693 0
M  V30 631 O 62.2402 0.451302 -4.09923 0
M  V30 632 H 61.5812 -0.173489 -0.640935 0
M  V30 633 H 64.1112 -1.11157 -1.71771 0
M  V30 634 H 64.1212 -0.404671 -4.05988 0
M  V30 635 H 62.7962 -1.54014 -3.86332 0
M  V30 636 H 61.3732 0.285558 -3.71805 0
M  V30 637 N 63.5583 1.46682 -0.576371 0
M  V30 638 C 64.8053 2.02412 -0.0595339 0
M  V30 639 C 65.1333 1.44859 1.29793 0
M  V30 640 O 64.3883 0.601099 1.8624 0
M  V30 641 C 64.6873 3.57345 0.062886 0
M  V30 642 C 64.3533 4.33908 -1.22616 0
M  V30 643 C 63.0153 4.54544 -1.57933 0
M  V30 644 C 65.3673 4.77919 -2.07948 0
M  V30 645 C 62.6953 5.16444 -2.78393 0
M  V30 646 C 65.0473 5.41149 -3.27629 0
M  V30 647 C 63.7113 5.60014 -3.63236 0
M  V30 648 H 62.9813 0.74068 -0.021785 0
M  V30 649 H 65.6283 1.76128 -0.751735 0
M  V30 650 H 63.9333 3.82729 0.838178 0
M  V30 651 H 65.6303 3.98136 0.478439 0
M  V30 652 H 62.2203 4.18138 -0.941202 0
M  V30 653 H 66.4043 4.61738 -1.81967 0
M  V30 654 H 61.6603 5.29242 -3.06126 0
M  V30 655 H 65.8343 5.74211 -3.94023 0
M  V30 656 H 63.4613 6.07748 -4.56669 0
M  V30 657 N 65.0364 0.313813 1.54444 0
M  V30 658 C 66.2834 -0.291675 2.00388 0
M  V30 659 C 66.6114 -1.52904 1.2021 0
M  V30 660 O 65.8664 -1.93833 0.269707 0
M  V30 661 C 66.1654 -0.680386 3.50864 0
M  V30 662 C 65.8314 0.456699 4.48581 0
M  V30 663 C 64.4934 0.768824 4.75018 0
M  V30 664 C 66.8454 1.22098 5.06697 0
M  V30 665 C 64.1734 1.84812 5.56831 0
M  V30 666 C 66.5254 2.29029 5.89685 0
M  V30 667 C 65.1894 2.60834 6.14428 0
M  V30 668 H 64.4594 -0.106732 0.733273 0
M  V30 669 H 67.1064 0.43557 1.86481 0
M  V30 670 H 65.4114 -1.48791 3.62448 0
M  V30 671 H 67.1084 -1.16026 3.83847 0
M  V30 672 H 63.6984 0.203337 4.28117 0
M  V30 673 H 67.8824 0.993096 4.86263 0
M  V30 674 H 63.1384 2.09912 5.74236 0
M  V30 675 H 67.3124 2.887 6.33739 0
M  V30 676 H 64.9394 3.44596 6.77612 0
M  V30 677 N 66.5145 -1.57545 0.0417849 0
M  V30 678 C 67.9305 -1.56467 -0.314704 0
M  V30 679 C 68.1305 -1.04859 -1.72066 0
M  V30 680 O 67.1865 -0.700983 -2.42575 0
M  V30 681 C 68.4995 -3.00317 -0.15174 0
M  V30 682 C 70.0475 -3.12201 -0.223553 0
M  V30 683 C 70.5225 -4.57913 -0.0892295 0
M  V30 684 N 72.0135 -4.6297 -0.145808 0
M  V30 685 C 72.7485 -5.73362 -0.0658459 0
M  V30 686 N 72.2445 -6.92769 0.0659282 0
M  V30 687 N 74.0375 -5.6197 -0.12075 0
M  V30 688 H 66.1885 -1.89416 0.961014 0
M  V30 689 H 68.4515 -0.871862 0.372237 0
M  V30 690 H 68.1575 -3.42073 0.817254 0
M  V30 691 H 68.0315 -3.65892 -0.916692 0
M  V30 692 H 70.4185 -2.70349 -1.18301 0
M  V30 693 H 70.4995 -2.49323 0.571994 0
M  V30 694 H 70.1435 -5.00448 0.866867 0
M  V30 695 H 70.0735 -5.18786 -0.903802 0
M  V30 696 H 72.5645 -3.7709 -0.247286 0
M  V30 697 H 72.8775 -7.72707 0.119905 0
M  V30 698 H 71.2225 -6.94927 0.100885 0
M  V30 699 H 74.4135 -4.67572 -0.222187 0
M  V30 700 H 74.5865 -6.47977 -0.0549735 0
M  V30 701 N 67.9926 0.231505 -1.5589 0
M  V30 702 C 68.9406 1.30649 -1.92441 0
M  V30 703 C 69.9346 1.49037 -0.805254 0
M  V30 704 O 71.1406 1.50329 -0.990007 0
M  V30 705 H 67.5156 0.437812 -0.611412 0
M  V30 706 H 69.4866 0.970973 -2.82161 0
M  V30 707 C 68.2356 2.65179 -2.24889 0
M  V30 708 H 67.5586 2.51835 -3.10514 0
M  V30 709 H 68.9986 3.39234 -2.54355 0
M  V30 710 C 67.4576 3.19439 -1.07054 0
M  V30 711 O 67.9876 4.00371 -0.326499 0
M  V30 712 N 66.1936 2.77675 -0.85703 0
M  V30 713 H 65.7406 2.11969 -1.46379 0
M  V30 714 H 65.6986 3.14321 -0.0703223 0
M  V30 715 N 69.4707 1.49531 0.497807 0
M  V30 716 C 70.7167 1.59415 1.25358 0
M  V30 717 C 71.0497 0.281422 1.9215 0
M  V30 718 O 70.3247 -0.715249 1.80871 0
M  V30 719 C 70.6077 2.75566 2.3181 0
M  V30 720 C 70.4607 4.16642 1.69498 0
M  V30 721 C 71.7797 2.87347 3.33346 0
M  V30 722 H 68.8987 0.580244 0.454408 0
M  V30 723 H 71.5407 1.81827 0.551262 0
M  V30 724 H 69.6907 2.56587 2.91711 0
M  V30 725 H 71.3627 4.47145 1.13399 0
M  V30 726 H 69.6057 4.22141 0.998978 0
M  V30 727 H 70.2767 4.93792 2.46725 0
M  V30 728 H 72.7527 3.04634 2.83438 0
M  V30 729 H 71.6287 3.70289 4.05188 0
M  V30 730 H 71.8897 1.96834 3.95865 0
M  V30 731 N 70.9488 -0.749086 1.3866 0
M  V30 732 C 72.2258 -1.4992 1.25632 0
M  V30 733 C 72.6058 -2.10633 -0.140317 0
M  V30 734 O 71.9538 -1.97437 -1.15025 0
M  V30 735 C 72.1638 -2.56195 2.36992 0
M  V30 736 C 73.5118 -3.22972 2.75634 0
M  V30 737 O 74.5358 -2.66502 2.36337 0
M  V30 738 O 73.3948 -4.25122 3.43415 0
M  V30 739 H 70.4888 -0.665067 0.491544 0
M  V30 740 H 73.0348 -0.784113 1.50498 0
M  V30 741 H 71.8068 -2.09612 3.30422 0
M  V30 742 H 71.4298 -3.35279 2.13714 0
M  V30 743 N 72.4269 -1.23603 -0.977757 0
M  V30 744 C 73.6549 -1.09646 -1.75458 0
M  V30 745 C 74.0699 0.351859 -1.85492 0
M  V30 746 O 73.4269 1.24327 -1.336 0
M  V30 747 C 73.4779 -1.71895 -3.18016 0
M  V30 748 O 73.1989 -3.11063 -3.08498 0
M  V30 749 C 74.6999 -1.63415 -4.12081 0
M  V30 750 H 71.9199 -0.38359 -0.550545 0
M  V30 751 H 74.4639 -1.63507 -1.22824 0
M  V30 752 H 72.6189 -1.22061 -3.67668 0
M  V30 753 H 73.0329 -3.41305 -3.9826 0
M  V30 754 H 74.5069 -2.11669 -5.09804 0
M  V30 755 H 74.9839 -0.593462 -4.35172 0
M  V30 756 H 75.5899 -2.12628 -3.68334 0
M  V30 757 N 73.905 1.17692 -1.04816 0
M  V30 758 C 75.321 1.39863 -0.768794 0
M  V30 759 C 75.521 1.91118 0.638451 0
M  V30 760 O 74.577 2.10036 1.40146 0
M  V30 761 C 75.89 2.39274 -1.82122 0
M  V30 762 C 77.438 2.52987 -1.843 0
M  V30 763 C 77.913 3.55669 -2.88555 0
M  V30 764 N 79.404 3.63183 -2.87493 0
M  V30 765 C 80.139 4.42381 -3.64811 0
M  V30 766 N 79.635 5.25125 -4.51903 0
M  V30 767 N 81.428 4.37217 -3.53267 0
M  V30 768 H 73.579 0.82752 -1.95617 0
M  V30 769 H 75.842 0.426123 -0.846831 0
M  V30 770 H 75.548 2.08678 -2.83102 0
M  V30 771 H 75.422 3.38725 -1.65967 0
M  V30 772 H 77.809 2.82896 -0.839869 0
M  V30 773 H 77.89 1.53623 -2.04532 0
M  V30 774 H 77.534 3.26499 -3.89051 0
M  V30 775 H 77.464 4.54728 -2.65575 0
M  V30 776 H 79.955 3.04103 -2.24343 0
M  V30 777 H 80.268 5.82728 -5.07591 0
M  V30 778 H 78.613 5.24519 -4.55966 0
M  V30 779 H 81.804 3.71626 -2.84625 0
M  V30 780 H 81.977 4.98696 -4.13771 0
M  V30 781 N 75.3831 0.828654 1.34056 0
M  V30 782 C 76.6291 0.42008 1.98402 0
M  V30 783 C 76.9621 -1.01564 1.65525 0
M  V30 784 O 76.2371 -1.70834 0.929831 0
M  V30 785 C 76.5201 0.62927 3.54559 0
M  V30 786 C 76.3731 2.11152 3.97159 0
M  V30 787 C 77.6921 0.0688756 4.40046 0
M  V30 788 H 74.8111 0.154104 0.720709 0
M  V30 789 H 77.4531 1.04228 1.5886 0
M  V30 790 H 75.6031 0.0996418 3.88372 0
M  V30 791 H 77.2751 2.70522 3.73651 0
M  V30 792 H 75.5181 2.59985 3.47261 0
M  V30 793 H 76.1891 2.20868 5.05887 0
M  V30 794 H 78.6651 0.521458 4.1282 0
M  V30 795 H 77.5411 0.245006 5.48353 0
M  V30 796 H 77.8021 -1.0266 4.30015 0
M  V30 797 N 76.8612 -1.46375 0.584142 0
M  V30 798 C 78.1072 -2.02678 0.0703716 0
M  V30 799 C 78.4402 -1.4545 -1.28678 0
M  V30 800 O 77.7152 -0.62014 -1.84349 0
M  V30 801 C 77.9982 -3.60099 0.00614674 0
M  V30 802 C 77.8512 -4.27709 1.3923 0
M  V30 803 C 79.1702 -4.34598 -0.693742 0
M  V30 804 H 76.2892 -0.736504 0.027047 0
M  V30 805 H 78.9312 -1.74501 0.751615 0
M  V30 806 H 77.0812 -3.84236 -0.574009 0
M  V30 807 H 78.7532 -4.14832 2.01773 0
M  V30 808 H 76.9962 -3.87016 1.95962 0
M  V30 809 H 77.6672 -5.36478 1.29982 0
M  V30 810 H 80.1432 -4.15615 -0.200869 0
M  V30 811 H 79.0192 -5.44318 -0.707714 0
M  V30 812 H 79.2802 -4.05759 -1.75533 0
M  V30 813 N 78.3393 -0.321999 -1.54275 0
M  V30 814 C 79.5873 0.280489 -2.00144 0
M  V30 815 C 79.9083 1.52777 -1.21178 0
M  V30 816 O 79.1783 1.9338 -0.313187 0
M  V30 817 H 77.7583 0.106632 -0.73935 0
M  V30 818 H 80.4203 -0.438184 -1.8991 0
M  V30 819 H 79.5163 0.537972 -3.07428 0
M  V30 820 N 79.8174 1.5752 -0.0501392 0
M  V30 821 C 81.0944 1.83996 0.663685 0
M  V30 822 C 81.4744 0.938339 1.89099 0
M  V30 823 O 80.8224 -0.00087759 2.285 0
M  V30 824 C 81.0324 3.33702 1.02196 0
M  V30 825 C 82.3804 4.00691 1.40469 0
M  V30 826 O 83.4044 3.38321 1.11433 0
M  V30 827 O 82.2634 5.10658 1.94654 0
M  V30 828 H 79.3574 0.759385 0.32751 0
M  V30 829 H 81.9034 1.69514 -0.0794238 0
M  V30 830 H 80.6754 3.91015 0.149364 0
M  V30 831 H 80.2984 3.53368 1.82255 0
M  V30 832 N 81.2955 -0.223234 1.56011 0
M  V30 833 C 82.5435 -0.946003 1.78592 0
M  V30 834 C 82.8645 -1.84936 0.618349 0
M  V30 835 O 82.1345 -1.92473 -0.364833 0
M  V30 836 H 80.7145 -0.352298 0.658707 0
M  V30 837 H 83.3765 -0.235494 1.93472 0
M  V30 838 H 82.4725 -1.55381 2.70672 0
M  V30 839 N 82.7736 -1.49793 -0.48987 0
M  V30 840 C 84.0216 -1.59525 -1.24081 0
M  V30 841 C 84.3426 -0.288953 -1.92847 0
M  V30 842 O 83.6126 0.692436 -1.83254 0
M  V30 843 H 82.1926 -0.587796 -0.460983 0
M  V30 844 H 84.8546 -1.86477 -0.566778 0
M  V30 845 H 83.9506 -2.39696 -1.99881 0
M  V30 846 N 84.2517 0.741722 -1.39055 0
M  V30 847 C 85.4767 1.53607 -1.39354 0
M  V30 848 C 85.9017 1.88096 0.0116905 0
M  V30 849 O 85.2597 1.5143 0.996924 0
M  V30 850 C 85.3077 2.80441 -2.26682 0
M  V30 851 O 84.4117 3.76088 -1.69208 0
M  V30 852 H 83.7527 0.464142 -0.474835 0
M  V30 853 H 86.2827 0.915665 -1.82967 0
M  V30 854 H 86.2927 3.29246 -2.40959 0
M  V30 855 H 84.9677 2.5467 -3.2881 0
M  V30 856 H 83.5447 3.34833 -1.64138 0
M  V30 857 N 85.7298 1.2412 0.971189 0
M  V30 858 C 86.9788 1.07284 1.70801 0
M  V30 859 C 87.2918 -0.388902 1.91695 0
M  V30 860 O 88.4978 -0.677379 2.62914 0
M  V30 861 C 86.9538 1.87145 3.07416 0
M  V30 862 C 86.5618 3.37707 2.94377 0
M  V30 863 C 88.3058 1.78828 3.84995 0
M  V30 864 C 86.2128 4.09925 4.26281 0
M  V30 865 H 85.1428 0.397854 0.64049 0
M  V30 866 H 87.7938 1.4817 1.0825 0
M  V30 867 H 86.1758 1.39071 3.70777 0
M  V30 868 H 87.3498 3.93335 2.4005 0
M  V30 869 H 85.6648 3.46938 2.30267 0
M  V30 870 H 88.2618 2.30089 4.82662 0
M  V30 871 H 88.6048 0.75284 4.09436 0
M  V30 872 H 89.1378 2.24563 3.28354 0
M  V30 873 H 85.8768 5.13813 4.07033 0
M  V30 874 H 85.3968 3.59083 4.80437 0
M  V30 875 H 87.0758 4.1673 4.94919 0
M  V30 876 N 87.2079 -1.17134 1.05439 0
M  V30 877 C 88.4329 -1.91913 0.786396 0
M  V30 878 C 88.8579 -1.7643 -0.652234 0
M  V30 879 O 88.2159 -1.08372 -1.45345 0
M  V30 880 C 88.2639 -3.40921 1.17497 0
M  V30 881 O 87.3679 -4.11244 0.308589 0
M  V30 882 H 86.7089 -0.598215 0.288158 0
M  V30 883 H 89.2389 -1.48457 1.4079 0
M  V30 884 H 89.2489 -3.91668 1.14281 0
M  V30 885 H 87.9239 -3.5151 2.22292 0
M  V30 886 H 86.5009 -3.70731 0.40157 0
M  V30 887 N 88.686 -0.835752 -1.33615 0
M  V30 888 C 89.633 -0.26473 -2.29277 0
M  V30 889 C 90.603 0.617712 -1.54187 0
M  V30 890 O 91.788 0.556641 -1.825 0
M  V30 891 C 88.928 0.556777 -3.40579 0
M  V30 892 C 88.041 -0.349339 -4.30585 0
M  V30 893 C 87.176 0.482969 -5.29 0
M  V30 894 C 86.215 -0.421732 -6.10645 0
M  V30 895 N 85.352 0.372262 -7.01112 0
M  V30 896 H 90.192 -1.08582 -2.77514 0
M  V30 897 H 87.729 -0.546927 -1.36554 0
M  V30 898 H 89.687 1.04852 -4.03809 0
M  V30 899 H 88.317 1.34286 -2.93542 0
M  V30 900 H 87.369 -0.959372 -3.68104 0
M  V30 901 H 88.681 -1.04445 -4.87742 0
M  V30 902 H 87.835 1.03866 -5.97743 0
M  V30 903 H 86.574 1.21153 -4.72412 0
M  V30 904 H 85.579 -0.989464 -5.40823 0
M  V30 905 H 86.804 -1.14861 -6.69316 0
M  V30 906 H 84.75 1.08426 -6.46977 0
M  V30 907 H 84.667 -0.264198 -7.55538 0
M  V30 908 H 85.935 0.910293 -7.74167 0
M  V30 909 N 90.1641 1.46063 -0.591896 0
M  V30 910 C 91.4121 2.01938 -0.0808391 0
M  V30 911 C 91.7331 1.46475 1.28725 0
M  V30 912 O 91.0031 0.652944 1.84698 0
M  V30 913 H 89.5831 0.746516 -0.0268938 0
M  V30 914 H 92.2451 1.79055 -0.769752 0
M  V30 915 H 91.3411 3.12094 -0.0187578 0
M  V30 916 N 91.6422 0.330177 1.54103 0
M  V30 917 C 92.5892 -0.532762 2.24567 0
M  V30 918 C 93.5592 -1.10635 1.23892 0
M  V30 919 O 94.7442 -1.14546 1.5259 0
M  V30 920 C 91.8842 -1.6845 3.01195 0
M  V30 921 C 90.9972 -1.13951 4.167 0
M  V30 922 C 90.1322 -2.25746 4.80845 0
M  V30 923 C 89.1712 -1.6853 5.88442 0
M  V30 924 N 88.3082 -2.74014 6.46421 0
M  V30 925 H 93.1482 0.0746905 2.97906 0
M  V30 926 H 90.6852 0.048632 1.4702 0
M  V30 927 H 92.6432 -2.36234 3.43874 0
M  V30 928 H 91.2732 -2.26314 2.30178 0
M  V30 929 H 90.3252 -0.35301 3.78758 0
M  V30 930 H 91.6372 -0.680892 4.94131 0
M  V30 931 H 90.7912 -3.01422 5.26526 0
M  V30 932 H 89.5302 -2.74947 4.0281 0
M  V30 933 H 88.5352 -0.913543 5.42157 0
M  V30 934 H 89.7602 -1.20198 6.68378 0
M  V30 935 H 87.7062 -3.22494 5.71256 0
M  V30 936 H 87.6232 -2.32735 7.19285 0
M  V30 937 H 88.8912 -3.49499 6.96757 0
M  V30 938 N 93.1203 -1.57491 0.0584922 0
M  V30 939 C 94.3693 -1.92155 -0.613146 0
M  V30 940 C 94.6823 -0.939334 -1.71569 0
M  V30 941 O 95.8883 -1.17829 -2.44599 0
M  V30 942 C 94.3443 -3.41303 -1.14195 0
M  V30 943 C 93.9523 -4.47944 -0.0711265 0
M  V30 944 C 95.6963 -3.84988 -1.78841 0
M  V30 945 C 93.6033 -5.88212 -0.613225 0
M  V30 946 H 92.5333 -0.717162 -0.232796 0
M  V30 947 H 95.1843 -1.83049 0.12857 0
M  V30 948 H 93.5663 -3.45437 -1.93621 0
M  V30 949 H 94.7403 -4.55408 0.702836 0
M  V30 950 H 93.0553 -4.13644 0.478313 0
M  V30 951 H 95.6523 -4.87159 -2.20408 0
M  V30 952 H 95.9953 -3.21632 -2.64308 0
M  V30 953 H 96.5283 -3.83401 -1.06059 0
M  V30 954 H 93.2673 -6.55183 0.203978 0
M  V30 955 H 92.7873 -5.84294 -1.35501 0
M  V30 956 H 94.4663 -6.37687 -1.09383 0
M  V30 957 N 94.5984 0.214957 -1.56127 0
M  V30 958 C 95.8384 0.945364 -1.81224 0
M  V30 959 C 96.2024 1.81265 -0.633005 0
M  V30 960 O 97.4034 2.57731 -0.763423 0
M  V30 961 C 95.6744 1.75665 -3.1125 0
M  V30 962 S 97.2334 2.54179 -3.57685 0
M  V30 963 H 94.0514 0.317443 -0.6362 0
M  V30 964 H 96.6534 0.210381 -1.94365 0
M  V30 965 H 95.3574 1.10977 -3.9511 0
M  V30 966 H 94.8884 2.53381 -3.00934 0
M  V30 967 H 96.9034 3.7792 -3.21545 0
M  V30 968 N 96.0765 1.50051 0.48192 0
M  V30 969 C 97.3015 1.64508 1.26301 0
M  V30 970 C 97.7265 0.323851 1.85291 0
M  V30 971 O 97.0845 -0.710969 1.66778 0
M  V30 972 C 97.1325 2.7305 2.35533 0
M  V30 973 O 96.2365 2.3355 3.39895 0
M  V30 974 H 95.5775 0.549978 0.372048 0
M  V30 975 H 98.1075 1.9636 0.574786 0
M  V30 976 H 98.1175 2.95799 2.8101 0
M  V30 977 H 96.7925 3.68946 1.91967 0
M  V30 978 H 95.3695 2.21205 3.00204 0
M  V30 979 N 97.5546 -0.734337 1.39446 0
M  V30 980 C 98.4846 -1.86155 1.40955 0
M  V30 981 C 99.4656 -1.67898 0.272827 0
M  V30 982 O 100.651 -1.88207 0.478743 0
M  V30 983 C 97.7806 -3.23912 1.25294 0
M  V30 984 C 96.7346 -3.56808 2.36373 0
M  V30 985 C 96.0606 -4.93508 2.058 0
M  V30 986 C 97.3606 -3.59713 3.78687 0
M  V30 987 H 99.0546 -1.8515 2.35287 0
M  V30 988 H 96.6006 -0.889367 1.13253 0
M  V30 989 H 98.5536 -4.02443 1.2497 0
M  V30 990 H 97.2776 -3.25446 0.274308 0
M  V30 991 H 95.9366 -2.80606 2.35914 0
M  V30 992 H 95.5846 -4.91623 1.06374 0
M  V30 993 H 95.2846 -5.16486 2.80208 0
M  V30 994 H 96.8086 -5.74396 2.07128 0
M  V30 995 H 98.2226 -4.2832 3.81071 0
M  V30 996 H 96.6196 -3.94209 4.52459 0
M  V30 997 H 97.6896 -2.59504 4.09617 0
M  V30 998 N 99.0327 -1.24633 -0.964593 0
M  V30 999 C 99.9797 -1.04144 -2.05968 0
M  V30 1000 C 100.95 0.046262 -1.66036 0
M  V30 1001 O 102.135 -0.108972 -1.90489 0
M  V30 1002 C 99.2747 -0.65563 -3.38815 0
M  V30 1003 C 98.3877 -1.81714 -3.91923 0
M  V30 1004 C 97.5227 -1.37662 -5.13052 0
M  V30 1005 C 96.5617 -2.50788 -5.58365 0
M  V30 1006 N 95.6987 -2.07582 -6.70712 0
M  V30 1007 H 100.539 -1.9787 -2.22827 0
M  V30 1008 H 98.0757 -0.9855 -1.09208 0
M  V30 1009 H 100.034 -0.412954 -4.15151 0
M  V30 1010 H 98.6637 0.244627 -3.21872 0
M  V30 1011 H 97.7157 -2.1734 -3.12198 0
M  V30 1012 H 99.0277 -2.66705 -4.21509 0
M  V30 1013 H 98.1817 -1.093 -5.96773 0
M  V30 1014 H 96.9207 -0.497293 -4.85158 0
M  V30 1015 H 95.9257 -2.79906 -4.73215 0
M  V30 1016 H 97.1507 -3.39283 -5.88272 0
M  V30 1017 H 95.0967 -1.22051 -6.44546 0
M  V30 1018 H 95.0137 -2.86125 -6.99763 0
M  V30 1019 H 96.2817 -1.82369 -7.57867 0
M  V30 1020 N 100.511 1.16574 -1.06058 0
M  V30 1021 C 101.474 2.19085 -0.673392 0
M  V30 1022 C 102.474 1.5835 0.279648 0
M  V30 1023 O 103.664 1.74088 0.0623488 0
M  V30 1024 C 100.796 3.40899 0.00954234 0
M  V30 1025 H 101.989 2.54853 -1.58081 0
M  V30 1026 H 99.5418 1.30808 -0.855516 0
M  V30 1027 H 100.277 3.10684 0.929826 0
M  V30 1028 H 100.062 3.86233 -0.67573 0
M  V30 1029 H 101.552 4.1675 0.266245 0
M  V30 1030 N 101.989 0.842826 1.3317 0
M  V30 1031 C 103.405 0.531128 1.50503 0
M  V30 1032 C 103.605 -0.940734 1.78192 0
M  V30 1033 O 102.661 -1.72436 1.84451 0
M  V30 1034 C 103.974 1.40789 2.65705 0
M  V30 1035 C 105.522 1.40708 2.79589 0
M  V30 1036 C 105.997 2.26878 3.97857 0
M  V30 1037 N 107.488 2.24609 4.05099 0
M  V30 1038 C 108.223 2.88019 4.95815 0
M  V30 1039 N 107.719 3.60496 5.9162 0
M  V30 1040 N 109.512 2.77469 4.88843 0
M  V30 1041 H 101.663 1.79557 1.1346 0
M  V30 1042 H 103.926 0.766267 0.558156 0
M  V30 1043 H 103.632 2.454 2.51936 0
M  V30 1044 H 103.506 1.08677 3.61205 0
M  V30 1045 H 105.893 0.368668 2.92788 0
M  V30 1046 H 105.974 1.76829 1.84838 0
M  V30 1047 H 105.618 3.3078 3.85418 0
M  V30 1048 H 105.548 1.88096 4.91861 0
M  V30 1049 H 108.039 1.71906 3.36536 0
M  V30 1050 H 108.352 4.06076 6.57512 0
M  V30 1051 H 106.697 3.64604 5.91683 0
M  V30 1052 H 109.888 2.20406 4.12963 0
M  V30 1053 H 110.061 3.2717 5.59342 0
M  V30 1054 N 103.467 -1.45747 0.599634 0
M  V30 1055 C 104.43 -2.28917 -0.113835 0
M  V30 1056 C 105.43 -1.3933 -0.802729 0
M  V30 1057 O 106.62 -1.61534 -0.652103 0
M  V30 1058 C 103.752 -3.20152 -1.17114 0
M  V30 1059 H 104.945 -2.93478 0.617289 0
M  V30 1060 H 102.498 -1.52137 0.358327 0
M  V30 1061 H 103.233 -2.60374 -1.93329 0
M  V30 1062 H 103.018 -3.86133 -0.681468 0
M  V30 1063 H 104.508 -3.82708 -1.67105 0
M  V30 1064 N 104.945 -0.338344 -1.53925 0
M  V30 1065 C 106.191 0.260143 -2.01125 0
M  V30 1066 C 106.524 1.50617 -1.22589 0
M  V30 1067 O 105.799 1.91979 -0.312113 0
M  V30 1068 C 106.082 0.579499 -3.55407 0
M  V30 1069 C 105.935 -0.678264 -4.44657 0
M  V30 1070 C 107.254 1.39122 -4.17532 0
M  V30 1071 H 104.373 0.0930772 -0.731099 0
M  V30 1072 H 107.015 -0.457852 -1.84401 0
M  V30 1073 H 105.165 1.19118 -3.69788 0
M  V30 1074 H 106.837 -1.31631 -4.42121 0
M  V30 1075 H 105.08 -1.3042 -4.13731 0
M  V30 1076 H 105.751 -0.410143 -5.50474 0
M  V30 1077 H 108.227 0.874035 -4.06817 0
M  V30 1078 H 107.103 1.58342 -5.25565 0
M  V30 1079 H 107.364 2.39178 -3.71815 0
M  V30 1080 N 106.423 1.57458 -0.0668435 0
M  V30 1081 C 107.353 2.15468 0.899764 0
M  V30 1082 C 108.334 1.08042 1.31381 0
M  V30 1083 O 109.519 1.36054 1.38574 0
M  V30 1084 C 106.649 2.71232 2.16911 0
M  V30 1085 C 105.603 3.83781 1.89463 0
M  V30 1086 C 104.929 4.26127 3.22986 0
M  V30 1087 C 106.229 5.08238 1.20381 0
M  V30 1088 H 107.923 2.96488 0.416529 0
M  V30 1089 H 105.469 1.4262 0.198908 0
M  V30 1090 H 107.422 3.10458 2.84945 0
M  V30 1091 H 106.146 1.87426 2.67468 0
M  V30 1092 H 104.805 3.45051 1.23836 0
M  V30 1093 H 104.453 3.39249 3.71374 0
M  V30 1094 H 104.153 5.01993 3.05413 0
M  V30 1095 H 105.677 4.67966 3.92225 0
M  V30 1096 H 107.091 5.44811 1.78475 0
M  V30 1097 H 105.488 5.89349 1.13083 0
M  V30 1098 H 106.558 4.84558 0.182153 0
M  V30 1099 N 107.901 -0.206675 1.56239 0
M  V30 1100 C 109.15 -0.926964 1.79138 0
M  V30 1101 C 109.463 -1.84901 0.638043 0
M  V30 1102 O 110.669 -2.60906 0.751033 0
M  V30 1103 C 109.125 -1.6986 3.17294 0
M  V30 1104 C 108.733 -0.821956 4.40395 0
M  V30 1105 C 110.477 -2.40922 3.4951 0
M  V30 1106 C 108.384 -1.59179 5.69575 0
M  V30 1107 H 107.314 -0.349864 0.667915 0
M  V30 1108 H 109.965 -0.180487 1.8261 0
M  V30 1109 H 108.347 -2.48853 3.08039 0
M  V30 1110 H 109.521 -0.0715019 4.60745 0
M  V30 1111 H 107.836 -0.222741 4.15804 0
M  V30 1112 H 110.433 -2.99047 4.43255 0
M  V30 1113 H 110.776 -3.14542 2.72707 0
M  V30 1114 H 111.309 -1.68905 3.60161 0
M  V30 1115 H 108.048 -0.898589 6.49312 0
M  V30 1116 H 107.568 -2.31648 5.53262 0
M  V30 1117 H 109.247 -2.14862 6.10281 0
M  V30 1118 N 109.379 -1.50304 -0.473955 0
M  V30 1119 C 110.656 -1.51667 -1.23518 0
M  V30 1120 C 111.036 -0.259701 -2.09496 0
M  V30 1121 O 110.384 0.756986 -2.15597 0
M  V30 1122 C 110.594 -2.81082 -2.06868 0
M  V30 1123 C 111.942 -3.31631 -2.65153 0
M  V30 1124 O 112.966 -2.82384 -2.17113 0
M  V30 1125 O 111.825 -4.17471 -3.52675 0
M  V30 1126 H 108.919 -0.60822 -0.560355 0
M  V30 1127 H 111.465 -1.62592 -0.486011 0
M  V30 1128 H 110.237 -3.64041 -1.4349 0
M  V30 1129 H 109.86 -2.73146 -2.88924 0
M  V30 1130 N 110.857 0.726932 -1.39834 0
M  V30 1131 C 111.79 1.8501 -1.33592 0
M  V30 1132 C 112.768 1.61262 -0.208191 0
M  V30 1133 O 113.952 1.84422 -0.389981 0
M  V30 1134 C 111.079 3.21143 -1.07633 0
M  V30 1135 C 110.125 3.63737 -2.22705 0
M  V30 1136 S 110.958 3.72167 -3.85035 0
M  V30 1137 C 112.114 5.11077 -3.61318 0
M  V30 1138 H 112.347 1.90022 -2.28646 0
M  V30 1139 H 109.88 0.892595 -1.25985 0
M  V30 1140 H 111.838 3.99747 -0.933415 0
M  V30 1141 H 110.499 3.13776 -0.142526 0
M  V30 1142 H 109.692 4.62551 -2.00155 0
M  V30 1143 H 109.294 2.9236 -2.33242 0
M  V30 1144 H 111.586 5.97656 -3.19083 0
M  V30 1145 H 112.529 5.38658 -4.59623 0
M  V30 1146 H 112.937 4.81135 -2.95245 0
M  V30 1147 N 112.336 1.25143 0.95797 0
M  V30 1148 C 113.246 1.06968 2.08794 0
M  V30 1149 C 114.262 0.00773911 1.73998 0
M  V30 1150 O 115.438 0.207972 2.00323 0
M  V30 1151 C 112.503 0.68691 3.39827 0
M  V30 1152 C 111.564 1.82641 3.88511 0
M  V30 1153 C 110.797 1.46181 5.1329 0
M  V30 1154 O 111.02 0.355971 5.69288 0
M  V30 1155 O 109.954 2.29085 5.566 0
M  V30 1156 H 113.78 2.01723 2.27027 0
M  V30 1157 H 111.365 1.04051 1.07209 0
M  V30 1158 H 113.247 0.485417 4.18595 0
M  V30 1159 H 111.922 -0.231417 3.22872 0
M  V30 1160 H 110.829 2.08274 3.10762 0
M  V30 1161 H 112.162 2.72386 4.09959 0
M  V30 1162 N 113.814 -1.1601 1.06675 0
M  V30 1163 C 114.724 -2.24156 0.692179 0
M  V30 1164 C 115.74 -1.71507 -0.293513 0
M  V30 1165 O 116.916 -2.009 -0.141861 0
M  V30 1166 C 113.981 -3.46587 0.0884131 0
M  V30 1167 C 113.042 -4.14257 1.12646 0
M  V30 1168 C 112.275 -5.30844 0.551416 0
M  V30 1169 O 112.498 -5.66858 -0.634656 0
M  V30 1170 O 111.432 -5.87848 1.29298 0
M  V30 1171 H 115.258 -2.58513 1.59388 0
M  V30 1172 H 112.843 -1.23599 0.83926 0
M  V30 1173 H 114.725 -4.20679 -0.246361 0
M  V30 1174 H 113.4 -3.13994 -0.786712 0
M  V30 1175 H 112.307 -3.42118 1.51348 0
M  V30 1176 H 113.64 -4.50914 1.97325 0
M  V30 1177 N 115.292 -0.849877 -1.32721 0
M  V30 1178 C 116.54 -0.450032 -1.97026 0
M  V30 1179 C 116.861 0.996604 -1.67609 0
M  V30 1180 O 116.131 1.6958 -0.980786 0
M  V30 1181 H 114.711 -0.163426 -0.728904 0
M  V30 1182 H 117.373 -1.08526 -1.6189 0
M  V30 1183 H 116.469 -0.591146 -3.0645 0
M  V30 1184 N 116.77 1.45427 -0.607355 0
M  V30 1185 C 118.016 2.0254 -0.102607 0
M  V30 1186 C 118.349 1.47478 1.26348 0
M  V30 1187 O 117.624 0.64939 1.83339 0
M  V30 1188 C 117.907 3.60044 -0.0634347 0
M  V30 1189 C 117.76 4.2544 -1.46017 0
M  V30 1190 C 119.079 4.35646 0.624514 0
M  V30 1191 H 116.198 0.73598 -0.0387607 0
M  V30 1192 H 118.84 1.73284 -0.779282 0
M  V30 1193 H 116.99 3.85101 0.512808 0
M  V30 1194 H 118.662 4.11569 -2.08347 0
M  V30 1195 H 116.905 3.83849 -2.02094 0
M  V30 1196 H 117.576 5.34342 -1.385 0
M  V30 1197 H 120.052 4.15882 0.134723 0
M  V30 1198 H 118.928 5.45376 0.621028 0
M  V30 1199 H 119.189 4.08501 1.69055 0
M  V30 1200 N 118.248 0.346503 1.53744 0
M  V30 1201 C 119.494 -0.249473 2.0126 0
M  V30 1202 C 119.827 -1.49965 1.23386 0
M  V30 1203 O 119.102 -1.91811 0.32229 0
M  V30 1204 C 119.385 -0.560643 3.55709 0
M  V30 1205 C 119.238 0.701836 4.44291 0
M  V30 1206 C 120.557 -1.36905 4.18264 0
M  V30 1207 H 117.676 -0.0891987 0.731582 0
M  V30 1208 H 120.318 0.467624 1.84156 0
M  V30 1209 H 118.468 -1.17156 3.70414 0
M  V30 1210 H 120.14 1.33974 4.41417 0
M  V30 1211 H 118.383 1.32612 4.13033 0
M  V30 1212 H 119.054 0.43933 5.50249 0
M  V30 1213 H 121.53 -0.852448 4.07275 0
M  V30 1214 H 120.406 -1.55553 5.26398 0
M  V30 1215 H 120.667 -2.37203 3.73078 0
M  V30 1216 N 119.726 -1.57421 0.075193 0
M  V30 1217 C 120.674 -2.14124 -0.908508 0
M  V30 1218 C 121.668 -1.07898 -1.30592 0
M  V30 1219 O 122.874 -1.26273 -1.28277 0
M  V30 1220 H 119.249 -0.684707 -0.310935 0
M  V30 1221 H 121.22 -2.95634 -0.405374 0
M  V30 1222 C 119.969 -2.72044 -2.16535 0
M  V30 1223 H 119.292 -3.53456 -1.86839 0
M  V30 1224 H 120.732 -3.15311 -2.83469 0
M  V30 1225 C 119.191 -1.66968 -2.92615 0
M  V30 1226 O 119.721 -1.0967 -3.86439 0
M  V30 1227 N 117.927 -1.37923 -2.55784 0
M  V30 1228 H 117.474 -1.84706 -1.79559 0
M  V30 1229 H 117.432 -0.67852 -3.06991 0
M  V30 1230 N 121.204 0.198386 -1.56346 0
M  V30 1231 C 122.114 1.2664 -1.97483 0
M  V30 1232 C 123.13 1.49989 -0.882002 0
M  V30 1233 O 124.306 1.62668 -1.18748 0
M  V30 1234 C 121.371 2.59141 -2.30319 0
M  V30 1235 C 120.432 2.43892 -3.53292 0
M  V30 1236 C 119.665 3.70074 -3.84553 0
M  V30 1237 O 119.888 4.74101 -3.1715 0
M  V30 1238 O 118.822 3.658 -4.7799 0
M  V30 1239 H 122.648 0.947304 -2.88548 0
M  V30 1240 H 120.233 0.403123 -1.43859 0
M  V30 1241 H 122.115 3.37352 -2.5253 0
M  V30 1242 H 120.79 2.90684 -1.42423 0
M  V30 1243 H 119.697 1.63803 -3.36332 0
M  V30 1244 H 121.03 2.17282 -4.41644 0
M  V30 1245 N 122.682 1.50554 0.465978 0
M  V30 1246 C 123.931 1.61038 1.21448 0
M  V30 1247 C 124.244 0.31865 1.92987 0
M  V30 1248 O 125.45 0.302469 2.6981 0
M  V30 1249 C 123.906 2.84283 2.20706 0
M  V30 1250 C 123.514 4.20352 1.54946 0
M  V30 1251 C 125.258 3.04115 2.96166 0
M  V30 1252 C 123.165 5.34778 2.5252 0
M  V30 1253 H 122.095 0.599718 0.457005 0
M  V30 1254 H 124.746 1.7699 0.484424 0
M  V30 1255 H 123.128 2.61901 2.97025 0
M  V30 1256 H 124.302 4.53008 0.843811 0
M  V30 1257 H 122.617 4.06167 0.917475 0
M  V30 1258 H 125.214 3.86774 3.69202 0
M  V30 1259 H 125.557 2.16045 3.55852 0
M  V30 1260 H 126.09 3.26702 2.26959 0
M  V30 1261 H 122.829 6.25018 1.97566 0
M  V30 1262 H 122.349 5.06534 3.21222 0
M  V30 1263 H 124.028 5.65561 3.14245 0
M  V30 1264 N 124.16 -0.719506 1.40217 0
M  V30 1265 C 125.09 -1.8465 1.42922 0
M  V30 1266 C 126.071 -1.67599 0.29062 0
M  V30 1267 O 127.256 -1.87688 0.498677 0
M  V30 1268 C 124.386 -3.22565 1.28722 0
M  V30 1269 C 123.34 -3.54281 2.40144 0
M  V30 1270 C 122.666 -4.91298 2.11023 0
M  V30 1271 C 123.966 -3.55676 3.82481 0
M  V30 1272 H 125.66 -1.82644 2.37237 0
M  V30 1273 H 123.206 -0.877305 1.1419 0
M  V30 1274 H 125.159 -4.01095 1.29232 0
M  V30 1275 H 123.883 -3.25137 0.308811 0
M  V30 1276 H 122.542 -2.78088 2.38877 0
M  V30 1277 H 122.19 -4.90468 1.11582 0
M  V30 1278 H 121.89 -5.13485 2.8567 0
M  V30 1279 H 123.414 -5.72166 2.13209 0
M  V30 1280 H 124.828 -4.24254 3.85592 0
M  V30 1281 H 123.225 -3.89388 4.56614 0
M  V30 1282 H 124.295 -2.55144 4.12346 0
M  V30 1283 N 125.638 -1.25649 -0.95132 0
M  V30 1284 C 126.57 -1.02112 -2.05197 0
M  V30 1285 C 127.583 0.0150571 -1.62793 0
M  V30 1286 O 128.772 -0.223874 -1.77091 0
M  V30 1287 C 125.872 -0.522361 -3.3485 0
M  V30 1288 C 125.045 -1.62546 -4.06076 0
M  V30 1289 C 124.104 -1.12649 -5.14001 0
M  V30 1290 O 123.13 -1.82156 -5.39266 0
M  V30 1291 N 124.332 0.03047 -5.80492 0
M  V30 1292 H 127.097 -1.96885 -2.25957 0
M  V30 1293 H 124.658 -1.16899 -1.1201 0
M  V30 1294 H 126.65 -0.172961 -4.0433 0
M  V30 1295 H 125.22 0.33151 -3.10837 0
M  V30 1296 H 124.44 -2.14628 -3.30649 0
M  V30 1297 H 125.728 -2.36644 -4.50419 0
M  V30 1298 H 125.126 0.611169 -5.62389 0
M  V30 1299 H 123.683 0.320875 -6.5101 0
M  V30 1300 N 127.117 1.15442 -1.07289 0
M  V30 1301 C 128.365 1.85845 -0.794096 0
M  V30 1302 C 128.686 1.82692 0.681809 0
M  V30 1303 O 127.956 1.26741 1.49377 0
M  V30 1304 H 126.536 0.688089 -0.290763 0
M  V30 1305 H 129.198 1.39947 -1.3565 0
M  V30 1306 H 128.294 2.91001 -1.12804 0
M  V30 1307 N 128.595 0.856903 1.32268 0
M  V30 1308 C 130.006 0.515711 1.79436 0
M  V30 1309 C 130.357 -0.966586 1.70738 0
M  V30 1310 O 129.482 -1.75409 1.26731 0
M  V30 1311 C 130.077 0.929335 3.25805 0
M  V30 1312 C 128.636 0.640006 3.70919 0
M  V30 1313 C 127.783 1.12784 2.53328 0
M  V30 1314 H 130.734 1.04389 1.19535 0
M  V30 1315 H 130.755 0.246633 3.797 0
M  V30 1316 H 130.267 2.00821 3.32103 0
M  V30 1317 H 128.368 -0.428051 3.70133 0
M  V30 1318 H 128.481 1.20788 4.63624 0
M  V30 1319 H 126.845 0.548033 2.48734 0
M  V30 1320 H 127.628 2.21387 2.62379 0
M  V30 1321 N 130.073 -1.45103 0.615059 0
M  V30 1322 C 131.003 -2.33339 -0.0865619 0
M  V30 1323 C 131.984 -1.4727 -0.851209 0
M  V30 1324 O 133.169 -1.76026 -0.820281 0
M  V30 1325 C 130.299 -3.30095 -1.07956 0
M  V30 1326 C 129.253 -4.25858 -0.427628 0
M  V30 1327 C 128.579 -5.12361 -1.5294 0
M  V30 1328 C 129.879 -5.18165 0.655944 0
M  V30 1329 H 131.573 -2.92254 0.650224 0
M  V30 1330 H 129.119 -1.40532 0.314138 0
M  V30 1331 H 131.072 -3.90698 -1.57901 0
M  V30 1332 H 129.796 -2.69355 -1.84703 0
M  V30 1333 H 128.455 -3.66564 0.0510292 0
M  V30 1334 H 128.103 -4.47984 -2.28734 0
M  V30 1335 H 127.803 -5.77238 -1.09865 0
M  V30 1336 H 129.327 -5.75833 -2.03098 0
M  V30 1337 H 130.741 -5.72796 0.240257 0
M  V30 1338 H 129.138 -5.91559 1.00888 0
M  V30 1339 H 130.208 -4.60144 1.52957 0
M  V30 1340 N 131.551 -0.354651 -1.53558 0
M  V30 1341 C 132.967 -0.00315426 -1.596 0
M  V30 1342 C 133.167 1.47741 -1.37021 0
M  V30 1343 O 132.223 2.23759 -1.16996 0
M  V30 1344 C 133.536 -0.44929 -2.97325 0
M  V30 1345 C 135.084 -0.402578 -3.104 0
M  V30 1346 C 135.559 -0.824355 -4.5052 0
M  V30 1347 N 137.05 -0.778979 -4.56603 0
M  V30 1348 C 137.785 -1.07715 -5.63192 0
M  V30 1349 N 137.281 -1.44405 -6.77583 0
M  V30 1350 N 139.074 -1.00066 -5.53121 0
M  V30 1351 H 131.225 -1.31893 -1.66487 0
M  V30 1352 H 133.488 -0.538388 -0.780284 0
M  V30 1353 H 133.194 -1.48202 -3.1895 0
M  V30 1354 H 133.068 0.169772 -3.76818 0
M  V30 1355 H 135.455 0.621004 -2.88492 0
M  V30 1356 H 135.536 -1.05699 -2.32941 0
M  V30 1357 H 135.18 -1.846 -4.73165 0
M  V30 1358 H 135.11 -0.147304 -5.26394 0
M  V30 1359 H 137.601 -0.508528 -3.74463 0
M  V30 1360 H 137.914 -1.65612 -7.54846 0
M  V30 1361 H 136.259 -1.4826 -6.79002 0
M  V30 1362 H 139.45 -0.713293 -4.62633 0
M  V30 1363 H 139.623 -1.23638 -6.36096 0
M  V30 1364 N 133.029 1.57378 -0.0835403 0
M  V30 1365 C 134.306 1.85363 0.624507 0
M  V30 1366 C 134.686 0.978239 1.87066 0
M  V30 1367 O 134.034 0.0475908 2.2845 0
M  V30 1368 C 134.244 3.35795 0.950947 0
M  V30 1369 C 135.592 4.03581 1.31939 0
M  V30 1370 O 136.616 3.40609 1.04232 0
M  V30 1371 O 135.475 5.14672 1.83779 0
M  V30 1372 H 132.569 0.766162 0.311329 0
M  V30 1373 H 135.115 1.69307 -0.115362 0
M  V30 1374 H 133.887 3.91244 0.0663899 0
M  V30 1375 H 133.51 3.57154 1.74719 0
M  V30 1376 N 134.507 -0.190092 1.56449 0
M  V30 1377 C 135.753 -0.911052 1.81184 0
M  V30 1378 C 136.086 -1.82699 0.658396 0
M  V30 1379 O 135.361 -1.91491 -0.340775 0
M  V30 1380 C 135.644 -1.72297 3.16205 0
M  V30 1381 C 135.497 -0.831419 4.42049 0
M  V30 1382 C 136.816 -2.69454 3.47969 0
M  V30 1383 H 133.935 -0.32977 0.659106 0
M  V30 1384 H 136.577 -0.178169 1.89163 0
M  V30 1385 H 134.727 -2.34778 3.09534 0
M  V30 1386 H 136.399 -0.220929 4.60771 0
M  V30 1387 H 134.642 -0.138406 4.33579 0
M  V30 1388 H 135.313 -1.43461 5.33032 0
M  V30 1389 H 137.789 -2.17104 3.54972 0
M  V30 1390 H 136.665 -3.23342 4.43555 0
M  V30 1391 H 136.926 -3.48744 2.71717 0
M  V30 1392 N 135.985 -1.50799 -0.457987 0
M  V30 1393 C 137.232 -1.62442 -1.20908 0
M  V30 1394 C 137.56 -0.330865 -1.91665 0
M  V30 1395 O 136.815 0.68401 -1.83357 0
M  V30 1396 C 137.114 -2.76358 -2.2663 0
M  V30 1397 C 136.78 -4.16378 -1.73033 0
M  V30 1398 C 135.442 -4.54473 -1.58138 0
M  V30 1399 C 137.794 -5.03836 -1.33413 0
M  V30 1400 C 135.122 -5.77754 -1.02065 0
M  V30 1401 C 137.474 -6.27676 -0.78778 0
M  V30 1402 C 136.138 -6.64562 -0.625561 0
M  V30 1403 H 135.408 -0.594417 -0.442435 0
M  V30 1404 H 138.055 -1.84772 -0.503136 0
M  V30 1405 H 136.36 -2.48167 -3.03184 0
M  V30 1406 H 138.057 -2.82568 -2.84528 0
M  V30 1407 H 134.647 -3.86331 -1.85598 0
M  V30 1408 H 138.831 -4.75026 -1.4375 0
M  V30 1409 H 134.087 -6.04997 -0.882547 0
M  V30 1410 H 138.261 -6.94797 -0.472177 0
M  V30 1411 H 135.888 -7.59965 -0.188926 0
M  V30 1412 N 137.463 0.71206 -1.40597 0
M  V30 1413 C 138.74 1.46536 -1.29563 0
M  V30 1414 C 139.12 2.10931 0.0844217 0
M  V30 1415 O 138.468 2.00418 1.0975 0
M  V30 1416 C 138.678 2.49821 -2.43701 0
M  V30 1417 C 140.026 3.15551 -2.841 0
M  V30 1418 O 141.05 2.60142 -2.4332 0
M  V30 1419 O 139.909 4.15867 -3.54566 0
M  V30 1420 H 137.003 0.651801 -0.509004 0
M  V30 1421 H 139.549 0.743935 -1.52524 0
M  V30 1422 H 138.321 2.00778 -3.35863 0
M  V30 1423 H 137.944 3.29495 -2.22528 0
M  V30 1424 N 138.941 1.26152 0.944643 0
M  V30 1425 C 140.169 1.14259 1.72489 0
M  V30 1426 C 140.584 -0.302555 1.8636 0
M  V30 1427 O 139.941 -1.20741 1.36849 0
M  V30 1428 C 139.992 1.80266 3.13347 0
M  V30 1429 O 139.713 3.19133 3.00143 0
M  V30 1430 C 141.214 1.74283 4.07603 0
M  V30 1431 H 138.434 0.398051 0.540181 0
M  V30 1432 H 140.978 1.66706 1.18446 0
M  V30 1433 H 139.133 1.31766 3.64303 0
M  V30 1434 H 139.547 3.51744 3.89071 0
M  V30 1435 H 141.021 2.25111 5.04013 0
M  V30 1436 H 141.498 0.708631 4.33446 0
M  V30 1437 H 142.104 2.22319 3.62567 0
M  V30 1438 N 140.419 -1.14872 1.07899 0
M  V30 1439 C 141.366 -2.19791 0.704319 0
M  V30 1440 C 142.336 -1.63238 -0.306987 0
M  V30 1441 O 143.521 -1.8983 -0.192171 0
M  V30 1442 C 140.661 -3.44911 0.114244 0
M  V30 1443 C 139.774 -4.15637 1.1777 0
M  V30 1444 C 138.909 -5.28324 0.552037 0
M  V30 1445 C 137.948 -5.90875 1.59789 0
M  V30 1446 N 137.085 -6.95022 0.994404 0
M  V30 1447 H 141.925 -2.5119 1.60336 0
M  V30 1448 H 139.462 -1.23356 0.801352 0
M  V30 1449 H 141.42 -4.16477 -0.245544 0
M  V30 1450 H 140.05 -3.14011 -0.74813 0
M  V30 1451 H 139.102 -3.42512 1.65499 0
M  V30 1452 H 140.414 -4.5823 1.97046 0
M  V30 1453 H 139.568 -6.06538 0.1402 0
M  V30 1454 H 138.307 -4.86939 -0.272431 0
M  V30 1455 H 137.312 -5.11369 2.01945 0
M  V30 1456 H 138.537 -6.34337 2.42474 0
M  V30 1457 H 136.483 -6.55722 0.190939 0
M  V30 1458 H 136.4 -7.36073 1.72432 0
M  V30 1459 H 137.668 -7.77123 0.608253 0
M  V30 1460 N 141.898 -0.863906 -1.31812 0
M  V30 1461 C 142.83 -0.272485 -2.27575 0
M  V30 1462 C 143.843 0.56104 -1.52827 0
M  V30 1463 O 145.032 0.384021 -1.7432 0
M  V30 1464 C 142.132 0.63283 -3.32939 0
M  V30 1465 C 141.305 -0.166902 -4.37081 0
M  V30 1466 C 140.364 0.665608 -5.21973 0
M  V30 1467 O 139.39 0.0958091 -5.69119 0
M  V30 1468 N 140.592 1.9787 -5.45736 0
M  V30 1469 H 143.357 -1.0954 -2.78964 0
M  V30 1470 H 140.918 -0.724791 -1.4477 0
M  V30 1471 H 142.91 1.19532 -3.86645 0
M  V30 1472 H 141.48 1.35642 -2.81638 0
M  V30 1473 H 140.7 -0.910838 -3.83533 0
M  V30 1474 H 141.988 -0.715874 -5.03739 0
M  V30 1475 H 141.386 2.46484 -5.09178 0
M  V30 1476 H 139.943 2.48911 -6.024 0
M  V30 1477 N 143.376 1.44774 -0.622745 0
M  V30 1478 C 144.306 2.33382 0.0741861 0
M  V30 1479 C 145.287 1.47719 0.843387 0
M  V30 1480 O 146.472 1.76458 0.810934 0
M  V30 1481 C 143.602 3.30663 1.06204 0
M  V30 1482 C 142.556 4.26079 0.405037 0
M  V30 1483 C 141.882 5.13165 1.5022 0
M  V30 1484 C 143.182 5.1781 -0.683414 0
M  V30 1485 H 144.876 2.91905 -0.665713 0
M  V30 1486 H 142.422 1.40363 -0.321587 0
M  V30 1487 H 144.375 3.9153 1.55827 0
M  V30 1488 H 143.099 2.70331 1.83272 0
M  V30 1489 H 141.758 3.66532 -0.0704683 0
M  V30 1490 H 141.406 4.49191 2.26355 0
M  V30 1491 H 141.106 5.77812 1.06803 0
M  V30 1492 H 142.63 5.76902 2.00041 0
M  V30 1493 H 144.044 5.72661 -0.270631 0
M  V30 1494 H 142.441 5.91015 -1.04023 0
M  V30 1495 H 143.511 4.59326 -1.55395 0
M  V30 1496 N 144.854 0.36279 1.53368 0
M  V30 1497 C 146.103 -0.22888 2.00397 0
M  V30 1498 C 146.416 -1.50096 1.25421 0
M  V30 1499 O 147.622 -2.17106 1.63025 0
M  V30 1500 C 146.078 -0.458417 3.56969 0
M  V30 1501 C 145.686 0.798877 4.4082 0
M  V30 1502 C 147.43 -1.00789 4.12361 0
M  V30 1503 C 145.337 0.539078 5.88938 0
M  V30 1504 H 144.267 -0.089305 0.748693 0
M  V30 1505 H 146.918 0.481099 1.77081 0
M  V30 1506 H 145.3 -1.22959 3.76427 0
M  V30 1507 H 146.474 1.57262 4.33134 0
M  V30 1508 H 144.789 1.27137 3.96516 0
M  V30 1509 H 147.386 -1.21754 5.20653 0
M  V30 1510 H 147.729 -1.9692 3.66781 0
M  V30 1511 H 148.262 -0.296961 3.9669 0
M  V30 1512 H 145.001 1.47064 6.3879 0
M  V30 1513 H 144.521 -0.196222 5.99479 0
M  V30 1514 H 146.2 0.163542 6.46793 0
M  V30 1515 N 146.332 -1.57332 0.0918853 0
M  V30 1516 C 147.56 -1.98574 -0.581048 0
M  V30 1517 C 147.975 -0.970903 -1.61923 0
M  V30 1518 O 147.332 0.0399054 -1.82456 0
M  V30 1519 C 147.383 -3.39872 -1.23164 0
M  V30 1520 O 147.104 -4.37469 -0.234989 0
M  V30 1521 C 148.605 -3.96099 -1.99049 0
M  V30 1522 H 145.825 -0.65261 -0.156018 0
M  V30 1523 H 148.369 -2.0379 0.170225 0
M  V30 1524 H 146.524 -3.35679 -1.93386 0
M  V30 1525 H 146.938 -5.19751 -0.70418 0
M  V30 1526 H 148.412 -4.97127 -2.39934 0
M  V30 1527 H 148.889 -3.3374 -2.85507 0
M  V30 1528 H 149.495 -4.03755 -1.3365 0
M  V30 1529 N 147.81 0.181792 -1.56548 0
M  V30 1530 C 149.087 0.926765 -1.72251 0
M  V30 1531 C 149.467 2.00831 -0.650386 0
M  V30 1532 O 148.815 2.26008 0.336521 0
M  V30 1533 C 149.025 1.50106 -3.1507 0
M  V30 1534 C 150.373 1.97805 -3.75711 0
M  V30 1535 O 151.397 1.59922 -3.18282 0
M  V30 1536 O 150.256 2.67555 -4.76525 0
M  V30 1537 H 147.35 0.435506 -0.703039 0
M  V30 1538 H 149.896 0.170443 -1.68842 0
M  V30 1539 H 148.668 0.72212 -3.84579 0
M  V30 1540 H 148.291 2.32186 -3.22763 0
M  V30 1541 N 149.288 1.51039 0.449983 0
M  V30 1542 C 150.537 1.62317 1.19733 0
M  V30 1543 C 150.85 0.339101 1.92638 0
M  V30 1544 O 152.056 0.331069 2.69474 0
M  V30 1545 C 150.512 2.86608 2.17678 0
M  V30 1546 C 150.12 4.21972 1.50479 0
M  V30 1547 C 151.864 3.07239 2.92924 0
M  V30 1548 C 149.771 5.37426 2.46834 0
M  V30 1549 H 148.701 0.604532 0.450619 0
M  V30 1550 H 151.352 1.77494 0.465625 0
M  V30 1551 H 149.734 2.65037 2.94231 0
M  V30 1552 H 150.908 4.53878 0.795716 0
M  V30 1553 H 149.223 4.07117 0.874344 0
M  V30 1554 H 151.82 3.90668 3.65079 0
M  V30 1555 H 152.163 2.19807 3.5354 0
M  V30 1556 H 152.696 3.29091 2.23481 0
M  V30 1557 H 149.435 6.27079 1.90926 0
M  V30 1558 H 148.955 5.09912 3.15832 0
M  V30 1559 H 150.634 5.68862 3.08228 0
M  V30 1560 N 150.766 -0.704594 1.40972 0
M  V30 1561 C 151.991 -1.49858 1.43378 0
M  V30 1562 C 152.416 -1.88061 0.038184 0
M  V30 1563 O 151.774 -1.5402 -0.956425 0
M  V30 1564 C 151.822 -2.74333 2.34038 0
M  V30 1565 O 150.926 -3.7147 1.7912 0
M  V30 1566 H 150.267 -0.45139 0.486974 0
M  V30 1567 H 152.797 -0.866832 1.8533 0
M  V30 1568 H 152.807 -3.22741 2.49604 0
M  V30 1569 H 151.482 -2.45863 3.35446 0
M  V30 1570 H 150.059 -3.30363 1.72958 0
M  V30 1571 N 152.244 -1.26651 -0.937939 0
M  V30 1572 C 153.492 -1.12165 -1.68118 0
M  V30 1573 C 153.813 0.334983 -1.92101 0
M  V30 1574 O 153.083 1.23583 -1.52 0
M  V30 1575 H 151.663 -0.412093 -0.623048 0
M  V30 1576 H 154.325 -1.59027 -1.12678 0
M  V30 1577 H 153.421 -1.64289 -2.6536 0
M  V30 1578 N 153.722 1.14298 -1.08507 0
M  V30 1579 C 154.947 1.8976 -0.837001 0
M  V30 1580 C 155.372 1.78097 0.605228 0
M  V30 1581 O 154.73 1.12188 1.4242 0
M  V30 1582 C 154.778 3.37685 -1.26495 0
M  V30 1583 O 153.882 4.10281 -0.417514 0
M  V30 1584 H 153.223 0.590365 -0.303917 0
M  V30 1585 H 155.753 1.44672 -1.44676 0
M  V30 1586 H 155.763 3.88501 -1.24625 0
M  V30 1587 H 154.438 3.45492 -2.31534 0
M  V30 1588 H 153.015 3.69536 -0.499722 0
M  V30 1589 N 155.201 0.870884 1.31352 0
M  V30 1590 C 156.449 0.48132 1.96285 0
M  V30 1591 C 156.77 -0.969813 1.69173 0
M  V30 1592 O 156.04 -1.67998 1.00764 0
M  V30 1593 H 154.62 0.175002 0.726212 0
M  V30 1594 H 157.282 1.11087 1.60143 0
M  V30 1595 H 156.378 0.639825 3.05471 0
M  V30 1596 N 156.679 -1.44442 0.630414 0
M  V30 1597 C 157.627 -2.32437 -0.0871428 0
M  V30 1598 C 158.621 -1.47304 -0.836525 0
M  V30 1599 O 159.827 -1.63653 -0.749506 0
M  V30 1600 H 156.202 -0.750533 -0.0469495 0
M  V30 1601 H 158.173 -2.90709 0.673096 0
M  V30 1602 C 156.922 -3.31288 -1.05563 0
M  V30 1603 H 156.245 -3.96805 -0.488426 0
M  V30 1604 H 157.685 -3.9554 -1.52721 0
M  V30 1605 C 156.144 -2.6016 -2.14052 0
M  V30 1606 O 156.674 -2.39997 -3.22124 0
M  V30 1607 N 154.88 -2.19911 -1.89967 0
M  V30 1608 H 154.427 -2.36509 -1.02085 0
M  V30 1609 H 154.385 -1.72646 -2.62756 0
M  V30 1610 N 158.157 -0.370918 -1.53173 0
M  V30 1611 C 159.105 0.488101 -2.27421 0
M  V30 1612 C 160.099 1.07884 -1.30604 0
M  V30 1613 O 161.305 1.02143 -1.48212 0
M  V30 1614 H 157.68 0.176134 -0.731082 0
M  V30 1615 H 159.651 -0.159815 -2.97972 0
M  V30 1616 C 158.4 1.61306 -3.08019 0
M  V30 1617 H 157.723 1.1678 -3.82364 0
M  V30 1618 H 159.163 2.18872 -3.63141 0
M  V30 1619 C 157.622 2.55848 -2.19188 0
M  V30 1620 O 158.152 3.58799 -1.80626 0
M  V30 1621 N 156.358 2.2516 -1.83715 0
M  V30 1622 H 155.905 1.41476 -2.15273 0
M  V30 1623 H 155.863 2.8867 -1.24567 0
M  V30 1624 N 159.635 1.57281 -0.100228 0
M  V30 1625 C 160.881 1.95626 0.556946 0
M  V30 1626 C 161.236 0.981655 1.65473 0
M  V30 1627 O 160.529 0.00849847 1.91598 0
M  V30 1628 C 160.723 3.38305 1.15259 0
M  V30 1629 C 160.552 4.49555 0.114035 0
M  V30 1630 C 159.322 5.0434 -0.311266 0
M  V30 1631 C 161.52 5.10051 -0.659768 0
M  V30 1632 N 159.502 5.99152 -1.33755 0
M  V30 1633 C 160.873 6.00628 -1.53774 0
M  V30 1634 C 162.928 4.92772 -0.712723 0
M  V30 1635 C 161.631 6.7578 -2.46403 0
M  V30 1636 C 163.657 5.6859 -1.62663 0
M  V30 1637 C 163.019 6.58838 -2.49222 0
M  V30 1638 H 159.118 0.7624 0.173982 0
M  V30 1639 H 161.702 1.93829 -0.183988 0
M  V30 1640 H 159.873 3.40786 1.86332 0
M  V30 1641 H 161.605 3.63817 1.77254 0
M  V30 1642 H 158.36 4.73537 0.0774812 0
M  V30 1643 H 158.784 6.5126 -1.84905 0
M  V30 1644 H 163.426 4.22761 -0.0576648 0
M  V30 1645 H 161.144 7.4505 -3.12931 0
M  V30 1646 H 164.73 5.57233 -1.67281 0
M  V30 1647 H 163.61 7.16479 -3.18791 0
M  V30 1648 N 161.113 -0.173488 1.56642 0
M  V30 1649 C 162.076 -1.19859 1.95362 0
M  V30 1650 C 163.076 -1.37296 0.83704 0
M  V30 1651 O 164.266 -1.34739 1.10413 0
M  V30 1652 C 161.398 -2.56405 2.24654 0
M  V30 1653 H 162.591 -0.867062 2.87092 0
M  V30 1654 H 160.144 -0.415853 1.50666 0
M  V30 1655 H 160.879 -2.94576 1.35631 0
M  V30 1656 H 160.664 -2.45115 3.06041 0
M  V30 1657 H 162.154 -3.30287 2.5554 0
M  V30 1658 N 162.591 -1.51276 -0.441967 0
M  V30 1659 C 163.837 -1.63958 -1.19355 0
M  V30 1660 C 164.17 -0.352543 -1.90973 0
M  V30 1661 O 163.445 0.647627 -1.83401 0
M  V30 1662 C 163.728 -2.83979 -2.21422 0
M  V30 1663 C 163.581 -4.22646 -1.53918 0
M  V30 1664 C 164.9 -2.99521 -3.22451 0
M  V30 1665 H 162.019 -0.596709 -0.432559 0
M  V30 1666 H 164.661 -1.83748 -0.483398 0
M  V30 1667 H 162.811 -2.67237 -2.81987 0
M  V30 1668 H 164.483 -4.51045 -0.967256 0
M  V30 1669 H 162.726 -4.25558 -0.841615 0
M  V30 1670 H 163.397 -5.02609 -2.28229 0
M  V30 1671 H 165.873 -3.14944 -2.71937 0
M  V30 1672 H 164.749 -3.85072 -3.91166 0
M  V30 1673 H 165.01 -2.11391 -3.88287 0
M  V30 1674 N 164.069 0.697108 -1.41344 0
M  V30 1675 C 165.317 1.45426 -1.40341 0
M  V30 1676 C 165.638 1.94996 -0.0128787 0
M  V30 1677 O 164.908 1.71599 0.945027 0
M  V30 1678 H 163.488 0.539594 -0.516573 0
M  V30 1679 H 166.15 0.825201 -1.76569 0
M  V30 1680 H 165.246 2.31817 -2.08967 0
M  V30 1681 N 165.547 1.27147 0.931209 0
M  V30 1682 C 166.497 1.06227 2.01742 0
M  V30 1683 C 167.481 -0.00859065 1.60898 0
M  V30 1684 O 168.673 0.209537 1.75755 0
M  V30 1685 C 165.802 0.707787 3.35924 0
M  V30 1686 C 164.888 1.81661 3.83223 0
M  V30 1687 N 165.279 3.05564 4.03069 0
M  V30 1688 C 163.577 1.70249 4.12227 0
M  V30 1689 C 164.278 3.77697 4.42403 0
M  V30 1690 N 163.254 3.0544 4.49675 0
M  V30 1691 H 167.056 2.00261 2.15111 0
M  V30 1692 H 164.57 1.1781 1.11779 0
M  V30 1693 H 166.567 0.539043 4.134 0
M  V30 1694 H 165.227 -0.224964 3.2392 0
M  V30 1695 H 166.238 3.41363 3.89476 0
M  V30 1696 H 162.915 0.840329 4.08956 0
M  V30 1697 H 164.305 4.84168 4.65866 0
M  V30 1698 N 167.025 -1.13721 1.09112 0
M  V30 1699 C 167.972 -2.19031 0.727591 0
M  V30 1700 C 168.942 -1.63555 -0.289656 0
M  V30 1701 O 170.127 -1.90023 -0.172026 0
M  V30 1702 C 167.267 -3.4477 0.15082 0
M  V30 1703 C 166.38 -4.14365 1.22172 0
M  V30 1704 C 165.515 -5.27709 0.608042 0
M  V30 1705 C 164.554 -5.89147 1.66047 0
M  V30 1706 N 163.691 -6.93929 1.06806 0
M  V30 1707 H 168.531 -2.49475 1.62991 0
M  V30 1708 H 166.068 -1.22499 0.81439 0
M  V30 1709 H 168.026 -4.16714 -0.201358 0
M  V30 1710 H 166.656 -3.14787 -0.714783 0
M  V30 1711 H 165.708 -3.40737 1.69122 0
M  V30 1712 H 167.02 -4.56114 2.01895 0
M  V30 1713 H 166.174 -6.06355 0.204523 0
M  V30 1714 H 164.913 -4.872 -0.220769 0
M  V30 1715 H 163.918 -5.09198 2.07357 0
M  V30 1716 H 165.143 -6.31729 2.49189 0
M  V30 1717 H 163.089 -6.55483 0.260476 0
M  V30 1718 H 163.006 -7.34202 1.8023 0
M  V30 1719 H 164.274 -7.76434 0.690644 0
M  V30 1720 N 168.503 -0.877838 -1.30888 0
M  V30 1721 C 169.749 -0.493426 -1.96706 0
M  V30 1722 C 170.082 0.953504 -1.6918 0
M  V30 1723 O 169.357 1.67266 -0.992594 0
M  V30 1724 C 169.64 -0.760429 -3.51979 0
M  V30 1725 C 169.493 -2.25747 -3.89048 0
M  V30 1726 C 170.812 -0.232148 -4.39487 0
M  V30 1727 H 167.931 -0.180746 -0.714493 0
M  V30 1728 H 170.573 -1.10052 -1.54882 0
M  V30 1729 H 168.723 -0.243715 -3.87735 0
M  V30 1730 H 170.395 -2.84204 -3.63354 0
M  V30 1731 H 168.638 -2.72694 -3.37373 0
M  V30 1732 H 169.309 -2.39491 -4.97341 0
M  V30 1733 H 171.785 -0.674314 -4.106 0
M  V30 1734 H 170.661 -0.448355 -5.47066 0
M  V30 1735 H 170.922 0.866297 -4.33529 0
M  V30 1736 N 169.982 1.44106 -0.638065 0
M  V30 1737 C 171.229 2.01978 -0.14533 0
M  V30 1738 C 171.557 1.50234 1.23532 0
M  V30 1739 O 170.812 0.679548 1.83523 0
M  V30 1740 C 171.111 3.5729 -0.0887327 0
M  V30 1741 C 170.777 4.28317 -1.40909 0
M  V30 1742 C 169.439 4.47437 -1.77069 0
M  V30 1743 C 171.791 4.6867 -2.28031 0
M  V30 1744 C 169.119 5.04171 -3.00047 0
M  V30 1745 C 171.471 5.26766 -3.50286 0
M  V30 1746 C 170.135 5.44104 -3.86661 0
M  V30 1747 H 169.405 0.739089 -0.0531801 0
M  V30 1748 H 172.052 1.72781 -0.825761 0
M  V30 1749 H 170.357 3.8594 0.675095 0
M  V30 1750 H 172.054 3.99807 0.309145 0
M  V30 1751 H 168.644 4.1377 -1.1177 0
M  V30 1752 H 172.828 4.53604 -2.01388 0
M  V30 1753 H 168.084 5.15782 -3.28298 0
M  V30 1754 H 172.258 5.56983 -4.18023 0
M  V30 1755 H 169.885 5.87832 -4.82034 0
M  V30 1756 N 171.46 0.379036 1.52974 0
M  V30 1757 C 172.708 -0.206014 2.01047 0
M  V30 1758 C 173.029 -1.48175 1.26765 0
M  V30 1759 O 172.299 -1.92085 0.384743 0
M  V30 1760 H 170.879 -0.0791184 0.742798 0
M  V30 1761 H 173.541 0.508366 1.88153 0
M  V30 1762 H 172.637 -0.423501 3.09213 0
M  V30 1763 N 172.938 -1.57226 0.108567 0
M  V30 1764 C 174.163 -1.99604 -0.563303 0
M  V30 1765 C 174.588 -0.987563 -1.6009 0
M  V30 1766 O 173.946 0.0421687 -1.81251 0
M  V30 1767 C 173.994 -3.40902 -1.17552 0
M  V30 1768 O 173.098 -3.42896 -2.2912 0
M  V30 1769 H 172.439 -0.648704 -0.1417 0
M  V30 1770 H 174.969 -2.03679 0.193961 0
M  V30 1771 H 174.979 -3.78886 -1.51357 0
M  V30 1772 H 173.654 -4.1382 -0.415445 0
M  V30 1773 H 172.231 -3.1672 -1.96832 0
M  V30 1774 N 174.416 0.165178 -1.56732 0
M  V30 1775 C 175.346 1.20651 -1.99914 0
M  V30 1776 C 176.327 1.45827 -0.875705 0
M  V30 1777 O 177.512 1.57057 -1.14223 0
M  V30 1778 C 174.642 2.54401 -2.36427 0
M  V30 1779 C 173.596 2.43782 -3.51787 0
M  V30 1780 C 172.922 3.82078 -3.7406 0
M  V30 1781 C 174.222 1.93732 -4.85041 0
M  V30 1782 H 175.916 0.847534 -2.87154 0
M  V30 1783 H 173.462 0.40625 -1.38151 0
M  V30 1784 H 175.415 3.27458 -2.65234 0
M  V30 1785 H 174.139 2.92098 -1.46103 0
M  V30 1786 H 172.798 1.73178 -3.23117 0
M  V30 1787 H 172.446 4.17179 -2.81017 0
M  V30 1788 H 172.146 3.7584 -4.51684 0
M  V30 1789 H 173.67 4.56712 -4.05274 0
M  V30 1790 H 175.084 2.56569 -5.12684 0
M  V30 1791 H 173.481 1.98428 -5.66345 0
M  V30 1792 H 174.551 0.891962 -4.76626 0
M  V30 1793 N 175.894 1.51508 0.433938 0
M  V30 1794 C 177.124 1.67914 1.20369 0
M  V30 1795 C 177.532 0.377461 1.85397 0
M  V30 1796 O 176.875 -0.654255 1.71654 0
M  V30 1797 C 176.937 2.74045 2.32679 0
M  V30 1798 C 176.601 4.16543 1.87991 0
M  V30 1799 C 177.598 5.01211 1.38145 0
M  V30 1800 C 175.283 4.6266 1.95579 0
M  V30 1801 C 177.277 6.30056 0.964774 0
M  V30 1802 C 174.964 5.91501 1.53523 0
M  V30 1803 C 175.962 6.75027 1.04055 0
M  V30 1804 O 175.65 8.01459 0.625964 0
M  V30 1805 H 175.382 0.566578 0.368735 0
M  V30 1806 H 177.936 1.98709 0.51999 0
M  V30 1807 H 176.166 2.38572 3.04336 0
M  V30 1808 H 177.855 2.79295 2.94532 0
M  V30 1809 H 178.621 4.66783 1.31675 0
M  V30 1810 H 174.5 3.97767 2.33029 0
M  V30 1811 H 178.044 6.95202 0.57796 0
M  V30 1812 H 173.941 6.25442 1.59665 0
M  V30 1813 H 174.709 8.15043 0.751509 0
M  V30 1814 N 177.372 -0.689602 1.41712 0
M  V30 1815 C 178.304 -1.815 1.39966 0
M  V30 1816 C 179.317 -1.59995 0.300917 0
M  V30 1817 O 180.506 -1.69387 0.563039 0
M  V30 1818 C 177.606 -3.18364 1.16179 0
M  V30 1819 C 176.779 -3.66847 2.38206 0
M  V30 1820 C 175.838 -4.82398 2.10186 0
M  V30 1821 O 174.864 -4.93706 2.83272 0
M  V30 1822 N 176.066 -5.70064 1.0958 0
M  V30 1823 H 178.831 -1.83488 2.36965 0
M  V30 1824 H 176.392 -0.872149 1.36401 0
M  V30 1825 H 178.384 -3.93301 0.953756 0
M  V30 1826 H 176.954 -3.11365 0.27756 0
M  V30 1827 H 176.174 -2.82751 2.74673 0
M  V30 1828 H 177.462 -3.95978 3.19498 0
M  V30 1829 H 176.86 -5.63565 0.491019 0
M  V30 1830 H 175.417 -6.44874 0.947656 0
M  V30 1831 N 178.85 -1.27639 -0.924453 0
M  V30 1832 C 180.127 -1.04887 -1.651 0
M  V30 1833 C 180.507 0.415327 -2.06974 0
M  V30 1834 O 179.855 1.39923 -1.80648 0
M  V30 1835 C 180.065 -2.01348 -2.85061 0
M  V30 1836 C 181.413 -2.30899 -3.56329 0
M  V30 1837 O 182.437 -1.99348 -2.95193 0
M  V30 1838 O 181.296 -2.84699 -4.66485 0
M  V30 1839 H 178.39 -0.400083 -0.723784 0
M  V30 1840 H 180.936 -1.38916 -0.974703 0
M  V30 1841 H 179.708 -3.0008 -2.51133 0
M  V30 1842 H 179.331 -1.679 -3.6041 0
M  V30 1843 N 180.328 1.1314 -1.09713 0
M  V30 1844 C 181.26 2.18343 -0.697056 0
M  V30 1845 C 182.273 1.60669 0.262551 0
M  V30 1846 O 183.462 1.78435 0.0481527 0
M  V30 1847 C 180.562 3.38899 -0.00684728 0
M  V30 1848 C 179.735 4.26078 -0.988741 0
M  V30 1849 C 178.794 5.25155 -0.331394 0
M  V30 1850 O 177.82 5.60701 -0.979926 0
M  V30 1851 N 179.022 5.73271 0.913261 0
M  V30 1852 H 181.787 2.5328 -1.60216 0
M  V30 1853 H 179.348 1.28491 -0.984971 0
M  V30 1854 H 181.34 4.02255 0.444191 0
M  V30 1855 H 179.91 3.02175 0.800551 0
M  V30 1856 H 179.13 3.59453 -1.61826 0
M  V30 1857 H 180.418 4.81178 -1.65364 0
M  V30 1858 H 179.816 5.46544 1.45966 0
M  V30 1859 H 178.373 6.3855 1.30757 0
M  V30 1860 N 181.806 0.884767 1.30421 0
M  V30 1861 C 183.055 0.499164 1.95426 0
M  V30 1862 C 183.368 -0.95645 1.70621 0
M  V30 1863 O 184.574 -1.44889 2.29607 0
M  V30 1864 C 183.03 0.84177 3.49917 0
M  V30 1865 C 182.638 2.31514 3.83543 0
M  V30 1866 C 184.382 0.525355 4.21237 0
M  V30 1867 C 182.289 2.59939 5.31212 0
M  V30 1868 H 181.219 0.182944 0.73147 0
M  V30 1869 H 183.87 1.07971 1.48373 0
M  V30 1870 H 182.252 0.190311 3.95542 0
M  V30 1871 H 183.426 3.0109 3.48829 0
M  V30 1872 H 181.741 2.59907 3.25326 0
M  V30 1873 H 184.338 0.714762 5.29901 0
M  V30 1874 H 184.681 -0.535222 4.12845 0
M  V30 1875 H 185.214 1.134 3.81294 0
M  V30 1876 H 181.953 3.64736 5.44654 0
M  V30 1877 H 181.473 1.94972 5.67227 0
M  V30 1878 H 183.152 2.45429 5.98643 0
M  V30 1879 N 183.284 -1.43765 0.645699 0
M  V30 1880 C 184.214 -2.33471 -0.0370477 0
M  V30 1881 C 185.195 -1.49042 -0.819779 0
M  V30 1882 O 186.38 -1.77726 -0.782758 0
M  V30 1883 C 183.51 -3.32311 -1.0093 0
M  V30 1884 C 182.464 -4.2667 -0.337201 0
M  V30 1885 C 181.79 -5.1549 -1.42037 0
M  V30 1886 C 183.09 -5.16657 0.765706 0
M  V30 1887 H 184.784 -2.90809 0.712069 0
M  V30 1888 H 182.33 -1.39834 0.343876 0
M  V30 1889 H 184.283 -3.9396 -1.49578 0
M  V30 1890 H 183.007 -2.73213 -1.78948 0
M  V30 1891 H 181.666 -3.66374 0.128771 0
M  V30 1892 H 181.314 -4.52735 -2.1918 0
M  V30 1893 H 181.014 -5.79438 -0.975966 0
M  V30 1894 H 182.538 -5.80012 -1.90838 0
M  V30 1895 H 183.952 -5.72158 0.361702 0
M  V30 1896 H 182.349 -5.89286 1.13413 0
M  V30 1897 H 183.419 -4.56796 1.62683 0
M  V30 1898 N 184.763 -0.387143 -1.52771 0
M  V30 1899 C 185.673 0.456442 -2.30117 0
M  V30 1900 C 186.689 1.07342 -1.36944 0
M  V30 1901 O 187.865 1.07971 -1.70013 0
M  V30 1902 C 184.93 1.56957 -3.09136 0
M  V30 1903 C 183.991 0.977916 -4.18014 0
M  V30 1904 C 183.224 2.038 -4.93256 0
M  V30 1905 O 183.447 3.25271 -4.68567 0
M  V30 1906 O 182.381 1.6565 -5.78657 0
M  V30 1907 H 186.207 -0.17359 -3.03203 0
M  V30 1908 H 183.792 -0.150919 -1.48636 0
M  V30 1909 H 185.674 2.21628 -3.58412 0
M  V30 1910 H 184.349 2.18461 -2.38865 0
M  V30 1911 H 183.256 0.294525 -3.72939 0
M  V30 1912 H 184.589 0.407128 -4.90513 0
M  V30 1913 N 186.241 1.57166 -0.116904 0
M  V30 1914 C 187.188 2.15202 0.83408 0
M  V30 1915 C 188.158 1.07644 1.26499 0
M  V30 1916 O 189.343 1.35541 1.34288 0
M  V30 1917 C 186.483 2.75405 2.07957 0
M  V30 1918 C 185.596 3.97264 1.69721 0
M  V30 1919 C 184.731 4.45561 2.89221 0
M  V30 1920 C 183.77 5.59956 2.47215 0
M  V30 1921 N 182.907 6.03006 3.59622 0
M  V30 1922 H 187.747 2.96141 0.332335 0
M  V30 1923 H 185.284 1.46309 0.152349 0
M  V30 1924 H 187.242 3.08439 2.80929 0
M  V30 1925 H 185.872 1.97159 2.55594 0
M  V30 1926 H 184.924 3.70404 0.866316 0
M  V30 1927 H 186.236 4.80226 1.34849 0
M  V30 1928 H 185.39 4.80493 3.7042 0
M  V30 1929 H 184.129 3.61544 3.27318 0
M  V30 1930 H 183.134 5.2463 1.64448 0
M  V30 1931 H 184.359 6.45738 2.10238 0
M  V30 1932 H 182.305 5.21931 3.97396 0
M  V30 1933 H 182.222 6.80819 3.28667 0
M  V30 1934 H 183.49 6.42576 4.41267 0
M  V30 1935 N 187.719 -0.156864 1.56817 0
M  V30 1936 C 188.966 -0.871125 1.82805 0
M  V30 1937 C 189.294 -1.81611 0.696262 0
M  V30 1938 O 188.549 -1.93141 -0.315459 0
M  V30 1939 C 188.848 -1.68737 3.1506 0
M  V30 1940 C 188.514 -0.890045 4.42028 0
M  V30 1941 C 187.176 -0.670042 4.76512 0
M  V30 1942 C 189.528 -0.331769 5.20143 0
M  V30 1943 C 186.856 0.119104 5.86579 0
M  V30 1944 C 189.208 0.444365 6.31037 0
M  V30 1945 C 187.872 0.675035 6.64078 0
M  V30 1946 H 187.142 -0.318767 0.668931 0
M  V30 1947 H 189.789 -0.135274 1.91022 0
M  V30 1948 H 188.094 -2.49304 3.0225 0
M  V30 1949 H 189.791 -2.24331 3.3238 0
M  V30 1950 H 186.381 -1.07157 4.14988 0
M  V30 1951 H 190.565 -0.489043 4.93885 0
M  V30 1952 H 185.821 0.307417 6.10627 0
M  V30 1953 H 189.995 0.884139 6.90765 0
M  V30 1954 H 187.622 1.28839 7.49203 0
M  V30 1955 N 189.197 -1.51736 -0.425897 0
M  V30 1956 C 190.613 -1.40166 -0.76326 0
M  V30 1957 C 190.813 -0.492962 -1.95377 0
M  V30 1958 O 189.869 0.0475815 -2.52455 0
M  V30 1959 C 191.182 -2.82403 -1.03291 0
M  V30 1960 C 192.73 -2.91632 -1.13665 0
M  V30 1961 C 193.205 -4.34801 -1.43916 0
M  V30 1962 N 194.696 -4.3796 -1.50816 0
M  V30 1963 C 195.431 -5.4578 -1.75817 0
M  V30 1964 N 194.927 -6.63744 -1.98534 0
M  V30 1965 N 196.72 -5.33274 -1.77694 0
M  V30 1966 H 188.871 -2.09361 0.358 0
M  V30 1967 H 191.134 -0.942941 0.0978094 0
M  V30 1968 H 190.84 -3.50943 -0.230696 0
M  V30 1969 H 190.714 -3.22428 -1.95754 0
M  V30 1970 H 193.101 -2.23284 -1.92947 0
M  V30 1971 H 193.182 -2.55088 -0.190756 0
M  V30 1972 H 192.826 -5.03703 -0.65157 0
M  V30 1973 H 192.756 -4.68868 -2.39729 0
M  V30 1974 H 195.247 -3.52919 -1.35118 0
M  V30 1975 H 195.56 -7.41704 -2.17013 0
M  V30 1976 H 193.905 -6.66839 -1.95832 0
M  V30 1977 H 197.096 -4.40098 -1.59473 0
M  V30 1978 H 197.269 -6.1738 -1.9684 0
M  V30 1979 N 190.675 0.682077 -1.42076 0
M  V30 1980 C 191.622 1.79578 -1.44984 0
M  V30 1981 C 192.592 1.6332 -0.302614 0
M  V30 1982 O 193.777 1.83978 -0.505633 0
M  V30 1983 C 190.917 3.1756 -1.35091 0
M  V30 1984 C 190.03 3.45156 -2.59791 0
M  V30 1985 C 189.165 4.72826 -2.42093 0
M  V30 1986 C 188.204 4.93433 -3.62202 0
M  V30 1987 N 187.341 6.12338 -3.43491 0
M  V30 1988 H 192.181 1.76427 -2.40161 0
M  V30 1989 H 189.718 0.861376 -1.19242 0
M  V30 1990 H 191.676 3.97287 -1.27354 0
M  V30 1991 H 190.306 3.19854 -0.435133 0
M  V30 1992 H 189.358 2.59736 -2.77923 0
M  V30 1993 H 190.67 3.5628 -3.49094 0
M  V30 1994 H 189.824 5.60631 -2.319 0
M  V30 1995 H 188.563 4.63973 -1.50268 0
M  V30 1996 H 187.568 4.04073 -3.72834 0
M  V30 1997 H 188.793 5.04136 -4.54998 0
M  V30 1998 H 186.739 6.04672 -2.54377 0
M  V30 1999 H 186.656 6.2429 -4.26377 0
M  V30 2000 H 187.924 7.02841 -3.37097 0
M  V30 2001 N 192.153 1.28127 0.917671 0
M  V30 2002 C 193.378 1.18007 1.70555 0
M  V30 2003 C 193.803 -0.258257 1.86319 0
M  V30 2004 O 193.161 -1.1869 1.37049 0
M  V30 2005 C 193.209 1.87948 3.07746 0
M  V30 2006 O 192.313 1.18427 3.9503 0
M  V30 2007 H 191.654 0.409867 0.522403 0
M  V30 2008 H 194.184 1.69379 1.1477 0
M  V30 2009 H 194.194 1.95701 3.58001 0
M  V30 2010 H 192.869 2.92573 2.95591 0
M  V30 2011 H 191.446 1.18811 3.53466 0
M  V30 2012 N 193.631 -1.12557 1.10312 0
M  V30 2013 C 194.594 -2.16434 0.75424 0
M  V30 2014 C 195.594 -1.59278 -0.220685 0
M  V30 2015 O 196.784 -1.742 0.00230591 0
M  V30 2016 C 193.916 -3.40699 0.116987 0
M  V30 2017 H 195.109 -2.48811 1.67431 0
M  V30 2018 H 192.662 -1.27542 0.903475 0
M  V30 2019 H 193.397 -3.13921 -0.813877 0
M  V30 2020 H 193.182 -3.83459 0.818613 0
M  V30 2021 H 194.672 -4.17451 -0.111387 0
M  V30 2022 N 195.109 -0.891671 -1.2995 0
M  V30 2023 C 196.019 -0.367691 -2.31701 0
M  V30 2024 C 197.035 0.533486 -1.6562 0
M  V30 2025 O 198.211 0.424997 -1.96865 0
M  V30 2026 C 195.276 0.403406 -3.44345 0
M  V30 2027 C 194.337 -0.528328 -4.26037 0
M  V30 2028 C 193.57 0.206063 -5.33302 0
M  V30 2029 O 193.793 1.43119 -5.52153 0
M  V30 2030 O 192.727 -0.447281 -6.00236 0
M  V30 2031 H 196.553 -1.21163 -2.78484 0
M  V30 2032 H 194.138 -0.655725 -1.34241 0
M  V30 2033 H 196.02 0.839753 -4.12948 0
M  V30 2034 H 194.695 1.22354 -2.99685 0
M  V30 2035 H 193.602 -1.01362 -3.60106 0
M  V30 2036 H 194.935 -1.31465 -4.74318 0
M  V30 2037 N 196.587 1.43421 -0.653314 0
M  V30 2038 C 197.537 2.2792 0.060558 0
M  V30 2039 C 198.521 1.39906 0.794677 0
M  V30 2040 O 199.713 1.63536 0.677128 0
M  V30 2041 C 196.842 3.27603 1.0262 0
M  V30 2042 C 195.928 4.23104 0.290551 0
M  V30 2043 N 196.319 5.01031 -0.692967 0
M  V30 2044 C 194.617 4.42816 0.531984 0
M  V30 2045 C 195.318 5.70626 -1.12963 0
M  V30 2046 N 194.294 5.41617 -0.463867 0
M  V30 2047 H 198.096 2.85585 -0.694143 0
M  V30 2048 H 195.61 1.55126 -0.480602 0
M  V30 2049 H 197.607 3.86918 1.55242 0
M  V30 2050 H 196.267 2.71499 1.78096 0
M  V30 2051 H 197.278 5.0669 -1.07169 0
M  V30 2052 H 193.955 3.97782 1.26791 0
M  V30 2053 H 195.345 6.4318 -1.94343 0
M  V30 2054 N 198.065 0.39524 1.52563 0
M  V30 2055 C 199.305 -0.184744 2.03563 0
M  V30 2056 C 199.669 -1.43548 1.27507 0
M  V30 2057 O 200.87 -2.093 1.68662 0
M  V30 2058 C 199.141 -0.440294 3.54678 0
M  V30 2059 S 200.7 -0.989712 4.27493 0
M  V30 2060 H 197.518 -0.0515075 0.709132 0
M  V30 2061 H 200.12 0.544957 1.87751 0
M  V30 2062 H 198.824 0.477005 4.07618 0
M  V30 2063 H 198.355 -1.19825 3.74707 0
M  V30 2064 H 200.37 -2.27155 4.41152 0
M  V30 2065 N 199.544 -1.57102 0.125237 0
M  V30 2066 C 200.821 -1.86953 -0.575142 0
M  V30 2067 C 201.201 -1.02749 -1.84407 0
M  V30 2068 O 200.549 -0.108144 -2.28244 0
M  V30 2069 C 200.759 -3.38198 -0.861583 0
M  V30 2070 C 202.107 -4.06937 -1.21192 0
M  V30 2071 O 203.131 -3.43252 -0.951645 0
M  V30 2072 O 201.99 -5.19364 -1.70068 0
M  V30 2073 H 199.084 -0.774147 -0.290906 0
M  V30 2074 H 201.63 -1.68942 0.160211 0
M  V30 2075 H 200.402 -3.91282 0.0373647 0
M  V30 2076 H 200.025 -3.61661 -1.65188 0
M  V30 2077 N 201.022 0.148545 -1.56898 0
M  V30 2078 C 202.262 0.86765 -1.85071 0
M  V30 2079 C 202.626 1.78417 -0.709317 0
M  V30 2080 O 203.827 2.54261 -0.872049 0
M  V30 2081 C 202.098 1.62306 -3.1842 0
M  V30 2082 S 203.657 2.3878 -3.68143 0
M  V30 2083 H 200.475 0.290174 -0.649092 0
M  V30 2084 H 203.077 0.127755 -1.95082 0
M  V30 2085 H 201.781 0.941192 -3.99462 0
M  V30 2086 H 201.312 2.4039 -3.1141 0
M  V30 2087 H 203.327 3.63942 -3.37285 0
M  V30 2088 N 202.5 1.5196 0.417844 0
M  V30 2089 C 203.43 1.77634 1.51554 0
M  V30 2090 C 204.411 0.626918 1.58126 0
M  V30 2091 O 205.596 0.871632 1.7354 0
M  V30 2092 C 202.726 1.91911 2.8946 0
M  V30 2093 C 201.68 3.07463 2.97743 0
M  V30 2094 C 201.006 3.06951 4.37819 0
M  V30 2095 C 202.306 4.47082 2.70027 0
M  V30 2096 H 204 2.6955 1.3032 0
M  V30 2097 H 201.546 1.29706 0.625492 0
M  V30 2098 H 203.499 2.08455 3.6623 0
M  V30 2099 H 202.223 0.966598 3.11969 0
M  V30 2100 H 200.882 2.90656 2.23416 0
M  V30 2101 H 200.53 2.09438 4.57323 0
M  V30 2102 H 200.23 3.84556 4.44286 0
M  V30 2103 H 201.754 3.25613 5.16535 0
M  V30 2104 H 203.168 4.6414 3.36522 0
M  V30 2105 H 201.565 5.2654 2.87881 0
M  V30 2106 H 202.635 4.55777 1.65514 0
M  V30 2107 N 203.978 -0.674533 1.42435 0
M  V30 2108 C 204.91 -1.80005 1.41883 0
M  V30 2109 C 205.923 -1.59667 0.31787 0
M  V30 2110 O 207.112 -1.68781 0.580973 0
M  V30 2111 C 204.212 -3.17114 1.19549 0
M  V30 2112 C 203.385 -3.64299 2.42084 0
M  V30 2113 C 202.444 -4.80142 2.15291 0
M  V30 2114 O 201.47 -4.90673 2.88493 0
M  V30 2115 N 202.672 -5.68869 1.1562 0
M  V30 2116 H 205.437 -1.80964 2.38898 0
M  V30 2117 H 202.998 -0.857633 1.37318 0
M  V30 2118 H 204.99 -3.92267 0.995417 0
M  V30 2119 H 203.56 -3.11053 0.310569 0
M  V30 2120 H 202.78 -2.79822 2.77657 0
M  V30 2121 H 204.068 -3.92567 3.23679 0
M  V30 2122 H 203.466 -5.63012 0.550765 0
M  V30 2123 H 202.023 -6.43833 1.016 0
M  V30 2124 N 205.456 -1.28612 -0.910864 0
M  V30 2125 C 206.696 -1.1719 -1.67469 0
M  V30 2126 C 207.06 0.274441 -1.90028 0
M  V30 2127 O 208.261 0.511425 -2.6389 0
M  V30 2128 C 206.532 -1.95137 -2.99427 0
M  V30 2129 S 208.091 -2.00122 -3.90508 0
M  V30 2130 H 204.909 -0.41806 -0.575106 0
M  V30 2131 H 207.511 -1.6275 -1.08317 0
M  V30 2132 H 206.215 -2.99381 -2.80712 0
M  V30 2133 H 205.746 -1.50137 -3.63624 0
M  V30 2134 H 207.761 -1.10981 -4.8363 0
M  V30 2135 N 206.934 1.1197 -1.10907 0
M  V30 2136 C 208.181 1.83588 -0.854507 0
M  V30 2137 C 208.509 1.84357 0.6199 0
M  V30 2138 O 207.764 1.28809 1.47332 0
M  V30 2139 C 208.063 3.30749 -1.35425 0
M  V30 2140 C 207.729 3.50146 -2.84093 0
M  V30 2141 C 206.391 3.55148 -3.2469 0
M  V30 2142 C 208.743 3.56857 -3.79872 0
M  V30 2143 C 206.071 3.6441 -4.59806 0
M  V30 2144 C 208.423 3.6765 -5.14797 0
M  V30 2145 C 207.087 3.7091 -5.54961 0
M  V30 2146 H 206.357 0.671795 -0.312686 0
M  V30 2147 H 209.004 1.32091 -1.38652 0
M  V30 2148 H 207.309 3.84703 -0.742361 0
M  V30 2149 H 209.006 3.8464 -1.1337 0
M  V30 2150 H 205.596 3.46919 -2.51685 0
M  V30 2151 H 209.78 3.52258 -3.49611 0
M  V30 2152 H 205.036 3.65208 -4.9034 0
M  V30 2153 H 209.21 3.71786 -5.88853 0
M  V30 2154 H 206.837 3.7784 -6.59652 0
M  V30 2155 N 208.412 0.89855 1.29475 0
M  V30 2156 C 209.659 0.523882 1.95606 0
M  V30 2157 C 209.987 -0.929608 1.70847 0
M  V30 2158 O 209.242 -1.67401 1.01367 0
M  V30 2159 C 209.541 0.761398 3.49195 0
M  V30 2160 C 209.207 2.19207 3.94029 0
M  V30 2161 C 207.869 2.58326 4.05982 0
M  V30 2162 C 210.221 3.12379 4.17216 0
M  V30 2163 C 207.549 3.898 4.38489 0
M  V30 2164 C 209.901 4.43401 4.51197 0
M  V30 2165 C 208.565 4.82394 4.61359 0
M  V30 2166 H 207.835 0.191702 0.715773 0
M  V30 2167 H 210.482 1.13699 1.54094 0
M  V30 2168 H 208.787 0.0653622 3.91745 0
M  V30 2169 H 210.484 0.450904 3.98457 0
M  V30 2170 H 207.074 1.87846 3.85242 0
M  V30 2171 H 211.258 2.83371 4.07449 0
M  V30 2172 H 206.514 4.19734 4.44559 0
M  V30 2173 H 210.688 5.15623 4.68087 0
M  V30 2174 H 208.315 5.84306 4.86303 0
M  V30 2175 N 209.89 -1.43072 0.660911 0
M  V30 2176 C 211.139 -2.00942 0.174735 0
M  V30 2177 C 211.452 -1.52797 -1.22117 0
M  V30 2178 O 212.658 -2.02991 -1.80297 0
M  V30 2179 C 211.114 -3.58948 0.261559 0
M  V30 2180 C 210.722 -4.16085 1.66064 0
M  V30 2181 C 212.466 -4.24173 -0.166617 0
M  V30 2182 C 210.373 -5.6641 1.70098 0
M  V30 2183 H 209.303 -0.751483 0.0615631 0
M  V30 2184 H 211.954 -1.63955 0.824069 0
M  V30 2185 H 210.336 -3.93372 -0.455421 0
M  V30 2186 H 211.51 -3.93147 2.40359 0
M  V30 2187 H 209.825 -3.6326 2.03546 0
M  V30 2188 H 212.422 -5.34471 -0.156433 0
M  V30 2189 H 212.765 -3.98647 -1.19943 0
M  V30 2190 H 213.298 -3.94659 0.498875 0
M  V30 2191 H 210.037 -5.96715 2.71315 0
M  V30 2192 H 209.557 -5.91382 1.00139 0
M  V30 2193 H 211.236 -6.30585 1.44816 0
M  V30 2194 N 211.368 -0.403325 -1.52352 0
M  V30 2195 C 212.617 0.175668 -2.00934 0
M  V30 2196 C 212.93 1.46718 -1.29356 0
M  V30 2197 O 214.136 2.12708 -1.68724 0
M  V30 2198 C 212.592 0.363612 -3.58058 0
M  V30 2199 C 212.2 -0.915472 -4.38547 0
M  V30 2200 C 213.944 0.89821 -4.14888 0
M  V30 2201 C 211.851 -0.695035 -5.87302 0
M  V30 2202 H 210.781 0.0694234 -0.750797 0
M  V30 2203 H 213.432 -0.527879 -1.75743 0
M  V30 2204 H 211.814 1.12935 -3.79555 0
M  V30 2205 H 212.988 -1.68691 -4.28812 0
M  V30 2206 H 211.303 -1.37606 -3.93006 0
M  V30 2207 H 213.9 1.07907 -5.23699 0
M  V30 2208 H 214.243 1.87126 -3.71873 0
M  V30 2209 H 214.776 0.191681 -3.97338 0
M  V30 2210 H 211.515 -1.63948 -6.34666 0
M  V30 2211 H 211.035 0.0372116 -5.99788 0
M  V30 2212 H 212.714 -0.33497 -6.46132 0
M  V30 2213 N 212.846 1.57033 -0.133567 0
M  V30 2214 C 213.796 2.12641 0.822671 0
M  V30 2215 C 214.78 1.05081 1.21847 0
M  V30 2216 O 215.972 1.31287 1.18713 0
M  V30 2217 C 213.101 2.74094 2.06706 0
M  V30 2218 C 212.187 3.88757 1.69497 0
M  V30 2219 N 212.578 4.95194 1.03037 0
M  V30 2220 C 210.876 3.99213 1.98859 0
M  V30 2221 C 211.577 5.75414 0.852873 0
M  V30 2222 N 210.553 5.25726 1.3825 0
M  V30 2223 H 214.355 2.92308 0.305537 0
M  V30 2224 H 211.869 1.62256 0.0684276 0
M  V30 2225 H 213.866 3.12285 2.76195 0
M  V30 2226 H 212.526 1.95896 2.5895 0
M  V30 2227 H 213.537 5.13247 0.692669 0
M  V30 2228 H 210.214 3.32075 2.53047 0
M  V30 2229 H 211.604 6.71089 0.330091 0
M  V30 2230 N 214.325 -0.140222 1.56975 0
M  V30 2231 C 215.55 -0.870414 1.88251 0
M  V30 2232 C 215.975 -1.73637 0.723312 0
M  V30 2233 O 215.333 -1.78329 -0.32689 0
M  V30 2234 C 215.381 -1.69737 3.18154 0
M  V30 2235 O 214.485 -2.80229 3.02565 0
M  V30 2236 H 213.826 -0.242025 0.61832 0
M  V30 2237 H 216.356 -0.128999 2.04193 0
M  V30 2238 H 216.366 -2.09099 3.50345 0
M  V30 2239 H 215.041 -1.06152 4.02125 0
M  V30 2240 H 213.618 -2.44224 2.81796 0
M  V30 2241 N 215.803 -1.52179 -0.40978 0
M  V30 2242 C 216.736 -1.70196 -1.52015 0
M  V30 2243 C 217.714 -0.549542 -1.53032 0
M  V30 2244 O 218.898 -0.776815 -1.71749 0
M  V30 2245 C 216.025 -1.74069 -2.90547 0
M  V30 2246 C 215.071 -2.95601 -3.07445 0
M  V30 2247 S 215.904 -4.55956 -2.80827 0
M  V30 2248 C 217.06 -4.62614 -4.21591 0
M  V30 2249 H 217.293 -2.64109 -1.36504 0
M  V30 2250 H 214.826 -1.4221 -0.601312 0
M  V30 2251 H 216.784 -1.76985 -3.70387 0
M  V30 2252 H 215.445 -0.812835 -3.034 0
M  V30 2253 H 214.638 -2.94791 -4.08796 0
M  V30 2254 H 214.24 -2.90569 -2.35469 0
M  V30 2255 H 216.532 -4.39951 -5.15218 0
M  V30 2256 H 217.475 -5.64548 -4.27424 0
M  V30 2257 H 217.883 -3.91654 -4.06531 0
M  V30 2258 N 217.281 0.66697 -1.42791 0
M  V30 2259 C 218.529 1.42417 -1.43394 0
M  V30 2260 C 218.85 1.94925 -0.0542373 0
M  V30 2261 O 218.12 1.73564 0.908415 0
M  V30 2262 H 216.7 0.528515 -0.527902 0
M  V30 2263 H 219.362 0.787562 -1.78279 0
M  V30 2264 H 218.458 2.27333 -2.13837 0
M  V30 2265 N 218.759 1.29093 0.90403 0
M  V30 2266 C 220.007 1.16583 1.65085 0
M  V30 2267 C 220.328 -0.283933 1.92922 0
M  V30 2268 O 219.598 -1.19509 1.55224 0
M  V30 2269 H 218.178 0.428467 0.611903 0
M  V30 2270 H 220.84 1.61959 1.08422 0
M  V30 2271 H 219.936 1.71266 2.6091 0
M  V30 2272 N 220.237 -1.11381 1.11499 0
M  V30 2273 C 221.485 -1.8277 0.862524 0
M  V30 2274 C 221.806 -1.85097 -0.613534 0
M  V30 2275 O 221.076 -1.32198 -1.4457 0
M  V30 2276 H 219.656 -0.676823 0.316101 0
M  V30 2277 H 222.318 -1.34816 1.4075 0
M  V30 2278 H 221.414 -2.86614 1.23527 0
M  V30 2279 N 221.715 -0.905404 -1.28997 0
M  V30 2280 C 222.943 -0.549846 -1.9946 0
M  V30 2281 C 223.358 0.866834 -1.67724 0
M  V30 2282 O 222.715 1.57298 -0.925404 0
M  V30 2283 C 222.766 -0.739387 -3.53858 0
M  V30 2284 O 222.487 -2.10031 -3.84472 0
M  V30 2285 C 223.988 -0.389541 -4.41585 0
M  V30 2286 H 221.208 -0.210429 -0.637151 0
M  V30 2287 H 223.752 -1.21632 -1.64396 0
M  V30 2288 H 221.907 -0.120023 -3.87214 0
M  V30 2289 H 222.321 -2.13385 -4.79132 0
M  V30 2290 H 223.795 -0.572972 -5.49018 0
M  V30 2291 H 224.272 0.673756 -4.34001 0
M  V30 2292 H 224.878 -0.986089 -4.1371 0
M  V30 2293 N 223.193 1.4272 -0.668489 0
M  V30 2294 C 224.441 2.01226 -0.187769 0
M  V30 2295 C 224.762 1.53092 1.2078 0
M  V30 2296 O 224.032 0.74993 1.80977 0
M  V30 2297 H 222.612 0.744041 -0.0664272 0
M  V30 2298 H 225.274 1.74723 -0.863583 0
M  V30 2299 H 224.37 3.11556 -0.184166 0
M  V30 2300 N 224.671 0.411399 1.52136 0
M  V30 2301 C 225.896 -0.165538 2.06738 0
M  V30 2302 C 226.321 -1.379 1.27926 0
M  V30 2303 O 225.679 -1.78628 0.310114 0
M  V30 2304 C 225.727 -0.492124 3.57226 0
M  V30 2305 O 224.831 -1.58276 3.80818 0
M  V30 2306 H 224.172 -0.0132132 0.663869 0
M  V30 2307 H 226.702 0.585253 1.96051 0
M  V30 2308 H 226.712 -0.750104 4.01045 0
M  V30 2309 H 225.387 0.394922 4.14021 0
M  V30 2310 H 223.964 -1.31677 3.48877 0
M  V30 2311 N 226.149 -1.5696 0.141893 0
M  V30 2312 C 227.397 -1.95573 -0.509484 0
M  V30 2313 C 227.718 -1.02746 -1.65736 0
M  V30 2314 O 226.988 -0.0880311 -1.95702 0
M  V30 2315 H 225.568 -0.722115 -0.191205 0
M  V30 2316 H 228.23 -1.93697 0.216196 0
M  V30 2317 H 227.326 -2.99171 -0.889 0
M  V30 2318 N 227.627 0.131896 -1.57047 0
M  V30 2319 C 228.557 1.16384 -2.02428 0
M  V30 2320 C 229.538 1.43936 -0.90644 0
M  V30 2321 O 230.723 1.54599 -1.17528 0
M  V30 2322 C 227.853 2.49328 -2.4177 0
M  V30 2323 C 226.807 2.36266 -3.56879 0
M  V30 2324 C 226.133 3.74057 -3.8208 0
M  V30 2325 C 227.433 1.834 -4.89042 0
M  V30 2326 H 229.127 0.786433 -2.88887 0
M  V30 2327 H 226.673 0.376855 -1.38981 0
M  V30 2328 H 228.626 3.21759 -2.7212 0
M  V30 2329 H 227.35 2.88934 -1.52266 0
M  V30 2330 H 226.009 1.66286 -3.26718 0
M  V30 2331 H 225.657 4.11125 -2.89803 0
M  V30 2332 H 225.357 3.66174 -4.59554 0
M  V30 2333 H 226.881 4.48012 -4.1487 0
M  V30 2334 H 228.295 2.45636 -5.18011 0
M  V30 2335 H 226.692 1.8637 -5.70426 0
M  V30 2336 H 227.762 0.790662 -4.7841 0
M  V30 2337 N 229.106 1.52395 0.401703 0
M  V30 2338 C 230.354 1.66488 1.14569 0
M  V30 2339 C 230.675 0.400897 1.90835 0
M  V30 2340 O 229.945 -0.584415 1.8698 0
M  V30 2341 H 228.525 0.613672 0.425929 0
M  V30 2342 H 231.187 1.89464 0.457093 0
M  V30 2343 H 230.283 2.50942 1.85566 0
M  V30 2344 N 230.584 -0.659388 1.43143 0
M  V30 2345 C 231.812 -1.44723 1.47861 0
M  V30 2346 C 232.227 -1.88563 0.0945886 0
M  V30 2347 O 231.584 -1.59108 -0.893915 0
M  V30 2348 C 231.635 -2.68627 2.41913 0
M  V30 2349 O 231.356 -2.26623 3.74932 0
M  V30 2350 C 232.857 -3.62045 2.55809 0
M  V30 2351 H 230.077 -0.444801 0.502387 0
M  V30 2352 H 232.621 -0.808916 1.87821 0
M  V30 2353 H 230.776 -3.28613 2.05164 0
M  V30 2354 H 231.19 -3.06745 4.2545 0
M  V30 2355 H 232.664 -4.45666 3.25708 0
M  V30 2356 H 233.141 -4.08981 1.60099 0
M  V30 2357 H 233.747 -3.07944 2.93344 0
M  V30 2358 N 232.062 -1.29571 -0.897171 0
M  V30 2359 C 233.309 -1.17689 -1.6479 0
M  V30 2360 C 233.637 0.27107 -1.92602 0
M  V30 2361 O 232.892 1.21193 -1.53658 0
M  V30 2362 C 233.191 -1.9382 -3.00281 0
M  V30 2363 C 232.857 -3.43522 -2.92068 0
M  V30 2364 C 231.519 -3.84348 -2.89535 0
M  V30 2365 C 233.871 -4.38906 -2.81089 0
M  V30 2366 C 231.199 -5.18869 -2.73846 0
M  V30 2367 C 233.551 -5.73521 -2.66939 0
M  V30 2368 C 232.215 -6.13601 -2.62774 0
M  V30 2369 H 231.485 -0.430654 -0.603008 0
M  V30 2370 H 234.132 -1.60536 -1.04404 0
M  V30 2371 H 232.437 -1.4357 -3.64547 0
M  V30 2372 H 234.134 -1.82028 -3.57305 0
M  V30 2373 H 230.724 -3.11072 -2.94842 0
M  V30 2374 H 234.908 -4.08315 -2.82121 0
M  V30 2375 H 230.164 -5.4903 -2.69027 0
M  V30 2376 H 234.338 -6.47078 -2.57416 0
M  V30 2377 H 231.965 -7.17786 -2.50375 0
M  V30 2378 N 233.54 1.10788 -1.12088 0
M  V30 2379 C 234.47 2.19083 -0.807755 0
M  V30 2380 C 235.451 1.6858 0.226859 0
M  V30 2381 O 236.636 1.93997 0.0888475 0
M  V30 2382 C 233.766 3.46344 -0.257576 0
M  V30 2383 C 232.72 4.101 -1.22483 0
M  V30 2384 C 232.046 5.32016 -0.535052 0
M  V30 2385 C 233.346 4.54236 -2.57811 0
M  V30 2386 H 235.04 2.45534 -1.71328 0
M  V30 2387 H 232.586 1.1801 -0.825205 0
M  V30 2388 H 234.539 4.21392 -0.0262679 0
M  V30 2389 H 233.263 3.19373 0.683278 0
M  V30 2390 H 231.922 3.37054 -1.44189 0
M  V30 2391 H 231.57 5.01319 0.410827 0
M  V30 2392 H 231.27 5.75625 -1.18024 0
M  V30 2393 H 232.794 6.09799 -0.312695 0
M  V30 2394 H 234.208 5.20575 -2.40155 0
M  V30 2395 H 232.605 5.08682 -3.18375 0
M  V30 2396 H 233.675 3.6734 -3.16528 0
M  V30 2397 N 235.018 0.912232 1.28515 0
M  V30 2398 C 235.948 0.416403 2.29757 0
M  V30 2399 C 236.929 -0.515194 1.6211 0
M  V30 2400 O 238.114 -0.423253 1.89532 0
M  V30 2401 C 235.244 -0.34572 3.45575 0
M  V30 2402 C 234.198 0.496599 4.25109 0
M  V30 2403 C 233.524 -0.393771 5.33248 0
M  V30 2404 C 234.824 1.75307 4.92001 0
M  V30 2405 H 236.518 1.26249 2.7148 0
M  V30 2406 H 234.064 0.608515 1.30511 0
M  V30 2407 H 236.017 -0.703422 4.15488 0
M  V30 2408 H 234.741 -1.2257 3.02728 0
M  V30 2409 H 233.4 0.8368 3.56922 0
M  V30 2410 H 233.048 -1.27225 4.86644 0
M  V30 2411 H 232.748 0.166209 5.87365 0
M  V30 2412 H 234.272 -0.747389 6.06009 0
M  V30 2413 H 235.686 1.46437 5.54283 0
M  V30 2414 H 234.083 2.25534 5.56106 0
M  V30 2415 H 235.153 2.48176 4.16577 0
M  V30 2416 N 236.496 -1.42363 0.676048 0
M  V30 2417 C 237.443 -2.308 -0.00150904 0
M  V30 2418 C 238.413 -1.46032 -0.791444 0
M  V30 2419 O 239.598 -1.74861 -0.76344 0
M  V30 2420 C 236.738 -3.31883 -0.945919 0
M  V30 2421 C 235.851 -4.31741 -0.149675 0
M  V30 2422 C 234.986 -5.19898 -1.08995 0
M  V30 2423 C 234.025 -6.11434 -0.285465 0
M  V30 2424 N 233.162 -6.92138 -1.17851 0
M  V30 2425 H 238.002 -2.88187 0.758455 0
M  V30 2426 H 235.539 -1.41952 0.38576 0
M  V30 2427 H 237.497 -3.89019 -1.50731 0
M  V30 2428 H 236.127 -2.76093 -1.6725 0
M  V30 2429 H 235.179 -3.76713 0.528359 0
M  V30 2430 H 236.491 -4.96534 0.474866 0
M  V30 2431 H 235.645 -5.81772 -1.72123 0
M  V30 2432 H 234.384 -4.55284 -1.74837 0
M  V30 2433 H 233.389 -5.48627 0.359018 0
M  V30 2434 H 234.614 -6.78097 0.368883 0
M  V30 2435 H 232.56 -6.30152 -1.82332 0
M  V30 2436 H 232.477 -7.53542 -0.609082 0
M  V30 2437 H 233.745 -7.58499 -1.79722 0
M  V30 2438 N 237.974 -0.419461 -1.51915 0
M  V30 2439 C 239.22 0.153166 -2.02221 0
M  V30 2440 C 239.553 1.43907 -1.30401 0
M  V30 2441 O 238.828 1.90055 -0.413438 0
M  V30 2442 C 239.111 0.390291 -3.57979 0
M  V30 2443 C 238.964 -0.913014 -4.40436 0
M  V30 2444 C 240.283 1.16794 -4.2432 0
M  V30 2445 H 237.402 0.0541924 -0.735005 0
M  V30 2446 H 240.044 -0.554955 -1.81715 0
M  V30 2447 H 238.194 0.993491 -3.75582 0
M  V30 2448 H 239.866 -1.54882 -4.34522 0
M  V30 2449 H 238.109 -1.52168 -4.06236 0
M  V30 2450 H 238.78 -0.701361 -5.47526 0
M  V30 2451 H 241.256 0.657161 -4.10878 0
M  V30 2452 H 240.132 1.3026 -5.3322 0
M  V30 2453 H 240.393 2.19132 -3.83971 0
M  V30 2454 N 239.452 1.56882 -0.150215 0
M  V30 2455 C 240.382 2.19935 0.784284 0
M  V30 2456 C 241.363 1.14854 1.25469 0
M  V30 2457 O 242.548 1.43209 1.31168 0
M  V30 2458 C 239.678 2.82349 2.02229 0
M  V30 2459 C 238.632 3.93285 1.68853 0
M  V30 2460 C 237.958 4.42649 2.99944 0
M  V30 2461 C 239.258 5.13904 0.932714 0
M  V30 2462 H 240.952 2.9828 0.258781 0
M  V30 2463 H 238.498 1.43473 0.123029 0
M  V30 2464 H 240.451 3.25126 2.68088 0
M  V30 2465 H 239.175 2.0134 2.57157 0
M  V30 2466 H 237.834 3.5113 1.05371 0
M  V30 2467 H 237.482 3.58458 3.52869 0
M  V30 2468 H 237.182 5.17476 2.78374 0
M  V30 2469 H 238.706 4.88099 3.66868 0
M  V30 2470 H 240.12 5.53506 1.49345 0
M  V30 2471 H 238.517 5.94515 0.81684 0
M  V30 2472 H 239.587 4.84842 -0.0749568 0
M  V30 2473 N 240.93 -0.123565 1.57115 0
M  V30 2474 C 241.84 -1.17074 2.033 0
M  V30 2475 C 242.856 -1.4561 0.952559 0
M  V30 2476 O 244.032 -1.56817 1.26374 0
M  V30 2477 C 241.097 -2.47857 2.42421 0
M  V30 2478 C 240.158 -2.26758 3.64526 0
M  V30 2479 C 239.391 -3.51305 4.01771 0
M  V30 2480 O 239.614 -4.5843 3.39409 0
M  V30 2481 O 238.548 -3.42578 4.94898 0
M  V30 2482 H 242.374 -0.808555 2.92739 0
M  V30 2483 H 239.959 -0.334027 1.45618 0
M  V30 2484 H 241.841 -3.2492 2.68338 0
M  V30 2485 H 240.516 -2.83558 1.5613 0
M  V30 2486 H 239.423 -1.47569 3.43765 0
M  V30 2487 H 240.756 -1.95963 4.51508 0
M  V30 2488 N 242.408 -1.52605 -0.393616 0
M  V30 2489 C 243.685 -1.58001 -1.15304 0
M  V30 2490 C 244.065 -0.370385 -2.07825 0
M  V30 2491 O 243.413 0.641638 -2.19306 0
M  V30 2492 C 243.623 -2.91652 -1.91677 0
M  V30 2493 C 244.971 -3.4522 -2.47201 0
M  V30 2494 O 245.995 -2.93495 -2.01839 0
M  V30 2495 O 244.854 -4.35579 -3.3005 0
M  V30 2496 H 241.948 -0.637068 -0.527327 0
M  V30 2497 H 244.494 -1.64939 -0.399141 0
M  V30 2498 H 243.266 -3.71136 -1.23992 0
M  V30 2499 H 242.889 -2.88077 -2.74039 0
M  V30 2500 N 243.887 0.651787 -1.4349 0
M  V30 2501 C 244.797 1.79368 -1.5121 0
M  V30 2502 C 245.813 1.69361 -0.399093 0
M  V30 2503 O 246.989 1.90505 -0.653431 0
M  V30 2504 C 244.054 3.15653 -1.43401 0
M  V30 2505 C 243.115 3.37446 -2.65384 0
M  V30 2506 C 242.348 4.67229 -2.57939 0
M  V30 2507 O 242.571 5.46676 -1.62792 0
M  V30 2508 O 241.505 4.90773 -3.48462 0
M  V30 2509 H 245.331 1.7581 -2.47638 0
M  V30 2510 H 242.916 0.810447 -1.25507 0
M  V30 2511 H 244.798 3.96935 -1.41494 0
M  V30 2512 H 243.473 3.19798 -0.501085 0
M  V30 2513 H 242.38 2.55923 -2.72863 0
M  V30 2514 H 243.713 3.38148 -3.57654 0
M  V30 2515 N 245.365 1.30045 0.890287 0
M  V30 2516 C 246.612 1.18561 1.64163 0
M  V30 2517 C 246.94 -0.260852 1.92743 0
M  V30 2518 O 246.195 -1.20376 1.54299 0
M  V30 2519 C 246.494 1.95409 2.99249 0
M  V30 2520 C 246.16 3.45066 2.90242 0
M  V30 2521 C 244.822 3.85878 2.87492 0
M  V30 2522 C 247.174 4.4039 2.78758 0
M  V30 2523 C 244.502 5.20314 2.7109 0
M  V30 2524 C 246.854 5.74928 2.63894 0
M  V30 2525 C 245.518 6.14986 2.59516 0
M  V30 2526 H 244.788 0.433846 0.600715 0
M  V30 2527 H 247.435 1.61088 1.03552 0
M  V30 2528 H 245.74 1.45501 3.63781 0
M  V30 2529 H 247.437 1.8392 3.56334 0
M  V30 2530 H 244.027 3.12631 2.93189 0
M  V30 2531 H 248.211 4.09806 2.79952 0
M  V30 2532 H 243.467 5.50449 2.66112 0
M  V30 2533 H 247.641 6.48434 2.53981 0
M  V30 2534 H 245.268 7.19104 2.46565 0
M  V30 2535 N 246.843 -1.10192 1.12674 0
M  V30 2536 C 248.254 -1.63707 0.897604 0
M  V30 2537 C 248.605 -1.87812 -0.567546 0
M  V30 2538 O 247.73 -1.62196 -1.43253 0
M  V30 2539 C 248.325 -2.974 1.62292 0
M  V30 2540 C 246.884 -3.47772 1.43986 0
M  V30 2541 C 246.031 -2.22332 1.65722 0
M  V30 2542 H 248.982 -0.936587 1.28116 0
M  V30 2543 H 249.003 -3.64986 1.07541 0
M  V30 2544 H 248.515 -2.79824 2.68924 0
M  V30 2545 H 246.616 -3.70487 0.396206 0
M  V30 2546 H 246.729 -4.25723 2.19765 0
M  V30 2547 H 245.093 -2.30599 1.08149 0
M  V30 2548 H 245.876 -2.07285 2.73657 0
M  V30 2549 N 248.321 -0.919034 -1.28029 0
M  V30 2550 C 249.231 -0.416756 -2.30869 0
M  V30 2551 C 250.247 0.498235 -1.66714 0
M  V30 2552 O 251.423 0.383144 -1.97722 0
M  V30 2553 C 248.488 0.330274 -3.45123 0
M  V30 2554 C 247.549 -0.618578 -4.2482 0
M  V30 2555 C 246.782 0.0928959 -5.33619 0
M  V30 2556 O 247.005 1.31375 -5.55065 0
M  V30 2557 O 245.939 -0.574499 -5.99152 0
M  V30 2558 H 249.765 -1.27043 -2.75851 0
M  V30 2559 H 247.35 -0.684052 -1.3282 0
M  V30 2560 H 249.232 0.751972 -4.14636 0
M  V30 2561 H 247.907 1.1597 -3.02213 0
M  V30 2562 H 246.814 -1.08978 -3.57875 0
M  V30 2563 H 248.147 -1.41497 -4.71423 0
M  V30 2564 N 249.799 1.42003 -0.683588 0
M  V30 2565 C 251.045 2.01712 -0.209825 0
M  V30 2566 C 251.378 1.53968 1.18353 0
M  V30 2567 O 250.653 0.745661 1.79639 0
M  V30 2568 C 250.936 3.59202 -0.254197 0
M  V30 2569 C 250.789 4.17102 -1.68363 0
M  V30 2570 C 252.108 4.38344 0.392709 0
M  V30 2571 H 249.227 0.732891 -0.0777189 0
M  V30 2572 H 251.869 1.68909 -0.87004 0
M  V30 2573 H 250.019 3.87278 0.307954 0
M  V30 2574 H 251.691 3.99946 -2.29871 0
M  V30 2575 H 249.934 3.72597 -2.22157 0
M  V30 2576 H 250.605 5.26249 -1.6663 0
M  V30 2577 H 253.081 4.16011 -0.0859162 0
M  V30 2578 H 251.957 5.47901 0.331063 0
M  V30 2579 H 252.218 4.16887 1.47164 0
M  V30 2580 N 251.277 0.427512 1.51691 0
M  V30 2581 C 252.507 -0.140986 2.06118 0
M  V30 2582 C 252.915 -1.37854 1.29588 0
M  V30 2583 O 252.258 -1.80411 0.346036 0
M  V30 2584 C 252.32 -0.538276 3.55447 0
M  V30 2585 C 251.984 0.591095 4.53161 0
M  V30 2586 C 252.981 1.46027 4.98971 0
M  V30 2587 C 250.666 0.769028 4.96378 0
M  V30 2588 C 252.66 2.49216 5.8666 0
M  V30 2589 C 250.347 1.80421 5.83859 0
M  V30 2590 C 251.345 2.66417 6.28897 0
M  V30 2591 O 251.033 3.68159 7.14643 0
M  V30 2592 H 250.765 -0.0157455 0.675817 0
M  V30 2593 H 253.319 0.602495 1.96365 0
M  V30 2594 H 251.549 -1.33432 3.6295 0
M  V30 2595 H 253.238 -1.0368 3.92435 0
M  V30 2596 H 254.004 1.33429 4.66285 0
M  V30 2597 H 249.883 0.109273 4.6087 0
M  V30 2598 H 253.427 3.16372 6.21735 0
M  V30 2599 H 249.324 1.93042 6.15959 0
M  V30 2600 H 250.092 3.64622 7.32798 0
M  V30 2601 N 252.755 -1.56801 0.158532 0
M  V30 2602 C 254.171 -1.5837 -0.197774 0
M  V30 2603 C 254.371 -1.17334 -1.63814 0
M  V30 2604 O 253.427 -0.878988 -2.36707 0
M  V30 2605 C 254.74 -3.00615 0.0714459 0
M  V30 2606 C 256.288 -3.12999 0.00864533 0
M  V30 2607 C 256.763 -4.57313 0.250685 0
M  V30 2608 N 258.254 -4.62777 0.198014 0
M  V30 2609 C 258.989 -5.72271 0.359642 0
M  V30 2610 N 258.485 -6.90371 0.579625 0
M  V30 2611 N 260.278 -5.61318 0.296438 0
M  V30 2612 H 252.429 -1.81765 1.09887 0
M  V30 2613 H 254.692 -0.841849 0.435884 0
M  V30 2614 H 254.398 -3.35068 1.06874 0
M  V30 2615 H 254.272 -3.71683 -0.642757 0
M  V30 2616 H 256.659 -2.7838 -0.979217 0
M  V30 2617 H 256.74 -2.44393 0.755359 0
M  V30 2618 H 256.384 -4.92639 1.2357 0
M  V30 2619 H 256.314 -5.24061 -0.516489 0
M  V30 2620 H 258.805 -3.77885 0.0331115 0
M  V30 2621 H 259.118 -7.69689 0.69275 0
M  V30 2622 H 257.463 -6.92264 0.616087 0
M  V30 2623 H 260.654 -4.67932 0.125258 0
M  V30 2624 H 260.827 -6.46599 0.425831 0
M  V30 2625 N 254.233 0.115231 -1.57178 0
M  V30 2626 C 255.48 0.822351 -1.8505 0
M  V30 2627 C 255.808 1.79701 -0.744168 0
M  V30 2628 O 255.063 1.93909 0.26414 0
M  V30 2629 C 255.362 1.60324 -3.19423 0
M  V30 2630 C 255.028 0.772536 -4.44233 0
M  V30 2631 C 253.69 0.543468 -4.78121 0
M  V30 2632 C 256.042 0.193746 -5.2084 0
M  V30 2633 C 253.37 -0.274583 -5.86057 0
M  V30 2634 C 255.722 -0.611517 -6.29637 0
M  V30 2635 C 254.386 -0.850867 -6.62055 0
M  V30 2636 H 253.656 0.30092 -0.677147 0
M  V30 2637 H 256.303 0.0845802 -1.91313 0
M  V30 2638 H 254.608 2.41203 -3.08753 0
M  V30 2639 H 256.305 2.1544 -3.38211 0
M  V30 2640 H 252.895 0.96117 -4.17683 0
M  V30 2641 H 257.079 0.357926 -4.95008 0
M  V30 2642 H 252.335 -0.469206 -6.09597 0
M  V30 2643 H 256.509 -1.06697 -6.88178 0
M  V30 2644 H 254.136 -1.48657 -7.45523 0
M  V30 2645 N 255.711 1.52812 0.385517 0
M  V30 2646 C 256.957 1.68275 1.13188 0
M  V30 2647 C 257.29 0.423179 1.89533 0
M  V30 2648 O 256.565 -0.579113 1.85679 0
M  V30 2649 C 256.848 2.92001 2.1073 0
M  V30 2650 C 256.701 4.28067 1.38125 0
M  V30 2651 C 258.02 3.11283 3.11113 0
M  V30 2652 H 255.139 0.612352 0.410115 0
M  V30 2653 H 257.781 1.85415 0.414869 0
M  V30 2654 H 255.931 2.77519 2.71874 0
M  V30 2655 H 257.603 4.54324 0.799187 0
M  V30 2656 H 255.846 4.28388 0.683092 0
M  V30 2657 H 256.517 5.10733 2.09417 0
M  V30 2658 H 258.993 3.2482 2.6006 0
M  V30 2659 H 257.869 3.99325 3.76605 0
M  V30 2660 H 258.13 2.25656 3.80173 0
M  V30 2661 N 257.189 -0.644168 1.43834 0
M  V30 2662 C 258.417 -1.43147 1.49387 0
M  V30 2663 C 258.832 -1.88452 0.114583 0
M  V30 2664 O 258.189 -1.60047 -0.876989 0
M  V30 2665 C 258.24 -2.66046 2.44748 0
M  V30 2666 O 257.961 -2.22633 3.77314 0
M  V30 2667 C 259.462 -3.59311 2.59635 0
M  V30 2668 H 256.682 -0.439447 0.507077 0
M  V30 2669 H 259.226 -0.78895 1.88669 0
M  V30 2670 H 257.381 -3.26418 2.08638 0
M  V30 2671 H 257.795 -3.02216 4.28679 0
M  V30 2672 H 259.269 -4.42187 3.30416 0
M  V30 2673 H 259.746 -4.07259 1.64427 0
M  V30 2674 H 260.352 -3.04816 2.96593 0
M  V30 2675 N 258.668 -1.30515 -0.883378 0
M  V30 2676 C 259.893 -1.22487 -1.67367 0
M  V30 2677 C 260.318 0.208767 -1.86938 0
M  V30 2678 O 259.676 1.15015 -1.40148 0
M  V30 2679 C 259.724 -1.96041 -3.02655 0
M  V30 2680 O 258.828 -1.28859 -3.91751 0
M  V30 2681 H 258.169 -0.423573 -0.511353 0
M  V30 2682 H 260.699 -1.72362 -1.10239 0
M  V30 2683 H 260.709 -2.05124 -3.52687 0
M  V30 2684 H 259.384 -3.00307 -2.8773 0
M  V30 2685 H 257.961 -1.28141 -3.50192 0
M  V30 2686 N 260.146 1.09593 -1.13257 0
M  V30 2687 C 261.395 1.81105 -0.887917 0
M  V30 2688 C 261.708 1.86563 0.587672 0
M  V30 2689 O 262.914 2.54367 0.949204 0
M  V30 2690 C 261.37 3.25338 -1.53895 0
M  V30 2691 C 260.978 3.28151 -3.04994 0
M  V30 2692 C 262.722 4.01617 -1.37492 0
M  V30 2693 C 260.629 4.66897 -3.6299 0
M  V30 2694 H 259.559 0.678661 -0.328534 0
M  V30 2695 H 262.21 1.23183 -1.36008 0
M  V30 2696 H 260.592 3.8331 -0.994446 0
M  V30 2697 H 261.766 2.79953 -3.66009 0
M  V30 2698 H 260.081 2.65361 -3.20893 0
M  V30 2699 H 262.678 5.04119 -1.78235 0
M  V30 2700 H 263.021 4.15072 -0.31957 0
M  V30 2701 H 263.554 3.50082 -1.88912 0
M  V30 2702 H 260.293 4.58643 -4.68323 0
M  V30 2703 H 259.813 5.15426 -3.06752 0
M  V30 2704 H 261.492 5.3587 -3.62563 0
M  V30 2705 N 261.624 0.925811 1.2754 0
M  V30 2706 C 262.854 0.580666 1.98272 0
M  V30 2707 C 263.262 -0.845207 1.69272 0
M  V30 2708 O 262.605 -1.57306 0.948707 0
M  V30 2709 C 262.667 0.724418 3.52126 0
M  V30 2710 C 262.331 2.12206 4.04744 0
M  V30 2711 C 263.328 3.09604 4.17662 0
M  V30 2712 C 261.013 2.4385 4.39138 0
M  V30 2713 C 263.007 4.36755 4.64246 0
M  V30 2714 C 260.694 3.71237 4.85414 0
M  V30 2715 C 261.692 4.67503 4.97926 0
M  V30 2716 O 261.38 5.92624 5.43187 0
M  V30 2717 H 261.112 0.218987 0.639547 0
M  V30 2718 H 263.666 1.24452 1.63404 0
M  V30 2719 H 261.896 0.0034663 3.867 0
M  V30 2720 H 263.585 0.384607 4.04074 0
M  V30 2721 H 264.351 2.86478 3.91351 0
M  V30 2722 H 260.23 1.69665 4.28643 0
M  V30 2723 H 263.774 5.11898 4.73927 0
M  V30 2724 H 259.671 3.94182 5.11166 0
M  V30 2725 H 260.439 5.95585 5.61445 0
M  V30 2726 N 263.102 -1.41638 0.69111 0
M  V30 2727 C 264.513 -1.84346 0.295517 0
M  V30 2728 C 264.864 -1.57833 -1.16547 0
M  V30 2729 O 263.989 -1.04648 -1.89414 0
M  V30 2730 C 264.584 -3.34636 0.529575 0
M  V30 2731 C 263.143 -3.7593 0.187944 0
M  V30 2732 C 262.29 -2.65082 0.814052 0
M  V30 2733 H 265.241 -1.31253 0.892092 0
M  V30 2734 H 265.262 -3.79903 -0.213148 0
M  V30 2735 H 264.774 -3.53901 1.59297 0
M  V30 2736 H 262.875 -3.62268 -0.871367 0
M  V30 2737 H 262.988 -4.74808 0.63985 0
M  V30 2738 H 261.352 -2.53528 0.244017 0
M  V30 2739 H 262.135 -2.87167 1.88123 0
M  V30 2740 N 264.58 -0.43555 -1.51462 0
M  V30 2741 C 265.805 0.132627 -2.06976 0
M  V30 2742 C 266.23 1.35848 -1.30104 0
M  V30 2743 O 265.588 1.78112 -0.338493 0
M  V30 2744 C 265.636 0.43523 -3.57964 0
M  V30 2745 O 264.74 1.52198 -3.83288 0
M  V30 2746 H 264.081 0.00265 -0.663995 0
M  V30 2747 H 266.611 -0.616369 -1.95095 0
M  V30 2748 H 266.621 0.686206 -4.02188 0
M  V30 2749 H 265.296 -0.460739 -4.1334 0
M  V30 2750 H 263.873 1.2611 -3.50928 0
M  V30 2751 N 266.058 1.56714 -0.166846 0
M  V30 2752 C 267.306 1.96358 0.478305 0
M  V30 2753 C 267.627 1.0537 1.6408 0
M  V30 2754 O 266.897 0.119154 1.95537 0
M  V30 2755 H 265.477 0.725065 0.179692 0
M  V30 2756 H 268.139 1.93329 -0.246985 0
M  V30 2757 H 267.235 3.00547 0.841292 0
M  V30 2758 N 267.536 -0.106894 1.57237 0
M  V30 2759 C 268.446 -1.14911 2.0453 0
M  V30 2760 C 269.462 -1.44592 0.96795 0
M  V30 2761 O 270.638 -1.55468 1.2803 0
M  V30 2762 C 267.703 -2.45272 2.45036 0
M  V30 2763 C 266.764 -2.22879 3.66911 0
M  V30 2764 C 265.997 -3.47024 4.05475 0
M  V30 2765 O 266.22 -4.54804 3.44252 0
M  V30 2766 O 265.154 -3.3731 4.98504 0
M  V30 2767 H 268.98 -0.777461 2.9358 0
M  V30 2768 H 266.565 -0.318563 1.45964 0
M  V30 2769 H 268.447 -3.22055 2.71769 0
M  V30 2770 H 267.122 -2.81886 1.59129 0
M  V30 2771 H 266.029 -1.43915 3.45311 0
M  V30 2772 H 267.362 -1.91163 4.53561 0
M  V30 2773 N 269.014 -1.53014 -0.377408 0
M  V30 2774 C 270.291 -1.59215 -1.13622 0
M  V30 2775 C 270.671 -0.392407 -2.07421 0
M  V30 2776 O 270.019 0.618342 -2.19975 0
M  V30 2777 C 270.229 -2.93669 -1.88573 0
M  V30 2778 C 271.577 -3.47822 -2.43526 0
M  V30 2779 O 272.601 -2.9562 -1.98715 0
M  V30 2780 O 271.46 -4.39055 -3.25412 0
M  V30 2781 H 268.554 -0.642625 -0.52054 0
M  V30 2782 H 271.1 -1.65353 -0.381625 0
M  V30 2783 H 269.872 -3.7243 -1.20048 0
M  V30 2784 H 269.495 -2.90968 -2.70968 0
M  V30 2785 N 270.492 0.636531 -1.44174 0
M  V30 2786 C 271.769 1.39463 -1.37148 0
M  V30 2787 C 272.149 2.11082 -0.027507 0
M  V30 2788 O 271.497 2.05954 0.989716 0
M  V30 2789 C 271.707 2.36552 -2.56601 0
M  V30 2790 C 273.055 3.00048 -3.00427 0
M  V30 2791 O 274.079 2.46878 -2.56767 0
M  V30 2792 O 272.938 3.96488 -3.76111 0
M  V30 2793 H 270.032 0.623903 -0.542839 0
M  V30 2794 H 272.578 0.662039 -1.56253 0
M  V30 2795 H 271.35 1.82692 -3.46034 0
M  V30 2796 H 270.973 3.17236 -2.39681 0
M  V30 2797 N 271.97 1.30982 0.876444 0
M  V30 2798 C 273.216 1.20474 1.63138 0
M  V30 2799 C 273.549 -0.238096 1.92735 0
M  V30 2800 O 272.824 -1.1692 1.55435 0
M  V30 2801 C 273.107 2.04244 2.96574 0
M  V30 2802 C 272.96 3.56793 2.73896 0
M  V30 2803 C 274.279 1.88684 3.97601 0
M  V30 2804 H 271.398 0.439001 0.591985 0
M  V30 2805 H 274.04 1.60704 1.01361 0
M  V30 2806 H 272.19 1.70063 3.493 0
M  V30 2807 H 273.862 4.01077 2.27892 0
M  V30 2808 H 272.105 3.80548 2.08245 0
M  V30 2809 H 272.776 4.10706 3.68815 0
M  V30 2810 H 275.252 2.18584 3.54062 0
M  V30 2811 H 274.128 2.4961 4.88862 0
M  V30 2812 H 274.389 0.848343 4.33884 0
M  V30 2813 N 273.449 -1.08991 1.13837 0
M  V30 2814 C 274.698 -1.80631 0.897509 0
M  V30 2815 C 275.011 -1.86872 -0.57777 0
M  V30 2816 O 276.217 -2.54866 -0.935701 0
M  V30 2817 C 274.673 -3.24517 1.55618 0
M  V30 2818 C 274.281 -3.26529 3.0673 0
M  V30 2819 C 276.025 -4.00882 1.3962 0
M  V30 2820 C 273.932 -4.64965 3.65461 0
M  V30 2821 H 272.862 -0.67691 0.332129 0
M  V30 2822 H 275.513 -1.2246 1.3666 0
M  V30 2823 H 273.895 -3.82778 1.01476 0
M  V30 2824 H 275.069 -2.78008 3.67489 0
M  V30 2825 H 273.384 -2.63656 3.22296 0
M  V30 2826 H 275.981 -5.03167 1.80906 0
M  V30 2827 H 276.324 -4.14896 0.341578 0
M  V30 2828 H 276.857 -3.49075 1.90766 0
M  V30 2829 H 273.596 -4.56153 4.70749 0
M  V30 2830 H 273.116 -5.13792 3.09481 0
M  V30 2831 H 274.795 -5.3394 3.654 0
M  V30 2832 N 274.927 -0.932562 -1.27047 0
M  V30 2833 C 276.155 -0.592031 -1.98249 0
M  V30 2834 C 276.57 0.831062 -1.69525 0
M  V30 2835 O 275.927 1.55299 -0.958561 0
M  V30 2836 C 275.978 -0.814279 -3.5221 0
M  V30 2837 O 275.699 -2.18139 -3.7993 0
M  V30 2838 C 277.2 -0.483121 -4.4066 0
M  V30 2839 H 274.42 -0.223896 -0.632544 0
M  V30 2840 H 276.964 -1.25091 -1.61779 0
M  V30 2841 H 275.119 -0.20213 -3.86872 0
M  V30 2842 H 275.533 -2.235 -4.74498 0
M  V30 2843 H 277.007 -0.689298 -5.47679 0
M  V30 2844 H 277.484 0.581546 -4.35333 0
M  V30 2845 H 278.09 -1.07362 -4.11526 0
M  V30 2846 N 276.405 1.4127 -0.698611 0
M  V30 2847 C 277.63 2.06024 -0.238512 0
M  V30 2848 C 278.055 1.5224 1.10475 0
M  V30 2849 O 277.413 0.650623 1.69223 0
M  V30 2850 C 277.461 3.59988 -0.209952 0
M  V30 2851 O 276.565 4.04282 0.814235 0
M  V30 2852 H 275.906 0.653829 -0.115775 0
M  V30 2853 H 278.436 1.8098 -0.954326 0
M  V30 2854 H 278.446 4.07979 -0.0418436 0
M  V30 2855 H 277.121 3.98503 -1.1903 0
M  V30 2856 H 275.698 3.6779 0.615234 0
M  V30 2857 N 277.883 0.443576 1.51229 0
M  V30 2858 C 279.294 -0.0180867 1.86691 0
M  V30 2859 C 279.645 -1.41384 1.36033 0
M  V30 2860 O 278.77 -2.04291 0.713722 0
M  V30 2861 C 279.365 -0.039597 3.38777 0
M  V30 2862 C 277.924 -0.445692 3.73752 0
M  V30 2863 C 277.071 0.357584 2.74985 0
M  V30 2864 H 280.022 0.659138 1.44364 0
M  V30 2865 H 280.043 -0.847761 3.70936 0
M  V30 2866 H 279.555 0.976382 3.75617 0
M  V30 2867 H 277.656 -1.46704 3.42503 0
M  V30 2868 H 277.769 -0.166155 4.78812 0
M  V30 2869 H 276.133 -0.184973 2.54027 0
M  V30 2870 H 276.916 1.37256 3.14668 0
M  V30 2871 N 279.361 -1.56624 0.175154 0
M  V30 2872 C 280.591 -2.01082 -0.474283 0
M  V30 2873 C 280.999 -1.05447 -1.57091 0
M  V30 2874 O 280.342 -0.0480595 -1.83637 0
M  V30 2875 C 280.404 -3.41963 -1.10911 0
M  V30 2876 C 280.068 -4.56742 -0.153666 0
M  V30 2877 C 281.065 -5.16076 0.629448 0
M  V30 2878 C 278.75 -5.02277 -0.0483776 0
M  V30 2879 C 280.744 -6.19377 1.50501 0
M  V30 2880 C 278.431 -6.05427 0.830768 0
M  V30 2881 C 279.429 -6.63849 1.60605 0
M  V30 2882 O 279.117 -7.64998 2.47049 0
M  V30 2883 H 278.849 -0.664261 -0.125432 0
M  V30 2884 H 281.403 -2.03549 0.275163 0
M  V30 2885 H 279.633 -3.36422 -1.90676 0
M  V30 2886 H 281.322 -3.70352 -1.66114 0
M  V30 2887 H 282.088 -4.81776 0.558297 0
M  V30 2888 H 277.967 -4.56513 -0.641611 0
M  V30 2889 H 281.511 -6.64906 2.1106 0
M  V30 2890 H 277.408 -6.39151 0.903107 0
M  V30 2891 H 278.176 -7.82336 2.40607 0
M  V30 2892 N 280.839 0.0985539 -1.57292 0
M  V30 2893 C 281.787 1.1387 -2.02821 0
M  V30 2894 C 282.781 1.41676 -0.928666 0
M  V30 2895 O 283.987 1.41398 -1.11385 0
M  V30 2896 H 280.362 0.384419 -0.646317 0
M  V30 2897 H 282.333 0.728347 -2.89375 0
M  V30 2898 C 281.082 2.45166 -2.46554 0
M  V30 2899 H 280.405 2.24613 -3.3074 0
M  V30 2900 H 281.845 3.16456 -2.8219 0
M  V30 2901 C 280.304 3.09216 -1.33742 0
M  V30 2902 O 280.834 3.96163 -0.66464 0
M  V30 2903 N 279.04 2.69413 -1.08928 0
M  V30 2904 H 278.587 1.98801 -1.63817 0
M  V30 2905 H 278.545 3.12594 -0.336458 0
M  V30 2906 N 282.317 1.53212 0.369288 0
M  V30 2907 C 283.542 1.73423 1.1375 0
M  V30 2908 C 283.967 0.460404 1.82378 0
M  V30 2909 O 283.325 -0.585298 1.71592 0
M  V30 2910 C 283.373 2.89769 2.1463 0
M  V30 2911 O 282.477 2.58119 3.21634 0
M  V30 2912 H 281.818 0.576061 0.330227 0
M  V30 2913 H 284.348 2.00083 0.427547 0
M  V30 2914 H 284.358 3.15829 2.58294 0
M  V30 2915 H 283.033 3.8217 1.64071 0
M  V30 2916 H 281.61 2.42864 2.82969 0
M  V30 2917 N 283.795 -0.628877 1.44509 0
M  V30 2918 C 285.044 -1.38437 1.4669 0
M  V30 2919 C 285.357 -1.95322 0.104272 0
M  V30 2920 O 286.563 -2.715 0.00362163 0
M  V30 2921 C 285.019 -2.50659 2.5826 0
M  V30 2922 C 284.627 -2.00277 4.0074 0
M  V30 2923 C 286.371 -3.27844 2.69664 0
M  V30 2924 C 284.278 -3.09854 5.0373 0
M  V30 2925 H 283.208 -0.520245 0.545766 0
M  V30 2926 H 285.859 -0.676313 1.70582 0
M  V30 2927 H 284.241 -3.2405 2.27612 0
M  V30 2928 H 285.415 -1.33736 4.40966 0
M  V30 2929 H 283.73 -1.35901 3.93599 0
M  V30 2930 H 286.327 -4.09534 3.43781 0
M  V30 2931 H 286.67 -3.77471 1.75559 0
M  V30 2932 H 287.203 -2.61543 2.99733 0
M  V30 2933 H 283.942 -2.65168 5.99472 0
M  V30 2934 H 283.462 -3.7503 4.68095 0
M  V30 2935 H 285.141 -3.74592 5.27532 0
M  V30 2936 N 285.273 -1.31445 -0.869486 0
M  V30 2937 C 286.203 -1.21727 -1.99261 0
M  V30 2938 C 287.184 -0.104359 -1.6978 0
M  V30 2939 O 288.369 -0.289038 -1.92037 0
M  V30 2940 C 285.499 -0.924317 -3.34774 0
M  V30 2941 C 284.453 -1.99685 -3.78563 0
M  V30 2942 C 283.779 -1.55658 -5.11541 0
M  V30 2943 C 285.079 -3.41003 -3.95619 0
M  V30 2944 H 286.773 -2.1569 -2.07649 0
M  V30 2945 H 284.319 -1.03839 -0.997675 0
M  V30 2946 H 286.272 -0.842934 -4.12883 0
M  V30 2947 H 284.996 0.0509793 -3.2656 0
M  V30 2948 H 283.655 -2.06813 -3.02694 0
M  V30 2949 H 283.303 -0.569132 -4.9977 0
M  V30 2950 H 283.003 -2.27409 -5.41811 0
M  V30 2951 H 284.527 -1.48928 -5.92159 0
M  V30 2952 H 285.941 -3.36547 -4.64122 0
M  V30 2953 H 284.338 -4.10975 -4.37286 0
M  V30 2954 H 285.408 -3.81754 -2.98985 0
M  V30 2955 N 286.751 1.08385 -1.14413 0
M  V30 2956 C 287.714 2.13486 -0.834048 0
M  V30 2957 C 288.714 1.59988 0.161418 0
M  V30 2958 O 289.904 1.74071 -0.0669575 0
M  V30 2959 C 287.036 3.4003 -0.243354 0
M  V30 2960 H 288.229 2.42425 -1.7655 0
M  V30 2961 H 285.782 1.24101 -0.950189 0
M  V30 2962 H 286.517 3.16726 0.696807 0
M  V30 2963 H 286.302 3.80157 -0.960367 0
M  V30 2964 H 287.792 4.17577 -0.0436242 0
M  V30 2965 N 288.23 0.939286 1.26551 0
M  V30 2966 C 289.163 0.391702 2.24813 0
M  V30 2967 C 290.141 -0.518421 1.54114 0
M  V30 2968 O 291.325 -0.456299 1.82894 0
M  V30 2969 C 288.452 -0.437382 3.35864 0
M  V30 2970 C 287.498 0.410946 4.24516 0
M  V30 2971 S 288.331 1.83372 5.03125 0
M  V30 2972 C 289.487 1.01264 6.17654 0
M  V30 2973 H 289.72 1.22448 2.70913 0
M  V30 2974 H 287.253 0.742269 1.35387 0
M  V30 2975 H 289.211 -0.909837 4.0029 0
M  V30 2976 H 287.872 -1.24482 2.8838 0
M  V30 2977 H 287.065 -0.224191 5.03501 0
M  V30 2978 H 286.667 0.818014 3.64945 0
M  V30 2979 H 288.959 0.254023 6.77024 0
M  V30 2980 H 289.902 1.77589 6.85469 0
M  V30 2981 H 290.31 0.549532 5.61819 0
M  V30 2982 N 289.708 -1.40897 0.706093 0
M  V30 2983 C 290.655 -2.30751 0.0474474 0
M  V30 2984 C 291.625 -1.47678 -0.76029 0
M  V30 2985 O 292.81 -1.76441 -0.726177 0
M  V30 2986 C 289.95 -3.33815 -0.875309 0
M  V30 2987 C 289.063 -4.31961 -0.0580623 0
M  V30 2988 C 288.198 -5.22093 -0.979425 0
M  V30 2989 C 287.237 -6.11902 -0.155706 0
M  V30 2990 N 286.374 -6.94482 -1.03144 0
M  V30 2991 H 291.214 -2.86513 0.819413 0
M  V30 2992 H 288.751 -1.41102 0.415783 0
M  V30 2993 H 290.709 -3.92129 -1.42446 0
M  V30 2994 H 289.339 -2.79579 -1.61356 0
M  V30 2995 H 288.391 -3.75507 0.608147 0
M  V30 2996 H 289.703 -4.95415 0.580082 0
M  V30 2997 H 288.857 -5.85292 -1.59744 0
M  V30 2998 H 287.596 -4.5889 -1.65141 0
M  V30 2999 H 286.601 -5.47742 0.475309 0
M  V30 3000 H 287.826 -6.77162 0.512635 0
M  V30 3001 H 285.772 -6.33877 -1.68924 0
M  V30 3002 H 285.689 -7.54665 -0.449108 0
M  V30 3003 H 286.957 -7.6214 -1.63593 0
M  V30 3004 N 291.186 -0.45159 -1.50991 0
M  V30 3005 C 292.096 0.358431 -2.31846 0
M  V30 3006 C 293.112 1.01438 -1.41373 0
M  V30 3007 O 294.288 1.00663 -1.74439 0
M  V30 3008 C 291.353 1.43704 -3.15515 0
M  V30 3009 C 290.414 0.799742 -4.21785 0
M  V30 3010 C 289.647 1.82696 -5.01456 0
M  V30 3011 O 289.87 3.05105 -4.81941 0
M  V30 3012 O 288.804 1.40958 -5.85162 0
M  V30 3013 H 292.63 -0.302032 -3.02194 0
M  V30 3014 H 290.215 -0.213825 -1.47862 0
M  V30 3015 H 292.097 2.06227 -3.67489 0
M  V30 3016 H 290.772 2.08133 -2.47916 0
M  V30 3017 H 289.679 0.136084 -3.73852 0
M  V30 3018 H 291.012 0.198718 -4.91799 0
M  V30 3019 N 292.664 1.56529 -0.183458 0
M  V30 3020 C 293.594 2.21549 0.737456 0
M  V30 3021 C 294.575 1.17489 1.23005 0
M  V30 3022 O 295.76 1.45959 1.281 0
M  V30 3023 C 292.89 2.86575 1.96194 0
M  V30 3024 C 291.844 3.96778 1.60473 0
M  V30 3025 C 291.17 4.48911 2.90487 0
M  V30 3026 C 292.47 5.15767 0.823497 0
M  V30 3027 H 294.164 2.98761 0.195453 0
M  V30 3028 H 291.71 1.43702 0.0925686 0
M  V30 3029 H 293.663 3.30739 2.61131 0
M  V30 3030 H 292.387 2.06749 2.52828 0
M  V30 3031 H 291.046 3.53286 0.978997 0
M  V30 3032 H 290.694 3.65862 3.45186 0
M  V30 3033 H 290.394 5.23265 2.67335 0
M  V30 3034 H 291.918 4.95771 3.56432 0
M  V30 3035 H 293.332 5.56549 1.37571 0
M  V30 3036 H 291.729 5.96114 0.690551 0
M  V30 3037 H 292.799 4.84574 -0.177782 0
M  V30 3038 N 294.142 -0.090211 1.57342 0
M  V30 3039 C 295.09 -1.12792 2.03422 0
M  V30 3040 C 296.084 -1.41182 0.936166 0
M  V30 3041 O 297.29 -1.40805 1.12133 0
M  V30 3042 H 293.665 -0.380986 0.648347 0
M  V30 3043 H 295.636 -0.71299 2.89757 0
M  V30 3044 C 294.385 -2.43855 2.47851 0
M  V30 3045 H 293.708 -2.22855 3.31927 0
M  V30 3046 H 295.148 -3.14955 2.83865 0
M  V30 3047 C 293.607 -3.08503 1.3538 0
M  V30 3048 O 294.137 -3.95805 0.685641 0
M  V30 3049 N 292.343 -2.68831 1.10355 0
M  V30 3050 H 291.89 -1.97929 1.64869 0
M  V30 3051 H 291.848 -3.12412 0.353031 0
M  V30 3052 N 295.62 -1.53406 -0.361157 0
M  V30 3053 C 296.53 -1.83122 -1.4664 0
M  V30 3054 C 297.546 -0.719943 -1.58407 0
M  V30 3055 O 298.722 -1.01046 -1.74218 0
M  V30 3056 C 295.787 -2.01891 -2.81853 0
M  V30 3057 C 294.848 -3.25784 -2.79577 0
M  V30 3058 C 294.081 -3.43648 -4.0834 0
M  V30 3059 O 294.304 -2.65714 -5.0473 0
M  V30 3060 O 293.238 -4.37018 -4.13883 0
M  V30 3061 H 297.064 -2.7703 -1.24451 0
M  V30 3062 H 294.649 -1.38841 -0.551678 0
M  V30 3063 H 296.531 -2.15782 -3.61962 0
M  V30 3064 H 295.206 -1.11173 -3.0401 0
M  V30 3065 H 294.113 -3.17312 -1.98151 0
M  V30 3066 H 295.446 -4.16439 -2.62373 0
M  V30 3067 N 297.098 0.621204 -1.44841 0
M  V30 3068 C 298.048 1.72663 -1.48901 0
M  V30 3069 C 299.032 1.56964 -0.353702 0
M  V30 3070 O 300.224 1.66532 -0.599669 0
M  V30 3071 C 297.353 3.11381 -1.44557 0
M  V30 3072 C 296.439 3.32514 -2.6324 0
M  V30 3073 N 296.83 3.23969 -3.8843 0
M  V30 3074 C 295.128 3.63343 -2.58647 0
M  V30 3075 C 295.829 3.46062 -4.67564 0
M  V30 3076 N 294.805 3.69407 -3.98797 0
M  V30 3077 H 298.607 1.64529 -2.43531 0
M  V30 3078 H 296.121 0.82401 -1.39942 0
M  V30 3079 H 298.118 3.90667 -1.4555 0
M  V30 3080 H 296.778 3.20674 -0.509731 0
M  V30 3081 H 297.789 3.02669 -4.20252 0
M  V30 3082 H 294.466 3.79556 -1.73906 0
M  V30 3083 H 295.856 3.44963 -5.76585 0
M  V30 3084 N 298.576 1.31904 0.862503 0
M  V30 3085 C 299.539 1.20131 1.95195 0
M  V30 3086 C 300.539 0.126409 1.60302 0
M  V30 3087 O 301.729 0.376234 1.70089 0
M  V30 3088 C 298.861 0.845691 3.30244 0
M  V30 3089 H 300.054 2.16943 2.07064 0
M  V30 3090 H 297.607 1.15622 1.05172 0
M  V30 3091 H 298.342 -0.120957 3.24074 0
M  V30 3092 H 298.127 1.62276 3.56944 0
M  V30 3093 H 299.617 0.787418 4.10109 0
M  V30 3094 N 300.054 -1.07777 1.14986 0
M  V30 3095 C 301.331 -1.7699 0.832695 0
M  V30 3096 C 301.711 -2.001 -0.672561 0
M  V30 3097 O 301.059 -1.61598 -1.6155 0
M  V30 3098 C 301.269 -3.08139 1.63863 0
M  V30 3099 C 302.617 -3.8256 1.84208 0
M  V30 3100 O 303.641 -3.17939 1.60603 0
M  V30 3101 O 302.5 -4.98612 2.23714 0
M  V30 3102 H 299.594 -0.768389 0.305791 0
M  V30 3103 H 302.14 -1.14182 1.25541 0
M  V30 3104 H 300.912 -2.86909 2.6608 0
M  V30 3105 H 300.535 -3.78678 1.21197 0
M  V30 3106 N 301.532 -0.945985 -1.26051 0
M  V30 3107 C 302.772 -0.603665 -1.95282 0
M  V30 3108 C 303.136 0.842377 -1.72534 0
M  V30 3109 O 304.337 1.29387 -2.35611 0
M  V30 3110 C 302.608 -0.942292 -3.44754 0
M  V30 3111 S 304.167 -0.711242 -4.32997 0
M  V30 3112 H 300.985 -0.222176 -0.675395 0
M  V30 3113 H 303.587 -1.21832 -1.52896 0
M  V30 3114 H 302.291 -1.99203 -3.58812 0
M  V30 3115 H 301.822 -0.317546 -3.92116 0
M  V30 3116 H 303.837 0.422221 -4.944 0
M  V30 3117 N 303.011 1.40521 -0.713556 0
M  V30 3118 C 304.257 2.01221 -0.252564 0
M  V30 3119 C 304.59 1.56444 1.1506 0
M  V30 3120 O 303.865 0.783597 1.78017 0
M  V30 3121 C 304.148 3.58582 -0.330332 0
M  V30 3122 C 304.001 4.13437 -1.77173 0
M  V30 3123 C 305.32 4.39079 0.299641 0
M  V30 3124 H 302.439 0.731077 -0.0932471 0
M  V30 3125 H 305.081 1.67026 -0.905673 0
M  V30 3126 H 303.231 3.87844 0.225737 0
M  V30 3127 H 304.903 3.9498 -2.38303 0
M  V30 3128 H 303.146 3.67801 -2.3001 0
M  V30 3129 H 303.817 5.22597 -1.77755 0
M  V30 3130 H 306.293 4.15735 -0.174139 0
M  V30 3131 H 305.169 5.4848 0.214771 0
M  V30 3132 H 305.43 4.19915 1.38288 0
M  V30 3133 N 304.489 0.459591 1.5075 0
M  V30 3134 C 305.419 -0.330644 2.31147 0
M  V30 3135 C 306.4 -1.00087 1.37538 0
M  V30 3136 O 307.585 -1.00025 1.66459 0
M  V30 3137 C 304.715 -1.41958 3.16962 0
M  V30 3138 C 303.669 -0.871608 4.19031 0
M  V30 3139 C 302.995 -2.05797 4.9351 0
M  V30 3140 C 304.295 0.109251 5.22186 0
M  V30 3141 H 305.989 0.340336 2.97459 0
M  V30 3142 H 303.535 0.165119 1.4305 0
M  V30 3143 H 305.488 -1.9798 3.71997 0
M  V30 3144 H 304.212 -2.11917 2.48513 0
M  V30 3145 H 302.871 -0.333442 3.6508 0
M  V30 3146 H 302.519 -2.74427 4.21544 0
M  V30 3147 H 302.219 -1.6976 5.62544 0
M  V30 3148 H 303.743 -2.62331 5.51375 0
M  V30 3149 H 305.157 -0.361405 5.7216 0
M  V30 3150 H 303.554 0.383316 5.98875 0
M  V30 3151 H 304.624 1.03887 4.73641 0
M  V30 3152 N 305.967 -1.56429 0.191757 0
M  V30 3153 C 307.378 -1.83912 -0.321428 0
M  V30 3154 C 307.729 -1.11231 -1.61623 0
M  V30 3155 O 306.854 -0.37202 -2.13178 0
M  V30 3156 C 307.449 -3.33624 -0.589961 0
M  V30 3157 C 306.008 -3.6153 -1.04753 0
M  V30 3158 C 305.155 -2.7714 -0.0943327 0
M  V30 3159 H 308.106 -1.53161 0.415612 0
M  V30 3160 H 308.127 -3.52213 -1.43966 0
M  V30 3161 H 307.639 -3.86495 0.352588 0
M  V30 3162 H 305.74 -3.14089 -2.00447 0
M  V30 3163 H 305.853 -4.69737 -0.942549 0
M  V30 3164 H 304.217 -2.47638 -0.595589 0
M  V30 3165 H 305 -3.32799 0.842601 0
M  V30 3166 N 307.445 0.0818655 -1.57387 0
M  V30 3167 C 308.694 0.781681 -1.85937 0
M  V30 3168 C 309.007 1.79246 -0.782957 0
M  V30 3169 O 310.213 2.54112 -0.955987 0
M  V30 3170 C 308.669 1.44109 -3.29789 0
M  V30 3171 C 308.277 0.469396 -4.45534 0
M  V30 3172 C 310.021 2.12386 -3.67549 0
M  V30 3173 C 307.928 1.13415 -5.80423 0
M  V30 3174 H 306.858 0.295682 -0.693605 0
M  V30 3175 H 309.509 0.0348051 -1.83467 0
M  V30 3176 H 307.891 2.23588 -3.2684 0
M  V30 3177 H 309.065 -0.294856 -4.59856 0
M  V30 3178 H 307.38 -0.108383 -4.16259 0
M  V30 3179 H 309.977 2.62878 -4.65617 0
M  V30 3180 H 310.32 2.91877 -2.96839 0
M  V30 3181 H 310.853 1.39751 -3.72444 0
M  V30 3182 H 307.592 0.379771 -6.54399 0
M  V30 3183 H 307.112 1.8695 -5.69921 0
M  V30 3184 H 308.791 1.65686 -6.25426 0
M  V30 3185 N 308.923 1.53595 0.353017 0
M  V30 3186 C 310.2 1.61002 1.11075 0
M  V30 3187 C 310.58 0.425356 2.0677 0
M  V30 3188 O 309.928 -0.583267 2.2093 0
M  V30 3189 C 310.138 2.96631 1.83877 0
M  V30 3190 C 311.486 3.51653 2.37961 0
M  V30 3191 O 312.51 2.98743 1.93987 0
M  V30 3192 O 311.369 4.44177 3.18386 0
M  V30 3193 H 308.463 0.650825 0.510251 0
M  V30 3194 H 311.009 1.6594 0.35527 0
M  V30 3195 H 309.781 3.74293 1.14108 0
M  V30 3196 H 309.404 2.95242 2.66304 0
M  V30 3197 N 310.401 -0.613514 1.45168 0
M  V30 3198 C 311.349 -1.74572 1.53712 0
M  V30 3199 C 312.343 -1.64426 0.407505 0
M  V30 3200 O 313.549 -1.70291 0.583176 0
M  V30 3201 H 309.924 -0.576641 0.48269 0
M  V30 3202 H 311.895 -1.64492 2.48968 0
M  V30 3203 C 310.644 -3.12943 1.51532 0
M  V30 3204 H 309.967 -3.21407 2.37776 0
M  V30 3205 H 311.407 -3.9201 1.61569 0
M  V30 3206 C 309.866 -3.36053 0.238798 0
M  V30 3207 O 310.396 -3.95837 -0.6838 0
M  V30 3208 N 308.602 -2.9028 0.136359 0
M  V30 3209 H 308.149 -2.41811 0.887999 0
M  V30 3210 H 308.107 -3.06116 -0.716944 0
M  V30 3211 N 311.879 -1.3236 -0.855495 0
M  V30 3212 C 312.811 -1.17052 -1.97057 0
M  V30 3213 C 313.824 -0.10574 -1.62456 0
M  V30 3214 O 315.013 -0.354619 -1.74942 0
M  V30 3215 C 312.113 -0.769305 -3.30053 0
M  V30 3216 C 311.286 -1.9222 -3.929 0
M  V30 3217 C 310.345 -1.50466 -5.04228 0
M  V30 3218 O 309.371 -2.21655 -5.24269 0
M  V30 3219 N 310.573 -0.400209 -5.79119 0
M  V30 3220 H 313.338 -2.13103 -2.1073 0
M  V30 3221 H 310.899 -1.24885 -1.0303 0
M  V30 3222 H 312.891 -0.472407 -4.01933 0
M  V30 3223 H 311.461 0.100025 -3.1244 0
M  V30 3224 H 310.681 -2.38563 -3.13817 0
M  V30 3225 H 311.969 -2.69403 -4.31624 0
M  V30 3226 H 311.367 0.192319 -5.65373 0
M  V30 3227 H 309.924 -0.162912 -6.51596 0
M  V30 3228 N 313.357 1.07166 -1.15556 0
M  V30 3229 C 314.582 1.84053 -0.955988 0
M  V30 3230 C 315.007 1.81586 0.490739 0
M  V30 3231 O 314.365 1.21018 1.34997 0
M  V30 3232 C 314.413 3.28957 -1.47714 0
M  V30 3233 O 313.517 4.06795 -0.677593 0
M  V30 3234 H 312.858 0.569842 -0.340847 0
M  V30 3235 H 315.388 1.35178 -1.53584 0
M  V30 3236 H 315.398 3.79788 -1.4908 0
M  V30 3237 H 314.073 3.30068 -2.53037 0
M  V30 3238 H 312.65 3.6561 -0.733721 0
M  V30 3239 N 314.835 0.952656 1.25548 0
M  V30 3240 C 315.765 0.489287 2.28316 0
M  V30 3241 C 316.746 -0.463359 1.63667 0
M  V30 3242 O 317.931 -0.36274 1.90782 0
M  V30 3243 C 315.061 -0.235603 3.465 0
M  V30 3244 C 314.015 0.631593 4.23314 0
M  V30 3245 C 313.341 -0.223923 5.34231 0
M  V30 3246 C 314.641 1.90871 4.86174 0
M  V30 3247 H 316.335 1.34822 2.67326 0
M  V30 3248 H 313.881 0.649728 1.28509 0
M  V30 3249 H 315.834 -0.570882 4.17515 0
M  V30 3250 H 314.558 -1.12877 3.06474 0
M  V30 3251 H 313.217 0.949929 3.54079 0
M  V30 3252 H 312.865 -1.11678 4.90446 0
M  V30 3253 H 312.565 0.35299 5.86539 0
M  V30 3254 H 314.089 -0.554214 6.0808 0
M  V30 3255 H 315.503 1.63997 5.49343 0
M  V30 3256 H 313.9 2.43112 5.4865 0
M  V30 3257 H 314.97 2.61304 4.08471 0
M  V30 3258 N 316.313 -1.40141 0.720998 0
M  V30 3259 C 317.56 -2.00787 0.262842 0
M  V30 3260 C 317.888 -1.5718 -1.14563 0
M  V30 3261 O 317.143 -0.785391 -1.79249 0
M  V30 3262 C 317.442 -3.56165 0.296892 0
M  V30 3263 C 317.108 -4.19373 1.65641 0
M  V30 3264 C 315.77 -4.36352 2.02855 0
M  V30 3265 C 318.122 -4.54578 2.54968 0
M  V30 3266 C 315.45 -4.8582 3.28931 0
M  V30 3267 C 317.802 -5.05447 3.80402 0
M  V30 3268 C 316.466 -5.20635 4.17726 0
M  V30 3269 H 315.736 -0.734731 0.0961807 0
M  V30 3270 H 318.383 -1.67673 0.925093 0
M  V30 3271 H 316.688 -3.8922 -0.448932 0
M  V30 3272 H 318.385 -4.00929 -0.0755208 0
M  V30 3273 H 314.975 -4.06549 1.35704 0
M  V30 3274 H 319.159 -4.41091 2.27491 0
M  V30 3275 H 314.415 -4.95764 3.57811 0
M  V30 3276 H 318.589 -5.31663 4.49786 0
M  V30 3277 H 316.216 -5.58728 5.15487 0
M  V30 3278 N 317.792 -0.46758 -1.50504 0
M  V30 3279 C 319.069 0.15003 -1.95024 0
M  V30 3280 C 319.449 1.57304 -1.40779 0
M  V30 3281 O 318.797 2.20281 -0.607319 0
M  V30 3282 C 319.007 0.0969324 -3.48865 0
M  V30 3283 C 320.355 0.287565 -4.23625 0
M  V30 3284 O 321.379 0.173678 -3.55776 0
M  V30 3285 O 320.238 0.517186 -5.44047 0
M  V30 3286 H 317.332 0.113582 -0.819163 0
M  V30 3287 H 319.878 -0.52773 -1.61286 0
M  V30 3288 H 318.65 -0.896732 -3.80886 0
M  V30 3289 H 318.273 0.816303 -3.8913 0
M  V30 3290 N 319.27 1.56325 -0.20005 0
M  V30 3291 C 320.519 1.96895 0.437652 0
M  V30 3292 C 320.832 1.08999 1.62415 0
M  V30 3293 O 322.038 1.39372 2.32997 0
M  V30 3294 C 320.494 3.50198 0.830025 0
M  V30 3295 C 320.102 4.46765 -0.332461 0
M  V30 3296 C 321.846 3.99526 1.43453 0
M  V30 3297 C 319.753 5.91344 0.0811468 0
M  V30 3298 H 318.683 0.735209 0.167282 0
M  V30 3299 H 321.334 1.81148 -0.292853 0
M  V30 3300 H 319.716 3.61467 1.61734 0
M  V30 3301 H 320.89 4.47231 -1.11 0
M  V30 3302 H 319.205 4.07657 -0.848789 0
M  V30 3303 H 321.802 5.05025 1.75652 0
M  V30 3304 H 322.145 3.44122 2.34277 0
M  V30 3305 H 322.678 3.91393 0.71109 0
M  V30 3306 H 319.417 6.50685 -0.793033 0
M  V30 3307 H 318.937 5.94121 0.823445 0
M  V30 3308 H 320.616 6.44945 0.515252 0
M  V30 3309 N 320.748 -0.0735177 1.57428 0
M  V30 3310 C 321.997 -0.771809 1.86349 0
M  V30 3311 C 322.31 -1.78828 0.792452 0
M  V30 3312 O 323.516 -2.53602 0.96945 0
M  V30 3313 C 321.972 -1.42358 3.30548 0
M  V30 3314 C 321.58 -0.445761 4.45777 0
M  V30 3315 C 323.324 -2.10434 3.6867 0
M  V30 3316 C 321.231 -1.10335 5.81016 0
M  V30 3317 H 320.161 -0.291999 0.695164 0
M  V30 3318 H 322.812 -0.0250749 1.83483 0
M  V30 3319 H 321.194 -2.21852 3.28021 0
M  V30 3320 H 322.368 0.319239 4.59693 0
M  V30 3321 H 320.683 0.130457 4.16196 0
M  V30 3322 H 323.28 -2.60405 4.67004 0
M  V30 3323 H 323.623 -2.90298 2.98383 0
M  V30 3324 H 324.156 -1.37773 3.7318 0
M  V30 3325 H 320.895 -0.345061 6.54591 0
M  V30 3326 H 320.415 -1.83925 5.70904 0
M  V30 3327 H 322.094 -1.62367 6.26295 0
M  V30 3328 N 322.226 -1.5378 -0.344866 0
M  V30 3329 C 323.451 -1.75211 -1.10977 0
M  V30 3330 C 323.876 -0.48936 -1.81623 0
M  V30 3331 O 323.234 0.557925 -1.72502 0
M  V30 3332 C 323.282 -2.93147 -2.09993 0
M  V30 3333 O 322.386 -2.63203 -3.17487 0
M  V30 3334 H 321.727 -0.581241 -0.321021 0
M  V30 3335 H 324.257 -2.00738 -0.395661 0
M  V30 3336 H 324.267 -3.19898 -2.53237 0
M  V30 3337 H 322.942 -3.84731 -1.5797 0
M  V30 3338 H 321.519 -2.47336 -2.79069 0
M  V30 3339 N 323.704 0.605807 -1.45491 0
M  V30 3340 C 324.651 1.7164 -1.54299 0
M  V30 3341 C 325.621 1.61486 -0.388761 0
M  V30 3342 O 326.806 1.81039 -0.602445 0
M  V30 3343 C 323.946 3.09953 -1.51734 0
M  V30 3344 C 323.059 3.309 -2.77721 0
M  V30 3345 C 322.194 4.59329 -2.66816 0
M  V30 3346 C 321.233 4.7354 -3.87848 0
M  V30 3347 N 320.37 5.9327 -3.75467 0
M  V30 3348 H 325.21 1.63449 -2.49176 0
M  V30 3349 H 322.747 0.796957 -1.23641 0
M  V30 3350 H 324.705 3.89977 -1.48235 0
M  V30 3351 H 323.335 3.17098 -0.604068 0
M  V30 3352 H 322.387 2.44639 -2.913 0
M  V30 3353 H 323.699 3.37274 -3.67488 0
M  V30 3354 H 322.853 5.4755 -2.61292 0
M  V30 3355 H 321.592 4.55355 -1.74651 0
M  V30 3356 H 320.597 3.83741 -3.93729 0
M  V30 3357 H 321.822 4.79309 -4.81082 0
M  V30 3358 H 319.768 5.90338 -2.86072 0
M  V30 3359 H 319.685 6.00811 -4.5887 0
M  V30 3360 H 320.953 6.83984 -3.73879 0
M  V30 3361 N 325.182 1.32811 0.848464 0
M  V30 3362 C 326.431 1.23075 1.59798 0
M  V30 3363 C 326.744 -0.204419 1.94529 0
M  V30 3364 O 327.95 -0.423701 2.68173 0
M  V30 3365 C 326.406 2.15594 2.88179 0
M  V30 3366 C 326.014 3.64228 2.60849 0
M  V30 3367 C 327.758 2.14709 3.66197 0
M  V30 3368 C 325.665 4.48689 3.85269 0
M  V30 3369 H 324.595 0.457091 0.599653 0
M  V30 3370 H 327.246 1.57813 0.936342 0
M  V30 3371 H 325.628 1.73778 3.55833 0
M  V30 3372 H 326.802 4.14424 2.01467 0
M  V30 3373 H 325.117 3.67306 1.96151 0
M  V30 3374 H 327.714 2.75046 4.58534 0
M  V30 3375 H 328.057 1.13966 4.00397 0
M  V30 3376 H 328.59 2.54837 3.05455 0
M  V30 3377 H 325.329 5.5027 3.56207 0
M  V30 3378 H 324.849 4.03241 4.44024 0
M  V30 3379 H 326.528 4.62006 4.52946 0
M  V30 3380 N 326.66 -1.06551 1.16123 0
M  V30 3381 C 327.937 -1.76097 0.85142 0
M  V30 3382 C 328.317 -2.00802 -0.6513 0
M  V30 3383 O 327.665 -1.63302 -1.59827 0
M  V30 3384 C 327.875 -3.06384 1.67122 0
M  V30 3385 C 329.223 -3.80585 1.88255 0
M  V30 3386 O 330.247 -3.16218 1.63966 0
M  V30 3387 O 329.106 -4.96212 2.2899 0
M  V30 3388 H 326.2 -0.765102 0.313923 0
M  V30 3389 H 328.746 -1.12844 1.26745 0
M  V30 3390 H 327.518 -2.84071 2.69108 0
M  V30 3391 H 327.141 -3.77371 1.25206 0
M  V30 3392 N 328.138 -0.959301 -1.25041 0
M  V30 3393 C 329.068 -0.501388 -2.28053 0
M  V30 3394 C 330.049 0.454673 -1.63911 0
M  V30 3395 O 331.234 0.352618 -1.90972 0
M  V30 3396 C 328.364 0.217224 -3.4662 0
M  V30 3397 C 327.318 -0.654034 -4.22973 0
M  V30 3398 C 326.644 0.195589 -5.34342 0
M  V30 3399 C 327.944 -1.93447 -4.85155 0
M  V30 3400 H 329.638 -1.36238 -2.66608 0
M  V30 3401 H 327.184 -0.656534 -1.28163 0
M  V30 3402 H 329.137 0.548732 -4.17812 0
M  V30 3403 H 327.861 1.1125 -3.07068 0
M  V30 3404 H 326.52 -0.968693 -3.5357 0
M  V30 3405 H 326.168 1.09076 -4.91031 0
M  V30 3406 H 325.868 -0.384091 -5.86343 0
M  V30 3407 H 327.392 0.521958 -6.08365 0
M  V30 3408 H 328.806 -1.66908 -5.48466 0
M  V30 3409 H 327.203 -2.46018 -5.47353 0
M  V30 3410 H 328.273 -2.63466 -4.07079 0
M  V30 3411 N 329.616 1.39756 -0.72842 0
M  V30 3412 C 330.549 2.28176 -0.0330172 0
M  V30 3413 C 331.527 1.44035 0.754501 0
M  V30 3414 O 332.711 1.73434 0.738445 0
M  V30 3415 C 329.838 3.24795 0.960504 0
M  V30 3416 C 328.884 4.25693 0.262264 0
M  V30 3417 S 329.717 5.25714 -1.01906 0
M  V30 3418 C 330.873 6.25894 -0.0279717 0
M  V30 3419 H 331.106 2.86807 -0.78287 0
M  V30 3420 H 328.639 1.45382 -0.519951 0
M  V30 3421 H 330.597 3.80983 1.52846 0
M  V30 3422 H 329.258 2.65196 1.68315 0
M  V30 3423 H 328.451 4.93699 1.01379 0
M  V30 3424 H 328.053 3.7327 -0.233482 0
M  V30 3425 H 330.345 6.72585 0.814621 0
M  V30 3426 H 331.288 7.04876 -0.67499 0
M  V30 3427 H 331.696 5.63466 0.341489 0
M  V30 3428 N 331.094 0.475555 1.50254 0
M  V30 3429 C 332.34 -0.0780073 2.0265 0
M  V30 3430 C 332.673 -1.38968 1.35652 0
M  V30 3431 O 331.948 -1.8839 0.483691 0
M  V30 3432 C 332.231 -0.257161 3.59181 0
M  V30 3433 C 332.084 1.07585 4.36744 0
M  V30 3434 C 333.403 -1.00965 4.28362 0
M  V30 3435 H 330.522 -0.0268758 0.73651 0
M  V30 3436 H 333.164 0.622015 1.7953 0
M  V30 3437 H 331.314 -0.853412 3.79011 0
M  V30 3438 H 332.986 1.70902 4.28474 0
M  V30 3439 H 331.229 1.6714 4.00308 0
M  V30 3440 H 331.9 0.904088 5.44546 0
M  V30 3441 H 334.376 -0.504214 4.13034 0
M  V30 3442 H 333.252 -1.10381 5.37687 0
M  V30 3443 H 333.513 -2.04731 3.91839 0
M  V30 3444 N 332.573 -1.56217 0.208337 0
M  V30 3445 C 333.521 -2.21053 -0.723769 0
M  V30 3446 C 334.515 -1.18578 -1.20978 0
M  V30 3447 O 335.721 -1.36691 -1.17114 0
M  V30 3448 H 332.096 -0.708595 -0.251788 0
M  V30 3449 H 334.067 -2.98006 -0.153365 0
M  V30 3450 C 332.816 -2.89417 -1.927 0
M  V30 3451 H 332.139 -3.68019 -1.56212 0
M  V30 3452 H 333.579 -3.38201 -2.55727 0
M  V30 3453 C 332.038 -1.91166 -2.77411 0
M  V30 3454 O 332.568 -1.42026 -3.75754 0
M  V30 3455 N 330.774 -1.59105 -2.43175 0
M  V30 3456 H 330.321 -1.99259 -1.63259 0
M  V30 3457 H 330.279 -0.936255 -3.00136 0
M  V30 3458 N 334.051 0.0651679 -1.57465 0
M  V30 3459 C 335.276 0.779605 -1.9219 0
M  V30 3460 C 335.701 1.69988 -0.805333 0
M  V30 3461 O 335.059 1.79685 0.241435 0
M  V30 3462 C 335.107 1.54364 -3.2589 0
M  V30 3463 O 334.211 2.65474 -3.1559 0
M  V30 3464 H 333.552 0.212249 -0.629163 0
M  V30 3465 H 336.082 0.0314294 -2.04576 0
M  V30 3466 H 336.092 1.92146 -3.59922 0
M  V30 3467 H 334.767 0.868457 -4.06732 0
M  V30 3468 H 333.344 2.30501 -2.93128 0
M  V30 3469 N 335.529 1.53961 0.336706 0
M  V30 3470 C 336.777 1.71197 1.07405 0
M  V30 3471 C 337.098 0.481475 1.88962 0
M  V30 3472 O 336.368 -0.504585 1.8929 0
M  V30 3473 H 334.948 0.631185 0.399517 0
M  V30 3474 H 337.61 1.91232 0.376323 0
M  V30 3475 H 336.706 2.58587 1.74755 0
M  V30 3476 N 337.007 -0.598083 1.45811 0
M  V30 3477 C 337.954 -1.7082 1.55207 0
M  V30 3478 C 338.924 -1.61278 0.39732 0
M  V30 3479 O 340.109 -1.80717 0.612038 0
M  V30 3480 C 337.249 -3.09144 1.53376 0
M  V30 3481 C 336.362 -3.29423 2.79472 0
M  V30 3482 C 335.497 -4.57907 2.69248 0
M  V30 3483 C 334.536 -4.71476 3.90354 0
M  V30 3484 N 333.673 -5.9127 3.78608 0
M  V30 3485 H 338.513 -1.62125 2.50039 0
M  V30 3486 H 336.05 -0.790389 1.24062 0
M  V30 3487 H 338.008 -3.89186 1.50301 0
M  V30 3488 H 336.638 -3.16773 0.620876 0
M  V30 3489 H 335.69 -2.43091 2.92594 0
M  V30 3490 H 337.002 -3.3532 3.69272 0
M  V30 3491 H 336.156 -5.46157 2.64192 0
M  V30 3492 H 334.895 -4.54423 1.77063 0
M  V30 3493 H 333.9 -3.81648 3.95759 0
M  V30 3494 H 335.125 -4.76751 4.83617 0
M  V30 3495 H 333.071 -5.88813 2.89199 0
M  V30 3496 H 332.988 -5.98369 4.6205 0
M  V30 3497 H 334.256 -6.81992 3.77501 0
M  V30 3498 N 338.485 -1.33259 -0.841409 0
M  V30 3499 C 339.415 -1.25926 -1.96634 0
M  V30 3500 C 340.396 -0.140349 -1.6952 0
M  V30 3501 O 341.581 -0.329707 -1.91381 0
M  V30 3502 C 338.711 -0.99512 -3.32738 0
M  V30 3503 C 337.665 -2.0767 -3.74242 0
M  V30 3504 C 336.991 -1.66474 -5.08125 0
M  V30 3505 C 338.291 -3.49318 -3.88297 0
M  V30 3506 H 339.985 -2.20046 -2.03027 0
M  V30 3507 H 337.531 -1.05931 -0.975425 0
M  V30 3508 H 339.484 -0.930323 -4.11002 0
M  V30 3509 H 338.208 -0.0183004 -3.26595 0
M  V30 3510 H 336.867 -2.13187 -2.98239 0
M  V30 3511 H 336.515 -0.675012 -4.9845 0
M  V30 3512 H 336.215 -2.3885 -5.36865 0
M  V30 3513 H 337.739 -1.61455 -5.88867 0
M  V30 3514 H 339.153 -3.46316 -4.56879 0
M  V30 3515 H 337.55 -4.20158 -4.28471 0
M  V30 3516 H 338.62 -3.8801 -2.9082 0
M  V30 3517 N 339.963 1.05934 -1.16686 0
M  V30 3518 C 341.211 1.78447 -0.948744 0
M  V30 3519 C 341.532 1.87813 0.524523 0
M  V30 3520 O 340.802 1.38945 1.38098 0
M  V30 3521 H 339.382 0.660971 -0.348033 0
M  V30 3522 H 342.044 1.27947 -1.47022 0
M  V30 3523 H 341.14 2.80394 -1.37061 0
M  V30 3524 N 341.441 0.965919 1.2453 0
M  V30 3525 C 342.669 0.644385 1.96609 0
M  V30 3526 C 343.084 -0.785823 1.71669 0
M  V30 3527 O 342.441 -1.52703 0.999399 0
M  V30 3528 C 342.492 0.907375 3.49927 0
M  V30 3529 O 342.213 2.28136 3.74013 0
M  V30 3530 C 343.714 0.599784 4.39224 0
M  V30 3531 H 340.934 0.240588 0.626385 0
M  V30 3532 H 343.478 1.29337 1.58405 0
M  V30 3533 H 341.633 0.304631 3.862 0
M  V30 3534 H 342.047 2.36002 4.68405 0
M  V30 3535 H 343.521 0.834263 5.45659 0
M  V30 3536 H 343.998 -0.465921 4.36722 0
M  V30 3537 H 344.604 1.18235 4.08535 0
M  V30 3538 N 342.919 -1.39368 0.735821 0
M  V30 3539 C 344.147 -2.04795 0.294393 0
M  V30 3540 C 344.562 -1.55478 -1.07107 0
M  V30 3541 O 343.919 -0.720038 -1.67695 0
M  V30 3542 C 343.97 -3.6035 0.288071 0
M  V30 3543 O 343.691 -4.07852 1.59963 0
M  V30 3544 C 345.192 -4.42976 -0.169422 0
M  V30 3545 H 342.412 -0.658571 0.128551 0
M  V30 3546 H 344.956 -1.78399 0.999701 0
M  V30 3547 H 343.111 -3.85645 -0.368355 0
M  V30 3548 H 343.525 -5.02181 1.51375 0
M  V30 3549 H 344.999 -5.51864 -0.122687 0
M  V30 3550 H 345.476 -4.22068 -1.21472 0
M  V30 3551 H 346.082 -4.22832 0.457469 0
M  V30 3552 N 344.397 -0.483516 -1.5 0
M  V30 3553 C 345.643 0.0672592 -2.02688 0
M  V30 3554 C 345.976 1.38247 -1.36387 0
M  V30 3555 O 345.251 1.88131 -0.493675 0
M  V30 3556 C 345.534 0.238109 -3.59312 0
M  V30 3557 C 345.387 -1.099 -4.36168 0
M  V30 3558 C 346.706 0.986916 -4.28892 0
M  V30 3559 H 343.825 0.0229696 -0.736642 0
M  V30 3560 H 346.467 -0.631527 -1.79197 0
M  V30 3561 H 344.617 0.8333 -3.79458 0
M  V30 3562 H 346.289 -1.73172 -4.27562 0
M  V30 3563 H 344.532 -1.69261 -3.99416 0
M  V30 3564 H 345.203 -0.932954 -5.44059 0
M  V30 3565 H 347.679 0.482302 -4.13295 0
M  V30 3566 H 346.555 1.07527 -5.38265 0
M  V30 3567 H 346.816 2.0265 -3.92919 0
M  V30 3568 N 345.875 1.56104 -0.216619 0
M  V30 3569 C 346.822 2.2007 0.695531 0
M  V30 3570 C 347.792 1.15471 1.19397 0
M  V30 3571 O 348.977 1.43807 1.25396 0
M  V30 3572 C 346.117 2.88073 1.90021 0
M  V30 3573 C 345.23 4.07253 1.44113 0
M  V30 3574 C 344.365 4.63052 2.603 0
M  V30 3575 C 343.404 5.74545 2.11103 0
M  V30 3576 N 342.541 6.24656 3.20545 0
M  V30 3577 H 347.381 2.97655 0.143327 0
M  V30 3578 H 344.918 1.46982 0.0589934 0
M  V30 3579 H 346.876 3.25681 2.60745 0
M  V30 3580 H 345.506 2.13015 2.42538 0
M  V30 3581 H 344.558 3.75164 0.628999 0
M  V30 3582 H 345.87 4.8783 1.04036 0
M  V30 3583 H 345.024 5.03078 3.39113 0
M  V30 3584 H 343.763 3.81628 3.03663 0
M  V30 3585 H 342.768 5.34027 1.3075 0
M  V30 3586 H 343.993 6.57801 1.68746 0
M  V30 3587 H 341.939 5.46148 3.63399 0
M  V30 3588 H 341.856 7.00343 2.84704 0
M  V30 3589 H 343.124 6.69338 3.99508 0
M  V30 3590 N 347.353 -0.0568162 1.57498 0
M  V30 3591 C 348.764 -0.606858 1.76562 0
M  V30 3592 C 349.115 -1.77114 0.844094 0
M  V30 3593 O 348.24 -2.16376 0.0318911 0
M  V30 3594 C 348.835 -1.10766 3.20182 0
M  V30 3595 C 347.394 -1.60344 3.40539 0
M  V30 3596 C 346.541 -0.529311 2.72201 0
M  V30 3597 H 349.492 0.169393 1.57793 0
M  V30 3598 H 349.513 -1.97602 3.25167 0
M  V30 3599 H 349.025 -0.26006 3.87228 0
M  V30 3600 H 347.126 -2.47379 2.78629 0
M  V30 3601 H 347.239 -1.67006 4.4905 0
M  V30 3602 H 345.603 -0.977893 2.35179 0
M  V30 3603 H 346.386 0.308352 3.41912 0
M  V30 3604 N 348.832 -1.54138 -0.328536 0
M  V30 3605 C 349.779 -1.83176 -1.40411 0
M  V30 3606 C 350.749 -0.678494 -1.5161 0
M  V30 3607 O 351.934 -0.92443 -1.6691 0
M  V30 3608 C 349.074 -2.06035 -2.76846 0
M  V30 3609 C 348.187 -3.33727 -2.74318 0
M  V30 3610 C 347.322 -3.46574 -4.02567 0
M  V30 3611 C 346.361 -4.68159 -3.94327 0
M  V30 3612 N 345.498 -4.77959 -5.14296 0
M  V30 3613 H 350.338 -2.74938 -1.14948 0
M  V30 3614 H 347.875 -1.36166 -0.556538 0
M  V30 3615 H 349.833 -2.1728 -3.56153 0
M  V30 3616 H 348.463 -1.1757 -3.00628 0
M  V30 3617 H 347.515 -3.31246 -1.8703 0
M  V30 3618 H 348.827 -4.23139 -2.64111 0
M  V30 3619 H 347.981 -3.57333 -4.90304 0
M  V30 3620 H 346.72 -2.55245 -4.15574 0
M  V30 3621 H 345.725 -4.57461 -3.04974 0
M  V30 3622 H 346.95 -5.60868 -3.82889 0
M  V30 3623 H 344.896 -3.89544 -5.27818 0
M  V30 3624 H 344.813 -5.6133 -5.06404 0
M  V30 3625 H 346.081 -4.93044 -6.03761 0
M  V30 3626 N 350.31 0.590341 -1.46126 0
M  V30 3627 C 351.535 1.37991 -1.54833 0
M  V30 3628 C 351.96 1.87163 -0.187506 0
M  V30 3629 O 351.318 1.61133 0.831008 0
M  V30 3630 C 351.366 2.54867 -2.55098 0
M  V30 3631 O 350.47 3.56061 -2.08073 0
M  V30 3632 H 349.811 0.411265 -0.521303 0
M  V30 3633 H 352.341 0.716819 -1.91632 0
M  V30 3634 H 352.351 3.01886 -2.74461 0
M  V30 3635 H 351.026 2.18429 -3.53923 0
M  V30 3636 H 349.603 3.15574 -1.98664 0
M  V30 3637 N 351.788 1.33704 0.83433 0
M  V30 3638 C 352.718 1.26967 1.95963 0
M  V30 3639 C 353.699 0.149337 1.69443 0
M  V30 3640 O 354.884 0.339852 1.91203 0
M  V30 3641 C 352.014 1.01275 3.32206 0
M  V30 3642 C 350.968 2.09652 3.73136 0
M  V30 3643 C 350.294 1.69166 5.07235 0
M  V30 3644 C 351.594 3.51372 3.86439 0
M  V30 3645 H 353.288 2.2112 2.01857 0
M  V30 3646 H 350.834 1.06447 0.969793 0
M  V30 3647 H 352.787 0.952106 4.10503 0
M  V30 3648 H 351.511 0.0356203 3.26581 0
M  V30 3649 H 350.17 2.14766 2.97104 0
M  V30 3650 H 349.818 0.701437 4.98085 0
M  V30 3651 H 349.518 2.41694 5.35591 0
M  V30 3652 H 351.042 1.64576 5.88003 0
M  V30 3653 H 352.456 3.48734 4.55036 0
M  V30 3654 H 350.853 4.22425 4.26236 0
M  V30 3655 H 351.923 3.89546 2.88759 0
M  V30 3656 N 353.266 -1.05314 1.17247 0
M  V30 3657 C 354.512 -1.78557 0.961513 0
M  V30 3658 C 354.845 -1.87419 -0.508697 0
M  V30 3659 O 354.12 -1.37307 -1.37757 0
M  V30 3660 C 354.403 -3.22514 1.60176 0
M  V30 3661 C 354.256 -3.21673 3.14399 0
M  V30 3662 C 355.575 -4.20318 1.30463 0
M  V30 3663 H 352.694 -0.6482 0.350723 0
M  V30 3664 H 355.336 -1.23102 1.44727 0
M  V30 3665 H 353.486 -3.69867 1.18871 0
M  V30 3666 H 355.158 -2.82405 3.64753 0
M  V30 3667 H 353.401 -2.60048 3.47214 0
M  V30 3668 H 354.072 -4.23271 3.54324 0
M  V30 3669 H 356.548 -3.81454 1.66229 0
M  V30 3670 H 355.424 -5.19289 1.77848 0
M  V30 3671 H 355.685 -4.41526 0.22521 0
M  V30 3672 N 354.744 -0.972509 -1.24016 0
M  V30 3673 C 355.972 -0.654803 -1.96265 0
M  V30 3674 C 356.387 0.776708 -1.72083 0
M  V30 3675 O 355.744 1.52171 -1.00748 0
M  V30 3676 C 355.795 -0.92592 -3.49441 0
M  V30 3677 O 355.516 -2.30116 -3.72798 0
M  V30 3678 C 357.017 -0.623068 -4.38899 0
M  V30 3679 H 354.237 -0.243907 -0.6251 0
M  V30 3680 H 356.781 -1.30175 -1.57717 0
M  V30 3681 H 354.936 -0.325108 -3.86033 0
M  V30 3682 H 355.35 -2.38483 -4.67147 0
M  V30 3683 H 356.824 -0.863189 -5.45209 0
M  V30 3684 H 357.301 0.442754 -4.36963 0
M  V30 3685 H 357.907 -1.204 -4.07902 0
M  V30 3686 N 356.222 1.38976 -0.743202 0
M  V30 3687 C 357.447 2.05161 -0.303936 0
M  V30 3688 C 357.872 1.55677 1.05576 0
M  V30 3689 O 357.23 0.704131 1.67068 0
M  V30 3690 C 357.278 3.59138 -0.324373 0
M  V30 3691 O 356.382 4.06668 0.685204 0
M  V30 3692 H 355.723 0.649815 -0.136518 0
M  V30 3693 H 358.253 1.77852 -1.01142 0
M  V30 3694 H 358.263 4.07639 -0.171618 0
M  V30 3695 H 356.938 3.94515 -1.31647 0
M  V30 3696 H 355.515 3.69561 0.497913 0
M  V30 3697 N 357.7 0.491464 1.49741 0
M  V30 3698 C 358.925 -0.0557177 2.07325 0
M  V30 3699 C 359.35 -1.30925 1.35056 0
M  V30 3700 O 358.708 -1.76733 0.404365 0
M  V30 3701 C 358.756 -0.302074 3.59333 0
M  V30 3702 O 357.86 -1.37868 3.88672 0
M  V30 3703 H 357.201 0.0219956 0.663636 0
M  V30 3704 H 359.731 0.688352 1.92673 0
M  V30 3705 H 359.741 -0.536464 4.04458 0
M  V30 3706 H 358.416 0.61383 4.11345 0
M  V30 3707 H 356.993 -1.12999 3.55367 0
M  V30 3708 N 359.178 -1.55987 0.224894 0
M  V30 3709 C 360.403 -2.03232 -0.41369 0
M  V30 3710 C 360.828 -1.10359 -1.52323 0
M  V30 3711 O 360.186 -0.092395 -1.81064 0
M  V30 3712 C 360.234 -3.48682 -0.919405 0
M  V30 3713 O 359.338 -3.58947 -2.03054 0
M  V30 3714 H 358.679 -0.657428 -0.0931903 0
M  V30 3715 H 361.209 -2.01679 0.34451 0
M  V30 3716 H 361.219 -3.8907 -1.22835 0
M  V30 3717 H 359.894 -4.15761 -0.107339 0
M  V30 3718 H 358.471 -3.30448 -1.72796 0
M  V30 3719 N 360.656 0.0484629 -1.57525 0
M  V30 3720 C 361.904 0.741657 -1.88 0
M  V30 3721 C 362.225 1.76918 -0.820054 0
M  V30 3722 O 361.495 1.95335 0.148661 0
M  V30 3723 H 360.075 0.276908 -0.69378 0
M  V30 3724 H 362.737 0.019013 -1.94891 0
M  V30 3725 H 361.833 1.24336 -2.86264 0
M  V30 3726 N 362.134 1.5431 0.320358 0
M  V30 3727 C 363.097 1.83195 1.3774 0
M  V30 3728 C 364.097 0.703906 1.44575 0
M  V30 3729 O 365.287 0.972214 1.44546 0
M  V30 3730 C 362.419 1.99487 2.76438 0
M  V30 3731 H 363.612 2.77642 1.1338 0
M  V30 3732 H 361.165 1.46076 0.556012 0
M  V30 3733 H 361.9 1.07262 3.06048 0
M  V30 3734 H 361.685 2.81575 2.7287 0
M  V30 3735 H 363.175 2.23271 3.52902 0
M  V30 3736 N 363.613 -0.582584 1.46437 0
M  V30 3737 C 364.543 -1.70187 1.59871 0
M  V30 3738 C 365.524 -1.64066 0.449042 0
M  V30 3739 O 366.709 -1.82081 0.6753 0
M  V30 3740 C 363.839 -3.08827 1.58881 0
M  V30 3741 C 362.793 -3.29779 2.72819 0
M  V30 3742 C 362.119 -4.68947 2.5689 0
M  V30 3743 C 363.419 -3.17601 4.1464 0
M  V30 3744 H 365.113 -1.592 2.53566 0
M  V30 3745 H 362.659 -0.764472 1.22032 0
M  V30 3746 H 364.612 -3.86951 1.66873 0
M  V30 3747 H 363.336 -3.20713 0.617306 0
M  V30 3748 H 361.995 -2.54054 2.64296 0
M  V30 3749 H 361.643 -4.77599 1.57823 0
M  V30 3750 H 361.343 -4.83919 3.33312 0
M  V30 3751 H 362.867 -5.4924 2.66773 0
M  V30 3752 H 364.281 -3.8557 4.24274 0
M  V30 3753 H 362.678 -3.44094 4.9165 0
M  V30 3754 H 363.748 -2.14681 4.34788 0
M  V30 3755 N 365.091 -1.34144 -0.827227 0
M  V30 3756 C 366.038 -1.25364 -1.93785 0
M  V30 3757 C 367.008 -0.129774 -1.65592 0
M  V30 3758 O 368.193 -0.310024 -1.88264 0
M  V30 3759 C 365.333 -1.01064 -3.2997 0
M  V30 3760 C 364.446 -2.22185 -3.70484 0
M  V30 3761 C 363.581 -1.91203 -4.95595 0
M  V30 3762 C 362.62 -3.08491 -5.28677 0
M  V30 3763 N 361.757 -2.77421 -6.44967 0
M  V30 3764 H 366.597 -2.20347 -2.00627 0
M  V30 3765 H 364.134 -1.09558 -0.981608 0
M  V30 3766 H 366.092 -0.850139 -4.08446 0
M  V30 3767 H 364.722 -0.0975026 -3.22653 0
M  V30 3768 H 363.774 -2.4917 -2.87434 0
M  V30 3769 H 365.086 -3.0983 -3.90905 0
M  V30 3770 H 364.24 -1.71864 -5.81848 0
M  V30 3771 H 362.979 -1.00812 -4.77167 0
M  V30 3772 H 361.984 -3.28431 -4.40923 0
M  V30 3773 H 363.209 -3.99655 -5.49047 0
M  V30 3774 H 361.155 -1.89601 -6.28003 0
M  V30 3775 H 361.072 -3.58598 -6.6554 0
M  V30 3776 H 362.34 -2.61577 -7.34301 0
M  V30 3777 N 366.569 1.04691 -1.17803 0
M  V30 3778 C 367.516 2.12557 -0.899343 0
M  V30 3779 C 368.486 1.65339 0.158771 0
M  V30 3780 O 369.671 1.90789 0.0204797 0
M  V30 3781 C 366.811 3.42481 -0.424315 0
M  V30 3782 C 365.924 4.03346 -1.54713 0
M  V30 3783 C 365.059 5.21208 -1.02546 0
M  V30 3784 C 364.098 5.74089 -2.12339 0
M  V30 3785 N 363.235 6.83247 -1.61612 0
M  V30 3786 H 368.075 2.35734 -1.823 0
M  V30 3787 H 365.612 1.1564 -0.909159 0
M  V30 3788 H 367.57 4.16996 -0.130421 0
M  V30 3789 H 366.2 3.19471 0.462377 0
M  V30 3790 H 365.252 3.2622 -1.95664 0
M  V30 3791 H 366.564 4.38628 -2.37501 0
M  V30 3792 H 365.718 6.02812 -0.685718 0
M  V30 3793 H 364.457 4.87414 -0.167084 0
M  V30 3794 H 363.462 4.91111 -2.47165 0
M  V30 3795 H 364.687 6.0993 -2.98601 0
M  V30 3796 H 362.633 6.5134 -0.780533 0
M  V30 3797 H 362.55 7.17559 -2.38003 0
M  V30 3798 H 363.818 7.68491 -1.30545 0
M  V30 3799 N 368.047 0.979072 1.23499 0
M  V30 3800 C 368.979 0.476271 2.24197 0
M  V30 3801 C 369.992 -0.421166 1.57258 0
M  V30 3802 O 371.181 -0.225515 1.7707 0
M  V30 3803 C 368.281 -0.330503 3.37285 0
M  V30 3804 C 367.454 0.559744 4.33804 0
M  V30 3805 C 366.513 -0.192954 5.25846 0
M  V30 3806 O 365.539 0.416978 5.67671 0
M  V30 3807 N 366.741 -1.47932 5.61334 0
M  V30 3808 H 369.506 1.34211 2.67969 0
M  V30 3809 H 367.067 0.852189 1.37657 0
M  V30 3810 H 369.059 -0.842361 3.95836 0
M  V30 3811 H 367.629 -1.09734 2.92707 0
M  V30 3812 H 366.849 1.25245 3.73775 0
M  V30 3813 H 368.137 1.1665 4.95248 0
M  V30 3814 H 367.535 -1.9964 5.29302 0
M  V30 3815 H 366.092 -1.93664 6.22364 0
M  V30 3816 N 369.525 -1.3858 0.750561 0
M  V30 3817 C 370.475 -2.27795 0.0965949 0
M  V30 3818 C 371.459 -1.45048 -0.696411 0
M  V30 3819 O 372.651 -1.67812 -0.562863 0
M  V30 3820 C 369.78 -3.33894 -0.798085 0
M  V30 3821 C 368.866 -4.241 0.0016067 0
M  V30 3822 N 369.257 -4.95067 1.03647 0
M  V30 3823 C 367.555 -4.45429 -0.225674 0
M  V30 3824 C 368.256 -5.61489 1.52004 0
M  V30 3825 N 367.232 -5.37135 0.835874 0
M  V30 3826 H 371.034 -2.80125 0.889228 0
M  V30 3827 H 368.548 -1.51446 0.586323 0
M  V30 3828 H 370.545 -3.96693 -1.28219 0
M  V30 3829 H 369.205 -2.83123 -1.5897 0
M  V30 3830 H 370.216 -4.98104 1.41819 0
M  V30 3831 H 366.893 -4.05571 -0.990872 0
M  V30 3832 H 368.283 -6.28264 2.38188 0
M  V30 3833 N 371.003 -0.499398 -1.49478 0
M  V30 3834 C 371.95 0.279881 -2.29097 0
M  V30 3835 C 372.92 0.961805 -1.3542 0
M  V30 3836 O 374.105 0.968777 -1.64376 0
M  V30 3837 C 371.245 1.33932 -3.18051 0
M  V30 3838 C 370.358 0.669333 -4.26783 0
M  V30 3839 C 369.493 1.70907 -5.02955 0
M  V30 3840 C 368.532 1.02087 -6.03527 0
M  V30 3841 N 367.669 2.00474 -6.7287 0
M  V30 3842 H 372.509 -0.405317 -2.95231 0
M  V30 3843 H 370.046 -0.211726 -1.45568 0
M  V30 3844 H 372.004 1.96553 -3.67998 0
M  V30 3845 H 370.634 1.9933 -2.53904 0
M  V30 3846 H 369.686 -0.0701234 -3.80335 0
M  V30 3847 H 370.998 0.127503 -4.98637 0
M  V30 3848 H 370.152 2.41037 -5.56764 0
M  V30 3849 H 368.891 2.28476 -4.30871 0
M  V30 3850 H 367.896 0.305338 -5.48951 0
M  V30 3851 H 369.121 0.451708 -6.77596 0
M  V30 3852 H 367.067 2.57007 -6.03559 0
M  V30 3853 H 366.984 1.51353 -7.40694 0
M  V30 3854 H 368.252 2.69897 -7.31284 0
M  V30 3855 N 372.481 1.55866 -0.233164 0
M  V30 3856 C 373.428 2.20796 0.67215 0
M  V30 3857 C 374.398 1.16731 1.18166 0
M  V30 3858 O 375.583 1.45129 1.23864 0
M  V30 3859 C 372.723 2.90072 1.86955 0
M  V30 3860 C 371.836 4.08759 1.39786 0
M  V30 3861 C 370.971 4.65787 2.55374 0
M  V30 3862 C 370.01 5.76752 2.04998 0
M  V30 3863 N 369.147 6.28021 3.13901 0
M  V30 3864 H 373.987 2.9779 0.111749 0
M  V30 3865 H 371.524 1.47036 0.0434007 0
M  V30 3866 H 373.482 3.28428 2.57276 0
M  V30 3867 H 372.112 2.15575 2.40265 0
M  V30 3868 H 371.164 3.7581 0.589173 0
M  V30 3869 H 372.476 4.88906 0.98856 0
M  V30 3870 H 371.63 5.06646 3.33758 0
M  V30 3871 H 370.369 3.84828 2.99598 0
M  V30 3872 H 369.374 5.35383 1.25079 0
M  V30 3873 H 370.599 6.59553 1.61759 0
M  V30 3874 H 368.545 5.49971 3.57586 0
M  V30 3875 H 368.462 7.03323 2.7726 0
M  V30 3876 H 369.73 6.73538 3.92386 0
M  V30 3877 N 373.959 -0.0401083 1.57549 0
M  V30 3878 C 375.37 -0.588097 1.77196 0
M  V30 3879 C 375.721 -1.76209 0.862832 0
M  V30 3880 O 374.846 -2.16331 0.0548389 0
M  V30 3881 C 375.441 -1.07363 3.21339 0
M  V30 3882 C 374 -1.56723 3.42221 0
M  V30 3883 C 373.147 -0.50041 2.72747 0
M  V30 3884 H 376.098 0.186119 1.57605 0
M  V30 3885 H 376.119 -1.94143 3.27244 0
M  V30 3886 H 375.631 -0.218975 3.87482 0
M  V30 3887 H 373.732 -2.4441 2.81237 0
M  V30 3888 H 373.845 -1.62234 4.50796 0
M  V30 3889 H 372.209 -0.952894 2.36203 0
M  V30 3890 H 372.992 0.344599 3.41566 0
M  V30 3891 N 375.437 -1.54477 -0.31217 0
M  V30 3892 C 376.684 -1.73227 -1.04875 0
M  V30 3893 C 377.012 -0.512042 -1.87639 0
M  V30 3894 O 376.267 0.506131 -1.89042 0
M  V30 3895 C 376.566 -2.967 -1.99258 0
M  V30 3896 C 376.232 -4.30974 -1.32559 0
M  V30 3897 C 374.894 -4.67477 -1.141 0
M  V30 3898 C 377.246 -5.14258 -0.847835 0
M  V30 3899 C 374.574 -5.84852 -0.465326 0
M  V30 3900 C 376.926 -6.32327 -0.185931 0
M  V30 3901 C 375.59 -6.67499 0.0107077 0
M  V30 3902 H 374.86 -0.633881 -0.383765 0
M  V30 3903 H 377.507 -1.88727 -0.324731 0
M  V30 3904 H 375.812 -2.75935 -2.7815 0
M  V30 3905 H 377.509 -3.08401 -2.563 0
M  V30 3906 H 374.099 -4.02262 -1.4793 0
M  V30 3907 H 378.283 -4.86565 -0.978192 0
M  V30 3908 H 373.539 -6.10654 -0.301883 0
M  V30 3909 H 377.713 -6.96135 0.192211 0
M  V30 3910 H 375.34 -7.58306 0.536287 0
M  V30 3911 N 376.915 0.57481 -1.46744 0
M  V30 3912 C 378.192 1.3352 -1.4294 0
M  V30 3913 C 378.572 2.10775 -0.117009 0
M  V30 3914 O 377.92 2.09966 0.901474 0
M  V30 3915 C 378.13 2.25456 -2.66403 0
M  V30 3916 C 379.478 2.87035 -3.12883 0
M  V30 3917 O 380.502 2.35766 -2.67007 0
M  V30 3918 O 379.361 3.80179 -3.92589 0
M  V30 3919 H 376.455 0.600318 -0.568812 0
M  V30 3920 H 379.001 0.595171 -1.58921 0
M  V30 3921 H 377.773 1.67851 -3.53471 0
M  V30 3922 H 377.396 3.06785 -2.52921 0
M  V30 3923 N 378.394 1.34581 0.820102 0
M  V30 3924 C 379.357 1.2628 1.91275 0
M  V30 3925 C 380.357 0.177344 1.59819 0
M  V30 3926 O 381.547 0.430156 1.68806 0
M  V30 3927 C 378.679 0.950327 3.27386 0
M  V30 3928 H 379.872 2.23421 2.00057 0
M  V30 3929 H 377.425 1.1891 1.0144 0
M  V30 3930 H 378.16 -0.0177938 3.24295 0
M  V30 3931 H 377.945 1.73549 3.51601 0
M  V30 3932 H 379.435 0.917492 4.07396 0
M  V30 3933 N 379.872 -1.04064 1.18357 0
M  V30 3934 C 380.805 -2.11618 0.854 0
M  V30 3935 C 381.783 -1.61555 -0.184043 0
M  V30 3936 O 382.967 -1.88395 -0.0630048 0
M  V30 3937 C 380.094 -3.37574 0.27597 0
M  V30 3938 C 379.14 -4.06485 1.2912 0
M  V30 3939 S 379.973 -4.53543 2.84709 0
M  V30 3940 C 381.129 -5.82732 2.28417 0
M  V30 3941 H 381.362 -2.39247 1.76488 0
M  V30 3942 H 378.895 -1.16832 1.00944 0
M  V30 3943 H 380.853 -4.10468 -0.051026 0
M  V30 3944 H 379.514 -3.0806 -0.613028 0
M  V30 3945 H 378.707 -4.97024 0.835633 0
M  V30 3946 H 378.309 -3.39708 1.56443 0
M  V30 3947 H 380.601 -6.56677 1.66677 0
M  V30 3948 H 381.544 -6.33052 3.17256 0
M  V30 3949 H 381.952 -5.37838 1.71436 0
M  V30 3950 N 381.35 -0.985608 -1.22978 0
M  V30 3951 C 382.298 -0.522631 -2.26652 0
M  V30 3952 C 383.292 0.422998 -1.64034 0
M  V30 3953 O 384.498 0.296319 -1.77544 0
M  V30 3954 H 380.873 -0.150597 -0.736766 0
M  V30 3955 H 382.844 -1.40863 -2.63059 0
M  V30 3956 C 381.593 0.154238 -3.47358 0
M  V30 3957 H 380.916 -0.564329 -3.95797 0
M  V30 3958 H 382.356 0.441744 -4.21693 0
M  V30 3959 C 380.815 1.38719 -3.07016 0
M  V30 3960 O 381.345 2.48307 -3.15764 0
M  V30 3961 N 379.551 1.25975 -2.61875 0
M  V30 3962 H 379.098 0.368068 -2.54957 0
M  V30 3963 H 379.056 2.08578 -2.3525 0
M  V30 3964 N 382.828 1.3818 -0.7579 0
M  V30 3965 C 383.776 2.32277 -0.122482 0
M  V30 3966 C 384.77 1.54238 0.700505 0
M  V30 3967 O 385.976 1.69737 0.599119 0
M  V30 3968 H 382.351 0.751712 -0.0208143 0
M  V30 3969 H 384.322 2.83469 -0.932099 0
M  V30 3970 C 383.071 3.39447 0.753076 0
M  V30 3971 H 382.394 3.99591 0.129184 0
M  V30 3972 H 383.834 4.07684 1.16489 0
M  V30 3973 C 382.293 2.78375 1.8976 0
M  V30 3974 O 382.823 2.68025 2.99208 0
M  V30 3975 N 381.029 2.36121 1.69397 0
M  V30 3976 H 380.576 2.4474 0.803762 0
M  V30 3977 H 380.534 1.95602 2.46145 0
M  V30 3978 N 384.306 0.507319 1.49211 0
M  V30 3979 C 385.555 -0.0368315 2.01666 0
M  V30 3980 C 385.868 -1.37459 1.39156 0
M  V30 3981 O 387.074 -2.00579 1.82976 0
M  V30 3982 C 385.53 -0.116089 3.59713 0
M  V30 3983 C 385.138 1.2154 4.31198 0
M  V30 3984 C 386.882 -0.610268 4.2009 0
M  V30 3985 C 384.789 1.09796 5.81119 0
M  V30 3986 H 383.719 -0.0175376 0.753796 0
M  V30 3987 H 386.37 0.647691 1.71689 0
M  V30 3988 H 384.752 -0.8652 3.86433 0
M  V30 3989 H 385.926 1.9783 4.16173 0
M  V30 3990 H 384.241 1.64352 3.82593 0
M  V30 3991 H 386.838 -0.715742 5.29888 0
M  V30 3992 H 387.181 -1.61064 3.8388 0
M  V30 3993 H 387.714 0.0824916 3.97714 0
M  V30 3994 H 384.453 2.0728 6.21864 0
M  V30 3995 H 383.973 0.376058 5.9862 0
M  V30 3996 H 385.652 0.779281 6.4229 0
M  V30 3997 N 385.784 -1.5574 0.241426 0
M  V30 3998 C 387.03 -1.99104 -0.385406 0
M  V30 3999 C 387.363 -1.1293 -1.57988 0
M  V30 4000 O 386.638 -0.191449 -1.93555 0
M  V30 4001 C 386.921 -3.51087 -0.800616 0
M  V30 4002 C 386.774 -4.48028 0.398874 0
M  V30 4003 C 388.093 -4.08015 -1.64959 0
M  V30 4004 H 385.212 -0.723848 -0.138614 0
M  V30 4005 H 387.854 -1.86903 0.341642 0
M  V30 4006 H 386.004 -3.61615 -1.4201 0
M  V30 4007 H 387.676 -4.49487 1.03726 0
M  V30 4008 H 385.919 -4.21077 1.04293 0
M  V30 4009 H 386.59 -5.51962 0.0651056 0
M  V30 4010 H 389.066 -4.00555 -1.12672 0
M  V30 4011 H 387.942 -5.14635 -1.90898 0
M  V30 4012 H 388.203 -3.56131 -2.61961 0
M  V30 4013 N 387.262 0.0317525 -1.57568 0
M  V30 4014 C 388.225 1.01783 -2.0536 0
M  V30 4015 C 389.225 1.29203 -0.957253 0
M  V30 4016 O 390.415 1.24251 -1.22095 0
M  V30 4017 C 387.547 2.35137 -2.46827 0
M  V30 4018 H 388.74 0.605062 -2.93733 0
M  V30 4019 H 386.293 0.278514 -1.53799 0
M  V30 4020 H 387.028 2.81168 -1.61602 0
M  V30 4021 H 386.813 2.16566 -3.26866 0
M  V30 4022 H 388.303 3.05938 -2.84239 0
M  V30 4023 N 388.74 1.54641 0.303973 0
M  V30 4024 C 389.688 1.86137 1.39484 0
M  V30 4025 C 390.682 0.734854 1.52631 0
M  V30 4026 O 391.888 0.918803 1.54784 0
M  V30 4027 H 388.263 0.590324 0.465856 0
M  V30 4028 H 390.234 2.77324 1.10154 0
M  V30 4029 C 388.983 2.12274 2.75382 0
M  V30 4030 H 388.306 2.98429 2.66046 0
M  V30 4031 H 389.746 2.38254 3.5073 0
M  V30 4032 C 388.205 0.920365 3.24085 0
M  V30 4033 O 388.735 0.139377 4.01458 0
M  V30 4034 N 386.941 0.726566 2.81371 0
M  V30 4035 H 386.488 1.36332 2.18567 0
M  V30 4036 H 386.446 -0.0763799 3.14307 0
M  V30 4037 N 390.218 -0.567019 1.47046 0
M  V30 4038 C 391.148 -1.68482 1.61667 0
M  V30 4039 C 392.129 -1.6358 0.466418 0
M  V30 4040 O 393.314 -1.81354 0.694574 0
M  V30 4041 C 390.444 -3.07124 1.62148 0
M  V30 4042 C 389.398 -3.26867 2.76301 0
M  V30 4043 C 388.724 -4.66196 2.61849 0
M  V30 4044 C 390.024 -3.13186 4.17986 0
M  V30 4045 H 391.718 -1.56502 2.5524 0
M  V30 4046 H 389.264 -0.751486 1.22836 0
M  V30 4047 H 391.217 -3.8516 1.70968 0
M  V30 4048 H 389.941 -3.2004 0.651287 0
M  V30 4049 H 388.6 -2.51237 2.66975 0
M  V30 4050 H 388.248 -4.75898 1.62879 0
M  V30 4051 H 387.948 -4.80356 3.38425 0
M  V30 4052 H 389.472 -5.46379 2.72584 0
M  V30 4053 H 390.886 -3.81049 4.2834 0
M  V30 4054 H 389.283 -3.3886 4.95272 0
M  V30 4055 H 390.353 -2.10057 4.3704 0
M  V30 4056 N 391.696 -1.35014 -0.812953 0
M  V30 4057 C 392.626 -1.30069 -1.93919 0
M  V30 4058 C 393.607 -0.176275 -1.69184 0
M  V30 4059 O 394.792 -0.370227 -1.90638 0
M  V30 4060 C 391.922 -1.06547 -3.30552 0
M  V30 4061 C 390.876 -2.15561 -3.69753 0
M  V30 4062 C 390.202 -1.77214 -5.04479 0
M  V30 4063 C 391.502 -3.57476 -3.808 0
M  V30 4064 H 393.196 -2.24303 -1.98314 0
M  V30 4065 H 390.742 -1.07977 -0.952736 0
M  V30 4066 H 392.695 -1.01729 -4.08937 0
M  V30 4067 H 391.419 -0.0875719 -3.26483 0
M  V30 4068 H 390.078 -2.19466 -2.9365 0
M  V30 4069 H 389.726 -0.780589 -4.96906 0
M  V30 4070 H 389.426 -2.50184 -5.31678 0
M  V30 4071 H 390.95 -1.7391 -5.8531 0
M  V30 4072 H 392.364 -3.55929 -4.4943 0
M  V30 4073 H 390.761 -4.29152 -4.19462 0
M  V30 4074 H 391.831 -3.94091 -2.82525 0
M  V30 4075 N 393.175 1.03435 -1.18907 0
M  V30 4076 C 394.105 2.13503 -0.945448 0
M  V30 4077 C 395.086 1.69682 0.119189 0
M  V30 4078 O 396.271 1.94169 -0.034707 0
M  V30 4079 C 393.401 3.44004 -0.477316 0
M  V30 4080 C 392.355 4.0148 -1.48316 0
M  V30 4081 C 391.681 5.27537 -0.872311 0
M  V30 4082 C 392.981 4.36921 -2.86177 0
M  V30 4083 H 394.675 2.34141 -1.86597 0
M  V30 4084 H 392.221 1.12523 -0.898584 0
M  V30 4085 H 394.174 4.20372 -0.294204 0
M  V30 4086 H 392.898 3.23072 0.478786 0
M  V30 4087 H 391.557 3.27201 -1.65332 0
M  V30 4088 H 391.205 5.02917 0.0911752 0
M  V30 4089 H 390.905 5.66954 -1.54393 0
M  V30 4090 H 392.429 6.06576 -0.699871 0
M  V30 4091 H 393.843 5.04248 -2.72776 0
M  V30 4092 H 392.24 4.87405 -3.50081 0
M  V30 4093 H 393.31 3.46466 -3.39248 0
M  V30 4094 N 394.653 0.992116 1.22453 0
M  V30 4095 C 395.601 0.534644 2.26372 0
M  V30 4096 C 396.595 -0.414293 1.64256 0
M  V30 4097 O 397.801 -0.286899 1.77699 0
M  V30 4098 H 394.176 0.154502 0.735957 0
M  V30 4099 H 396.147 1.42256 2.62309 0
M  V30 4100 C 394.896 -0.135815 3.47435 0
M  V30 4101 H 394.219 0.585311 3.95492 0
M  V30 4102 H 395.659 -0.419374 4.21921 0
M  V30 4103 C 394.118 -1.37089 3.07747 0
M  V30 4104 O 394.648 -2.46629 3.17076 0
M  V30 4105 N 392.854 -1.24585 2.62539 0
M  V30 4106 H 392.401 -0.354542 2.55149 0
M  V30 4107 H 392.359 -2.07327 2.36353 0
M  V30 4108 N 396.131 -1.37776 0.765217 0
M  V30 4109 C 397.061 -2.32945 0.160953 0
M  V30 4110 C 398.042 -1.55454 -0.690516 0
M  V30 4111 O 399.227 -1.83721 -0.629318 0
M  V30 4112 C 396.357 -3.39669 -0.724031 0
M  V30 4113 C 395.311 -4.27992 0.0256173 0
M  V30 4114 C 394.637 -5.25673 -0.978383 0
M  V30 4115 C 395.937 -5.08309 1.20082 0
M  V30 4116 H 397.631 -2.83728 0.955969 0
M  V30 4117 H 395.177 -1.36416 0.461149 0
M  V30 4118 H 397.13 -4.05219 -1.15652 0
M  V30 4119 H 395.854 -2.87396 -1.5515 0
M  V30 4120 H 394.513 -3.63964 0.438812 0
M  V30 4121 H 394.161 -4.69682 -1.80022 0
M  V30 4122 H 393.861 -5.85625 -0.481378 0
M  V30 4123 H 395.385 -5.94098 -1.40995 0
M  V30 4124 H 396.799 -5.67034 0.845307 0
M  V30 4125 H 395.196 -5.77554 1.62947 0
M  V30 4126 H 396.266 -4.41365 2.00811 0
M  V30 4127 N 397.609 -0.515225 -1.4894 0
M  V30 4128 C 398.837 0.0206034 -2.0689 0
M  V30 4129 C 399.252 1.29514 -1.37374 0
M  V30 4130 O 398.609 1.76698 -0.456529 0
M  V30 4131 C 398.66 0.26351 -3.60538 0
M  V30 4132 O 398.381 -0.960517 -4.27441 0
M  V30 4133 C 399.882 0.841383 -4.35242 0
M  V30 4134 H 397.102 -0.0268608 -0.670462 0
M  V30 4135 H 399.646 -0.716651 -1.91532 0
M  V30 4136 H 397.801 0.950777 -3.75552 0
M  V30 4137 H 398.215 -0.73212 -5.19365 0
M  V30 4138 H 399.689 0.96085 -5.43573 0
M  V30 4139 H 400.166 1.8427 -3.98674 0
M  V30 4140 H 400.772 0.191143 -4.2487 0
M  V30 4141 N 399.087 1.5561 -0.249682 0
M  V30 4142 C 400.312 2.03865 0.381305 0
M  V30 4143 C 400.737 1.12769 1.50548 0
M  V30 4144 O 400.095 0.121189 1.80895 0
M  V30 4145 C 400.143 3.50101 0.863816 0
M  V30 4146 O 399.247 3.62132 1.97318 0
M  V30 4147 H 398.588 0.658827 0.0827194 0
M  V30 4148 H 401.118 2.01105 -0.376552 0
M  V30 4149 H 401.128 3.90975 1.1663 0
M  V30 4150 H 399.803 4.1588 0.0411816 0
M  V30 4151 H 398.38 3.33155 1.67517 0
M  V30 4152 N 400.565 -0.0233959 1.57583 0
M  V30 4153 C 401.79 -0.728376 1.94189 0
M  V30 4154 C 402.215 -1.67793 0.850119 0
M  V30 4155 O 401.573 -1.80262 -0.19371 0
M  V30 4156 C 401.621 -1.45669 3.29868 0
M  V30 4157 O 400.725 -2.57013 3.22518 0
M  V30 4158 H 400.066 -0.195493 0.63457 0
M  V30 4159 H 402.596 0.0228214 2.04587 0
M  V30 4160 H 402.606 -1.82535 3.6489 0
M  V30 4161 H 401.281 -0.760314 4.08891 0
M  V30 4162 H 399.858 -2.22648 2.99136 0
M  V30 4163 N 402.043 -1.548 -0.295768 0
M  V30 4164 C 403.006 -1.85363 -1.34808 0
M  V30 4165 C 404.006 -0.726817 -1.43436 0
M  V30 4166 O 405.196 -0.995088 -1.42981 0
M  V30 4167 C 402.328 -2.03859 -2.73229 0
M  V30 4168 H 403.521 -2.7941 -1.08949 0
M  V30 4169 H 401.074 -1.46942 -0.532702 0
M  V30 4170 H 401.809 -1.12117 -3.04303 0
M  V30 4171 H 401.594 -2.8588 -2.68356 0
M  V30 4172 H 403.084 -2.28857 -3.49305 0
M  V30 4173 N 403.521 0.559213 -1.47345 0
M  V30 4174 C 404.937 0.884943 -1.32819 0
M  V30 4175 C 405.137 1.98988 -0.317173 0
M  V30 4176 O 404.193 2.51031 0.272011 0
M  V30 4177 C 405.506 1.28007 -2.72093 0
M  V30 4178 C 407.054 1.39161 -2.80363 0
M  V30 4179 C 407.529 1.82031 -4.20272 0
M  V30 4180 N 409.02 1.89185 -4.22804 0
M  V30 4181 C 409.755 2.2368 -5.27973 0
M  V30 4182 N 409.251 2.56802 -6.43447 0
M  V30 4183 N 411.044 2.24436 -5.15349 0
M  V30 4184 H 403.195 -0.170304 -2.11716 0
M  V30 4185 H 405.458 -0.0135247 -0.947904 0
M  V30 4186 H 405.164 0.542027 -3.47498 0
M  V30 4187 H 405.038 2.23665 -3.03733 0
M  V30 4188 H 407.425 2.12048 -2.05231 0
M  V30 4189 H 407.506 0.41696 -2.52379 0
M  V30 4190 H 407.15 1.09715 -4.95908 0
M  V30 4191 H 407.08 2.80495 -4.45679 0
M  V30 4192 H 409.571 1.65982 -3.39497 0
M  V30 4193 H 409.884 2.82144 -7.19454 0
M  V30 4194 H 408.229 2.54387 -6.46771 0
M  V30 4195 H 411.42 1.97998 -4.24163 0
M  V30 4196 H 411.593 2.50989 -5.97418 0
M  V30 4197 N 404.999 1.35443 0.805782 0
M  V30 4198 C 406.246 1.28761 1.56291 0
M  V30 4199 C 406.574 -0.137747 1.94012 0
M  V30 4200 O 405.829 -1.1032 1.61642 0
M  V30 4201 C 406.128 2.14045 2.86216 0
M  V30 4202 C 405.794 3.62826 2.67709 0
M  V30 4203 C 404.456 4.0338 2.6237 0
M  V30 4204 C 406.808 4.57227 2.50186 0
M  V30 4205 C 404.136 5.36501 2.37451 0
M  V30 4206 C 406.488 5.90547 2.26797 0
M  V30 4207 C 405.152 6.30245 2.1988 0
M  V30 4208 H 404.422 0.471171 0.571908 0
M  V30 4209 H 407.069 1.67347 0.930974 0
M  V30 4210 H 405.374 1.68342 3.53791 0
M  V30 4211 H 407.071 2.0621 3.43917 0
M  V30 4212 H 403.661 3.30644 2.72713 0
M  V30 4213 H 407.845 4.2678 2.53323 0
M  V30 4214 H 403.101 5.66259 2.30567 0
M  V30 4215 H 407.275 6.63274 2.12228 0
M  V30 4216 H 404.902 7.33328 2.00333 0
M  V30 4217 N 406.477 -1.02803 1.19454 0
M  V30 4218 C 407.387 -2.14575 0.948408 0
M  V30 4219 C 408.403 -1.73757 -0.091871 0
M  V30 4220 O 409.579 -2.01185 0.0929654 0
M  V30 4221 C 406.644 -3.43202 0.491265 0
M  V30 4222 C 405.705 -3.98328 1.60103 0
M  V30 4223 C 404.938 -5.20816 1.16561 0
M  V30 4224 O 405.161 -5.70392 0.0295238 0
M  V30 4225 O 404.095 -5.68801 1.96849 0
M  V30 4226 H 407.921 -2.38202 1.88397 0
M  V30 4227 H 405.506 -1.12989 0.977433 0
M  V30 4228 H 407.388 -4.20687 0.245015 0
M  V30 4229 H 406.063 -3.21018 -0.415851 0
M  V30 4230 H 404.97 -3.22174 1.90144 0
M  V30 4231 H 406.303 -4.24879 2.48473 0
M  V30 4232 N 407.956 -0.998596 -1.21925 0
M  V30 4233 C 409.204 -0.676325 -1.90448 0
M  V30 4234 C 409.525 0.794719 -1.78071 0
M  V30 4235 O 408.795 1.5701 -1.17152 0
M  V30 4236 H 407.375 -0.247165 -0.704925 0
M  V30 4237 H 410.037 -1.26633 -1.48156 0
M  V30 4238 H 409.133 -0.943858 -2.97486 0
M  V30 4239 N 409.434 1.37368 -0.772513 0
M  V30 4240 C 410.659 2.0447 -0.347386 0
M  V30 4241 C 411.084 1.57882 1.0225 0
M  V30 4242 O 410.442 0.73941 1.65537 0
M  V30 4243 C 410.49 3.58369 -0.400479 0
M  V30 4244 O 409.594 4.0803 0.598789 0
M  V30 4245 H 408.935 0.646773 -0.15027 0
M  V30 4246 H 411.465 1.75667 -1.04892 0
M  V30 4247 H 411.475 4.07183 -0.258045 0
M  V30 4248 H 410.15 3.91633 -1.39986 0
M  V30 4249 H 408.727 3.70534 0.419411 0
M  V30 4250 N 410.912 0.523116 1.48665 0
M  V30 4251 C 411.842 -0.23231 2.32342 0
M  V30 4252 C 412.823 -0.941637 1.41659 0
M  V30 4253 O 414.008 -0.928751 1.70552 0
M  V30 4254 C 411.138 -1.28387 3.22698 0
M  V30 4255 C 410.092 -0.693098 4.22351 0
M  V30 4256 C 409.418 -1.8468 5.01794 0
M  V30 4257 C 410.718 0.33063 5.21252 0
M  V30 4258 H 412.412 0.466192 2.95748 0
M  V30 4259 H 409.958 0.225643 1.42221 0
M  V30 4260 H 411.911 -1.82024 3.80059 0
M  V30 4261 H 410.635 -2.01186 2.57278 0
M  V30 4262 H 409.294 -0.178299 3.66166 0
M  V30 4263 H 408.942 -2.56301 4.32804 0
M  V30 4264 H 408.642 -1.45747 5.69238 0
M  V30 4265 H 410.166 -2.38709 5.62006 0
M  V30 4266 H 411.58 -0.118407 5.73178 0
M  V30 4267 H 409.977 0.636974 5.9671 0
M  V30 4268 H 411.047 1.23883 4.68808 0
M  V30 4269 N 412.39 -1.55475 0.257931 0
M  V30 4270 C 413.338 -2.23244 -0.653076 0
M  V30 4271 C 414.332 -1.22366 -1.17144 0
M  V30 4272 O 415.538 -1.40347 -1.12706 0
M  V30 4273 H 411.913 -0.716247 -0.229117 0
M  V30 4274 H 413.884 -2.98343 -0.0584788 0
M  V30 4275 C 412.633 -2.95401 -1.83395 0
M  V30 4276 H 411.956 -3.72802 -1.44424 0
M  V30 4277 H 413.396 -3.46165 -2.44838 0
M  V30 4278 C 411.855 -1.99895 -2.71189 0
M  V30 4279 O 412.385 -1.53909 -3.71046 0
M  V30 4280 N 410.591 -1.6676 -2.3799 0
M  V30 4281 H 410.138 -2.04352 -1.56837 0
M  V30 4282 H 410.096 -1.03127 -2.97005 0
M  V30 4283 N 413.868 0.0150385 -1.57593 0
M  V30 4284 C 414.801 1.04475 -2.0288 0
M  V30 4285 C 415.779 1.3436 -0.915764 0
M  V30 4286 O 416.963 1.46779 -1.18271 0
M  V30 4287 C 414.09 2.37608 -2.41371 0
M  V30 4288 C 413.136 2.23487 -3.63257 0
M  V30 4289 S 413.969 1.57505 -5.11813 0
M  V30 4290 C 415.125 2.921 -5.5356 0
M  V30 4291 H 415.358 0.65907 -2.89903 0
M  V30 4292 H 412.891 0.225452 -1.52745 0
M  V30 4293 H 414.849 3.14165 -2.64217 0
M  V30 4294 H 413.51 2.7332 -1.54775 0
M  V30 4295 H 412.703 3.21802 -3.87891 0
M  V30 4296 H 412.305 1.55074 -3.40335 0
M  V30 4297 H 414.597 3.88419 -5.55101 0
M  V30 4298 H 415.54 2.72184 -6.53698 0
M  V30 4299 H 415.948 2.95318 -4.8109 0
M  V30 4300 N 415.346 1.54954 0.287554 0
M  V30 4301 C 416.623 1.65569 1.04146 0
M  V30 4302 C 417.003 0.512672 2.0478 0
M  V30 4303 O 416.351 -0.489038 2.23205 0
M  V30 4304 C 416.561 3.04163 1.71131 0
M  V30 4305 C 417.909 3.61429 2.22832 0
M  V30 4306 O 418.933 3.06702 1.81141 0
M  V30 4307 O 417.792 4.57281 2.9926 0
M  V30 4308 H 414.886 0.671881 0.482188 0
M  V30 4309 H 417.432 1.67297 0.28457 0
M  V30 4310 H 416.204 3.78796 0.981303 0
M  V30 4311 H 415.827 3.06271 2.53543 0
M  V30 4312 N 416.824 -0.551391 1.4764 0
M  V30 4313 C 417.754 -1.66757 1.63445 0
M  V30 4314 C 418.735 -1.63077 0.483742 0
M  V30 4315 O 419.92 -1.80607 0.71377 0
M  V30 4316 C 417.05 -3.05387 1.65396 0
M  V30 4317 C 416.004 -3.23918 2.79752 0
M  V30 4318 C 415.33 -4.63393 2.66779 0
M  V30 4319 C 416.63 -3.08735 4.21284 0
M  V30 4320 H 418.324 -1.53786 2.56886 0
M  V30 4321 H 415.87 -0.738415 1.23626 0
M  V30 4322 H 417.823 -3.83325 1.75043 0
M  V30 4323 H 416.547 -3.19332 0.685195 0
M  V30 4324 H 415.206 -2.48391 2.69625 0
M  V30 4325 H 414.854 -4.74144 1.67918 0
M  V30 4326 H 414.554 -4.7674 3.43501 0
M  V30 4327 H 416.078 -5.43458 2.78364 0
M  V30 4328 H 417.492 -3.76484 4.32357 0
M  V30 4329 H 415.889 -3.33588 4.98838 0
M  V30 4330 H 416.959 -2.0541 4.39243 0
M  V30 4331 N 418.302 -1.35869 -0.798587 0
M  V30 4332 C 419.25 -1.29491 -1.93222 0
M  V30 4333 C 420.244 -0.18836 -1.6835 0
M  V30 4334 O 421.45 -0.354822 -1.76468 0
M  V30 4335 H 417.825 -0.402901 -0.63496 0
M  V30 4336 H 419.796 -2.25247 -1.9572 0
M  V30 4337 C 418.545 -1.09184 -3.30112 0
M  V30 4338 H 417.868 -1.93574 -3.49813 0
M  V30 4339 H 419.308 -1.08766 -4.09812 0
M  V30 4340 C 417.767 0.203959 -3.36282 0
M  V30 4341 O 418.297 1.19699 -3.83451 0
M  V30 4342 N 416.503 0.245488 -2.89561 0
M  V30 4343 H 416.05 -0.563223 -2.51367 0
M  V30 4344 H 416.008 1.11219 -2.94071 0
M  V30 4345 N 419.78 1.02168 -1.19998 0
M  V30 4346 C 420.69 2.14069 -0.959774 0
M  V30 4347 C 421.706 1.73804 0.082655 0
M  V30 4348 O 422.882 2.01133 -0.103633 0
M  V30 4349 C 419.947 3.42936 -0.509459 0
M  V30 4350 C 419.008 3.97474 -1.62213 0
M  V30 4351 C 418.241 5.2019 -1.19321 0
M  V30 4352 O 418.464 5.70369 -0.0597726 0
M  V30 4353 O 417.398 5.67749 -1.99863 0
M  V30 4354 H 421.224 2.37199 -1.89658 0
M  V30 4355 H 418.809 1.12469 -0.983411 0
M  V30 4356 H 420.691 4.20551 -0.267322 0
M  V30 4357 H 419.366 3.21234 0.398821 0
M  V30 4358 H 418.273 3.21161 -1.9185 0
M  V30 4359 H 419.606 4.23555 -2.50723 0
M  V30 4360 N 421.258 1.00505 1.21394 0
M  V30 4361 C 422.507 0.683159 1.89778 0
M  V30 4362 C 422.82 -0.789471 1.7896 0
M  V30 4363 O 424.026 -1.22344 2.42372 0
M  V30 4364 C 422.482 1.17146 3.40301 0
M  V30 4365 C 422.09 2.67017 3.5973 0
M  V30 4366 C 423.834 0.924461 4.14311 0
M  V30 4367 C 421.741 3.09387 5.04017 0
M  V30 4368 H 420.671 0.25183 0.710702 0
M  V30 4369 H 423.322 1.21622 1.37406 0
M  V30 4370 H 421.704 0.566451 3.91928 0
M  V30 4371 H 422.878 3.32968 3.18542 0
M  V30 4372 H 421.193 2.89732 2.99073 0
M  V30 4373 H 423.79 1.21658 5.20676 0
M  V30 4374 H 424.133 -0.139286 4.16067 0
M  V30 4375 H 424.666 1.49226 3.6875 0
M  V30 4376 H 421.405 4.14989 5.07409 0
M  V30 4377 H 420.925 2.48149 5.46061 0
M  V30 4378 H 422.604 3.01371 5.72525 0
M  V30 4379 N 422.737 -1.36956 0.779787 0
M  V30 4380 C 423.962 -2.04283 0.358224 0
M  V30 4381 C 424.387 -1.58422 -1.01411 0
M  V30 4382 O 423.745 -0.748179 -1.65142 0
M  V30 4383 C 423.793 -3.58152 0.419479 0
M  V30 4384 O 422.897 -4.08342 -0.577142 0
M  V30 4385 H 422.238 -0.645967 0.153698 0
M  V30 4386 H 424.768 -1.75108 1.05822 0
M  V30 4387 H 424.778 -4.07041 0.279636 0
M  V30 4388 H 423.453 -3.90886 1.42061 0
M  V30 4389 H 422.03 -3.70751 -0.399755 0
M  V30 4390 N 424.215 -0.530993 -1.48385 0
M  V30 4391 C 425.148 0.278511 -2.26494 0
M  V30 4392 C 426.126 0.943905 -1.32398 0
M  V30 4393 O 427.31 0.968098 -1.61741 0
M  V30 4394 C 424.437 1.39453 -3.08659 0
M  V30 4395 C 423.483 0.840434 -4.18137 0
M  V30 4396 S 424.316 -0.292496 -5.34701 0
M  V30 4397 C 425.472 0.825973 -6.20426 0
M  V30 4398 H 425.705 -0.384365 -2.94805 0
M  V30 4399 H 423.238 -0.316799 -1.51115 0
M  V30 4400 H 425.196 2.03382 -3.56575 0
M  V30 4401 H 423.857 2.02913 -2.3976 0
M  V30 4402 H 423.05 1.67769 -4.75257 0
M  V30 4403 H 422.652 0.277819 -3.72967 0
M  V30 4404 H 424.944 1.72438 -6.55188 0
M  V30 4405 H 425.887 0.292728 -7.07495 0
M  V30 4406 H 426.295 1.10683 -5.53543 0
M  V30 4407 N 425.693 1.55336 -0.266172 0
M  V30 4408 C 426.641 2.23587 0.641228 0
M  V30 4409 C 427.635 1.22986 1.16494 0
M  V30 4410 O 428.841 1.40943 1.1196 0
M  V30 4411 H 425.216 0.717452 0.225315 0
M  V30 4412 H 427.187 2.9837 0.0426561 0
M  V30 4413 C 425.936 2.96369 1.81826 0
M  V30 4414 H 425.259 3.73563 1.42445 0
M  V30 4415 H 426.699 3.47459 2.42998 0
M  V30 4416 C 425.158 2.0133 2.70125 0
M  V30 4417 O 425.688 1.55875 3.70224 0
M  V30 4418 N 423.894 1.6802 2.37102 0
M  V30 4419 H 423.441 2.05181 1.55751 0
M  V30 4420 H 423.399 1.047 2.96454 0
M  V30 4421 N 427.171 -0.0066808 1.57599 0
M  V30 4422 C 428.101 -0.999296 2.11036 0
M  V30 4423 C 429.082 -1.36278 1.01795 0
M  V30 4424 O 430.267 -1.4477 1.29442 0
M  V30 4425 C 427.397 -2.29328 2.60818 0
M  V30 4426 C 426.351 -2.07159 3.74525 0
M  V30 4427 C 425.677 -3.42512 4.10596 0
M  V30 4428 C 426.977 -1.43959 5.02069 0
M  V30 4429 H 428.671 -0.554382 2.94223 0
M  V30 4430 H 426.217 -0.265221 1.41536 0
M  V30 4431 H 428.17 -2.99117 2.96828 0
M  V30 4432 H 426.894 -2.7592 1.74745 0
M  V30 4433 H 425.553 -1.39797 3.38899 0
M  V30 4434 H 425.201 -3.86795 3.21556 0
M  V30 4435 H 424.901 -3.28498 4.87199 0
M  V30 4436 H 426.425 -4.13628 4.4916 0
M  V30 4437 H 427.839 -2.03696 5.35893 0
M  V30 4438 H 426.236 -1.40452 5.83432 0
M  V30 4439 H 427.306 -0.407992 4.83181 0
M  V30 4440 N 428.649 -1.55105 -0.279332 0
M  V30 4441 C 429.895 -1.75672 -1.01327 0
M  V30 4442 C 430.228 -0.552739 -1.86168 0
M  V30 4443 O 429.503 0.449827 -1.89227 0
M  V30 4444 C 429.786 -3.05825 -1.90114 0
M  V30 4445 C 429.639 -4.36565 -1.08309 0
M  V30 4446 C 430.958 -3.31975 -2.8893 0
M  V30 4447 H 428.077 -0.639149 -0.366957 0
M  V30 4448 H 430.719 -1.87833 -0.286154 0
M  V30 4449 H 428.869 -2.95588 -2.52111 0
M  V30 4450 H 430.541 -4.58751 -0.484314 0
M  V30 4451 H 428.784 -4.32076 -0.386362 0
M  V30 4452 H 429.455 -5.23946 -1.73737 0
M  V30 4453 H 431.931 -3.41963 -2.37067 0
M  V30 4454 H 430.807 -4.2432 -3.48201 0
M  V30 4455 H 431.068 -2.51309 -3.63725 0
M  V30 4456 N 430.127 0.543554 -1.4793 0
M  V30 4457 C 431.538 1.12561 -1.48953 0
M  V30 4458 C 431.889 1.94578 -0.251754 0
M  V30 4459 O 431.014 2.0665 0.642255 0
M  V30 4460 C 431.609 2.04801 -2.69892 0
M  V30 4461 C 430.168 2.58251 -2.73831 0
M  V30 4462 C 429.315 1.34918 -2.42265 0
M  V30 4463 H 432.266 0.32947 -1.55242 0
M  V30 4464 H 432.287 2.88886 -2.47639 0
M  V30 4465 H 431.799 1.4508 -3.59963 0
M  V30 4466 H 429.9 3.21732 -1.87934 0
M  V30 4467 H 430.013 2.98312 -3.74895 0
M  V30 4468 H 428.377 1.66046 -1.93134 0
M  V30 4469 H 429.16 0.769693 -3.3456 0
M  V30 4470 N 431.605 1.3629 0.791371 0
M  V30 4471 C 432.852 1.30412 1.54916 0
M  V30 4472 C 433.18 -0.117162 1.94147 0
M  V30 4473 O 432.435 -1.08599 1.62803 0
M  V30 4474 C 432.734 2.17068 2.8393 0
M  V30 4475 C 432.4 3.65645 2.63846 0
M  V30 4476 C 431.062 4.0614 2.58077 0
M  V30 4477 C 433.414 4.59855 2.45322 0
M  V30 4478 C 430.742 5.3899 2.31748 0
M  V30 4479 C 433.094 5.9292 2.2052 0
M  V30 4480 C 431.758 6.32542 2.13183 0
M  V30 4481 H 431.028 0.47721 0.566879 0
M  V30 4482 H 433.675 1.68325 0.913172 0
M  V30 4483 H 431.98 1.72085 3.51986 0
M  V30 4484 H 433.677 2.09846 3.4171 0
M  V30 4485 H 430.267 3.33518 2.69191 0
M  V30 4486 H 434.451 4.29443 2.48782 0
M  V30 4487 H 429.707 5.68672 2.24548 0
M  V30 4488 H 433.881 6.65487 2.05182 0
M  V30 4489 H 431.508 7.35412 1.92544 0
M  V30 4490 N 433.083 -1.0153 1.20538 0
M  V30 4491 C 434.494 -1.56598 1.01657 0
M  V30 4492 C 434.845 -1.91505 -0.426668 0
M  V30 4493 O 433.97 -1.72375 -1.30827 0
M  V30 4494 C 434.565 -2.84542 1.83905 0
M  V30 4495 C 433.124 -3.36133 1.69386 0
M  V30 4496 C 432.271 -2.09427 1.81757 0
M  V30 4497 H 435.222 -0.838974 1.34711 0
M  V30 4498 H 435.243 -3.56004 1.34319 0
M  V30 4499 H 434.755 -2.59105 2.8894 0
M  V30 4500 H 432.856 -3.66528 0.669933 0
M  V30 4501 H 432.969 -4.08248 2.50739 0
M  V30 4502 H 431.333 -2.21941 1.24957 0
M  V30 4503 H 432.116 -1.86414 2.88279 0
M  V30 4504 N 434.561 -1.01147 -1.20859 0
M  V30 4505 C 435.493 -0.535546 -2.22855 0
M  V30 4506 C 436.506 0.379323 -1.58319 0
M  V30 4507 O 437.695 0.178489 -1.77605 0
M  V30 4508 C 434.795 0.240962 -3.38042 0
M  V30 4509 C 433.968 -0.674562 -4.32167 0
M  V30 4510 C 433.027 0.053467 -5.26173 0
M  V30 4511 O 432.053 -0.567339 -5.66366 0
M  V30 4512 N 433.255 1.32997 -5.65059 0
M  V30 4513 H 436.02 -1.41268 -2.64317 0
M  V30 4514 H 433.581 -0.888386 -1.35349 0
M  V30 4515 H 435.573 0.737115 -3.97931 0
M  V30 4516 H 434.143 1.01935 -2.95513 0
M  V30 4517 H 433.363 -1.35111 -3.70322 0
M  V30 4518 H 434.651 -1.2974 -4.91981 0
M  V30 4519 H 434.049 1.85536 -5.34409 0
M  V30 4520 H 432.606 1.77095 -6.2728 0
M  V30 4521 N 436.039 1.36541 -0.78704 0
M  V30 4522 C 436.969 2.32659 -0.197992 0
M  V30 4523 C 437.95 1.56533 0.665697 0
M  V30 4524 O 439.135 1.84698 0.60001 0
M  V30 4525 C 436.265 3.40778 0.669901 0
M  V30 4526 C 435.219 4.27897 -0.0937039 0
M  V30 4527 C 434.545 5.27163 0.894629 0
M  V30 4528 C 435.845 5.06334 -1.28154 0
M  V30 4529 H 437.539 2.82171 -1.00099 0
M  V30 4530 H 435.085 1.35665 -0.482793 0
M  V30 4531 H 437.038 4.07008 1.09191 0
M  V30 4532 H 435.762 2.89827 1.50558 0
M  V30 4533 H 434.421 3.6322 -0.49666 0
M  V30 4534 H 434.069 4.72486 1.72527 0
M  V30 4535 H 433.769 5.86317 0.388149 0
M  V30 4536 H 435.293 5.96266 1.31525 0
M  V30 4537 H 436.707 5.65617 -0.93541 0
M  V30 4538 H 435.104 5.74888 -1.72115 0
M  V30 4539 H 436.174 4.38114 -2.07807 0
M  V30 4540 N 437.518 0.538854 1.48102 0
M  V30 4541 C 438.468 -0.23907 2.26743 0
M  V30 4542 C 439.452 -0.901923 1.33245 0
M  V30 4543 O 440.644 -0.803263 1.57723 0
M  V30 4544 C 437.773 -1.2799 3.18549 0
M  V30 4545 C 436.859 -0.621388 4.19523 0
M  V30 4546 N 437.25 0.298004 5.04921 0
M  V30 4547 C 435.548 -0.877533 4.37282 0
M  V30 4548 C 436.249 0.678757 5.77726 0
M  V30 4549 N 435.225 0.0377881 5.43587 0
M  V30 4550 H 439.027 0.468096 2.90148 0
M  V30 4551 H 436.541 0.357497 1.58416 0
M  V30 4552 H 438.538 -1.851 3.73555 0
M  V30 4553 H 437.198 -1.98835 2.567 0
M  V30 4554 H 438.209 0.671126 5.13533 0
M  V30 4555 H 434.886 -1.57588 3.86616 0
M  V30 4556 H 436.276 1.43316 6.56437 0
M  V30 4557 N 438.996 -1.55193 0.274407 0
M  V30 4558 C 440.226 -2.03692 -0.345442 0
M  V30 4559 C 440.634 -1.15224 -1.50067 0
M  V30 4560 O 439.977 -0.164749 -1.8296 0
M  V30 4561 C 440.039 -3.48325 -0.88939 0
M  V30 4562 C 439.703 -4.56794 0.137115 0
M  V30 4563 C 440.7 -5.11028 0.956378 0
M  V30 4564 C 438.385 -5.01568 0.27115 0
M  V30 4565 C 440.379 -6.08552 1.89587 0
M  V30 4566 C 438.066 -5.98918 1.21412 0
M  V30 4567 C 439.064 -6.52291 2.02498 0
M  V30 4568 O 438.752 -7.47738 2.952 0
M  V30 4569 H 438.484 -0.670893 -0.0829332 0
M  V30 4570 H 441.038 -2.01387 0.404056 0
M  V30 4571 H 439.268 -3.47867 -1.68895 0
M  V30 4572 H 440.957 -3.80167 -1.42225 0
M  V30 4573 H 441.723 -4.7725 0.863559 0
M  V30 4574 H 437.602 -4.5967 -0.349987 0
M  V30 4575 H 441.146 -6.50137 2.52918 0
M  V30 4576 H 437.043 -6.32114 1.30776 0
M  V30 4577 H 437.811 -7.65451 2.89874 0
M  V30 4578 N 440.474 -0.00167713 -1.576 0
M  V30 4579 C 441.404 0.988091 -2.11563 0
M  V30 4580 C 442.385 1.35736 -1.02517 0
M  V30 4581 O 443.57 1.44082 -1.30208 0
M  V30 4582 C 440.7 2.27941 -2.62031 0
M  V30 4583 C 439.654 2.0517 -3.75619 0
M  V30 4584 C 438.98 3.4033 -4.12407 0
M  V30 4585 C 440.28 1.41294 -5.02825 0
M  V30 4586 H 441.974 0.538771 -2.94513 0
M  V30 4587 H 439.52 0.257712 -1.41675 0
M  V30 4588 H 441.473 2.97539 -2.9841 0
M  V30 4589 H 440.197 2.74989 -1.76205 0
M  V30 4590 H 438.856 1.37998 -3.39635 0
M  V30 4591 H 438.504 3.85085 -3.23603 0
M  V30 4592 H 438.204 3.25909 -4.88935 0
M  V30 4593 H 439.728 4.1124 -4.51347 0
M  V30 4594 H 441.142 2.00851 -5.36965 0
M  V30 4595 H 439.539 1.37356 -5.84169 0
M  V30 4596 H 440.609 0.382362 -4.8339 0
M  V30 4597 N 441.952 1.55251 0.271103 0
M  V30 4598 C 443.198 1.76207 1.00394 0
M  V30 4599 C 443.531 0.562604 1.85872 0
M  V30 4600 O 442.806 -0.439785 1.89463 0
M  V30 4601 C 443.089 3.06828 1.8849 0
M  V30 4602 C 442.942 4.37134 1.05992 0
M  V30 4603 C 444.261 3.33503 2.87165 0
M  V30 4604 H 441.38 0.641086 0.363562 0
M  V30 4605 H 444.022 1.87982 0.276189 0
M  V30 4606 H 442.172 2.96921 2.5054 0
M  V30 4607 H 443.844 4.59001 0.459978 0
M  V30 4608 H 442.087 4.32275 0.363443 0
M  V30 4609 H 442.758 5.2486 1.70955 0
M  V30 4610 H 445.234 3.43215 2.3525 0
M  V30 4611 H 444.11 4.2616 3.45946 0
M  V30 4612 H 444.371 2.53235 3.62387 0
M  V30 4613 N 443.43 -0.535701 1.48216 0
M  V30 4614 C 444.655 -1.32149 1.59848 0
M  V30 4615 C 445.08 -1.86338 0.256842 0
M  V30 4616 O 444.438 -1.64107 -0.770632 0
M  V30 4617 C 444.486 -2.45224 2.64381 0
M  V30 4618 O 443.59 -3.48093 2.21144 0
M  V30 4619 H 442.931 -0.391634 0.536208 0
M  V30 4620 H 445.461 -0.645202 1.94161 0
M  V30 4621 H 445.471 -2.91491 2.85476 0
M  V30 4622 H 444.146 -2.05143 3.61786 0
M  V30 4623 H 442.723 -3.07984 2.10239 0
M  V30 4624 N 444.908 -1.36708 -0.784132 0
M  V30 4625 C 446.133 -1.34565 -1.5782 0
M  V30 4626 C 446.558 0.0695257 -1.87971 0
M  V30 4627 O 445.916 1.04302 -1.48293 0
M  V30 4628 C 445.964 -2.17952 -2.87279 0
M  V30 4629 O 445.068 -1.57563 -3.81114 0
M  V30 4630 H 444.409 -0.460337 -0.478524 0
M  V30 4631 H 446.939 -1.80064 -0.971495 0
M  V30 4632 H 446.949 -2.30721 -3.365 0
M  V30 4633 H 445.624 -3.20823 -2.64661 0
M  V30 4634 H 444.201 -1.53764 -3.39722 0
M  V30 4635 N 446.386 1.0089 -1.21074 0
M  V30 4636 C 447.316 2.1145 -0.990523 0
M  V30 4637 C 448.297 1.69897 0.0831699 0
M  V30 4638 O 449.482 1.94052 -0.0758853 0
M  V30 4639 C 446.612 3.42914 -0.550177 0
M  V30 4640 C 445.566 3.98244 -1.56799 0
M  V30 4641 C 444.892 5.25568 -0.984013 0
M  V30 4642 C 446.192 4.30752 -2.95381 0
M  V30 4643 H 447.886 2.3013 -1.91521 0
M  V30 4644 H 445.432 1.10592 -0.92225 0
M  V30 4645 H 447.385 4.19653 -0.383305 0
M  V30 4646 H 446.109 3.24014 0.41015 0
M  V30 4647 H 444.768 3.23621 -1.72236 0
M  V30 4648 H 444.416 5.02998 -0.0155216 0
M  V30 4649 H 444.116 5.63551 -1.66384 0
M  V30 4650 H 445.64 6.04955 -0.828378 0
M  V30 4651 H 447.054 4.98349 -2.8341 0
M  V30 4652 H 445.451 4.79869 -3.60341 0
M  V30 4653 H 446.521 3.39192 -3.46521 0
M  V30 4654 N 447.864 1.01787 1.20321 0
M  V30 4655 C 449.092 0.727194 1.937 0
M  V30 4656 C 449.507 -0.712305 1.74848 0
M  V30 4657 O 448.864 -1.48327 1.06327 0
M  V30 4658 C 448.915 1.05497 3.45764 0
M  V30 4659 O 448.636 2.43794 3.64 0
M  V30 4660 C 450.137 0.785534 4.36285 0
M  V30 4661 H 447.357 0.266939 0.615617 0
M  V30 4662 H 449.901 1.35939 1.52777 0
M  V30 4663 H 448.056 0.468158 3.84561 0
M  V30 4664 H 448.47 2.55656 4.57974 0
M  V30 4665 H 449.944 1.06495 5.4163 0
M  V30 4666 H 450.421 -0.280273 4.38305 0
M  V30 4667 H 451.027 1.35456 4.03152 0
M  V30 4668 N 449.342 -1.36122 0.79427 0
M  V30 4669 C 450.753 -1.81646 0.431446 0
M  V30 4670 C 451.104 -1.66043 -1.04518 0
M  V30 4671 O 450.229 -1.1841 -1.8113 0
M  V30 4672 C 450.824 -3.29785 0.776341 0
M  V30 4673 C 449.383 -3.73501 0.466282 0
M  V30 4674 C 448.53 -2.58313 1.00844 0
M  V30 4675 H 451.481 -1.24274 0.986995 0
M  V30 4676 H 451.502 -3.80437 0.0692413 0
M  V30 4677 H 451.014 -3.4111 1.8511 0
M  V30 4678 H 449.115 -3.67733 -0.600245 0
M  V30 4679 H 449.228 -4.68754 0.990288 0
M  V30 4680 H 447.592 -2.5102 0.431406 0
M  V30 4681 H 448.375 -2.72421 2.08906 0
M  V30 4682 N 450.82 -0.546701 -1.47814 0
M  V30 4683 C 451.75 0.195317 -2.32682 0
M  V30 4684 C 452.731 0.918981 -1.43139 0
M  V30 4685 O 453.916 0.901501 -1.72008 0
M  V30 4686 C 451.046 1.23237 -3.247 0
M  V30 4687 C 450 0.625818 -4.234 0
M  V30 4688 C 449.326 1.76674 -5.04669 0
M  V30 4689 C 450.626 -0.413515 -5.2066 0
M  V30 4690 H 452.32 -0.513184 -2.94969 0
M  V30 4691 H 449.866 -0.248241 -1.41844 0
M  V30 4692 H 451.819 1.75955 -3.82907 0
M  V30 4693 H 450.543 1.97067 -2.60446 0
M  V30 4694 H 449.202 0.120023 -3.66403 0
M  V30 4695 H 448.85 2.49383 -4.36826 0
M  V30 4696 H 448.55 1.36673 -5.71484 0
M  V30 4697 H 450.074 2.29738 -5.65732 0
M  V30 4698 H 451.488 0.0272042 -5.73294 0
M  V30 4699 H 449.885 -0.731825 -5.95621 0
M  V30 4700 H 450.955 -1.31325 -4.66778 0
M  V30 4701 N 452.299 1.55045 -0.282633 0
M  V30 4702 C 453.529 2.03872 0.334635 0
M  V30 4703 C 453.937 1.16018 1.49454 0
M  V30 4704 O 453.28 0.174449 1.8287 0
M  V30 4705 C 453.342 3.48791 0.870905 0
M  V30 4706 C 453.006 4.56715 -0.161338 0
M  V30 4707 C 454.003 5.10513 -0.983466 0
M  V30 4708 C 451.688 5.01417 -0.297745 0
M  V30 4709 C 453.682 6.07538 -1.92811 0
M  V30 4710 C 451.369 5.98265 -1.24586 0
M  V30 4711 C 452.367 6.51208 -2.05954 0
M  V30 4712 O 452.055 7.46162 -2.99162 0
M  V30 4713 H 451.787 0.671324 0.0793742 0
M  V30 4714 H 454.341 2.01169 -0.41473 0
M  V30 4715 H 452.571 3.48758 1.67047 0
M  V30 4716 H 454.26 3.80916 1.40207 0
M  V30 4717 H 455.026 4.76785 -0.888856 0
M  V30 4718 H 450.905 4.59849 0.325604 0
M  V30 4719 H 454.449 6.48787 -2.56363 0
M  V30 4720 H 450.346 6.31412 -1.34126 0
M  V30 4721 H 451.114 7.63903 -2.93929 0
M  V30 4722 N 453.777 0.010035 1.57597 0
M  V30 4723 C 455.005 -0.683413 1.95287 0
M  V30 4724 C 455.42 -1.66747 0.885481 0
M  V30 4725 O 454.777 -1.82003 -0.134629 0
M  V30 4726 C 454.828 -1.40652 3.33015 0
M  V30 4727 O 454.549 -0.461916 4.35658 0
M  V30 4728 C 456.05 -2.19356 3.85225 0
M  V30 4729 H 453.27 -0.189708 0.643624 0
M  V30 4730 H 455.814 0.0641359 2.04399 0
M  V30 4731 H 453.969 -2.10562 3.2518 0
M  V30 4732 H 454.383 -0.973215 5.15392 0
M  V30 4733 H 455.857 -2.65433 4.83993 0
M  V30 4734 H 456.334 -3.02457 3.18459 0
M  V30 4735 H 456.94 -1.54442 3.96267 0
M  V30 4736 N 455.255 -1.55392 -0.262866 0
M  V30 4737 C 456.185 -1.91978 -1.32917 0
M  V30 4738 C 457.166 -0.7828 -1.51017 0
M  V30 4739 O 458.351 -1.04178 -1.63892 0
M  V30 4740 C 455.481 -2.20055 -2.68687 0
M  V30 4741 C 454.435 -3.35854 -2.65304 0
M  V30 4742 C 453.761 -3.49435 -4.04721 0
M  V30 4743 C 455.061 -4.71977 -2.23685 0
M  V30 4744 H 456.755 -2.81292 -1.02544 0
M  V30 4745 H 454.301 -1.3534 -0.491846 0
M  V30 4746 H 456.254 -2.44237 -3.43404 0
M  V30 4747 H 454.978 -1.27551 -3.00663 0
M  V30 4748 H 453.637 -3.11655 -1.93045 0
M  V30 4749 H 453.285 -2.54379 -4.33936 0
M  V30 4750 H 452.985 -4.27297 -4.0335 0
M  V30 4751 H 454.509 -3.7592 -4.81161 0
M  V30 4752 H 455.923 -4.95637 -2.88127 0
M  V30 4753 H 454.32 -5.52828 -2.33456 0
M  V30 4754 H 455.39 -4.70115 -1.18827 0
M  V30 4755 N 456.733 0.527833 -1.48498 0
M  V30 4756 C 457.961 1.30823 -1.6029 0
M  V30 4757 C 458.376 1.86945 -0.263974 0
M  V30 4758 O 457.733 1.6651 0.747034 0
M  V30 4759 C 457.784 2.45756 -2.65116 0
M  V30 4760 O 457.505 1.91946 -3.93813 0
M  V30 4761 C 459.006 3.37543 -2.87367 0
M  V30 4762 H 456.226 0.397763 -0.540394 0
M  V30 4763 H 458.77 0.636529 -1.94341 0
M  V30 4764 H 456.925 3.08806 -2.33917 0
M  V30 4765 H 457.339 2.67195 -4.51339 0
M  V30 4766 H 458.813 4.14532 -3.6451 0
M  V30 4767 H 459.29 3.92905 -1.9627 0
M  V30 4768 H 459.896 2.80283 -3.19878 0
M  V30 4769 N 458.211 1.37122 0.776871 0
M  V30 4770 C 459.488 1.22586 1.52421 0
M  V30 4771 C 459.868 -0.182726 2.10308 0
M  V30 4772 O 459.216 -1.18979 1.9508 0
M  V30 4773 C 459.426 2.31782 2.60918 0
M  V30 4774 C 460.774 2.69071 3.2846 0
M  V30 4775 O 461.798 2.3092 2.71209 0
M  V30 4776 O 460.657 3.3478 4.31954 0
M  V30 4777 H 457.751 0.478045 0.674835 0
M  V30 4778 H 460.297 1.48888 0.814275 0
M  V30 4779 H 459.069 3.26131 2.16227 0
M  V30 4780 H 458.692 2.06916 3.39517 0
M  V30 4781 N 459.689 -1.00246 1.21608 0
M  V30 4782 C 460.935 -1.74319 1.03638 0
M  V30 4783 C 461.268 -1.89408 -0.428749 0
M  V30 4784 O 460.543 -1.43026 -1.3181 0
M  V30 4785 C 460.826 -3.15431 1.73711 0
M  V30 4786 C 460.679 -3.08049 3.27759 0
M  V30 4787 C 461.998 -4.14407 1.48173 0
M  V30 4788 H 459.117 -0.632741 0.377899 0
M  V30 4789 H 461.759 -1.16853 1.49818 0
M  V30 4790 H 459.909 -3.64493 1.34452 0
M  V30 4791 H 461.581 -2.66681 3.76403 0
M  V30 4792 H 459.824 -2.45088 3.57931 0
M  V30 4793 H 460.495 -4.07862 3.71958 0
M  V30 4794 H 462.971 -3.74061 1.82258 0
M  V30 4795 H 461.847 -5.11279 1.99713 0
M  V30 4796 H 462.108 -4.40174 0.412273 0
M  V30 4797 N 461.167 -1.02423 -1.1978 0
M  V30 4798 C 462.115 -0.594474 -2.24875 0
M  V30 4799 C 463.109 0.370598 -1.65296 0
M  V30 4800 O 464.315 0.239684 -1.78397 0
M  V30 4801 H 460.69 -0.173961 -0.731602 0
M  V30 4802 H 462.661 -1.4916 -2.58445 0
M  V30 4803 C 461.41 0.0436512 -3.47673 0
M  V30 4804 H 460.733 -0.689963 -3.93801 0
M  V30 4805 H 462.173 0.307362 -4.22884 0
M  V30 4806 C 460.632 1.28881 -3.11274 0
M  V30 4807 O 461.162 2.38135 -3.23503 0
M  V30 4808 N 459.368 1.1758 -2.6575 0
M  V30 4809 H 458.915 0.286769 -2.55999 0
M  V30 4810 H 458.873 2.00988 -2.41767 0
M  V30 4811 N 462.645 1.35699 -0.801477 0
M  V30 4812 C 463.894 1.98165 -0.375979 0
M  V30 4813 C 464.207 1.64306 1.06127 0
M  V30 4814 O 465.413 2.20097 1.58964 0
M  V30 4815 C 463.869 3.54497 -0.621305 0
M  V30 4816 C 463.477 3.9727 -2.07076 0
M  V30 4817 C 465.221 4.23697 -0.26091 0
M  V30 4818 C 463.128 5.46427 -2.26211 0
M  V30 4819 H 462.058 0.741478 -0.136844 0
M  V30 4820 H 464.709 1.54834 -0.984814 0
M  V30 4821 H 463.091 3.95958 0.0574112 0
M  V30 4822 H 464.265 3.66974 -2.78687 0
M  V30 4823 H 462.58 3.40943 -2.39054 0
M  V30 4824 H 465.177 5.33334 -0.381994 0
M  V30 4825 H 465.52 4.0869 0.792344 0
M  V30 4826 H 466.053 3.87639 -0.893339 0
M  V30 4827 H 462.792 5.66396 -3.29963 0
M  V30 4828 H 462.312 5.78309 -1.59119 0
M  V30 4829 H 463.991 6.12819 -2.07513 0
M  V30 4830 N 464.123 0.554532 1.47522 0
M  V30 4831 C 465.534 0.120446 1.86311 0
M  V30 4832 C 465.885 -1.30904 1.46145 0
M  V30 4833 O 465.01 -1.98434 0.863294 0
M  V30 4834 C 465.605 0.211808 3.38137 0
M  V30 4835 C 464.164 -0.167224 3.76028 0
M  V30 4836 C 463.311 0.560576 2.71575 0
M  V30 4837 H 466.262 0.764408 1.39077 0
M  V30 4838 H 466.283 -0.570275 3.76202 0
M  V30 4839 H 465.795 1.25232 3.6734 0
M  V30 4840 H 463.896 -1.20894 3.52442 0
M  V30 4841 H 464.009 0.189473 4.78725 0
M  V30 4842 H 462.373 0.00396836 2.547 0
M  V30 4843 H 463.156 1.60219 3.0362 0
M  V30 4844 N 465.601 -1.54893 0.290851 0
M  V30 4845 C 467.012 -1.85584 -0.203816 0
M  V30 4846 C 467.363 -1.21285 -1.54222 0
M  V30 4847 O 466.488 -0.506841 -2.10381 0
M  V30 4848 C 467.083 -3.367 -0.376595 0
M  V30 4849 C 465.642 -3.6746 -0.815485 0
M  V30 4850 C 464.789 -2.77178 0.0821087 0
M  V30 4851 H 467.74 -1.50208 0.512175 0
M  V30 4852 H 467.761 -3.60656 -1.21275 0
M  V30 4853 H 467.273 -3.8347 0.59767 0
M  V30 4854 H 465.374 -3.26201 -1.80066 0
M  V30 4855 H 465.487 -4.7478 -0.641905 0
M  V30 4856 H 463.851 -2.50925 -0.436895 0
M  V30 4857 H 464.634 -3.26767 1.05254 0
M  V30 4858 N 467.08 -0.0183926 -1.57589 0
M  V30 4859 C 468.496 0.337897 -1.55982 0
M  V30 4860 C 468.696 1.73604 -1.02294 0
M  V30 4861 O 467.752 2.43589 -0.664895 0
M  V30 4862 C 469.065 0.196305 -3.00059 0
M  V30 4863 C 470.613 0.269875 -3.11834 0
M  V30 4864 C 471.088 0.157197 -4.5773 0
M  V30 4865 N 472.579 0.214521 -4.62703 0
M  V30 4866 C 473.314 0.150955 -5.73201 0
M  V30 4867 N 472.81 0.0369212 -6.9279 0
M  V30 4868 N 474.603 0.204162 -5.61729 0
M  V30 4869 H 466.754 -0.93279 -1.90821 0
M  V30 4870 H 469.017 -0.359253 -0.877292 0
M  V30 4871 H 468.723 -0.766383 -3.43248 0
M  V30 4872 H 468.597 0.970908 -3.6449 0
M  V30 4873 H 470.984 1.22302 -2.68563 0
M  V30 4874 H 471.065 -0.534918 -2.50144 0
M  V30 4875 H 470.709 -0.792479 -5.01679 0
M  V30 4876 H 470.639 0.980717 -5.17387 0
M  V30 4877 H 473.13 0.303238 -3.76681 0
M  V30 4878 H 473.443 -0.00518321 -7.728 0
M  V30 4879 H 471.788 0.0022886 -6.95 0
M  V30 4880 H 474.979 0.291575 -4.67191 0
M  V30 4881 H 475.152 0.15116 -6.47824 0
M  V30 4882 N 468.558 1.5553 0.254621 0
M  V30 4883 C 469.974 1.4778 0.602753 0
M  V30 4884 C 470.174 0.707047 1.88688 0
M  V30 4885 O 469.23 0.233288 2.5142 0
M  V30 4886 C 470.543 2.92133 0.712648 0
M  V30 4887 C 472.091 3.02458 0.805488 0
M  V30 4888 C 472.566 4.48102 0.947009 0
M  V30 4889 N 474.057 4.52008 1.01207 0
M  V30 4890 C 474.792 5.61939 1.1407 0
M  V30 4891 N 474.288 6.81697 1.23536 0
M  V30 4892 N 476.081 5.49719 1.17325 0
M  V30 4893 H 468.232 2.04085 -0.588463 0
M  V30 4894 H 470.495 0.926229 -0.202001 0
M  V30 4895 H 470.201 3.51332 -0.160766 0
M  V30 4896 H 470.075 3.42187 1.58707 0
M  V30 4897 H 472.462 2.43344 1.66936 0
M  V30 4898 H 472.543 2.55627 -0.0939266 0
M  V30 4899 H 472.187 5.07824 0.087725 0
M  V30 4900 H 472.117 4.92607 1.86135 0
M  V30 4901 H 474.608 3.65749 0.950577 0
M  V30 4902 H 474.921 7.61228 1.33236 0
M  V30 4903 H 473.266 6.84473 1.20508 0
M  V30 4904 H 476.457 4.55095 1.09573 0
M  V30 4905 H 476.63 6.35432 1.27005 0
M  V30 4906 N 470.036 -0.519951 1.48776 0
M  V30 4907 C 470.966 -1.63253 1.66945 0
M  V30 4908 C 471.947 -1.62014 0.518224 0
M  V30 4909 O 473.132 -1.79053 0.751919 0
M  V30 4910 C 470.262 -3.0181 1.71836 0
M  V30 4911 C 469.216 -3.17911 2.8656 0
M  V30 4912 C 468.542 -4.5763 2.76548 0
M  V30 4913 C 469.842 -2.99729 4.27738 0
M  V30 4914 H 471.536 -1.48302 2.6009 0
M  V30 4915 H 469.082 -0.712026 1.25165 0
M  V30 4916 H 471.035 -3.79525 1.83135 0
M  V30 4917 H 469.759 -3.17806 0.752775 0
M  V30 4918 H 468.418 -2.42616 2.74833 0
M  V30 4919 H 468.066 -4.70476 1.77937 0
M  V30 4920 H 467.766 -4.69346 3.53536 0
M  V30 4921 H 469.29 -5.37431 2.89828 0
M  V30 4922 H 470.704 -3.67228 4.40246 0
M  V30 4923 H 469.101 -3.22932 5.05801 0
M  V30 4924 H 470.171 -1.96047 4.43502 0
M  V30 4925 N 471.514 -1.37532 -0.769588 0
M  V30 4926 C 472.791 -1.23392 -1.51768 0
M  V30 4927 C 473.171 0.17157 -2.10402 0
M  V30 4928 O 472.519 1.17943 -1.95708 0
M  V30 4929 C 472.729 -2.33163 -2.59685 0
M  V30 4930 C 474.077 -2.70809 -3.27028 0
M  V30 4931 O 475.101 -2.32355 -2.69981 0
M  V30 4932 O 473.96 -3.37066 -4.30173 0
M  V30 4933 H 471.054 -0.481617 -0.67229 0
M  V30 4934 H 473.6 -1.49318 -0.806368 0
M  V30 4935 H 472.372 -3.27273 -2.14494 0
M  V30 4936 H 471.995 -2.08713 -3.38415 0
M  V30 4937 N 472.992 0.995999 -1.22138 0
M  V30 4938 C 473.924 2.08745 -0.946485 0
M  V30 4939 C 474.937 1.62633 0.0737356 0
M  V30 4940 O 476.126 1.77782 -0.159886 0
M  V30 4941 C 473.226 3.36516 -0.401305 0
M  V30 4942 C 472.399 4.11672 -1.47801 0
M  V30 4943 C 471.458 5.17728 -0.940461 0
M  V30 4944 O 470.484 5.45482 -1.62596 0
M  V30 4945 N 471.686 5.80005 0.239723 0
M  V30 4946 H 474.451 2.32908 -1.88611 0
M  V30 4947 H 472.012 1.16152 -1.12785 0
M  V30 4948 H 474.004 4.04691 -0.0270837 0
M  V30 4949 H 472.574 3.0944 0.443354 0
M  V30 4950 H 471.794 3.38171 -2.02568 0
M  V30 4951 H 473.082 4.58657 -2.20253 0
M  V30 4952 H 472.48 5.5982 0.813518 0
M  V30 4953 H 471.037 6.4943 0.555361 0
M  V30 4954 N 474.47 1.03057 1.19235 0
M  V30 4955 C 475.403 0.557384 2.21288 0
M  V30 4956 C 476.381 -0.402675 1.57535 0
M  V30 4957 O 477.565 -0.319376 1.85775 0
M  V30 4958 C 474.692 -0.187041 3.38183 0
M  V30 4959 C 473.738 0.72471 4.20298 0
M  V30 4960 S 474.571 2.20187 4.88137 0
M  V30 4961 C 475.727 1.46801 6.08441 0
M  V30 4962 H 475.96 1.42207 2.61083 0
M  V30 4963 H 473.493 0.840651 1.29508 0
M  V30 4964 H 475.451 -0.610405 4.05936 0
M  V30 4965 H 474.112 -1.02748 2.96819 0
M  V30 4966 H 473.305 0.149911 5.03777 0
M  V30 4967 H 472.907 1.08647 3.57871 0
M  V30 4968 H 475.199 0.755522 6.73274 0
M  V30 4969 H 476.142 2.27946 6.70407 0
M  V30 4970 H 476.55 0.964762 5.56195 0
M  V30 4971 N 475.948 -1.35272 0.808662 0
M  V30 4972 C 477.195 -1.98709 0.390003 0
M  V30 4973 C 477.523 -1.64148 -1.04335 0
M  V30 4974 O 476.778 -0.897797 -1.73891 0
M  V30 4975 C 477.077 -3.53556 0.522798 0
M  V30 4976 C 476.743 -4.0799 1.91977 0
M  V30 4977 C 475.405 -4.22568 2.30195 0
M  V30 4978 C 477.757 -4.37442 2.83361 0
M  V30 4979 C 475.085 -4.63918 3.59162 0
M  V30 4980 C 477.437 -4.80232 4.11776 0
M  V30 4981 C 476.101 -4.93016 4.49991 0
M  V30 4982 H 475.371 -0.727127 0.142712 0
M  V30 4983 H 478.018 -1.6145 1.02985 0
M  V30 4984 H 476.323 -3.91287 -0.200494 0
M  V30 4985 H 478.02 -4.00598 0.179608 0
M  V30 4986 H 474.61 -3.97096 1.61284 0
M  V30 4987 H 478.794 -4.25731 2.55083 0
M  V30 4988 H 474.05 -4.72005 3.88615 0
M  V30 4989 H 478.224 -5.01982 4.82687 0
M  V30 4990 H 475.851 -5.24814 5.49976 0
M  V30 4991 N 477.426 -0.562348 -1.47226 0
M  V30 4992 C 478.651 -0.0432632 -2.07355 0
M  V30 4993 C 479.076 1.24332 -1.41149 0
M  V30 4994 O 478.434 1.74603 -0.488226 0
M  V30 4995 C 478.482 0.130288 -3.60365 0
M  V30 4996 O 477.586 1.19166 -3.94808 0
M  V30 4997 H 476.927 -0.0536334 -0.66183 0
M  V30 4998 H 479.457 -0.779495 -1.89169 0
M  V30 4999 H 479.467 0.342881 -4.06557 0
M  V30 5000 H 478.142 -0.809389 -4.07948 0
M  V30 5001 H 476.719 0.959153 -3.60354 0
M  V30 5002 N 478.904 1.54736 -0.299062 0
M  V30 5003 C 480.181 1.92187 0.363802 0
M  V30 5004 C 480.561 1.22607 1.71845 0
M  V30 5005 O 479.909 0.361141 2.25628 0
M  V30 5006 C 480.119 3.45678 0.480377 0
M  V30 5007 C 481.467 4.17885 0.752147 0
M  V30 5008 O 482.491 3.51702 0.564264 0
M  V30 5009 O 481.35 5.35048 1.11294 0
M  V30 5010 H 478.444 0.801681 0.203066 0
M  V30 5011 H 480.99 1.66115 -0.346978 0
M  V30 5012 H 479.762 3.88443 -0.471999 0
M  V30 5013 H 479.385 3.77779 1.2397 0
M  V30 5014 N 480.382 0.0267497 1.57577 0
M  V30 5015 C 481.345 -0.940916 2.08996 0
M  V30 5016 C 482.345 -1.25561 1.00455 0
M  V30 5017 O 483.535 -1.19634 1.26623 0
M  V30 5018 C 480.667 -2.25814 2.55384 0
M  V30 5019 H 481.86 -0.495628 2.95776 0
M  V30 5020 H 479.413 -0.221241 1.54726 0
M  V30 5021 H 480.148 -2.74976 1.71926 0
M  V30 5022 H 479.933 -2.04285 3.34679 0
M  V30 5023 H 481.423 -2.95178 2.95398 0
M  V30 5024 N 481.861 -1.55662 -0.24637 0
M  V30 5025 C 483.108 -1.77519 -0.974335 0
M  V30 5026 C 483.436 -0.591165 -1.85298 0
M  V30 5027 O 482.691 0.425497 -1.91018 0
M  V30 5028 C 482.99 -3.04885 -1.86494 0
M  V30 5029 C 482.656 -4.36209 -1.14161 0
M  V30 5030 C 481.318 -4.71896 -0.941701 0
M  V30 5031 C 483.67 -5.17391 -0.628957 0
M  V30 5032 C 480.998 -5.86299 -0.216852 0
M  V30 5033 C 483.35 -6.32546 0.0824273 0
M  V30 5034 C 482.014 -6.66853 0.293807 0
M  V30 5035 H 481.284 -0.649588 -0.356535 0
M  V30 5036 H 483.931 -1.89934 -0.244394 0
M  V30 5037 H 482.236 -2.87484 -2.66196 0
M  V30 5038 H 483.933 -3.18994 -2.42989 0
M  V30 5039 H 480.523 -4.08174 -1.30736 0
M  V30 5040 H 484.707 -4.90276 -0.770943 0
M  V30 5041 H 479.963 -6.11385 -0.0426124 0
M  V30 5042 H 484.137 -6.94693 0.487292 0
M  V30 5043 H 481.764 -7.55349 0.857428 0
M  V30 5044 N 483.339 0.512053 -1.4905 0
M  V30 5045 C 484.564 1.2959 -1.6193 0
M  V30 5046 C 484.989 1.85906 -0.286454 0
M  V30 5047 O 484.347 1.65312 0.744426 0
M  V30 5048 C 484.395 2.40987 -2.68249 0
M  V30 5049 O 483.499 3.44531 -2.26654 0
M  V30 5050 H 482.84 0.383053 -0.542371 0
M  V30 5051 H 485.37 0.614231 -1.95162 0
M  V30 5052 H 485.38 2.86913 -2.90078 0
M  V30 5053 H 484.055 1.99361 -3.65004 0
M  V30 5054 H 482.632 3.046 -2.15112 0
M  V30 5055 N 484.817 1.37938 0.762283 0
M  V30 5056 C 485.764 1.34467 1.87583 0
M  V30 5057 C 486.734 0.208633 1.64785 0
M  V30 5058 O 487.919 0.399494 1.86571 0
M  V30 5059 C 485.059 1.16692 3.24772 0
M  V30 5060 C 484.172 2.39608 3.59461 0
M  V30 5061 C 483.307 2.14631 4.85908 0
M  V30 5062 C 482.346 3.33364 5.13357 0
M  V30 5063 N 481.483 3.07877 6.30996 0
M  V30 5064 H 486.323 2.29669 1.89885 0
M  V30 5065 H 483.86 1.14116 0.928219 0
M  V30 5066 H 485.818 1.04405 4.03925 0
M  V30 5067 H 484.448 0.251333 3.2182 0
M  V30 5068 H 483.5 2.626 2.75219 0
M  V30 5069 H 484.812 3.28128 3.75678 0
M  V30 5070 H 483.966 1.99429 5.72986 0
M  V30 5071 H 482.705 1.23463 4.71814 0
M  V30 5072 H 481.71 3.49094 4.24751 0
M  V30 5073 H 482.935 4.25395 5.29354 0
M  V30 5074 H 480.881 2.19348 6.18241 0
M  V30 5075 H 480.798 3.89944 6.47673 0
M  V30 5076 H 482.066 2.96313 7.20985 0
M  V30 5077 N 486.295 -0.989507 1.22664 0
M  V30 5078 C 487.572 -1.70326 0.961688 0
M  V30 5079 C 487.952 -2.04537 -0.522279 0
M  V30 5080 O 487.3 -1.73136 -1.49118 0
M  V30 5081 C 487.51 -2.95135 1.86269 0
M  V30 5082 C 488.858 -3.67842 2.12078 0
M  V30 5083 O 489.882 -3.0515 1.83745 0
M  V30 5084 O 488.741 -4.80644 2.60083 0
M  V30 5085 H 485.835 -0.743589 0.361946 0
M  V30 5086 H 488.381 -1.04555 1.33665 0
M  V30 5087 H 487.153 -2.66382 2.8663 0
M  V30 5088 H 486.776 -3.68645 1.48952 0
M  V30 5089 N 487.773 -1.03688 -1.18687 0
M  V30 5090 C 488.723 -0.595067 -2.20098 0
M  V30 5091 C 489.707 0.360465 -1.5681 0
M  V30 5092 O 490.899 0.180136 -1.76081 0
M  V30 5093 C 488.028 0.0444495 -3.43271 0
M  V30 5094 C 487.114 -0.934002 -4.13687 0
M  V30 5095 N 487.505 -2.09957 -4.60165 0
M  V30 5096 C 485.803 -0.759177 -4.39491 0
M  V30 5097 C 486.504 -2.71735 -5.1433 0
M  V30 5098 N 485.48 -1.99638 -5.05614 0
M  V30 5099 H 489.282 -1.48336 -2.5372 0
M  V30 5100 H 486.796 -0.904949 -1.3485 0
M  V30 5101 H 488.793 0.37864 -4.15177 0
M  V30 5102 H 487.453 0.928325 -3.11147 0
M  V30 5103 H 488.464 -2.47863 -4.54735 0
M  V30 5104 H 485.141 0.0749292 -4.17433 0
M  V30 5105 H 486.531 -3.70492 -5.60523 0
M  V30 5106 N 489.251 1.34841 -0.815825 0
M  V30 5107 C 490.183 2.28409 -0.190265 0
M  V30 5108 C 491.196 1.50705 0.615771 0
M  V30 5109 O 492.385 1.72822 0.446616 0
M  V30 5110 C 489.485 3.30441 0.752446 0
M  V30 5111 C 488.658 4.37399 -0.00922152 0
M  V30 5112 C 487.717 5.19234 0.853351 0
M  V30 5113 O 486.743 5.68404 0.300919 0
M  V30 5114 N 487.945 5.38248 2.17416 0
M  V30 5115 H 490.71 2.82732 -0.994114 0
M  V30 5116 H 488.271 1.47289 -0.672129 0
M  V30 5117 H 490.263 3.82084 1.33394 0
M  V30 5118 H 488.833 2.76565 1.45707 0
M  V30 5119 H 488.053 3.86567 -0.771979 0
M  V30 5120 H 489.341 5.05992 -0.533807 0
M  V30 5121 H 488.739 4.99961 2.6468 0
M  V30 5122 H 487.296 5.93035 2.70467 0
M  V30 5123 N 490.729 0.570148 1.46925 0
M  V30 5124 C 491.659 -0.158274 2.32963 0
M  V30 5125 C 492.64 -0.896093 1.44583 0
M  V30 5126 O 493.825 -0.874022 1.7342 0
M  V30 5127 C 490.955 -1.18055 3.26619 0
M  V30 5128 C 489.909 -0.558379 4.24342 0
M  V30 5129 C 489.235 -1.68623 5.07415 0
M  V30 5130 C 490.535 0.496295 5.19937 0
M  V30 5131 H 492.229 0.560046 2.94115 0
M  V30 5132 H 489.775 0.270775 1.41431 0
M  V30 5133 H 491.728 -1.69841 3.85658 0
M  V30 5134 H 490.452 -1.92899 2.63548 0
M  V30 5135 H 489.111 -0.0617157 3.66548 0
M  V30 5136 H 488.759 -2.42402 4.40738 0
M  V30 5137 H 488.459 -1.27564 5.73586 0
M  V30 5138 H 489.983 -2.20709 5.69315 0
M  V30 5139 H 491.397 0.0640052 5.73264 0
M  V30 5140 H 489.794 0.82649 5.94381 0
M  V30 5141 H 490.864 1.38735 4.6463 0
M  V30 5142 N 492.207 -1.54576 0.307264 0
M  V30 5143 C 493.137 -2.26708 -0.55907 0
M  V30 5144 C 494.118 -1.26893 -1.1328 0
M  V30 5145 O 495.303 -1.55677 -1.16097 0
M  V30 5146 C 492.433 -3.01259 -1.72801 0
M  V30 5147 C 491.387 -4.08275 -1.28435 0
M  V30 5148 C 490.713 -4.70575 -2.53895 0
M  V30 5149 C 492.013 -5.2068 -0.411038 0
M  V30 5150 H 493.707 -2.9937 0.042576 0
M  V30 5151 H 491.253 -1.43983 0.0219173 0
M  V30 5152 H 493.206 -3.50444 -2.34023 0
M  V30 5153 H 491.93 -2.26187 -2.356 0
M  V30 5154 H 490.589 -3.59949 -0.695161 0
M  V30 5155 H 490.237 -3.92136 -3.15021 0
M  V30 5156 H 489.937 -5.42854 -2.24908 0
M  V30 5157 H 491.461 -5.22527 -3.15908 0
M  V30 5158 H 492.875 -5.65721 -0.929097 0
M  V30 5159 H 491.272 -5.99716 -0.214664 0
M  V30 5160 H 492.342 -4.81629 0.562287 0
M  V30 5161 N 493.685 -0.035106 -1.57561 0
M  V30 5162 C 495.101 0.321334 -1.56332 0
M  V30 5163 C 495.301 1.72509 -1.04129 0
M  V30 5164 O 494.357 2.4287 -0.690694 0
M  V30 5165 C 495.67 0.164469 -3.0025 0
M  V30 5166 C 497.218 0.236786 -3.12103 0
M  V30 5167 C 497.693 0.10864 -4.57871 0
M  V30 5168 N 499.184 0.165433 -4.62904 0
M  V30 5169 C 499.919 0.0901506 -5.73329 0
M  V30 5170 N 499.415 -0.0365606 -6.9279 0
M  V30 5171 N 501.208 0.144572 -5.61914 0
M  V30 5172 H 493.359 -0.952976 -1.89821 0
M  V30 5173 H 495.622 -0.368537 -0.873432 0
M  V30 5174 H 495.328 -0.802746 -3.42416 0
M  V30 5175 H 495.202 0.932194 -3.655 0
M  V30 5176 H 497.589 1.19446 -2.69845 0
M  V30 5177 H 497.67 -0.561419 -2.49563 0
M  V30 5178 H 497.314 -0.845644 -5.00811 0
M  V30 5179 H 497.244 0.925786 -5.18398 0
M  V30 5180 H 499.735 0.263269 -3.76982 0
M  V30 5181 H 500.048 -0.0871487 -7.72751 0
M  V30 5182 H 498.393 -0.0714256 -6.94963 0
M  V30 5183 H 501.584 0.242006 -4.67474 0
M  V30 5184 H 501.757 0.0824413 -6.47948 0
M  V30 5185 N 495.163 1.55791 0.238111 0
M  V30 5186 C 496.126 1.90239 1.27835 0
M  V30 5187 C 497.126 0.779552 1.4064 0
M  V30 5188 O 498.316 1.04747 1.3919 0
M  V30 5189 C 495.448 2.13859 2.65475 0
M  V30 5190 H 496.641 2.83262 0.985034 0
M  V30 5191 H 494.194 1.48818 0.477799 0
M  V30 5192 H 494.929 1.23334 2.99932 0
M  V30 5193 H 494.714 2.95643 2.57561 0
M  V30 5194 H 496.204 2.41664 3.40571 0
M  V30 5195 N 496.642 -0.504142 1.49319 0
M  V30 5196 C 497.919 -1.26548 1.49147 0
M  V30 5197 C 498.299 -2.09977 0.21744 0
M  V30 5198 O 497.647 -2.14028 -0.800269 0
M  V30 5199 C 497.857 -2.12489 2.76857 0
M  V30 5200 C 499.205 -2.7178 3.26222 0
M  V30 5201 O 500.229 -2.22758 2.77952 0
M  V30 5202 O 499.088 -3.61015 4.10281 0
M  V30 5203 H 496.182 -0.572495 0.596806 0
M  V30 5204 H 498.728 -0.51867 1.61579 0
M  V30 5205 H 497.5 -1.50796 3.61077 0
M  V30 5206 H 497.123 -2.94368 2.6727 0
M  V30 5207 N 498.12 -1.38341 -0.754957 0
M  V30 5208 C 499.531 -1.30803 -1.3322 0
M  V30 5209 C 499.882 0.0368 -1.96165 0
M  V30 5210 O 499.007 0.938844 -1.94974 0
M  V30 5211 C 499.602 -2.3688 -2.42225 0
M  V30 5212 C 498.161 -2.32925 -2.95674 0
M  V30 5213 C 497.308 -2.19819 -1.69042 0
M  V30 5214 H 500.259 -1.48719 -0.553937 0
M  V30 5215 H 500.28 -2.02517 -3.22129 0
M  V30 5216 H 499.792 -3.34747 -1.96383 0
M  V30 5217 H 497.893 -1.38635 -3.45848 0
M  V30 5218 H 498.006 -3.27008 -3.50146 0
M  V30 5219 H 496.37 -1.66648 -1.92615 0
M  V30 5220 H 497.153 -3.19625 -1.25279 0
M  V30 5221 N 499.598 0.982988 -1.23187 0
M  V30 5222 C 500.545 2.07491 -1.01075 0
M  V30 5223 C 501.515 1.65949 0.070905 0
M  V30 5224 O 502.7 1.90629 -0.0806822 0
M  V30 5225 C 499.84 3.39751 -0.605261 0
M  V30 5226 C 498.953 3.94578 -1.75876 0
M  V30 5227 C 498.088 5.15039 -1.3003 0
M  V30 5228 C 497.127 5.62027 -2.42472 0
M  V30 5229 N 496.264 6.73719 -1.97602 0
M  V30 5230 H 501.104 2.25739 -1.9454 0
M  V30 5231 H 498.641 1.10659 -0.969179 0
M  V30 5232 H 500.599 4.15719 -0.351279 0
M  V30 5233 H 499.229 3.21473 0.292382 0
M  V30 5234 H 498.281 3.1539 -2.12681 0
M  V30 5235 H 499.593 4.25422 -2.60418 0
M  V30 5236 H 498.747 5.9833 -1.00429 0
M  V30 5237 H 497.486 4.85843 -0.425216 0
M  V30 5238 H 496.491 4.77318 -2.7285 0
M  V30 5239 H 497.716 5.93244 -3.30512 0
M  V30 5240 H 495.662 6.46287 -1.1247 0
M  V30 5241 H 495.579 7.03934 -2.75705 0
M  V30 5242 H 496.847 7.6049 -1.71098 0
M  V30 5243 N 501.076 1.04316 1.18135 0
M  V30 5244 C 502.026 0.606731 2.19779 0
M  V30 5245 C 503.01 -0.352144 1.56999 0
M  V30 5246 O 504.202 -0.170795 1.76174 0
M  V30 5247 C 501.331 -0.0262443 3.4329 0
M  V30 5248 C 500.417 0.955928 4.13186 0
M  V30 5249 N 500.808 2.12395 4.59045 0
M  V30 5250 C 499.106 0.782473 4.39082 0
M  V30 5251 C 499.807 2.74458 5.12882 0
M  V30 5252 N 498.783 2.02316 5.04548 0
M  V30 5253 H 502.585 1.49679 2.5293 0
M  V30 5254 H 500.099 0.912088 1.34368 0
M  V30 5255 H 502.096 -0.356617 4.15372 0
M  V30 5256 H 500.756 -0.911811 3.11635 0
M  V30 5257 H 501.767 2.50272 4.53414 0
M  V30 5258 H 498.444 -0.0527906 4.17467 0
M  V30 5259 H 499.834 3.73459 5.5855 0
M  V30 5260 N 502.554 -1.34406 0.822964 0
M  V30 5261 C 503.779 -2.0304 0.423034 0
M  V30 5262 C 504.204 -1.61568 -0.963196 0
M  V30 5263 O 503.562 -0.800339 -1.62678 0
M  V30 5264 C 503.61 -3.56636 0.53321 0
M  V30 5265 O 502.714 -4.09971 -0.446939 0
M  V30 5266 H 502.055 -0.64075 0.174171 0
M  V30 5267 H 504.585 -1.71653 1.11339 0
M  V30 5268 H 504.595 -4.05945 0.408991 0
M  V30 5269 H 503.27 -3.86168 1.54425 0
M  V30 5270 H 501.847 -3.71835 -0.281601 0
M  V30 5271 N 504.032 -0.577932 -1.46621 0
M  V30 5272 C 504.962 0.145917 -2.33044 0
M  V30 5273 C 505.943 0.888412 -1.45056 0
M  V30 5274 O 507.128 0.864812 -1.73881 0
M  V30 5275 C 504.258 1.16322 -3.27241 0
M  V30 5276 C 503.212 0.535868 -4.24632 0
M  V30 5277 C 502.538 1.65929 -5.08303 0
M  V30 5278 C 503.838 -0.523861 -5.19666 0
M  V30 5279 H 505.532 -0.575636 -2.93814 0
M  V30 5280 H 503.078 -0.278272 -1.41286 0
M  V30 5281 H 505.031 1.67793 -3.86553 0
M  V30 5282 H 503.755 1.91498 -2.64567 0
M  V30 5283 H 502.414 0.0422759 -3.66576 0
M  V30 5284 H 502.062 2.40061 -4.42018 0
M  V30 5285 H 501.762 1.2452 -5.74255 0
M  V30 5286 H 503.286 2.17686 -5.70478 0
M  V30 5287 H 504.7 -0.0944059 -5.73222 0
M  V30 5288 H 503.097 -0.858 -5.93935 0
M  V30 5289 H 504.167 -1.41197 -4.63887 0
M  V30 5290 N 505.51 1.54411 -0.315457 0
M  V30 5291 C 506.74 2.04536 0.291315 0
M  V30 5292 C 507.148 1.19162 1.4696 0
M  V30 5293 O 506.491 0.213199 1.82459 0
M  V30 5294 C 506.553 3.5056 0.796725 0
M  V30 5295 C 506.217 4.5627 -0.258178 0
M  V30 5296 C 507.214 5.08312 -1.09153 0
M  V30 5297 C 504.899 5.00672 -0.404036 0
M  V30 5298 C 506.893 6.03312 -2.05655 0
M  V30 5299 C 504.58 5.95488 -1.37248 0
M  V30 5300 C 505.578 6.46693 -2.19721 0
M  V30 5301 O 505.266 7.39648 -3.14921 0
M  V30 5302 H 504.998 0.672856 0.0651165 0
M  V30 5303 H 507.552 2.00244 -0.457308 0
M  V30 5304 H 505.782 3.52223 1.59612 0
M  V30 5305 H 507.471 3.83804 1.32096 0
M  V30 5306 H 508.237 4.74793 -0.98979 0
M  V30 5307 H 504.116 4.60436 0.22799 0
M  V30 5308 H 507.66 6.43203 -2.70067 0
M  V30 5309 H 503.557 6.28424 -1.47489 0
M  V30 5310 H 504.325 7.57496 -3.10067 0
M  V30 5311 N 506.988 0.0434614 1.5754 0
M  V30 5312 C 507.918 -0.931651 2.14109 0
M  V30 5313 C 508.899 -1.32971 1.06079 0
M  V30 5314 O 510.084 -1.40579 1.33982 0
M  V30 5315 C 507.214 -2.20914 2.67982 0
M  V30 5316 C 506.168 -1.95139 3.80926 0
M  V30 5317 C 505.494 -3.29276 4.21285 0
M  V30 5318 C 506.794 -1.27913 5.06395 0
M  V30 5319 H 508.488 -0.460497 2.95837 0
M  V30 5320 H 506.034 -0.220058 1.42309 0
M  V30 5321 H 507.987 -2.89522 3.06194 0
M  V30 5322 H 506.711 -2.70221 1.83434 0
M  V30 5323 H 505.37 -1.28945 3.43175 0
M  V30 5324 H 505.018 -3.76369 3.33699 0
M  V30 5325 H 504.718 -3.12831 4.97404 0
M  V30 5326 H 506.242 -3.99129 4.62091 0
M  V30 5327 H 507.656 -1.86544 5.42102 0
M  V30 5328 H 506.053 -1.2182 5.87605 0
M  V30 5329 H 507.123 -0.254066 4.84234 0
M  V30 5330 N 508.466 -1.55915 -0.229846 0
M  V30 5331 C 509.429 -1.90914 -1.26824 0
M  V30 5332 C 510.429 -0.786999 -1.40225 0
M  V30 5333 O 511.619 -1.05484 -1.38632 0
M  V30 5334 C 508.751 -2.15264 -2.64337 0
M  V30 5335 H 509.944 -2.8378 -0.969998 0
M  V30 5336 H 507.497 -1.49069 -0.4699 0
M  V30 5337 H 508.232 -1.24923 -2.99274 0
M  V30 5338 H 508.017 -2.97005 -2.55989 0
M  V30 5339 H 509.507 -2.43467 -3.39284 0
M  V30 5340 N 509.944 0.496216 -1.49584 0
M  V30 5341 C 511.184 1.26015 -1.60933 0
M  V30 5342 C 511.548 1.89772 -0.291646 0
M  V30 5343 O 512.749 2.67334 -0.280357 0
M  V30 5344 C 511.02 2.29506 -2.73974 0
M  V30 5345 S 512.579 3.15175 -3.05303 0
M  V30 5346 H 509.397 0.428194 -0.567601 0
M  V30 5347 H 511.999 0.561484 -1.87263 0
M  V30 5348 H 510.703 1.81205 -3.68229 0
M  V30 5349 H 510.234 3.04036 -2.49651 0
M  V30 5350 H 512.249 4.30244 -2.47193 0
M  V30 5351 N 511.423 1.38739 0.74761 0
M  V30 5352 C 512.386 1.36241 1.84312 0
M  V30 5353 C 513.386 0.261811 1.58654 0
M  V30 5354 O 514.576 0.519031 1.66288 0
M  V30 5355 C 511.708 1.12253 3.21888 0
M  V30 5356 H 512.901 2.33712 1.87933 0
M  V30 5357 H 510.454 1.2412 0.949946 0
M  V30 5358 H 511.189 0.154133 3.23934 0
M  V30 5359 H 510.974 1.91943 3.41907 0
M  V30 5360 H 512.464 1.13215 4.0196 0
M  V30 5361 N 512.901 -0.976442 1.23707 0
M  V30 5362 C 513.831 -2.08749 1.04624 0
M  V30 5363 C 514.812 -1.70057 -0.0380956 0
M  V30 5364 O 515.997 -1.93782 0.127308 0
M  V30 5365 C 513.127 -3.41335 0.640902 0
M  V30 5366 C 512.081 -3.93947 1.67302 0
M  V30 5367 C 511.407 -5.22774 1.12301 0
M  V30 5368 C 512.707 -4.22769 3.06697 0
M  V30 5369 H 514.401 -2.24972 1.97555 0
M  V30 5370 H 511.947 -1.08108 0.951247 0
M  V30 5371 H 513.9 -4.18489 0.494434 0
M  V30 5372 H 512.624 -3.24988 -0.324099 0
M  V30 5373 H 511.283 -3.18941 1.80755 0
M  V30 5374 H 510.931 -5.0278 0.148877 0
M  V30 5375 H 510.631 -5.58942 1.81267 0
M  V30 5376 H 512.155 -6.02546 0.988479 0
M  V30 5377 H 513.569 -4.90659 2.96524 0
M  V30 5378 H 511.966 -4.70147 3.72937 0
M  V30 5379 H 513.036 -3.29885 3.55392 0
M  V30 5380 N 514.379 -1.04941 -1.1758 0
M  V30 5381 C 515.312 -0.592518 -2.20373 0
M  V30 5382 C 516.29 0.377561 -1.58156 0
M  V30 5383 O 517.474 0.28978 -1.86259 0
M  V30 5384 C 514.601 0.133215 -3.38438 0
M  V30 5385 C 513.647 -0.791484 -4.19092 0
M  V30 5386 S 514.48 -2.27925 -4.84572 0
M  V30 5387 C 515.636 -1.56462 -6.06028 0
M  V30 5388 H 515.869 -1.46342 -2.58788 0
M  V30 5389 H 513.402 -0.861148 -1.28155 0
M  V30 5390 H 515.36 0.545746 -4.06856 0
M  V30 5391 H 514.021 0.980124 -2.98416 0
M  V30 5392 H 513.214 -0.230039 -5.03475 0
M  V30 5393 H 512.816 -1.14326 -3.56098 0
M  V30 5394 H 515.108 -0.862539 -6.71987 0
M  V30 5395 H 516.051 -2.38583 -6.66696 0
M  V30 5396 H 516.459 -1.05313 -5.5459 0
M  V30 5397 N 515.857 1.33968 -0.830081 0
M  V30 5398 C 517.103 1.98357 -0.422191 0
M  V30 5399 C 517.436 1.65633 1.01387 0
M  V30 5400 O 516.711 0.931648 1.70735 0
M  V30 5401 C 516.994 3.54492 -0.633043 0
M  V30 5402 C 516.847 3.96934 -2.11574 0
M  V30 5403 C 518.166 4.40039 -0.0735584 0
M  V30 5404 H 515.285 0.720544 -0.154871 0
M  V30 5405 H 517.927 1.58749 -1.04397 0
M  V30 5406 H 516.077 3.88361 -0.103775 0
M  V30 5407 H 517.749 3.73363 -2.7092 0
M  V30 5408 H 515.992 3.46984 -2.60354 0
M  V30 5409 H 516.663 5.05651 -2.21406 0
M  V30 5410 H 519.139 4.12764 -0.52585 0
M  V30 5411 H 518.015 5.48327 -0.250841 0
M  V30 5412 H 518.276 4.30124 1.02202 0
M  V30 5413 N 517.335 0.585699 1.46312 0
M  V30 5414 C 518.751 0.247607 1.57668 0
M  V30 5415 C 518.951 -1.25007 1.58037 0
M  V30 5416 O 518.007 -2.03196 1.49893 0
M  V30 5417 C 519.32 0.899456 2.86933 0
M  V30 5418 C 520.868 0.873326 3.00569 0
M  V30 5419 C 521.343 1.50477 4.32574 0
M  V30 5420 N 522.834 1.46925 4.3928 0
M  V30 5421 C 523.569 1.92719 5.40044 0
M  V30 5422 N 523.065 2.46499 6.47464 0
M  V30 5423 N 524.858 1.83617 5.31264 0
M  V30 5424 H 517.009 1.55841 1.44317 0
M  V30 5425 H 519.272 0.651564 0.688599 0
M  V30 5426 H 518.978 1.95313 2.92482 0
M  V30 5427 H 518.852 0.409476 3.74971 0
M  V30 5428 H 521.239 -0.171736 2.946 0
M  V30 5429 H 521.32 1.40136 2.13999 0
M  V30 5430 H 520.964 2.54905 4.39302 0
M  V30 5431 H 520.894 0.951944 5.17924 0
M  V30 5432 H 523.385 1.07616 3.62253 0
M  V30 5433 H 523.698 2.79291 7.20567 0
M  V30 5434 H 522.043 2.50526 6.48276 0
M  V30 5435 H 525.234 1.41358 4.46246 0
M  V30 5436 H 525.407 2.19622 6.09648 0
M  V30 5437 N 518.813 -1.54241 0.323641 0
M  V30 5438 C 520.061 -2.00174 -0.278359 0
M  V30 5439 C 520.382 -1.2134 -1.52648 0
M  V30 5440 O 519.652 -0.315244 -1.93347 0
M  V30 5441 H 518.232 -0.739463 -0.105845 0
M  V30 5442 H 520.894 -1.89864 0.440204 0
M  V30 5443 H 519.99 -3.07486 -0.5347 0
M  V30 5444 N 520.291 -0.0518155 -1.57515 0
M  V30 5445 C 521.239 0.940195 -2.12751 0
M  V30 5446 C 522.233 1.3218 -1.05948 0
M  V30 5447 O 523.439 1.30138 -1.24355 0
M  V30 5448 H 519.814 0.321066 -0.680015 0
M  V30 5449 H 521.785 0.449217 -2.94999 0
M  V30 5450 C 520.534 2.2055 -2.68799 0
M  V30 5451 H 519.857 1.92066 -3.50643 0
M  V30 5452 H 521.297 2.88119 -3.11068 0
M  V30 5453 C 519.756 2.95061 -1.62605 0
M  V30 5454 O 520.286 3.88025 -1.03921 0
M  V30 5455 N 518.492 2.57804 -1.34111 0
M  V30 5456 H 518.039 1.82281 -1.8202 0
M  V30 5457 H 517.997 3.07964 -0.632872 0
M  V30 5458 N 521.769 1.56035 0.221574 0
M  V30 5459 C 523.015 1.79312 0.947372 0
M  V30 5460 C 523.348 0.621453 1.83988 0
M  V30 5461 O 522.623 -0.379287 1.90766 0
M  V30 5462 C 522.906 3.1267 1.78633 0
M  V30 5463 C 522.759 4.40284 0.920312 0
M  V30 5464 C 524.078 3.4247 2.7641 0
M  V30 5465 H 521.197 0.652328 0.342982 0
M  V30 5466 H 523.839 1.88765 0.216244 0
M  V30 5467 H 521.989 3.04741 2.40967 0
M  V30 5468 H 523.661 4.60232 0.313718 0
M  V30 5469 H 521.904 4.33212 0.225734 0
M  V30 5470 H 522.575 5.30033 1.54171 0
M  V30 5471 H 525.051 3.50526 2.24211 0
M  V30 5472 H 523.927 4.3695 3.32213 0
M  V30 5473 H 524.188 2.64635 3.54148 0
M  V30 5474 N 523.247 -0.488276 1.49845 0
M  V30 5475 C 524.179 -1.60539 1.63584 0
M  V30 5476 C 525.192 -1.5434 0.517972 0
M  V30 5477 O 526.381 -1.60041 0.790516 0
M  V30 5478 C 523.481 -2.99374 1.58835 0
M  V30 5479 C 522.654 -3.30624 2.86368 0
M  V30 5480 C 521.713 -4.4893 2.74496 0
M  V30 5481 O 520.739 -4.50085 3.48443 0
M  V30 5482 N 521.941 -5.49591 1.86894 0
M  V30 5483 H 524.706 -1.49176 2.59936 0
M  V30 5484 H 522.267 -0.67639 1.47094 0
M  V30 5485 H 524.259 -3.76459 1.48529 0
M  V30 5486 H 522.829 -3.04595 0.702892 0
M  V30 5487 H 522.049 -2.42314 3.1093 0
M  V30 5488 H 523.337 -3.48305 3.70892 0
M  V30 5489 H 522.735 -5.51467 1.26097 0
M  V30 5490 H 521.292 -6.25728 1.82503 0
M  V30 5491 N 524.725 -1.39134 -0.740242 0
M  V30 5492 C 525.974 -1.35384 -1.49512 0
M  V30 5493 C 526.287 0.04919 -1.95538 0
M  V30 5494 O 527.493 0.209257 -2.70692 0
M  V30 5495 C 525.949 -2.37812 -2.70136 0
M  V30 5496 C 525.557 -3.83804 -2.31081 0
M  V30 5497 C 527.301 -2.4313 -3.47977 0
M  V30 5498 C 525.208 -4.77886 -3.48395 0
M  V30 5499 H 524.138 -0.503297 -0.561434 0
M  V30 5500 H 526.789 -1.64754 -0.807974 0
M  V30 5501 H 525.171 -2.01505 -3.40899 0
M  V30 5502 H 526.345 -4.29123 -1.67898 0
M  V30 5503 H 524.66 -3.81732 -1.66343 0
M  V30 5504 H 527.257 -3.10614 -4.35228 0
M  V30 5505 H 527.6 -1.45423 -3.90074 0
M  V30 5506 H 528.133 -2.78304 -2.84239 0
M  V30 5507 H 524.872 -5.76836 -3.11353 0
M  V30 5508 H 524.392 -4.3725 -4.10576 0
M  V30 5509 H 526.071 -4.96538 -4.148 0
M  V30 5510 N 526.204 0.969867 -1.24223 0
M  V30 5511 C 527.429 1.75289 -1.10853 0
M  V30 5512 C 527.854 1.85091 0.335079 0
M  V30 5513 O 527.212 1.32024 1.24255 0
M  V30 5514 C 527.26 3.15255 -1.75062 0
M  V30 5515 O 526.364 3.99589 -1.01992 0
M  V30 5516 H 525.705 0.538904 -0.387915 0
M  V30 5517 H 528.235 1.21675 -1.64488 0
M  V30 5518 H 528.245 3.65787 -1.80731 0
M  V30 5519 H 526.92 3.07436 -2.801 0
M  V30 5520 H 525.497 3.58077 -1.04094 0
M  V30 5521 N 527.682 1.05563 1.17022 0
M  V30 5522 C 528.959 0.68165 1.83338 0
M  V30 5523 C 529.339 -0.837665 1.93769 0
M  V30 5524 O 528.687 -1.74507 1.47511 0
M  V30 5525 C 528.897 1.375 3.20772 0
M  V30 5526 C 530.245 1.51545 3.96635 0
M  V30 5527 O 531.269 1.33431 3.30264 0
M  V30 5528 O 530.128 1.812 5.15586 0
M  V30 5529 H 527.222 0.240412 0.791285 0
M  V30 5530 H 529.768 1.15545 1.24288 0
M  V30 5531 H 528.54 2.41135 3.08171 0
M  V30 5532 H 528.163 0.890798 3.87493 0
M  V30 5533 N 529.16 -1.33526 0.837174 0
M  V30 5534 C 530.09 -2.31764 0.284206 0
M  V30 5535 C 531.071 -1.58896 -0.607142 0
M  V30 5536 O 532.256 -1.86798 -0.531047 0
M  V30 5537 C 529.386 -3.43029 -0.542962 0
M  V30 5538 C 528.34 -4.27255 0.252451 0
M  V30 5539 C 527.666 -5.3012 -0.69836 0
M  V30 5540 C 528.966 -5.01229 1.46858 0
M  V30 5541 H 530.66 -2.78262 1.10502 0
M  V30 5542 H 528.206 -1.3378 0.532812 0
M  V30 5543 H 530.159 -4.1078 -0.940096 0
M  V30 5544 H 528.883 -2.95216 -1.39697 0
M  V30 5545 H 527.542 -3.61127 0.631124 0
M  V30 5546 H 527.19 -4.78564 -1.54872 0
M  V30 5547 H 526.89 -5.87353 -0.170274 0
M  V30 5548 H 528.414 -6.00737 -1.09305 0
M  V30 5549 H 529.828 -5.61756 1.14469 0
M  V30 5550 H 528.225 -5.68104 1.93333 0
M  V30 5551 H 529.295 -4.301 2.23924 0
M  V30 5552 N 530.638 -0.59345 -1.46 0
M  V30 5553 C 532.054 -0.255965 -1.57534 0
M  V30 5554 C 532.254 1.24167 -1.58697 0
M  V30 5555 O 531.31 2.02398 -1.50968 0
M  V30 5556 C 532.623 -0.91466 -2.86451 0
M  V30 5557 C 534.171 -0.889253 -3.00102 0
M  V30 5558 C 534.646 -1.52769 -4.3177 0
M  V30 5559 N 536.137 -1.49253 -4.38495 0
M  V30 5560 C 536.872 -1.9558 -5.39014 0
M  V30 5561 N 536.368 -2.49929 -6.46148 0
M  V30 5562 N 538.161 -1.86432 -5.30282 0
M  V30 5563 H 530.312 -1.56604 -1.43489 0
M  V30 5564 H 532.575 -0.655207 -0.685133 0
M  V30 5565 H 532.281 -1.96861 -2.91442 0
M  V30 5566 H 532.155 -0.429356 -3.74748 0
M  V30 5567 H 534.542 0.156111 -2.94687 0
M  V30 5568 H 534.623 -1.41268 -2.13253 0
M  V30 5569 H 534.267 -2.57231 -4.37944 0
M  V30 5570 H 534.197 -0.979398 -5.17412 0
M  V30 5571 H 536.688 -1.09536 -3.61677 0
M  V30 5572 H 537.001 -2.83109 -7.19075 0
M  V30 5573 H 535.346 -2.53961 -6.46938 0
M  V30 5574 H 538.537 -1.43722 -4.4549 0
M  V30 5575 H 538.71 -2.22852 -6.08474 0
M  V30 5576 N 532.116 1.54067 -0.331816 0
M  V30 5577 C 533.532 1.59587 0.0205388 0
M  V30 5578 C 533.732 1.34813 1.49759 0
M  V30 5579 O 532.788 1.13661 2.25471 0
M  V30 5580 C 534.101 2.97959 -0.405103 0
M  V30 5581 C 535.649 3.10964 -0.356454 0
M  V30 5582 C 536.124 4.51694 -0.757384 0
M  V30 5583 N 537.615 4.57709 -0.71111 0
M  V30 5584 C 538.35 5.64729 -0.993427 0
M  V30 5585 N 537.846 6.79652 -1.3433 0
M  V30 5586 N 539.639 5.54546 -0.918442 0
M  V30 5587 H 531.79 1.68426 -1.29407 0
M  V30 5588 H 534.053 0.78819 -0.526745 0
M  V30 5589 H 533.759 3.21115 -1.43451 0
M  V30 5590 H 533.633 3.76524 0.225692 0
M  V30 5591 H 536.02 2.87538 0.663763 0
M  V30 5592 H 536.101 2.34484 -1.02229 0
M  V30 5593 H 535.745 4.75853 -1.77555 0
M  V30 5594 H 535.675 5.26555 -0.0691444 0
M  V30 5595 H 538.166 3.75176 -0.452883 0
M  V30 5596 H 538.479 7.57221 -1.54388 0
M  V30 5597 H 536.824 6.81128 -1.38164 0
M  V30 5598 H 540.015 4.63641 -0.644536 0
M  V30 5599 H 540.188 6.37861 -1.14181 0
M  V30 5600 N 533.594 0.0601682 1.57485 0
M  V30 5601 C 534.542 -0.928899 2.13247 0
M  V30 5602 C 535.536 -1.31616 1.06647 0
M  V30 5603 O 536.742 -1.29476 1.25043 0
M  V30 5604 H 533.117 -0.317455 0.681708 0
M  V30 5605 H 535.088 -0.433566 2.95233 0
M  V30 5606 C 533.837 -2.19121 2.69965 0
M  V30 5607 H 533.16 -1.90204 3.51657 0
M  V30 5608 H 534.6 -2.86465 3.12592 0
M  V30 5609 C 533.059 -2.94195 1.64168 0
M  V30 5610 O 533.589 -3.87468 1.05978 0
M  V30 5611 N 531.795 -2.57089 1.35476 0
M  V30 5612 H 531.342 -1.81314 1.82984 0
M  V30 5613 H 531.3 -3.07624 0.649196 0
M  V30 5614 N 535.072 -1.5615 -0.213296 0
M  V30 5615 C 536.321 -1.78743 -0.93455 0
M  V30 5616 C 536.634 -0.630199 -1.8517 0
M  V30 5617 O 537.84 -0.739966 -2.61222 0
M  V30 5618 C 536.296 -3.16571 -1.71203 0
M  V30 5619 C 535.904 -4.40043 -0.840617 0
M  V30 5620 C 537.648 -3.48485 -2.42401 0
M  V30 5621 C 535.555 -5.68895 -1.61592 0
M  V30 5622 H 534.485 -0.666426 -0.352692 0
M  V30 5623 H 537.136 -1.82532 -0.188227 0
M  V30 5624 H 535.518 -3.06981 -2.50157 0
M  V30 5625 H 536.692 -4.6071 -0.0910326 0
M  V30 5626 H 535.007 -4.15706 -0.240365 0
M  V30 5627 H 537.604 -4.41983 -3.00924 0
M  V30 5628 H 537.947 -2.71371 -3.15695 0
M  V30 5629 H 538.48 -3.59442 -1.7043 0
M  V30 5630 H 535.219 -6.48925 -0.926106 0
M  V30 5631 H 534.739 -5.52275 -2.33991 0
M  V30 5632 H 536.418 -6.09365 -2.17447 0
M  V30 5633 N 536.55 0.480323 -1.50102 0
M  V30 5634 C 537.46 1.60547 -1.71061 0
M  V30 5635 C 538.476 1.63564 -0.593529 0
M  V30 5636 O 539.652 1.81604 -0.870751 0
M  V30 5637 C 536.717 2.96814 -1.79171 0
M  V30 5638 C 535.778 3.04259 -3.02861 0
M  V30 5639 C 535.011 4.34027 -3.10574 0
M  V30 5640 O 535.234 5.24009 -2.25323 0
M  V30 5641 O 534.168 4.46873 -4.03223 0
M  V30 5642 H 537.994 1.45788 -2.6642 0
M  V30 5643 H 535.579 0.658838 -1.34088 0
M  V30 5644 H 537.461 3.77765 -1.86738 0
M  V30 5645 H 536.136 3.11791 -0.869947 0
M  V30 5646 H 535.043 2.22419 -3.008 0
M  V30 5647 H 536.376 2.94216 -3.94586 0
M  V30 5648 N 538.028 1.39524 0.732853 0
M  V30 5649 C 539.444 1.21176 1.03868 0
M  V30 5650 C 539.644 0.0748448 2.01361 0
M  V30 5651 O 538.7 -0.57281 2.45917 0
M  V30 5652 C 540.013 2.54667 1.59892 0
M  V30 5653 C 541.561 2.6153 1.71962 0
M  V30 5654 C 542.036 3.95248 2.31394 0
M  V30 5655 N 543.527 3.96899 2.38801 0
M  V30 5656 C 544.262 4.97138 2.85729 0
M  V30 5657 N 543.758 6.07775 3.32537 0
M  V30 5658 N 545.551 4.84516 2.84957 0
M  V30 5659 H 537.702 2.12225 0.086304 0
M  V30 5660 H 539.965 0.942614 0.100907 0
M  V30 5661 H 539.671 3.38423 0.95721 0
M  V30 5662 H 539.545 2.74538 2.58668 0
M  V30 5663 H 541.932 1.78156 2.35254 0
M  V30 5664 H 542.013 2.45507 0.718327 0
M  V30 5665 H 541.657 4.79054 1.68729 0
M  V30 5666 H 541.587 4.08593 3.32204 0
M  V30 5667 H 544.078 3.16998 2.05719 0
M  V30 5668 H 544.391 6.8017 3.66862 0
M  V30 5669 H 542.736 6.11366 3.30541 0
M  V30 5670 H 545.927 3.97185 2.47713 0
M  V30 5671 H 546.1 5.62783 3.21215 0
M  V30 5672 N 539.506 -0.963266 1.24736 0
M  V30 5673 C 540.436 -2.07628 1.06832 0
M  V30 5674 C 541.417 -1.70088 -0.0200566 0
M  V30 5675 O 542.602 -1.93636 0.147854 0
M  V30 5676 C 539.732 -3.40636 0.677069 0
M  V30 5677 C 538.686 -3.9215 1.71471 0
M  V30 5678 C 538.012 -5.21553 1.1784 0
M  V30 5679 C 539.312 -4.19493 3.11164 0
M  V30 5680 H 541.006 -2.22864 1.9993 0
M  V30 5681 H 538.552 -1.07093 0.96266 0
M  V30 5682 H 540.505 -4.17941 0.538792 0
M  V30 5683 H 539.229 -3.25313 -0.289612 0
M  V30 5684 H 537.888 -3.17005 1.84128 0
M  V30 5685 H 537.536 -5.02593 0.202195 0
M  V30 5686 H 537.236 -5.56988 1.87185 0
M  V30 5687 H 538.76 -6.01463 1.05233 0
M  V30 5688 H 540.174 -4.87487 3.01711 0
M  V30 5689 H 538.571 -4.66165 3.77902 0
M  V30 5690 H 539.641 -3.26097 3.58871 0
M  V30 5691 N 540.985 -1.06182 -1.16461 0
M  V30 5692 C 541.932 -0.671613 -2.20812 0
M  V30 5693 C 542.902 0.331186 -1.62765 0
M  V30 5694 O 544.087 0.22033 -1.89524 0
M  V30 5695 C 541.227 -0.063029 -3.45042 0
M  V30 5696 C 540.34 -1.11587 -4.1734 0
M  V30 5697 C 539.475 -0.473546 -5.29085 0
M  V30 5698 C 538.514 -1.51 -5.93182 0
M  V30 5699 N 537.651 -0.891118 -6.96422 0
M  V30 5700 H 542.491 -1.56589 -2.53542 0
M  V30 5701 H 540.028 -0.782951 -1.24532 0
M  V30 5702 H 541.986 0.307344 -4.16066 0
M  V30 5703 H 540.616 0.794663 -3.12866 0
M  V30 5704 H 539.668 -1.60396 -3.44931 0
M  V30 5705 H 540.98 -1.90221 -4.61104 0
M  V30 5706 H 540.134 -0.0501432 -6.06679 0
M  V30 5707 H 538.873 0.344687 -4.8648 0
M  V30 5708 H 537.878 -1.94331 -5.14311 0
M  V30 5709 H 539.103 -2.33031 -6.37866 0
M  V30 5710 H 537.049 -0.0935753 -6.55933 0
M  V30 5711 H 536.966 -1.61486 -7.38551 0
M  V30 5712 H 538.234 -0.492822 -7.77941 0
M  V30 5713 N 542.463 1.3308 -0.844243 0
M  V30 5714 C 543.874 1.7992 -0.498566 0
M  V30 5715 C 544.225 1.69808 0.982834 0
M  V30 5716 O 543.35 1.25051 1.7661 0
M  V30 5717 C 543.945 3.26677 -0.898204 0
M  V30 5718 C 542.504 3.71513 -0.604583 0
M  V30 5719 C 541.651 2.54393 -1.10362 0
M  V30 5720 H 544.602 1.20526 -1.03244 0
M  V30 5721 H 544.623 3.79918 -0.21039 0
M  V30 5722 H 544.135 3.34004 -1.97643 0
M  V30 5723 H 542.236 3.69708 0.46335 0
M  V30 5724 H 542.349 4.64755 -1.16358 0
M  V30 5725 H 540.713 2.49246 -0.524273 0
M  V30 5726 H 541.496 2.6448 -2.18873 0
M  V30 5727 N 543.941 0.601185 1.45683 0
M  V30 5728 C 545.166 0.0982245 2.07167 0
M  V30 5729 C 545.591 -1.20546 1.44396 0
M  V30 5730 O 544.949 -1.73247 0.534347 0
M  V30 5731 C 544.997 -0.0346976 3.60583 0
M  V30 5732 O 544.101 -1.08657 3.97828 0
M  V30 5733 H 543.442 0.0711618 0.660176 0
M  V30 5734 H 545.972 0.829376 1.87036 0
M  V30 5735 H 545.982 -0.234969 4.07323 0
M  V30 5736 H 544.657 0.917265 4.05659 0
M  V30 5737 H 543.234 -0.863275 3.6277 0
M  V30 5738 N 545.419 -1.53889 0.339982 0
M  V30 5739 C 546.349 -2.27843 -0.510856 0
M  V30 5740 C 547.33 -1.29267 -1.10563 0
M  V30 5741 O 548.515 -1.58104 -1.12768 0
M  V30 5742 C 545.645 -3.04857 -1.66372 0
M  V30 5743 C 544.599 -4.10907 -1.19746 0
M  V30 5744 C 543.925 -4.75855 -2.43857 0
M  V30 5745 C 545.225 -5.21435 -0.300501 0
M  V30 5746 H 546.919 -2.99212 0.106067 0
M  V30 5747 H 544.465 -1.43904 0.0524533 0
M  V30 5748 H 546.418 -3.5533 -2.26537 0
M  V30 5749 H 545.142 -2.31133 -2.30749 0
M  V30 5750 H 543.801 -3.61342 -0.618654 0
M  V30 5751 H 543.449 -3.9873 -3.06633 0
M  V30 5752 H 543.149 -5.47502 -2.13343 0
M  V30 5753 H 544.673 -5.2911 -3.04754 0
M  V30 5754 H 546.087 -5.67565 -0.80889 0
M  V30 5755 H 544.484 -6.00036 -0.0874076 0
M  V30 5756 H 545.554 -4.80328 0.664321 0
M  V30 5757 N 546.897 -0.0685191 -1.57451 0
M  V30 5758 C 547.829 0.929372 -2.09512 0
M  V30 5759 C 548.842 1.26354 -1.02657 0
M  V30 5760 O 550.031 1.2213 -1.30179 0
M  V30 5761 C 547.131 2.24612 -2.53777 0
M  V30 5762 C 546.304 2.09128 -3.84167 0
M  V30 5763 C 545.363 3.24079 -4.14559 0
M  V30 5764 O 544.389 2.99215 -4.8421 0
M  V30 5765 N 545.591 4.49077 -3.67845 0
M  V30 5766 H 548.356 0.484901 -2.95751 0
M  V30 5767 H 545.917 0.11729 -1.61475 0
M  V30 5768 H 547.909 3.00412 -2.71172 0
M  V30 5769 H 546.479 2.60569 -1.72692 0
M  V30 5770 H 545.699 1.17815 -3.76182 0
M  V30 5771 H 546.987 1.9603 -4.69521 0
M  V30 5772 H 546.385 4.72165 -3.11571 0
M  V30 5773 H 544.942 5.21915 -3.90446 0
M  V30 5774 N 548.375 1.56261 0.205012 0
M  V30 5775 C 549.622 1.8004 0.926927 0
M  V30 5776 C 549.95 0.640086 1.83666 0
M  V30 5777 O 549.205 -0.374702 1.92079 0
M  V30 5778 C 549.504 3.09722 1.78345 0
M  V30 5779 C 549.17 4.39082 1.02555 0
M  V30 5780 C 547.832 4.74226 0.816256 0
M  V30 5781 C 550.184 5.18877 0.491559 0
M  V30 5782 C 547.512 5.86668 0.0613287 0
M  V30 5783 C 549.864 6.32105 -0.250107 0
M  V30 5784 C 548.528 6.6584 -0.470508 0
M  V30 5785 H 547.798 0.658812 0.339187 0
M  V30 5786 H 550.445 1.90515 0.19395 0
M  V30 5787 H 548.75 2.9444 2.5848 0
M  V30 5788 H 550.447 3.25324 2.34446 0
M  V30 5789 H 547.037 4.11497 1.19868 0
M  V30 5790 H 551.221 4.92147 0.640684 0
M  V30 5791 H 546.477 6.11283 -0.119501 0
M  V30 5792 H 550.651 6.93157 -0.671307 0
M  V30 5793 H 548.278 7.5281 -1.05739 0
M  V30 5794 N 549.853 -0.472356 1.50355 0
M  V30 5795 C 551.099 -1.22634 1.6152 0
M  V30 5796 C 551.432 -1.91645 0.313995 0
M  V30 5797 O 550.707 -1.82059 -0.684446 0
M  V30 5798 C 550.99 -2.27099 2.7946 0
M  V30 5799 C 550.843 -1.62402 4.19459 0
M  V30 5800 C 552.162 -3.28421 2.92964 0
M  V30 5801 H 549.281 -0.444494 0.587873 0
M  V30 5802 H 551.923 -0.520321 1.82737 0
M  V30 5803 H 550.073 -2.87314 2.61501 0
M  V30 5804 H 551.745 -1.05793 4.49005 0
M  V30 5805 H 549.988 -0.927184 4.23776 0
M  V30 5806 H 550.659 -2.38309 4.97909 0
M  V30 5807 H 553.135 -2.78227 3.09401 0
M  V30 5808 H 552.011 -3.98845 3.77113 0
M  V30 5809 H 552.272 -3.92467 2.03525 0
M  V30 5810 N 551.331 -1.39911 -0.725443 0
M  V30 5811 C 552.556 -1.41137 -1.5197 0
M  V30 5812 C 552.981 -0.010262 -1.88097 0
M  V30 5813 O 552.339 0.979184 -1.52583 0
M  V30 5814 C 552.387 -2.2994 -2.77777 0
M  V30 5815 O 551.491 -1.73586 -3.74088 0
M  V30 5816 H 550.832 -0.480219 -0.458569 0
M  V30 5817 H 553.362 -1.84023 -0.894249 0
M  V30 5818 H 553.372 -2.44785 -3.26411 0
M  V30 5819 H 552.047 -3.31759 -2.50816 0
M  V30 5820 H 550.624 -1.68035 -3.32894 0
M  V30 5821 N 552.809 0.956637 -1.25245 0
M  V30 5822 C 554.055 1.70413 -1.11044 0
M  V30 5823 C 554.41 1.89275 0.345377 0
M  V30 5824 O 553.703 1.45116 1.25107 0
M  V30 5825 C 553.897 3.08996 -1.79601 0
M  V30 5826 C 553.726 3.03654 -3.317 0
M  V30 5827 C 552.496 3.07521 -4.00947 0
M  V30 5828 C 554.694 2.84975 -4.28128 0
M  V30 5829 N 552.676 2.92316 -5.39838 0
M  V30 5830 C 554.047 2.7818 -5.5409 0
M  V30 5831 C 556.102 2.6964 -4.18568 0
M  V30 5832 C 554.805 2.57616 -6.71585 0
M  V30 5833 C 556.831 2.50447 -5.35752 0
M  V30 5834 C 556.193 2.4437 -6.60653 0
M  V30 5835 H 552.292 0.631642 -0.461035 0
M  V30 5836 H 554.876 1.13331 -1.58317 0
M  V30 5837 H 553.047 3.64248 -1.34826 0
M  V30 5838 H 554.779 3.72515 -1.58161 0
M  V30 5839 H 551.534 3.16635 -3.52192 0
M  V30 5840 H 551.958 2.87923 -6.12723 0
M  V30 5841 H 556.6 2.73113 -3.22752 0
M  V30 5842 H 554.318 2.52885 -7.67512 0
M  V30 5843 H 557.904 2.39509 -5.30214 0
M  V30 5844 H 556.784 2.29712 -7.49801 0
M  V30 5845 N 554.287 1.06798 1.15896 0
M  V30 5846 C 555.235 0.677525 2.22514 0
M  V30 5847 C 556.229 -0.308994 1.66558 0
M  V30 5848 O 557.435 -0.173308 1.79164 0
M  V30 5849 H 553.81 0.200994 0.724642 0
M  V30 5850 H 555.781 1.5865 2.52731 0
M  V30 5851 C 554.53 0.0854153 3.47595 0
M  V30 5852 H 553.853 0.835645 3.90969 0
M  V30 5853 H 555.293 -0.150199 4.23734 0
M  V30 5854 C 553.752 -1.1724 3.15843 0
M  V30 5855 O 554.282 -2.25965 3.32119 0
M  V30 5856 N 552.488 -1.07636 2.69931 0
M  V30 5857 H 552.035 -0.191559 2.56887 0
M  V30 5858 H 551.993 -1.91876 2.4906 0
M  V30 5859 N 555.766 -1.3263 0.851289 0
M  V30 5860 C 556.698 -2.27824 0.250757 0
M  V30 5861 C 557.711 -1.52285 -0.575598 0
M  V30 5862 O 558.9 -1.73946 -0.400638 0
M  V30 5863 C 556 -3.3232 -0.664571 0
M  V30 5864 C 555.173 -4.37221 0.125187 0
M  V30 5865 C 554.232 -5.21314 -0.715385 0
M  V30 5866 O 553.258 -5.69002 -0.150111 0
M  V30 5867 N 554.46 -5.43823 -2.03069 0
M  V30 5868 H 557.225 -2.79997 1.06873 0
M  V30 5869 H 554.786 -1.45455 0.710943 0
M  V30 5870 H 556.778 -3.85486 -1.23216 0
M  V30 5871 H 555.348 -2.80331 -1.38323 0
M  V30 5872 H 554.568 -3.84384 0.874199 0
M  V30 5873 H 555.856 -5.04399 0.667774 0
M  V30 5874 H 555.254 -5.06803 -2.51332 0
M  V30 5875 H 553.811 -5.99998 -2.54648 0
M  V30 5876 N 557.244 -0.608902 -1.45362 0
M  V30 5877 C 558.154 0.110969 -2.34337 0
M  V30 5878 C 559.17 0.859007 -1.51318 0
M  V30 5879 O 560.346 0.816296 -1.84116 0
M  V30 5880 C 557.411 1.09494 -3.28956 0
M  V30 5881 C 556.472 0.348718 -4.27881 0
M  V30 5882 C 555.705 1.28582 -5.17979 0
M  V30 5883 O 555.928 2.52369 -5.11533 0
M  V30 5884 O 554.862 0.782172 -5.96796 0
M  V30 5885 H 558.688 -0.620258 -2.97299 0
M  V30 5886 H 556.273 -0.36916 -1.44767 0
M  V30 5887 H 558.155 1.66163 -3.87257 0
M  V30 5888 H 556.83 1.80717 -2.68557 0
M  V30 5889 H 555.737 -0.260465 -3.73192 0
M  V30 5890 H 557.07 -0.323049 -4.91139 0
M  V30 5891 N 558.722 1.53707 -0.348139 0
M  V30 5892 C 559.97 2.00591 0.246478 0
M  V30 5893 C 560.291 1.23753 1.50699 0
M  V30 5894 O 559.561 0.345964 1.92821 0
M  V30 5895 H 558.141 0.741053 0.0940679 0
M  V30 5896 H 560.803 1.89139 -0.470354 0
M  V30 5897 H 559.899 3.08297 0.485714 0
M  V30 5898 N 560.2 0.0768682 1.57412 0
M  V30 5899 C 561.446 -0.585926 1.94778 0
M  V30 5900 C 561.801 -1.66912 0.956982 0
M  V30 5901 O 561.094 -1.9159 -0.0199454 0
M  V30 5902 C 561.288 -1.20268 3.36557 0
M  V30 5903 C 561.117 -0.18076 4.49337 0
M  V30 5904 C 559.887 0.236362 5.04747 0
M  V30 5905 C 562.085 0.583978 5.10974 0
M  V30 5906 N 560.067 1.24846 6.01071 0
M  V30 5907 C 561.438 1.44841 6.02844 0
M  V30 5908 C 563.493 0.639492 4.93776 0
M  V30 5909 C 562.196 2.36343 6.79363 0
M  V30 5910 C 564.222 1.54204 5.70942 0
M  V30 5911 C 563.584 2.39414 6.62465 0
M  V30 5912 H 559.683 -0.185281 0.759734 0
M  V30 5913 H 562.267 0.155193 1.9408 0
M  V30 5914 H 560.438 -1.9137 3.37982 0
M  V30 5915 H 562.17 -1.82636 3.61146 0
M  V30 5916 H 558.925 -0.14777 4.73369 0
M  V30 5917 H 559.349 1.75217 6.53933 0
M  V30 5918 H 563.991 -0.00510074 4.228 0
M  V30 5919 H 561.709 3.01836 7.49614 0
M  V30 5920 H 565.295 1.5899 5.59655 0
M  V30 5921 H 564.175 3.0812 7.21132 0
M  V30 5922 N 561.678 -1.56367 -0.196722 0
M  V30 5923 C 562.625 -1.94417 -1.24382 0
M  V30 5924 C 563.595 -0.804543 -1.45315 0
M  V30 5925 O 564.78 -1.06256 -1.58475 0
M  V30 5926 C 561.92 -2.28757 -2.58388 0
M  V30 5927 C 561.033 -3.55775 -2.45047 0
M  V30 5928 C 560.168 -3.79445 -3.71746 0
M  V30 5929 C 559.207 -4.99894 -3.53231 0
M  V30 5930 N 558.344 -5.19826 -4.71938 0
M  V30 5931 H 563.184 -2.83691 -0.912338 0
M  V30 5932 H 560.721 -1.40392 -0.439135 0
M  V30 5933 H 562.679 -2.46682 -3.36457 0
M  V30 5934 H 561.309 -1.42625 -2.89582 0
M  V30 5935 H 560.361 -3.45905 -1.58284 0
M  V30 5936 H 561.673 -4.44 -2.27299 0
M  V30 5937 H 560.827 -3.97601 -4.58256 0
M  V30 5938 H 559.566 -2.89546 -3.92446 0
M  V30 5939 H 558.571 -4.81662 -2.65107 0
M  V30 5940 H 559.796 -5.913 -3.33978 0
M  V30 5941 H 557.742 -4.32875 -4.92905 0
M  V30 5942 H 557.659 -6.02228 -4.57009 0
M  V30 5943 H 558.927 -5.42439 -5.59803 0
M  V30 5944 N 563.156 0.464375 -1.50603 0
M  V30 5945 C 564.384 1.23907 -1.65695 0
M  V30 5946 C 564.799 1.85658 -0.343027 0
M  V30 5947 O 564.156 1.69529 0.675739 0
M  V30 5948 C 564.207 2.3429 -2.75301 0
M  V30 5949 O 563.928 1.7507 -4.01599 0
M  V30 5950 C 565.429 3.25051 -3.01424 0
M  V30 5951 H 562.649 0.374485 -0.556778 0
M  V30 5952 H 565.193 0.55353 -1.96866 0
M  V30 5953 H 563.348 2.98607 -2.46804 0
M  V30 5954 H 563.762 2.47812 -4.62266 0
M  V30 5955 H 565.236 3.98699 -3.81763 0
M  V30 5956 H 565.713 3.84227 -2.12758 0
M  V30 5957 H 566.319 2.66463 -3.31477 0
M  V30 5958 N 564.634 1.40294 0.718013 0
M  V30 5959 C 565.859 1.41941 1.5122 0
M  V30 5960 C 566.284 0.0202371 1.88089 0
M  V30 5961 O 565.642 -0.971078 1.53101 0
M  V30 5962 C 565.69 2.3141 2.76554 0
M  V30 5963 O 564.794 1.75567 3.73162 0
M  V30 5964 H 564.135 0.482644 0.456016 0
M  V30 5965 H 566.665 1.84494 0.884478 0
M  V30 5966 H 566.675 2.46513 3.25108 0
M  V30 5967 H 565.35 3.33085 2.49053 0
M  V30 5968 H 563.927 1.69798 3.31999 0
M  V30 5969 N 566.112 -0.949982 1.2575 0
M  V30 5970 C 567.042 -2.06483 1.09028 0
M  V30 5971 C 568.023 -1.701 -0.00201532 0
M  V30 5972 O 569.208 -1.93469 0.168383 0
M  V30 5973 C 566.338 -3.39899 0.71316 0
M  V30 5974 C 565.292 -3.90309 1.75621 0
M  V30 5975 C 564.618 -5.20274 1.23365 0
M  V30 5976 C 565.918 -4.16169 3.15596 0
M  V30 5977 H 567.612 -2.20731 2.02283 0
M  V30 5978 H 565.158 -1.06066 0.973964 0
M  V30 5979 H 567.111 -4.17346 0.58309 0
M  V30 5980 H 565.835 -3.25602 -0.255091 0
M  V30 5981 H 564.494 -3.15035 1.8748 0
M  V30 5982 H 564.142 -5.02351 0.255491 0
M  V30 5983 H 563.842 -5.54971 1.93082 0
M  V30 5984 H 565.366 -6.00314 1.11607 0
M  V30 5985 H 566.78 -4.84259 3.06864 0
M  V30 5986 H 565.177 -4.62131 3.82825 0
M  V30 5987 H 566.247 -3.22273 3.6231 0
M  V30 5988 N 567.59 -1.07411 -1.15328 0
M  V30 5989 C 568.83 -0.807011 -1.87794 0
M  V30 5990 C 569.194 0.654987 -1.80482 0
M  V30 5991 O 570.395 1.03716 -2.47985 0
M  V30 5992 C 568.666 -1.30198 -3.32841 0
M  V30 5993 S 570.225 -1.16564 -4.23034 0
M  V30 5994 H 567.043 -0.292429 -0.648079 0
M  V30 5995 H 569.645 -1.37334 -1.39139 0
M  V30 5996 H 568.349 -2.3607 -3.35707 0
M  V30 5997 H 567.88 -0.730881 -3.86551 0
M  V30 5998 H 569.895 -0.103557 -4.96092 0
M  V30 5999 N 569.068 1.32177 -0.85831 0
M  V30 6000 C 570.293 2.01847 -0.476718 0
M  V30 6001 C 570.718 1.64065 0.920021 0
M  V30 6002 O 570.076 0.843189 1.60499 0
M  V30 6003 C 570.124 3.55097 -0.627578 0
M  V30 6004 O 569.228 4.11012 0.338086 0
M  V30 6005 H 568.569 0.635907 -0.191099 0
M  V30 6006 H 571.099 1.68641 -1.15851 0
M  V30 6007 H 571.109 4.04718 -0.516476 0
M  V30 6008 H 569.784 3.81938 -1.64609 0
M  V30 6009 H 568.361 3.72451 0.182917 0
M  V30 6010 N 570.547 0.616602 1.45037 0
M  V30 6011 C 571.793 0.115501 2.02471 0
M  V30 6012 C 572.126 -1.25406 1.4828 0
M  V30 6013 O 571.401 -1.82922 0.661051 0
M  V30 6014 C 571.684 0.0863588 3.59996 0
M  V30 6015 C 571.537 1.48723 4.24501 0
M  V30 6016 C 572.856 -0.596762 4.36035 0
M  V30 6017 H 569.975 0.0434461 0.735718 0
M  V30 6018 H 572.617 0.7903 1.72784 0
M  V30 6019 H 570.767 -0.488277 3.85419 0
M  V30 6020 H 572.439 2.10964 4.10234 0
M  V30 6021 H 570.682 2.04534 3.82555 0
M  V30 6022 H 571.353 1.419 5.3345 0
M  V30 6023 H 573.829 -0.10824 4.15959 0
M  V30 6024 H 572.705 -0.586289 5.4576 0
M  V30 6025 H 572.966 -1.66451 4.09569 0
M  V30 6026 N 572.025 -1.5352 0.356285 0
M  V30 6027 C 573.436 -1.86282 -0.12492 0
M  V30 6028 C 573.787 -1.27717 -1.48939 0
M  V30 6029 O 572.912 -0.595614 -2.08042 0
M  V30 6030 C 573.507 -3.37995 -0.23345 0
M  V30 6031 C 572.066 -3.70588 -0.658899 0
M  V30 6032 C 571.213 -2.76581 0.199596 0
M  V30 6033 H 574.164 -1.47901 0.575423 0
M  V30 6034 H 574.185 -3.65475 -1.0587 0
M  V30 6035 H 573.697 -3.8059 0.759776 0
M  V30 6036 H 571.798 -3.33544 -1.66069 0
M  V30 6037 H 571.911 -4.77076 -0.439957 0
M  V30 6038 H 570.275 -2.52552 -0.330076 0
M  V30 6039 H 571.058 -3.22008 1.19019 0
M  V30 6040 N 573.503 -0.0852151 -1.57369 0
M  V30 6041 C 574.914 0.445428 -1.81309 0
M  V30 6042 C 575.265 1.68795 -1.00013 0
M  V30 6043 O 574.39 2.15211 -0.226573 0
M  V30 6044 C 574.985 0.814887 -3.28854 0
M  V30 6045 C 573.544 1.29032 -3.53592 0
M  V30 6046 C 572.691 0.282089 -2.75861 0
M  V30 6047 H 575.642 -0.310771 -1.55627 0
M  V30 6048 H 575.663 1.67524 -3.41637 0
M  V30 6049 H 575.175 -0.0896309 -3.87996 0
M  V30 6050 H 573.276 2.21289 -2.9977 0
M  V30 6051 H 573.389 1.25898 -4.62262 0
M  V30 6052 H 571.753 0.762182 -2.43029 0
M  V30 6053 H 572.536 -0.614936 -3.37748 0
M  V30 6054 N 574.981 1.5647 0.188427 0
M  V30 6055 C 576.227 1.81281 0.909124 0
M  V30 6056 C 576.56 0.66034 1.82628 0
M  V30 6057 O 575.835 -0.338737 1.91528 0
M  V30 6058 C 576.118 3.16388 1.7196 0
M  V30 6059 C 575.971 4.42137 0.826714 0
M  V30 6060 C 577.29 3.48256 2.69083 0
M  V30 6061 H 574.409 0.659457 0.329068 0
M  V30 6062 H 577.051 1.89182 0.176156 0
M  V30 6063 H 575.201 3.09784 2.34448 0
M  V30 6064 H 576.873 4.60794 0.216025 0
M  V30 6065 H 575.116 4.33594 0.133792 0
M  V30 6066 H 575.787 5.33184 1.42893 0
M  V30 6067 H 578.263 3.55203 2.16726 0
M  V30 6068 H 577.139 4.43899 3.2287 0
M  V30 6069 H 577.4 2.72088 3.48455 0
M  V30 6070 N 576.459 -0.456382 1.50847 0
M  V30 6071 C 577.707 -1.20497 1.62249 0
M  V30 6072 C 578.028 -1.92156 0.331839 0
M  V30 6073 O 577.298 -1.84751 -0.651443 0
M  V30 6074 H 575.878 -0.447775 0.597918 0
M  V30 6075 H 578.54 -0.525099 1.87693 0
M  V30 6076 H 577.636 -1.94492 2.44089 0
M  V30 6077 N 577.937 -1.40673 -0.710563 0
M  V30 6078 C 578.887 -1.37812 -1.81636 0
M  V30 6079 C 579.871 -0.254853 -1.58869 0
M  V30 6080 O 581.063 -0.494356 -1.69956 0
M  V30 6081 C 578.192 -1.24802 -3.19811 0
M  V30 6082 C 577.278 -2.41931 -3.48325 0
M  V30 6083 N 577.669 -3.67411 -3.47625 0
M  V30 6084 C 575.967 -2.35419 -3.78806 0
M  V30 6085 C 576.668 -4.45008 -3.74623 0
M  V30 6086 N 575.644 -3.74916 -3.93623 0
M  V30 6087 H 579.446 -2.32766 -1.79436 0
M  V30 6088 H 576.96 -1.34516 -0.909909 0
M  V30 6089 H 578.957 -1.20835 -3.99004 0
M  V30 6090 H 577.617 -0.308202 -3.23234 0
M  V30 6091 H 578.628 -4.00503 -3.28356 0
M  V30 6092 H 575.305 -1.4983 -3.89689 0
M  V30 6093 H 576.695 -5.53884 -3.80344 0
M  V30 6094 N 579.415 0.9433 -1.26252 0
M  V30 6095 C 580.64 1.72898 -1.14547 0
M  V30 6096 C 581.065 1.85761 0.295743 0
M  V30 6097 O 580.423 1.3463 1.21427 0
M  V30 6098 C 580.471 3.11471 -1.8171 0
M  V30 6099 O 579.575 3.97336 -1.10445 0
M  V30 6100 H 578.916 0.530555 -0.399259 0
M  V30 6101 H 581.446 1.18159 -1.67032 0
M  V30 6102 H 581.456 3.61872 -1.88449 0
M  V30 6103 H 580.131 3.01425 -2.86558 0
M  V30 6104 H 578.708 3.55788 -1.11666 0
M  V30 6105 N 580.893 1.08022 1.14757 0
M  V30 6106 C 581.843 0.676345 2.17737 0
M  V30 6107 C 582.827 -0.302018 1.5804 0
M  V30 6108 O 584.019 -0.11466 1.76628 0
M  V30 6109 C 581.148 0.082984 3.432 0
M  V30 6110 C 580.234 1.0869 4.09936 0
M  V30 6111 N 580.625 2.26891 4.52055 0
M  V30 6112 C 578.923 0.921768 4.36371 0
M  V30 6113 C 579.624 2.90636 5.0389 0
M  V30 6114 N 578.6 2.18266 4.97856 0
M  V30 6115 H 582.402 1.5765 2.4804 0
M  V30 6116 H 579.916 0.954374 1.31398 0
M  V30 6117 H 581.913 -0.224289 4.16296 0
M  V30 6118 H 580.573 -0.812206 3.14378 0
M  V30 6119 H 581.584 2.6457 4.45223 0
M  V30 6120 H 578.261 0.0800499 4.17423 0
M  V30 6121 H 579.651 3.9104 5.46386 0
M  V30 6122 N 582.371 -1.3172 0.865308 0
M  V30 6123 C 583.596 -2.01591 0.487415 0
M  V30 6124 C 584.021 -1.6455 -0.911307 0
M  V30 6125 O 583.379 -0.851689 -1.6005 0
M  V30 6126 C 583.427 -3.54759 0.646401 0
M  V30 6127 O 582.531 -4.11185 -0.316284 0
M  V30 6128 H 581.872 -0.634884 0.194468 0
M  V30 6129 H 584.402 -1.68024 1.16744 0
M  V30 6130 H 584.412 -4.04438 0.537932 0
M  V30 6131 H 583.087 -3.8106 1.66632 0
M  V30 6132 H 581.664 -3.72543 -0.163162 0
M  V30 6133 N 583.85 -0.624285 -1.44708 0
M  V30 6134 C 584.779 0.0717025 -2.3339 0
M  V30 6135 C 585.76 0.841814 -1.47809 0
M  V30 6136 O 586.946 0.809056 -1.76544 0
M  V30 6137 C 584.076 1.05852 -3.30776 0
M  V30 6138 C 583.029 0.400503 -4.26122 0
M  V30 6139 C 582.356 1.49674 -5.13324 0
M  V30 6140 C 583.656 -0.688924 -5.17737 0
M  V30 6141 H 585.35 -0.668819 -2.91834 0
M  V30 6142 H 582.896 -0.32308 -1.40329 0
M  V30 6143 H 584.849 1.5541 -3.91696 0
M  V30 6144 H 583.572 1.82984 -2.70526 0
M  V30 6145 H 582.231 -0.0743687 -3.66525 0
M  V30 6146 H 581.88 2.25877 -4.49431 0
M  V30 6147 H 581.58 1.06188 -5.77926 0
M  V30 6148 H 583.104 1.99427 -5.77115 0
M  V30 6149 H 584.518 -0.276724 -5.72632 0
M  V30 6150 H 582.915 -1.04652 -5.90904 0
M  V30 6151 H 583.985 -1.55884 -4.5916 0
M  V30 6152 N 585.328 1.53329 -0.364422 0
M  V30 6153 C 586.258 2.28627 0.474543 0
M  V30 6154 C 587.239 1.31009 1.08492 0
M  V30 6155 O 588.424 1.59878 1.10239 0
M  V30 6156 C 585.554 3.07465 1.61501 0
M  V30 6157 C 584.508 4.1276 1.13194 0
M  V30 6158 C 583.834 4.79674 2.36255 0
M  V30 6159 C 585.134 5.21847 0.217507 0
M  V30 6160 H 586.828 2.99005 -0.153656 0
M  V30 6161 H 584.374 1.43803 -0.0753406 0
M  V30 6162 H 586.327 3.58889 2.20855 0
M  V30 6163 H 585.051 2.34775 2.27042 0
M  V30 6164 H 583.71 3.62281 0.56109 0
M  V30 6165 H 583.358 4.03557 3.00251 0
M  V30 6166 H 583.058 5.50827 2.04606 0
M  V30 6167 H 584.582 5.33892 2.96297 0
M  V30 6168 H 585.996 5.6878 0.718493 0
M  V30 6169 H 584.393 6.00099 -0.00806408 0
M  V30 6170 H 585.463 4.7921 -0.740653 0
M  V30 6171 N 586.806 0.0935595 1.57322 0
M  V30 6172 C 587.769 -0.851426 2.12799 0
M  V30 6173 C 588.769 -1.21187 1.0569 0
M  V30 6174 O 589.959 -1.14156 1.31583 0
M  V30 6175 C 587.091 -2.14779 2.64731 0
M  V30 6176 H 588.284 -0.369733 2.97612 0
M  V30 6177 H 585.837 -0.155417 1.55525 0
M  V30 6178 H 586.572 -2.67437 1.83434 0
M  V30 6179 H 586.357 -1.89907 3.43042 0
M  V30 6180 H 587.847 -2.82383 3.07651 0
M  V30 6181 N 588.284 -1.56567 -0.180126 0
M  V30 6182 C 589.214 -1.98753 -1.22553 0
M  V30 6183 C 590.195 -0.86175 -1.46656 0
M  V30 6184 O 591.38 -1.12719 -1.58139 0
M  V30 6185 C 588.51 -2.33988 -2.56645 0
M  V30 6186 C 587.464 -3.49445 -2.47128 0
M  V30 6187 C 586.79 -3.70397 -3.8563 0
M  V30 6188 C 588.09 -4.83171 -1.98352 0
M  V30 6189 H 589.784 -2.86332 -0.874896 0
M  V30 6190 H 587.33 -1.37757 -0.419414 0
M  V30 6191 H 589.283 -2.62097 -3.29974 0
M  V30 6192 H 588.007 -1.43309 -2.93479 0
M  V30 6193 H 586.666 -3.2145 -1.76254 0
M  V30 6194 H 586.314 -2.77023 -4.19842 0
M  V30 6195 H 586.014 -4.48077 -3.80132 0
M  V30 6196 H 587.538 -4.00897 -4.60558 0
M  V30 6197 H 588.952 -5.10213 -2.61449 0
M  V30 6198 H 587.349 -5.64425 -2.03823 0
M  V30 6199 H 588.419 -4.75753 -0.937402 0
M  V30 6200 N 589.762 0.448376 -1.51087 0
M  V30 6201 C 590.725 1.52588 -1.71025 0
M  V30 6202 C 591.725 1.49958 -0.580442 0
M  V30 6203 O 592.915 1.52176 -0.847833 0
M  V30 6204 C 590.047 2.92163 -1.75652 0
M  V30 6205 H 591.24 1.36218 -2.67179 0
M  V30 6206 H 588.793 0.676313 -1.4091 0
M  V30 6207 H 589.528 3.13951 -0.812724 0
M  V30 6208 H 589.313 2.95478 -2.57751 0
M  V30 6209 H 590.803 3.70349 -1.92953 0
M  V30 6210 N 591.24 1.41047 0.703093 0
M  V30 6211 C 592.188 1.42494 1.83843 0
M  V30 6212 C 593.182 0.303885 1.66652 0
M  V30 6213 O 594.388 0.475544 1.73605 0
M  V30 6214 H 590.763 0.445685 0.605697 0
M  V30 6215 H 592.734 2.38194 1.79739 0
M  V30 6216 C 591.483 1.31666 3.21807 0
M  V30 6217 H 590.806 2.17212 3.35647 0
M  V30 6218 H 592.246 1.36738 4.01346 0
M  V30 6219 C 590.705 0.0281828 3.36888 0
M  V30 6220 O 591.235 -0.929995 3.90786 0
M  V30 6221 N 589.441 -0.0454322 2.90564 0
M  V30 6222 H 588.988 0.735046 2.4689 0
M  V30 6223 H 588.946 -0.906968 3.01034 0
M  V30 6224 N 592.718 -0.936591 1.26751 0
M  V30 6225 C 593.666 -2.0573 1.08527 0
M  V30 6226 C 594.66 -1.69397 0.0108784 0
M  V30 6227 O 595.866 -1.79215 0.167915 0
M  V30 6228 H 592.241 -0.673691 0.334133 0
M  V30 6229 H 594.212 -2.1825 2.03493 0
M  V30 6230 C 592.961 -3.39738 0.739845 0
M  V30 6231 H 592.284 -3.68174 1.55845 0
M  V30 6232 H 593.724 -4.18955 0.652149 0
M  V30 6233 C 592.183 -3.32292 -0.555288 0
M  V30 6234 O 592.713 -3.68794 -1.59229 0
M  V30 6235 N 590.919 -2.85394 -0.54762 0
M  V30 6236 H 590.466 -2.55886 0.296667 0
M  V30 6237 H 590.424 -2.80795 -1.41427 0
M  V30 6238 N 594.196 -1.08629 -1.14182 0
M  V30 6239 C 595.424 -0.838889 -1.8913 0
M  V30 6240 C 595.839 0.609153 -1.78703 0
M  V30 6241 O 595.196 1.41876 -1.14794 0
M  V30 6242 C 595.247 -1.25477 -3.39025 0
M  V30 6243 O 594.968 -2.64601 -3.49167 0
M  V30 6244 C 596.469 -1.03856 -4.30963 0
M  V30 6245 H 593.689 -0.302377 -0.599007 0
M  V30 6246 H 596.233 -1.44615 -1.44592 0
M  V30 6247 H 594.388 -0.691571 -3.81177 0
M  V30 6248 H 594.802 -2.81922 -4.42289 0
M  V30 6249 H 596.276 -1.37892 -5.345 0
M  V30 6250 H 596.753 0.0242522 -4.39193 0
M  V30 6251 H 597.359 -1.58731 -3.94569 0
M  V30 6252 N 595.674 1.31259 -0.872281 0
M  V30 6253 C 596.914 1.98418 -0.490894 0
M  V30 6254 C 597.278 1.67429 0.939755 0
M  V30 6255 O 598.479 2.27818 1.42661 0
M  V30 6256 C 596.75 3.49583 -0.743408 0
M  V30 6257 S 598.309 4.36359 -0.462226 0
M  V30 6258 H 595.127 0.687005 -0.183151 0
M  V30 6259 H 597.729 1.59619 -1.12881 0
M  V30 6260 H 596.433 3.69627 -1.78338 0
M  V30 6261 H 595.964 3.93291 -0.0925758 0
M  V30 6262 H 597.979 4.91173 0.704525 0
M  V30 6263 N 597.152 0.631951 1.44375 0
M  V30 6264 C 598.398 0.13697 2.02337 0
M  V30 6265 C 598.731 -1.23826 1.49602 0
M  V30 6266 O 598.006 -1.8221 0.680415 0
M  V30 6267 C 598.289 0.124536 3.59885 0
M  V30 6268 C 598.142 1.53217 4.229 0
M  V30 6269 C 599.461 -0.550481 4.36644 0
M  V30 6270 H 596.58 0.051247 0.735216 0
M  V30 6271 H 599.222 0.808581 1.71936 0
M  V30 6272 H 597.372 -0.44737 3.85916 0
M  V30 6273 H 599.044 2.15303 4.07973 0
M  V30 6274 H 597.287 2.0858 3.80364 0
M  V30 6275 H 597.958 1.4755 5.31914 0
M  V30 6276 H 600.434 -0.0641154 4.16051 0
M  V30 6277 H 599.31 -0.528371 5.46351 0
M  V30 6278 H 599.571 -1.62097 4.11311 0
M  V30 6279 N 598.631 -1.53133 0.372548 0
M  V30 6280 C 599.578 -2.25951 -0.470631 0
M  V30 6281 C 600.548 -1.26895 -1.07176 0
M  V30 6282 O 601.733 -1.55691 -1.10294 0
M  V30 6283 C 598.873 -3.05726 -1.6008 0
M  V30 6284 C 597.986 -4.19684 -1.02416 0
M  V30 6285 C 597.121 -4.86888 -2.124 0
M  V30 6286 C 596.16 -5.92866 -1.52238 0
M  V30 6287 N 595.297 -6.53732 -2.56084 0
M  V30 6288 H 600.137 -2.97587 0.156816 0
M  V30 6289 H 597.674 -1.4683 0.0891571 0
M  V30 6290 H 599.632 -3.50258 -2.26661 0
M  V30 6291 H 598.262 -2.36331 -2.1988 0
M  V30 6292 H 597.314 -3.79588 -0.248426 0
M  V30 6293 H 598.626 -4.95821 -0.544366 0
M  V30 6294 H 597.78 -5.34638 -2.86787 0
M  V30 6295 H 596.519 -4.10239 -2.63734 0
M  V30 6296 H 595.524 -5.4447 -0.763685 0
M  V30 6297 H 596.749 -6.71439 -1.0172 0
M  V30 6298 H 594.695 -5.79932 -3.06618 0
M  V30 6299 H 594.612 -7.25429 -2.12811 0
M  V30 6300 H 595.88 -7.0613 -3.30152 0
M  V30 6301 N 600.109 -0.101901 -1.5727 0
M  V30 6302 C 601.52 0.426173 -1.81771 0
M  V30 6303 C 601.871 1.67725 -1.01797 0
M  V30 6304 O 600.996 2.14958 -0.249386 0
M  V30 6305 C 601.591 0.779962 -3.297 0
M  V30 6306 C 600.15 1.25275 -3.54941 0
M  V30 6307 C 599.297 0.252814 -2.76145 0
M  V30 6308 H 602.248 -0.32726 -1.55289 0
M  V30 6309 H 602.269 1.63891 -3.43395 0
M  V30 6310 H 601.781 -0.130778 -3.8788 0
M  V30 6311 H 599.882 2.18097 -3.021 0
M  V30 6312 H 599.995 1.20988 -4.63572 0
M  V30 6313 H 598.359 0.736362 -2.43823 0
M  V30 6314 H 599.142 -0.650724 -3.37076 0
M  V30 6315 N 601.587 1.56661 0.17182 0
M  V30 6316 C 602.815 1.861 0.904115 0
M  V30 6317 C 603.23 0.687227 1.75848 0
M  V30 6318 O 602.587 -0.343671 1.79235 0
M  V30 6319 C 602.638 3.14568 1.78127 0
M  V30 6320 O 602.359 4.27422 0.961366 0
M  V30 6321 C 603.86 3.5735 2.62327 0
M  V30 6322 H 601.08 0.617445 0.262684 0
M  V30 6323 H 603.624 2.03775 0.172068 0
M  V30 6324 H 601.779 2.98721 2.46666 0
M  V30 6325 H 602.193 5.00725 1.56123 0
M  V30 6326 H 603.667 4.50144 3.1949 0
M  V30 6327 H 604.144 2.81445 3.37173 0
M  V30 6328 H 604.75 3.75807 1.99121 0
M  V30 6329 N 603.065 -0.440357 1.51323 0
M  V30 6330 C 604.312 -1.19004 1.63842 0
M  V30 6331 C 604.64 -1.91266 0.35321 0
M  V30 6332 O 603.895 -1.84143 -0.662565 0
M  V30 6333 C 604.194 -2.2339 2.78984 0
M  V30 6334 C 603.86 -1.68162 4.18369 0
M  V30 6335 C 602.522 -1.52823 4.56288 0
M  V30 6336 C 604.874 -1.27524 5.05358 0
M  V30 6337 C 602.202 -0.953157 5.78906 0
M  V30 6338 C 604.554 -0.714474 6.28552 0
M  V30 6339 C 603.218 -0.547961 6.65247 0
M  V30 6340 H 602.488 -0.435468 0.59954 0
M  V30 6341 H 605.135 -0.481538 1.85347 0
M  V30 6342 H 603.44 -3.00267 2.51688 0
M  V30 6343 H 605.137 -2.81211 2.85869 0
M  V30 6344 H 601.727 -1.81077 3.8847 0
M  V30 6345 H 605.911 -1.38197 4.76671 0
M  V30 6346 H 601.167 -0.811882 6.05986 0
M  V30 6347 H 605.341 -0.391059 6.95301 0
M  V30 6348 H 602.968 -0.100222 7.60134 0
M  V30 6349 N 604.543 -1.41418 -0.695603 0
M  V30 6350 C 605.476 -1.3768 -1.81988 0
M  V30 6351 C 606.454 -0.244061 -1.60758 0
M  V30 6352 O 607.638 -0.430965 -1.83507 0
M  V30 6353 C 604.765 -1.1476 -3.18666 0
M  V30 6354 C 603.811 -2.30752 -3.58686 0
M  V30 6355 S 604.644 -3.9323 -3.63498 0
M  V30 6356 C 605.8 -3.72613 -5.02902 0
M  V30 6357 H 606.033 -2.32822 -1.84882 0
M  V30 6358 H 603.566 -1.27942 -0.86431 0
M  V30 6359 H 605.524 -1.02223 -3.97569 0
M  V30 6360 H 604.185 -0.212385 -3.13381 0
M  V30 6361 H 603.378 -2.10409 -4.57978 0
M  V30 6362 H 602.98 -2.39696 -2.87092 0
M  V30 6363 H 605.272 -3.32317 -5.904 0
M  V30 6364 H 606.215 -4.71507 -5.28286 0
M  V30 6365 H 606.623 -3.0589 -4.74438 0
M  V30 6366 N 606.021 0.929856 -1.27246 0
M  V30 6367 C 606.931 2.0636 -1.11592 0
M  V30 6368 C 607.947 1.73938 -0.046496 0
M  V30 6369 O 609.123 1.9981 -0.252544 0
M  V30 6370 C 606.188 3.38213 -0.762437 0
M  V30 6371 C 605.249 3.84346 -1.9125 0
M  V30 6372 C 604.482 5.09906 -1.57579 0
M  V30 6373 O 604.705 5.68354 -0.482694 0
M  V30 6374 O 603.639 5.51359 -2.41426 0
M  V30 6375 H 607.465 2.22478 -2.0673 0
M  V30 6376 H 605.05 1.04865 -1.06413 0
M  V30 6377 H 606.932 4.1741 -0.57854 0
M  V30 6378 H 605.607 3.23307 0.159439 0
M  V30 6379 H 604.514 3.06045 -2.15144 0
M  V30 6380 H 605.847 4.0379 -2.81451 0
M  V30 6381 N 607.499 1.09233 1.13605 0
M  V30 6382 C 608.429 0.751738 2.21068 0
M  V30 6383 C 609.41 -0.269688 1.67948 0
M  V30 6384 O 610.595 -0.13819 1.93708 0
M  V30 6385 C 607.725 0.16935 3.46887 0
M  V30 6386 C 606.679 1.12007 4.13084 0
M  V30 6387 C 606.005 0.399483 5.33206 0
M  V30 6388 C 607.305 2.46168 4.6065 0
M  V30 6389 H 608.999 1.65024 2.49815 0
M  V30 6390 H 606.545 0.794905 1.20072 0
M  V30 6391 H 608.498 -0.0809824 4.21322 0
M  V30 6392 H 607.222 -0.764335 3.1753 0
M  V30 6393 H 605.881 1.35564 3.40614 0
M  V30 6394 H 605.529 -0.538277 5.00112 0
M  V30 6395 H 605.229 1.03337 5.78442 0
M  V30 6396 H 606.753 0.157403 6.10397 0
M  V30 6397 H 608.167 2.26829 5.26518 0
M  V30 6398 H 606.564 3.05326 5.1662 0
M  V30 6399 H 607.634 3.07076 3.75276 0
M  V30 6400 N 608.977 -1.30795 0.87923 0
M  V30 6401 C 609.924 -2.28282 0.339968 0
M  V30 6402 C 610.894 -1.56134 -0.566685 0
M  V30 6403 O 612.079 -1.84231 -0.496338 0
M  V30 6404 C 609.219 -3.42225 -0.444501 0
M  V30 6405 C 608.332 -4.29204 0.490717 0
M  V30 6406 C 607.467 -5.30302 -0.308784 0
M  V30 6407 C 606.506 -6.08929 0.622272 0
M  V30 6408 N 605.643 -7.01957 -0.14155 0
M  V30 6409 H 610.483 -2.73794 1.17647 0
M  V30 6410 H 608.02 -1.34682 0.591527 0
M  V30 6411 H 609.978 -4.07038 -0.915186 0
M  V30 6412 H 608.608 -2.97799 -1.24562 0
M  V30 6413 H 607.66 -3.6475 1.07988 0
M  V30 6414 H 608.972 -4.84045 1.20425 0
M  V30 6415 H 608.126 -6.00835 -0.841575 0
M  V30 6416 H 606.865 -4.7614 -1.05556 0
M  V30 6417 H 605.87 -5.37278 1.16674 0
M  V30 6418 H 607.095 -6.65178 1.36804 0
M  V30 6419 H 605.041 -6.50192 -0.870966 0
M  V30 6420 H 604.958 -7.54261 0.51246 0
M  V30 6421 H 606.226 -7.76741 -0.655271 0
M  V30 6422 N 610.455 -0.639598 -1.44038 0
M  V30 6423 C 611.365 0.0612377 -2.3452 0
M  V30 6424 C 612.381 0.826717 -1.53106 0
M  V30 6425 O 613.557 0.777059 -1.85806 0
M  V30 6426 C 610.622 1.02492 -3.31204 0
M  V30 6427 C 609.683 0.25788 -4.28525 0
M  V30 6428 C 608.916 1.17566 -5.2059 0
M  V30 6429 O 609.139 2.41461 -5.16771 0
M  V30 6430 O 608.073 0.655407 -5.98321 0
M  V30 6431 H 611.899 -0.68318 -2.95916 0
M  V30 6432 H 609.484 -0.399784 -1.43952 0
M  V30 6433 H 611.366 1.57911 -3.90694 0
M  V30 6434 H 610.041 1.7498 -2.7233 0
M  V30 6435 H 608.948 -0.339566 -3.72556 0
M  V30 6436 H 610.281 -0.427154 -4.90343 0
M  V30 6437 N 611.933 1.52934 -0.380664 0
M  V30 6438 C 613.349 1.59571 -0.0302429 0
M  V30 6439 C 613.549 1.39509 1.45394 0
M  V30 6440 O 612.605 1.20777 2.21741 0
M  V30 6441 C 613.918 2.96519 -0.499691 0
M  V30 6442 C 615.466 3.09672 -0.455204 0
M  V30 6443 C 615.941 4.49056 -0.900703 0
M  V30 6444 N 617.432 4.55215 -0.856367 0
M  V30 6445 C 618.167 5.61282 -1.17259 0
M  V30 6446 N 617.663 6.75035 -1.55885 0
M  V30 6447 N 619.456 5.51343 -1.0944 0
M  V30 6448 H 611.607 1.64224 -1.347 0
M  V30 6449 H 613.87 0.771033 -0.551554 0
M  V30 6450 H 613.576 3.16388 -1.53595 0
M  V30 6451 H 613.45 3.77052 0.105789 0
M  V30 6452 H 615.837 2.89504 0.571949 0
M  V30 6453 H 615.918 2.31113 -1.09638 0
M  V30 6454 H 615.562 4.69964 -1.92604 0
M  V30 6455 H 615.492 5.26068 -0.236629 0
M  V30 6456 H 617.983 3.73546 -0.572013 0
M  V30 6457 H 618.296 7.51926 -1.784 0
M  V30 6458 H 616.641 6.76388 -1.59764 0
M  V30 6459 H 619.832 4.61356 -0.791713 0
M  V30 6460 H 620.005 6.33905 -1.34417 0
M  V30 6461 N 613.412 0.11024 1.57214 0
M  V30 6462 C 614.659 -0.54987 1.94891 0
M  V30 6463 C 614.987 -1.67243 0.992984 0
M  V30 6464 O 614.242 -1.95694 0.0152703 0
M  V30 6465 C 614.541 -1.13102 3.39032 0
M  V30 6466 C 614.207 -0.130713 4.5071 0
M  V30 6467 C 612.869 0.14437 4.80983 0
M  V30 6468 C 615.221 0.551472 5.18274 0
M  V30 6469 C 612.549 1.10807 5.76141 0
M  V30 6470 C 614.901 1.50375 6.14467 0
M  V30 6471 C 613.565 1.78691 6.43138 0
M  V30 6472 H 612.835 -0.201212 0.713158 0
M  V30 6473 H 615.482 0.189288 1.90562 0
M  V30 6474 H 613.787 -1.94675 3.40013 0
M  V30 6475 H 615.484 -1.64973 3.65493 0
M  V30 6476 H 612.074 -0.355301 4.27125 0
M  V30 6477 H 616.258 0.35211 4.95049 0
M  V30 6478 H 611.514 1.3343 5.96663 0
M  V30 6479 H 615.688 2.03808 6.65909 0
M  V30 6480 H 613.315 2.53522 7.1668 0
M  V30 6481 N 614.89 -1.56749 -0.16351 0
M  V30 6482 C 615.823 -1.9213 -1.23132 0
M  V30 6483 C 616.801 -0.785047 -1.42393 0
M  V30 6484 O 617.985 -1.0391 -1.57273 0
M  V30 6485 C 615.112 -2.17901 -2.59301 0
M  V30 6486 C 614.158 -3.40576 -2.5673 0
M  V30 6487 S 614.991 -4.94689 -2.05045 0
M  V30 6488 C 616.147 -5.23564 -3.42975 0
M  V30 6489 H 616.38 -2.824 -0.929383 0
M  V30 6490 H 613.913 -1.4994 -0.368418 0
M  V30 6491 H 615.871 -2.33429 -3.3767 0
M  V30 6492 H 614.532 -1.28324 -2.86691 0
M  V30 6493 H 613.725 -3.55833 -3.5693 0
M  V30 6494 H 613.327 -3.24204 -1.86462 0
M  V30 6495 H 615.619 -5.16019 -4.3901 0
M  V30 6496 H 616.562 -6.25134 -3.32586 0
M  V30 6497 H 616.97 -4.51113 -3.39348 0
M  V30 6498 N 616.368 0.432326 -1.51554 0
M  V30 6499 C 617.784 0.769195 -1.39841 0
M  V30 6500 C 617.984 1.95584 -0.484675 0
M  V30 6501 O 617.04 2.52433 0.0582829 0
M  V30 6502 C 618.353 1.04487 -2.81963 0
M  V30 6503 C 619.901 1.149 -2.91148 0
M  V30 6504 C 620.376 1.45758 -4.34187 0
M  V30 6505 N 621.867 1.52671 -4.37317 0
M  V30 6506 C 622.602 1.78129 -5.4503 0
M  V30 6507 N 622.098 2.01345 -6.62897 0
M  V30 6508 N 623.891 1.79953 -5.32516 0
M  V30 6509 H 616.042 -0.349122 -2.09511 0
M  V30 6510 H 618.305 -0.0938113 -0.943347 0
M  V30 6511 H 618.011 0.24557 -3.50842 0
M  V30 6512 H 617.885 1.97119 -3.21596 0
M  V30 6513 H 620.272 1.93891 -2.22464 0
M  V30 6514 H 620.353 0.201568 -2.55005 0
M  V30 6515 H 619.997 0.672917 -5.03423 0
M  V30 6516 H 619.927 2.41715 -4.67848 0
M  V30 6517 H 622.418 1.36612 -3.52343 0
M  V30 6518 H 622.731 2.20155 -7.40778 0
M  V30 6519 H 621.076 1.98657 -6.66003 0
M  V30 6520 H 624.267 1.61337 -4.39418 0
M  V30 6521 H 624.44 1.99455 -6.1654 0
M  V30 6522 N 617.846 1.41785 0.688094 0
M  V30 6523 C 618.776 1.47 1.8142 0
M  V30 6524 C 619.757 0.327881 1.6691 0
M  V30 6525 O 620.942 0.540362 1.86531 0
M  V30 6526 C 618.072 1.35876 3.19617 0
M  V30 6527 C 617.026 2.47976 3.48844 0
M  V30 6528 C 616.352 2.21915 4.86475 0
M  V30 6529 C 617.652 3.90309 3.47068 0
M  V30 6530 H 619.346 2.41247 1.77314 0
M  V30 6531 H 616.892 1.16116 0.851651 0
M  V30 6532 H 618.845 1.38134 3.98117 0
M  V30 6533 H 617.569 0.38116 3.24368 0
M  V30 6534 H 616.228 2.45013 2.72698 0
M  V30 6535 H 615.876 1.2248 4.8786 0
M  V30 6536 H 615.576 2.97037 5.06994 0
M  V30 6537 H 617.1 2.25901 5.67275 0
M  V30 6538 H 618.514 3.94947 4.1556 0
M  V30 6539 H 616.911 4.65175 3.7912 0
M  V30 6540 H 617.981 4.17927 2.45896 0
M  V30 6541 N 619.324 -0.923095 1.27737 0
M  V30 6542 C 620.554 -1.70277 1.17001 0
M  V30 6543 C 620.962 -1.87188 -0.275199 0
M  V30 6544 O 620.305 -1.39195 -1.19877 0
M  V30 6545 C 620.367 -3.11976 1.78637 0
M  V30 6546 C 620.031 -3.18386 3.27841 0
M  V30 6547 C 621.028 -3.00287 4.2441 0
M  V30 6548 C 618.713 -3.41198 3.68632 0
M  V30 6549 C 620.707 -3.04896 5.59747 0
M  V30 6550 C 618.394 -3.4544 5.04097 0
M  V30 6551 C 619.392 -3.27309 5.99465 0
M  V30 6552 O 619.08 -3.31295 7.32461 0
M  V30 6553 H 618.812 -0.539366 0.407505 0
M  V30 6554 H 621.366 -1.16446 1.69202 0
M  V30 6555 H 619.596 -3.67308 1.20919 0
M  V30 6556 H 621.285 -3.7193 1.6255 0
M  V30 6557 H 622.051 -2.825 3.94232 0
M  V30 6558 H 617.93 -3.54359 2.94873 0
M  V30 6559 H 621.474 -2.90662 6.34162 0
M  V30 6560 H 617.371 -3.62753 5.33929 0
M  V30 6561 H 618.139 -3.47719 7.40968 0
M  V30 6562 N 620.802 -1.09834 -1.13024 0
M  V30 6563 C 621.749 -0.741522 -2.18564 0
M  V30 6564 C 622.719 0.279236 -1.63736 0
M  V30 6565 O 623.904 0.159923 -1.90129 0
M  V30 6566 C 621.044 -0.17277 -3.44667 0
M  V30 6567 C 620.157 -1.24808 -4.13578 0
M  V30 6568 C 619.292 -0.641631 -5.27311 0
M  V30 6569 C 618.331 -1.69795 -5.88078 0
M  V30 6570 N 617.468 -1.11223 -6.93234 0
M  V30 6571 H 622.308 -1.64576 -2.48432 0
M  V30 6572 H 619.845 -0.822174 -1.21978 0
M  V30 6573 H 621.803 0.17482 -4.16834 0
M  V30 6574 H 620.433 0.694725 -3.15235 0
M  V30 6575 H 619.485 -1.71288 -3.39653 0
M  V30 6576 H 620.797 -2.04795 -4.54819 0
M  V30 6577 H 619.951 -0.243128 -6.06213 0
M  V30 6578 H 618.69 0.189742 -4.87331 0
M  V30 6579 H 617.695 -2.10595 -5.07868 0
M  V30 6580 H 618.92 -2.53206 -6.3013 0
M  V30 6581 H 616.866 -0.302208 -6.55304 0
M  V30 6582 H 616.783 -1.84901 -7.3304 0
M  V30 6583 H 618.051 -0.740068 -7.75979 0
M  V30 6584 N 622.28 1.30327 -0.886154 0
M  V30 6585 C 623.227 2.28099 -0.352069 0
M  V30 6586 C 624.197 1.56433 0.558397 0
M  V30 6587 O 625.382 1.84492 0.486561 0
M  V30 6588 C 622.522 3.42456 0.426346 0
M  V30 6589 C 621.635 4.28938 -0.513472 0
M  V30 6590 C 620.77 5.30458 0.280657 0
M  V30 6591 C 619.809 6.0859 -0.654556 0
M  V30 6592 N 618.946 7.02022 0.104322 0
M  V30 6593 H 623.786 2.73166 -1.19097 0
M  V30 6594 H 621.323 1.34367 -0.598662 0
M  V30 6595 H 623.281 4.07518 0.893587 0
M  V30 6596 H 621.911 2.98455 1.22981 0
M  V30 6597 H 620.963 3.64173 -1.09921 0
M  V30 6598 H 622.275 4.83399 -1.2299 0
M  V30 6599 H 621.429 6.01273 0.8097 0
M  V30 6600 H 620.168 4.76693 1.03029 0
M  V30 6601 H 619.173 5.36651 -1.19522 0
M  V30 6602 H 620.398 6.64443 -1.4033 0
M  V30 6603 H 618.344 6.50645 0.836472 0
M  V30 6604 H 618.261 7.53979 -0.552453 0
M  V30 6605 H 619.529 7.77077 0.614069 0
M  V30 6606 N 623.758 0.647228 1.43697 0
M  V30 6607 C 624.705 -0.0480092 2.3075 0
M  V30 6608 C 625.675 -0.820705 1.44408 0
M  V30 6609 O 626.86 -0.798515 1.73287 0
M  V30 6610 C 624 -1.01259 3.2991 0
M  V30 6611 C 623.113 -0.236629 4.31351 0
M  V30 6612 C 622.248 -1.19447 5.17596 0
M  V30 6613 C 621.287 -0.408595 6.10735 0
M  V30 6614 N 620.424 -1.31772 6.89623 0
M  V30 6615 H 625.264 0.700238 2.89656 0
M  V30 6616 H 622.801 0.357082 1.427 0
M  V30 6617 H 624.759 -1.58538 3.85903 0
M  V30 6618 H 623.389 -1.72778 2.72667 0
M  V30 6619 H 622.441 0.452353 3.77701 0
M  V30 6620 H 623.753 0.374731 4.9739 0
M  V30 6621 H 622.907 -1.83809 5.78186 0
M  V30 6622 H 621.646 -1.83975 4.51669 0
M  V30 6623 H 620.651 0.24841 5.49239 0
M  V30 6624 H 621.876 0.232188 6.78703 0
M  V30 6625 H 619.822 -1.94991 6.2635 0
M  V30 6626 H 619.739 -0.760779 7.52162 0
M  V30 6627 H 621.007 -1.94967 7.54724 0
M  V30 6628 N 625.236 -1.5273 0.388769 0
M  V30 6629 C 626.199 -2.25043 -0.434544 0
M  V30 6630 C 627.199 -1.26661 -0.990644 0
M  V30 6631 O 628.389 -1.50762 -0.872731 0
M  V30 6632 C 625.521 -3.00507 -1.60961 0
M  V30 6633 H 626.714 -2.99242 0.198549 0
M  V30 6634 H 624.267 -1.55664 0.140875 0
M  V30 6635 H 625.002 -2.30607 -2.28015 0
M  V30 6636 H 624.787 -3.72716 -1.21757 0
M  V30 6637 H 626.277 -3.55413 -2.19251 0
M  V30 6638 N 626.714 -0.118576 -1.57153 0
M  V30 6639 C 627.664 0.842924 -2.11846 0
M  V30 6640 C 628.648 1.22845 -1.03914 0
M  V30 6641 O 629.84 1.19961 -1.30148 0
M  V30 6642 C 626.969 2.09312 -2.72109 0
M  V30 6643 C 626.055 1.73198 -3.87122 0
M  V30 6644 N 626.446 1.07758 -4.94188 0
M  V30 6645 C 624.744 2.02659 -3.97298 0
M  V30 6646 C 625.445 0.907741 -5.74574 0
M  V30 6647 N 624.421 1.4326 -5.24383 0
M  V30 6648 H 628.223 0.333416 -2.92003 0
M  V30 6649 H 625.737 0.0839073 -1.62183 0
M  V30 6650 H 627.734 2.79162 -3.09635 0
M  V30 6651 H 626.394 2.60807 -1.93416 0
M  V30 6652 H 627.405 0.741613 -5.12563 0
M  V30 6653 H 624.082 2.56204 -3.29645 0
M  V30 6654 H 625.472 0.394112 -6.70743 0
M  V30 6655 N 628.193 1.56834 0.155195 0
M  V30 6656 C 629.123 2.00678 1.19376 0
M  V30 6657 C 630.104 0.884973 1.45266 0
M  V30 6658 O 631.289 1.1522 1.56326 0
M  V30 6659 C 628.419 2.38042 2.5289 0
M  V30 6660 C 627.373 3.53332 2.41538 0
M  V30 6661 C 626.699 3.76485 3.79688 0
M  V30 6662 C 627.999 4.86265 1.9064 0
M  V30 6663 H 629.693 2.87688 0.829232 0
M  V30 6664 H 627.239 1.38407 0.397445 0
M  V30 6665 H 629.192 2.67314 3.25763 0
M  V30 6666 H 627.916 1.4796 2.91162 0
M  V30 6667 H 626.575 3.24213 1.71117 0
M  V30 6668 H 626.223 2.83667 4.15382 0
M  V30 6669 H 625.923 4.54068 3.72956 0
M  V30 6670 H 627.447 4.08174 4.54122 0
M  V30 6671 H 628.861 5.14308 2.53299 0
M  V30 6672 H 627.258 5.67597 1.94818 0
M  V30 6673 H 628.328 4.77184 0.861596 0
M  V30 6674 N 629.671 -0.424282 1.51781 0
M  V30 6675 C 630.621 -1.51464 1.70419 0
M  V30 6676 C 631.605 -1.50911 0.558094 0
M  V30 6677 O 632.797 -1.57143 0.814552 0
M  V30 6678 C 629.926 -2.89539 1.84451 0
M  V30 6679 C 629.012 -2.94798 3.04886 0
M  V30 6680 N 629.403 -2.69778 4.27848 0
M  V30 6681 C 627.701 -3.25962 3.04408 0
M  V30 6682 C 628.402 -2.81216 5.09208 0
M  V30 6683 N 627.378 -3.13447 4.44131 0
M  V30 6684 H 631.18 -1.30892 2.63144 0
M  V30 6685 H 628.694 -0.631783 1.49607 0
M  V30 6686 H 630.691 -3.67998 1.95917 0
M  V30 6687 H 629.351 -3.11121 0.929168 0
M  V30 6688 H 630.362 -2.44458 4.56575 0
M  V30 6689 H 627.039 -3.53236 2.22555 0
M  V30 6690 H 628.429 -2.65715 6.17127 0
M  V30 6691 N 631.149 -1.42148 -0.680565 0
M  V30 6692 C 632.099 -1.41634 -1.78672 0
M  V30 6693 C 633.083 -0.288494 -1.58293 0
M  V30 6694 O 634.275 -0.530295 -1.68869 0
M  V30 6695 C 631.404 -1.31558 -3.17092 0
M  V30 6696 C 630.49 -2.49265 -3.43115 0
M  V30 6697 N 630.881 -3.74702 -3.39753 0
M  V30 6698 C 629.179 -2.43401 -3.73727 0
M  V30 6699 C 629.88 -4.52854 -3.651 0
M  V30 6700 N 628.856 -3.83181 -3.85582 0
M  V30 6701 H 632.658 -2.3652 -1.74458 0
M  V30 6702 H 630.172 -1.36415 -0.881171 0
M  V30 6703 H 632.169 -1.29272 -3.96351 0
M  V30 6704 H 630.829 -0.376696 -3.22508 0
M  V30 6705 H 631.84 -4.07378 -3.19787 0
M  V30 6706 H 628.517 -1.58062 -3.86423 0
M  V30 6707 H 629.907 -5.61827 -3.6851 0
M  V30 6708 N 632.627 0.916307 -1.28225 0
M  V30 6709 C 633.857 1.69654 -1.17902 0
M  V30 6710 C 634.265 1.87331 0.265268 0
M  V30 6711 O 633.608 1.39828 1.19137 0
M  V30 6712 C 633.67 3.11024 -1.80289 0
M  V30 6713 C 633.334 3.16643 -3.29525 0
M  V30 6714 C 634.331 2.98032 -4.25997 0
M  V30 6715 C 632.016 3.39238 -3.70436 0
M  V30 6716 C 634.01 3.01924 -5.61356 0
M  V30 6717 C 631.697 3.42762 -5.05922 0
M  V30 6718 C 632.695 3.24125 -6.01192 0
M  V30 6719 O 632.383 3.27406 -7.34208 0
M  V30 6720 H 632.115 0.537197 -0.41036 0
M  V30 6721 H 634.669 1.15547 -1.69817 0
M  V30 6722 H 632.899 3.66662 -1.22865 0
M  V30 6723 H 634.588 3.71063 -1.6452 0
M  V30 6724 H 635.354 2.80405 -3.95725 0
M  V30 6725 H 631.233 3.52791 -2.96749 0
M  V30 6726 H 634.777 2.87295 -6.35694 0
M  V30 6727 H 630.674 3.59916 -5.35846 0
M  V30 6728 H 631.442 3.43784 -7.42802 0
M  V30 6729 N 634.105 1.10431 1.1244 0
M  V30 6730 C 635.035 0.775143 2.20258 0
M  V30 6731 C 636.016 -0.25186 1.68225 0
M  V30 6732 O 637.201 -0.117637 1.93843 0
M  V30 6733 C 634.331 0.206133 3.46688 0
M  V30 6734 C 633.285 1.16382 4.11873 0
M  V30 6735 C 632.611 0.456014 5.32752 0
M  V30 6736 C 633.911 2.5104 4.58013 0
M  V30 6737 H 635.605 1.67665 2.4805 0
M  V30 6738 H 633.151 0.807595 1.19222 0
M  V30 6739 H 635.104 -0.036291 4.21384 0
M  V30 6740 H 633.828 -0.730614 3.18323 0
M  V30 6741 H 632.487 1.39169 3.39157 0
M  V30 6742 H 632.135 -0.485203 5.00654 0
M  V30 6743 H 631.835 1.09466 5.77314 0
M  V30 6744 H 633.359 0.222135 6.10196 0
M  V30 6745 H 634.773 2.32401 5.24083 0
M  V30 6746 H 633.17 3.10789 5.13352 0
M  V30 6747 H 634.24 3.11039 3.71998 0
M  V30 6748 N 635.583 -1.29855 0.893053 0
M  V30 6749 C 636.515 -2.26911 0.32311 0
M  V30 6750 C 637.528 -1.54039 -0.526858 0
M  V30 6751 O 638.717 -1.75132 -0.345095 0
M  V30 6752 C 635.817 -3.34266 -0.558509 0
M  V30 6753 C 634.99 -4.36601 0.264222 0
M  V30 6754 C 634.049 -5.23326 -0.549171 0
M  V30 6755 O 633.075 -5.69192 0.0309883 0
M  V30 6756 N 634.277 -5.50008 -1.85664 0
M  V30 6757 H 637.042 -2.76455 1.15726 0
M  V30 6758 H 634.603 -1.4312 0.756859 0
M  V30 6759 H 636.595 -3.89211 -1.1089 0
M  V30 6760 H 635.165 -2.8459 -1.29334 0
M  V30 6761 H 634.385 -3.81409 0.996046 0
M  V30 6762 H 635.673 -5.02019 0.827906 0
M  V30 6763 H 635.071 -5.14542 -2.35081 0
M  V30 6764 H 633.628 -6.07796 -2.35431 0
M  V30 6765 N 637.061 -0.65484 -1.43351 0
M  V30 6766 C 638.307 -0.169142 -2.02093 0
M  V30 6767 C 638.64 1.21431 -1.51553 0
M  V30 6768 O 637.915 1.81105 -0.709317 0
M  V30 6769 C 638.198 -0.181775 -3.59641 0
M  V30 6770 C 638.051 -1.59926 -4.20409 0
M  V30 6771 C 639.37 0.480945 -4.37464 0
M  V30 6772 H 636.489 -0.0629371 -0.734308 0
M  V30 6773 H 639.131 -0.835833 -1.70628 0
M  V30 6774 H 637.281 0.385918 -3.86578 0
M  V30 6775 H 638.953 -2.21766 -4.04497 0
M  V30 6776 H 637.196 -2.14605 -3.76998 0
M  V30 6777 H 637.867 -1.55994 -5.295 0
M  V30 6778 H 640.343 -0.00208273 -4.161 0
M  V30 6779 H 639.219 0.441384 -5.47122 0
M  V30 6780 H 639.48 1.55533 -4.13838 0
M  V30 6781 N 638.539 1.52521 -0.396863 0
M  V30 6782 C 639.449 2.30403 0.44178 0
M  V30 6783 C 640.465 1.37625 1.06468 0
M  V30 6784 O 641.641 1.70697 1.06886 0
M  V30 6785 C 638.706 3.1013 1.54986 0
M  V30 6786 C 637.767 4.18628 0.951279 0
M  V30 6787 C 637 4.94543 2.00655 0
M  V30 6788 O 637.223 4.70629 3.22281 0
M  V30 6789 O 636.157 5.797 1.61962 0
M  V30 6790 H 639.983 3.03087 -0.192892 0
M  V30 6791 H 637.568 1.48537 -0.16038 0
M  V30 6792 H 639.45 3.59816 2.19341 0
M  V30 6793 H 638.125 2.40251 2.16935 0
M  V30 6794 H 637.032 3.73119 0.270773 0
M  V30 6795 H 638.365 4.90763 0.375887 0
M  V30 6796 N 640.017 0.126909 1.57088 0
M  V30 6797 C 641.265 -0.528123 1.95078 0
M  V30 6798 C 641.586 -1.66708 1.0116 0
M  V30 6799 O 640.856 -1.95777 0.0693527 0
M  V30 6800 H 639.436 -0.198087 0.720257 0
M  V30 6801 H 642.098 0.197703 1.93895 0
M  V30 6802 H 641.194 -0.917507 2.98309 0
M  V30 6803 N 641.495 -1.56914 -0.146875 0
M  V30 6804 C 642.428 -1.93425 -1.21087 0
M  V30 6805 C 643.406 -0.800106 -1.41552 0
M  V30 6806 O 644.59 -1.05572 -1.56162 0
M  V30 6807 C 641.717 -2.20639 -2.56975 0
M  V30 6808 C 640.763 -3.43279 -2.53104 0
M  V30 6809 S 641.596 -4.96836 -1.99786 0
M  V30 6810 C 642.752 -5.27172 -3.37403 0
M  V30 6811 H 642.985 -2.8337 -0.899378 0
M  V30 6812 H 640.518 -1.50322 -0.352494 0
M  V30 6813 H 642.476 -2.36998 -3.35175 0
M  V30 6814 H 641.137 -1.31357 -2.85314 0
M  V30 6815 H 640.33 -3.59599 -3.53136 0
M  V30 6816 H 639.932 -3.26163 -1.83012 0
M  V30 6817 H 642.224 -5.20647 -4.33513 0
M  V30 6818 H 643.167 -6.28626 -3.25937 0
M  V30 6819 H 643.575 -4.54687 -3.34544 0
M  V30 6820 N 642.974 0.416227 -1.52004 0
M  V30 6821 C 643.884 1.53147 -1.77717 0
M  V30 6822 C 644.9 1.609 -0.662368 0
M  V30 6823 O 646.076 1.77747 -0.946991 0
M  V30 6824 C 643.141 2.88948 -1.91598 0
M  V30 6825 C 642.202 2.9114 -3.15493 0
M  V30 6826 C 641.435 4.20464 -3.28703 0
M  V30 6827 O 641.658 5.13981 -2.47345 0
M  V30 6828 O 640.592 4.29368 -4.21813 0
M  V30 6829 H 644.418 1.34357 -2.72363 0
M  V30 6830 H 642.003 0.601373 -1.36762 0
M  V30 6831 H 643.885 3.69505 -2.02593 0
M  V30 6832 H 642.56 3.07821 -1.00141 0
M  V30 6833 H 641.467 2.09461 -3.09962 0
M  V30 6834 H 642.8 2.77216 -4.06709 0
M  V30 6835 N 644.452 1.42507 0.673017 0
M  V30 6836 C 645.362 1.4853 1.81593 0
M  V30 6837 C 646.378 0.373907 1.69935 0
M  V30 6838 O 647.554 0.625078 1.91454 0
M  V30 6839 C 644.619 1.387 3.17747 0
M  V30 6840 C 643.68 2.60346 3.41348 0
M  V30 6841 C 642.913 2.50975 4.71007 0
M  V30 6842 O 643.136 1.54659 5.49033 0
M  V30 6843 O 642.07 3.41138 4.95892 0
M  V30 6844 H 645.896 2.45001 1.79467 0
M  V30 6845 H 643.481 1.2429 0.82899 0
M  V30 6846 H 645.363 1.35586 3.98992 0
M  V30 6847 H 644.038 0.453555 3.20507 0
M  V30 6848 H 642.945 2.69034 2.59945 0
M  V30 6849 H 644.278 3.52595 3.43421 0
M  V30 6850 N 645.93 -0.909495 1.28709 0
M  V30 6851 C 647.155 -1.69801 1.1909 0
M  V30 6852 C 647.58 -1.86479 -0.246388 0
M  V30 6853 O 646.938 -1.37802 -1.17815 0
M  V30 6854 C 646.986 -3.06543 1.89904 0
M  V30 6855 O 646.09 -3.94268 1.2094 0
M  V30 6856 H 645.431 -0.519783 0.413185 0
M  V30 6857 H 647.961 -1.13689 1.70106 0
M  V30 6858 H 647.971 -3.56748 1.97977 0
M  V30 6859 H 646.646 -2.93722 2.94449 0
M  V30 6860 H 645.223 -3.52702 1.2106 0
M  V30 6861 N 647.408 -1.11026 -1.11852 0
M  V30 6862 C 648.648 -0.866348 -1.85132 0
M  V30 6863 C 649.012 0.597236 -1.82475 0
M  V30 6864 O 650.213 0.957744 -2.51159 0
M  V30 6865 C 648.484 -1.40721 -3.28531 0
M  V30 6866 S 650.043 -1.29964 -4.19112 0
M  V30 6867 H 646.861 -0.312899 -0.638447 0
M  V30 6868 H 649.463 -1.41691 -1.34699 0
M  V30 6869 H 648.167 -2.46631 -3.28027 0
M  V30 6870 H 647.698 -0.85349 -3.8403 0
M  V30 6871 H 649.713 -0.261333 -4.95511 0
M  V30 6872 N 648.886 1.2938 -0.899927 0
M  V30 6873 C 650.133 1.9555 -0.525963 0
M  V30 6874 C 650.461 1.70945 0.927789 0
M  V30 6875 O 649.716 1.01545 1.67293 0
M  V30 6876 C 650.015 3.49114 -0.765113 0
M  V30 6877 C 649.681 3.93796 -2.19626 0
M  V30 6878 C 648.343 4.05707 -2.58758 0
M  V30 6879 C 650.695 4.16883 -3.12823 0
M  V30 6880 C 648.023 4.38074 -3.90267 0
M  V30 6881 C 650.375 4.50725 -4.4388 0
M  V30 6882 C 649.039 4.60845 -4.82885 0
M  V30 6883 H 648.309 0.715569 -0.192463 0
M  V30 6884 H 650.956 1.53972 -1.13863 0
M  V30 6885 H 649.261 3.91738 -0.069531 0
M  V30 6886 H 650.958 3.98409 -0.455144 0
M  V30 6887 H 647.548 3.85042 -1.88256 0
M  V30 6888 H 651.732 4.07147 -2.83804 0
M  V30 6889 H 646.988 4.44112 -4.20207 0
M  V30 6890 H 651.162 4.67538 -5.16121 0
M  V30 6891 H 648.789 4.85681 -5.84823 0
M  V30 6892 N 650.364 0.662433 1.43002 0
M  V30 6893 C 651.592 0.187615 2.06048 0
M  V30 6894 C 652.007 -1.15039 1.49705 0
M  V30 6895 O 651.364 -1.71209 0.631956 0
M  V30 6896 C 651.415 0.100498 3.6136 0
M  V30 6897 O 651.136 1.38562 4.15611 0
M  V30 6898 C 652.637 -0.399298 4.41498 0
M  V30 6899 H 649.857 0.0941675 0.664359 0
M  V30 6900 H 652.401 0.905681 1.83351 0
M  V30 6901 H 650.556 -0.568181 3.83211 0
M  V30 6902 H 650.97 1.25084 5.09366 0
M  V30 6903 H 652.444 -0.409187 5.50481 0
M  V30 6904 H 652.921 -1.43232 4.15188 0
M  V30 6905 H 653.527 0.23721 4.24638 0
M  V30 6906 N 651.842 -1.52309 0.404946 0
M  V30 6907 C 652.752 -2.30634 -0.429555 0
M  V30 6908 C 653.768 -1.38187 -1.05737 0
M  V30 6909 O 654.944 -1.71261 -1.05979 0
M  V30 6910 C 652.009 -3.10947 -1.53339 0
M  V30 6911 C 651.07 -4.19126 -0.929065 0
M  V30 6912 C 650.303 -4.95601 -1.9803 0
M  V30 6913 O 650.526 -4.72331 -3.1978 0
M  V30 6914 O 649.46 -5.80551 -1.58886 0
M  V30 6915 H 653.286 -3.0298 0.208963 0
M  V30 6916 H 650.871 -1.4845 0.168255 0
M  V30 6917 H 652.753 -3.60974 -2.1743 0
M  V30 6918 H 651.428 -2.41399 -2.15658 0
M  V30 6919 H 650.335 -3.73257 -0.250982 0
M  V30 6920 H 651.668 -4.90955 -0.349855 0
M  V30 6921 N 653.32 -0.135238 -1.57019 0
M  V30 6922 C 654.283 0.794707 -2.14981 0
M  V30 6923 C 655.283 1.18342 -1.08866 0
M  V30 6924 O 656.473 1.10627 -1.34563 0
M  V30 6925 C 653.605 2.07685 -2.70333 0
M  V30 6926 H 654.798 0.290696 -2.98488 0
M  V30 6927 H 652.351 0.114128 -1.55883 0
M  V30 6928 H 653.086 2.6248 -1.9046 0
M  V30 6929 H 652.871 1.80745 -3.47957 0
M  V30 6930 H 654.361 2.74127 -3.1503 0
M  V30 6931 N 654.798 1.5699 0.138552 0
M  V30 6932 C 656.044 1.84081 0.85099 0
M  V30 6933 C 656.377 0.718107 1.80435 0
M  V30 6934 O 655.652 -0.277633 1.92508 0
M  V30 6935 C 655.935 3.21699 1.61808 0
M  V30 6936 C 655.788 4.44544 0.685633 0
M  V30 6937 C 657.107 3.5664 2.57868 0
M  V30 6938 H 654.226 0.669592 0.307922 0
M  V30 6939 H 656.868 1.89646 0.11588 0
M  V30 6940 H 655.018 3.17086 2.24474 0
M  V30 6941 H 656.69 4.61248 0.0693179 0
M  V30 6942 H 654.933 4.338 -0.00421993 0
M  V30 6943 H 655.604 5.3746 1.25858 0
M  V30 6944 H 658.08 3.61918 2.05316 0
M  V30 6945 H 656.956 4.53946 3.08584 0
M  V30 6946 H 657.217 2.83036 3.39622 0
M  V30 6947 N 656.276 -0.40816 1.52223 0
M  V30 6948 C 657.501 -1.18127 1.70472 0
M  V30 6949 C 657.926 -1.83491 0.41384 0
M  V30 6950 O 657.284 -1.70047 -0.628778 0
M  V30 6951 C 657.332 -2.21935 2.84213 0
M  V30 6952 O 656.436 -3.28099 2.4985 0
M  V30 6953 H 655.777 -0.344781 0.56747 0
M  V30 6954 H 658.307 -0.478328 1.9893 0
M  V30 6955 H 658.317 -2.66248 3.09153 0
M  V30 6956 H 656.992 -1.73744 3.7787 0
M  V30 6957 H 655.569 -2.89058 2.35584 0
M  V30 6958 N 657.755 -1.42862 -0.66545 0
M  V30 6959 C 658.98 -1.47456 -1.45848 0
M  V30 6960 C 659.405 -0.0900312 -1.87884 0
M  V30 6961 O 658.763 0.913587 -1.56599 0
M  V30 6962 C 658.811 -2.41514 -2.67774 0
M  V30 6963 O 657.915 -1.89296 -3.66389 0
M  V30 6964 H 657.256 -0.499236 -0.437789 0
M  V30 6965 H 659.786 -1.8765 -0.815394 0
M  V30 6966 H 659.796 -2.58409 -3.15735 0
M  V30 6967 H 658.471 -3.42099 -2.36519 0
M  V30 6968 H 657.048 -1.82003 -3.25468 0
M  V30 6969 N 659.233 0.902656 -1.29189 0
M  V30 6970 C 660.163 2.02294 -1.16616 0
M  V30 6971 C 661.144 1.6999 -0.0611175 0
M  V30 6972 O 662.329 1.9271 -0.240072 0
M  V30 6973 C 659.459 3.37018 -0.83882 0
M  V30 6974 C 658.413 3.83522 -1.89986 0
M  V30 6975 C 657.739 5.15337 -1.42589 0
M  V30 6976 C 659.039 4.04169 -3.30824 0
M  V30 6977 H 660.733 2.13071 -2.10336 0
M  V30 6978 H 658.279 1.02378 -1.01266 0
M  V30 6979 H 660.232 4.14895 -0.737584 0
M  V30 6980 H 658.956 3.26325 0.134071 0
M  V30 6981 H 657.615 3.07859 -1.99043 0
M  V30 6982 H 657.263 5.01056 -0.441759 0
M  V30 6983 H 656.963 5.47423 -2.13547 0
M  V30 6984 H 658.487 5.95758 -1.3381 0
M  V30 6985 H 659.901 4.72537 -3.24626 0
M  V30 6986 H 658.298 4.47604 -3.99713 0
M  V30 6987 H 659.368 3.08604 -3.74021 0
M  V30 6988 N 660.711 1.11618 1.11262 0
M  V30 6989 C 661.936 0.889013 1.8738 0
M  V30 6990 C 662.361 -0.555884 1.79698 0
M  V30 6991 O 661.719 -1.39272 1.16073 0
M  V30 6992 C 661.767 1.35759 3.34069 0
M  V30 6993 O 660.871 0.530499 4.08974 0
M  V30 6994 H 660.212 0.320082 0.581759 0
M  V30 6995 H 662.742 1.48611 1.40627 0
M  V30 6996 H 662.752 1.35291 3.84916 0
M  V30 6997 H 661.427 2.40973 3.38976 0
M  V30 6998 H 660.004 0.601439 3.68018 0
M  V30 6999 N 662.189 -1.289 0.906776 0
M  V30 7000 C 663.152 -2.25777 0.394656 0
M  V30 7001 C 664.152 -1.53621 -0.475119 0
M  V30 7002 O 665.342 -1.71949 -0.279165 0
M  V30 7003 C 662.474 -3.38113 -0.43499 0
M  V30 7004 H 663.667 -2.72592 1.25033 0
M  V30 7005 H 661.22 -1.40463 0.685547 0
M  V30 7006 H 661.955 -2.96648 -1.31036 0
M  V30 7007 H 661.74 -3.91647 0.188334 0
M  V30 7008 H 663.23 -4.10168 -0.784365 0
M  V30 7009 N 663.667 -0.670007 -1.42649 0
M  V30 7010 C 664.597 -0.00258501 -2.335 0
M  V30 7011 C 665.578 0.794364 -1.50412 0
M  V30 7012 O 666.763 0.75248 -1.79029 0
M  V30 7013 C 663.893 0.952748 -3.33976 0
M  V30 7014 C 662.847 0.264733 -4.2718 0
M  V30 7015 C 662.173 1.33267 -5.17826 0
M  V30 7016 C 663.473 -0.853289 -5.15283 0
M  V30 7017 H 665.167 -0.761326 -2.89559 0
M  V30 7018 H 662.713 -0.367561 -1.3923 0
M  V30 7019 H 664.666 1.4287 -3.96442 0
M  V30 7020 H 663.39 1.74285 -2.7621 0
M  V30 7021 H 662.049 -0.190938 -3.66102 0
M  V30 7022 H 661.697 2.11464 -4.5639 0
M  V30 7023 H 661.397 0.877476 -5.81011 0
M  V30 7024 H 662.921 1.80965 -5.83167 0
M  V30 7025 H 664.335 -0.458763 -5.71462 0
M  V30 7026 H 662.732 -1.23398 -5.87276 0
M  V30 7027 H 663.802 -1.70412 -4.53969 0
M  V30 7028 N 665.145 1.52092 -0.413018 0
M  V30 7029 C 666.394 2.01041 0.16287 0
M  V30 7030 C 666.707 1.30288 1.45892 0
M  V30 7031 O 667.913 1.70075 2.11629 0
M  V30 7032 C 666.369 3.58283 0.340806 0
M  V30 7033 C 665.977 4.37955 -0.943377 0
M  V30 7034 C 667.721 4.15452 0.871774 0
M  V30 7035 C 665.628 5.86847 -0.732417 0
M  V30 7036 H 664.558 0.751224 0.0646414 0
M  V30 7037 H 667.209 1.75404 -0.539059 0
M  V30 7038 H 665.591 3.80266 1.10516 0
M  V30 7039 H 666.765 4.2773 -1.71418 0
M  V30 7040 H 665.08 3.92122 -1.40105 0
M  V30 7041 H 667.677 5.24375 1.0457 0
M  V30 7042 H 668.02 3.73057 1.84755 0
M  V30 7043 H 668.553 3.97452 0.166377 0
M  V30 7044 H 665.292 6.33609 -1.67986 0
M  V30 7045 H 664.812 5.998 -0.000980058 0
M  V30 7046 H 666.491 6.45906 -0.376105 0
M  V30 7047 N 666.623 0.143563 1.56945 0
M  V30 7048 C 667.555 -0.828353 2.13708 0
M  V30 7049 C 668.568 -1.21313 1.08568 0
M  V30 7050 O 669.757 -1.1578 1.35857 0
M  V30 7051 C 666.857 -2.12248 2.64204 0
M  V30 7052 C 666.03 -1.90561 3.93707 0
M  V30 7053 C 665.089 -3.03931 4.29549 0
M  V30 7054 O 664.115 -2.75772 4.97934 0
M  V30 7055 N 665.317 -4.31016 3.88852 0
M  V30 7056 H 668.082 -0.343242 2.97728 0
M  V30 7057 H 665.643 -0.0401152 1.6185 0
M  V30 7058 H 667.635 -2.87132 2.85197 0
M  V30 7059 H 666.205 -2.52033 1.84928 0
M  V30 7060 H 665.425 -0.997327 3.81375 0
M  V30 7061 H 666.713 -1.73405 4.78339 0
M  V30 7062 H 666.111 -4.56762 3.33743 0
M  V30 7063 H 664.668 -5.02691 4.14903 0
M  V30 7064 N 668.101 -1.57061 -0.130224 0
M  V30 7065 C 669.011 -2.02802 -1.17934 0
M  V30 7066 C 670.027 -0.946378 -1.46013 0
M  V30 7067 O 671.203 -1.25708 -1.57351 0
M  V30 7068 C 668.268 -2.41368 -2.48882 0
M  V30 7069 C 667.329 -3.63561 -2.28301 0
M  V30 7070 C 666.562 -4.00279 -3.53005 0
M  V30 7071 O 666.785 -3.37463 -4.59864 0
M  V30 7072 O 665.719 -4.93441 -3.44673 0
M  V30 7073 H 669.545 -2.92394 -0.820958 0
M  V30 7074 H 667.13 -1.45475 -0.340197 0
M  V30 7075 H 669.012 -2.66958 -3.26054 0
M  V30 7076 H 667.687 -1.54926 -2.84217 0
M  V30 7077 H 666.594 -3.43136 -1.49025 0
M  V30 7078 H 667.927 -4.50673 -1.97875 0
M  V30 7079 N 669.579 0.400081 -1.52437 0
M  V30 7080 C 670.809 1.16598 -1.70553 0
M  V30 7081 C 671.217 1.8451 -0.418665 0
M  V30 7082 O 670.56 1.73069 0.615855 0
M  V30 7083 C 670.622 2.26517 -2.7916 0
M  V30 7084 C 670.286 1.78666 -4.20628 0
M  V30 7085 C 671.283 1.26946 -5.04163 0
M  V30 7086 C 668.968 1.85225 -4.66902 0
M  V30 7087 C 670.962 0.824187 -6.32049 0
M  V30 7088 C 668.649 1.40309 -5.94774 0
M  V30 7089 C 669.647 0.889922 -6.77178 0
M  V30 7090 O 669.335 0.447281 -8.02655 0
M  V30 7091 H 669.067 0.356023 -0.574651 0
M  V30 7092 H 671.621 0.475598 -1.99818 0
M  V30 7093 H 669.851 2.98946 -2.45292 0
M  V30 7094 H 671.54 2.88237 -2.85787 0
M  V30 7095 H 672.306 1.21244 -4.69601 0
M  V30 7096 H 668.185 2.24111 -4.02859 0
M  V30 7097 H 671.729 0.422958 -6.96317 0
M  V30 7098 H 667.626 1.45693 -6.28843 0
M  V30 7099 H 668.394 0.569768 -8.16514 0
M  V30 7100 N 671.057 1.43213 0.657864 0
M  V30 7101 C 672.334 1.35063 1.41483 0
M  V30 7102 C 672.714 -0.0038314 2.111 0
M  V30 7103 O 672.062 -1.02018 2.04462 0
M  V30 7104 C 672.272 2.53061 2.40335 0
M  V30 7105 C 673.62 2.9594 3.04474 0
M  V30 7106 O 674.644 2.53074 2.50663 0
M  V30 7107 O 673.503 3.70184 4.02027 0
M  V30 7108 H 670.597 0.533517 0.631893 0
M  V30 7109 H 673.143 1.55253 0.685162 0
M  V30 7110 H 671.915 3.43283 1.87809 0
M  V30 7111 H 671.538 2.34945 3.20759 0
M  V30 7112 N 672.536 -0.895792 1.29666 0
M  V30 7113 C 673.468 -2.00563 1.10937 0
M  V30 7114 C 674.481 -1.62705 0.055734 0
M  V30 7115 O 675.67 -1.7595 0.300656 0
M  V30 7116 C 672.77 -3.32262 0.667448 0
M  V30 7117 C 671.943 -3.98625 1.80047 0
M  V30 7118 C 671.002 -5.08617 1.3489 0
M  V30 7119 O 670.028 -5.30837 2.05429 0
M  V30 7120 N 671.23 -5.80076 0.221937 0
M  V30 7121 H 673.995 -2.17184 2.06522 0
M  V30 7122 H 671.556 -1.06822 1.21658 0
M  V30 7123 H 673.548 -4.03196 0.348586 0
M  V30 7124 H 672.118 -3.11985 -0.196055 0
M  V30 7125 H 671.338 -3.21005 2.28801 0
M  V30 7126 H 672.626 -4.39704 2.56003 0
M  V30 7127 H 672.024 -5.64514 -0.366084 0
M  V30 7128 H 670.581 -6.51789 -0.0375346 0
M  V30 7129 N 674.014 -1.12206 -1.10668 0
M  V30 7130 C 674.944 -0.810086 -2.18997 0
M  V30 7131 C 675.925 0.225065 -1.68604 0
M  V30 7132 O 677.11 0.086783 -1.94006 0
M  V30 7133 C 674.24 -0.261262 -3.46316 0
M  V30 7134 C 673.194 -1.2292 -4.09969 0
M  V30 7135 C 672.52 -0.540713 -5.31959 0
M  V30 7136 C 673.82 -2.58295 -4.53962 0
M  V30 7137 H 675.514 -1.7159 -2.45352 0
M  V30 7138 H 673.06 -0.82646 -1.17922 0
M  V30 7139 H 675.013 -0.0307522 -4.21389 0
M  V30 7140 H 673.737 0.679879 -3.19445 0
M  V30 7141 H 672.396 -1.44548 -3.369 0
M  V30 7142 H 672.044 0.405492 -5.01363 0
M  V30 7143 H 671.744 -1.18637 -5.75499 0
M  V30 7144 H 673.268 -0.319184 -6.09765 0
M  V30 7145 H 674.682 -2.40709 -5.20319 0
M  V30 7146 H 673.079 -3.18916 -5.08343 0
M  V30 7147 H 674.149 -3.16918 -3.67002 0
M  V30 7148 N 675.492 1.28418 -0.913599 0
M  V30 7149 C 676.769 1.89977 -0.465619 0
M  V30 7150 C 677.149 1.82813 1.05559 0
M  V30 7151 O 676.497 1.26397 1.90358 0
M  V30 7152 C 676.707 3.34492 -0.995813 0
M  V30 7153 C 678.055 4.11468 -1.04782 0
M  V30 7154 O 679.079 3.43451 -0.944445 0
M  V30 7155 O 677.938 5.33046 -1.20518 0
M  V30 7156 H 675.032 0.813734 -0.147532 0
M  V30 7157 H 677.578 1.36786 -1.00437 0
M  V30 7158 H 676.35 3.33929 -2.03978 0
M  V30 7159 H 675.973 3.95181 -0.437878 0
M  V30 7160 N 676.97 0.677563 1.42291 0
M  V30 7161 C 677.933 0.0101085 2.29198 0
M  V30 7162 C 678.933 -0.726219 1.43467 0
M  V30 7163 O 680.123 -0.563807 1.64824 0
M  V30 7164 C 677.255 -0.996316 3.26016 0
M  V30 7165 H 678.448 0.775071 2.89711 0
M  V30 7166 H 676.001 0.440065 1.49977 0
M  V30 7167 H 676.736 -1.78967 2.70446 0
M  V30 7168 H 676.521 -0.471687 3.89253 0
M  V30 7169 H 678.011 -1.46167 3.91184 0
M  V30 7170 N 678.448 -1.51871 0.421078 0
M  V30 7171 C 679.676 -2.06356 -0.14994 0
M  V30 7172 C 680.091 -1.29006 -1.37851 0
M  V30 7173 O 679.448 -0.345139 -1.79207 0
M  V30 7174 C 679.499 -3.58185 -0.488454 0
M  V30 7175 O 679.22 -4.32611 0.691341 0
M  V30 7176 C 680.721 -4.29129 -1.11191 0
M  V30 7177 H 677.941 -0.67083 -0.0151186 0
M  V30 7178 H 680.485 -1.95638 0.595476 0
M  V30 7179 H 678.64 -3.68871 -1.18376 0
M  V30 7180 H 679.054 -5.22927 0.405906 0
M  V30 7181 H 680.528 -5.36501 -1.29889 0
M  V30 7182 H 681.005 -3.86371 -2.0884 0
M  V30 7183 H 681.611 -4.22843 -0.456458 0
M  V30 7184 N 679.926 -0.151884 -1.56866 0
M  V30 7185 C 680.873 0.785936 -2.17006 0
M  V30 7186 C 681.843 1.2407 -1.10435 0
M  V30 7187 O 683.028 1.31235 -1.38499 0
M  V30 7188 C 680.168 2.01771 -2.79969 0
M  V30 7189 C 679.281 1.6083 -4.00946 0
M  V30 7190 C 678.416 2.79224 -4.51893 0
M  V30 7191 C 677.455 2.3468 -5.65324 0
M  V30 7192 N 676.592 3.461 -6.10867 0
M  V30 7193 H 681.432 0.266286 -2.96808 0
M  V30 7194 H 678.969 0.11972 -1.46612 0
M  V30 7195 H 680.927 2.73989 -3.14621 0
M  V30 7196 H 679.557 2.51139 -2.02803 0
M  V30 7197 H 678.609 0.783592 -3.72242 0
M  V30 7198 H 679.921 1.24119 -4.83111 0
M  V30 7199 H 679.075 3.59625 -4.88625 0
M  V30 7200 H 677.814 3.19183 -3.68746 0
M  V30 7201 H 676.819 1.52721 -5.28163 0
M  V30 7202 H 678.044 1.95801 -6.5026 0
M  V30 7203 H 675.99 3.85671 -5.30654 0
M  V30 7204 H 675.907 3.1342 -6.87971 0
M  V30 7205 H 677.175 4.26844 -6.52246 0
M  V30 7206 N 681.404 1.57128 0.121893 0
M  V30 7207 C 682.352 2.01109 1.16868 0
M  V30 7208 C 683.346 0.907532 1.43039 0
M  V30 7209 O 684.552 1.09274 1.43036 0
M  V30 7210 H 680.927 0.640539 0.393971 0
M  V30 7211 H 682.898 2.88261 0.771224 0
M  V30 7212 C 681.647 2.42887 2.48799 0
M  V30 7213 H 680.97 3.2737 2.29498 0
M  V30 7214 H 682.41 2.77461 3.20611 0
M  V30 7215 C 680.869 1.29137 3.11168 0
M  V30 7216 O 681.399 0.605756 3.97106 0
M  V30 7217 N 679.605 1.04916 2.71 0
M  V30 7218 H 679.152 1.60848 2.01211 0
M  V30 7219 H 679.11 0.290016 3.1306 0
M  V30 7220 N 682.882 -0.391992 1.52647 0
M  V30 7221 C 683.815 -1.50019 1.71958 0
M  V30 7222 C 684.793 -1.5238 0.567365 0
M  V30 7223 O 685.977 -1.70831 0.796806 0
M  V30 7224 C 683.104 -2.88496 1.77447 0
M  V30 7225 C 682.15 -3.03974 2.99169 0
M  V30 7226 S 682.983 -2.75487 4.59203 0
M  V30 7227 C 684.139 -4.16163 4.67503 0
M  V30 7228 H 684.372 -1.33413 2.65685 0
M  V30 7229 H 681.905 -0.584674 1.42902 0
M  V30 7230 H 683.863 -3.68296 1.81296 0
M  V30 7231 H 682.524 -3.02431 0.848188 0
M  V30 7232 H 681.717 -4.05328 2.99542 0
M  V30 7233 H 681.319 -2.32062 2.93297 0
M  V30 7234 H 683.611 -5.10048 4.45934 0
M  V30 7235 H 684.554 -4.20806 5.69498 0
M  V30 7236 H 684.962 -4.01933 3.96371 0
M  V30 7237 N 684.36 -1.4356 -0.65026 0
M  V30 7238 C 685.771 -1.40324 -1.2315 0
M  V30 7239 C 686.122 -0.108812 -1.95898 0
M  V30 7240 O 685.247 0.79163 -2.01401 0
M  V30 7241 C 685.842 -2.54195 -2.23987 0
M  V30 7242 C 684.401 -2.54215 -2.77582 0
M  V30 7243 C 683.548 -2.31752 -1.5227 0
M  V30 7244 H 686.499 -1.52418 -0.442095 0
M  V30 7245 H 686.52 -2.25854 -3.0622 0
M  V30 7246 H 686.032 -3.48392 -1.71011 0
M  V30 7247 H 684.133 -1.63907 -3.34612 0
M  V30 7248 H 684.246 -3.52081 -3.24925 0
M  V30 7249 H 682.61 -1.80476 -1.79723 0
M  V30 7250 H 683.393 -3.28037 -1.01225 0
M  V30 7251 N 685.838 0.888903 -1.30139 0
M  V30 7252 C 687.084 1.6428 -1.18912 0
M  V30 7253 C 687.417 1.92499 0.256477 0
M  V30 7254 O 686.692 1.54312 1.18397 0
M  V30 7255 C 686.975 2.9851 -2.01405 0
M  V30 7256 C 686.828 2.77288 -3.54163 0
M  V30 7257 C 688.147 3.99383 -1.84882 0
M  V30 7258 H 685.266 0.596148 -0.433333 0
M  V30 7259 H 687.908 1.0289 -1.5973 0
M  V30 7260 H 686.058 3.50907 -1.66722 0
M  V30 7261 H 687.73 2.31709 -3.98884 0
M  V30 7262 H 685.973 2.11867 -3.78543 0
M  V30 7263 H 686.644 3.72717 -4.07168 0
M  V30 7264 H 689.12 3.56132 -2.15196 0
M  V30 7265 H 687.996 4.91222 -2.44934 0
M  V30 7266 H 688.257 4.34674 -0.806902 0
M  V30 7267 N 687.317 1.12792 1.10072 0
M  V30 7268 C 688.249 0.757003 2.16338 0
M  V30 7269 C 689.262 -0.218144 1.61332 0
M  V30 7270 O 690.451 0.0010727 1.785 0
M  V30 7271 C 687.551 0.100303 3.38752 0
M  V30 7272 C 686.724 1.10586 4.2319 0
M  V30 7273 C 685.783 0.47609 5.24042 0
M  V30 7274 O 684.809 1.13418 5.57786 0
M  V30 7275 N 686.011 -0.754823 5.75572 0
M  V30 7276 H 688.776 1.6714 2.48766 0
M  V30 7277 H 686.337 1.02003 1.25726 0
M  V30 7278 H 688.329 -0.333092 4.03327 0
M  V30 7279 H 686.899 -0.716915 3.04268 0
M  V30 7280 H 686.119 1.71677 3.54853 0
M  V30 7281 H 687.407 1.78571 4.76435 0
M  V30 7282 H 686.805 -1.30838 5.50362 0
M  V30 7283 H 685.362 -1.13098 6.41913 0
M  V30 7284 N 688.795 -1.27931 0.920396 0
M  V30 7285 C 690.072 -1.89728 0.475687 0
M  V30 7286 C 690.452 -1.8337 -1.04588 0
M  V30 7287 O 689.8 -1.27404 -1.89685 0
M  V30 7288 C 690.01 -3.33959 1.01354 0
M  V30 7289 C 691.358 -4.10907 1.06963 0
M  V30 7290 O 692.382 -3.42945 0.962646 0
M  V30 7291 O 691.241 -5.32399 1.23343 0
M  V30 7292 H 688.335 -0.81294 0.151845 0
M  V30 7293 H 690.881 -1.36252 1.01161 0
M  V30 7294 H 689.653 -3.32843 2.05746 0
M  V30 7295 H 689.276 -3.94944 0.458829 0
M  V30 7296 N 690.273 -0.685099 -1.4193 0
M  V30 7297 C 691.203 -0.0273506 -2.33484 0
M  V30 7298 C 692.184 0.778366 -1.51246 0
M  V30 7299 O 693.369 0.733449 -1.79817 0
M  V30 7300 C 690.499 0.917272 -3.34968 0
M  V30 7301 C 689.453 0.21941 -4.27437 0
M  V30 7302 C 688.779 1.27768 -5.1921 0
M  V30 7303 C 690.079 -0.907894 -5.14349 0
M  V30 7304 H 691.773 -0.791994 -2.88735 0
M  V30 7305 H 689.319 -0.382308 -1.38832 0
M  V30 7306 H 691.272 1.38657 -3.97935 0
M  V30 7307 H 689.996 1.71346 -2.78043 0
M  V30 7308 H 688.655 -0.229757 -3.65879 0
M  V30 7309 H 688.303 2.06612 -4.58607 0
M  V30 7310 H 688.003 0.815803 -5.81909 0
M  V30 7311 H 689.527 1.7477 -5.85054 0
M  V30 7312 H 690.941 -0.519348 -5.70943 0
M  V30 7313 H 689.338 -1.2962 -5.85934 0
M  V30 7314 H 690.408 -1.75218 -4.52136 0
M  V30 7315 N 691.751 1.51645 -0.429126 0
M  V30 7316 C 693.162 1.86665 0.0359003 0
M  V30 7317 C 693.513 1.34677 1.42676 0
M  V30 7318 O 692.638 0.694195 2.04963 0
M  V30 7319 C 693.233 3.38724 0.0719221 0
M  V30 7320 C 691.792 3.7331 0.481336 0
M  V30 7321 C 690.939 2.75313 -0.331329 0
M  V30 7322 H 693.89 1.44987 -0.645333 0
M  V30 7323 H 693.911 3.7011 0.883118 0
M  V30 7324 H 693.423 3.76532 -0.940495 0
M  V30 7325 H 691.524 3.41088 1.49966 0
M  V30 7326 H 691.637 4.78631 0.211837 0
M  V30 7327 H 690.001 2.53839 0.209204 0
M  V30 7328 H 690.784 3.15963 -1.34247 0
M  V30 7329 N 693.229 0.160201 1.56784 0
M  V30 7330 C 694.645 -0.196089 1.58391 0
M  V30 7331 C 694.845 -1.63689 1.17508 0
M  V30 7332 O 693.901 -2.36613 0.881506 0
M  V30 7333 C 695.214 0.0746449 3.00607 0
M  V30 7334 C 696.762 0.0119762 3.12998 0
M  V30 7335 C 697.237 0.255551 4.57286 0
M  V30 7336 N 698.728 0.202938 4.62755 0
M  V30 7337 C 699.463 0.365731 5.72232 0
M  V30 7338 N 698.959 0.586972 6.90309 0
M  V30 7339 N 700.752 0.302411 5.61286 0
M  V30 7340 H 692.903 1.1008 1.81648 0
M  V30 7341 H 695.166 0.436779 0.841384 0
M  V30 7342 H 694.872 1.07231 3.34954 0
M  V30 7343 H 694.746 -0.638802 3.71751 0
M  V30 7344 H 697.133 -0.976254 2.78484 0
M  V30 7345 H 697.214 0.75796 2.44313 0
M  V30 7346 H 696.858 1.24094 4.92507 0
M  V30 7347 H 696.788 -0.510912 5.24116 0
M  V30 7348 H 699.279 0.0371328 3.77882 0
M  V30 7349 H 699.592 0.700941 7.69615 0
M  V30 7350 H 697.937 0.623453 6.92198 0
M  V30 7351 H 701.128 0.130238 4.67919 0
M  V30 7352 H 701.301 0.432712 6.46554 0
M  V30 7353 N 694.707 -1.5719 -0.113559 0
M  V30 7354 C 695.637 -2.03772 -1.14013 0
M  V30 7355 C 696.618 -0.923176 -1.42869 0
M  V30 7356 O 697.803 -1.19325 -1.53216 0
M  V30 7357 C 694.933 -2.44663 -2.4649 0
M  V30 7358 C 693.887 -3.59612 -2.32085 0
M  V30 7359 C 693.213 -3.8642 -3.69573 0
M  V30 7360 C 694.513 -4.91149 -1.7768 0
M  V30 7361 H 696.207 -2.89785 -0.752665 0
M  V30 7362 H 693.753 -1.39412 -0.360609 0
M  V30 7363 H 695.706 -2.75857 -3.18561 0
M  V30 7364 H 694.43 -1.55628 -2.87137 0
M  V30 7365 H 693.089 -3.28636 -1.62461 0
M  V30 7366 H 692.737 -2.94581 -4.07715 0
M  V30 7367 H 692.437 -4.63797 -3.60786 0
M  V30 7368 H 693.961 -4.2007 -4.4314 0
M  V30 7369 H 695.375 -5.20843 -2.39574 0
M  V30 7370 H 693.772 -5.72562 -1.79701 0
M  V30 7371 H 694.842 -4.79301 -0.734776 0
M  V30 7372 N 696.185 0.383891 -1.52853 0
M  V30 7373 C 697.41 1.154 -1.7233 0
M  V30 7374 C 697.835 1.82809 -0.44298 0
M  V30 7375 O 697.193 1.71026 0.601645 0
M  V30 7376 C 697.241 2.17386 -2.87708 0
M  V30 7377 O 696.345 3.24082 -2.55038 0
M  V30 7378 H 695.686 0.335709 -0.572883 0
M  V30 7379 H 698.216 0.44662 -1.99666 0
M  V30 7380 H 698.226 2.61296 -3.1335 0
M  V30 7381 H 696.901 1.6771 -3.80587 0
M  V30 7382 H 695.478 2.85273 -2.40153 0
M  V30 7383 N 697.663 1.43903 0.642637 0
M  V30 7384 C 698.912 1.45362 1.39831 0
M  V30 7385 C 699.225 0.0856289 1.95412 0
M  V30 7386 O 700.431 -0.0222856 2.71491 0
M  V30 7387 C 698.887 2.55857 2.53111 0
M  V30 7388 C 698.495 3.98811 2.04092 0
M  V30 7389 C 700.239 2.66524 3.30402 0
M  V30 7390 C 698.146 5.00751 3.14647 0
M  V30 7391 H 697.076 0.540777 0.52543 0
M  V30 7392 H 699.727 1.69929 0.692559 0
M  V30 7393 H 698.109 2.2451 3.26207 0
M  V30 7394 H 699.283 4.3967 1.37938 0
M  V30 7395 H 697.598 3.92284 1.39651 0
M  V30 7396 H 700.195 3.39858 4.12796 0
M  V30 7397 H 700.538 1.71949 3.79129 0
M  V30 7398 H 701.071 2.97224 2.64392 0
M  V30 7399 H 697.81 5.96914 2.70876 0
M  V30 7400 H 697.33 4.64495 3.79479 0
M  V30 7401 H 699.009 5.23933 3.79609 0
M  V30 7402 N 699.141 -0.881989 1.30609 0
M  V30 7403 C 700.104 -1.96957 1.1722 0
M  V30 7404 C 701.104 -1.60472 0.102598 0
M  V30 7405 O 702.294 -1.70628 0.350943 0
M  V30 7406 C 699.426 -3.31463 0.796572 0
M  V30 7407 H 700.619 -2.10262 2.13846 0
M  V30 7408 H 698.172 -1.06877 1.14048 0
M  V30 7409 H 698.907 -3.23859 -0.169053 0
M  V30 7410 H 698.692 -3.59314 1.56959 0
M  V30 7411 H 700.182 -4.11233 0.72645 0
M  V30 7412 N 700.619 -1.13374 -1.09472 0
M  V30 7413 C 701.552 -0.754354 -2.15371 0
M  V30 7414 C 702.53 0.259205 -1.60521 0
M  V30 7415 O 703.714 0.150819 -1.87896 0
M  V30 7416 C 700.841 -0.118197 -3.38494 0
M  V30 7417 C 699.887 -1.10017 -4.12066 0
M  V30 7418 S 700.72 -2.63242 -4.6633 0
M  V30 7419 C 701.876 -2.00984 -5.92753 0
M  V30 7420 H 702.109 -1.65135 -2.4722 0
M  V30 7421 H 699.642 -0.953838 -1.21414 0
M  V30 7422 H 701.6 0.242447 -4.09783 0
M  V30 7423 H 700.261 0.756065 -3.04865 0
M  V30 7424 H 699.454 -0.60287 -5.00381 0
M  V30 7425 H 699.056 -1.40426 -3.46636 0
M  V30 7426 H 701.348 -1.35863 -6.63738 0
M  V30 7427 H 702.291 -2.8738 -6.47162 0
M  V30 7428 H 702.699 -1.46161 -5.4525 0
M  V30 7429 O 702.136 1.21979 -1.05846 0
M  V30 7430 H 702.827 1.79103 -0.73768 0
M  V30 END ATOM
M  V30 BEGIN BOND
M  V30 END BOND
M  V30 END CTAB
M  END
$$$$
