drugbank_target|Q9UJS0 Calcium-binding mitochondrial carrier protein Aralar2 (DB00128)
 OpenBabel12092119283D

  0  0  0     0  0            999 V3000
M  V30 BEGIN CTAB
M  V30 COUNTS 10519 10639 0 0 0
M  V30 BEGIN ATOM
M  V30 1 H -0.908 1.98254 -0.117106 0
M  V30 2 N 0 1.576 0 0
M  V30 3 C 0.933 2.03868 1.02534 0
M  V30 4 C 1.911 0.928543 1.3348 0
M  V30 5 O 3.095 1.19667 1.45644 0
M  V30 6 C 0.222 2.43627 2.35294 0
M  V30 7 C -0.732 3.65373 2.2001 0
M  V30 8 S 0.101 5.13292 1.52614 0
M  V30 9 C 1.257 5.56322 2.86805 0
M  V30 10 H 1.49 2.90518 0.631377 0
M  V30 11 H -0.977 1.52953 0.210867 0
M  V30 12 H 0.981 2.67203 3.11629 0
M  V30 13 H -0.358 1.57376 2.7183 0
M  V30 14 H -1.165 3.90944 3.18086 0
M  V30 15 H -1.563 3.418 1.51819 0
M  V30 16 H 0.729 5.58782 3.83104 0
M  V30 17 H 1.672 6.56266 2.65933 0
M  V30 18 H 2.08 4.83886 2.90714 0
M  V30 19 N 1.4781 -0.272755 1.55222 0
M  V30 20 C 2.4411 -1.32041 1.87344 0
M  V30 21 C 3.4411 -1.42342 0.74803 0
M  V30 22 O 4.6311 -1.41488 1.0162 0
M  V30 23 C 1.7631 -2.70173 2.07893 0
M  V30 24 H 2.9561 -1.04789 2.80997 0
M  V30 25 H 0.5091 -0.51083 1.47717 0
M  V30 26 H 1.2441 -3.02605 1.16622 0
M  V30 27 H 1.0291 -2.64082 2.89833 0
M  V30 28 H 2.5191 -3.45869 2.34017 0
M  V30 29 N 2.9562 -1.48159 -0.537278 0
M  V30 30 C 3.9192 -1.61665 -1.62472 0
M  V30 31 C 4.9192 -0.490395 -1.5314 0
M  V30 32 O 6.1092 -0.755998 -1.5694 0
M  V30 33 C 3.2412 -1.57997 -3.02076 0
M  V30 34 H 4.4342 -2.58621 -1.51839 0
M  V30 35 H 1.9872 -1.36647 -0.758771 0
M  V30 36 H 2.7222 -0.624913 -3.18222 0
M  V30 37 H 2.5072 -2.39755 -3.10258 0
M  V30 38 H 3.9972 -1.70627 -3.81151 0
M  V30 39 N 4.4343 0.785586 -1.36625 0
M  V30 40 C 5.3973 1.87999 -1.31107 0
M  V30 41 C 6.3973 1.59316 -0.217959 0
M  V30 42 O 7.5873 1.67656 -0.472977 0
M  V30 43 C 4.7193 3.24861 -1.03334 0
M  V30 44 H 5.9123 1.94307 -2.2844 0
M  V30 45 H 3.4653 0.983813 -1.21453 0
M  V30 46 H 4.2003 3.24235 -0.0647432 0
M  V30 47 H 3.9853 3.4707 -1.82441 0
M  V30 48 H 5.4753 4.04929 -1.02088 0
M  V30 49 N 5.9124 1.20967 1.01018 0
M  V30 50 C 6.8594 0.964281 2.09691 0
M  V30 51 C 7.8294 -0.107853 1.65749 0
M  V30 52 O 9.0144 0.0381987 1.90762 0
M  V30 53 C 6.1544 0.52943 3.41015 0
M  V30 54 C 5.2674 1.67043 3.98398 0
M  V30 55 C 4.4024 1.18525 5.17808 0
M  V30 56 C 3.4414 2.29892 5.67288 0
M  V30 57 N 2.5784 1.82546 6.77954 0
M  V30 58 H 7.4184 1.89463 2.30017 0
M  V30 59 H 4.9554 0.944289 1.1279 0
M  V30 60 H 6.9134 0.258588 4.16398 0
M  V30 61 H 5.5434 -0.363919 3.20742 0
M  V30 62 H 4.5954 2.05603 3.20049 0
M  V30 63 H 5.9074 2.50877 4.31117 0
M  V30 64 H 5.0614 0.870762 6.00419 0
M  V30 65 H 3.8004 0.316887 4.86669 0
M  V30 66 H 2.8054 2.6215 4.83278 0
M  V30 67 H 4.0304 3.17216 6.00459 0
M  V30 68 H 1.9764 0.980454 6.48632 0
M  V30 69 H 1.8934 2.59956 7.09901 0
M  V30 70 H 3.1614 1.54115 7.64113 0
M  V30 71 N 7.3905 -1.2043 1.01659 0
M  V30 72 C 8.6365 -1.90079 0.706963 0
M  V30 73 C 8.9695 -1.78648 -0.761474 0
M  V30 74 O 8.2445 -1.17069 -1.55323 0
M  V30 75 C 8.5275 -3.41469 1.14327 0
M  V30 76 C 8.3805 -3.61833 2.67201 0
M  V30 77 C 9.6995 -4.34261 0.714529 0
M  V30 78 H 6.8185 -0.690254 0.2583 0
M  V30 79 H 9.4605 -1.41826 1.26433 0
M  V30 80 H 7.6105 -3.82696 0.669056 0
M  V30 81 H 9.2825 -3.2986 3.22475 0
M  V30 82 H 7.5255 -3.05304 3.08175 0
M  V30 83 H 8.1965 -4.67955 2.92783 0
M  V30 84 H 10.6725 -4.00682 1.12221 0
M  V30 85 H 9.5485 -5.38806 1.04784 0
M  V30 86 H 9.8095 -4.40431 -0.383799 0
M  V30 87 N 8.8686 -0.792821 -1.36206 0
M  V30 88 C 9.8316 -0.199459 -2.2833 0
M  V30 89 C 10.8316 0.605189 -1.48977 0
M  V30 90 O 12.0216 0.425685 -1.68919 0
M  V30 91 C 9.1536 0.723523 -3.33134 0
M  V30 92 H 10.3466 -1.01181 -2.82316 0
M  V30 93 H 7.8996 -0.562485 -1.45828 0
M  V30 94 H 8.6346 1.56008 -2.84309 0
M  V30 95 H 8.4196 0.148436 -3.91819 0
M  V30 96 H 9.9096 1.13344 -4.01924 0
M  V30 97 N 10.3467 1.47872 -0.545128 0
M  V30 98 C 11.2767 2.32661 0.197793 0
M  V30 99 C 12.2577 1.43041 0.920504 0
M  V30 100 O 13.4427 1.71912 0.90333 0
M  V30 101 C 10.5727 3.24569 1.23582 0
M  V30 102 C 9.5267 4.23333 0.630323 0
M  V30 103 C 8.8527 5.0448 1.77211 0
M  V30 104 C 10.1527 5.20704 -0.407974 0
M  V30 105 H 11.8467 2.95024 -0.510045 0
M  V30 106 H 9.3927 1.4187 -0.246731 0
M  V30 107 H 11.3457 3.8272 1.76362 0
M  V30 108 H 10.0697 2.60236 1.97344 0
M  V30 109 H 8.7287 3.6639 0.123922 0
M  V30 110 H 8.3767 4.36561 2.49847 0
M  V30 111 H 8.0767 5.71339 1.37281 0
M  V30 112 H 9.6007 5.65487 2.3034 0
M  V30 113 H 11.0147 5.7329 0.033305 0
M  V30 114 H 9.4117 5.95699 -0.725486 0
M  V30 115 H 10.4817 4.66917 -1.30828 0
M  V30 116 N 11.8248 0.280983 1.55075 0
M  V30 117 C 13.0528 -0.337293 2.04132 0
M  V30 118 C 13.4678 -1.4903 1.15912 0
M  V30 119 O 12.8248 -1.81606 0.180459 0
M  V30 120 C 12.8758 -0.812706 3.52246 0
M  V30 121 O 12.5968 0.294387 4.3711 0
M  V30 122 C 14.0978 -1.4982 4.17216 0
M  V30 123 H 11.3178 -0.0761638 0.666663 0
M  V30 124 H 13.8618 0.414787 2.00249 0
M  V30 125 H 12.0168 -1.51486 3.56554 0
M  V30 126 H 12.4308 -0.0721325 5.2445 0
M  V30 127 H 13.9048 -1.7822 5.22438 0
M  V30 128 H 14.3818 -2.43168 3.65741 0
M  V30 129 H 14.9878 -0.839742 4.16927 0
M  V30 130 N 13.3029 -1.57598 0.00835791 0
M  V30 131 C 14.2499 -2.08945 -0.980346 0
M  V30 132 C 15.2199 -0.986738 -1.33614 0
M  V30 133 O 16.4049 -1.25968 -1.43306 0
M  V30 134 C 13.5449 -2.60425 -2.26435 0
M  V30 135 C 12.6579 -3.84628 -1.96685 0
M  V30 136 C 11.7929 -4.24579 -3.19228 0
M  V30 137 C 10.8319 -5.41596 -2.85202 0
M  V30 138 N 9.9689 -5.768 -4.00307 0
M  V30 139 H 14.8089 -2.93148 -0.535551 0
M  V30 140 H 12.3459 -1.44912 -0.252776 0
M  V30 141 H 14.3039 -2.88354 -3.01509 0
M  V30 142 H 12.9339 -1.79083 -2.68568 0
M  V30 143 H 11.9859 -3.63556 -1.11942 0
M  V30 144 H 13.2979 -4.69796 -1.67611 0
M  V30 145 H 12.4519 -4.53834 -4.02641 0
M  V30 146 H 11.1909 -3.38137 -3.51447 0
M  V30 147 H 10.1959 -5.12056 -2.00198 0
M  V30 148 H 11.4209 -6.29721 -2.54222 0
M  V30 149 H 9.3669 -4.93316 -4.32407 0
M  V30 150 H 9.2839 -6.5656 -3.74786 0
M  V30 151 H 10.5519 -6.10652 -4.84484 0
M  V30 152 N 14.781 0.264519 -1.55364 0
M  V30 153 C 16.197 0.61215 -1.47394 0
M  V30 154 C 16.397 1.89134 -0.695018 0
M  V30 155 O 15.453 2.51563 -0.217275 0
M  V30 156 C 16.766 0.731235 -2.91674 0
M  V30 157 C 18.314 0.82473 -3.01939 0
M  V30 158 C 18.789 0.975522 -4.4749 0
M  V30 159 N 20.28 1.04083 -4.51354 0
M  V30 160 C 21.015 1.17646 -5.61201 0
M  V30 161 N 20.511 1.27874 -6.80896 0
M  V30 162 N 22.304 1.20823 -5.48961 0
M  V30 163 H 14.455 -0.575456 -2.04456 0
M  V30 164 H 16.718 -0.196099 -0.927496 0
M  V30 165 H 16.424 -0.138392 -3.51428 0
M  V30 166 H 16.298 1.60883 -3.41169 0
M  V30 167 H 18.685 1.68482 -2.42276 0
M  V30 168 H 18.766 -0.0776479 -2.55682 0
M  V30 169 H 18.41 0.120058 -5.07758 0
M  V30 170 H 18.34 1.89268 -4.91412 0
M  V30 171 H 20.831 0.973846 -3.65136 0
M  V30 172 H 21.144 1.38081 -7.60364 0
M  V30 173 H 19.489 1.24863 -6.83692 0
M  V30 174 H 22.68 1.12469 -4.54388 0
M  V30 175 H 22.853 1.31049 -6.3461 0
M  V30 176 N 16.2591 1.48442 0.529413 0
M  V30 177 C 17.2221 1.62524 1.61612 0
M  V30 178 C 18.2221 0.498509 1.52877 0
M  V30 179 O 19.4121 0.76431 1.56537 0
M  V30 180 C 16.5441 1.59597 3.01233 0
M  V30 181 H 17.7371 2.59423 1.50465 0
M  V30 182 H 15.2901 1.37047 0.751514 0
M  V30 183 H 16.0251 0.641781 3.17886 0
M  V30 184 H 15.8101 2.41397 3.08982 0
M  V30 185 H 17.3001 1.72646 3.80241 0
M  V30 186 N 17.7372 -0.778329 1.37039 0
M  V30 187 C 19.0142 -1.52551 1.22424 0
M  V30 188 C 19.3942 -2.10288 -0.184964 0
M  V30 189 O 18.7422 -1.94953 -1.19187 0
M  V30 190 C 18.9522 -2.61164 2.31504 0
M  V30 191 C 20.3002 -3.28746 2.68721 0
M  V30 192 O 21.3242 -2.71455 2.30631 0
M  V30 193 O 20.1832 -4.3231 3.3432 0
M  V30 194 H 17.2772 -0.675343 0.477326 0
M  V30 195 H 19.8232 -0.815859 1.48801 0
M  V30 196 H 18.5952 -2.16574 3.25901 0
M  V30 197 H 18.2182 -3.39737 2.06554 0
M  V30 198 N 19.2153 -1.21501 -1.00376 0
M  V30 199 C 20.6263 -1.03146 -1.55621 0
M  V30 200 C 20.9773 0.408375 -1.91903 0
M  V30 201 O 20.1023 1.29177 -1.73616 0
M  V30 202 C 20.6973 -1.86612 -2.82775 0
M  V30 203 C 19.2563 -1.72586 -3.34501 0
M  V30 204 C 18.4033 -1.83747 -2.07683 0
M  V30 205 H 21.3543 -1.35505 -0.826081 0
M  V30 206 H 21.3753 -1.3771 -3.54706 0
M  V30 207 H 20.8873 -2.91399 -2.56336 0
M  V30 208 H 18.9883 -0.704877 -3.65872 0
M  V30 209 H 19.1013 -2.54623 -4.05837 0
M  V30 210 H 17.4653 -1.27069 -2.20739 0
M  V30 211 H 18.2483 -2.90044 -1.83655 0
M  V30 212 N 20.6934 1.19889 -1.02296 0
M  V30 213 C 21.6564 2.21116 -0.603351 0
M  V30 214 C 22.6564 1.5738 0.329884 0
M  V30 215 O 23.8464 1.73802 0.117702 0
M  V30 216 C 20.9784 3.40696 0.117992 0
M  V30 217 H 22.1714 2.59754 -1.49893 0
M  V30 218 H 19.7244 1.33463 -0.813468 0
M  V30 219 H 20.4594 3.07569 1.0282 0
M  V30 220 H 20.2444 3.88188 -0.552511 0
M  V30 221 H 21.7344 4.15692 0.398696 0
M  V30 222 N 22.1715 0.800033 1.35784 0
M  V30 223 C 23.0815 0.207204 2.33683 0
M  V30 224 C 24.0975 -0.64631 1.61551 0
M  V30 225 O 25.2735 -0.559604 1.93469 0
M  V30 226 C 22.3385 -0.639659 3.40748 0
M  V30 227 C 21.3995 0.233585 4.28664 0
M  V30 228 C 20.6325 -0.572954 5.30616 0
M  V30 229 O 20.8555 -1.80816 5.40982 0
M  V30 230 O 19.7895 0.0327285 6.01891 0
M  V30 231 H 23.6155 1.01692 2.86169 0
M  V30 232 H 21.2005 0.561691 1.38439 0
M  V30 233 H 23.0825 -1.12223 4.06182 0
M  V30 234 H 21.7575 -1.42708 2.90544 0
M  V30 235 H 20.6645 0.763147 3.66233 0
M  V30 236 H 21.9975 0.984784 4.82248 0
M  V30 237 N 23.6496 -1.47581 0.552962 0
M  V30 238 C 24.5796 -2.32762 -0.185451 0
M  V30 239 C 25.5606 -1.43527 -0.912905 0
M  V30 240 O 26.7456 -1.72388 -0.894201 0
M  V30 241 C 23.8756 -3.25219 -1.21859 0
M  V30 242 C 22.8296 -4.23661 -0.607864 0
M  V30 243 C 22.1556 -5.05413 -1.74533 0
M  V30 244 C 23.4556 -5.20481 0.435582 0
M  V30 245 H 25.1496 -2.94749 0.525684 0
M  V30 246 H 22.6956 -1.41738 0.254251 0
M  V30 247 H 24.6486 -3.8365 -1.7433 0
M  V30 248 H 23.3726 -2.61279 -1.95961 0
M  V30 249 H 22.0316 -3.66451 -0.104489 0
M  V30 250 H 21.6796 -4.3788 -2.47529 0
M  V30 251 H 21.3796 -5.72059 -1.34249 0
M  V30 252 H 22.9036 -5.66701 -2.27338 0
M  V30 253 H 24.3176 -5.733 -0.00290157 0
M  V30 254 H 22.7146 -5.95305 0.757067 0
M  V30 255 H 23.7846 -4.66217 1.33303 0
M  V30 256 N 25.1277 -0.289203 -1.54924 0
M  V30 257 C 26.5437 0.0645403 -1.59469 0
M  V30 258 C 26.7437 1.53419 -1.30632 0
M  V30 259 O 25.7997 2.2852 -1.074 0
M  V30 260 C 27.1127 -0.32278 -2.98963 0
M  V30 261 C 28.6607 -0.270564 -3.11828 0
M  V30 262 C 29.1357 -0.632532 -4.53611 0
M  V30 263 N 30.6267 -0.584617 -4.59496 0
M  V30 264 C 31.3617 -0.837314 -5.67254 0
M  V30 265 N 30.8577 -1.15536 -6.83098 0
M  V30 266 N 32.6507 -0.765166 -5.56868 0
M  V30 267 H 24.8017 -1.24714 -1.71931 0
M  V30 268 H 27.0647 -0.504809 -0.802416 0
M  V30 269 H 26.7707 -1.34541 -3.24948 0
M  V30 270 H 26.6447 0.32944 -3.75759 0
M  V30 271 H 29.0317 0.742805 -2.85598 0
M  V30 272 H 29.1127 -0.957242 -2.37214 0
M  V30 273 H 28.7567 -1.64365 -4.80569 0
M  V30 274 H 28.6867 0.07609 -5.26545 0
M  V30 275 H 31.1777 -0.349248 -3.76283 0
M  V30 276 H 31.4907 -1.33447 -7.61191 0
M  V30 277 H 29.8357 -1.19328 -6.84679 0
M  V30 278 H 33.0267 -0.516432 -4.65243 0
M  V30 279 H 33.1997 -0.965477 -6.40767 0
M  V30 280 N 26.6058 1.57591 -0.0167156 0
M  V30 281 C 27.8338 1.95575 0.675128 0
M  V30 282 C 28.2488 0.892542 1.6637 0
M  V30 283 O 27.6058 -0.126912 1.82058 0
M  V30 284 C 27.6568 3.33608 1.39239 0
M  V30 285 O 27.3778 4.3585 0.443444 0
M  V30 286 C 28.8788 3.86151 2.17721 0
M  V30 287 H 26.0988 0.644423 0.186978 0
M  V30 288 H 28.6428 2.0437 -0.0728 0
M  V30 289 H 26.7978 3.2607 2.09182 0
M  V30 290 H 27.2118 5.158 0.951358 0
M  V30 291 H 28.6858 4.85114 2.63379 0
M  V30 292 H 29.1628 3.19738 3.01105 0
M  V30 293 H 29.7688 3.96918 1.52761 0
M  V30 294 N 28.0839 -0.256276 1.55502 0
M  V30 295 C 29.3329 -0.983486 1.76098 0
M  V30 296 C 29.6459 -1.86837 0.578896 0
M  V30 297 O 30.8519 -2.63163 0.667648 0
M  V30 298 C 29.3079 -1.79868 3.1173 0
M  V30 299 C 28.9159 -0.961648 4.37557 0
M  V30 300 C 30.6599 -2.51919 3.41668 0
M  V30 301 C 28.5669 -1.77219 5.64223 0
M  V30 302 H 27.4969 -0.370936 0.656447 0
M  V30 303 H 30.1479 -0.238492 1.81944 0
M  V30 304 H 28.5299 -2.58527 2.99966 0
M  V30 305 H 29.7039 -0.218048 4.60284 0
M  V30 306 H 28.0189 -0.354913 4.14885 0
M  V30 307 H 30.6159 -3.12998 4.33516 0
M  V30 308 H 30.9589 -3.23059 2.62562 0
M  V30 309 H 31.4919 -1.80278 3.54605 0
M  V30 310 H 28.2309 -1.10471 6.46124 0
M  V30 311 H 27.7509 -2.49132 5.45613 0
M  V30 312 H 29.4299 -2.34169 6.03137 0
M  V30 313 N 29.562 -1.4872 -0.521534 0
M  V30 314 C 30.809 -1.57168 -1.27689 0
M  V30 315 C 31.137 -0.249275 -1.92896 0
M  V30 316 O 30.392 0.761162 -1.80291 0
M  V30 317 C 30.691 -2.66497 -2.38148 0
M  V30 318 C 30.357 -4.08664 -1.90538 0
M  V30 319 C 29.019 -4.47357 -1.77271 0
M  V30 320 C 31.371 -4.97724 -1.54663 0
M  V30 321 C 28.699 -5.72905 -1.26478 0
M  V30 322 C 31.051 -6.2377 -1.05329 0
M  V30 323 C 29.715 -6.61311 -0.906861 0
M  V30 324 H 28.985 -0.575117 -0.467249 0
M  V30 325 H 31.632 -1.82472 -0.581051 0
M  V30 326 H 29.937 -2.35085 -3.13437 0
M  V30 327 H 31.634 -2.70246 -2.96257 0
M  V30 328 H 28.224 -3.78111 -2.01816 0
M  V30 329 H 32.408 -4.68501 -1.63768 0
M  V30 330 H 27.664 -6.00709 -1.13835 0
M  V30 331 H 31.838 -6.9217 -0.76644 0
M  V30 332 H 29.465 -7.5848 -0.511083 0
M  V30 333 N 31.0401 0.771051 -1.3745 0
M  V30 334 C 31.9701 1.89827 -1.3597 0
M  V30 335 C 32.9511 1.68562 -0.228216 0
M  V30 336 O 34.1361 1.8941 -0.428675 0
M  V30 337 C 31.2661 3.2712 -1.16662 0
M  V30 338 C 30.2201 3.6295 -2.2683 0
M  V30 339 C 29.5461 4.98791 -1.92644 0
M  V30 340 C 30.8461 3.69627 -3.69017 0
M  V30 341 H 32.5401 1.91323 -2.30295 0
M  V30 342 H 30.0861 0.919082 -1.10855 0
M  V30 343 H 32.0391 4.05615 -1.14256 0
M  V30 344 H 30.7631 3.26059 -0.187926 0
M  V30 345 H 29.4221 2.86763 -2.28392 0
M  V30 346 H 29.0701 4.94271 -0.933021 0
M  V30 347 H 28.7701 5.23733 -2.66416 0
M  V30 348 H 30.2941 5.79685 -1.91826 0
M  V30 349 H 31.7081 4.38273 -3.69581 0
M  V30 350 H 30.1051 4.06067 -4.41848 0
M  V30 351 H 31.1751 2.70273 -4.02592 0
M  V30 352 N 32.5182 1.22032 0.997298 0
M  V30 353 C 33.4652 0.986467 2.08656 0
M  V30 354 C 34.4352 -0.0902671 1.65855 0
M  V30 355 O 35.6202 0.0584294 1.90711 0
M  V30 356 C 32.7602 0.565569 3.40434 0
M  V30 357 C 31.8732 1.71259 3.96604 0
M  V30 358 C 31.0082 1.24011 5.16522 0
M  V30 359 C 30.0472 2.35896 5.64818 0
M  V30 360 N 29.1842 1.89726 6.7598 0
M  V30 361 H 34.0242 1.91892 2.27994 0
M  V30 362 H 31.5612 0.956199 1.11782 0
M  V30 363 H 33.5192 0.302738 4.161 0
M  V30 364 H 32.1492 -0.329879 3.2111 0
M  V30 365 H 31.2012 2.08986 3.17851 0
M  V30 366 H 32.5132 2.55436 4.28432 0
M  V30 367 H 31.6672 0.934395 5.99461 0
M  V30 368 H 30.4062 0.368487 4.86306 0
M  V30 369 H 29.4112 2.67261 4.8047 0
M  V30 370 H 30.6362 3.23567 5.97061 0
M  V30 371 H 28.5822 1.0492 6.47555 0
M  V30 372 H 28.4992 2.67471 7.07103 0
M  V30 373 H 29.7672 1.62211 7.62435 0
M  V30 374 N 33.9963 -1.19345 1.0293 0
M  V30 375 C 35.2263 -1.92717 0.744563 0
M  V30 376 C 35.6343 -1.75751 -0.700579 0
M  V30 377 O 34.9773 -1.07703 -1.48815 0
M  V30 378 C 35.0393 -3.44828 1.01657 0
M  V30 379 C 34.7033 -3.85564 2.45335 0
M  V30 380 C 35.7003 -3.90286 3.43472 0
M  V30 381 C 33.3853 -4.1719 2.79746 0
M  V30 382 C 35.3793 -4.26065 4.74075 0
M  V30 383 C 33.0663 -4.52642 4.10559 0
M  V30 384 C 34.0643 -4.57054 5.07534 0
M  V30 385 O 33.7523 -4.91685 6.36004 0
M  V30 386 H 33.4843 -0.618977 0.271742 0
M  V30 387 H 36.0383 -1.52415 1.37691 0
M  V30 388 H 34.2683 -3.85314 0.327084 0
M  V30 389 H 35.9573 -3.99437 0.721427 0
M  V30 390 H 36.7233 -3.66002 3.18225 0
M  V30 391 H 32.6023 -4.1294 2.04943 0
M  V30 392 H 36.1463 -4.29423 5.49765 0
M  V30 393 H 32.0433 -4.76383 4.35579 0
M  V30 394 H 32.8113 -5.09631 6.40483 0
M  V30 395 N 35.4744 -0.807222 -1.35358 0
M  V30 396 C 36.4374 -0.223665 -2.28106 0
M  V30 397 C 37.4374 0.589354 -1.4961 0
M  V30 398 O 38.6274 0.407745 -1.69361 0
M  V30 399 C 35.7594 0.688149 -3.33882 0
M  V30 400 H 36.9524 -1.04169 -2.81227 0
M  V30 401 H 34.5054 -0.577921 -1.45223 0
M  V30 402 H 35.2404 1.52984 -2.85948 0
M  V30 403 H 35.0254 0.10687 -3.91954 0
M  V30 404 H 36.5154 1.09075 -4.03104 0
M  V30 405 N 36.9525 1.47285 -0.560781 0
M  V30 406 C 38.1775 2.07359 -0.0410566 0
M  V30 407 C 38.6025 1.41017 1.24483 0
M  V30 408 O 37.9605 0.486368 1.74654 0
M  V30 409 C 38.0085 3.6035 0.134123 0
M  V30 410 O 37.1125 3.94681 1.19587 0
M  V30 411 H 36.4535 0.661887 -0.0529291 0
M  V30 412 H 38.9835 1.89252 -0.777482 0
M  V30 413 H 38.9935 4.0652 0.347207 0
M  V30 414 H 37.6685 4.08034 -0.805047 0
M  V30 415 H 36.2455 3.60251 0.962987 0
M  V30 416 N 38.4306 0.297415 1.54768 0
M  V30 417 C 39.6796 -0.313669 1.99246 0
M  V30 418 C 39.9926 -1.55281 1.18942 0
M  V30 419 O 41.1986 -2.23825 1.5367 0
M  V30 420 C 39.6546 -0.609407 3.54703 0
M  V30 421 C 39.2626 0.611192 4.43811 0
M  V30 422 C 41.0066 -1.18188 4.07715 0
M  V30 423 C 38.9136 0.288805 5.90694 0
M  V30 424 H 37.8436 -0.120979 0.744231 0
M  V30 425 H 40.4946 0.40556 1.78962 0
M  V30 426 H 38.8766 -1.38813 3.70873 0
M  V30 427 H 40.0506 1.3875 4.39414 0
M  V30 428 H 38.3656 1.10205 4.01552 0
M  V30 429 H 40.9626 -1.43727 5.15021 0
M  V30 430 H 41.3056 -2.12299 3.58099 0
M  V30 431 H 41.8386 -0.464944 3.95074 0
M  V30 432 H 38.5776 1.19838 6.44453 0
M  V30 433 H 38.0976 -0.450305 5.98107 0
M  V30 434 H 39.7766 -0.110933 6.46905 0
M  V30 435 N 39.9087 -1.5758 0.0250728 0
M  V30 436 C 40.8187 -2.1343 -0.973905 0
M  V30 437 C 41.8347 -1.08556 -1.35984 0
M  V30 438 O 43.0107 -1.40592 -1.44207 0
M  V30 439 C 40.0757 -2.64703 -2.23904 0
M  V30 440 C 39.1367 -3.84276 -1.91391 0
M  V30 441 C 38.3697 -4.33095 -3.11873 0
M  V30 442 O 38.5927 -3.81107 -4.24398 0
M  V30 443 O 37.5267 -5.24984 -2.94406 0
M  V30 444 H 41.3527 -2.99057 -0.529036 0
M  V30 445 H 38.9377 -1.48118 -0.195288 0
M  V30 446 H 40.8197 -2.97769 -2.98181 0
M  V30 447 H 39.4947 -1.82161 -2.6758 0
M  V30 448 H 38.4017 -3.56143 -1.14511 0
M  V30 449 H 39.7347 -4.67968 -1.52534 0
M  V30 450 N 41.3868 0.248026 -1.55636 0
M  V30 451 C 42.3338 1.30707 -1.90222 0
M  V30 452 C 43.3038 1.47881 -0.756332 0
M  V30 453 O 44.4888 1.61883 -1.00988 0
M  V30 454 C 41.6288 2.65769 -2.20138 0
M  V30 455 C 40.7418 2.56612 -3.47526 0
M  V30 456 C 39.8768 3.8402 -3.67017 0
M  V30 457 C 38.9158 3.69476 -4.8801 0
M  V30 458 N 38.0528 4.88774 -5.04029 0
M  V30 459 H 42.8928 1.00512 -2.80538 0
M  V30 460 H 40.4298 0.485055 -1.38873 0
M  V30 461 H 42.3878 3.44386 -2.35487 0
M  V30 462 H 41.0178 2.94115 -1.33027 0
M  V30 463 H 40.0698 1.69571 -3.40514 0
M  V30 464 H 41.3818 2.41774 -4.36287 0
M  V30 465 H 40.5358 4.7108 -3.8232 0
M  V30 466 H 39.2748 4.01754 -2.76487 0
M  V30 467 H 38.2798 2.80799 -4.72686 0
M  V30 468 H 39.5048 3.53238 -5.8 0
M  V30 469 H 37.4508 5.0687 -4.16435 0
M  V30 470 H 37.3678 4.76562 -5.86877 0
M  V30 471 H 38.6358 5.77335 -5.23741 0
M  V30 472 N 42.8649 1.48995 0.513639 0
M  V30 473 C 43.8129 1.65199 1.63744 0
M  V30 474 C 44.8069 0.51809 1.61283 0
M  V30 475 O 46.0129 0.697335 1.65943 0
M  V30 476 H 42.3879 0.52069 0.542574 0
M  V30 477 H 44.3589 2.59552 1.47226 0
M  V30 478 C 43.1079 1.72409 3.01945 0
M  V30 479 H 42.4309 2.59029 3.04539 0
M  V30 480 H 43.8709 1.87785 3.80148 0
M  V30 481 C 42.3299 0.46618 3.33659 0
M  V30 482 O 42.8599 -0.413744 3.99564 0
M  V30 483 N 41.0659 0.332931 2.88687 0
M  V30 484 H 40.6129 1.04996 2.35231 0
M  V30 485 H 40.5709 -0.507665 3.10274 0
M  V30 486 N 44.343 -0.763751 1.37857 0
M  V30 487 C 45.591 -1.51957 1.33243 0
M  V30 488 C 45.912 -1.94835 -0.0801709 0
M  V30 489 O 45.182 -1.66894 -1.02582 0
M  V30 490 H 43.762 -0.563626 0.49024 0
M  V30 491 H 46.424 -0.908504 1.7243 0
M  V30 492 H 45.52 -2.41523 1.97669 0
M  V30 493 N 45.8211 -1.22559 -0.990812 0
M  V30 494 C 46.7311 -1.01394 -2.11557 0
M  V30 495 C 47.7471 0.0383962 -1.73958 0
M  V30 496 O 48.9231 -0.154787 -2.00804 0
M  V30 497 C 45.9881 -0.596569 -3.41529 0
M  V30 498 C 45.0491 -1.72276 -3.93217 0
M  V30 499 C 44.2821 -1.32521 -5.16985 0
M  V30 500 O 44.5051 -0.204909 -5.70032 0
M  V30 501 O 43.4391 -2.14247 -5.62478 0
M  V30 502 H 47.2651 -1.95633 -2.32296 0
M  V30 503 H 44.8501 -1.01172 -1.0993 0
M  V30 504 H 46.7321 -0.374263 -4.19735 0
M  V30 505 H 45.4071 0.316939 -3.22145 0
M  V30 506 H 44.3141 -1.99961 -3.16174 0
M  V30 507 H 45.6471 -2.61421 -4.17037 0
M  V30 508 N 47.2992 1.18797 -1.03562 0
M  V30 509 C 48.5462 1.8865 -0.736023 0
M  V30 510 C 48.8742 1.80041 0.735889 0
M  V30 511 O 48.1292 1.19179 1.55225 0
M  V30 512 C 48.4282 3.38692 -1.14117 0
M  V30 513 C 48.0942 3.67504 -2.6125 0
M  V30 514 C 46.7562 3.75078 -3.01447 0
M  V30 515 C 49.1082 3.80293 -3.56408 0
M  V30 516 C 46.4362 3.92915 -4.35701 0
M  V30 517 C 48.7882 3.99645 -4.90374 0
M  V30 518 C 47.4522 4.05453 -5.30249 0
M  V30 519 H 46.7222 0.690321 -0.26933 0
M  V30 520 H 49.3692 1.40641 -1.29971 0
M  V30 521 H 47.6742 3.88645 -0.496202 0
M  V30 522 H 49.3712 3.91072 -0.886789 0
M  V30 523 H 45.9612 3.62223 -2.29113 0
M  V30 524 H 50.1452 3.73779 -3.26501 0
M  V30 525 H 45.4012 3.95653 -4.66121 0
M  V30 526 H 49.5752 4.08482 -5.64017 0
M  V30 527 H 47.2022 4.19027 -6.34288 0
M  V30 528 N 48.7773 0.814389 1.34928 0
M  V30 529 C 50.0243 0.398423 1.98542 0
M  V30 530 C 50.3523 -1.03638 1.64589 0
M  V30 531 O 49.6073 -1.73509 0.90516 0
M  V30 532 C 49.9063 0.537781 3.53331 0
M  V30 533 C 49.5723 1.93704 4.07172 0
M  V30 534 C 48.2343 2.31984 4.21589 0
M  V30 535 C 50.5863 2.85213 4.36237 0
M  V30 536 C 47.9143 3.61125 4.62391 0
M  V30 537 C 50.2663 4.13809 4.78482 0
M  V30 538 C 48.9303 4.52077 4.91104 0
M  V30 539 H 48.2003 0.145793 0.726516 0
M  V30 540 H 50.8473 1.03669 1.61012 0
M  V30 541 H 49.1523 -0.183906 3.91368 0
M  V30 542 H 50.8493 0.196588 4.00518 0
M  V30 543 H 47.4393 1.62966 3.96409 0
M  V30 544 H 51.6233 2.56885 4.24645 0
M  V30 545 H 46.8793 3.90612 4.70353 0
M  V30 546 H 51.0533 4.84811 4.99932 0
M  V30 547 H 48.6803 5.52196 5.22478 0
M  V30 548 N 50.2554 -1.46986 0.568584 0
M  V30 549 C 51.1884 -2.27129 -0.220779 0
M  V30 550 C 52.1664 -1.34757 -0.909905 0
M  V30 551 O 53.3504 -1.64152 -0.926622 0
M  V30 552 C 50.4774 -3.12108 -1.31553 0
M  V30 553 C 49.5234 -4.20141 -0.733748 0
M  V30 554 S 50.3564 -5.33783 0.428479 0
M  V30 555 C 51.5124 -6.22327 -0.667811 0
M  V30 556 H 51.7454 -2.93731 0.459267 0
M  V30 557 H 49.2784 -1.5026 0.355154 0
M  V30 558 H 51.2364 -3.61636 -1.94241 0
M  V30 559 H 49.8974 -2.44847 -1.96746 0
M  V30 560 H 49.0904 -4.79373 -1.5562 0
M  V30 561 H 48.6924 -3.73553 -0.182812 0
M  V30 562 H 50.9844 -6.59364 -1.55708 0
M  V30 563 H 51.9274 -7.0801 -0.11258 0
M  V30 564 H 52.3354 -5.5618 -0.965601 0
M  V30 565 N 51.7335 -0.305618 -1.54608 0
M  V30 566 C 52.9585 0.307562 -2.05107 0
M  V30 567 C 53.3835 1.46385 -1.18123 0
M  V30 568 O 52.7415 1.8034 -0.186324 0
M  V30 569 C 52.7895 0.73704 -3.52987 0
M  V30 570 O 51.8935 1.84134 -3.6901 0
M  V30 571 H 51.2345 0.0589143 -0.661381 0
M  V30 572 H 53.7645 -0.448807 -1.99617 0
M  V30 573 H 53.7745 1.02459 -3.94925 0
M  V30 574 H 52.4495 -0.108773 -4.15758 0
M  V30 575 H 51.0265 1.55398 -3.38978 0
M  V30 576 N 53.2116 1.57565 -0.0334293 0
M  V30 577 C 54.6226 1.79746 0.504798 0
M  V30 578 C 54.9736 0.944091 1.71992 0
M  V30 579 O 54.0986 0.155694 2.15839 0
M  V30 580 C 54.6936 3.25997 0.922567 0
M  V30 581 C 53.2526 3.49159 1.40588 0
M  V30 582 C 52.3996 2.74785 0.372633 0
M  V30 583 H 55.3506 1.56565 -0.259436 0
M  V30 584 H 55.3716 3.35945 1.78666 0
M  V30 585 H 54.8836 3.88081 0.0379825 0
M  V30 586 H 52.9846 2.92332 2.31025 0
M  V30 587 H 53.0976 4.57873 1.41028 0
M  V30 588 H 51.4616 2.40391 0.841672 0
M  V30 589 H 52.2446 3.39587 -0.503559 0
M  V30 590 N 54.6897 -0.239769 1.55765 0
M  V30 591 C 55.6377 -1.31668 1.91745 0
M  V30 592 C 56.6317 -1.49462 0.797338 0
M  V30 593 O 57.8377 -1.50852 0.982021 0
M  V30 594 H 54.2127 -0.441048 0.609082 0
M  V30 595 H 56.1837 -0.985923 2.81642 0
M  V30 596 C 54.9327 -2.66368 2.2348 0
M  V30 597 H 54.2557 -2.53478 3.09175 0
M  V30 598 H 55.6957 -3.40578 2.52553 0
M  V30 599 C 54.1547 -3.20002 1.05359 0
M  V30 600 O 54.6847 -4.00538 0.305261 0
M  V30 601 N 52.8907 -2.78126 0.842292 0
M  V30 602 H 52.4377 -2.12742 1.45253 0
M  V30 603 H 52.3957 -3.14354 0.053652 0
M  V30 604 N 56.1678 -1.49265 -0.50573 0
M  V30 605 C 57.4448 -1.49012 -1.26707 0
M  V30 606 C 57.8248 -0.215205 -2.1 0
M  V30 607 O 57.1728 0.802547 -2.13943 0
M  V30 608 C 57.3828 -2.7663 -2.12783 0
M  V30 609 C 58.7308 -3.25932 -2.72127 0
M  V30 610 O 59.7548 -2.77715 -2.23054 0
M  V30 611 O 58.6138 -4.09897 -3.61451 0
M  V30 612 H 55.7078 -0.596197 -0.57313 0
M  V30 613 H 58.2538 -1.61524 -0.52039 0
M  V30 614 H 57.0258 -3.60916 -1.5118 0
M  V30 615 H 56.6488 -2.66956 -2.94653 0
M  V30 616 N 57.6459 0.756429 -1.3826 0
M  V30 617 C 58.8929 1.51547 -1.34312 0
M  V30 618 C 59.2209 1.94382 0.0677144 0
M  V30 619 O 58.4759 1.65514 1.04421 0
M  V30 620 C 58.7749 2.78313 -2.24224 0
M  V30 621 C 58.4409 2.54455 -3.72241 0
M  V30 622 C 57.1029 2.47657 -4.12576 0
M  V30 623 C 59.4549 2.3354 -4.65949 0
M  V30 624 C 56.7829 2.17956 -5.44713 0
M  V30 625 C 59.1349 2.05359 -5.9834 0
M  V30 626 C 57.7989 1.97016 -6.37762 0
M  V30 627 H 57.0689 0.55455 -0.491482 0
M  V30 628 H 59.7159 0.870039 -1.70595 0
M  V30 629 H 58.0209 3.47492 -1.80987 0
M  V30 630 H 59.7179 3.36259 -2.18474 0
M  V30 631 H 56.3079 2.60616 -3.40261 0
M  V30 632 H 60.4919 2.37772 -4.35635 0
M  V30 633 H 55.7479 2.10003 -5.74203 0
M  V30 634 H 59.9219 1.88179 -6.70494 0
M  V30 635 H 57.5489 1.73766 -7.40074 0
M  V30 636 N 59.124 1.23083 0.984299 0
M  V30 637 C 60.37 1.06214 1.72761 0
M  V30 638 C 60.703 -0.400584 1.90024 0
M  V30 639 O 59.978 -1.29672 1.44967 0
M  V30 640 C 60.261 1.78375 3.12817 0
M  V30 641 C 60.114 3.32296 3.03149 0
M  V30 642 C 61.433 1.54309 4.12161 0
M  V30 643 H 58.552 0.387251 0.627061 0
M  V30 644 H 61.194 1.51536 1.14616 0
M  V30 645 H 59.344 1.39848 3.62457 0
M  V30 646 H 61.016 3.8032 2.61064 0
M  V30 647 H 59.259 3.6153 2.39747 0
M  V30 648 H 59.93 3.77972 4.02295 0
M  V30 649 H 62.406 1.87791 3.71314 0
M  V30 650 H 61.282 2.07281 5.08258 0
M  V30 651 H 61.543 0.477572 4.39513 0
M  V30 652 N 60.6021 -1.18246 1.0419 0
M  V30 653 C 61.8301 -1.92195 0.766072 0
M  V30 654 C 62.2451 -1.76247 -0.676933 0
M  V30 655 O 61.6021 -1.09293 -1.46155 0
M  V30 656 C 61.6531 -3.43568 1.12442 0
M  V30 657 O 61.3741 -3.59015 2.51078 0
M  V30 658 C 62.8751 -4.34613 0.873275 0
M  V30 659 H 60.0951 -0.610114 0.279288 0
M  V30 660 H 62.6391 -1.50007 1.38989 0
M  V30 661 H 60.7941 -3.8354 0.545542 0
M  V30 662 H 61.2081 -4.5273 2.64831 0
M  V30 663 H 62.6821 -5.39374 1.17385 0
M  V30 664 H 63.1591 -4.38781 -0.191909 0
M  V30 665 H 63.7651 -4.00341 1.43551 0
M  V30 666 N 62.0802 -0.821533 -1.34494 0
M  V30 667 C 63.4962 -0.507117 -1.51329 0
M  V30 668 C 63.6962 0.968964 -1.76673 0
M  V30 669 O 62.7522 1.75348 -1.81685 0
M  V30 670 C 64.0652 -1.36544 -2.67911 0
M  V30 671 C 65.6132 -1.36242 -2.81793 0
M  V30 672 C 66.0882 -2.2052 -4.01416 0
M  V30 673 N 67.5792 -2.18136 -4.08621 0
M  V30 674 C 68.3142 -2.80095 -5.00334 0
M  V30 675 N 67.8102 -3.51039 -5.9728 0
M  V30 676 N 69.6032 -2.69656 -4.93196 0
M  V30 677 H 61.7542 -1.77729 -1.16302 0
M  V30 678 H 64.0172 -0.757291 -0.570276 0
M  V30 679 H 63.7232 -2.41361 -2.55808 0
M  V30 680 H 63.5972 -1.02917 -3.62888 0
M  V30 681 H 65.9842 -0.322041 -2.93338 0
M  V30 682 H 66.0652 -1.73866 -1.87628 0
M  V30 683 H 65.7092 -3.24607 -3.90631 0
M  V30 684 H 65.6392 -1.80247 -4.94791 0
M  V30 685 H 68.1302 -1.6653 -3.39229 0
M  V30 686 H 68.4432 -3.95565 -6.63889 0
M  V30 687 H 66.7882 -3.55145 -5.97409 0
M  V30 688 H 69.9792 -2.13808 -4.16418 0
M  V30 689 H 70.1522 -3.1823 -5.64476 0
M  V30 690 N 63.5583 1.46682 -0.576371 0
M  V30 691 C 64.7883 2.06498 -0.0648694 0
M  V30 692 C 65.1963 1.42665 1.24271 0
M  V30 693 O 64.5393 0.523886 1.76071 0
M  V30 694 C 64.6013 3.5904 0.181816 0
M  V30 695 C 64.2653 4.45028 -1.0392 0
M  V30 696 C 65.2623 4.81959 -1.94966 0
M  V30 697 C 62.9473 4.86259 -1.25927 0
M  V30 698 C 64.9413 5.58942 -3.06371 0
M  V30 699 C 62.6283 5.63002 -2.37638 0
M  V30 700 C 63.6263 5.99257 -3.2769 0
M  V30 701 O 63.3143 6.7445 -4.37461 0
M  V30 702 H 63.0463 0.674028 -0.0515987 0
M  V30 703 H 65.6003 1.89393 -0.794951 0
M  V30 704 H 63.8303 3.74429 0.966436 0
M  V30 705 H 65.5193 4.00806 0.641047 0
M  V30 706 H 66.2853 4.50689 -1.79177 0
M  V30 707 H 62.1643 4.57494 -0.567448 0
M  V30 708 H 65.7083 5.87158 -3.76684 0
M  V30 709 H 61.6053 5.93686 -2.53392 0
M  V30 710 H 62.3733 6.92867 -4.35749 0
M  V30 711 N 65.0364 0.313813 1.54444 0
M  V30 712 C 65.9664 -0.549454 2.26943 0
M  V30 713 C 66.9474 -1.12741 1.27372 0
M  V30 714 O 68.1324 -1.15436 1.56167 0
M  V30 715 C 65.2624 -1.71523 3.01989 0
M  V30 716 C 64.2164 -1.26703 4.08816 0
M  V30 717 C 63.5424 -2.51898 4.71647 0
M  V30 718 C 64.8424 -0.388962 5.2085 0
M  V30 719 H 66.5364 0.0552661 2.99349 0
M  V30 720 H 64.0824 0.0280207 1.43973 0
M  V30 721 H 66.0354 -2.32535 3.51433 0
M  V30 722 H 64.7594 -2.34639 2.27183 0
M  V30 723 H 63.4184 -0.679896 3.6024 0
M  V30 724 H 63.0664 -3.13356 3.93468 0
M  V30 725 H 62.7664 -2.22605 5.43802 0
M  V30 726 H 64.2904 -3.1369 5.23861 0
M  V30 727 H 65.7044 -0.905107 5.6611 0
M  V30 728 H 64.1014 -0.18924 5.99802 0
M  V30 729 H 65.1714 0.582699 4.81386 0
M  V30 730 N 66.5145 -1.57545 0.0417849 0
M  V30 731 C 67.4625 -2.12148 -0.953723 0
M  V30 732 C 68.4565 -1.05104 -1.32852 0
M  V30 733 O 69.6625 -1.23524 -1.30927 0
M  V30 734 H 66.0375 -0.677957 -0.325389 0
M  V30 735 H 68.0085 -2.94707 -0.467991 0
M  V30 736 C 66.7575 -2.6739 -2.22257 0
M  V30 737 H 66.0805 -3.49413 -1.94295 0
M  V30 738 H 67.5205 -3.09227 -2.90094 0
M  V30 739 C 65.9795 -1.60723 -2.96091 0
M  V30 740 O 66.5095 -1.01449 -3.88679 0
M  V30 741 N 64.7155 -1.32466 -2.58652 0
M  V30 742 H 64.2625 -1.80856 -1.83437 0
M  V30 743 H 64.2205 -0.61325 -3.08361 0
M  V30 744 N 67.9926 0.231505 -1.5589 0
M  V30 745 C 69.2416 0.955346 -1.7764 0
M  V30 746 C 69.5546 1.85893 -0.608546 0
M  V30 747 O 70.7606 2.62067 -0.70943 0
M  V30 748 C 69.2166 1.74886 -3.14552 0
M  V30 749 C 68.8246 0.891915 -4.39032 0
M  V30 750 C 70.5686 2.46452 -3.45633 0
M  V30 751 C 68.4756 1.68221 -5.66971 0
M  V30 752 H 67.4056 0.360446 -0.662265 0
M  V30 753 H 70.0566 0.209516 -1.823 0
M  V30 754 H 68.4386 2.53723 -3.04041 0
M  V30 755 H 69.6126 0.144793 -4.60572 0
M  V30 756 H 67.9276 0.288863 -4.15397 0
M  V30 757 H 70.5246 3.06061 -4.38441 0
M  V30 758 H 70.8676 3.18841 -2.67668 0
M  V30 759 H 71.4006 1.74613 -3.57428 0
M  V30 760 H 68.1396 1.00178 -6.478 0
M  V30 761 H 67.6596 2.4042 -5.49507 0
M  V30 762 H 69.3386 2.24544 -6.06786 0
M  V30 763 N 69.4707 1.49531 0.497807 0
M  V30 764 C 70.7177 1.59179 1.25173 0
M  V30 765 C 71.0457 0.279932 1.92475 0
M  V30 766 O 70.3007 -0.732383 1.81479 0
M  V30 767 C 70.5997 2.70252 2.33878 0
M  V30 768 C 70.2657 4.11644 1.84012 0
M  V30 769 C 68.9277 4.50121 1.70132 0
M  V30 770 C 71.2797 5.00121 1.46725 0
M  V30 771 C 68.6077 5.74845 1.17348 0
M  V30 772 C 70.9597 6.25366 0.95392 0
M  V30 773 C 69.6237 6.6267 0.801538 0
M  V30 774 H 68.8937 0.582478 0.45804 0
M  V30 775 H 71.5407 1.83373 0.551948 0
M  V30 776 H 69.8457 2.40041 3.09657 0
M  V30 777 H 71.5427 2.74925 2.9192 0
M  V30 778 H 68.1327 3.81274 1.95775 0
M  V30 779 H 72.3167 4.71048 1.56294 0
M  V30 780 H 67.5727 6.02444 1.04264 0
M  V30 781 H 71.7467 6.93301 0.656225 0
M  V30 782 H 69.3737 7.59197 0.390351 0
M  V30 783 N 70.9488 -0.749086 1.3866 0
M  V30 784 C 72.1968 -1.50535 1.34847 0
M  V30 785 C 72.5178 -1.94909 -0.0595016 0
M  V30 786 O 71.7878 -1.67973 -1.00806 0
M  V30 787 H 70.3678 -0.558395 0.49619 0
M  V30 788 H 73.0298 -0.890165 1.73384 0
M  V30 789 H 72.1258 -2.39413 2.00219 0
M  V30 790 N 72.4269 -1.23603 -0.977757 0
M  V30 791 C 73.3369 -1.03632 -2.1047 0
M  V30 792 C 74.3529 0.0199435 -1.73989 0
M  V30 793 O 75.5289 -0.176076 -2.00629 0
M  V30 794 C 72.5939 -0.63276 -3.40877 0
M  V30 795 C 71.6549 -1.76437 -3.91367 0
M  V30 796 C 70.8879 -1.37997 -5.15551 0
M  V30 797 O 71.1109 -0.265357 -5.69782 0
M  V30 798 O 70.0449 -2.20201 -5.60174 0
M  V30 799 H 73.8709 -1.98086 -2.30208 0
M  V30 800 H 71.4559 -1.02332 -1.08851 0
M  V30 801 H 73.3379 -0.418761 -4.19314 0
M  V30 802 H 72.0129 0.282754 -3.22463 0
M  V30 803 H 70.9199 -2.03304 -3.14036 0
M  V30 804 H 72.2529 -2.6583 -4.14241 0
M  V30 805 N 73.905 1.17692 -1.04816 0
M  V30 806 C 75.13 1.92327 -0.776207 0
M  V30 807 C 75.555 1.76082 0.661581 0
M  V30 808 O 74.913 1.076 1.45917 0
M  V30 809 C 74.961 3.41539 -1.15687 0
M  V30 810 O 74.065 4.11402 -0.286775 0
M  V30 811 H 73.406 0.599735 -0.284981 0
M  V30 812 H 75.936 1.49201 -1.4 0
M  V30 813 H 75.946 3.92269 -1.12202 0
M  V30 814 H 74.621 3.52684 -2.20425 0
M  V30 815 H 73.198 3.70939 -0.381903 0
M  V30 816 N 75.3831 0.828654 1.34056 0
M  V30 817 C 76.3151 0.212052 2.28217 0
M  V30 818 C 77.3281 -0.601362 1.51286 0
M  V30 819 O 78.5171 -0.430104 1.73241 0
M  V30 820 C 75.6171 -0.72088 3.31144 0
M  V30 821 C 74.7901 0.0509587 4.3737 0
M  V30 822 C 73.8491 -0.803766 5.20025 0
M  V30 823 O 72.8751 -0.246667 5.68665 0
M  V30 824 N 74.0771 -2.1227 5.40298 0
M  V30 825 H 76.8421 1.02105 2.81771 0
M  V30 826 H 74.4031 0.686153 1.46641 0
M  V30 827 H 76.3951 -1.29742 3.8334 0
M  V30 828 H 74.9651 -1.43061 2.77943 0
M  V30 829 H 74.1851 0.808831 3.85813 0
M  V30 830 H 75.4731 0.582065 5.0546 0
M  V30 831 H 74.8711 -2.59898 5.02464 0
M  V30 832 H 73.4281 -2.64796 5.95589 0
M  V30 833 N 76.8612 -1.46375 0.584142 0
M  V30 834 C 78.2722 -1.86031 0.157959 0
M  V30 835 C 78.6232 -1.48753 -1.27933 0
M  V30 836 O 77.7482 -0.903098 -1.96655 0
M  V30 837 C 78.3432 -3.37642 0.279892 0
M  V30 838 C 76.9022 -3.76289 -0.09143 0
M  V30 839 C 76.0492 -2.7039 0.615178 0
M  V30 840 H 79.0002 -1.37509 0.792274 0
M  V30 841 H 79.0212 -3.77275 -0.494364 0
M  V30 842 H 78.5332 -3.64742 1.32607 0
M  V30 843 H 76.6342 -3.54806 -1.13769 0
M  V30 844 H 76.7472 -4.78246 0.285886 0
M  V30 845 H 75.1112 -2.5464 0.0552833 0
M  V30 846 H 75.8942 -3.0033 1.66303 0
M  V30 847 N 78.3393 -0.321999 -1.54275 0
M  V30 848 C 79.2873 0.560206 -2.25753 0
M  V30 849 C 80.2813 1.11984 -1.27106 0
M  V30 850 O 81.4873 1.06806 -1.44888 0
M  V30 851 H 77.8623 0.199304 -0.725108 0
M  V30 852 H 79.8333 -0.0649365 -2.98329 0
M  V30 853 C 78.5823 1.71023 -3.02731 0
M  V30 854 H 77.9053 1.28885 -3.78456 0
M  V30 855 H 79.3453 2.30314 -3.55993 0
M  V30 856 C 77.8043 2.62692 -2.10938 0
M  V30 857 O 78.3343 3.64364 -1.6912 0
M  V30 858 N 76.5403 2.30891 -1.76459 0
M  V30 859 H 76.0873 1.48253 -2.10663 0
M  V30 860 H 76.0453 2.92487 -1.1532 0
M  V30 861 N 79.8174 1.5752 -0.0501392 0
M  V30 862 C 81.2284 1.80271 0.485705 0
M  V30 863 C 81.5794 0.96228 1.70981 0
M  V30 864 O 80.7044 0.178578 2.15662 0
M  V30 865 C 81.2994 3.26957 0.887938 0
M  V30 866 C 79.8584 3.5063 1.36877 0
M  V30 867 C 79.0054 2.75165 0.343468 0
M  V30 868 H 81.9564 1.56281 -0.276028 0
M  V30 869 H 81.9774 3.37821 1.75093 0
M  V30 870 H 81.4894 3.881 -0.0031809 0
M  V30 871 H 79.5904 2.94766 2.27911 0
M  V30 872 H 79.7034 4.59343 1.36164 0
M  V30 873 H 78.0674 2.4127 0.816128 0
M  V30 874 H 78.8504 3.39034 -0.539548 0
M  V30 875 N 81.2955 -0.223234 1.56011 0
M  V30 876 C 82.2425 -1.27664 1.92277 0
M  V30 877 C 83.2125 -1.46659 0.779763 0
M  V30 878 O 84.3975 -1.60256 1.03551 0
M  V30 879 C 81.5375 -2.62234 2.24338 0
M  V30 880 C 80.6505 -2.51051 3.51564 0
M  V30 881 C 79.7855 -3.78133 3.7308 0
M  V30 882 C 78.8245 -3.61665 4.93827 0
M  V30 883 N 77.9615 -4.80693 5.11741 0
M  V30 884 H 82.8015 -0.960358 2.82101 0
M  V30 885 H 80.3385 -0.462901 1.39627 0
M  V30 886 H 82.2965 -3.40596 2.40936 0
M  V30 887 H 80.9265 -2.91961 1.3769 0
M  V30 888 H 79.9785 -1.64132 3.43169 0
M  V30 889 H 81.2905 -2.34803 4.40079 0
M  V30 890 H 80.4445 -4.64938 3.89766 0
M  V30 891 H 79.1835 -3.97304 2.82844 0
M  V30 892 H 78.1885 -2.73244 4.77093 0
M  V30 893 H 79.4135 -3.43966 5.85546 0
M  V30 894 H 77.3595 -5.00181 4.24446 0
M  V30 895 H 77.2765 -4.67165 5.94384 0
M  V30 896 H 78.5445 -5.6893 5.3286 0
M  V30 897 N 82.7736 -1.49793 -0.48987 0
M  V30 898 C 84.0016 -1.63568 -1.26701 0
M  V30 899 C 84.4166 -0.311465 -1.86213 0
M  V30 900 O 83.7736 0.704416 -1.68357 0
M  V30 901 C 83.8246 -2.71284 -2.38929 0
M  V30 902 O 83.5456 -3.9857 -1.81861 0
M  V30 903 C 85.0466 -2.95864 -3.3012 0
M  V30 904 H 82.2666 -0.550342 -0.383881 0
M  V30 905 H 84.8106 -1.95898 -0.586864 0
M  V30 906 H 82.9656 -2.417 -3.02753 0
M  V30 907 H 83.3796 -4.57993 -2.55622 0
M  V30 908 H 84.8536 -3.74941 -4.05121 0
M  V30 909 H 85.3306 -2.06206 -3.87783 0
M  V30 910 H 85.9366 -3.26907 -2.72051 0
M  V30 911 N 84.2517 0.741722 -1.39055 0
M  V30 912 C 85.4977 1.50336 -1.36113 0
M  V30 913 C 85.8307 1.94148 0.0450796 0
M  V30 914 O 85.1057 1.66301 1.00868 0
M  V30 915 C 85.3887 2.74773 -2.32749 0
M  V30 916 C 85.2417 2.37023 -3.82283 0
M  V30 917 C 86.5607 3.76846 -2.27322 0
M  V30 918 H 83.6797 0.545351 -0.495743 0
M  V30 919 H 86.3217 0.848624 -1.69995 0
M  V30 920 H 84.4717 3.30639 -2.03986 0
M  V30 921 H 86.1437 1.8684 -4.21768 0
M  V30 922 H 84.3867 1.69334 -3.99385 0
M  V30 923 H 85.0577 3.26104 -4.45376 0
M  V30 924 H 87.5337 3.30548 -2.5274 0
M  V30 925 H 86.4097 4.6159 -2.97028 0
M  V30 926 H 86.6707 4.23286 -1.27599 0
M  V30 927 N 85.7298 1.2412 0.971189 0
M  V30 928 C 86.6398 1.04747 2.09917 0
M  V30 929 C 87.6558 -0.0107162 1.73997 0
M  V30 930 O 88.8318 0.186714 2.00533 0
M  V30 931 C 85.8968 0.650828 3.40537 0
M  V30 932 C 84.9578 1.7851 3.90426 0
M  V30 933 C 84.1908 1.40729 5.14812 0
M  V30 934 O 84.4138 0.29557 5.69634 0
M  V30 935 O 83.3478 2.23168 5.58999 0
M  V30 936 H 87.1738 1.99304 2.29154 0
M  V30 937 H 84.7588 1.02908 1.08307 0
M  V30 938 H 86.6408 0.440992 4.19086 0
M  V30 939 H 85.3158 -0.265649 3.22608 0
M  V30 940 H 84.2228 2.04966 3.12953 0
M  V30 941 H 85.5558 2.68023 4.12825 0
M  V30 942 N 87.2079 -1.17134 1.05439 0
M  V30 943 C 88.1379 -2.2342 0.678649 0
M  V30 944 C 89.1189 -1.66971 -0.32476 0
M  V30 945 O 90.3039 -1.93149 -0.201802 0
M  V30 946 C 87.4339 -3.47256 0.0552099 0
M  V30 947 C 86.3879 -4.16543 0.98365 0
M  V30 948 C 85.7139 -5.34231 0.223961 0
M  V30 949 C 87.0139 -4.68495 2.3089 0
M  V30 950 H 88.7079 -2.55105 1.56722 0
M  V30 951 H 86.2539 -1.2262 0.754998 0
M  V30 952 H 88.2069 -4.20828 -0.21946 0
M  V30 953 H 86.9309 -3.14846 -0.868319 0
M  V30 954 H 85.5899 -3.44887 1.24293 0
M  V30 955 H 85.2379 -4.98071 -0.702412 0
M  V30 956 H 84.9379 -5.81527 0.842627 0
M  V30 957 H 86.4619 -6.10585 -0.0433671 0
M  V30 958 H 87.8759 -5.33691 2.09396 0
M  V30 959 H 86.2729 -5.26379 2.88176 0
M  V30 960 H 87.3429 -3.85169 2.94572 0
M  V30 961 N 88.686 -0.835752 -1.33615 0
M  V30 962 C 89.616 -0.281739 -2.31794 0
M  V30 963 C 90.597 0.608833 -1.58831 0
M  V30 964 O 91.782 0.533035 -1.86741 0
M  V30 965 C 88.912 0.546612 -3.42971 0
M  V30 966 C 87.866 -0.247904 -4.27281 0
M  V30 967 C 87.192 0.704001 -5.30045 0
M  V30 968 C 88.492 -1.46324 -5.01385 0
M  V30 969 H 90.186 -1.10206 -2.78379 0
M  V30 970 H 87.732 -0.531388 -1.33837 0
M  V30 971 H 89.685 0.944467 -4.1068 0
M  V30 972 H 88.409 1.40011 -2.95067 0
M  V30 973 H 87.068 -0.627281 -3.61194 0
M  V30 974 H 86.716 1.55381 -4.78399 0
M  V30 975 H 86.416 0.176524 -5.87335 0
M  V30 976 H 87.94 1.09944 -6.0062 0
M  V30 977 H 89.354 -1.13871 -5.61877 0
M  V30 978 H 87.751 -1.92728 -5.6831 0
M  V30 979 H 88.821 -2.23467 -4.30338 0
M  V30 980 N 90.1641 1.46063 -0.591896 0
M  V30 981 C 91.3891 2.07226 -0.0850314 0
M  V30 982 C 91.8141 1.43625 1.21463 0
M  V30 983 O 91.1721 0.523305 1.73583 0
M  V30 984 C 91.2201 3.60554 0.0576567 0
M  V30 985 O 90.3241 3.97128 1.11188 0
M  V30 986 H 89.6651 0.660615 -0.0669568 0
M  V30 987 H 92.1951 1.8756 -0.81745 0
M  V30 988 H 92.2051 4.07165 0.2609 0
M  V30 989 H 90.8801 4.06235 -0.891416 0
M  V30 990 H 89.4571 3.62213 0.886356 0
M  V30 991 N 91.6422 0.330177 1.54103 0
M  V30 992 C 92.8902 -0.269871 2.0029 0
M  V30 993 C 93.2112 -1.52133 1.21986 0
M  V30 994 O 92.4812 -1.93212 0.323438 0
M  V30 995 H 91.0612 -0.10271 0.739905 0
M  V30 996 H 93.7232 0.448249 1.89675 0
M  V30 997 H 92.8192 -0.52166 3.07709 0
M  V30 998 N 93.1203 -1.57491 0.0584922 0
M  V30 999 C 94.3663 -1.93264 -0.614558 0
M  V30 1000 C 94.6993 -0.937717 -1.7006 0
M  V30 1001 O 93.9743 0.0351652 -1.94468 0
M  V30 1002 C 94.2573 -3.3938 -1.20386 0
M  V30 1003 C 94.1103 -4.49625 -0.125375 0
M  V30 1004 C 95.4293 -3.86039 -2.11334 0
M  V30 1005 H 92.5483 -0.702791 -0.221933 0
M  V30 1006 H 95.1903 -1.8961 0.12175 0
M  V30 1007 H 93.3403 -3.42626 -1.83139 0
M  V30 1008 H 95.0123 -4.58506 0.506971 0
M  V30 1009 H 93.2553 -4.30354 0.545672 0
M  V30 1010 H 93.9263 -5.48967 -0.577861 0
M  V30 1011 H 96.4023 -3.84716 -1.58534 0
M  V30 1012 H 95.2783 -4.88914 -2.49507 0
M  V30 1013 H 95.5393 -3.23215 -3.01636 0
M  V30 1014 N 94.5984 0.214957 -1.56127 0
M  V30 1015 C 95.8444 0.939762 -1.79712 0
M  V30 1016 C 96.1774 1.83723 -0.629247 0
M  V30 1017 O 95.4524 1.90925 0.371197 0
M  V30 1018 C 95.7354 1.77306 -3.13424 0
M  V30 1019 C 95.5884 0.90164 -4.40671 0
M  V30 1020 C 96.9074 2.74956 -3.43638 0
M  V30 1021 H 94.0264 0.340214 -0.653776 0
M  V30 1022 H 96.6684 0.20824 -1.88855 0
M  V30 1023 H 94.8184 2.39673 -3.0576 0
M  V30 1024 H 96.4904 0.294206 -4.60361 0
M  V30 1025 H 94.7334 0.207368 -4.33304 0
M  V30 1026 H 95.4044 1.51923 -5.30682 0
M  V30 1027 H 97.8804 2.22724 -3.51473 0
M  V30 1028 H 96.7564 3.30358 -4.38355 0
M  V30 1029 H 97.0174 3.53023 -2.66134 0
M  V30 1030 N 96.0765 1.50051 0.48192 0
M  V30 1031 C 97.3535 1.51009 1.2432 0
M  V30 1032 C 97.7335 0.248587 2.09631 0
M  V30 1033 O 97.0815 -0.768409 2.15192 0
M  V30 1034 C 97.2915 2.79981 2.08355 0
M  V30 1035 C 98.6395 3.3022 2.66908 0
M  V30 1036 O 99.6635 2.81228 2.18607 0
M  V30 1037 O 98.5225 4.15595 3.54884 0
M  V30 1038 H 95.6165 0.605239 0.563573 0
M  V30 1039 H 98.1625 1.62332 0.494627 0
M  V30 1040 H 96.9345 3.63275 1.45419 0
M  V30 1041 H 96.5575 2.7161 2.90368 0
M  V30 1042 N 97.5546 -0.734337 1.39446 0
M  V30 1043 C 98.4866 -1.85861 1.34121 0
M  V30 1044 C 99.4996 -1.60871 0.249864 0
M  V30 1045 O 100.689 -1.71093 0.508865 0
M  V30 1046 C 97.7886 -3.21899 1.05991 0
M  V30 1047 C 96.9616 -3.74239 2.26415 0
M  V30 1048 C 96.0206 -4.88841 1.94733 0
M  V30 1049 O 95.0466 -5.02468 2.67422 0
M  V30 1050 N 96.2486 -5.73261 0.913884 0
M  V30 1051 H 99.0136 -1.90934 2.31007 0
M  V30 1052 H 96.5746 -0.915102 1.33557 0
M  V30 1053 H 98.5666 -3.96136 0.828147 0
M  V30 1054 H 97.1366 -3.12091 0.178361 0
M  V30 1055 H 96.3566 -2.91347 2.65539 0
M  V30 1056 H 97.6446 -4.05942 3.06738 0
M  V30 1057 H 97.0426 -5.64842 0.311476 0
M  V30 1058 H 95.5996 -6.47563 0.742015 0
M  V30 1059 N 99.0327 -1.24633 -0.964593 0
M  V30 1060 C 100.261 -1.11501 -1.74285 0
M  V30 1061 C 100.676 0.332165 -1.85855 0
M  V30 1062 O 100.033 1.22903 -1.34911 0
M  V30 1063 C 100.084 -1.75258 -3.16175 0
M  V30 1064 O 99.8047 -3.14318 -3.05182 0
M  V30 1065 C 101.306 -1.67776 -4.10324 0
M  V30 1066 H 98.5257 -0.389407 -0.546446 0
M  V30 1067 H 101.07 -1.64801 -1.21083 0
M  V30 1068 H 99.2247 -1.25954 -3.66353 0
M  V30 1069 H 99.6387 -3.4551 -3.94618 0
M  V30 1070 H 101.113 -2.17064 -5.0753 0
M  V30 1071 H 101.59 -0.639584 -4.34518 0
M  V30 1072 H 102.196 -2.16522 -3.66058 0
M  V30 1073 N 100.511 1.16574 -1.06058 0
M  V30 1074 C 101.458 2.20883 -0.669263 0
M  V30 1075 C 102.428 1.62729 0.332918 0
M  V30 1076 O 103.613 1.895 0.222346 0
M  V30 1077 C 100.753 3.45049 -0.0593572 0
M  V30 1078 C 99.8658 4.17458 -1.11143 0
M  V30 1079 C 99.0008 5.29135 -0.467916 0
M  V30 1080 C 98.0398 5.93343 -1.50369 0
M  V30 1081 N 97.1768 6.96516 -0.883706 0
M  V30 1082 H 102.017 2.53709 -1.5632 0
M  V30 1083 H 99.5538 1.24616 -0.781625 0
M  V30 1084 H 101.512 4.16033 0.311771 0
M  V30 1085 H 100.142 3.12781 0.797992 0
M  V30 1086 H 99.1938 3.45101 -1.60029 0
M  V30 1087 H 100.506 4.61307 -1.89731 0
M  V30 1088 H 99.6598 6.06684 -0.0436871 0
M  V30 1089 H 98.3988 4.86443 0.349864 0
M  V30 1090 H 97.4038 5.14517 -1.93784 0
M  V30 1091 H 98.6288 6.38114 -2.32352 0
M  V30 1092 H 96.5748 6.55943 -0.086595 0
M  V30 1093 H 96.4918 7.38723 -1.607 0
M  V30 1094 H 97.7598 7.77993 -0.484543 0
M  V30 1095 N 101.989 0.842826 1.3317 0
M  V30 1096 C 103.266 0.362216 1.92217 0
M  V30 1097 C 103.646 -1.15289 1.76838 0
M  V30 1098 O 102.994 -1.96914 1.15919 0
M  V30 1099 C 103.204 0.813495 3.39387 0
M  V30 1100 C 104.552 0.823804 4.16532 0
M  V30 1101 O 105.576 0.757358 3.48055 0
M  V30 1102 O 104.435 0.915193 5.38782 0
M  V30 1103 H 101.529 0.103317 0.820521 0
M  V30 1104 H 104.075 0.928942 1.42017 0
M  V30 1105 H 102.847 1.85624 3.4447 0
M  V30 1106 H 102.47 0.223561 3.96971 0
M  V30 1107 N 103.467 -1.45747 0.599634 0
M  V30 1108 C 104.715 -2.01893 0.0915472 0
M  V30 1109 C 105.036 -1.47155 -1.27946 0
M  V30 1110 O 104.306 -0.66273 -1.84349 0
M  V30 1111 H 102.886 -0.746363 0.0308524 0
M  V30 1112 H 105.548 -1.78645 0.779237 0
M  V30 1113 H 104.644 -3.1208 0.0353086 0
M  V30 1114 N 104.945 -0.338344 -1.53925 0
M  V30 1115 C 105.875 0.51328 -2.27789 0
M  V30 1116 C 106.856 1.107 -1.29149 0
M  V30 1117 O 108.041 1.12937 -1.57984 0
M  V30 1118 C 105.171 1.66697 -3.04679 0
M  V30 1119 C 104.125 1.20183 -4.1078 0
M  V30 1120 C 103.451 2.44363 -4.75595 0
M  V30 1121 C 104.751 0.30605 -5.21403 0
M  V30 1122 H 106.445 -0.102883 -2.99223 0
M  V30 1123 H 103.991 -0.0509219 -1.4391 0
M  V30 1124 H 105.944 2.26915 -3.55088 0
M  V30 1125 H 104.668 2.30995 -2.30887 0
M  V30 1126 H 103.327 0.622499 -3.61276 0
M  V30 1127 H 102.975 3.07057 -3.98403 0
M  V30 1128 H 102.675 2.13925 -5.47275 0
M  V30 1129 H 104.199 3.05317 -5.28786 0
M  V30 1130 H 105.613 0.814929 -5.67478 0
M  V30 1131 H 104.01 0.0937929 -6.00027 0
M  V30 1132 H 105.08 -0.65921 -4.80398 0
M  V30 1133 N 106.423 1.57458 -0.0668435 0
M  V30 1134 C 107.672 1.92477 0.602947 0
M  V30 1135 C 107.985 0.948419 1.71068 0
M  V30 1136 O 109.191 1.19124 2.43971 0
M  V30 1137 C 107.647 3.41903 1.12383 0
M  V30 1138 C 107.255 4.47975 0.04737 0
M  V30 1139 C 108.999 3.85931 1.76797 0
M  V30 1140 C 106.906 5.88529 0.582022 0
M  V30 1141 H 105.836 0.718387 0.22899 0
M  V30 1142 H 108.487 1.82978 -0.138276 0
M  V30 1143 H 106.869 3.46459 1.91787 0
M  V30 1144 H 108.043 4.55029 -0.726978 0
M  V30 1145 H 106.358 4.13384 -0.500243 0
M  V30 1146 H 108.955 4.88322 2.17821 0
M  V30 1147 H 109.298 3.23029 2.62599 0
M  V30 1148 H 109.831 3.83958 1.04024 0
M  V30 1149 H 106.57 6.55065 -0.238721 0
M  V30 1150 H 106.09 5.85004 1.324 0
M  V30 1151 H 107.769 6.38258 1.05999 0
M  V30 1152 N 107.901 -0.206675 1.56239 0
M  V30 1153 C 109.126 -0.949474 1.8439 0
M  V30 1154 C 109.551 -1.76549 0.649016 0
M  V30 1155 O 108.909 -1.76782 -0.402231 0
M  V30 1156 C 108.957 -1.83078 3.10668 0
M  V30 1157 O 108.061 -2.9281 2.90407 0
M  V30 1158 H 107.402 -0.268033 0.607499 0
M  V30 1159 H 109.932 -0.215488 2.03462 0
M  V30 1160 H 109.942 -2.2377 3.41161 0
M  V30 1161 H 108.617 -1.23112 3.97261 0
M  V30 1162 H 107.194 -2.55956 2.71184 0
M  V30 1163 N 109.379 -1.50304 -0.473955 0
M  V30 1164 C 110.626 -1.6115 -1.22625 0
M  V30 1165 C 110.954 -0.310517 -1.92005 0
M  V30 1166 O 110.209 0.703419 -1.82621 0
M  V30 1167 C 110.508 -2.73938 -2.29549 0
M  V30 1168 C 110.174 -4.14519 -1.7744 0
M  V30 1169 C 108.836 -4.5277 -1.62949 0
M  V30 1170 C 111.188 -5.02392 -1.3875 0
M  V30 1171 C 108.516 -5.76639 -1.08187 0
M  V30 1172 C 110.868 -6.26805 -0.854309 0
M  V30 1173 C 109.532 -6.63861 -0.696011 0
M  V30 1174 H 108.802 -0.589691 -0.448715 0
M  V30 1175 H 111.449 -1.84228 -0.522705 0
M  V30 1176 H 109.754 -2.44937 -3.05799 0
M  V30 1177 H 111.451 -2.79534 -2.87509 0
M  V30 1178 H 108.041 -3.8434 -1.89685 0
M  V30 1179 H 112.225 -4.73474 -1.4878 0
M  V30 1180 H 107.481 -6.04027 -0.946666 0
M  V30 1181 H 111.655 -6.94258 -0.545843 0
M  V30 1182 H 109.282 -7.59722 -0.26952 0
M  V30 1183 N 110.857 0.726932 -1.39834 0
M  V30 1184 C 111.789 1.85147 -1.35104 0
M  V30 1185 C 112.802 1.60736 -0.258392 0
M  V30 1186 O 113.991 1.70821 -0.517931 0
M  V30 1187 C 111.091 3.21332 -1.07697 0
M  V30 1188 C 110.264 3.73033 -2.28396 0
M  V30 1189 C 109.323 4.87802 -1.97322 0
M  V30 1190 O 108.349 5.01043 -2.70083 0
M  V30 1191 N 109.551 5.72768 -0.944273 0
M  V30 1192 H 112.316 1.89706 -2.32017 0
M  V30 1193 H 109.877 0.908006 -1.3404 0
M  V30 1194 H 111.869 3.95691 -0.849144 0
M  V30 1195 H 110.439 3.11992 -0.194909 0
M  V30 1196 H 109.659 2.89934 -2.6708 0
M  V30 1197 H 110.947 4.0431 -3.08887 0
M  V30 1198 H 110.345 5.64669 -0.341427 0
M  V30 1199 H 108.902 6.4716 -0.776346 0
M  V30 1200 N 112.336 1.25143 0.95797 0
M  V30 1201 C 113.246 1.06968 2.08794 0
M  V30 1202 C 114.262 0.00773911 1.73998 0
M  V30 1203 O 115.438 0.207972 2.00323 0
M  V30 1204 C 112.503 0.68691 3.39827 0
M  V30 1205 C 111.564 1.82641 3.88511 0
M  V30 1206 C 110.797 1.46181 5.1329 0
M  V30 1207 O 111.02 0.355971 5.69288 0
M  V30 1208 O 109.954 2.29085 5.566 0
M  V30 1209 H 113.78 2.01723 2.27027 0
M  V30 1210 H 111.365 1.04051 1.07209 0
M  V30 1211 H 113.247 0.485417 4.18595 0
M  V30 1212 H 111.922 -0.231417 3.22872 0
M  V30 1213 H 110.829 2.08274 3.10762 0
M  V30 1214 H 112.162 2.72386 4.09959 0
M  V30 1215 N 113.814 -1.1601 1.06675 0
M  V30 1216 C 115.061 -1.86633 0.785781 0
M  V30 1217 C 115.389 -1.81929 -0.687896 0
M  V30 1218 O 114.644 -1.23253 -1.52011 0
M  V30 1219 C 114.943 -3.35547 1.23057 0
M  V30 1220 C 114.609 -3.60448 2.70902 0
M  V30 1221 C 113.271 -3.66954 3.11285 0
M  V30 1222 C 115.623 -3.7071 3.66365 0
M  V30 1223 C 112.951 -3.81225 4.45965 0
M  V30 1224 C 115.303 -3.86503 5.00797 0
M  V30 1225 C 113.967 -3.91252 5.40813 0
M  V30 1226 H 113.237 -0.682937 0.287538 0
M  V30 1227 H 115.884 -1.37146 1.33654 0
M  V30 1228 H 114.189 -3.87193 0.59907 0
M  V30 1229 H 115.886 -3.88583 0.990163 0
M  V30 1230 H 112.476 -3.56021 2.38636 0
M  V30 1231 H 116.66 -3.64991 3.36296 0
M  V30 1232 H 111.916 -3.83155 4.76447 0
M  V30 1233 H 116.09 -3.93385 5.74649 0
M  V30 1234 H 113.717 -4.02062 6.45174 0
M  V30 1235 N 115.292 -0.849877 -1.32721 0
M  V30 1236 C 116.538 -0.451591 -1.97708 0
M  V30 1237 C 116.871 0.989175 -1.6712 0
M  V30 1238 O 116.146 1.69334 -0.956891 0
M  V30 1239 C 116.429 -0.685598 -3.53513 0
M  V30 1240 C 116.282 -2.17444 -3.93749 0
M  V30 1241 C 117.601 -0.138874 -4.39881 0
M  V30 1242 H 114.72 -0.16555 -0.718166 0
M  V30 1243 H 117.362 -1.06742 -1.57182 0
M  V30 1244 H 115.512 -0.161416 -3.88165 0
M  V30 1245 H 117.184 -2.76433 -3.693 0
M  V30 1246 H 115.427 -2.65476 -3.43081 0
M  V30 1247 H 116.098 -2.28888 -5.02309 0
M  V30 1248 H 118.574 -0.587068 -4.11938 0
M  V30 1249 H 117.45 -0.332213 -5.47894 0
M  V30 1250 H 117.711 0.95806 -4.31594 0
M  V30 1251 N 116.77 1.45427 -0.607355 0
M  V30 1252 C 117.733 2.28974 0.101693 0
M  V30 1253 C 118.733 1.39754 0.795329 0
M  V30 1254 O 119.923 1.61878 0.643527 0
M  V30 1255 C 117.055 3.20768 1.15414 0
M  V30 1256 H 118.248 2.93147 -0.632844 0
M  V30 1257 H 115.801 1.51945 -0.366391 0
M  V30 1258 H 116.536 2.61395 1.91945 0
M  V30 1259 H 116.321 3.86489 0.66098 0
M  V30 1260 H 117.811 3.83589 1.65073 0
M  V30 1261 N 118.248 0.346503 1.53744 0
M  V30 1262 C 119.495 -0.249104 2.00962 0
M  V30 1263 C 119.823 -1.5032 1.23426 0
M  V30 1264 O 119.078 -1.93217 0.310761 0
M  V30 1265 C 119.377 -0.605809 3.52228 0
M  V30 1266 C 119.043 0.551747 4.47512 0
M  V30 1267 C 117.705 0.86941 4.73281 0
M  V30 1268 C 120.057 1.32818 5.03993 0
M  V30 1269 C 117.385 1.96582 5.52786 0
M  V30 1270 C 119.737 2.41486 5.84694 0
M  V30 1271 C 118.401 2.73808 6.08757 0
M  V30 1272 H 117.671 -0.0911538 0.735372 0
M  V30 1273 H 120.318 0.475027 1.85515 0
M  V30 1274 H 118.623 -1.4107 3.65522 0
M  V30 1275 H 120.32 -1.07858 3.86222 0
M  V30 1276 H 116.91 0.294102 4.2759 0
M  V30 1277 H 121.094 1.09602 4.84047 0
M  V30 1278 H 116.35 2.22045 5.69654 0
M  V30 1279 H 120.524 3.02078 6.27473 0
M  V30 1280 H 118.151 3.58892 6.7015 0
M  V30 1281 N 119.726 -1.57421 0.075193 0
M  V30 1282 C 120.636 -2.1642 -0.905511 0
M  V30 1283 C 121.652 -1.12828 -1.32461 0
M  V30 1284 O 122.828 -1.45109 -1.39661 0
M  V30 1285 C 119.893 -2.71693 -2.15369 0
M  V30 1286 C 118.954 -3.90171 -1.79068 0
M  V30 1287 C 118.187 -4.42798 -2.97936 0
M  V30 1288 O 118.41 -3.94416 -4.12058 0
M  V30 1289 O 117.344 -5.34085 -2.77555 0
M  V30 1290 H 121.17 -3.00588 -0.433626 0
M  V30 1291 H 118.755 -1.48664 -0.148067 0
M  V30 1292 H 120.637 -3.07104 -2.88557 0
M  V30 1293 H 119.312 -1.90582 -2.61649 0
M  V30 1294 H 118.219 -3.59606 -1.03122 0
M  V30 1295 H 119.552 -4.72584 -1.37569 0
M  V30 1296 N 121.204 0.198386 -1.56346 0
M  V30 1297 C 122.429 0.939682 -1.84891 0
M  V30 1298 C 122.854 1.76202 -0.658369 0
M  V30 1299 O 122.212 1.76993 0.392851 0
M  V30 1300 C 122.26 1.81428 -3.11635 0
M  V30 1301 O 121.364 2.91265 -2.91956 0
M  V30 1302 H 120.705 0.264807 -0.608912 0
M  V30 1303 H 123.235 0.204695 -2.03573 0
M  V30 1304 H 123.245 2.21958 -3.42343 0
M  V30 1305 H 121.92 1.21004 -3.97908 0
M  V30 1306 H 120.497 2.54514 -2.72538 0
M  V30 1307 N 122.682 1.50554 0.465978 0
M  V30 1308 C 123.928 1.62038 1.21949 0
M  V30 1309 C 124.261 0.322116 1.9151 0
M  V30 1310 O 123.536 -0.676723 1.82348 0
M  V30 1311 C 123.819 2.80421 2.25912 0
M  V30 1312 C 123.672 4.20144 1.60622 0
M  V30 1313 C 124.991 2.94354 3.27176 0
M  V30 1314 H 122.11 0.589752 0.441998 0
M  V30 1315 H 124.752 1.82956 0.51257 0
M  V30 1316 H 122.902 2.62717 2.86203 0
M  V30 1317 H 124.574 4.49449 1.03889 0
M  V30 1318 H 122.817 4.24165 0.909211 0
M  V30 1319 H 123.488 4.98914 2.36196 0
M  V30 1320 H 125.964 3.10578 2.76913 0
M  V30 1321 H 124.84 3.788 3.97242 0
M  V30 1322 H 125.101 2.05186 3.916 0
M  V30 1323 N 124.16 -0.719506 1.40217 0
M  V30 1324 C 125.09 -1.8465 1.42922 0
M  V30 1325 C 126.071 -1.67599 0.29062 0
M  V30 1326 O 127.256 -1.87688 0.498677 0
M  V30 1327 C 124.386 -3.22565 1.28722 0
M  V30 1328 C 123.34 -3.54281 2.40144 0
M  V30 1329 C 122.666 -4.91298 2.11023 0
M  V30 1330 C 123.966 -3.55676 3.82481 0
M  V30 1331 H 125.66 -1.82644 2.37237 0
M  V30 1332 H 123.206 -0.877305 1.1419 0
M  V30 1333 H 125.159 -4.01095 1.29232 0
M  V30 1334 H 123.883 -3.25137 0.308811 0
M  V30 1335 H 122.542 -2.78088 2.38877 0
M  V30 1336 H 122.19 -4.90468 1.11582 0
M  V30 1337 H 121.89 -5.13485 2.8567 0
M  V30 1338 H 123.414 -5.72166 2.13209 0
M  V30 1339 H 124.828 -4.24254 3.85592 0
M  V30 1340 H 123.225 -3.89388 4.56614 0
M  V30 1341 H 124.295 -2.55144 4.12346 0
M  V30 1342 N 125.638 -1.25649 -0.95132 0
M  V30 1343 C 126.878 -1.11802 -1.71113 0
M  V30 1344 C 127.242 0.334758 -1.89059 0
M  V30 1345 O 128.443 0.595121 -2.62129 0
M  V30 1346 C 126.714 -1.85512 -3.05483 0
M  V30 1347 S 128.273 -1.87597 -3.96677 0
M  V30 1348 H 125.091 -0.399552 -0.588115 0
M  V30 1349 H 127.693 -1.59222 -1.1344 0
M  V30 1350 H 126.397 -2.90299 -2.90094 0
M  V30 1351 H 125.928 -1.38493 -3.68216 0
M  V30 1352 H 127.943 -0.955389 -4.86916 0
M  V30 1353 N 127.117 1.15442 -1.07289 0
M  V30 1354 C 128.08 2.18358 -0.696591 0
M  V30 1355 C 129.08 1.58637 0.262837 0
M  V30 1356 O 130.27 1.74145 0.0438809 0
M  V30 1357 C 127.402 3.4089 -0.0266151 0
M  V30 1358 H 128.595 2.53162 -1.60776 0
M  V30 1359 H 126.148 1.29893 -0.869342 0
M  V30 1360 H 126.883 3.11653 0.896822 0
M  V30 1361 H 126.668 3.85495 -0.716657 0
M  V30 1362 H 128.158 4.17009 0.222028 0
M  V30 1363 N 128.595 0.856903 1.32268 0
M  V30 1364 C 130.006 0.515711 1.79436 0
M  V30 1365 C 130.357 -0.966586 1.70738 0
M  V30 1366 O 129.482 -1.75409 1.26731 0
M  V30 1367 C 130.077 0.929335 3.25805 0
M  V30 1368 C 128.636 0.640006 3.70919 0
M  V30 1369 C 127.783 1.12784 2.53328 0
M  V30 1370 H 130.734 1.04389 1.19535 0
M  V30 1371 H 130.755 0.246633 3.797 0
M  V30 1372 H 130.267 2.00821 3.32103 0
M  V30 1373 H 128.368 -0.428051 3.70133 0
M  V30 1374 H 128.481 1.20788 4.63624 0
M  V30 1375 H 126.845 0.548033 2.48734 0
M  V30 1376 H 127.628 2.21387 2.62379 0
M  V30 1377 N 130.073 -1.45103 0.615059 0
M  V30 1378 C 131.35 -1.95549 0.0448276 0
M  V30 1379 C 131.73 -1.55737 -1.4251 0
M  V30 1380 O 131.078 -0.823556 -2.13143 0
M  V30 1381 C 131.288 -3.48098 0.250785 0
M  V30 1382 C 132.636 -4.24384 0.135509 0
M  V30 1383 O 133.66 -3.55738 0.181299 0
M  V30 1384 O 132.519 -5.46493 0.0268878 0
M  V30 1385 H 129.613 -0.8264 -0.0314845 0
M  V30 1386 H 132.159 -1.55232 0.685642 0
M  V30 1387 H 130.931 -3.7007 1.27139 0
M  V30 1388 H 130.554 -3.95323 -0.424937 0
M  V30 1389 N 131.551 -0.354651 -1.53558 0
M  V30 1390 C 132.514 0.484566 -2.24019 0
M  V30 1391 C 133.514 1.01861 -1.24422 0
M  V30 1392 O 134.704 0.906097 -1.4878 0
M  V30 1393 C 131.836 1.67615 -2.96847 0
M  V30 1394 H 133.029 -0.131843 -2.9961 0
M  V30 1395 H 130.582 -0.106165 -1.55939 0
M  V30 1396 H 131.317 2.33095 -2.25471 0
M  V30 1397 H 131.102 1.30029 -3.69912 0
M  V30 1398 H 132.592 2.27114 -3.50441 0
M  V30 1399 N 133.029 1.57378 -0.0835403 0
M  V30 1400 C 133.959 2.1641 0.87686 0
M  V30 1401 C 134.94 1.09429 1.30228 0
M  V30 1402 O 136.125 1.37516 1.37124 0
M  V30 1403 C 133.255 2.73517 2.14022 0
M  V30 1404 C 132.209 3.85769 1.85381 0
M  V30 1405 C 131.535 4.29529 3.18448 0
M  V30 1406 C 132.835 5.09486 1.14984 0
M  V30 1407 H 134.529 2.96914 0.385059 0
M  V30 1408 H 132.075 1.42823 0.18377 0
M  V30 1409 H 134.028 3.13463 2.81636 0
M  V30 1410 H 132.752 1.90252 2.65465 0
M  V30 1411 H 131.411 3.46345 1.20169 0
M  V30 1412 H 131.059 3.43169 3.67755 0
M  V30 1413 H 130.759 5.05204 3.00071 0
M  V30 1414 H 132.283 4.72099 3.8724 0
M  V30 1415 H 133.697 5.46674 1.72687 0
M  V30 1416 H 132.094 5.90515 1.06826 0
M  V30 1417 H 133.164 4.84724 0.130749 0
M  V30 1418 N 134.507 -0.190092 1.56449 0
M  V30 1419 C 135.754 -0.909705 1.80916 0
M  V30 1420 C 136.082 -1.83047 0.657583 0
M  V30 1421 O 135.337 -1.92428 -0.356356 0
M  V30 1422 C 135.636 -1.75382 3.1141 0
M  V30 1423 C 135.302 -0.983606 4.40041 0
M  V30 1424 C 133.964 -0.770967 4.74984 0
M  V30 1425 C 136.316 -0.442024 5.19322 0
M  V30 1426 C 133.644 -0.0053448 5.867 0
M  V30 1427 C 135.996 0.310412 6.31838 0
M  V30 1428 C 134.66 0.534023 6.6536 0
M  V30 1429 H 133.93 -0.332885 0.662019 0
M  V30 1430 H 136.577 -0.175762 1.90692 0
M  V30 1431 H 134.882 -2.55659 2.96893 0
M  V30 1432 H 136.579 -2.31331 3.27547 0
M  V30 1433 H 133.169 -1.15936 4.12622 0
M  V30 1434 H 137.353 -0.593693 4.92736 0
M  V30 1435 H 132.609 0.177825 6.11141 0
M  V30 1436 H 136.783 0.737419 6.92485 0
M  V30 1437 H 134.41 1.12918 7.51767 0
M  V30 1438 N 135.985 -1.50799 -0.457987 0
M  V30 1439 C 136.918 -1.65273 -1.57353 0
M  V30 1440 C 137.896 -0.500578 -1.54703 0
M  V30 1441 O 139.08 -0.721781 -1.74134 0
M  V30 1442 C 136.207 -1.64737 -2.95938 0
M  V30 1443 C 135.253 -2.8567 -3.16693 0
M  V30 1444 S 136.086 -4.46791 -2.95191 0
M  V30 1445 C 137.242 -4.48968 -4.36095 0
M  V30 1446 H 137.475 -2.59633 -1.44838 0
M  V30 1447 H 135.008 -1.40225 -0.64625 0
M  V30 1448 H 136.966 -1.65112 -3.7583 0
M  V30 1449 H 135.627 -0.715899 -3.05833 0
M  V30 1450 H 134.82 -2.81637 -4.17967 0
M  V30 1451 H 134.422 -2.8293 -2.44594 0
M  V30 1452 H 136.714 -4.23337 -5.28954 0
M  V30 1453 H 137.657 -5.50664 -4.45168 0
M  V30 1454 H 138.065 -3.78522 -4.18786 0
M  V30 1455 N 137.463 0.71206 -1.40597 0
M  V30 1456 C 138.709 1.47416 -1.39271 0
M  V30 1457 C 139.042 1.942 0.00388791 0
M  V30 1458 O 138.317 1.68403 0.973179 0
M  V30 1459 C 138.6 2.69774 -2.38525 0
M  V30 1460 C 138.453 2.28861 -3.87224 0
M  V30 1461 C 139.772 3.71939 -2.35264 0
M  V30 1462 H 136.891 0.534713 -0.5072 0
M  V30 1463 H 139.533 0.812375 -1.71757 0
M  V30 1464 H 137.683 3.26238 -2.10953 0
M  V30 1465 H 139.355 1.77852 -4.25636 0
M  V30 1466 H 137.598 1.60824 -4.02887 0
M  V30 1467 H 138.269 3.16584 -4.52193 0
M  V30 1468 H 140.745 3.25113 -2.59694 0
M  V30 1469 H 139.621 4.55186 -3.06753 0
M  V30 1470 H 139.882 4.20484 -1.36549 0
M  V30 1471 N 138.941 1.26152 0.944643 0
M  V30 1472 C 139.904 1.07474 2.0244 0
M  V30 1473 C 140.904 0.0242064 1.60782 0
M  V30 1474 O 142.094 0.267302 1.72137 0
M  V30 1475 C 139.226 0.633956 3.34953 0
M  V30 1476 H 140.419 2.03336 2.20442 0
M  V30 1477 H 137.972 1.087 1.12312 0
M  V30 1478 H 138.707 -0.326811 3.22649 0
M  V30 1479 H 138.492 1.39247 3.66542 0
M  V30 1480 H 139.982 0.52501 4.14287 0
M  V30 1481 N 140.419 -1.14872 1.07899 0
M  V30 1482 C 141.666 -1.85789 0.805532 0
M  V30 1483 C 141.994 -1.82649 -0.668561 0
M  V30 1484 O 141.249 -1.24858 -1.50695 0
M  V30 1485 C 141.548 -3.34223 1.26609 0
M  V30 1486 C 141.214 -3.57555 2.74709 0
M  V30 1487 C 139.876 -3.63631 3.1516 0
M  V30 1488 C 142.228 -3.66803 3.70277 0
M  V30 1489 C 139.556 -3.76473 4.49983 0
M  V30 1490 C 141.908 -3.8117 5.04869 0
M  V30 1491 C 140.572 -3.85494 5.44932 0
M  V30 1492 H 139.842 -0.679849 0.294765 0
M  V30 1493 H 142.489 -1.3572 1.35101 0
M  V30 1494 H 140.794 -3.86536 0.640103 0
M  V30 1495 H 142.491 -3.87511 1.03132 0
M  V30 1496 H 139.081 -3.5347 2.42398 0
M  V30 1497 H 143.265 -3.61404 3.40149 0
M  V30 1498 H 138.521 -3.7808 4.80484 0
M  V30 1499 H 142.695 -3.87268 5.78789 0
M  V30 1500 H 140.322 -3.95197 6.49403 0
M  V30 1501 N 141.898 -0.863906 -1.31812 0
M  V30 1502 C 142.83 -0.272485 -2.27575 0
M  V30 1503 C 143.843 0.56104 -1.52827 0
M  V30 1504 O 145.032 0.384021 -1.7432 0
M  V30 1505 C 142.132 0.63283 -3.32939 0
M  V30 1506 C 141.305 -0.166902 -4.37081 0
M  V30 1507 C 140.364 0.665608 -5.21973 0
M  V30 1508 O 139.39 0.0958091 -5.69119 0
M  V30 1509 N 140.592 1.9787 -5.45736 0
M  V30 1510 H 143.357 -1.0954 -2.78964 0
M  V30 1511 H 140.918 -0.724791 -1.4477 0
M  V30 1512 H 142.91 1.19532 -3.86645 0
M  V30 1513 H 141.48 1.35642 -2.81638 0
M  V30 1514 H 140.7 -0.910838 -3.83533 0
M  V30 1515 H 141.988 -0.715874 -5.03739 0
M  V30 1516 H 141.386 2.46484 -5.09178 0
M  V30 1517 H 139.943 2.48911 -6.024 0
M  V30 1518 N 143.376 1.44774 -0.622745 0
M  V30 1519 C 144.306 2.33382 0.0741861 0
M  V30 1520 C 145.287 1.47719 0.843387 0
M  V30 1521 O 146.472 1.76458 0.810934 0
M  V30 1522 C 143.602 3.30663 1.06204 0
M  V30 1523 C 142.556 4.26079 0.405037 0
M  V30 1524 C 141.882 5.13165 1.5022 0
M  V30 1525 C 143.182 5.1781 -0.683414 0
M  V30 1526 H 144.876 2.91905 -0.665713 0
M  V30 1527 H 142.422 1.40363 -0.321587 0
M  V30 1528 H 144.375 3.9153 1.55827 0
M  V30 1529 H 143.099 2.70331 1.83272 0
M  V30 1530 H 141.758 3.66532 -0.0704683 0
M  V30 1531 H 141.406 4.49191 2.26355 0
M  V30 1532 H 141.106 5.77812 1.06803 0
M  V30 1533 H 142.63 5.76902 2.00041 0
M  V30 1534 H 144.044 5.72661 -0.270631 0
M  V30 1535 H 142.441 5.91015 -1.04023 0
M  V30 1536 H 143.511 4.59326 -1.55395 0
M  V30 1537 N 144.854 0.36279 1.53368 0
M  V30 1538 C 146.101 -0.227776 2.01215 0
M  V30 1539 C 146.429 -1.49003 1.25014 0
M  V30 1540 O 145.684 -1.92876 0.331236 0
M  V30 1541 C 145.983 -0.568417 3.52851 0
M  V30 1542 C 145.649 0.59918 4.46901 0
M  V30 1543 C 144.311 0.919559 4.72332 0
M  V30 1544 C 146.663 1.38156 5.02556 0
M  V30 1545 C 143.991 2.02434 5.5067 0
M  V30 1546 C 146.343 2.47674 5.821 0
M  V30 1547 C 145.007 2.8025 6.05819 0
M  V30 1548 H 144.277 -0.083349 0.736297 0
M  V30 1549 H 146.924 0.494677 1.85001 0
M  V30 1550 H 145.229 -1.37185 3.66998 0
M  V30 1551 H 146.926 -1.03756 3.87344 0
M  V30 1552 H 143.516 0.339437 4.27254 0
M  V30 1553 H 147.7 1.14729 4.82857 0
M  V30 1554 H 142.956 2.28075 5.67267 0
M  V30 1555 H 147.13 3.08716 6.24234 0
M  V30 1556 H 144.757 3.65979 6.66306 0
M  V30 1557 N 146.332 -1.57332 0.0918853 0
M  V30 1558 C 147.609 -1.85691 -0.614668 0
M  V30 1559 C 147.989 -0.988146 -1.86545 0
M  V30 1560 O 147.337 -0.0597055 -2.28422 0
M  V30 1561 C 147.547 -3.36294 -0.933126 0
M  V30 1562 C 148.895 -4.04275 -1.29796 0
M  V30 1563 O 149.919 -3.41157 -1.02424 0
M  V30 1564 O 148.778 -5.1564 -1.81047 0
M  V30 1565 H 145.872 -0.767802 -0.307261 0
M  V30 1566 H 148.418 -1.69244 0.12434 0
M  V30 1567 H 147.19 -3.91273 -0.0456404 0
M  V30 1568 H 146.813 -3.58076 -1.72822 0
M  V30 1569 N 147.81 0.181792 -1.56548 0
M  V30 1570 C 148.757 1.22521 -1.95595 0
M  V30 1571 C 149.727 1.4454 -0.818373 0
M  V30 1572 O 150.912 1.57454 -1.07763 0
M  V30 1573 C 148.052 2.56193 -2.31212 0
M  V30 1574 C 147.165 2.41641 -3.58097 0
M  V30 1575 C 146.3 3.68108 -3.82975 0
M  V30 1576 C 145.339 3.48445 -5.03242 0
M  V30 1577 N 144.476 4.66956 -5.24306 0
M  V30 1578 H 149.316 0.885226 -2.84548 0
M  V30 1579 H 146.853 0.425718 -1.40805 0
M  V30 1580 H 148.811 3.34088 -2.49882 0
M  V30 1581 H 147.441 2.88208 -1.45382 0
M  V30 1582 H 146.493 1.54976 -3.474 0
M  V30 1583 H 147.805 2.23052 -4.46149 0
M  V30 1584 H 146.959 4.54441 -4.01956 0
M  V30 1585 H 145.698 3.89666 -2.93278 0
M  V30 1586 H 144.703 2.60499 -4.8417 0
M  V30 1587 H 145.928 3.2832 -5.9446 0
M  V30 1588 H 143.874 4.88752 -4.37559 0
M  V30 1589 H 143.791 4.51242 -6.06561 0
M  V30 1590 H 145.059 5.54602 -5.47756 0
M  V30 1591 N 149.288 1.51039 0.449983 0
M  V30 1592 C 150.251 1.70863 1.5277 0
M  V30 1593 C 151.251 0.578846 1.5002 0
M  V30 1594 O 152.441 0.846213 1.52266 0
M  V30 1595 C 149.573 1.75341 2.9235 0
M  V30 1596 H 150.766 2.67034 1.36502 0
M  V30 1597 H 148.319 1.40838 0.677812 0
M  V30 1598 H 149.054 0.809383 3.14037 0
M  V30 1599 H 148.839 2.57436 2.95752 0
M  V30 1600 H 150.329 1.92559 3.70555 0
M  V30 1601 N 150.766 -0.704594 1.40972 0
M  V30 1602 C 152.014 -1.46169 1.39568 0
M  V30 1603 C 152.335 -1.95 0.00253745 0
M  V30 1604 O 151.605 -1.71095 -0.954114 0
M  V30 1605 H 150.185 -0.542326 0.513704 0
M  V30 1606 H 152.847 -0.834553 1.76128 0
M  V30 1607 H 151.943 -2.32922 2.07735 0
M  V30 1608 N 152.244 -1.26651 -0.937939 0
M  V30 1609 C 153.191 -1.0849 -2.03712 0
M  V30 1610 C 154.161 0.011033 -1.66096 0
M  V30 1611 O 155.346 -0.149353 -1.90215 0
M  V30 1612 C 152.486 -0.72735 -3.37348 0
M  V30 1613 C 151.599 -1.89986 -3.87981 0
M  V30 1614 C 150.734 -1.48513 -5.10017 0
M  V30 1615 C 149.773 -2.62575 -5.5292 0
M  V30 1616 N 148.91 -2.21762 -6.66158 0
M  V30 1617 H 153.75 -2.02551 -2.18579 0
M  V30 1618 H 151.287 -1.00844 -1.07093 0
M  V30 1619 H 153.245 -0.50092 -4.14182 0
M  V30 1620 H 151.875 0.176298 -3.22318 0
M  V30 1621 H 150.927 -2.23913 -3.07518 0
M  V30 1622 H 152.239 -2.75586 -4.15757 0
M  V30 1623 H 151.393 -1.21934 -5.94321 0
M  V30 1624 H 150.132 -0.60009 -4.83994 0
M  V30 1625 H 149.137 -2.8988 -4.67172 0
M  V30 1626 H 150.362 -3.51685 -5.80943 0
M  V30 1627 H 148.308 -1.35696 -6.41812 0
M  V30 1628 H 148.225 -3.00903 -6.93537 0
M  V30 1629 H 149.493 -1.98403 -7.53828 0
M  V30 1630 N 153.722 1.14298 -1.08507 0
M  V30 1631 C 154.97 1.84993 -0.813763 0
M  V30 1632 C 155.291 1.83405 0.662393 0
M  V30 1633 O 154.561 1.28319 1.48024 0
M  V30 1634 H 153.141 0.684966 -0.298045 0
M  V30 1635 H 155.803 1.385 -1.37126 0
M  V30 1636 H 154.899 2.89788 -1.15884 0
M  V30 1637 N 155.201 0.870884 1.31352 0
M  V30 1638 C 156.111 0.330783 2.32256 0
M  V30 1639 C 157.127 -0.559767 1.6475 0
M  V30 1640 O 158.303 -0.456263 1.96164 0
M  V30 1641 C 155.368 -0.458137 3.4366 0
M  V30 1642 C 154.429 0.460482 4.26823 0
M  V30 1643 C 153.662 -0.290881 5.32907 0
M  V30 1644 O 153.885 -1.51885 5.49806 0
M  V30 1645 O 152.819 0.351732 6.00871 0
M  V30 1646 H 156.645 1.16718 2.80376 0
M  V30 1647 H 154.23 0.634285 1.35267 0
M  V30 1648 H 156.112 -0.905343 4.1156 0
M  V30 1649 H 154.787 -1.27106 2.97701 0
M  V30 1650 H 153.694 0.956207 3.61673 0
M  V30 1651 H 155.027 1.23903 4.7635 0
M  V30 1652 N 156.679 -1.44442 0.630414 0
M  V30 1653 C 157.925 -2.02351 0.134816 0
M  V30 1654 C 158.258 -1.4947 -1.23986 0
M  V30 1655 O 157.533 -0.678475 -1.82283 0
M  V30 1656 C 157.816 -3.59898 0.120707 0
M  V30 1657 C 157.669 -4.23063 1.52767 0
M  V30 1658 C 158.988 -4.36585 -0.555127 0
M  V30 1659 H 156.107 -0.73527 0.0504646 0
M  V30 1660 H 158.749 -1.72022 0.806751 0
M  V30 1661 H 156.899 -3.85868 -0.451477 0
M  V30 1662 H 158.571 -4.08202 2.14869 0
M  V30 1663 H 156.814 -3.80586 2.08175 0
M  V30 1664 H 157.485 -5.32071 1.46984 0
M  V30 1665 H 159.961 -4.16044 -0.0685429 0
M  V30 1666 H 158.837 -5.46294 -0.534185 0
M  V30 1667 H 159.098 -4.11138 -1.62535 0
M  V30 1668 N 158.157 -0.370918 -1.53173 0
M  V30 1669 C 159.385 0.217704 -2.05751 0
M  V30 1670 C 159.8 1.42018 -1.24404 0
M  V30 1671 O 159.157 1.80245 -0.286033 0
M  V30 1672 C 159.208 0.605954 -3.56385 0
M  V30 1673 O 158.929 -0.548734 -4.3465 0
M  V30 1674 C 160.43 1.2524 -4.25241 0
M  V30 1675 H 157.65 0.0371659 -0.66997 0
M  V30 1676 H 160.194 -0.530832 -1.9749 0
M  V30 1677 H 158.349 1.3044 -3.6478 0
M  V30 1678 H 158.763 -0.23376 -5.23979 0
M  V30 1679 H 160.237 1.47458 -5.3194 0
M  V30 1680 H 160.714 2.2143 -3.79296 0
M  V30 1681 H 161.32 0.595233 -4.21114 0
M  V30 1682 N 159.635 1.57281 -0.100228 0
M  V30 1683 C 160.882 1.94537 0.562268 0
M  V30 1684 C 161.21 0.982315 1.67871 0
M  V30 1685 O 160.465 0.00280936 1.957 0
M  V30 1686 C 160.764 3.38305 1.15259 0
M  V30 1687 C 160.43 4.50618 0.159409 0
M  V30 1688 C 159.092 4.81066 -0.113741 0
M  V30 1689 C 161.444 5.18615 -0.518461 0
M  V30 1690 C 158.772 5.76835 -1.07137 0
M  V30 1691 C 161.124 6.15412 -1.46459 0
M  V30 1692 C 159.788 6.44262 -1.74592 0
M  V30 1693 H 159.058 0.711863 0.205748 0
M  V30 1694 H 161.705 1.90679 -0.17715 0
M  V30 1695 H 160.01 3.38766 1.96836 0
M  V30 1696 H 161.707 3.64435 1.67297 0
M  V30 1697 H 158.297 4.2689 0.382491 0
M  V30 1698 H 162.481 4.95264 -0.320581 0
M  V30 1699 H 157.737 5.975 -1.29628 0
M  V30 1700 H 161.911 6.67194 -1.99564 0
M  V30 1701 H 159.538 7.1828 -2.48953 0
M  V30 1702 N 161.113 -0.173488 1.56642 0
M  V30 1703 C 162.023 -1.23482 1.99473 0
M  V30 1704 C 163.039 -1.48567 0.905752 0
M  V30 1705 O 164.215 -1.60758 1.21321 0
M  V30 1706 C 161.28 -2.55444 2.34413 0
M  V30 1707 C 160.341 -2.38241 3.57127 0
M  V30 1708 C 159.574 -3.63909 3.90392 0
M  V30 1709 O 159.797 -4.68996 3.24653 0
M  V30 1710 O 158.731 -3.58149 4.83749 0
M  V30 1711 H 162.557 -0.901279 2.90018 0
M  V30 1712 H 160.142 -0.380185 1.44482 0
M  V30 1713 H 162.024 -3.33292 2.57865 0
M  V30 1714 H 160.699 -2.88382 1.4703 0
M  V30 1715 H 159.606 -1.58431 3.38896 0
M  V30 1716 H 160.939 -2.10228 4.45045 0
M  V30 1717 N 162.591 -1.51276 -0.441967 0
M  V30 1718 C 163.868 -1.54252 -1.20273 0
M  V30 1719 C 164.248 -0.30408 -2.08898 0
M  V30 1720 O 163.596 0.711084 -2.17154 0
M  V30 1721 C 163.806 -2.85406 -2.00859 0
M  V30 1722 C 165.154 -3.37181 -2.58059 0
M  V30 1723 O 166.178 -2.86925 -2.11074 0
M  V30 1724 O 165.037 -4.24858 -3.43741 0
M  V30 1725 H 162.131 -0.619969 -0.547328 0
M  V30 1726 H 164.677 -1.63586 -0.451413 0
M  V30 1727 H 163.449 -3.67003 -1.35736 0
M  V30 1728 H 163.072 -2.79213 -2.83065 0
M  V30 1729 N 164.069 0.697108 -1.41344 0
M  V30 1730 C 165.315 1.4593 -1.40827 0
M  V30 1731 C 165.648 1.94193 -0.0167098 0
M  V30 1732 O 164.923 1.69425 0.955263 0
M  V30 1733 C 165.206 2.67229 -2.41373 0
M  V30 1734 C 165.059 2.24741 -3.8963 0
M  V30 1735 C 166.378 3.69423 -2.39196 0
M  V30 1736 H 163.497 0.529303 -0.512842 0
M  V30 1737 H 166.139 0.794112 -1.72609 0
M  V30 1738 H 164.289 3.23982 -2.14401 0
M  V30 1739 H 165.961 1.73327 -4.27499 0
M  V30 1740 H 164.204 1.56542 -4.0457 0
M  V30 1741 H 164.875 3.1177 -4.55525 0
M  V30 1742 H 167.351 3.2234 -2.63128 0
M  V30 1743 H 166.227 4.51907 -3.11563 0
M  V30 1744 H 166.488 4.19012 -1.41001 0
M  V30 1745 N 165.547 1.27147 0.931209 0
M  V30 1746 C 166.494 1.09568 2.03134 0
M  V30 1747 C 167.464 -0.00222433 1.661 0
M  V30 1748 O 168.649 0.159439 1.90133 0
M  V30 1749 C 165.789 0.745231 3.36957 0
M  V30 1750 C 164.902 1.92041 3.86968 0
M  V30 1751 C 164.037 1.51216 5.09222 0
M  V30 1752 C 163.076 2.65504 5.5152 0
M  V30 1753 N 162.213 2.25291 6.64972 0
M  V30 1754 H 167.053 2.03708 2.17502 0
M  V30 1755 H 164.59 1.01411 1.06556 0
M  V30 1756 H 166.548 0.522878 4.1391 0
M  V30 1757 H 165.178 -0.159202 3.22407 0
M  V30 1758 H 164.23 2.25541 3.06326 0
M  V30 1759 H 165.542 2.77787 4.1429 0
M  V30 1760 H 164.696 1.25084 5.93666 0
M  V30 1761 H 163.435 0.625749 4.83669 0
M  V30 1762 H 162.44 2.92354 4.65628 0
M  V30 1763 H 163.665 3.54761 5.7907 0
M  V30 1764 H 161.611 1.39098 6.41083 0
M  V30 1765 H 161.528 3.04577 6.91931 0
M  V30 1766 H 162.796 2.02398 7.52765 0
M  V30 1767 N 167.025 -1.13721 1.09112 0
M  V30 1768 C 167.957 -2.1871 0.685467 0
M  V30 1769 C 168.97 -1.60527 -0.271068 0
M  V30 1770 O 170.159 -1.78407 -0.0576148 0
M  V30 1771 C 167.259 -3.38898 -0.0111255 0
M  V30 1772 C 166.432 -4.26597 0.966131 0
M  V30 1773 C 165.491 -5.25324 0.303539 0
M  V30 1774 O 164.517 -5.61213 0.950177 0
M  V30 1775 N 165.719 -5.72779 -0.943651 0
M  V30 1776 H 168.484 -2.54126 1.58871 0
M  V30 1777 H 166.045 -1.29012 0.978143 0
M  V30 1778 H 168.037 -4.02014 -0.465517 0
M  V30 1779 H 166.607 -3.01747 -0.816565 0
M  V30 1780 H 165.827 -3.60306 1.59917 0
M  V30 1781 H 167.115 -4.82048 1.6281 0
M  V30 1782 H 166.513 -5.45762 -1.48862 0
M  V30 1783 H 165.07 -6.37847 -1.34142 0
M  V30 1784 N 168.503 -0.877838 -1.30888 0
M  V30 1785 C 169.749 -0.493426 -1.96706 0
M  V30 1786 C 170.082 0.953504 -1.6918 0
M  V30 1787 O 169.357 1.67266 -0.992594 0
M  V30 1788 C 169.64 -0.760429 -3.51979 0
M  V30 1789 C 169.493 -2.25747 -3.89048 0
M  V30 1790 C 170.812 -0.232148 -4.39487 0
M  V30 1791 H 167.931 -0.180746 -0.714493 0
M  V30 1792 H 170.573 -1.10052 -1.54882 0
M  V30 1793 H 168.723 -0.243715 -3.87735 0
M  V30 1794 H 170.395 -2.84204 -3.63354 0
M  V30 1795 H 168.638 -2.72694 -3.37373 0
M  V30 1796 H 169.309 -2.39491 -4.97341 0
M  V30 1797 H 171.785 -0.674314 -4.106 0
M  V30 1798 H 170.661 -0.448355 -5.47066 0
M  V30 1799 H 170.922 0.866297 -4.33529 0
M  V30 1800 N 169.982 1.44106 -0.638065 0
M  V30 1801 C 171.229 2.01978 -0.14533 0
M  V30 1802 C 171.557 1.50234 1.23532 0
M  V30 1803 O 170.812 0.679548 1.83523 0
M  V30 1804 C 171.111 3.5729 -0.0887327 0
M  V30 1805 C 170.777 4.28317 -1.40909 0
M  V30 1806 C 169.439 4.47437 -1.77069 0
M  V30 1807 C 171.791 4.6867 -2.28031 0
M  V30 1808 C 169.119 5.04171 -3.00047 0
M  V30 1809 C 171.471 5.26766 -3.50286 0
M  V30 1810 C 170.135 5.44104 -3.86661 0
M  V30 1811 H 169.405 0.739089 -0.0531801 0
M  V30 1812 H 172.052 1.72781 -0.825761 0
M  V30 1813 H 170.357 3.8594 0.675095 0
M  V30 1814 H 172.054 3.99807 0.309145 0
M  V30 1815 H 168.644 4.1377 -1.1177 0
M  V30 1816 H 172.828 4.53604 -2.01388 0
M  V30 1817 H 168.084 5.15782 -3.28298 0
M  V30 1818 H 172.258 5.56983 -4.18023 0
M  V30 1819 H 169.885 5.87832 -4.82034 0
M  V30 1820 N 171.46 0.379036 1.52974 0
M  V30 1821 C 172.708 -0.206014 2.01047 0
M  V30 1822 C 173.029 -1.48175 1.26765 0
M  V30 1823 O 172.299 -1.92085 0.384743 0
M  V30 1824 H 170.879 -0.0791184 0.742798 0
M  V30 1825 H 173.541 0.508366 1.88153 0
M  V30 1826 H 172.637 -0.423501 3.09213 0
M  V30 1827 N 172.938 -1.57226 0.108567 0
M  V30 1828 C 173.87 -2.11809 -0.875752 0
M  V30 1829 C 174.883 -1.05839 -1.23701 0
M  V30 1830 O 176.072 -1.33245 -1.18778 0
M  V30 1831 C 173.172 -2.59411 -2.18081 0
M  V30 1832 C 172.345 -3.89364 -1.99284 0
M  V30 1833 C 171.404 -4.22672 -3.13424 0
M  V30 1834 O 170.43 -4.91668 -2.86795 0
M  V30 1835 N 171.632 -3.79154 -4.3957 0
M  V30 1836 H 174.397 -2.9689 -0.409477 0
M  V30 1837 H 171.958 -1.61721 -0.076158 0
M  V30 1838 H 173.95 -2.7873 -2.93414 0
M  V30 1839 H 172.52 -1.79268 -2.5609 0
M  V30 1840 H 171.74 -3.79059 -1.08203 0
M  V30 1841 H 173.028 -4.74358 -1.84017 0
M  V30 1842 H 172.426 -3.23486 -4.64083 0
M  V30 1843 H 170.983 -4.03602 -5.11809 0
M  V30 1844 N 174.416 0.165178 -1.56732 0
M  V30 1845 C 175.644 0.896218 -1.86482 0
M  V30 1846 C 176.059 1.75555 -0.694675 0
M  V30 1847 O 175.416 1.79379 0.33607 0
M  V30 1848 C 175.467 1.76792 -3.1532 0
M  V30 1849 O 175.188 0.943239 -4.27825 0
M  V30 1850 C 176.689 2.6081 -3.58459 0
M  V30 1851 H 173.909 0.260064 -0.618553 0
M  V30 1852 H 176.453 0.163428 -2.03846 0
M  V30 1853 H 174.608 2.45398 -2.99764 0
M  V30 1854 H 175.022 1.53998 -5.01383 0
M  V30 1855 H 176.496 3.17579 -4.51495 0
M  V30 1856 H 176.973 3.35977 -2.82872 0
M  V30 1857 H 177.579 1.97526 -3.76648 0
M  V30 1858 N 175.894 1.51508 0.433938 0
M  V30 1859 C 177.122 1.68157 1.20543 0
M  V30 1860 C 177.537 0.380362 1.84929 0
M  V30 1861 O 176.894 -0.641446 1.70856 0
M  V30 1862 C 176.945 2.79965 2.28696 0
M  V30 1863 O 176.666 4.05045 1.66943 0
M  V30 1864 C 178.167 3.07912 3.18912 0
M  V30 1865 H 175.387 0.56421 0.363191 0
M  V30 1866 H 177.931 1.97941 0.513754 0
M  V30 1867 H 176.086 2.5277 2.93574 0
M  V30 1868 H 176.5 4.67165 2.38448 0
M  V30 1869 H 177.974 3.89719 3.90926 0
M  V30 1870 H 178.451 2.20456 3.79863 0
M  V30 1871 H 179.057 3.36779 2.59731 0
M  V30 1872 N 177.372 -0.689602 1.41712 0
M  V30 1873 C 178.621 -1.44534 1.40686 0
M  V30 1874 C 178.934 -1.95588 0.0213352 0
M  V30 1875 O 180.14 -2.71271 -0.111534 0
M  V30 1876 C 178.596 -2.61387 2.47396 0
M  V30 1877 C 178.204 -2.17094 3.91885 0
M  V30 1878 C 179.948 -3.38986 2.55517 0
M  V30 1879 C 177.855 -3.3094 4.90135 0
M  V30 1880 H 176.785 -0.542925 0.52321 0
M  V30 1881 H 179.436 -0.748054 1.6756 0
M  V30 1882 H 177.818 -3.33412 2.13664 0
M  V30 1883 H 178.992 -1.52318 4.34897 0
M  V30 1884 H 177.307 -1.52473 3.8748 0
M  V30 1885 H 179.904 -4.23747 3.26102 0
M  V30 1886 H 180.247 -3.84578 1.59391 0
M  V30 1887 H 180.78 -2.74021 2.8837 0
M  V30 1888 H 177.519 -2.90355 5.87685 0
M  V30 1889 H 177.039 -3.94546 4.51767 0
M  V30 1890 H 178.718 -3.9663 5.11169 0
M  V30 1891 N 178.85 -1.27639 -0.924453 0
M  V30 1892 C 179.8 -1.07295 -2.01176 0
M  V30 1893 C 180.784 5.77352e-05 -1.609 0
M  V30 1894 O 181.976 -0.218855 -1.75642 0
M  V30 1895 C 179.105 -0.725592 -3.35544 0
M  V30 1896 C 178.191 -1.83691 -3.82254 0
M  V30 1897 N 178.582 -3.07697 -4.01443 0
M  V30 1898 C 176.88 -1.72433 -4.11319 0
M  V30 1899 C 177.581 -3.80037 -4.40394 0
M  V30 1900 N 176.557 -3.0782 -4.48049 0
M  V30 1901 H 180.359 -2.01399 -2.14046 0
M  V30 1902 H 177.873 -1.18401 -1.11153 0
M  V30 1903 H 179.87 -0.560959 -4.13109 0
M  V30 1904 H 178.53 0.207782 -3.24034 0
M  V30 1905 H 179.541 -3.43424 -3.8766 0
M  V30 1906 H 176.218 -0.862005 -4.08504 0
M  V30 1907 H 177.608 -4.86632 -4.63291 0
M  V30 1908 N 180.328 1.1314 -1.09713 0
M  V30 1909 C 181.26 2.18343 -0.697056 0
M  V30 1910 C 182.273 1.60669 0.262551 0
M  V30 1911 O 183.462 1.78435 0.0481527 0
M  V30 1912 C 180.562 3.38899 -0.00684728 0
M  V30 1913 C 179.735 4.26078 -0.988741 0
M  V30 1914 C 178.794 5.25155 -0.331394 0
M  V30 1915 O 177.82 5.60701 -0.979926 0
M  V30 1916 N 179.022 5.73271 0.913261 0
M  V30 1917 H 181.787 2.5328 -1.60216 0
M  V30 1918 H 179.348 1.28491 -0.984971 0
M  V30 1919 H 181.34 4.02255 0.444191 0
M  V30 1920 H 179.91 3.02175 0.800551 0
M  V30 1921 H 179.13 3.59453 -1.61826 0
M  V30 1922 H 180.418 4.81178 -1.65364 0
M  V30 1923 H 179.816 5.46544 1.45966 0
M  V30 1924 H 178.373 6.3855 1.30757 0
M  V30 1925 N 181.806 0.884767 1.30421 0
M  V30 1926 C 182.756 0.322846 2.25703 0
M  V30 1927 C 183.74 -0.548582 1.51259 0
M  V30 1928 O 184.932 -0.39304 1.72581 0
M  V30 1929 C 182.061 -0.461787 3.4018 0
M  V30 1930 C 181.147 0.423717 4.21978 0
M  V30 1931 N 181.538 1.52408 4.82292 0
M  V30 1932 C 179.836 0.218795 4.45463 0
M  V30 1933 C 180.537 2.07136 5.43571 0
M  V30 1934 N 179.513 1.36635 5.26148 0
M  V30 1935 H 183.315 1.16363 2.69883 0
M  V30 1936 H 180.829 0.73415 1.44859 0
M  V30 1937 H 182.826 -0.880985 4.07485 0
M  V30 1938 H 181.486 -1.30001 2.9754 0
M  V30 1939 H 182.497 1.90693 4.81515 0
M  V30 1940 H 179.174 -0.582275 4.1342 0
M  V30 1941 H 180.564 2.99538 6.01437 0
M  V30 1942 N 183.284 -1.43765 0.645699 0
M  V30 1943 C 184.533 -2.01116 0.153412 0
M  V30 1944 C 184.846 -1.51493 -1.23731 0
M  V30 1945 O 186.052 -2.01067 -1.8244 0
M  V30 1946 C 184.508 -3.59206 0.223473 0
M  V30 1947 C 184.116 -4.17823 1.61642 0
M  V30 1948 C 185.86 -4.23972 -0.211597 0
M  V30 1949 C 183.767 -5.68183 1.64081 0
M  V30 1950 H 182.697 -0.752093 0.0535891 0
M  V30 1951 H 185.348 -1.6482 0.806633 0
M  V30 1952 H 183.73 -3.92867 -0.497118 0
M  V30 1953 H 184.904 -3.95674 2.36176 0
M  V30 1954 H 183.219 -3.65399 1.99681 0
M  V30 1955 H 185.816 -5.34275 -0.213112 0
M  V30 1956 H 186.159 -3.97352 -1.24165 0
M  V30 1957 H 186.692 -3.95166 0.456988 0
M  V30 1958 H 183.431 -5.99559 2.64971 0
M  V30 1959 H 182.951 -5.9241 0.938611 0
M  V30 1960 H 184.63 -6.32085 1.3812 0
M  V30 1961 N 184.763 -0.387143 -1.52771 0
M  V30 1962 C 186.174 0.0873634 -1.86495 0
M  V30 1963 C 186.525 1.46336 -1.30691 0
M  V30 1964 O 185.65 2.068 -0.637409 0
M  V30 1965 C 186.245 0.165305 -3.38396 0
M  V30 1966 C 184.804 0.584101 -3.7184 0
M  V30 1967 C 183.951 -0.255279 -2.76122 0
M  V30 1968 H 186.902 -0.605104 -1.46711 0
M  V30 1969 H 186.923 0.984848 -3.67534 0
M  V30 1970 H 186.435 -0.836301 -3.78982 0
M  V30 1971 H 184.536 1.59315 -3.36823 0
M  V30 1972 H 184.649 0.343749 -4.77865 0
M  V30 1973 H 183.013 0.279126 -2.53166 0
M  V30 1974 H 183.796 -1.25482 -3.19545 0
M  V30 1975 N 186.241 1.57166 -0.116904 0
M  V30 1976 C 187.488 1.95123 0.541603 0
M  V30 1977 C 187.816 1.00006 1.6682 0
M  V30 1978 O 187.071 0.0235658 1.95686 0
M  V30 1979 C 187.37 3.39508 1.11664 0
M  V30 1980 C 187.036 4.50762 0.111606 0
M  V30 1981 C 185.698 4.80918 -0.164758 0
M  V30 1982 C 188.05 5.18036 -0.573438 0
M  V30 1983 C 185.378 5.75666 -1.13249 0
M  V30 1984 C 187.73 6.13824 -1.52978 0
M  V30 1985 C 186.394 6.42374 -1.81415 0
M  V30 1986 H 185.664 0.714005 0.198187 0
M  V30 1987 H 188.311 1.9048 -0.197365 0
M  V30 1988 H 186.616 3.40835 1.93232 0
M  V30 1989 H 188.313 3.66189 1.63422 0
M  V30 1990 H 184.903 4.27272 0.337192 0
M  V30 1991 H 189.087 4.94896 -0.373092 0
M  V30 1992 H 184.343 5.96092 -1.35958 0
M  V30 1993 H 188.517 6.65039 -2.06629 0
M  V30 1994 H 186.144 7.15599 -2.56557 0
M  V30 1995 N 187.719 -0.156864 1.56817 0
M  V30 1996 C 188.667 -1.21319 1.98455 0
M  V30 1997 C 189.661 -1.45025 0.875444 0
M  V30 1998 O 190.867 -1.45435 1.0606 0
M  V30 1999 H 187.242 -0.408142 0.631605 0
M  V30 2000 H 189.213 -0.835244 2.86472 0
M  V30 2001 C 187.962 -2.54148 2.37285 0
M  V30 2002 H 187.285 -2.36733 3.22176 0
M  V30 2003 H 188.725 -3.26712 2.70251 0
M  V30 2004 C 187.184 -3.13967 1.22173 0
M  V30 2005 O 187.714 -3.98357 0.517149 0
M  V30 2006 N 185.92 -2.7327 0.988536 0
M  V30 2007 H 185.467 -2.04744 1.56326 0
M  V30 2008 H 185.425 -3.13628 0.220209 0
M  V30 2009 N 189.197 -1.51736 -0.425897 0
M  V30 2010 C 190.443 -1.66174 -1.17294 0
M  V30 2011 C 190.798 -0.37876 -1.88635 0
M  V30 2012 O 190.091 0.626021 -1.81084 0
M  V30 2013 C 190.285 -2.81103 -2.20717 0
M  V30 2014 C 190.114 -4.20453 -1.59529 0
M  V30 2015 C 188.884 -4.86225 -1.37525 0
M  V30 2016 C 191.082 -5.03146 -1.06528 0
M  V30 2017 N 189.064 -6.09657 -0.720537 0
M  V30 2018 C 190.435 -6.17674 -0.536506 0
M  V30 2019 C 192.49 -4.88594 -0.958127 0
M  V30 2020 C 191.193 -7.19245 0.0888917 0
M  V30 2021 C 193.219 -5.90383 -0.346608 0
M  V30 2022 C 192.581 -7.04191 0.171564 0
M  V30 2023 H 188.68 -0.661871 -0.416475 0
M  V30 2024 H 191.264 -1.88997 -0.467801 0
M  V30 2025 H 189.435 -2.59924 -2.88607 0
M  V30 2026 H 191.167 -2.84662 -2.87663 0
M  V30 2027 H 187.922 -4.44293 -1.64015 0
M  V30 2028 H 188.346 -6.75756 -0.410292 0
M  V30 2029 H 192.988 -4.0085 -1.34459 0
M  V30 2030 H 190.706 -8.06628 0.48746 0
M  V30 2031 H 194.292 -5.81194 -0.265451 0
M  V30 2032 H 193.172 -7.81606 0.637309 0
M  V30 2033 N 190.675 0.682077 -1.42076 0
M  V30 2034 C 191.952 1.43755 -1.32642 0
M  V30 2035 C 192.332 2.11063 0.0396611 0
M  V30 2036 O 191.68 2.02701 1.05474 0
M  V30 2037 C 191.89 2.44596 -2.48946 0
M  V30 2038 C 193.238 3.09454 -2.9073 0
M  V30 2039 O 194.262 2.54922 -2.48783 0
M  V30 2040 O 193.121 4.08253 -3.63307 0
M  V30 2041 H 190.215 0.640857 -0.522715 0
M  V30 2042 H 192.761 0.711415 -1.54068 0
M  V30 2043 H 191.533 1.93609 -3.40046 0
M  V30 2044 H 191.156 3.24701 -2.29467 0
M  V30 2045 N 192.153 1.28127 0.917671 0
M  V30 2046 C 193.378 1.18007 1.70555 0
M  V30 2047 C 193.803 -0.258257 1.86319 0
M  V30 2048 O 193.161 -1.1869 1.37049 0
M  V30 2049 C 193.209 1.87948 3.07746 0
M  V30 2050 O 192.313 1.18427 3.9503 0
M  V30 2051 H 191.654 0.409867 0.522403 0
M  V30 2052 H 194.184 1.69379 1.1477 0
M  V30 2053 H 194.194 1.95701 3.58001 0
M  V30 2054 H 192.869 2.92573 2.95591 0
M  V30 2055 H 191.446 1.18811 3.53466 0
M  V30 2056 N 193.631 -1.12557 1.10312 0
M  V30 2057 C 194.541 -2.21841 0.763142 0
M  V30 2058 C 195.557 -1.72354 -0.238801 0
M  V30 2059 O 196.733 -2.01249 -0.0778746 0
M  V30 2060 C 193.798 -3.46131 0.198632 0
M  V30 2061 C 192.859 -4.10464 1.25769 0
M  V30 2062 C 192.092 -5.28821 0.72002 0
M  V30 2063 O 192.315 -5.6859 -0.453993 0
M  V30 2064 O 191.249 -5.83437 1.47935 0
M  V30 2065 H 195.075 -2.53312 1.67532 0
M  V30 2066 H 192.66 -1.20867 0.878157 0
M  V30 2067 H 194.542 -4.2125 -0.112401 0
M  V30 2068 H 193.217 -3.16338 -0.686419 0
M  V30 2069 H 192.124 -3.3713 1.62156 0
M  V30 2070 H 193.457 -4.44408 2.11571 0
M  V30 2071 N 195.109 -0.891671 -1.2995 0
M  V30 2072 C 196.356 -0.513501 -1.95881 0
M  V30 2073 C 196.684 0.938655 -1.70351 0
M  V30 2074 O 195.939 1.67936 -1.00478 0
M  V30 2075 C 196.238 -0.742868 -3.49594 0
M  V30 2076 C 195.904 -2.17114 -3.95186 0
M  V30 2077 C 194.566 -2.56169 -4.07346 0
M  V30 2078 C 196.918 -3.10162 -4.18866 0
M  V30 2079 C 194.246 -3.87469 -4.4055 0
M  V30 2080 C 196.598 -4.41001 -4.53542 0
M  V30 2081 C 195.262 -4.79941 -4.63911 0
M  V30 2082 H 194.532 -0.187903 -0.71678 0
M  V30 2083 H 197.179 -1.1288 -1.54694 0
M  V30 2084 H 195.484 -0.044586 -3.91775 0
M  V30 2085 H 197.181 -0.429767 -3.9869 0
M  V30 2086 H 193.771 -1.85801 -3.86233 0
M  V30 2087 H 197.955 -2.81206 -4.08946 0
M  V30 2088 H 193.211 -4.17371 -4.46779 0
M  V30 2089 H 197.385 -5.13133 -4.70815 0
M  V30 2090 H 195.012 -5.81719 -4.89395 0
M  V30 2091 N 196.587 1.43421 -0.653314 0
M  V30 2092 C 197.833 2.02111 -0.166992 0
M  V30 2093 C 198.166 1.51423 1.21592 0
M  V30 2094 O 197.441 0.707389 1.8118 0
M  V30 2095 C 197.724 3.5966 -0.177948 0
M  V30 2096 C 197.577 4.20579 -1.59478 0
M  V30 2097 C 198.896 4.37413 0.4856 0
M  V30 2098 H 196.015 0.734374 -0.0621557 0
M  V30 2099 H 198.657 1.70717 -0.834016 0
M  V30 2100 H 196.807 3.86537 0.390032 0
M  V30 2101 H 198.479 4.04732 -2.21336 0
M  V30 2102 H 196.722 3.77226 -2.14204 0
M  V30 2103 H 197.393 5.29665 -1.5543 0
M  V30 2104 H 199.869 4.161 0.00234528 0
M  V30 2105 H 198.745 5.47075 0.447207 0
M  V30 2106 H 199.006 4.13672 1.55974 0
M  V30 2107 N 198.065 0.39524 1.52563 0
M  V30 2108 C 198.997 -0.472201 2.24283 0
M  V30 2109 C 200.01 -1.02178 1.26742 0
M  V30 2110 O 201.199 -0.923097 1.52778 0
M  V30 2111 C 198.299 -1.66775 2.95024 0
M  V30 2112 C 197.472 -1.2445 4.19322 0
M  V30 2113 C 196.531 -2.30539 4.7301 0
M  V30 2114 O 195.557 -1.91702 5.35947 0
M  V30 2115 N 196.759 -3.6253 4.53379 0
M  V30 2116 H 199.524 0.142282 2.99362 0
M  V30 2117 H 197.085 0.2219 1.60372 0
M  V30 2118 H 199.077 -2.37283 3.27839 0
M  V30 2119 H 197.647 -2.18845 2.23217 0
M  V30 2120 H 196.867 -0.368069 3.92478 0
M  V30 2121 H 198.155 -0.938457 5.0007 0
M  V30 2122 H 197.553 -3.96841 4.03154 0
M  V30 2123 H 196.11 -4.29055 4.90668 0
M  V30 2124 N 199.544 -1.57102 0.125237 0
M  V30 2125 C 200.474 -2.18659 -0.819174 0
M  V30 2126 C 201.455 -1.12843 -1.27281 0
M  V30 2127 O 202.64 -1.41104 -1.33429 0
M  V30 2128 C 199.77 -2.79096 -2.06695 0
M  V30 2129 C 198.724 -3.90548 -1.75088 0
M  V30 2130 C 198.05 -4.37821 -3.06948 0
M  V30 2131 C 199.35 -5.12356 -1.01435 0
M  V30 2132 H 201.044 -2.9783 -0.306202 0
M  V30 2133 H 198.59 -1.4326 -0.145839 0
M  V30 2134 H 200.543 -3.2082 -2.73226 0
M  V30 2135 H 199.267 -1.97223 -2.60328 0
M  V30 2136 H 197.926 -3.49409 -1.10944 0
M  V30 2137 H 197.574 -3.52799 -3.58527 0
M  V30 2138 H 197.274 -5.12982 -2.86571 0
M  V30 2139 H 198.798 -4.822 -3.74587 0
M  V30 2140 H 200.212 -5.5106 -1.58132 0
M  V30 2141 H 198.609 -5.9314 -0.911319 0
M  V30 2142 H 199.679 -4.849 -0.00218681 0
M  V30 2143 N 201.022 0.148545 -1.56898 0
M  V30 2144 C 201.972 1.1886 -1.94567 0
M  V30 2145 C 202.956 1.3863 -0.816735 0
M  V30 2146 O 204.148 1.40218 -1.08018 0
M  V30 2147 C 201.277 2.52262 -2.32849 0
M  V30 2148 C 200.363 2.36092 -3.52309 0
M  V30 2149 N 200.754 1.89674 -4.6889 0
M  V30 2150 C 199.052 2.66848 -3.57363 0
M  V30 2151 C 199.753 1.86511 -5.50989 0
M  V30 2152 N 198.729 2.29766 -4.92655 0
M  V30 2153 H 202.531 0.821793 -2.82177 0
M  V30 2154 H 200.045 0.356615 -1.58436 0
M  V30 2155 H 202.042 3.27447 -2.58039 0
M  V30 2156 H 200.702 2.89727 -1.46589 0
M  V30 2157 H 201.713 1.59663 -4.92674 0
M  V30 2158 H 198.39 3.08198 -2.81639 0
M  V30 2159 H 199.78 1.52128 -6.54452 0
M  V30 2160 N 202.5 1.5196 0.417844 0
M  V30 2161 C 203.747 1.65591 1.16559 0
M  V30 2162 C 204.075 0.381565 1.90721 0
M  V30 2163 O 203.33 -0.635156 1.85106 0
M  V30 2164 C 203.629 2.82269 2.19223 0
M  V30 2165 C 203.295 4.20819 1.61933 0
M  V30 2166 C 201.957 4.58506 1.46033 0
M  V30 2167 C 204.309 5.07196 1.20008 0
M  V30 2168 C 201.637 5.80257 0.867113 0
M  V30 2169 C 203.989 6.29544 0.621086 0
M  V30 2170 C 202.653 6.65987 0.449144 0
M  V30 2171 H 201.923 0.605939 0.42652 0
M  V30 2172 H 204.57 1.86041 0.45397 0
M  V30 2173 H 202.875 2.56118 2.96498 0
M  V30 2174 H 204.572 2.90012 2.76936 0
M  V30 2175 H 201.162 3.91116 1.7529 0
M  V30 2176 H 205.346 4.7867 1.31105 0
M  V30 2177 H 200.602 6.07124 0.721833 0
M  V30 2178 H 204.776 6.95805 0.287798 0
M  V30 2179 H 202.403 7.60199 -0.012632 0
M  V30 2180 N 203.978 -0.674533 1.42435 0
M  V30 2181 C 205.226 -1.43175 1.42637 0
M  V30 2182 C 205.547 -1.94951 0.0438992 0
M  V30 2183 O 204.817 -1.7308 -0.917607 0
M  V30 2184 H 203.397 -0.531307 0.525092 0
M  V30 2185 H 206.059 -0.797006 1.77859 0
M  V30 2186 H 205.155 -2.28463 2.12629 0
M  V30 2187 N 205.456 -1.28612 -0.910864 0
M  V30 2188 C 206.403 -1.12786 -2.01365 0
M  V30 2189 C 207.373 -0.024201 -1.66082 0
M  V30 2190 O 208.558 -0.189667 -1.89855 0
M  V30 2191 C 205.698 -0.798743 -3.35729 0
M  V30 2192 C 204.811 -1.98173 -3.83864 0
M  V30 2193 C 203.946 -1.59298 -5.06752 0
M  V30 2194 C 202.985 -2.74245 -5.47226 0
M  V30 2195 N 202.122 -2.35842 -6.61304 0
M  V30 2196 H 206.962 -2.07142 -2.14234 0
M  V30 2197 H 204.499 -1.03093 -1.0493 0
M  V30 2198 H 206.457 -0.588662 -4.13026 0
M  V30 2199 H 205.087 0.10789 -3.2262 0
M  V30 2200 H 204.139 -2.30386 -3.02699 0
M  V30 2201 H 205.451 -2.84343 -4.09818 0
M  V30 2202 H 204.605 -1.34513 -5.916 0
M  V30 2203 H 203.344 -0.702618 -4.82612 0
M  V30 2204 H 202.349 -2.99725 -4.60918 0
M  V30 2205 H 203.574 -3.63928 -5.73353 0
M  V30 2206 H 201.52 -1.49279 -6.38789 0
M  V30 2207 H 201.437 -3.15546 -6.86998 0
M  V30 2208 H 202.705 -2.14348 -7.4945 0
M  V30 2209 N 206.934 1.1197 -1.10907 0
M  V30 2210 C 207.844 2.21433 -0.774896 0
M  V30 2211 C 208.86 1.72478 0.229657 0
M  V30 2212 O 210.036 2.01288 0.0672008 0
M  V30 2213 C 207.101 3.4602 -0.216986 0
M  V30 2214 C 206.162 4.09791 -1.27944 0
M  V30 2215 C 205.395 5.28431 -0.748055 0
M  V30 2216 O 205.618 5.68823 0.423833 0
M  V30 2217 O 204.552 5.82644 -1.51027 0
M  V30 2218 H 208.378 2.5242 -1.68873 0
M  V30 2219 H 205.963 1.20399 -0.884555 0
M  V30 2220 H 207.845 4.21304 0.090059 0
M  V30 2221 H 206.52 3.16698 0.669633 0
M  V30 2222 H 205.427 3.36265 -1.63941 0
M  V30 2223 H 206.76 4.4328 -2.13925 0
M  V30 2224 N 208.412 0.89855 1.29475 0
M  V30 2225 C 209.828 0.594483 1.48115 0
M  V30 2226 C 210.028 -0.86431 1.82022 0
M  V30 2227 O 209.084 -1.64457 1.91599 0
M  V30 2228 C 210.397 1.51932 2.59494 0
M  V30 2229 C 211.945 1.5244 2.7337 0
M  V30 2230 C 212.42 2.43548 3.87877 0
M  V30 2231 N 213.911 2.41589 3.95208 0
M  V30 2232 C 214.646 3.08789 4.83153 0
M  V30 2233 N 214.142 3.85265 5.75798 0
M  V30 2234 N 215.935 2.97952 4.76635 0
M  V30 2235 H 208.086 1.84207 1.05742 0
M  V30 2236 H 210.349 0.789251 0.525154 0
M  V30 2237 H 210.055 2.55865 2.41301 0
M  V30 2238 H 209.929 1.23899 3.56271 0
M  V30 2239 H 212.316 0.492518 2.90961 0
M  V30 2240 H 212.397 1.8451 1.77172 0
M  V30 2241 H 212.041 3.46829 3.71041 0
M  V30 2242 H 211.971 2.08788 4.83441 0
M  V30 2243 H 214.462 1.86025 3.28943 0
M  V30 2244 H 214.775 4.33598 6.39697 0
M  V30 2245 H 213.12 3.89371 5.75687 0
M  V30 2246 H 216.311 2.37723 4.03244 0
M  V30 2247 H 216.484 3.50599 5.44962 0
M  V30 2248 N 209.89 -1.43072 0.660911 0
M  V30 2249 C 210.837 -2.30785 -0.0259884 0
M  V30 2250 C 211.807 -1.45184 -0.806888 0
M  V30 2251 O 212.992 -1.74041 -0.781943 0
M  V30 2252 C 210.132 -3.30861 -0.981067 0
M  V30 2253 C 209.245 -4.31558 -0.195458 0
M  V30 2254 C 208.38 -5.18712 -1.14503 0
M  V30 2255 C 207.419 -6.11097 -0.350299 0
M  V30 2256 N 206.556 -6.90849 -1.25186 0
M  V30 2257 H 211.396 -2.88975 0.727846 0
M  V30 2258 H 208.933 -1.42353 0.370682 0
M  V30 2259 H 210.891 -3.87399 -1.54849 0
M  V30 2260 H 209.521 -2.74304 -1.70169 0
M  V30 2261 H 208.573 -3.77252 0.488374 0
M  V30 2262 H 209.885 -4.9701 0.422176 0
M  V30 2263 H 209.039 -5.79914 -1.78284 0
M  V30 2264 H 207.778 -4.53404 -1.79656 0
M  V30 2265 H 206.783 -5.48976 0.300808 0
M  V30 2266 H 208.008 -6.7845 0.296941 0
M  V30 2267 H 205.954 -6.28182 -1.89005 0
M  V30 2268 H 205.871 -7.52854 -0.688971 0
M  V30 2269 H 207.139 -7.5655 -1.87757 0
M  V30 2270 N 211.368 -0.403325 -1.52352 0
M  V30 2271 C 212.784 -0.0539281 -1.59509 0
M  V30 2272 C 212.984 1.43307 -1.41652 0
M  V30 2273 O 212.04 2.19924 -1.24056 0
M  V30 2274 C 213.353 -0.543654 -2.95745 0
M  V30 2275 C 214.901 -0.501125 -3.08962 0
M  V30 2276 C 215.376 -0.967267 -4.47669 0
M  V30 2277 N 216.867 -0.923849 -4.53893 0
M  V30 2278 C 217.602 -1.25578 -5.5948 0
M  V30 2279 N 217.098 -1.65889 -6.72646 0
M  V30 2280 N 218.891 -1.17613 -5.49658 0
M  V30 2281 H 211.042 -1.37123 -1.62206 0
M  V30 2282 H 213.305 -0.56294 -0.76276 0
M  V30 2283 H 213.011 -1.58275 -3.14073 0
M  V30 2284 H 212.885 0.0498042 -3.77167 0
M  V30 2285 H 215.272 0.528909 -2.90321 0
M  V30 2286 H 215.353 -1.13056 -2.2946 0
M  V30 2287 H 214.997 -1.9956 -4.67053 0
M  V30 2288 H 214.927 -0.314698 -5.25659 0
M  V30 2289 H 217.418 -0.627403 -3.72655 0
M  V30 2290 H 217.731 -1.89543 -7.49195 0
M  V30 2291 H 216.076 -1.69787 -6.73942 0
M  V30 2292 H 219.267 -0.860115 -4.6013 0
M  V30 2293 H 219.44 -1.43812 -6.3184 0
M  V30 2294 N 212.846 1.57033 -0.133567 0
M  V30 2295 C 213.796 2.12641 0.822671 0
M  V30 2296 C 214.78 1.05081 1.21847 0
M  V30 2297 O 215.972 1.31287 1.18713 0
M  V30 2298 C 213.101 2.74094 2.06706 0
M  V30 2299 C 212.187 3.88757 1.69497 0
M  V30 2300 N 212.578 4.95194 1.03037 0
M  V30 2301 C 210.876 3.99213 1.98859 0
M  V30 2302 C 211.577 5.75414 0.852873 0
M  V30 2303 N 210.553 5.25726 1.3825 0
M  V30 2304 H 214.355 2.92308 0.305537 0
M  V30 2305 H 211.869 1.62256 0.0684276 0
M  V30 2306 H 213.866 3.12285 2.76195 0
M  V30 2307 H 212.526 1.95896 2.5895 0
M  V30 2308 H 213.537 5.13247 0.692669 0
M  V30 2309 H 210.214 3.32075 2.53047 0
M  V30 2310 H 211.604 6.71089 0.330091 0
M  V30 2311 N 214.325 -0.140222 1.56975 0
M  V30 2312 C 215.255 -1.17456 2.01808 0
M  V30 2313 C 216.236 -1.44415 0.898794 0
M  V30 2314 O 217.421 -1.5522 1.16707 0
M  V30 2315 C 214.551 -2.50607 2.40444 0
M  V30 2316 C 213.505 -2.38155 3.55621 0
M  V30 2317 C 212.831 -3.76078 3.80091 0
M  V30 2318 C 214.131 -1.85991 4.88062 0
M  V30 2319 H 215.825 -0.801743 2.88466 0
M  V30 2320 H 213.371 -0.38422 1.38779 0
M  V30 2321 H 215.324 -3.23197 2.7041 0
M  V30 2322 H 214.048 -2.89737 1.50732 0
M  V30 2323 H 212.707 -1.68016 3.25832 0
M  V30 2324 H 212.355 -4.12656 2.87618 0
M  V30 2325 H 212.055 -3.68606 4.57606 0
M  V30 2326 H 213.579 -4.50206 4.12488 0
M  V30 2327 H 214.993 -2.4838 5.16701 0
M  V30 2328 H 213.39 -1.89393 5.6943 0
M  V30 2329 H 214.46 -0.816023 4.77984 0
M  V30 2330 N 215.803 -1.52179 -0.40978 0
M  V30 2331 C 217.031 -1.70054 -1.17853 0
M  V30 2332 C 217.446 -0.409735 -1.843 0
M  V30 2333 O 216.803 0.614183 -1.71855 0
M  V30 2334 C 216.854 -2.83568 -2.24213 0
M  V30 2335 O 216.575 -4.0765 -1.60478 0
M  V30 2336 C 218.076 -3.12947 -3.13973 0
M  V30 2337 H 215.296 -0.569917 -0.354169 0
M  V30 2338 H 217.84 -1.98734 -0.482198 0
M  V30 2339 H 215.995 -2.57409 -2.89516 0
M  V30 2340 H 216.409 -4.70899 -2.30986 0
M  V30 2341 H 217.883 -3.95889 -3.84677 0
M  V30 2342 H 218.36 -2.26472 -3.76307 0
M  V30 2343 H 218.966 -3.40868 -2.5434 0
M  V30 2344 N 217.281 0.66697 -1.42791 0
M  V30 2345 C 218.511 1.45294 -1.46878 0
M  V30 2346 C 218.919 1.89027 -0.0809861 0
M  V30 2347 O 218.262 1.59219 0.916246 0
M  V30 2348 C 218.324 2.72908 -2.34012 0
M  V30 2349 C 217.988 2.51203 -3.81767 0
M  V30 2350 C 218.985 2.15302 -4.73224 0
M  V30 2351 C 216.67 2.65954 -4.26115 0
M  V30 2352 C 218.664 1.94431 -6.07022 0
M  V30 2353 C 216.351 2.44699 -5.59969 0
M  V30 2354 C 217.349 2.08992 -6.5024 0
M  V30 2355 O 217.037 1.87948 -7.81621 0
M  V30 2356 H 216.769 0.453306 -0.501487 0
M  V30 2357 H 219.323 0.826232 -1.88049 0
M  V30 2358 H 217.553 3.38089 -1.87703 0
M  V30 2359 H 219.242 3.34816 -2.29462 0
M  V30 2360 H 220.008 2.03495 -4.40244 0
M  V30 2361 H 215.887 2.92724 -3.56137 0
M  V30 2362 H 219.431 1.66484 -6.77443 0
M  V30 2363 H 215.328 2.56105 -5.9252 0
M  V30 2364 H 216.096 2.02483 -7.93059 0
M  V30 2365 N 218.759 1.29093 0.90403 0
M  V30 2366 C 219.722 1.1386 1.98919 0
M  V30 2367 C 220.722 0.0753457 1.60623 0
M  V30 2368 O 221.912 0.321931 1.71199 0
M  V30 2369 C 219.044 0.740198 3.32767 0
M  V30 2370 H 220.237 2.10246 2.13861 0
M  V30 2371 H 217.79 1.12218 1.08797 0
M  V30 2372 H 218.525 -0.223997 3.23525 0
M  V30 2373 H 218.31 1.50838 3.61926 0
M  V30 2374 H 219.8 0.656546 4.12407 0
M  V30 2375 N 220.237 -1.11381 1.11499 0
M  V30 2376 C 221.147 -2.21019 0.786628 0
M  V30 2377 C 222.163 -1.72597 -0.220507 0
M  V30 2378 O 223.339 -2.01321 -0.0565251 0
M  V30 2379 C 220.404 -3.459 0.235333 0
M  V30 2380 C 219.465 -4.09107 1.30115 0
M  V30 2381 C 218.698 -5.28027 0.776068 0
M  V30 2382 O 218.921 -5.6904 -0.393661 0
M  V30 2383 O 217.855 -5.81835 1.54114 0
M  V30 2384 H 221.681 -2.51521 1.70209 0
M  V30 2385 H 219.266 -1.19928 0.890928 0
M  V30 2386 H 221.148 -4.21346 -0.067715 0
M  V30 2387 H 219.823 -3.17049 -0.652828 0
M  V30 2388 H 218.73 -3.35391 1.65722 0
M  V30 2389 H 220.063 -4.42139 2.16273 0
M  V30 2390 N 221.715 -0.905404 -1.28997 0
M  V30 2391 C 222.962 -0.534248 -1.95325 0
M  V30 2392 C 223.29 0.920535 -1.71337 0
M  V30 2393 O 222.545 1.66861 -1.02254 0
M  V30 2394 C 222.844 -0.779906 -3.48787 0
M  V30 2395 C 222.51 -2.21293 -3.92861 0
M  V30 2396 C 221.172 -2.60475 -4.04606 0
M  V30 2397 C 223.524 -3.14587 -4.15553 0
M  V30 2398 C 220.852 -3.9212 -4.36416 0
M  V30 2399 C 223.204 -4.45787 -4.48839 0
M  V30 2400 C 221.868 -4.84834 -4.58794 0
M  V30 2401 H 221.138 -0.195495 -0.714747 0
M  V30 2402 H 223.785 -1.14514 -1.53488 0
M  V30 2403 H 222.09 -0.0861365 -3.91705 0
M  V30 2404 H 223.787 -0.472029 -3.98212 0
M  V30 2405 H 220.377 -1.89887 -3.84241 0
M  V30 2406 H 224.561 -2.85528 -4.0594 0
M  V30 2407 H 219.817 -4.22086 -4.42327 0
M  V30 2408 H 223.991 -5.18098 -4.65346 0
M  V30 2409 H 221.618 -5.86877 -4.83197 0
M  V30 2410 N 223.193 1.4272 -0.668489 0
M  V30 2411 C 224.421 2.05966 -0.196348 0
M  V30 2412 C 224.836 1.50191 1.14403 0
M  V30 2413 O 224.193 0.639208 1.7094 0
M  V30 2414 C 224.244 3.61314 -0.115815 0
M  V30 2415 O 223.965 4.1502 -1.40322 0
M  V30 2416 C 225.466 4.41663 0.380579 0
M  V30 2417 H 222.686 0.663954 -0.0969829 0
M  V30 2418 H 225.23 1.82966 -0.913446 0
M  V30 2419 H 223.385 3.83448 0.551931 0
M  V30 2420 H 223.799 5.08832 -1.27243 0
M  V30 2421 H 225.273 5.5065 0.385848 0
M  V30 2422 H 225.75 4.15792 1.41471 0
M  V30 2423 H 226.356 4.24534 -0.255209 0
M  V30 2424 N 224.671 0.411399 1.52136 0
M  V30 2425 C 225.603 -0.448386 2.24771 0
M  V30 2426 C 226.616 -1.00828 1.27818 0
M  V30 2427 O 227.805 -0.906841 1.53749 0
M  V30 2428 C 224.905 -1.63636 2.96777 0
M  V30 2429 C 224.078 -1.19995 4.20618 0
M  V30 2430 C 223.137 -2.25509 4.75428 0
M  V30 2431 O 222.163 -1.86007 5.3795 0
M  V30 2432 N 223.365 -3.577 4.57199 0
M  V30 2433 H 226.13 0.174025 2.99194 0
M  V30 2434 H 223.691 0.238897 1.60128 0
M  V30 2435 H 225.683 -2.33793 3.30338 0
M  V30 2436 H 224.253 -2.16465 2.25526 0
M  V30 2437 H 223.473 -0.326421 3.92846 0
M  V30 2438 H 224.761 -0.885365 5.01038 0
M  V30 2439 H 224.159 -3.92543 4.07341 0
M  V30 2440 H 222.716 -4.23827 4.95191 0
M  V30 2441 N 226.149 -1.5696 0.141893 0
M  V30 2442 C 227.396 -1.9596 -0.510492 0
M  V30 2443 C 227.724 -1.02648 -1.65208 0
M  V30 2444 O 226.979 -0.0546947 -1.95624 0
M  V30 2445 C 227.278 -3.41242 -1.06249 0
M  V30 2446 C 226.944 -4.50882 -0.0398791 0
M  V30 2447 C 225.606 -4.80595 0.241247 0
M  V30 2448 C 227.958 -5.17058 0.65578 0
M  V30 2449 C 225.286 -5.73792 1.22393 0
M  V30 2450 C 227.638 -6.11313 1.62724 0
M  V30 2451 C 226.302 -6.39407 1.91612 0
M  V30 2452 H 225.572 -0.717068 -0.186802 0
M  V30 2453 H 228.219 -1.90142 0.227643 0
M  V30 2454 H 226.524 -3.43866 -1.87785 0
M  V30 2455 H 228.221 -3.68742 -1.57576 0
M  V30 2456 H 224.811 -4.27754 -0.269174 0
M  V30 2457 H 228.995 -4.94239 0.451779 0
M  V30 2458 H 224.251 -5.93853 1.45424 0
M  V30 2459 H 228.425 -6.61668 2.17183 0
M  V30 2460 H 226.052 -7.11427 2.6791 0
M  V30 2461 N 227.627 0.131896 -1.57047 0
M  V30 2462 C 228.557 1.16384 -2.02428 0
M  V30 2463 C 229.538 1.43936 -0.90644 0
M  V30 2464 O 230.723 1.54599 -1.17528 0
M  V30 2465 C 227.853 2.49328 -2.4177 0
M  V30 2466 C 226.807 2.36266 -3.56879 0
M  V30 2467 C 226.133 3.74057 -3.8208 0
M  V30 2468 C 227.433 1.834 -4.89042 0
M  V30 2469 H 229.127 0.786433 -2.88887 0
M  V30 2470 H 226.673 0.376855 -1.38981 0
M  V30 2471 H 228.626 3.21759 -2.7212 0
M  V30 2472 H 227.35 2.88934 -1.52266 0
M  V30 2473 H 226.009 1.66286 -3.26718 0
M  V30 2474 H 225.657 4.11125 -2.89803 0
M  V30 2475 H 225.357 3.66174 -4.59554 0
M  V30 2476 H 226.881 4.48012 -4.1487 0
M  V30 2477 H 228.295 2.45636 -5.18011 0
M  V30 2478 H 226.692 1.8637 -5.70426 0
M  V30 2479 H 227.762 0.790662 -4.7841 0
M  V30 2480 N 229.106 1.52395 0.401703 0
M  V30 2481 C 230.036 1.79231 1.49661 0
M  V30 2482 C 231.017 0.643654 1.57452 0
M  V30 2483 O 232.202 0.889989 1.72606 0
M  V30 2484 C 229.332 1.94971 2.87409 0
M  V30 2485 C 228.286 3.10604 2.94465 0
M  V30 2486 C 227.612 3.11577 4.34538 0
M  V30 2487 C 228.912 4.49921 2.6527 0
M  V30 2488 H 230.606 2.70917 1.27454 0
M  V30 2489 H 228.152 1.30362 0.6117 0
M  V30 2490 H 230.105 2.12328 3.63999 0
M  V30 2491 H 228.829 0.999632 3.10926 0
M  V30 2492 H 227.488 2.93009 2.20321 0
M  V30 2493 H 227.136 2.14277 4.55076 0
M  V30 2494 H 226.836 3.89247 4.40183 0
M  V30 2495 H 228.36 3.31073 5.13053 0
M  V30 2496 H 229.774 4.67683 3.31581 0
M  V30 2497 H 228.171 5.29564 2.82281 0
M  V30 2498 H 229.241 4.57507 1.60671 0
M  V30 2499 N 230.584 -0.659388 1.43143 0
M  V30 2500 C 231.494 -1.80167 1.50256 0
M  V30 2501 C 232.51 -1.69571 0.390106 0
M  V30 2502 O 233.686 -1.90849 0.643319 0
M  V30 2503 C 230.751 -3.16409 1.41725 0
M  V30 2504 C 229.812 -3.38848 2.63591 0
M  V30 2505 C 229.045 -4.68591 2.55458 0
M  V30 2506 O 229.268 -5.47532 1.59891 0
M  V30 2507 O 228.202 -4.92614 3.45854 0
M  V30 2508 H 232.028 -1.77121 2.46702 0
M  V30 2509 H 229.613 -0.817092 1.25076 0
M  V30 2510 H 231.495 -3.9768 1.39387 0
M  V30 2511 H 230.17 -3.20059 0.484118 0
M  V30 2512 H 229.077 -2.57366 2.71502 0
M  V30 2513 H 230.41 -3.4004 3.55856 0
M  V30 2514 N 232.062 -1.29571 -0.897171 0
M  V30 2515 C 233.311 -1.1706 -1.64256 0
M  V30 2516 C 233.624 0.276476 -1.93636 0
M  V30 2517 O 234.83 0.52294 -2.66416 0
M  V30 2518 C 233.286 -2.0475 -2.95982 0
M  V30 2519 C 232.894 -3.54295 -2.74187 0
M  V30 2520 C 234.638 -2.0097 -3.73914 0
M  V30 2521 C 232.545 -4.34081 -4.01656 0
M  V30 2522 H 231.475 -0.43452 -0.616205 0
M  V30 2523 H 234.126 -1.54229 -0.994268 0
M  V30 2524 H 232.508 -1.60452 -3.62038 0
M  V30 2525 H 233.682 -4.06662 -2.1671 0
M  V30 2526 H 231.997 -3.59773 -2.09648 0
M  V30 2527 H 234.594 -2.57838 -4.68427 0
M  V30 2528 H 234.937 -0.990273 -4.0435 0
M  V30 2529 H 235.47 -2.43325 -3.14703 0
M  V30 2530 H 232.209 -5.36671 -3.76384 0
M  V30 2531 H 231.729 -3.86483 -4.58684 0
M  V30 2532 H 233.408 -4.44877 -4.69781 0
M  V30 2533 N 233.54 1.10788 -1.12088 0
M  V30 2534 C 234.472 2.16816 -0.743213 0
M  V30 2535 C 235.485 1.6119 0.228412 0
M  V30 2536 O 236.674 1.78497 0.0102931 0
M  V30 2537 C 233.774 3.38809 -0.0787313 0
M  V30 2538 C 232.947 4.23885 -1.0789 0
M  V30 2539 C 232.006 5.24334 -0.442713 0
M  V30 2540 O 231.032 5.58497 -1.09864 0
M  V30 2541 N 232.234 5.75079 0.791457 0
M  V30 2542 H 234.999 2.49825 -1.65552 0
M  V30 2543 H 232.56 1.26373 -1.012 0
M  V30 2544 H 234.552 4.03107 0.358766 0
M  V30 2545 H 233.122 3.03805 0.736275 0
M  V30 2546 H 232.342 3.55939 -1.69414 0
M  V30 2547 H 233.63 4.77562 -1.75533 0
M  V30 2548 H 233.028 5.49517 1.3434 0
M  V30 2549 H 231.585 6.4118 1.17183 0
M  V30 2550 N 235.018 0.912232 1.28515 0
M  V30 2551 C 235.948 0.416403 2.29757 0
M  V30 2552 C 236.929 -0.515194 1.6211 0
M  V30 2553 O 238.114 -0.423253 1.89532 0
M  V30 2554 C 235.244 -0.34572 3.45575 0
M  V30 2555 C 234.198 0.496599 4.25109 0
M  V30 2556 C 233.524 -0.393771 5.33248 0
M  V30 2557 C 234.824 1.75307 4.92001 0
M  V30 2558 H 236.518 1.26249 2.7148 0
M  V30 2559 H 234.064 0.608515 1.30511 0
M  V30 2560 H 236.017 -0.703422 4.15488 0
M  V30 2561 H 234.741 -1.2257 3.02728 0
M  V30 2562 H 233.4 0.8368 3.56922 0
M  V30 2563 H 233.048 -1.27225 4.86644 0
M  V30 2564 H 232.748 0.166209 5.87365 0
M  V30 2565 H 234.272 -0.747389 6.06009 0
M  V30 2566 H 235.686 1.46437 5.54283 0
M  V30 2567 H 234.083 2.25534 5.56106 0
M  V30 2568 H 235.153 2.48176 4.16577 0
M  V30 2569 N 236.496 -1.42363 0.676048 0
M  V30 2570 C 237.406 -2.346 -0.00153389 0
M  V30 2571 C 238.422 -1.5516 -0.787485 0
M  V30 2572 O 239.598 -1.87723 -0.729521 0
M  V30 2573 C 236.663 -3.33705 -0.940298 0
M  V30 2574 C 235.724 -4.29042 -0.148739 0
M  V30 2575 C 234.957 -5.23413 -1.04279 0
M  V30 2576 O 235.18 -5.22749 -2.28232 0
M  V30 2577 O 234.114 -5.99795 -0.502925 0
M  V30 2578 H 237.94 -2.94082 0.758268 0
M  V30 2579 H 235.525 -1.42888 0.436289 0
M  V30 2580 H 237.407 -3.94586 -1.47917 0
M  V30 2581 H 236.082 -2.76695 -1.67993 0
M  V30 2582 H 234.989 -3.71571 0.43427 0
M  V30 2583 H 236.322 -4.89097 0.551805 0
M  V30 2584 N 237.974 -0.419461 -1.51915 0
M  V30 2585 C 238.924 0.418496 -2.24126 0
M  V30 2586 C 239.908 1.00495 -1.25656 0
M  V30 2587 O 241.1 0.926058 -1.50842 0
M  V30 2588 C 238.229 1.52899 -3.07371 0
M  V30 2589 C 237.315 0.952797 -4.13258 0
M  V30 2590 N 237.706 0.104175 -5.05693 0
M  V30 2591 C 236.004 1.22224 -4.28926 0
M  V30 2592 C 236.705 -0.21752 -5.81293 0
M  V30 2593 N 235.681 0.394293 -5.42168 0
M  V30 2594 H 239.483 -0.236048 -2.92951 0
M  V30 2595 H 236.997 -0.230481 -1.60756 0
M  V30 2596 H 238.994 2.14199 -3.57665 0
M  V30 2597 H 237.654 2.18605 -2.40088 0
M  V30 2598 H 238.665 -0.260924 -5.17242 0
M  V30 2599 H 235.342 1.87812 -3.72871 0
M  V30 2600 H 236.732 -0.906992 -6.6575 0
M  V30 2601 N 239.452 1.56882 -0.150215 0
M  V30 2602 C 240.415 2.1573 0.774157 0
M  V30 2603 C 241.415 1.0999 1.17298 0
M  V30 2604 O 242.605 1.35613 1.09338 0
M  V30 2605 C 239.737 2.72302 2.05096 0
M  V30 2606 H 240.93 2.98752 0.262201 0
M  V30 2607 H 238.483 1.55985 0.099248 0
M  V30 2608 H 239.218 1.92956 2.6065 0
M  V30 2609 H 239.003 3.49665 1.77416 0
M  V30 2610 H 240.493 3.17632 2.71109 0
M  V30 2611 N 240.93 -0.123565 1.57115 0
M  V30 2612 C 241.877 -1.15177 2.00007 0
M  V30 2613 C 242.847 -1.41403 0.871454 0
M  V30 2614 O 244.032 -1.53346 1.13533 0
M  V30 2615 C 241.172 -2.47436 2.40561 0
M  V30 2616 C 240.285 -2.28184 3.66819 0
M  V30 2617 C 239.42 -3.53641 3.96373 0
M  V30 2618 C 238.459 -3.29528 5.15827 0
M  V30 2619 N 237.596 -4.47175 5.41275 0
M  V30 2620 H 242.436 -0.779008 2.87638 0
M  V30 2621 H 239.973 -0.373166 1.42288 0
M  V30 2622 H 241.931 -3.24584 2.62109 0
M  V30 2623 H 240.561 -2.82614 1.55978 0
M  V30 2624 H 239.613 -1.41976 3.52912 0
M  V30 2625 H 240.925 -2.0634 4.5412 0
M  V30 2626 H 240.079 -4.39209 4.18545 0
M  V30 2627 H 238.818 -3.78512 3.07538 0
M  V30 2628 H 237.823 -2.42349 4.93505 0
M  V30 2629 H 239.048 -3.06031 6.06236 0
M  V30 2630 H 236.994 -4.72175 4.55397 0
M  V30 2631 H 236.911 -4.28419 6.22891 0
M  V30 2632 H 238.179 -5.3389 5.67963 0
M  V30 2633 N 242.408 -1.52605 -0.393616 0
M  V30 2634 C 243.34 -1.73303 -1.49995 0
M  V30 2635 C 244.353 -0.613473 -1.50799 0
M  V30 2636 O 245.542 -0.889049 -1.54784 0
M  V30 2637 C 242.642 -1.77245 -2.88855 0
M  V30 2638 C 241.815 -3.06483 -3.12069 0
M  V30 2639 C 240.874 -3.02033 -4.30886 0
M  V30 2640 O 239.9 -3.75907 -4.27414 0
M  V30 2641 N 241.102 -2.20897 -5.36828 0
M  V30 2642 H 243.867 -2.68756 -1.32629 0
M  V30 2643 H 241.428 -1.51036 -0.583083 0
M  V30 2644 H 243.42 -1.7178 -3.66434 0
M  V30 2645 H 241.99 -0.891993 -2.99603 0
M  V30 2646 H 241.21 -3.25474 -2.22396 0
M  V30 2647 H 242.498 -3.91947 -3.2443 0
M  V30 2648 H 241.896 -1.60336 -5.42502 0
M  V30 2649 H 240.453 -2.21275 -6.13091 0
M  V30 2650 N 243.887 0.651787 -1.4349 0
M  V30 2651 C 244.85 1.74647 -1.48429 0
M  V30 2652 C 245.85 1.56513 -0.368817 0
M  V30 2653 O 247.04 1.62385 -0.630623 0
M  V30 2654 C 244.172 3.13533 -1.33827 0
M  V30 2655 H 245.365 1.71649 -2.4592 0
M  V30 2656 H 242.918 0.863573 -1.30277 0
M  V30 2657 H 243.653 3.22142 -0.37349 0
M  V30 2658 H 243.438 3.28101 -2.14691 0
M  V30 2659 H 244.928 3.93356 -1.40218 0
M  V30 2660 N 245.365 1.30045 0.890287 0
M  V30 2661 C 246.612 1.18561 1.64163 0
M  V30 2662 C 246.94 -0.260852 1.92743 0
M  V30 2663 O 246.195 -1.20376 1.54299 0
M  V30 2664 C 246.494 1.95409 2.99249 0
M  V30 2665 C 246.16 3.45066 2.90242 0
M  V30 2666 C 244.822 3.85878 2.87492 0
M  V30 2667 C 247.174 4.4039 2.78758 0
M  V30 2668 C 244.502 5.20314 2.7109 0
M  V30 2669 C 246.854 5.74928 2.63894 0
M  V30 2670 C 245.518 6.14986 2.59516 0
M  V30 2671 H 244.788 0.433846 0.600715 0
M  V30 2672 H 247.435 1.61088 1.03552 0
M  V30 2673 H 245.74 1.45501 3.63781 0
M  V30 2674 H 247.437 1.8392 3.56334 0
M  V30 2675 H 244.027 3.12631 2.93189 0
M  V30 2676 H 248.211 4.09806 2.79952 0
M  V30 2677 H 243.467 5.50449 2.66112 0
M  V30 2678 H 247.641 6.48434 2.53981 0
M  V30 2679 H 245.268 7.19104 2.46565 0
M  V30 2680 N 246.843 -1.10192 1.12674 0
M  V30 2681 C 248.089 -1.82475 0.884915 0
M  V30 2682 C 248.422 -1.85093 -0.58773 0
M  V30 2683 O 247.697 -1.3134 -1.43457 0
M  V30 2684 C 247.98 -3.29018 1.46353 0
M  V30 2685 C 247.833 -3.34718 3.00473 0
M  V30 2686 C 249.152 -4.25473 1.12519 0
M  V30 2687 H 246.271 -0.662492 0.322915 0
M  V30 2688 H 248.913 -1.2913 1.39375 0
M  V30 2689 H 247.063 -3.74576 1.03077 0
M  V30 2690 H 248.735 -2.97622 3.52447 0
M  V30 2691 H 246.978 -2.74541 3.35872 0
M  V30 2692 H 247.649 -4.37918 3.36053 0
M  V30 2693 H 250.125 -3.88161 1.499 0
M  V30 2694 H 249.001 -5.26365 1.55663 0
M  V30 2695 H 249.262 -4.42084 0.0377407 0
M  V30 2696 N 248.321 -0.919034 -1.28029 0
M  V30 2697 C 249.253 -0.368762 -2.26214 0
M  V30 2698 C 250.266 0.495716 -1.55069 0
M  V30 2699 O 251.455 0.30974 -1.75792 0
M  V30 2700 C 248.555 0.491049 -3.35324 0
M  V30 2701 C 247.728 -0.352133 -4.3598 0
M  V30 2702 C 246.787 0.443622 -5.24327 0
M  V30 2703 O 245.813 -0.14566 -5.69014 0
M  V30 2704 N 247.015 1.74545 -5.53637 0
M  V30 2705 H 249.78 -1.21273 -2.74068 0
M  V30 2706 H 247.341 -0.785541 -1.41566 0
M  V30 2707 H 249.333 1.03026 -3.91366 0
M  V30 2708 H 247.903 1.23574 -2.87138 0
M  V30 2709 H 247.123 -1.07269 -3.79324 0
M  V30 2710 H 248.411 -0.928883 -5.00249 0
M  V30 2711 H 247.809 2.24666 -5.19174 0
M  V30 2712 H 246.366 2.23138 -6.12416 0
M  V30 2713 N 249.799 1.42003 -0.683588 0
M  V30 2714 C 251.215 1.55625 -0.353976 0
M  V30 2715 C 251.415 1.66151 1.14 0
M  V30 2716 O 250.471 1.63329 1.92561 0
M  V30 2717 C 251.784 2.80171 -1.092 0
M  V30 2718 C 253.332 2.93954 -1.07518 0
M  V30 2719 C 253.807 4.21372 -1.79471 0
M  V30 2720 N 255.298 4.28303 -1.76381 0
M  V30 2721 C 256.033 5.25729 -2.28904 0
M  V30 2722 N 255.529 6.29254 -2.89846 0
M  V30 2723 N 257.322 5.17586 -2.19228 0
M  V30 2724 H 249.473 1.33415 -1.6527 0
M  V30 2725 H 251.736 0.64282 -0.696769 0
M  V30 2726 H 251.442 2.78561 -2.14701 0
M  V30 2727 H 251.316 3.7133 -0.662862 0
M  V30 2728 H 253.703 2.95086 -0.028475 0
M  V30 2729 H 253.784 2.04002 -1.54328 0
M  V30 2730 H 253.428 4.21001 -2.84114 0
M  V30 2731 H 253.358 5.10275 -1.30104 0
M  V30 2732 H 255.849 3.54119 -1.31939 0
M  V30 2733 H 256.162 6.99964 -3.27522 0
M  V30 2734 H 254.507 6.29791 -2.93919 0
M  V30 2735 H 257.698 4.35631 -1.71299 0
M  V30 2736 H 257.871 5.93348 -2.60466 0
M  V30 2737 N 251.277 0.427512 1.51691 0
M  V30 2738 C 252.554 -0.201684 1.94557 0
M  V30 2739 C 252.934 -1.60981 1.36559 0
M  V30 2740 O 252.282 -2.21814 0.548702 0
M  V30 2741 C 252.492 -0.189394 3.48486 0
M  V30 2742 C 253.84 -0.39978 4.22714 0
M  V30 2743 O 254.864 -0.267945 3.55191 0
M  V30 2744 O 253.723 -0.661249 5.42485 0
M  V30 2745 H 250.817 -0.135261 0.815864 0
M  V30 2746 H 253.363 0.484782 1.62628 0
M  V30 2747 H 252.135 0.795431 3.8313 0
M  V30 2748 H 251.758 -0.919187 3.86829 0
M  V30 2749 N 252.755 -1.56801 0.158532 0
M  V30 2750 C 253.703 -2.18638 -0.793729 0
M  V30 2751 C 254.697 -1.14669 -1.24689 0
M  V30 2752 O 255.903 -1.32895 -1.21403 0
M  V30 2753 H 252.278 -0.700226 -0.274204 0
M  V30 2754 H 254.249 -2.97367 -0.248095 0
M  V30 2755 C 252.998 -2.83139 -2.0181 0
M  V30 2756 H 252.321 -3.62863 -1.67841 0
M  V30 2757 H 253.761 -3.29894 -2.66357 0
M  V30 2758 C 252.22 -1.82244 -2.83353 0
M  V30 2759 O 252.75 -1.3 -3.80083 0
M  V30 2760 N 250.956 -1.51288 -2.48114 0
M  V30 2761 H 250.503 -1.93964 -1.69516 0
M  V30 2762 H 250.461 -0.840296 -3.02963 0
M  V30 2763 N 254.233 0.115231 -1.57178 0
M  V30 2764 C 255.196 1.12526 -1.99676 0
M  V30 2765 C 256.196 1.34095 -0.88742 0
M  V30 2766 O 257.386 1.30548 -1.15337 0
M  V30 2767 C 254.518 2.4789 -2.34015 0
M  V30 2768 H 255.711 0.759912 -2.90113 0
M  V30 2769 H 253.264 0.359648 -1.52106 0
M  V30 2770 H 253.999 2.89339 -1.4647 0
M  V30 2771 H 253.784 2.33588 -3.14927 0
M  V30 2772 H 255.274 3.20575 -2.67622 0
M  V30 2773 N 255.711 1.52812 0.385517 0
M  V30 2774 C 257.127 1.4214 0.725829 0
M  V30 2775 C 257.327 0.544589 1.94001 0
M  V30 2776 O 256.383 0.0193693 2.52493 0
M  V30 2777 C 257.696 2.85042 0.957668 0
M  V30 2778 C 259.244 2.94543 1.05892 0
M  V30 2779 C 259.719 4.38464 1.32337 0
M  V30 2780 N 261.21 4.41804 1.39151 0
M  V30 2781 C 261.945 5.5025 1.61285 0
M  V30 2782 N 261.441 6.68775 1.80866 0
M  V30 2783 N 263.234 5.37798 1.63492 0
M  V30 2784 H 255.385 2.08338 -0.413383 0
M  V30 2785 H 257.648 0.940016 -0.122775 0
M  V30 2786 H 257.354 3.51431 0.137568 0
M  V30 2787 H 257.228 3.27505 1.87137 0
M  V30 2788 H 259.615 2.28321 1.86959 0
M  V30 2789 H 259.696 2.55504 0.123057 0
M  V30 2790 H 259.34 5.05254 0.517793 0
M  V30 2791 H 259.27 4.75059 2.27214 0
M  V30 2792 H 261.761 3.56377 1.25713 0
M  V30 2793 H 262.074 7.47197 1.97271 0
M  V30 2794 H 260.419 6.71797 1.78083 0
M  V30 2795 H 263.61 4.44171 1.47749 0
M  V30 2796 H 263.783 6.22382 1.80402 0
M  V30 2797 N 257.189 -0.644168 1.43834 0
M  V30 2798 C 258.417 -1.43147 1.49387 0
M  V30 2799 C 258.832 -1.88452 0.114583 0
M  V30 2800 O 258.189 -1.60047 -0.876989 0
M  V30 2801 C 258.24 -2.66046 2.44748 0
M  V30 2802 O 257.961 -2.22633 3.77314 0
M  V30 2803 C 259.462 -3.59311 2.59635 0
M  V30 2804 H 256.682 -0.439447 0.507077 0
M  V30 2805 H 259.226 -0.78895 1.88669 0
M  V30 2806 H 257.381 -3.26418 2.08638 0
M  V30 2807 H 257.795 -3.02216 4.28679 0
M  V30 2808 H 259.269 -4.42187 3.30416 0
M  V30 2809 H 259.746 -4.07259 1.64427 0
M  V30 2810 H 260.352 -3.04816 2.96593 0
M  V30 2811 N 258.668 -1.30515 -0.883378 0
M  V30 2812 C 259.916 -1.19194 -1.63209 0
M  V30 2813 C 260.237 0.253205 -1.93349 0
M  V30 2814 O 259.507 1.17025 -1.57105 0
M  V30 2815 H 258.087 -0.438148 -0.605009 0
M  V30 2816 H 260.749 -1.63663 -1.05832 0
M  V30 2817 H 259.845 -1.75396 -2.58153 0
M  V30 2818 N 260.146 1.09593 -1.13257 0
M  V30 2819 C 261.562 1.33775 -0.870423 0
M  V30 2820 C 261.762 1.95327 0.494926 0
M  V30 2821 O 260.818 2.19853 1.2418 0
M  V30 2822 C 262.131 2.25106 -1.99369 0
M  V30 2823 C 263.679 2.3862 -2.02558 0
M  V30 2824 C 264.154 3.33285 -3.14142 0
M  V30 2825 N 265.645 3.40857 -3.13641 0
M  V30 2826 C 266.38 4.14101 -3.96621 0
M  V30 2827 N 265.876 4.90157 -4.8961 0
M  V30 2828 N 267.669 4.09808 -3.84726 0
M  V30 2829 H 259.82 0.680136 -2.01216 0
M  V30 2830 H 262.083 0.362133 -0.876107 0
M  V30 2831 H 261.789 1.87103 -2.97801 0
M  V30 2832 H 261.663 3.25481 -1.90635 0
M  V30 2833 H 264.05 2.75887 -1.0474 0
M  V30 2834 H 264.131 1.38028 -2.15364 0
M  V30 2835 H 263.775 2.96741 -4.12198 0
M  V30 2836 H 263.705 4.33776 -2.98574 0
M  V30 2837 H 266.196 2.86624 -2.46282 0
M  V30 2838 H 266.509 5.4347 -5.49418 0
M  V30 2839 H 264.854 4.89251 -4.93617 0
M  V30 2840 H 268.045 3.4949 -3.11408 0
M  V30 2841 H 268.218 4.66629 -4.49623 0
M  V30 2842 N 261.624 0.925811 1.2754 0
M  V30 2843 C 262.87 0.566092 1.94739 0
M  V30 2844 C 263.203 -0.890057 1.72603 0
M  V30 2845 O 262.478 -1.63467 1.05399 0
M  V30 2846 C 262.761 0.89054 3.48915 0
M  V30 2847 C 262.614 2.4003 3.80402 0
M  V30 2848 C 263.933 0.395101 4.38323 0
M  V30 2849 H 261.052 0.20714 0.707292 0
M  V30 2850 H 263.694 1.15725 1.50691 0
M  V30 2851 H 261.844 0.387452 3.86563 0
M  V30 2852 H 263.516 2.97494 3.52555 0
M  V30 2853 H 261.759 2.85028 3.2702 0
M  V30 2854 H 262.43 2.57785 4.8811 0
M  V30 2855 H 264.906 0.826241 4.07814 0
M  V30 2856 H 263.782 0.651086 5.45025 0
M  V30 2857 H 264.043 -0.704798 4.36446 0
M  V30 2858 N 263.102 -1.41638 0.69111 0
M  V30 2859 C 264.33 -2.05628 0.22909 0
M  V30 2860 C 264.745 -1.51992 -1.11999 0
M  V30 2861 O 264.102 -0.666322 -1.69901 0
M  V30 2862 C 264.153 -3.61084 0.173283 0
M  V30 2863 O 263.874 -4.12735 1.46907 0
M  V30 2864 C 265.375 -4.42213 -0.310266 0
M  V30 2865 H 262.595 -0.662327 0.107534 0
M  V30 2866 H 265.139 -1.81489 0.942438 0
M  V30 2867 H 263.294 -3.84278 -0.490858 0
M  V30 2868 H 263.708 -5.06743 1.35322 0
M  V30 2869 H 265.182 -5.51194 -0.298196 0
M  V30 2870 H 265.659 -4.1799 -1.34838 0
M  V30 2871 H 266.265 -4.24074 0.322716 0
M  V30 2872 N 264.58 -0.43555 -1.51462 0
M  V30 2873 C 265.543 0.365137 -2.26273 0
M  V30 2874 C 266.543 0.951227 -1.29647 0
M  V30 2875 O 267.733 0.825958 -1.53374 0
M  V30 2876 C 264.865 1.51645 -3.05314 0
M  V30 2877 H 266.058 -0.290474 -2.9849 0
M  V30 2878 H 263.611 -0.188676 -1.55157 0
M  V30 2879 H 264.346 2.20816 -2.3751 0
M  V30 2880 H 264.131 1.10238 -3.76284 0
M  V30 2881 H 265.621 2.08218 -3.61987 0
M  V30 2882 N 266.058 1.56714 -0.166846 0
M  V30 2883 C 267.307 1.95922 0.479318 0
M  V30 2884 C 267.62 1.05529 1.6469 0
M  V30 2885 O 268.826 1.34399 2.35901 0
M  V30 2886 C 267.282 3.48359 0.90412 0
M  V30 2887 C 266.89 4.47369 -0.237621 0
M  V30 2888 C 268.634 3.96394 1.51896 0
M  V30 2889 C 266.541 5.91039 0.206561 0
M  V30 2890 H 265.471 0.731495 0.18284 0
M  V30 2891 H 268.122 1.81728 -0.254363 0
M  V30 2892 H 266.504 3.57955 1.69365 0
M  V30 2893 H 267.678 4.49485 -1.01489 0
M  V30 2894 H 265.993 4.09366 -0.762128 0
M  V30 2895 H 268.59 5.01186 1.86325 0
M  V30 2896 H 268.933 3.39075 2.41524 0
M  V30 2897 H 269.466 3.89796 0.79395 0
M  V30 2898 H 266.205 6.52221 -0.654834 0
M  V30 2899 H 265.725 5.9224 0.949282 0
M  V30 2900 H 267.404 6.43707 0.651939 0
M  V30 2901 N 267.536 -0.106894 1.57237 0
M  V30 2902 C 268.813 -0.843526 1.76477 0
M  V30 2903 C 269.193 -1.97499 0.745464 0
M  V30 2904 O 268.541 -2.27357 -0.228306 0
M  V30 2905 C 268.751 -1.34903 3.21873 0
M  V30 2906 C 270.099 -1.79654 3.8472 0
M  V30 2907 O 271.123 -1.44554 3.2555 0
M  V30 2908 O 269.982 -2.44515 4.88748 0
M  V30 2909 H 267.076 -0.401468 0.723016 0
M  V30 2910 H 269.622 -0.0896927 1.69463 0
M  V30 2911 H 268.394 -0.53781 3.87586 0
M  V30 2912 H 268.017 -2.16522 3.33473 0
M  V30 2913 N 269.014 -1.53014 -0.377408 0
M  V30 2914 C 270.261 -1.68623 -1.12128 0
M  V30 2915 C 270.589 -0.431997 -1.89642 0
M  V30 2916 O 269.844 0.585855 -1.86725 0
M  V30 2917 C 270.143 -2.87982 -2.11663 0
M  V30 2918 C 269.809 -4.24964 -1.50719 0
M  V30 2919 C 268.471 -4.62217 -1.33825 0
M  V30 2920 C 270.823 -5.10199 -1.06519 0
M  V30 2921 C 268.151 -5.82352 -0.712963 0
M  V30 2922 C 270.503 -6.30969 -0.453955 0
M  V30 2923 C 269.167 -6.66944 -0.272411 0
M  V30 2924 H 268.437 -0.617034 -0.410305 0
M  V30 2925 H 271.084 -1.8718 -0.404484 0
M  V30 2926 H 269.389 -2.63889 -2.89603 0
M  V30 2927 H 271.086 -2.97253 -2.6915 0
M  V30 2928 H 267.676 -3.95626 -1.64858 0
M  V30 2929 H 271.86 -4.81978 -1.18368 0
M  V30 2930 H 267.116 -6.08824 -0.560611 0
M  V30 2931 H 271.29 -6.96324 -0.103217 0
M  V30 2932 H 268.917 -7.59898 0.214181 0
M  V30 2933 N 270.492 0.636531 -1.44174 0
M  V30 2934 C 271.908 0.954104 -1.27941 0
M  V30 2935 C 272.108 2.0039 -0.211248 0
M  V30 2936 O 271.164 2.49236 0.404695 0
M  V30 2937 C 272.477 1.4225 -2.64925 0
M  V30 2938 C 274.025 1.53827 -2.72592 0
M  V30 2939 C 274.5 2.04053 -4.10032 0
M  V30 2940 N 275.991 2.11331 -4.12182 0
M  V30 2941 C 276.726 2.51352 -5.15374 0
M  V30 2942 N 276.222 2.90549 -6.2893 0
M  V30 2943 N 278.015 2.51438 -5.02728 0
M  V30 2944 H 270.166 -0.0578386 -2.12321 0
M  V30 2945 H 272.429 0.0367406 -0.947288 0
M  V30 2946 H 272.135 0.725466 -3.44136 0
M  V30 2947 H 272.009 2.39451 -2.9145 0
M  V30 2948 H 274.396 2.22628 -1.93702 0
M  V30 2949 H 274.477 0.550154 -2.49814 0
M  V30 2950 H 274.121 1.35848 -4.89395 0
M  V30 2951 H 274.051 3.03726 -4.30184 0
M  V30 2952 H 276.542 1.83745 -3.30222 0
M  V30 2953 H 276.855 3.19884 -7.03487 0
M  V30 2954 H 275.2 2.88313 -6.32377 0
M  V30 2955 H 278.391 2.20203 -4.13072 0
M  V30 2956 H 278.564 2.82304 -5.83274 0
M  V30 2957 N 271.97 1.30982 0.876444 0
M  V30 2958 C 273.247 1.10942 1.61094 0
M  V30 2959 C 273.627 -0.338223 2.08373 0
M  V30 2960 O 272.975 -1.33122 1.85717 0
M  V30 2961 C 273.185 2.11789 2.77392 0
M  V30 2962 C 274.533 2.43965 3.47514 0
M  V30 2963 O 275.557 2.10166 2.87591 0
M  V30 2964 O 274.416 3.01817 4.55597 0
M  V30 2965 H 271.51 0.42667 0.708436 0
M  V30 2966 H 274.056 1.42438 0.922474 0
M  V30 2967 H 272.828 3.09194 2.39823 0
M  V30 2968 H 272.451 1.81161 3.5393 0
M  V30 2969 N 273.449 -1.08991 1.13837 0
M  V30 2970 C 274.698 -1.80631 0.897509 0
M  V30 2971 C 275.011 -1.86872 -0.57777 0
M  V30 2972 O 276.217 -2.54866 -0.935701 0
M  V30 2973 C 274.673 -3.24517 1.55618 0
M  V30 2974 C 274.281 -3.26529 3.0673 0
M  V30 2975 C 276.025 -4.00882 1.3962 0
M  V30 2976 C 273.932 -4.64965 3.65461 0
M  V30 2977 H 272.862 -0.67691 0.332129 0
M  V30 2978 H 275.513 -1.2246 1.3666 0
M  V30 2979 H 273.895 -3.82778 1.01476 0
M  V30 2980 H 275.069 -2.78008 3.67489 0
M  V30 2981 H 273.384 -2.63656 3.22296 0
M  V30 2982 H 275.981 -5.03167 1.80906 0
M  V30 2983 H 276.324 -4.14896 0.341578 0
M  V30 2984 H 276.857 -3.49075 1.90766 0
M  V30 2985 H 273.596 -4.56153 4.70749 0
M  V30 2986 H 273.116 -5.13792 3.09481 0
M  V30 2987 H 274.795 -5.3394 3.654 0
M  V30 2988 N 274.927 -0.932562 -1.27047 0
M  V30 2989 C 275.86 -0.379774 -2.25018 0
M  V30 2990 C 276.838 0.526587 -1.53837 0
M  V30 2991 O 278.022 0.465992 -1.82649 0
M  V30 2992 C 275.149 0.455187 -3.35627 0
M  V30 2993 C 274.195 -0.388428 -4.24728 0
M  V30 2994 S 275.028 -1.80701 -5.04091 0
M  V30 2995 C 276.184 -0.979865 -6.18182 0
M  V30 2996 H 276.417 -1.2101 -2.71558 0
M  V30 2997 H 273.95 -0.735078 -1.35779 0
M  V30 2998 H 275.908 0.931052 -3.99802 0
M  V30 2999 H 274.569 1.26009 -2.87716 0
M  V30 3000 H 273.762 0.25089 -5.03375 0
M  V30 3001 H 273.364 -0.798649 -3.65373 0
M  V30 3002 H 275.656 -0.218115 -6.77149 0
M  V30 3003 H 276.599 -1.73951 -6.86401 0
M  V30 3004 H 277.007 -0.51973 -5.62102 0
M  V30 3005 N 276.405 1.4127 -0.698611 0
M  V30 3006 C 277.651 2.01478 -0.231207 0
M  V30 3007 C 277.984 1.55215 1.16713 0
M  V30 3008 O 277.259 0.764672 1.78838 0
M  V30 3009 C 277.542 3.58912 -0.292281 0
M  V30 3010 C 277.395 4.15293 -1.72778 0
M  V30 3011 C 278.714 4.38736 0.346194 0
M  V30 3012 H 275.833 0.732025 -0.0854878 0
M  V30 3013 H 278.475 1.67977 -0.887906 0
M  V30 3014 H 276.625 3.87582 0.26686 0
M  V30 3015 H 278.297 3.97486 -2.341 0
M  V30 3016 H 276.54 3.7022 -2.26096 0
M  V30 3017 H 277.211 5.24452 -1.72202 0
M  V30 3018 H 279.687 4.15897 -0.130035 0
M  V30 3019 H 278.563 5.48221 0.272932 0
M  V30 3020 H 278.824 4.18425 1.42734 0
M  V30 3021 N 277.883 0.443576 1.51229 0
M  V30 3022 C 279.111 -0.11929 2.06556 0
M  V30 3023 C 279.526 -1.35921 1.31038 0
M  V30 3024 O 278.883 -1.78675 0.371704 0
M  V30 3025 C 278.934 -0.435228 3.5887 0
M  V30 3026 O 278.655 0.755486 4.31537 0
M  V30 3027 C 280.156 -1.04808 4.30732 0
M  V30 3028 H 277.376 -0.0051584 0.67098 0
M  V30 3029 H 279.92 0.624453 1.94733 0
M  V30 3030 H 278.075 -1.12887 3.70588 0
M  V30 3031 H 278.489 0.483491 5.22267 0
M  V30 3032 H 279.963 -1.2191 5.3837 0
M  V30 3033 H 280.44 -2.03081 3.89429 0
M  V30 3034 H 281.046 -0.393637 4.23474 0
M  V30 3035 N 279.361 -1.56624 0.175154 0
M  V30 3036 C 280.61 -1.96173 -0.468921 0
M  V30 3037 C 280.923 -1.06401 -1.64128 0
M  V30 3038 O 282.129 -1.35648 -2.35185 0
M  V30 3039 C 280.585 -3.48833 -0.885633 0
M  V30 3040 C 280.193 -4.47237 0.261343 0
M  V30 3041 C 281.937 -3.97194 -1.49791 0
M  V30 3042 C 279.844 -5.9114 -0.175214 0
M  V30 3043 H 278.774 -0.732455 -0.178958 0
M  V30 3044 H 281.425 -1.81591 0.263997 0
M  V30 3045 H 279.807 -3.58848 -1.67464 0
M  V30 3046 H 280.981 -4.4894 1.03871 0
M  V30 3047 H 279.296 -4.08956 0.783827 0
M  V30 3048 H 281.893 -5.02167 -1.83665 0
M  V30 3049 H 282.236 -3.40351 -2.39722 0
M  V30 3050 H 282.769 -3.90212 -0.773267 0
M  V30 3051 H 279.508 -6.51865 0.689414 0
M  V30 3052 H 279.028 -5.92735 -0.91786 0
M  V30 3053 H 280.707 -6.44044 -0.617792 0
M  V30 3054 N 280.839 0.0985539 -1.57292 0
M  V30 3055 C 282.255 0.45267 -1.53046 0
M  V30 3056 C 282.455 1.80713 -0.891342 0
M  V30 3057 O 281.511 2.4785 -0.482375 0
M  V30 3058 C 282.824 0.418341 -2.97776 0
M  V30 3059 C 284.372 0.500443 -3.08973 0
M  V30 3060 C 284.847 0.496297 -4.55303 0
M  V30 3061 N 286.338 0.557151 -4.59837 0
M  V30 3062 C 287.073 0.575726 -5.70502 0
M  V30 3063 N 286.569 0.550714 -6.90608 0
M  V30 3064 N 288.362 0.620277 -5.58667 0
M  V30 3065 H 280.513 -0.788673 -1.97215 0
M  V30 3066 H 282.776 -0.293188 -0.901524 0
M  V30 3067 H 282.482 -0.509659 -3.47988 0
M  V30 3068 H 282.356 1.2386 -3.56284 0
M  V30 3069 H 284.743 1.41886 -2.58751 0
M  V30 3070 H 284.824 -0.347894 -2.53423 0
M  V30 3071 H 284.468 -0.418162 -5.06176 0
M  V30 3072 H 284.398 1.3618 -5.08687 0
M  V30 3073 H 286.889 0.581816 -3.73394 0
M  V30 3074 H 287.202 0.568075 -7.70709 0
M  V30 3075 H 285.547 0.517816 -6.93068 0
M  V30 3076 H 288.738 0.637322 -4.63741 0
M  V30 3077 H 288.911 0.631283 -6.44918 0
M  V30 3078 N 282.317 1.53212 0.369288 0
M  V30 3079 C 283.728 1.60943 0.946276 0
M  V30 3080 C 284.079 0.47452 1.90375 0
M  V30 3081 O 283.204 -0.399597 2.12679 0
M  V30 3082 C 283.799 2.91715 1.72302 0
M  V30 3083 C 282.358 3.01792 2.24941 0
M  V30 3084 C 281.505 2.56211 1.06072 0
M  V30 3085 H 284.456 1.58007 0.148198 0
M  V30 3086 H 284.477 2.79309 2.58393 0
M  V30 3087 H 283.989 3.74295 1.0259 0
M  V30 3088 H 282.09 2.23791 2.97906 0
M  V30 3089 H 282.203 4.06803 2.53077 0
M  V30 3090 H 280.567 2.10998 1.4266 0
M  V30 3091 H 281.35 3.41206 0.378639 0
M  V30 3092 N 283.795 -0.628877 1.44509 0
M  V30 3093 C 284.745 -1.7345 1.47983 0
M  V30 3094 C 285.729 -1.5715 0.345373 0
M  V30 3095 O 286.921 -1.66848 0.590829 0
M  V30 3096 C 284.05 -3.12143 1.42904 0
M  V30 3097 C 283.136 -3.33906 2.61472 0
M  V30 3098 N 283.527 -3.26024 3.86706 0
M  V30 3099 C 281.825 -3.64709 2.56716 0
M  V30 3100 C 282.526 -3.48536 4.65722 0
M  V30 3101 N 281.502 -3.71517 3.96832 0
M  V30 3102 H 285.304 -1.65818 2.42655 0
M  V30 3103 H 282.818 -0.831419 1.39503 0
M  V30 3104 H 284.815 -3.91433 1.43476 0
M  V30 3105 H 283.475 -3.2094 0.492717 0
M  V30 3106 H 284.486 -3.04893 4.18641 0
M  V30 3107 H 281.163 -3.80473 1.71891 0
M  V30 3108 H 282.553 -3.48016 5.74747 0
M  V30 3109 N 285.273 -1.31445 -0.869486 0
M  V30 3110 C 286.519 -1.21337 -1.62496 0
M  V30 3111 C 286.852 0.227872 -1.92858 0
M  V30 3112 O 286.127 1.16094 -1.56053 0
M  V30 3113 C 286.41 -2.05814 -2.95487 0
M  V30 3114 C 286.263 -3.5824 -2.72 0
M  V30 3115 C 287.582 -1.9079 -3.96594 0
M  V30 3116 H 284.701 -0.442135 -0.589649 0
M  V30 3117 H 287.343 -1.6124 -1.00507 0
M  V30 3118 H 285.493 -1.71913 -3.48394 0
M  V30 3119 H 287.165 -4.0228 -2.25762 0
M  V30 3120 H 285.408 -3.81647 -2.06224 0
M  V30 3121 H 286.079 -4.12657 -3.66631 0
M  V30 3122 H 288.555 -2.20459 -3.52898 0
M  V30 3123 H 287.431 -2.52199 -4.87531 0
M  V30 3124 H 287.692 -0.871341 -4.33428 0
M  V30 3125 N 286.751 1.08385 -1.14413 0
M  V30 3126 C 287.681 2.17321 -0.854044 0
M  V30 3127 C 288.662 1.69024 0.191049 0
M  V30 3128 O 289.847 1.94141 0.0476779 0
M  V30 3129 C 286.977 3.45719 -0.330983 0
M  V30 3130 C 285.931 4.07409 -1.31155 0
M  V30 3131 C 285.257 5.30762 -0.64778 0
M  V30 3132 C 286.557 4.48665 -2.67388 0
M  V30 3133 H 288.251 2.41845 -1.76498 0
M  V30 3134 H 285.797 1.16233 -0.850051 0
M  V30 3135 H 287.75 4.21241 -0.115645 0
M  V30 3136 H 286.474 3.2075 0.615381 0
M  V30 3137 H 285.133 3.33919 -1.51306 0
M  V30 3138 H 284.781 5.02078 0.304398 0
M  V30 3139 H 284.481 5.72992 -1.30207 0
M  V30 3140 H 286.005 6.08998 -0.441972 0
M  V30 3141 H 287.419 5.15364 -2.51143 0
M  V30 3142 H 285.816 5.01814 -3.29093 0
M  V30 3143 H 286.886 3.60543 -3.24248 0
M  V30 3144 N 288.23 0.939286 1.26551 0
M  V30 3145 C 289.458 0.602536 1.97932 0
M  V30 3146 C 289.873 -0.82206 1.69964 0
M  V30 3147 O 289.23 -1.54789 0.966784 0
M  V30 3148 C 289.281 0.832946 3.51773 0
M  V30 3149 O 289.002 2.20151 3.78768 0
M  V30 3150 C 290.503 0.506483 4.40397 0
M  V30 3151 H 287.723 0.227248 0.631347 0
M  V30 3152 H 290.267 1.25948 1.61113 0
M  V30 3153 H 288.422 0.222644 3.8676 0
M  V30 3154 H 288.836 2.26013 4.73306 0
M  V30 3155 H 290.31 0.718333 5.47306 0
M  V30 3156 H 290.787 -0.558451 4.35635 0
M  V30 3157 H 291.393 1.09543 4.10951 0
M  V30 3158 N 289.708 -1.40897 0.706093 0
M  V30 3159 C 291.119 -1.84023 0.315052 0
M  V30 3160 C 291.47 -1.5906 -1.14866 0
M  V30 3161 O 290.595 -1.06651 -1.88293 0
M  V30 3162 C 291.19 -3.34055 0.565038 0
M  V30 3163 C 289.749 -3.7571 0.227806 0
M  V30 3164 C 288.896 -2.64204 0.842122 0
M  V30 3165 H 291.847 -1.303 0.905963 0
M  V30 3166 H 291.868 -3.80107 -0.172843 0
M  V30 3167 H 291.38 -3.52192 1.63042 0
M  V30 3168 H 289.481 -3.63172 -0.832895 0
M  V30 3169 H 289.594 -4.74103 0.690174 0
M  V30 3170 H 287.958 -2.53255 0.270893 0
M  V30 3171 H 288.741 -2.85155 1.91158 0
M  V30 3172 N 291.186 -0.45159 -1.50991 0
M  V30 3173 C 292.433 0.110074 -2.02201 0
M  V30 3174 C 292.761 1.4146 -1.33489 0
M  V30 3175 O 292.016 1.90617 -0.443125 0
M  V30 3176 C 292.315 0.361728 -3.55565 0
M  V30 3177 C 291.981 -0.858717 -4.42648 0
M  V30 3178 C 290.643 -1.19338 -4.66167 0
M  V30 3179 C 292.995 -1.67221 -4.93646 0
M  V30 3180 C 290.323 -2.34195 -5.37931 0
M  V30 3181 C 292.675 -2.8119 -5.6667 0
M  V30 3182 C 291.339 -3.15094 -5.88449 0
M  V30 3183 H 290.609 0.040279 -0.739904 0
M  V30 3184 H 293.256 -0.601696 -1.81802 0
M  V30 3185 H 291.561 1.15554 -3.74372 0
M  V30 3186 H 293.258 0.80996 -3.92735 0
M  V30 3187 H 289.848 -0.58796 -4.24548 0
M  V30 3188 H 294.032 -1.42686 -4.75347 0
M  V30 3189 H 289.288 -2.6076 -5.53005 0
M  V30 3190 H 293.462 -3.44585 -6.05173 0
M  V30 3191 H 291.089 -4.04204 -6.43835 0
M  V30 3192 N 292.664 1.56529 -0.183458 0
M  V30 3193 C 293.91 1.97537 0.459036 0
M  V30 3194 C 294.243 1.06989 1.62071 0
M  V30 3195 O 293.518 0.11948 1.94133 0
M  V30 3196 C 293.801 3.47874 0.930368 0
M  V30 3197 C 293.654 4.492 -0.232317 0
M  V30 3198 C 294.973 4.01612 1.79989 0
M  V30 3199 H 292.092 0.718204 0.165383 0
M  V30 3200 H 294.734 1.88042 -0.272038 0
M  V30 3201 H 292.884 3.56095 1.55333 0
M  V30 3202 H 294.556 4.53027 -0.86972 0
M  V30 3203 H 292.799 4.24657 -0.885928 0
M  V30 3204 H 293.47 5.51823 0.139796 0
M  V30 3205 H 295.946 3.96097 1.27461 0
M  V30 3206 H 294.822 5.07195 2.09867 0
M  V30 3207 H 295.083 3.46163 2.74998 0
M  V30 3208 N 294.142 -0.090211 1.57342 0
M  V30 3209 C 295.052 -1.12735 2.05738 0
M  V30 3210 C 296.068 -1.43557 0.983231 0
M  V30 3211 O 297.244 -1.54101 1.29672 0
M  V30 3212 C 294.309 -2.42659 2.47624 0
M  V30 3213 C 293.37 -2.18975 3.69254 0
M  V30 3214 C 292.603 -3.42704 4.09133 0
M  V30 3215 O 292.826 -4.51127 3.49057 0
M  V30 3216 O 291.76 -3.32003 5.02053 0
M  V30 3217 H 295.586 -0.746279 2.94388 0
M  V30 3218 H 293.171 -0.303064 1.46294 0
M  V30 3219 H 295.053 -3.19155 2.7517 0
M  V30 3220 H 293.728 -2.80182 1.62109 0
M  V30 3221 H 292.635 -1.40244 3.46818 0
M  V30 3222 H 293.968 -1.86342 4.55563 0
M  V30 3223 N 295.62 -1.53406 -0.361157 0
M  V30 3224 C 296.53 -1.83122 -1.4664 0
M  V30 3225 C 297.546 -0.719943 -1.58407 0
M  V30 3226 O 298.722 -1.01046 -1.74218 0
M  V30 3227 C 295.787 -2.01891 -2.81853 0
M  V30 3228 C 294.848 -3.25784 -2.79577 0
M  V30 3229 C 294.081 -3.43648 -4.0834 0
M  V30 3230 O 294.304 -2.65714 -5.0473 0
M  V30 3231 O 293.238 -4.37018 -4.13883 0
M  V30 3232 H 297.064 -2.7703 -1.24451 0
M  V30 3233 H 294.649 -1.38841 -0.551678 0
M  V30 3234 H 296.531 -2.15782 -3.61962 0
M  V30 3235 H 295.206 -1.11173 -3.0401 0
M  V30 3236 H 294.113 -3.17312 -1.98151 0
M  V30 3237 H 295.446 -4.16439 -2.62373 0
M  V30 3238 N 297.098 0.621204 -1.44841 0
M  V30 3239 C 298.338 1.39201 -1.49674 0
M  V30 3240 C 298.702 1.91561 -0.129764 0
M  V30 3241 O 299.903 2.68748 -0.0527814 0
M  V30 3242 C 298.174 2.519 -2.53537 0
M  V30 3243 S 299.733 3.39916 -2.77494 0
M  V30 3244 H 296.551 0.474758 -0.529269 0
M  V30 3245 H 299.153 0.718171 -1.81831 0
M  V30 3246 H 297.857 2.11761 -3.51547 0
M  V30 3247 H 297.388 3.241 -2.22986 0
M  V30 3248 H 299.403 4.49646 -2.0984 0
M  V30 3249 N 298.576 1.31904 0.862503 0
M  V30 3250 C 299.506 1.22782 1.98612 0
M  V30 3251 C 300.487 0.113362 1.69722 0
M  V30 3252 O 301.672 0.299218 1.91881 0
M  V30 3253 C 298.802 0.942058 3.34279 0
M  V30 3254 C 297.756 2.0169 3.77499 0
M  V30 3255 C 297.082 1.58369 5.10709 0
M  V30 3256 C 298.382 3.43096 3.93805 0
M  V30 3257 H 300.076 2.16788 2.06502 0
M  V30 3258 H 297.622 1.04366 0.992154 0
M  V30 3259 H 299.575 0.864818 4.1243 0
M  V30 3260 H 298.299 -0.0336603 3.26583 0
M  V30 3261 H 296.958 2.08416 3.01593 0
M  V30 3262 H 296.606 0.595628 4.99461 0
M  V30 3263 H 296.306 2.30279 5.40597 0
M  V30 3264 H 297.83 1.52067 5.91361 0
M  V30 3265 H 299.244 3.39003 4.62331 0
M  V30 3266 H 297.641 4.13288 4.35101 0
M  V30 3267 H 298.711 3.83334 2.96957 0
M  V30 3268 N 300.054 -1.07777 1.14986 0
M  V30 3269 C 301.3 -1.80557 0.923422 0
M  V30 3270 C 301.633 -1.86298 -0.548337 0
M  V30 3271 O 300.908 -1.34354 -1.40639 0
M  V30 3272 C 301.191 -3.25839 1.53299 0
M  V30 3273 C 301.044 -3.28269 3.07505 0
M  V30 3274 C 302.363 -4.22991 1.21518 0
M  V30 3275 H 299.482 -0.655493 0.336894 0
M  V30 3276 H 302.124 -1.26144 1.42083 0
M  V30 3277 H 300.274 -3.72306 1.10999 0
M  V30 3278 H 301.946 -2.90079 3.58681 0
M  V30 3279 H 300.189 -2.67355 3.4162 0
M  V30 3280 H 300.86 -4.30691 3.45266 0
M  V30 3281 H 303.336 -3.84894 1.581 0
M  V30 3282 H 302.212 -5.22945 1.66793 0
M  V30 3283 H 302.473 -4.41904 0.131505 0
M  V30 3284 N 301.532 -0.945985 -1.26051 0
M  V30 3285 C 302.495 -0.463897 -2.24456 0
M  V30 3286 C 303.495 0.427655 -1.55009 0
M  V30 3287 O 304.685 0.226157 -1.72726 0
M  V30 3288 C 301.817 0.330812 -3.39291 0
M  V30 3289 H 303.01 -1.33357 -2.68619 0
M  V30 3290 H 300.563 -0.728416 -1.38289 0
M  V30 3291 H 301.298 1.21852 -3.00537 0
M  V30 3292 H 301.083 -0.308679 -3.90883 0
M  V30 3293 H 302.573 0.657865 -4.12386 0
M  V30 3294 N 303.011 1.40521 -0.713556 0
M  V30 3295 C 303.974 2.29098 -0.0684347 0
M  V30 3296 C 304.974 1.45268 0.689472 0
M  V30 3297 O 306.164 1.66205 0.521677 0
M  V30 3298 C 303.296 3.28446 0.913024 0
M  V30 3299 H 304.489 2.87645 -0.84855 0
M  V30 3300 H 302.042 1.48809 -0.47809 0
M  V30 3301 H 302.777 2.74913 1.72027 0
M  V30 3302 H 302.562 3.90327 0.372472 0
M  V30 3303 H 304.052 3.94777 1.36165 0
M  V30 3304 N 304.489 0.459591 1.5075 0
M  V30 3305 C 305.452 -0.329093 2.26825 0
M  V30 3306 C 306.452 -0.930481 1.31144 0
M  V30 3307 O 307.642 -0.801453 1.54669 0
M  V30 3308 C 304.774 -1.46768 3.07688 0
M  V30 3309 H 305.967 0.337924 2.9799 0
M  V30 3310 H 303.52 0.213336 1.54837 0
M  V30 3311 H 304.255 -2.17009 2.40993 0
M  V30 3312 H 304.04 -1.04238 3.77991 0
M  V30 3313 H 305.53 -2.02433 3.65254 0
M  V30 3314 N 305.967 -1.56429 0.191757 0
M  V30 3315 C 307.215 -1.97095 -0.447006 0
M  V30 3316 C 307.536 -1.07967 -1.62383 0
M  V30 3317 O 306.806 -0.150248 -1.95323 0
M  V30 3318 H 305.386 -0.727832 -0.168135 0
M  V30 3319 H 308.048 -1.92911 0.27771 0
M  V30 3320 H 307.144 -3.01848 -0.793371 0
M  V30 3321 N 307.445 0.0818655 -1.57387 0
M  V30 3322 C 308.693 0.781368 -1.86384 0
M  V30 3323 C 309.014 1.78618 -0.782342 0
M  V30 3324 O 308.284 1.94976 0.190061 0
M  V30 3325 H 306.864 0.291562 -0.687751 0
M  V30 3326 H 309.526 0.060348 -1.94807 0
M  V30 3327 H 308.622 1.3038 -2.83562 0
M  V30 3328 N 308.923 1.53595 0.353017 0
M  V30 3329 C 310.151 1.74311 1.1146 0
M  V30 3330 C 310.566 0.477854 1.82653 0
M  V30 3331 O 309.923 -0.549977 1.74016 0
M  V30 3332 C 309.974 2.91694 2.13534 0
M  V30 3333 O 309.695 4.13325 1.45238 0
M  V30 3334 C 311.196 3.24384 3.02142 0
M  V30 3335 H 308.416 0.582669 0.332773 0
M  V30 3336 H 310.96 2.00386 0.408107 0
M  V30 3337 H 309.115 2.67977 2.79763 0
M  V30 3338 H 309.529 4.79148 2.13349 0
M  V30 3339 H 311.003 4.09893 3.69718 0
M  V30 3340 H 311.48 2.40282 3.67643 0
M  V30 3341 H 312.086 3.50073 2.41514 0
M  V30 3342 N 310.401 -0.613514 1.45168 0
M  V30 3343 C 311.629 -1.39946 1.5239 0
M  V30 3344 C 312.044 -1.88167 0.154531 0
M  V30 3345 O 311.401 -1.61872 -0.842843 0
M  V30 3346 C 311.452 -2.60795 2.50337 0
M  V30 3347 O 311.173 -2.1458 3.81952 0
M  V30 3348 C 312.674 -3.53723 2.67198 0
M  V30 3349 H 309.894 -0.428593 0.516284 0
M  V30 3350 H 312.438 -0.748753 1.903 0
M  V30 3351 H 310.593 -3.21919 2.15515 0
M  V30 3352 H 311.007 -2.93055 4.34993 0
M  V30 3353 H 312.481 -4.35079 3.39721 0
M  V30 3354 H 312.958 -4.0368 1.73029 0
M  V30 3355 H 313.564 -2.98456 3.02992 0
M  V30 3356 N 311.879 -1.3236 -0.855495 0
M  V30 3357 C 313.104 -1.2601 -1.64731 0
M  V30 3358 C 313.529 0.169068 -1.87339 0
M  V30 3359 O 312.887 1.12016 -1.42556 0
M  V30 3360 C 312.935 -2.02417 -2.98429 0
M  V30 3361 O 312.039 -1.3714 -3.8893 0
M  V30 3362 H 311.38 -0.434325 -0.502253 0
M  V30 3363 H 313.91 -1.74661 -1.06558 0
M  V30 3364 H 313.92 -2.12559 -3.48257 0
M  V30 3365 H 312.595 -3.06343 -2.81295 0
M  V30 3366 H 311.172 -1.3554 -3.47395 0
M  V30 3367 N 313.357 1.07166 -1.15556 0
M  V30 3368 C 314.307 2.12649 -0.82247 0
M  V30 3369 C 315.291 1.59725 0.194129 0
M  V30 3370 O 316.483 1.76999 -0.00540402 0
M  V30 3371 C 313.612 3.41847 -0.315572 0
M  V30 3372 C 312.698 4.0162 -1.36244 0
M  V30 3373 N 313.089 4.35625 -2.5703 0
M  V30 3374 C 311.387 4.29114 -1.21562 0
M  V30 3375 C 312.088 4.83017 -3.24144 0
M  V30 3376 N 311.064 4.81906 -2.51531 0
M  V30 3377 H 314.866 2.36776 -1.74111 0
M  V30 3378 H 312.38 1.24622 -1.0413 0
M  V30 3379 H 314.377 4.16859 -0.0585855 0
M  V30 3380 H 313.037 3.19163 0.597105 0
M  V30 3381 H 314.048 4.26253 -2.94158 0
M  V30 3382 H 310.725 4.15919 -0.362988 0
M  V30 3383 H 312.115 5.18605 -4.27198 0
M  V30 3384 N 314.835 0.952656 1.25548 0
M  V30 3385 C 315.767 0.428609 2.25157 0
M  V30 3386 C 316.78 -0.454428 1.56329 0
M  V30 3387 O 317.969 -0.263023 1.76552 0
M  V30 3388 C 315.069 -0.401972 3.36508 0
M  V30 3389 C 314.242 0.467601 4.34893 0
M  V30 3390 C 313.301 -0.30445 5.25319 0
M  V30 3391 O 312.327 0.296473 5.68427 0
M  V30 3392 N 313.529 -1.59805 5.5807 0
M  V30 3393 H 316.294 1.28497 2.70756 0
M  V30 3394 H 313.855 0.822798 1.39433 0
M  V30 3395 H 315.847 -0.926134 3.9396 0
M  V30 3396 H 314.417 -1.15918 2.90313 0
M  V30 3397 H 313.637 1.17288 3.76347 0
M  V30 3398 H 314.925 1.06119 4.97611 0
M  V30 3399 H 314.323 -2.10823 5.24948 0
M  V30 3400 H 312.88 -2.06822 6.18116 0
M  V30 3401 N 316.313 -1.40141 0.720998 0
M  V30 3402 C 317.559 -2.01084 0.263231 0
M  V30 3403 C 317.892 -1.57052 -1.14229 0
M  V30 3404 O 317.167 -0.793027 -1.77599 0
M  V30 3405 C 317.45 -3.58401 0.349344 0
M  V30 3406 C 317.303 -4.12491 1.79363 0
M  V30 3407 C 318.622 -4.39231 -0.276351 0
M  V30 3408 H 315.741 -0.730572 0.0971228 0
M  V30 3409 H 318.383 -1.66543 0.914518 0
M  V30 3410 H 316.533 -3.87958 -0.205165 0
M  V30 3411 H 318.205 -3.93711 2.40394 0
M  V30 3412 H 316.448 -3.66576 2.31958 0
M  V30 3413 H 317.119 -5.21646 1.80524 0
M  V30 3414 H 319.595 -4.15637 0.196184 0
M  V30 3415 H 318.471 -5.48586 -0.185681 0
M  V30 3416 H 318.732 -4.20643 -1.36059 0
M  V30 3417 N 317.792 -0.46758 -1.50504 0
M  V30 3418 C 319.017 0.0886943 -2.0721 0
M  V30 3419 C 319.442 1.33057 -1.32956 0
M  V30 3420 O 318.8 1.77354 -0.376197 0
M  V30 3421 C 318.848 0.359202 -3.58806 0
M  V30 3422 O 317.952 1.44034 -3.8643 0
M  V30 3423 H 317.293 -0.0114349 -0.663902 0
M  V30 3424 H 319.823 -0.657613 -1.93744 0
M  V30 3425 H 319.833 0.600742 -4.03553 0
M  V30 3426 H 318.508 -0.548311 -4.1227 0
M  V30 3427 H 317.085 1.18638 -3.53524 0
M  V30 3428 N 319.27 1.56325 -0.20005 0
M  V30 3429 C 320.517 1.97719 0.437411 0
M  V30 3430 C 320.845 1.08709 1.61284 0
M  V30 3431 O 320.1 0.127261 1.95286 0
M  V30 3432 C 320.399 3.4495 0.935103 0
M  V30 3433 C 320.065 4.5072 -0.12749 0
M  V30 3434 C 318.727 4.79368 -0.419451 0
M  V30 3435 C 321.079 5.14268 -0.847231 0
M  V30 3436 C 318.407 5.68854 -1.43604 0
M  V30 3437 C 320.759 6.04852 -1.85301 0
M  V30 3438 C 319.423 6.31855 -2.15211 0
M  V30 3439 H 318.693 0.723507 0.16006 0
M  V30 3440 H 321.34 1.89166 -0.298056 0
M  V30 3441 H 319.645 3.50599 1.74894 0
M  V30 3442 H 321.342 3.74337 1.43781 0
M  V30 3443 H 317.932 4.28458 0.11023 0
M  V30 3444 H 322.116 4.92222 -0.634901 0
M  V30 3445 H 317.372 5.88047 -1.67364 0
M  V30 3446 H 321.546 6.53152 -2.41591 0
M  V30 3447 H 319.173 7.00994 -2.94129 0
M  V30 3448 N 320.748 -0.0735177 1.57428 0
M  V30 3449 C 321.973 -0.789787 1.91774 0
M  V30 3450 C 322.398 -1.70413 0.796306 0
M  V30 3451 O 321.756 -1.79555 -0.250961 0
M  V30 3452 C 321.804 -1.5609 3.25067 0
M  V30 3453 O 320.908 -2.67144 3.14178 0
M  V30 3454 H 320.249 -0.215582 0.628029 0
M  V30 3455 H 322.779 -0.0422781 2.04556 0
M  V30 3456 H 322.789 -1.94052 3.58898 0
M  V30 3457 H 321.464 -0.890015 4.06265 0
M  V30 3458 H 320.041 -2.32052 2.91901 0
M  V30 3459 N 322.226 -1.5378 -0.344866 0
M  V30 3460 C 323.456 -1.74646 -1.10374 0
M  V30 3461 C 323.864 -0.48491 -1.8288 0
M  V30 3462 O 323.207 0.553062 -1.75177 0
M  V30 3463 C 323.269 -2.87145 -2.16306 0
M  V30 3464 C 322.933 -4.26795 -1.63386 0
M  V30 3465 C 323.93 -5.08412 -1.08688 0
M  V30 3466 C 321.615 -4.73276 -1.68272 0
M  V30 3467 C 323.609 -6.34609 -0.595792 0
M  V30 3468 C 321.296 -5.99446 -1.18776 0
M  V30 3469 C 322.294 -6.79946 -0.645215 0
M  V30 3470 O 321.982 -8.03745 -0.157626 0
M  V30 3471 H 321.714 -0.587112 -0.335075 0
M  V30 3472 H 324.268 -2.01403 -0.403252 0
M  V30 3473 H 322.498 -2.55909 -2.89909 0
M  V30 3474 H 324.187 -2.95992 -2.77747 0
M  V30 3475 H 324.953 -4.73666 -1.04236 0
M  V30 3476 H 320.832 -4.10677 -2.09442 0
M  V30 3477 H 324.376 -6.97389 -0.171654 0
M  V30 3478 H 320.273 -6.33687 -1.22928 0
M  V30 3479 H 321.041 -8.18038 -0.275037 0
M  V30 3480 N 323.704 0.605807 -1.45491 0
M  V30 3481 C 324.951 1.36476 -1.49601 0
M  V30 3482 C 325.279 1.94007 -0.138452 0
M  V30 3483 O 324.534 1.75638 0.863114 0
M  V30 3484 C 324.833 2.53012 -2.52428 0
M  V30 3485 C 324.499 2.13617 -3.97087 0
M  V30 3486 C 323.161 2.02587 -4.36477 0
M  V30 3487 C 325.513 1.82899 -4.88055 0
M  V30 3488 C 322.841 1.59064 -5.64726 0
M  V30 3489 C 325.193 1.40861 -6.16718 0
M  V30 3490 C 323.857 1.28391 -6.55036 0
M  V30 3491 H 323.127 0.499402 -0.547429 0
M  V30 3492 H 325.774 0.684546 -1.78847 0
M  V30 3493 H 324.079 3.26379 -2.16758 0
M  V30 3494 H 325.776 3.1124 -2.52845 0
M  V30 3495 H 322.366 2.23129 -3.65939 0
M  V30 3496 H 326.55 1.90317 -4.58359 0
M  V30 3497 H 321.806 1.48034 -5.93208 0
M  V30 3498 H 325.98 1.16138 -6.86648 0
M  V30 3499 H 323.607 0.944403 -7.54311 0
M  V30 3500 N 325.182 1.32811 0.848464 0
M  V30 3501 C 326.13 1.22231 1.97895 0
M  V30 3502 C 327.124 0.125749 1.68933 0
M  V30 3503 O 328.33 0.289083 1.77663 0
M  V30 3504 H 324.705 0.379058 0.649476 0
M  V30 3505 H 326.676 2.17828 2.03945 0
M  V30 3506 C 325.425 0.968572 3.33937 0
M  V30 3507 H 324.748 1.80458 3.56756 0
M  V30 3508 H 326.188 0.934808 4.13567 0
M  V30 3509 C 324.647 -0.328628 3.35293 0
M  V30 3510 O 325.177 -1.33848 3.78745 0
M  V30 3511 N 323.383 -0.352788 2.88451 0
M  V30 3512 H 322.93 0.469541 2.53285 0
M  V30 3513 H 322.888 -1.22057 2.89741 0
M  V30 3514 N 326.66 -1.06551 1.16123 0
M  V30 3515 C 327.908 -1.78947 0.939267 0
M  V30 3516 C 328.229 -1.87532 -0.534476 0
M  V30 3517 O 327.499 -1.38211 -1.38833 0
M  V30 3518 H 326.079 -0.662807 0.344523 0
M  V30 3519 H 328.741 -1.28725 1.46342 0
M  V30 3520 H 327.837 -2.81117 1.35572 0
M  V30 3521 N 328.138 -0.959301 -1.25041 0
M  V30 3522 C 329.385 -0.616611 -1.92884 0
M  V30 3523 C 329.713 0.847036 -1.75087 0
M  V30 3524 O 328.968 1.62374 -1.09239 0
M  V30 3525 C 329.267 -0.927136 -3.45165 0
M  V30 3526 C 328.933 -2.37757 -3.83122 0
M  V30 3527 C 327.595 -2.77402 -3.93194 0
M  V30 3528 C 329.947 -3.31929 -4.01836 0
M  V30 3529 C 327.275 -4.10277 -4.19392 0
M  V30 3530 C 329.627 -4.64423 -4.29528 0
M  V30 3531 C 328.291 -5.03857 -4.37818 0
M  V30 3532 H 327.561 -0.225634 -0.705812 0
M  V30 3533 H 330.208 -1.20921 -1.48493 0
M  V30 3534 H 328.513 -0.252195 -3.90987 0
M  V30 3535 H 330.21 -0.6405 -3.95852 0
M  V30 3536 H 326.8 -2.06013 -3.75841 0
M  V30 3537 H 330.984 -3.02488 -3.93465 0
M  V30 3538 H 326.24 -4.40467 -4.24027 0
M  V30 3539 H 330.414 -5.37369 -4.42953 0
M  V30 3540 H 328.041 -6.06843 -4.57871 0
M  V30 3541 N 329.616 1.39756 -0.72842 0
M  V30 3542 C 330.564 2.32485 -0.0731849 0
M  V30 3543 C 331.558 1.52717 0.733063 0
M  V30 3544 O 332.764 1.68428 0.634988 0
M  V30 3545 H 329.139 0.751984 -0.00486469 0
M  V30 3546 H 331.11 2.85382 -0.871761 0
M  V30 3547 C 329.859 3.37773 0.824908 0
M  V30 3548 H 329.182 3.99227 0.213915 0
M  V30 3549 H 330.622 4.05121 1.25111 0
M  V30 3550 C 329.081 2.74287 1.95622 0
M  V30 3551 O 329.611 2.61618 3.04826 0
M  V30 3552 N 327.817 2.32475 1.74367 0
M  V30 3553 H 327.364 2.4298 0.855494 0
M  V30 3554 H 327.322 1.90337 2.50238 0
M  V30 3555 N 331.094 0.475555 1.50254 0
M  V30 3556 C 332.319 -0.0777042 2.07254 0
M  V30 3557 C 332.744 -1.3235 1.3366 0
M  V30 3558 O 332.102 -1.77152 0.385597 0
M  V30 3559 C 332.15 -0.340169 3.58992 0
M  V30 3560 O 331.254 -1.41982 3.87188 0
M  V30 3561 H 330.595 0.0149556 0.663832 0
M  V30 3562 H 333.125 0.667878 1.93392 0
M  V30 3563 H 333.135 -0.579332 4.03866 0
M  V30 3564 H 331.81 0.570167 4.11973 0
M  V30 3565 H 330.387 -1.16762 3.54148 0
M  V30 3566 N 332.573 -1.56217 0.208337 0
M  V30 3567 C 333.503 -2.22694 -0.702116 0
M  V30 3568 C 334.484 -1.19432 -1.2112 0
M  V30 3569 O 335.669 -1.47978 -1.25762 0
M  V30 3570 C 332.799 -2.8966 -1.9161 0
M  V30 3571 C 331.753 -3.9928 -1.5414 0
M  V30 3572 C 331.079 -4.53476 -2.83308 0
M  V30 3573 C 332.379 -5.17012 -0.741339 0
M  V30 3574 H 334.073 -2.99034 -0.147898 0
M  V30 3575 H 331.619 -1.43831 -0.0696951 0
M  V30 3576 H 333.572 -3.34852 -2.55836 0
M  V30 3577 H 332.296 -2.10746 -2.49507 0
M  V30 3578 H 330.955 -3.54799 -0.922668 0
M  V30 3579 H 330.603 -3.71308 -3.39322 0
M  V30 3580 H 330.303 -5.27451 -2.58976 0
M  V30 3581 H 331.827 -5.01378 -3.485 0
M  V30 3582 H 333.241 -5.58667 -1.28699 0
M  V30 3583 H 331.638 -5.97137 -0.595627 0
M  V30 3584 H 332.708 -4.8423 0.254851 0
M  V30 3585 N 334.051 0.0651679 -1.57465 0
M  V30 3586 C 334.981 1.07693 -2.07182 0
M  V30 3587 C 335.962 1.39962 -0.966673 0
M  V30 3588 O 337.147 1.49475 -1.2398 0
M  V30 3589 C 334.277 2.3885 -2.52127 0
M  V30 3590 C 333.231 2.20917 -3.66579 0
M  V30 3591 C 332.557 3.57515 -3.97601 0
M  V30 3592 C 333.857 1.62493 -4.9638 0
M  V30 3593 H 335.551 0.663199 -2.91962 0
M  V30 3594 H 333.097 0.317569 -1.40455 0
M  V30 3595 H 335.05 3.09928 -2.85522 0
M  V30 3596 H 333.774 2.82215 -1.64384 0
M  V30 3597 H 332.433 1.52279 -3.33477 0
M  V30 3598 H 332.081 3.98463 -3.06979 0
M  V30 3599 H 331.781 3.46353 -4.74672 0
M  V30 3600 H 333.305 4.30013 -4.33499 0
M  V30 3601 H 334.719 2.23445 -5.27963 0
M  V30 3602 H 333.116 1.62009 -5.77818 0
M  V30 3603 H 334.186 0.587041 -4.81333 0
M  V30 3604 N 335.529 1.53961 0.336706 0
M  V30 3605 C 336.477 1.83136 1.43401 0
M  V30 3606 C 337.471 0.702313 1.54156 0
M  V30 3607 O 338.677 0.885765 1.56698 0
M  V30 3608 H 335.052 0.580309 0.478273 0
M  V30 3609 H 337.023 2.74925 1.16012 0
M  V30 3610 C 335.772 2.06385 2.79822 0
M  V30 3611 H 335.095 2.92718 2.72316 0
M  V30 3612 H 336.535 2.30761 3.55704 0
M  V30 3613 C 334.994 0.851414 3.25964 0
M  V30 3614 O 335.524 0.0541904 4.01663 0
M  V30 3615 N 333.73 0.66672 2.82848 0
M  V30 3616 H 333.277 1.31665 2.21409 0
M  V30 3617 H 333.235 -0.143032 3.14074 0
M  V30 3618 N 337.007 -0.598083 1.45811 0
M  V30 3619 C 337.955 -1.72932 1.55555 0
M  V30 3620 C 338.949 -1.63984 0.424921 0
M  V30 3621 O 340.155 -1.69663 0.601205 0
M  V30 3622 H 336.53 -0.571489 0.488779 0
M  V30 3623 H 338.501 -1.61842 2.50699 0
M  V30 3624 C 337.25 -3.11318 1.54843 0
M  V30 3625 H 336.573 -3.18867 2.41172 0
M  V30 3626 H 338.013 -3.90274 1.65717 0
M  V30 3627 C 336.472 -3.3578 0.274427 0
M  V30 3628 O 337.002 -3.9654 -0.641778 0
M  V30 3629 N 335.208 -2.90119 0.167139 0
M  V30 3630 H 334.755 -2.40855 0.913596 0
M  V30 3631 H 334.713 -3.0686 -0.684435 0
M  V30 3632 N 338.485 -1.33259 -0.841409 0
M  V30 3633 C 339.418 -1.1764 -1.95541 0
M  V30 3634 C 340.396 -0.072501 -1.62438 0
M  V30 3635 O 341.58 -0.23427 -1.87039 0
M  V30 3636 C 338.707 -0.803794 -3.29024 0
M  V30 3637 C 337.753 -1.91482 -3.81099 0
M  V30 3638 S 338.586 -3.52538 -4.03085 0
M  V30 3639 C 339.742 -3.17279 -5.39523 0
M  V30 3640 H 339.975 -2.11941 -2.08491 0
M  V30 3641 H 337.508 -1.18072 -0.9949 0
M  V30 3642 H 339.466 -0.595592 -4.06156 0
M  V30 3643 H 338.127 0.120574 -3.13868 0
M  V30 3644 H 337.32 -1.60742 -4.7768 0
M  V30 3645 H 336.922 -2.07956 -3.10854 0
M  V30 3646 H 339.214 -2.67946 -6.22263 0
M  V30 3647 H 340.157 -4.1293 -5.75234 0
M  V30 3648 H 340.565 -2.53943 -5.04156 0
M  V30 3649 N 339.963 1.05934 -1.16686 0
M  V30 3650 C 340.873 2.17014 -0.891183 0
M  V30 3651 C 341.889 1.73453 0.137907 0
M  V30 3652 O 343.065 2.01361 -0.039592 0
M  V30 3653 C 340.13 3.44384 -0.400099 0
M  V30 3654 C 339.191 4.02433 -1.49486 0
M  V30 3655 C 338.424 5.23723 -1.02711 0
M  V30 3656 O 338.647 5.7027 0.121716 0
M  V30 3657 O 337.581 5.7382 -1.81699 0
M  V30 3658 H 341.407 2.43113 -1.82015 0
M  V30 3659 H 338.992 1.15541 -0.947132 0
M  V30 3660 H 340.874 4.21189 -0.133392 0
M  V30 3661 H 339.549 3.19802 0.500817 0
M  V30 3662 H 338.456 3.27102 -1.81535 0
M  V30 3663 H 339.789 4.31317 -2.37121 0
M  V30 3664 N 341.441 0.965919 1.2453 0
M  V30 3665 C 342.371 0.513476 2.27784 0
M  V30 3666 C 343.352 -0.445974 1.6415 0
M  V30 3667 O 344.537 -0.342485 1.91156 0
M  V30 3668 C 341.667 -0.198839 3.4673 0
M  V30 3669 C 340.621 0.676456 4.2262 0
M  V30 3670 C 339.947 -0.167248 5.34438 0
M  V30 3671 C 341.247 1.96017 4.84123 0
M  V30 3672 H 342.941 1.3765 2.65881 0
M  V30 3673 H 340.487 0.663321 1.27813 0
M  V30 3674 H 342.44 -0.526567 4.18097 0
M  V30 3675 H 341.164 -1.0962 3.07654 0
M  V30 3676 H 339.823 0.98743 3.53052 0
M  V30 3677 H 339.471 -1.0647 4.91603 0
M  V30 3678 H 339.171 0.415181 5.86131 0
M  V30 3679 H 340.695 -0.489688 6.08633 0
M  V30 3680 H 342.109 1.69814 5.47573 0
M  V30 3681 H 340.506 2.48918 5.4604 0
M  V30 3682 H 341.576 2.65622 4.05676 0
M  V30 3683 N 342.919 -1.39368 0.735821 0
M  V30 3684 C 344.168 -1.99733 0.281004 0
M  V30 3685 C 344.481 -1.59055 -1.13846 0
M  V30 3686 O 345.687 -2.12262 -1.69284 0
M  V30 3687 C 344.143 -3.57057 0.451462 0
M  V30 3688 C 343.751 -4.06697 1.87886 0
M  V30 3689 C 345.495 -4.2446 0.0584616 0
M  V30 3690 C 343.402 -5.56598 1.99883 0
M  V30 3691 H 342.332 -0.747163 0.101311 0
M  V30 3692 H 344.983 -1.59357 0.909819 0
M  V30 3693 H 343.365 -3.95234 -0.246263 0
M  V30 3694 H 344.539 -3.79853 2.60861 0
M  V30 3695 H 342.854 -3.5196 2.22515 0
M  V30 3696 H 345.451 -5.34549 0.127099 0
M  V30 3697 H 345.794 -4.04444 -0.986433 0
M  V30 3698 H 346.327 -3.9146 0.707374 0
M  V30 3699 H 343.066 -5.81494 3.02564 0
M  V30 3700 H 342.586 -5.85242 1.31346 0
M  V30 3701 H 344.265 -6.22022 1.78039 0
M  V30 3702 N 344.397 -0.483516 -1.5 0
M  V30 3703 C 345.813 -0.138404 -1.58999 0
M  V30 3704 C 346.013 1.35597 -1.4905 0
M  V30 3705 O 345.069 2.13039 -1.35539 0
M  V30 3706 C 346.382 -0.699658 -2.92447 0
M  V30 3707 C 347.93 -0.664195 -3.05872 0
M  V30 3708 C 348.405 -1.20321 -4.41913 0
M  V30 3709 N 349.896 -1.16315 -4.48358 0
M  V30 3710 C 350.631 -1.55058 -5.52037 0
M  V30 3711 N 350.127 -2.01311 -6.62907 0
M  V30 3712 N 351.92 -1.46584 -5.42651 0
M  V30 3713 H 344.071 -1.45529 -1.5471 0
M  V30 3714 H 346.334 -0.60258 -0.731848 0
M  V30 3715 H 346.04 -1.747 -3.05242 0
M  V30 3716 H 345.914 -0.150194 -3.76901 0
M  V30 3717 H 348.301 0.374272 -2.92717 0
M  V30 3718 H 348.382 -1.25061 -2.23144 0
M  V30 3719 H 348.026 -2.24037 -4.55818 0
M  V30 3720 H 347.956 -0.592896 -5.23252 0
M  V30 3721 H 350.447 -0.824058 -3.68806 0
M  V30 3722 H 350.76 -2.2899 -7.38095 0
M  V30 3723 H 349.105 -2.05273 -6.63994 0
M  V30 3724 H 352.296 -1.10281 -4.54924 0
M  V30 3725 H 352.469 -1.77103 -6.23329 0
M  V30 3726 N 345.875 1.56104 -0.216619 0
M  V30 3727 C 346.822 2.2007 0.695531 0
M  V30 3728 C 347.792 1.15471 1.19397 0
M  V30 3729 O 348.977 1.43807 1.25396 0
M  V30 3730 C 346.117 2.88073 1.90021 0
M  V30 3731 C 345.23 4.07253 1.44113 0
M  V30 3732 C 344.365 4.63052 2.603 0
M  V30 3733 C 343.404 5.74545 2.11103 0
M  V30 3734 N 342.541 6.24656 3.20545 0
M  V30 3735 H 347.381 2.97655 0.143327 0
M  V30 3736 H 344.918 1.46982 0.0589934 0
M  V30 3737 H 346.876 3.25681 2.60745 0
M  V30 3738 H 345.506 2.13015 2.42538 0
M  V30 3739 H 344.558 3.75164 0.628999 0
M  V30 3740 H 345.87 4.8783 1.04036 0
M  V30 3741 H 345.024 5.03078 3.39113 0
M  V30 3742 H 343.763 3.81628 3.03663 0
M  V30 3743 H 342.768 5.34027 1.3075 0
M  V30 3744 H 343.993 6.57801 1.68746 0
M  V30 3745 H 341.939 5.46148 3.63399 0
M  V30 3746 H 341.856 7.00343 2.84704 0
M  V30 3747 H 343.124 6.69338 3.99508 0
M  V30 3748 N 347.353 -0.0568162 1.57498 0
M  V30 3749 C 348.602 -0.752001 1.87157 0
M  V30 3750 C 348.915 -1.77978 0.811375 0
M  V30 3751 O 350.121 -2.52559 0.996293 0
M  V30 3752 C 348.577 -1.38844 3.3204 0
M  V30 3753 C 348.185 -0.398456 4.46225 0
M  V30 3754 C 349.929 -2.06512 3.70882 0
M  V30 3755 C 347.836 -1.04166 5.82154 0
M  V30 3756 H 346.766 -0.28461 0.698222 0
M  V30 3757 H 349.417 -0.00561272 1.83499 0
M  V30 3758 H 347.799 -2.1836 3.30356 0
M  V30 3759 H 348.973 0.367977 4.59328 0
M  V30 3760 H 347.288 0.174592 4.16034 0
M  V30 3761 H 349.885 -2.55437 4.6974 0
M  V30 3762 H 350.228 -2.87117 3.01445 0
M  V30 3763 H 350.761 -1.33808 3.7462 0
M  V30 3764 H 347.5 -0.275614 6.5492 0
M  V30 3765 H 347.02 -1.7786 5.72823 0
M  V30 3766 H 348.699 -1.55715 6.27982 0
M  V30 3767 N 348.832 -1.54138 -0.328536 0
M  V30 3768 C 350.062 -1.75807 -1.08516 0
M  V30 3769 C 350.47 -0.50428 -1.82356 0
M  V30 3770 O 349.813 0.534451 -1.75754 0
M  V30 3771 C 349.875 -2.89423 -2.13248 0
M  V30 3772 C 349.539 -4.28504 -1.5885 0
M  V30 3773 C 350.536 -5.09536 -1.03289 0
M  V30 3774 C 348.221 -4.75034 -1.63243 0
M  V30 3775 C 350.215 -6.35206 -0.52845 0
M  V30 3776 C 347.902 -6.00672 -1.12411 0
M  V30 3777 C 348.9 -6.80592 -0.573062 0
M  V30 3778 O 348.588 -8.03867 -0.0723692 0
M  V30 3779 H 348.32 -0.590633 -0.328829 0
M  V30 3780 H 350.874 -2.01819 -0.381868 0
M  V30 3781 H 349.104 -2.5897 -2.87178 0
M  V30 3782 H 350.793 -2.98921 -2.74592 0
M  V30 3783 H 351.559 -4.74745 -0.99206 0
M  V30 3784 H 347.438 -4.12875 -2.05074 0
M  V30 3785 H 350.982 -6.97532 -0.0976774 0
M  V30 3786 H 346.879 -6.34955 -1.162 0
M  V30 3787 H 347.647 -8.18283 -0.188258 0
M  V30 3788 N 350.31 0.590341 -1.46126 0
M  V30 3789 C 351.535 1.37991 -1.54833 0
M  V30 3790 C 351.96 1.87163 -0.187506 0
M  V30 3791 O 351.318 1.61133 0.831008 0
M  V30 3792 C 351.366 2.54867 -2.55098 0
M  V30 3793 O 350.47 3.56061 -2.08073 0
M  V30 3794 H 349.811 0.411265 -0.521303 0
M  V30 3795 H 352.341 0.716819 -1.91632 0
M  V30 3796 H 352.351 3.01886 -2.74461 0
M  V30 3797 H 351.026 2.18429 -3.53923 0
M  V30 3798 H 349.603 3.15574 -1.98664 0
M  V30 3799 N 351.788 1.33704 0.83433 0
M  V30 3800 C 353.016 1.28467 1.62185 0
M  V30 3801 C 353.431 -0.143526 1.88254 0
M  V30 3802 O 352.788 -1.08709 1.4659 0
M  V30 3803 C 352.839 2.06174 2.96942 0
M  V30 3804 O 352.56 3.43422 2.72016 0
M  V30 3805 C 354.061 2.08201 3.91366 0
M  V30 3806 H 351.281 0.4424 0.504503 0
M  V30 3807 H 353.825 1.76145 1.03891 0
M  V30 3808 H 351.98 1.62167 3.51825 0
M  V30 3809 H 352.394 3.83453 3.57861 0
M  V30 3810 H 353.868 2.67017 4.83121 0
M  V30 3811 H 354.345 1.07343 4.2588 0
M  V30 3812 H 354.951 2.52246 3.42421 0
M  V30 3813 N 353.266 -1.05314 1.17247 0
M  V30 3814 C 354.196 -2.1498 0.911362 0
M  V30 3815 C 355.177 -1.69471 -0.146169 0
M  V30 3816 O 356.362 -1.942 0.003812 0
M  V30 3817 C 353.492 -3.4472 0.422528 0
M  V30 3818 C 352.446 -4.03789 1.4191 0
M  V30 3819 C 351.772 -5.28858 0.788274 0
M  V30 3820 C 353.072 -4.41418 2.7919 0
M  V30 3821 H 354.766 -2.3708 1.82848 0
M  V30 3822 H 352.312 -1.13938 0.880569 0
M  V30 3823 H 354.265 -4.20787 0.227289 0
M  V30 3824 H 352.989 -3.22269 -0.530123 0
M  V30 3825 H 351.648 -3.2979 1.60106 0
M  V30 3826 H 351.296 -5.02709 -0.171173 0
M  V30 3827 H 350.996 -5.69338 1.45353 0
M  V30 3828 H 352.52 -6.07612 0.603282 0
M  V30 3829 H 353.934 -5.08524 2.64719 0
M  V30 3830 H 352.331 -4.92913 3.42282 0
M  V30 3831 H 353.401 -3.51819 3.33693 0
M  V30 3832 N 354.744 -0.972509 -1.24016 0
M  V30 3833 C 355.707 -0.511403 -2.23422 0
M  V30 3834 C 356.707 0.394679 -1.55881 0
M  V30 3835 O 357.897 0.189469 -1.73167 0
M  V30 3836 C 355.029 0.258769 -3.39916 0
M  V30 3837 H 356.222 -1.39024 -2.6573 0
M  V30 3838 H 353.775 -0.757585 -1.36713 0
M  V30 3839 H 354.51 1.1545 -3.03054 0
M  V30 3840 H 354.295 -0.391522 -3.9014 0
M  V30 3841 H 355.785 0.570244 -4.13688 0
M  V30 3842 N 356.222 1.38976 -0.743202 0
M  V30 3843 C 357.47 1.99948 -0.29417 0
M  V30 3844 C 357.791 1.59279 1.12495 0
M  V30 3845 O 357.061 0.844808 1.76748 0
M  V30 3846 H 355.641 0.739473 -0.105774 0
M  V30 3847 H 358.303 1.699 -0.954986 0
M  V30 3848 H 357.399 3.10142 -0.349056 0
M  V30 3849 N 357.7 0.491464 1.49741 0
M  V30 3850 C 358.928 -0.0535151 2.06831 0
M  V30 3851 C 359.343 -1.31683 1.35296 0
M  V30 3852 O 358.7 -1.77402 0.42836 0
M  V30 3853 C 358.751 -0.320835 3.60073 0
M  V30 3854 O 358.472 0.892394 4.28915 0
M  V30 3855 C 359.973 -0.910519 4.33848 0
M  V30 3856 H 357.193 0.0161909 0.670805 0
M  V30 3857 H 359.737 0.68609 1.92647 0
M  V30 3858 H 357.892 -1.0104 3.73991 0
M  V30 3859 H 358.306 0.649401 5.20464 0
M  V30 3860 H 359.78 -1.04721 5.41976 0
M  V30 3861 H 360.257 -1.90589 3.95692 0
M  V30 3862 H 360.863 -0.258712 4.24512 0
M  V30 3863 N 359.178 -1.55987 0.224894 0
M  V30 3864 C 360.594 -1.59066 -0.130426 0
M  V30 3865 C 360.794 -1.24176 -1.5869 0
M  V30 3866 O 359.85 -0.978592 -2.32766 0
M  V30 3867 C 361.163 -3.00042 0.198883 0
M  V30 3868 C 362.711 -3.1268 0.141391 0
M  V30 3869 C 363.186 -4.55839 0.444422 0
M  V30 3870 N 364.677 -4.6152 0.394115 0
M  V30 3871 C 365.412 -5.70231 0.602038 0
M  V30 3872 N 364.908 -6.87291 0.871914 0
M  V30 3873 N 366.701 -5.59555 0.534245 0
M  V30 3874 H 358.852 -1.76941 1.17497 0
M  V30 3875 H 361.115 -0.822604 0.471197 0
M  V30 3876 H 360.821 -3.30234 1.2099 0
M  V30 3877 H 360.695 -3.74075 -0.484535 0
M  V30 3878 H 363.082 -2.82283 -0.860265 0
M  V30 3879 H 363.163 -2.40969 0.858335 0
M  V30 3880 H 362.807 -4.86954 1.44353 0
M  V30 3881 H 362.737 -5.2578 -0.293752 0
M  V30 3882 H 365.228 -3.77405 0.193356 0
M  V30 3883 H 365.541 -7.66058 1.01858 0
M  V30 3884 H 363.886 -6.89028 0.909145 0
M  V30 3885 H 367.077 -4.6698 0.323612 0
M  V30 3886 H 367.25 -6.44211 0.699693 0
M  V30 3887 N 360.656 0.0484629 -1.57525 0
M  V30 3888 C 361.603 1.05504 -2.05275 0
M  V30 3889 C 362.573 1.37084 -0.937927 0
M  V30 3890 O 363.758 1.47754 -1.2072 0
M  V30 3891 C 360.898 2.35676 -2.52093 0
M  V30 3892 C 360.011 2.10423 -3.77288 0
M  V30 3893 C 359.146 3.34327 -4.12794 0
M  V30 3894 C 358.185 3.04542 -5.30962 0
M  V30 3895 N 357.322 4.20841 -5.61994 0
M  V30 3896 H 362.162 0.640885 -2.91027 0
M  V30 3897 H 359.699 0.304854 -1.43906 0
M  V30 3898 H 361.657 3.11709 -2.77297 0
M  V30 3899 H 360.287 2.7485 -1.69285 0
M  V30 3900 H 359.339 1.24976 -3.59284 0
M  V30 3901 H 360.651 1.84438 -4.63448 0
M  V30 3902 H 359.805 4.1874 -4.39024 0
M  V30 3903 H 358.544 3.63408 -3.25247 0
M  V30 3904 H 357.549 2.18528 -5.04505 0
M  V30 3905 H 358.774 2.76758 -6.20146 0
M  V30 3906 H 356.72 4.4991 -4.77406 0
M  V30 3907 H 356.637 3.98212 -6.42622 0
M  V30 3908 H 357.905 5.06184 -5.92789 0
M  V30 3909 N 362.134 1.5431 0.320358 0
M  V30 3910 C 363.411 1.63322 1.07635 0
M  V30 3911 C 363.791 0.46912 2.05821 0
M  V30 3912 O 363.139 -0.536274 2.22118 0
M  V30 3913 C 363.349 3.00465 1.77544 0
M  V30 3914 C 364.697 3.56621 2.30449 0
M  V30 3915 O 365.721 3.02791 1.87606 0
M  V30 3916 O 364.58 4.5083 3.08892 0
M  V30 3917 H 361.674 0.661502 0.496331 0
M  V30 3918 H 364.22 1.66656 0.319992 0
M  V30 3919 H 362.992 3.76629 1.06143 0
M  V30 3920 H 362.615 3.00824 2.59982 0
M  V30 3921 N 363.613 -0.582584 1.46437 0
M  V30 3922 C 364.859 -1.34278 1.51978 0
M  V30 3923 C 365.192 -1.93446 0.170973 0
M  V30 3924 O 364.467 -1.76481 -0.817608 0
M  V30 3925 C 364.75 -2.47203 2.61845 0
M  V30 3926 C 364.603 -1.93069 4.06257 0
M  V30 3927 C 365.922 -3.49247 2.67795 0
M  V30 3928 H 363.041 -0.486876 0.553282 0
M  V30 3929 H 365.683 -0.654437 1.78374 0
M  V30 3930 H 363.833 -3.0592 2.39469 0
M  V30 3931 H 365.505 -1.38808 4.3992 0
M  V30 3932 H 363.748 -1.23898 4.1573 0
M  V30 3933 H 364.419 -2.74586 4.7886 0
M  V30 3934 H 366.895 -3.00411 2.8791 0
M  V30 3935 H 365.771 -4.25719 3.46489 0
M  V30 3936 H 366.032 -4.06482 1.73852 0
M  V30 3937 N 365.091 -1.34144 -0.827227 0
M  V30 3938 C 366.001 -1.27428 -1.96975 0
M  V30 3939 C 367.017 -0.182728 -1.73038 0
M  V30 3940 O 368.193 -0.408426 -1.97215 0
M  V30 3941 C 365.258 -1.02526 -3.31194 0
M  V30 3942 C 364.319 -2.20796 -3.68168 0
M  V30 3943 C 363.552 -1.97073 -4.95982 0
M  V30 3944 O 363.775 -0.926822 -5.6282 0
M  V30 3945 O 362.709 -2.83912 -5.30733 0
M  V30 3946 H 366.535 -2.23537 -2.05584 0
M  V30 3947 H 364.12 -1.14307 -0.961989 0
M  V30 3948 H 366.002 -0.904026 -4.11589 0
M  V30 3949 H 364.677 -0.0945389 -3.23562 0
M  V30 3950 H 363.584 -2.38477 -2.88235 0
M  V30 3951 H 364.917 -3.12243 -3.8048 0
M  V30 3952 N 366.569 1.04691 -1.17803 0
M  V30 3953 C 367.815 1.78045 -0.970969 0
M  V30 3954 C 368.148 1.87686 0.498751 0
M  V30 3955 O 367.423 1.38035 1.37027 0
M  V30 3956 C 367.706 3.2166 -1.61884 0
M  V30 3957 C 367.559 3.20001 -3.161 0
M  V30 3958 C 368.878 4.1962 -1.3269 0
M  V30 3959 H 365.997 0.64633 -0.354155 0
M  V30 3960 H 368.639 1.22333 -1.45378 0
M  V30 3961 H 366.789 3.69232 -1.20831 0
M  V30 3962 H 368.461 2.80467 -3.66246 0
M  V30 3963 H 366.704 2.58203 -3.48588 0
M  V30 3964 H 367.375 4.21386 -3.56564 0
M  V30 3965 H 369.851 3.80567 -1.68249 0
M  V30 3966 H 368.727 5.18339 -1.80599 0
M  V30 3967 H 368.988 4.414 -0.248622 0
M  V30 3968 N 368.047 0.979072 1.23499 0
M  V30 3969 C 369.275 0.665202 1.95915 0
M  V30 3970 C 369.69 -0.767571 1.72493 0
M  V30 3971 O 369.047 -1.51635 1.01554 0
M  V30 3972 C 369.098 0.944438 3.48945 0
M  V30 3973 O 368.819 2.3209 3.71572 0
M  V30 3974 C 370.32 0.646336 4.38563 0
M  V30 3975 H 367.54 0.247218 0.623798 0
M  V30 3976 H 370.084 1.31009 1.57025 0
M  V30 3977 H 368.239 0.345575 3.85856 0
M  V30 3978 H 368.653 2.40957 4.65876 0
M  V30 3979 H 370.127 0.892091 5.44744 0
M  V30 3980 H 370.604 -0.419575 4.37191 0
M  V30 3981 H 371.21 1.22562 4.07258 0
M  V30 3982 N 369.525 -1.3858 0.750561 0
M  V30 3983 C 370.472 -2.30483 0.120835 0
M  V30 3984 C 371.442 -1.50022 -0.712923 0
M  V30 3985 O 372.627 -1.78662 -0.669676 0
M  V30 3986 C 369.767 -3.36431 -0.768666 0
M  V30 3987 C 368.88 -4.31927 0.0793922 0
M  V30 3988 C 368.015 -5.24944 -0.81283 0
M  V30 3989 C 367.054 -6.12088 0.0390447 0
M  V30 3990 N 366.191 -6.97412 -0.809969 0
M  V30 3991 H 371.031 -2.83761 0.91015 0
M  V30 3992 H 368.568 -1.39707 0.460463 0
M  V30 3993 H 370.526 -3.96462 -1.29898 0
M  V30 3994 H 369.156 -2.8457 -1.5238 0
M  V30 3995 H 368.208 -3.73382 0.727303 0
M  V30 3996 H 369.52 -4.93319 0.737401 0
M  V30 3997 H 368.674 -5.90078 -1.41042 0
M  V30 3998 H 367.413 -4.63911 -1.50458 0
M  V30 3999 H 366.418 -5.45952 0.649328 0
M  V30 4000 H 367.643 -6.75189 0.727809 0
M  V30 4001 H 365.589 -6.38931 -1.48672 0
M  V30 4002 H 365.506 -7.55712 -0.208789 0
M  V30 4003 H 366.774 -7.66959 -1.39263 0
M  V30 4004 N 371.003 -0.499398 -1.49478 0
M  V30 4005 C 371.913 0.284489 -2.32869 0
M  V30 4006 C 372.929 0.968885 -1.44529 0
M  V30 4007 O 374.105 0.95062 -1.77553 0
M  V30 4008 C 371.17 1.33594 -3.19928 0
M  V30 4009 C 370.231 0.665149 -4.24116 0
M  V30 4010 C 369.464 1.6665 -5.07014 0
M  V30 4011 O 369.687 2.89618 -4.91404 0
M  V30 4012 O 368.621 1.22271 -5.8935 0
M  V30 4013 H 372.447 -0.39802 -3.01081 0
M  V30 4014 H 370.032 -0.260758 -1.47107 0
M  V30 4015 H 371.914 1.94431 -3.73864 0
M  V30 4016 H 370.589 2.0014 -2.54412 0
M  V30 4017 H 369.496 0.0170769 -3.74096 0
M  V30 4018 H 370.829 0.0421555 -4.92182 0
M  V30 4019 N 372.481 1.55866 -0.233164 0
M  V30 4020 C 373.391 2.24431 0.683217 0
M  V30 4021 C 374.407 1.2558 1.2044 0
M  V30 4022 O 375.583 1.58422 1.24356 0
M  V30 4023 C 372.648 2.91979 1.86947 0
M  V30 4024 C 371.709 4.06204 1.38912 0
M  V30 4025 C 370.942 4.70522 2.51883 0
M  V30 4026 O 371.165 4.33865 3.70293 0
M  V30 4027 O 370.099 5.59296 2.22423 0
M  V30 4028 H 373.925 3.03426 0.129059 0
M  V30 4029 H 371.51 1.494 -0.0022283 0
M  V30 4030 H 373.392 3.34573 2.56201 0
M  V30 4031 H 372.067 2.15935 2.41151 0
M  V30 4032 H 370.974 3.68155 0.664259 0
M  V30 4033 H 372.307 4.84025 0.893328 0
M  V30 4034 N 373.959 -0.0401083 1.57549 0
M  V30 4035 C 375.206 -0.733125 1.88763 0
M  V30 4036 C 375.534 -1.75946 0.829058 0
M  V30 4037 O 374.789 -1.94949 -0.171323 0
M  V30 4038 C 375.088 -1.44902 3.26708 0
M  V30 4039 C 374.754 -0.559707 4.47413 0
M  V30 4040 C 373.416 -0.314731 4.8017 0
M  V30 4041 C 375.768 0.0549743 5.21171 0
M  V30 4042 C 373.096 0.553886 5.8408 0
M  V30 4043 C 375.448 0.911229 6.26003 0
M  V30 4044 C 374.112 1.16577 6.57241 0
M  V30 4045 H 373.382 -0.268269 0.690733 0
M  V30 4046 H 376.029 0.00679408 1.91499 0
M  V30 4047 H 374.334 -2.26197 3.1991 0
M  V30 4048 H 376.031 -1.99058 3.48105 0
M  V30 4049 H 372.621 -0.760793 4.21794 0
M  V30 4050 H 376.805 -0.121344 4.96152 0
M  V30 4051 H 372.061 0.759518 6.06664 0
M  V30 4052 H 376.235 1.3941 6.82303 0
M  V30 4053 H 373.862 1.84058 7.37582 0
M  V30 4054 N 375.437 -1.54477 -0.31217 0
M  V30 4055 C 376.683 -1.73483 -1.0503 0
M  V30 4056 C 377.016 -0.513125 -1.87298 0
M  V30 4057 O 376.291 0.489864 -1.8823 0
M  V30 4058 C 376.574 -3.01723 -1.96558 0
M  V30 4059 C 376.427 -4.3417 -1.17545 0
M  V30 4060 C 377.746 -3.25772 -2.95907 0
M  V30 4061 H 374.865 -0.631222 -0.380432 0
M  V30 4062 H 377.507 -1.87184 -0.325932 0
M  V30 4063 H 375.657 -2.90174 -2.58324 0
M  V30 4064 H 377.329 -4.5762 -0.581513 0
M  V30 4065 H 375.572 -4.31159 -0.477925 0
M  V30 4066 H 376.243 -5.20143 -1.84811 0
M  V30 4067 H 378.719 -3.36857 -2.44267 0
M  V30 4068 H 377.595 -4.16838 -3.57123 0
M  V30 4069 H 377.856 -2.43537 -3.68974 0
M  V30 4070 N 376.915 0.57481 -1.46744 0
M  V30 4071 C 377.845 1.69337 -1.60771 0
M  V30 4072 C 378.826 1.63825 -0.457736 0
M  V30 4073 O 380.011 1.8172 -0.684947 0
M  V30 4074 C 377.141 3.0798 -1.60517 0
M  V30 4075 C 376.095 3.28327 -2.74564 0
M  V30 4076 C 375.421 4.67578 -2.59373 0
M  V30 4077 C 376.721 3.15398 -4.16319 0
M  V30 4078 H 378.415 1.57853 -2.54407 0
M  V30 4079 H 375.961 0.75799 -1.22436 0
M  V30 4080 H 377.914 3.86061 -1.68923 0
M  V30 4081 H 376.638 3.20381 -0.634305 0
M  V30 4082 H 375.297 2.52649 -2.65639 0
M  V30 4083 H 374.945 4.76755 -1.60353 0
M  V30 4084 H 374.645 4.82144 -3.35873 0
M  V30 4085 H 376.169 5.47817 -2.69682 0
M  V30 4086 H 377.583 3.83315 -4.26313 0
M  V30 4087 H 375.98 3.41482 -4.93468 0
M  V30 4088 H 377.05 2.12372 -4.3592 0
M  V30 4089 N 378.394 1.34581 0.820102 0
M  V30 4090 C 379.357 1.2628 1.91275 0
M  V30 4091 C 380.357 0.177344 1.59819 0
M  V30 4092 O 381.547 0.430156 1.68806 0
M  V30 4093 C 378.679 0.950327 3.27386 0
M  V30 4094 H 379.872 2.23421 2.00057 0
M  V30 4095 H 377.425 1.1891 1.0144 0
M  V30 4096 H 378.16 -0.0177938 3.24295 0
M  V30 4097 H 377.945 1.73549 3.51601 0
M  V30 4098 H 379.435 0.917492 4.07396 0
M  V30 4099 N 379.872 -1.04064 1.18357 0
M  V30 4100 C 380.835 -2.10243 0.912707 0
M  V30 4101 C 381.835 -1.60477 -0.101928 0
M  V30 4102 O 383.025 -1.73703 0.131517 0
M  V30 4103 C 380.157 -3.38893 0.369387 0
M  V30 4104 H 381.35 -2.35706 1.85426 0
M  V30 4105 H 378.903 -1.20489 0.995594 0
M  V30 4106 H 379.638 -3.19094 -0.578776 0
M  V30 4107 H 379.423 -3.76331 1.1008 0
M  V30 4108 H 380.913 -4.17128 0.198575 0
M  V30 4109 N 381.35 -0.985608 -1.22978 0
M  V30 4110 C 382.282 -0.488154 -2.23941 0
M  V30 4111 C 383.295 0.41282 -1.57479 0
M  V30 4112 O 384.484 0.216121 -1.77187 0
M  V30 4113 C 381.584 0.312611 -3.37455 0
M  V30 4114 C 380.757 -0.582741 -4.33501 0
M  V30 4115 C 379.816 0.165064 -5.25941 0
M  V30 4116 O 378.842 -0.447077 -5.67442 0
M  V30 4117 N 380.044 1.44953 -5.62111 0
M  V30 4118 H 382.809 -1.3563 -2.67254 0
M  V30 4119 H 380.37 -0.859477 -1.37203 0
M  V30 4120 H 382.362 0.821357 -3.96277 0
M  V30 4121 H 380.932 1.0818 -2.93285 0
M  V30 4122 H 380.152 -1.27225 -3.73105 0
M  V30 4123 H 381.44 -1.19275 -4.94622 0
M  V30 4124 H 380.838 1.9683 -5.30353 0
M  V30 4125 H 379.395 1.90361 -6.23383 0
M  V30 4126 N 382.828 1.3818 -0.7579 0
M  V30 4127 C 383.775 2.30416 -0.133057 0
M  V30 4128 C 384.745 1.50398 0.704957 0
M  V30 4129 O 385.93 1.79014 0.660192 0
M  V30 4130 C 383.07 3.36834 0.750813 0
M  V30 4131 C 382.183 4.31879 -0.102297 0
M  V30 4132 C 381.318 5.25368 0.784979 0
M  V30 4133 C 380.357 6.12058 -0.0715046 0
M  V30 4134 N 379.494 6.97832 0.772972 0
M  V30 4135 H 384.334 2.83274 -0.925186 0
M  V30 4136 H 381.871 1.39461 -0.467866 0
M  V30 4137 H 383.829 3.97145 1.27794 0
M  V30 4138 H 382.459 2.85374 1.50868 0
M  V30 4139 H 381.511 3.72991 -0.747095 0
M  V30 4140 H 382.823 4.92921 -0.763552 0
M  V30 4141 H 381.977 5.90818 1.37911 0
M  V30 4142 H 380.716 4.64703 1.47996 0
M  V30 4143 H 379.721 5.456 -0.678272 0
M  V30 4144 H 380.946 6.74793 -0.763606 0
M  V30 4145 H 378.892 6.3971 1.45282 0
M  V30 4146 H 378.809 7.55812 0.168709 0
M  V30 4147 H 380.077 7.67687 1.35194 0
M  V30 4148 N 384.306 0.507319 1.49211 0
M  V30 4149 C 385.553 -0.0349529 2.0247 0
M  V30 4150 C 385.881 -1.36409 1.38647 0
M  V30 4151 O 385.136 -1.88841 0.513566 0
M  V30 4152 C 385.435 -0.229513 3.56662 0
M  V30 4153 C 385.101 1.02241 4.39156 0
M  V30 4154 C 383.763 1.36557 4.61417 0
M  V30 4155 C 386.115 1.85428 4.871 0
M  V30 4156 C 383.443 2.53999 5.28868 0
M  V30 4157 C 385.795 3.02028 5.55843 0
M  V30 4158 C 384.459 3.36717 5.76349 0
M  V30 4159 H 383.729 -0.0127902 0.74089 0
M  V30 4160 H 386.376 0.668756 1.79443 0
M  V30 4161 H 384.681 -1.0158 3.78403 0
M  V30 4162 H 386.378 -0.663641 3.9547 0
M  V30 4163 H 382.968 0.745124 4.22073 0
M  V30 4164 H 387.152 1.6023 4.69723 0
M  V30 4165 H 382.408 2.81105 5.42946 0
M  V30 4166 H 386.582 3.66808 5.91967 0
M  V30 4167 H 384.209 4.27821 6.28389 0
M  V30 4168 N 385.784 -1.5574 0.241426 0
M  V30 4169 C 387.032 -1.98417 -0.384075 0
M  V30 4170 C 387.353 -1.13078 -1.58866 0
M  V30 4171 O 386.623 -0.212312 -1.94746 0
M  V30 4172 H 385.203 -0.732813 -0.144894 0
M  V30 4173 H 387.865 -1.9193 0.338943 0
M  V30 4174 H 386.961 -3.04219 -0.696939 0
M  V30 4175 N 387.262 0.0317525 -1.57568 0
M  V30 4176 C 388.194 1.06073 -2.03178 0
M  V30 4177 C 389.207 1.32627 -0.944132 0
M  V30 4178 O 390.396 1.30162 -1.22148 0
M  V30 4179 C 387.496 2.40297 -2.38978 0
M  V30 4180 C 386.669 2.33137 -3.70089 0
M  V30 4181 C 385.728 3.49787 -3.9311 0
M  V30 4182 O 384.754 3.29403 -4.64201 0
M  V30 4183 N 385.956 4.71562 -3.38541 0
M  V30 4184 H 388.721 0.672006 -2.92069 0
M  V30 4185 H 386.282 0.219745 -1.60402 0
M  V30 4186 H 388.274 3.1705 -2.51518 0
M  V30 4187 H 386.844 2.71024 -1.55771 0
M  V30 4188 H 386.064 1.415 -3.67928 0
M  V30 4189 H 387.352 2.25493 -4.56104 0
M  V30 4190 H 386.75 4.91024 -2.80912 0
M  V30 4191 H 385.307 5.45689 -3.56464 0
M  V30 4192 N 388.74 1.54641 0.303973 0
M  V30 4193 C 389.986 1.74038 1.04109 0
M  V30 4194 C 390.319 0.523051 1.87024 0
M  V30 4195 O 389.594 -0.479874 1.88487 0
M  V30 4196 C 389.877 3.02761 1.94955 0
M  V30 4197 C 389.73 4.34787 1.1524 0
M  V30 4198 C 391.049 3.27336 2.94175 0
M  V30 4199 H 388.168 0.63323 0.377079 0
M  V30 4200 H 390.81 1.87354 0.316001 0
M  V30 4201 H 388.96 2.9154 2.56782 0
M  V30 4202 H 390.632 4.57922 0.557236 0
M  V30 4203 H 388.875 4.31407 0.455053 0
M  V30 4204 H 389.546 5.21116 1.8205 0
M  V30 4205 H 392.022 3.38148 2.42477 0
M  V30 4206 H 390.898 4.18726 3.54908 0
M  V30 4207 H 391.159 2.45491 3.67677 0
M  V30 4208 N 390.218 -0.567019 1.47046 0
M  V30 4209 C 391.446 -1.35027 1.56765 0
M  V30 4210 C 391.861 -1.8758 0.214316 0
M  V30 4211 O 391.218 -1.64471 -0.790919 0
M  V30 4212 C 391.269 -2.52698 2.58507 0
M  V30 4213 O 390.99 -2.0232 3.88585 0
M  V30 4214 C 392.491 -3.45043 2.78316 0
M  V30 4215 H 389.711 -0.41195 0.529658 0
M  V30 4216 H 392.255 -0.687832 1.92585 0
M  V30 4217 H 390.41 -3.149 2.25648 0
M  V30 4218 H 390.824 -2.79068 4.44096 0
M  V30 4219 H 392.298 -4.2405 3.53391 0
M  V30 4220 H 392.775 -3.97971 1.85784 0
M  V30 4221 H 393.381 -2.88665 3.12334 0
M  V30 4222 N 391.696 -1.35014 -0.812953 0
M  V30 4223 C 393.107 -1.25035 -1.38648 0
M  V30 4224 C 393.458 0.119967 -1.95833 0
M  V30 4225 O 392.583 1.02069 -1.90816 0
M  V30 4226 C 393.178 -2.26394 -2.52054 0
M  V30 4227 C 391.737 -2.20175 -3.05287 0
M  V30 4228 C 390.884 -2.12451 -1.78213 0
M  V30 4229 H 393.835 -1.46235 -0.616516 0
M  V30 4230 H 393.856 -1.88672 -3.30429 0
M  V30 4231 H 393.368 -3.26116 -2.10404 0
M  V30 4232 H 391.469 -1.23841 -3.51417 0
M  V30 4233 H 391.582 -3.11863 -3.63701 0
M  V30 4234 H 389.946 -1.58328 -1.9951 0
M  V30 4235 H 390.729 -3.14024 -1.38723 0
M  V30 4236 N 393.175 1.03435 -1.18907 0
M  V30 4237 C 394.108 2.11162 -0.86521 0
M  V30 4238 C 395.086 1.6165 0.175473 0
M  V30 4239 O 396.27 1.88425 0.0530129 0
M  V30 4240 C 393.397 3.37423 -0.293868 0
M  V30 4241 C 392.443 4.05795 -1.31274 0
M  V30 4242 S 393.276 4.52027 -2.8711 0
M  V30 4243 C 394.432 5.81513 -2.31504 0
M  V30 4244 H 394.665 2.38308 -1.77754 0
M  V30 4245 H 392.198 1.16295 -1.01562 0
M  V30 4246 H 394.156 4.1049 0.0292572 0
M  V30 4247 H 392.817 3.0838 0.596682 0
M  V30 4248 H 392.01 4.96574 -0.86198 0
M  V30 4249 H 391.612 3.38874 -1.58242 0
M  V30 4250 H 393.904 6.55784 -1.70157 0
M  V30 4251 H 394.847 6.3136 -3.20608 0
M  V30 4252 H 395.255 5.36921 -1.74286 0
M  V30 4253 N 394.653 0.992116 1.22453 0
M  V30 4254 C 395.563 0.55065 2.28046 0
M  V30 4255 C 396.579 -0.400189 1.69335 0
M  V30 4256 O 397.755 -0.267215 1.99619 0
M  V30 4257 C 394.82 -0.128496 3.46462 0
M  V30 4258 C 393.881 0.865208 4.20491 0
M  V30 4259 C 393.114 0.218377 5.33253 0
M  V30 4260 O 393.337 -0.987894 5.6178 0
M  V30 4261 O 392.271 0.922845 5.94783 0
M  V30 4262 H 396.097 1.4291 2.67975 0
M  V30 4263 H 393.682 0.760326 1.28606 0
M  V30 4264 H 395.564 -0.508947 4.18315 0
M  V30 4265 H 394.239 -0.981526 3.0846 0
M  V30 4266 H 393.146 1.29658 3.50913 0
M  V30 4267 H 394.479 1.68741 4.62371 0
M  V30 4268 N 396.131 -1.37776 0.765217 0
M  V30 4269 C 397.377 -2.00145 0.327072 0
M  V30 4270 C 397.71 -1.60607 -1.09175 0
M  V30 4271 O 396.985 -0.849127 -1.74986 0
M  V30 4272 C 397.268 -3.57109 0.46319 0
M  V30 4273 C 397.121 -4.06576 1.92395 0
M  V30 4274 C 398.44 -4.39888 -0.136473 0
M  V30 4275 H 395.559 -0.727113 0.120316 0
M  V30 4276 H 398.201 -1.63549 0.967039 0
M  V30 4277 H 396.351 -3.88414 -0.0816358 0
M  V30 4278 H 398.023 -3.85864 2.52798 0
M  V30 4279 H 396.266 -3.59011 2.43503 0
M  V30 4280 H 396.937 -5.15639 1.97028 0
M  V30 4281 H 399.413 -4.14803 0.328317 0
M  V30 4282 H 398.289 -5.48899 -0.0110582 0
M  V30 4283 H 398.55 -4.24758 -1.22608 0
M  V30 4284 N 397.609 -0.515225 -1.4894 0
M  V30 4285 C 398.886 0.0879088 -1.95402 0
M  V30 4286 C 399.266 1.52745 -1.45712 0
M  V30 4287 O 398.614 2.18238 -0.677093 0
M  V30 4288 C 398.824 -0.0141055 -3.48997 0
M  V30 4289 C 400.172 0.152646 -4.24326 0
M  V30 4290 O 401.196 0.0604025 -3.56149 0
M  V30 4291 O 400.055 0.34384 -5.45417 0
M  V30 4292 H 397.149 0.0874636 -0.822362 0
M  V30 4293 H 399.695 -0.578775 -1.59525 0
M  V30 4294 H 398.467 -1.01745 -3.77841 0
M  V30 4295 H 398.09 0.692091 -3.9153 0
M  V30 4296 N 399.087 1.5561 -0.249682 0
M  V30 4297 C 400.336 1.98187 0.37479 0
M  V30 4298 C 400.649 1.14111 1.58865 0
M  V30 4299 O 401.855 1.46714 2.28445 0
M  V30 4300 C 400.311 3.52661 0.718192 0
M  V30 4301 C 399.919 4.45481 -0.474428 0
M  V30 4302 C 401.663 4.03888 1.3067 0
M  V30 4303 C 399.57 5.91303 -0.107026 0
M  V30 4304 H 398.5 0.740159 0.143808 0
M  V30 4305 H 401.151 1.80125 -0.350336 0
M  V30 4306 H 399.533 3.66429 1.50152 0
M  V30 4307 H 400.707 4.43473 -1.25172 0
M  V30 4308 H 399.022 4.04751 -0.978052 0
M  V30 4309 H 401.619 5.10358 1.59496 0
M  V30 4310 H 401.962 3.51401 2.23211 0
M  V30 4311 H 402.495 3.93457 0.586211 0
M  V30 4312 H 399.234 6.47833 -0.999642 0
M  V30 4313 H 398.754 5.9644 0.634013 0
M  V30 4314 H 400.433 6.46258 0.309807 0
M  V30 4315 N 400.565 -0.0233959 1.57583 0
M  V30 4316 C 401.495 -1.02162 2.09965 0
M  V30 4317 C 402.476 -1.3735 1.00344 0
M  V30 4318 O 403.661 -1.46135 1.27899 0
M  V30 4319 C 400.791 -2.32081 2.58371 0
M  V30 4320 C 399.745 -2.1112 3.72307 0
M  V30 4321 C 399.071 -3.46848 4.06941 0
M  V30 4322 C 400.371 -1.49276 5.00514 0
M  V30 4323 H 402.065 -0.585557 2.93618 0
M  V30 4324 H 399.611 -0.280218 1.41247 0
M  V30 4325 H 401.564 -3.02249 2.93639 0
M  V30 4326 H 400.288 -2.77758 1.71808 0
M  V30 4327 H 398.947 -1.43384 3.37397 0
M  V30 4328 H 398.595 -3.90184 3.17436 0
M  V30 4329 H 398.295 -3.33646 4.83688 0
M  V30 4330 H 399.819 -4.18369 4.44747 0
M  V30 4331 H 401.233 -2.09368 5.33702 0
M  V30 4332 H 399.63 -1.46632 5.8191 0
M  V30 4333 H 400.7 -0.459217 4.82721 0
M  V30 4334 N 402.043 -1.548 -0.295768 0
M  V30 4335 C 403.29 -1.74329 -1.03032 0
M  V30 4336 C 403.618 -0.531915 -1.87085 0
M  V30 4337 O 402.873 0.486052 -1.89568 0
M  V30 4338 C 403.172 -2.98797 -1.961 0
M  V30 4339 C 402.838 -4.32356 -1.2798 0
M  V30 4340 C 401.5 -4.68661 -1.09135 0
M  V30 4341 C 403.852 -5.15128 -0.793243 0
M  V30 4342 C 401.18 -5.85312 -0.403269 0
M  V30 4343 C 403.532 -6.32488 -0.118854 0
M  V30 4344 C 402.196 -6.6745 0.0815043 0
M  V30 4345 H 401.466 -0.637916 -0.37702 0
M  V30 4346 H 404.113 -1.8906 -0.304696 0
M  V30 4347 H 402.418 -2.78869 -2.75207 0
M  V30 4348 H 404.115 -3.11102 -2.53015 0
M  V30 4349 H 400.705 -4.03808 -1.43655 0
M  V30 4350 H 404.889 -4.87575 -0.92653 0
M  V30 4351 H 400.145 -6.1094 -0.237098 0
M  V30 4352 H 404.319 -6.95892 0.266035 0
M  V30 4353 H 401.946 -7.57695 0.616685 0
M  V30 4354 N 403.521 0.559213 -1.47345 0
M  V30 4355 C 404.453 1.68161 -1.55738 0
M  V30 4356 C 405.466 1.56636 -0.443744 0
M  V30 4357 O 406.655 1.6363 -0.713258 0
M  V30 4358 C 403.755 3.06611 -1.4437 0
M  V30 4359 C 402.928 3.4391 -2.70268 0
M  V30 4360 C 401.987 4.61515 -2.52765 0
M  V30 4361 O 401.013 4.66197 -3.26572 0
M  V30 4362 N 402.215 5.57883 -1.6046 0
M  V30 4363 H 404.98 1.61408 -2.52522 0
M  V30 4364 H 402.541 0.7458 -1.43699 0
M  V30 4365 H 404.533 3.83117 -1.30398 0
M  V30 4366 H 403.103 3.07602 -0.556766 0
M  V30 4367 H 402.323 2.56873 -2.99015 0
M  V30 4368 H 403.611 3.65605 -3.53851 0
M  V30 4369 H 403.009 5.56855 -0.996422 0
M  V30 4370 H 401.566 6.33723 -1.52441 0
M  V30 4371 N 404.999 1.35443 0.805782 0
M  V30 4372 C 405.929 1.31095 1.93226 0
M  V30 4373 C 406.91 0.185244 1.69088 0
M  V30 4374 O 408.095 0.380332 1.90439 0
M  V30 4375 C 405.225 1.08299 3.29983 0
M  V30 4376 C 404.179 2.17519 3.68605 0
M  V30 4377 C 403.505 1.79887 5.03532 0
M  V30 4378 C 404.805 3.5949 3.78898 0
M  V30 4379 H 406.499 2.25352 1.97122 0
M  V30 4380 H 404.045 1.0848 0.946996 0
M  V30 4381 H 405.998 1.03897 4.08391 0
M  V30 4382 H 404.722 0.104885 3.26432 0
M  V30 4383 H 403.381 2.2102 2.92482 0
M  V30 4384 H 403.029 0.80693 4.96485 0
M  V30 4385 H 402.729 2.53001 5.30344 0
M  V30 4386 H 404.253 1.77011 5.84379 0
M  V30 4387 H 405.667 3.58307 4.47536 0
M  V30 4388 H 404.064 4.31371 4.1718 0
M  V30 4389 H 405.134 3.95584 2.80431 0
M  V30 4390 N 406.477 -1.02803 1.19454 0
M  V30 4391 C 407.44 -2.09264 0.934955 0
M  V30 4392 C 408.44 -1.60576 -0.0849015 0
M  V30 4393 O 409.63 -1.73554 0.149933 0
M  V30 4394 C 406.762 -3.38482 0.40531 0
M  V30 4395 H 407.955 -2.33726 1.87916 0
M  V30 4396 H 405.508 -1.19426 1.00832 0
M  V30 4397 H 406.243 -3.19689 -0.544899 0
M  V30 4398 H 406.028 -3.75142 1.14065 0
M  V30 4399 H 407.518 -4.16894 0.242806 0
M  V30 4400 N 407.956 -0.998596 -1.21925 0
M  V30 4401 C 409.233 -0.593401 -1.86382 0
M  V30 4402 C 409.613 0.92916 -1.89552 0
M  V30 4403 O 408.961 1.81347 -1.39017 0
M  V30 4404 C 409.171 -1.22039 -3.26967 0
M  V30 4405 C 410.519 -1.32449 -4.03413 0
M  V30 4406 O 411.543 -1.17522 -3.36254 0
M  V30 4407 O 410.402 -1.56395 -5.23644 0
M  V30 4408 H 407.496 -0.202385 -0.801854 0
M  V30 4409 H 410.042 -1.09484 -1.29659 0
M  V30 4410 H 408.814 -2.26158 -3.19325 0
M  V30 4411 H 408.437 -0.704906 -3.91301 0
M  V30 4412 N 409.434 1.37368 -0.772513 0
M  V30 4413 C 410.364 2.32856 -0.173304 0
M  V30 4414 C 411.345 1.55818 0.682262 0
M  V30 4415 O 412.53 1.84052 0.619566 0
M  V30 4416 C 409.66 3.40048 0.706007 0
M  V30 4417 C 408.614 4.27973 -0.0483144 0
M  V30 4418 C 407.94 5.26184 0.950491 0
M  V30 4419 C 409.24 5.07665 -1.22776 0
M  V30 4420 H 410.934 2.83217 -0.971002 0
M  V30 4421 H 408.48 1.3617 -0.468377 0
M  V30 4422 H 410.433 4.05827 1.13501 0
M  V30 4423 H 409.157 2.88214 1.53623 0
M  V30 4424 H 407.816 3.63726 -0.458107 0
M  V30 4425 H 407.464 4.7063 1.77529 0
M  V30 4426 H 407.164 5.85872 0.450314 0
M  V30 4427 H 408.688 5.94838 1.37842 0
M  V30 4428 H 410.102 5.66578 -0.875366 0
M  V30 4429 H 408.499 5.76681 -1.66007 0
M  V30 4430 H 409.569 4.40294 -2.03149 0
M  V30 4431 N 410.912 0.523116 1.48665 0
M  V30 4432 C 412.142 -0.00961724 2.06598 0
M  V30 4433 C 412.55 -1.29333 1.38093 0
M  V30 4434 O 411.893 -1.77846 0.46007 0
M  V30 4435 C 411.955 -0.311135 3.58151 0
M  V30 4436 C 411.619 0.878092 4.48485 0
M  V30 4437 C 412.616 1.77464 4.88674 0
M  V30 4438 C 410.301 1.08315 4.90483 0
M  V30 4439 C 412.295 2.86021 5.69623 0
M  V30 4440 C 409.982 2.17187 5.71203 0
M  V30 4441 C 410.98 3.05873 6.10681 0
M  V30 4442 O 410.668 4.12862 6.89783 0
M  V30 4443 H 410.4 0.0272658 0.67545 0
M  V30 4444 H 412.954 0.726156 1.92136 0
M  V30 4445 H 411.184 -1.10079 3.70701 0
M  V30 4446 H 412.873 -0.785125 3.98234 0
M  V30 4447 H 413.639 1.62813 4.56855 0
M  V30 4448 H 409.518 0.402149 4.59243 0
M  V30 4449 H 413.062 3.55272 6.00356 0
M  V30 4450 H 408.959 2.31824 6.02435 0
M  V30 4451 H 409.727 4.10487 7.08126 0
M  V30 4452 N 412.39 -1.55475 0.257931 0
M  V30 4453 C 413.3 -2.2549 -0.647425 0
M  V30 4454 C 414.316 -1.2748 -1.18427 0
M  V30 4455 O 415.492 -1.6038 -1.2182 0
M  V30 4456 C 412.557 -2.94916 -1.82278 0
M  V30 4457 C 411.618 -4.08363 -1.32432 0
M  V30 4458 C 410.851 -4.74469 -2.44366 0
M  V30 4459 O 411.074 -4.39701 -3.63344 0
M  V30 4460 O 410.008 -5.62763 -2.13497 0
M  V30 4461 H 413.834 -3.03593 -0.0807707 0
M  V30 4462 H 411.419 -1.49377 0.0259962 0
M  V30 4463 H 413.301 -3.38606 -2.50846 0
M  V30 4464 H 411.976 -2.19744 -2.37685 0
M  V30 4465 H 410.883 -3.69166 -0.605605 0
M  V30 4466 H 412.216 -4.85385 -0.816211 0
M  V30 4467 N 413.868 0.0150385 -1.57593 0
M  V30 4468 C 415.279 0.559832 -1.78109 0
M  V30 4469 C 415.63 1.74814 -0.890756 0
M  V30 4470 O 414.755 2.16216 -0.0892482 0
M  V30 4471 C 415.35 1.02238 -3.23006 0
M  V30 4472 C 413.909 1.51258 -3.44671 0
M  V30 4473 C 413.056 0.456955 -2.73509 0
M  V30 4474 H 416.007 -0.211169 -1.57289 0
M  V30 4475 H 416.028 1.88912 -3.30292 0
M  V30 4476 H 415.54 0.157302 -3.87781 0
M  V30 4477 H 413.641 2.39905 -2.8509 0
M  V30 4478 H 413.754 1.55042 -4.5332 0
M  V30 4479 H 412.118 0.915196 -2.37689 0
M  V30 4480 H 412.901 -0.398896 -3.40975 0
M  V30 4481 N 415.346 1.54954 0.287554 0
M  V30 4482 C 416.762 1.46469 0.633964 0
M  V30 4483 C 416.962 0.666865 1.90145 0
M  V30 4484 O 416.018 0.179906 2.51858 0
M  V30 4485 C 417.331 2.90556 0.774454 0
M  V30 4486 C 418.879 3.00681 0.869462 0
M  V30 4487 C 419.354 4.45993 1.04184 0
M  V30 4488 N 420.845 4.4976 1.10772 0
M  V30 4489 C 421.58 5.59393 1.25964 0
M  V30 4490 N 421.076 6.78923 1.37968 0
M  V30 4491 N 422.869 5.47107 1.28959 0
M  V30 4492 H 415.02 2.05288 -0.545041 0
M  V30 4493 H 417.283 0.930305 -0.182308 0
M  V30 4494 H 416.989 3.51594 -0.086207 0
M  V30 4495 H 416.863 3.38743 1.6593 0
M  V30 4496 H 419.25 2.39749 1.7206 0
M  V30 4497 H 419.331 2.55769 -0.0396831 0
M  V30 4498 H 418.975 5.07524 0.195422 0
M  V30 4499 H 418.905 4.88548 1.96542 0
M  V30 4500 H 421.396 3.63651 1.02794 0
M  V30 4501 H 421.709 7.58231 1.49353 0
M  V30 4502 H 420.054 6.81763 1.34999 0
M  V30 4503 H 423.245 4.52668 1.19202 0
M  V30 4504 H 423.418 6.32595 1.40455 0
M  V30 4505 N 416.824 -0.551391 1.4764 0
M  V30 4506 C 418.072 -1.30572 1.54258 0
M  V30 4507 C 418.393 -1.93877 0.208963 0
M  V30 4508 O 417.663 -1.80234 -0.767619 0
M  V30 4509 H 416.243 -0.484894 0.568231 0
M  V30 4510 H 418.905 -0.643402 1.83974 0
M  V30 4511 H 418.001 -2.09621 2.31226 0
M  V30 4512 N 418.302 -1.35869 -0.798587 0
M  V30 4513 C 419.718 -1.16082 -1.09532 0
M  V30 4514 C 419.918 0.0213124 -2.01489 0
M  V30 4515 O 418.974 0.689488 -2.42904 0
M  V30 4516 C 420.287 -2.46748 -1.7186 0
M  V30 4517 C 421.835 -2.53028 -1.84244 0
M  V30 4518 C 422.31 -3.83758 -2.49988 0
M  V30 4519 N 423.801 -3.85053 -2.57465 0
M  V30 4520 C 424.536 -4.8294 -3.09122 0
M  V30 4521 N 424.032 -5.91217 -3.61157 0
M  V30 4522 N 425.825 -4.70369 -3.0775 0
M  V30 4523 H 417.976 -2.11571 -0.187461 0
M  V30 4524 H 420.239 -0.936726 -0.145765 0
M  V30 4525 H 419.945 -3.33471 -1.11759 0
M  V30 4526 H 419.819 -2.61883 -2.71472 0
M  V30 4527 H 422.206 -1.66729 -2.43486 0
M  V30 4528 H 422.287 -2.418 -0.834643 0
M  V30 4529 H 421.931 -4.70459 -1.91393 0
M  V30 4530 H 421.861 -3.92278 -3.5132 0
M  V30 4531 H 424.352 -3.06822 -2.20609 0
M  V30 4532 H 424.665 -6.61892 -3.98896 0
M  V30 4533 H 423.01 -5.94899 -3.59333 0
M  V30 4534 H 426.201 -3.84914 -2.66381 0
M  V30 4535 H 426.374 -5.46816 -3.47701 0
M  V30 4536 N 419.78 1.02168 -1.19998 0
M  V30 4537 C 420.713 2.10232 -0.887558 0
M  V30 4538 C 421.691 1.61827 0.158317 0
M  V30 4539 O 422.875 1.88471 0.0330249 0
M  V30 4540 C 420.002 3.37092 -0.32964 0
M  V30 4541 C 419.048 4.0438 -1.3557 0
M  V30 4542 S 419.881 4.48956 -2.91888 0
M  V30 4543 C 421.037 5.79024 -2.37658 0
M  V30 4544 H 421.27 2.36409 -1.80272 0
M  V30 4545 H 418.803 1.15211 -1.0279 0
M  V30 4546 H 420.761 4.10498 -0.0142824 0
M  V30 4547 H 419.422 3.08996 0.563941 0
M  V30 4548 H 418.615 4.95632 -0.9146 0
M  V30 4549 H 418.217 3.37176 -1.61828 0
M  V30 4550 H 420.509 6.53942 -1.77103 0
M  V30 4551 H 421.452 6.27924 -3.27287 0
M  V30 4552 H 421.86 5.35043 -1.79971 0
M  V30 4553 N 421.258 1.00505 1.21394 0
M  V30 4554 C 422.486 0.706609 1.9446 0
M  V30 4555 C 422.901 -0.73081 1.74082 0
M  V30 4556 O 422.258 -1.49446 1.04747 0
M  V30 4557 C 422.309 1.01824 3.46863 0
M  V30 4558 O 422.03 2.39919 3.66566 0
M  V30 4559 C 423.531 0.739216 4.37093 0
M  V30 4560 H 420.751 0.260394 0.618414 0
M  V30 4561 H 423.295 1.34311 1.54211 0
M  V30 4562 H 421.45 0.427343 3.85036 0
M  V30 4563 H 421.864 2.50784 4.6066 0
M  V30 4564 H 423.338 1.00744 5.42729 0
M  V30 4565 H 423.815 -0.326746 4.37983 0
M  V30 4566 H 424.421 1.31173 4.04566 0
M  V30 4567 N 422.737 -1.36956 0.779787 0
M  V30 4568 C 423.667 -2.32761 0.185651 0
M  V30 4569 C 424.648 -1.56177 -0.673989 0
M  V30 4570 O 425.833 -1.84378 -0.609797 0
M  V30 4571 C 422.963 -3.40418 -0.687964 0
M  V30 4572 C 421.917 -4.27941 0.0710102 0
M  V30 4573 C 421.243 -5.26681 -0.922573 0
M  V30 4574 C 422.543 -5.07006 1.25467 0
M  V30 4575 H 424.237 -2.82698 0.986008 0
M  V30 4576 H 421.783 -1.3592 0.475592 0
M  V30 4577 H 423.736 -4.06423 -1.11348 0
M  V30 4578 H 422.46 -2.89025 -1.52093 0
M  V30 4579 H 421.119 -3.63478 0.47739 0
M  V30 4580 H 420.767 -4.71565 -1.7503 0
M  V30 4581 H 420.467 -5.86103 -0.419237 0
M  V30 4582 H 421.991 -5.9556 -1.34686 0
M  V30 4583 H 423.405 -5.66105 0.905401 0
M  V30 4584 H 421.802 -5.75793 1.69063 0
M  V30 4585 H 422.872 -4.3921 2.05481 0
M  V30 4586 N 424.215 -0.530993 -1.48385 0
M  V30 4587 C 425.178 0.220497 -2.28137 0
M  V30 4588 C 426.178 0.866851 -1.35434 0
M  V30 4589 O 427.368 0.726746 -1.58316 0
M  V30 4590 C 424.5 1.31921 -3.1434 0
M  V30 4591 H 425.693 -0.479714 -2.96038 0
M  V30 4592 H 423.246 -0.286968 -1.53643 0
M  V30 4593 H 423.981 2.05264 -2.51072 0
M  V30 4594 H 423.766 0.86085 -3.82533 0
M  V30 4595 H 425.256 1.84776 -3.74497 0
M  V30 4596 N 425.693 1.55336 -0.266172 0
M  V30 4597 C 426.97 1.91372 0.404486 0
M  V30 4598 C 427.35 1.18935 1.74407 0
M  V30 4599 O 426.698 0.3132 2.26343 0
M  V30 4600 C 426.908 3.44581 0.553593 0
M  V30 4601 C 428.256 4.16196 0.840618 0
M  V30 4602 O 429.28 3.50426 0.638739 0
M  V30 4603 O 428.139 5.32567 1.22618 0
M  V30 4604 H 425.233 0.797194 0.220025 0
M  V30 4605 H 427.779 1.66813 -0.311664 0
M  V30 4606 H 426.551 3.89357 -0.389498 0
M  V30 4607 H 426.174 3.75065 1.31955 0
M  V30 4608 N 427.171 -0.0066808 1.57599 0
M  V30 4609 C 428.42 -0.692078 1.89455 0
M  V30 4610 C 428.733 -1.75306 0.867586 0
M  V30 4611 O 429.939 -2.49262 1.07614 0
M  V30 4612 C 428.395 -1.2821 3.36289 0
M  V30 4613 C 428.003 -0.256291 4.47266 0
M  V30 4614 C 429.747 -1.94608 3.77264 0
M  V30 4615 C 427.654 -0.855927 5.85173 0
M  V30 4616 H 426.584 -0.262252 0.706923 0
M  V30 4617 H 429.235 0.052769 1.83424 0
M  V30 4618 H 427.617 -2.0774 3.37135 0
M  V30 4619 H 428.791 0.513923 4.57925 0
M  V30 4620 H 427.106 0.306862 4.15268 0
M  V30 4621 H 429.703 -2.40364 4.77629 0
M  V30 4622 H 430.046 -2.77382 3.10427 0
M  V30 4623 H 430.579 -1.21822 3.78688 0
M  V30 4624 H 427.318 -0.0671161 6.55466 0
M  V30 4625 H 426.838 -1.59546 5.78191 0
M  V30 4626 H 428.517 -1.35658 6.32618 0
M  V30 4627 N 428.649 -1.55105 -0.279332 0
M  V30 4628 C 429.559 -1.90638 -1.36727 0
M  V30 4629 C 430.575 -0.802899 -1.54368 0
M  V30 4630 O 431.751 -1.10138 -1.68616 0
M  V30 4631 C 428.816 -2.16547 -2.70755 0
M  V30 4632 C 427.877 -3.40146 -2.61915 0
M  V30 4633 C 427.11 -3.6481 -3.8955 0
M  V30 4634 O 427.333 -2.92095 -4.89935 0
M  V30 4635 O 426.267 -4.58343 -3.90135 0
M  V30 4636 H 430.093 -2.83237 -1.09591 0
M  V30 4637 H 427.678 -1.4157 -0.477306 0
M  V30 4638 H 429.56 -2.34665 -3.50014 0
M  V30 4639 H 428.235 -1.27131 -2.9769 0
M  V30 4640 H 427.142 -3.2737 -1.81052 0
M  V30 4641 H 428.475 -4.29761 -2.3993 0
M  V30 4642 N 430.127 0.543554 -1.4793 0
M  V30 4643 C 431.543 0.870806 -1.3375 0
M  V30 4644 C 431.743 1.9864 -0.338261 0
M  V30 4645 O 430.799 2.51305 0.245371 0
M  V30 4646 C 432.112 1.25114 -2.73435 0
M  V30 4647 C 433.66 1.3618 -2.81823 0
M  V30 4648 C 434.135 1.77563 -4.22179 0
M  V30 4649 N 435.626 1.8469 -4.24787 0
M  V30 4650 C 436.361 2.18067 -5.30315 0
M  V30 4651 N 435.857 2.49963 -6.46135 0
M  V30 4652 N 437.65 2.18958 -5.17701 0
M  V30 4653 H 429.801 -0.19275 -2.11524 0
M  V30 4654 H 432.064 -0.0235777 -0.947707 0
M  V30 4655 H 431.77 0.50514 -3.48053 0
M  V30 4656 H 431.644 2.20431 -3.06088 0
M  V30 4657 H 434.031 2.09859 -2.07468 0
M  V30 4658 H 434.112 0.390169 -2.52807 0
M  V30 4659 H 433.756 1.04449 -4.97044 0
M  V30 4660 H 433.686 2.75753 -4.48629 0
M  V30 4661 H 436.177 1.62372 -3.41239 0
M  V30 4662 H 436.49 2.74497 -7.22406 0
M  V30 4663 H 434.835 2.47513 -6.49432 0
M  V30 4664 H 438.026 1.93488 -4.2624 0
M  V30 4665 H 438.199 2.44639 -6.00047 0
M  V30 4666 N 431.605 1.3629 0.791371 0
M  V30 4667 C 432.854 1.29742 1.54434 0
M  V30 4668 C 433.167 -0.121729 1.95221 0
M  V30 4669 O 434.373 -0.309579 2.69729 0
M  V30 4670 C 432.829 2.27623 2.78776 0
M  V30 4671 C 432.437 3.74963 2.45166 0
M  V30 4672 C 434.181 2.30047 3.56761 0
M  V30 4673 C 432.088 4.64626 3.65891 0
M  V30 4674 H 431.018 0.482113 0.579727 0
M  V30 4675 H 433.669 1.61642 0.868565 0
M  V30 4676 H 432.051 1.88714 3.48142 0
M  V30 4677 H 433.225 4.22596 1.83709 0
M  V30 4678 H 431.54 3.75295 1.80396 0
M  V30 4679 H 434.137 2.94247 4.46456 0
M  V30 4680 H 434.48 1.30846 3.95203 0
M  V30 4681 H 435.013 2.67563 2.94372 0
M  V30 4682 H 431.752 5.64883 3.32547 0
M  V30 4683 H 431.272 4.2171 4.26521 0
M  V30 4684 H 432.951 4.80801 4.32943 0
M  V30 4685 N 433.083 -1.0153 1.20538 0
M  V30 4686 C 434.046 -2.0826 0.957098 0
M  V30 4687 C 435.046 -1.60657 -0.0678655 0
M  V30 4688 O 436.236 -1.73385 0.168332 0
M  V30 4689 C 433.368 -3.38033 0.441188 0
M  V30 4690 H 434.561 -2.31719 1.90384 0
M  V30 4691 H 432.114 -1.1835 1.02093 0
M  V30 4692 H 432.849 -3.20249 -0.510961 0
M  V30 4693 H 432.634 -3.73911 1.18038 0
M  V30 4694 H 434.124 -4.16613 0.287009 0
M  V30 4695 N 434.561 -1.01147 -1.20859 0
M  V30 4696 C 435.972 -0.730205 -1.71828 0
M  V30 4697 C 436.323 0.751662 -1.8123 0
M  V30 4698 O 435.448 1.58686 -1.47132 0
M  V30 4699 C 436.043 -1.31885 -3.12077 0
M  V30 4700 C 434.602 -1.08656 -3.60376 0
M  V30 4701 C 433.749 -1.42769 -2.37723 0
M  V30 4702 H 436.7 -1.18158 -1.05945 0
M  V30 4703 H 436.721 -0.706793 -3.73878 0
M  V30 4704 H 436.233 -2.39737 -3.05201 0
M  V30 4705 H 434.334 -0.0254814 -3.72591 0
M  V30 4706 H 434.447 -1.76301 -4.45483 0
M  V30 4707 H 432.811 -0.846603 -2.40218 0
M  V30 4708 H 433.594 -2.51666 -2.33493 0
M  V30 4709 N 436.039 1.36541 -0.78704 0
M  V30 4710 C 436.969 2.32659 -0.197992 0
M  V30 4711 C 437.95 1.56533 0.665697 0
M  V30 4712 O 439.135 1.84698 0.60001 0
M  V30 4713 C 436.265 3.40778 0.669901 0
M  V30 4714 C 435.219 4.27897 -0.0937039 0
M  V30 4715 C 434.545 5.27163 0.894629 0
M  V30 4716 C 435.845 5.06334 -1.28154 0
M  V30 4717 H 437.539 2.82171 -1.00099 0
M  V30 4718 H 435.085 1.35665 -0.482793 0
M  V30 4719 H 437.038 4.07008 1.09191 0
M  V30 4720 H 435.762 2.89827 1.50558 0
M  V30 4721 H 434.421 3.6322 -0.49666 0
M  V30 4722 H 434.069 4.72486 1.72527 0
M  V30 4723 H 433.769 5.86317 0.388149 0
M  V30 4724 H 435.293 5.96266 1.31525 0
M  V30 4725 H 436.707 5.65617 -0.93541 0
M  V30 4726 H 435.104 5.74888 -1.72115 0
M  V30 4727 H 436.174 4.38114 -2.07807 0
M  V30 4728 N 437.518 0.538854 1.48102 0
M  V30 4729 C 438.428 -0.222648 2.33541 0
M  V30 4730 C 439.444 -0.930225 1.47047 0
M  V30 4731 O 440.62 -0.903211 1.80011 0
M  V30 4732 C 437.685 -1.25064 3.23357 0
M  V30 4733 C 436.746 -0.552469 4.2573 0
M  V30 4734 C 435.979 -1.53149 5.11254 0
M  V30 4735 O 436.202 -2.76487 4.9891 0
M  V30 4736 O 435.136 -1.06602 5.92385 0
M  V30 4737 H 438.962 0.477707 2.99919 0
M  V30 4738 H 436.547 0.299669 1.46364 0
M  V30 4739 H 438.429 -1.8445 3.78888 0
M  V30 4740 H 437.104 -1.93325 2.59629 0
M  V30 4741 H 436.011 0.082114 3.7401 0
M  V30 4742 H 437.344 0.0883526 4.92121 0
M  V30 4743 N 438.996 -1.55193 0.274407 0
M  V30 4744 C 439.906 -2.26164 -0.623473 0
M  V30 4745 C 440.922 -1.28729 -1.17068 0
M  V30 4746 O 442.098 -1.61663 -1.20112 0
M  V30 4747 C 439.163 -2.96833 -1.7914 0
M  V30 4748 C 438.224 -4.09745 -1.28093 0
M  V30 4749 C 437.457 -4.77034 -2.3932 0
M  V30 4750 O 437.68 -4.4353 -3.5866 0
M  V30 4751 O 436.614 -5.64996 -2.07516 0
M  V30 4752 H 440.44 -3.03661 -0.0485661 0
M  V30 4753 H 438.025 -1.49341 0.0418382 0
M  V30 4754 H 439.907 -3.41248 -2.4724 0
M  V30 4755 H 438.582 -2.22253 -2.35341 0
M  V30 4756 H 437.489 -3.69787 -0.566416 0
M  V30 4757 H 438.822 -4.86224 -0.764683 0
M  V30 4758 N 440.474 -0.00167713 -1.576 0
M  V30 4759 C 441.722 0.681471 -1.90264 0
M  V30 4760 C 442.043 1.7422 -0.875924 0
M  V30 4761 O 441.313 1.95709 0.0864412 0
M  V30 4762 H 439.893 0.254696 -0.702239 0
M  V30 4763 H 442.555 -0.0429996 -1.94853 0
M  V30 4764 H 441.651 1.15166 -2.90075 0
M  V30 4765 N 441.952 1.55251 0.271103 0
M  V30 4766 C 443.18 1.79974 1.02064 0
M  V30 4767 C 443.595 0.574003 1.79863 0
M  V30 4768 O 442.952 -0.456962 1.76686 0
M  V30 4769 C 443.003 3.02603 1.97772 0
M  V30 4770 O 442.724 4.20443 1.23124 0
M  V30 4771 C 444.225 3.39944 2.84522 0
M  V30 4772 H 441.445 0.599489 0.301419 0
M  V30 4773 H 443.989 2.02268 0.301313 0
M  V30 4774 H 442.144 2.8243 2.65165 0
M  V30 4775 H 442.558 4.89783 1.87651 0
M  V30 4776 H 444.032 4.28915 3.47471 0
M  V30 4777 H 444.509 2.59432 3.54389 0
M  V30 4778 H 445.115 3.62383 2.22618 0
M  V30 4779 N 443.43 -0.535701 1.48216 0
M  V30 4780 C 444.36 -1.65014 1.65204 0
M  V30 4781 C 445.341 -1.62554 0.501011 0
M  V30 4782 O 446.526 -1.7984 0.732886 0
M  V30 4783 C 443.656 -3.03616 1.68626 0
M  V30 4784 C 442.61 -3.20932 2.83172 0
M  V30 4785 C 441.936 -4.60537 2.71679 0
M  V30 4786 C 443.236 -3.04249 4.24535 0
M  V30 4787 H 444.93 -1.51053 2.58502 0
M  V30 4788 H 442.476 -0.725262 1.24402 0
M  V30 4789 H 444.429 -3.81446 1.79099 0
M  V30 4790 H 443.153 -3.18587 0.719026 0
M  V30 4791 H 441.812 -2.45517 2.72244 0
M  V30 4792 H 441.46 -4.72336 1.72937 0
M  V30 4793 H 441.16 -4.73069 3.48538 0
M  V30 4794 H 442.684 -5.40475 2.84112 0
M  V30 4795 H 444.098 -3.71877 4.36326 0
M  V30 4796 H 442.495 -3.28278 5.02348 0
M  V30 4797 H 443.565 -2.00739 4.41397 0
M  V30 4798 N 444.908 -1.36708 -0.784132 0
M  V30 4799 C 446.319 -1.27947 -1.35965 0
M  V30 4800 C 446.67 0.0784013 -1.96043 0
M  V30 4801 O 445.795 0.979989 -1.92938 0
M  V30 4802 C 446.39 -2.31689 -2.47195 0
M  V30 4803 C 444.949 -2.26601 -3.00548 0
M  V30 4804 C 444.096 -2.16184 -1.73666 0
M  V30 4805 H 447.047 -1.4751 -0.585358 0
M  V30 4806 H 447.068 -1.95638 -3.26352 0
M  V30 4807 H 446.58 -3.30506 -2.03439 0
M  V30 4808 H 444.681 -1.31268 -3.48711 0
M  V30 4809 H 444.794 -3.19508 -3.57004 0
M  V30 4810 H 443.158 -1.62524 -1.96107 0
M  V30 4811 H 443.941 -3.16896 -1.32031 0
M  V30 4812 N 446.386 1.0089 -1.21074 0
M  V30 4813 C 447.633 1.74607 -1.0256 0
M  V30 4814 C 447.961 1.89426 0.44136 0
M  V30 4815 O 447.216 1.42266 1.34384 0
M  V30 4816 C 447.515 3.16335 -1.66334 0
M  V30 4817 C 447.181 3.21474 -3.16173 0
M  V30 4818 C 445.843 3.22583 -3.57062 0
M  V30 4819 C 448.195 3.19025 -4.12156 0
M  V30 4820 C 445.523 3.18925 -4.92446 0
M  V30 4821 C 447.875 3.16909 -5.47496 0
M  V30 4822 C 446.539 3.16326 -5.87787 0
M  V30 4823 H 445.809 0.638933 -0.375294 0
M  V30 4824 H 448.456 1.18274 -1.50611 0
M  V30 4825 H 446.761 3.75876 -1.10566 0
M  V30 4826 H 448.458 3.72083 -1.49516 0
M  V30 4827 H 445.048 3.2135 -2.83605 0
M  V30 4828 H 449.232 3.17332 -3.81595 0
M  V30 4829 H 444.488 3.16809 -5.22917 0
M  V30 4830 H 448.662 3.13968 -6.21609 0
M  V30 4831 H 446.289 3.13246 -6.92662 0
M  V30 4832 N 447.864 1.01787 1.20321 0
M  V30 4833 C 448.812 0.58254 2.25187 0
M  V30 4834 C 449.806 -0.379359 1.65098 0
M  V30 4835 O 451.012 -0.249142 1.78267 0
M  V30 4836 H 447.387 0.170078 0.732514 0
M  V30 4837 H 449.358 1.47788 2.59232 0
M  V30 4838 C 448.107 -0.0620885 3.47645 0
M  V30 4839 H 447.43 0.669069 3.94162 0
M  V30 4840 H 448.87 -0.329784 4.22716 0
M  V30 4841 C 447.329 -1.3053 3.10586 0
M  V30 4842 O 447.859 -2.39848 3.22236 0
M  V30 4843 N 446.065 -1.18988 2.65123 0
M  V30 4844 H 445.612 -0.300341 2.55843 0
M  V30 4845 H 445.57 -2.02267 2.40698 0
M  V30 4846 N 449.342 -1.36122 0.79427 0
M  V30 4847 C 450.272 -2.32551 0.210328 0
M  V30 4848 C 451.253 -1.56884 -0.657386 0
M  V30 4849 O 452.438 -1.85014 -0.590207 0
M  V30 4850 C 449.568 -3.41128 -0.651819 0
M  V30 4851 C 448.522 -4.27842 0.116395 0
M  V30 4852 C 447.848 -5.2763 -0.86666 0
M  V30 4853 C 449.148 -5.05647 1.30837 0
M  V30 4854 H 450.842 -2.81636 1.01594 0
M  V30 4855 H 448.388 -1.35407 0.489981 0
M  V30 4856 H 450.341 -4.07581 -1.07031 0
M  V30 4857 H 449.065 -2.90622 -1.49019 0
M  V30 4858 H 447.724 -3.62952 0.515915 0
M  V30 4859 H 447.372 -4.73395 -1.70019 0
M  V30 4860 H 447.072 -5.86514 -0.35705 0
M  V30 4861 H 448.596 -5.96955 -1.28361 0
M  V30 4862 H 450.01 -5.65113 0.965393 0
M  V30 4863 H 448.407 -5.73967 1.75161 0
M  V30 4864 H 449.477 -4.37006 2.10128 0
M  V30 4865 N 450.82 -0.546701 -1.47814 0
M  V30 4866 C 451.783 0.196287 -2.28358 0
M  V30 4867 C 452.783 0.852437 -1.36346 0
M  V30 4868 O 453.973 0.709913 -1.59078 0
M  V30 4869 C 451.105 1.28579 -3.15722 0
M  V30 4870 H 452.298 -0.511086 -2.95513 0
M  V30 4871 H 449.851 -0.303248 -1.5333 0
M  V30 4872 H 450.586 2.0259 -2.53235 0
M  V30 4873 H 450.371 0.820229 -3.83425 0
M  V30 4874 H 451.861 1.80793 -3.76435 0
M  V30 4875 N 452.299 1.55045 -0.282633 0
M  V30 4876 C 453.209 2.26491 0.61147 0
M  V30 4877 C 454.225 1.29348 1.16384 0
M  V30 4878 O 455.401 1.62298 1.19253 0
M  V30 4879 C 452.466 2.97779 1.77563 0
M  V30 4880 C 451.527 4.10418 1.25919 0
M  V30 4881 C 450.76 4.78297 2.36786 0
M  V30 4882 O 450.983 4.45426 3.56303 0
M  V30 4883 O 449.917 5.66089 2.04517 0
M  V30 4884 H 453.743 3.03683 0.0324615 0
M  V30 4885 H 451.328 1.49317 -0.0497576 0
M  V30 4886 H 453.21 3.42554 2.45427 0
M  V30 4887 H 451.885 2.23498 2.34159 0
M  V30 4888 H 450.792 3.70082 0.546797 0
M  V30 4889 H 452.125 4.86622 0.738887 0
M  V30 4890 N 453.777 0.010035 1.57597 0
M  V30 4891 C 454.74 -0.963029 2.07986 0
M  V30 4892 C 455.74 -1.26619 0.991173 0
M  V30 4893 O 456.93 -1.2097 1.25347 0
M  V30 4894 C 454.062 -2.2851 2.52974 0
M  V30 4895 H 455.255 -0.526971 2.95234 0
M  V30 4896 H 452.808 -0.237639 1.54483 0
M  V30 4897 H 453.543 -2.76784 1.69 0
M  V30 4898 H 453.328 -2.07824 3.32493 0
M  V30 4899 H 454.818 -2.98294 2.9225 0
M  V30 4900 N 455.255 -1.55392 -0.262866 0
M  V30 4901 C 456.187 -1.85392 -1.34768 0
M  V30 4902 C 457.2 -0.739069 -1.45057 0
M  V30 4903 O 458.389 -1.01703 -1.46693 0
M  V30 4904 C 455.489 -2.01088 -2.72795 0
M  V30 4905 C 454.662 -3.31828 -2.84972 0
M  V30 4906 C 453.721 -3.37464 -4.03738 0
M  V30 4907 O 452.747 -4.10778 -3.94018 0
M  V30 4908 N 453.949 -2.65599 -5.16176 0
M  V30 4909 H 456.714 -2.79029 -1.09375 0
M  V30 4910 H 454.275 -1.55434 -0.452981 0
M  V30 4911 H 456.267 -2.02217 -3.50557 0
M  V30 4912 H 454.837 -1.1427 -2.90966 0
M  V30 4913 H 454.057 -3.43152 -1.94012 0
M  V30 4914 H 455.345 -4.18032 -2.90045 0
M  V30 4915 H 454.743 -2.05736 -5.26962 0
M  V30 4916 H 453.3 -2.72439 -5.92132 0
M  V30 4917 N 456.733 0.527833 -1.48498 0
M  V30 4918 C 458.149 0.856571 -1.34666 0
M  V30 4919 C 458.349 1.98271 -0.35931 0
M  V30 4920 O 457.405 2.51551 0.218703 0
M  V30 4921 C 458.718 1.22207 -2.74747 0
M  V30 4922 C 460.266 1.33183 -2.83251 0
M  V30 4923 C 460.741 1.73075 -4.24039 0
M  V30 4924 N 462.232 1.80174 -4.26722 0
M  V30 4925 C 462.967 2.1243 -5.32598 0
M  V30 4926 N 462.463 2.43096 -6.4875 0
M  V30 4927 N 464.256 2.13454 -5.19994 0
M  V30 4928 H 456.407 -0.215174 -2.11307 0
M  V30 4929 H 458.67 -0.0336281 -0.947403 0
M  V30 4930 H 458.376 0.468195 -3.4857 0
M  V30 4931 H 458.25 2.17173 -3.08409 0
M  V30 4932 H 460.637 2.07647 -2.09683 0
M  V30 4933 H 460.718 0.363333 -2.53206 0
M  V30 4934 H 460.362 0.991712 -4.98124 0
M  V30 4935 H 460.292 2.70979 -4.51529 0
M  V30 4936 H 462.783 1.58744 -3.42942 0
M  V30 4937 H 463.096 2.6682 -7.25277 0
M  V30 4938 H 461.441 2.40611 -6.52021 0
M  V30 4939 H 464.632 1.88956 -4.28268 0
M  V30 4940 H 464.805 2.38261 -6.02608 0
M  V30 4941 N 458.211 1.37122 0.776871 0
M  V30 4942 C 459.143 1.28342 1.89897 0
M  V30 4943 C 460.156 0.200277 1.61563 0
M  V30 4944 O 461.345 0.456012 1.72577 0
M  V30 4945 C 458.445 0.960427 3.25006 0
M  V30 4946 C 457.618 2.148 3.81025 0
M  V30 4947 C 456.677 1.79608 4.94598 0
M  V30 4948 O 455.703 2.51845 5.10454 0
M  V30 4949 N 456.905 0.737171 5.758 0
M  V30 4950 H 459.67 2.25027 1.97947 0
M  V30 4951 H 457.231 1.3068 0.955739 0
M  V30 4952 H 459.223 0.705942 3.98495 0
M  V30 4953 H 457.793 0.0823066 3.12492 0
M  V30 4954 H 457.013 2.56454 2.99374 0
M  V30 4955 H 458.301 2.9411 4.15183 0
M  V30 4956 H 457.699 0.137637 5.65533 0
M  V30 4957 H 456.256 0.542534 6.49538 0
M  V30 4958 N 459.689 -1.00246 1.21608 0
M  V30 4959 C 460.636 -2.09073 0.977613 0
M  V30 4960 C 461.606 -1.65815 -0.097297 0
M  V30 4961 O 462.791 -1.90734 0.0503445 0
M  V30 4962 C 459.931 -3.40671 0.551133 0
M  V30 4963 C 459.044 -3.97326 1.69576 0
M  V30 4964 C 458.179 -5.17043 1.2182 0
M  V30 4965 C 457.218 -5.65813 2.335 0
M  V30 4966 N 456.355 -6.76778 1.86859 0
M  V30 4967 H 461.195 -2.28806 1.90924 0
M  V30 4968 H 458.732 -1.12186 0.951452 0
M  V30 4969 H 460.69 -4.16225 0.285097 0
M  V30 4970 H 459.32 -3.20967 -0.343489 0
M  V30 4971 H 458.372 -3.18734 2.07637 0
M  V30 4972 H 459.684 -4.29511 2.53617 0
M  V30 4973 H 458.838 -5.99852 0.908975 0
M  V30 4974 H 457.577 -4.86458 0.347869 0
M  V30 4975 H 456.582 -4.81599 2.65222 0
M  V30 4976 H 457.807 -5.98427 3.21033 0
M  V30 4977 H 455.753 -6.47994 1.02174 0
M  V30 4978 H 455.67 -7.08231 2.64471 0
M  V30 4979 H 456.938 -7.63116 1.58978 0
M  V30 4980 N 461.167 -1.02423 -1.1978 0
M  V30 4981 C 462.13 -0.605703 -2.21052 0
M  V30 4982 C 463.13 0.328209 -1.57415 0
M  V30 4983 O 464.32 0.115853 -1.73814 0
M  V30 4984 C 461.452 0.114366 -3.40708 0
M  V30 4985 H 462.645 -1.5017 -2.59594 0
M  V30 4986 H 460.198 -0.814888 -1.33376 0
M  V30 4987 H 460.933 1.02492 -3.07678 0
M  V30 4988 H 460.718 -0.556641 -3.88129 0
M  V30 4989 H 462.208 0.394272 -4.15735 0
M  V30 4990 N 462.645 1.35699 -0.801477 0
M  V30 4991 C 463.87 2.03687 -0.390678 0
M  V30 4992 C 464.295 1.60015 0.988778 0
M  V30 4993 O 463.653 0.774357 1.63931 0
M  V30 4994 C 463.701 3.57439 -0.476404 0
M  V30 4995 O 462.805 4.09208 0.512106 0
M  V30 4996 H 462.146 0.64344 -0.163956 0
M  V30 4997 H 464.676 1.73403 -1.08594 0
M  V30 4998 H 464.686 4.06544 -0.344357 0
M  V30 4999 H 463.361 3.88576 -1.48262 0
M  V30 5000 H 461.938 3.7134 0.340721 0
M  V30 5001 N 464.123 0.554532 1.47522 0
M  V30 5002 C 465.371 0.0294208 2.02079 0
M  V30 5003 C 465.692 -1.32411 1.43151 0
M  V30 5004 O 464.962 -1.863 0.605728 0
M  V30 5005 H 463.542 0.00788672 0.746958 0
M  V30 5006 H 466.204 0.723934 1.80956 0
M  V30 5007 H 465.3 -0.0606745 3.12041 0
M  V30 5008 N 465.601 -1.54893 0.290851 0
M  V30 5009 C 466.878 -1.91991 -0.373989 0
M  V30 5010 C 467.258 -1.21694 -1.72493 0
M  V30 5011 O 466.606 -0.34917 -2.25816 0
M  V30 5012 C 466.816 -3.45419 -0.498703 0
M  V30 5013 C 468.164 -4.1748 -0.774298 0
M  V30 5014 O 469.188 -3.51398 -0.582908 0
M  V30 5015 O 468.047 -5.3445 -1.14129 0
M  V30 5016 H 465.141 -0.800593 -0.207315 0
M  V30 5017 H 467.687 -1.66297 0.338164 0
M  V30 5018 H 466.459 -3.88688 0.451392 0
M  V30 5019 H 466.082 -3.77117 -1.25972 0
M  V30 5020 N 467.08 -0.0183926 -1.57589 0
M  V30 5021 C 468.305 0.676634 -1.96052 0
M  V30 5022 C 468.73 1.6548 -0.894307 0
M  V30 5023 O 468.088 1.80712 0.145849 0
M  V30 5024 C 468.136 1.36872 -3.33614 0
M  V30 5025 O 467.24 2.48372 -3.29219 0
M  V30 5026 H 466.581 0.1786 -0.63953 0
M  V30 5027 H 469.111 -0.077056 -2.04455 0
M  V30 5028 H 469.121 1.72797 -3.69601 0
M  V30 5029 H 467.796 0.651636 -4.10763 0
M  V30 5030 H 466.373 2.14639 -3.04934 0
M  V30 5031 N 468.558 1.5553 0.254621 0
M  V30 5032 C 469.521 1.88872 1.29846 0
M  V30 5033 C 470.521 0.764591 1.41459 0
M  V30 5034 O 471.711 1.03265 1.40293 0
M  V30 5035 C 468.843 2.11032 2.67728 0
M  V30 5036 H 470.036 2.82201 1.01502 0
M  V30 5037 H 467.589 1.48303 0.493556 0
M  V30 5038 H 468.324 1.20146 3.01223 0
M  V30 5039 H 468.109 2.92895 2.60682 0
M  V30 5040 H 469.599 2.38038 3.43115 0
M  V30 5041 N 470.036 -0.519951 1.48776 0
M  V30 5042 C 471.452 -0.849418 1.35119 0
M  V30 5043 C 471.652 -1.98077 0.36982 0
M  V30 5044 O 470.708 -2.51664 -0.205359 0
M  V30 5045 C 472.021 -1.20748 2.75391 0
M  V30 5046 C 473.569 -1.31679 2.83954 0
M  V30 5047 C 474.044 -1.70824 4.24951 0
M  V30 5048 N 475.535 -1.77908 4.27672 0
M  V30 5049 C 476.27 -2.09603 5.33717 0
M  V30 5050 N 475.766 -2.39652 6.5003 0
M  V30 5051 N 477.559 -2.10694 5.21119 0
M  V30 5052 H 469.71 0.226377 2.1119 0
M  V30 5053 H 471.973 0.0386519 0.947212 0
M  V30 5054 H 471.679 -0.449703 3.48813 0
M  V30 5055 H 471.553 -2.15534 3.09556 0
M  V30 5056 H 473.94 -2.06532 2.10781 0
M  V30 5057 H 474.021 -0.3499 2.53396 0
M  V30 5058 H 473.665 -0.965282 4.98643 0
M  V30 5059 H 473.595 -2.6858 4.52959 0
M  V30 5060 H 476.086 -1.56923 3.43779 0
M  V30 5061 H 476.399 -2.6297 7.26682 0
M  V30 5062 H 474.744 -2.37149 6.53288 0
M  V30 5063 H 477.935 -1.86682 4.29264 0
M  V30 5064 H 478.108 -2.35062 6.03863 0
M  V30 5065 N 471.514 -1.37532 -0.769588 0
M  V30 5066 C 472.925 -1.29382 -1.346 0
M  V30 5067 C 473.276 0.0576039 -1.96115 0
M  V30 5068 O 472.401 0.95947 -1.93967 0
M  V30 5069 C 472.996 -2.34298 -2.44724 0
M  V30 5070 C 471.555 -2.29776 -2.98128 0
M  V30 5071 C 470.702 -2.18013 -1.71364 0
M  V30 5072 H 473.653 -1.48123 -0.56968 0
M  V30 5073 H 473.674 -1.99089 -3.24259 0
M  V30 5074 H 473.186 -3.32645 -1.99922 0
M  V30 5075 H 471.287 -1.34959 -3.47299 0
M  V30 5076 H 471.4 -3.23276 -3.53595 0
M  V30 5077 H 469.764 -1.64595 -1.94372 0
M  V30 5078 H 470.547 -3.18278 -1.28662 0
M  V30 5079 N 472.992 0.995999 -1.22138 0
M  V30 5080 C 474.238 1.73767 -1.04561 0
M  V30 5081 C 474.571 1.89633 0.418698 0
M  V30 5082 O 473.846 1.43723 1.3105 0
M  V30 5083 C 474.129 3.14505 -1.75382 0
M  V30 5084 C 473.982 3.06306 -3.29388 0
M  V30 5085 C 475.301 4.13615 -1.50369 0
M  V30 5086 H 472.42 0.630728 -0.38125 0
M  V30 5087 H 475.062 1.16057 -1.50435 0
M  V30 5088 H 473.212 3.63775 -1.36383 0
M  V30 5089 H 474.884 2.64681 -3.77812 0
M  V30 5090 H 473.127 2.43186 -3.59226 0
M  V30 5091 H 473.798 4.05884 -3.74116 0
M  V30 5092 H 476.274 3.73089 -1.84239 0
M  V30 5093 H 475.15 5.10212 -2.02421 0
M  V30 5094 H 475.411 4.39949 -0.435611 0
M  V30 5095 N 474.47 1.03057 1.19235 0
M  V30 5096 C 475.4 0.633497 2.24742 0
M  V30 5097 C 476.381 -0.358335 1.66283 0
M  V30 5098 O 477.566 -0.240676 1.92703 0
M  V30 5099 C 474.696 -0.0147648 3.47297 0
M  V30 5100 C 473.65 0.899527 4.18441 0
M  V30 5101 C 472.976 0.116281 5.34574 0
M  V30 5102 C 474.276 2.21404 4.73051 0
M  V30 5103 H 475.97 1.5155 2.58211 0
M  V30 5104 H 473.516 0.73014 1.24117 0
M  V30 5105 H 475.469 -0.304202 4.20301 0
M  V30 5106 H 474.193 -0.931577 3.13032 0
M  V30 5107 H 472.852 1.17319 3.47321 0
M  V30 5108 H 472.5 -0.802619 4.96555 0
M  V30 5109 H 472.2 0.725293 5.83107 0
M  V30 5110 H 473.724 -0.166376 6.10373 0
M  V30 5111 H 475.138 1.98601 5.37802 0
M  V30 5112 H 473.535 2.77512 5.32078 0
M  V30 5113 H 474.605 2.86752 3.91026 0
M  V30 5114 N 475.948 -1.35272 0.808662 0
M  V30 5115 C 476.878 -2.32315 0.234981 0
M  V30 5116 C 477.859 -1.57572 -0.64071 0
M  V30 5117 O 479.044 -1.8563 -0.570551 0
M  V30 5118 C 476.174 -3.41801 -0.615601 0
M  V30 5119 C 475.128 -4.27694 0.161767 0
M  V30 5120 C 474.454 -5.28519 -0.810649 0
M  V30 5121 C 475.754 -5.04231 1.36193 0
M  V30 5122 H 477.448 -2.80543 1.04575 0
M  V30 5123 H 474.994 -1.3488 0.504315 0
M  V30 5124 H 476.947 -4.08693 -1.02702 0
M  V30 5125 H 475.671 -2.92186 -1.45928 0
M  V30 5126 H 474.33 -3.62384 0.554382 0
M  V30 5127 H 473.978 -4.75171 -1.64988 0
M  V30 5128 H 473.678 -5.8686 -0.294822 0
M  V30 5129 H 475.202 -5.98283 -1.22023 0
M  V30 5130 H 476.616 -5.64058 1.02528 0
M  V30 5131 H 475.013 -5.72077 1.81239 0
M  V30 5132 H 476.083 -4.34753 2.14751 0
M  V30 5133 N 477.426 -0.562348 -1.47226 0
M  V30 5134 C 478.358 0.220011 -2.28142 0
M  V30 5135 C 479.371 0.874596 -1.37312 0
M  V30 5136 O 480.56 0.747583 -1.62091 0
M  V30 5137 C 477.66 1.32953 -3.11732 0
M  V30 5138 C 476.833 0.770759 -4.30556 0
M  V30 5139 C 475.892 1.76541 -4.95701 0
M  V30 5140 O 474.918 1.3095 -5.53932 0
M  V30 5141 N 476.12 3.09896 -4.90861 0
M  V30 5142 H 478.885 -0.474107 -2.95926 0
M  V30 5143 H 476.446 -0.398761 -1.56912 0
M  V30 5144 H 478.438 1.99378 -3.5218 0
M  V30 5145 H 477.008 1.92681 -2.46156 0
M  V30 5146 H 476.228 -0.0704056 -3.94137 0
M  V30 5147 H 477.516 0.376872 -5.07402 0
M  V30 5148 H 476.914 3.49577 -4.44761 0
M  V30 5149 H 475.471 3.71865 -5.35313 0
M  V30 5150 N 478.904 1.54736 -0.299062 0
M  V30 5151 C 480.15 2.00397 0.311244 0
M  V30 5152 C 480.483 1.18716 1.53688 0
M  V30 5153 O 479.758 0.263154 1.92712 0
M  V30 5154 C 480.041 3.53817 0.669761 0
M  V30 5155 C 479.894 4.46239 -0.564882 0
M  V30 5156 C 481.213 4.13856 1.49702 0
M  V30 5157 H 478.332 0.728493 0.111653 0
M  V30 5158 H 480.974 1.85506 -0.410774 0
M  V30 5159 H 479.124 3.66637 1.28491 0
M  V30 5160 H 480.796 4.45328 -1.20337 0
M  V30 5161 H 479.039 4.16916 -1.19849 0
M  V30 5162 H 479.71 5.5134 -0.269918 0
M  V30 5163 H 482.186 4.04461 0.977284 0
M  V30 5164 H 481.062 5.21365 1.71666 0
M  V30 5165 H 481.323 3.65608 2.48563 0
M  V30 5166 N 480.382 0.0267497 1.57577 0
M  V30 5167 C 481.345 -0.940916 2.08996 0
M  V30 5168 C 482.345 -1.25561 1.00455 0
M  V30 5169 O 483.535 -1.19634 1.26623 0
M  V30 5170 C 480.667 -2.25814 2.55384 0
M  V30 5171 H 481.86 -0.495628 2.95776 0
M  V30 5172 H 479.413 -0.221241 1.54726 0
M  V30 5173 H 480.148 -2.74976 1.71926 0
M  V30 5174 H 479.933 -2.04285 3.34679 0
M  V30 5175 H 481.423 -2.95178 2.95398 0
M  V30 5176 N 481.861 -1.55662 -0.24637 0
M  V30 5177 C 482.771 -1.93495 -1.32653 0
M  V30 5178 C 483.787 -0.835462 -1.5263 0
M  V30 5179 O 484.963 -1.1369 -1.66242 0
M  V30 5180 C 482.028 -2.22242 -2.66101 0
M  V30 5181 C 481.089 -3.45625 -2.54641 0
M  V30 5182 C 480.322 -3.72991 -3.81724 0
M  V30 5183 O 480.545 -3.02421 -4.8363 0
M  V30 5184 O 479.479 -4.66515 -3.80325 0
M  V30 5185 H 483.305 -2.85498 -1.03559 0
M  V30 5186 H 480.89 -1.42551 -0.44717 0
M  V30 5187 H 482.772 -2.42037 -3.44958 0
M  V30 5188 H 481.447 -1.33417 -2.94926 0
M  V30 5189 H 480.354 -3.31136 -1.74067 0
M  V30 5190 H 481.687 -4.34754 -2.3076 0
M  V30 5191 N 483.339 0.512053 -1.4905 0
M  V30 5192 C 484.564 1.2959 -1.6193 0
M  V30 5193 C 484.989 1.85906 -0.286454 0
M  V30 5194 O 484.347 1.65312 0.744426 0
M  V30 5195 C 484.395 2.40987 -2.68249 0
M  V30 5196 O 483.499 3.44531 -2.26654 0
M  V30 5197 H 482.84 0.383053 -0.542371 0
M  V30 5198 H 485.37 0.614231 -1.95162 0
M  V30 5199 H 485.38 2.86913 -2.90078 0
M  V30 5200 H 484.055 1.99361 -3.65004 0
M  V30 5201 H 482.632 3.046 -2.15112 0
M  V30 5202 N 484.817 1.37938 0.762283 0
M  V30 5203 C 485.78 1.34279 1.85747 0
M  V30 5204 C 486.78 0.244969 1.58923 0
M  V30 5205 O 487.97 0.501365 1.66829 0
M  V30 5206 C 485.102 1.08833 3.23061 0
M  V30 5207 H 486.295 2.31705 1.90401 0
M  V30 5208 H 483.848 1.23105 0.963057 0
M  V30 5209 H 484.583 0.119767 3.24079 0
M  V30 5210 H 484.368 1.88306 3.43923 0
M  V30 5211 H 485.858 1.08946 4.03138 0
M  V30 5212 N 486.295 -0.989507 1.22664 0
M  V30 5213 C 487.525 -1.7624 1.0781 0
M  V30 5214 C 487.933 -1.85466 -0.374036 0
M  V30 5215 O 487.276 -1.32645 -1.27087 0
M  V30 5216 C 487.338 -3.21007 1.61849 0
M  V30 5217 C 487.002 -3.35316 3.10503 0
M  V30 5218 C 487.999 -3.22362 4.07896 0
M  V30 5219 C 485.684 -3.60258 3.50028 0
M  V30 5220 C 487.678 -3.34139 5.42798 0
M  V30 5221 C 485.365 -3.71676 4.85078 0
M  V30 5222 C 486.363 -3.58625 5.81272 0
M  V30 5223 O 486.051 -3.69655 7.1387 0
M  V30 5224 H 485.783 -0.560209 0.378341 0
M  V30 5225 H 488.337 -1.25252 1.62792 0
M  V30 5226 H 486.567 -3.73202 1.01279 0
M  V30 5227 H 488.256 -3.80024 1.42606 0
M  V30 5228 H 489.022 -3.03 3.78703 0
M  V30 5229 H 484.901 -3.69492 2.75675 0
M  V30 5230 H 488.445 -3.23869 6.17863 0
M  V30 5231 H 484.342 -3.90545 5.1395 0
M  V30 5232 H 485.11 -3.86507 7.21495 0
M  V30 5233 N 487.773 -1.03688 -1.18687 0
M  V30 5234 C 489.189 -0.755413 -1.4059 0
M  V30 5235 C 489.389 0.656659 -1.905 0
M  V30 5236 O 488.445 1.42144 -2.08689 0
M  V30 5237 C 489.758 -1.7983 -2.41001 0
M  V30 5238 C 491.306 -1.81877 -2.54735 0
M  V30 5239 C 491.781 -2.85148 -3.58406 0
M  V30 5240 N 493.272 -2.84015 -3.6591 0
M  V30 5241 C 494.007 -3.60573 -4.45841 0
M  V30 5242 N 493.503 -4.46871 -5.29413 0
M  V30 5243 N 495.296 -3.49079 -4.40568 0
M  V30 5244 H 487.447 -1.94818 -0.846148 0
M  V30 5245 H 489.71 -0.842727 -0.434184 0
M  V30 5246 H 489.416 -2.81097 -2.1137 0
M  V30 5247 H 489.29 -1.62727 -3.40294 0
M  V30 5248 H 491.677 -0.812836 -2.83685 0
M  V30 5249 H 491.758 -2.03057 -1.55568 0
M  V30 5250 H 491.402 -3.85918 -3.30197 0
M  V30 5251 H 491.332 -2.61224 -4.57241 0
M  V30 5252 H 493.823 -2.21431 -3.0623 0
M  V30 5253 H 494.136 -5.02007 -5.87545 0
M  V30 5254 H 492.481 -4.5094 -5.28846 0
M  V30 5255 H 495.672 -2.81066 -3.74325 0
M  V30 5256 H 495.845 -4.08994 -5.02621 0
M  V30 5257 N 489.251 1.34841 -0.815825 0
M  V30 5258 C 490.498 1.98499 -0.400535 0
M  V30 5259 C 490.826 1.64699 1.03463 0
M  V30 5260 O 490.081 0.907006 1.73412 0
M  V30 5261 C 490.38 3.53273 -0.541541 0
M  V30 5262 C 490.046 4.06966 -1.94138 0
M  V30 5263 C 488.708 4.21341 -2.32433 0
M  V30 5264 C 491.06 4.35933 -2.85677 0
M  V30 5265 C 488.388 4.62007 -3.61617 0
M  V30 5266 C 490.74 4.78042 -4.14317 0
M  V30 5267 C 489.404 4.90622 -4.52599 0
M  V30 5268 H 488.674 0.72636 -0.146566 0
M  V30 5269 H 491.321 1.60902 -1.0384 0
M  V30 5270 H 489.626 3.91387 0.179741 0
M  V30 5271 H 491.323 4.00497 -0.20085 0
M  V30 5272 H 487.913 3.96235 -1.63388 0
M  V30 5273 H 492.097 4.24372 -2.57337 0
M  V30 5274 H 487.353 4.69937 -3.91113 0
M  V30 5275 H 491.527 4.99415 -4.85342 0
M  V30 5276 H 489.154 5.2189 -5.52752 0
M  V30 5277 N 490.729 0.570148 1.46925 0
M  V30 5278 C 491.977 0.0508523 2.02036 0
M  V30 5279 C 492.298 -1.30885 1.44548 0
M  V30 5280 O 491.568 -1.85647 0.625453 0
M  V30 5281 H 490.148 0.0158088 0.746833 0
M  V30 5282 H 492.81 0.743086 1.80178 0
M  V30 5283 H 491.906 -0.027575 3.12088 0
M  V30 5284 N 492.207 -1.54576 0.307264 0
M  V30 5285 C 493.137 -2.26708 -0.55907 0
M  V30 5286 C 494.118 -1.26893 -1.1328 0
M  V30 5287 O 495.303 -1.55677 -1.16097 0
M  V30 5288 C 492.433 -3.01259 -1.72801 0
M  V30 5289 C 491.387 -4.08275 -1.28435 0
M  V30 5290 C 490.713 -4.70575 -2.53895 0
M  V30 5291 C 492.013 -5.2068 -0.411038 0
M  V30 5292 H 493.707 -2.9937 0.042576 0
M  V30 5293 H 491.253 -1.43983 0.0219173 0
M  V30 5294 H 493.206 -3.50444 -2.34023 0
M  V30 5295 H 491.93 -2.26187 -2.356 0
M  V30 5296 H 490.589 -3.59949 -0.695161 0
M  V30 5297 H 490.237 -3.92136 -3.15021 0
M  V30 5298 H 489.937 -5.42854 -2.24908 0
M  V30 5299 H 491.461 -5.22527 -3.15908 0
M  V30 5300 H 492.875 -5.65721 -0.929097 0
M  V30 5301 H 491.272 -5.99716 -0.214664 0
M  V30 5302 H 492.342 -4.81629 0.562287 0
M  V30 5303 N 493.685 -0.035106 -1.57561 0
M  V30 5304 C 494.933 0.64096 -1.91667 0
M  V30 5305 C 495.254 1.72323 -0.912681 0
M  V30 5306 O 494.524 1.95849 0.0449089 0
M  V30 5307 H 493.104 0.239743 -0.707483 0
M  V30 5308 H 495.766 -0.084321 -1.94718 0
M  V30 5309 H 494.862 1.08987 -2.92452 0
M  V30 5310 N 495.163 1.55791 0.238111 0
M  V30 5311 C 496.388 1.8244 0.986432 0
M  V30 5312 C 496.813 0.613314 1.7782 0
M  V30 5313 O 496.171 -0.437767 1.75935 0
M  V30 5314 C 496.219 3.06917 1.893 0
M  V30 5315 O 495.323 2.84449 2.98601 0
M  V30 5316 H 494.664 0.601975 0.280218 0
M  V30 5317 H 497.194 2.02987 0.256437 0
M  V30 5318 H 497.204 3.36583 2.30598 0
M  V30 5319 H 495.879 3.947 1.31091 0
M  V30 5320 H 494.456 2.65972 2.61368 0
M  V30 5321 N 496.642 -0.504142 1.49319 0
M  V30 5322 C 497.888 -1.26033 1.58882 0
M  V30 5323 C 498.221 -1.92268 0.273274 0
M  V30 5324 O 497.496 -1.80567 -0.72291 0
M  V30 5325 C 497.779 -2.32976 2.7458 0
M  V30 5326 C 497.632 -1.71263 4.1592 0
M  V30 5327 C 498.951 -3.34561 2.85932 0
M  V30 5328 H 496.07 -0.456863 0.578312 0
M  V30 5329 H 498.712 -0.558965 1.81592 0
M  V30 5330 H 496.862 -2.92796 2.55348 0
M  V30 5331 H 498.534 -1.15294 4.4666 0
M  V30 5332 H 496.777 -1.01686 4.21714 0
M  V30 5333 H 497.448 -2.48816 4.92742 0
M  V30 5334 H 499.924 -2.84727 3.0343 0
M  V30 5335 H 498.8 -4.06754 3.68568 0
M  V30 5336 H 499.061 -3.96695 1.95154 0
M  V30 5337 N 498.12 -1.38341 -0.754957 0
M  V30 5338 C 499.083 -1.35262 -1.85032 0
M  V30 5339 C 500.083 -0.253393 -1.58791 0
M  V30 5340 O 501.273 -0.510205 -1.66561 0
M  V30 5341 C 498.405 -1.10544 -3.22479 0
M  V30 5342 H 499.598 -2.32712 -1.8917 0
M  V30 5343 H 497.151 -1.23614 -0.956515 0
M  V30 5344 H 497.886 -0.136952 -3.24011 0
M  V30 5345 H 497.671 -1.90127 -3.4292 0
M  V30 5346 H 499.161 -1.11082 -4.02555 0
M  V30 5347 N 499.598 0.982988 -1.23187 0
M  V30 5348 C 500.846 1.72052 -1.06031 0
M  V30 5349 C 501.167 1.90769 0.404019 0
M  V30 5350 O 500.437 1.47446 1.28982 0
M  V30 5351 H 499.017 0.637499 -0.389363 0
M  V30 5352 H 501.679 1.18338 -1.54862 0
M  V30 5353 H 500.775 2.7111 -1.54615 0
M  V30 5354 N 501.076 1.04316 1.18135 0
M  V30 5355 C 502.039 0.640794 2.2006 0
M  V30 5356 C 503.039 -0.303124 1.57917 0
M  V30 5357 O 504.229 -0.0881855 1.73977 0
M  V30 5358 C 501.361 -0.060148 3.40847 0
M  V30 5359 H 502.554 1.54281 2.57172 0
M  V30 5360 H 500.107 0.836004 1.32063 0
M  V30 5361 H 500.842 -0.975845 3.0927 0
M  V30 5362 H 500.627 0.618319 3.87194 0
M  V30 5363 H 502.117 -0.328082 4.16309 0
M  V30 5364 N 502.554 -1.34406 0.822964 0
M  V30 5365 C 503.8 -1.98578 0.411666 0
M  V30 5366 C 504.133 -1.65093 -1.02264 0
M  V30 5367 O 503.408 -0.92258 -1.71227 0
M  V30 5368 C 503.691 -3.54823 0.614235 0
M  V30 5369 C 503.544 -3.9805 2.09466 0
M  V30 5370 C 504.863 -4.40071 0.050221 0
M  V30 5371 H 501.982 -0.721355 0.151047 0
M  V30 5372 H 504.624 -1.59301 1.03554 0
M  V30 5373 H 502.774 -3.88411 0.0831774 0
M  V30 5374 H 504.446 -3.74795 2.68936 0
M  V30 5375 H 502.689 -3.4836 2.5851 0
M  V30 5376 H 503.36 -5.06819 2.18721 0
M  V30 5377 H 505.836 -4.13037 0.503953 0
M  V30 5378 H 504.712 -5.48452 0.221759 0
M  V30 5379 H 504.973 -4.29576 -1.04482 0
M  V30 5380 N 504.032 -0.577932 -1.46621 0
M  V30 5381 C 505.28 -0.061566 -2.02006 0
M  V30 5382 C 505.601 1.30117 -1.4524 0
M  V30 5383 O 504.871 1.85313 -0.63529 0
M  V30 5384 H 503.451 -0.0197692 -0.746738 0
M  V30 5385 H 506.113 -0.752631 -1.79782 0
M  V30 5386 H 505.209 0.0110238 -3.12098 0
M  V30 5387 N 505.51 1.54411 -0.315457 0
M  V30 5388 C 506.473 2.22713 0.54142 0
M  V30 5389 C 507.473 1.2179 1.04995 0
M  V30 5390 O 508.663 1.46426 0.943667 0
M  V30 5391 C 505.795 2.92485 1.75116 0
M  V30 5392 H 506.988 2.99849 -0.0555508 0
M  V30 5393 H 504.541 1.56159 -0.0664453 0
M  V30 5394 H 505.276 2.19466 2.38758 0
M  V30 5395 H 505.061 3.66483 1.39401 0
M  V30 5396 H 506.551 3.44548 2.35959 0
M  V30 5397 N 506.988 0.0434614 1.5754 0
M  V30 5398 C 508.216 -0.641835 1.96693 0
M  V30 5399 C 508.631 -1.64832 0.920652 0
M  V30 5400 O 507.988 -1.82247 -0.095993 0
M  V30 5401 C 508.039 -1.33557 3.35924 0
M  V30 5402 O 507.76 -0.369403 4.3654 0
M  V30 5403 C 509.261 -2.11135 3.89791 0
M  V30 5404 H 506.481 -0.176013 0.647503 0
M  V30 5405 H 509.025 0.107478 2.04217 0
M  V30 5406 H 507.18 -2.03617 3.29574 0
M  V30 5407 H 507.594 -0.863674 5.1734 0
M  V30 5408 H 509.068 -2.55107 4.89514 0
M  V30 5409 H 509.545 -2.95634 3.24803 0
M  V30 5410 H 510.151 -1.46002 3.99454 0
M  V30 5411 N 508.466 -1.55915 -0.229846 0
M  V30 5412 C 509.429 -1.90914 -1.26824 0
M  V30 5413 C 510.429 -0.786999 -1.40225 0
M  V30 5414 O 511.619 -1.05484 -1.38632 0
M  V30 5415 C 508.751 -2.15264 -2.64337 0
M  V30 5416 H 509.944 -2.8378 -0.969998 0
M  V30 5417 H 507.497 -1.49069 -0.4699 0
M  V30 5418 H 508.232 -1.24923 -2.99274 0
M  V30 5419 H 508.017 -2.97005 -2.55989 0
M  V30 5420 H 509.507 -2.43467 -3.39284 0
M  V30 5421 N 509.944 0.496216 -1.49584 0
M  V30 5422 C 511.19 1.25189 -1.59548 0
M  V30 5423 C 511.523 1.9212 -0.283466 0
M  V30 5424 O 510.798 1.80947 0.713324 0
M  V30 5425 C 511.081 2.31516 -2.75812 0
M  V30 5426 C 510.934 1.69054 -4.16822 0
M  V30 5427 C 512.253 3.3304 -2.87702 0
M  V30 5428 H 509.372 0.45379 -0.580727 0
M  V30 5429 H 512.014 0.549327 -1.81886 0
M  V30 5430 H 510.164 2.91438 -2.56897 0
M  V30 5431 H 511.836 1.12923 -4.47265 0
M  V30 5432 H 510.079 0.994485 -4.22247 0
M  V30 5433 H 510.75 2.462 -4.94054 0
M  V30 5434 H 513.226 2.83114 -3.04936 0
M  V30 5435 H 512.102 4.04794 -3.7072 0
M  V30 5436 H 512.363 3.95655 -1.97255 0
M  V30 5437 N 511.423 1.38739 0.74761 0
M  V30 5438 C 512.653 1.3832 1.53464 0
M  V30 5439 C 513.061 -0.0273464 1.8918 0
M  V30 5440 O 512.404 -1.00588 1.53713 0
M  V30 5441 C 512.466 2.18007 2.85855 0
M  V30 5442 C 512.13 3.66762 2.72644 0
M  V30 5443 C 513.127 4.60124 2.42037 0
M  V30 5444 C 510.812 4.10193 2.89909 0
M  V30 5445 C 512.806 5.94897 2.28859 0
M  V30 5446 C 510.493 5.45045 2.7635 0
M  V30 5447 C 511.491 6.37211 2.45869 0
M  V30 5448 O 511.179 7.69581 2.3238 0
M  V30 5449 H 510.911 0.474718 0.481268 0
M  V30 5450 H 513.465 1.83012 0.932518 0
M  V30 5451 H 511.695 1.68043 3.48279 0
M  V30 5452 H 513.384 2.09921 3.47402 0
M  V30 5453 H 514.15 4.27874 2.28361 0
M  V30 5454 H 510.029 3.38797 3.1263 0
M  V30 5455 H 513.573 6.66802 2.04989 0
M  V30 5456 H 509.47 5.76889 2.89601 0
M  V30 5457 H 510.238 7.80169 2.47546 0
M  V30 5458 N 512.901 -0.976442 1.23707 0
M  V30 5459 C 514.312 -1.53284 1.06587 0
M  V30 5460 C 514.663 -1.92765 -0.365526 0
M  V30 5461 O 513.788 -1.7645 -1.25277 0
M  V30 5462 C 514.383 -2.78548 1.92864 0
M  V30 5463 C 512.942 -3.30574 1.79994 0
M  V30 5464 C 512.089 -2.03538 1.88328 0
M  V30 5465 H 515.04 -0.795692 1.37311 0
M  V30 5466 H 515.061 -3.5155 1.45577 0
M  V30 5467 H 514.573 -2.49782 2.97037 0
M  V30 5468 H 512.674 -3.64211 0.786202 0
M  V30 5469 H 512.787 -4.00065 2.636 0
M  V30 5470 H 511.151 -2.17853 1.31954 0
M  V30 5471 H 511.934 -1.77149 2.94063 0
M  V30 5472 N 514.379 -1.04941 -1.1758 0
M  V30 5473 C 515.628 -0.753124 -1.87112 0
M  V30 5474 C 515.941 0.722507 -1.81767 0
M  V30 5475 O 517.147 1.13265 -2.46746 0
M  V30 5476 C 515.603 -1.29695 -3.35719 0
M  V30 5477 C 515.211 -2.80184 -3.49572 0
M  V30 5478 C 516.955 -1.07759 -4.10595 0
M  V30 5479 C 514.862 -3.2788 -4.92187 0
M  V30 5480 H 513.792 -0.278034 -0.700866 0
M  V30 5481 H 516.443 -1.26637 -1.32798 0
M  V30 5482 H 514.825 -0.711522 -3.89555 0
M  V30 5483 H 515.999 -3.44561 -3.05965 0
M  V30 5484 H 514.314 -3.00632 -2.88113 0
M  V30 5485 H 516.911 -1.40899 -5.15802 0
M  V30 5486 H 517.254 -0.0152302 -4.16297 0
M  V30 5487 H 517.787 -1.62809 -3.62957 0
M  V30 5488 H 514.526 -4.33535 -4.91658 0
M  V30 5489 H 514.046 -2.68245 -5.36475 0
M  V30 5490 H 515.725 -3.22412 -5.60945 0
M  V30 5491 N 515.857 1.33968 -0.830081 0
M  V30 5492 C 517.134 1.92554 -0.343858 0
M  V30 5493 C 517.514 1.7573 1.16971 0
M  V30 5494 O 516.862 1.14035 1.98011 0
M  V30 5495 C 517.072 3.40147 -0.781073 0
M  V30 5496 C 518.42 4.17299 -0.78402 0
M  V30 5497 O 519.444 3.48762 -0.724112 0
M  V30 5498 O 518.303 5.39631 -0.863739 0
M  V30 5499 H 515.397 0.821469 -0.0954827 0
M  V30 5500 H 517.943 1.42897 -0.915348 0
M  V30 5501 H 516.715 3.46225 -1.82329 0
M  V30 5502 H 516.338 3.97166 -0.18567 0
M  V30 5503 N 517.335 0.585699 1.46312 0
M  V30 5504 C 518.265 -0.133556 2.33118 0
M  V30 5505 C 519.246 -0.880707 1.45525 0
M  V30 5506 O 520.431 -0.855579 1.74337 0
M  V30 5507 C 517.561 -1.14585 3.27853 0
M  V30 5508 C 516.515 -0.513341 4.2491 0
M  V30 5509 C 515.841 -1.63231 5.09175 0
M  V30 5510 C 517.141 0.551413 5.19381 0
M  V30 5511 H 518.835 0.59121 2.93505 0
M  V30 5512 H 516.381 0.285761 1.41136 0
M  V30 5513 H 518.334 -1.65741 3.87438 0
M  V30 5514 H 517.058 -1.90093 2.65579 0
M  V30 5515 H 515.717 -0.0228349 3.66593 0
M  V30 5516 H 515.365 -2.37713 4.43285 0
M  V30 5517 H 515.065 -1.21473 5.74907 0
M  V30 5518 H 516.589 -2.14658 5.71624 0
M  V30 5519 H 518.003 0.124804 5.73164 0
M  V30 5520 H 516.4 0.889486 5.93471 0
M  V30 5521 H 517.47 1.43655 4.63132 0
M  V30 5522 N 518.813 -1.54241 0.323641 0
M  V30 5523 C 520.059 -2.00867 -0.279323 0
M  V30 5524 C 520.392 -1.21146 -1.5178 0
M  V30 5525 O 519.667 -0.29378 -1.92269 0
M  V30 5526 C 519.95 -3.54837 -0.613387 0
M  V30 5527 C 519.803 -4.45284 0.635803 0
M  V30 5528 C 521.122 -4.16186 -1.43099 0
M  V30 5529 H 518.241 -0.730177 -0.100049 0
M  V30 5530 H 520.883 -1.84829 0.440235 0
M  V30 5531 H 519.033 -3.68634 -1.22641 0
M  V30 5532 H 520.705 -4.43357 1.27406 0
M  V30 5533 H 518.948 -4.14956 1.26466 0
M  V30 5534 H 519.619 -5.5084 0.357597 0
M  V30 5535 H 522.095 -4.05964 -0.912814 0
M  V30 5536 H 520.971 -5.24031 -1.6335 0
M  V30 5537 H 521.232 -3.69516 -2.42715 0
M  V30 5538 N 520.291 -0.0518155 -1.57515 0
M  V30 5539 C 521.238 0.922352 -2.11569 0
M  V30 5540 C 522.208 1.30842 -1.02321 0
M  V30 5541 O 523.393 1.39778 -1.29872 0
M  V30 5542 C 520.533 2.19167 -2.6657 0
M  V30 5543 C 519.646 1.86003 -3.89906 0
M  V30 5544 C 518.781 3.07398 -4.33221 0
M  V30 5545 C 517.82 2.70158 -5.49255 0
M  V30 5546 N 516.957 3.84248 -5.8762 0
M  V30 5547 H 521.797 0.454506 -2.94514 0
M  V30 5548 H 519.334 0.212718 -1.45554 0
M  V30 5549 H 521.292 2.93443 -2.96559 0
M  V30 5550 H 519.922 2.63528 -1.86421 0
M  V30 5551 H 518.974 1.01874 -3.66505 0
M  V30 5552 H 520.286 1.54592 -4.74239 0
M  V30 5553 H 519.44 3.89972 -4.64765 0
M  V30 5554 H 518.179 3.41988 -3.477 0
M  V30 5555 H 517.184 1.86001 -5.17382 0
M  V30 5556 H 518.409 2.36759 -6.36492 0
M  V30 5557 H 516.355 4.18638 -5.05053 0
M  V30 5558 H 516.272 3.56538 -6.66646 0
M  V30 5559 H 517.54 4.6746 -6.2378 0
M  V30 5560 N 521.769 1.56035 0.221574 0
M  V30 5561 C 522.997 1.8313 0.962864 0
M  V30 5562 C 523.412 0.630934 1.77946 0
M  V30 5563 O 522.769 -0.400519 1.78051 0
M  V30 5564 C 522.82 3.08742 1.88045 0
M  V30 5565 O 522.541 4.24147 1.09686 0
M  V30 5566 C 524.042 3.48824 2.73563 0
M  V30 5567 H 521.262 0.608775 0.282194 0
M  V30 5568 H 523.806 2.03124 0.23681 0
M  V30 5569 H 521.961 2.90723 2.56045 0
M  V30 5570 H 522.375 4.95505 1.71974 0
M  V30 5571 H 523.849 4.39752 3.3365 0
M  V30 5572 H 524.326 2.70575 3.45956 0
M  V30 5573 H 524.932 3.69282 2.10976 0
M  V30 5574 N 523.247 -0.488276 1.49845 0
M  V30 5575 C 524.663 -0.820566 1.3689 0
M  V30 5576 C 524.863 -1.97248 0.411752 0
M  V30 5577 O 523.919 -2.52042 -0.151931 0
M  V30 5578 C 525.232 -1.1488 2.77891 0
M  V30 5579 C 526.78 -1.25626 2.86683 0
M  V30 5580 C 527.255 -1.61772 4.28479 0
M  V30 5581 N 528.746 -1.68797 4.31349 0
M  V30 5582 C 529.481 -1.98235 5.38043 0
M  V30 5583 N 528.977 -2.2581 6.54967 0
M  V30 5584 N 530.77 -1.99593 5.2547 0
M  V30 5585 H 522.921 0.271123 2.10662 0
M  V30 5586 H 525.184 0.058735 0.946179 0
M  V30 5587 H 524.89 -0.375614 3.49688 0
M  V30 5588 H 524.764 -2.08919 3.14058 0
M  V30 5589 H 527.151 -2.02014 2.15114 0
M  V30 5590 H 527.232 -0.296072 2.54081 0
M  V30 5591 H 526.876 -0.859295 5.00578 0
M  V30 5592 H 526.806 -2.58912 4.58554 0
M  V30 5593 H 529.297 -1.49595 3.4703 0
M  V30 5594 H 529.61 -2.47497 7.32096 0
M  V30 5595 H 527.955 -2.23239 6.58171 0
M  V30 5596 H 531.146 -1.77535 4.33127 0
M  V30 5597 H 531.319 -2.222 6.08713 0
M  V30 5598 N 524.725 -1.39134 -0.740242 0
M  V30 5599 C 525.658 -1.3182 -1.86276 0
M  V30 5600 C 526.636 -0.192794 -1.61453 0
M  V30 5601 O 527.82 -0.372365 -1.84786 0
M  V30 5602 C 524.947 -1.04564 -3.22155 0
M  V30 5603 C 523.993 -2.19224 -3.65846 0
M  V30 5604 S 524.826 -3.81466 -3.75824 0
M  V30 5605 C 525.982 -3.56425 -5.14502 0
M  V30 5606 H 526.215 -2.26822 -1.92195 0
M  V30 5607 H 523.748 -1.25127 -0.904576 0
M  V30 5608 H 525.706 -0.895228 -4.00619 0
M  V30 5609 H 524.367 -0.112578 -3.13898 0
M  V30 5610 H 523.56 -1.95732 -4.6444 0
M  V30 5611 H 523.162 -2.30441 -2.94572 0
M  V30 5612 H 525.454 -3.13366 -6.00673 0
M  V30 5613 H 526.397 -4.54462 -5.43019 0
M  V30 5614 H 526.805 -2.90641 -4.8393 0
M  V30 5615 N 526.204 0.969867 -1.24223 0
M  V30 5616 C 527.136 2.0669 -0.99055 0
M  V30 5617 C 528.149 1.62753 0.0392222 0
M  V30 5618 O 529.338 1.77403 -0.197561 0
M  V30 5619 C 526.438 3.35589 -0.472594 0
M  V30 5620 C 525.611 4.08444 -1.56499 0
M  V30 5621 C 524.67 5.15616 -1.05007 0
M  V30 5622 O 523.696 5.41911 -1.7413 0
M  V30 5623 N 524.898 5.80383 0.116641 0
M  V30 5624 H 527.663 2.28855 -1.93508 0
M  V30 5625 H 525.224 1.13733 -1.15223 0
M  V30 5626 H 527.216 4.04542 -0.112919 0
M  V30 5627 H 525.786 3.10311 0.377617 0
M  V30 5628 H 525.006 3.33798 -2.09696 0
M  V30 5629 H 526.294 4.53882 -2.29932 0
M  V30 5630 H 525.692 5.6142 0.694589 0
M  V30 5631 H 524.249 6.50462 0.417483 0
M  V30 5632 N 527.682 1.05563 1.17022 0
M  V30 5633 C 528.63 0.653887 2.2322 0
M  V30 5634 C 529.624 -0.326642 1.66221 0
M  V30 5635 O 530.83 -0.192301 1.7897 0
M  V30 5636 H 527.205 0.193297 0.726733 0
M  V30 5637 H 529.176 1.5596 2.54399 0
M  V30 5638 C 527.925 0.0485434 3.47666 0
M  V30 5639 H 527.248 0.79413 3.91834 0
M  V30 5640 H 528.688 -0.195133 4.23551 0
M  V30 5641 C 527.147 -1.20583 3.14581 0
M  V30 5642 O 527.677 -2.29475 3.29703 0
M  V30 5643 N 525.883 -1.10493 2.68774 0
M  V30 5644 H 525.43 -0.218795 2.56669 0
M  V30 5645 H 525.388 -1.94507 2.47011 0
M  V30 5646 N 529.16 -1.33526 0.837174 0
M  V30 5647 C 530.092 -2.28077 0.226579 0
M  V30 5648 C 531.105 -1.51666 -0.591717 0
M  V30 5649 O 532.294 -1.73511 -0.419064 0
M  V30 5650 C 529.394 -3.31597 -0.69978 0
M  V30 5651 C 528.567 -4.37329 0.0788067 0
M  V30 5652 C 527.626 -5.20526 -0.770637 0
M  V30 5653 O 526.652 -5.68811 -0.210453 0
M  V30 5654 N 527.854 -5.41639 -2.08825 0
M  V30 5655 H 530.619 -2.81115 1.03897 0
M  V30 5656 H 528.18 -1.46201 0.695476 0
M  V30 5657 H 530.172 -3.84158 -1.27298 0
M  V30 5658 H 528.742 -2.78848 -1.41288 0
M  V30 5659 H 527.962 -3.8529 0.833381 0
M  V30 5660 H 529.25 -5.05079 0.614238 0
M  V30 5661 H 528.648 -5.04108 -2.56693 0
M  V30 5662 H 527.205 -5.97263 -2.60998 0
M  V30 5663 N 530.638 -0.59345 -1.46 0
M  V30 5664 C 532.054 -0.255965 -1.57534 0
M  V30 5665 C 532.254 1.24167 -1.58697 0
M  V30 5666 O 531.31 2.02398 -1.50968 0
M  V30 5667 C 532.623 -0.91466 -2.86451 0
M  V30 5668 C 534.171 -0.889253 -3.00102 0
M  V30 5669 C 534.646 -1.52769 -4.3177 0
M  V30 5670 N 536.137 -1.49253 -4.38495 0
M  V30 5671 C 536.872 -1.9558 -5.39014 0
M  V30 5672 N 536.368 -2.49929 -6.46148 0
M  V30 5673 N 538.161 -1.86432 -5.30282 0
M  V30 5674 H 530.312 -1.56604 -1.43489 0
M  V30 5675 H 532.575 -0.655207 -0.685133 0
M  V30 5676 H 532.281 -1.96861 -2.91442 0
M  V30 5677 H 532.155 -0.429356 -3.74748 0
M  V30 5678 H 534.542 0.156111 -2.94687 0
M  V30 5679 H 534.623 -1.41268 -2.13253 0
M  V30 5680 H 534.267 -2.57231 -4.37944 0
M  V30 5681 H 534.197 -0.979398 -5.17412 0
M  V30 5682 H 536.688 -1.09536 -3.61677 0
M  V30 5683 H 537.001 -2.83109 -7.19075 0
M  V30 5684 H 535.346 -2.53961 -6.46938 0
M  V30 5685 H 538.537 -1.43722 -4.4549 0
M  V30 5686 H 538.71 -2.22852 -6.08474 0
M  V30 5687 N 532.116 1.54067 -0.331816 0
M  V30 5688 C 533.341 2.05599 0.272705 0
M  V30 5689 C 533.766 1.2059 1.44359 0
M  V30 5690 O 533.124 0.216907 1.79998 0
M  V30 5691 C 533.172 3.54188 0.677021 0
M  V30 5692 O 532.276 3.72082 1.77844 0
M  V30 5693 H 531.617 0.662286 0.0476801 0
M  V30 5694 H 534.147 1.98826 -0.482624 0
M  V30 5695 H 534.157 3.96608 0.957415 0
M  V30 5696 H 532.832 4.15513 -0.179325 0
M  V30 5697 H 531.409 3.41566 1.49622 0
M  V30 5698 N 533.594 0.0601682 1.57485 0
M  V30 5699 C 534.822 -0.620937 1.97363 0
M  V30 5700 C 535.237 -1.63846 0.938082 0
M  V30 5701 O 534.594 -1.82339 -0.0766578 0
M  V30 5702 C 534.645 -1.29987 3.37321 0
M  V30 5703 O 534.366 -0.323081 4.36907 0
M  V30 5704 C 535.867 -2.06989 3.92008 0
M  V30 5705 H 533.087 -0.169135 0.649334 0
M  V30 5706 H 535.631 0.129132 2.04092 0
M  V30 5707 H 533.786 -2.0011 3.31715 0
M  V30 5708 H 534.2 -0.808754 5.18227 0
M  V30 5709 H 535.674 -2.49901 4.92192 0
M  V30 5710 H 536.151 -2.92173 3.2792 0
M  V30 5711 H 536.757 -1.41757 4.0098 0
M  V30 5712 N 535.072 -1.5615 -0.213296 0
M  V30 5713 C 536.32 -1.79191 -0.934612 0
M  V30 5714 C 536.641 -0.630112 -1.84539 0
M  V30 5715 O 535.911 0.35257 -1.92701 0
M  V30 5716 H 534.491 -0.660937 -0.348097 0
M  V30 5717 H 537.153 -1.93618 -0.22317 0
M  V30 5718 H 536.249 -2.71656 -1.53654 0
M  V30 5719 N 536.55 0.480323 -1.50102 0
M  V30 5720 C 537.775 1.26126 -1.64642 0
M  V30 5721 C 538.2 1.85257 -0.325823 0
M  V30 5722 O 537.558 1.66854 0.709194 0
M  V30 5723 C 537.606 2.35243 -2.73301 0
M  V30 5724 O 536.71 3.39646 -2.33911 0
M  V30 5725 H 536.051 0.371463 -0.550374 0
M  V30 5726 H 538.581 0.572696 -1.96421 0
M  V30 5727 H 538.591 2.80695 -2.96098 0
M  V30 5728 H 537.266 1.91574 -3.6915 0
M  V30 5729 H 535.843 2.99969 -2.21525 0
M  V30 5730 N 538.028 1.39524 0.732853 0
M  V30 5731 C 539.275 1.36865 1.49246 0
M  V30 5732 C 539.603 -0.0347118 1.94469 0
M  V30 5733 O 538.858 -1.01596 1.67262 0
M  V30 5734 C 539.157 2.28916 2.74468 0
M  V30 5735 C 538.823 3.76506 2.481 0
M  V30 5736 C 537.485 4.16721 2.40619 0
M  V30 5737 C 539.837 4.69846 2.25598 0
M  V30 5738 C 537.165 5.48334 2.08679 0
M  V30 5739 C 539.517 6.01739 1.95174 0
M  V30 5740 C 538.181 6.41015 1.86163 0
M  V30 5741 H 537.451 0.500824 0.546129 0
M  V30 5742 H 540.098 1.72047 0.840958 0
M  V30 5743 H 538.403 1.86859 3.4437 0
M  V30 5744 H 540.1 2.2415 3.32502 0
M  V30 5745 H 536.69 3.44635 2.54803 0
M  V30 5746 H 540.874 4.39608 2.30344 0
M  V30 5747 H 536.13 5.77685 2.00226 0
M  V30 5748 H 540.304 6.73591 1.76771 0
M  V30 5749 H 537.931 7.42917 1.61179 0
M  V30 5750 N 539.506 -0.963266 1.24736 0
M  V30 5751 C 540.752 -1.70933 1.09131 0
M  V30 5752 C 541.085 -1.90676 -0.368273 0
M  V30 5753 O 540.36 -1.47147 -1.27193 0
M  V30 5754 C 540.643 -3.09744 1.83658 0
M  V30 5755 C 540.496 -2.97465 3.37394 0
M  V30 5756 C 541.815 -4.09483 1.61282 0
M  V30 5757 H 538.934 -0.620398 0.397838 0
M  V30 5758 H 541.576 -1.12028 1.53459 0
M  V30 5759 H 539.726 -3.60031 1.4598 0
M  V30 5760 H 541.398 -2.54571 3.84696 0
M  V30 5761 H 539.641 -2.33576 3.65547 0
M  V30 5762 H 540.312 -3.95822 3.84745 0
M  V30 5763 H 542.788 -3.68073 1.94066 0
M  V30 5764 H 541.664 -5.04666 2.15878 0
M  V30 5765 H 541.925 -4.38639 0.552102 0
M  V30 5766 N 540.985 -1.06182 -1.16461 0
M  V30 5767 C 542.233 -0.776326 -1.86595 0
M  V30 5768 C 542.554 0.69921 -1.82033 0
M  V30 5769 O 541.824 1.50579 -1.2531 0
M  V30 5770 H 540.404 -0.284184 -0.690832 0
M  V30 5771 H 543.066 -1.34308 -1.41235 0
M  V30 5772 H 542.162 -1.10022 -2.92064 0
M  V30 5773 N 542.463 1.3308 -0.844243 0
M  V30 5774 C 543.373 2.32876 -0.283922 0
M  V30 5775 C 544.389 1.63589 0.592846 0
M  V30 5776 O 545.565 1.95205 0.495693 0
M  V30 5777 C 542.63 3.42667 0.527283 0
M  V30 5778 C 541.691 4.27664 -0.374394 0
M  V30 5779 C 540.924 5.32212 0.39819 0
M  V30 5780 O 541.147 5.46635 1.62932 0
M  V30 5781 O 540.081 6.01458 -0.2306 0
M  V30 5782 H 543.907 2.82671 -1.11045 0
M  V30 5783 H 541.492 1.36518 -0.606903 0
M  V30 5784 H 543.374 4.09652 0.988078 0
M  V30 5785 H 542.049 2.95079 1.33078 0
M  V30 5786 H 540.956 3.63526 -0.883144 0
M  V30 5787 H 542.289 4.78749 -1.1428 0
M  V30 5788 N 543.941 0.601185 1.45683 0
M  V30 5789 C 544.871 -0.108824 2.33246 0
M  V30 5790 C 545.852 -0.865223 1.46451 0
M  V30 5791 O 547.037 -0.83704 1.75235 0
M  V30 5792 C 544.167 -1.11101 3.2905 0
M  V30 5793 C 543.121 -0.468244 4.25431 0
M  V30 5794 C 542.447 -1.57822 5.10878 0
M  V30 5795 C 543.747 0.606469 5.18767 0
M  V30 5796 H 545.441 0.622306 2.92861 0
M  V30 5797 H 542.987 0.300714 1.40825 0
M  V30 5798 H 544.94 -1.61622 3.89174 0
M  V30 5799 H 543.664 -1.87265 2.67581 0
M  V30 5800 H 542.323 0.0160484 3.66596 0
M  V30 5801 H 541.971 -2.32998 4.45781 0
M  V30 5802 H 541.671 -1.15369 5.76163 0
M  V30 5803 H 543.195 -2.08583 5.73869 0
M  V30 5804 H 544.609 0.185589 5.73 0
M  V30 5805 H 543.006 0.952381 5.92494 0
M  V30 5806 H 544.076 1.48559 4.61582 0
M  V30 5807 N 545.419 -1.53889 0.339982 0
M  V30 5808 C 546.352 -2.21187 -0.561405 0
M  V30 5809 C 547.33 -1.19463 -1.10306 0
M  V30 5810 O 548.514 -1.48268 -1.164 0
M  V30 5811 C 545.641 -2.8865 -1.77198 0
M  V30 5812 C 544.687 -4.04232 -1.3601 0
M  V30 5813 S 545.52 -5.34129 -0.382909 0
M  V30 5814 C 546.676 -6.05094 -1.60039 0
M  V30 5815 H 546.909 -2.97298 0.0102092 0
M  V30 5816 H 544.442 -1.53901 0.124056 0
M  V30 5817 H 546.4 -3.28138 -2.4665 0
M  V30 5818 H 545.061 -2.12311 -2.3148 0
M  V30 5819 H 544.254 -4.50358 -2.2626 0
M  V30 5820 H 543.856 -3.66503 -0.745098 0
M  V30 5821 H 546.148 -6.2827 -2.53541 0
M  V30 5822 H 547.091 -6.98182 -1.18099 0
M  V30 5823 H 547.499 -5.35207 -1.79483 0
M  V30 5824 N 546.897 -0.0685191 -1.57451 0
M  V30 5825 C 548.127 0.609577 -1.97402 0
M  V30 5826 C 548.535 1.63882 -0.945489 0
M  V30 5827 O 547.878 1.8354 0.0766052 0
M  V30 5828 C 547.94 1.3385 -3.33653 0
M  V30 5829 C 547.604 0.463103 -4.54648 0
M  V30 5830 C 548.601 -0.277964 -5.19156 0
M  V30 5831 C 546.286 0.388941 -5.00792 0
M  V30 5832 C 548.28 -1.08145 -6.28159 0
M  V30 5833 C 545.967 -0.418217 -6.09667 0
M  V30 5834 C 546.965 -1.15208 -6.73213 0
M  V30 5835 O 546.653 -1.94594 -7.79993 0
M  V30 5836 H 546.385 0.170197 -0.654224 0
M  V30 5837 H 548.939 -0.13647 -2.04946 0
M  V30 5838 H 547.169 2.13055 -3.22714 0
M  V30 5839 H 548.858 1.90851 -3.58233 0
M  V30 5840 H 549.624 -0.230241 -4.84453 0
M  V30 5841 H 545.503 0.949769 -4.5111 0
M  V30 5842 H 549.047 -1.65476 -6.7769 0
M  V30 5843 H 544.944 -0.467515 -6.43805 0
M  V30 5844 H 545.712 -1.8699 -7.96854 0
M  V30 5845 N 548.375 1.56261 0.205012 0
M  V30 5846 C 549.322 1.93754 1.25411 0
M  V30 5847 C 550.292 0.796826 1.45739 0
M  V30 5848 O 551.477 1.05414 1.59036 0
M  V30 5849 C 548.617 2.27383 2.59598 0
M  V30 5850 C 547.73 3.5447 2.46931 0
M  V30 5851 C 546.865 3.77468 3.73753 0
M  V30 5852 C 545.904 4.98014 3.55877 0
M  V30 5853 N 545.041 5.17316 4.74688 0
M  V30 5854 H 549.881 2.83203 0.92737 0
M  V30 5855 H 547.418 1.40158 0.446574 0
M  V30 5856 H 549.376 2.44895 3.37761 0
M  V30 5857 H 548.006 1.41088 2.90335 0
M  V30 5858 H 547.058 3.45061 1.60116 0
M  V30 5859 H 548.37 4.42789 2.29651 0
M  V30 5860 H 547.524 3.95165 4.60358 0
M  V30 5861 H 546.263 2.87461 3.93976 0
M  V30 5862 H 545.268 4.80249 2.67657 0
M  V30 5863 H 546.493 5.8952 3.37109 0
M  V30 5864 H 544.439 4.30255 4.95194 0
M  V30 5865 H 544.356 5.99796 4.60197 0
M  V30 5866 H 545.624 5.39463 5.62672 0
M  V30 5867 N 549.853 -0.472356 1.50355 0
M  V30 5868 C 550.801 -1.59126 1.69651 0
M  V30 5869 C 551.795 -1.59793 0.56237 0
M  V30 5870 O 553.001 -1.63957 0.742832 0
M  V30 5871 H 549.376 -0.528008 0.535454 0
M  V30 5872 H 551.347 -1.40013 2.63513 0
M  V30 5873 C 550.096 -2.97075 1.8067 0
M  V30 5874 H 549.419 -2.9728 2.67329 0
M  V30 5875 H 550.859 -3.74825 1.98197 0
M  V30 5876 C 549.318 -3.32247 0.558016 0
M  V30 5877 O 549.848 -4.00553 -0.303399 0
M  V30 5878 N 548.054 -2.87659 0.412415 0
M  V30 5879 H 547.601 -2.32246 1.11443 0
M  V30 5880 H 547.559 -3.11556 -0.421908 0
M  V30 5881 N 551.331 -1.39911 -0.725443 0
M  V30 5882 C 552.556 -1.41137 -1.5197 0
M  V30 5883 C 552.981 -0.010262 -1.88097 0
M  V30 5884 O 552.339 0.979184 -1.52583 0
M  V30 5885 C 552.387 -2.2994 -2.77777 0
M  V30 5886 O 551.491 -1.73586 -3.74088 0
M  V30 5887 H 550.832 -0.480219 -0.458569 0
M  V30 5888 H 553.362 -1.84023 -0.894249 0
M  V30 5889 H 553.372 -2.44785 -3.26411 0
M  V30 5890 H 552.047 -3.31759 -2.50816 0
M  V30 5891 H 550.624 -1.68035 -3.32894 0
M  V30 5892 N 552.809 0.956637 -1.25245 0
M  V30 5893 C 554.056 1.701 -1.09874 0
M  V30 5894 C 554.384 1.91128 0.36062 0
M  V30 5895 O 553.639 1.47837 1.28229 0
M  V30 5896 C 553.938 3.08996 -1.79601 0
M  V30 5897 C 553.604 3.07774 -3.29523 0
M  V30 5898 C 552.266 3.07149 -3.70423 0
M  V30 5899 C 554.618 3.01257 -4.25316 0
M  V30 5900 C 551.946 2.97752 -5.0553 0
M  V30 5901 C 554.298 2.93403 -5.60444 0
M  V30 5902 C 552.962 2.91111 -6.00675 0
M  V30 5903 H 552.232 0.62244 -0.402056 0
M  V30 5904 H 554.879 1.1178 -1.55491 0
M  V30 5905 H 553.184 3.70848 -1.26408 0
M  V30 5906 H 554.881 3.65407 -1.65162 0
M  V30 5907 H 551.471 3.09032 -2.9698 0
M  V30 5908 H 555.655 3.00861 -3.9471 0
M  V30 5909 H 550.911 2.94346 -5.35883 0
M  V30 5910 H 555.085 2.87321 -6.34366 0
M  V30 5911 H 552.712 2.83586 -7.05325 0
M  V30 5912 N 554.287 1.06798 1.15896 0
M  V30 5913 C 555.564 0.701057 1.82605 0
M  V30 5914 C 555.944 -0.817066 1.94646 0
M  V30 5915 O 555.292 -1.72933 1.49353 0
M  V30 5916 C 555.502 1.40895 3.19296 0
M  V30 5917 C 556.85 1.55744 3.95005 0
M  V30 5918 O 557.874 1.36927 3.28831 0
M  V30 5919 O 556.733 1.86658 5.13635 0
M  V30 5920 H 553.827 0.248791 0.78869 0
M  V30 5921 H 556.373 1.16857 1.23055 0
M  V30 5922 H 555.145 2.4439 3.05596 0
M  V30 5923 H 554.768 0.931847 3.86526 0
M  V30 5924 N 555.766 -1.3263 0.851289 0
M  V30 5925 C 557.006 -1.99174 0.459266 0
M  V30 5926 C 557.37 -1.65913 -0.966273 0
M  V30 5927 O 558.571 -2.2552 -1.46267 0
M  V30 5928 C 556.842 -3.50721 0.687698 0
M  V30 5929 S 558.401 -4.37039 0.392746 0
M  V30 5930 H 555.219 -0.689832 0.172199 0
M  V30 5931 H 557.821 -1.61395 1.10327 0
M  V30 5932 H 556.525 -3.72417 1.72435 0
M  V30 5933 H 556.056 -3.93389 0.0299949 0
M  V30 5934 H 558.071 -4.8999 -0.782578 0
M  V30 5935 N 557.244 -0.608902 -1.45362 0
M  V30 5936 C 558.491 -0.104607 -2.0223 0
M  V30 5937 C 558.819 1.26534 -1.47714 0
M  V30 5938 O 558.074 1.84855 -0.642435 0
M  V30 5939 C 558.373 -0.0167296 -3.57396 0
M  V30 5940 C 558.039 -1.32251 -4.31069 0
M  V30 5941 C 556.701 -1.68019 -4.50914 0
M  V30 5942 C 559.053 -2.18542 -4.73169 0
M  V30 5943 C 556.381 -2.89828 -5.10114 0
M  V30 5944 C 558.733 -3.39602 -5.33717 0
M  V30 5945 C 557.397 -3.7562 -5.51784 0
M  V30 5946 H 556.667 -0.0382785 -0.740011 0
M  V30 5947 H 559.314 -0.790782 -1.7441 0
M  V30 5948 H 557.619 0.752715 -3.84502 0
M  V30 5949 H 559.316 0.389634 -3.99103 0
M  V30 5950 H 555.906 -1.03411 -4.15938 0
M  V30 5951 H 560.09 -1.92208 -4.5757 0
M  V30 5952 H 555.346 -3.17839 -5.22291 0
M  V30 5953 H 559.52 -4.06716 -5.65292 0
M  V30 5954 H 557.147 -4.70093 -5.97425 0
M  V30 5955 N 558.722 1.53707 -0.348139 0
M  V30 5956 C 559.669 2.25173 0.506518 0
M  V30 5957 C 560.639 1.25174 1.09182 0
M  V30 5958 O 561.824 1.53917 1.12757 0
M  V30 5959 C 558.964 3.03141 1.64923 0
M  V30 5960 C 558.077 4.18002 1.0908 0
M  V30 5961 C 557.212 4.83447 2.20119 0
M  V30 5962 C 556.251 5.90369 1.61651 0
M  V30 5963 N 555.388 6.49575 2.66451 0
M  V30 5964 H 560.228 2.97799 -0.109452 0
M  V30 5965 H 557.765 1.46953 -0.0657866 0
M  V30 5966 H 559.723 3.46607 2.32205 0
M  V30 5967 H 558.353 2.32803 2.23612 0
M  V30 5968 H 557.405 3.79145 0.308783 0
M  V30 5969 H 558.717 4.94892 0.623178 0
M  V30 5970 H 557.871 5.30008 2.95257 0
M  V30 5971 H 556.61 4.05991 2.70227 0
M  V30 5972 H 555.615 5.43186 0.850209 0
M  V30 5973 H 556.84 6.69735 1.1239 0
M  V30 5974 H 554.786 5.74981 3.15805 0
M  V30 5975 H 554.703 7.21952 2.24325 0
M  V30 5976 H 555.971 7.00789 3.41344 0
M  V30 5977 N 560.2 0.0768682 1.57412 0
M  V30 5978 C 561.147 -0.888577 2.13009 0
M  V30 5979 C 562.117 -1.29198 1.0439 0
M  V30 5980 O 563.302 -1.37694 1.3208 0
M  V30 5981 C 560.442 -2.14899 2.70023 0
M  V30 5982 C 559.555 -1.79777 3.92816 0
M  V30 5983 C 558.69 -3.00467 4.38056 0
M  V30 5984 C 557.729 -2.61385 5.53484 0
M  V30 5985 N 556.866 -3.74851 5.93659 0
M  V30 5986 H 561.706 -0.407593 2.95199 0
M  V30 5987 H 559.243 -0.189534 1.45874 0
M  V30 5988 H 561.201 -2.88688 3.0119 0
M  V30 5989 H 559.831 -2.60529 1.9059 0
M  V30 5990 H 558.883 -0.960301 3.68079 0
M  V30 5991 H 560.195 -1.47027 4.76639 0
M  V30 5992 H 559.349 -3.82529 4.7091 0
M  V30 5993 H 558.088 -3.36413 3.53097 0
M  V30 5994 H 557.093 -1.77746 5.20275 0
M  V30 5995 H 558.318 -2.26603 6.40178 0
M  V30 5996 H 556.264 -4.1055 5.11649 0
M  V30 5997 H 556.181 -3.45887 6.72234 0
M  V30 5998 H 557.449 -4.57477 6.31138 0
M  V30 5999 N 561.678 -1.56367 -0.196722 0
M  V30 6000 C 562.924 -1.80796 -0.918725 0
M  V30 6001 C 563.257 -0.650645 -1.82976 0
M  V30 6002 O 562.532 0.348889 -1.91345 0
M  V30 6003 C 562.815 -3.15472 -1.73636 0
M  V30 6004 C 562.668 -4.41693 -0.85015 0
M  V30 6005 C 563.987 -3.46824 -2.70927 0
M  V30 6006 H 561.106 -0.657702 -0.332561 0
M  V30 6007 H 563.748 -1.89086 -0.186186 0
M  V30 6008 H 561.898 -3.08536 -2.36088 0
M  V30 6009 H 563.57 -4.60673 -0.240459 0
M  V30 6010 H 561.813 -4.33517 -0.156785 0
M  V30 6011 H 562.484 -5.32419 -1.45719 0
M  V30 6012 H 564.96 -3.54049 -2.18607 0
M  V30 6013 H 563.836 -4.4218 -3.25219 0
M  V30 6014 H 564.097 -2.70236 -3.49893 0
M  V30 6015 N 563.156 0.464375 -1.50603 0
M  V30 6016 C 564.086 1.56944 -1.72889 0
M  V30 6017 C 565.067 1.59979 -0.577997 0
M  V30 6018 O 566.252 1.76138 -0.817855 0
M  V30 6019 C 563.382 2.95225 -1.8292 0
M  V30 6020 C 562.336 3.07056 -2.98162 0
M  V30 6021 C 561.662 4.47051 -2.93343 0
M  V30 6022 C 562.962 2.83648 -4.38567 0
M  V30 6023 H 564.656 1.38547 -2.65415 0
M  V30 6024 H 562.202 0.665082 -1.27721 0
M  V30 6025 H 564.155 3.72467 -1.97095 0
M  V30 6026 H 562.879 3.14793 -0.870209 0
M  V30 6027 H 561.538 2.32248 -2.83648 0
M  V30 6028 H 561.186 4.63547 -1.95276 0
M  V30 6029 H 560.886 4.55902 -3.70712 0
M  V30 6030 H 562.41 5.26304 -3.09575 0
M  V30 6031 H 563.824 3.50636 -4.53572 0
M  V30 6032 H 562.221 3.03937 -5.17438 0
M  V30 6033 H 563.291 1.79451 -4.50472 0
M  V30 6034 N 564.634 1.40294 0.718013 0
M  V30 6035 C 566.05 1.2227 1.02577 0
M  V30 6036 C 566.25 0.0961976 2.0127 0
M  V30 6037 O 565.306 -0.546695 2.46511 0
M  V30 6038 C 566.619 2.56348 1.57182 0
M  V30 6039 C 568.167 2.6334 1.69178 0
M  V30 6040 C 568.642 3.9768 2.27188 0
M  V30 6041 N 570.133 3.99409 2.34578 0
M  V30 6042 C 570.868 5.00141 2.8044 0
M  V30 6043 N 570.364 6.11268 3.26073 0
M  V30 6044 N 572.157 4.87511 2.79802 0
M  V30 6045 H 564.308 2.12304 0.0637899 0
M  V30 6046 H 566.571 0.943632 0.0909036 0
M  V30 6047 H 566.277 3.3942 0.921262 0
M  V30 6048 H 566.151 2.77266 2.55741 0
M  V30 6049 H 568.538 1.80641 2.33351 0
M  V30 6050 H 568.619 2.46255 0.692247 0
M  V30 6051 H 568.263 4.80817 1.63638 0
M  V30 6052 H 568.193 4.12093 3.27852 0
M  V30 6053 H 570.684 3.19162 2.02346 0
M  V30 6054 H 570.997 6.84023 3.59628 0
M  V30 6055 H 569.342 6.14837 3.24038 0
M  V30 6056 H 572.533 3.9979 2.43487 0
M  V30 6057 H 572.706 5.66158 3.15228 0
M  V30 6058 N 566.112 -0.949982 1.2575 0
M  V30 6059 C 567.342 -1.72721 1.13363 0
M  V30 6060 C 567.75 -1.86562 -0.314842 0
M  V30 6061 O 567.093 -1.36621 -1.22803 0
M  V30 6062 C 567.155 -3.15695 1.7198 0
M  V30 6063 C 566.819 -3.25268 3.21014 0
M  V30 6064 C 567.816 -3.09222 4.17945 0
M  V30 6065 C 565.501 -3.4894 3.61312 0
M  V30 6066 C 567.495 -3.16701 5.53154 0
M  V30 6067 C 565.182 -3.56055 4.96657 0
M  V30 6068 C 566.18 -3.3995 5.92387 0
M  V30 6069 O 565.868 -3.46757 7.25269 0
M  V30 6070 H 565.6 -0.547888 0.395973 0
M  V30 6071 H 568.154 -1.20009 1.66694 0
M  V30 6072 H 566.384 -3.69791 1.13101 0
M  V30 6073 H 568.073 -3.75295 1.54624 0
M  V30 6074 H 568.839 -2.90798 3.88151 0
M  V30 6075 H 564.718 -3.60534 2.87291 0
M  V30 6076 H 568.262 -3.04048 6.27854 0
M  V30 6077 H 564.159 -3.73997 5.26115 0
M  V30 6078 H 564.927 -3.63358 7.33426 0
M  V30 6079 N 567.59 -1.07411 -1.15328 0
M  V30 6080 C 568.5 -0.706438 -2.23711 0
M  V30 6081 C 569.516 0.282586 -1.7169 0
M  V30 6082 O 570.692 0.129066 -2.00986 0
M  V30 6083 C 567.757 -0.11048 -3.46524 0
M  V30 6084 C 566.818 -1.15282 -4.13532 0
M  V30 6085 C 566.051 -0.585205 -5.30482 0
M  V30 6086 O 566.274 0.598549 -5.67251 0
M  V30 6087 O 565.208 -1.33039 -5.87013 0
M  V30 6088 H 569.034 -1.61031 -2.57493 0
M  V30 6089 H 566.619 -0.847113 -1.23062 0
M  V30 6090 H 568.501 0.21957 -4.20828 0
M  V30 6091 H 567.176 0.766703 -3.14489 0
M  V30 6092 H 566.083 -1.53523 -3.41147 0
M  V30 6093 H 567.416 -2.00192 -4.49649 0
M  V30 6094 N 569.068 1.32177 -0.85831 0
M  V30 6095 C 570.316 1.96735 -0.462568 0
M  V30 6096 C 570.637 1.6824 0.985911 0
M  V30 6097 O 569.907 0.991564 1.68952 0
M  V30 6098 H 568.487 0.727849 -0.168064 0
M  V30 6099 H 571.149 1.61195 -1.09554 0
M  V30 6100 H 570.245 3.06068 -0.610647 0
M  V30 6101 N 570.547 0.616602 1.45037 0
M  V30 6102 C 571.794 0.115331 2.02171 0
M  V30 6103 C 572.122 -1.25748 1.48383 0
M  V30 6104 O 571.377 -1.84511 0.652229 0
M  V30 6105 C 571.676 0.0356829 3.57382 0
M  V30 6106 C 571.342 1.34535 4.30362 0
M  V30 6107 C 570.004 1.70408 4.50016 0
M  V30 6108 C 572.356 2.21049 4.72003 0
M  V30 6109 C 569.684 2.92529 5.0857 0
M  V30 6110 C 572.036 3.42427 5.31908 0
M  V30 6111 C 570.7 3.78541 5.49784 0
M  V30 6112 H 569.97 0.0422024 0.739797 0
M  V30 6113 H 572.617 0.80002 1.73988 0
M  V30 6114 H 570.922 -0.732314 3.84895 0
M  V30 6115 H 572.619 -0.368463 3.99304 0
M  V30 6116 H 569.209 1.05615 4.15383 0
M  V30 6117 H 573.393 1.94632 4.56544 0
M  V30 6118 H 568.649 3.20605 5.20598 0
M  V30 6119 H 572.823 4.09709 5.63127 0
M  V30 6120 H 570.45 4.73255 5.94923 0
M  V30 6121 N 572.025 -1.5352 0.356285 0
M  V30 6122 C 573.272 -2.01117 -0.236303 0
M  V30 6123 C 573.6 -1.24381 -1.49531 0
M  V30 6124 O 572.855 -0.323057 -1.93015 0
M  V30 6125 C 573.154 -3.52607 -0.583369 0
M  V30 6126 C 572.82 -4.47151 0.58023 0
M  V30 6127 C 571.482 -4.72718 0.899528 0
M  V30 6128 C 573.834 -5.03137 1.36024 0
M  V30 6129 C 571.162 -5.51523 2.00098 0
M  V30 6130 C 573.514 -5.83145 2.45204 0
M  V30 6131 C 572.178 -6.07001 2.77679 0
M  V30 6132 H 571.448 -0.735938 -0.0864695 0
M  V30 6133 H 574.095 -1.85209 0.48683 0
M  V30 6134 H 572.4 -3.66413 -1.38739 0
M  V30 6135 H 574.097 -3.86901 -1.05397 0
M  V30 6136 H 570.687 -4.27394 0.321322 0
M  V30 6137 H 574.871 -4.83339 1.12682 0
M  V30 6138 H 570.127 -5.68229 2.25668 0
M  V30 6139 H 574.301 -6.25537 3.06067 0
M  V30 6140 H 571.928 -6.67851 3.63151 0
M  V30 6141 N 573.503 -0.0852151 -1.57369 0
M  V30 6142 C 574.751 0.579658 -1.93609 0
M  V30 6143 C 575.072 1.69332 -0.967043 0
M  V30 6144 O 574.342 1.95892 -0.0174215 0
M  V30 6145 H 572.922 0.217113 -0.714752 0
M  V30 6146 H 575.584 -0.146226 -1.94351 0
M  V30 6147 H 574.68 0.996276 -2.95771 0
M  V30 6148 N 574.981 1.5647 0.188427 0
M  V30 6149 C 575.911 1.98101 1.23606 0
M  V30 6150 C 576.892 0.853961 1.47111 0
M  V30 6151 O 578.077 1.11879 1.58735 0
M  V30 6152 C 575.207 2.32624 2.57882 0
M  V30 6153 C 574.161 3.48129 2.48978 0
M  V30 6154 C 573.487 3.68347 3.87588 0
M  V30 6155 C 574.787 4.82112 2.00911 0
M  V30 6156 H 576.481 2.85864 0.890068 0
M  V30 6157 H 574.027 1.37532 0.426714 0
M  V30 6158 H 575.98 2.60343 3.3136 0
M  V30 6159 H 574.704 1.41751 2.94235 0
M  V30 6160 H 573.363 3.20511 1.77956 0
M  V30 6161 H 573.011 2.74793 4.21305 0
M  V30 6162 H 572.711 4.46055 3.82503 0
M  V30 6163 H 574.235 3.98449 4.62678 0
M  V30 6164 H 575.649 5.08819 2.64151 0
M  V30 6165 H 574.046 5.63337 2.06814 0
M  V30 6166 H 575.116 4.75249 0.96262 0
M  V30 6167 N 576.459 -0.456382 1.50847 0
M  V30 6168 C 577.689 -1.22848 1.66108 0
M  V30 6169 C 578.097 -1.85936 0.349897 0
M  V30 6170 O 577.44 -1.70664 -0.679665 0
M  V30 6171 C 577.502 -2.36722 2.70561 0
M  V30 6172 C 577.166 -1.94154 4.13707 0
M  V30 6173 C 578.163 -1.4557 4.99105 0
M  V30 6174 C 575.848 -2.02426 4.59705 0
M  V30 6175 C 577.842 -1.0582 6.28555 0
M  V30 6176 C 575.529 -1.62287 5.89157 0
M  V30 6177 C 576.527 -1.14064 6.73408 0
M  V30 6178 O 576.215 -0.744873 8.00442 0
M  V30 6179 H 575.947 -0.377105 0.561042 0
M  V30 6180 H 578.501 -0.549431 1.97915 0
M  V30 6181 H 576.731 -3.07844 2.34027 0
M  V30 6182 H 578.42 -2.98646 2.74892 0
M  V30 6183 H 579.186 -1.38589 4.64777 0
M  V30 6184 H 575.065 -2.38908 3.94264 0
M  V30 6185 H 578.609 -0.6811 6.94267 0
M  V30 6186 H 574.506 -1.68932 6.23003 0
M  V30 6187 H 575.274 -0.87242 8.13837 0
M  V30 6188 N 577.937 -1.40673 -0.710563 0
M  V30 6189 C 579.353 -1.22813 -1.01928 0
M  V30 6190 C 579.553 -0.10687 -2.01216 0
M  V30 6191 O 578.609 0.533614 -2.46797 0
M  V30 6192 C 579.922 -2.57178 -1.5582 0
M  V30 6193 C 581.47 -2.64233 -1.67779 0
M  V30 6194 C 581.945 -3.98879 -2.25076 0
M  V30 6195 N 583.436 -4.00647 -2.32456 0
M  V30 6196 C 584.171 -5.01621 -2.77784 0
M  V30 6197 N 583.667 -6.12989 -3.22826 0
M  V30 6198 N 585.46 -4.88988 -2.77213 0
M  V30 6199 H 577.611 -2.12335 -0.05253 0
M  V30 6200 H 579.874 -0.9441 -0.085898 0
M  V30 6201 H 579.58 -3.39903 -0.903249 0
M  V30 6202 H 579.454 -2.78618 -2.54267 0
M  V30 6203 H 581.841 -1.81876 -2.3239 0
M  V30 6204 H 581.922 -2.46619 -0.679178 0
M  V30 6205 H 581.566 -4.81678 -1.61086 0
M  V30 6206 H 581.496 -4.13826 -3.25661 0
M  V30 6207 H 583.987 -3.20231 -2.0065 0
M  V30 6208 H 584.3 -6.85921 -3.55995 0
M  V30 6209 H 582.645 -6.16547 -3.20773 0
M  V30 6210 H 585.836 -4.01075 -2.41363 0
M  V30 6211 H 586.009 -5.67822 -3.12221 0
M  V30 6212 N 579.415 0.9433 -1.26252 0
M  V30 6213 C 580.663 1.68592 -1.11451 0
M  V30 6214 C 580.984 1.91957 0.343123 0
M  V30 6215 O 580.254 1.51475 1.24226 0
M  V30 6216 H 578.834 0.624789 -0.409448 0
M  V30 6217 H 581.496 1.13351 -1.58548 0
M  V30 6218 H 580.592 2.66054 -1.63162 0
M  V30 6219 N 580.893 1.08022 1.14757 0
M  V30 6220 C 581.823 0.728248 2.21853 0
M  V30 6221 C 582.804 -0.287486 1.67653 0
M  V30 6222 O 583.989 -0.158727 1.9355 0
M  V30 6223 C 581.119 0.132549 3.47047 0
M  V30 6224 C 580.073 1.07619 4.14249 0
M  V30 6225 C 579.399 0.342907 5.33599 0
M  V30 6226 C 580.699 2.41268 4.63235 0
M  V30 6227 H 582.393 1.62365 2.51551 0
M  V30 6228 H 579.939 0.782125 1.20908 0
M  V30 6229 H 581.892 -0.125665 4.21213 0
M  V30 6230 H 580.616 -0.797971 3.16702 0
M  V30 6231 H 579.275 1.31944 3.42033 0
M  V30 6232 H 578.923 -0.59129 4.99513 0
M  V30 6233 H 578.623 0.971955 5.79506 0
M  V30 6234 H 580.147 0.0926538 6.1053 0
M  V30 6235 H 581.561 2.21232 5.28894 0
M  V30 6236 H 579.958 2.9983 5.19829 0
M  V30 6237 H 581.028 3.03079 3.78512 0
M  V30 6238 N 582.371 -1.3172 0.865308 0
M  V30 6239 C 583.301 -2.31109 0.333302 0
M  V30 6240 C 584.282 -1.60148 -0.573301 0
M  V30 6241 O 585.467 -1.87882 -0.491305 0
M  V30 6242 C 582.597 -3.44104 -0.470078 0
M  V30 6243 C 581.551 -4.26623 0.343021 0
M  V30 6244 C 580.877 -5.31482 -0.585756 0
M  V30 6245 C 582.177 -4.98001 1.57456 0
M  V30 6246 H 583.871 -2.75855 1.1638 0
M  V30 6247 H 581.417 -1.3262 0.561069 0
M  V30 6248 H 583.37 -4.12682 -0.852752 0
M  V30 6249 H 582.094 -2.98112 -1.33404 0
M  V30 6250 H 580.753 -3.59707 0.707583 0
M  V30 6251 H 580.401 -4.81741 -1.44686 0
M  V30 6252 H 580.101 -5.87582 -0.0456494 0
M  V30 6253 H 581.625 -6.0292 -0.965375 0
M  V30 6254 H 583.039 -5.59201 1.26359 0
M  V30 6255 H 581.436 -5.63876 2.05339 0
M  V30 6256 H 582.506 -4.25253 2.32997 0
M  V30 6257 N 583.85 -0.624285 -1.44708 0
M  V30 6258 C 585.26 -0.2092 -1.85524 0
M  V30 6259 C 585.611 1.23783 -1.52225 0
M  V30 6260 O 584.736 1.94089 -0.956986 0
M  V30 6261 C 585.332 -0.372897 -3.36742 0
M  V30 6262 C 583.891 -0.012374 -3.76398 0
M  V30 6263 C 583.038 -0.68951 -2.68591 0
M  V30 6264 H 585.989 -0.829894 -1.35272 0
M  V30 6265 H 586.01 0.390134 -3.78495 0
M  V30 6266 H 585.522 -1.42615 -3.60947 0
M  V30 6267 H 583.623 1.03941 -3.57809 0
M  V30 6268 H 583.736 -0.417663 -4.77276 0
M  V30 6269 H 582.1 -0.125484 -2.54391 0
M  V30 6270 H 582.883 -1.74522 -2.9563 0
M  V30 6271 N 585.328 1.53329 -0.364422 0
M  V30 6272 C 586.26 2.23286 0.517293 0
M  V30 6273 C 587.273 1.24657 1.04711 0
M  V30 6274 O 588.462 1.50887 0.95369 0
M  V30 6275 C 585.562 2.91604 1.72685 0
M  V30 6276 C 584.735 4.1673 1.32873 0
M  V30 6277 C 583.794 4.68269 2.40022 0
M  V30 6278 O 582.82 5.31976 2.02461 0
M  V30 6279 N 584.022 4.45983 3.7159 0
M  V30 6280 H 586.787 2.99588 -0.0819391 0
M  V30 6281 H 584.348 1.60787 -0.189544 0
M  V30 6282 H 586.34 3.22992 2.4384 0
M  V30 6283 H 584.91 2.18763 2.23297 0
M  V30 6284 H 584.13 3.91657 0.447069 0
M  V30 6285 H 585.418 4.98078 1.03902 0
M  V30 6286 H 584.816 3.95077 4.04883 0
M  V30 6287 H 583.373 4.81924 4.38854 0
M  V30 6288 N 586.806 0.0935595 1.57322 0
M  V30 6289 C 587.736 -0.863062 2.16964 0
M  V30 6290 C 588.717 -1.29528 1.10256 0
M  V30 6291 O 589.902 -1.36245 1.38387 0
M  V30 6292 C 587.032 -2.12276 2.74875 0
M  V30 6293 C 585.986 -1.82921 3.86942 0
M  V30 6294 C 585.312 -3.15707 4.31548 0
M  V30 6295 C 586.612 -1.11737 5.10208 0
M  V30 6296 H 588.306 -0.366145 2.97153 0
M  V30 6297 H 585.852 -0.174673 1.42937 0
M  V30 6298 H 587.805 -2.79634 3.1525 0
M  V30 6299 H 586.529 -2.64248 1.91938 0
M  V30 6300 H 585.188 -1.17961 3.47103 0
M  V30 6301 H 584.836 -3.65563 3.45504 0
M  V30 6302 H 584.536 -2.96849 5.07104 0
M  V30 6303 H 586.06 -3.84226 4.74555 0
M  V30 6304 H 587.474 -1.69203 5.47762 0
M  V30 6305 H 585.871 -1.03064 5.91183 0
M  V30 6306 H 586.941 -0.0998818 4.84797 0
M  V30 6307 N 588.284 -1.56567 -0.180126 0
M  V30 6308 C 589.214 -1.98753 -1.22553 0
M  V30 6309 C 590.195 -0.86175 -1.46656 0
M  V30 6310 O 591.38 -1.12719 -1.58139 0
M  V30 6311 C 588.51 -2.33988 -2.56645 0
M  V30 6312 C 587.464 -3.49445 -2.47128 0
M  V30 6313 C 586.79 -3.70397 -3.8563 0
M  V30 6314 C 588.09 -4.83171 -1.98352 0
M  V30 6315 H 589.784 -2.86332 -0.874896 0
M  V30 6316 H 587.33 -1.37757 -0.419414 0
M  V30 6317 H 589.283 -2.62097 -3.29974 0
M  V30 6318 H 588.007 -1.43309 -2.93479 0
M  V30 6319 H 586.666 -3.2145 -1.76254 0
M  V30 6320 H 586.314 -2.77023 -4.19842 0
M  V30 6321 H 586.014 -4.48077 -3.80132 0
M  V30 6322 H 587.538 -4.00897 -4.60558 0
M  V30 6323 H 588.952 -5.10213 -2.61449 0
M  V30 6324 H 587.349 -5.64425 -2.03823 0
M  V30 6325 H 588.419 -4.75753 -0.937402 0
M  V30 6326 N 589.762 0.448376 -1.51087 0
M  V30 6327 C 591.01 1.19635 -1.62886 0
M  V30 6328 C 591.331 1.91977 -0.342024 0
M  V30 6329 O 590.601 1.85094 0.641636 0
M  V30 6330 H 589.181 0.444598 -0.600285 0
M  V30 6331 H 591.843 0.515138 -1.87969 0
M  V30 6332 H 590.939 1.93194 -2.45117 0
M  V30 6333 N 591.24 1.41047 0.703093 0
M  V30 6334 C 592.486 1.40207 1.46526 0
M  V30 6335 C 592.819 0.00847763 1.94198 0
M  V30 6336 O 592.094 -0.962437 1.69019 0
M  V30 6337 C 592.377 2.40238 2.6825 0
M  V30 6338 C 592.23 3.88674 2.26391 0
M  V30 6339 C 593.549 2.37627 3.70434 0
M  V30 6340 H 590.668 0.510594 0.531472 0
M  V30 6341 H 593.31 1.72271 0.801422 0
M  V30 6342 H 591.46 2.13026 3.24888 0
M  V30 6343 H 593.132 4.2676 1.75138 0
M  V30 6344 H 591.375 4.03903 1.58255 0
M  V30 6345 H 592.046 4.542 3.13698 0
M  V30 6346 H 594.522 2.61759 3.23452 0
M  V30 6347 H 593.398 3.09645 4.53223 0
M  V30 6348 H 593.659 1.39223 4.19606 0
M  V30 6349 N 592.718 -0.936591 1.26751 0
M  V30 6350 C 593.681 -2.01752 1.08761 0
M  V30 6351 C 594.681 -1.60763 0.0344435 0
M  V30 6352 O 595.871 -1.71963 0.278258 0
M  V30 6353 C 593.003 -3.34543 0.655271 0
M  V30 6354 H 594.196 -2.19143 2.04735 0
M  V30 6355 H 591.749 -1.11618 1.09413 0
M  V30 6356 H 592.484 -3.22851 -0.30626 0
M  V30 6357 H 592.269 -3.65647 1.41578 0
M  V30 6358 H 593.759 -4.13944 0.551378 0
M  V30 6359 N 594.196 -1.08629 -1.14182 0
M  V30 6360 C 595.607 -0.838003 -1.66836 0
M  V30 6361 C 595.958 0.634885 -1.85644 0
M  V30 6362 O 595.083 1.49008 -1.56926 0
M  V30 6363 C 595.678 -1.51465 -3.03058 0
M  V30 6364 C 594.237 -1.31355 -3.52736 0
M  V30 6365 C 593.384 -1.57599 -2.28162 0
M  V30 6366 H 596.335 -1.24656 -0.982165 0
M  V30 6367 H 596.356 -0.943134 -3.68626 0
M  V30 6368 H 595.868 -2.58661 -2.89337 0
M  V30 6369 H 593.969 -0.262384 -3.71675 0
M  V30 6370 H 594.082 -2.04275 -4.33369 0
M  V30 6371 H 592.446 -0.997659 -2.34348 0
M  V30 6372 H 593.229 -2.66006 -2.17015 0
M  V30 6373 N 595.674 1.31259 -0.872281 0
M  V30 6374 C 596.584 2.32221 -0.333255 0
M  V30 6375 C 597.6 1.6481 0.558013 0
M  V30 6376 O 598.776 1.96212 0.454175 0
M  V30 6377 C 595.841 3.43708 0.454479 0
M  V30 6378 C 594.902 4.26774 -0.465024 0
M  V30 6379 C 594.135 5.32937 0.28521 0
M  V30 6380 O 594.358 5.49968 1.513 0
M  V30 6381 O 593.292 6.00834 -0.358126 0
M  V30 6382 H 597.118 2.80252 -1.17016 0
M  V30 6383 H 594.703 1.352 -0.635724 0
M  V30 6384 H 596.585 4.11656 0.900963 0
M  V30 6385 H 595.26 2.97836 1.26789 0
M  V30 6386 H 594.167 3.61571 -0.960055 0
M  V30 6387 H 595.5 4.76217 -1.2441 0
M  V30 6388 N 597.152 0.631951 1.44375 0
M  V30 6389 C 598.099 -0.0724807 2.30686 0
M  V30 6390 C 599.069 -0.835975 1.43529 0
M  V30 6391 O 600.254 -0.816849 1.7243 0
M  V30 6392 C 597.394 -1.04753 3.28817 0
M  V30 6393 C 596.507 -0.282367 4.31076 0
M  V30 6394 C 595.642 -1.2493 5.163 0
M  V30 6395 C 594.681 -0.473349 6.10267 0
M  V30 6396 N 593.818 -1.39079 6.88187 0
M  V30 6397 H 598.658 0.669477 2.90383 0
M  V30 6398 H 596.195 0.341927 1.43071 0
M  V30 6399 H 598.153 -1.62623 3.842 0
M  V30 6400 H 596.783 -1.75661 2.70819 0
M  V30 6401 H 595.835 0.412268 3.78159 0
M  V30 6402 H 597.147 0.321955 4.9776 0
M  V30 6403 H 596.301 -1.89931 5.76204 0
M  V30 6404 H 595.04 -1.88755 4.49692 0
M  V30 6405 H 594.045 0.190142 5.49471 0
M  V30 6406 H 595.27 0.16019 6.78911 0
M  V30 6407 H 593.216 -2.01623 6.24247 0
M  V30 6408 H 593.133 -0.840513 7.51313 0
M  V30 6409 H 594.401 -2.02961 7.52613 0
M  V30 6410 N 598.631 -1.53133 0.372548 0
M  V30 6411 C 599.594 -2.24569 -0.458389 0
M  V30 6412 C 600.594 -1.25603 -1.00402 0
M  V30 6413 O 601.784 -1.49827 -0.888672 0
M  V30 6414 C 598.916 -2.98783 -1.6414 0
M  V30 6415 H 600.109 -2.99436 0.166799 0
M  V30 6416 H 597.662 -1.55805 0.124357 0
M  V30 6417 H 598.397 -2.28176 -2.30448 0
M  V30 6418 H 598.182 -3.71404 -1.25704 0
M  V30 6419 H 599.672 -3.53068 -2.23008 0
M  V30 6420 N 600.109 -0.101901 -1.5727 0
M  V30 6421 C 601.358 0.559922 -1.93772 0
M  V30 6422 C 601.671 1.68913 -0.98629 0
M  V30 6423 O 602.877 2.41256 -1.24529 0
M  V30 6424 C 601.333 1.04739 -3.44322 0
M  V30 6425 C 600.941 -0.05243 -4.47969 0
M  V30 6426 C 602.685 1.68157 -3.89774 0
M  V30 6427 C 600.592 0.450781 -5.8968 0
M  V30 6428 H 599.522 0.212931 -0.723309 0
M  V30 6429 H 602.173 -0.179001 -1.82625 0
M  V30 6430 H 600.555 1.84021 -3.50645 0
M  V30 6431 H 601.729 -0.828157 -4.53297 0
M  V30 6432 H 600.044 -0.592202 -4.12167 0
M  V30 6433 H 602.641 2.0689 -4.93052 0
M  V30 6434 H 602.984 2.55338 -3.28798 0
M  V30 6435 H 603.517 0.954453 -3.8618 0
M  V30 6436 H 600.256 -0.38458 -6.54371 0
M  V30 6437 H 599.776 1.19336 -5.87809 0
M  V30 6438 H 601.455 0.917555 -6.40461 0
M  V30 6439 N 601.587 1.56661 0.17182 0
M  V30 6440 C 602.534 1.96371 1.21273 0
M  V30 6441 C 603.504 0.82756 1.44016 0
M  V30 6442 O 604.689 1.08764 1.56764 0
M  V30 6443 C 601.829 2.32838 2.54716 0
M  V30 6444 C 600.942 3.59628 2.39356 0
M  V30 6445 C 600.077 3.85311 3.65662 0
M  V30 6446 C 599.116 5.0545 3.45234 0
M  V30 6447 N 598.253 5.27268 4.63608 0
M  V30 6448 H 603.093 2.85106 0.86709 0
M  V30 6449 H 600.63 1.41073 0.416744 0
M  V30 6450 H 602.588 2.52004 3.3249 0
M  V30 6451 H 601.218 1.47214 2.87277 0
M  V30 6452 H 600.27 3.4838 1.52761 0
M  V30 6453 H 601.582 4.4756 2.20207 0
M  V30 6454 H 600.736 4.04841 4.51872 0
M  V30 6455 H 599.475 2.95753 3.8779 0
M  V30 6456 H 598.48 4.85819 2.5741 0
M  V30 6457 H 599.705 5.96538 3.24529 0
M  V30 6458 H 597.651 4.40662 4.85956 0
M  V30 6459 H 597.568 6.09422 4.4737 0
M  V30 6460 H 598.836 5.51277 5.51103 0
M  V30 6461 N 603.065 -0.440357 1.51323 0
M  V30 6462 C 603.995 -1.54174 1.75364 0
M  V30 6463 C 604.976 -1.59039 0.603375 0
M  V30 6464 O 606.161 -1.74815 0.845774 0
M  V30 6465 C 603.291 -2.92277 1.87593 0
M  V30 6466 C 602.245 -3.02274 3.03009 0
M  V30 6467 C 601.571 -4.42327 3.00418 0
M  V30 6468 C 602.871 -2.76634 4.43024 0
M  V30 6469 H 604.565 -1.34307 2.67585 0
M  V30 6470 H 602.111 -0.644678 1.28763 0
M  V30 6471 H 604.064 -3.69284 2.02995 0
M  V30 6472 H 602.788 -3.13369 0.920179 0
M  V30 6473 H 601.447 -2.27706 2.87307 0
M  V30 6474 H 601.095 -4.60382 2.02626 0
M  V30 6475 H 600.795 -4.49946 3.77918 0
M  V30 6476 H 602.319 -5.21312 3.17909 0
M  V30 6477 H 603.733 -3.43376 4.59093 0
M  V30 6478 H 602.13 -2.95666 5.22208 0
M  V30 6479 H 603.2 -1.72262 4.5327 0
M  V30 6480 N 604.543 -1.41418 -0.695603 0
M  V30 6481 C 605.771 -1.4413 -1.48439 0
M  V30 6482 C 606.186 -0.0465698 -1.88743 0
M  V30 6483 O 605.543 0.934117 -1.56782 0
M  V30 6484 C 605.594 -2.34998 -2.74696 0
M  V30 6485 O 605.315 -3.69043 -2.36091 0
M  V30 6486 C 606.816 -2.46513 -3.68438 0
M  V30 6487 H 604.036 -0.490905 -0.457442 0
M  V30 6488 H 606.58 -1.85702 -0.856454 0
M  V30 6489 H 604.735 -1.96735 -3.33728 0
M  V30 6490 H 605.149 -4.17505 -3.17474 0
M  V30 6491 H 606.623 -3.1426 -4.53811 0
M  V30 6492 H 607.1 -1.49638 -4.12922 0
M  V30 6493 H 607.706 -2.85412 -3.1531 0
M  V30 6494 N 606.021 0.929856 -1.27246 0
M  V30 6495 C 607.267 1.6798 -1.13625 0
M  V30 6496 C 607.6 1.91586 0.317589 0
M  V30 6497 O 606.875 1.50467 1.23247 0
M  V30 6498 C 607.158 3.04766 -1.91806 0
M  V30 6499 C 607.011 2.88415 -3.45162 0
M  V30 6500 C 608.33 4.05063 -1.72082 0
M  V30 6501 H 605.449 0.609632 -0.414147 0
M  V30 6502 H 608.091 1.0792 -1.56376 0
M  V30 6503 H 606.241 3.56034 -1.55474 0
M  V30 6504 H 607.913 2.44282 -3.91311 0
M  V30 6505 H 606.156 2.23802 -3.71611 0
M  V30 6506 H 606.827 3.85482 -3.95105 0
M  V30 6507 H 609.303 3.62798 -2.03757 0
M  V30 6508 H 608.179 4.98765 -2.29182 0
M  V30 6509 H 608.44 4.37021 -0.668206 0
M  V30 6510 N 607.499 1.09233 1.13605 0
M  V30 6511 C 608.447 0.724572 2.21027 0
M  V30 6512 C 609.441 -0.273595 1.67176 0
M  V30 6513 O 610.647 -0.135266 1.79491 0
M  V30 6514 H 607.022 0.216319 0.720215 0
M  V30 6515 H 608.993 1.63975 2.49309 0
M  V30 6516 C 607.742 0.159126 3.47336 0
M  V30 6517 H 607.065 0.918387 3.89109 0
M  V30 6518 H 608.505 -0.0602851 4.23957 0
M  V30 6519 C 606.964 -1.10514 3.18258 0
M  V30 6520 O 607.494 -2.18869 3.36837 0
M  V30 6521 N 605.7 -1.01886 2.72154 0
M  V30 6522 H 605.247 -0.137027 2.57235 0
M  V30 6523 H 605.205 -1.8655 2.53074 0
M  V30 6524 N 608.977 -1.30795 0.87923 0
M  V30 6525 C 610.254 -1.91145 0.415086 0
M  V30 6526 C 610.634 -1.7995 -1.10368 0
M  V30 6527 O 609.982 -1.21305 -1.93642 0
M  V30 6528 C 610.192 -3.37014 0.906778 0
M  V30 6529 C 611.54 -4.14101 0.938358 0
M  V30 6530 O 612.564 -3.45834 0.853053 0
M  V30 6531 O 611.423 -5.36054 1.06342 0
M  V30 6532 H 608.517 -0.81736 0.125905 0
M  V30 6533 H 611.063 -1.39401 0.967753 0
M  V30 6534 H 609.835 -3.3922 1.95053 0
M  V30 6535 H 609.458 -3.96204 0.332948 0
M  V30 6536 N 610.455 -0.639598 -1.44038 0
M  V30 6537 C 611.702 -0.14748 -2.01962 0
M  V30 6538 C 612.03 1.23372 -1.50365 0
M  V30 6539 O 611.285 1.8345 -0.681501 0
M  V30 6540 C 611.584 -0.0925348 -3.5728 0
M  V30 6541 C 611.25 -1.41365 -4.28167 0
M  V30 6542 C 609.912 -1.77545 -4.47248 0
M  V30 6543 C 612.264 -2.2853 -4.68427 0
M  V30 6544 C 609.592 -3.00583 -5.03852 0
M  V30 6545 C 611.944 -3.50846 -5.26393 0
M  V30 6546 C 610.608 -3.8724 -5.43692 0
M  V30 6547 H 609.878 -0.0539666 -0.739032 0
M  V30 6548 H 612.525 -0.827599 -1.72694 0
M  V30 6549 H 610.83 0.670987 -3.86012 0
M  V30 6550 H 612.527 0.304891 -3.99839 0
M  V30 6551 H 609.117 -1.1221 -4.13651 0
M  V30 6552 H 613.301 -2.0187 -4.5339 0
M  V30 6553 H 608.557 -3.28846 -5.15432 0
M  V30 6554 H 612.731 -4.18616 -5.56537 0
M  V30 6555 H 610.358 -4.8266 -5.87319 0
M  V30 6556 N 611.933 1.52934 -0.380664 0
M  V30 6557 C 613.179 2.01765 0.20458 0
M  V30 6558 C 613.512 1.26696 1.47179 0
M  V30 6559 O 612.787 0.364936 1.91046 0
M  V30 6560 C 613.07 3.56869 0.481269 0
M  V30 6561 C 612.923 4.42617 -0.800629 0
M  V30 6562 C 614.242 4.2121 1.27554 0
M  V30 6563 H 611.361 0.733388 0.0728803 0
M  V30 6564 H 614.003 1.83068 -0.50853 0
M  V30 6565 H 612.153 3.72932 1.08875 0
M  V30 6566 H 613.825 4.38323 -1.43773 0
M  V30 6567 H 612.068 4.09977 -1.4178 0
M  V30 6568 H 612.739 5.49134 -0.561791 0
M  V30 6569 H 615.215 4.09072 0.761514 0
M  V30 6570 H 614.091 5.29732 1.43788 0
M  V30 6571 H 614.352 3.78269 2.28833 0
M  V30 6572 N 613.412 0.11024 1.57214 0
M  V30 6573 C 614.828 -0.24638 1.57687 0
M  V30 6574 C 615.028 -1.67344 1.12241 0
M  V30 6575 O 614.084 -2.39298 0.805783 0
M  V30 6576 C 615.397 -0.0210288 3.00693 0
M  V30 6577 C 616.945 -0.0876077 3.12877 0
M  V30 6578 C 617.42 0.10994 4.57868 0
M  V30 6579 N 618.911 0.0556135 4.63167 0
M  V30 6580 C 619.646 0.183495 5.73106 0
M  V30 6581 N 619.142 0.367058 6.91827 0
M  V30 6582 N 620.935 0.123689 5.61964 0
M  V30 6583 H 613.086 1.04246 1.85058 0
M  V30 6584 H 615.349 0.40979 0.854854 0
M  V30 6585 H 615.055 0.965203 3.38196 0
M  V30 6586 H 614.929 -0.756748 3.69531 0
M  V30 6587 H 617.316 -1.06436 2.75237 0
M  V30 6588 H 617.397 0.67985 2.466 0
M  V30 6589 H 617.041 1.08362 4.96206 0
M  V30 6590 H 616.971 -0.677397 5.22225 0
M  V30 6591 H 619.462 -0.0831062 3.77809 0
M  V30 6592 H 619.775 0.455739 7.71455 0
M  V30 6593 H 618.12 0.40292 6.93831 0
M  V30 6594 H 621.311 -0.0186928 4.68096 0
M  V30 6595 H 621.484 0.226797 6.47603 0
M  V30 6596 N 614.89 -1.56749 -0.16351 0
M  V30 6597 C 616.167 -1.73321 -0.906599 0
M  V30 6598 C 616.547 -0.673779 -2.00059 0
M  V30 6599 O 615.895 0.310121 -2.26386 0
M  V30 6600 C 616.105 -3.168 -1.46419 0
M  V30 6601 C 617.453 -3.77993 -1.93407 0
M  V30 6602 O 618.477 -3.20127 -1.56196 0
M  V30 6603 O 617.336 -4.79615 -2.61976 0
M  V30 6604 H 614.43 -0.708073 -0.427272 0
M  V30 6605 H 616.976 -1.69029 -0.150727 0
M  V30 6606 H 615.748 -3.85396 -0.677189 0
M  V30 6607 H 615.371 -3.2545 -2.28403 0
M  V30 6608 N 616.368 0.432326 -1.51554 0
M  V30 6609 C 617.315 1.52512 -1.7323 0
M  V30 6610 C 618.285 1.55863 -0.5741 0
M  V30 6611 O 619.47 1.72796 -0.809093 0
M  V30 6612 C 616.61 2.90183 -1.86783 0
M  V30 6613 C 615.723 2.96322 -3.14352 0
M  V30 6614 C 614.858 4.25147 -3.18471 0
M  V30 6615 C 613.897 4.25172 -4.40335 0
M  V30 6616 N 613.034 5.45529 -4.41975 0
M  V30 6617 H 617.874 1.33332 -2.66508 0
M  V30 6618 H 615.411 0.647613 -1.32077 0
M  V30 6619 H 617.369 3.70071 -1.92623 0
M  V30 6620 H 615.999 3.0791 -0.969087 0
M  V30 6621 H 615.051 2.09066 -3.17798 0
M  V30 6622 H 616.363 2.92203 -4.04251 0
M  V30 6623 H 615.517 5.13411 -3.23255 0
M  V30 6624 H 614.256 4.31929 -2.2647 0
M  V30 6625 H 613.261 3.353 -4.35723 0
M  V30 6626 H 614.486 4.20049 -5.33606 0
M  V30 6627 H 612.432 5.53024 -3.52847 0
M  V30 6628 H 612.349 5.43311 -5.25689 0
M  V30 6629 H 613.617 6.35812 -4.50958 0
M  V30 6630 N 617.846 1.41785 0.688094 0
M  V30 6631 C 619.093 1.41544 1.44816 0
M  V30 6632 C 619.421 0.0271746 1.94481 0
M  V30 6633 O 618.676 -0.962235 1.7041 0
M  V30 6634 C 618.975 2.37532 2.67046 0
M  V30 6635 C 618.641 3.84209 2.35996 0
M  V30 6636 C 617.303 4.24165 2.27239 0
M  V30 6637 C 619.655 4.76785 2.10536 0
M  V30 6638 C 616.983 5.54695 1.91128 0
M  V30 6639 C 619.335 6.07644 1.75931 0
M  V30 6640 C 617.999 6.46613 1.65675 0
M  V30 6641 H 617.269 0.517945 0.529919 0
M  V30 6642 H 619.916 1.74635 0.785797 0
M  V30 6643 H 618.221 1.9772 3.38251 0
M  V30 6644 H 619.918 2.34615 3.25203 0
M  V30 6645 H 616.508 3.52567 2.4371 0
M  V30 6646 H 620.692 4.46714 2.16242 0
M  V30 6647 H 615.948 5.83762 1.81746 0
M  V30 6648 H 620.122 6.78874 1.55252 0
M  V30 6649 H 617.749 7.47668 1.37463 0
M  V30 6650 N 619.324 -0.923095 1.27737 0
M  V30 6651 C 620.257 -2.02515 1.05181 0
M  V30 6652 C 621.235 -1.62574 -0.0292204 0
M  V30 6653 O 622.419 -1.88137 0.116848 0
M  V30 6654 C 619.546 -3.33407 0.596468 0
M  V30 6655 C 618.592 -3.92328 1.67276 0
M  V30 6656 S 619.425 -4.24342 3.26641 0
M  V30 6657 C 620.581 -5.58308 2.82919 0
M  V30 6658 H 620.814 -2.21336 1.98488 0
M  V30 6659 H 618.347 -1.06679 1.1162 0
M  V30 6660 H 620.305 -4.09086 0.34044 0
M  V30 6661 H 618.966 -3.125 -0.316614 0
M  V30 6662 H 618.159 -4.86797 1.30556 0
M  V30 6663 H 617.761 -3.2325 1.8811 0
M  V30 6664 H 620.053 -6.37801 2.28509 0
M  V30 6665 H 620.996 -5.99931 3.7615 0
M  V30 6666 H 621.404 -5.19049 2.21919 0
M  V30 6667 N 620.802 -1.09834 -1.13024 0
M  V30 6668 C 621.752 -0.710899 -2.16634 0
M  V30 6669 C 622.736 0.276836 -1.58501 0
M  V30 6670 O 623.928 0.0865457 -1.76788 0
M  V30 6671 C 621.057 -0.137574 -3.43024 0
M  V30 6672 C 620.143 -1.15198 -4.08155 0
M  V30 6673 N 620.534 -2.34054 -4.48388 0
M  V30 6674 C 618.832 -0.991074 -4.34849 0
M  V30 6675 C 619.533 -2.98616 -4.99203 0
M  V30 6676 N 618.509 -2.26159 -4.94321 0
M  V30 6677 H 622.311 -1.61576 -2.455 0
M  V30 6678 H 619.825 -0.975158 -1.29863 0
M  V30 6679 H 621.822 0.158031 -4.166 0
M  V30 6680 H 620.482 0.762088 -3.1563 0
M  V30 6681 H 621.493 -2.7162 -4.40957 0
M  V30 6682 H 618.17 -0.146448 -4.17243 0
M  V30 6683 H 619.56 -3.99683 -5.40096 0
M  V30 6684 N 622.28 1.30327 -0.886154 0
M  V30 6685 C 623.227 2.28099 -0.352069 0
M  V30 6686 C 624.197 1.56433 0.558397 0
M  V30 6687 O 625.382 1.84492 0.486561 0
M  V30 6688 C 622.522 3.42456 0.426346 0
M  V30 6689 C 621.635 4.28938 -0.513472 0
M  V30 6690 C 620.77 5.30458 0.280657 0
M  V30 6691 C 619.809 6.0859 -0.654556 0
M  V30 6692 N 618.946 7.02022 0.104322 0
M  V30 6693 H 623.786 2.73166 -1.19097 0
M  V30 6694 H 621.323 1.34367 -0.598662 0
M  V30 6695 H 623.281 4.07518 0.893587 0
M  V30 6696 H 621.911 2.98455 1.22981 0
M  V30 6697 H 620.963 3.64173 -1.09921 0
M  V30 6698 H 622.275 4.83399 -1.2299 0
M  V30 6699 H 621.429 6.01273 0.8097 0
M  V30 6700 H 620.168 4.76693 1.03029 0
M  V30 6701 H 619.173 5.36651 -1.19522 0
M  V30 6702 H 620.398 6.64443 -1.4033 0
M  V30 6703 H 618.344 6.50645 0.836472 0
M  V30 6704 H 618.261 7.53979 -0.552453 0
M  V30 6705 H 619.529 7.77077 0.614069 0
M  V30 6706 N 623.758 0.647228 1.43697 0
M  V30 6707 C 625.035 0.0883758 1.954 0
M  V30 6708 C 625.415 -1.39006 1.58873 0
M  V30 6709 O 624.763 -2.11255 0.87083 0
M  V30 6710 C 624.973 0.328263 3.47453 0
M  V30 6711 C 626.321 0.230009 4.23977 0
M  V30 6712 O 627.345 0.260496 3.55246 0
M  V30 6713 O 626.204 0.148615 5.46298 0
M  V30 6714 H 623.298 -0.0130683 0.826897 0
M  V30 6715 H 625.844 0.72005 1.53666 0
M  V30 6716 H 624.616 1.3535 3.67146 0
M  V30 6717 H 624.239 -0.336772 3.96171 0
M  V30 6718 N 625.236 -1.5273 0.388769 0
M  V30 6719 C 626.484 -2.01174 -0.193208 0
M  V30 6720 C 626.805 -1.27705 -1.47365 0
M  V30 6721 O 626.075 -0.396966 -1.91836 0
M  V30 6722 H 624.655 -0.743287 -0.0743871 0
M  V30 6723 H 627.317 -1.87826 0.520336 0
M  V30 6724 H 626.413 -3.09477 -0.403803 0
M  V30 6725 N 626.714 -0.118576 -1.57153 0
M  V30 6726 C 627.939 0.550582 -1.99958 0
M  V30 6727 C 628.364 1.59458 -0.997736 0
M  V30 6728 O 627.722 1.81274 0.0306269 0
M  V30 6729 C 627.77 1.15379 -3.41643 0
M  V30 6730 O 626.874 2.26932 -3.44348 0
M  V30 6731 H 626.215 0.137567 -0.649593 0
M  V30 6732 H 628.745 -0.206926 -2.03551 0
M  V30 6733 H 628.755 1.48942 -3.79843 0
M  V30 6734 H 627.43 0.389087 -4.14076 0
M  V30 6735 H 626.007 1.94812 -3.17967 0
M  V30 6736 N 628.193 1.56834 0.155195 0
M  V30 6737 C 629.439 1.83169 0.870467 0
M  V30 6738 C 629.772 0.698929 1.81187 0
M  V30 6739 O 629.047 -0.298035 1.92203 0
M  V30 6740 C 629.33 3.19965 1.65211 0
M  V30 6741 C 629.183 4.43792 0.732744 0
M  V30 6742 C 630.502 3.53885 2.61636 0
M  V30 6743 H 627.621 0.666288 0.315006 0
M  V30 6744 H 630.263 1.89513 0.135988 0
M  V30 6745 H 628.413 3.14687 2.27825 0
M  V30 6746 H 630.085 4.61148 0.118236 0
M  V30 6747 H 628.328 4.3378 0.0417906 0
M  V30 6748 H 628.999 5.36095 1.31552 0
M  V30 6749 H 631.475 3.5972 2.09143 0
M  V30 6750 H 630.351 4.50648 3.13381 0
M  V30 6751 H 630.612 2.79418 3.42605 0
M  V30 6752 N 629.671 -0.424282 1.51781 0
M  V30 6753 C 631.082 -1.00368 1.57427 0
M  V30 6754 C 631.433 -1.91962 0.40558 0
M  V30 6755 O 630.558 -2.111 -0.47601 0
M  V30 6756 C 631.153 -1.82707 2.85313 0
M  V30 6757 C 629.712 -2.35675 2.93487 0
M  V30 6758 C 628.859 -1.1524 2.5222 0
M  V30 6759 H 631.81 -0.205064 1.5737 0
M  V30 6760 H 631.831 -2.68294 2.69812 0
M  V30 6761 H 631.343 -1.16017 3.70353 0
M  V30 6762 H 629.444 -3.05781 2.12906 0
M  V30 6763 H 629.557 -2.67578 3.97415 0
M  V30 6764 H 627.921 -1.50174 2.05718 0
M  V30 6765 H 628.704 -0.5014 3.39619 0
M  V30 6766 N 631.149 -1.42148 -0.680565 0
M  V30 6767 C 632.079 -1.4796 -1.80638 0
M  V30 6768 C 633.06 -0.336728 -1.66734 0
M  V30 6769 O 634.245 -0.550247 -1.86242 0
M  V30 6770 C 631.375 -1.37569 -3.18892 0
M  V30 6771 C 630.329 -2.49823 -3.47524 0
M  V30 6772 C 629.655 -2.24491 -4.85291 0
M  V30 6773 C 630.955 -3.92144 -3.44994 0
M  V30 6774 H 632.649 -2.42184 -1.76032 0
M  V30 6775 H 630.195 -1.16566 -0.845481 0
M  V30 6776 H 632.148 -1.40243 -3.97379 0
M  V30 6777 H 630.872 -0.398357 -3.24162 0
M  V30 6778 H 629.531 -2.46455 -2.71395 0
M  V30 6779 H 629.179 -1.25066 -4.87204 0
M  V30 6780 H 628.879 -2.99722 -5.05411 0
M  V30 6781 H 630.403 -2.28906 -5.66069 0
M  V30 6782 H 631.817 -3.97145 -4.13459 0
M  V30 6783 H 630.214 -4.67179 -3.76648 0
M  V30 6784 H 631.284 -4.19225 -2.43676 0
M  V30 6785 N 632.627 0.916307 -1.28225 0
M  V30 6786 C 633.59 1.99996 -1.11957 0
M  V30 6787 C 634.59 1.60688 -0.0600152 0
M  V30 6788 O 635.78 1.71499 -0.30558 0
M  V30 6789 C 632.912 3.33458 -0.708411 0
M  V30 6790 H 634.105 2.15858 -2.08196 0
M  V30 6791 H 631.658 1.09863 -1.11175 0
M  V30 6792 H 632.393 3.23297 0.254859 0
M  V30 6793 H 632.178 3.63349 -1.47377 0
M  V30 6794 H 633.668 4.13014 -0.617164 0
M  V30 6795 N 634.105 1.10431 1.1244 0
M  V30 6796 C 635.068 0.756542 2.16354 0
M  V30 6797 C 636.068 -0.21899 1.59302 0
M  V30 6798 O 637.258 0.00415969 1.742 0
M  V30 6799 C 634.39 0.120612 3.40687 0
M  V30 6800 H 635.583 1.67696 2.48632 0
M  V30 6801 H 633.136 0.904832 1.27446 0
M  V30 6802 H 633.871 -0.810536 3.14008 0
M  V30 6803 H 633.656 0.822693 3.83372 0
M  V30 6804 H 635.146 -0.106945 4.17463 0
M  V30 6805 N 635.583 -1.29855 0.893053 0
M  V30 6806 C 636.493 -2.31661 0.370157 0
M  V30 6807 C 637.509 -1.65677 -0.531723 0
M  V30 6808 O 638.685 -1.9691 -0.422902 0
M  V30 6809 C 635.75 -3.44388 -0.399741 0
M  V30 6810 C 634.811 -4.2598 0.532861 0
M  V30 6811 C 634.044 -5.33324 -0.200388 0
M  V30 6812 O 634.267 -5.52305 -1.42531 0
M  V30 6813 O 633.201 -6.00188 0.453668 0
M  V30 6814 H 637.027 -2.78354 1.2146 0
M  V30 6815 H 634.612 -1.34171 0.657153 0
M  V30 6816 H 636.494 -4.13037 -0.835358 0
M  V30 6817 H 635.169 -2.99815 -1.22035 0
M  V30 6818 H 634.076 -3.59998 1.01746 0
M  V30 6819 H 635.409 -4.74178 1.3197 0
M  V30 6820 N 637.061 -0.65484 -1.43351 0
M  V30 6821 C 638.31 -0.166215 -2.01014 0
M  V30 6822 C 638.623 1.22764 -1.52278 0
M  V30 6823 O 639.829 1.81156 -2.02224 0
M  V30 6824 C 638.285 -0.246341 -3.59056 0
M  V30 6825 C 637.893 -1.64299 -4.16785 0
M  V30 6826 C 639.637 0.184597 -4.24098 0
M  V30 6827 C 637.544 -1.67695 -5.67126 0
M  V30 6828 H 636.474 -0.0583769 -0.751737 0
M  V30 6829 H 639.125 -0.817111 -1.64303 0
M  V30 6830 H 637.507 0.472092 -3.93176 0
M  V30 6831 H 638.681 -2.3869 -3.94162 0
M  V30 6832 H 636.996 -2.02004 -3.6412 0
M  V30 6833 H 639.593 0.179088 -5.344 0
M  V30 6834 H 639.936 1.21632 -3.98135 0
M  V30 6835 H 640.469 -0.482141 -3.94867 0
M  V30 6836 H 637.208 -2.68783 -5.9786 0
M  V30 6837 H 636.728 -0.976313 -5.91801 0
M  V30 6838 H 638.407 -1.42142 -6.31193 0
M  V30 6839 N 638.539 1.52521 -0.396863 0
M  V30 6840 C 639.469 2.29582 0.425941 0
M  V30 6841 C 640.45 1.33281 1.05689 0
M  V30 6842 O 641.635 1.62181 1.06823 0
M  V30 6843 C 638.765 3.10821 1.54943 0
M  V30 6844 C 637.719 4.15069 1.04413 0
M  V30 6845 C 637.045 4.84578 2.26028 0
M  V30 6846 C 638.345 5.22191 0.106767 0
M  V30 6847 H 640.039 2.98612 -0.217045 0
M  V30 6848 H 637.585 1.43611 -0.105826 0
M  V30 6849 H 639.538 3.63492 2.13193 0
M  V30 6850 H 638.262 2.39538 2.22011 0
M  V30 6851 H 636.921 3.63389 0.484118 0
M  V30 6852 H 636.569 4.09835 2.91623 0
M  V30 6853 H 636.269 5.55043 1.92876 0
M  V30 6854 H 637.793 5.40056 2.84906 0
M  V30 6855 H 639.207 5.70176 0.597685 0
M  V30 6856 H 637.604 5.99947 -0.135352 0
M  V30 6857 H 638.674 4.77531 -0.842134 0
M  V30 6858 N 640.017 0.126909 1.57088 0
M  V30 6859 C 640.98 -0.806097 2.14557 0
M  V30 6860 C 641.98 -1.18918 1.08236 0
M  V30 6861 O 643.17 -1.11339 1.33975 0
M  V30 6862 C 640.302 -2.09116 2.69227 0
M  V30 6863 H 641.495 -0.306522 2.98329 0
M  V30 6864 H 639.048 -0.122393 1.5582 0
M  V30 6865 H 639.783 -2.63486 1.89065 0
M  V30 6866 H 639.568 -1.82588 3.46993 0
M  V30 6867 H 641.058 -2.75794 3.13572 0
M  V30 6868 N 641.495 -1.56914 -0.146875 0
M  V30 6869 C 642.743 -1.82994 -0.85777 0
M  V30 6870 C 643.064 -0.707814 -1.817 0
M  V30 6871 O 642.334 0.270521 -1.94023 0
M  V30 6872 H 640.914 -0.675106 -0.319751 0
M  V30 6873 H 643.576 -1.9439 -0.140849 0
M  V30 6874 H 642.672 -2.77928 -1.41994 0
M  V30 6875 N 642.974 0.416227 -1.52004 0
M  V30 6876 C 644.222 1.16153 -1.65387 0
M  V30 6877 C 644.543 1.91208 -0.382669 0
M  V30 6878 O 643.813 1.86413 0.602231 0
M  V30 6879 H 642.393 0.431765 -0.60958 0
M  V30 6880 H 645.055 0.475151 -1.89019 0
M  V30 6881 H 644.151 1.87952 -2.4916 0
M  V30 6882 N 644.452 1.42507 0.673017 0
M  V30 6883 C 645.692 1.44559 1.44507 0
M  V30 6884 C 646.056 0.0606206 1.91904 0
M  V30 6885 O 647.257 -0.044139 2.68764 0
M  V30 6886 C 645.528 2.44291 2.60877 0
M  V30 6887 S 647.087 2.65059 3.49699 0
M  V30 6888 H 643.905 0.51181 0.49353 0
M  V30 6889 H 646.507 1.79124 0.783256 0
M  V30 6890 H 645.211 3.43685 2.24297 0
M  V30 6891 H 644.742 2.11157 3.31928 0
M  V30 6892 H 646.757 1.93494 4.56919 0
M  V30 6893 N 645.93 -0.909495 1.28709 0
M  V30 6894 C 646.893 -1.99399 1.13016 0
M  V30 6895 C 647.893 -1.60654 0.068536 0
M  V30 6896 O 649.083 -1.71334 0.314671 0
M  V30 6897 C 646.215 -3.33078 0.726085 0
M  V30 6898 H 647.408 -2.14751 2.09338 0
M  V30 6899 H 644.961 -1.09272 1.11756 0
M  V30 6900 H 645.696 -3.23428 -0.23771 0
M  V30 6901 H 645.481 -3.62562 1.49302 0
M  V30 6902 H 646.971 -4.12681 0.639058 0
M  V30 6903 N 647.408 -1.11026 -1.11852 0
M  V30 6904 C 648.656 -0.854769 -1.83134 0
M  V30 6905 C 648.977 0.621375 -1.84835 0
M  V30 6906 O 648.247 1.45129 -1.31584 0
M  V30 6907 H 646.827 -0.313229 -0.678157 0
M  V30 6908 H 649.489 -1.40178 -1.35411 0
M  V30 6909 H 648.585 -1.22311 -2.87135 0
M  V30 6910 N 648.886 1.2938 -0.899927 0
M  V30 6911 C 650.134 1.95164 -0.524924 0
M  V30 6912 C 650.455 1.71292 0.931888 0
M  V30 6913 O 649.725 1.04481 1.65712 0
M  V30 6914 H 648.305 0.722133 -0.191135 0
M  V30 6915 H 650.967 1.57628 -1.14627 0
M  V30 6916 H 650.063 3.0397 -0.707711 0
M  V30 6917 N 650.364 0.662433 1.43002 0
M  V30 6918 C 651.589 0.186003 2.06564 0
M  V30 6919 C 652.014 -1.14314 1.49379 0
M  V30 6920 O 651.372 -1.70824 0.607346 0
M  V30 6921 C 651.42 0.118269 3.60406 0
M  V30 6922 O 650.524 -0.916859 4.02079 0
M  V30 6923 H 649.865 0.0990981 0.656563 0
M  V30 6924 H 652.395 0.907958 1.8335 0
M  V30 6925 H 652.405 -0.0619981 4.07953 0
M  V30 6926 H 651.08 1.08849 4.01403 0
M  V30 6927 H 649.657 -0.708635 3.66105 0
M  V30 6928 N 651.842 -1.52309 0.404946 0
M  V30 6929 C 652.774 -2.24579 -0.45791 0
M  V30 6930 C 653.787 -1.2739 -1.01369 0
M  V30 6931 O 654.976 -1.53363 -0.91335 0
M  V30 6932 C 652.076 -2.9608 -1.64893 0
M  V30 6933 C 651.249 -4.20106 -1.21777 0
M  V30 6934 C 650.308 -4.74468 -2.27523 0
M  V30 6935 O 649.334 -5.37157 -1.88285 0
M  V30 6936 N 650.536 -4.55678 -3.59635 0
M  V30 6937 H 653.301 -2.99265 0.161341 0
M  V30 6938 H 650.862 -1.60228 0.232107 0
M  V30 6939 H 652.854 -3.29344 -2.35191 0
M  V30 6940 H 651.424 -2.24606 -2.17419 0
M  V30 6941 H 650.644 -3.92704 -0.343071 0
M  V30 6942 H 651.932 -5.00658 -0.906596 0
M  V30 6943 H 651.33 -4.05673 -3.94266 0
M  V30 6944 H 649.887 -4.9339 -4.25922 0
M  V30 6945 N 653.32 -0.135238 -1.57019 0
M  V30 6946 C 654.566 0.519563 -1.96032 0
M  V30 6947 C 654.899 1.65284 -1.01955 0
M  V30 6948 O 654.174 1.94408 -0.059727 0
M  V30 6949 C 654.457 1.0369 -3.44848 0
M  V30 6950 C 654.31 -0.0940754 -4.49702 0
M  V30 6951 C 655.629 1.92254 -3.95887 0
M  V30 6952 H 652.748 0.18739 -0.712779 0
M  V30 6953 H 655.39 -0.214086 -1.8879 0
M  V30 6954 H 653.54 1.66209 -3.5115 0
M  V30 6955 H 655.212 -0.73 -4.55487 0
M  V30 6956 H 653.455 -0.754924 -4.27181 0
M  V30 6957 H 654.126 0.309419 -5.51132 0
M  V30 6958 H 656.602 1.39581 -3.9199 0
M  V30 6959 H 655.478 2.25364 -5.00502 0
M  V30 6960 H 655.739 2.85513 -3.37543 0
M  V30 6961 N 654.798 1.5699 0.138552 0
M  V30 6962 C 656.047 1.82998 0.848205 0
M  V30 6963 C 656.36 0.717829 1.81952 0
M  V30 6964 O 657.566 0.863756 2.57394 0
M  V30 6965 C 656.022 3.24379 1.55904 0
M  V30 6966 C 655.63 4.43552 0.62971 0
M  V30 6967 C 657.374 3.59654 2.25498 0
M  V30 6968 C 655.281 5.75957 1.34266 0
M  V30 6969 H 654.211 0.682495 0.320495 0
M  V30 6970 H 656.862 1.83222 0.100924 0
M  V30 6971 H 655.244 3.18567 2.35226 0
M  V30 6972 H 656.418 4.6062 -0.128882 0
M  V30 6973 H 654.733 4.16379 0.0417526 0
M  V30 6974 H 657.33 4.55837 2.79493 0
M  V30 6975 H 657.673 2.86124 3.02388 0
M  V30 6976 H 658.206 3.67164 1.53087 0
M  V30 6977 H 654.945 6.52604 0.615441 0
M  V30 6978 H 654.465 5.62811 2.07375 0
M  V30 6979 H 656.144 6.19046 1.88126 0
M  V30 6980 N 656.276 -0.40816 1.52223 0
M  V30 6981 C 657.523 -1.15502 1.66329 0
M  V30 6982 C 657.851 -1.90474 0.393701 0
M  V30 6983 O 657.106 -1.85507 -0.623356 0
M  V30 6984 C 657.405 -2.17422 2.83659 0
M  V30 6985 C 657.071 -1.5925 4.21841 0
M  V30 6986 C 655.733 -1.4311 4.59427 0
M  V30 6987 C 658.085 -1.16776 5.0795 0
M  V30 6988 C 655.413 -0.830148 5.80797 0
M  V30 6989 C 657.765 -0.580988 6.29926 0
M  V30 6990 C 656.429 -0.406729 6.6626 0
M  V30 6991 H 655.699 -0.422653 0.608642 0
M  V30 6992 H 658.346 -0.442114 1.86327 0
M  V30 6993 H 656.651 -2.94861 2.58001 0
M  V30 6994 H 658.348 -2.75084 2.9177 0
M  V30 6995 H 654.938 -1.72796 3.92224 0
M  V30 6996 H 659.122 -1.28055 4.79495 0
M  V30 6997 H 654.378 -0.68316 6.07571 0
M  V30 6998 H 658.552 -0.243488 6.95974 0
M  V30 6999 H 656.179 0.0610366 7.60175 0
M  V30 7000 N 657.755 -1.42862 -0.66545 0
M  V30 7001 C 658.983 -1.47246 -1.45349 0
M  V30 7002 C 659.398 -0.0865944 -1.88601 0
M  V30 7003 O 658.755 0.900652 -1.58728 0
M  V30 7004 C 658.806 -2.40772 -2.6965 0
M  V30 7005 O 658.527 -3.73968 -2.2821 0
M  V30 7006 C 660.028 -2.54272 -3.63126 0
M  V30 7007 H 657.248 -0.500497 -0.446927 0
M  V30 7008 H 659.792 -1.87477 -0.816871 0
M  V30 7009 H 657.947 -2.0377 -3.29479 0
M  V30 7010 H 658.361 -4.24146 -3.08546 0
M  V30 7011 H 659.835 -3.23815 -4.47043 0
M  V30 7012 H 660.312 -1.58364 -4.09656 0
M  V30 7013 H 660.918 -2.92036 -3.09185 0
M  V30 7014 N 659.233 0.902656 -1.29189 0
M  V30 7015 C 660.181 2.0278 -1.13943 0
M  V30 7016 C 661.175 1.69308 -0.055787 0
M  V30 7017 O 662.381 1.78707 -0.215371 0
M  V30 7018 H 658.756 0.664595 -0.351877 0
M  V30 7019 H 660.727 2.12778 -2.09208 0
M  V30 7020 C 659.476 3.37657 -0.82966 0
M  V30 7021 H 658.799 3.63913 -1.65551 0
M  V30 7022 H 660.239 4.17078 -0.762998 0
M  V30 7023 C 658.698 3.33648 0.466991 0
M  V30 7024 O 659.228 3.72886 1.49395 0
M  V30 7025 N 657.434 2.86745 0.471761 0
M  V30 7026 H 656.981 2.55009 -0.364406 0
M  V30 7027 H 656.939 2.84446 1.33933 0
M  V30 7028 N 660.711 1.11618 1.11262 0
M  V30 7029 C 662.122 0.881942 1.64556 0
M  V30 7030 C 662.473 -0.585442 1.87262 0
M  V30 7031 O 661.598 -1.44795 1.60821 0
M  V30 7032 C 662.193 1.59446 2.98935 0
M  V30 7033 C 660.752 1.40661 3.4913 0
M  V30 7034 C 659.899 1.63593 2.23903 0
M  V30 7035 H 662.85 1.27217 0.94877 0
M  V30 7036 H 662.871 1.04054 3.65996 0
M  V30 7037 H 662.383 2.66241 2.82378 0
M  V30 7038 H 660.484 0.360835 3.70849 0
M  V30 7039 H 660.597 2.15693 4.27801 0
M  V30 7040 H 658.961 1.05944 2.3162 0
M  V30 7041 H 659.744 2.71666 2.09886 0
M  V30 7042 N 662.189 -1.289 0.906776 0
M  V30 7043 C 663.119 -2.29932 0.406659 0
M  V30 7044 C 664.1 -1.6189 -0.522061 0
M  V30 7045 O 665.285 -1.8935 -0.431283 0
M  V30 7046 C 662.415 -3.45425 -0.360366 0
M  V30 7047 C 661.369 -4.25316 0.478574 0
M  V30 7048 C 660.695 -5.33076 -0.416373 0
M  V30 7049 C 661.995 -4.92739 1.7322 0
M  V30 7050 H 663.689 -2.72013 1.25097 0
M  V30 7051 H 661.235 -1.30768 0.602977 0
M  V30 7052 H 663.188 -4.15186 -0.721029 0
M  V30 7053 H 661.912 -3.02206 -1.23852 0
M  V30 7054 H 660.571 -3.57273 0.821662 0
M  V30 7055 H 660.219 -4.86101 -1.29287 0
M  V30 7056 H 659.919 -5.8743 0.141309 0
M  V30 7057 H 661.443 -6.05686 -0.773072 0
M  V30 7058 H 662.857 -5.54898 1.44086 0
M  V30 7059 H 661.254 -5.57057 2.23175 0
M  V30 7060 H 662.324 -4.17625 2.46408 0
M  V30 7061 N 663.667 -0.670007 -1.42649 0
M  V30 7062 C 664.577 0.0114788 -2.34597 0
M  V30 7063 C 665.593 0.794055 -1.54825 0
M  V30 7064 O 666.769 0.737472 -1.87412 0
M  V30 7065 C 663.834 0.954436 -3.33304 0
M  V30 7066 C 662.895 0.166925 -4.28975 0
M  V30 7067 C 662.128 1.06497 -5.22967 0
M  V30 7068 O 662.351 2.30446 -5.21777 0
M  V30 7069 O 661.285 0.528347 -5.99577 0
M  V30 7070 H 665.111 -0.745794 -2.944 0
M  V30 7071 H 662.696 -0.430228 -1.43071 0
M  V30 7072 H 664.578 1.49589 -3.93956 0
M  V30 7073 H 663.253 1.69164 -2.7598 0
M  V30 7074 H 662.16 -0.418515 -3.71752 0
M  V30 7075 H 663.493 -0.531067 -4.89327 0
M  V30 7076 N 665.145 1.52092 -0.413018 0
M  V30 7077 C 666.394 2.01041 0.16287 0
M  V30 7078 C 666.707 1.30288 1.45892 0
M  V30 7079 O 667.913 1.70075 2.11629 0
M  V30 7080 C 666.369 3.58283 0.340806 0
M  V30 7081 C 665.977 4.37955 -0.943377 0
M  V30 7082 C 667.721 4.15452 0.871774 0
M  V30 7083 C 665.628 5.86847 -0.732417 0
M  V30 7084 H 664.558 0.751224 0.0646414 0
M  V30 7085 H 667.209 1.75404 -0.539059 0
M  V30 7086 H 665.591 3.80266 1.10516 0
M  V30 7087 H 666.765 4.2773 -1.71418 0
M  V30 7088 H 665.08 3.92122 -1.40105 0
M  V30 7089 H 667.677 5.24375 1.0457 0
M  V30 7090 H 668.02 3.73057 1.84755 0
M  V30 7091 H 668.553 3.97452 0.166377 0
M  V30 7092 H 665.292 6.33609 -1.67986 0
M  V30 7093 H 664.812 5.998 -0.000980058 0
M  V30 7094 H 666.491 6.45906 -0.376105 0
M  V30 7095 N 666.623 0.143563 1.56945 0
M  V30 7096 C 667.869 -0.50916 1.96304 0
M  V30 7097 C 668.202 -1.64741 1.0283 0
M  V30 7098 O 667.477 -1.94374 0.0700361 0
M  V30 7099 C 667.76 -1.0186 3.45393 0
M  V30 7100 C 667.613 0.117923 4.49645 0
M  V30 7101 C 668.932 -1.90151 3.96901 0
M  V30 7102 H 666.051 -0.183608 0.713763 0
M  V30 7103 H 668.693 0.224095 1.88674 0
M  V30 7104 H 666.843 -1.64345 3.52027 0
M  V30 7105 H 668.515 0.754145 4.55094 0
M  V30 7106 H 666.758 0.777568 4.26774 0
M  V30 7107 H 667.429 -0.280187 5.51288 0
M  V30 7108 H 669.905 -1.375 3.92725 0
M  V30 7109 H 668.781 -2.22707 5.0169 0
M  V30 7110 H 669.042 -2.83718 3.39052 0
M  V30 7111 N 668.101 -1.57061 -0.130224 0
M  V30 7112 C 669.048 -1.99517 -1.16024 0
M  V30 7113 C 670.018 -0.865452 -1.41771 0
M  V30 7114 O 671.203 -1.12882 -1.53826 0
M  V30 7115 C 668.343 -2.3951 -2.48453 0
M  V30 7116 C 667.456 -3.65848 -2.29737 0
M  V30 7117 C 666.591 -3.9487 -3.55318 0
M  V30 7118 C 665.63 -5.14426 -3.31711 0
M  V30 7119 N 664.767 -5.39375 -4.49466 0
M  V30 7120 H 669.607 -2.87305 -0.791194 0
M  V30 7121 H 667.144 -1.42129 -0.379195 0
M  V30 7122 H 669.102 -2.60731 -3.25692 0
M  V30 7123 H 667.732 -1.54779 -2.83272 0
M  V30 7124 H 666.784 -3.52307 -1.4347 0
M  V30 7125 H 668.096 -4.53241 -2.08263 0
M  V30 7126 H 667.25 -4.16679 -4.4098 0
M  V30 7127 H 665.989 -3.05931 -3.79813 0
M  V30 7128 H 664.994 -4.92473 -2.44439 0
M  V30 7129 H 666.219 -6.04933 -3.08598 0
M  V30 7130 H 664.165 -4.53391 -4.74102 0
M  V30 7131 H 664.082 -6.21069 -4.31055 0
M  V30 7132 H 665.35 -5.65694 -5.36293 0
M  V30 7133 N 669.579 0.400081 -1.52437 0
M  V30 7134 C 670.828 1.14332 -1.66166 0
M  V30 7135 C 671.141 1.91419 -0.402253 0
M  V30 7136 O 672.347 2.6824 -0.419487 0
M  V30 7137 C 670.803 2.08137 -2.9361 0
M  V30 7138 C 670.411 1.36524 -4.26691 0
M  V30 7139 C 672.155 2.82664 -3.16703 0
M  V30 7140 C 670.062 2.29031 -5.45251 0
M  V30 7141 H 668.992 0.430499 -0.61902 0
M  V30 7142 H 671.643 0.407017 -1.78929 0
M  V30 7143 H 670.025 2.85358 -2.74567 0
M  V30 7144 H 671.199 0.646061 -4.56249 0
M  V30 7145 H 669.514 0.74002 -4.09771 0
M  V30 7146 H 672.111 3.52037 -4.0246 0
M  V30 7147 H 672.454 3.46122 -2.31312 0
M  V30 7148 H 672.987 2.12541 -3.36261 0
M  V30 7149 H 669.726 1.70206 -6.33017 0
M  V30 7150 H 669.246 2.98896 -5.2002 0
M  V30 7151 H 670.925 2.89359 -5.78689 0
M  V30 7152 N 671.057 1.43213 0.657864 0
M  V30 7153 C 672.473 1.26511 0.972992 0
M  V30 7154 C 672.673 0.181477 2.00681 0
M  V30 7155 O 671.729 -0.441649 2.48608 0
M  V30 7156 C 673.042 2.62784 1.46168 0
M  V30 7157 C 674.59 2.70278 1.57857 0
M  V30 7158 C 675.065 4.06958 2.10117 0
M  V30 7159 N 676.556 4.08999 2.17426 0
M  V30 7160 C 677.291 5.11585 2.58975 0
M  V30 7161 N 676.787 6.24548 2.99853 0
M  V30 7162 N 678.58 4.9894 2.58873 0
M  V30 7163 H 670.731 2.12384 -0.0263129 0
M  V30 7164 H 672.994 0.946638 0.0507992 0
M  V30 7165 H 672.7 3.43022 0.776474 0
M  V30 7166 H 672.574 2.87863 2.43751 0
M  V30 7167 H 674.961 1.90376 2.25479 0
M  V30 7168 H 675.042 2.4897 0.587179 0
M  V30 7169 H 674.686 4.87325 1.43098 0
M  V30 7170 H 674.616 4.25628 3.10078 0
M  V30 7171 H 677.107 3.27457 1.88627 0
M  V30 7172 H 677.42 6.98661 3.30292 0
M  V30 7173 H 675.765 6.28027 2.97669 0
M  V30 7174 H 678.956 4.09757 2.26311 0
M  V30 7175 H 679.129 5.79019 2.90932 0
M  V30 7176 N 672.536 -0.895792 1.29666 0
M  V30 7177 C 673.466 -2.01673 1.17688 0
M  V30 7178 C 674.447 -1.69955 0.0701317 0
M  V30 7179 O 675.632 -1.9258 0.250289 0
M  V30 7180 C 672.762 -3.36568 0.856681 0
M  V30 7181 C 671.716 -3.82509 1.92017 0
M  V30 7182 C 671.042 -5.14574 1.4532 0
M  V30 7183 C 672.342 -4.02409 3.32963 0
M  V30 7184 H 674.036 -2.11953 2.11463 0
M  V30 7185 H 671.582 -1.01839 1.01807 0
M  V30 7186 H 673.535 -4.14498 0.759577 0
M  V30 7187 H 672.259 -3.26391 -0.116763 0
M  V30 7188 H 670.918 -3.068 2.00673 0
M  V30 7189 H 670.566 -5.00815 0.468325 0
M  V30 7190 H 670.266 -5.46283 2.16447 0
M  V30 7191 H 671.79 -5.9504 1.36968 0
M  V30 7192 H 673.204 -4.70808 3.27127 0
M  V30 7193 H 671.601 -4.45478 4.02082 0
M  V30 7194 H 672.671 -3.06616 3.75652 0
M  V30 7195 N 674.014 -1.12206 -1.10668 0
M  V30 7196 C 674.946 -0.74552 -2.16736 0
M  V30 7197 C 675.959 0.226696 -1.61214 0
M  V30 7198 O 677.148 0.0083936 -1.78498 0
M  V30 7199 C 674.248 -0.0823368 -3.388 0
M  V30 7200 C 673.421 -1.08341 -4.2377 0
M  V30 7201 C 672.48 -0.448292 -5.24287 0
M  V30 7202 O 671.506 -1.10458 -5.58379 0
M  V30 7203 N 672.708 0.785336 -5.75163 0
M  V30 7204 H 675.473 -1.65818 -2.49649 0
M  V30 7205 H 673.034 -1.01335 -1.26265 0
M  V30 7206 H 675.026 0.354476 -4.03145 0
M  V30 7207 H 673.596 0.733041 -3.03884 0
M  V30 7208 H 672.816 -1.69792 -3.55759 0
M  V30 7209 H 674.104 -1.76042 -4.77375 0
M  V30 7210 H 673.502 1.33755 -5.4966 0
M  V30 7211 H 672.059 1.16501 -6.41304 0
M  V30 7212 N 675.492 1.28418 -0.913599 0
M  V30 7213 C 676.738 1.9527 -0.547484 0
M  V30 7214 C 677.071 1.71745 0.906486 0
M  V30 7215 O 676.346 1.03834 1.64465 0
M  V30 7216 C 676.629 3.49748 -0.857205 0
M  V30 7217 C 676.482 3.82675 -2.3639 0
M  V30 7218 C 677.801 4.3868 -0.353258 0
M  V30 7219 H 674.92 0.709236 -0.200381 0
M  V30 7220 H 677.562 1.51789 -1.14281 0
M  V30 7221 H 675.712 3.86915 -0.350548 0
M  V30 7222 H 677.384 3.55378 -2.94116 0
M  V30 7223 H 675.627 3.29724 -2.81894 0
M  V30 7224 H 676.298 4.90547 -2.53115 0
M  V30 7225 H 678.774 4.08584 -0.787288 0
M  V30 7226 H 677.65 5.45621 -0.599049 0
M  V30 7227 H 677.911 4.35753 0.746413 0
M  V30 7228 N 676.97 0.677563 1.42291 0
M  V30 7229 C 677.933 0.0101085 2.29198 0
M  V30 7230 C 678.933 -0.726219 1.43467 0
M  V30 7231 O 680.123 -0.563807 1.64824 0
M  V30 7232 C 677.255 -0.996316 3.26016 0
M  V30 7233 H 678.448 0.775071 2.89711 0
M  V30 7234 H 676.001 0.440065 1.49977 0
M  V30 7235 H 676.736 -1.78967 2.70446 0
M  V30 7236 H 676.521 -0.471687 3.89253 0
M  V30 7237 H 678.011 -1.46167 3.91184 0
M  V30 7238 N 678.448 -1.51871 0.421078 0
M  V30 7239 C 679.696 -2.01539 -0.150492 0
M  V30 7240 C 680.017 -1.30803 -1.44623 0
M  V30 7241 O 679.287 -0.437568 -1.90951 0
M  V30 7242 H 677.867 -0.744698 -0.0586041 0
M  V30 7243 H 680.529 -1.8668 0.560059 0
M  V30 7244 H 679.625 -3.10264 -0.338068 0
M  V30 7245 N 679.926 -0.151884 -1.56866 0
M  V30 7246 C 680.836 0.798876 -2.20579 0
M  V30 7247 C 681.852 1.268 -1.19154 0
M  V30 7248 O 683.028 1.32418 -1.51748 0
M  V30 7249 C 680.093 2.01861 -2.81874 0
M  V30 7250 C 679.154 1.59825 -3.9844 0
M  V30 7251 C 678.387 2.75984 -4.56802 0
M  V30 7252 O 678.61 3.92331 -4.14044 0
M  V30 7253 O 677.544 2.51175 -5.46987 0
M  V30 7254 H 681.37 0.2865 -3.02346 0
M  V30 7255 H 678.955 0.0753806 -1.4921 0
M  V30 7256 H 680.837 2.73235 -3.20813 0
M  V30 7257 H 679.512 2.52042 -2.03117 0
M  V30 7258 H 678.419 0.854601 -3.64208 0
M  V30 7259 H 679.752 1.14355 -4.78731 0
M  V30 7260 N 681.404 1.57128 0.121893 0
M  V30 7261 C 682.653 1.83888 0.828748 0
M  V30 7262 C 682.966 0.737087 1.81181 0
M  V30 7263 O 684.172 0.891007 2.56463 0
M  V30 7264 C 682.628 3.26014 1.52455 0
M  V30 7265 C 682.236 4.44195 0.58263 0
M  V30 7266 C 683.98 3.62025 2.21671 0
M  V30 7267 C 681.887 5.77349 1.28149 0
M  V30 7268 H 680.817 0.685856 0.313238 0
M  V30 7269 H 683.468 1.83319 0.0814851 0
M  V30 7270 H 681.85 3.21044 2.31834 0
M  V30 7271 H 683.024 4.60457 -0.177729 0
M  V30 7272 H 681.339 4.164 -0.00241228 0
M  V30 7273 H 683.936 4.58776 2.74643 0
M  V30 7274 H 684.279 2.89315 2.99337 0
M  V30 7275 H 684.812 3.68767 1.49184 0
M  V30 7276 H 681.551 6.53221 0.546189 0
M  V30 7277 H 681.071 5.64978 2.01394 0
M  V30 7278 H 682.75 6.21006 1.81549 0
M  V30 7279 N 682.882 -0.391992 1.52647 0
M  V30 7280 C 684.11 -1.1586 1.71418 0
M  V30 7281 C 684.525 -1.8381 0.431216 0
M  V30 7282 O 683.882 -1.7256 -0.594085 0
M  V30 7283 C 683.933 -2.20888 2.86165 0
M  V30 7284 O 683.654 -1.5571 4.09495 0
M  V30 7285 C 685.155 -3.103 3.1659 0
M  V30 7286 H 682.375 -0.347494 0.574011 0
M  V30 7287 H 684.919 -0.458972 1.99283 0
M  V30 7288 H 683.074 -2.86492 2.6077 0
M  V30 7289 H 683.488 -2.25474 4.73563 0
M  V30 7290 H 684.962 -3.8003 4.00351 0
M  V30 7291 H 685.439 -3.73639 2.30848 0
M  V30 7292 H 686.045 -2.50345 3.43813 0
M  V30 7293 N 684.36 -1.4356 -0.65026 0
M  V30 7294 C 685.588 -1.48779 -1.43779 0
M  V30 7295 C 686.003 -0.106593 -1.88499 0
M  V30 7296 O 685.36 0.883766 -1.59674 0
M  V30 7297 C 685.411 -2.43618 -2.67081 0
M  V30 7298 O 685.132 -3.76367 -2.24231 0
M  V30 7299 C 686.633 -2.5811 -3.60409 0
M  V30 7300 H 683.853 -0.50521 -0.441593 0
M  V30 7301 H 686.397 -1.88332 -0.796941 0
M  V30 7302 H 684.552 -2.07253 -3.273 0
M  V30 7303 H 684.966 -4.27394 -3.0403 0
M  V30 7304 H 686.44 -3.28539 -4.43583 0
M  V30 7305 H 686.917 -1.627 -4.07953 0
M  V30 7306 H 687.523 -2.95298 -3.0607 0
M  V30 7307 N 685.838 0.888903 -1.30139 0
M  V30 7308 C 687.086 1.63713 -1.18501 0
M  V30 7309 C 687.407 1.9324 0.261399 0
M  V30 7310 O 686.677 1.56608 1.17689 0
M  V30 7311 H 685.257 0.606861 -0.435579 0
M  V30 7312 H 687.919 1.06525 -1.63213 0
M  V30 7313 H 687.015 2.58894 -1.743 0
M  V30 7314 N 687.317 1.12792 1.10072 0
M  V30 7315 C 688.728 0.899346 1.63611 0
M  V30 7316 C 689.079 -0.565547 1.87872 0
M  V30 7317 O 688.204 -1.43081 1.62348 0
M  V30 7318 C 688.799 1.62608 2.97227 0
M  V30 7319 C 687.358 1.44356 3.47618 0
M  V30 7320 C 686.505 1.65958 2.22156 0
M  V30 7321 H 689.456 1.28216 0.935223 0
M  V30 7322 H 689.477 1.0793 3.64872 0
M  V30 7323 H 688.989 2.69221 2.79538 0
M  V30 7324 H 687.09 0.400148 3.70445 0
M  V30 7325 H 687.203 2.20218 4.25489 0
M  V30 7326 H 685.567 1.08395 2.30484 0
M  V30 7327 H 686.35 2.73877 2.06993 0
M  V30 7328 N 688.795 -1.27931 0.920396 0
M  V30 7329 C 690.211 -1.47085 0.619537 0
M  V30 7330 C 690.411 -1.83463 -0.833291 0
M  V30 7331 O 689.467 -1.94363 -1.61181 0
M  V30 7332 C 690.78 -2.56878 1.56314 0
M  V30 7333 C 692.328 -2.70743 1.57058 0
M  V30 7334 C 692.803 -3.83687 2.50097 0
M  V30 7335 N 694.294 -3.9105 2.48262 0
M  V30 7336 C 695.029 -4.77842 3.16945 0
M  V30 7337 N 694.525 -5.69176 3.94982 0
M  V30 7338 N 696.318 -4.71509 3.06 0
M  V30 7339 H 688.469 -1.02601 1.85975 0
M  V30 7340 H 690.732 -0.511682 0.798051 0
M  V30 7341 H 690.438 -2.36923 2.59923 0
M  V30 7342 H 690.312 -3.54117 1.29928 0
M  V30 7343 H 692.699 -2.90083 0.541832 0
M  V30 7344 H 692.78 -1.74015 1.8749 0
M  V30 7345 H 692.424 -3.65101 3.53077 0
M  V30 7346 H 692.354 -4.79827 2.16964 0
M  V30 7347 H 694.845 -3.25738 1.91581 0
M  V30 7348 H 695.158 -6.32245 4.44394 0
M  V30 7349 H 693.503 -5.68995 3.99086 0
M  V30 7350 H 696.694 -3.99151 2.44533 0
M  V30 7351 H 696.867 -5.38933 3.59799 0
M  V30 7352 N 690.273 -0.685099 -1.4193 0
M  V30 7353 C 691.519 -0.211971 -2.01689 0
M  V30 7354 C 691.852 1.18189 -1.54094 0
M  V30 7355 O 691.127 1.79559 -0.747572 0
M  V30 7356 C 691.41 -0.258019 -3.59174 0
M  V30 7357 C 691.263 -1.68807 -4.16922 0
M  V30 7358 C 692.582 0.388044 -4.38386 0
M  V30 7359 H 689.701 -0.0784987 -0.732808 0
M  V30 7360 H 692.343 -0.871837 -1.68816 0
M  V30 7361 H 690.493 0.303832 -3.8731 0
M  V30 7362 H 692.165 -2.30296 -3.99702 0
M  V30 7363 H 690.408 -2.22553 -3.72361 0
M  V30 7364 H 691.079 -1.6719 -5.26072 0
M  V30 7365 H 693.555 -0.0903432 -4.16002 0
M  V30 7366 H 692.431 0.325232 -5.47936 0
M  V30 7367 H 692.692 1.4672 -4.17044 0
M  V30 7368 N 691.751 1.51645 -0.429126 0
M  V30 7369 C 692.976 2.06917 0.141399 0
M  V30 7370 C 693.401 1.29527 1.36398 0
M  V30 7371 O 692.759 0.33094 1.78254 0
M  V30 7372 C 692.807 3.57776 0.4504 0
M  V30 7373 O 691.911 3.82639 1.53821 0
M  V30 7374 H 691.252 0.663978 0.0054647 0
M  V30 7375 H 693.782 1.95355 -0.608093 0
M  V30 7376 H 693.792 4.01894 0.703249 0
M  V30 7377 H 692.467 4.13532 -0.443213 0
M  V30 7378 H 691.044 3.5039 1.27597 0
M  V30 7379 N 693.229 0.160201 1.56784 0
M  V30 7380 C 694.192 -0.760405 2.16219 0
M  V30 7381 C 695.192 -1.16595 1.10735 0
M  V30 7382 O 696.382 -1.08472 1.36306 0
M  V30 7383 C 693.514 -2.03358 2.73603 0
M  V30 7384 H 694.707 -0.243173 2.98912 0
M  V30 7385 H 692.26 -0.0893139 1.56045 0
M  V30 7386 H 692.995 -2.59416 1.94612 0
M  V30 7387 H 692.78 -1.75186 3.50788 0
M  V30 7388 H 694.27 -2.69081 3.19351 0
M  V30 7389 N 694.707 -1.5719 -0.113559 0
M  V30 7390 C 695.637 -2.03772 -1.14013 0
M  V30 7391 C 696.618 -0.923176 -1.42869 0
M  V30 7392 O 697.803 -1.19325 -1.53216 0
M  V30 7393 C 694.933 -2.44663 -2.4649 0
M  V30 7394 C 693.887 -3.59612 -2.32085 0
M  V30 7395 C 693.213 -3.8642 -3.69573 0
M  V30 7396 C 694.513 -4.91149 -1.7768 0
M  V30 7397 H 696.207 -2.89785 -0.752665 0
M  V30 7398 H 693.753 -1.39412 -0.360609 0
M  V30 7399 H 695.706 -2.75857 -3.18561 0
M  V30 7400 H 694.43 -1.55628 -2.87137 0
M  V30 7401 H 693.089 -3.28636 -1.62461 0
M  V30 7402 H 692.737 -2.94581 -4.07715 0
M  V30 7403 H 692.437 -4.63797 -3.60786 0
M  V30 7404 H 693.961 -4.2007 -4.4314 0
M  V30 7405 H 695.375 -5.20843 -2.39574 0
M  V30 7406 H 693.772 -5.72562 -1.79701 0
M  V30 7407 H 694.842 -4.79301 -0.734776 0
M  V30 7408 N 696.185 0.383891 -1.52853 0
M  V30 7409 C 697.41 1.154 -1.7233 0
M  V30 7410 C 697.835 1.82809 -0.44298 0
M  V30 7411 O 697.193 1.71026 0.601645 0
M  V30 7412 C 697.241 2.17386 -2.87708 0
M  V30 7413 O 696.345 3.24082 -2.55038 0
M  V30 7414 H 695.686 0.335709 -0.572883 0
M  V30 7415 H 698.216 0.44662 -1.99666 0
M  V30 7416 H 698.226 2.61296 -3.1335 0
M  V30 7417 H 696.901 1.6771 -3.80587 0
M  V30 7418 H 695.478 2.85273 -2.40153 0
M  V30 7419 N 697.663 1.43903 0.642637 0
M  V30 7420 C 698.909 1.46296 1.40447 0
M  V30 7421 C 699.242 0.0908361 1.93987 0
M  V30 7422 O 698.517 -0.889884 1.72949 0
M  V30 7423 C 698.8 2.51399 2.57819 0
M  V30 7424 C 698.653 3.97926 2.09702 0
M  V30 7425 C 699.972 2.53125 3.60022 0
M  V30 7426 H 697.091 0.532676 0.509338 0
M  V30 7427 H 699.733 1.75515 0.727635 0
M  V30 7428 H 697.883 2.26614 3.1556 0
M  V30 7429 H 699.555 4.33804 1.5688 0
M  V30 7430 H 697.798 4.10252 1.40982 0
M  V30 7431 H 698.469 4.67096 2.94152 0
M  V30 7432 H 700.945 2.75242 3.12059 0
M  V30 7433 H 699.821 3.28589 4.39682 0
M  V30 7434 H 700.082 1.56895 4.13324 0
M  V30 7435 N 699.141 -0.881989 1.30609 0
M  V30 7436 C 700.387 -1.63647 1.19781 0
M  V30 7437 C 700.72 -1.92632 -0.246265 0
M  V30 7438 O 699.995 -1.54938 -1.17577 0
M  V30 7439 C 700.278 -2.97437 2.02985 0
M  V30 7440 C 700.131 -2.75406 3.55628 0
M  V30 7441 C 701.45 -3.98397 1.86997 0
M  V30 7442 H 698.569 -0.593841 0.436488 0
M  V30 7443 H 701.211 -1.02041 1.60273 0
M  V30 7444 H 699.361 -3.50018 1.68581 0
M  V30 7445 H 701.033 -2.2959 4.00107 0
M  V30 7446 H 699.276 -2.09856 3.79662 0
M  V30 7447 H 699.947 -3.70552 4.09139 0
M  V30 7448 H 702.423 -3.54986 2.17081 0
M  V30 7449 H 701.299 -4.89916 2.47536 0
M  V30 7450 H 701.56 -4.3424 0.829943 0
M  V30 7451 N 700.619 -1.13374 -1.09472 0
M  V30 7452 C 702.035 -0.871846 -1.33682 0
M  V30 7453 C 702.235 0.492847 -1.9538 0
M  V30 7454 O 701.291 1.23946 -2.19985 0
M  V30 7455 C 702.604 -1.99608 -2.24893 0
M  V30 7456 C 704.152 -2.02812 -2.38404 0
M  V30 7457 C 704.627 -3.14497 -3.3295 0
M  V30 7458 N 706.118 -3.14004 -3.40523 0
M  V30 7459 C 706.853 -3.97061 -4.13679 0
M  V30 7460 N 706.349 -4.90131 -4.89636 0
M  V30 7461 N 708.142 -3.85162 -4.09398 0
M  V30 7462 H 700.293 -2.01288 -0.677995 0
M  V30 7463 H 702.556 -0.876492 -0.361201 0
M  V30 7464 H 702.262 -2.98 -1.86786 0
M  V30 7465 H 702.136 -1.90981 -3.25278 0
M  V30 7466 H 704.523 -1.05034 -2.75775 0
M  V30 7467 H 704.604 -2.15511 -1.37799 0
M  V30 7468 H 704.248 -4.12514 -2.96302 0
M  V30 7469 H 704.178 -2.99035 -4.33458 0
M  V30 7470 H 706.669 -2.46587 -2.86362 0
M  V30 7471 H 706.982 -5.49996 -5.42885 0
M  V30 7472 H 705.327 -4.94138 -4.88726 0
M  V30 7473 H 708.518 -3.11779 -3.49158 0
M  V30 7474 H 708.691 -4.5012 -4.6615 0
M  V30 7475 N 702.098 1.27442 -0.927168 0
M  V30 7476 C 703.375 1.89473 -0.485742 0
M  V30 7477 C 703.755 1.83922 1.03614 0
M  V30 7478 O 703.103 1.28409 1.89007 0
M  V30 7479 C 703.313 3.33417 -1.03123 0
M  V30 7480 C 704.661 4.10333 -1.0914 0
M  V30 7481 O 705.685 3.4243 -0.98082 0
M  V30 7482 O 704.544 5.31737 -1.26165 0
M  V30 7483 H 701.638 0.812124 -0.156154 0
M  V30 7484 H 704.184 1.35713 -1.01882 0
M  V30 7485 H 702.956 3.31747 -2.07508 0
M  V30 7486 H 702.579 3.94695 -0.479767 0
M  V30 7487 N 703.576 0.692616 1.41565 0
M  V30 7488 C 704.506 0.0397325 2.33466 0
M  V30 7489 C 705.487 -0.770334 1.51657 0
M  V30 7490 O 706.672 -0.723903 1.80203 0
M  V30 7491 C 703.802 -0.899495 3.3545 0
M  V30 7492 C 702.756 -0.196738 4.27548 0
M  V30 7493 C 702.082 -1.25012 5.19881 0
M  V30 7494 C 703.382 0.935158 5.1386 0
M  V30 7495 H 705.076 0.807296 2.88311 0
M  V30 7496 H 702.622 0.389665 1.38628 0
M  V30 7497 H 704.575 -1.36545 3.98665 0
M  V30 7498 H 703.299 -1.69869 2.78948 0
M  V30 7499 H 701.958 0.249158 3.65752 0
M  V30 7500 H 701.606 -2.04177 4.59696 0
M  V30 7501 H 701.306 -0.784931 5.82334 0
M  V30 7502 H 702.83 -1.71665 5.85972 0
M  V30 7503 H 704.244 0.549619 5.70659 0
M  V30 7504 H 702.641 1.32726 5.85238 0
M  V30 7505 H 703.711 1.77613 4.512 0
M  V30 7506 N 705.054 -1.51416 0.437162 0
M  V30 7507 C 706.302 -2.01687 -0.129108 0
M  V30 7508 C 706.623 -1.32329 -1.43227 0
M  V30 7509 O 705.893 -0.457796 -1.90476 0
M  V30 7510 H 704.473 -0.745277 -0.0507023 0
M  V30 7511 H 707.135 -1.86075 0.579828 0
M  V30 7512 H 706.231 -3.10605 -0.305141 0
M  V30 7513 N 706.532 -0.168513 -1.56696 0
M  V30 7514 C 707.779 0.477158 -1.96798 0
M  V30 7515 C 708.107 1.63442 -1.05437 0
M  V30 7516 O 707.362 1.95503 -0.0878903 0
M  V30 7517 C 707.661 1.00441 -3.42996 0
M  V30 7518 C 707.327 -0.0366556 -4.50885 0
M  V30 7519 C 705.989 -0.322785 -4.80116 0
M  V30 7520 C 708.341 -0.743447 -5.1587 0
M  V30 7521 C 705.669 -1.32114 -5.71632 0
M  V30 7522 C 708.021 -1.73077 -6.08463 0
M  V30 7523 C 706.685 -2.02437 -6.36062 0
M  V30 7524 H 705.955 0.174604 -0.720135 0
M  V30 7525 H 708.602 -0.259884 -1.89728 0
M  V30 7526 H 706.907 1.81922 -3.47004 0
M  V30 7527 H 708.604 1.51294 -3.71364 0
M  V30 7528 H 705.194 0.196532 -4.28149 0
M  V30 7529 H 709.378 -0.535602 -4.93401 0
M  V30 7530 H 704.634 -1.55482 -5.913 0
M  V30 7531 H 708.808 -2.28382 -6.57886 0
M  V30 7532 H 706.435 -2.79946 -7.06777 0
M  V30 7533 N 708.01 1.57248 0.105221 0
M  V30 7534 C 709.257 1.8557 0.810552 0
M  V30 7535 C 709.585 0.755595 1.79223 0
M  V30 7536 O 708.84 -0.251788 1.94073 0
M  V30 7537 C 709.139 3.20437 1.58287 0
M  V30 7538 C 708.805 4.44716 0.744235 0
M  V30 7539 C 707.467 4.78458 0.513013 0
M  V30 7540 C 709.819 5.20953 0.160578 0
M  V30 7541 C 707.147 5.8587 -0.311894 0
M  V30 7542 C 709.499 6.29235 -0.651596 0
M  V30 7543 C 708.163 6.615 -0.893005 0
M  V30 7544 H 707.433 0.67905 0.296602 0
M  V30 7545 H 710.08 1.91363 0.0723968 0
M  V30 7546 H 708.385 3.10283 2.39232 0
M  V30 7547 H 710.082 3.39576 2.13282 0
M  V30 7548 H 706.672 4.18287 0.934555 0
M  V30 7549 H 710.856 4.95226 0.3264 0
M  V30 7550 H 706.112 6.09286 -0.508012 0
M  V30 7551 H 710.286 6.87484 -1.11077 0
M  V30 7552 H 707.913 7.44562 -1.53401 0
M  V30 7553 N 709.488 -0.375779 1.53054 0
M  V30 7554 C 710.736 -1.11727 1.68409 0
M  V30 7555 C 711.057 -1.90127 0.43323 0
M  V30 7556 O 710.327 -1.87945 -0.552595 0
M  V30 7557 H 708.907 -0.415451 0.620813 0
M  V30 7558 H 711.569 -0.424869 1.90213 0
M  V30 7559 H 710.665 -1.8128 2.54055 0
M  V30 7560 N 710.966 -1.44241 -0.634997 0
M  V30 7561 C 712.215 -1.46102 -1.39058 0
M  V30 7562 C 712.528 -0.0959909 -1.95364 0
M  V30 7563 O 713.734 0.00788751 -2.71499 0
M  V30 7564 C 712.19 -2.57195 -2.51751 0
M  V30 7565 C 711.798 -3.99888 -2.01974 0
M  V30 7566 C 713.542 -2.68272 -3.28984 0
M  V30 7567 C 711.449 -5.02412 -3.11987 0
M  V30 7568 H 710.379 -0.543556 -0.522554 0
M  V30 7569 H 713.03 -1.70294 -0.683538 0
M  V30 7570 H 711.412 -2.26237 -3.25012 0
M  V30 7571 H 712.586 -4.40396 -1.35604 0
M  V30 7572 H 710.901 -3.93019 -1.37568 0
M  V30 7573 H 713.498 -3.42042 -4.10988 0
M  V30 7574 H 713.841 -1.73957 -3.78212 0
M  V30 7575 H 714.374 -2.98622 -2.62812 0
M  V30 7576 H 711.113 -5.98342 -2.67707 0
M  V30 7577 H 710.633 -4.66501 -3.77011 0
M  V30 7578 H 712.312 -5.25939 -3.76825 0
M  V30 7579 N 712.444 0.87505 -1.31075 0
M  V30 7580 C 713.674 1.65818 -1.2324 0
M  V30 7581 C 714.082 1.8808 0.205536 0
M  V30 7582 O 713.425 1.43548 1.14628 0
M  V30 7583 C 713.487 3.05131 -1.90093 0
M  V30 7584 C 713.151 3.05999 -3.39432 0
M  V30 7585 C 714.148 2.84328 -4.35263 0
M  V30 7586 C 711.833 3.27281 -3.81041 0
M  V30 7587 C 713.827 2.83912 -5.70678 0
M  V30 7588 C 711.514 3.26493 -5.16571 0
M  V30 7589 C 712.512 3.04834 -6.112 0
M  V30 7590 O 712.2 3.03882 -7.44252 0
M  V30 7591 H 711.932 0.52387 -0.427242 0
M  V30 7592 H 714.486 1.10086 -1.73408 0
M  V30 7593 H 712.716 3.62568 -1.34468 0
M  V30 7594 H 714.405 3.65641 -1.76242 0
M  V30 7595 H 715.171 2.67673 -4.04445 0
M  V30 7596 H 711.05 3.43171 -3.07822 0
M  V30 7597 H 714.594 2.66925 -6.44513 0
M  V30 7598 H 710.491 3.42687 -5.47025 0
M  V30 7599 H 711.259 3.19979 -7.53363 0
M  V30 7600 N 713.922 1.13953 1.08869 0
M  V30 7601 C 714.869 0.82213 2.15661 0
M  V30 7602 C 715.839 -0.218274 1.6466 0
M  V30 7603 O 717.024 -0.0892475 1.90591 0
M  V30 7604 C 714.164 0.300572 3.43789 0
M  V30 7605 C 713.277 1.40071 4.08661 0
M  V30 7606 C 712.412 0.836897 5.24566 0
M  V30 7607 C 711.451 1.91504 5.81371 0
M  V30 7608 N 710.588 1.36875 6.88629 0
M  V30 7609 H 715.428 1.73683 2.42153 0
M  V30 7610 H 712.965 0.866879 1.18843 0
M  V30 7611 H 714.923 -0.0199943 4.17195 0
M  V30 7612 H 713.553 -0.577248 3.17597 0
M  V30 7613 H 712.605 1.83776 3.33062 0
M  V30 7614 H 713.917 2.21534 4.46905 0
M  V30 7615 H 713.071 0.467953 6.04893 0
M  V30 7616 H 711.81 -0.00874207 4.87699 0
M  V30 7617 H 710.815 2.29299 4.99702 0
M  V30 7618 H 712.04 2.76419 6.20298 0
M  V30 7619 H 709.986 0.545211 6.5373 0
M  V30 7620 H 709.903 2.1198 7.25672 0
M  V30 7621 H 711.171 1.02756 7.72698 0
M  V30 7622 N 715.4 -1.26948 0.933913 0
M  V30 7623 C 716.648 -1.93704 0.576484 0
M  V30 7624 C 716.969 -1.73702 -0.886145 0
M  V30 7625 O 716.239 -1.08838 -1.62884 0
M  V30 7626 H 714.819 -0.716812 0.210214 0
M  V30 7627 H 717.481 -1.54534 1.18766 0
M  V30 7628 H 716.577 -3.01987 0.788055 0
M  V30 7629 N 716.879 -0.700114 -1.41195 0
M  V30 7630 C 717.842 -0.0465706 -2.29153 0
M  V30 7631 C 718.842 0.703302 -1.44604 0
M  V30 7632 O 720.032 0.537513 -1.657 0
M  V30 7633 C 717.164 0.944324 -3.2756 0
M  V30 7634 H 718.357 -0.821064 -2.88442 0
M  V30 7635 H 715.91 -0.463869 -1.49258 0
M  V30 7636 H 716.645 1.74642 -2.73259 0
M  V30 7637 H 716.43 0.409701 -3.89954 0
M  V30 7638 H 717.92 1.39925 -3.9346 0
M  V30 7639 N 718.357 1.51182 -0.445186 0
M  V30 7640 C 719.304 2.27939 0.362291 0
M  V30 7641 C 720.274 1.31864 1.01 0
M  V30 7642 O 721.459 1.60776 1.02741 0
M  V30 7643 C 718.599 3.13016 1.45311 0
M  V30 7644 C 717.712 4.24093 0.822757 0
M  V30 7645 C 716.847 4.96467 1.88928 0
M  V30 7646 C 715.886 5.99454 1.23778 0
M  V30 7647 N 715.023 6.65206 2.24602 0
M  V30 7648 H 719.863 2.965 -0.29862 0
M  V30 7649 H 717.4 1.46237 -0.15911 0
M  V30 7650 H 719.358 3.60673 2.09692 0
M  V30 7651 H 717.988 2.46553 2.08354 0
M  V30 7652 H 717.04 3.80341 0.0670364 0
M  V30 7653 H 718.352 4.97853 0.307184 0
M  V30 7654 H 717.506 5.47712 2.60953 0
M  V30 7655 H 716.245 4.22355 2.4386 0
M  V30 7656 H 715.25 5.47494 0.503042 0
M  V30 7657 H 716.475 6.75527 0.695694 0
M  V30 7658 H 714.421 5.93901 2.78599 0
M  V30 7659 H 714.338 7.34756 1.77958 0
M  V30 7660 H 715.606 7.21078 2.96085 0
M  V30 7661 N 719.835 0.176821 1.56605 0
M  V30 7662 C 720.798 -0.737429 2.17013 0
M  V30 7663 C 721.798 -1.15414 1.11965 0
M  V30 7664 O 722.988 -1.0702 1.37449 0
M  V30 7665 C 720.12 -2.00445 2.75744 0
M  V30 7666 H 721.313 -0.211455 2.99154 0
M  V30 7667 H 718.866 -0.0727582 1.56131 0
M  V30 7668 H 719.601 -2.57338 1.97352 0
M  V30 7669 H 719.386 -1.71456 3.52626 0
M  V30 7670 H 720.876 -2.65679 3.22187 0
M  V30 7671 N 721.313 -1.57302 -0.09688 0
M  V30 7672 C 722.553 -1.87823 -0.806334 0
M  V30 7673 C 722.917 -0.767593 -1.75989 0
M  V30 7674 O 724.118 -0.955173 -2.51257 0
M  V30 7675 C 722.389 -3.23585 -1.51749 0
M  V30 7676 S 723.948 -3.75795 -2.26547 0
M  V30 7677 H 720.766 -0.658281 -0.268676 0
M  V30 7678 H 723.368 -1.95397 -0.0635476 0
M  V30 7679 H 722.072 -4.0234 -0.809348 0
M  V30 7680 H 721.603 -3.19145 -2.30021 0
M  V30 7681 H 723.618 -3.49068 -3.52656 0
M  V30 7682 N 722.791 0.367657 -1.53252 0
M  V30 7683 C 724.038 1.11052 -1.69333 0
M  V30 7684 C 724.366 1.89363 -0.444064 0
M  V30 7685 O 723.621 1.87094 0.573953 0
M  V30 7686 C 723.92 2.09825 -2.89324 0
M  V30 7687 C 723.586 1.4801 -4.25915 0
M  V30 7688 C 722.248 1.30879 -4.6306 0
M  V30 7689 C 724.6 1.03268 -5.10867 0
M  V30 7690 C 721.928 0.675868 -5.82794 0
M  V30 7691 C 724.28 0.41377 -6.31245 0
M  V30 7692 C 722.944 0.229939 -6.67104 0
M  V30 7693 H 722.214 0.406367 -0.619634 0
M  V30 7694 H 724.861 0.392558 -1.87433 0
M  V30 7695 H 723.166 2.87917 -2.65728 0
M  V30 7696 H 724.863 2.67252 -2.98961 0
M  V30 7697 H 721.453 1.62336 -3.96667 0
M  V30 7698 H 725.637 1.15297 -4.82722 0
M  V30 7699 H 720.893 0.521833 -6.09169 0
M  V30 7700 H 725.067 0.0588768 -6.96375 0
M  V30 7701 H 722.694 -0.262562 -7.59746 0
M  V30 7702 N 724.269 1.44576 0.627338 0
M  V30 7703 C 725.199 1.54562 1.75022 0
M  V30 7704 C 726.18 0.398378 1.65369 0
M  V30 7705 O 727.365 0.61899 1.84071 0
M  V30 7706 C 724.495 1.49309 3.13567 0
M  V30 7707 C 723.449 2.62549 3.38012 0
M  V30 7708 C 722.775 2.42348 4.76625 0
M  V30 7709 C 724.075 4.04678 3.30202 0
M  V30 7710 H 725.769 2.4855 1.66922 0
M  V30 7711 H 723.315 1.19624 0.801636 0
M  V30 7712 H 725.268 1.54895 3.919 0
M  V30 7713 H 723.992 0.518392 3.2246 0
M  V30 7714 H 722.651 2.56358 2.62061 0
M  V30 7715 H 722.299 1.43062 4.82226 0
M  V30 7716 H 721.999 3.18273 4.93939 0
M  V30 7717 H 723.523 2.49758 5.57183 0
M  V30 7718 H 724.937 4.12217 3.98435 0
M  V30 7719 H 723.334 4.80836 3.5905 0
M  V30 7720 H 724.404 4.2798 2.27949 0
M  V30 7721 N 725.747 -0.868086 1.31537 0
M  V30 7722 C 727.163 -1.15414 1.10235 0
M  V30 7723 C 727.363 -2.01106 -0.125947 0
M  V30 7724 O 726.419 -2.38994 -0.814734 0
M  V30 7725 C 727.732 -1.84445 2.37488 0
M  V30 7726 C 729.28 -1.97139 2.43116 0
M  V30 7727 C 729.755 -2.69585 3.70254 0
M  V30 7728 N 731.246 -2.77119 3.71159 0
M  V30 7729 C 731.981 -3.33791 4.6623 0
M  V30 7730 N 731.477 -3.9138 5.71659 0
M  V30 7731 N 733.27 -3.31767 4.53747 0
M  V30 7732 H 725.421 -0.297109 2.10312 0
M  V30 7733 H 727.684 -0.194227 0.92789 0
M  V30 7734 H 727.39 -1.2893 3.27215 0
M  V30 7735 H 727.264 -2.84709 2.47428 0
M  V30 7736 H 729.651 -2.51818 1.53856 0
M  V30 7737 H 729.732 -0.95912 2.37138 0
M  V30 7738 H 729.376 -2.15572 4.59881 0
M  V30 7739 H 729.306 -3.71223 3.73499 0
M  V30 7740 H 731.797 -2.3625 2.94948 0
M  V30 7741 H 732.11 -4.3274 6.40278 0
M  V30 7742 H 730.455 -3.8975 5.7543 0
M  V30 7743 H 733.646 -2.86016 3.70557 0
M  V30 7744 H 733.819 -3.75636 5.28017 0
M  V30 7745 N 727.225 -1.14528 -1.08264 0
M  V30 7746 C 728.502 -0.825185 -1.77342 0
M  V30 7747 C 728.882 0.681037 -1.99813 0
M  V30 7748 O 728.23 1.62234 -1.60912 0
M  V30 7749 C 728.44 -1.62556 -3.08831 0
M  V30 7750 C 729.788 -1.82585 -3.83338 0
M  V30 7751 O 730.812 -1.59254 -3.18617 0
M  V30 7752 O 729.671 -2.21598 -4.99556 0
M  V30 7753 H 726.765 -0.302531 -0.769678 0
M  V30 7754 H 729.311 -1.25056 -1.14713 0
M  V30 7755 H 728.083 -2.64862 -2.88035 0
M  V30 7756 H 727.706 -1.1959 -3.79189 0
M  V30 7757 N 728.703 1.26451 -0.940633 0
M  V30 7758 C 729.952 1.93071 -0.583656 0
M  V30 7759 C 730.265 1.74618 0.881366 0
M  V30 7760 O 731.471 2.35689 1.34769 0
M  V30 7761 C 729.927 3.45927 -0.993106 0
M  V30 7762 C 729.535 3.73115 -2.4797 0
M  V30 7763 C 731.279 4.18554 -0.707998 0
M  V30 7764 C 729.186 5.19408 -2.82788 0
M  V30 7765 H 728.116 0.722824 -0.214572 0
M  V30 7766 H 730.767 1.43538 -1.1432 0
M  V30 7767 H 729.149 3.94341 -0.362099 0
M  V30 7768 H 730.323 3.35408 -3.15971 0
M  V30 7769 H 728.638 3.13719 -2.73805 0
M  V30 7770 H 731.235 5.26293 -0.94447 0
M  V30 7771 H 731.578 4.14782 0.355225 0
M  V30 7772 H 732.111 3.76003 -1.2987 0
M  V30 7773 H 728.85 5.28281 -3.88071 0
M  V30 7774 H 728.37 5.58214 -2.19449 0
M  V30 7775 H 730.049 5.87407 -2.71224 0
M  V30 7776 N 730.181 0.707592 1.40822 0
M  V30 7777 C 731.592 0.317011 1.83989 0
M  V30 7778 C 731.943 -1.14697 1.59182 0
M  V30 7779 O 731.068 -1.8818 1.06852 0
M  V30 7780 C 731.663 0.568593 3.33995 0
M  V30 7781 C 730.222 0.231804 3.75686 0
M  V30 7782 C 729.369 0.844933 2.64114 0
M  V30 7783 H 732.32 0.907349 1.30203 0
M  V30 7784 H 732.341 -0.168798 3.80125 0
M  V30 7785 H 731.853 1.63417 3.52018 0
M  V30 7786 H 729.954 -0.82903 3.6326 0
M  V30 7787 H 730.067 0.695219 4.74029 0
M  V30 7788 H 728.431 0.273588 2.53226 0
M  V30 7789 H 729.214 1.91462 2.84951 0
M  V30 7790 N 731.66 -1.50943 0.453197 0
M  V30 7791 C 732.907 -2.02212 -0.107922 0
M  V30 7792 C 733.235 -1.33639 -1.41318 0
M  V30 7793 O 732.49 -0.445154 -1.9057 0
M  V30 7794 C 732.789 -3.55603 -0.357944 0
M  V30 7795 C 732.455 -4.42556 0.863427 0
M  V30 7796 C 731.117 -4.6604 1.19834 0
M  V30 7797 C 733.469 -4.93468 1.67747 0
M  V30 7798 C 730.797 -5.37681 2.34768 0
M  V30 7799 C 733.149 -5.6637 2.81793 0
M  V30 7800 C 731.813 -5.88113 3.1572 0
M  V30 7801 H 731.083 -0.739947 -0.0394916 0
M  V30 7802 H 733.73 -1.81738 0.60363 0
M  V30 7803 H 732.035 -3.74495 -1.15156 0
M  V30 7804 H 733.732 -3.92821 -0.805781 0
M  V30 7805 H 730.322 -4.24485 0.592478 0
M  V30 7806 H 734.506 -4.75194 1.43192 0
M  V30 7807 H 729.762 -5.52727 2.61348 0
M  V30 7808 H 733.936 -6.04806 3.45229 0
M  V30 7809 H 731.563 -6.43404 4.04889 0
M  V30 7810 N 733.138 -0.185124 -1.56509 0
M  V30 7811 C 734.363 0.465278 -2.02114 0
M  V30 7812 C 734.788 1.55083 -1.06447 0
M  V30 7813 O 734.146 1.81241 -0.0462852 0
M  V30 7814 C 734.194 1.00784 -3.46229 0
M  V30 7815 O 733.298 2.12123 -3.53663 0
M  V30 7816 H 732.639 0.109891 -0.654843 0
M  V30 7817 H 735.169 -0.293072 -2.0249 0
M  V30 7818 H 735.179 1.32697 -3.85818 0
M  V30 7819 H 733.854 0.213113 -4.15354 0
M  V30 7820 H 732.431 1.8115 -3.25943 0
M  V30 7821 N 734.616 1.57351 0.0885366 0
M  V30 7822 C 735.579 2.01557 1.09121 0
M  V30 7823 C 736.579 0.910052 1.3257 0
M  V30 7824 O 737.769 1.17537 1.28572 0
M  V30 7825 C 734.901 2.38189 2.43883 0
M  V30 7826 H 736.094 2.91361 0.710562 0
M  V30 7827 H 733.647 1.52694 0.333779 0
M  V30 7828 H 734.382 1.5136 2.86811 0
M  V30 7829 H 734.167 3.18846 2.28209 0
M  V30 7830 H 735.657 2.73025 3.15986 0
M  V30 7831 N 736.094 -0.359525 1.53444 0
M  V30 7832 C 737.343 -1.09886 1.69139 0
M  V30 7833 C 737.656 -1.90285 0.452863 0
M  V30 7834 O 738.862 -2.67033 0.490459 0
M  V30 7835 C 737.318 -2.0028 2.99025 0
M  V30 7836 C 736.926 -1.25164 4.30161 0
M  V30 7837 C 738.67 -2.74168 3.24086 0
M  V30 7838 C 736.577 -2.14494 5.51132 0
M  V30 7839 H 735.507 -0.413936 0.630217 0
M  V30 7840 H 738.158 -0.359434 1.79945 0
M  V30 7841 H 736.54 -2.77978 2.82036 0
M  V30 7842 H 737.714 -0.524867 4.57801 0
M  V30 7843 H 736.029 -0.631116 4.11589 0
M  V30 7844 H 738.626 -3.41243 4.11652 0
M  V30 7845 H 738.969 -3.39868 2.40407 0
M  V30 7846 H 739.502 -2.0355 3.41778 0
M  V30 7847 H 736.241 -1.53362 6.37307 0
M  V30 7848 H 735.761 -2.85004 5.27762 0
M  V30 7849 H 737.44 -2.73914 5.86157 0
M  V30 7850 N 737.572 -1.44907 -0.619662 0
M  V30 7851 C 738.802 -1.51575 -1.40387 0
M  V30 7852 C 739.21 -0.14309 -1.88658 0
M  V30 7853 O 738.553 0.863403 -1.62145 0
M  V30 7854 C 738.615 -2.42858 -2.65067 0
M  V30 7855 C 738.279 -3.8982 -2.38515 0
M  V30 7856 C 739.276 -4.80047 -1.99627 0
M  V30 7857 C 736.961 -4.34628 -2.51801 0
M  V30 7858 C 738.955 -6.13086 -1.74369 0
M  V30 7859 C 736.642 -5.67712 -2.26156 0
M  V30 7860 C 737.64 -6.56759 -1.875 0
M  V30 7861 O 737.328 -7.87377 -1.62148 0
M  V30 7862 H 737.06 -0.51612 -0.436573 0
M  V30 7863 H 739.614 -1.90664 -0.763959 0
M  V30 7864 H 737.844 -1.98717 -3.31735 0
M  V30 7865 H 739.533 -2.40346 -3.27091 0
M  V30 7866 H 740.299 -4.46697 -1.8891 0
M  V30 7867 H 736.178 -3.65568 -2.80857 0
M  V30 7868 H 739.722 -6.8255 -1.44122 0
M  V30 7869 H 735.619 -6.0062 -2.36486 0
M  V30 7870 H 736.387 -7.99288 -1.763 0
M  V30 7871 N 739.05 0.861098 -1.31996 0
M  V30 7872 C 740.297 1.61481 -1.22188 0
M  V30 7873 C 740.625 1.93276 0.217853 0
M  V30 7874 O 739.88 1.56942 1.16909 0
M  V30 7875 C 740.179 2.94822 -2.02027 0
M  V30 7876 C 739.845 2.82483 -3.51446 0
M  V30 7877 C 738.507 2.78825 -3.92186 0
M  V30 7878 C 740.859 2.68878 -4.46491 0
M  V30 7879 C 738.187 2.59433 -5.26224 0
M  V30 7880 C 740.539 2.51022 -5.80664 0
M  V30 7881 C 739.203 2.45753 -6.20614 0
M  V30 7882 H 738.473 0.590902 -0.447119 0
M  V30 7883 H 741.12 0.999376 -1.63355 0
M  V30 7884 H 739.425 3.6045 -1.53569 0
M  V30 7885 H 741.122 3.52149 -1.91812 0
M  V30 7886 H 737.712 2.86152 -3.19085 0
M  V30 7887 H 741.896 2.70754 -4.1594 0
M  V30 7888 H 737.152 2.53784 -5.5624 0
M  V30 7889 H 741.326 2.39473 -6.53931 0
M  V30 7890 H 738.953 2.30485 -7.24417 0
M  V30 7891 N 740.528 1.15101 1.07655 0
M  V30 7892 C 741.939 0.933848 1.61667 0
M  V30 7893 C 742.29 -0.525569 1.8903 0
M  V30 7894 O 741.415 -1.39605 1.65346 0
M  V30 7895 C 742.01 1.68876 2.93711 0
M  V30 7896 C 740.569 1.51697 3.44478 0
M  V30 7897 C 739.716 1.70633 2.18586 0
M  V30 7898 H 742.667 1.30171 0.907816 0
M  V30 7899 H 742.688 1.15645 3.625 0
M  V30 7900 H 742.2 2.7509 2.73764 0
M  V30 7901 H 740.301 0.478635 3.69513 0
M  V30 7902 H 740.414 2.29194 4.20722 0
M  V30 7903 H 738.778 1.13259 2.28132 0
M  V30 7904 H 739.561 2.78206 2.01137 0
M  V30 7905 N 742.006 -1.2595 0.947325 0
M  V30 7906 C 743.246 -1.95218 0.605743 0
M  V30 7907 C 743.61 -1.72624 -0.84054 0
M  V30 7908 O 744.811 -2.35748 -1.29136 0
M  V30 7909 C 743.082 -3.44654 0.94596 0
M  V30 7910 S 744.641 -4.32922 0.715849 0
M  V30 7911 H 741.459 -0.675159 0.222894 0
M  V30 7912 H 744.061 -1.52766 1.21995 0
M  V30 7913 H 742.765 -3.586 1.99585 0
M  V30 7914 H 742.296 -3.92082 0.321718 0
M  V30 7915 H 744.311 -4.94445 -0.416959 0
M  V30 7916 N 743.484 -0.715051 -1.40445 0
M  V30 7917 C 744.714 -0.263576 -2.04912 0
M  V30 7918 C 745.122 1.09943 -1.53978 0
M  V30 7919 O 744.465 1.70203 -0.691133 0
M  V30 7920 C 744.527 -0.165048 -3.59121 0
M  V30 7921 C 744.191 -1.46325 -4.32941 0
M  V30 7922 C 745.188 -2.40506 -4.60926 0
M  V30 7923 C 742.873 -1.72203 -4.7186 0
M  V30 7924 C 744.867 -3.58812 -5.26814 0
M  V30 7925 C 742.554 -2.9079 -5.3748 0
M  V30 7926 C 743.552 -3.83917 -5.64887 0
M  V30 7927 O 743.24 -5.00424 -6.29151 0
M  V30 7928 H 742.972 -0.116317 -0.665918 0
M  V30 7929 H 745.526 -0.973774 -1.8085 0
M  V30 7930 H 743.756 0.601088 -3.82 0
M  V30 7931 H 745.445 0.251794 -4.05118 0
M  V30 7932 H 746.211 -2.21778 -4.31323 0
M  V30 7933 H 742.09 -1.00571 -4.49896 0
M  V30 7934 H 745.634 -4.31517 -5.48123 0
M  V30 7935 H 741.531 -3.09428 -5.66502 0
M  V30 7936 H 742.299 -5.00494 -6.47648 0
M  V30 7937 N 744.962 1.50701 -0.461195 0
M  V30 7938 C 745.925 2.2686 0.326679 0
M  V30 7939 C 746.925 1.31243 0.929085 0
M  V30 7940 O 748.115 1.54754 0.799807 0
M  V30 7941 C 745.247 3.07844 1.46441 0
M  V30 7942 H 746.44 2.97954 -0.341095 0
M  V30 7943 H 743.993 1.54814 -0.214984 0
M  V30 7944 H 744.728 2.41223 2.16753 0
M  V30 7945 H 744.513 3.78101 1.03836 0
M  V30 7946 H 746.003 3.65469 2.02044 0
M  V30 7947 N 746.441 0.193421 1.56409 0
M  V30 7948 C 747.391 -0.74089 2.15627 0
M  V30 7949 C 748.375 -1.17747 1.09656 0
M  V30 7950 O 749.567 -1.13615 1.35723 0
M  V30 7951 C 746.696 -1.96091 2.81786 0
M  V30 7952 C 745.782 -1.54531 3.94944 0
M  V30 7953 N 746.173 -0.840569 4.98767 0
M  V30 7954 C 744.471 -1.83473 4.06514 0
M  V30 7955 C 745.172 -0.632571 5.7825 0
M  V30 7956 N 744.148 -1.18078 5.30621 0
M  V30 7957 H 747.95 -0.193718 2.93261 0
M  V30 7958 H 745.464 -0.00643211 1.62399 0
M  V30 7959 H 747.461 -2.64071 3.22602 0
M  V30 7960 H 746.121 -2.51282 2.05639 0
M  V30 7961 H 747.132 -0.496218 5.15517 0
M  V30 7962 H 743.809 -2.40184 3.41493 0
M  V30 7963 H 745.199 -0.0736433 6.7186 0
M  V30 7964 N 747.919 -1.57396 -0.0801906 0
M  V30 7965 C 749.165 -1.87113 -0.782083 0
M  V30 7966 C 749.498 -0.78458 -1.77646 0
M  V30 7967 O 748.773 0.205993 -1.93406 0
M  V30 7968 C 749.056 -3.27483 -1.49756 0
M  V30 7969 C 748.909 -4.46782 -0.520171 0
M  V30 7970 C 750.228 -3.65965 -2.44454 0
M  V30 7971 H 747.347 -0.680559 -0.282858 0
M  V30 7972 H 749.989 -1.89946 -0.0454139 0
M  V30 7973 H 748.139 -3.25199 -2.12551 0
M  V30 7974 H 749.811 -4.61187 0.101919 0
M  V30 7975 H 748.054 -4.33485 0.165219 0
M  V30 7976 H 748.725 -5.41761 -1.05824 0
M  V30 7977 H 751.201 -3.69289 -1.91742 0
M  V30 7978 H 750.077 -4.65086 -2.91524 0
M  V30 7979 H 750.338 -2.95446 -3.28883 0
M  V30 7980 N 749.397 0.351382 -1.53633 0
M  V30 7981 C 750.344 1.43115 -1.81071 0
M  V30 7982 C 751.314 1.52601 -0.655913 0
M  V30 7983 O 752.499 1.68264 -0.89955 0
M  V30 7984 C 749.639 2.79874 -2.01903 0
M  V30 7985 C 748.752 2.79242 -3.29618 0
M  V30 7986 C 747.887 4.07667 -3.40559 0
M  V30 7987 C 746.926 4.01233 -4.62254 0
M  V30 7988 N 746.063 5.21334 -4.70271 0
M  V30 7989 H 750.903 1.19017 -2.73201 0
M  V30 7990 H 748.44 0.576691 -1.35324 0
M  V30 7991 H 750.398 3.5934 -2.11969 0
M  V30 7992 H 749.028 3.0234 -1.13094 0
M  V30 7993 H 748.08 1.91927 -3.28433 0
M  V30 7994 H 749.392 2.70363 -4.19172 0
M  V30 7995 H 748.546 4.95555 -3.50015 0
M  V30 7996 H 747.285 4.19317 -2.49047 0
M  V30 7997 H 746.29 3.11732 -4.52884 0
M  V30 7998 H 747.515 3.91173 -5.55122 0
M  V30 7999 H 745.461 5.33543 -3.81665 0
M  V30 8000 H 745.378 5.14681 -5.5375 0
M  V30 8001 H 746.646 6.11014 -4.84027 0
M  V30 8002 N 750.875 1.45233 0.611969 0
M  V30 8003 C 751.838 1.53189 1.70487 0
M  V30 8004 C 752.838 0.411839 1.55437 0
M  V30 8005 O 754.028 0.675164 1.60584 0
M  V30 8006 C 751.16 1.42422 3.09723 0
M  V30 8007 H 752.353 2.5056 1.64802 0
M  V30 8008 H 749.906 1.32609 0.827318 0
M  V30 8009 H 750.641 0.462185 3.2099 0
M  V30 8010 H 750.426 2.23658 3.22055 0
M  V30 8011 H 751.916 1.51012 3.89339 0
M  V30 8012 N 752.353 -0.854086 1.3245 0
M  V30 8013 C 753.578 -1.64597 1.26185 0
M  V30 8014 C 754.003 -1.87357 -0.167074 0
M  V30 8015 O 753.361 -1.42675 -1.11864 0
M  V30 8016 C 753.409 -2.98213 2.02734 0
M  V30 8017 O 752.513 -3.88784 1.37554 0
M  V30 8018 H 751.854 -0.50179 0.434859 0
M  V30 8019 H 754.384 -1.06372 1.74775 0
M  V30 8020 H 754.394 -3.4803 2.1293 0
M  V30 8021 H 753.069 -2.80969 3.06642 0
M  V30 8022 H 751.646 -3.4725 1.3591 0
M  V30 8023 N 753.831 -1.1567 -1.07043 0
M  V30 8024 C 755.078 -0.933517 -1.79699 0
M  V30 8025 C 755.406 0.539162 -1.86878 0
M  V30 8026 O 754.661 1.41592 -1.35093 0
M  V30 8027 C 754.96 -1.49677 -3.24548 0
M  V30 8028 C 754.626 -2.99047 -3.37463 0
M  V30 8029 C 753.288 -3.39824 -3.40695 0
M  V30 8030 C 755.64 -3.95027 -3.40004 0
M  V30 8031 C 752.968 -4.75215 -3.44075 0
M  V30 8032 C 755.32 -5.30295 -3.44921 0
M  V30 8033 C 753.984 -5.70562 -3.46432 0
M  V30 8034 H 753.254 -0.341598 -0.657565 0
M  V30 8035 H 755.901 -1.44263 -1.25938 0
M  V30 8036 H 754.206 -0.908915 -3.81111 0
M  V30 8037 H 755.903 -1.29986 -3.79348 0
M  V30 8038 H 752.493 -2.6653 -3.35648 0
M  V30 8039 H 756.677 -3.64596 -3.36725 0
M  V30 8040 H 751.933 -5.05754 -3.43545 0
M  V30 8041 H 756.107 -6.0446 -3.45833 0
M  V30 8042 H 753.734 -6.75456 -3.48803 0
M  V30 8043 N 755.309 1.25446 -0.953992 0
M  V30 8044 C 756.272 2.24156 -0.478179 0
M  V30 8045 C 757.272 1.55278 0.417776 0
M  V30 8046 O 758.462 1.72866 0.215155 0
M  V30 8047 C 755.594 3.39495 0.309202 0
M  V30 8048 H 756.787 2.67764 -1.35064 0
M  V30 8049 H 754.34 1.37822 -0.737206 0
M  V30 8050 H 755.075 3.01307 1.19936 0
M  V30 8051 H 754.86 3.90679 -0.333562 0
M  V30 8052 H 756.35 4.12796 0.631594 0
M  V30 8053 N 756.787 0.722489 1.40064 0
M  V30 8054 C 757.735 0.063329 2.32514 0
M  V30 8055 C 758.729 -0.73953 1.52405 0
M  V30 8056 O 759.935 -0.642122 1.68157 0
M  V30 8057 H 756.31 0.00167692 0.751998 0
M  V30 8058 H 758.281 0.859656 2.85749 0
M  V30 8059 C 757.03 -0.839219 3.3742 0
M  V30 8060 H 756.353 -0.230836 3.99133 0
M  V30 8061 H 757.793 -1.26827 4.04587 0
M  V30 8062 C 756.252 -1.96783 2.73456 0
M  V30 8063 O 756.782 -3.05933 2.60323 0
M  V30 8064 N 754.988 -1.75351 2.31734 0
M  V30 8065 H 754.535 -0.865787 2.42615 0
M  V30 8066 H 754.493 -2.51043 1.89275 0
M  V30 8067 N 758.265 -1.50454 0.469181 0
M  V30 8068 C 759.175 -2.32248 -0.331349 0
M  V30 8069 C 760.191 -1.42548 -0.997807 0
M  V30 8070 O 761.367 -1.75602 -0.9862 0
M  V30 8071 C 758.432 -3.17171 -1.40012 0
M  V30 8072 C 757.493 -4.2269 -0.750463 0
M  V30 8073 C 756.726 -5.03554 -1.76831 0
M  V30 8074 O 756.949 -4.85469 -2.99459 0
M  V30 8075 O 755.883 -5.86767 -1.3412 0
M  V30 8076 H 759.709 -3.01821 0.337279 0
M  V30 8077 H 757.294 -1.47602 0.231066 0
M  V30 8078 H 759.176 -3.69871 -2.01924 0
M  V30 8079 H 757.851 -2.50328 -2.05226 0
M  V30 8080 H 756.758 -3.73986 -0.0924446 0
M  V30 8081 H 758.091 -4.91997 -0.14131 0
M  V30 8082 N 759.743 -0.201713 -1.56304 0
M  V30 8083 C 761.02 0.483273 -1.89536 0
M  V30 8084 C 761.4 1.79176 -1.11621 0
M  V30 8085 O 760.748 2.27445 -0.219339 0
M  V30 8086 C 760.958 0.695604 -3.41998 0
M  V30 8087 C 762.306 1.012 -4.12364 0
M  V30 8088 O 763.33 0.783094 -3.47485 0
M  V30 8089 O 762.189 1.44534 -5.27041 0
M  V30 8090 H 759.283 0.252801 -0.787414 0
M  V30 8091 H 761.829 -0.24242 -1.6796 0
M  V30 8092 H 760.601 -0.228165 -3.90634 0
M  V30 8093 H 760.224 1.47351 -3.69288 0
M  V30 8094 N 761.222 1.57436 0.0718424 0
M  V30 8095 C 762.47 1.86878 0.769484 0
M  V30 8096 C 762.791 0.7937 1.78116 0
M  V30 8097 O 762.061 -0.177642 1.95093 0
M  V30 8098 H 760.641 0.689593 0.287177 0
M  V30 8099 H 763.303 1.94841 0.0479427 0
M  V30 8100 H 762.399 2.84387 1.28572 0
M  V30 8101 N 762.7 -0.34323 1.53817 0
M  V30 8102 C 763.632 -1.44216 1.78141 0
M  V30 8103 C 764.645 -1.48701 0.662721 0
M  V30 8104 O 765.834 -1.51778 0.939458 0
M  V30 8105 C 762.934 -2.82872 1.86646 0
M  V30 8106 C 762.107 -3.01824 3.16577 0
M  V30 8107 C 761.166 -4.20723 3.16036 0
M  V30 8108 O 760.192 -4.14824 3.89756 0
M  V30 8109 N 761.394 -5.29276 2.38427 0
M  V30 8110 H 764.159 -1.23721 2.72971 0
M  V30 8111 H 761.72 -0.53311 1.52871 0
M  V30 8112 H 763.712 -3.60588 1.83735 0
M  V30 8113 H 762.282 -2.96509 0.990014 0
M  V30 8114 H 761.502 -2.11575 3.3261 0
M  V30 8115 H 762.79 -3.11369 4.02402 0
M  V30 8116 H 762.188 -5.36938 1.78085 0
M  V30 8117 H 760.745 -6.05484 2.41313 0
M  V30 8118 N 764.178 -1.45556 -0.604258 0
M  V30 8119 C 765.424 -1.49968 -1.36519 0
M  V30 8120 C 765.757 -0.142236 -1.93678 0
M  V30 8121 O 765.032 0.843717 -1.75247 0
M  V30 8122 C 765.315 -2.58146 -2.51063 0
M  V30 8123 C 765.168 -4.03346 -1.99078 0
M  V30 8124 C 766.487 -2.62581 -3.53184 0
M  V30 8125 H 763.606 -0.545993 -0.495036 0
M  V30 8126 H 766.248 -1.77382 -0.680845 0
M  V30 8127 H 764.398 -2.34901 -3.09441 0
M  V30 8128 H 766.07 -4.37811 -1.45323 0
M  V30 8129 H 764.313 -4.13845 -1.30055 0
M  V30 8130 H 764.984 -4.74731 -2.81664 0
M  V30 8131 H 767.46 -2.83419 -3.04652 0
M  V30 8132 H 766.336 -3.40131 -4.30816 0
M  V30 8133 H 766.597 -1.67798 -4.09019 0
M  V30 8134 N 765.656 0.84705 -1.32902 0
M  V30 8135 C 766.881 1.63925 -1.27056 0
M  V30 8136 C 767.306 1.87443 0.157136 0
M  V30 8137 O 766.664 1.43266 1.11106 0
M  V30 8138 C 766.712 2.97134 -2.04313 0
M  V30 8139 O 765.816 3.88049 -1.39614 0
M  V30 8140 H 765.157 0.499477 -0.437514 0
M  V30 8141 H 767.687 1.05443 -1.75336 0
M  V30 8142 H 767.697 3.46896 -2.14772 0
M  V30 8143 H 766.372 2.79339 -3.08128 0
M  V30 8144 H 764.949 3.46525 -1.3775 0
M  V30 8145 N 767.134 1.16236 1.06428 0
M  V30 8146 C 768.545 0.950942 1.60667 0
M  V30 8147 C 768.896 -0.505491 1.89576 0
M  V30 8148 O 768.021 -1.37843 1.66818 0
M  V30 8149 C 768.616 1.71982 2.91904 0
M  V30 8150 C 767.175 1.55342 3.4285 0
M  V30 8151 C 766.322 1.72942 2.16763 0
M  V30 8152 H 769.273 1.31126 0.893959 0
M  V30 8153 H 769.294 1.19483 3.61253 0
M  V30 8154 H 768.806 2.77978 2.70831 0
M  V30 8155 H 766.907 0.5178 3.68985 0
M  V30 8156 H 767.02 2.33643 4.18267 0
M  V30 8157 H 765.384 1.15673 2.26918 0
M  V30 8158 H 766.167 2.80324 1.98175 0
M  V30 8159 N 768.612 -1.24939 0.960631 0
M  V30 8160 C 769.86 -1.92437 0.617441 0
M  V30 8161 C 770.181 -1.75543 -0.849101 0
M  V30 8162 O 769.451 -1.12269 -1.60538 0
M  V30 8163 H 768.031 -0.712192 0.225371 0
M  V30 8164 H 770.693 -1.5198 1.22017 0
M  V30 8165 H 769.789 -3.00247 0.851933 0
M  V30 8166 N 770.09 -0.729906 -1.39679 0
M  V30 8167 C 771.315 -0.284345 -2.05442 0
M  V30 8168 C 771.74 1.07056 -1.54663 0
M  V30 8169 O 771.098 1.67732 -0.688157 0
M  V30 8170 C 771.146 -0.290089 -3.59431 0
M  V30 8171 O 770.25 0.723978 -4.05995 0
M  V30 8172 H 769.591 -0.130311 -0.651088 0
M  V30 8173 H 772.121 -0.994403 -1.78809 0
M  V30 8174 H 772.131 -0.132712 -4.07784 0
M  V30 8175 H 770.806 -1.27877 -3.95753 0
M  V30 8176 H 769.383 0.533154 -3.69069 0
M  V30 8177 N 771.568 1.50203 -0.477153 0
M  V30 8178 C 772.498 2.31517 0.303646 0
M  V30 8179 C 773.479 1.38696 0.984753 0
M  V30 8180 O 774.664 1.67615 0.980758 0
M  V30 8181 C 771.794 3.18598 1.38249 0
M  V30 8182 C 770.748 4.2002 0.822645 0
M  V30 8183 C 770.074 4.95878 2.00024 0
M  V30 8184 C 771.374 5.22023 -0.170185 0
M  V30 8185 H 773.068 2.97042 -0.375027 0
M  V30 8186 H 770.614 1.42848 -0.181802 0
M  V30 8187 H 772.567 3.74282 1.93625 0
M  V30 8188 H 771.291 2.5097 2.09002 0
M  V30 8189 H 769.95 3.65445 0.290813 0
M  V30 8190 H 769.598 4.24717 2.69489 0
M  V30 8191 H 769.298 5.64487 1.63183 0
M  V30 8192 H 770.822 5.54399 2.55878 0
M  V30 8193 H 772.236 5.72543 0.294606 0
M  V30 8194 H 770.633 5.98386 -0.453181 0
M  V30 8195 H 771.703 4.72396 -1.09408 0
M  V30 8196 N 773.046 0.209999 1.56195 0
M  V30 8197 C 773.976 -0.699746 2.22769 0
M  V30 8198 C 774.957 -1.20993 1.1956 0
M  V30 8199 O 776.142 -1.25605 1.48112 0
M  V30 8200 C 773.272 -1.91302 2.89863 0
M  V30 8201 C 772.226 -1.53715 3.99444 0
M  V30 8202 C 771.552 -2.82826 4.53777 0
M  V30 8203 C 772.852 -0.735836 5.17091 0
M  V30 8204 H 774.546 -0.144716 2.9905 0
M  V30 8205 H 772.092 -0.0681645 1.43839 0
M  V30 8206 H 774.045 -2.5548 3.35124 0
M  V30 8207 H 772.769 -2.49283 2.11011 0
M  V30 8208 H 771.428 -0.918892 3.54897 0
M  V30 8209 H 771.076 -3.38927 3.71669 0
M  V30 8210 H 770.776 -2.58415 5.27727 0
M  V30 8211 H 772.3 -3.47966 5.01749 0
M  V30 8212 H 773.714 -1.28105 5.58804 0
M  V30 8213 H 772.111 -0.589272 5.972 0
M  V30 8214 H 773.181 0.260004 4.84202 0
M  V30 8215 N 774.524 -1.57472 -0.0634922 0
M  V30 8216 C 775.454 -2.07297 -1.07473 0
M  V30 8217 C 776.435 -0.968162 -1.39859 0
M  V30 8218 O 777.62 -1.24139 -1.49343 0
M  V30 8219 C 774.75 -2.52381 -2.38581 0
M  V30 8220 C 773.704 -3.66813 -2.20526 0
M  V30 8221 C 773.03 -3.97982 -3.57092 0
M  V30 8222 C 774.33 -4.96553 -1.61965 0
M  V30 8223 H 776.024 -2.92033 -0.660092 0
M  V30 8224 H 773.57 -1.40488 -0.316074 0
M  V30 8225 H 775.523 -2.85852 -3.09624 0
M  V30 8226 H 774.247 -1.64684 -2.8204 0
M  V30 8227 H 772.906 -3.33639 -1.51924 0
M  V30 8228 H 772.554 -3.07403 -3.98136 0
M  V30 8229 H 772.254 -4.7504 -3.45848 0
M  V30 8230 H 773.778 -4.33956 -4.29552 0
M  V30 8231 H 775.192 -5.28201 -2.22883 0
M  V30 8232 H 773.589 -5.7799 -1.61394 0
M  V30 8233 H 774.659 -4.81396 -0.581918 0
M  V30 8234 N 776.003 0.335068 -1.53997 0
M  V30 8235 C 776.966 1.39481 -1.81872 0
M  V30 8236 C 777.966 1.4524 -0.690078 0
M  V30 8237 O 779.156 1.45467 -0.958377 0
M  V30 8238 C 776.288 2.78329 -1.9684 0
M  V30 8239 H 777.481 1.16024 -2.76547 0
M  V30 8240 H 775.034 0.569926 -1.45539 0
M  V30 8241 H 775.769 3.07058 -1.04337 0
M  V30 8242 H 775.554 2.75544 -2.78958 0
M  V30 8243 H 777.044 3.55016 -2.19894 0
M  V30 8244 N 777.481 1.45874 0.596531 0
M  V30 8245 C 778.729 1.5017 1.35253 0
M  V30 8246 C 779.05 0.149246 1.94428 0
M  V30 8247 O 778.32 -0.82268 1.77789 0
M  V30 8248 H 776.9 0.553052 0.502138 0
M  V30 8249 H 779.562 1.81908 0.699671 0
M  V30 8250 H 778.658 2.24671 2.16632 0
M  V30 8251 N 778.959 -0.83999 1.33349 0
M  V30 8252 C 779.922 -1.93128 1.23426 0
M  V30 8253 C 780.922 -1.60065 0.153599 0
M  V30 8254 O 782.112 -1.69425 0.405049 0
M  V30 8255 C 779.244 -3.28761 0.901622 0
M  V30 8256 H 780.437 -2.03352 2.20427 0
M  V30 8257 H 777.99 -1.03194 1.17391 0
M  V30 8258 H 778.725 -3.24233 -0.0659337 0
M  V30 8259 H 778.51 -3.54138 1.68311 0
M  V30 8260 H 780 -4.08714 0.856913 0
M  V30 8261 N 780.437 -1.16799 -1.0581 0
M  V30 8262 C 781.686 -0.94698 -1.78088 0
M  V30 8263 C 781.999 0.526016 -1.88394 0
M  V30 8264 O 783.205 0.865061 -2.5735 0
M  V30 8265 C 781.661 -1.64508 -3.20102 0
M  V30 8266 C 781.269 -3.15618 -3.17946 0
M  V30 8267 C 783.013 -1.50622 -3.96879 0
M  V30 8268 C 780.92 -3.78144 -4.5471 0
M  V30 8269 H 779.85 -0.35067 -0.667493 0
M  V30 8270 H 782.501 -1.39985 -1.18645 0
M  V30 8271 H 780.883 -1.11993 -3.79834 0
M  V30 8272 H 782.057 -3.75016 -2.67768 0
M  V30 8273 H 780.372 -3.29444 -2.54667 0
M  V30 8274 H 782.969 -1.94713 -4.97987 0
M  V30 8275 H 783.312 -0.455864 -4.13797 0
M  V30 8276 H 783.845 -2.00319 -3.43682 0
M  V30 8277 H 780.584 -4.83149 -4.42998 0
M  V30 8278 H 780.104 -3.23532 -5.05062 0
M  V30 8279 H 781.783 -3.79986 -5.2366 0
M  V30 8280 N 781.915 1.24427 -0.967243 0
M  V30 8281 C 782.878 2.23637 -0.501927 0
M  V30 8282 C 783.878 1.55712 0.401283 0
M  V30 8283 O 785.068 1.73085 0.196808 0
M  V30 8284 C 782.2 3.39804 0.273176 0
M  V30 8285 H 783.393 2.66317 -1.37897 0
M  V30 8286 H 780.946 1.37033 -0.751783 0
M  V30 8287 H 781.681 3.02562 1.16733 0
M  V30 8288 H 781.466 3.90303 -0.37498 0
M  V30 8289 H 782.956 4.13443 0.587776 0
M  V30 8290 N 783.393 0.737304 1.3929 0
M  V30 8291 C 784.641 0.285691 2.00071 0
M  V30 8292 C 784.962 -1.13169 1.58801 0
M  V30 8293 O 784.232 -1.77104 0.837308 0
M  V30 8294 H 782.812 0.102638 0.739915 0
M  V30 8295 H 785.474 0.947775 1.70303 0
M  V30 8296 H 784.57 0.335906 3.10287 0
M  V30 8297 N 784.871 -1.49948 0.485112 0
M  V30 8298 C 785.804 -2.25531 -0.348027 0
M  V30 8299 C 786.782 -1.29433 -0.984172 0
M  V30 8300 O 787.966 -1.58687 -1.01738 0
M  V30 8301 C 785.093 -3.04225 -1.48878 0
M  V30 8302 C 784.139 -4.15355 -0.968616 0
M  V30 8303 S 784.972 -5.35347 0.127934 0
M  V30 8304 C 786.128 -6.17593 -1.01637 0
M  V30 8305 H 786.361 -2.95847 0.293529 0
M  V30 8306 H 783.894 -1.52018 0.27018 0
M  V30 8307 H 785.852 -3.50153 -2.14251 0
M  V30 8308 H 784.513 -2.33407 -2.1019 0
M  V30 8309 H 783.706 -4.69873 -1.82305 0
M  V30 8310 H 783.308 -3.71936 -0.392377 0
M  V30 8311 H 785.6 -6.49576 -1.92503 0
M  V30 8312 H 786.543 -7.0626 -0.510149 0
M  V30 8313 H 786.951 -5.49877 -1.27653 0
M  V30 8314 N 786.349 -0.21828 -1.56081 0
M  V30 8315 C 787.76 0.290166 -1.84431 0
M  V30 8316 C 788.111 1.59712 -1.13958 0
M  V30 8317 O 787.236 2.12516 -0.40815 0
M  V30 8318 C 787.831 0.53325 -3.34577 0
M  V30 8319 C 786.39 0.986011 -3.63256 0
M  V30 8320 C 785.537 0.0472798 -2.7726 0
M  V30 8321 H 788.488 -0.441548 -1.52434 0
M  V30 8322 H 788.509 1.37967 -3.54606 0
M  V30 8323 H 788.021 -0.418137 -3.85841 0
M  V30 8324 H 786.122 1.95087 -3.17446 0
M  V30 8325 H 786.235 0.862684 -4.71269 0
M  V30 8326 H 784.599 0.553471 -2.48614 0
M  V30 8327 H 785.382 -0.898966 -3.31321 0
M  V30 8328 N 787.827 1.57504 0.0551401 0
M  V30 8329 C 788.79 2.03826 1.04821 0
M  V30 8330 C 789.79 0.937968 1.30609 0
M  V30 8331 O 790.98 1.20237 1.2605 0
M  V30 8332 C 788.112 2.43309 2.38775 0
M  V30 8333 H 789.305 2.92802 0.6486 0
M  V30 8334 H 786.858 1.53368 0.301315 0
M  V30 8335 H 787.593 1.5741 2.83536 0
M  V30 8336 H 787.378 3.23615 2.21395 0
M  V30 8337 H 788.868 2.79666 3.10124 0
M  V30 8338 N 789.305 -0.326896 1.54172 0
M  V30 8339 C 790.268 -1.38515 1.8261 0
M  V30 8340 C 791.268 -1.44872 0.697771 0
M  V30 8341 O 792.458 -1.44957 0.966078 0
M  V30 8342 C 789.59 -2.77281 1.98313 0
M  V30 8343 H 790.783 -1.14556 2.77159 0
M  V30 8344 H 788.336 -0.562199 1.45839 0
M  V30 8345 H 789.071 -3.065 1.05964 0
M  V30 8346 H 788.856 -2.74061 2.80416 0
M  V30 8347 H 790.346 -3.53845 2.21773 0
M  V30 8348 N 790.784 -1.46188 -0.588786 0
M  V30 8349 C 792.009 -1.5498 -1.37826 0
M  V30 8350 C 792.434 -0.189498 -1.87143 0
M  V30 8351 O 791.792 0.829293 -1.61222 0
M  V30 8352 C 791.84 -2.55369 -2.54596 0
M  V30 8353 O 790.944 -2.08452 -3.55839 0
M  V30 8354 H 790.285 -0.521741 -0.41071 0
M  V30 8355 H 792.815 -1.91708 -0.714779 0
M  V30 8356 H 792.825 -2.74782 -3.01594 0
M  V30 8357 H 791.5 -3.54155 -2.18052 0
M  V30 8358 H 790.077 -1.98999 -3.15363 0
M  V30 8359 N 792.262 0.832906 -1.33792 0
M  V30 8360 C 793.192 1.95828 -1.27176 0
M  V30 8361 C 794.173 1.69427 -0.15114 0
M  V30 8362 O 795.358 1.91167 -0.341886 0
M  V30 8363 C 792.488 3.32098 -1.01629 0
M  V30 8364 C 791.442 3.72912 -2.10049 0
M  V30 8365 C 790.768 5.07054 -1.69706 0
M  V30 8366 C 792.068 3.86064 -3.51783 0
M  V30 8367 H 793.762 2.01622 -2.21334 0
M  V30 8368 H 791.308 0.96866 -1.0655 0
M  V30 8369 H 793.261 4.10402 -0.956474 0
M  V30 8370 H 791.985 3.26577 -0.0390956 0
M  V30 8371 H 790.644 2.96876 -2.15082 0
M  V30 8372 H 790.292 4.9801 -0.706737 0
M  V30 8373 H 789.992 5.35333 -2.42264 0
M  V30 8374 H 791.516 5.87827 -1.65202 0
M  V30 8375 H 792.93 4.54665 -3.49218 0
M  V30 8376 H 791.327 4.25787 -4.22878 0
M  V30 8377 H 792.397 2.88344 -3.89854 0
M  V30 8378 N 793.74 1.17359 1.05189 0
M  V30 8379 C 794.986 0.963413 1.78455 0
M  V30 8380 C 795.319 -0.506703 1.87473 0
M  V30 8381 O 794.594 -1.37611 1.37453 0
M  V30 8382 C 794.877 1.60519 3.22344 0
M  V30 8383 C 794.73 3.14741 3.21338 0
M  V30 8384 C 796.049 1.3091 4.20179 0
M  V30 8385 H 793.168 0.351412 0.647826 0
M  V30 8386 H 795.81 1.44858 1.22948 0
M  V30 8387 H 793.96 1.19265 3.69741 0
M  V30 8388 H 795.632 3.65053 2.82017 0
M  V30 8389 H 793.875 3.4749 2.59679 0
M  V30 8390 H 794.546 3.54775 4.22894 0
M  V30 8391 H 797.022 1.66635 3.81277 0
M  V30 8392 H 795.898 1.784 5.191 0
M  V30 8393 H 796.159 0.229908 4.41502 0
M  V30 8394 N 795.218 -1.23913 0.973828 0
M  V30 8395 C 796.446 -1.96195 0.656891 0
M  V30 8396 C 796.861 -1.72166 -0.774876 0
M  V30 8397 O 796.218 -1.0091 -1.52064 0
M  V30 8398 C 796.269 -3.49342 0.929638 0
M  V30 8399 O 795.99 -3.72553 2.30512 0
M  V30 8400 C 797.491 -4.38833 0.627739 0
M  V30 8401 H 794.711 -0.624841 0.244572 0
M  V30 8402 H 797.255 -1.57579 1.30343 0
M  V30 8403 H 795.41 -3.85999 0.329216 0
M  V30 8404 H 795.824 -4.66893 2.3898 0
M  V30 8405 H 797.298 -5.45117 0.868991 0
M  V30 8406 H 797.775 -4.37009 -0.438104 0
M  V30 8407 H 798.381 -4.07773 1.20834 0
M  V30 8408 N 796.696 -0.74468 -1.38897 0
M  V30 8409 C 798.107 -0.36568 -1.83084 0
M  V30 8410 C 798.458 1.10436 -1.62168 0
M  V30 8411 O 797.583 1.85281 -1.11804 0
M  V30 8412 C 798.178 -0.656946 -3.3237 0
M  V30 8413 C 796.737 -0.331329 -3.74939 0
M  V30 8414 C 795.884 -0.914661 -2.61781 0
M  V30 8415 H 798.835 -0.941551 -1.27752 0
M  V30 8416 H 798.856 0.0679546 -3.80439 0
M  V30 8417 H 798.368 -1.72693 -3.47561 0
M  V30 8418 H 796.469 0.732426 -3.6533 0
M  V30 8419 H 796.582 -0.820655 -4.72019 0
M  V30 8420 H 794.946 -0.34063 -2.52412 0
M  V30 8421 H 795.729 -1.98949 -2.79775 0
M  V30 8422 N 798.174 1.49689 -0.493057 0
M  V30 8423 C 799.137 2.27502 0.278485 0
M  V30 8424 C 800.137 1.33184 0.901037 0
M  V30 8425 O 801.327 1.56415 0.766801 0
M  V30 8426 C 798.459 3.10881 1.39878 0
M  V30 8427 H 799.652 2.97163 -0.404219 0
M  V30 8428 H 797.205 1.54324 -0.247774 0
M  V30 8429 H 797.94 2.45767 2.11587 0
M  V30 8430 H 797.725 3.80219 0.957924 0
M  V30 8431 H 799.215 3.69673 1.94247 0
M  V30 8432 N 799.652 0.226554 1.55963 0
M  V30 8433 C 800.929 -0.453058 1.90281 0
M  V30 8434 C 801.309 -1.77377 1.14458 0
M  V30 8435 O 800.657 -2.27067 0.255496 0
M  V30 8436 C 800.867 -0.641108 3.43061 0
M  V30 8437 C 802.215 -0.946265 4.13921 0
M  V30 8438 O 803.239 -0.727713 3.48687 0
M  V30 8439 O 802.098 -1.36131 5.29274 0
M  V30 8440 H 799.192 -0.240242 0.791336 0
M  V30 8441 H 801.738 0.26911 1.67553 0
M  V30 8442 H 800.51 0.290283 3.90222 0
M  V30 8443 H 800.133 -1.41458 3.71585 0
M  V30 8444 N 801.13 -1.57531 -0.0467866 0
M  V30 8445 C 802.376 -1.8873 -0.742218 0
M  V30 8446 C 802.709 -0.822084 -1.75941 0
M  V30 8447 O 801.984 0.164922 -1.938 0
M  V30 8448 C 802.267 -3.30586 -1.42776 0
M  V30 8449 C 802.12 -4.47785 -0.425285 0
M  V30 8450 C 803.439 -3.71068 -2.36636 0
M  V30 8451 H 800.558 -0.686406 -0.268359 0
M  V30 8452 H 803.2 -1.89999 -0.00511341 0
M  V30 8453 H 801.35 -3.29634 -2.05605 0
M  V30 8454 H 803.022 -4.60867 0.199721 0
M  V30 8455 H 801.265 -4.33037 0.25713 0
M  V30 8456 H 801.936 -5.43884 -0.943086 0
M  V30 8457 H 804.412 -3.73273 -1.83866 0
M  V30 8458 H 803.288 -4.71165 -2.81593 0
M  V30 8459 H 803.549 -3.02355 -3.22542 0
M  V30 8460 N 802.608 0.318715 -1.54344 0
M  V30 8461 C 803.857 1.05363 -1.71993 0
M  V30 8462 C 804.17 1.89018 -0.503155 0
M  V30 8463 O 805.376 2.65639 -0.561085 0
M  V30 8464 C 803.832 1.92281 -3.0423 0
M  V30 8465 C 803.44 1.13715 -4.33328 0
M  V30 8466 C 805.184 2.65479 -3.31242 0
M  V30 8467 C 803.091 1.99806 -5.56625 0
M  V30 8468 H 802.021 0.397081 -0.64097 0
M  V30 8469 H 804.672 0.311598 -1.80835 0
M  V30 8470 H 803.054 2.70402 -2.89307 0
M  V30 8471 H 804.228 0.403305 -4.59032 0
M  V30 8472 H 802.543 0.521769 -4.13118 0
M  V30 8473 H 805.14 3.30209 -4.20555 0
M  V30 8474 H 805.483 3.33374 -2.49334 0
M  V30 8475 H 806.016 1.94417 -3.47054 0
M  V30 8476 H 802.755 1.36411 -6.41149 0
M  V30 8477 H 802.275 2.70911 -5.35133 0
M  V30 8478 H 803.954 2.58277 -5.93213 0
M  V30 8479 N 804.086 1.46499 0.581025 0
M  V30 8480 C 805.033 1.5719 1.68997 0
M  V30 8481 C 806.003 0.416114 1.60803 0
M  V30 8482 O 807.188 0.633086 1.79991 0
M  V30 8483 C 804.328 1.56973 3.07333 0
M  V30 8484 C 803.441 2.83298 3.26139 0
M  V30 8485 C 802.576 2.74574 4.54734 0
M  V30 8486 C 801.615 3.9583 4.66889 0
M  V30 8487 N 800.752 3.85482 5.86811 0
M  V30 8488 H 805.592 2.51914 1.59196 0
M  V30 8489 H 803.129 1.24975 0.775857 0
M  V30 8490 H 805.087 1.54832 3.87405 0
M  V30 8491 H 803.717 0.657803 3.16027 0
M  V30 8492 H 802.769 2.95411 2.3966 0
M  V30 8493 H 804.081 3.7316 3.30988 0
M  V30 8494 H 803.235 2.70548 5.43036 0
M  V30 8495 H 801.974 1.82354 4.52325 0
M  V30 8496 H 800.979 4.00186 3.77003 0
M  V30 8497 H 802.204 4.89148 4.71075 0
M  V30 8498 H 800.15 2.96051 5.85397 0
M  V30 8499 H 800.067 4.69002 5.92936 0
M  V30 8500 H 801.335 3.85434 6.7754 0
M  V30 8501 N 805.565 -0.825799 1.34232 0
M  V30 8502 C 806.793 -1.61363 1.29497 0
M  V30 8503 C 807.208 -1.88341 -0.131536 0
M  V30 8504 O 806.565 -1.47279 -1.07773 0
M  V30 8505 C 806.616 -2.95623 2.08061 0
M  V30 8506 O 806.337 -2.69824 3.45147 0
M  V30 8507 C 807.838 -3.90032 2.10688 0
M  V30 8508 H 805.058 -0.501676 0.445603 0
M  V30 8509 H 807.602 -1.02767 1.76803 0
M  V30 8510 H 805.757 -3.50785 1.64404 0
M  V30 8511 H 806.171 -3.55412 3.85723 0
M  V30 8512 H 807.645 -4.81411 2.70087 0
M  V30 8513 H 808.122 -4.25188 1.10052 0
M  V30 8514 H 808.728 -3.40807 2.54422 0
M  V30 8515 N 807.043 -1.17915 -1.04565 0
M  V30 8516 C 808.459 -0.927761 -1.29864 0
M  V30 8517 C 808.659 0.409536 -1.97294 0
M  V30 8518 O 807.715 1.14505 -2.25044 0
M  V30 8519 C 809.028 -2.08967 -2.16225 0
M  V30 8520 C 810.576 -2.12741 -2.29587 0
M  V30 8521 C 811.051 -3.28335 -3.19312 0
M  V30 8522 N 812.542 -3.28164 -3.26898 0
M  V30 8523 C 813.277 -4.14249 -3.96466 0
M  V30 8524 N 812.773 -5.10457 -4.68407 0
M  V30 8525 N 814.566 -4.02179 -3.92694 0
M  V30 8526 H 806.717 -2.03983 -0.592011 0
M  V30 8527 H 808.98 -0.891023 -0.323701 0
M  V30 8528 H 808.686 -3.05654 -1.73979 0
M  V30 8529 H 808.56 -2.04606 -3.16885 0
M  V30 8530 H 810.947 -1.16636 -2.71072 0
M  V30 8531 H 811.028 -2.21162 -1.28535 0
M  V30 8532 H 810.672 -4.2471 -2.78539 0
M  V30 8533 H 810.602 -3.17151 -4.20384 0
M  V30 8534 H 813.093 -2.58511 -2.75646 0
M  V30 8535 H 813.406 -5.72526 -5.1907 0
M  V30 8536 H 811.751 -5.14422 -4.67328 0
M  V30 8537 H 814.942 -3.26308 -3.3562 0
M  V30 8538 H 815.115 -4.69486 -4.4664 0
M  V30 8539 N 808.521 1.23394 -0.980386 0
M  V30 8540 C 809.451 2.2717 -0.540024 0
M  V30 8541 C 810.432 1.64659 0.426787 0
M  V30 8542 O 811.617 1.91543 0.320153 0
M  V30 8543 C 808.747 3.46939 0.15836 0
M  V30 8544 C 807.701 4.21802 -0.725732 0
M  V30 8545 C 807.027 5.34597 0.104866 0
M  V30 8546 C 808.327 4.81802 -2.01654 0
M  V30 8547 H 810.021 2.64257 -1.40743 0
M  V30 8548 H 807.567 1.2703 -0.678193 0
M  V30 8549 H 809.52 4.18683 0.477737 0
M  V30 8550 H 808.244 3.08912 1.06022 0
M  V30 8551 H 806.903 3.51875 -1.02857 0
M  V30 8552 H 806.551 4.92812 1.00726 0
M  V30 8553 H 806.251 5.85607 -0.483557 0
M  V30 8554 H 807.775 6.09163 0.418624 0
M  V30 8555 H 809.189 5.45554 -1.76193 0
M  V30 8556 H 807.586 5.43098 -2.55273 0
M  V30 8557 H 808.656 4.02549 -2.70338 0
M  V30 8558 N 809.999 0.752036 1.385 0
M  V30 8559 C 810.931 0.0835089 2.29048 0
M  V30 8560 C 811.944 -0.685402 1.47669 0
M  V30 8561 O 813.133 -0.526748 1.70551 0
M  V30 8562 C 810.233 -0.905772 3.26572 0
M  V30 8563 C 809.406 -0.194828 4.36966 0
M  V30 8564 C 808.465 -1.09464 5.14688 0
M  V30 8565 O 807.491 -0.565743 5.66381 0
M  V30 8566 N 808.693 -2.42287 5.2752 0
M  V30 8567 H 811.458 0.861142 2.87062 0
M  V30 8568 H 809.019 0.602689 1.50264 0
M  V30 8569 H 811.011 -1.51072 3.75446 0
M  V30 8570 H 809.581 -1.58449 2.69467 0
M  V30 8571 H 808.801 0.590812 3.89747 0
M  V30 8572 H 810.089 0.297189 5.07931 0
M  V30 8573 H 809.487 -2.87715 4.8707 0
M  V30 8574 H 808.044 -2.97836 5.79773 0
M  V30 8575 N 811.477 -1.49425 0.500989 0
M  V30 8576 C 812.723 -2.02753 -0.0436 0
M  V30 8577 C 813.056 -1.37991 -1.36646 0
M  V30 8578 O 812.331 -0.515597 -1.87542 0
M  V30 8579 C 812.614 -3.59565 -0.19616 0
M  V30 8580 C 812.467 -4.34855 1.14982 0
M  V30 8581 C 813.786 -4.30014 -0.936795 0
M  V30 8582 H 810.905 -0.73686 -0.0143711 0
M  V30 8583 H 813.547 -1.78448 0.652397 0
M  V30 8584 H 811.697 -3.80405 -0.788959 0
M  V30 8585 H 813.369 -4.25512 1.7815 0
M  V30 8586 H 811.612 -3.97414 1.73911 0
M  V30 8587 H 812.283 -5.42933 0.996385 0
M  V30 8588 H 814.759 -4.1383 -0.434036 0
M  V30 8589 H 813.635 -5.39483 -1.01238 0
M  V30 8590 H 813.896 -3.95257 -1.9805 0
M  V30 8591 N 812.955 -0.234822 -1.55841 0
M  V30 8592 C 813.918 0.656378 -2.196 0
M  V30 8593 C 814.918 1.11179 -1.16171 0
M  V30 8594 O 816.108 1.01845 -1.41326 0
M  V30 8595 C 813.24 1.90072 -2.82993 0
M  V30 8596 H 814.433 0.100281 -2.99732 0
M  V30 8597 H 811.986 0.0147613 -1.56293 0
M  V30 8598 H 812.721 2.49836 -2.06767 0
M  V30 8599 H 812.506 1.5825 -3.58747 0
M  V30 8600 H 813.996 2.53538 -3.31826 0
M  V30 8601 N 814.433 1.57553 0.0384317 0
M  V30 8602 C 815.396 2.04927 1.02653 0
M  V30 8603 C 816.396 0.951768 1.29607 0
M  V30 8604 O 817.586 1.21568 1.24768 0
M  V30 8605 C 814.718 2.45828 2.36181 0
M  V30 8606 H 815.911 2.93474 0.617508 0
M  V30 8607 H 813.464 1.53679 0.285031 0
M  V30 8608 H 814.199 1.60408 2.8185 0
M  V30 8609 H 813.984 3.25945 2.1795 0
M  V30 8610 H 815.474 2.82939 3.0714 0
M  V30 8611 N 815.911 -0.310526 1.54511 0
M  V30 8612 C 817.327 -0.655637 1.45511 0
M  V30 8613 C 817.527 -1.91114 0.638564 0
M  V30 8614 O 816.583 -2.52098 0.142497 0
M  V30 8615 C 817.896 -0.817501 2.89374 0
M  V30 8616 C 819.444 -0.914003 2.99358 0
M  V30 8617 C 819.919 -1.10794 4.44397 0
M  V30 8618 N 821.41 -1.17437 4.48066 0
M  V30 8619 C 822.145 -1.34255 5.57461 0
M  V30 8620 N 821.641 -1.48032 6.768 0
M  V30 8621 N 823.434 -1.37067 5.45132 0
M  V30 8622 H 815.585 0.514506 2.06074 0
M  V30 8623 H 817.848 0.168478 0.932909 0
M  V30 8624 H 817.554 0.034003 3.51684 0
M  V30 8625 H 817.428 -1.7094 3.36243 0
M  V30 8626 H 819.815 -1.756 2.37168 0
M  V30 8627 H 819.896 0.00170958 2.558 0
M  V30 8628 H 819.54 -0.270743 5.07178 0
M  V30 8629 H 819.47 -2.03773 4.85576 0
M  V30 8630 H 821.961 -1.08181 3.62084 0
M  V30 8631 H 822.274 -1.60593 7.5593 0
M  V30 8632 H 820.619 -1.45105 6.79683 0
M  V30 8633 H 823.81 -1.25909 4.50849 0
M  V30 8634 H 823.983 -1.49831 6.3044 0
M  V30 8635 N 817.389 -1.46805 -0.573248 0
M  V30 8636 C 818.352 -1.57655 -1.66366 0
M  V30 8637 C 819.352 -0.452905 -1.5429 0
M  V30 8638 O 820.542 -0.717502 -1.58737 0
M  V30 8639 C 817.674 -1.50584 -3.05839 0
M  V30 8640 H 818.867 -2.54842 -1.581 0
M  V30 8641 H 816.42 -1.34756 -0.791868 0
M  V30 8642 H 817.155 -0.547127 -3.19651 0
M  V30 8643 H 816.94 -2.32118 -3.16012 0
M  V30 8644 H 818.43 -1.61282 -3.85199 0
M  V30 8645 N 818.867 0.818669 -1.34668 0
M  V30 8646 C 820.115 1.57201 -1.27013 0
M  V30 8647 C 820.436 1.94354 0.158599 0
M  V30 8648 O 819.706 1.62626 1.09223 0
M  V30 8649 H 818.286 0.582919 -0.467135 0
M  V30 8650 H 820.948 0.977234 -1.6863 0
M  V30 8651 H 820.044 2.49291 -1.87778 0
M  V30 8652 N 820.346 1.18468 1.03938 0
M  V30 8653 C 821.278 0.870615 2.12021 0
M  V30 8654 C 822.291 -0.132318 1.62261 0
M  V30 8655 O 823.48 0.0956901 1.78243 0
M  V30 8656 C 820.58 0.279727 3.37744 0
M  V30 8657 C 819.753 1.32863 4.16733 0
M  V30 8658 C 818.812 0.753204 5.20781 0
M  V30 8659 O 817.838 1.42825 5.5099 0
M  V30 8660 N 819.04 -0.448664 5.78764 0
M  V30 8661 H 821.805 1.80091 2.39556 0
M  V30 8662 H 819.366 1.08524 1.20142 0
M  V30 8663 H 821.358 -0.118829 4.04526 0
M  V30 8664 H 819.928 -0.554621 3.07641 0
M  V30 8665 H 819.148 1.90245 3.45254 0
M  V30 8666 H 820.436 2.03574 4.66299 0
M  V30 8667 H 819.834 -1.01481 5.56523 0
M  V30 8668 H 818.391 -0.789125 6.47005 0
M  V30 8669 N 821.824 -1.22873 0.986916 0
M  V30 8670 C 823.052 -1.95487 0.677663 0
M  V30 8671 C 823.467 -1.72978 -0.756572 0
M  V30 8672 O 822.824 -1.02517 -1.50985 0
M  V30 8673 C 822.875 -3.48337 0.966638 0
M  V30 8674 O 822.596 -3.70087 2.34451 0
M  V30 8675 C 824.097 -4.38142 0.674248 0
M  V30 8676 H 821.317 -0.622211 0.251185 0
M  V30 8677 H 823.861 -1.56187 1.32007 0
M  V30 8678 H 822.016 -3.85628 0.370137 0
M  V30 8679 H 822.43 -4.64332 2.43918 0
M  V30 8680 H 823.904 -5.44165 0.926759 0
M  V30 8681 H 824.381 -4.3745 -0.391728 0
M  V30 8682 H 824.987 -4.06469 1.25152 0
M  V30 8683 N 823.302 -0.75937 -1.38099 0
M  V30 8684 C 824.53 -0.329111 -2.04266 0
M  V30 8685 C 824.945 1.04453 -1.57274 0
M  V30 8686 O 824.302 1.66449 -0.748397 0
M  V30 8687 C 824.353 -0.349192 -3.5981 0
M  V30 8688 O 824.074 -1.66863 -4.05078 0
M  V30 8689 C 825.575 0.0942106 -4.432 0
M  V30 8690 H 822.795 -0.13971 -0.656294 0
M  V30 8691 H 825.339 -1.02984 -1.76677 0
M  V30 8692 H 823.494 0.302846 -3.86214 0
M  V30 8693 H 823.908 -1.59877 -4.9954 0
M  V30 8694 H 825.382 0.0290004 -5.51992 0
M  V30 8695 H 825.859 1.1429 -4.24069 0
M  V30 8696 H 826.465 -0.529171 -4.21995 0
M  V30 8697 N 824.78 1.49157 -0.508906 0
M  V30 8698 C 826.01 2.06579 0.0293308 0
M  V30 8699 C 826.418 1.36852 1.30645 0
M  V30 8700 O 825.761 0.443079 1.78276 0
M  V30 8701 C 825.823 3.57838 0.345296 0
M  V30 8702 C 825.487 4.49302 -0.835256 0
M  V30 8703 C 826.484 4.90345 -1.72793 0
M  V30 8704 C 824.169 4.91494 -1.0363 0
M  V30 8705 C 826.163 5.72327 -2.80573 0
M  V30 8706 C 823.85 5.7325 -2.11726 0
M  V30 8707 C 824.848 6.13572 -3.00032 0
M  V30 8708 O 824.536 6.93691 -4.06261 0
M  V30 8709 H 824.268 0.675679 -0.0208193 0
M  V30 8710 H 826.822 1.9282 -0.707789 0
M  V30 8711 H 825.052 3.69634 1.13612 0
M  V30 8712 H 826.741 3.97467 0.823089 0
M  V30 8713 H 827.507 4.58388 -1.58446 0
M  V30 8714 H 823.386 4.59605 -0.358308 0
M  V30 8715 H 826.93 6.03719 -3.49527 0
M  V30 8716 H 822.827 6.0462 -2.26065 0
M  V30 8717 H 823.595 7.12011 -4.03711 0
M  V30 8718 N 826.258 0.243083 1.55714 0
M  V30 8719 C 827.483 -0.389944 2.03701 0
M  V30 8720 C 827.908 -1.51025 1.12129 0
M  V30 8721 O 827.266 -1.80944 0.11352 0
M  V30 8722 C 827.314 -0.878649 3.49731 0
M  V30 8723 O 826.418 -1.98851 3.61292 0
M  V30 8724 H 825.759 -0.0855115 0.658471 0
M  V30 8725 H 828.289 0.368023 2.01263 0
M  V30 8726 H 828.299 -1.18287 3.90477 0
M  V30 8727 H 826.974 -0.0588107 4.15858 0
M  V30 8728 H 825.551 -1.68928 3.32442 0
M  V30 8729 N 827.736 -1.57571 -0.0300757 0
M  V30 8730 C 828.984 -1.88852 -0.719666 0
M  V30 8731 C 829.305 -0.840645 -1.75949 0
M  V30 8732 O 828.575 0.125854 -1.95495 0
M  V30 8733 H 827.155 -0.696965 -0.268792 0
M  V30 8734 H 829.817 -1.949 0.00373285 0
M  V30 8735 H 828.913 -2.87695 -1.20987 0
M  V30 8736 N 829.214 0.302327 -1.54673 0
M  V30 8737 C 830.46 1.03924 -1.74149 0
M  V30 8738 C 830.793 1.86968 -0.525041 0
M  V30 8739 O 830.068 1.88538 0.477868 0
M  V30 8740 C 830.351 1.94633 -3.02969 0
M  V30 8741 C 830.204 1.14778 -4.34909 0
M  V30 8742 C 831.523 2.93826 -3.27649 0
M  V30 8743 H 828.642 0.376405 -0.633631 0
M  V30 8744 H 831.284 0.314007 -1.87387 0
M  V30 8745 H 829.434 2.56471 -2.91813 0
M  V30 8746 H 831.106 0.552363 -4.57981 0
M  V30 8747 H 829.349 0.450462 -4.31455 0
M  V30 8748 H 830.02 1.81495 -5.21309 0
M  V30 8749 H 832.496 2.42117 -3.38406 0
M  V30 8750 H 831.372 3.54462 -4.19104 0
M  V30 8751 H 831.633 3.67416 -2.45882 0
M  V30 8752 N 830.692 1.47107 0.565454 0
M  V30 8753 C 831.941 1.5257 1.31929 0
M  V30 8754 C 832.254 0.189092 1.94684 0
M  V30 8755 O 833.46 0.121657 2.71227 0
M  V30 8756 C 831.916 2.68914 2.39193 0
M  V30 8757 C 831.524 4.09069 1.82665 0
M  V30 8758 C 833.268 2.83663 3.1581 0
M  V30 8759 C 831.175 5.16726 2.87661 0
M  V30 8760 H 830.105 0.567869 0.496025 0
M  V30 8761 H 832.756 1.73361 0.60151 0
M  V30 8762 H 831.138 2.41486 3.13848 0
M  V30 8763 H 832.312 4.46364 1.14438 0
M  V30 8764 H 830.627 3.99135 1.1866 0
M  V30 8765 H 833.224 3.61261 3.94201 0
M  V30 8766 H 833.567 1.91804 3.69482 0
M  V30 8767 H 834.1 3.10821 2.48265 0
M  V30 8768 H 830.839 6.10433 2.38854 0
M  V30 8769 H 830.359 4.83957 3.54324 0
M  V30 8770 H 832.038 5.43319 3.51303 0
M  V30 8771 N 832.17 -0.811516 1.35101 0
M  V30 8772 C 833.447 -1.55491 1.18667 0
M  V30 8773 C 833.827 -2.09775 -0.236189 0
M  V30 8774 O 833.175 -1.91989 -1.23905 0
M  V30 8775 C 833.385 -2.66732 2.25067 0
M  V30 8776 C 834.733 -3.35201 2.60625 0
M  V30 8777 O 835.757 -2.76998 2.23943 0
M  V30 8778 O 834.616 -4.40334 3.23679 0
M  V30 8779 H 831.71 -0.686783 0.460716 0
M  V30 8780 H 834.256 -0.851903 1.46768 0
M  V30 8781 H 833.028 -2.24457 3.20523 0
M  V30 8782 H 832.651 -3.44673 1.98208 0
M  V30 8783 N 833.648 -1.19017 -1.03309 0
M  V30 8784 C 834.888 -1.00129 -1.78195 0
M  V30 8785 C 835.252 0.460236 -1.86402 0
M  V30 8786 O 836.453 0.768802 -2.57571 0
M  V30 8787 C 834.724 -1.64703 -3.17187 0
M  V30 8788 S 836.283 -1.60695 -4.08317 0
M  V30 8789 H 833.101 -0.359395 -0.613479 0
M  V30 8790 H 835.703 -1.51293 -1.23818 0
M  V30 8791 H 834.407 -2.70283 -3.08829 0
M  V30 8792 H 833.938 -1.136 -3.76641 0
M  V30 8793 H 835.953 -0.628171 -4.92208 0
M  V30 8794 N 835.127 1.22348 -0.993418 0
M  V30 8795 C 836.374 1.9111 -0.669568 0
M  V30 8796 C 836.702 1.77357 0.79843 0
M  V30 8797 O 835.957 1.13675 1.593 0
M  V30 8798 C 836.256 3.42477 -1.02197 0
M  V30 8799 C 835.922 3.7642 -2.48232 0
M  V30 8800 C 834.584 3.85395 -2.88139 0
M  V30 8801 C 836.936 3.9253 -3.42884 0
M  V30 8802 C 834.264 4.07918 -4.21687 0
M  V30 8803 C 836.616 4.16557 -4.76091 0
M  V30 8804 C 835.28 4.23757 -5.15739 0
M  V30 8805 H 834.55 0.699321 -0.245012 0
M  V30 8806 H 837.197 1.45102 -1.2497 0
M  V30 8807 H 835.502 3.90143 -0.359921 0
M  V30 8808 H 837.199 3.93935 -0.74942 0
M  V30 8809 H 833.789 3.70017 -2.16299 0
M  V30 8810 H 837.973 3.84974 -3.13224 0
M  V30 8811 H 833.229 4.11719 -4.51993 0
M  V30 8812 H 837.403 4.27966 -5.4938 0
M  V30 8813 H 835.03 4.40962 -6.19239 0
M  V30 8814 N 836.605 0.766683 1.37694 0
M  V30 8815 C 838.021 0.445739 1.53249 0
M  V30 8816 C 838.221 -1.03935 1.72626 0
M  V30 8817 O 837.277 -1.82525 1.74473 0
M  V30 8818 C 838.59 1.2564 2.73194 0
M  V30 8819 C 840.138 1.24779 2.87053 0
M  V30 8820 C 840.613 2.04169 4.09974 0
M  V30 8821 N 842.104 2.01497 4.17077 0
M  V30 8822 C 842.839 2.5971 5.11212 0
M  V30 8823 N 842.335 3.26691 6.10938 0
M  V30 8824 N 844.128 2.49568 5.03659 0
M  V30 8825 H 836.279 1.72899 1.23368 0
M  V30 8826 H 838.542 0.733701 0.600322 0
M  V30 8827 H 838.248 2.30859 2.65324 0
M  V30 8828 H 838.122 0.882133 3.6674 0
M  V30 8829 H 840.509 0.203603 2.94397 0
M  V30 8830 H 840.59 1.66166 1.9448 0
M  V30 8831 H 840.234 3.08606 4.03392 0
M  V30 8832 H 840.164 1.60167 5.01651 0
M  V30 8833 H 842.655 1.52728 3.45662 0
M  V30 8834 H 842.968 3.68497 6.79286 0
M  V30 8835 H 841.313 3.30789 6.11231 0
M  V30 8836 H 844.504 1.96859 4.24693 0
M  V30 8837 H 844.677 2.95231 5.76839 0
M  V30 8838 N 838.083 -1.48885 0.516809 0
M  V30 8839 C 839.03 -2.29408 -0.253125 0
M  V30 8840 C 840 -1.36533 -0.945935 0
M  V30 8841 O 841.185 -1.65495 -0.949527 0
M  V30 8842 C 838.325 -3.19592 -1.30211 0
M  V30 8843 C 837.438 -4.27535 -0.61948 0
M  V30 8844 C 836.573 -5.04916 -1.65026 0
M  V30 8845 C 835.612 -6.04677 -0.950368 0
M  V30 8846 N 834.749 -6.75164 -1.92608 0
M  V30 8847 H 839.589 -2.94738 0.439744 0
M  V30 8848 H 837.126 -1.45311 0.2287 0
M  V30 8849 H 839.084 -3.70267 -1.92245 0
M  V30 8850 H 837.714 -2.56213 -1.96353 0
M  V30 8851 H 836.766 -3.80228 0.114505 0
M  V30 8852 H 838.078 -4.98752 -0.0693016 0
M  V30 8853 H 837.232 -5.59539 -2.34523 0
M  V30 8854 H 835.971 -4.33508 -2.23432 0
M  V30 8855 H 834.976 -5.4927 -0.241252 0
M  V30 8856 H 836.201 -6.78077 -0.372599 0
M  V30 8857 H 834.147 -6.06517 -2.49946 0
M  V30 8858 H 834.064 -7.4241 -1.42699 0
M  V30 8859 H 835.332 -7.34384 -2.61345 0
M  V30 8860 N 839.561 -0.251338 -1.55583 0
M  V30 8861 C 840.81 0.372681 -1.98227 0
M  V30 8862 C 841.123 1.58743 -1.1428 0
M  V30 8863 O 842.329 2.28289 -1.46957 0
M  V30 8864 C 840.785 0.714439 -3.52738 0
M  V30 8865 C 840.393 -0.479168 -4.4543 0
M  V30 8866 C 842.137 1.3024 -4.04027 0
M  V30 8867 C 840.044 -0.113318 -5.91291 0
M  V30 8868 H 838.974 0.14302 -0.740312 0
M  V30 8869 H 841.625 -0.352253 -1.80087 0
M  V30 8870 H 840.007 1.49762 -3.66589 0
M  V30 8871 H 841.181 -1.25644 -4.4334 0
M  V30 8872 H 839.496 -0.982359 -4.04646 0
M  V30 8873 H 842.093 1.58953 -5.10527 0
M  V30 8874 H 842.436 2.22837 -3.51638 0
M  V30 8875 H 842.969 0.582024 -3.93519 0
M  V30 8876 H 839.708 -1.00654 -6.47726 0
M  V30 8877 H 839.228 0.627666 -5.96507 0
M  V30 8878 H 840.907 0.30293 -6.4629 0
M  V30 8879 N 841.039 1.57585 0.0217189 0
M  V30 8880 C 841.969 2.10073 1.01939 0
M  V30 8881 C 842.95 1.0049 1.37243 0
M  V30 8882 O 844.135 1.28055 1.45999 0
M  V30 8883 C 841.265 2.58618 2.31806 0
M  V30 8884 C 840.219 3.72531 2.10724 0
M  V30 8885 C 839.545 4.07309 3.46415 0
M  V30 8886 C 840.845 5.00672 1.48743 0
M  V30 8887 H 842.539 2.9368 0.582432 0
M  V30 8888 H 840.085 1.41277 0.278715 0
M  V30 8889 H 842.038 2.9396 3.01936 0
M  V30 8890 H 840.762 1.72104 2.77575 0
M  V30 8891 H 839.421 3.37549 1.43025 0
M  V30 8892 H 839.069 3.17851 3.89846 0
M  V30 8893 H 838.769 4.84042 3.33132 0
M  V30 8894 H 840.293 4.45192 4.17895 0
M  V30 8895 H 841.707 5.33925 2.088 0
M  V30 8896 H 840.104 5.82065 1.46013 0
M  V30 8897 H 841.174 4.82769 0.45408 0
M  V30 8898 N 842.517 -0.29412 1.54831 0
M  V30 8899 C 843.933 -0.640167 1.46199 0
M  V30 8900 C 844.133 -1.90426 0.658798 0
M  V30 8901 O 843.189 -2.51932 0.169228 0
M  V30 8902 C 844.502 -0.786763 2.90225 0
M  V30 8903 C 846.05 -0.882201 3.0031 0
M  V30 8904 C 846.525 -1.06074 4.45547 0
M  V30 8905 N 848.016 -1.12678 4.49286 0
M  V30 8906 C 848.751 -1.28334 5.58854 0
M  V30 8907 N 848.247 -1.40845 6.78332 0
M  V30 8908 N 850.04 -1.31277 5.46555 0
M  V30 8909 H 842.191 0.536334 2.05517 0
M  V30 8910 H 844.454 0.178363 0.93107 0
M  V30 8911 H 844.16 0.0713018 3.51628 0
M  V30 8912 H 844.034 -1.67364 3.38037 0
M  V30 8913 H 846.421 -1.73075 2.39017 0
M  V30 8914 H 846.502 0.0288405 2.55784 0
M  V30 8915 H 846.146 -0.216935 5.07437 0
M  V30 8916 H 846.076 -1.98611 4.8771 0
M  V30 8917 H 848.567 -1.04335 3.63212 0
M  V30 8918 H 848.88 -1.52566 7.57591 0
M  V30 8919 H 847.225 -1.37888 6.81184 0
M  V30 8920 H 850.416 -1.2112 4.52159 0
M  V30 8921 H 850.589 -1.43136 6.31994 0
M  V30 8922 N 843.995 -1.47404 -0.557645 0
M  V30 8923 C 844.905 -1.62491 -1.69216 0
M  V30 8924 C 845.921 -0.507764 -1.66426 0
M  V30 8925 O 847.097 -0.775241 -1.85882 0
M  V30 8926 C 844.162 -1.63511 -3.05721 0
M  V30 8927 C 843.223 -2.86648 -3.1958 0
M  V30 8928 C 842.456 -2.87609 -4.49574 0
M  V30 8929 O 842.679 -1.97799 -5.35006 0
M  V30 8930 O 841.613 -3.79465 -4.67215 0
M  V30 8931 H 845.439 -2.58487 -1.59431 0
M  V30 8932 H 843.024 -1.30485 -0.7276 0
M  V30 8933 H 844.906 -1.66863 -3.86956 0
M  V30 8934 H 843.581 -0.706812 -3.15889 0
M  V30 8935 H 842.488 -2.8884 -2.37744 0
M  V30 8936 H 843.821 -3.7877 -3.14316 0
M  V30 8937 N 845.473 0.80434 -1.35529 0
M  V30 8938 C 846.383 1.94784 -1.30753 0
M  V30 8939 C 847.399 1.72703 -0.212071 0
M  V30 8940 O 848.575 1.96494 -0.441841 0
M  V30 8941 C 845.64 3.29406 -1.08133 0
M  V30 8942 C 844.701 3.64367 -2.27013 0
M  V30 8943 C 843.934 4.92566 -2.05463 0
M  V30 8944 O 844.157 5.61166 -1.02222 0
M  V30 8945 O 843.091 5.25838 -2.92879 0
M  V30 8946 H 846.917 2.01761 -2.26994 0
M  V30 8947 H 844.502 0.942448 -1.15924 0
M  V30 8948 H 846.384 4.09995 -0.973756 0
M  V30 8949 H 845.059 3.23355 -0.149444 0
M  V30 8950 H 843.966 2.84146 -2.43335 0
M  V30 8951 H 845.299 3.75125 -3.18656 0
M  V30 8952 N 846.951 1.19563 1.02676 0
M  V30 8953 C 848.199 0.997593 1.75763 0
M  V30 8954 C 848.52 -0.47253 1.89188 0
M  V30 8955 O 847.79 -1.34214 1.42701 0
M  V30 8956 H 846.37 0.366128 0.651122 0
M  V30 8957 H 849.032 1.50495 1.23844 0
M  V30 8958 H 848.128 1.44741 2.76508 0
M  V30 8959 N 848.429 -1.21819 0.999893 0
M  V30 8960 C 849.84 -1.72517 0.713775 0
M  V30 8961 C 850.191 -1.80505 -0.768922 0
M  V30 8962 O 849.316 -1.45611 -1.60083 0
M  V30 8963 C 849.911 -3.13321 1.28901 0
M  V30 8964 C 848.47 -3.61396 1.05212 0
M  V30 8965 C 847.617 -2.39074 1.40494 0
M  V30 8966 H 850.568 -1.07068 1.17141 0
M  V30 8967 H 850.589 -3.74535 0.671084 0
M  V30 8968 H 850.101 -3.07475 2.36814 0
M  V30 8969 H 848.202 -3.72599 -0.0100732 0
M  V30 8970 H 848.315 -4.47145 1.72042 0
M  V30 8971 H 846.679 -2.41015 0.823642 0
M  V30 8972 H 847.462 -2.35884 2.49427 0
M  V30 8973 N 849.908 -0.773975 -1.37286 0
M  V30 8974 C 850.855 -0.159938 -2.30245 0
M  V30 8975 C 851.825 0.687356 -1.51211 0
M  V30 8976 O 853.01 0.639255 -1.79773 0
M  V30 8977 C 850.15 0.711452 -3.37687 0
M  V30 8978 C 849.263 -0.152692 -4.3173 0
M  V30 8979 C 848.398 0.723613 -5.26248 0
M  V30 8980 C 847.437 -0.14293 -6.11933 0
M  V30 8981 N 846.574 0.691479 -6.98687 0
M  V30 8982 H 851.414 -0.958182 -2.82175 0
M  V30 8983 H 848.951 -0.48411 -1.38906 0
M  V30 8984 H 850.909 1.2315 -3.9861 0
M  V30 8985 H 849.539 1.47528 -2.87116 0
M  V30 8986 H 848.591 -0.790574 -3.72094 0
M  V30 8987 H 849.903 -0.821027 -4.91997 0
M  V30 8988 H 849.057 1.31006 -5.92387 0
M  V30 8989 H 847.796 1.42562 -4.66398 0
M  V30 8990 H 846.801 -0.7419 -5.44771 0
M  V30 8991 H 848.026 -0.842305 -6.73856 0
M  V30 8992 H 845.972 1.37806 -6.41362 0
M  V30 8993 H 845.889 0.0804911 -7.55957 0
M  V30 8994 H 847.157 1.26225 -7.69212 0
M  V30 8995 N 851.386 1.48609 -0.524698 0
M  V30 8996 C 852.349 2.28041 0.230166 0
M  V30 8997 C 853.349 1.35065 0.872584 0
M  V30 8998 O 854.539 1.58007 0.73345 0
M  V30 8999 C 851.671 3.13778 1.33252 0
M  V30 9000 H 852.864 2.96239 -0.467161 0
M  V30 9001 H 850.417 1.53763 -0.280452 0
M  V30 9002 H 851.152 2.502 2.06327 0
M  V30 9003 H 850.937 3.82165 0.877058 0
M  V30 9004 H 852.427 3.7371 1.86362 0
M  V30 9005 N 852.864 0.259585 1.55447 0
M  V30 9006 C 853.794 -0.62852 2.24882 0
M  V30 9007 C 854.775 -1.17128 1.23349 0
M  V30 9008 O 855.96 -1.20829 1.52033 0
M  V30 9009 C 853.09 -1.81983 2.95803 0
M  V30 9010 C 852.044 -1.40929 4.04132 0
M  V30 9011 C 851.37 -2.68246 4.62545 0
M  V30 9012 C 852.67 -0.570956 5.1917 0
M  V30 9013 H 854.364 -0.0495021 2.99359 0
M  V30 9014 H 851.91 -0.0223688 1.43983 0
M  V30 9015 H 853.863 -2.44689 3.43082 0
M  V30 9016 H 852.587 -2.42444 2.18835 0
M  V30 9017 H 851.246 -0.805519 3.57641 0
M  V30 9018 H 850.894 -3.26931 3.82263 0
M  V30 9019 H 850.594 -2.41495 5.35681 0
M  V30 9020 H 852.118 -3.31827 5.12565 0
M  V30 9021 H 853.532 -1.10262 5.62597 0
M  V30 9022 H 851.929 -0.398979 5.98772 0
M  V30 9023 H 852.999 0.413918 4.8313 0
M  V30 9024 N 854.342 -1.57594 -0.0133615 0
M  V30 9025 C 855.588 -1.91105 -0.696457 0
M  V30 9026 C 855.943 -0.859872 -1.72116 0
M  V30 9027 O 855.236 0.129579 -1.91161 0
M  V30 9028 C 855.43 -3.29121 -1.39336 0
M  V30 9029 C 855.259 -4.47565 -0.437666 0
M  V30 9030 C 854.029 -5.05272 -0.0529454 0
M  V30 9031 C 856.227 -5.13479 0.290537 0
M  V30 9032 N 854.209 -6.07232 0.902355 0
M  V30 9033 C 855.58 -6.10147 1.10097 0
M  V30 9034 C 857.635 -4.96627 0.355804 0
M  V30 9035 C 856.338 -6.91778 1.97069 0
M  V30 9036 C 858.364 -5.78833 1.21271 0
M  V30 9037 C 857.726 -6.75083 2.01102 0
M  V30 9038 H 853.825 -0.747882 -0.228464 0
M  V30 9039 H 856.409 -1.94651 0.0438462 0
M  V30 9040 H 854.58 -3.26474 -2.10403 0
M  V30 9041 H 856.312 -3.501 -2.03008 0
M  V30 9042 H 853.067 -4.71747 -0.418486 0
M  V30 9043 H 853.491 -6.6289 1.37498 0
M  V30 9044 H 858.133 -4.22077 -0.247105 0
M  V30 9045 H 855.851 -7.65662 2.58433 0
M  V30 9046 H 859.437 -5.67838 1.26694 0
M  V30 9047 H 858.317 -7.37587 2.66337 0
M  V30 9048 N 855.82 0.285905 -1.54985 0
M  V30 9049 C 856.767 1.35306 -1.86978 0
M  V30 9050 C 857.737 1.49682 -0.720046 0
M  V30 9051 O 858.922 1.64297 -0.970107 0
M  V30 9052 C 856.062 2.71059 -2.13591 0
M  V30 9053 C 855.175 2.6501 -3.41165 0
M  V30 9054 C 854.31 3.92856 -3.57544 0
M  V30 9055 C 853.349 3.81266 -4.78855 0
M  V30 9056 N 852.486 5.00919 -4.9196 0
M  V30 9057 H 857.326 1.07323 -2.78003 0
M  V30 9058 H 854.863 0.518776 -1.37649 0
M  V30 9059 H 856.821 3.50026 -2.27019 0
M  V30 9060 H 855.451 2.97271 -1.25816 0
M  V30 9061 H 854.503 1.77824 -3.36278 0
M  V30 9062 H 855.815 2.52342 -4.30262 0
M  V30 9063 H 854.969 4.80263 -3.70718 0
M  V30 9064 H 853.708 4.08377 -2.66608 0
M  V30 9065 H 852.713 2.92243 -4.65698 0
M  V30 9066 H 853.938 3.67277 -5.71213 0
M  V30 9067 H 851.884 5.16875 -4.03951 0
M  V30 9068 H 851.801 4.90732 -5.75081 0
M  V30 9069 H 853.069 5.89935 -5.09507 0
M  V30 9070 N 857.298 1.47698 0.54982 0
M  V30 9071 C 858.546 1.54397 1.30407 0
M  V30 9072 C 858.867 0.211026 1.93855 0
M  V30 9073 O 858.137 -0.765701 1.80316 0
M  V30 9074 H 856.717 0.568747 0.484289 0
M  V30 9075 H 859.379 1.84042 0.641444 0
M  V30 9076 H 858.475 2.31449 2.09375 0
M  V30 9077 N 858.776 -0.797141 1.35954 0
M  V30 9078 C 859.739 -1.89104 1.29508 0
M  V30 9079 C 860.739 -1.59495 0.204444 0
M  V30 9080 O 861.929 -1.68051 0.458746 0
M  V30 9081 C 859.061 -3.25726 1.00576 0
M  V30 9082 H 860.254 -1.96237 2.26785 0
M  V30 9083 H 857.807 -0.994075 1.20614 0
M  V30 9084 H 858.542 -3.24279 0.0372519 0
M  V30 9085 H 858.327 -3.48604 1.79492 0
M  V30 9086 H 859.817 -4.0578 0.986508 0
M  V30 9087 N 860.254 -1.20106 -1.0204 0
M  V30 9088 C 861.502 -1.0069 -1.75231 0
M  V30 9089 C 861.823 0.462491 -1.89436 0
M  V30 9090 O 861.093 1.33455 -1.4341 0
M  V30 9091 H 859.673 -0.369576 -0.649171 0
M  V30 9092 H 862.335 -1.51149 -1.23044 0
M  V30 9093 H 861.431 -1.46205 -2.75736 0
M  V30 9094 N 861.732 1.21287 -1.00634 0
M  V30 9095 C 862.695 2.21927 -0.572821 0
M  V30 9096 C 863.695 1.5691 0.351541 0
M  V30 9097 O 864.885 1.73623 0.141643 0
M  V30 9098 C 862.017 3.40501 0.164932 0
M  V30 9099 H 863.21 2.61795 -1.463 0
M  V30 9100 H 860.763 1.34571 -0.794998 0
M  V30 9101 H 861.498 3.06123 1.07049 0
M  V30 9102 H 861.283 3.88912 -0.498962 0
M  V30 9103 H 862.773 4.15103 0.455945 0
M  V30 9104 N 863.21 0.781244 1.36873 0
M  V30 9105 C 864.626 0.461968 1.52768 0
M  V30 9106 C 864.826 -1.02099 1.73719 0
M  V30 9107 O 863.882 -1.80665 1.76399 0
M  V30 9108 C 865.195 1.2853 2.71846 0
M  V30 9109 C 866.743 1.27817 2.85713 0
M  V30 9110 C 867.218 2.08506 4.07786 0
M  V30 9111 N 868.709 2.05909 4.14917 0
M  V30 9112 C 869.444 2.65118 5.08429 0
M  V30 9113 N 868.94 3.33152 6.07438 0
M  V30 9114 N 870.733 2.54896 5.00983 0
M  V30 9115 H 862.884 1.74198 1.21527 0
M  V30 9116 H 865.147 0.740027 0.592506 0
M  V30 9117 H 864.853 2.3366 2.62861 0
M  V30 9118 H 864.727 0.920981 3.65784 0
M  V30 9119 H 867.114 0.234817 2.94164 0
M  V30 9120 H 867.195 1.68219 1.92707 0
M  V30 9121 H 866.839 3.12867 4.00096 0
M  V30 9122 H 866.769 1.65479 4.99924 0
M  V30 9123 H 869.26 1.56386 3.44023 0
M  V30 9124 H 869.573 3.75681 6.75339 0
M  V30 9125 H 867.918 3.37253 6.07689 0
M  V30 9126 H 871.109 2.01352 4.22581 0
M  V30 9127 H 871.282 3.01332 5.73675 0
M  V30 9128 N 864.689 -1.48329 0.532571 0
M  V30 9129 C 865.935 -2.028 -0.000583219 0
M  V30 9130 C 866.268 -1.40858 -1.33688 0
M  V30 9131 O 865.543 -0.555261 -1.86406 0
M  V30 9132 C 865.826 -3.59901 -0.119846 0
M  V30 9133 C 865.679 -4.32318 1.2418 0
M  V30 9134 C 866.998 -4.31904 -0.845372 0
M  V30 9135 H 864.117 -0.736999 0.00126205 0
M  V30 9136 H 866.759 -1.77024 0.690102 0
M  V30 9137 H 864.909 -3.81993 -0.708092 0
M  V30 9138 H 866.581 -4.21637 1.87136 0
M  V30 9139 H 864.824 -3.93635 1.82301 0
M  V30 9140 H 865.495 -5.40697 1.11132 0
M  V30 9141 H 867.971 -4.14658 -0.346159 0
M  V30 9142 H 866.847 -5.41509 -0.897723 0
M  V30 9143 H 867.108 -3.99369 -1.89622 0
M  V30 9144 N 866.167 -0.267825 -1.55308 0
M  V30 9145 C 867.414 0.351036 -1.99434 0
M  V30 9146 C 867.742 1.56406 -1.15618 0
M  V30 9147 O 866.997 1.94548 -0.212045 0
M  V30 9148 C 867.296 0.784247 -3.48689 0
M  V30 9149 C 866.962 -0.323328 -4.49739 0
M  V30 9150 C 865.624 -0.627467 -4.77091 0
M  V30 9151 C 867.976 -1.07002 -5.10098 0
M  V30 9152 C 865.304 -1.682 -5.62073 0
M  V30 9153 C 867.656 -2.11422 -5.96224 0
M  V30 9154 C 866.32 -2.42479 -6.21901 0
M  V30 9155 H 865.59 0.128453 -0.729781 0
M  V30 9156 H 868.237 -0.380018 -1.87692 0
M  V30 9157 H 866.542 1.59485 -3.57871 0
M  V30 9158 H 868.239 1.2737 -3.80234 0
M  V30 9159 H 864.829 -0.0761528 -4.28532 0
M  V30 9160 H 869.013 -0.848302 -4.88996 0
M  V30 9161 H 864.269 -1.92772 -5.80215 0
M  V30 9162 H 868.443 -2.69759 -6.4203 0
M  V30 9163 H 866.07 -3.24328 -6.87543 0
M  V30 9164 N 867.645 1.57599 0.00500368 0
M  V30 9165 C 869.061 1.55463 0.361015 0
M  V30 9166 C 869.261 0.997051 1.75103 0
M  V30 9167 O 868.317 0.628661 2.44549 0
M  V30 9168 C 869.63 2.99734 0.240828 0
M  V30 9169 C 871.178 3.11399 0.316138 0
M  V30 9170 C 871.653 4.57446 0.22513 0
M  V30 9171 N 873.144 4.62334 0.283186 0
M  V30 9172 C 873.879 5.72914 0.23603 0
M  V30 9173 N 873.375 6.92659 0.139762 0
M  V30 9174 N 875.168 5.61364 0.287529 0
M  V30 9175 H 867.319 1.92185 -0.904359 0
M  V30 9176 H 869.582 0.882529 -0.34619 0
M  V30 9177 H 869.288 3.44348 -0.715343 0
M  V30 9178 H 869.162 3.63009 1.02491 0
M  V30 9179 H 871.549 2.66718 1.26275 0
M  V30 9180 H 871.63 2.50911 -0.497725 0
M  V30 9181 H 871.274 5.02801 -0.717917 0
M  V30 9182 H 871.204 5.15874 1.05742 0
M  V30 9183 H 873.695 3.7619 0.359123 0
M  V30 9184 H 874.008 7.72722 0.10954 0
M  V30 9185 H 872.353 6.9492 0.105462 0
M  V30 9186 H 875.544 4.66707 0.360897 0
M  V30 9187 H 875.717 6.47528 0.247313 0
M  V30 9188 N 869.123 -0.277682 1.55134 0
M  V30 9189 C 870.348 -1.03254 1.7987 0
M  V30 9190 C 870.773 -1.79324 0.567861 0
M  V30 9191 O 870.131 -1.74764 -0.4824 0
M  V30 9192 C 870.179 -1.9705 3.02 0
M  V30 9193 O 869.283 -3.05744 2.76757 0
M  V30 9194 H 868.624 -0.295447 0.594649 0
M  V30 9195 H 871.154 -0.308013 2.02268 0
M  V30 9196 H 871.164 -2.3909 3.30606 0
M  V30 9197 H 869.839 -1.41094 3.91236 0
M  V30 9198 H 868.416 -2.68052 2.59235 0
M  V30 9199 N 870.601 -1.47988 -0.541979 0
M  V30 9200 C 871.826 -1.59286 -1.32826 0
M  V30 9201 C 872.251 -0.24894 -1.86445 0
M  V30 9202 O 871.609 0.777581 -1.63778 0
M  V30 9203 C 871.657 -2.6334 -2.46343 0
M  V30 9204 O 870.761 -2.19667 -3.49028 0
M  V30 9205 H 870.102 -0.534543 -0.393903 0
M  V30 9206 H 872.632 -1.93885 -0.653427 0
M  V30 9207 H 872.642 -2.84238 -2.92699 0
M  V30 9208 H 871.317 -3.60913 -2.06675 0
M  V30 9209 H 869.894 -2.08932 -3.08872 0
M  V30 9210 N 872.079 0.78992 -1.36375 0
M  V30 9211 C 873.49 1.36506 -1.2737 0
M  V30 9212 C 873.841 1.96008 0.086711 0
M  V30 9213 O 872.966 1.92521 0.988159 0
M  V30 9214 C 873.561 2.48175 -2.30639 0
M  V30 9215 C 872.12 3.01506 -2.25325 0
M  V30 9216 C 871.267 1.74581 -2.15445 0
M  V30 9217 H 874.218 0.591606 -1.47261 0
M  V30 9218 H 874.239 3.27179 -1.94253 0
M  V30 9219 H 873.751 2.04838 -3.2964 0
M  V30 9220 H 871.852 3.49265 -1.29788 0
M  V30 9221 H 871.965 3.58355 -3.17992 0
M  V30 9222 H 870.329 1.96794 -1.61692 0
M  V30 9223 H 871.112 1.33373 -3.16333 0
M  V30 9224 N 873.557 1.20646 1.01402 0
M  V30 9225 C 874.489 0.915392 2.10127 0
M  V30 9226 C 875.502 -0.0978705 1.62506 0
M  V30 9227 O 876.691 0.133477 1.78 0
M  V30 9228 C 873.791 0.351304 3.37074 0
M  V30 9229 C 872.964 1.41673 4.13821 0
M  V30 9230 C 872.023 0.8635 5.19067 0
M  V30 9231 O 871.049 1.54481 5.47836 0
M  V30 9232 N 872.251 -0.325799 5.79585 0
M  V30 9233 H 875.016 1.85132 2.35682 0
M  V30 9234 H 872.577 1.11048 1.17813 0
M  V30 9235 H 874.569 -0.032996 4.04687 0
M  V30 9236 H 873.139 -0.489242 3.08748 0
M  V30 9237 H 872.359 1.97526 3.41141 0
M  V30 9238 H 873.647 2.1342 4.61876 0
M  V30 9239 H 873.045 -0.896534 5.58551 0
M  V30 9240 H 871.602 -0.651708 6.48534 0
M  V30 9241 N 875.035 -1.20752 1.01276 0
M  V30 9242 C 876.282 -1.90021 0.699887 0
M  V30 9243 C 876.61 -1.78604 -0.770113 0
M  V30 9244 O 875.865 -1.16195 -1.57471 0
M  V30 9245 C 876.164 -3.40808 1.07633 0
M  V30 9246 C 875.83 -3.72423 2.54189 0
M  V30 9247 C 874.492 -3.80762 2.94234 0
M  V30 9248 C 876.844 -3.87025 3.49086 0
M  V30 9249 C 874.172 -4.01158 4.28123 0
M  V30 9250 C 876.524 -4.0893 4.82658 0
M  V30 9251 C 875.188 -4.15498 5.22415 0
M  V30 9252 H 874.458 -0.695335 0.256107 0
M  V30 9253 H 877.105 -1.43096 1.27263 0
M  V30 9254 H 875.41 -3.89521 0.421944 0
M  V30 9255 H 877.107 -3.92693 0.811997 0
M  V30 9256 H 873.697 -3.66529 2.22158 0
M  V30 9257 H 877.881 -3.79942 3.19309 0
M  V30 9258 H 873.137 -4.04476 4.58486 0
M  V30 9259 H 877.311 -4.19172 5.56119 0
M  V30 9260 H 874.938 -4.31055 6.26176 0
M  V30 9261 N 876.513 -0.788492 -1.36457 0
M  V30 9262 C 877.761 -0.359749 -1.98872 0
M  V30 9263 C 878.082 1.07197 -1.62892 0
M  V30 9264 O 877.352 1.73875 -0.902463 0
M  V30 9265 H 875.932 -0.130029 -0.735596 0
M  V30 9266 H 878.594 -1.01033 -1.66668 0
M  V30 9267 H 877.69 -0.450835 -3.08827 0
M  V30 9268 N 877.991 1.48044 -0.54043 0
M  V30 9269 C 879.237 2.02797 -0.0101718 0
M  V30 9270 C 879.57 1.41565 1.32939 0
M  V30 9271 O 878.845 0.565139 1.86109 0
M  V30 9272 C 879.128 3.59959 0.100758 0
M  V30 9273 C 878.981 4.31654 -1.26471 0
M  V30 9274 C 880.3 4.32347 0.822455 0
M  V30 9275 H 877.419 0.736982 -0.00517052 0
M  V30 9276 H 880.061 1.76656 -0.69948 0
M  V30 9277 H 878.211 3.82363 0.687824 0
M  V30 9278 H 879.883 4.20639 -1.89369 0
M  V30 9279 H 878.126 3.92663 -1.84386 0
M  V30 9280 H 878.797 5.401 -1.13998 0
M  V30 9281 H 881.273 4.14835 0.324164 0
M  V30 9282 H 880.149 5.41978 0.868993 0
M  V30 9283 H 880.41 4.00369 1.87501 0
M  V30 9284 N 879.47 0.276058 1.55163 0
M  V30 9285 C 880.698 -0.343772 2.04024 0
M  V30 9286 C 881.113 -1.49397 1.15438 0
M  V30 9287 O 880.47 -1.81662 0.174692 0
M  V30 9288 C 880.521 -0.823885 3.51986 0
M  V30 9289 O 880.242 0.280507 4.37201 0
M  V30 9290 C 881.743 -1.51143 4.16738 0
M  V30 9291 H 878.963 -0.07828 0.666418 0
M  V30 9292 H 881.507 0.408427 2.0038 0
M  V30 9293 H 879.662 -1.52617 3.56071 0
M  V30 9294 H 880.076 -0.0887831 5.24425 0
M  V30 9295 H 881.55 -1.79878 5.2187 0
M  V30 9296 H 882.027 -2.44327 3.64967 0
M  V30 9297 H 882.633 -0.852975 4.16659 0
M  V30 9298 N 880.948 -1.576 0.00335426 0
M  V30 9299 C 881.878 -2.11668 -0.985839 0
M  V30 9300 C 882.859 -1.02661 -1.35627 0
M  V30 9301 O 884.044 -1.30361 -1.43943 0
M  V30 9302 C 881.174 -2.62273 -2.27662 0
M  V30 9303 C 880.128 -3.75837 -2.0477 0
M  V30 9304 C 879.454 -4.12769 -3.39891 0
M  V30 9305 C 880.754 -5.02975 -1.40759 0
M  V30 9306 H 882.448 -2.9457 -0.535637 0
M  V30 9307 H 879.994 -1.41702 -0.256204 0
M  V30 9308 H 881.947 -2.98727 -2.97221 0
M  V30 9309 H 880.671 -1.76498 -2.74802 0
M  V30 9310 H 879.33 -3.39782 -1.37636 0
M  V30 9311 H 878.978 -3.24013 -3.8474 0
M  V30 9312 H 878.678 -4.89281 -3.25389 0
M  V30 9313 H 880.202 -4.51784 -4.1076 0
M  V30 9314 H 881.616 -5.37179 -2.00279 0
M  V30 9315 H 880.013 -5.84315 -1.36734 0
M  V30 9316 H 881.083 -4.83431 -0.377218 0
M  V30 9317 N 882.426 0.269451 -1.5528 0
M  V30 9318 C 883.356 1.33729 -1.91413 0
M  V30 9319 C 884.337 1.51348 -0.776391 0
M  V30 9320 O 885.522 1.64332 -1.03482 0
M  V30 9321 C 882.652 2.69618 -2.18914 0
M  V30 9322 C 881.606 2.66725 -3.34726 0
M  V30 9323 C 880.932 4.06199 -3.47716 0
M  V30 9324 C 882.232 2.25684 -4.71025 0
M  V30 9325 H 883.926 1.03736 -2.80854 0
M  V30 9326 H 881.472 0.497579 -1.3513 0
M  V30 9327 H 883.425 3.44436 -2.42779 0
M  V30 9328 H 882.149 3.01201 -1.26275 0
M  V30 9329 H 880.808 1.94365 -3.10834 0
M  V30 9330 H 880.456 4.3501 -2.52537 0
M  V30 9331 H 880.156 4.05157 -4.25583 0
M  V30 9332 H 881.68 4.8275 -3.73877 0
M  V30 9333 H 883.094 2.90225 -4.94411 0
M  V30 9334 H 881.491 2.35797 -5.51833 0
M  V30 9335 H 882.561 1.20819 -4.69607 0
M  V30 9336 N 883.904 1.48273 0.534124 0
M  V30 9337 C 885.132 1.59734 1.31501 0
M  V30 9338 C 885.547 0.256047 1.87056 0
M  V30 9339 O 884.904 -0.754086 1.66192 0
M  V30 9340 C 884.955 2.64072 2.46877 0
M  V30 9341 O 884.676 3.92995 1.93613 0
M  V30 9342 C 886.177 2.85933 3.38758 0
M  V30 9343 H 883.397 0.538703 0.40005 0
M  V30 9344 H 885.941 1.9407 0.644762 0
M  V30 9345 H 884.096 2.32606 3.09795 0
M  V30 9346 H 884.51 4.50203 2.69106 0
M  V30 9347 H 885.984 3.62749 4.16073 0
M  V30 9348 H 886.461 1.94603 3.93734 0
M  V30 9349 H 887.067 3.18687 2.81636 0
M  V30 9350 N 885.382 -0.782676 1.36792 0
M  V30 9351 C 886.612 -1.56934 1.3437 0
M  V30 9352 C 887.02 -1.89049 -0.0754828 0
M  V30 9353 O 886.363 -1.51103 -1.04467 0
M  V30 9354 C 886.425 -2.91311 2.10661 0
M  V30 9355 C 886.089 -2.81889 3.59705 0
M  V30 9356 C 887.086 -2.53668 4.53815 0
M  V30 9357 C 884.771 -3.00254 4.02682 0
M  V30 9358 C 886.765 -2.43925 5.8888 0
M  V30 9359 C 884.452 -2.90132 5.37835 0
M  V30 9360 C 885.45 -2.62006 6.30747 0
M  V30 9361 O 885.138 -2.5189 7.63418 0
M  V30 9362 H 884.87 -0.493194 0.462316 0
M  V30 9363 H 887.424 -0.978791 1.80579 0
M  V30 9364 H 885.654 -3.52443 1.59125 0
M  V30 9365 H 887.343 -3.52632 2.01012 0
M  V30 9366 H 888.109 -2.39176 4.21924 0
M  V30 9367 H 883.988 -3.21151 3.30731 0
M  V30 9368 H 887.532 -2.21892 6.6137 0
M  V30 9369 H 883.429 -3.04189 5.69332 0
M  V30 9370 H 884.197 -2.67321 7.73616 0
M  V30 9371 N 886.86 -1.21182 -1.00761 0
M  V30 9372 C 887.77 -0.984691 -2.12934 0
M  V30 9373 C 888.786 0.0623657 -1.73888 0
M  V30 9374 O 889.962 -0.1271 -2.00999 0
M  V30 9375 C 887.027 -0.549447 -3.42319 0
M  V30 9376 C 886.088 -1.66841 -3.95553 0
M  V30 9377 C 885.321 -1.25384 -5.18763 0
M  V30 9378 O 885.544 -0.126333 -5.7026 0
M  V30 9379 O 884.478 -2.06475 -5.65377 0
M  V30 9380 H 888.304 -1.92413 -2.3497 0
M  V30 9381 H 885.889 -0.99647 -1.11314 0
M  V30 9382 H 887.771 -0.316384 -4.20211 0
M  V30 9383 H 886.446 0.361304 -3.21677 0
M  V30 9384 H 885.353 -1.95585 -3.189 0
M  V30 9385 H 886.686 -2.55649 -4.206 0
M  V30 9386 N 888.338 1.20213 -1.01915 0
M  V30 9387 C 889.268 2.25336 -0.612023 0
M  V30 9388 C 890.249 1.65933 0.374186 0
M  V30 9389 O 891.434 1.92464 0.259053 0
M  V30 9390 C 888.564 3.47267 0.047904 0
M  V30 9391 C 887.518 4.1928 -0.859557 0
M  V30 9392 C 886.844 5.3466 -0.0652655 0
M  V30 9393 C 888.144 4.75143 -2.1688 0
M  V30 9394 H 889.838 2.59645 -1.49079 0
M  V30 9395 H 887.384 1.24808 -0.718263 0
M  V30 9396 H 889.337 4.19991 0.344294 0
M  V30 9397 H 888.061 3.12129 0.961404 0
M  V30 9398 H 886.72 3.48425 -1.13999 0
M  V30 9399 H 886.368 4.95767 0.849964 0
M  V30 9400 H 886.068 5.83772 -0.669618 0
M  V30 9401 H 887.592 6.10187 0.224612 0
M  V30 9402 H 889.006 5.39672 -1.9346 0
M  V30 9403 H 887.403 5.34702 -2.72422 0
M  V30 9404 H 888.473 3.93744 -2.83008 0
M  V30 9405 N 889.816 0.795718 1.36037 0
M  V30 9406 C 890.746 0.212803 2.32528 0
M  V30 9407 C 891.727 -0.655716 1.56953 0
M  V30 9408 O 892.912 -0.588238 1.85077 0
M  V30 9409 C 890.042 -0.648189 3.41198 0
M  V30 9410 C 888.996 0.120948 4.27829 0
M  V30 9411 C 888.322 -0.861044 5.27722 0
M  V30 9412 C 889.622 1.31375 5.05508 0
M  V30 9413 H 891.316 1.01893 2.81528 0
M  V30 9414 H 888.862 0.491422 1.35355 0
M  V30 9415 H 890.815 -1.06597 4.07695 0
M  V30 9416 H 889.539 -1.48709 2.9078 0
M  V30 9417 H 888.198 0.519777 3.62897 0
M  V30 9418 H 887.846 -1.69515 4.73575 0
M  V30 9419 H 887.546 -0.350808 5.86552 0
M  V30 9420 H 889.07 -1.27726 5.97092 0
M  V30 9421 H 890.484 0.971406 5.6501 0
M  V30 9422 H 888.881 1.75772 5.73781 0
M  V30 9423 H 889.951 2.10593 4.36782 0
M  V30 9424 N 891.294 -1.47756 0.548274 0
M  V30 9425 C 892.226 -2.27921 -0.24177 0
M  V30 9426 C 893.239 -1.36471 -0.887658 0
M  V30 9427 O 894.428 -1.6137 -0.763016 0
M  V30 9428 C 891.528 -3.10449 -1.35922 0
M  V30 9429 C 890.701 -4.298 -0.811808 0
M  V30 9430 C 889.76 -4.93994 -1.81264 0
M  V30 9431 O 888.786 -5.52657 -1.3623 0
M  V30 9432 N 889.988 -4.87882 -3.14566 0
M  V30 9433 H 892.753 -2.96365 0.445848 0
M  V30 9434 H 890.314 -1.57286 0.383769 0
M  V30 9435 H 892.306 -3.50261 -2.02729 0
M  V30 9436 H 890.876 -2.44306 -1.95021 0
M  V30 9437 H 890.096 -3.94186 0.0327929 0
M  V30 9438 H 891.384 -5.0702 -0.425272 0
M  V30 9439 H 890.782 -4.41405 -3.53805 0
M  V30 9440 H 889.339 -5.3174 -3.76956 0
M  V30 9441 N 892.772 -0.284283 -1.55015 0
M  V30 9442 C 894.188 0.069603 -1.59448 0
M  V30 9443 C 894.388 1.53833 -1.30144 0
M  V30 9444 O 893.444 2.2886 -1.06674 0
M  V30 9445 C 894.757 -0.313287 -2.99064 0
M  V30 9446 C 896.305 -0.260662 -3.11913 0
M  V30 9447 C 896.78 -0.618127 -4.5381 0
M  V30 9448 N 898.271 -0.570026 -4.59679 0
M  V30 9449 C 899.006 -0.8193 -5.67517 0
M  V30 9450 N 898.502 -1.13367 -6.83462 0
M  V30 9451 N 900.295 -0.747482 -5.57108 0
M  V30 9452 H 892.446 -1.24167 -1.72326 0
M  V30 9453 H 894.709 -0.502259 -0.804015 0
M  V30 9454 H 894.415 -1.33509 -3.25374 0
M  V30 9455 H 894.289 0.341369 -3.75652 0
M  V30 9456 H 896.676 0.751869 -2.85361 0
M  V30 9457 H 896.757 -0.949706 -2.37517 0
M  V30 9458 H 896.401 -1.62839 -4.81088 0
M  V30 9459 H 896.331 0.092807 -5.26518 0
M  V30 9460 H 898.822 -0.3373 -3.76392 0
M  V30 9461 H 899.135 -1.3103 -7.61611 0
M  V30 9462 H 897.48 -1.17154 -6.85055 0
M  V30 9463 H 900.671 -0.501658 -4.65404 0
M  V30 9464 H 900.844 -0.945128 -6.4107 0
M  V30 9465 N 894.251 1.57596 -0.0117121 0
M  V30 9466 C 895.497 1.92189 0.665966 0
M  V30 9467 C 895.852 0.887145 1.70726 0
M  V30 9468 O 895.145 -0.099151 1.91343 0
M  V30 9469 C 895.339 3.31296 1.34082 0
M  V30 9470 C 895.168 4.48205 0.366406 0
M  V30 9471 C 893.938 5.05293 -0.0274458 0
M  V30 9472 C 896.136 5.12951 -0.37219 0
M  V30 9473 N 894.118 6.0572 -0.998846 0
M  V30 9474 C 895.489 6.08318 -1.1979 0
M  V30 9475 C 897.544 4.95998 -0.434768 0
M  V30 9476 C 896.247 6.88555 -2.0805 0
M  V30 9477 C 898.273 5.7683 -1.30464 0
M  V30 9478 C 897.635 6.71798 -2.11816 0
M  V30 9479 H 893.734 0.751422 0.216537 0
M  V30 9480 H 896.318 1.94556 -0.0748079 0
M  V30 9481 H 894.489 3.2978 2.05182 0
M  V30 9482 H 896.221 3.53285 1.97413 0
M  V30 9483 H 892.976 4.72354 0.343382 0
M  V30 9484 H 893.4 6.60619 -1.48027 0
M  V30 9485 H 898.042 4.22417 0.179925 0
M  V30 9486 H 895.76 7.61453 -2.70581 0
M  V30 9487 H 899.346 5.6575 -1.35712 0
M  V30 9488 H 898.226 7.33256 -2.78037 0
M  V30 9489 N 895.729 -0.261212 1.5542 0
M  V30 9490 C 896.976 -0.99123 1.76581 0
M  V30 9491 C 897.304 -1.85854 0.573457 0
M  V30 9492 O 896.559 -1.90604 -0.443705 0
M  V30 9493 C 896.858 -1.89395 3.03091 0
M  V30 9494 C 896.524 -1.18318 4.351 0
M  V30 9495 C 895.186 -0.986688 4.70975 0
M  V30 9496 C 897.538 -0.678299 5.16767 0
M  V30 9497 C 894.866 -0.272788 5.86065 0
M  V30 9498 C 897.218 0.0220646 6.32596 0
M  V30 9499 C 895.882 0.230161 6.67103 0
M  V30 9500 H 895.152 -0.362717 0.646156 0
M  V30 9501 H 897.799 -0.262506 1.89692 0
M  V30 9502 H 896.104 -2.68927 2.8493 0
M  V30 9503 H 897.801 -2.46022 3.16661 0
M  V30 9504 H 894.391 -1.34625 4.06908 0
M  V30 9505 H 898.575 -0.817691 4.89518 0
M  V30 9506 H 893.831 -0.10095 6.11317 0
M  V30 9507 H 898.005 0.420981 6.95126 0
M  V30 9508 H 895.632 0.785312 7.56133 0
M  V30 9509 N 897.207 -1.48554 -0.526253 0
M  V30 9510 C 898.437 -1.60197 -1.30463 0
M  V30 9511 C 898.845 -0.26278 -1.87366 0
M  V30 9512 O 898.188 0.758537 -1.67308 0
M  V30 9513 C 898.25 -2.59223 -2.49085 0
M  V30 9514 C 897.914 -4.04199 -2.13241 0
M  V30 9515 C 898.911 -4.91771 -1.68694 0
M  V30 9516 C 896.596 -4.49762 -2.2365 0
M  V30 9517 C 898.59 -6.22934 -1.35026 0
M  V30 9518 C 896.277 -5.80945 -1.89594 0
M  V30 9519 C 897.275 -6.67354 -1.45353 0
M  V30 9520 O 896.963 -7.96096 -1.11745 0
M  V30 9521 H 896.695 -0.54284 -0.402866 0
M  V30 9522 H 899.249 -1.95137 -0.641157 0
M  V30 9523 H 897.479 -2.19412 -3.18426 0
M  V30 9524 H 899.168 -2.60661 -3.11144 0
M  V30 9525 H 899.934 -4.57806 -1.6012 0
M  V30 9526 H 895.813 -3.8269 -2.5704 0
M  V30 9527 H 899.357 -6.90334 -1.00422 0
M  V30 9528 H 895.254 -6.14444 -1.9781 0
M  V30 9529 H 896.022 -8.08882 -1.25111 0
M  V30 9530 N 898.685 0.775411 -1.37205 0
M  V30 9531 C 899.934 1.52909 -1.31536 0
M  V30 9532 C 900.247 1.9535 0.0989374 0
M  V30 9533 O 901.453 2.70072 0.278079 0
M  V30 9534 C 899.909 2.761 -2.30861 0
M  V30 9535 C 899.517 2.40773 -3.77799 0
M  V30 9536 C 901.261 3.54052 -2.34195 0
M  V30 9537 C 899.168 3.60444 -4.68865 0
M  V30 9538 H 898.098 0.574061 -0.488845 0
M  V30 9539 H 900.749 0.849642 -1.62645 0
M  V30 9540 H 899.131 3.45916 -1.92764 0
M  V30 9541 H 900.305 1.78764 -4.24712 0
M  V30 9542 H 898.62 1.76004 -3.77375 0
M  V30 9543 H 901.217 4.42992 -2.99437 0
M  V30 9544 H 901.56 3.93649 -1.35449 0
M  V30 9545 H 902.093 2.91229 -2.7098 0
M  V30 9546 H 898.832 3.25932 -5.68725 0
M  V30 9547 H 898.352 4.21571 -4.26659 0
M  V30 9548 H 900.031 4.27302 -4.85821 0
M  V30 9549 N 900.163 1.21714 1.00117 0
M  V30 9550 C 901.44 0.945391 1.71236 0
M  V30 9551 C 901.82 -0.541772 2.0403 0
M  V30 9552 O 901.168 -1.50763 1.71705 0
M  V30 9553 C 901.378 1.83444 2.96899 0
M  V30 9554 C 902.726 2.08558 3.69849 0
M  V30 9555 O 903.75 1.80824 3.06889 0
M  V30 9556 O 902.609 2.55485 4.83104 0
M  V30 9557 H 899.703 0.354834 0.747009 0
M  V30 9558 H 902.249 1.32661 1.05825 0
M  V30 9559 H 901.021 2.84075 2.69105 0
M  V30 9560 H 900.644 1.45428 3.70049 0
M  V30 9561 N 901.641 -1.19671 1.02551 0
M  V30 9562 C 902.888 -1.89268 0.720002 0
M  V30 9563 C 903.216 -1.79411 -0.751127 0
M  V30 9564 O 902.471 -1.17859 -1.5623 0
M  V30 9565 C 902.77 -3.39647 1.11241 0
M  V30 9566 C 902.436 -3.69706 2.58125 0
M  V30 9567 C 901.098 -3.7762 2.98256 0
M  V30 9568 C 903.45 -3.83301 3.53171 0
M  V30 9569 C 900.778 -3.96594 4.32354 0
M  V30 9570 C 903.13 -4.03788 4.86968 0
M  V30 9571 C 901.794 -4.09934 5.26793 0
M  V30 9572 H 901.064 -0.692579 0.263467 0
M  V30 9573 H 903.711 -1.41738 1.28774 0
M  V30 9574 H 902.016 -3.89052 0.463234 0
M  V30 9575 H 903.713 -3.91809 0.853602 0
M  V30 9576 H 900.303 -3.64152 2.26033 0
M  V30 9577 H 904.487 -3.76534 3.2332 0
M  V30 9578 H 899.743 -3.9959 4.6275 0
M  V30 9579 H 903.917 -4.1325 5.60533 0
M  V30 9580 H 901.544 -4.24389 6.30712 0
M  V30 9581 N 903.119 -0.802921 -1.35613 0
M  V30 9582 C 904.367 -0.380822 -1.9848 0
M  V30 9583 C 904.688 1.05464 -1.6402 0
M  V30 9584 O 903.958 1.72908 -0.920854 0
M  V30 9585 H 902.538 -0.137824 -0.734176 0
M  V30 9586 H 905.2 -1.02795 -1.65587 0
M  V30 9587 H 904.296 -0.483565 -3.08331 0
M  V30 9588 N 904.597 1.47463 -0.556102 0
M  V30 9589 C 905.845 2.02075 -0.0315712 0
M  V30 9590 C 906.166 1.43292 1.32259 0
M  V30 9591 O 905.436 0.60771 1.86236 0
M  V30 9592 H 904.016 0.74695 -0.0086816 0
M  V30 9593 H 906.678 1.80879 -0.725859 0
M  V30 9594 H 905.774 3.12047 0.0573538 0
M  V30 9595 N 906.075 0.2925 1.54862 0
M  V30 9596 C 907.321 -0.319736 2.00264 0
M  V30 9597 C 907.654 -1.5419 1.18064 0
M  V30 9598 O 906.929 -1.92821 0.254983 0
M  V30 9599 C 907.212 -0.684753 3.5353 0
M  V30 9600 C 907.065 0.545961 4.46474 0
M  V30 9601 C 908.384 -1.51456 4.13218 0
M  V30 9602 H 905.503 -0.11474 0.728014 0
M  V30 9603 H 908.145 0.402907 1.85679 0
M  V30 9604 H 906.295 -1.30044 3.66089 0
M  V30 9605 H 907.967 1.18448 4.45834 0
M  V30 9606 H 906.21 1.1808 4.1742 0
M  V30 9607 H 906.881 0.246544 5.51449 0
M  V30 9608 H 909.357 -0.994421 4.04043 0
M  V30 9609 H 908.233 -1.73875 5.20633 0
M  V30 9610 H 908.494 -2.5011 3.64551 0
M  V30 9611 N 907.553 -1.57587 0.0200696 0
M  V30 9612 C 908.5 -2.09667 -0.964791 0
M  V30 9613 C 909.47 -0.99664 -1.32877 0
M  V30 9614 O 910.655 -1.2703 -1.42366 0
M  V30 9615 C 907.795 -2.62101 -2.24493 0
M  V30 9616 C 906.908 -3.8608 -1.93821 0
M  V30 9617 C 906.043 -4.26939 -3.16064 0
M  V30 9618 C 905.082 -5.43701 -2.81169 0
M  V30 9619 N 904.219 -5.79759 -3.9601 0
M  V30 9620 H 909.059 -2.93538 -0.513751 0
M  V30 9621 H 906.596 -1.45096 -0.242 0
M  V30 9622 H 908.554 -2.90587 -2.99358 0
M  V30 9623 H 907.184 -1.81074 -2.6723 0
M  V30 9624 H 906.236 -3.64378 -1.09237 0
M  V30 9625 H 907.548 -4.71028 -1.64115 0
M  V30 9626 H 906.702 -4.56814 -3.99257 0
M  V30 9627 H 905.441 -3.40739 -3.48924 0
M  V30 9628 H 904.446 -5.13529 -1.96387 0
M  V30 9629 H 905.671 -6.31593 -2.49535 0
M  V30 9630 H 903.617 -4.96516 -4.28729 0
M  V30 9631 H 903.534 -6.59327 -3.69896 0
M  V30 9632 H 904.802 -6.14235 -4.79933 0
M  V30 9633 N 909.032 0.252966 -1.55557 0
M  V30 9634 C 910.443 0.822503 -1.67606 0
M  V30 9635 C 910.794 1.86265 -0.616411 0
M  V30 9636 O 909.919 2.15082 0.238447 0
M  V30 9637 C 910.514 1.49866 -3.03852 0
M  V30 9638 C 909.073 2.01597 -3.17861 0
M  V30 9639 C 908.22 0.864943 -2.63465 0
M  V30 9640 H 911.171 0.0288958 -1.58674 0
M  V30 9641 H 911.192 2.36646 -2.97958 0
M  V30 9642 H 910.704 0.741378 -3.80953 0
M  V30 9643 H 908.805 2.80224 -2.45571 0
M  V30 9644 H 908.918 2.21752 -4.24692 0
M  V30 9645 H 907.282 1.2638 -2.21134 0
M  V30 9646 H 908.065 0.120847 -3.43087 0
M  V30 9647 N 910.51 1.48831 0.518367 0
M  V30 9648 C 911.443 1.588 1.63884 0
M  V30 9649 C 912.421 0.437847 1.56594 0
M  V30 9650 O 913.605 0.651042 1.769 0
M  V30 9651 C 910.732 1.52681 3.02335 0
M  V30 9652 C 909.778 2.7268 3.27945 0
M  V30 9653 S 910.611 4.34536 3.12951 0
M  V30 9654 C 911.767 4.31034 4.53828 0
M  V30 9655 H 912 2.53587 1.5518 0
M  V30 9656 H 909.533 1.37507 0.702218 0
M  V30 9657 H 911.491 1.49837 3.82177 0
M  V30 9658 H 910.152 0.592107 3.08469 0
M  V30 9659 H 909.345 2.64569 4.28974 0
M  V30 9660 H 908.947 2.72847 2.55794 0
M  V30 9661 H 911.239 4.01683 5.45579 0
M  V30 9662 H 912.182 5.32282 4.66991 0
M  V30 9663 H 912.59 3.61343 4.33695 0
M  V30 9664 N 911.988 -0.768124 1.37614 0
M  V30 9665 C 913.236 -1.52379 1.3276 0
M  V30 9666 C 913.557 -1.94809 -0.0863564 0
M  V30 9667 O 912.827 -1.66568 -1.03112 0
M  V30 9668 H 911.407 -0.565179 0.488448 0
M  V30 9669 H 914.069 -0.913974 1.72141 0
M  V30 9670 H 913.165 -2.4215 1.96901 0
M  V30 9671 N 913.466 -1.22244 -0.994698 0
M  V30 9672 C 914.691 -1.07299 -1.77487 0
M  V30 9673 C 915.116 0.372302 -1.84379 0
M  V30 9674 O 914.474 1.2689 -1.29494 0
M  V30 9675 C 914.522 -1.68675 -3.18718 0
M  V30 9676 O 913.626 -0.939202 -4.01563 0
M  V30 9677 H 912.967 -0.376979 -0.546611 0
M  V30 9678 H 915.497 -1.62003 -1.24965 0
M  V30 9679 H 915.507 -1.73324 -3.69354 0
M  V30 9680 H 914.182 -2.73849 -3.13017 0
M  V30 9681 H 912.759 -0.968583 -3.60101 0
M  V30 9682 N 914.944 1.19125 -1.03184 0
M  V30 9683 C 915.854 2.26112 -0.625329 0
M  V30 9684 C 916.87 1.7056 0.344298 0
M  V30 9685 O 918.046 2.0039 0.20144 0
M  V30 9686 C 915.111 3.46697 0.0145169 0
M  V30 9687 C 914.172 4.17419 -1.00299 0
M  V30 9688 C 913.405 5.32247 -0.393581 0
M  V30 9689 O 913.628 5.64724 0.802659 0
M  V30 9690 O 912.562 5.91428 -1.1179 0
M  V30 9691 H 916.388 2.63131 -1.51643 0
M  V30 9692 H 913.973 1.26036 -0.802197 0
M  V30 9693 H 915.855 4.19762 0.371139 0
M  V30 9694 H 914.53 3.11521 0.879581 0
M  V30 9695 H 913.437 3.4646 -1.41125 0
M  V30 9696 H 914.77 4.56573 -1.83852 0
M  V30 9697 N 916.422 0.810101 1.35185 0
M  V30 9698 C 917.833 0.452616 1.81131 0
M  V30 9699 C 918.184 -1.02573 1.67252 0
M  V30 9700 O 917.309 -1.79735 1.20516 0
M  V30 9701 C 917.904 0.814775 3.28857 0
M  V30 9702 C 916.463 0.509839 3.72931 0
M  V30 9703 C 915.61 1.03852 2.57119 0
M  V30 9704 H 918.561 1.00143 1.23114 0
M  V30 9705 H 918.582 0.113635 3.8033 0
M  V30 9706 H 918.094 1.89078 3.38926 0
M  V30 9707 H 916.195 -0.557289 3.68409 0
M  V30 9708 H 916.308 1.04493 4.67566 0
M  V30 9709 H 914.672 0.460671 2.50499 0
M  V30 9710 H 915.455 2.12071 2.69964 0
M  V30 9711 N 917.9 -1.47166 0.563914 0
M  V30 9712 C 919.146 -2.02756 0.0424338 0
M  V30 9713 C 919.479 -1.43662 -1.3067 0
M  V30 9714 O 918.754 -0.594676 -1.85186 0
M  V30 9715 C 919.037 -3.60074 -0.0434793 0
M  V30 9716 C 918.89 -4.29587 1.33323 0
M  V30 9717 C 920.209 -4.336 -0.753568 0
M  V30 9718 H 917.328 -0.736806 0.0168946 0
M  V30 9719 H 919.97 -1.75521 0.727496 0
M  V30 9720 H 918.12 -3.83409 -0.626906 0
M  V30 9721 H 919.792 -4.17573 1.96037 0
M  V30 9722 H 918.035 -3.8968 1.9061 0
M  V30 9723 H 918.706 -5.38218 1.22576 0
M  V30 9724 H 921.182 -4.15299 -0.258126 0
M  V30 9725 H 920.058 -5.43291 -0.782659 0
M  V30 9726 H 920.319 -4.03302 -1.81108 0
M  V30 9727 N 919.378 -0.300708 -1.54705 0
M  V30 9728 C 920.789 0.191995 -1.8571 0
M  V30 9729 C 921.14 1.53447 -1.22264 0
M  V30 9730 O 920.265 2.10054 -0.520226 0
M  V30 9731 C 920.86 0.355148 -3.36933 0
M  V30 9732 C 919.419 0.792071 -3.67972 0
M  V30 9733 C 918.566 -0.099756 -2.77121 0
M  V30 9734 H 921.517 -0.521729 -1.49879 0
M  V30 9735 H 921.538 1.18977 -3.61421 0
M  V30 9736 H 921.05 -0.622075 -3.83082 0
M  V30 9737 H 919.151 1.77986 -3.27341 0
M  V30 9738 H 919.264 0.611661 -4.75179 0
M  V30 9739 H 917.628 0.420909 -2.51198 0
M  V30 9740 H 918.411 -1.07333 -3.2609 0
M  V30 9741 N 920.856 1.57574 -0.0284266 0
M  V30 9742 C 921.803 2.10176 0.953658 0
M  V30 9743 C 922.773 1.00367 1.32347 0
M  V30 9744 O 923.958 1.27783 1.4169 0
M  V30 9745 C 921.098 2.63287 2.231 0
M  V30 9746 C 920.211 3.87102 1.91771 0
M  V30 9747 C 919.346 4.28609 3.13795 0
M  V30 9748 C 918.385 5.45184 2.78282 0
M  V30 9749 N 917.522 5.81851 3.92929 0
M  V30 9750 H 922.362 2.93806 0.498176 0
M  V30 9751 H 919.899 1.45222 0.234302 0
M  V30 9752 H 921.857 2.9217 2.97813 0
M  V30 9753 H 920.487 1.82489 2.66266 0
M  V30 9754 H 919.539 3.64952 1.07303 0
M  V30 9755 H 920.851 4.71892 1.61615 0
M  V30 9756 H 920.005 4.58925 3.96829 0
M  V30 9757 H 918.744 3.42585 3.47112 0
M  V30 9758 H 917.749 5.14563 1.93661 0
M  V30 9759 H 918.974 6.32907 2.46182 0
M  V30 9760 H 916.92 4.98782 4.2609 0
M  V30 9761 H 916.837 6.6128 3.66395 0
M  V30 9762 H 918.105 6.16772 4.76669 0
M  V30 9763 N 922.334 -0.244713 1.55689 0
M  V30 9764 C 923.559 -0.994157 1.8202 0
M  V30 9765 C 923.984 -1.78079 0.60577 0
M  V30 9766 O 923.342 -1.75748 -0.445221 0
M  V30 9767 C 923.39 -1.90599 3.06111 0
M  V30 9768 O 922.494 -2.99804 2.8318 0
M  V30 9769 H 921.835 -0.282767 0.600782 0
M  V30 9770 H 924.365 -0.26504 2.02876 0
M  V30 9771 H 924.375 -2.32023 3.35603 0
M  V30 9772 H 923.05 -1.32763 3.9414 0
M  V30 9773 H 921.627 -2.62493 2.64862 0
M  V30 9774 N 923.813 -1.49104 -0.510467 0
M  V30 9775 C 925.229 -1.35657 -0.840797 0
M  V30 9776 C 925.429 -0.382425 -1.97838 0
M  V30 9777 O 924.485 0.189331 -2.51789 0
M  V30 9778 C 925.798 -2.76155 -1.18992 0
M  V30 9779 C 927.346 -2.84786 -1.29868 0
M  V30 9780 C 927.821 -4.2603 -1.68115 0
M  V30 9781 N 929.312 -4.28796 -1.75181 0
M  V30 9782 C 930.047 -5.35041 -2.062 0
M  V30 9783 N 929.543 -6.51543 -2.35508 0
M  V30 9784 N 931.336 -5.2245 -2.07371 0
M  V30 9785 H 923.487 -2.11042 0.23982 0
M  V30 9786 H 925.75 -0.946946 0.0446824 0
M  V30 9787 H 925.456 -3.49092 -0.427484 0
M  V30 9788 H 925.33 -3.10922 -2.13558 0
M  V30 9789 H 927.717 -2.12092 -2.05186 0
M  V30 9790 H 927.798 -2.53613 -0.333758 0
M  V30 9791 H 927.442 -4.99247 -0.933512 0
M  V30 9792 H 927.372 -4.5466 -2.65691 0
M  V30 9793 H 929.863 -3.44771 -1.5473 0
M  V30 9794 H 930.176 -7.28342 -2.58337 0
M  V30 9795 H 928.521 -6.54785 -2.32985 0
M  V30 9796 H 931.712 -4.30444 -1.83945 0
M  V30 9797 H 931.885 -6.05347 -2.31212 0
M  V30 9798 N 925.291 0.760815 -1.38019 0
M  V30 9799 C 926.54 1.51506 -1.3315 0
M  V30 9800 C 926.853 1.95444 0.0782124 0
M  V30 9801 O 928.059 2.70352 0.249418 0
M  V30 9802 C 926.515 2.73636 -2.33776 0
M  V30 9803 C 926.123 2.36753 -3.80332 0
M  V30 9804 C 927.867 3.51548 -2.37937 0
M  V30 9805 C 925.774 3.55451 -4.72661 0
M  V30 9806 H 924.704 0.568844 -0.494907 0
M  V30 9807 H 927.355 0.832343 -1.63537 0
M  V30 9808 H 925.737 3.43852 -1.96422 0
M  V30 9809 H 926.911 1.7425 -4.26584 0
M  V30 9810 H 925.226 1.71991 -3.7922 0
M  V30 9811 H 927.823 4.39791 -3.04119 0
M  V30 9812 H 928.166 3.9219 -1.39617 0
M  V30 9813 H 928.699 2.88339 -2.74054 0
M  V30 9814 H 925.438 3.19882 -5.7215 0
M  V30 9815 H 924.958 4.17022 -4.31107 0
M  V30 9816 H 926.637 4.22125 -4.90326 0
M  V30 9817 N 926.769 1.22769 0.988202 0
M  V30 9818 C 927.717 0.999271 2.10041 0
M  V30 9819 C 928.711 -0.0591767 1.69297 0
M  V30 9820 O 929.917 0.0936653 1.79756 0
M  V30 9821 H 926.292 0.30599 0.686931 0
M  V30 9822 H 928.263 1.94294 2.26478 0
M  V30 9823 C 927.012 0.59873 3.42506 0
M  V30 9824 H 926.335 1.40487 3.74304 0
M  V30 9825 H 927.775 0.478353 4.21293 0
M  V30 9826 C 926.234 -0.692216 3.29712 0
M  V30 9827 O 926.764 -1.74342 3.61895 0
M  V30 9828 N 924.97 -0.665163 2.82885 0
M  V30 9829 H 924.517 0.190604 2.56894 0
M  V30 9830 H 924.475 -1.52917 2.74706 0
M  V30 9831 N 928.247 -1.18576 1.03814 0
M  V30 9832 C 929.177 -2.24334 0.647795 0
M  V30 9833 C 930.158 -1.66508 -0.34774 0
M  V30 9834 O 931.343 -1.92852 -0.228401 0
M  V30 9835 C 928.473 -3.47299 0.00734922 0
M  V30 9836 C 927.427 -4.17859 0.926152 0
M  V30 9837 C 926.753 -5.34489 0.150317 0
M  V30 9838 C 928.053 -4.71632 2.24411 0
M  V30 9839 H 929.747 -2.57241 1.53191 0
M  V30 9840 H 927.293 -1.23649 0.738028 0
M  V30 9841 H 929.246 -4.20486 -0.277434 0
M  V30 9842 H 927.97 -3.13619 -0.911626 0
M  V30 9843 H 926.629 -3.46567 1.19528 0
M  V30 9844 H 926.277 -4.97056 -0.770985 0
M  V30 9845 H 925.977 -5.82633 0.762407 0
M  V30 9846 H 927.501 -6.10467 -0.127508 0
M  V30 9847 H 928.915 -5.36526 2.02021 0
M  V30 9848 H 927.312 -5.303 2.80894 0
M  V30 9849 H 928.382 -3.89192 2.89236 0
M  V30 9850 N 929.725 -0.817259 -1.34754 0
M  V30 9851 C 931.136 -0.462215 -1.80888 0
M  V30 9852 C 931.487 1.01685 -1.67794 0
M  V30 9853 O 930.612 1.79094 -1.21468 0
M  V30 9854 C 931.207 -0.832204 -3.2842 0
M  V30 9855 C 929.766 -0.52961 -3.72655 0
M  V30 9856 C 928.913 -1.05214 -2.56564 0
M  V30 9857 H 931.864 -1.00795 -1.22581 0
M  V30 9858 H 931.885 -0.133804 -3.80265 0
M  V30 9859 H 931.397 -1.90873 -3.37919 0
M  V30 9860 H 929.498 0.537743 -3.68699 0
M  V30 9861 H 929.611 -1.06971 -4.67005 0
M  V30 9862 H 927.975 -0.473949 -2.50251 0
M  V30 9863 H 928.758 -2.135 -2.68836 0
M  V30 9864 N 931.203 1.46865 -0.571711 0
M  V30 9865 C 932.166 2.28658 0.157499 0
M  V30 9866 C 933.166 1.37773 0.829172 0
M  V30 9867 O 934.356 1.6026 0.682811 0
M  V30 9868 C 931.488 3.17859 1.23202 0
M  V30 9869 H 932.681 2.94603 -0.561171 0
M  V30 9870 H 930.234 1.52793 -0.329229 0
M  V30 9871 H 930.969 2.56637 1.98262 0
M  V30 9872 H 930.754 3.84762 0.755031 0
M  V30 9873 H 932.244 3.7945 1.74378 0
M  V30 9874 N 932.681 0.308908 1.54543 0
M  V30 9875 C 934.092 -0.182144 1.85809 0
M  V30 9876 C 934.443 -1.52796 1.23076 0
M  V30 9877 O 933.568 -2.09775 0.531358 0
M  V30 9878 C 934.163 -0.337275 3.37117 0
M  V30 9879 C 932.722 -0.772545 3.68387 0
M  V30 9880 C 931.869 0.114451 2.77064 0
M  V30 9881 H 934.82 0.529671 1.496 0
M  V30 9882 H 934.841 -1.17058 3.62046 0
M  V30 9883 H 934.353 0.642382 3.82747 0
M  V30 9884 H 932.454 -1.76247 3.2828 0
M  V30 9885 H 932.567 -0.586453 4.75497 0
M  V30 9886 H 930.931 -0.407581 2.51418 0
M  V30 9887 H 931.714 1.09061 3.25516 0
M  V30 9888 N 934.159 -1.57557 0.0367827 0
M  V30 9889 C 935.107 -2.11844 -0.960454 0
M  V30 9890 C 936.101 -1.04681 -1.33185 0
M  V30 9891 O 937.307 -1.23108 -1.31318 0
M  V30 9892 H 933.682 -0.676921 -0.32754 0
M  V30 9893 H 935.653 -2.94557 -0.477346 0
M  V30 9894 C 934.402 -2.66683 -2.23105 0
M  V30 9895 H 933.725 -3.48795 -1.95403 0
M  V30 9896 H 935.165 -3.08305 -2.91074 0
M  V30 9897 C 933.624 -1.59782 -2.96599 0
M  V30 9898 O 934.154 -1.00214 -3.88999 0
M  V30 9899 N 932.36 -1.31644 -2.59072 0
M  V30 9900 H 931.907 -1.80272 -1.8401 0
M  V30 9901 H 931.865 -0.603457 -3.08554 0
M  V30 9902 N 935.637 0.236453 -1.55816 0
M  V30 9903 C 937.048 0.80468 -1.68469 0
M  V30 9904 C 937.399 1.85601 -0.636133 0
M  V30 9905 O 936.524 2.15323 0.215622 0
M  V30 9906 C 937.119 1.46634 -3.05424 0
M  V30 9907 C 935.678 1.98214 -3.19981 0
M  V30 9908 C 934.825 0.83695 -2.64368 0
M  V30 9909 H 937.776 0.0120647 -1.58695 0
M  V30 9910 H 937.797 2.33472 -3.00451 0
M  V30 9911 H 937.309 0.700931 -3.81718 0
M  V30 9912 H 935.41 2.77604 -2.4853 0
M  V30 9913 H 935.523 2.17235 -4.2702 0
M  V30 9914 H 933.887 1.24028 -2.22462 0
M  V30 9915 H 934.67 0.084451 -3.43196 0
M  V30 9916 N 937.115 1.49373 0.502552 0
M  V30 9917 C 938.392 1.49282 1.26389 0
M  V30 9918 C 938.772 0.219674 2.09954 0
M  V30 9919 O 938.12 -0.797991 2.14113 0
M  V30 9920 C 938.33 2.77083 2.12194 0
M  V30 9921 C 939.678 3.26511 2.71433 0
M  V30 9922 O 940.702 2.78189 2.22462 0
M  V30 9923 O 939.561 4.10665 3.60578 0
M  V30 9924 H 936.655 0.597415 0.57186 0
M  V30 9925 H 939.201 1.61634 0.516951 0
M  V30 9926 H 937.973 3.61237 1.50411 0
M  V30 9927 H 937.596 2.67583 2.94084 0
M  V30 9928 N 938.594 -0.753485 1.38421 0
M  V30 9929 C 939.544 -1.85788 1.32162 0
M  V30 9930 C 940.528 -1.59577 0.20588 0
M  V30 9931 O 941.72 -1.71396 0.44186 0
M  V30 9932 C 938.849 -3.23498 1.14909 0
M  V30 9933 C 937.935 -3.556 2.31105 0
M  V30 9934 N 938.326 -3.58759 3.56547 0
M  V30 9935 C 936.624 -3.85866 2.23659 0
M  V30 9936 C 937.325 -3.8813 4.33278 0
M  V30 9937 N 936.301 -4.04966 3.62635 0
M  V30 9938 H 940.103 -1.86509 2.27138 0
M  V30 9939 H 937.617 -0.950843 1.31654 0
M  V30 9940 H 939.614 -4.02531 1.08509 0
M  V30 9941 H 938.274 -3.24029 0.20866 0
M  V30 9942 H 939.285 -3.40517 3.90216 0
M  V30 9943 H 935.962 -3.94112 1.37776 0
M  V30 9944 H 937.352 -3.97197 5.41926 0
M  V30 9945 N 940.072 -1.23292 -0.981677 0
M  V30 9946 C 941.318 -1.06582 -1.72535 0
M  V30 9947 C 941.651 0.396538 -1.90108 0
M  V30 9948 O 940.926 1.29363 -1.45243 0
M  V30 9949 C 941.209 -1.7904 -3.12437 0
M  V30 9950 C 941.062 -3.32941 -3.02441 0
M  V30 9951 C 942.381 -1.55185 -4.11832 0
M  V30 9952 H 939.5 -0.388585 -0.626236 0
M  V30 9953 H 942.142 -1.51779 -1.14293 0
M  V30 9954 H 940.292 -1.40619 -3.62158 0
M  V30 9955 H 941.964 -3.80875 -2.60254 0
M  V30 9956 H 940.207 -3.62039 -2.38977 0
M  V30 9957 H 940.878 -3.78827 -4.0149 0
M  V30 9958 H 943.354 -1.88581 -3.70913 0
M  V30 9959 H 942.23 -2.08362 -5.07815 0
M  V30 9960 H 942.491 -0.486925 -4.3941 0
M  V30 9961 N 941.55 1.18024 -1.04442 0
M  V30 9962 C 942.798 1.87727 -0.74854 0
M  V30 9963 C 943.119 1.80975 0.726156 0
M  V30 9964 O 942.389 1.23061 1.52423 0
M  V30 9965 H 940.969 0.694974 -0.273897 0
M  V30 9966 H 943.631 1.43213 -1.32197 0
M  V30 9967 H 942.727 2.93665 -1.05674 0
M  V30 9968 N 943.028 0.824394 1.34319 0
M  V30 9969 C 944.276 0.41235 1.97849 0
M  V30 9970 C 944.597 -1.02841 1.65677 0
M  V30 9971 O 943.867 -1.71421 0.948245 0
M  V30 9972 H 942.447 0.149486 0.73189 0
M  V30 9973 H 945.109 1.05416 1.63931 0
M  V30 9974 H 944.205 0.532557 3.07523 0
M  V30 9975 N 944.506 -1.46559 0.579492 0
M  V30 9976 C 945.736 -2.06484 0.0692642 0
M  V30 9977 C 946.144 -1.4293 -1.23967 0
M  V30 9978 O 945.487 -0.527632 -1.75959 0
M  V30 9979 C 945.549 -3.59078 -0.174174 0
M  V30 9980 C 945.213 -4.44805 1.04867 0
M  V30 9981 C 946.21 -4.81543 1.95991 0
M  V30 9982 C 943.895 -4.8599 1.26961 0
M  V30 9983 C 945.889 -5.58288 3.0756 0
M  V30 9984 C 943.576 -5.62495 2.38836 0
M  V30 9985 C 944.574 -5.98558 3.28964 0
M  V30 9986 O 944.262 -6.73518 4.38896 0
M  V30 9987 H 943.994 -0.673917 0.0530331 0
M  V30 9988 H 946.548 -1.89223 0.79898 0
M  V30 9989 H 944.778 -3.74634 -0.958464 0
M  V30 9990 H 946.467 -4.00941 -0.632515 0
M  V30 9991 H 947.233 -4.50307 1.80136 0
M  V30 9992 H 943.112 -4.57372 0.577184 0
M  V30 9993 H 946.656 -5.86355 3.77933 0
M  V30 9994 H 942.553 -5.93145 2.54655 0
M  V30 9995 H 943.321 -6.91938 4.37223 0
M  V30 9996 N 945.984 -0.3171 -1.54377 0
M  V30 9997 C 946.931 0.551782 -2.24107 0
M  V30 9998 C 947.901 1.11681 -1.22949 0
M  V30 9999 O 949.086 1.15836 -1.51614 0
M  V30 10000 C 946.226 1.70997 -2.99756 0
M  V30 10001 C 945.339 1.17479 -4.15719 0
M  V30 10002 C 944.474 2.29815 -4.78914 0
M  V30 10003 C 943.513 1.73513 -5.86992 0
M  V30 10004 N 942.65 2.79485 -6.44075 0
M  V30 10005 H 947.49 -0.049431 -2.97959 0
M  V30 10006 H 945.027 -0.0361658 -1.47056 0
M  V30 10007 H 946.985 2.39141 -3.41859 0
M  V30 10008 H 945.615 2.28257 -2.28251 0
M  V30 10009 H 944.667 0.385109 -3.78446 0
M  V30 10010 H 945.979 0.72276 -4.93536 0
M  V30 10011 H 945.133 3.05875 -5.23952 0
M  V30 10012 H 943.872 2.78352 -4.00464 0
M  V30 10013 H 942.877 0.959475 -5.41363 0
M  V30 10014 H 944.102 1.2586 -6.67335 0
M  V30 10015 H 942.048 3.27325 -5.68502 0
M  V30 10016 H 941.965 2.38825 -7.17286 0
M  V30 10017 H 943.233 3.55394 -6.93769 0
M  V30 10018 N 947.462 1.57535 -0.0451378 0
M  V30 10019 C 948.392 2.14208 0.929372 0
M  V30 10020 C 949.373 1.06221 1.32858 0
M  V30 10021 O 950.558 1.34132 1.40436 0
M  V30 10022 C 947.688 2.68217 2.20629 0
M  V30 10023 C 946.642 3.81134 1.94734 0
M  V30 10024 C 945.968 4.21636 3.28828 0
M  V30 10025 C 947.268 5.06531 1.27374 0
M  V30 10026 H 948.962 2.95886 0.457348 0
M  V30 10027 H 946.508 1.42332 0.218544 0
M  V30 10028 H 948.461 3.06502 2.89196 0
M  V30 10029 H 947.185 1.83722 2.70026 0
M  V30 10030 H 945.844 3.43312 1.28579 0
M  V30 10031 H 945.492 3.34099 3.76014 0
M  V30 10032 H 945.192 4.97736 3.12302 0
M  V30 10033 H 946.716 4.62516 3.98637 0
M  V30 10034 H 948.13 5.423 1.85967 0
M  V30 10035 H 946.527 5.87735 1.21194 0
M  V30 10036 H 947.597 4.84261 0.248913 0
M  V30 10037 N 948.94 -0.228186 1.55939 0
M  V30 10038 C 949.903 -1.26621 1.91049 0
M  V30 10039 C 950.903 -1.40141 0.788491 0
M  V30 10040 O 952.093 -1.3852 1.05631 0
M  V30 10041 C 949.225 -2.64108 2.15545 0
M  V30 10042 H 950.418 -0.966978 2.83883 0
M  V30 10043 H 947.971 -0.468313 1.49119 0
M  V30 10044 H 948.706 -2.99141 1.25241 0
M  V30 10045 H 948.491 -2.55673 2.97277 0
M  V30 10046 H 949.981 -3.39025 2.43827 0
M  V30 10047 N 950.418 -1.49637 -0.494624 0
M  V30 10048 C 951.664 -1.59681 -1.25019 0
M  V30 10049 C 951.997 -0.285511 -1.9209 0
M  V30 10050 O 951.272 0.711398 -1.81023 0
M  V30 10051 C 951.555 -2.76058 -2.31222 0
M  V30 10052 C 951.408 -4.17002 -1.68611 0
M  V30 10053 C 952.727 -2.88056 -3.32734 0
M  V30 10054 H 949.846 -0.581209 -0.453172 0
M  V30 10055 H 952.488 -1.81944 -0.547391 0
M  V30 10056 H 950.638 -2.57207 -2.91164 0
M  V30 10057 H 952.31 -4.47385 -1.12447 0
M  V30 10058 H 950.553 -4.22352 -0.989991 0
M  V30 10059 H 951.224 -4.94316 -2.45674 0
M  V30 10060 H 953.7 -3.05237 -2.82789 0
M  V30 10061 H 952.576 -3.71151 -4.04399 0
M  V30 10062 H 952.837 -1.97676 -3.95445 0
M  V30 10063 N 951.896 0.746133 -1.38819 0
M  V30 10064 C 952.859 1.84167 -1.36437 0
M  V30 10065 C 953.859 1.58626 -0.263499 0
M  V30 10066 O 955.049 1.66233 -0.520801 0
M  V30 10067 C 952.181 3.21769 -1.12596 0
M  V30 10068 H 953.374 1.87684 -2.33912 0
M  V30 10069 H 950.927 0.948625 -1.24221 0
M  V30 10070 H 951.662 3.23917 -0.15758 0
M  V30 10071 H 951.447 3.41702 -1.92307 0
M  V30 10072 H 952.937 4.0184 -1.13643 0
M  V30 10073 N 953.375 1.23811 0.975125 0
M  V30 10074 C 954.603 1.10019 1.75224 0
M  V30 10075 C 955.018 -0.34791 1.85567 0
M  V30 10076 O 954.375 -1.24043 1.33864 0
M  V30 10077 C 954.426 1.72572 3.1765 0
M  V30 10078 O 954.147 3.11719 3.07836 0
M  V30 10079 C 955.648 1.64292 4.11732 0
M  V30 10080 H 952.868 0.38476 0.549728 0
M  V30 10081 H 955.412 1.63768 1.22476 0
M  V30 10082 H 953.567 1.22843 3.67408 0
M  V30 10083 H 953.981 3.42152 3.97533 0
M  V30 10084 H 955.455 2.12754 5.09352 0
M  V30 10085 H 955.932 0.602722 4.35045 0
M  V30 10086 H 956.538 2.13411 3.6788 0
M  V30 10087 N 954.853 -1.17469 1.05066 0
M  V30 10088 C 956.1 -1.87698 0.759987 0
M  V30 10089 C 956.428 -1.80964 -0.712902 0
M  V30 10090 O 955.683 -1.21146 -1.53695 0
M  V30 10091 C 955.982 -3.37211 1.18421 0
M  V30 10092 C 955.648 -3.64148 2.65909 0
M  V30 10093 C 954.31 -3.71209 3.06199 0
M  V30 10094 C 956.662 -3.75724 3.61222 0
M  V30 10095 C 953.99 -3.87334 4.40669 0
M  V30 10096 C 956.342 -3.93368 4.95424 0
M  V30 10097 C 955.006 -3.98667 5.3537 0
M  V30 10098 H 954.276 -0.686835 0.278099 0
M  V30 10099 H 956.923 -1.38975 1.31751 0
M  V30 10100 H 955.228 -3.87982 0.545654 0
M  V30 10101 H 956.925 -3.89911 0.936518 0
M  V30 10102 H 953.515 -3.59276 2.33707 0
M  V30 10103 H 957.699 -3.69591 3.31235 0
M  V30 10104 H 952.955 -3.89685 4.71122 0
M  V30 10105 H 957.129 -4.01267 5.69173 0
M  V30 10106 H 954.756 -4.10915 6.39572 0
M  V30 10107 N 956.331 -0.831506 -1.3388 0
M  V30 10108 C 957.294 -0.264773 -2.27666 0
M  V30 10109 C 958.294 0.562273 -1.50649 0
M  V30 10110 O 959.484 0.377131 -1.70069 0
M  V30 10111 C 956.616 0.627814 -3.35069 0
M  V30 10112 H 957.809 -1.09225 -2.79303 0
M  V30 10113 H 955.362 -0.604021 -1.44157 0
M  V30 10114 H 956.097 1.47802 -2.88661 0
M  V30 10115 H 955.882 0.0361552 -3.92083 0
M  V30 10116 H 957.372 1.01786 -4.05005 0
M  V30 10117 N 957.809 1.4625 -0.587256 0
M  V30 10118 C 959.057 2.01963 -0.0744273 0
M  V30 10119 C 959.378 1.46065 1.29189 0
M  V30 10120 O 958.648 0.647077 1.84905 0
M  V30 10121 H 957.228 0.746597 -0.0245236 0
M  V30 10122 H 959.89 1.79299 -0.764063 0
M  V30 10123 H 958.986 3.12099 -0.00884894 0
M  V30 10124 N 959.287 0.325282 1.54207 0
M  V30 10125 C 960.536 -0.27768 1.99779 0
M  V30 10126 C 960.849 -1.5311 1.21723 0
M  V30 10127 O 962.055 -2.21017 1.57682 0
M  V30 10128 C 960.511 -0.545329 3.55745 0
M  V30 10129 C 960.119 0.691143 4.42637 0
M  V30 10130 C 961.863 -1.10815 4.09781 0
M  V30 10131 C 959.77 0.395302 5.90077 0
M  V30 10132 H 958.7 -0.107536 0.746292 0
M  V30 10133 H 961.351 0.437773 1.78202 0
M  V30 10134 H 959.733 -1.32101 3.73317 0
M  V30 10135 H 960.907 1.46653 4.3684 0
M  V30 10136 H 959.222 1.1743 3.99499 0
M  V30 10137 H 961.819 -1.34414 5.1753 0
M  V30 10138 H 962.162 -2.05806 3.6187 0
M  V30 10139 H 962.695 -0.393608 3.95848 0
M  V30 10140 H 959.434 1.31443 6.42186 0
M  V30 10141 H 958.954 -0.34235 5.98822 0
M  V30 10142 H 960.633 0.00576877 6.47 0
M  V30 10143 N 960.765 -1.57509 0.0534917 0
M  V30 10144 C 961.675 -2.15152 -0.935249 0
M  V30 10145 C 962.691 -1.10991 -1.34003 0
M  V30 10146 O 963.867 -1.43171 -1.41648 0
M  V30 10147 C 960.932 -2.68699 -2.19093 0
M  V30 10148 C 959.993 -3.87666 -1.84428 0
M  V30 10149 C 959.226 -4.3865 -3.0401 0
M  V30 10150 O 959.449 -3.887 -4.17455 0
M  V30 10151 O 958.383 -5.30209 -2.84889 0
M  V30 10152 H 962.209 -2.99962 -0.475009 0
M  V30 10153 H 959.794 -1.48446 -0.16854 0
M  V30 10154 H 961.676 -3.03098 -2.92762 0
M  V30 10155 H 960.351 -1.86958 -2.6425 0
M  V30 10156 H 959.258 -3.58151 -1.08068 0
M  V30 10157 H 960.591 -4.70643 -1.44068 0
M  V30 10158 N 962.243 0.219913 -1.56058 0
M  V30 10159 C 963.191 1.29215 -1.93407 0
M  V30 10160 C 964.185 1.48434 -0.816307 0
M  V30 10161 O 965.391 1.49589 -1.00115 0
M  V30 10162 H 961.766 0.433256 -0.614649 0
M  V30 10163 H 963.737 0.949977 -2.82875 0
M  V30 10164 C 962.486 2.63501 -2.26854 0
M  V30 10165 H 961.809 2.4952 -3.12377 0
M  V30 10166 H 963.249 3.37334 -2.56869 0
M  V30 10167 C 961.708 3.18634 -1.09425 0
M  V30 10168 O 962.238 4.00117 -0.356243 0
M  V30 10169 N 960.444 2.7703 -0.877642 0
M  V30 10170 H 959.991 2.10875 -1.47951 0
M  V30 10171 H 959.949 3.1426 -0.0936792 0
M  V30 10172 N 963.721 1.49897 0.486681 0
M  V30 10173 C 964.668 1.67619 1.58658 0
M  V30 10174 C 965.638 0.517537 1.57831 0
M  V30 10175 O 966.823 0.746272 1.756 0
M  V30 10176 C 963.963 1.762 2.96728 0
M  V30 10177 C 963.076 3.03465 3.07462 0
M  V30 10178 C 962.211 3.02937 4.36351 0
M  V30 10179 C 961.25 4.24721 4.4077 0
M  V30 10180 N 960.387 4.22021 5.61108 0
M  V30 10181 H 965.227 2.61528 1.42853 0
M  V30 10182 H 962.764 1.29657 0.694807 0
M  V30 10183 H 964.722 1.79156 3.76774 0
M  V30 10184 H 963.352 0.857452 3.11203 0
M  V30 10185 H 962.404 3.10054 2.20387 0
M  V30 10186 H 963.716 3.93454 3.06586 0
M  V30 10187 H 962.87 3.04536 5.24731 0
M  V30 10188 H 961.609 2.10751 4.39813 0
M  V30 10189 H 960.614 4.23352 3.5079 0
M  V30 10190 H 961.839 5.18116 4.39013 0
M  V30 10191 H 959.785 3.3268 5.65385 0
M  V30 10192 H 959.702 5.05761 5.61909 0
M  V30 10193 H 960.97 4.27743 6.51656 0
M  V30 10194 N 965.199 -0.738761 1.39212 0
M  V30 10195 C 966.446 -1.49824 1.36231 0
M  V30 10196 C 966.774 -1.94453 -0.0429552 0
M  V30 10197 O 966.029 -1.6683 -1.02304 0
M  V30 10198 C 966.328 -2.75435 2.2775 0
M  V30 10199 C 965.994 -2.49694 3.75451 0
M  V30 10200 C 964.656 -2.42383 4.15697 0
M  V30 10201 C 967.008 -2.27587 4.68885 0
M  V30 10202 C 964.336 -2.11001 5.47444 0
M  V30 10203 C 966.688 -1.97723 6.00906 0
M  V30 10204 C 965.352 -1.88879 6.4022 0
M  V30 10205 H 964.622 -0.548247 0.498504 0
M  V30 10206 H 967.269 -0.848244 1.71689 0
M  V30 10207 H 965.574 -3.45159 1.85398 0
M  V30 10208 H 967.271 -3.33449 2.22739 0
M  V30 10209 H 963.861 -2.56261 3.43552 0
M  V30 10210 H 968.045 -2.32206 4.38628 0
M  V30 10211 H 963.301 -2.02673 5.76831 0
M  V30 10212 H 967.475 -1.79625 6.72836 0
M  V30 10213 H 965.102 -1.64327 7.42227 0
M  V30 10214 N 966.677 -1.24326 -0.968545 0
M  V30 10215 C 967.925 -1.08032 -1.70803 0
M  V30 10216 C 968.246 0.381728 -1.91227 0
M  V30 10217 O 967.516 1.27253 -1.48942 0
M  V30 10218 H 966.096 -0.396777 -0.632912 0
M  V30 10219 H 968.758 -1.56232 -1.16523 0
M  V30 10220 H 967.854 -1.57769 -2.69287 0
M  V30 10221 N 968.156 1.1691 -1.05688 0
M  V30 10222 C 969.086 2.23275 -0.683402 0
M  V30 10223 C 970.067 1.6704 0.321206 0
M  V30 10224 O 971.252 1.93191 0.197691 0
M  V30 10225 C 968.382 3.47244 -0.0626006 0
M  V30 10226 C 967.336 4.16333 -0.992513 0
M  V30 10227 C 966.662 5.34182 -0.23533 0
M  V30 10228 C 967.962 4.68002 -2.31886 0
M  V30 10229 H 969.656 2.54771 -1.57264 0
M  V30 10230 H 967.202 1.2246 -0.757606 0
M  V30 10231 H 969.155 4.20874 0.210503 0
M  V30 10232 H 967.879 3.1503 0.861616 0
M  V30 10233 H 966.538 3.44622 -1.25026 0
M  V30 10234 H 966.186 4.9822 0.69181 0
M  V30 10235 H 965.886 5.81346 -0.855002 0
M  V30 10236 H 967.41 6.10592 0.0303717 0
M  V30 10237 H 968.824 5.33244 -2.10531 0
M  V30 10238 H 967.221 5.25764 -2.89296 0
M  V30 10239 H 968.291 3.84541 -2.95391 0
M  V30 10240 N 969.634 0.838594 1.33437 0
M  V30 10241 C 970.864 0.446995 2.01707 0
M  V30 10242 C 971.272 -0.956335 1.63251 0
M  V30 10243 O 970.615 -1.63289 0.841566 0
M  V30 10244 C 970.677 0.487707 3.56176 0
M  V30 10245 C 970.341 1.8471 4.18009 0
M  V30 10246 C 971.338 2.81028 4.374 0
M  V30 10247 C 969.023 2.13987 4.54439 0
M  V30 10248 C 971.017 4.04785 4.92369 0
M  V30 10249 C 968.704 3.38 5.09116 0
M  V30 10250 C 969.702 4.33216 5.28027 0
M  V30 10251 O 969.39 5.55036 5.81541 0
M  V30 10252 H 969.122 0.175799 0.652741 0
M  V30 10253 H 971.676 1.13265 1.71348 0
M  V30 10254 H 969.906 -0.254719 3.8586 0
M  V30 10255 H 971.595 0.113971 4.0574 0
M  V30 10256 H 972.361 2.5971 4.09604 0
M  V30 10257 H 968.24 1.40668 4.39014 0
M  V30 10258 H 971.784 4.79114 5.07046 0
M  V30 10259 H 967.681 3.59175 5.36343 0
M  V30 10260 H 968.449 5.56772 5.99956 0
M  V30 10261 N 971.112 -1.45937 0.595003 0
M  V30 10262 C 972.042 -2.33198 -0.11871 0
M  V30 10263 C 973.023 -1.46083 -0.871423 0
M  V30 10264 O 974.208 -1.74879 -0.844461 0
M  V30 10265 C 971.338 -3.28576 -1.12495 0
M  V30 10266 C 970.292 -4.25229 -0.486275 0
M  V30 10267 C 969.618 -5.10204 -1.59986 0
M  V30 10268 C 970.918 -5.19019 0.584473 0
M  V30 10269 H 972.612 -2.93122 0.609886 0
M  V30 10270 H 970.158 -1.40951 0.294742 0
M  V30 10271 H 972.111 -3.88485 -1.6327 0
M  V30 10272 H 970.835 -2.66784 -1.88398 0
M  V30 10273 H 969.494 -3.666 0.000507962 0
M  V30 10274 H 969.142 -4.44789 -2.34886 0
M  V30 10275 H 968.842 -5.75669 -1.1781 0
M  V30 10276 H 970.366 -5.7298 -2.11014 0
M  V30 10277 H 971.78 -5.73073 0.161297 0
M  V30 10278 H 970.177 -5.92893 0.927256 0
M  V30 10279 H 971.247 -4.62208 1.46601 0
M  V30 10280 N 972.59 -0.333456 -1.54032 0
M  V30 10281 C 974.001 0.15256 -1.86076 0
M  V30 10282 C 974.352 1.50819 -1.25492 0
M  V30 10283 O 973.477 2.08903 -0.564665 0
M  V30 10284 C 974.072 0.283599 -3.37611 0
M  V30 10285 C 972.631 0.713841 -3.69569 0
M  V30 10286 C 971.778 -0.158515 -2.76847 0
M  V30 10287 H 974.729 -0.553404 -1.48738 0
M  V30 10288 H 974.75 1.11284 -3.63863 0
M  V30 10289 H 974.262 -0.703193 -3.81676 0
M  V30 10290 H 972.363 1.71002 -3.31042 0
M  V30 10291 H 972.476 0.510731 -4.7637 0
M  V30 10292 H 970.84 0.367531 -2.52034 0
M  V30 10293 H 971.623 -1.14226 -3.2374 0
M  V30 10294 N 974.068 1.57479 -0.061844 0
M  V30 10295 C 974.998 2.15181 0.9066 0
M  V30 10296 C 975.979 1.07624 1.31724 0
M  V30 10297 O 977.164 1.35614 1.39006 0
M  V30 10298 C 974.294 2.70542 2.17771 0
M  V30 10299 C 973.248 3.83178 1.9068 0
M  V30 10300 C 972.574 4.25099 3.24337 0
M  V30 10301 C 973.874 5.07853 1.21994 0
M  V30 10302 H 975.568 2.96355 0.42594 0
M  V30 10303 H 973.114 1.42556 0.203435 0
M  V30 10304 H 975.067 3.09552 2.85929 0
M  V30 10305 H 973.791 1.86575 2.68062 0
M  V30 10306 H 972.45 3.44656 1.24931 0
M  V30 10307 H 972.098 3.38069 3.72449 0
M  V30 10308 H 971.798 5.01021 3.07005 0
M  V30 10309 H 973.322 4.66718 3.93709 0
M  V30 10310 H 974.736 5.44242 1.80204 0
M  V30 10311 H 973.133 5.88987 1.14954 0
M  V30 10312 H 974.203 4.84497 0.197536 0
M  V30 10313 N 975.546 -0.211634 1.56173 0
M  V30 10314 C 976.793 -0.93455 1.79645 0
M  V30 10315 C 977.121 -1.83936 0.632294 0
M  V30 10316 O 976.376 -1.91919 -0.382841 0
M  V30 10317 C 976.675 -1.79657 3.08963 0
M  V30 10318 C 976.341 -1.04415 4.38644 0
M  V30 10319 C 975.003 -0.836351 4.73876 0
M  V30 10320 C 977.355 -0.51355 5.18664 0
M  V30 10321 C 974.683 -0.0861976 5.86637 0
M  V30 10322 C 977.035 0.223309 6.32206 0
M  V30 10323 C 975.699 0.442279 6.66033 0
M  V30 10324 H 974.969 -0.341976 0.657368 0
M  V30 10325 H 977.616 -0.202024 1.90431 0
M  V30 10326 H 975.921 -2.59726 2.93342 0
M  V30 10327 H 977.618 -2.35823 3.24328 0
M  V30 10328 H 974.208 -1.21611 4.10985 0
M  V30 10329 H 978.392 -0.661541 4.91871 0
M  V30 10330 H 973.648 0.0935866 6.11328 0
M  V30 10331 H 977.822 0.641917 6.93435 0
M  V30 10332 H 975.449 1.02547 7.53252 0
M  V30 10333 N 977.024 -1.50153 -0.478725 0
M  V30 10334 C 977.971 -1.68458 -1.57767 0
M  V30 10335 C 978.941 -0.5259 -1.57555 0
M  V30 10336 O 980.126 -0.755574 -1.75202 0
M  V30 10337 C 977.266 -1.77772 -2.95789 0
M  V30 10338 C 976.379 -3.05092 -3.05848 0
M  V30 10339 C 975.514 -3.05247 -4.34739 0
M  V30 10340 C 974.553 -4.27053 -4.38512 0
M  V30 10341 N 973.69 -4.24991 -5.58862 0
M  V30 10342 H 978.53 -2.62282 -1.41464 0
M  V30 10343 H 976.067 -1.30023 -0.687921 0
M  V30 10344 H 978.025 -1.81152 -3.75819 0
M  V30 10345 H 976.655 -0.873944 -3.10744 0
M  V30 10346 H 975.707 -3.11219 -2.1874 0
M  V30 10347 H 977.019 -3.95075 -3.04495 0
M  V30 10348 H 976.173 -3.07314 -5.23109 0
M  V30 10349 H 974.912 -2.13081 -4.38689 0
M  V30 10350 H 973.917 -4.25206 -3.4854 0
M  V30 10351 H 975.142 -5.20437 -4.36259 0
M  V30 10352 H 973.088 -3.35674 -5.63612 0
M  V30 10353 H 973.005 -5.08734 -5.59219 0
M  V30 10354 H 974.273 -4.31193 -6.49379 0
M  V30 10355 N 978.502 0.731368 -1.39602 0
M  V30 10356 C 979.913 1.30981 -1.33045 0
M  V30 10357 C 980.264 1.962 0.00349918 0
M  V30 10358 O 979.389 1.96539 0.905615 0
M  V30 10359 C 979.984 2.3817 -2.40958 0
M  V30 10360 C 978.543 2.91678 -2.3791 0
M  V30 10361 C 977.69 1.65286 -2.22656 0
M  V30 10362 H 980.641 0.528615 -1.49637 0
M  V30 10363 H 980.662 3.18645 -2.07955 0
M  V30 10364 H 980.174 1.90673 -3.38032 0
M  V30 10365 H 978.275 3.43446 -1.44485 0
M  V30 10366 H 978.388 3.44545 -3.32904 0
M  V30 10367 H 976.752 1.89759 -1.69893 0
M  V30 10368 H 977.535 1.19836 -3.21705 0
M  V30 10369 N 979.98 1.24838 0.961938 0
M  V30 10370 C 981.205 1.11967 1.7458 0
M  V30 10371 C 981.63 -0.323287 1.85301 0
M  V30 10372 O 980.988 -1.23412 1.32812 0
M  V30 10373 C 981.036 1.77066 3.14134 0
M  V30 10374 O 980.14 1.04534 3.98932 0
M  V30 10375 H 979.481 0.391338 0.536424 0
M  V30 10376 H 982.011 1.65259 1.20626 0
M  V30 10377 H 982.021 1.83056 3.64629 0
M  V30 10378 H 980.696 2.82052 3.05646 0
M  V30 10379 H 979.273 1.06372 3.57407 0
M  V30 10380 N 981.458 -1.16348 1.06306 0
M  V30 10381 C 982.704 -1.87158 0.781007 0
M  V30 10382 C 983.037 -1.81499 -0.690784 0
M  V30 10383 O 982.312 -1.23074 -1.50609 0
M  V30 10384 C 982.595 -3.3672 1.27639 0
M  V30 10385 C 982.448 -3.51069 2.81194 0
M  V30 10386 C 983.767 -4.31122 0.884388 0
M  V30 10387 H 980.886 -0.679586 0.285187 0
M  V30 10388 H 983.528 -1.36756 1.31901 0
M  V30 10389 H 981.678 -3.79775 0.818715 0
M  V30 10390 H 983.35 -3.16952 3.35171 0
M  V30 10391 H 981.593 -2.92976 3.19918 0
M  V30 10392 H 982.264 -4.56105 3.10921 0
M  V30 10393 H 984.74 -3.95969 1.27858 0
M  V30 10394 H 983.616 -5.34279 1.25847 0
M  V30 10395 H 983.877 -4.41598 -0.210673 0
M  V30 10396 N 982.937 -0.845659 -1.3299 0
M  V30 10397 C 984.162 -0.457435 -2.02293 0
M  V30 10398 C 984.587 0.935634 -1.63179 0
M  V30 10399 O 983.945 1.61297 -0.827835 0
M  V30 10400 C 983.993 -0.593665 -3.5568 0
M  V30 10401 O 983.097 0.37729 -4.10671 0
M  V30 10402 H 982.438 -0.185022 -0.637701 0
M  V30 10403 H 984.968 -1.14237 -1.69738 0
M  V30 10404 H 984.978 -0.477834 -4.05192 0
M  V30 10405 H 983.653 -1.60957 -3.83491 0
M  V30 10406 H 982.23 0.218448 -3.7226 0
M  V30 10407 N 984.415 1.45619 -0.602734 0
M  V30 10408 C 985.643 2.06647 -0.102253 0
M  V30 10409 C 986.058 1.4482 1.21131 0
M  V30 10410 O 985.415 0.560621 1.73676 0
M  V30 10411 C 985.466 3.61467 0.0490113 0
M  V30 10412 O 985.187 4.20985 -1.21257 0
M  V30 10413 C 986.688 4.39469 0.581517 0
M  V30 10414 H 983.908 0.667685 -0.0666155 0
M  V30 10415 H 986.452 1.86939 -0.829091 0
M  V30 10416 H 984.607 3.80534 0.726153 0
M  V30 10417 H 985.021 5.14103 -1.03915 0
M  V30 10418 H 986.495 5.48318 0.636462 0
M  V30 10419 H 986.972 4.0891 1.60277 0
M  V30 10420 H 987.578 4.25256 -0.061419 0
M  V30 10421 N 985.893 0.34162 1.53853 0
M  V30 10422 C 987.118 -0.259608 2.05769 0
M  V30 10423 C 987.543 -1.43588 1.21507 0
M  V30 10424 O 986.901 -1.79856 0.228364 0
M  V30 10425 C 986.949 -0.654455 3.54611 0
M  V30 10426 O 986.053 -1.75472 3.73207 0
M  V30 10427 H 985.394 -0.0434621 0.662576 0
M  V30 10428 H 987.924 0.495274 1.98515 0
M  V30 10429 H 987.934 -0.932142 3.97209 0
M  V30 10430 H 986.609 0.205779 4.15391 0
M  V30 10431 H 985.186 -1.47444 3.42512 0
M  V30 10432 N 987.371 -1.57444 0.0701946 0
M  V30 10433 C 988.318 -2.12631 -0.897599 0
M  V30 10434 C 989.288 -1.03841 -1.29639 0
M  V30 10435 O 990.473 -1.31495 -1.38253 0
M  V30 10436 C 987.613 -2.6911 -2.16041 0
M  V30 10437 C 986.726 -3.9205 -1.8144 0
M  V30 10438 C 985.861 -4.36778 -3.02321 0
M  V30 10439 C 984.9 -5.52371 -2.63729 0
M  V30 10440 N 984.037 -5.92065 -3.77364 0
M  V30 10441 H 988.877 -2.95024 -0.420104 0
M  V30 10442 H 986.414 -1.45792 -0.195716 0
M  V30 10443 H 988.372 -2.99963 -2.89962 0
M  V30 10444 H 987.002 -1.89484 -2.61334 0
M  V30 10445 H 986.054 -3.67669 -0.975896 0
M  V30 10446 H 987.366 -4.76011 -1.49046 0
M  V30 10447 H 986.52 -4.69285 -3.84521 0
M  V30 10448 H 985.259 -3.51668 -3.37907 0
M  V30 10449 H 984.264 -5.19517 -1.7995 0
M  V30 10450 H 985.489 -6.39212 -2.29315 0
M  V30 10451 H 983.435 -5.09904 -4.12715 0
M  V30 10452 H 983.352 -6.70762 -3.48733 0
M  V30 10453 H 984.62 -6.29193 -4.60148 0
M  V30 10454 N 988.849 0.203349 -1.56283 0
M  V30 10455 C 989.812 1.23566 -1.93039 0
M  V30 10456 C 990.812 1.38869 -0.810687 0
M  V30 10457 O 992.002 1.36822 -1.07821 0
M  V30 10458 C 989.134 2.60645 -2.1972 0
M  V30 10459 H 990.327 0.921692 -2.85385 0
M  V30 10460 H 987.88 0.44453 -1.49845 0
M  V30 10461 H 988.615 2.9711 -1.29985 0
M  V30 10462 H 988.4 2.50911 -3.01307 0
M  V30 10463 H 989.89 3.35103 -2.4919 0
M  V30 10464 N 990.327 1.50405 0.470755 0
M  V30 10465 C 991.576 1.60652 1.21959 0
M  V30 10466 C 991.889 0.312521 1.93087 0
M  V30 10467 O 993.095 0.293901 2.69905 0
M  V30 10468 C 991.551 2.83581 2.21607 0
M  V30 10469 C 991.159 4.19858 1.5628 0
M  V30 10470 C 992.903 3.03173 2.9713 0
M  V30 10471 C 990.81 5.33974 2.54217 0
M  V30 10472 H 989.74 0.598264 0.458907 0
M  V30 10473 H 992.391 1.76836 0.490041 0
M  V30 10474 H 990.773 2.60957 2.97855 0
M  V30 10475 H 991.947 4.52738 0.85819 0
M  V30 10476 H 990.262 4.05873 0.930366 0
M  V30 10477 H 992.859 3.856 3.70428 0
M  V30 10478 H 993.202 2.14914 3.56536 0
M  V30 10479 H 993.735 3.2598 2.27995 0
M  V30 10480 H 990.474 6.24388 1.99549 0
M  V30 10481 H 989.994 5.05511 3.22829 0
M  V30 10482 H 991.673 5.64561 3.16039 0
M  V30 10483 N 991.805 -0.723954 1.39988 0
M  V30 10484 C 993.053 -1.48078 1.3754 0
M  V30 10485 C 993.374 -1.94985 -0.0243358 0
M  V30 10486 O 992.644 -1.69764 -0.977602 0
M  V30 10487 H 991.224 -0.549354 0.506181 0
M  V30 10488 H 993.886 -0.858746 1.74962 0
M  V30 10489 H 992.982 -2.35763 2.04505 0
M  V30 10490 N 993.283 -1.25346 -0.955304 0
M  V30 10491 C 994.531 -1.09837 -1.69647 0
M  V30 10492 C 994.852 0.361425 -1.91621 0
M  V30 10493 O 994.122 1.25666 -1.50283 0
M  V30 10494 H 992.702 -0.403467 -0.628668 0
M  V30 10495 H 995.364 -1.57459 -1.14859 0
M  V30 10496 H 994.46 -1.60616 -2.67598 0
M  V30 10497 N 994.761 1.15782 -1.06922 0
M  V30 10498 C 996.009 1.86097 -0.788192 0
M  V30 10499 C 996.33 1.82475 0.687606 0
M  V30 10500 O 995.6 1.26266 1.49778 0
M  V30 10501 H 994.18 0.689008 -0.288577 0
M  V30 10502 H 996.842 1.40377 -1.35205 0
M  V30 10503 H 995.938 2.91358 -1.1188 0
M  V30 10504 N 996.239 0.8527 1.3254 0
M  V30 10505 C 997.65 0.510012 1.79599 0
M  V30 10506 C 998.001 -0.972002 1.70431 0
M  V30 10507 O 997.126 -1.7581 1.26173 0
M  V30 10508 C 997.721 0.918986 3.26098 0
M  V30 10509 C 996.28 0.628227 3.7112 0
M  V30 10510 C 995.427 1.11979 2.53685 0
M  V30 10511 H 998.378 1.04009 1.19866 0
M  V30 10512 H 998.399 0.234577 3.79776 0
M  V30 10513 H 997.911 1.99765 3.32739 0
M  V30 10514 H 996.012 -0.4398 3.69995 0
M  V30 10515 H 996.125 1.19315 4.64005 0
M  V30 10516 H 994.489 0.540133 2.48907 0
M  V30 10517 H 995.272 2.20552 2.63081 0
M  V30 10518 O 997.756 -1.42989 0.750761 0
M  V30 10519 H 998.447 -1.91242 0.307615 0
M  V30 END ATOM
M  V30 BEGIN BOND
M  V30 END BOND
M  V30 END CTAB
M  END
$$$$
