drugbank_target|Q9UK23 N-acetylglucosamine-1-phosphodiester alpha-N-acetylglucosaminidase (DB00141)
 OpenBabel12092120083D

  0  0  0     0  0            999 V3000
M  V30 BEGIN CTAB
M  V30 COUNTS 7690 7782 0 0 0
M  V30 BEGIN ATOM
M  V30 1 H -0.908 1.98254 -0.117106 0
M  V30 2 N 0 1.576 0 0
M  V30 3 C 0.933 2.03868 1.02534 0
M  V30 4 C 1.911 0.928543 1.3348 0
M  V30 5 O 3.095 1.19667 1.45644 0
M  V30 6 C 0.222 2.43627 2.35294 0
M  V30 7 C -0.732 3.65373 2.2001 0
M  V30 8 S 0.101 5.13292 1.52614 0
M  V30 9 C 1.257 5.56322 2.86805 0
M  V30 10 H 1.49 2.90518 0.631377 0
M  V30 11 H -0.977 1.52953 0.210867 0
M  V30 12 H 0.981 2.67203 3.11629 0
M  V30 13 H -0.358 1.57376 2.7183 0
M  V30 14 H -1.165 3.90944 3.18086 0
M  V30 15 H -1.563 3.418 1.51819 0
M  V30 16 H 0.729 5.58782 3.83104 0
M  V30 17 H 1.672 6.56266 2.65933 0
M  V30 18 H 2.08 4.83886 2.90714 0
M  V30 19 N 1.4781 -0.272755 1.55222 0
M  V30 20 C 2.4411 -1.32041 1.87344 0
M  V30 21 C 3.4411 -1.42342 0.74803 0
M  V30 22 O 4.6311 -1.41488 1.0162 0
M  V30 23 C 1.7631 -2.70173 2.07893 0
M  V30 24 H 2.9561 -1.04789 2.80997 0
M  V30 25 H 0.5091 -0.51083 1.47717 0
M  V30 26 H 1.2441 -3.02605 1.16622 0
M  V30 27 H 1.0291 -2.64082 2.89833 0
M  V30 28 H 2.5191 -3.45869 2.34017 0
M  V30 29 N 2.9562 -1.48159 -0.537278 0
M  V30 30 C 4.1842 -1.59454 -1.31841 0
M  V30 31 C 4.5992 -0.252065 -1.8711 0
M  V30 32 O 3.9562 0.757621 -1.66031 0
M  V30 33 C 4.0072 -2.63546 -2.47439 0
M  V30 34 O 3.7282 -3.92583 -1.94449 0
M  V30 35 C 5.2292 -2.85212 -3.39366 0
M  V30 36 H 2.4492 -0.53785 -0.401196 0
M  V30 37 H 4.9932 -1.93932 -0.648891 0
M  V30 38 H 3.1482 -2.31946 -3.1029 0
M  V30 39 H 3.5622 -4.49629 -2.70063 0
M  V30 40 H 5.0362 -3.61863 -4.16844 0
M  V30 41 H 5.5132 -1.93765 -3.94147 0
M  V30 42 H 6.1192 -3.18086 -2.82314 0
M  V30 43 N 4.4343 0.785586 -1.36625 0
M  V30 44 C 5.6593 1.57963 -1.34397 0
M  V30 45 C 6.0843 1.87964 0.071526 0
M  V30 46 O 5.4423 1.48182 1.0446 0
M  V30 47 C 5.4903 2.87511 -2.17646 0
M  V30 48 O 4.5943 3.81281 -1.57158 0
M  V30 49 H 3.9353 0.479014 -0.459828 0
M  V30 50 H 6.4653 0.973411 -1.79961 0
M  V30 51 H 6.4753 3.36745 -2.30362 0
M  V30 52 H 5.1503 2.65002 -3.20541 0
M  V30 53 H 3.7273 3.39885 -1.53403 0
M  V30 54 N 5.9124 1.20967 1.01018 0
M  V30 55 C 7.1404 1.04956 1.78303 0
M  V30 56 C 7.5554 -0.400915 1.84494 0
M  V30 57 O 6.9124 -1.27826 1.30257 0
M  V30 58 C 6.9634 1.63403 3.22462 0
M  V30 59 O 6.6844 3.02775 3.16637 0
M  V30 60 C 8.1854 1.52432 4.16268 0
M  V30 61 H 5.4054 0.368858 0.560522 0
M  V30 62 H 7.9494 1.60193 1.27116 0
M  V30 63 H 6.1044 1.1227 3.70775 0
M  V30 64 H 6.5184 3.30626 4.07169 0
M  V30 65 H 7.9924 1.98078 5.15237 0
M  V30 66 H 8.4694 0.477875 4.36592 0
M  V30 67 H 9.0754 2.02787 3.73841 0
M  V30 68 N 7.3905 -1.2043 1.01659 0
M  V30 69 C 8.6385 -1.89423 0.704522 0
M  V30 70 C 8.9595 -1.79231 -0.768197 0
M  V30 71 O 8.2295 -1.1947 -1.55254 0
M  V30 72 H 6.8095 -0.701178 0.257602 0
M  V30 73 H 9.4715 -1.4626 1.28818 0
M  V30 74 H 8.5675 -2.96052 0.987916 0
M  V30 75 N 8.8686 -0.792821 -1.36206 0
M  V30 76 C 10.2846 -0.474903 -1.52371 0
M  V30 77 C 10.4846 1.00622 -1.74578 0
M  V30 78 O 9.5406 1.79162 -1.77924 0
M  V30 79 C 10.8536 -1.3083 -2.70747 0
M  V30 80 C 12.4016 -1.30234 -2.84619 0
M  V30 81 C 12.8766 -2.11956 -4.06004 0
M  V30 82 N 14.3676 -2.09419 -4.13156 0
M  V30 83 C 15.1026 -2.69419 -5.06163 0
M  V30 84 N 14.5986 -3.3829 -6.04592 0
M  V30 85 N 16.3916 -2.59134 -4.98804 0
M  V30 86 H 8.5426 -1.75222 -1.20046 0
M  V30 87 H 10.8056 -0.745024 -0.586211 0
M  V30 88 H 10.5116 -2.35881 -2.6087 0
M  V30 89 H 10.3856 -0.95196 -3.6499 0
M  V30 90 H 12.7726 -0.259748 -2.93955 0
M  V30 91 H 12.8536 -1.69847 -1.91274 0
M  V30 92 H 12.4976 -3.16248 -3.97429 0
M  V30 93 H 12.4276 -1.69711 -4.98503 0
M  V30 94 H 14.9186 -1.59297 -3.42685 0
M  V30 95 H 15.2316 -3.81394 -6.7213 0
M  V30 96 H 13.5766 -3.42393 -6.04807 0
M  V30 97 H 16.7676 -2.04927 -4.20859 0
M  V30 98 H 16.9406 -3.06185 -5.711 0
M  V30 99 N 10.3467 1.47872 -0.545128 0
M  V30 100 C 11.5927 2.03385 -0.0247951 0
M  V30 101 C 11.9477 1.41325 1.30556 0
M  V30 102 O 11.2407 0.5552 1.8338 0
M  V30 103 C 11.4347 3.57131 0.13867 0
M  V30 104 C 11.2637 4.34097 -1.17429 0
M  V30 105 C 10.0337 4.74458 -1.73831 0
M  V30 106 C 12.2317 4.6998 -2.08861 0
M  V30 107 N 10.2137 5.3602 -2.99258 0
M  V30 108 C 11.5847 5.31719 -3.18866 0
M  V30 109 C 13.6397 4.5191 -2.09003 0
M  V30 110 C 12.3427 5.77295 -4.29096 0
M  V30 111 C 14.3687 4.98477 -3.18237 0
M  V30 112 C 13.7307 5.60253 -4.26961 0
M  V30 113 H 9.8297 0.780339 -0.050943 0
M  V30 114 H 12.4137 1.80507 -0.729753 0
M  V30 115 H 10.5847 3.79802 0.812733 0
M  V30 116 H 12.3167 3.99282 0.659976 0
M  V30 117 H 9.0717 4.56037 -1.2778 0
M  V30 118 H 9.4957 5.71355 -3.63157 0
M  V30 119 H 14.1377 4.03516 -1.26234 0
M  V30 120 H 11.8557 6.24687 -5.12633 0
M  V30 121 H 15.4417 4.86274 -3.1942 0
M  V30 122 H 14.3217 5.95631 -5.10091 0
M  V30 123 N 11.8248 0.280983 1.55075 0
M  V30 124 C 12.7548 -0.597469 2.25727 0
M  V30 125 C 13.7358 -1.15417 1.24952 0
M  V30 126 O 14.9208 -1.18722 1.53684 0
M  V30 127 C 12.0508 -1.7789 2.98283 0
M  V30 128 C 11.0048 -1.35347 4.06036 0
M  V30 129 C 10.3308 -2.61846 4.66198 0
M  V30 130 C 11.6308 -0.499354 5.19907 0
M  V30 131 H 13.3248 -0.00824265 2.99399 0
M  V30 132 H 10.8708 -0.0025244 1.44 0
M  V30 133 H 12.8238 -2.39937 3.46422 0
M  V30 134 H 11.5478 -2.39405 2.22155 0
M  V30 135 H 10.2068 -0.756156 3.58717 0
M  V30 136 H 9.8548 -3.21632 3.86732 0
M  V30 137 H 9.5548 -2.3409 5.38958 0
M  V30 138 H 11.0788 -3.24732 5.1709 0
M  V30 139 H 12.4928 -1.02498 5.64063 0
M  V30 140 H 10.8898 -0.316424 5.99265 0
M  V30 141 H 11.9598 0.480459 4.82514 0
M  V30 142 N 13.3029 -1.57598 0.00835791 0
M  V30 143 C 14.2329 -2.1198 -0.979113 0
M  V30 144 C 15.2139 -1.03091 -1.35301 0
M  V30 145 O 16.3989 -1.30818 -1.43528 0
M  V30 146 C 13.5289 -2.62995 -2.26828 0
M  V30 147 C 12.4829 -3.76485 -2.03576 0
M  V30 148 C 11.8089 -4.13846 -3.38579 0
M  V30 149 C 13.1089 -5.0342 -1.39161 0
M  V30 150 H 14.8029 -2.94738 -0.526281 0
M  V30 151 H 12.3489 -1.41783 -0.251704 0
M  V30 152 H 14.3019 -2.99669 -2.96271 0
M  V30 153 H 13.0259 -1.7737 -2.7424 0
M  V30 154 H 11.6849 -3.40217 -1.36557 0
M  V30 155 H 11.3329 -3.25232 -3.83709 0
M  V30 156 H 11.0329 -4.90312 -3.23834 0
M  V30 157 H 12.5569 -4.53086 -4.09323 0
M  V30 158 H 13.9709 -5.37812 -1.98573 0
M  V30 159 H 12.3679 -5.84746 -1.34878 0
M  V30 160 H 13.4379 -4.83548 -0.361868 0
M  V30 161 N 14.781 0.264519 -1.55364 0
M  V30 162 C 15.711 1.33121 -1.91836 0
M  V30 163 C 16.692 1.51101 -0.781192 0
M  V30 164 O 17.877 1.64003 -1.04003 0
M  V30 165 C 15.007 2.68921 -2.19769 0
M  V30 166 C 13.961 2.65661 -3.35571 0
M  V30 167 C 13.287 4.05093 -3.49004 0
M  V30 168 C 14.587 2.24187 -4.71739 0
M  V30 169 H 16.281 1.02844 -2.81182 0
M  V30 170 H 13.827 0.493286 -1.35287 0
M  V30 171 H 15.78 3.43663 -2.43872 0
M  V30 172 H 14.504 3.00799 -1.27231 0
M  V30 173 H 13.163 1.93377 -3.1145 0
M  V30 174 H 12.811 4.34206 -2.53917 0
M  V30 175 H 12.511 4.03804 -4.26868 0
M  V30 176 H 14.035 4.81561 -3.75408 0
M  V30 177 H 15.449 2.88654 -4.9533 0
M  V30 178 H 13.846 2.34044 -5.52579 0
M  V30 179 H 14.916 1.19327 -4.69988 0
M  V30 180 N 16.2591 1.48442 0.529413 0
M  V30 181 C 17.6751 1.34575 0.858004 0
M  V30 182 C 17.8751 0.3572 1.98309 0
M  V30 183 O 16.9311 -0.221379 2.51528 0
M  V30 184 C 18.2441 2.74617 1.22499 0
M  V30 185 C 19.7921 2.83109 1.33484 0
M  V30 186 C 20.2671 4.23854 1.73526 0
M  V30 187 N 21.7581 4.2653 1.80628 0
M  V30 188 C 22.4931 5.32372 2.12997 0
M  V30 189 N 21.9891 6.48491 2.43786 0
M  V30 190 N 23.7821 5.19766 2.14008 0
M  V30 191 H 15.9331 2.1133 -0.212925 0
M  V30 192 H 18.1961 0.947439 -0.0326199 0
M  V30 193 H 17.9021 3.4852 0.471905 0
M  V30 194 H 17.7761 3.08177 2.17501 0
M  V30 195 H 20.1631 2.09462 2.0787 0
M  V30 196 H 20.2441 2.53168 0.366027 0
M  V30 197 H 19.8881 4.98018 0.997013 0
M  V30 198 H 19.8181 4.5124 2.71459 0
M  V30 199 H 22.3091 3.42772 1.59108 0
M  V30 200 H 22.6221 7.24993 2.67592 0
M  V30 201 H 20.9671 6.51765 2.41304 0
M  V30 202 H 24.1581 4.28066 1.89412 0
M  V30 203 H 24.3311 6.02354 2.38902 0
M  V30 204 N 17.7372 -0.778329 1.37039 0
M  V30 205 C 18.6672 -1.90546 1.34962 0
M  V30 206 C 19.6482 -1.68681 0.219274 0
M  V30 207 O 20.8332 -1.89634 0.418624 0
M  V30 208 C 17.9632 -3.27734 1.14925 0
M  V30 209 C 16.9172 -3.64147 2.24902 0
M  V30 210 C 16.2432 -4.99806 1.89996 0
M  V30 211 C 17.5432 -3.71579 3.67051 0
M  V30 212 H 19.2372 -1.92541 2.29277 0
M  V30 213 H 16.7832 -0.924948 1.10366 0
M  V30 214 H 18.7362 -4.06215 1.12104 0
M  V30 215 H 17.4602 -3.26154 0.170631 0
M  V30 216 H 16.1192 -2.8797 2.26868 0
M  V30 217 H 15.7672 -4.94759 0.906796 0
M  V30 218 H 15.4672 -5.25139 2.63634 0
M  V30 219 H 16.9912 -5.80694 1.88749 0
M  V30 220 H 18.4052 -4.40227 3.67251 0
M  V30 221 H 16.8022 -4.08405 4.39688 0
M  V30 222 H 17.8722 -2.72404 4.01154 0
M  V30 223 N 19.2153 -1.21501 -1.00376 0
M  V30 224 C 20.1783 -0.976927 -2.07337 0
M  V30 225 C 21.1783 0.0525322 -1.60714 0
M  V30 226 O 22.3683 -0.184869 -1.73216 0
M  V30 227 C 19.5003 -0.473423 -3.37597 0
M  V30 228 H 20.6933 -1.92587 -2.29892 0
M  V30 229 H 18.2463 -1.03217 -1.17371 0
M  V30 230 H 18.9813 0.480379 -3.20722 0
M  V30 231 H 18.7663 -1.216 -3.72768 0
M  V30 232 H 20.2563 -0.32675 -4.1632 0
M  V30 233 N 20.6934 1.19889 -1.02296 0
M  V30 234 C 21.6234 2.25141 -0.619174 0
M  V30 235 C 22.6044 1.66051 0.368915 0
M  V30 236 O 23.7894 1.92546 0.252941 0
M  V30 237 C 20.9194 3.4728 0.0368783 0
M  V30 238 C 19.8734 4.19005 -0.872865 0
M  V30 239 C 19.1994 5.34637 -0.0822402 0
M  V30 240 C 20.4994 4.74452 -2.18387 0
M  V30 241 H 22.1934 2.59171 -1.49903 0
M  V30 242 H 19.7394 1.24579 -0.722222 0
M  V30 243 H 21.6924 4.20098 0.330958 0
M  V30 244 H 20.4164 3.12433 0.95149 0
M  V30 245 H 19.0754 3.48061 -1.15105 0
M  V30 246 H 18.7234 4.96034 0.83422 0
M  V30 247 H 18.4234 5.83557 -0.688149 0
M  V30 248 H 19.9474 6.10255 0.205238 0
M  V30 249 H 21.3614 5.39055 -1.95172 0
M  V30 250 H 19.7584 5.33834 -2.74119 0
M  V30 251 H 20.8284 3.92844 -2.84257 0
M  V30 252 N 22.1715 0.800033 1.35784 0
M  V30 253 C 23.4185 0.377342 1.98953 0
M  V30 254 C 23.7465 -1.05378 1.6348 0
M  V30 255 O 23.0015 -1.74459 0.886707 0
M  V30 256 C 23.3005 0.500276 3.53881 0
M  V30 257 C 22.9665 1.89375 4.09204 0
M  V30 258 C 21.6285 2.27499 4.24025 0
M  V30 259 C 23.9805 2.8057 4.39238 0
M  V30 260 C 21.3085 3.562 4.66195 0
M  V30 261 C 23.6605 4.0871 4.82844 0
M  V30 262 C 22.3245 4.46843 4.95871 0
M  V30 263 H 21.5945 0.138079 0.728021 0
M  V30 264 H 24.2415 1.01955 1.62103 0
M  V30 265 H 22.5465 -0.225405 3.91151 0
M  V30 266 H 24.2435 0.154097 4.00704 0
M  V30 267 H 20.8335 1.58753 3.98115 0
M  V30 268 H 25.0175 2.52367 4.27346 0
M  V30 269 H 20.2735 3.85602 4.74469 0
M  V30 270 H 24.4475 4.79481 5.05046 0
M  V30 271 H 22.0745 5.46623 5.28306 0
M  V30 272 N 23.6496 -1.47581 0.552962 0
M  V30 273 C 24.8976 -2.02082 0.0272703 0
M  V30 274 C 25.2186 -1.4301 -1.32563 0
M  V30 275 O 24.4886 -0.603745 -1.86365 0
M  V30 276 H 23.0686 -0.746966 0.00709182 0
M  V30 277 H 25.7306 -1.81033 0.722008 0
M  V30 278 H 24.8266 -3.12034 -0.0639951 0
M  V30 279 N 25.1277 -0.289203 -1.54924 0
M  V30 280 C 26.3747 0.323519 -1.99899 0
M  V30 281 C 26.7027 1.54797 -1.17762 0
M  V30 282 O 25.9577 1.94237 -0.238835 0
M  V30 283 C 26.2567 0.736119 -3.49737 0
M  V30 284 C 25.9227 -0.385276 -4.49251 0
M  V30 285 C 24.5847 -0.693156 -4.76181 0
M  V30 286 C 26.9367 -1.14021 -5.08575 0
M  V30 287 C 24.2647 -1.7593 -5.59701 0
M  V30 288 C 26.6167 -2.19619 -5.93254 0
M  V30 289 C 25.2807 -2.51026 -6.185 0
M  V30 290 H 24.5507 0.118384 -0.731482 0
M  V30 291 H 27.1977 -0.405847 -1.8715 0
M  V30 292 H 25.5027 1.54539 -3.60035 0
M  V30 293 H 27.1997 1.22118 -3.81953 0
M  V30 294 H 23.7897 -0.135202 -4.28387 0
M  V30 295 H 27.9737 -0.915611 -4.87781 0
M  V30 296 H 23.2297 -2.0075 -5.77503 0
M  V30 297 H 27.4037 -2.78581 -6.38252 0
M  V30 298 H 25.0307 -3.33772 -6.83008 0
M  V30 299 N 26.6058 1.57591 -0.0167156 0
M  V30 300 C 27.5358 2.12496 0.967858 0
M  V30 301 C 28.5168 1.03807 1.34752 0
M  V30 302 O 29.7018 1.31577 1.42833 0
M  V30 303 C 26.8318 2.64194 2.25431 0
M  V30 304 C 25.7858 3.77559 2.01576 0
M  V30 305 C 25.1118 4.15636 3.36379 0
M  V30 306 C 26.4118 5.04151 1.36489 0
M  V30 307 H 28.1058 2.95013 0.510643 0
M  V30 308 H 25.6518 1.41915 0.244181 0
M  V30 309 H 27.6048 3.01236 2.94678 0
M  V30 310 H 26.3288 1.78821 2.73296 0
M  V30 311 H 24.9878 3.40937 1.34751 0
M  V30 312 H 24.6358 3.27263 3.81979 0
M  V30 313 H 24.3358 4.92022 3.21229 0
M  V30 314 H 25.8598 4.5525 4.06915 0
M  V30 315 H 27.2738 5.38857 1.95718 0
M  V30 316 H 25.6708 5.85453 1.31776 0
M  V30 317 H 26.7408 4.83733 0.336219 0
M  V30 318 N 28.0839 -0.256276 1.55502 0
M  V30 319 C 29.3299 -0.982884 1.78076 0
M  V30 320 C 29.6849 -1.83319 0.584109 0
M  V30 321 O 28.9779 -1.86875 -0.422877 0
M  V30 322 C 29.1719 -1.88432 3.03691 0
M  V30 323 C 29.0009 -1.12276 4.35459 0
M  V30 324 C 27.7709 -0.831647 4.98409 0
M  V30 325 C 29.9689 -0.504933 5.11815 0
M  V30 326 N 27.9509 -0.0450423 6.13883 0
M  V30 327 C 29.3219 0.146696 6.19826 0
M  V30 328 C 31.3769 -0.414455 4.96172 0
M  V30 329 C 30.0799 0.880103 7.13895 0
M  V30 330 C 32.1059 0.305398 5.90611 0
M  V30 331 C 31.4679 0.945701 6.98023 0
M  V30 332 H 27.5669 -0.341084 0.703694 0
M  V30 333 H 30.1509 -0.256909 1.92998 0
M  V30 334 H 28.3219 -2.58241 2.90114 0
M  V30 335 H 30.0539 -2.54579 3.14598 0
M  V30 336 H 26.8089 -1.14111 4.59647 0
M  V30 337 H 27.2329 0.336079 6.76165 0
M  V30 338 H 31.8749 -0.895163 4.13215 0
M  V30 339 H 29.5929 1.37244 7.9636 0
M  V30 340 H 33.1789 0.375946 5.80584 0
M  V30 341 H 32.0589 1.49383 7.6984 0
M  V30 342 N 29.562 -1.4872 -0.521534 0
M  V30 343 C 30.472 -1.66569 -1.65203 0
M  V30 344 C 31.488 -0.548197 -1.65139 0
M  V30 345 O 32.664 -0.820339 -1.83936 0
M  V30 346 C 29.729 -1.70917 -3.01642 0
M  V30 347 C 28.79 -2.94356 -3.12495 0
M  V30 348 C 28.023 -2.98487 -4.42426 0
M  V30 349 O 28.246 -2.10786 -5.30024 0
M  V30 350 O 27.18 -3.90746 -4.57822 0
M  V30 351 H 31.006 -2.62298 -1.5308 0
M  V30 352 H 28.591 -1.3222 -0.695565 0
M  V30 353 H 30.473 -1.7625 -3.82771 0
M  V30 354 H 29.148 -0.783633 -3.14071 0
M  V30 355 H 28.055 -2.94552 -2.3063 0
M  V30 356 H 29.388 -3.86322 -3.04986 0
M  V30 357 N 31.0401 0.771051 -1.3745 0
M  V30 358 C 32.0031 1.86598 -1.33093 0
M  V30 359 C 33.0031 1.59076 -0.234845 0
M  V30 360 O 34.1931 1.67145 -0.490732 0
M  V30 361 C 31.3251 3.23747 -1.06773 0
M  V30 362 H 32.5181 1.91873 -2.30488 0
M  V30 363 H 30.0711 0.970876 -1.2249 0
M  V30 364 H 30.8061 3.24148 -0.099129 0
M  V30 365 H 30.5911 3.45115 -1.86112 0
M  V30 366 H 32.0811 4.03824 -1.06377 0
M  V30 367 N 32.5182 1.22032 0.997298 0
M  V30 368 C 33.7432 1.06921 1.77715 0
M  V30 369 C 34.1682 -0.376226 1.84299 0
M  V30 370 O 33.5262 -1.27165 1.29223 0
M  V30 371 C 33.5742 1.67996 3.19076 0
M  V30 372 O 32.6782 0.930653 4.01762 0
M  V30 373 H 32.0192 0.375814 0.547412 0
M  V30 374 H 34.5492 1.61737 1.25309 0
M  V30 375 H 34.5592 1.72538 3.69723 0
M  V30 376 H 33.2342 2.73182 3.13599 0
M  V30 377 H 31.8112 0.960917 3.60307 0
M  V30 378 N 33.9963 -1.19345 1.0293 0
M  V30 379 C 35.2443 -1.88665 0.724574 0
M  V30 380 C 35.5653 -1.80036 -0.749144 0
M  V30 381 O 34.8353 -1.2111 -1.53978 0
M  V30 382 H 33.4153 -0.698406 0.265025 0
M  V30 383 H 36.0773 -1.44885 1.30362 0
M  V30 384 H 35.1733 -2.94987 1.01926 0
M  V30 385 N 35.4744 -0.807222 -1.35358 0
M  V30 386 C 36.7224 -0.387122 -1.98358 0
M  V30 387 C 37.0434 1.04942 -1.64354 0
M  V30 388 O 36.3134 1.72615 -0.926339 0
M  V30 389 H 34.8934 -0.140154 -0.733734 0
M  V30 390 H 37.5554 -1.0332 -1.6526 0
M  V30 391 H 36.6514 -0.493352 -3.08176 0
M  V30 392 N 36.9525 1.47285 -0.560781 0
M  V30 393 C 37.8825 2.32857 0.173105 0
M  V30 394 C 38.8635 1.44009 0.905281 0
M  V30 395 O 40.0485 1.7286 0.885046 0
M  V30 396 C 37.1785 3.25861 1.20133 0
M  V30 397 C 36.1325 4.23978 0.585388 0
M  V30 398 C 35.4585 5.06332 1.7185 0
M  V30 399 C 36.7585 5.20242 -0.463178 0
M  V30 400 H 38.4525 2.94466 -0.541307 0
M  V30 401 H 35.9985 1.41601 -0.261764 0
M  V30 402 H 37.9515 3.84569 1.72293 0
M  V30 403 H 36.6755 2.62315 1.94573 0
M  V30 404 H 35.3345 3.66501 0.085054 0
M  V30 405 H 34.9825 4.39186 2.45203 0
M  V30 406 H 34.6825 5.72762 1.31213 0
M  V30 407 H 36.2065 5.67899 2.24329 0
M  V30 408 H 37.6205 5.73293 -0.027502 0
M  V30 409 H 36.0175 5.94896 -0.788627 0
M  V30 410 H 37.0875 4.65504 -1.35773 0
M  V30 411 N 38.4306 0.297415 1.54768 0
M  V30 412 C 39.7076 -0.365847 1.92148 0
M  V30 413 C 40.0876 -1.71975 1.22424 0
M  V30 414 O 39.4356 -2.25666 0.358739 0
M  V30 415 C 39.6456 -0.484056 3.45627 0
M  V30 416 C 40.9936 -0.756594 4.17805 0
M  V30 417 O 42.0176 -0.568007 3.51642 0
M  V30 418 O 40.8766 -1.11863 5.34929 0
M  V30 419 H 37.9706 -0.203919 0.801465 0
M  V30 420 H 40.5166 0.34521 1.66152 0
M  V30 421 H 39.2886 0.467865 3.88493 0
M  V30 422 H 38.9116 -1.24372 3.77647 0
M  V30 423 N 39.9087 -1.5758 0.0250728 0
M  V30 424 C 41.1337 -1.96337 -0.668317 0
M  V30 425 C 41.5587 -0.901314 -1.651 0
M  V30 426 O 40.9167 0.138187 -1.80773 0
M  V30 427 C 40.9647 -3.34191 -1.35457 0
M  V30 428 O 40.0687 -3.30269 -2.46974 0
M  V30 429 H 39.4097 -0.640281 -0.175887 0
M  V30 430 H 41.9397 -2.0442 0.0857224 0
M  V30 431 H 41.9497 -3.70331 -1.71228 0
M  V30 432 H 40.6247 -4.11036 -0.634218 0
M  V30 433 H 39.2017 -3.05841 -2.13344 0
M  V30 434 N 41.3868 0.248026 -1.55636 0
M  V30 435 C 42.6348 0.974295 -1.77065 0
M  V30 436 C 42.9558 1.85897 -0.588849 0
M  V30 437 O 42.2258 1.91868 0.395407 0
M  V30 438 H 40.8058 0.362733 -0.653019 0
M  V30 439 H 43.4678 0.266244 -1.93073 0
M  V30 440 H 42.5638 1.59667 -2.68166 0
M  V30 441 N 42.8649 1.48995 0.513639 0
M  V30 442 C 43.8279 1.64229 1.59879 0
M  V30 443 C 44.8279 0.514696 1.5234 0
M  V30 444 O 46.0179 0.78087 1.55718 0
M  V30 445 C 43.1499 1.62783 2.99524 0
M  V30 446 H 44.3429 2.61004 1.47705 0
M  V30 447 H 41.8959 1.37837 0.736936 0
M  V30 448 H 42.6309 0.675461 3.17188 0
M  V30 449 H 42.4159 2.4466 3.06404 0
M  V30 450 H 43.9059 1.76669 3.78388 0
M  V30 451 N 44.343 -0.763751 1.37857 0
M  V30 452 C 45.568 -1.55805 1.36893 0
M  V30 453 C 45.993 -1.88054 -0.0416135 0
M  V30 454 O 45.351 -1.49825 -1.02089 0
M  V30 455 C 45.399 -2.84012 2.22192 0
M  V30 456 O 44.503 -3.78732 1.63204 0
M  V30 457 H 43.844 -0.471638 0.46739 0
M  V30 458 H 46.374 -0.944657 1.81487 0
M  V30 459 H 46.384 -3.33037 2.35691 0
M  V30 460 H 45.059 -2.59869 3.24716 0
M  V30 461 H 43.636 -3.37402 1.58791 0
M  V30 462 N 45.8211 -1.22559 -0.990812 0
M  V30 463 C 47.2371 -0.985996 -1.255 0
M  V30 464 C 47.4371 0.319173 -1.98956 0
M  V30 465 O 46.4931 1.04127 -2.3003 0
M  V30 466 C 47.8061 -2.18607 -2.06474 0
M  V30 467 C 49.3541 -2.22985 -2.19651 0
M  V30 468 C 49.8291 -3.4255 -3.04012 0
M  V30 469 N 51.3201 -3.42725 -3.11599 0
M  V30 470 C 52.0551 -4.31892 -3.7717 0
M  V30 471 N 51.5511 -5.31279 -4.44651 0
M  V30 472 N 53.3441 -4.19662 -3.73952 0
M  V30 473 H 45.4951 -2.06469 -0.49841 0
M  V30 474 H 47.7581 -0.904853 -0.282747 0
M  V30 475 H 47.4641 -3.13267 -1.59865 0
M  V30 476 H 47.3381 -2.18838 -3.07229 0
M  V30 477 H 49.7251 -1.28871 -2.65474 0
M  V30 478 H 49.8061 -2.26791 -1.18319 0
M  V30 479 H 49.4501 -4.36965 -2.58889 0
M  V30 480 H 49.3801 -3.35984 -4.0549 0
M  V30 481 H 51.8711 -2.70807 -2.63575 0
M  V30 482 H 52.1841 -5.95593 -4.92431 0
M  V30 483 H 50.5291 -5.3519 -4.43392 0
M  V30 484 H 53.7201 -3.41268 -3.20396 0
M  V30 485 H 53.8931 -4.89358 -4.24774 0
M  V30 486 N 47.2992 1.18797 -1.03562 0
M  V30 487 C 48.5762 1.84469 -0.650434 0
M  V30 488 C 48.9562 1.92319 0.870433 0
M  V30 489 O 48.3042 1.44528 1.76986 0
M  V30 490 C 48.5142 3.2306 -1.32036 0
M  V30 491 C 49.8622 3.9915 -1.44792 0
M  V30 492 O 50.8862 3.32481 -1.27806 0
M  V30 493 O 49.7452 5.18587 -1.72423 0
M  V30 494 H 46.8392 0.795251 -0.226946 0
M  V30 495 H 49.3852 1.26231 -1.13419 0
M  V30 496 H 48.1572 3.1222 -2.3587 0
M  V30 497 H 47.7802 3.88949 -0.8249 0
M  V30 498 N 48.7773 0.814389 1.34928 0
M  V30 499 C 50.0543 0.321363 1.92942 0
M  V30 500 C 50.4343 -1.19014 1.74353 0
M  V30 501 O 49.7823 -1.99328 1.11716 0
M  V30 502 C 49.9923 0.741323 3.41036 0
M  V30 503 C 51.3403 0.735266 4.18185 0
M  V30 504 O 52.3643 0.68336 3.49584 0
M  V30 505 O 51.2233 0.800703 5.40602 0
M  V30 506 H 48.3173 0.0858893 0.822528 0
M  V30 507 H 50.8633 0.898609 1.43955 0
M  V30 508 H 49.6353 1.78276 3.4833 0
M  V30 509 H 49.2583 0.139307 3.97356 0
M  V30 510 N 50.2554 -1.46986 0.568584 0
M  V30 511 C 51.5324 -1.95592 -0.0174074 0
M  V30 512 C 51.9124 -1.51124 -1.47393 0
M  V30 513 O 51.2604 -0.755329 -2.15655 0
M  V30 514 C 51.4704 -3.48719 0.139913 0
M  V30 515 C 52.8184 -4.246 0.000426376 0
M  V30 516 O 53.8424 -3.56135 0.0680316 0
M  V30 517 O 52.7014 -5.46302 -0.146988 0
M  V30 518 H 49.7954 -0.82498 -0.0577599 0
M  V30 519 H 52.3414 -1.57335 0.635909 0
M  V30 520 H 51.1134 -3.73927 1.15301 0
M  V30 521 H 50.7364 -3.93771 -0.550491 0
M  V30 522 N 51.7335 -0.305618 -1.54608 0
M  V30 523 C 52.6635 0.561482 -2.26649 0
M  V30 524 C 53.6445 1.13415 -1.26772 0
M  V30 525 O 54.8295 1.16262 -1.55553 0
M  V30 526 C 51.9595 1.73122 -3.01075 0
M  V30 527 C 50.9135 1.2887 -4.08138 0
M  V30 528 C 50.2395 2.54396 -4.70305 0
M  V30 529 C 51.5395 0.416578 -5.20636 0
M  V30 530 H 53.2335 -0.0393902 -2.99374 0
M  V30 531 H 50.7795 -0.020385 -1.43986 0
M  V30 532 H 52.7325 2.34396 -3.50195 0
M  V30 533 H 51.4565 2.3584 -2.25936 0
M  V30 534 H 50.1155 0.698991 -3.59875 0
M  V30 535 H 49.7635 3.15439 -3.918 0
M  V30 536 H 49.4635 2.25486 -5.42614 0
M  V30 537 H 50.9875 3.16464 -5.2219 0
M  V30 538 H 52.4015 0.935116 -5.65622 0
M  V30 539 H 50.7985 0.221046 -5.99693 0
M  V30 540 H 51.8685 -0.557162 -4.81688 0
M  V30 541 N 53.2116 1.57565 -0.0334293 0
M  V30 542 C 54.1416 2.13511 0.945265 0
M  V30 543 C 55.1226 1.05231 1.33643 0
M  V30 544 O 56.3076 1.33084 1.41429 0
M  V30 545 C 53.4376 2.6657 2.22616 0
M  V30 546 C 52.3916 3.79676 1.97561 0
M  V30 547 C 51.7176 4.1918 3.31952 0
M  V30 548 C 53.0176 5.0557 1.31135 0
M  V30 549 H 54.7116 2.95538 0.479325 0
M  V30 550 H 52.2576 1.42166 0.229115 0
M  V30 551 H 54.2106 3.04344 2.91466 0
M  V30 552 H 52.9346 1.8171 2.71384 0
M  V30 553 H 51.5936 3.42347 1.31127 0
M  V30 554 H 51.2416 3.31296 3.78487 0
M  V30 555 H 50.9416 4.95402 3.15992 0
M  V30 556 H 52.4656 4.59541 4.02063 0
M  V30 557 H 53.8796 5.40903 1.89992 0
M  V30 558 H 52.2766 5.86818 1.25559 0
M  V30 559 H 53.3466 4.84062 0.284894 0
M  V30 560 N 54.6897 -0.239769 1.55765 0
M  V30 561 C 55.6197 -1.30052 1.9393 0
M  V30 562 C 56.6007 -1.49839 0.805132 0
M  V30 563 O 57.7857 -1.62328 1.06599 0
M  V30 564 C 54.9157 -2.65391 2.2402 0
M  V30 565 C 53.8697 -2.60289 3.39755 0
M  V30 566 C 53.1957 -3.99489 3.55405 0
M  V30 567 C 54.4957 -2.16654 4.75246 0
M  V30 568 H 56.1897 -0.983573 2.82783 0
M  V30 569 H 53.7357 -0.471701 1.36055 0
M  V30 570 H 55.6887 -3.3974 2.49308 0
M  V30 571 H 54.4127 -2.98736 1.32 0
M  V30 572 H 53.0717 -1.88398 3.14487 0
M  V30 573 H 52.7197 -4.30112 2.60793 0
M  V30 574 H 52.4197 -3.96962 4.33238 0
M  V30 575 H 53.9437 -4.75528 3.83022 0
M  V30 576 H 55.3577 -2.80737 4.99859 0
M  V30 577 H 53.7547 -2.25223 5.56232 0
M  V30 578 H 54.8247 -1.11835 4.71827 0
M  V30 579 N 56.1678 -1.49265 -0.50573 0
M  V30 580 C 57.5788 -1.51769 -1.08734 0
M  V30 581 C 57.9298 -0.301192 -1.93874 0
M  V30 582 O 57.0548 0.589456 -2.08217 0
M  V30 583 C 57.6498 -2.75017 -1.97867 0
M  V30 584 C 56.2088 -2.80314 -2.51199 0
M  V30 585 C 55.3558 -2.4562 -1.28709 0
M  V30 586 H 58.3068 -1.56031 -0.289855 0
M  V30 587 H 58.3278 -2.5491 -2.82491 0
M  V30 588 H 57.8398 -3.63539 -1.35873 0
M  V30 589 H 55.9408 -1.96061 -3.16845 0
M  V30 590 H 56.0538 -3.82366 -2.88675 0
M  V30 591 H 54.4178 -1.97297 -1.61078 0
M  V30 592 H 55.2008 -3.36411 -0.6843 0
M  V30 593 N 57.6459 0.756429 -1.3826 0
M  V30 594 C 58.8759 1.54341 -1.3734 0
M  V30 595 C 59.2839 1.89159 0.0393917 0
M  V30 596 O 58.6269 1.5307 1.01565 0
M  V30 597 C 58.6889 2.87238 -2.16182 0
M  V30 598 C 58.3529 2.74973 -3.65019 0
M  V30 599 C 59.3499 2.44962 -4.58574 0
M  V30 600 C 57.0349 2.92515 -4.08338 0
M  V30 601 C 59.0289 2.32642 -5.93428 0
M  V30 602 C 56.7159 2.79815 -5.43274 0
M  V30 603 C 57.7139 2.49921 -6.35632 0
M  V30 604 O 57.4019 2.37275 -7.68086 0
M  V30 605 H 57.1339 0.484281 -0.471643 0
M  V30 606 H 59.6879 0.944152 -1.82414 0
M  V30 607 H 57.9179 3.49342 -1.65822 0
M  V30 608 H 59.6069 3.48731 -2.07705 0
M  V30 609 H 60.3729 2.31081 -4.26412 0
M  V30 610 H 56.2519 3.14781 -3.368 0
M  V30 611 H 59.7959 2.0923 -6.65484 0
M  V30 612 H 55.6929 2.93269 -5.75034 0
M  V30 613 H 56.4609 2.52509 -7.78577 0
M  V30 614 N 59.124 1.23083 0.984299 0
M  V30 615 C 60.535 1.05609 1.5396 0
M  V30 616 C 60.886 -0.377793 1.92528 0
M  V30 617 O 60.011 -1.26398 1.75649 0
M  V30 618 C 60.606 1.91087 2.7977 0
M  V30 619 C 59.165 1.77885 3.31713 0
M  V30 620 C 58.312 1.87028 2.04733 0
M  V30 621 H 61.263 1.36802 0.804419 0
M  V30 622 H 61.284 1.43336 3.5247 0
M  V30 623 H 60.796 2.9544 2.51668 0
M  V30 624 H 58.897 0.762995 3.64704 0
M  V30 625 H 59.01 2.61047 4.01735 0
M  V30 626 H 57.374 1.30565 2.18689 0
M  V30 627 H 58.157 2.92929 1.79017 0
M  V30 628 N 60.6021 -1.18246 1.0419 0
M  V30 629 C 62.0181 -1.40269 0.761366 0
M  V30 630 C 62.2181 -1.90777 -0.648578 0
M  V30 631 O 61.2741 -2.0929 -1.41258 0
M  V30 632 C 62.5871 -2.40237 1.8085 0
M  V30 633 C 64.1351 -2.53961 1.82955 0
M  V30 634 C 64.6101 -3.57194 2.86664 0
M  V30 635 N 66.1011 -3.64702 2.85563 0
M  V30 636 C 66.8361 -4.44309 3.6246 0
M  V30 637 N 66.3321 -5.27514 4.49111 0
M  V30 638 N 68.1251 -4.39084 3.50944 0
M  V30 639 H 60.2761 -0.837882 1.95175 0
M  V30 640 H 62.5391 -0.430608 0.84456 0
M  V30 641 H 62.2451 -2.10176 2.81991 0
M  V30 642 H 62.1191 -3.39601 1.64168 0
M  V30 643 H 64.5061 -2.83338 0.824855 0
M  V30 644 H 64.5871 -1.54706 2.03715 0
M  V30 645 H 64.2311 -3.28558 3.87314 0
M  V30 646 H 64.1611 -4.5613 2.6316 0
M  V30 647 H 66.6521 -3.05289 2.22727 0
M  V30 648 H 66.9651 -5.85411 5.04493 0
M  V30 649 H 65.3101 -5.2693 4.53178 0
M  V30 650 H 68.5011 -3.7313 2.82651 0
M  V30 651 H 68.6741 -5.00883 4.11121 0
M  V30 652 N 62.0802 -0.821533 -1.34494 0
M  V30 653 C 63.0432 -0.247847 -2.27856 0
M  V30 654 C 64.0432 0.573453 -1.50227 0
M  V30 655 O 65.2332 0.389759 -1.69784 0
M  V30 656 C 62.3652 0.652698 -3.34593 0
M  V30 657 H 63.5582 -1.07146 -2.80107 0
M  V30 658 H 61.1112 -0.593291 -1.44602 0
M  V30 659 H 61.8462 1.49943 -2.87555 0
M  V30 660 H 61.6312 0.065292 -3.92046 0
M  V30 661 H 63.1212 1.04793 -4.04238 0
M  V30 662 N 63.5583 1.46682 -0.576371 0
M  V30 663 C 64.9743 1.57822 -0.237562 0
M  V30 664 C 65.1743 1.57237 1.26011 0
M  V30 665 O 64.2303 1.48596 2.04146 0
M  V30 666 C 65.5433 2.87499 -0.881168 0
M  V30 667 C 67.0913 3.01119 -0.85417 0
M  V30 668 C 67.5663 4.33524 -1.4772 0
M  V30 669 N 69.0573 4.40207 -1.44125 0
M  V30 670 C 69.7923 5.4126 -1.89276 0
M  V30 671 N 69.2883 6.49021 -2.42371 0
M  V30 672 N 71.0813 5.32422 -1.80231 0
M  V30 673 H 63.2323 1.45306 -1.54919 0
M  V30 674 H 65.4953 0.692733 -0.647167 0
M  V30 675 H 65.2013 2.9372 -1.93447 0
M  V30 676 H 65.0753 3.75224 -0.385592 0
M  V30 677 H 67.4623 2.94485 0.190491 0
M  V30 678 H 67.5433 2.14887 -1.3877 0
M  V30 679 H 67.1873 4.40916 -2.52103 0
M  V30 680 H 67.1173 5.1852 -0.918947 0
M  V30 681 H 69.6083 3.62931 -1.05307 0
M  V30 682 H 69.9213 7.2233 -2.74698 0
M  V30 683 H 68.2663 6.49858 -2.46393 0
M  V30 684 H 71.4573 4.47137 -1.38514 0
M  V30 685 H 71.6303 6.11034 -2.15735 0
M  V30 686 N 65.0364 0.313813 1.54444 0
M  V30 687 C 65.9994 -0.54379 2.22656 0
M  V30 688 C 66.9994 -1.05124 1.21678 0
M  V30 689 O 68.1894 -0.945225 1.46325 0
M  V30 690 C 65.3214 -1.75427 2.92298 0
M  V30 691 H 66.5144 0.0523599 2.99854 0
M  V30 692 H 64.0674 0.0647834 1.56166 0
M  V30 693 H 64.8024 -2.38991 2.19211 0
M  V30 694 H 64.5874 -1.39791 3.66334 0
M  V30 695 H 66.0774 -2.36325 3.44297 0
M  V30 696 N 66.5145 -1.57545 0.0417849 0
M  V30 697 C 67.9305 -1.56467 -0.314704 0
M  V30 698 C 68.1305 -1.04859 -1.72066 0
M  V30 699 O 67.1865 -0.700983 -2.42575 0
M  V30 700 C 68.4995 -3.00317 -0.15174 0
M  V30 701 C 70.0475 -3.12201 -0.223553 0
M  V30 702 C 70.5225 -4.57913 -0.0892295 0
M  V30 703 N 72.0135 -4.6297 -0.145808 0
M  V30 704 C 72.7485 -5.73362 -0.0658459 0
M  V30 705 N 72.2445 -6.92769 0.0659282 0
M  V30 706 N 74.0375 -5.6197 -0.12075 0
M  V30 707 H 66.1885 -1.89416 0.961014 0
M  V30 708 H 68.4515 -0.871862 0.372237 0
M  V30 709 H 68.1575 -3.42073 0.817254 0
M  V30 710 H 68.0315 -3.65892 -0.916692 0
M  V30 711 H 70.4185 -2.70349 -1.18301 0
M  V30 712 H 70.4995 -2.49323 0.571994 0
M  V30 713 H 70.1435 -5.00448 0.866867 0
M  V30 714 H 70.0735 -5.18786 -0.903802 0
M  V30 715 H 72.5645 -3.7709 -0.247286 0
M  V30 716 H 72.8775 -7.72707 0.119905 0
M  V30 717 H 71.2225 -6.94927 0.100885 0
M  V30 718 H 74.4135 -4.67572 -0.222187 0
M  V30 719 H 74.5865 -6.47977 -0.0549735 0
M  V30 720 N 67.9926 0.231505 -1.5589 0
M  V30 721 C 68.9226 1.29022 -1.94617 0
M  V30 722 C 69.9036 1.4941 -0.813067 0
M  V30 723 O 71.0886 1.6176 -1.07459 0
M  V30 724 C 68.2186 2.64199 -2.25424 0
M  V30 725 C 67.1726 2.58484 -3.41131 0
M  V30 726 C 66.4986 3.97599 -3.57518 0
M  V30 727 C 67.7986 2.1413 -4.76388 0
M  V30 728 H 69.4926 0.968563 -2.83301 0
M  V30 729 H 67.0386 0.464479 -1.36303 0
M  V30 730 H 68.9916 3.38413 -2.51107 0
M  V30 731 H 67.7156 2.98032 -1.33583 0
M  V30 732 H 66.3746 1.86727 -3.15481 0
M  V30 733 H 66.0226 4.28723 -2.6307 0
M  V30 734 H 65.7226 3.94659 -4.35337 0
M  V30 735 H 67.2466 4.7349 -3.85538 0
M  V30 736 H 68.6606 2.78083 -5.01341 0
M  V30 737 H 67.0576 2.2227 -5.57419 0
M  V30 738 H 68.1276 1.09331 -4.72414 0
M  V30 739 N 69.4707 1.49531 0.497807 0
M  V30 740 C 70.8817 1.52344 1.07927 0
M  V30 741 C 71.2327 0.311469 1.93712 0
M  V30 742 O 70.3577 -0.578405 2.08527 0
M  V30 743 C 70.9527 2.76062 1.96405 0
M  V30 744 C 69.5117 2.81643 2.49709 0
M  V30 745 C 68.6587 2.46299 1.27404 0
M  V30 746 H 71.6097 1.56182 0.281576 0
M  V30 747 H 71.6307 2.56405 2.81135 0
M  V30 748 H 71.1427 3.64254 1.33943 0
M  V30 749 H 69.2437 1.97739 3.15801 0
M  V30 750 H 69.3567 3.83891 2.86643 0
M  V30 751 H 67.7207 1.98148 1.60029 0
M  V30 752 H 68.5037 3.36769 0.66645 0
M  V30 753 N 70.9488 -0.749086 1.3866 0
M  V30 754 C 72.3648 -1.05276 1.19955 0
M  V30 755 C 72.5648 -2.01435 0.05134 0
M  V30 756 O 71.6208 -2.45232 -0.60147 0
M  V30 757 C 72.9338 -1.62853 2.52783 0
M  V30 758 C 74.4818 -1.75002 2.59506 0
M  V30 759 C 74.9568 -2.35991 3.92521 0
M  V30 760 N 76.4478 -2.43416 3.94085 0
M  V30 761 C 77.1828 -2.91511 4.9377 0
M  V30 762 N 76.6788 -3.39608 6.03853 0
M  V30 763 N 78.4718 -2.90592 4.81157 0
M  V30 764 H 70.6228 -0.111066 2.12109 0
M  V30 765 H 72.8858 -0.111901 0.941373 0
M  V30 766 H 72.5918 -0.99664 3.37283 0
M  V30 767 H 72.4658 -2.61854 2.715 0
M  V30 768 H 74.8528 -2.37317 1.75398 0
M  V30 769 H 74.9338 -0.74693 2.44652 0
M  V30 770 H 74.5778 -1.74308 4.77053 0
M  V30 771 H 74.5078 -3.3695 4.04688 0
M  V30 772 H 76.9988 -2.09405 3.14576 0
M  V30 773 H 77.3118 -3.74775 6.75843 0
M  V30 774 H 75.6568 -3.37653 6.07466 0
M  V30 775 H 78.8478 -2.52332 3.94267 0
M  V30 776 H 79.0208 -3.27762 5.58996 0
M  V30 777 N 72.4269 -1.23603 -0.977757 0
M  V30 778 C 73.7039 -0.977897 -1.69401 0
M  V30 779 C 74.0839 0.502738 -2.05026 0
M  V30 780 O 73.4319 1.47459 -1.74551 0
M  V30 781 C 73.6419 -1.89077 -2.93345 0
M  V30 782 C 74.9899 -2.15579 -3.65802 0
M  V30 783 O 76.0139 -1.86648 -3.03383 0
M  V30 784 O 74.8729 -2.64658 -4.78141 0
M  V30 785 H 71.9669 -0.369025 -0.740101 0
M  V30 786 H 74.5129 -1.34657 -1.03274 0
M  V30 787 H 73.2849 -2.89158 -2.63634 0
M  V30 788 H 72.9079 -1.52463 -3.67207 0
M  V30 789 N 73.905 1.17692 -1.04816 0
M  V30 790 C 75.145 1.89545 -0.764979 0
M  V30 791 C 75.509 1.78979 0.695028 0
M  V30 792 O 76.71 2.45613 1.09215 0
M  V30 793 C 74.981 3.35659 -1.22751 0
M  V30 794 S 76.54 4.25526 -1.07112 0
M  V30 795 H 73.358 0.654432 -0.27792 0
M  V30 796 H 75.96 1.42163 -1.34201 0
M  V30 797 H 74.664 3.40882 -2.28533 0
M  V30 798 H 74.195 3.88083 -0.644594 0
M  V30 799 H 76.21 4.962 0.00697508 0
M  V30 800 N 75.3831 0.828654 1.34056 0
M  V30 801 C 76.6111 0.43262 2.02326 0
M  V30 802 C 77.0261 -0.963147 1.62385 0
M  V30 803 O 76.3831 -1.62425 0.832121 0
M  V30 804 C 76.4341 0.53182 3.57567 0
M  V30 805 O 76.1551 1.87258 3.96063 0
M  V30 806 C 77.6561 0.131422 4.43105 0
M  V30 807 H 74.8761 0.172923 0.648335 0
M  V30 808 H 77.4201 1.1184 1.71208 0
M  V30 809 H 75.5751 -0.105938 3.87255 0
M  V30 810 H 75.9891 1.85087 4.90758 0
M  V30 811 H 77.4631 0.251904 5.51425 0
M  V30 812 H 77.9401 -0.925645 4.29335 0
M  V30 813 H 78.5461 0.743207 4.18756 0
M  V30 814 N 76.8612 -1.46375 0.584142 0
M  V30 815 C 78.2772 -1.57694 0.245929 0
M  V30 816 C 78.4772 -1.57903 -1.25175 0
M  V30 817 O 77.5332 -1.49676 -2.03355 0
M  V30 818 C 78.8462 -2.87028 0.896402 0
M  V30 819 C 80.3942 -3.00662 0.870127 0
M  V30 820 C 80.8692 -4.32734 1.50017 0
M  V30 821 N 82.3602 -4.39436 1.46458 0
M  V30 822 C 83.0952 -5.40248 1.92144 0
M  V30 823 N 82.5912 -6.47726 2.4581 0
M  V30 824 N 84.3842 -5.31459 1.83052 0
M  V30 825 H 76.5352 -1.44483 1.55687 0
M  V30 826 H 78.7982 -0.689291 0.650831 0
M  V30 827 H 78.5042 -2.9269 1.95002 0
M  V30 828 H 78.3782 -3.75014 0.405486 0
M  V30 829 H 80.7652 -2.94581 -0.174871 0
M  V30 830 H 80.8462 -2.14148 1.39908 0
M  V30 831 H 80.4902 -4.39573 2.54437 0
M  V30 832 H 80.4202 -5.18025 0.946432 0
M  V30 833 H 82.9112 -3.62367 1.07231 0
M  V30 834 H 83.2242 -7.20863 2.78525 0
M  V30 835 H 81.5692 -6.48542 2.49836 0
M  V30 836 H 84.7602 -4.46396 1.40883 0
M  V30 837 H 84.9332 -6.09881 2.18973 0
M  V30 838 N 78.3393 -0.321999 -1.54275 0
M  V30 839 C 79.5853 0.281461 -2.00837 0
M  V30 840 C 79.9183 1.51909 -1.20985 0
M  V30 841 O 79.1933 1.923 -0.291733 0
M  V30 842 C 79.4763 0.617162 -3.54772 0
M  V30 843 C 79.3293 -0.631064 -4.45351 0
M  V30 844 C 80.6483 1.43542 -4.16033 0
M  V30 845 H 77.7673 0.100826 -0.730071 0
M  V30 846 H 80.4093 -0.438268 -1.84876 0
M  V30 847 H 78.5593 1.23034 -3.68504 0
M  V30 848 H 80.2313 -1.26934 -4.43492 0
M  V30 849 H 78.4743 -1.26025 -4.15091 0
M  V30 850 H 79.1453 -0.351735 -5.50878 0
M  V30 851 H 81.6213 0.917134 -4.05867 0
M  V30 852 H 80.4973 1.63907 -5.23856 0
M  V30 853 H 80.7583 2.43108 -3.69257 0
M  V30 854 N 79.8174 1.5752 -0.0501392 0
M  V30 855 C 81.2334 1.56631 0.306402 0
M  V30 856 C 81.4334 1.0577 1.71508 0
M  V30 857 O 80.4894 0.713837 2.422 0
M  V30 858 C 81.8024 3.00393 0.135811 0
M  V30 859 C 83.3504 3.12315 0.206993 0
M  V30 860 C 83.8254 4.57954 0.064944 0
M  V30 861 N 85.3164 4.63041 0.121254 0
M  V30 862 C 86.0514 5.73389 0.0354381 0
M  V30 863 N 85.5474 6.92724 -0.102666 0
M  V30 864 N 87.3404 5.62026 0.090946 0
M  V30 865 H 79.4914 1.88903 -0.971046 0
M  V30 866 H 81.7544 0.869876 -0.376855 0
M  V30 867 H 81.4604 3.41635 -0.835384 0
M  V30 868 H 81.3344 3.66373 0.897275 0
M  V30 869 H 83.7214 2.70973 1.16866 0
M  V30 870 H 83.8024 2.49016 -0.585208 0
M  V30 871 H 83.4464 4.99981 -0.893394 0
M  V30 872 H 83.3764 5.19258 0.876277 0
M  V30 873 H 85.8674 3.77216 0.227284 0
M  V30 874 H 86.1804 7.72633 -0.160882 0
M  V30 875 H 84.5254 6.94864 -0.137737 0
M  V30 876 H 87.7164 4.67684 0.197388 0
M  V30 877 H 87.8894 6.47997 0.0206089 0
M  V30 878 N 81.2955 -0.223234 1.56011 0
M  V30 879 C 82.2585 -1.26014 1.9145 0
M  V30 880 C 83.2585 -1.3989 0.792937 0
M  V30 881 O 84.4485 -1.38184 1.0607 0
M  V30 882 C 81.5805 -2.63422 2.16383 0
M  V30 883 H 82.7735 -0.95796 2.84189 0
M  V30 884 H 80.3265 -0.463576 1.49267 0
M  V30 885 H 81.0615 -2.98741 1.2619 0
M  V30 886 H 80.8465 -2.54728 2.98088 0
M  V30 887 H 82.3365 -3.38249 2.44903 0
M  V30 888 N 82.7736 -1.49793 -0.48987 0
M  V30 889 C 84.0216 -1.59525 -1.24081 0
M  V30 890 C 84.3426 -0.288953 -1.92847 0
M  V30 891 O 83.6126 0.692436 -1.83254 0
M  V30 892 H 82.1926 -0.587796 -0.460983 0
M  V30 893 H 84.8546 -1.86477 -0.566778 0
M  V30 894 H 83.9506 -2.39696 -1.99881 0
M  V30 895 N 84.2517 0.741722 -1.39055 0
M  V30 896 C 85.1997 1.87702 -1.3737 0
M  V30 897 C 86.1937 1.67427 -0.257812 0
M  V30 898 O 87.3997 1.7485 -0.427489 0
M  V30 899 H 83.7747 0.617757 -0.428812 0
M  V30 900 H 85.7457 1.86239 -2.33147 0
M  V30 901 C 84.4947 3.25315 -1.22741 0
M  V30 902 H 83.8177 3.41509 -2.07873 0
M  V30 903 H 85.2577 4.04964 -1.25618 0
M  V30 904 C 83.7167 3.36838 0.0647316 0
M  V30 905 O 84.2467 3.88073 1.03741 0
M  V30 906 N 82.4527 2.90329 0.125544 0
M  V30 907 H 81.9997 2.48823 -0.666682 0
M  V30 908 H 81.9577 2.98418 0.989639 0
M  V30 909 N 85.7298 1.2412 0.971189 0
M  V30 910 C 87.1458 1.00584 1.23916 0
M  V30 911 C 87.3458 -0.287481 1.99439 0
M  V30 912 O 86.4018 -1.00454 2.31658 0
M  V30 913 C 87.7148 2.21864 2.0297 0
M  V30 914 C 89.2628 2.26452 2.16076 0
M  V30 915 C 89.7378 3.47343 2.98524 0
M  V30 916 N 91.2288 3.47639 3.06107 0
M  V30 917 C 91.9638 4.37837 3.70251 0
M  V30 918 N 91.4598 5.38286 4.36142 0
M  V30 919 N 93.2528 4.25558 3.67228 0
M  V30 920 H 85.4038 2.07236 0.465499 0
M  V30 921 H 87.6668 0.909236 0.268315 0
M  V30 922 H 87.3728 3.15771 1.54861 0
M  V30 923 H 87.2468 2.23698 3.03709 0
M  V30 924 H 89.6338 1.33078 2.6339 0
M  V30 925 H 89.7148 2.28645 1.14696 0
M  V30 926 H 89.3588 4.41029 2.51905 0
M  V30 927 H 89.2888 3.42393 4.00093 0
M  V30 928 H 91.7798 2.74966 2.59233 0
M  V30 929 H 92.0928 6.03352 4.82894 0
M  V30 930 H 90.4378 5.42176 4.34822 0
M  V30 931 H 93.6288 3.46322 3.14927 0
M  V30 932 H 93.8018 4.96054 4.16935 0
M  V30 933 N 87.2079 -1.17134 1.05439 0
M  V30 934 C 88.1179 -2.24878 0.668365 0
M  V30 935 C 89.1339 -1.71186 -0.311687 0
M  V30 936 O 90.3099 -2.00738 -0.163161 0
M  V30 937 C 87.3749 -3.46662 0.051648 0
M  V30 938 C 86.4359 -4.15429 1.08246 0
M  V30 939 C 85.6689 -5.31399 0.495082 0
M  V30 940 O 85.8919 -5.66153 -0.694743 0
M  V30 941 O 84.8259 -5.89187 1.23056 0
M  V30 942 H 88.6519 -2.60189 1.56637 0
M  V30 943 H 86.2369 -1.24482 0.826104 0
M  V30 944 H 88.1189 -4.20394 -0.290966 0
M  V30 945 H 86.7939 -3.13142 -0.819971 0
M  V30 946 H 85.7009 -3.43704 1.47711 0
M  V30 947 H 87.0339 -4.52982 1.92532 0
M  V30 948 N 88.686 -0.835752 -1.33615 0
M  V30 949 C 89.636 -0.238856 -2.26745 0
M  V30 950 C 90.62 0.604343 -1.49119 0
M  V30 951 O 91.812 0.456822 -1.71003 0
M  V30 952 C 88.941 0.587725 -3.38232 0
M  V30 953 C 88.027 -0.266811 -4.2326 0
M  V30 954 N 88.418 -1.34403 -4.87616 0
M  V30 955 C 86.716 -0.0533131 -4.45968 0
M  V30 956 C 87.417 -1.86819 -5.50884 0
M  V30 957 N 86.393 -1.17013 -5.30857 0
M  V30 958 H 90.195 -1.06266 -2.74016 0
M  V30 959 H 87.709 -0.679881 -1.47483 0
M  V30 960 H 89.706 1.03161 -4.03935 0
M  V30 961 H 88.366 1.40954 -2.9251 0
M  V30 962 H 89.377 -1.7269 -4.88261 0
M  V30 963 H 86.054 0.735312 -4.10974 0
M  V30 964 H 87.444 -2.7701 -6.1214 0
M  V30 965 N 90.1641 1.46063 -0.591896 0
M  V30 966 C 91.0741 2.34192 0.13831 0
M  V30 967 C 92.0901 1.50305 0.876608 0
M  V30 968 O 93.2661 1.8315 0.837728 0
M  V30 969 C 90.3311 3.27656 1.13326 0
M  V30 970 C 89.3921 4.27445 0.39863 0
M  V30 971 C 88.6251 5.16443 1.34618 0
M  V30 972 O 88.8481 5.08553 2.58321 0
M  V30 973 O 87.7821 5.95843 0.851768 0
M  V30 974 H 91.6081 2.98002 -0.58552 0
M  V30 975 H 89.1931 1.45188 -0.352239 0
M  V30 976 H 91.0751 3.85291 1.70671 0
M  V30 977 H 89.7501 2.6643 1.83839 0
M  V30 978 H 88.6571 3.73471 -0.216895 0
M  V30 979 H 89.9901 4.91482 -0.265709 0
M  V30 980 N 91.6422 0.330177 1.54103 0
M  V30 981 C 92.8672 -0.274893 2.0557 0
M  V30 982 C 93.2922 -1.44487 1.20437 0
M  V30 983 O 92.6502 -1.80021 0.214991 0
M  V30 984 C 92.6982 -0.68079 3.54115 0
M  V30 985 O 91.8022 -1.7824 3.71893 0
M  V30 986 H 91.1432 -0.0483849 0.662235 0
M  V30 987 H 93.6732 0.480508 1.98878 0
M  V30 988 H 93.6832 -0.961635 3.96505 0
M  V30 989 H 92.3582 0.174903 4.15532 0
M  V30 990 H 90.9352 -1.49985 3.41407 0
M  V30 991 N 93.1203 -1.57491 0.0584922 0
M  V30 992 C 94.3663 -1.94081 -0.608617 0
M  V30 993 C 94.7213 -0.937438 -1.68017 0
M  V30 994 O 94.0143 0.0423034 -1.91553 0
M  V30 995 C 94.2083 -3.3513 -1.24188 0
M  V30 996 C 94.0373 -4.49095 -0.233187 0
M  V30 997 C 92.8073 -5.04988 0.177439 0
M  V30 998 C 95.0053 -5.1162 0.524306 0
M  V30 999 N 92.9873 -6.02487 1.17823 0
M  V30 1000 C 94.3583 -6.04493 1.37796 0
M  V30 1001 C 96.4133 -4.94489 0.581822 0
M  V30 1002 C 95.1163 -6.82075 2.28399 0
M  V30 1003 C 97.1423 -5.72703 1.47531 0
M  V30 1004 C 96.5043 -6.65214 2.31667 0
M  V30 1005 H 92.6033 -0.75752 -0.194134 0
M  V30 1006 H 95.1873 -1.94248 0.132533 0
M  V30 1007 H 93.3583 -3.35726 -1.95302 0
M  V30 1008 H 95.0903 -3.5899 -1.86838 0
M  V30 1009 H 91.8453 -4.73165 -0.203004 0
M  V30 1010 H 92.2693 -6.55933 1.67573 0
M  V30 1011 H 96.9113 -4.22765 -0.054443 0
M  V30 1012 H 94.6293 -7.53085 2.93067 0
M  V30 1013 H 98.2153 -5.61472 1.52448 0
M  V30 1014 H 97.0953 -7.24679 2.99683 0
M  V30 1015 N 94.5984 0.214957 -1.56127 0
M  V30 1016 C 96.0094 0.781386 -1.69562 0
M  V30 1017 C 96.3604 1.84707 -0.66165 0
M  V30 1018 O 95.4854 2.156 0.185927 0
M  V30 1019 C 96.0804 1.42411 -3.07416 0
M  V30 1020 C 94.6394 1.93786 -3.22683 0
M  V30 1021 C 93.7864 0.800438 -2.65496 0
M  V30 1022 H 96.7374 -0.00980633 -1.58697 0
M  V30 1023 H 96.7584 2.29309 -3.0364 0
M  V30 1024 H 96.2704 0.64826 -3.82648 0
M  V30 1025 H 94.3714 2.74152 -2.52332 0
M  V30 1026 H 94.4844 2.1133 -4.29973 0
M  V30 1027 H 92.8484 1.2095 -2.2415 0
M  V30 1028 H 93.6314 0.0371471 -3.4328 0
M  V30 1029 N 96.0765 1.50051 0.48192 0
M  V30 1030 C 97.4875 1.5348 1.06305 0
M  V30 1031 C 97.8385 0.331997 1.93371 0
M  V30 1032 O 96.9635 -0.556256 2.09129 0
M  V30 1033 C 97.5585 2.7813 1.93466 0
M  V30 1034 C 96.1175 2.84275 2.46707 0
M  V30 1035 C 95.2645 2.47637 1.24785 0
M  V30 1036 H 98.2155 1.56472 0.264995 0
M  V30 1037 H 98.2365 2.59372 2.78399 0
M  V30 1038 H 97.7485 3.65654 1.30072 0
M  V30 1039 H 95.8495 2.01077 3.13686 0
M  V30 1040 H 95.9625 3.8691 2.82555 0
M  V30 1041 H 94.3265 1.99835 1.57918 0
M  V30 1042 H 95.1095 3.37457 0.630694 0
M  V30 1043 N 97.5546 -0.734337 1.39446 0
M  V30 1044 C 98.9656 -1.31264 1.32766 0
M  V30 1045 C 99.3166 -1.96198 -0.00767497 0
M  V30 1046 O 98.4416 -1.96346 -0.909796 0
M  V30 1047 C 99.0366 -2.38682 2.4045 0
M  V30 1048 C 97.5956 -2.92184 2.37288 0
M  V30 1049 C 96.7426 -1.6576 2.22304 0
M  V30 1050 H 99.6936 -0.531799 1.49525 0
M  V30 1051 H 99.7146 -3.19087 2.07276 0
M  V30 1052 H 99.2266 -1.91392 3.37625 0
M  V30 1053 H 97.3276 -3.43752 1.43754 0
M  V30 1054 H 97.4406 -3.45253 3.3217 0
M  V30 1055 H 95.8046 -1.9012 1.69489 0
M  V30 1056 H 96.5876 -1.20521 3.21449 0
M  V30 1057 N 99.0327 -1.24633 -0.964593 0
M  V30 1058 C 100.444 -1.08045 -1.5226 0
M  V30 1059 C 100.795 0.347116 -1.93105 0
M  V30 1060 O 99.9197 1.23588 -1.77637 0
M  V30 1061 C 100.515 -1.95514 -2.76695 0
M  V30 1062 C 99.0737 -1.8314 -3.28841 0
M  V30 1063 C 98.2207 -1.90262 -2.01732 0
M  V30 1064 H 101.172 -1.38064 -0.782553 0
M  V30 1065 H 101.193 -1.48925 -3.50145 0
M  V30 1066 H 100.705 -2.99407 -2.46936 0
M  V30 1067 H 98.8057 -0.82092 -3.63444 0
M  V30 1068 H 98.9187 -2.67406 -3.97531 0
M  V30 1069 H 97.2827 -1.34027 -2.16584 0
M  V30 1070 H 98.0657 -2.9574 -1.74334 0
M  V30 1071 N 100.511 1.16574 -1.06058 0
M  V30 1072 C 101.474 2.19085 -0.673392 0
M  V30 1073 C 102.474 1.5835 0.279648 0
M  V30 1074 O 103.664 1.74088 0.0623488 0
M  V30 1075 C 100.796 3.40899 0.00954234 0
M  V30 1076 H 101.989 2.54853 -1.58081 0
M  V30 1077 H 99.5418 1.30808 -0.855516 0
M  V30 1078 H 100.277 3.10684 0.929826 0
M  V30 1079 H 100.062 3.86233 -0.67573 0
M  V30 1080 H 101.552 4.1675 0.266245 0
M  V30 1081 N 101.989 0.842826 1.3317 0
M  V30 1082 C 103.217 0.454055 2.01856 0
M  V30 1083 C 103.632 -0.94587 1.63397 0
M  V30 1084 O 102.989 -1.61534 0.849302 0
M  V30 1085 C 103.04 0.569715 3.56982 0
M  V30 1086 O 102.761 1.91448 3.94055 0
M  V30 1087 C 104.262 0.178412 4.42941 0
M  V30 1088 H 101.482 0.17979 0.646465 0
M  V30 1089 H 104.026 1.1365 1.70012 0
M  V30 1090 H 102.181 -0.0648587 3.87346 0
M  V30 1091 H 102.595 1.90282 4.88767 0
M  V30 1092 H 104.069 0.310376 5.51127 0
M  V30 1093 H 104.546 -0.880056 4.30293 0
M  V30 1094 H 105.152 0.787579 4.17944 0
M  V30 1095 N 103.467 -1.45747 0.599634 0
M  V30 1096 C 104.878 -1.85853 0.177681 0
M  V30 1097 C 105.229 -1.50102 -1.26348 0
M  V30 1098 O 104.354 -0.923905 -1.95686 0
M  V30 1099 C 104.949 -3.37326 0.315688 0
M  V30 1100 C 103.508 -3.76365 -0.0515144 0
M  V30 1101 C 102.655 -2.69722 0.643822 0
M  V30 1102 H 105.606 -1.36661 0.806814 0
M  V30 1103 H 105.627 -3.77778 -0.454321 0
M  V30 1104 H 105.139 -3.63315 1.36468 0
M  V30 1105 H 103.24 -3.55993 -1.09999 0
M  V30 1106 H 103.353 -4.77916 0.336594 0
M  V30 1107 H 101.717 -2.54567 0.0822881 0
M  V30 1108 H 102.5 -2.98549 1.6948 0
M  V30 1109 N 104.945 -0.338344 -1.53925 0
M  V30 1110 C 106.193 0.259245 -2.0043 0
M  V30 1111 C 106.514 1.51484 -1.22791 0
M  V30 1112 O 105.784 1.93037 -0.33368 0
M  V30 1113 H 104.364 0.0987845 -0.740439 0
M  V30 1114 H 107.026 -0.458302 -1.89435 0
M  V30 1115 H 106.122 0.505334 -3.07982 0
M  V30 1116 N 106.423 1.57458 -0.0668435 0
M  V30 1117 C 107.386 2.11323 0.887422 0
M  V30 1118 C 108.386 1.03618 1.22964 0
M  V30 1119 O 109.576 1.29626 1.16373 0
M  V30 1120 C 106.708 2.61048 2.19242 0
M  V30 1121 H 107.901 2.96942 0.420194 0
M  V30 1122 H 105.454 1.55239 0.181793 0
M  V30 1123 H 106.189 1.78868 2.70512 0
M  V30 1124 H 105.974 3.39769 1.95702 0
M  V30 1125 H 107.464 3.02814 2.87565 0
M  V30 1126 N 107.901 -0.206675 1.56239 0
M  V30 1127 C 109.149 -0.927007 1.79586 0
M  V30 1128 C 109.47 -1.8427 0.637929 0
M  V30 1129 O 108.74 -1.92849 -0.344398 0
M  V30 1130 H 107.32 -0.345292 0.662407 0
M  V30 1131 H 109.982 -0.21496 1.93711 0
M  V30 1132 H 109.078 -1.52501 2.72305 0
M  V30 1133 N 109.379 -1.50304 -0.473955 0
M  V30 1134 C 110.627 -1.60832 -1.22382 0
M  V30 1135 C 110.948 -0.30939 -1.9253 0
M  V30 1136 O 110.218 0.67296 -1.83978 0
M  V30 1137 H 108.798 -0.592652 -0.454723 0
M  V30 1138 H 111.46 -1.87068 -0.546968 0
M  V30 1139 H 110.556 -2.41803 -1.97327 0
M  V30 1140 N 110.857 0.726932 -1.39834 0
M  V30 1141 C 111.787 1.85405 -1.41941 0
M  V30 1142 C 112.768 1.67751 -0.281728 0
M  V30 1143 O 113.953 1.8795 -0.488717 0
M  V30 1144 C 111.083 3.23243 -1.2701 0
M  V30 1145 C 110.037 3.55549 -2.38262 0
M  V30 1146 C 109.363 4.9241 -2.08415 0
M  V30 1147 C 110.663 3.577 -3.80589 0
M  V30 1148 H 112.357 1.83899 -2.36266 0
M  V30 1149 H 109.903 0.883349 -1.13723 0
M  V30 1150 H 111.856 4.01775 -1.27103 0
M  V30 1151 H 110.58 3.25296 -0.291564 0
M  V30 1152 H 109.239 2.79351 -2.37399 0
M  V30 1153 H 108.887 4.91052 -1.0898 0
M  V30 1154 H 108.587 5.14992 -2.82943 0
M  V30 1155 H 110.111 5.73289 -2.10171 0
M  V30 1156 H 111.525 4.26293 -3.83337 0
M  V30 1157 H 109.922 3.91804 -4.54543 0
M  V30 1158 H 110.992 2.57328 -4.10987 0
M  V30 1159 N 112.336 1.25143 0.95797 0
M  V30 1160 C 113.299 1.05321 2.03569 0
M  V30 1161 C 114.299 0.007152 1.60798 0
M  V30 1162 O 115.489 0.24903 1.72411 0
M  V30 1163 C 112.621 0.598394 3.35607 0
M  V30 1164 H 113.814 2.00986 2.22586 0
M  V30 1165 H 111.367 1.07502 1.13459 0
M  V30 1166 H 112.102 -0.361014 3.22284 0
M  V30 1167 H 111.887 1.35351 3.67998 0
M  V30 1168 H 113.377 0.48104 4.1482 0
M  V30 1169 N 113.814 -1.1601 1.06675 0
M  V30 1170 C 115.06 -1.86909 0.786945 0
M  V30 1171 C 115.393 -1.81717 -0.685018 0
M  V30 1172 O 114.668 -1.23551 -1.50218 0
M  V30 1173 C 114.951 -3.36313 1.28707 0
M  V30 1174 C 114.804 -3.50175 2.82308 0
M  V30 1175 C 116.123 -4.3084 0.898071 0
M  V30 1176 H 113.242 -0.678677 0.287343 0
M  V30 1177 H 115.884 -1.36336 1.32334 0
M  V30 1178 H 114.034 -3.79513 0.830768 0
M  V30 1179 H 115.706 -3.15886 3.36175 0
M  V30 1180 H 113.949 -2.91959 3.20847 0
M  V30 1181 H 114.62 -4.55116 3.12368 0
M  V30 1182 H 117.096 -3.95561 1.29114 0
M  V30 1183 H 115.972 -5.33876 1.27543 0
M  V30 1184 H 116.233 -4.41662 -0.196651 0
M  V30 1185 N 115.292 -0.849877 -1.32721 0
M  V30 1186 C 116.708 -0.539102 -1.50219 0
M  V30 1187 C 116.908 0.931271 -1.78689 0
M  V30 1188 O 115.964 1.71455 -1.85363 0
M  V30 1189 C 117.277 -1.42196 -2.64954 0
M  V30 1190 C 118.825 -1.42189 -2.78839 0
M  V30 1191 C 119.3 -2.28985 -3.96648 0
M  V30 1192 N 120.791 -2.26754 -4.03902 0
M  V30 1193 C 121.526 -2.90644 -4.94281 0
M  V30 1194 N 121.022 -3.63629 -5.897 0
M  V30 1195 N 122.815 -2.80057 -4.87365 0
M  V30 1196 H 114.966 -1.80156 -1.12506 0
M  V30 1197 H 117.229 -0.769217 -0.554085 0
M  V30 1198 H 116.935 -2.46733 -2.50631 0
M  V30 1199 H 116.809 -1.10591 -3.60624 0
M  V30 1200 H 119.196 -0.38419 -2.92588 0
M  V30 1201 H 119.277 -1.77807 -1.83898 0
M  V30 1202 H 118.921 -3.32819 -3.83658 0
M  V30 1203 H 118.851 -1.90702 -4.90857 0
M  V30 1204 H 121.342 -1.73688 -3.3562 0
M  V30 1205 H 121.655 -4.09558 -6.55349 0
M  V30 1206 H 120 -3.67737 -5.89741 0
M  V30 1207 H 123.191 -2.22593 -4.11789 0
M  V30 1208 H 123.364 -3.30132 -5.57599 0
M  V30 1209 N 116.77 1.45427 -0.607355 0
M  V30 1210 C 117.998 2.06614 -0.108814 0
M  V30 1211 C 118.413 1.45204 1.2067 0
M  V30 1212 O 117.77 0.566132 1.73497 0
M  V30 1213 C 117.821 3.61481 0.0375347 0
M  V30 1214 O 117.542 4.20598 -1.22593 0
M  V30 1215 C 119.043 4.39652 0.567561 0
M  V30 1216 H 116.263 0.66747 -0.0687351 0
M  V30 1217 H 118.807 1.86675 -0.835022 0
M  V30 1218 H 116.962 3.80762 0.714068 0
M  V30 1219 H 117.376 5.1377 -1.05547 0
M  V30 1220 H 118.85 5.48518 0.61905 0
M  V30 1221 H 119.327 4.09417 1.58978 0
M  V30 1222 H 119.933 4.25234 -0.0749202 0
M  V30 1223 N 118.248 0.346503 1.53744 0
M  V30 1224 C 119.495 -0.249104 2.00962 0
M  V30 1225 C 119.823 -1.5032 1.23426 0
M  V30 1226 O 119.078 -1.93217 0.310761 0
M  V30 1227 C 119.377 -0.605809 3.52228 0
M  V30 1228 C 119.043 0.551747 4.47512 0
M  V30 1229 C 117.705 0.86941 4.73281 0
M  V30 1230 C 120.057 1.32818 5.03993 0
M  V30 1231 C 117.385 1.96582 5.52786 0
M  V30 1232 C 119.737 2.41486 5.84694 0
M  V30 1233 C 118.401 2.73808 6.08757 0
M  V30 1234 H 117.671 -0.0911538 0.735372 0
M  V30 1235 H 120.318 0.475027 1.85515 0
M  V30 1236 H 118.623 -1.4107 3.65522 0
M  V30 1237 H 120.32 -1.07858 3.86222 0
M  V30 1238 H 116.91 0.294102 4.2759 0
M  V30 1239 H 121.094 1.09602 4.84047 0
M  V30 1240 H 116.35 2.22045 5.69654 0
M  V30 1241 H 120.524 3.02078 6.27473 0
M  V30 1242 H 118.151 3.58892 6.7015 0
M  V30 1243 N 119.726 -1.57421 0.075193 0
M  V30 1244 C 120.972 -1.93905 -0.594025 0
M  V30 1245 C 121.305 -0.955701 -1.69056 0
M  V30 1246 O 120.58 0.0145373 -1.94495 0
M  V30 1247 C 120.863 -3.40638 -1.1678 0
M  V30 1248 C 120.716 -4.49733 -0.0776792 0
M  V30 1249 C 122.035 -3.88259 -2.07228 0
M  V30 1250 H 119.154 -0.705105 -0.214466 0
M  V30 1251 H 121.796 -1.8947 0.141854 0
M  V30 1252 H 119.946 -3.44549 -1.79494 0
M  V30 1253 H 121.618 -4.57942 0.555573 0
M  V30 1254 H 119.861 -4.29751 0.591286 0
M  V30 1255 H 120.532 -5.49549 -0.519603 0
M  V30 1256 H 123.008 -3.86376 -1.54445 0
M  V30 1257 H 121.884 -4.91533 -2.44308 0
M  V30 1258 H 122.145 -3.26396 -2.98191 0
M  V30 1259 N 121.204 0.198386 -1.56346 0
M  V30 1260 C 122.429 0.939682 -1.84891 0
M  V30 1261 C 122.854 1.76202 -0.658369 0
M  V30 1262 O 122.212 1.76993 0.392851 0
M  V30 1263 C 122.26 1.81428 -3.11635 0
M  V30 1264 O 121.364 2.91265 -2.91956 0
M  V30 1265 H 120.705 0.264807 -0.608912 0
M  V30 1266 H 123.235 0.204695 -2.03573 0
M  V30 1267 H 123.245 2.21958 -3.42343 0
M  V30 1268 H 121.92 1.21004 -3.97908 0
M  V30 1269 H 120.497 2.54514 -2.72538 0
M  V30 1270 N 122.682 1.50554 0.465978 0
M  V30 1271 C 123.632 1.66177 1.56106 0
M  V30 1272 C 124.616 0.516265 1.52393 0
M  V30 1273 O 125.808 0.770906 1.5933 0
M  V30 1274 C 122.937 1.76396 2.94515 0
M  V30 1275 C 122.023 2.9664 3.03093 0
M  V30 1276 N 122.414 4.20245 2.81474 0
M  V30 1277 C 120.712 2.95304 3.34233 0
M  V30 1278 C 121.413 5.01259 2.95151 0
M  V30 1279 N 120.389 4.35318 3.25576 0
M  V30 1280 H 124.191 2.59434 1.38099 0
M  V30 1281 H 121.705 1.47808 0.6728 0
M  V30 1282 H 123.702 1.85694 3.73261 0
M  V30 1283 H 122.362 0.843017 3.13565 0
M  V30 1284 H 123.373 4.4966 2.56956 0
M  V30 1285 H 120.05 2.12729 3.59239 0
M  V30 1286 H 121.44 6.09564 2.82632 0
M  V30 1287 N 124.16 -0.719506 1.40217 0
M  V30 1288 C 125.407 -1.47933 1.38283 0
M  V30 1289 C 125.735 -1.94493 -0.0161536 0
M  V30 1290 O 124.99 -1.68224 -0.999956 0
M  V30 1291 C 125.289 -2.72271 2.31524 0
M  V30 1292 C 124.955 -2.44496 3.78857 0
M  V30 1293 C 123.617 -2.36631 4.18998 0
M  V30 1294 C 125.969 -2.21104 4.71977 0
M  V30 1295 C 123.297 -2.03437 5.503 0
M  V30 1296 C 125.649 -1.89423 6.03574 0
M  V30 1297 C 124.313 -1.80038 6.42762 0
M  V30 1298 H 123.583 -0.541325 0.506012 0
M  V30 1299 H 126.23 -0.824502 1.72842 0
M  V30 1300 H 124.535 -3.42572 1.90137 0
M  V30 1301 H 126.232 -3.30348 2.27313 0
M  V30 1302 H 122.822 -2.51503 3.47051 0
M  V30 1303 H 127.006 -2.26139 4.41786 0
M  V30 1304 H 122.262 -1.94705 5.79569 0
M  V30 1305 H 126.436 -1.70336 6.75247 0
M  V30 1306 H 124.063 -1.54083 7.44421 0
M  V30 1307 N 125.638 -1.25649 -0.95132 0
M  V30 1308 C 127.054 -1.02542 -1.223 0
M  V30 1309 C 127.254 0.255715 -1.99871 0
M  V30 1310 O 126.31 0.967558 -2.33226 0
M  V30 1311 C 127.623 -2.25065 -1.99415 0
M  V30 1312 C 129.171 -2.29861 -2.12446 0
M  V30 1313 C 129.646 -3.52048 -2.92961 0
M  V30 1314 N 131.137 -3.52465 -3.00538 0
M  V30 1315 C 131.872 -4.43672 -3.63239 0
M  V30 1316 N 131.368 -5.45157 -4.27523 0
M  V30 1317 N 133.161 -4.31346 -3.60412 0
M  V30 1318 H 125.312 -2.07951 -0.432471 0
M  V30 1319 H 127.575 -0.91339 -0.253816 0
M  V30 1320 H 127.281 -3.18194 -1.49817 0
M  V30 1321 H 127.155 -2.28502 -3.00111 0
M  V30 1322 H 129.542 -1.37252 -2.61239 0
M  V30 1323 H 129.623 -2.3044 -1.11044 0
M  V30 1324 H 129.267 -4.44981 -2.44856 0
M  V30 1325 H 129.197 -3.48715 -3.94596 0
M  V30 1326 H 131.688 -2.79056 -2.54826 0
M  V30 1327 H 132.001 -6.10958 -4.73234 0
M  V30 1328 H 130.346 -5.49025 -4.26141 0
M  V30 1329 H 133.537 -3.51288 -3.09377 0
M  V30 1330 H 133.71 -5.02624 -4.0899 0
M  V30 1331 N 127.117 1.15442 -1.07289 0
M  V30 1332 C 128.394 1.82306 -0.708792 0
M  V30 1333 C 128.774 1.94991 0.808807 0
M  V30 1334 O 128.122 1.50085 1.72298 0
M  V30 1335 C 128.332 3.18695 -1.42247 0
M  V30 1336 C 129.68 3.94341 -1.57417 0
M  V30 1337 O 130.704 3.28247 -1.38319 0
M  V30 1338 O 129.563 5.12839 -1.88834 0
M  V30 1339 H 126.657 0.787628 -0.252132 0
M  V30 1340 H 129.203 1.22559 -1.17377 0
M  V30 1341 H 127.975 3.04557 -2.45684 0
M  V30 1342 H 127.598 3.86128 -0.948223 0
M  V30 1343 N 128.595 0.856903 1.32268 0
M  V30 1344 C 130.011 0.547061 1.49931 0
M  V30 1345 C 130.211 -0.921781 1.7918 0
M  V30 1346 O 129.267 -1.70469 1.8627 0
M  V30 1347 C 130.58 1.43599 2.64196 0
M  V30 1348 C 132.128 1.43665 2.78081 0
M  V30 1349 C 132.603 2.31085 3.95428 0
M  V30 1350 N 134.094 2.28893 4.02694 0
M  V30 1351 C 134.829 2.93262 4.92732 0
M  V30 1352 N 134.325 3.66751 5.87763 0
M  V30 1353 N 136.118 2.82638 4.85873 0
M  V30 1354 H 128.269 1.8075 1.11549 0
M  V30 1355 H 130.532 0.772144 0.549997 0
M  V30 1356 H 130.238 2.48058 2.49319 0
M  V30 1357 H 130.112 1.12502 3.60032 0
M  V30 1358 H 132.499 0.399701 2.92381 0
M  V30 1359 H 132.58 1.7878 1.82952 0
M  V30 1360 H 132.224 3.34849 3.81888 0
M  V30 1361 H 132.154 1.93302 4.89839 0
M  V30 1362 H 134.645 1.75466 3.34694 0
M  V30 1363 H 134.958 4.13027 6.53168 0
M  V30 1364 H 133.303 3.70859 5.87783 0
M  V30 1365 H 136.494 2.24774 4.10602 0
M  V30 1366 H 136.667 3.33084 5.55841 0
M  V30 1367 N 130.073 -1.45103 0.615059 0
M  V30 1368 C 131.036 -2.29025 -0.0895485 0
M  V30 1369 C 132.036 -1.40174 -0.787906 0
M  V30 1370 O 133.226 -1.62217 -0.634933 0
M  V30 1371 C 130.358 -3.21376 -1.13711 0
M  V30 1372 H 131.551 -2.92807 0.648382 0
M  V30 1373 H 129.104 -1.51749 0.374444 0
M  V30 1374 H 129.839 -2.6241 -1.90556 0
M  V30 1375 H 129.624 -3.86834 -0.640475 0
M  V30 1376 H 131.114 -3.84459 -1.63036 0
M  V30 1377 N 131.551 -0.354651 -1.53558 0
M  V30 1378 C 132.797 0.238797 -2.01389 0
M  V30 1379 C 133.13 1.49309 -1.2418 0
M  V30 1380 O 132.405 1.91638 -0.332457 0
M  V30 1381 C 132.688 0.541771 -3.56001 0
M  V30 1382 C 132.541 -0.725388 -4.43912 0
M  V30 1383 C 133.86 1.34685 -4.18984 0
M  V30 1384 H 130.979 0.0853177 -0.732045 0
M  V30 1385 H 133.621 -0.477384 -1.83905 0
M  V30 1386 H 131.771 1.15189 -3.71031 0
M  V30 1387 H 133.443 -1.36313 -4.407 0
M  V30 1388 H 131.686 -1.34801 -4.12324 0
M  V30 1389 H 132.357 -0.468505 -5.50008 0
M  V30 1390 H 134.833 0.830837 -4.07721 0
M  V30 1391 H 133.709 1.52759 -5.27215 0
M  V30 1392 H 133.97 2.35221 -3.74331 0
M  V30 1393 N 133.029 1.57378 -0.0835403 0
M  V30 1394 C 133.992 2.12252 0.864959 0
M  V30 1395 C 134.992 1.04916 1.21858 0
M  V30 1396 O 136.182 1.30853 1.14991 0
M  V30 1397 C 133.314 2.63358 2.16461 0
M  V30 1398 H 134.507 2.97371 0.388676 0
M  V30 1399 H 132.06 1.55423 0.165317 0
M  V30 1400 H 132.795 1.81727 2.686 0
M  V30 1401 H 132.58 3.41826 1.92087 0
M  V30 1402 H 134.07 3.05847 2.84337 0
M  V30 1403 N 134.507 -0.190092 1.56449 0
M  V30 1404 C 135.755 -0.907908 1.80559 0
M  V30 1405 C 136.076 -1.83583 0.657438 0
M  V30 1406 O 135.346 -1.93203 -0.323924 0
M  V30 1407 H 133.926 -0.338247 0.666032 0
M  V30 1408 H 136.588 -0.194403 1.93928 0
M  V30 1409 H 135.684 -1.49604 2.73907 0
M  V30 1410 N 135.985 -1.50799 -0.457987 0
M  V30 1411 C 136.935 -1.67003 -1.55222 0
M  V30 1412 C 137.919 -0.52434 -1.52117 0
M  V30 1413 O 139.111 -0.779345 -1.58919 0
M  V30 1414 C 136.24 -1.77956 -2.93576 0
M  V30 1415 C 135.326 -2.98243 -3.01516 0
M  V30 1416 N 135.717 -4.21732 -2.79241 0
M  V30 1417 C 134.015 -2.97072 -3.32662 0
M  V30 1418 C 134.716 -5.02817 -2.92489 0
M  V30 1419 N 133.692 -4.37038 -3.23262 0
M  V30 1420 H 137.494 -2.60163 -1.36721 0
M  V30 1421 H 135.008 -1.48163 -0.664952 0
M  V30 1422 H 137.005 -1.87671 -3.72271 0
M  V30 1423 H 135.665 -0.859634 -3.13114 0
M  V30 1424 H 136.676 -4.51016 -2.54567 0
M  V30 1425 H 133.353 -2.14631 -3.58106 0
M  V30 1426 H 134.743 -6.11054 -2.79396 0
M  V30 1427 N 137.463 0.71206 -1.40597 0
M  V30 1428 C 138.393 1.83889 -1.43899 0
M  V30 1429 C 139.374 1.67442 -0.299504 0
M  V30 1430 O 140.559 1.87421 -0.508624 0
M  V30 1431 C 137.689 3.21877 -1.30431 0
M  V30 1432 C 136.643 3.53002 -2.42019 0
M  V30 1433 C 135.969 4.90172 -2.13626 0
M  V30 1434 C 137.269 3.53643 -3.84362 0
M  V30 1435 H 138.963 1.81383 -2.38203 0
M  V30 1436 H 136.509 0.871237 -1.14654 0
M  V30 1437 H 138.462 4.00404 -1.31357 0
M  V30 1438 H 137.186 3.24968 -0.326049 0
M  V30 1439 H 135.845 2.76818 -2.40349 0
M  V30 1440 H 135.493 4.89869 -1.14182 0
M  V30 1441 H 135.193 5.11962 -2.88389 0
M  V30 1442 H 136.717 5.71028 -2.1624 0
M  V30 1443 H 138.131 4.22203 -3.87837 0
M  V30 1444 H 136.528 3.86961 -4.58673 0
M  V30 1445 H 137.598 2.52954 -4.13693 0
M  V30 1446 N 138.941 1.26152 0.944643 0
M  V30 1447 C 140.169 1.14259 1.72489 0
M  V30 1448 C 140.584 -0.302555 1.8636 0
M  V30 1449 O 139.941 -1.20741 1.36849 0
M  V30 1450 C 139.992 1.80266 3.13347 0
M  V30 1451 O 139.713 3.19133 3.00143 0
M  V30 1452 C 141.214 1.74283 4.07603 0
M  V30 1453 H 138.434 0.398051 0.540181 0
M  V30 1454 H 140.978 1.66706 1.18446 0
M  V30 1455 H 139.133 1.31766 3.64303 0
M  V30 1456 H 139.547 3.51744 3.89071 0
M  V30 1457 H 141.021 2.25111 5.04013 0
M  V30 1458 H 141.498 0.708631 4.33446 0
M  V30 1459 H 142.104 2.22319 3.62567 0
M  V30 1460 N 140.419 -1.14872 1.07899 0
M  V30 1461 C 141.835 -1.37776 0.805606 0
M  V30 1462 C 142.035 -1.92743 -0.587555 0
M  V30 1463 O 141.091 -2.13678 -1.34528 0
M  V30 1464 C 142.404 -2.34361 1.88402 0
M  V30 1465 C 143.952 -2.48012 1.90942 0
M  V30 1466 C 144.427 -3.47893 2.97883 0
M  V30 1467 N 145.918 -3.55433 2.97021 0
M  V30 1468 C 146.653 -4.32553 3.76412 0
M  V30 1469 N 146.149 -5.12959 4.65666 0
M  V30 1470 N 147.942 -4.27697 3.64735 0
M  V30 1471 H 140.093 -0.775365 1.97742 0
M  V30 1472 H 142.356 -0.403521 0.857831 0
M  V30 1473 H 142.062 -2.01098 2.88535 0
M  V30 1474 H 141.936 -3.34206 1.74889 0
M  V30 1475 H 144.323 -2.8057 0.914579 0
M  V30 1476 H 144.404 -1.48147 2.08534 0
M  V30 1477 H 144.048 -3.16069 3.97571 0
M  V30 1478 H 143.978 -4.47527 2.77538 0
M  V30 1479 H 146.469 -2.98048 2.32326 0
M  V30 1480 H 146.782 -5.69065 5.22862 0
M  V30 1481 H 145.127 -5.12245 4.69712 0
M  V30 1482 H 148.318 -3.63949 2.94378 0
M  V30 1483 H 148.491 -4.8755 4.26848 0
M  V30 1484 N 141.898 -0.863906 -1.31812 0
M  V30 1485 C 142.861 -0.320212 -2.26952 0
M  V30 1486 C 143.861 0.525369 -1.51975 0
M  V30 1487 O 145.051 0.335547 -1.70938 0
M  V30 1488 C 142.183 0.545919 -3.365 0
M  V30 1489 H 143.376 -1.16004 -2.76556 0
M  V30 1490 H 140.929 -0.638995 -1.42641 0
M  V30 1491 H 141.664 1.40718 -2.92179 0
M  V30 1492 H 141.449 -0.0594674 -3.92055 0
M  V30 1493 H 142.939 0.918796 -4.07367 0
M  V30 1494 N 143.376 1.44774 -0.622745 0
M  V30 1495 C 144.622 2.0242 -0.124083 0
M  V30 1496 C 144.955 1.4881 1.24777 0
M  V30 1497 O 144.23 0.668799 1.8264 0
M  V30 1498 C 144.513 3.59957 -0.101619 0
M  V30 1499 C 144.366 4.23867 -1.50521 0
M  V30 1500 C 145.685 4.36284 0.578272 0
M  V30 1501 H 142.804 0.735528 -0.0465645 0
M  V30 1502 H 145.446 1.72447 -0.797617 0
M  V30 1503 H 143.596 3.85623 0.471934 0
M  V30 1504 H 145.268 4.09336 -2.12701 0
M  V30 1505 H 143.511 3.81684 -2.06154 0
M  V30 1506 H 144.182 5.32843 -1.4416 0
M  V30 1507 H 146.658 4.16001 0.0906057 0
M  V30 1508 H 145.534 5.46004 0.563149 0
M  V30 1509 H 145.795 4.10271 1.64713 0
M  V30 1510 N 144.854 0.36279 1.53368 0
M  V30 1511 C 145.764 -0.492994 2.29362 0
M  V30 1512 C 146.78 -1.09507 1.35219 0
M  V30 1513 O 147.956 -1.10662 1.68273 0
M  V30 1514 C 145.021 -1.61855 3.066 0
M  V30 1515 C 144.082 -1.04429 4.16405 0
M  V30 1516 C 143.315 -2.11621 4.89951 0
M  V30 1517 O 143.538 -3.32684 4.63333 0
M  V30 1518 O 142.472 -1.74835 5.75948 0
M  V30 1519 H 146.298 0.125331 3.03441 0
M  V30 1520 H 143.883 0.127253 1.48857 0
M  V30 1521 H 145.765 -2.27302 3.54841 0
M  V30 1522 H 144.44 -2.22233 2.3536 0
M  V30 1523 H 143.347 -0.353819 3.72423 0
M  V30 1524 H 144.68 -0.485113 4.89804 0
M  V30 1525 N 146.332 -1.57332 0.0918853 0
M  V30 1526 C 147.743 -1.81496 -0.437739 0
M  V30 1527 C 148.094 -1.00727 -1.6837 0
M  V30 1528 O 147.219 -0.235694 -2.15113 0
M  V30 1529 C 147.814 -3.29197 -0.800939 0
M  V30 1530 C 146.373 -3.54136 -1.27532 0
M  V30 1531 C 145.52 -2.75979 -0.270392 0
M  V30 1532 H 148.471 -1.55494 0.317366 0
M  V30 1533 H 148.492 -3.42344 -1.66074 0
M  V30 1534 H 148.004 -3.87955 0.106078 0
M  V30 1535 H 146.105 -3.00705 -2.20016 0
M  V30 1536 H 146.218 -4.62792 -1.23938 0
M  V30 1537 H 144.582 -2.43349 -0.751872 0
M  V30 1538 H 145.365 -3.37484 0.629248 0
M  V30 1539 N 147.81 0.181792 -1.56548 0
M  V30 1540 C 148.74 1.22765 -1.98623 0
M  V30 1541 C 149.721 1.46747 -0.860189 0
M  V30 1542 O 150.906 1.58259 -1.12551 0
M  V30 1543 C 148.036 2.56894 -2.33715 0
M  V30 1544 C 146.99 2.475 -3.49182 0
M  V30 1545 C 146.316 3.86023 -3.69986 0
M  V30 1546 C 147.616 1.98866 -4.82959 0
M  V30 1547 H 149.31 0.877942 -2.86239 0
M  V30 1548 H 146.856 0.42088 -1.37712 0
M  V30 1549 H 148.809 3.30253 -2.61746 0
M  V30 1550 H 147.533 2.93632 -1.42997 0
M  V30 1551 H 146.192 1.76596 -3.21262 0
M  V30 1552 H 145.84 4.20136 -2.76576 0
M  V30 1553 H 145.54 3.80609 -4.47672 0
M  V30 1554 H 147.064 4.60984 -4.00407 0
M  V30 1555 H 148.478 2.61992 -5.09934 0
M  V30 1556 H 146.875 2.04424 -5.64208 0
M  V30 1557 H 147.945 0.942465 -4.75653 0
M  V30 1558 N 149.288 1.51039 0.449983 0
M  V30 1559 C 150.704 1.38934 0.785462 0
M  V30 1560 C 150.904 0.461817 1.96136 0
M  V30 1561 O 149.96 -0.0877389 2.52348 0
M  V30 1562 C 151.273 2.80724 1.0777 0
M  V30 1563 C 152.821 2.89787 1.1829 0
M  V30 1564 C 153.296 4.32457 1.50815 0
M  V30 1565 N 154.787 4.35505 1.57764 0
M  V30 1566 C 155.522 5.42914 1.84477 0
M  V30 1567 N 155.018 6.60502 2.09068 0
M  V30 1568 N 156.811 5.3038 1.86155 0
M  V30 1569 H 148.962 2.09904 -0.324647 0
M  V30 1570 H 151.225 0.944378 -0.0827957 0
M  V30 1571 H 150.931 3.50531 0.286498 0
M  V30 1572 H 150.805 3.19273 2.00859 0
M  V30 1573 H 153.192 2.20186 1.96474 0
M  V30 1574 H 153.273 2.54752 0.231314 0
M  V30 1575 H 152.917 5.02603 0.731622 0
M  V30 1576 H 152.847 4.64995 2.47158 0
M  V30 1577 H 155.338 3.50724 1.40715 0
M  V30 1578 H 155.651 7.38158 2.28785 0
M  V30 1579 H 153.996 6.63639 2.06416 0
M  V30 1580 H 157.187 4.37505 1.66454 0
M  V30 1581 H 157.36 6.1417 2.06637 0
M  V30 1582 N 150.766 -0.704594 1.40972 0
M  V30 1583 C 151.994 -1.49354 1.43182 0
M  V30 1584 C 152.409 -1.88768 0.0345508 0
M  V30 1585 O 151.766 -1.56184 -0.944081 0
M  V30 1586 C 151.817 -2.76187 2.33244 0
M  V30 1587 O 151.538 -2.38436 3.67532 0
M  V30 1588 C 153.039 -3.7 2.44162 0
M  V30 1589 H 150.259 -0.460559 0.487982 0
M  V30 1590 H 152.803 -0.868261 1.85153 0
M  V30 1591 H 150.958 -3.34974 1.94606 0
M  V30 1592 H 151.372 -3.20126 4.15475 0
M  V30 1593 H 152.846 -4.55803 3.11364 0
M  V30 1594 H 153.323 -4.13867 1.47006 0
M  V30 1595 H 153.929 -3.17121 2.83398 0
M  V30 1596 N 152.244 -1.26651 -0.937939 0
M  V30 1597 C 153.491 -1.12387 -1.6845 0
M  V30 1598 C 153.819 0.332208 -1.91642 0
M  V30 1599 O 153.074 1.2602 -1.49725 0
M  V30 1600 C 153.373 -1.84168 -3.06295 0
M  V30 1601 C 153.039 -3.34056 -3.02849 0
M  V30 1602 C 151.701 -3.74942 -3.01616 0
M  V30 1603 C 154.053 -4.29741 -2.9491 0
M  V30 1604 C 151.381 -5.09894 -2.90215 0
M  V30 1605 C 153.733 -5.64738 -2.8505 0
M  V30 1606 C 152.397 -6.0493 -2.82162 0
M  V30 1607 H 151.667 -0.411252 -0.616403 0
M  V30 1608 H 154.314 -1.57134 -1.09459 0
M  V30 1609 H 152.619 -1.319 -3.6893 0
M  V30 1610 H 154.316 -1.70569 -3.62915 0
M  V30 1611 H 150.906 -3.01534 -3.0459 0
M  V30 1612 H 155.09 -3.99133 -2.94969 0
M  V30 1613 H 150.346 -5.40194 -2.86358 0
M  V30 1614 H 154.52 -6.38561 -2.77872 0
M  V30 1615 H 152.147 -7.09457 -2.73084 0
M  V30 1616 N 153.722 1.14298 -1.08507 0
M  V30 1617 C 154.947 1.8976 -0.837001 0
M  V30 1618 C 155.372 1.78097 0.605228 0
M  V30 1619 O 154.73 1.12188 1.4242 0
M  V30 1620 C 154.778 3.37685 -1.26495 0
M  V30 1621 O 153.882 4.10281 -0.417514 0
M  V30 1622 H 153.223 0.590365 -0.303917 0
M  V30 1623 H 155.753 1.44672 -1.44676 0
M  V30 1624 H 155.763 3.88501 -1.24625 0
M  V30 1625 H 154.438 3.45492 -2.31534 0
M  V30 1626 H 153.015 3.69536 -0.499722 0
M  V30 1627 N 155.201 0.870884 1.31352 0
M  V30 1628 C 156.447 0.482987 1.96965 0
M  V30 1629 C 156.78 -0.962462 1.68672 0
M  V30 1630 O 156.055 -1.6779 0.98371 0
M  V30 1631 C 156.338 0.741752 3.52378 0
M  V30 1632 C 156.191 2.2368 3.9024 0
M  V30 1633 C 157.51 0.208838 4.39604 0
M  V30 1634 H 154.629 0.176955 0.715441 0
M  V30 1635 H 157.271 1.09229 1.55464 0
M  V30 1636 H 155.421 0.223149 3.87859 0
M  V30 1637 H 157.093 2.82273 3.64856 0
M  V30 1638 H 155.336 2.70901 3.38814 0
M  V30 1639 H 156.007 2.3685 4.98604 0
M  V30 1640 H 158.483 0.652529 4.10952 0
M  V30 1641 H 157.359 0.419336 5.47296 0
M  V30 1642 H 157.62 -0.889275 4.33064 0
M  V30 1643 N 156.679 -1.44442 0.630414 0
M  V30 1644 C 157.609 -2.33418 -0.0618083 0
M  V30 1645 C 158.59 -1.48165 -0.835541 0
M  V30 1646 O 159.775 -1.76886 -0.801564 0
M  V30 1647 C 156.905 -3.31222 -1.04449 0
M  V30 1648 C 155.859 -4.26288 -0.382436 0
M  V30 1649 C 155.185 -5.13954 -1.47497 0
M  V30 1650 C 156.485 -5.1744 0.710865 0
M  V30 1651 H 158.179 -2.91548 0.681184 0
M  V30 1652 H 155.725 -1.40191 0.329026 0
M  V30 1653 H 157.678 -3.92351 -1.53748 0
M  V30 1654 H 156.402 -2.71299 -1.81836 0
M  V30 1655 H 155.061 -3.6649 0.0899054 0
M  V30 1656 H 154.709 -4.50385 -2.2397 0
M  V30 1657 H 154.409 -5.7837 -1.03737 0
M  V30 1658 H 155.933 -5.77955 -1.96979 0
M  V30 1659 H 157.347 -5.72509 0.300996 0
M  V30 1660 H 155.744 -5.90455 1.07156 0
M  V30 1661 H 156.814 -4.58496 1.57829 0
M  V30 1662 N 158.157 -0.370918 -1.53173 0
M  V30 1663 C 159.067 0.480823 -2.2962 0
M  V30 1664 C 160.083 1.08789 -1.35798 0
M  V30 1665 O 161.259 1.09768 -1.68858 0
M  V30 1666 C 158.324 1.60227 -3.07454 0
M  V30 1667 C 157.385 1.0222 -4.16953 0
M  V30 1668 C 156.618 2.0902 -4.91066 0
M  V30 1669 O 156.841 3.30222 -4.65091 0
M  V30 1670 O 155.775 1.71778 -5.76867 0
M  V30 1671 H 159.601 -0.141421 -3.03371 0
M  V30 1672 H 157.186 -0.135146 -1.48787 0
M  V30 1673 H 159.068 2.25417 -3.56041 0
M  V30 1674 H 157.743 2.20982 -2.36535 0
M  V30 1675 H 156.65 0.334064 -3.72605 0
M  V30 1676 H 157.983 0.459131 -4.90054 0
M  V30 1677 N 159.635 1.57281 -0.100228 0
M  V30 1678 C 161.046 1.81725 0.428107 0
M  V30 1679 C 161.397 1.01619 1.67833 0
M  V30 1680 O 160.522 0.247098 2.14985 0
M  V30 1681 C 161.117 3.29617 0.78347 0
M  V30 1682 C 159.676 3.54808 1.25653 0
M  V30 1683 C 158.823 2.76118 0.255752 0
M  V30 1684 H 161.774 1.55324 -0.325608 0
M  V30 1685 H 161.795 3.4322 1.64256 0
M  V30 1686 H 161.307 3.87893 -0.12665 0
M  V30 1687 H 159.408 3.01868 2.18418 0
M  V30 1688 H 159.521 4.63443 1.21482 0
M  V30 1689 H 157.885 2.43745 0.738956 0
M  V30 1690 H 158.668 3.37145 -0.647136 0
M  V30 1691 N 161.113 -0.173488 1.56642 0
M  V30 1692 C 162.361 -0.888706 1.81512 0
M  V30 1693 C 162.682 -1.82875 0.676872 0
M  V30 1694 O 161.952 -1.93536 -0.303414 0
M  V30 1695 H 160.532 -0.331164 0.669582 0
M  V30 1696 H 163.194 -0.173823 1.94123 0
M  V30 1697 H 162.29 -1.46691 2.75478 0
M  V30 1698 N 162.591 -1.51276 -0.441967 0
M  V30 1699 C 163.839 -1.63392 -1.18943 0
M  V30 1700 C 164.16 -0.350159 -1.9183 0
M  V30 1701 O 163.43 0.633784 -1.85364 0
M  V30 1702 H 162.01 -0.602164 -0.442049 0
M  V30 1703 H 164.672 -1.88186 -0.507165 0
M  V30 1704 H 163.768 -2.45934 -1.92154 0
M  V30 1705 N 164.069 0.697108 -1.41344 0
M  V30 1706 C 165.48 1.27697 -1.36199 0
M  V30 1707 C 165.831 1.9615 -0.0443463 0
M  V30 1708 O 164.956 1.98689 0.857419 0
M  V30 1709 C 165.551 2.32223 -2.46694 0
M  V30 1710 C 164.11 2.8579 -2.44952 0
M  V30 1711 C 163.257 1.59807 -2.26621 0
M  V30 1712 H 166.208 0.491968 -1.50882 0
M  V30 1713 H 166.229 3.1348 -2.15664 0
M  V30 1714 H 165.741 1.82373 -3.42581 0
M  V30 1715 H 163.842 3.3982 -1.52817 0
M  V30 1716 H 163.955 3.36325 -3.41207 0
M  V30 1717 H 162.319 1.8556 -1.7447 0
M  V30 1718 H 163.102 1.11956 -3.24532 0
M  V30 1719 N 165.547 1.27147 0.931209 0
M  V30 1720 C 166.795 1.13055 1.6752 0
M  V30 1721 C 167.116 -0.324791 1.92276 0
M  V30 1722 O 166.386 -1.22775 1.52654 0
M  V30 1723 H 164.966 0.415391 0.620854 0
M  V30 1724 H 167.628 1.59623 1.11833 0
M  V30 1725 H 166.724 1.65694 2.64485 0
M  V30 1726 N 167.025 -1.13721 1.09112 0
M  V30 1727 C 168.273 -1.84559 0.823562 0
M  V30 1728 C 168.594 -1.83754 -0.652658 0
M  V30 1729 O 167.864 -1.29102 -1.47342 0
M  V30 1730 H 166.444 -0.683376 0.301673 0
M  V30 1731 H 169.106 -1.37771 1.37859 0
M  V30 1732 H 168.202 -2.8917 1.17419 0
M  V30 1733 N 168.503 -0.877838 -1.30888 0
M  V30 1734 C 169.743 -0.499301 -1.98208 0
M  V30 1735 C 170.107 0.932649 -1.67826 0
M  V30 1736 O 171.308 1.41694 -2.28421 0
M  V30 1737 C 169.579 -0.758221 -3.49265 0
M  V30 1738 S 171.138 -0.480719 -4.36159 0
M  V30 1739 H 167.956 -0.186062 -0.686223 0
M  V30 1740 H 170.558 -1.13556 -1.59139 0
M  V30 1741 H 169.262 -1.79903 -3.68867 0
M  V30 1742 H 168.793 -0.109247 -3.93248 0
M  V30 1743 H 170.808 0.683698 -4.91467 0
M  V30 1744 N 169.982 1.44106 -0.638065 0
M  V30 1745 C 170.945 2.29138 0.0531013 0
M  V30 1746 C 171.945 1.41409 0.765506 0
M  V30 1747 O 173.135 1.63206 0.609046 0
M  V30 1748 C 170.267 3.23144 1.08584 0
M  V30 1749 H 171.46 2.91739 -0.694883 0
M  V30 1750 H 169.013 1.51134 -0.398538 0
M  V30 1751 H 169.748 2.65408 1.86357 0
M  V30 1752 H 169.533 3.87804 0.578852 0
M  V30 1753 H 171.023 3.87004 1.56899 0
M  V30 1754 N 171.46 0.379036 1.52974 0
M  V30 1755 C 172.423 -0.448865 2.24762 0
M  V30 1756 C 173.423 -0.998689 1.26027 0
M  V30 1757 O 174.613 -0.882313 1.50203 0
M  V30 1758 C 171.745 -1.62872 2.99476 0
M  V30 1759 H 172.938 0.179491 2.99362 0
M  V30 1760 H 170.491 0.13096 1.5575 0
M  V30 1761 H 171.226 -2.29479 2.29151 0
M  V30 1762 H 171.011 -1.24128 3.71934 0
M  V30 1763 H 172.501 -2.2151 3.5401 0
M  V30 1764 N 172.938 -1.57226 0.108567 0
M  V30 1765 C 174.354 -1.5766 -0.248058 0
M  V30 1766 C 174.554 -1.12063 -1.67464 0
M  V30 1767 O 173.61 -0.803236 -2.39383 0
M  V30 1768 C 174.923 -3.0069 -0.0242287 0
M  V30 1769 C 176.471 -3.12868 -0.0909372 0
M  V30 1770 C 176.946 -4.57879 0.105067 0
M  V30 1771 N 178.437 -4.63172 0.0506846 0
M  V30 1772 C 179.172 -5.73126 0.177396 0
M  V30 1773 N 178.668 -6.91866 0.359696 0
M  V30 1774 N 180.461 -5.61977 0.117709 0
M  V30 1775 H 172.612 -1.85169 1.04049 0
M  V30 1776 H 174.875 -0.85529 0.40888 0
M  V30 1777 H 174.581 -3.38299 0.961604 0
M  V30 1778 H 174.455 -3.6945 -0.76068 0
M  V30 1779 H 176.842 -2.75124 -1.06729 0
M  V30 1780 H 176.923 -2.46672 0.677225 0
M  V30 1781 H 176.567 -4.96321 1.07834 0
M  V30 1782 H 176.497 -5.22153 -0.682954 0
M  V30 1783 H 178.988 -3.778 -0.0871266 0
M  V30 1784 H 179.301 -7.71503 0.447529 0
M  V30 1785 H 177.646 -6.93874 0.395536 0
M  V30 1786 H 180.837 -4.68094 -0.0236741 0
M  V30 1787 H 181.01 -6.47627 0.219905 0
M  V30 1788 N 174.416 0.165178 -1.56732 0
M  V30 1789 C 175.832 0.517174 -1.50988 0
M  V30 1790 C 176.032 1.84331 -0.813894 0
M  V30 1791 O 175.088 2.49672 -0.37682 0
M  V30 1792 C 176.401 0.544261 -2.95733 0
M  V30 1793 C 177.949 0.631039 -3.06573 0
M  V30 1794 C 178.424 0.68896 -4.52788 0
M  V30 1795 N 179.915 0.751683 -4.5706 0
M  V30 1796 C 180.65 0.817177 -5.67547 0
M  V30 1797 N 180.146 0.843129 -6.8765 0
M  V30 1798 N 181.939 0.856668 -5.55534 0
M  V30 1799 H 174.09 -0.704318 -2.00382 0
M  V30 1800 H 176.353 -0.254687 -0.913148 0
M  V30 1801 H 176.059 -0.361607 -3.49836 0
M  V30 1802 H 175.933 1.3886 -3.5071 0
M  V30 1803 H 178.32 1.52733 -2.52501 0
M  V30 1804 H 178.401 -0.240095 -2.54671 0
M  V30 1805 H 178.045 -0.2031 -5.07494 0
M  V30 1806 H 177.975 1.57633 -5.02454 0
M  V30 1807 H 180.466 0.739661 -3.70591 0
M  V30 1808 H 180.779 0.894448 -7.67606 0
M  V30 1809 H 179.124 0.811304 -6.90248 0
M  V30 1810 H 182.315 0.833437 -4.60621 0
M  V30 1811 H 182.488 0.904247 -6.4166 0
M  V30 1812 N 175.894 1.51508 0.433938 0
M  V30 1813 C 177.31 1.39759 0.770682 0
M  V30 1814 C 177.51 0.482594 1.95636 0
M  V30 1815 O 176.566 -0.0609691 2.52426 0
M  V30 1816 C 177.879 2.81851 1.04787 0
M  V30 1817 C 179.427 2.91025 1.1521 0
M  V30 1818 C 179.902 4.34032 1.46219 0
M  V30 1819 N 181.393 4.37154 1.53136 0
M  V30 1820 C 182.128 5.4484 1.78709 0
M  V30 1821 N 181.624 6.62682 2.02051 0
M  V30 1822 N 183.417 5.32324 1.80519 0
M  V30 1823 H 175.568 2.09548 -0.346892 0
M  V30 1824 H 177.831 0.943446 -0.0928074 0
M  V30 1825 H 177.537 3.50815 0.249304 0
M  V30 1826 H 177.411 3.21386 1.97461 0
M  V30 1827 H 179.798 2.22257 1.94128 0
M  V30 1828 H 179.879 2.54983 0.204281 0
M  V30 1829 H 179.523 5.03351 0.678274 0
M  V30 1830 H 179.453 4.6759 2.42212 0
M  V30 1831 H 181.944 3.52197 1.36987 0
M  V30 1832 H 182.257 7.40543 2.20943 0
M  V30 1833 H 180.602 6.65791 1.99366 0
M  V30 1834 H 183.793 4.39246 1.61805 0
M  V30 1835 H 183.966 6.16328 2.00111 0
M  V30 1836 N 177.372 -0.689602 1.41712 0
M  V30 1837 C 178.335 -1.78521 1.43746 0
M  V30 1838 C 179.335 -1.57436 0.327191 0
M  V30 1839 O 180.525 -1.64 0.587348 0
M  V30 1840 C 177.657 -3.16971 1.25467 0
M  V30 1841 H 178.85 -1.78108 2.41283 0
M  V30 1842 H 176.403 -0.89781 1.27942 0
M  V30 1843 H 177.138 -3.23019 0.287948 0
M  V30 1844 H 176.923 -3.33678 2.05917 0
M  V30 1845 H 178.413 -3.96935 1.2974 0
M  V30 1846 N 178.85 -1.27639 -0.924453 0
M  V30 1847 C 180.078 -1.16989 -1.70649 0
M  V30 1848 C 180.493 0.272869 -1.86818 0
M  V30 1849 O 179.85 1.18549 -1.38753 0
M  V30 1850 C 179.901 -1.85229 -3.10439 0
M  V30 1851 O 179.622 -3.23868 -2.95028 0
M  V30 1852 C 181.123 -1.80746 -4.04779 0
M  V30 1853 H 178.343 -0.406595 -0.53378 0
M  V30 1854 H 180.887 -1.68569 -1.15778 0
M  V30 1855 H 179.042 -1.37545 -3.6216 0
M  V30 1856 H 179.456 -3.57889 -3.83426 0
M  V30 1857 H 180.93 -2.33101 -5.00368 0
M  V30 1858 H 181.407 -0.777499 -4.32263 0
M  V30 1859 H 182.013 -2.28059 -3.58984 0
M  V30 1860 N 180.328 1.1314 -1.09713 0
M  V30 1861 C 181.574 1.84757 -0.836224 0
M  V30 1862 C 181.907 1.8347 0.636598 0
M  V30 1863 O 181.182 1.27491 1.46889 0
M  V30 1864 C 181.465 3.32782 -1.37578 0
M  V30 1865 C 181.318 3.42567 -2.91493 0
M  V30 1866 C 182.637 4.28307 -1.01198 0
M  V30 1867 H 179.756 0.67082 -0.305236 0
M  V30 1868 H 182.398 1.3278 -1.35903 0
M  V30 1869 H 180.548 3.77177 -0.931097 0
M  V30 1870 H 182.22 3.06862 -3.44432 0
M  V30 1871 H 180.463 2.83349 -3.28475 0
M  V30 1872 H 181.134 4.46674 -3.24324 0
M  V30 1873 H 183.61 3.91999 -1.39556 0
M  V30 1874 H 182.486 5.30307 -1.41653 0
M  V30 1875 H 182.747 4.42029 0.0794833 0
M  V30 1876 N 181.806 0.884767 1.30421 0
M  V30 1877 C 182.716 0.355398 2.31892 0
M  V30 1878 C 183.732 -0.542261 1.65335 0
M  V30 1879 O 184.908 -0.435432 1.96637 0
M  V30 1880 C 181.973 -0.421661 3.44126 0
M  V30 1881 C 181.034 0.505727 4.26311 0
M  V30 1882 C 180.267 -0.234343 5.33185 0
M  V30 1883 O 180.49 -1.46045 5.51386 0
M  V30 1884 O 179.424 0.415443 6.00465 0
M  V30 1885 H 183.25 1.19685 2.79122 0
M  V30 1886 H 180.835 0.648596 1.34587 0
M  V30 1887 H 182.717 -0.861641 4.12497 0
M  V30 1888 H 181.392 -1.23942 2.99032 0
M  V30 1889 H 180.299 0.994513 3.60639 0
M  V30 1890 H 181.632 1.28948 4.75009 0
M  V30 1891 N 183.284 -1.43765 0.645699 0
M  V30 1892 C 184.194 -2.34544 -0.0512957 0
M  V30 1893 C 185.21 -1.53455 -0.82022 0
M  V30 1894 O 186.386 -1.86133 -0.769176 0
M  V30 1895 C 183.451 -3.31636 -1.01087 0
M  V30 1896 C 182.512 -4.2863 -0.239712 0
M  V30 1897 C 181.745 -5.21084 -1.15358 0
M  V30 1898 O 181.968 -5.1779 -2.39269 0
M  V30 1899 O 180.902 -5.98593 -0.630038 0
M  V30 1900 H 184.728 -2.95624 0.695718 0
M  V30 1901 H 182.313 -1.43781 0.405882 0
M  V30 1902 H 184.195 -3.9136 -1.56254 0
M  V30 1903 H 182.87 -2.73069 -1.73824 0
M  V30 1904 H 181.777 -3.72408 0.355356 0
M  V30 1905 H 183.11 -4.90157 0.447936 0
M  V30 1906 N 184.763 -0.387143 -1.52771 0
M  V30 1907 C 185.991 0.195869 -2.05971 0
M  V30 1908 C 186.406 1.40691 -1.25903 0
M  V30 1909 O 185.763 1.79931 -0.305134 0
M  V30 1910 C 185.814 0.56812 -3.57008 0
M  V30 1911 O 185.535 -0.594803 -4.34043 0
M  V30 1912 C 187.036 1.20723 -4.26545 0
M  V30 1913 H 184.256 0.0300578 -0.670326 0
M  V30 1914 H 186.8 -0.551749 -1.96916 0
M  V30 1915 H 184.955 1.26564 -3.66143 0
M  V30 1916 H 185.369 -0.289322 -5.23701 0
M  V30 1917 H 186.843 1.41807 -5.33474 0
M  V30 1918 H 187.32 2.17395 -3.81623 0
M  V30 1919 H 187.926 0.550535 -4.21722 0
M  V30 1920 N 186.241 1.57166 -0.116904 0
M  V30 1921 C 187.204 2.14039 0.819742 0
M  V30 1922 C 188.204 1.07477 1.19605 0
M  V30 1923 O 189.394 1.33263 1.1219 0
M  V30 1924 C 186.526 2.67891 2.10826 0
M  V30 1925 H 187.719 2.98128 0.325511 0
M  V30 1926 H 185.272 1.55739 0.132312 0
M  V30 1927 H 186.007 1.87384 2.64685 0
M  V30 1928 H 185.792 3.45823 1.84793 0
M  V30 1929 H 187.282 3.11809 2.77785 0
M  V30 1930 N 187.719 -0.156864 1.56817 0
M  V30 1931 C 189.135 -0.50916 1.5126 0
M  V30 1932 C 189.335 -1.83897 0.823658 0
M  V30 1933 O 188.391 -2.49469 0.390055 0
M  V30 1934 C 189.704 -0.52857 2.96018 0
M  V30 1935 C 191.252 -0.614771 3.06903 0
M  V30 1936 C 191.727 -0.664938 4.53147 0
M  V30 1937 N 193.218 -0.727433 4.57452 0
M  V30 1938 C 193.953 -0.787067 5.67973 0
M  V30 1939 N 193.449 -0.806649 6.88088 0
M  V30 1940 N 195.242 -0.827195 5.5598 0
M  V30 1941 H 187.393 0.714935 2.00006 0
M  V30 1942 H 189.656 0.259526 0.911784 0
M  V30 1943 H 189.362 0.380154 3.49639 0
M  V30 1944 H 189.236 -1.36998 3.51442 0
M  V30 1945 H 191.623 -1.51392 2.53307 0
M  V30 1946 H 191.704 0.253597 2.5454 0
M  V30 1947 H 191.348 0.230011 5.07379 0
M  V30 1948 H 191.278 -1.54966 5.03282 0
M  V30 1949 H 193.769 -0.719998 3.70978 0
M  V30 1950 H 194.082 -0.853727 7.6807 0
M  V30 1951 H 192.427 -0.774687 6.90669 0
M  V30 1952 H 195.618 -0.808998 4.61056 0
M  V30 1953 H 195.791 -0.870206 6.4213 0
M  V30 1954 N 189.197 -1.51736 -0.425897 0
M  V30 1955 C 190.16 -1.73271 -1.50032 0
M  V30 1956 C 191.16 -0.602639 -1.4908 0
M  V30 1957 O 192.35 -0.87033 -1.509 0
M  V30 1958 C 189.482 -1.79969 -2.89523 0
M  V30 1959 H 190.675 -2.69172 -1.32237 0
M  V30 1960 H 188.228 -1.41899 -0.65532 0
M  V30 1961 H 188.963 -0.859241 -3.1271 0
M  V30 1962 H 188.748 -2.62109 -2.91619 0
M  V30 1963 H 190.238 -1.9843 -3.67444 0
M  V30 1964 N 190.675 0.682077 -1.42076 0
M  V30 1965 C 191.638 1.77756 -1.44691 0
M  V30 1966 C 192.638 1.5726 -0.335535 0
M  V30 1967 O 193.828 1.63686 -0.596037 0
M  V30 1968 C 190.96 3.16301 -1.27146 0
M  V30 1969 H 192.153 1.76826 -2.42224 0
M  V30 1970 H 189.706 0.891012 -1.28416 0
M  V30 1971 H 190.441 3.22862 -0.305075 0
M  V30 1972 H 190.226 3.32581 -2.07683 0
M  V30 1973 H 191.716 3.96241 -1.31843 0
M  V30 1974 N 192.153 1.28127 0.917671 0
M  V30 1975 C 193.43 1.05761 1.64542 0
M  V30 1976 C 193.81 -0.404344 2.07191 0
M  V30 1977 O 193.158 -1.38963 1.81388 0
M  V30 1978 C 193.368 2.02857 2.83989 0
M  V30 1979 C 194.716 2.32786 3.551 0
M  V30 1980 O 195.74 2.0091 2.94132 0
M  V30 1981 O 194.599 2.87169 4.64969 0
M  V30 1982 H 191.693 0.403916 0.721652 0
M  V30 1983 H 194.239 1.39431 0.967322 0
M  V30 1984 H 193.011 3.01407 2.49538 0
M  V30 1985 H 192.634 1.69809 3.59514 0
M  V30 1986 N 193.631 -1.12557 1.10312 0
M  V30 1987 C 194.871 -1.8568 0.854543 0
M  V30 1988 C 195.235 -1.82091 -0.608843 0
M  V30 1989 O 196.436 -2.50544 -0.973717 0
M  V30 1990 C 194.707 -3.2942 1.38626 0
M  V30 1991 S 196.266 -4.19931 1.27293 0
M  V30 1992 H 193.084 -0.640427 0.308827 0
M  V30 1993 H 195.686 -1.35599 1.40831 0
M  V30 1994 H 194.39 -3.2959 2.44537 0
M  V30 1995 H 193.921 -3.84566 0.82902 0
M  V30 1996 H 195.936 -4.95668 0.229776 0
M  V30 1997 N 195.109 -0.891671 -1.2995 0
M  V30 1998 C 196.525 -0.58662 -1.48428 0
M  V30 1999 C 196.725 0.873951 -1.81561 0
M  V30 2000 O 195.781 1.65471 -1.90724 0
M  V30 2001 C 197.094 -1.50553 -2.60296 0
M  V30 2002 C 198.642 -1.50988 -2.74175 0
M  V30 2003 C 199.117 -2.41488 -3.89163 0
M  V30 2004 N 200.608 -2.39489 -3.96483 0
M  V30 2005 C 201.343 -3.06223 -4.84784 0
M  V30 2006 N 200.839 -3.82206 -5.77833 0
M  V30 2007 N 202.632 -2.95421 -4.78208 0
M  V30 2008 H 194.783 -1.83644 -1.06718 0
M  V30 2009 H 197.046 -0.786455 -0.529332 0
M  V30 2010 H 196.752 -2.54581 -2.42654 0
M  V30 2011 H 196.626 -1.22008 -3.56923 0
M  V30 2012 H 199.013 -0.47708 -2.91218 0
M  V30 2013 H 199.094 -1.83567 -1.78148 0
M  V30 2014 H 198.738 -3.44857 -3.72876 0
M  V30 2015 H 198.668 -2.06222 -4.84541 0
M  V30 2016 H 201.159 -1.84278 -3.29924 0
M  V30 2017 H 201.472 -4.302 -6.41988 0
M  V30 2018 H 199.817 -3.86313 -5.77743 0
M  V30 2019 H 203.008 -2.35581 -4.04499 0
M  V30 2020 H 203.181 -3.47704 -5.46814 0
M  V30 2021 N 196.587 1.43421 -0.653314 0
M  V30 2022 C 197.833 2.02111 -0.166992 0
M  V30 2023 C 198.166 1.51423 1.21592 0
M  V30 2024 O 197.441 0.707389 1.8118 0
M  V30 2025 C 197.724 3.5966 -0.177948 0
M  V30 2026 C 197.577 4.20579 -1.59478 0
M  V30 2027 C 198.896 4.37413 0.4856 0
M  V30 2028 H 196.015 0.734374 -0.0621557 0
M  V30 2029 H 198.657 1.70717 -0.834016 0
M  V30 2030 H 196.807 3.86537 0.390032 0
M  V30 2031 H 198.479 4.04732 -2.21336 0
M  V30 2032 H 196.722 3.77226 -2.14204 0
M  V30 2033 H 197.393 5.29665 -1.5543 0
M  V30 2034 H 199.869 4.161 0.00234528 0
M  V30 2035 H 198.745 5.47075 0.447207 0
M  V30 2036 H 199.006 4.13672 1.55974 0
M  V30 2037 N 198.065 0.39524 1.52563 0
M  V30 2038 C 199.028 -0.425001 2.25225 0
M  V30 2039 C 200.028 -0.985266 1.27079 0
M  V30 2040 O 201.218 -0.866332 1.5113 0
M  V30 2041 C 198.35 -1.59686 3.01186 0
M  V30 2042 H 199.543 0.211233 2.99155 0
M  V30 2043 H 197.096 0.147472 1.55603 0
M  V30 2044 H 197.831 -2.27035 2.31572 0
M  V30 2045 H 197.616 -1.20176 3.73229 0
M  V30 2046 H 199.106 -2.17743 3.5634 0
M  V30 2047 N 199.544 -1.57102 0.125237 0
M  V30 2048 C 200.476 -2.12726 -0.853237 0
M  V30 2049 C 201.489 -1.07145 -1.22571 0
M  V30 2050 O 202.678 -1.34497 -1.17358 0
M  V30 2051 C 199.778 -2.61709 -2.15317 0
M  V30 2052 C 198.951 -3.91456 -1.95143 0
M  V30 2053 C 198.01 -4.25973 -3.08923 0
M  V30 2054 O 197.036 -4.94682 -2.81564 0
M  V30 2055 N 198.238 -3.83795 -4.35524 0
M  V30 2056 H 201.003 -2.97307 -0.377964 0
M  V30 2057 H 198.564 -1.61792 -0.0590011 0
M  V30 2058 H 200.556 -2.81826 -2.90441 0
M  V30 2059 H 199.126 -1.81974 -2.54174 0
M  V30 2060 H 198.346 -3.80185 -1.04177 0
M  V30 2061 H 199.634 -4.76283 -1.78976 0
M  V30 2062 H 199.032 -3.2839 -4.60626 0
M  V30 2063 H 197.589 -4.09008 -5.07499 0
M  V30 2064 N 201.022 0.148545 -1.56898 0
M  V30 2065 C 201.97 1.20265 -1.99096 0
M  V30 2066 C 202.964 1.44559 -0.883123 0
M  V30 2067 O 204.17 1.4487 -1.0683 0
M  V30 2068 H 200.545 0.404786 -0.63376 0
M  V30 2069 H 202.516 0.82004 -2.86911 0
M  V30 2070 C 201.265 2.52886 -2.3863 0
M  V30 2071 H 200.588 2.35021 -3.23427 0
M  V30 2072 H 202.028 3.25274 -2.7198 0
M  V30 2073 C 200.487 3.13315 -1.23837 0
M  V30 2074 O 201.017 3.98077 -0.538268 0
M  V30 2075 N 199.223 2.72742 -1.00301 0
M  V30 2076 H 198.77 2.03912 -1.5741 0
M  V30 2077 H 198.728 3.13507 -0.236838 0
M  V30 2078 N 202.5 1.5196 0.417844 0
M  V30 2079 C 203.748 1.65263 1.16329 0
M  V30 2080 C 204.069 0.380634 1.91249 0
M  V30 2081 O 203.339 -0.604214 1.86349 0
M  V30 2082 H 201.919 0.60912 0.432414 0
M  V30 2083 H 204.581 1.88969 0.477162 0
M  V30 2084 H 203.677 2.4896 1.88217 0
M  V30 2085 N 203.978 -0.674533 1.42435 0
M  V30 2086 C 205.226 -1.43175 1.42637 0
M  V30 2087 C 205.547 -1.94951 0.0438992 0
M  V30 2088 O 204.817 -1.7308 -0.917607 0
M  V30 2089 H 203.397 -0.531307 0.525092 0
M  V30 2090 H 206.059 -0.797006 1.77859 0
M  V30 2091 H 205.155 -2.28463 2.12629 0
M  V30 2092 N 205.456 -1.28612 -0.910864 0
M  V30 2093 C 206.703 -1.15934 -1.66029 0
M  V30 2094 C 207.031 0.291483 -1.92303 0
M  V30 2095 O 206.286 1.22816 -1.52364 0
M  V30 2096 C 206.585 -1.90624 -3.0232 0
M  V30 2097 C 206.251 -3.40405 -2.95695 0
M  V30 2098 C 204.913 -3.81255 -2.93595 0
M  V30 2099 C 207.265 -4.359 -2.85728 0
M  V30 2100 C 204.593 -5.15936 -2.79334 0
M  V30 2101 C 206.945 -5.70657 -2.73007 0
M  V30 2102 C 205.609 -6.10779 -2.69267 0
M  V30 2103 H 204.879 -0.424234 -0.607541 0
M  V30 2104 H 207.526 -1.5942 -1.06101 0
M  V30 2105 H 205.831 -1.39696 -3.6605 0
M  V30 2106 H 207.528 -1.78228 -3.59215 0
M  V30 2107 H 204.118 -3.07927 -2.98125 0
M  V30 2108 H 208.302 -4.053 -2.86436 0
M  V30 2109 H 203.558 -5.46146 -2.74835 0
M  V30 2110 H 207.732 -6.44311 -2.64264 0
M  V30 2111 H 205.359 -7.1509 -2.57974 0
M  V30 2112 N 206.934 1.1197 -1.10907 0
M  V30 2113 C 208.181 1.83588 -0.854507 0
M  V30 2114 C 208.509 1.84357 0.6199 0
M  V30 2115 O 207.764 1.28809 1.47332 0
M  V30 2116 C 208.063 3.30749 -1.35425 0
M  V30 2117 C 207.729 3.50146 -2.84093 0
M  V30 2118 C 206.391 3.55148 -3.2469 0
M  V30 2119 C 208.743 3.56857 -3.79872 0
M  V30 2120 C 206.071 3.6441 -4.59806 0
M  V30 2121 C 208.423 3.6765 -5.14797 0
M  V30 2122 C 207.087 3.7091 -5.54961 0
M  V30 2123 H 206.357 0.671795 -0.312686 0
M  V30 2124 H 209.004 1.32091 -1.38652 0
M  V30 2125 H 207.309 3.84703 -0.742361 0
M  V30 2126 H 209.006 3.8464 -1.1337 0
M  V30 2127 H 205.596 3.46919 -2.51685 0
M  V30 2128 H 209.78 3.52258 -3.49611 0
M  V30 2129 H 205.036 3.65208 -4.9034 0
M  V30 2130 H 209.21 3.71786 -5.88853 0
M  V30 2131 H 206.837 3.7784 -6.59652 0
M  V30 2132 N 208.412 0.89855 1.29475 0
M  V30 2133 C 209.828 0.594483 1.48115 0
M  V30 2134 C 210.028 -0.86431 1.82022 0
M  V30 2135 O 209.084 -1.64457 1.91599 0
M  V30 2136 C 210.397 1.51932 2.59494 0
M  V30 2137 C 211.945 1.5244 2.7337 0
M  V30 2138 C 212.42 2.43548 3.87877 0
M  V30 2139 N 213.911 2.41589 3.95208 0
M  V30 2140 C 214.646 3.08789 4.83153 0
M  V30 2141 N 214.142 3.85265 5.75798 0
M  V30 2142 N 215.935 2.97952 4.76635 0
M  V30 2143 H 208.086 1.84207 1.05742 0
M  V30 2144 H 210.349 0.789251 0.525154 0
M  V30 2145 H 210.055 2.55865 2.41301 0
M  V30 2146 H 209.929 1.23899 3.56271 0
M  V30 2147 H 212.316 0.492518 2.90961 0
M  V30 2148 H 212.397 1.8451 1.77172 0
M  V30 2149 H 212.041 3.46829 3.71041 0
M  V30 2150 H 211.971 2.08788 4.83441 0
M  V30 2151 H 214.462 1.86025 3.28943 0
M  V30 2152 H 214.775 4.33598 6.39697 0
M  V30 2153 H 213.12 3.89371 5.75687 0
M  V30 2154 H 216.311 2.37723 4.03244 0
M  V30 2155 H 216.484 3.50599 5.44962 0
M  V30 2156 N 209.89 -1.43072 0.660911 0
M  V30 2157 C 210.823 -2.28074 -0.0758862 0
M  V30 2158 C 211.801 -1.40271 -0.822362 0
M  V30 2159 O 212.985 -1.69713 -0.820352 0
M  V30 2160 C 210.112 -3.19843 -1.11437 0
M  V30 2161 C 209.158 -4.23957 -0.465069 0
M  V30 2162 S 209.991 -5.29978 0.767078 0
M  V30 2163 C 211.147 -6.25314 -0.270682 0
M  V30 2164 H 211.38 -2.90216 0.645139 0
M  V30 2165 H 208.913 -1.47697 0.449995 0
M  V30 2166 H 210.871 -3.73257 -1.70849 0
M  V30 2167 H 209.532 -2.56863 -1.80776 0
M  V30 2168 H 208.725 -4.88299 -1.24819 0
M  V30 2169 H 208.327 -3.73959 0.0551242 0
M  V30 2170 H 210.619 -6.67932 -1.13459 0
M  V30 2171 H 211.562 -7.07293 0.337916 0
M  V30 2172 H 211.97 -5.61195 -0.609937 0
M  V30 2173 N 211.368 -0.403325 -1.52352 0
M  V30 2174 C 212.316 0.439752 -2.28405 0
M  V30 2175 C 213.31 1.05089 -1.32863 0
M  V30 2176 O 214.516 0.989759 -1.50345 0
M  V30 2177 H 210.891 0.160587 -0.734653 0
M  V30 2178 H 212.862 -0.222983 -2.97566 0
M  V30 2179 C 211.611 1.54736 -3.11371 0
M  V30 2180 H 210.934 1.08643 -3.84755 0
M  V30 2181 H 212.374 2.1112 -3.67701 0
M  V30 2182 C 210.833 2.51141 -2.24566 0
M  V30 2183 O 211.363 3.54887 -1.88196 0
M  V30 2184 N 209.569 2.21213 -1.8845 0
M  V30 2185 H 209.116 1.36878 -2.18225 0
M  V30 2186 H 209.074 2.85963 -1.30662 0
M  V30 2187 N 212.846 1.57033 -0.133567 0
M  V30 2188 C 214.071 2.00475 0.531477 0
M  V30 2189 C 214.496 1.01291 1.58499 0
M  V30 2190 O 213.854 -0.0133279 1.81295 0
M  V30 2191 C 213.902 3.42729 1.12113 0
M  V30 2192 O 213.006 3.46498 2.23636 0
M  V30 2193 H 212.347 0.650876 0.131362 0
M  V30 2194 H 214.877 2.03344 -0.22634 0
M  V30 2195 H 214.887 3.81246 1.4531 0
M  V30 2196 H 213.562 4.14428 0.349557 0
M  V30 2197 H 212.139 3.19811 1.91769 0
M  V30 2198 N 214.325 -0.140222 1.56975 0
M  V30 2199 C 215.573 -0.850005 1.83356 0
M  V30 2200 C 215.894 -1.81399 0.71551 0
M  V30 2201 O 215.164 -1.94136 -0.262294 0
M  V30 2202 H 213.744 -0.316886 0.676456 0
M  V30 2203 H 216.406 -0.132608 1.94448 0
M  V30 2204 H 215.502 -1.40814 2.78528 0
M  V30 2205 N 215.803 -1.52179 -0.40978 0
M  V30 2206 C 216.713 -1.78364 -1.52392 0
M  V30 2207 C 217.729 -0.669183 -1.60617 0
M  V30 2208 O 218.905 -0.954518 -1.77344 0
M  V30 2209 C 215.97 -1.92822 -2.88133 0
M  V30 2210 C 215.031 -3.16725 -2.898 0
M  V30 2211 C 214.264 -3.30483 -4.19067 0
M  V30 2212 O 214.487 -2.49522 -5.12928 0
M  V30 2213 O 213.421 -4.2363 -4.27576 0
M  V30 2214 H 217.247 -2.72931 -1.33201 0
M  V30 2215 H 214.832 -1.37016 -0.59557 0
M  V30 2216 H 216.714 -2.04157 -3.68643 0
M  V30 2217 H 215.389 -1.01444 -3.07393 0
M  V30 2218 H 214.296 -3.10848 -2.08146 0
M  V30 2219 H 215.629 -4.07881 -2.75489 0
M  V30 2220 N 217.281 0.66697 -1.42791 0
M  V30 2221 C 218.521 1.43892 -1.4517 0
M  V30 2222 C 218.885 1.91877 -0.0687551 0
M  V30 2223 O 220.086 2.6878 0.0327455 0
M  V30 2224 C 218.357 2.59839 -2.45395 0
M  V30 2225 S 219.916 3.48572 -2.66539 0
M  V30 2226 H 216.734 0.491356 -0.513897 0
M  V30 2227 H 219.336 0.775656 -1.79454 0
M  V30 2228 H 218.04 2.22838 -3.44632 0
M  V30 2229 H 217.571 3.3103 -2.12562 0
M  V30 2230 H 219.586 4.56094 -1.95429 0
M  V30 2231 N 218.759 1.29093 0.90403 0
M  V30 2232 C 219.689 1.16401 2.02418 0
M  V30 2233 C 220.67 0.0593085 1.69997 0
M  V30 2234 O 221.855 0.238021 1.92736 0
M  V30 2235 C 218.985 0.835233 3.37107 0
M  V30 2236 C 217.939 1.89578 3.83724 0
M  V30 2237 C 217.265 1.42041 5.15489 0
M  V30 2238 C 218.565 3.30394 4.04521 0
M  V30 2239 H 220.259 2.10109 2.13295 0
M  V30 2240 H 217.805 1.01157 1.02486 0
M  V30 2241 H 219.758 0.733169 4.14973 0
M  V30 2242 H 218.482 -0.137543 3.2631 0
M  V30 2243 H 217.141 1.98715 3.08071 0
M  V30 2244 H 216.789 0.436426 5.01103 0
M  V30 2245 H 216.489 2.12964 5.4765 0
M  V30 2246 H 218.013 1.33176 5.959 0
M  V30 2247 H 219.427 3.24123 4.72882 0
M  V30 2248 H 217.824 3.99237 4.48029 0
M  V30 2249 H 218.894 3.73692 3.09002 0
M  V30 2250 N 220.237 -1.11381 1.11499 0
M  V30 2251 C 221.485 -1.8277 0.862524 0
M  V30 2252 C 221.806 -1.85097 -0.613534 0
M  V30 2253 O 221.076 -1.32198 -1.4457 0
M  V30 2254 H 219.656 -0.676823 0.316101 0
M  V30 2255 H 222.318 -1.34816 1.4075 0
M  V30 2256 H 221.414 -2.86614 1.23527 0
M  V30 2257 N 221.715 -0.905404 -1.28997 0
M  V30 2258 C 222.663 -0.377431 -2.29517 0
M  V30 2259 C 223.657 0.526461 -1.61012 0
M  V30 2260 O 224.863 0.40863 -1.753 0
M  V30 2261 H 221.238 -0.103437 -0.744852 0
M  V30 2262 H 223.209 -1.23848 -2.71485 0
M  V30 2263 C 221.958 0.374833 -3.45674 0
M  V30 2264 H 221.281 -0.311474 -3.98585 0
M  V30 2265 H 222.721 0.70903 -4.1803 0
M  V30 2266 C 221.18 1.57963 -2.97572 0
M  V30 2267 O 221.71 2.67886 -2.99333 0
M  V30 2268 N 219.916 1.42375 -2.53333 0
M  V30 2269 H 219.463 0.529466 -2.521 0
M  V30 2270 H 219.421 2.23117 -2.21509 0
M  V30 2271 N 223.193 1.4272 -0.668489 0
M  V30 2272 C 224.439 2.01923 -0.188419 0
M  V30 2273 C 224.772 1.52704 1.19979 0
M  V30 2274 O 224.047 0.726566 1.8042 0
M  V30 2275 C 224.33 3.59451 -0.216085 0
M  V30 2276 C 224.183 4.18864 -1.6393 0
M  V30 2277 C 225.502 4.37903 0.439179 0
M  V30 2278 H 222.621 0.733674 -0.0699412 0
M  V30 2279 H 225.263 1.69822 -0.852076 0
M  V30 2280 H 223.413 3.86929 0.349012 0
M  V30 2281 H 225.085 4.02362 -2.25616 0
M  V30 2282 H 223.328 3.74933 -2.18193 0
M  V30 2283 H 223.999 5.27987 -1.61039 0
M  V30 2284 H 226.475 4.16079 -0.0417878 0
M  V30 2285 H 225.351 5.47519 0.389157 0
M  V30 2286 H 225.612 4.15303 1.51577 0
M  V30 2287 N 224.671 0.411399 1.52136 0
M  V30 2288 C 225.917 -0.163888 2.02137 0
M  V30 2289 C 226.25 -1.44597 1.29636 0
M  V30 2290 O 225.525 -1.90272 0.403353 0
M  V30 2291 C 225.808 -0.40927 3.57767 0
M  V30 2292 C 225.661 0.889643 4.40914 0
M  V30 2293 C 226.98 -1.19042 4.23694 0
M  V30 2294 H 224.099 -0.0580896 0.734707 0
M  V30 2295 H 226.741 0.54531 1.82007 0
M  V30 2296 H 224.891 -1.0134 3.7505 0
M  V30 2297 H 226.563 1.52575 4.35337 0
M  V30 2298 H 224.806 1.50011 4.07037 0
M  V30 2299 H 225.477 0.672314 5.4789 0
M  V30 2300 H 227.953 -0.678942 4.10524 0
M  V30 2301 H 226.829 -1.33086 5.32522 0
M  V30 2302 H 227.09 -2.21166 3.82803 0
M  V30 2303 N 226.149 -1.5696 0.141893 0
M  V30 2304 C 227.374 -2.00754 -0.520838 0
M  V30 2305 C 227.799 -1.0213 -1.57959 0
M  V30 2306 O 227.157 0.00371324 -1.813 0
M  V30 2307 C 227.205 -3.43318 -1.10294 0
M  V30 2308 O 226.309 -3.47679 -2.21795 0
M  V30 2309 H 225.65 -0.651564 -0.127908 0
M  V30 2310 H 228.18 -2.03221 0.23712 0
M  V30 2311 H 228.19 -3.82012 -1.43287 0
M  V30 2312 H 226.865 -4.14608 -0.327574 0
M  V30 2313 H 225.442 -3.20824 -1.9007 0
M  V30 2314 N 227.627 0.131896 -1.57047 0
M  V30 2315 C 228.904 0.871495 -1.75112 0
M  V30 2316 C 229.284 1.9866 -0.713949 0
M  V30 2317 O 228.632 2.26965 0.264447 0
M  V30 2318 C 228.842 1.40007 -3.19686 0
M  V30 2319 C 230.19 1.85752 -3.81813 0
M  V30 2320 O 231.214 1.49715 -3.23209 0
M  V30 2321 O 230.073 2.5226 -4.84796 0
M  V30 2322 H 227.167 0.412919 -0.716538 0
M  V30 2323 H 229.713 0.116641 -1.69299 0
M  V30 2324 H 228.485 0.599404 -3.86682 0
M  V30 2325 H 228.108 2.218 -3.29986 0
M  V30 2326 N 229.106 1.52395 0.401703 0
M  V30 2327 C 230.016 1.7917 1.51444 0
M  V30 2328 C 231.032 0.677691 1.6026 0
M  V30 2329 O 232.208 0.963909 1.76835 0
M  V30 2330 C 229.273 1.94347 2.87107 0
M  V30 2331 C 228.334 3.18257 2.88116 0
M  V30 2332 C 227.567 3.32701 4.17308 0
M  V30 2333 O 227.79 2.52238 5.11598 0
M  V30 2334 O 226.724 4.25891 4.25324 0
M  V30 2335 H 230.55 2.73633 1.31752 0
M  V30 2336 H 228.135 1.3733 0.588296 0
M  V30 2337 H 230.017 2.06109 3.67555 0
M  V30 2338 H 228.692 1.03073 3.06851 0
M  V30 2339 H 227.599 3.11947 2.06494 0
M  V30 2340 H 228.932 4.09336 2.73322 0
M  V30 2341 N 230.584 -0.659388 1.43143 0
M  V30 2342 C 232 -0.974337 1.26407 0
M  V30 2343 C 232.2 -2.007 0.179341 0
M  V30 2344 O 231.256 -2.4856 -0.444295 0
M  V30 2345 C 232.569 -1.46447 2.62628 0
M  V30 2346 C 234.117 -1.58144 2.7011 0
M  V30 2347 C 234.592 -2.1055 4.06734 0
M  V30 2348 N 236.083 -2.17861 4.08767 0
M  V30 2349 C 236.818 -2.59519 5.1131 0
M  V30 2350 N 236.314 -3.00518 6.24228 0
M  V30 2351 N 238.107 -2.59404 4.98664 0
M  V30 2352 H 230.258 0.0240528 2.12386 0
M  V30 2353 H 232.521 -0.0518065 0.946583 0
M  V30 2354 H 232.227 -0.780123 3.42939 0
M  V30 2355 H 232.101 -2.44058 2.87603 0
M  V30 2356 H 234.488 -2.25682 1.90136 0
M  V30 2357 H 234.569 -0.589828 2.48907 0
M  V30 2358 H 234.213 -1.43616 4.87172 0
M  V30 2359 H 234.143 -3.10531 4.25298 0
M  V30 2360 H 236.634 -1.88975 3.27257 0
M  V30 2361 H 236.947 -3.31036 6.98309 0
M  V30 2362 H 235.292 -2.98337 6.2771 0
M  V30 2363 H 238.483 -2.26747 4.09516 0
M  V30 2364 H 238.656 -2.91548 5.78709 0
M  V30 2365 N 232.062 -1.29571 -0.897171 0
M  V30 2366 C 233.478 -1.07637 -1.17841 0
M  V30 2367 C 233.678 0.170713 -2.00776 0
M  V30 2368 O 232.734 0.867768 -2.3712 0
M  V30 2369 C 234.047 -2.3332 -1.8969 0
M  V30 2370 C 235.595 -2.38664 -2.02505 0
M  V30 2371 C 236.07 -3.64157 -2.77765 0
M  V30 2372 N 237.561 -3.64894 -2.85318 0
M  V30 2373 C 238.296 -4.58679 -3.44094 0
M  V30 2374 N 237.792 -5.62799 -4.04017 0
M  V30 2375 N 239.585 -4.46245 -3.41793 0
M  V30 2376 H 231.736 -2.09598 -0.343883 0
M  V30 2377 H 233.999 -0.923333 -0.214848 0
M  V30 2378 H 233.705 -3.24262 -1.36187 0
M  V30 2379 H 233.579 -2.41025 -2.9015 0
M  V30 2380 H 235.966 -1.48208 -2.55183 0
M  V30 2381 H 236.047 -2.34943 -1.01171 0
M  V30 2382 H 235.691 -4.54965 -2.25763 0
M  V30 2383 H 235.621 -3.65137 -3.7945 0
M  V30 2384 H 238.112 -2.89613 -2.42761 0
M  V30 2385 H 238.425 -6.3048 -4.46895 0
M  V30 2386 H 236.77 -5.66605 -4.02472 0
M  V30 2387 H 239.961 -3.64094 -2.94199 0
M  V30 2388 H 240.134 -5.19518 -3.87304 0
M  V30 2389 N 233.54 1.10788 -1.12088 0
M  V30 2390 C 234.786 1.82942 -0.875226 0
M  V30 2391 C 235.119 1.84779 0.597538 0
M  V30 2392 O 234.394 1.30578 1.44152 0
M  V30 2393 C 234.677 3.29789 -1.44606 0
M  V30 2394 C 234.53 3.36307 -2.98693 0
M  V30 2395 C 235.849 4.26064 -1.10261 0
M  V30 2396 H 232.968 0.664195 -0.319397 0
M  V30 2397 H 235.61 1.29867 -1.38689 0
M  V30 2398 H 233.76 3.75118 -1.01089 0
M  V30 2399 H 235.432 2.99487 -3.50864 0
M  V30 2400 H 233.675 2.76318 -3.34411 0
M  V30 2401 H 234.346 4.39694 -3.33726 0
M  V30 2402 H 236.822 3.88951 -1.4784 0
M  V30 2403 H 235.698 5.27183 -1.52869 0
M  V30 2404 H 235.959 4.42098 -0.0142953 0
M  V30 2405 N 235.018 0.912232 1.28515 0
M  V30 2406 C 236.243 0.559774 1.99703 0
M  V30 2407 C 236.668 -0.851393 1.67729 0
M  V30 2408 O 236.026 -1.56875 0.908834 0
M  V30 2409 C 236.074 0.773874 3.52198 0
M  V30 2410 O 235.178 -0.167842 4.12058 0
M  V30 2411 H 234.519 0.21723 0.627461 0
M  V30 2412 H 237.049 1.22725 1.63706 0
M  V30 2413 H 237.059 0.683386 4.02236 0
M  V30 2414 H 235.734 1.80261 3.74805 0
M  V30 2415 H 234.311 -0.0287509 3.72889 0
M  V30 2416 N 236.496 -1.42363 0.676048 0
M  V30 2417 C 237.721 -2.06377 0.205705 0
M  V30 2418 C 238.146 -1.50463 -1.12883 0
M  V30 2419 O 237.504 -0.623619 -1.70237 0
M  V30 2420 C 237.552 -3.60277 0.152655 0
M  V30 2421 O 236.656 -4.02935 -0.87845 0
M  V30 2422 H 235.997 -0.655588 0.105359 0
M  V30 2423 H 238.527 -1.82475 0.925412 0
M  V30 2424 H 238.537 -4.07993 -0.0230675 0
M  V30 2425 H 237.212 -4.00346 1.12675 0
M  V30 2426 H 235.789 -3.66764 -0.673668 0
M  V30 2427 N 237.974 -0.419461 -1.51915 0
M  V30 2428 C 239.199 0.154572 -2.06823 0
M  V30 2429 C 239.624 1.3722 -1.28656 0
M  V30 2430 O 238.982 1.78461 -0.319583 0
M  V30 2431 C 239.03 0.473172 -3.57482 0
M  V30 2432 O 238.134 1.56255 -3.81652 0
M  V30 2433 H 237.475 0.0096924 -0.663929 0
M  V30 2434 H 240.005 -0.595642 -1.95738 0
M  V30 2435 H 240.015 0.728825 -4.01438 0
M  V30 2436 H 238.69 -0.416873 -4.13805 0
M  V30 2437 H 237.267 1.29825 -3.49571 0
M  V30 2438 N 239.452 1.56882 -0.150215 0
M  V30 2439 C 240.7 1.9584 0.499105 0
M  V30 2440 C 241.021 1.03623 1.65188 0
M  V30 2441 O 240.291 0.0984084 1.95653 0
M  V30 2442 H 238.871 0.723119 0.187373 0
M  V30 2443 H 241.533 1.9358 -0.226466 0
M  V30 2444 H 240.629 2.99638 0.873122 0
M  V30 2445 N 240.93 -0.123565 1.57115 0
M  V30 2446 C 242.178 -0.83051 1.84247 0
M  V30 2447 C 242.499 -1.80629 0.73471 0
M  V30 2448 O 241.769 -1.94403 -0.241688 0
M  V30 2449 H 240.349 -0.309694 0.679778 0
M  V30 2450 H 243.011 -0.111976 1.94578 0
M  V30 2451 H 242.107 -1.37852 2.80006 0
M  V30 2452 N 242.408 -1.52605 -0.393616 0
M  V30 2453 C 243.338 -1.80022 -1.48709 0
M  V30 2454 C 244.319 -0.651995 -1.57108 0
M  V30 2455 O 245.504 -0.89913 -1.72132 0
M  V30 2456 C 242.634 -1.96492 -2.86371 0
M  V30 2457 C 241.588 -3.12161 -2.92813 0
M  V30 2458 C 240.914 -3.13877 -4.3288 0
M  V30 2459 C 242.214 -4.51322 -2.6288 0
M  V30 2460 H 243.908 -2.71589 -1.26015 0
M  V30 2461 H 241.454 -1.30684 -0.604778 0
M  V30 2462 H 243.407 -2.14255 -3.62867 0
M  V30 2463 H 242.131 -1.01611 -3.10391 0
M  V30 2464 H 240.79 -2.94173 -2.18764 0
M  V30 2465 H 240.438 -2.16687 -4.53933 0
M  V30 2466 H 240.138 -3.91576 -4.38112 0
M  V30 2467 H 241.662 -3.33789 -5.1129 0
M  V30 2468 H 243.076 -4.69435 -3.29096 0
M  V30 2469 H 241.473 -5.31053 -2.79468 0
M  V30 2470 H 242.543 -4.58353 -1.58242 0
M  V30 2471 N 243.887 0.651787 -1.4349 0
M  V30 2472 C 244.819 1.77725 -1.44729 0
M  V30 2473 C 245.832 1.59141 -0.343231 0
M  V30 2474 O 247.021 1.67835 -0.607751 0
M  V30 2475 C 244.121 3.15172 -1.24579 0
M  V30 2476 C 243.294 3.60402 -2.47849 0
M  V30 2477 C 242.353 4.76656 -2.22902 0
M  V30 2478 O 241.379 4.86022 -2.96263 0
M  V30 2479 N 242.581 5.66958 -1.24656 0
M  V30 2480 H 245.346 1.77141 -2.41746 0
M  V30 2481 H 242.907 0.835678 -1.38665 0
M  V30 2482 H 244.899 3.90634 -1.0577 0
M  V30 2483 H 243.469 3.1052 -0.360015 0
M  V30 2484 H 242.689 2.75369 -2.82073 0
M  V30 2485 H 243.977 3.87368 -3.29884 0
M  V30 2486 H 243.375 5.62065 -0.640265 0
M  V30 2487 H 241.932 6.42135 -1.1183 0
M  V30 2488 N 245.365 1.30045 0.890287 0
M  V30 2489 C 246.313 1.15873 2.01683 0
M  V30 2490 C 247.307 0.0719403 1.69247 0
M  V30 2491 O 248.513 0.232414 1.78493 0
M  V30 2492 H 244.888 0.358203 0.661207 0
M  V30 2493 H 246.859 2.11229 2.10772 0
M  V30 2494 C 245.608 0.861842 3.36849 0
M  V30 2495 H 244.931 1.69016 3.62317 0
M  V30 2496 H 246.371 0.802762 4.16331 0
M  V30 2497 C 244.83 -0.435132 3.34078 0
M  V30 2498 O 245.36 -1.4583 3.74295 0
M  V30 2499 N 243.566 -0.444377 2.87182 0
M  V30 2500 H 243.113 0.388723 2.5465 0
M  V30 2501 H 243.071 -1.31213 2.85711 0
M  V30 2502 N 246.843 -1.10192 1.12674 0
M  V30 2503 C 247.806 -2.14786 0.799979 0
M  V30 2504 C 248.806 -1.59711 -0.18685 0
M  V30 2505 O 249.996 -1.74156 0.0392558 0
M  V30 2506 C 247.128 -3.40374 0.189228 0
M  V30 2507 H 248.321 -2.45203 1.72671 0
M  V30 2508 H 245.874 -1.25597 0.930326 0
M  V30 2509 H 246.609 -3.15577 -0.747107 0
M  V30 2510 H 246.394 -3.81637 0.899766 0
M  V30 2511 H 247.884 -4.17594 -0.0228143 0
M  V30 2512 N 248.321 -0.919034 -1.28029 0
M  V30 2513 C 249.253 -0.368762 -2.26214 0
M  V30 2514 C 250.266 0.495716 -1.55069 0
M  V30 2515 O 251.455 0.30974 -1.75792 0
M  V30 2516 C 248.555 0.491049 -3.35324 0
M  V30 2517 C 247.728 -0.352133 -4.3598 0
M  V30 2518 C 246.787 0.443622 -5.24327 0
M  V30 2519 O 245.813 -0.14566 -5.69014 0
M  V30 2520 N 247.015 1.74545 -5.53637 0
M  V30 2521 H 249.78 -1.21273 -2.74068 0
M  V30 2522 H 247.341 -0.785541 -1.41566 0
M  V30 2523 H 249.333 1.03026 -3.91366 0
M  V30 2524 H 247.903 1.23574 -2.87138 0
M  V30 2525 H 247.123 -1.07269 -3.79324 0
M  V30 2526 H 248.411 -0.928883 -5.00249 0
M  V30 2527 H 247.809 2.24666 -5.19174 0
M  V30 2528 H 246.366 2.23138 -6.12416 0
M  V30 2529 N 249.799 1.42003 -0.683588 0
M  V30 2530 C 251.046 2.01413 -0.209514 0
M  V30 2531 C 251.374 1.54088 1.1869 0
M  V30 2532 O 250.629 0.737591 1.81268 0
M  V30 2533 C 250.928 3.56827 -0.202357 0
M  V30 2534 C 250.594 4.23617 -1.54464 0
M  V30 2535 C 249.256 4.41577 -1.91215 0
M  V30 2536 C 251.608 4.61178 -2.42826 0
M  V30 2537 C 248.936 4.9437 -3.15935 0
M  V30 2538 C 251.288 5.15355 -3.66867 0
M  V30 2539 C 249.952 5.31528 -4.03776 0
M  V30 2540 H 249.222 0.737023 -0.0766668 0
M  V30 2541 H 251.869 1.70067 -0.880312 0
M  V30 2542 H 250.174 3.87892 0.551969 0
M  V30 2543 H 251.871 4.00588 0.181793 0
M  V30 2544 H 248.461 4.10004 -1.24877 0
M  V30 2545 H 252.645 4.46968 -2.15717 0
M  V30 2546 H 247.901 5.05076 -3.44541 0
M  V30 2547 H 252.075 5.43402 -4.35531 0
M  V30 2548 H 249.702 5.72199 -5.00492 0
M  V30 2549 N 251.277 0.427512 1.51691 0
M  V30 2550 C 252.525 -0.141948 2.01601 0
M  V30 2551 C 252.846 -1.44067 1.31414 0
M  V30 2552 O 252.116 -1.90763 0.445658 0
M  V30 2553 H 250.696 -0.0554468 0.744939 0
M  V30 2554 H 253.358 0.567968 1.86441 0
M  V30 2555 H 252.454 -0.324913 3.10404 0
M  V30 2556 N 252.755 -1.56801 0.158532 0
M  V30 2557 C 254.004 -1.95665 -0.489702 0
M  V30 2558 C 254.317 -1.04654 -1.65248 0
M  V30 2559 O 255.523 -1.33146 -2.3661 0
M  V30 2560 C 253.979 -3.47874 -0.922582 0
M  V30 2561 C 253.587 -4.47489 0.213893 0
M  V30 2562 C 255.331 -3.95583 -1.53996 0
M  V30 2563 C 253.238 -5.90921 -0.237903 0
M  V30 2564 H 252.168 -0.730516 -0.186716 0
M  V30 2565 H 254.819 -1.81861 0.244722 0
M  V30 2566 H 253.201 -3.57051 -1.71261 0
M  V30 2567 H 254.375 -4.50017 0.991036 0
M  V30 2568 H 252.69 -4.09764 0.740407 0
M  V30 2569 H 255.287 -5.0019 -1.8898 0
M  V30 2570 H 255.63 -3.37789 -2.43319 0
M  V30 2571 H 256.163 -3.8937 -0.814611 0
M  V30 2572 H 252.902 -6.52559 0.620236 0
M  V30 2573 H 252.422 -5.91729 -0.980676 0
M  V30 2574 H 254.101 -6.43352 -0.686067 0
M  V30 2575 N 254.233 0.115231 -1.57178 0
M  V30 2576 C 255.649 0.468877 -1.52557 0
M  V30 2577 C 255.849 1.81649 -0.872125 0
M  V30 2578 O 254.905 2.48347 -0.45606 0
M  V30 2579 C 256.218 0.4499 -2.97315 0
M  V30 2580 C 257.766 0.533185 -3.08425 0
M  V30 2581 C 258.241 0.54456 -4.54751 0
M  V30 2582 N 259.732 0.605892 -4.5922 0
M  V30 2583 C 260.467 0.636203 -5.6986 0
M  V30 2584 N 259.963 0.623931 -6.89985 0
M  V30 2585 N 261.756 0.679496 -5.57978 0
M  V30 2586 H 253.907 -0.767712 -1.9804 0
M  V30 2587 H 256.17 -0.283609 -0.904583 0
M  V30 2588 H 255.876 -0.472721 -3.48509 0
M  V30 2589 H 255.75 1.27632 -3.5495 0
M  V30 2590 H 258.137 1.44623 -2.57232 0
M  V30 2591 H 258.218 -0.320995 -2.53778 0
M  V30 2592 H 257.862 -0.364452 -5.06591 0
M  V30 2593 H 257.792 1.41568 -5.07214 0
M  V30 2594 H 260.283 0.621386 -3.72756 0
M  V30 2595 H 260.596 0.649787 -7.70063 0
M  V30 2596 H 258.941 0.591296 -6.9248 0
M  V30 2597 H 262.132 0.686472 -4.63039 0
M  V30 2598 H 262.305 0.69965 -6.44212 0
M  V30 2599 N 255.711 1.52812 0.385517 0
M  V30 2600 C 257.127 1.4214 0.725829 0
M  V30 2601 C 257.327 0.544589 1.94001 0
M  V30 2602 O 256.383 0.0193693 2.52493 0
M  V30 2603 C 257.696 2.85042 0.957668 0
M  V30 2604 C 259.244 2.94543 1.05892 0
M  V30 2605 C 259.719 4.38464 1.32337 0
M  V30 2606 N 261.21 4.41804 1.39151 0
M  V30 2607 C 261.945 5.5025 1.61285 0
M  V30 2608 N 261.441 6.68775 1.80866 0
M  V30 2609 N 263.234 5.37798 1.63492 0
M  V30 2610 H 255.385 2.08338 -0.413383 0
M  V30 2611 H 257.648 0.940016 -0.122775 0
M  V30 2612 H 257.354 3.51431 0.137568 0
M  V30 2613 H 257.228 3.27505 1.87137 0
M  V30 2614 H 259.615 2.28321 1.86959 0
M  V30 2615 H 259.696 2.55504 0.123057 0
M  V30 2616 H 259.34 5.05254 0.517793 0
M  V30 2617 H 259.27 4.75059 2.27214 0
M  V30 2618 H 261.761 3.56377 1.25713 0
M  V30 2619 H 262.074 7.47197 1.97271 0
M  V30 2620 H 260.419 6.71797 1.78083 0
M  V30 2621 H 263.61 4.44171 1.47749 0
M  V30 2622 H 263.783 6.22382 1.80402 0
M  V30 2623 N 257.189 -0.644168 1.43834 0
M  V30 2624 C 258.466 -1.40188 1.36406 0
M  V30 2625 C 258.846 -2.11094 0.0163124 0
M  V30 2626 O 258.194 -2.05426 -1.00062 0
M  V30 2627 C 258.404 -2.3791 2.55343 0
M  V30 2628 C 259.752 -3.01637 2.98832 0
M  V30 2629 O 260.776 -2.48237 2.55455 0
M  V30 2630 O 259.635 -3.98477 3.74003 0
M  V30 2631 H 256.729 -0.626773 0.539523 0
M  V30 2632 H 259.275 -0.670317 1.559 0
M  V30 2633 H 258.047 -1.84525 3.4506 0
M  V30 2634 H 257.67 -3.18503 2.37995 0
M  V30 2635 N 258.668 -1.30515 -0.883378 0
M  V30 2636 C 259.916 -1.19194 -1.63209 0
M  V30 2637 C 260.237 0.253205 -1.93349 0
M  V30 2638 O 259.507 1.17025 -1.57105 0
M  V30 2639 H 258.087 -0.438148 -0.605009 0
M  V30 2640 H 260.749 -1.63663 -1.05832 0
M  V30 2641 H 259.845 -1.75396 -2.58153 0
M  V30 2642 N 260.146 1.09593 -1.13257 0
M  V30 2643 C 261.374 1.855 -0.916378 0
M  V30 2644 C 261.789 1.81069 0.534738 0
M  V30 2645 O 261.146 1.20562 1.37007 0
M  V30 2646 C 261.197 3.33546 -1.39388 0
M  V30 2647 O 260.918 3.37927 -2.78813 0
M  V30 2648 C 262.419 4.26299 -1.21588 0
M  V30 2649 H 259.639 0.585991 -0.326887 0
M  V30 2650 H 262.183 1.38488 -1.5047 0
M  V30 2651 H 260.338 3.77992 -0.848597 0
M  V30 2652 H 260.752 4.30254 -2.9997 0
M  V30 2653 H 262.226 5.28341 -1.59876 0
M  V30 2654 H 262.703 4.38918 -0.157376 0
M  V30 2655 H 263.309 3.87668 -1.7491 0
M  V30 2656 N 261.624 0.925811 1.2754 0
M  V30 2657 C 262.554 0.440748 2.29303 0
M  V30 2658 C 263.535 -0.497971 1.62648 0
M  V30 2659 O 264.72 -0.403126 1.8997 0
M  V30 2660 C 261.85 -0.309048 3.45922 0
M  V30 2661 C 260.804 0.54166 4.24559 0
M  V30 2662 C 260.13 -0.337191 5.33636 0
M  V30 2663 C 261.43 1.80516 4.90114 0
M  V30 2664 H 263.124 1.29121 2.70126 0
M  V30 2665 H 260.67 0.622323 1.29858 0
M  V30 2666 H 262.623 -0.659315 4.1621 0
M  V30 2667 H 261.347 -1.19352 3.04011 0
M  V30 2668 H 260.006 0.874609 3.56014 0
M  V30 2669 H 259.654 -1.22056 4.87966 0
M  V30 2670 H 259.354 0.228497 5.87156 0
M  V30 2671 H 260.878 -0.683072 6.06767 0
M  V30 2672 H 262.292 1.52307 5.52698 0
M  V30 2673 H 260.689 2.3142 5.53683 0
M  V30 2674 H 261.759 2.52581 4.13921 0
M  V30 2675 N 263.102 -1.41638 0.69111 0
M  V30 2676 C 264.348 -2.01598 0.220519 0
M  V30 2677 C 264.681 -1.54594 -1.17535 0
M  V30 2678 O 263.956 -0.755177 -1.79241 0
M  V30 2679 C 264.239 -3.59062 0.273243 0
M  V30 2680 C 264.092 -4.16203 1.70573 0
M  V30 2681 C 265.411 -4.38546 -0.369457 0
M  V30 2682 H 262.53 -0.732468 0.0816045 0
M  V30 2683 H 265.172 -1.68445 0.878986 0
M  V30 2684 H 263.322 -3.87435 -0.287411 0
M  V30 2685 H 264.994 -3.98722 2.31989 0
M  V30 2686 H 263.237 -3.71414 2.2413 0
M  V30 2687 H 263.908 -5.25358 1.69419 0
M  V30 2688 H 266.384 -4.1596 0.107977 0
M  V30 2689 H 265.26 -5.48069 -0.302002 0
M  V30 2690 H 265.521 -4.17662 -1.44951 0
M  V30 2691 N 264.58 -0.43555 -1.51462 0
M  V30 2692 C 265.808 0.130242 -2.0649 0
M  V30 2693 C 266.223 1.36614 -1.30315 0
M  V30 2694 O 265.58 1.78869 -0.362223 0
M  V30 2695 C 265.631 0.454253 -3.58635 0
M  V30 2696 O 265.352 -0.73259 -4.31931 0
M  V30 2697 C 266.853 1.07091 -4.3017 0
M  V30 2698 H 264.073 0.00871669 -0.670943 0
M  V30 2699 H 266.617 -0.614117 -1.95061 0
M  V30 2700 H 264.772 1.14851 -3.69984 0
M  V30 2701 H 265.186 -0.455787 -5.22516 0
M  V30 2702 H 266.66 1.24764 -5.37716 0
M  V30 2703 H 267.137 2.05144 -3.88346 0
M  V30 2704 H 267.743 0.416089 -4.2326 0
M  V30 2705 N 266.058 1.56714 -0.166846 0
M  V30 2706 C 267.306 1.96358 0.478305 0
M  V30 2707 C 267.627 1.0537 1.6408 0
M  V30 2708 O 266.897 0.119154 1.95537 0
M  V30 2709 H 265.477 0.725065 0.179692 0
M  V30 2710 H 268.139 1.93329 -0.246985 0
M  V30 2711 H 267.235 3.00547 0.841292 0
M  V30 2712 N 267.536 -0.106894 1.57237 0
M  V30 2713 C 268.766 -0.825191 1.89405 0
M  V30 2714 C 269.174 -1.73374 0.757496 0
M  V30 2715 O 268.517 -1.81552 -0.280115 0
M  V30 2716 C 268.579 -1.70102 3.1671 0
M  V30 2717 C 268.243 -0.965523 4.46684 0
M  V30 2718 C 269.24 -0.300741 5.19029 0
M  V30 2719 C 266.925 -0.943105 4.93367 0
M  V30 2720 C 268.919 0.376622 6.36286 0
M  V30 2721 C 266.606 -0.261949 6.10538 0
M  V30 2722 C 267.604 0.396748 6.81847 0
M  V30 2723 O 267.292 1.06701 7.96787 0
M  V30 2724 H 267.024 -0.241852 0.631255 0
M  V30 2725 H 269.578 -0.0921491 2.05193 0
M  V30 2726 H 267.808 -2.47601 2.97036 0
M  V30 2727 H 269.497 -2.29483 3.34802 0
M  V30 2728 H 270.263 -0.309599 4.84011 0
M  V30 2729 H 266.142 -1.44524 4.3776 0
M  V30 2730 H 269.686 0.891334 6.91882 0
M  V30 2731 H 265.583 -0.250896 6.45012 0
M  V30 2732 H 266.351 0.972707 8.127 0
M  V30 2733 N 269.014 -1.53014 -0.377408 0
M  V30 2734 C 269.944 -1.81589 -1.46791 0
M  V30 2735 C 270.925 -0.668622 -1.56408 0
M  V30 2736 O 272.11 -0.917337 -1.71168 0
M  V30 2737 C 269.24 -1.99519 -2.8427 0
M  V30 2738 C 268.194 -3.15249 -2.89486 0
M  V30 2739 C 267.52 -3.18451 -4.29527 0
M  V30 2740 C 268.82 -4.54084 -2.58079 0
M  V30 2741 H 270.514 -2.7291 -1.23127 0
M  V30 2742 H 268.06 -1.31319 -0.590883 0
M  V30 2743 H 270.013 -2.18092 -3.60575 0
M  V30 2744 H 268.737 -1.04897 -3.09296 0
M  V30 2745 H 267.396 -2.96477 -2.15631 0
M  V30 2746 H 267.044 -2.2149 -4.5161 0
M  V30 2747 H 266.744 -3.962 -4.33934 0
M  V30 2748 H 268.268 -3.39193 -5.07721 0
M  V30 2749 H 269.682 -4.72899 -3.24098 0
M  V30 2750 H 268.079 -5.33987 -2.7382 0
M  V30 2751 H 269.149 -4.60006 -1.53372 0
M  V30 2752 N 270.492 0.636531 -1.44174 0
M  V30 2753 C 271.717 1.42847 -1.50364 0
M  V30 2754 C 272.142 1.87665 -0.127867 0
M  V30 2755 O 271.5 1.58408 0.88185 0
M  V30 2756 C 271.548 2.62854 -2.4686 0
M  V30 2757 O 270.652 3.62501 -1.9664 0
M  V30 2758 H 269.993 0.427642 -0.507955 0
M  V30 2759 H 272.523 0.777422 -1.89255 0
M  V30 2760 H 272.533 3.10465 -2.64718 0
M  V30 2761 H 271.208 2.29578 -3.46795 0
M  V30 2762 H 269.785 3.21735 -1.88523 0
M  V30 2763 N 271.97 1.30982 0.876444 0
M  V30 2764 C 272.88 1.2003 2.01569 0
M  V30 2765 C 273.896 0.11838 1.73597 0
M  V30 2766 O 275.072 0.33495 1.98595 0
M  V30 2767 C 272.137 0.901637 3.34771 0
M  V30 2768 C 271.198 2.06979 3.76109 0
M  V30 2769 C 270.431 1.78529 5.02954 0
M  V30 2770 O 270.654 0.717296 5.65872 0
M  V30 2771 O 269.588 2.64019 5.40905 0
M  V30 2772 H 273.414 2.15753 2.13739 0
M  V30 2773 H 270.999 1.10658 1.00375 0
M  V30 2774 H 272.881 0.750645 4.1466 0
M  V30 2775 H 271.556 -0.0256141 3.2369 0
M  V30 2776 H 270.463 2.27616 2.96887 0
M  V30 2777 H 271.796 2.97907 3.91807 0
M  V30 2778 N 273.449 -1.08991 1.13837 0
M  V30 2779 C 274.359 -2.19301 0.833333 0
M  V30 2780 C 275.375 -1.73026 -0.183847 0
M  V30 2781 O 276.551 -2.01395 -0.0138092 0
M  V30 2782 C 273.616 -3.45323 0.308651 0
M  V30 2783 C 272.677 -4.06255 1.38764 0
M  V30 2784 C 271.91 -5.26262 0.887896 0
M  V30 2785 O 272.133 -5.69747 -0.27287 0
M  V30 2786 O 271.067 -5.78435 1.66421 0
M  V30 2787 H 274.893 -2.47854 1.75506 0
M  V30 2788 H 272.478 -1.18012 0.916166 0
M  V30 2789 H 274.36 -4.21394 0.0216739 0
M  V30 2790 H 273.035 -3.18362 -0.585431 0
M  V30 2791 H 271.942 -3.318 1.72799 0
M  V30 2792 H 273.275 -4.37452 2.25602 0
M  V30 2793 N 274.927 -0.932562 -1.27047 0
M  V30 2794 C 275.837 -0.441219 -2.30414 0
M  V30 2795 C 276.853 0.480525 -1.67233 0
M  V30 2796 O 278.029 0.362151 -1.98117 0
M  V30 2797 C 275.094 0.293651 -3.45454 0
M  V30 2798 C 274.155 -0.663601 -4.2414 0
M  V30 2799 C 273.388 0.0362932 -5.33688 0
M  V30 2800 O 273.611 1.2548 -5.56427 0
M  V30 2801 O 272.545 -0.638015 -5.98509 0
M  V30 2802 H 276.371 -1.29962 -2.74488 0
M  V30 2803 H 273.956 -0.6981 -1.32087 0
M  V30 2804 H 275.838 0.707951 -4.15411 0
M  V30 2805 H 274.513 1.12758 -3.03426 0
M  V30 2806 H 273.42 -1.12768 -3.56699 0
M  V30 2807 H 274.753 -1.46489 -4.69896 0
M  V30 2808 N 276.405 1.4127 -0.698611 0
M  V30 2809 C 277.651 2.01478 -0.231207 0
M  V30 2810 C 277.984 1.55215 1.16713 0
M  V30 2811 O 277.259 0.764672 1.78838 0
M  V30 2812 C 277.542 3.58912 -0.292281 0
M  V30 2813 C 277.395 4.15293 -1.72778 0
M  V30 2814 C 278.714 4.38736 0.346194 0
M  V30 2815 H 275.833 0.732025 -0.0854878 0
M  V30 2816 H 278.475 1.67977 -0.887906 0
M  V30 2817 H 276.625 3.87582 0.26686 0
M  V30 2818 H 278.297 3.97486 -2.341 0
M  V30 2819 H 276.54 3.7022 -2.26096 0
M  V30 2820 H 277.211 5.24452 -1.72202 0
M  V30 2821 H 279.687 4.15897 -0.130035 0
M  V30 2822 H 278.563 5.48221 0.272932 0
M  V30 2823 H 278.824 4.18425 1.42734 0
M  V30 2824 N 277.883 0.443576 1.51229 0
M  V30 2825 C 278.813 -0.355142 2.30783 0
M  V30 2826 C 279.794 -1.0154 1.36468 0
M  V30 2827 O 280.979 -1.01785 1.65389 0
M  V30 2828 C 278.109 -1.45312 3.15439 0
M  V30 2829 C 277.063 -0.916002 4.18083 0
M  V30 2830 C 276.389 -2.1102 4.91299 0
M  V30 2831 C 277.689 0.0538602 5.22272 0
M  V30 2832 H 279.383 0.308767 2.97804 0
M  V30 2833 H 276.929 0.149937 1.43217 0
M  V30 2834 H 278.882 -2.01914 3.69876 0
M  V30 2835 H 277.606 -2.14541 2.46252 0
M  V30 2836 H 276.265 -0.372145 3.64706 0
M  V30 2837 H 275.913 -2.78882 4.18609 0
M  V30 2838 H 275.613 -1.75717 5.60712 0
M  V30 2839 H 277.137 -2.68164 5.48562 0
M  V30 2840 H 278.551 -0.422069 5.71744 0
M  V30 2841 H 276.948 0.319776 5.99247 0
M  V30 2842 H 278.018 0.98858 4.74716 0
M  V30 2843 N 279.361 -1.56624 0.175154 0
M  V30 2844 C 280.638 -1.88688 -0.515373 0
M  V30 2845 C 281.018 -1.08564 -1.81044 0
M  V30 2846 O 280.366 -0.180703 -2.27784 0
M  V30 2847 C 280.576 -3.40768 -0.753552 0
M  V30 2848 C 281.924 -4.10587 -1.08184 0
M  V30 2849 O 282.948 -3.46106 -0.841961 0
M  V30 2850 O 281.807 -5.24512 -1.53459 0
M  V30 2851 H 278.901 -0.78301 -0.26613 0
M  V30 2852 H 281.447 -1.68347 0.213877 0
M  V30 2853 H 280.219 -3.90965 0.161829 0
M  V30 2854 H 279.842 -3.66733 -1.53598 0
M  V30 2855 N 280.839 0.0985539 -1.57292 0
M  V30 2856 C 282.067 0.816318 -1.90115 0
M  V30 2857 C 282.482 1.72451 -0.768509 0
M  V30 2858 O 281.839 1.80643 0.259687 0
M  V30 2859 C 281.89 1.63259 -3.22535 0
M  V30 2860 O 281.611 0.760934 -4.31441 0
M  V30 2861 C 283.112 2.45372 -3.69199 0
M  V30 2862 H 280.332 0.233595 -0.629027 0
M  V30 2863 H 282.876 0.0768229 -2.04356 0
M  V30 2864 H 281.031 2.32463 -3.09903 0
M  V30 2865 H 281.445 1.32595 -5.07463 0
M  V30 2866 H 282.919 2.98144 -4.64558 0
M  V30 2867 H 283.396 3.23677 -2.96867 0
M  V30 2868 H 284.002 1.81373 -3.84687 0
M  V30 2869 N 282.317 1.53212 0.369288 0
M  V30 2870 C 283.227 1.82342 1.47609 0
M  V30 2871 C 284.243 0.711532 1.58787 0
M  V30 2872 O 285.419 1.0012 1.74751 0
M  V30 2873 C 282.484 2.00393 2.8292 0
M  V30 2874 C 281.545 3.24297 2.81301 0
M  V30 2875 C 280.778 3.41478 4.10157 0
M  V30 2876 O 281.001 2.63033 5.06132 0
M  V30 2877 O 279.935 4.34817 4.16194 0
M  V30 2878 H 283.761 2.76366 1.25918 0
M  V30 2879 H 281.346 1.38547 0.559034 0
M  V30 2880 H 283.228 2.13859 3.63101 0
M  V30 2881 H 281.903 1.09559 3.04596 0
M  V30 2882 H 280.81 3.16257 1.99831 0
M  V30 2883 H 282.143 4.15041 2.64578 0
M  V30 2884 N 283.795 -0.628877 1.44509 0
M  V30 2885 C 284.743 -1.76193 1.51852 0
M  V30 2886 C 285.737 -1.64849 0.390042 0
M  V30 2887 O 286.943 -1.709 0.565082 0
M  V30 2888 H 283.318 -0.581728 0.476547 0
M  V30 2889 H 285.289 -1.67123 2.47209 0
M  V30 2890 C 284.038 -3.14533 1.48204 0
M  V30 2891 H 283.361 -3.23911 2.34354 0
M  V30 2892 H 284.801 -3.93701 1.57402 0
M  V30 2893 C 283.26 -3.36287 0.203142 0
M  V30 2894 O 283.79 -3.9509 -0.725745 0
M  V30 2895 N 281.996 -2.90408 0.105563 0
M  V30 2896 H 281.543 -2.42739 0.862301 0
M  V30 2897 H 281.501 -3.05339 -0.749371 0
M  V30 2898 N 285.273 -1.31445 -0.869486 0
M  V30 2899 C 286.684 -1.19042 -1.43826 0
M  V30 2900 C 287.035 0.202919 -1.95148 0
M  V30 2901 O 286.16 1.10071 -1.86315 0
M  V30 2902 C 286.755 -2.15499 -2.6143 0
M  V30 2903 C 285.314 -2.07028 -3.14351 0
M  V30 2904 C 284.461 -2.04701 -1.87063 0
M  V30 2905 H 287.412 -1.43489 -0.677984 0
M  V30 2906 H 287.433 -1.74488 -3.38134 0
M  V30 2907 H 286.945 -3.16899 -2.24046 0
M  V30 2908 H 285.046 -1.08825 -3.56354 0
M  V30 2909 H 285.159 -2.96157 -3.766 0
M  V30 2910 H 283.523 -1.49724 -2.06046 0
M  V30 2911 H 284.306 -3.07857 -1.51917 0
M  V30 2912 N 286.751 1.08385 -1.14413 0
M  V30 2913 C 287.998 1.80776 -0.912482 0
M  V30 2914 C 288.326 1.86236 0.560934 0
M  V30 2915 O 287.581 1.33431 1.43159 0
M  V30 2916 C 287.88 3.26273 -1.45879 0
M  V30 2917 C 287.546 3.4093 -2.95089 0
M  V30 2918 C 286.208 3.44638 -3.35824 0
M  V30 2919 C 288.56 3.44591 -3.91033 0
M  V30 2920 C 285.888 3.49597 -4.71167 0
M  V30 2921 C 288.24 3.51086 -5.26233 0
M  V30 2922 C 286.904 3.53067 -5.6648 0
M  V30 2923 H 286.174 0.661507 -0.333901 0
M  V30 2924 H 288.821 1.27613 -1.42784 0
M  V30 2925 H 287.126 3.82146 -0.864376 0
M  V30 2926 H 288.823 3.80839 -1.2555 0
M  V30 2927 H 285.413 3.38736 -2.62594 0
M  V30 2928 H 289.597 3.40957 -3.60641 0
M  V30 2929 H 284.853 3.49424 -5.0171 0
M  V30 2930 H 289.027 3.52864 -6.00383 0
M  V30 2931 H 286.654 3.56662 -6.71339 0
M  V30 2932 N 288.23 0.939286 1.26551 0
M  V30 2933 C 289.476 0.586715 1.94128 0
M  V30 2934 C 289.809 -0.8717 1.73537 0
M  V30 2935 O 289.084 -1.62339 1.07127 0
M  V30 2936 C 289.367 0.927497 3.4795 0
M  V30 2937 C 289.22 2.44052 3.77834 0
M  V30 2938 C 290.539 0.441569 4.37879 0
M  V30 2939 H 287.658 0.21463 0.705055 0
M  V30 2940 H 290.3 1.17316 1.49455 0
M  V30 2941 H 288.45 0.428431 3.8613 0
M  V30 2942 H 290.122 3.01216 3.4938 0
M  V30 2943 H 288.365 2.8848 3.23978 0
M  V30 2944 H 289.036 2.62947 4.85348 0
M  V30 2945 H 291.512 0.869448 4.06915 0
M  V30 2946 H 290.388 0.708856 5.44304 0
M  V30 2947 H 290.649 -0.658467 4.37169 0
M  V30 2948 N 289.708 -1.40897 0.706093 0
M  V30 2949 C 290.64 -2.29199 0.00815776 0
M  V30 2950 C 291.653 -1.45336 -0.733582 0
M  V30 2951 O 292.842 -1.68727 -0.582537 0
M  V30 2952 C 289.942 -3.23417 -1.01265 0
M  V30 2953 C 289.115 -4.36089 -0.338387 0
M  V30 2954 C 288.174 -5.10811 -1.26326 0
M  V30 2955 O 287.2 -5.64215 -0.751651 0
M  V30 2956 N 288.402 -5.19269 -2.595 0
M  V30 2957 H 291.167 -2.89738 0.766297 0
M  V30 2958 H 288.728 -1.52164 0.55296 0
M  V30 2959 H 290.72 -3.70276 -1.63334 0
M  V30 2960 H 289.29 -2.64112 -1.67223 0
M  V30 2961 H 288.51 -3.91479 0.462352 0
M  V30 2962 H 289.798 -5.08634 0.130031 0
M  V30 2963 H 289.196 -4.77347 -3.03573 0
M  V30 2964 H 287.753 -5.69667 -3.16737 0
M  V30 2965 N 291.186 -0.45159 -1.50991 0
M  V30 2966 C 292.116 0.342898 -2.30969 0
M  V30 2967 C 293.097 1.00815 -1.37005 0
M  V30 2968 O 294.282 1.00907 -1.65926 0
M  V30 2969 C 291.412 1.43637 -3.16205 0
M  V30 2970 C 290.366 0.893818 -4.18563 0
M  V30 2971 C 289.692 2.08411 -4.92411 0
M  V30 2972 C 290.992 -0.0815568 -5.22236 0
M  V30 2973 H 292.686 -0.324556 -2.97636 0
M  V30 2974 H 290.232 -0.157531 -1.43136 0
M  V30 2975 H 292.185 1.9995 -3.70942 0
M  V30 2976 H 290.909 2.13232 -2.47386 0
M  V30 2977 H 289.568 0.352798 -3.64898 0
M  V30 2978 H 289.216 2.76658 -4.20082 0
M  V30 2979 H 288.916 1.72741 -5.61636 0
M  V30 2980 H 290.44 2.65251 -5.49976 0
M  V30 2981 H 291.854 0.391742 -5.7196 0
M  V30 2982 H 290.251 -0.351551 -5.99069 0
M  V30 2983 H 291.321 -1.01374 -4.74185 0
M  V30 2984 N 292.664 1.56529 -0.183458 0
M  V30 2985 C 293.594 2.21549 0.737456 0
M  V30 2986 C 294.575 1.17489 1.23005 0
M  V30 2987 O 295.76 1.45959 1.281 0
M  V30 2988 C 292.89 2.86575 1.96194 0
M  V30 2989 C 291.844 3.96778 1.60473 0
M  V30 2990 C 291.17 4.48911 2.90487 0
M  V30 2991 C 292.47 5.15767 0.823497 0
M  V30 2992 H 294.164 2.98761 0.195453 0
M  V30 2993 H 291.71 1.43702 0.0925686 0
M  V30 2994 H 293.663 3.30739 2.61131 0
M  V30 2995 H 292.387 2.06749 2.52828 0
M  V30 2996 H 291.046 3.53286 0.978997 0
M  V30 2997 H 290.694 3.65862 3.45186 0
M  V30 2998 H 290.394 5.23265 2.67335 0
M  V30 2999 H 291.918 4.95771 3.56432 0
M  V30 3000 H 293.332 5.56549 1.37571 0
M  V30 3001 H 291.729 5.96114 0.690551 0
M  V30 3002 H 292.799 4.84574 -0.177782 0
M  V30 3003 N 294.142 -0.090211 1.57342 0
M  V30 3004 C 295.367 -0.810082 1.90925 0
M  V30 3005 C 295.792 -1.71248 0.778187 0
M  V30 3006 O 295.15 -1.79278 -0.269991 0
M  V30 3007 C 295.198 -1.59529 3.23393 0
M  V30 3008 O 294.302 -2.70461 3.11327 0
M  V30 3009 H 293.643 -0.222231 0.625707 0
M  V30 3010 H 296.173 -0.0639716 2.045 0
M  V30 3011 H 296.183 -1.97847 3.5682 0
M  V30 3012 H 294.858 -0.933055 4.05299 0
M  V30 3013 H 293.435 -2.35135 2.89423 0
M  V30 3014 N 295.62 -1.53406 -0.361157 0
M  V30 3015 C 296.868 -1.69467 -1.10115 0
M  V30 3016 C 297.189 -0.451352 -1.89705 0
M  V30 3017 O 296.459 0.534636 -1.88463 0
M  V30 3018 H 295.039 -0.624749 -0.409508 0
M  V30 3019 H 297.701 -1.90609 -0.406699 0
M  V30 3020 H 296.797 -2.55774 -1.78847 0
M  V30 3021 N 297.098 0.621204 -1.44841 0
M  V30 3022 C 298.344 1.3826 -1.48365 0
M  V30 3023 C 298.677 1.93831 -0.119624 0
M  V30 3024 O 297.952 1.74251 0.864111 0
M  V30 3025 C 298.235 2.54058 -2.55199 0
M  V30 3026 C 298.088 2.03772 -4.00995 0
M  V30 3027 C 299.407 3.56225 -2.58442 0
M  V30 3028 H 296.526 0.501374 -0.540179 0
M  V30 3029 H 299.168 0.7015 -1.76576 0
M  V30 3030 H 297.318 3.12162 -2.31274 0
M  V30 3031 H 298.99 1.50423 -4.36086 0
M  V30 3032 H 297.233 1.34876 -4.12299 0
M  V30 3033 H 297.904 2.87185 -4.71411 0
M  V30 3034 H 300.38 3.07939 -2.79844 0
M  V30 3035 H 299.256 4.34756 -3.3508 0
M  V30 3036 H 299.517 4.10949 -1.63013 0
M  V30 3037 N 298.576 1.31904 0.862503 0
M  V30 3038 C 299.822 1.22197 1.61851 0
M  V30 3039 C 300.155 -0.217641 1.92977 0
M  V30 3040 O 299.43 -1.15264 1.56666 0
M  V30 3041 C 299.713 2.07378 2.94391 0
M  V30 3042 C 299.566 3.59678 2.70096 0
M  V30 3043 C 300.885 1.92891 3.95577 0
M  V30 3044 H 298.004 0.445255 0.587296 0
M  V30 3045 H 300.646 1.6177 0.99651 0
M  V30 3046 H 298.796 1.73758 3.47477 0
M  V30 3047 H 300.468 4.03472 2.23625 0
M  V30 3048 H 298.711 3.82735 2.04197 0
M  V30 3049 H 299.382 4.14595 3.64438 0
M  V30 3050 H 301.858 2.22327 3.51724 0
M  V30 3051 H 300.734 2.54781 4.86187 0
M  V30 3052 H 300.995 0.894315 4.3296 0
M  V30 3053 N 300.054 -1.07777 1.14986 0
M  V30 3054 C 301.3 -1.80719 0.93339 0
M  V30 3055 C 301.655 -1.8484 -0.534019 0
M  V30 3056 O 300.948 -1.31795 -1.3907 0
M  V30 3057 C 301.142 -3.25495 1.47608 0
M  V30 3058 C 300.971 -3.3548 2.99472 0
M  V30 3059 C 299.741 -3.46293 3.6798 0
M  V30 3060 C 301.939 -3.26596 3.97291 0
M  V30 3061 N 299.921 -3.45136 5.07695 0
M  V30 3062 C 301.292 -3.32506 5.23297 0
M  V30 3063 C 303.347 -3.10376 3.89321 0
M  V30 3064 C 302.05 -3.23866 6.42264 0
M  V30 3065 C 304.076 -3.03069 5.07842 0
M  V30 3066 C 303.438 -3.09587 6.32721 0
M  V30 3067 H 299.537 -0.674814 0.395158 0
M  V30 3068 H 302.121 -1.28681 1.46114 0
M  V30 3069 H 300.292 -3.75963 0.975022 0
M  V30 3070 H 302.024 -3.86535 1.19887 0
M  V30 3071 H 298.779 -3.50456 3.18555 0
M  V30 3072 H 299.203 -3.48097 5.80653 0
M  V30 3073 H 303.845 -3.04194 2.93642 0
M  V30 3074 H 301.563 -3.28807 7.38181 0
M  V30 3075 H 305.149 -2.91629 5.03432 0
M  V30 3076 H 304.029 -3.0397 7.22891 0
M  V30 3077 N 301.532 -0.945985 -1.26051 0
M  V30 3078 C 302.462 -0.477172 -2.28572 0
M  V30 3079 C 303.443 0.472032 -1.63419 0
M  V30 3080 O 304.628 0.372853 -1.90587 0
M  V30 3081 C 301.758 0.253975 -3.4637 0
M  V30 3082 C 300.712 -0.609135 -4.23643 0
M  V30 3083 C 300.038 0.252252 -5.34105 0
M  V30 3084 C 301.338 -1.8829 -4.8718 0
M  V30 3085 H 303.032 -1.33402 -2.68038 0
M  V30 3086 H 300.578 -0.642904 -1.28852 0
M  V30 3087 H 302.531 0.593016 -4.17207 0
M  V30 3088 H 301.255 1.145 -3.05871 0
M  V30 3089 H 299.914 -0.931138 -3.54578 0
M  V30 3090 H 299.562 1.14278 -4.89846 0
M  V30 3091 H 299.262 -0.32188 -5.86718 0
M  V30 3092 H 300.786 0.586454 -6.07777 0
M  V30 3093 H 302.2 -1.61081 -5.50205 0
M  V30 3094 H 300.597 -2.40199 -5.49931 0
M  V30 3095 H 301.667 -2.59134 -4.09851 0
M  V30 3096 N 303.011 1.40521 -0.713556 0
M  V30 3097 C 304.26 2.00155 -0.249192 0
M  V30 3098 C 304.573 1.57224 1.16362 0
M  V30 3099 O 305.779 2.09542 1.72639 0
M  V30 3100 C 304.235 3.5773 -0.3946 0
M  V30 3101 C 303.843 4.09635 -1.81392 0
M  V30 3102 C 305.587 4.24499 0.00907364 0
M  V30 3103 C 303.494 5.59707 -1.91003 0
M  V30 3104 H 302.424 0.74868 -0.0894114 0
M  V30 3105 H 305.075 1.60784 -0.884352 0
M  V30 3106 H 303.457 3.94792 0.30911 0
M  V30 3107 H 304.631 3.83955 -2.54785 0
M  V30 3108 H 302.946 3.55456 -2.16888 0
M  V30 3109 H 305.543 5.34683 -0.0420404 0
M  V30 3110 H 305.886 4.02824 1.05065 0
M  V30 3111 H 306.419 3.92536 -0.645007 0
M  V30 3112 H 303.158 5.86234 -2.93275 0
M  V30 3113 H 302.678 5.87258 -1.22019 0
M  V30 3114 H 304.357 6.24776 -1.6812 0
M  V30 3115 N 304.489 0.459591 1.5075 0
M  V30 3116 C 305.905 0.113092 1.59199 0
M  V30 3117 C 306.105 -1.37951 1.46874 0
M  V30 3118 O 305.161 -2.15168 1.32132 0
M  V30 3119 C 306.474 0.653043 2.93523 0
M  V30 3120 C 308.022 0.615449 3.0689 0
M  V30 3121 C 308.497 1.13275 4.43771 0
M  V30 3122 N 309.988 1.09167 4.50152 0
M  V30 3123 C 310.723 1.46256 5.54434 0
M  V30 3124 N 310.219 1.90739 6.66026 0
M  V30 3125 N 312.012 1.37932 5.44914 0
M  V30 3126 H 304.163 1.43049 1.57005 0
M  V30 3127 H 306.426 0.590861 0.741341 0
M  V30 3128 H 306.132 1.69822 3.07983 0
M  V30 3129 H 306.006 0.0902132 3.77092 0
M  V30 3130 H 308.393 -0.420793 2.92084 0
M  V30 3131 H 308.474 1.21495 2.25106 0
M  V30 3132 H 308.118 2.16757 4.59324 0
M  V30 3133 H 308.048 0.509576 5.24129 0
M  V30 3134 H 310.539 0.76528 3.7007 0
M  V30 3135 H 310.852 2.17218 7.41644 0
M  V30 3136 H 309.197 1.94683 6.67176 0
M  V30 3137 H 312.388 1.0303 4.56621 0
M  V30 3138 H 312.561 1.67164 6.26067 0
M  V30 3139 N 305.967 -1.56429 0.191757 0
M  V30 3140 C 306.915 -2.20273 -0.747174 0
M  V30 3141 C 307.909 -1.17288 -1.22229 0
M  V30 3142 O 309.115 -1.35441 -1.18557 0
M  V30 3143 H 305.49 -0.705885 -0.259289 0
M  V30 3144 H 307.461 -2.97826 -0.184963 0
M  V30 3145 C 306.21 -2.87356 -1.95759 0
M  V30 3146 H 305.533 -3.66341 -1.60106 0
M  V30 3147 H 306.973 -3.3547 -2.59299 0
M  V30 3148 C 305.432 -1.88213 -2.79423 0
M  V30 3149 O 305.962 -1.38033 -3.7724 0
M  V30 3150 N 304.168 -1.56516 -2.44849 0
M  V30 3151 H 303.715 -1.97516 -1.65364 0
M  V30 3152 H 303.673 -0.904369 -3.01112 0
M  V30 3153 N 307.445 0.0818655 -1.57387 0
M  V30 3154 C 308.693 0.781368 -1.86384 0
M  V30 3155 C 309.014 1.78618 -0.782342 0
M  V30 3156 O 308.284 1.94976 0.190061 0
M  V30 3157 H 306.864 0.291562 -0.687751 0
M  V30 3158 H 309.526 0.060348 -1.94807 0
M  V30 3159 H 308.622 1.3038 -2.83562 0
M  V30 3160 N 308.923 1.53595 0.353017 0
M  V30 3161 C 310.148 1.7462 1.11904 0
M  V30 3162 C 310.573 0.479721 1.8188 0
M  V30 3163 O 309.931 -0.567066 1.72204 0
M  V30 3164 C 309.979 2.92029 2.11545 0
M  V30 3165 O 309.083 2.61516 3.18878 0
M  V30 3166 H 308.424 0.579531 0.324099 0
M  V30 3167 H 310.954 2.00525 0.406301 0
M  V30 3168 H 310.964 3.18551 2.5493 0
M  V30 3169 H 309.639 3.83888 1.60008 0
M  V30 3170 H 308.216 2.45852 2.80377 0
M  V30 3171 N 310.401 -0.613514 1.45168 0
M  V30 3172 C 311.65 -1.36874 1.4815 0
M  V30 3173 C 311.963 -1.952 0.124982 0
M  V30 3174 O 313.169 -2.71481 0.0324176 0
M  V30 3175 C 311.625 -2.47905 2.60904 0
M  V30 3176 C 311.233 -1.96016 4.02842 0
M  V30 3177 C 312.977 -3.24965 2.73126 0
M  V30 3178 C 310.884 -3.04494 5.06988 0
M  V30 3179 H 309.814 -0.514428 0.551253 0
M  V30 3180 H 312.465 -0.658182 1.7129 0
M  V30 3181 H 310.847 -3.21618 2.31037 0
M  V30 3182 H 312.021 -1.29051 4.4236 0
M  V30 3183 H 310.336 -1.31719 3.95018 0
M  V30 3184 H 312.933 -4.05865 3.48106 0
M  V30 3185 H 313.276 -3.75588 1.79553 0
M  V30 3186 H 313.809 -2.5835 3.0249 0
M  V30 3187 H 310.548 -2.58795 6.0225 0
M  V30 3188 H 310.068 -3.70044 4.72046 0
M  V30 3189 H 311.747 -3.68976 5.31475 0
M  V30 3190 N 311.879 -1.3236 -0.855495 0
M  V30 3191 C 313.109 -1.25688 -1.6397 0
M  V30 3192 C 313.517 0.177592 -1.88365 0
M  V30 3193 O 312.86 1.12485 -1.45234 0
M  V30 3194 C 312.922 -1.94602 -3.02275 0
M  V30 3195 C 312.586 -3.43937 -3.00926 0
M  V30 3196 C 313.583 -4.39435 -2.77835 0
M  V30 3197 C 311.268 -3.85858 -3.21588 0
M  V30 3198 C 313.262 -5.74829 -2.75409 0
M  V30 3199 C 310.949 -5.21361 -3.18789 0
M  V30 3200 C 311.947 -6.15658 -2.95727 0
M  V30 3201 O 311.635 -7.48681 -2.928 0
M  V30 3202 H 311.367 -0.434972 -0.51747 0
M  V30 3203 H 313.921 -1.75023 -1.075 0
M  V30 3204 H 312.151 -1.39836 -3.60531 0
M  V30 3205 H 313.84 -1.81651 -3.62985 0
M  V30 3206 H 314.606 -4.08374 -2.6164 0
M  V30 3207 H 310.485 -3.12883 -3.38564 0
M  V30 3208 H 314.029 -6.48404 -2.57328 0
M  V30 3209 H 309.926 -5.52052 -3.34528 0
M  V30 3210 H 310.694 -7.5803 -3.0876 0
M  V30 3211 N 313.357 1.07166 -1.15556 0
M  V30 3212 C 314.606 1.79181 -0.926132 0
M  V30 3213 C 314.919 1.87768 0.547967 0
M  V30 3214 O 316.125 2.56323 0.895036 0
M  V30 3215 C 314.581 3.22 -1.60761 0
M  V30 3216 C 314.189 3.21607 -3.11886 0
M  V30 3217 C 315.933 3.9861 -1.4598 0
M  V30 3218 C 313.84 4.59092 -3.72812 0
M  V30 3219 H 312.77 0.67154 -0.342856 0
M  V30 3220 H 315.421 1.2027 -1.3859 0
M  V30 3221 H 313.803 3.81115 -1.07553 0
M  V30 3222 H 314.977 2.72127 -3.71865 0
M  V30 3223 H 313.292 2.58495 -3.2645 0
M  V30 3224 H 315.889 5.00225 -1.88888 0
M  V30 3225 H 316.232 4.143 -0.407541 0
M  V30 3226 H 316.765 3.45996 -1.96295 0
M  V30 3227 H 313.504 4.48606 -4.77946 0
M  V30 3228 H 313.024 5.08803 -3.17616 0
M  V30 3229 H 314.703 5.28059 -3.73848 0
M  V30 3230 N 314.835 0.952656 1.25548 0
M  V30 3231 C 315.783 0.462354 2.27958 0
M  V30 3232 C 316.777 -0.46634 1.62855 0
M  V30 3233 O 317.983 -0.343287 1.76696 0
M  V30 3234 H 314.358 0.13101 0.7405 0
M  V30 3235 H 316.329 1.33839 2.66702 0
M  V30 3236 C 315.078 -0.24628 3.46827 0
M  V30 3237 H 314.401 0.459192 3.97154 0
M  V30 3238 H 315.841 -0.553393 4.20373 0
M  V30 3239 C 314.3 -1.4681 3.0323 0
M  V30 3240 O 314.83 -2.56591 3.09069 0
M  V30 3241 N 313.036 -1.32874 2.58443 0
M  V30 3242 H 312.583 -0.435536 2.53891 0
M  V30 3243 H 312.541 -2.14742 2.29637 0
M  V30 3244 N 316.313 -1.40141 0.720998 0
M  V30 3245 C 317.223 -2.34486 0.0731031 0
M  V30 3246 C 318.239 -1.57587 -0.737723 0
M  V30 3247 O 319.415 -1.89949 -0.669429 0
M  V30 3248 C 316.48 -3.36528 -0.833656 0
M  V30 3249 C 315.541 -4.29298 -0.0121673 0
M  V30 3250 C 314.774 -5.26466 -0.875742 0
M  V30 3251 O 314.997 -5.29745 -2.11485 0
M  V30 3252 O 313.931 -6.01092 -0.31185 0
M  V30 3253 H 317.757 -2.9152 0.851444 0
M  V30 3254 H 315.342 -1.41427 0.481527 0
M  V30 3255 H 317.224 -3.99093 -1.35289 0
M  V30 3256 H 315.899 -2.81899 -1.59105 0
M  V30 3257 H 314.806 -3.70001 0.552262 0
M  V30 3258 H 316.139 -4.87094 0.707129 0
M  V30 3259 N 317.792 -0.46758 -1.50504 0
M  V30 3260 C 319.017 0.0886943 -2.0721 0
M  V30 3261 C 319.442 1.33057 -1.32956 0
M  V30 3262 O 318.8 1.77354 -0.376197 0
M  V30 3263 C 318.848 0.359202 -3.58806 0
M  V30 3264 O 317.952 1.44034 -3.8643 0
M  V30 3265 H 317.293 -0.0114349 -0.663902 0
M  V30 3266 H 319.823 -0.657613 -1.93744 0
M  V30 3267 H 319.833 0.600742 -4.03553 0
M  V30 3268 H 318.508 -0.548311 -4.1227 0
M  V30 3269 H 317.085 1.18638 -3.53524 0
M  V30 3270 N 319.27 1.56325 -0.20005 0
M  V30 3271 C 320.202 2.16555 0.750771 0
M  V30 3272 C 321.215 1.12871 1.1732 0
M  V30 3273 O 322.404 1.39943 1.10807 0
M  V30 3274 C 319.504 2.71684 2.02586 0
M  V30 3275 C 318.677 4.00321 1.76244 0
M  V30 3276 C 317.736 4.40227 2.88248 0
M  V30 3277 O 316.762 5.07552 2.57642 0
M  V30 3278 N 317.964 4.04138 4.16717 0
M  V30 3279 H 320.729 2.98772 0.235685 0
M  V30 3280 H 318.29 1.6189 -0.0182594 0
M  V30 3281 H 320.282 2.95363 2.76664 0
M  V30 3282 H 318.852 1.93893 2.45202 0
M  V30 3283 H 318.072 3.84723 0.85919 0
M  V30 3284 H 319.36 4.84279 1.56048 0
M  V30 3285 H 318.758 3.49993 4.44434 0
M  V30 3286 H 317.315 4.32756 4.87407 0
M  V30 3287 N 320.748 -0.0735177 1.57428 0
M  V30 3288 C 321.711 -1.07192 2.02589 0
M  V30 3289 C 322.711 -1.31695 0.922661 0
M  V30 3290 O 323.901 -1.27445 1.18758 0
M  V30 3291 C 321.033 -2.41599 2.40506 0
M  V30 3292 H 322.226 -0.682727 2.92025 0
M  V30 3293 H 319.779 -0.319193 1.53006 0
M  V30 3294 H 320.514 -2.85354 1.5409 0
M  V30 3295 H 320.299 -2.25156 3.21009 0
M  V30 3296 H 321.789 -3.13367 2.76027 0
M  V30 3297 N 322.226 -1.5378 -0.344866 0
M  V30 3298 C 323.454 -1.74899 -1.10534 0
M  V30 3299 C 323.869 -0.487534 -1.82397 0
M  V30 3300 O 323.226 0.540741 -1.74305 0
M  V30 3301 C 323.277 -2.92822 -2.11984 0
M  V30 3302 O 322.998 -4.14089 -1.43044 0
M  V30 3303 C 324.499 -3.25982 -3.00417 0
M  V30 3304 H 321.719 -0.584426 -0.329678 0
M  V30 3305 H 324.263 -2.006 -0.397474 0
M  V30 3306 H 322.418 -2.69457 -2.78338 0
M  V30 3307 H 322.832 -4.80272 -2.10805 0
M  V30 3308 H 324.306 -4.11848 -3.67539 0
M  V30 3309 H 324.783 -2.42228 -3.66363 0
M  V30 3310 H 325.389 -3.51349 -2.39654 0
M  V30 3311 N 323.704 0.605807 -1.45491 0
M  V30 3312 C 324.614 1.74466 -1.56839 0
M  V30 3313 C 325.63 1.68006 -0.452772 0
M  V30 3314 O 326.806 1.8833 -0.713708 0
M  V30 3315 C 323.871 3.10931 -1.53371 0
M  V30 3316 C 322.932 3.28832 -2.75986 0
M  V30 3317 C 322.165 4.58787 -2.72673 0
M  V30 3318 O 322.388 5.4122 -1.80102 0
M  V30 3319 O 321.322 4.79438 -3.63899 0
M  V30 3320 H 325.148 1.67843 -2.53106 0
M  V30 3321 H 322.733 0.770108 -1.28022 0
M  V30 3322 H 324.615 3.92233 -1.54051 0
M  V30 3323 H 323.29 3.18042 -0.602572 0
M  V30 3324 H 322.197 2.47112 -2.80867 0
M  V30 3325 H 323.53 3.26599 -3.68231 0
M  V30 3326 N 325.182 1.32811 0.848464 0
M  V30 3327 C 326.422 1.25046 1.61687 0
M  V30 3328 C 326.786 -0.183464 1.91121 0
M  V30 3329 O 327.987 -0.384937 2.66029 0
M  V30 3330 C 326.258 2.09201 2.89775 0
M  V30 3331 S 327.817 2.18526 3.80515 0
M  V30 3332 H 324.635 0.445023 0.554505 0
M  V30 3333 H 327.237 1.67733 1.00429 0
M  V30 3334 H 325.941 3.12433 2.66108 0
M  V30 3335 H 325.472 1.67315 3.56047 0
M  V30 3336 H 327.487 1.3393 4.77784 0
M  V30 3337 N 326.66 -1.06551 1.16123 0
M  V30 3338 C 327.937 -1.76097 0.85142 0
M  V30 3339 C 328.317 -2.00802 -0.6513 0
M  V30 3340 O 327.665 -1.63302 -1.59827 0
M  V30 3341 C 327.875 -3.06384 1.67122 0
M  V30 3342 C 329.223 -3.80585 1.88255 0
M  V30 3343 O 330.247 -3.16218 1.63966 0
M  V30 3344 O 329.106 -4.96212 2.2899 0
M  V30 3345 H 326.2 -0.765102 0.313923 0
M  V30 3346 H 328.746 -1.12844 1.26745 0
M  V30 3347 H 327.518 -2.84071 2.69108 0
M  V30 3348 H 327.141 -3.77371 1.25206 0
M  V30 3349 N 328.138 -0.959301 -1.25041 0
M  V30 3350 C 329.048 -0.489994 -2.29426 0
M  V30 3351 C 330.064 0.444944 -1.68215 0
M  V30 3352 O 331.24 0.320046 -1.98841 0
M  V30 3353 C 328.305 0.220309 -3.45999 0
M  V30 3354 C 327.366 -0.753418 -4.22637 0
M  V30 3355 C 326.599 -0.076918 -5.33645 0
M  V30 3356 O 326.822 1.13649 -5.58963 0
M  V30 3357 O 325.756 -0.764824 -5.97021 0
M  V30 3358 H 329.582 -1.35755 -2.71669 0
M  V30 3359 H 327.167 -0.725961 -1.30576 0
M  V30 3360 H 329.049 0.619677 -4.16819 0
M  V30 3361 H 327.724 1.06296 -3.0575 0
M  V30 3362 H 326.631 -1.20308 -3.54227 0
M  V30 3363 H 327.964 -1.56423 -4.66683 0
M  V30 3364 N 329.616 1.39756 -0.72842 0
M  V30 3365 C 330.844 2.04948 -0.283528 0
M  V30 3366 C 331.259 1.54908 1.0793 0
M  V30 3367 O 330.616 0.711135 1.68075 0
M  V30 3368 C 330.667 3.60498 -0.268957 0
M  V30 3369 O 330.388 4.08695 -1.57798 0
M  V30 3370 C 331.889 4.4288 0.192912 0
M  V30 3371 H 329.109 0.659243 -0.125056 0
M  V30 3372 H 331.653 1.78927 -0.990226 0
M  V30 3373 H 329.808 3.85444 0.388801 0
M  V30 3374 H 330.222 5.02977 -1.48709 0
M  V30 3375 H 331.696 5.51791 0.151952 0
M  V30 3376 H 332.173 4.21418 1.23708 0
M  V30 3377 H 332.779 4.23069 -0.435039 0
M  V30 3378 N 331.094 0.475555 1.50254 0
M  V30 3379 C 332.026 -0.352649 2.26471 0
M  V30 3380 C 333.039 -0.953165 1.3198 0
M  V30 3381 O 334.228 -0.840815 1.57457 0
M  V30 3382 C 331.328 -1.50902 3.0345 0
M  V30 3383 C 330.501 -1.02047 4.25329 0
M  V30 3384 C 329.56 -2.05142 4.84565 0
M  V30 3385 O 328.586 -1.63023 5.45355 0
M  V30 3386 N 329.788 -3.37987 4.71959 0
M  V30 3387 H 332.553 0.300767 2.98187 0
M  V30 3388 H 330.114 0.306598 1.5897 0
M  V30 3389 H 332.106 -2.19572 3.39956 0
M  V30 3390 H 330.676 -2.06705 2.34504 0
M  V30 3391 H 329.896 -0.159507 3.93877 0
M  V30 3392 H 331.184 -0.672061 5.04342 0
M  V30 3393 H 330.582 -3.74913 4.23623 0
M  V30 3394 H 329.139 -4.02443 5.12721 0
M  V30 3395 N 332.573 -1.56217 0.208337 0
M  V30 3396 C 333.483 -2.23316 -0.718836 0
M  V30 3397 C 334.499 -1.23648 -1.22422 0
M  V30 3398 O 335.675 -1.56423 -1.26861 0
M  V30 3399 C 332.74 -2.88968 -1.91568 0
M  V30 3400 C 331.801 -4.03943 -1.45357 0
M  V30 3401 C 331.034 -4.66455 -2.59337 0
M  V30 3402 O 331.257 -4.27919 -3.77149 0
M  V30 3403 O 330.191 -5.55686 -2.31293 0
M  V30 3404 H 334.017 -3.03182 -0.177315 0
M  V30 3405 H 331.602 -1.49384 -0.0215402 0
M  V30 3406 H 333.484 -3.30455 -2.61491 0
M  V30 3407 H 332.159 -2.12071 -2.44556 0
M  V30 3408 H 331.066 -3.67052 -0.722746 0
M  V30 3409 H 332.399 -4.82543 -0.970219 0
M  V30 3410 N 334.051 0.0651679 -1.57465 0
M  V30 3411 C 335.279 0.775808 -1.91804 0
M  V30 3412 C 335.694 1.70782 -0.804916 0
M  V30 3413 O 335.051 1.81153 0.221311 0
M  V30 3414 C 335.102 1.56381 -3.25925 0
M  V30 3415 O 334.823 0.669248 -4.32958 0
M  V30 3416 C 336.324 2.37485 -3.7432 0
M  V30 3417 H 333.544 0.2202 -0.63384 0
M  V30 3418 H 336.088 0.0334587 -2.04473 0
M  V30 3419 H 334.243 2.25837 -3.14764 0
M  V30 3420 H 334.657 1.21801 -5.10162 0
M  V30 3421 H 336.131 2.88223 -4.70778 0
M  V30 3422 H 336.608 3.17307 -3.03666 0
M  V30 3423 H 337.214 1.73173 -3.88447 0
M  V30 3424 N 335.529 1.53961 0.336706 0
M  V30 3425 C 336.777 1.71197 1.07405 0
M  V30 3426 C 337.098 0.481475 1.88962 0
M  V30 3427 O 336.368 -0.504585 1.8929 0
M  V30 3428 H 334.948 0.631185 0.399517 0
M  V30 3429 H 337.61 1.91232 0.376323 0
M  V30 3430 H 336.706 2.58587 1.74755 0
M  V30 3431 N 337.007 -0.598083 1.45811 0
M  V30 3432 C 338.232 -1.3881 1.54099 0
M  V30 3433 C 338.657 -1.8726 0.177578 0
M  V30 3434 O 338.015 -1.6069 -0.839541 0
M  V30 3435 C 338.063 -2.56217 2.53743 0
M  V30 3436 O 337.167 -3.5716 2.06182 0
M  V30 3437 H 336.508 -0.414024 0.519115 0
M  V30 3438 H 339.038 -0.726971 1.91249 0
M  V30 3439 H 339.048 -3.03337 2.72856 0
M  V30 3440 H 337.723 -2.20303 3.5276 0
M  V30 3441 H 336.3 -3.16624 1.96987 0
M  V30 3442 N 338.485 -1.33259 -0.841409 0
M  V30 3443 C 339.732 -1.24572 -1.5965 0
M  V30 3444 C 340.06 0.189137 -1.93578 0
M  V30 3445 O 339.315 1.14566 -1.5866 0
M  V30 3446 C 339.614 -2.06381 -2.9179 0
M  V30 3447 C 339.28 -3.556 -2.77235 0
M  V30 3448 C 337.942 -3.96282 -2.72973 0
M  V30 3449 C 340.294 -4.50433 -2.62221 0
M  V30 3450 C 337.622 -5.30017 -2.51592 0
M  V30 3451 C 339.974 -5.84327 -2.42374 0
M  V30 3452 C 338.638 -6.24194 -2.36512 0
M  V30 3453 H 337.908 -0.455842 -0.5842 0
M  V30 3454 H 340.555 -1.6482 -0.975016 0
M  V30 3455 H 338.86 -1.58903 -3.5813 0
M  V30 3456 H 340.557 -1.97019 -3.49263 0
M  V30 3457 H 337.147 -3.23298 -2.81384 0
M  V30 3458 H 341.331 -4.19914 -2.64549 0
M  V30 3459 H 336.587 -5.59947 -2.45499 0
M  V30 3460 H 340.761 -6.57414 -2.29739 0
M  V30 3461 H 338.388 -7.27759 -2.19706 0
M  V30 3462 N 339.963 1.05934 -1.16686 0
M  V30 3463 C 341.188 1.83029 -0.975455 0
M  V30 3464 C 341.613 1.82096 0.471452 0
M  V30 3465 O 340.971 1.22443 1.33706 0
M  V30 3466 C 341.019 3.27372 -1.51195 0
M  V30 3467 O 340.123 4.06054 -0.720701 0
M  V30 3468 H 339.464 0.566194 -0.346872 0
M  V30 3469 H 341.994 1.33541 -1.55009 0
M  V30 3470 H 342.004 3.78186 -1.53099 0
M  V30 3471 H 340.679 3.27366 -2.56523 0
M  V30 3472 H 339.256 3.64812 -0.772458 0
M  V30 3473 N 341.441 0.965919 1.2453 0
M  V30 3474 C 342.388 0.49402 2.25451 0
M  V30 3475 C 343.358 -0.45948 1.59618 0
M  V30 3476 O 344.543 -0.370238 1.87173 0
M  V30 3477 C 341.683 -0.211359 3.44452 0
M  V30 3478 C 340.796 0.7807 4.24887 0
M  V30 3479 C 339.931 0.0516105 5.31175 0
M  V30 3480 C 338.97 1.03385 6.03306 0
M  V30 3481 N 338.107 0.334887 7.01301 0
M  V30 3482 H 342.947 1.35946 2.65184 0
M  V30 3483 H 340.484 0.681515 1.3036 0
M  V30 3484 H 342.442 -0.637 4.12308 0
M  V30 3485 H 341.072 -1.04077 3.05562 0
M  V30 3486 H 340.124 1.32479 3.56586 0
M  V30 3487 H 341.436 1.52978 4.74762 0
M  V30 3488 H 340.59 -0.432114 6.05159 0
M  V30 3489 H 339.329 -0.730179 4.82203 0
M  V30 3490 H 338.334 1.52847 5.28127 0
M  V30 3491 H 339.559 1.81606 6.54367 0
M  V30 3492 H 337.505 -0.427959 6.54603 0
M  V30 3493 H 337.422 1.02287 7.49048 0
M  V30 3494 H 338.69 -0.126928 7.79397 0
M  V30 3495 N 342.919 -1.39368 0.735821 0
M  V30 3496 C 344.166 -2.00497 0.284123 0
M  V30 3497 C 344.494 -1.58387 -1.12889 0
M  V30 3498 O 343.749 -0.804359 -1.78406 0
M  V30 3499 C 344.048 -3.5583 0.334651 0
M  V30 3500 C 343.714 -4.17593 1.7008 0
M  V30 3501 C 342.376 -4.34176 2.07472 0
M  V30 3502 C 344.728 -4.51848 2.59775 0
M  V30 3503 C 342.056 -4.82304 3.34065 0
M  V30 3504 C 344.408 -5.01384 3.85741 0
M  V30 3505 C 343.072 -5.16175 4.23225 0
M  V30 3506 H 342.342 -0.73367 0.103968 0
M  V30 3507 H 344.989 -1.66683 0.942825 0
M  V30 3508 H 343.294 -3.89674 -0.407625 0
M  V30 3509 H 344.991 -4.00986 -0.0329927 0
M  V30 3510 H 341.581 -4.05087 1.40008 0
M  V30 3511 H 345.765 -4.38653 2.32157 0
M  V30 3512 H 341.021 -4.91941 3.63049 0
M  V30 3513 H 345.195 -5.26863 4.55399 0
M  V30 3514 H 342.822 -5.5323 5.21384 0
M  V30 3515 N 344.397 -0.483516 -1.5 0
M  V30 3516 C 345.643 0.0672592 -2.02688 0
M  V30 3517 C 345.976 1.38247 -1.36387 0
M  V30 3518 O 345.251 1.88131 -0.493675 0
M  V30 3519 C 345.534 0.238109 -3.59312 0
M  V30 3520 C 345.387 -1.099 -4.36168 0
M  V30 3521 C 346.706 0.986916 -4.28892 0
M  V30 3522 H 343.825 0.0229696 -0.736642 0
M  V30 3523 H 346.467 -0.631527 -1.79197 0
M  V30 3524 H 344.617 0.8333 -3.79458 0
M  V30 3525 H 346.289 -1.73172 -4.27562 0
M  V30 3526 H 344.532 -1.69261 -3.99416 0
M  V30 3527 H 345.203 -0.932954 -5.44059 0
M  V30 3528 H 347.679 0.482302 -4.13295 0
M  V30 3529 H 346.555 1.07527 -5.38265 0
M  V30 3530 H 346.816 2.0265 -3.92919 0
M  V30 3531 N 345.875 1.56104 -0.216619 0
M  V30 3532 C 346.823 2.21434 0.712036 0
M  V30 3533 C 347.817 1.19218 1.20348 0
M  V30 3534 O 349.023 1.3731 1.16387 0
M  V30 3535 H 345.398 0.70992 0.248026 0
M  V30 3536 H 347.369 2.98083 0.137558 0
M  V30 3537 C 346.118 2.90434 1.91163 0
M  V30 3538 H 345.441 3.68842 1.54258 0
M  V30 3539 H 346.881 3.39552 2.5393 0
M  V30 3540 C 345.34 1.92635 2.76394 0
M  V30 3541 O 345.87 1.44017 3.74996 0
M  V30 3542 N 344.076 1.60392 2.42328 0
M  V30 3543 H 343.623 2.00122 1.622 0
M  V30 3544 H 343.581 0.952159 2.99635 0
M  V30 3545 N 347.353 -0.0568162 1.57498 0
M  V30 3546 C 348.599 -0.75422 1.88253 0
M  V30 3547 C 348.932 -1.76461 0.810865 0
M  V30 3548 O 348.207 -1.93691 -0.177259 0
M  V30 3549 C 348.49 -1.44878 3.2967 0
M  V30 3550 C 348.343 -0.453789 4.47505 0
M  V30 3551 C 349.662 -2.38994 3.69554 0
M  V30 3552 H 346.781 -0.272724 0.684683 0
M  V30 3553 H 349.423 -0.0172113 1.89992 0
M  V30 3554 H 347.573 -2.077 3.28318 0
M  V30 3555 H 349.245 0.170371 4.60985 0
M  V30 3556 H 347.488 0.229552 4.33192 0
M  V30 3557 H 348.159 -0.977699 5.43273 0
M  V30 3558 H 350.635 -1.86239 3.72095 0
M  V30 3559 H 349.511 -2.84587 4.69363 0
M  V30 3560 H 349.772 -3.24461 3.00296 0
M  V30 3561 N 348.832 -1.54138 -0.328536 0
M  V30 3562 C 350.081 -1.71318 -1.06456 0
M  V30 3563 C 350.394 -0.491109 -1.89334 0
M  V30 3564 O 351.6 -0.54416 -2.65991 0
M  V30 3565 C 350.056 -3.03 -1.94214 0
M  V30 3566 C 349.664 -4.32595 -1.16471 0
M  V30 3567 C 351.408 -3.29544 -2.67583 0
M  V30 3568 C 349.315 -5.55341 -2.03347 0
M  V30 3569 H 348.245 -0.638429 -0.401155 0
M  V30 3570 H 350.896 -1.80633 -0.323106 0
M  V30 3571 H 349.278 -2.87579 -2.72239 0
M  V30 3572 H 350.452 -4.58766 -0.432525 0
M  V30 3573 H 348.767 -4.12777 -0.548063 0
M  V30 3574 H 351.364 -4.18444 -3.3288 0
M  V30 3575 H 351.707 -2.47206 -3.34955 0
M  V30 3576 H 352.24 -3.45809 -1.96623 0
M  V30 3577 H 348.979 -6.40268 -1.40491 0
M  V30 3578 H 348.499 -5.33397 -2.74313 0
M  V30 3579 H 350.178 -5.91557 -2.62049 0
M  V30 3580 N 350.31 0.590341 -1.46126 0
M  V30 3581 C 351.535 1.37991 -1.54833 0
M  V30 3582 C 351.96 1.87163 -0.187506 0
M  V30 3583 O 351.318 1.61133 0.831008 0
M  V30 3584 C 351.366 2.54867 -2.55098 0
M  V30 3585 O 350.47 3.56061 -2.08073 0
M  V30 3586 H 349.811 0.411265 -0.521303 0
M  V30 3587 H 352.341 0.716819 -1.91632 0
M  V30 3588 H 352.351 3.01886 -2.74461 0
M  V30 3589 H 351.026 2.18429 -3.53923 0
M  V30 3590 H 349.603 3.15574 -1.98664 0
M  V30 3591 N 351.788 1.33704 0.83433 0
M  V30 3592 C 352.751 1.24244 1.92603 0
M  V30 3593 C 353.751 0.160383 1.59998 0
M  V30 3594 O 354.941 0.412228 1.69252 0
M  V30 3595 C 352.073 0.91555 3.28376 0
M  V30 3596 H 353.266 2.21287 2.02416 0
M  V30 3597 H 350.819 1.17827 1.02696 0
M  V30 3598 H 351.554 -0.0521886 3.24258 0
M  V30 3599 H 351.339 1.69811 3.53422 0
M  V30 3600 H 352.829 0.874231 4.08347 0
M  V30 3601 N 353.266 -1.05314 1.17247 0
M  V30 3602 C 354.682 -1.30452 0.919473 0
M  V30 3603 C 354.882 -1.9703 -0.42209 0
M  V30 3604 O 353.938 -2.24311 -1.15935 0
M  V30 3605 C 355.251 -2.17551 2.07586 0
M  V30 3606 C 356.799 -2.30937 2.11275 0
M  V30 3607 C 357.274 -3.21396 3.26296 0
M  V30 3608 N 358.765 -3.28981 3.26076 0
M  V30 3609 C 359.5 -3.99095 4.11716 0
M  V30 3610 N 358.996 -4.71648 5.07465 0
M  V30 3611 N 360.789 -3.95247 3.9967 0
M  V30 3612 H 352.94 -0.604988 2.03602 0
M  V30 3613 H 355.203 -0.329368 0.888944 0
M  V30 3614 H 354.909 -1.75921 3.0454 0
M  V30 3615 H 354.783 -3.18182 2.02584 0
M  V30 3616 H 357.17 -2.71809 1.14907 0
M  V30 3617 H 357.251 -1.2994 2.20339 0
M  V30 3618 H 356.895 -2.81238 4.22927 0
M  V30 3619 H 356.825 -4.22395 3.14467 0
M  V30 3620 H 359.316 -2.77286 2.5675 0
M  V30 3621 H 359.629 -5.22705 5.6921 0
M  V30 3622 H 357.974 -4.70594 5.11435 0
M  V30 3623 H 361.165 -3.37691 3.24164 0
M  V30 3624 H 361.338 -4.4962 4.66632 0
M  V30 3625 N 354.744 -0.972509 -1.24016 0
M  V30 3626 C 355.972 -0.654803 -1.96265 0
M  V30 3627 C 356.387 0.776708 -1.72083 0
M  V30 3628 O 355.744 1.52171 -1.00748 0
M  V30 3629 C 355.795 -0.92592 -3.49441 0
M  V30 3630 O 355.516 -2.30116 -3.72798 0
M  V30 3631 C 357.017 -0.623068 -4.38899 0
M  V30 3632 H 354.237 -0.243907 -0.6251 0
M  V30 3633 H 356.781 -1.30175 -1.57717 0
M  V30 3634 H 354.936 -0.325108 -3.86033 0
M  V30 3635 H 355.35 -2.38483 -4.67147 0
M  V30 3636 H 356.824 -0.863189 -5.45209 0
M  V30 3637 H 357.301 0.442754 -4.36963 0
M  V30 3638 H 357.907 -1.204 -4.07902 0
M  V30 3639 N 356.222 1.38976 -0.743202 0
M  V30 3640 C 357.185 2.28901 -0.117014 0
M  V30 3641 C 358.185 1.46698 0.658503 0
M  V30 3642 O 359.375 1.67274 0.486305 0
M  V30 3643 C 356.507 3.30309 0.84315 0
M  V30 3644 H 357.7 2.8578 -0.909373 0
M  V30 3645 H 355.253 1.47761 -0.509547 0
M  V30 3646 H 355.988 2.785 1.66157 0
M  V30 3647 H 355.773 3.91029 0.289594 0
M  V30 3648 H 357.263 3.97577 1.2776 0
M  V30 3649 N 357.7 0.491464 1.49741 0
M  V30 3650 C 358.949 -0.0582189 2.01616 0
M  V30 3651 C 359.262 -1.38927 1.3769 0
M  V30 3652 O 360.468 -2.02509 1.80838 0
M  V30 3653 C 358.924 -0.154235 3.59569 0
M  V30 3654 C 358.532 1.1696 4.32463 0
M  V30 3655 C 360.276 -0.65479 4.1942 0
M  V30 3656 C 358.183 1.03627 5.8225 0
M  V30 3657 H 357.113 -0.0255317 0.753568 0
M  V30 3658 H 359.764 0.629445 1.72367 0
M  V30 3659 H 358.146 -0.906138 3.85493 0
M  V30 3660 H 359.32 1.93405 4.18248 0
M  V30 3661 H 357.635 1.60285 3.84315 0
M  V30 3662 H 360.232 -0.771903 5.29099 0
M  V30 3663 H 360.575 -1.65127 3.8215 0
M  V30 3664 H 361.108 0.040304 3.9778 0
M  V30 3665 H 357.847 2.00672 6.24028 0
M  V30 3666 H 357.367 0.312546 5.98985 0
M  V30 3667 H 359.046 0.711114 6.4308 0
M  V30 3668 N 359.178 -1.55987 0.224894 0
M  V30 3669 C 360.426 -1.97998 -0.405099 0
M  V30 3670 C 360.747 -1.11387 -1.60056 0
M  V30 3671 O 360.017 -0.191645 -1.9496 0
M  V30 3672 H 358.597 -0.731235 -0.152658 0
M  V30 3673 H 361.259 -1.92279 0.318567 0
M  V30 3674 H 360.355 -3.03463 -0.729167 0
M  V30 3675 N 360.656 0.0484629 -1.57525 0
M  V30 3676 C 361.606 1.06246 -2.01732 0
M  V30 3677 C 362.59 1.33155 -0.903245 0
M  V30 3678 O 363.782 1.33065 -1.16717 0
M  V30 3679 C 360.911 2.36943 -2.48421 0
M  V30 3680 C 359.997 2.13208 -3.6661 0
M  V30 3681 N 360.388 1.5947 -4.80003 0
M  V30 3682 C 358.686 2.43581 -3.7361 0
M  V30 3683 C 359.387 1.51092 -5.61735 0
M  V30 3684 N 358.363 1.9797 -5.0627 0
M  V30 3685 H 362.165 0.640675 -2.86832 0
M  V30 3686 H 359.679 0.255134 -1.60383 0
M  V30 3687 H 361.676 3.10374 -2.78341 0
M  V30 3688 H 360.336 2.79818 -1.64718 0
M  V30 3689 H 361.347 1.28008 -5.01831 0
M  V30 3690 H 358.024 2.89662 -3.00669 0
M  V30 3691 H 359.414 1.10199 -6.62801 0
M  V30 3692 N 362.134 1.5431 0.320358 0
M  V30 3693 C 363.411 1.63322 1.07635 0
M  V30 3694 C 363.791 0.46912 2.05821 0
M  V30 3695 O 363.139 -0.536274 2.22118 0
M  V30 3696 C 363.349 3.00465 1.77544 0
M  V30 3697 C 364.697 3.56621 2.30449 0
M  V30 3698 O 365.721 3.02791 1.87606 0
M  V30 3699 O 364.58 4.5083 3.08892 0
M  V30 3700 H 361.674 0.661502 0.496331 0
M  V30 3701 H 364.22 1.66656 0.319992 0
M  V30 3702 H 362.992 3.76629 1.06143 0
M  V30 3703 H 362.615 3.00824 2.59982 0
M  V30 3704 N 363.613 -0.582584 1.46437 0
M  V30 3705 C 365.029 -0.905962 1.31394 0
M  V30 3706 C 365.229 -1.99468 0.285476 0
M  V30 3707 O 364.285 -2.50566 -0.311914 0
M  V30 3708 C 365.598 -1.3232 2.70022 0
M  V30 3709 C 367.146 -1.43604 2.78113 0
M  V30 3710 C 367.621 -1.88694 4.17323 0
M  V30 3711 N 369.112 -1.95887 4.19741 0
M  V30 3712 C 369.847 -2.32051 5.24347 0
M  V30 3713 N 369.343 -2.67006 6.39281 0
M  V30 3714 N 371.136 -2.32606 5.11713 0
M  V30 3715 H 363.287 0.1366 2.1196 0
M  V30 3716 H 365.55 -0.00155736 0.947999 0
M  V30 3717 H 365.256 -0.597242 3.46592 0
M  V30 3718 H 365.13 -2.28469 3.00136 0
M  V30 3719 H 367.517 -2.15286 2.01832 0
M  V30 3720 H 367.598 -0.457059 2.51684 0
M  V30 3721 H 367.242 -1.1759 4.941 0
M  V30 3722 H 367.172 -2.8755 4.4116 0
M  V30 3723 H 369.663 -1.71362 3.36814 0
M  V30 3724 H 369.976 -2.93554 7.14875 0
M  V30 3725 H 368.321 -2.64644 6.42642 0
M  V30 3726 H 371.512 -2.04721 4.2096 0
M  V30 3727 H 371.685 -2.60462 5.93349 0
M  V30 3728 N 365.091 -1.34144 -0.827227 0
M  V30 3729 C 366.038 -1.25364 -1.93785 0
M  V30 3730 C 367.008 -0.129774 -1.65592 0
M  V30 3731 O 368.193 -0.310024 -1.88264 0
M  V30 3732 C 365.333 -1.01064 -3.2997 0
M  V30 3733 C 364.446 -2.22185 -3.70484 0
M  V30 3734 C 363.581 -1.91203 -4.95595 0
M  V30 3735 C 362.62 -3.08491 -5.28677 0
M  V30 3736 N 361.757 -2.77421 -6.44967 0
M  V30 3737 H 366.597 -2.20347 -2.00627 0
M  V30 3738 H 364.134 -1.09558 -0.981608 0
M  V30 3739 H 366.092 -0.850139 -4.08446 0
M  V30 3740 H 364.722 -0.0975026 -3.22653 0
M  V30 3741 H 363.774 -2.4917 -2.87434 0
M  V30 3742 H 365.086 -3.0983 -3.90905 0
M  V30 3743 H 364.24 -1.71864 -5.81848 0
M  V30 3744 H 362.979 -1.00812 -4.77167 0
M  V30 3745 H 361.984 -3.28431 -4.40923 0
M  V30 3746 H 363.209 -3.99655 -5.49047 0
M  V30 3747 H 361.155 -1.89601 -6.28003 0
M  V30 3748 H 361.072 -3.58598 -6.6554 0
M  V30 3749 H 362.34 -2.61577 -7.34301 0
M  V30 3750 N 366.569 1.04691 -1.17803 0
M  V30 3751 C 367.817 1.7743 -0.967617 0
M  V30 3752 C 368.138 1.88359 0.504574 0
M  V30 3753 O 367.408 1.40402 1.36617 0
M  V30 3754 H 365.988 0.657242 -0.355024 0
M  V30 3755 H 368.65 1.2638 -1.48371 0
M  V30 3756 H 367.746 2.78924 -1.40027 0
M  V30 3757 N 368.047 0.979072 1.23499 0
M  V30 3758 C 368.979 0.476271 2.24197 0
M  V30 3759 C 369.992 -0.421166 1.57258 0
M  V30 3760 O 371.181 -0.225515 1.7707 0
M  V30 3761 C 368.281 -0.330503 3.37285 0
M  V30 3762 C 367.454 0.559744 4.33804 0
M  V30 3763 C 366.513 -0.192954 5.25846 0
M  V30 3764 O 365.539 0.416978 5.67671 0
M  V30 3765 N 366.741 -1.47932 5.61334 0
M  V30 3766 H 369.506 1.34211 2.67969 0
M  V30 3767 H 367.067 0.852189 1.37657 0
M  V30 3768 H 369.059 -0.842361 3.95836 0
M  V30 3769 H 367.629 -1.09734 2.92707 0
M  V30 3770 H 366.849 1.25245 3.73775 0
M  V30 3771 H 368.137 1.1665 4.95248 0
M  V30 3772 H 367.535 -1.9964 5.29302 0
M  V30 3773 H 366.092 -1.93664 6.22364 0
M  V30 3774 N 369.525 -1.3858 0.750561 0
M  V30 3775 C 370.455 -2.33102 0.136237 0
M  V30 3776 C 371.436 -1.54713 -0.706965 0
M  V30 3777 O 372.621 -1.83043 -0.648769 0
M  V30 3778 C 369.751 -3.38882 -0.760017 0
M  V30 3779 C 368.705 -4.27995 -0.0197785 0
M  V30 3780 C 368.031 -5.24605 -1.03408 0
M  V30 3781 C 369.331 -5.09554 1.14684 0
M  V30 3782 H 371.025 -2.84726 0.925822 0
M  V30 3783 H 368.571 -1.36898 0.446654 0
M  V30 3784 H 370.524 -4.0397 -1.19943 0
M  V30 3785 H 369.248 -2.85734 -1.58189 0
M  V30 3786 H 367.907 -3.64409 0.400184 0
M  V30 3787 H 367.555 -4.67746 -1.84994 0
M  V30 3788 H 367.255 -5.85081 -0.543464 0
M  V30 3789 H 368.779 -5.9257 -1.47288 0
M  V30 3790 H 370.193 -5.67899 0.785118 0
M  V30 3791 H 368.59 -5.7925 1.56812 0
M  V30 3792 H 369.66 -4.4347 1.96118 0
M  V30 3793 N 371.003 -0.499398 -1.49478 0
M  V30 3794 C 372.249 0.0457576 -2.02748 0
M  V30 3795 C 372.582 1.36793 -1.37846 0
M  V30 3796 O 371.857 1.87596 -0.513601 0
M  V30 3797 C 372.14 0.199986 -3.59544 0
M  V30 3798 C 371.993 -1.1452 -4.34977 0
M  V30 3799 C 373.312 0.94137 -4.29914 0
M  V30 3800 H 370.431 0.0151552 -0.736844 0
M  V30 3801 H 373.073 -0.650498 -1.78518 0
M  V30 3802 H 371.223 0.793007 -3.8032 0
M  V30 3803 H 372.895 -1.77697 -4.25701 0
M  V30 3804 H 371.138 -1.73488 -3.97598 0
M  V30 3805 H 371.809 -0.990607 -5.43039 0
M  V30 3806 H 374.285 0.43844 -4.13784 0
M  V30 3807 H 373.161 1.01812 -5.39375 0
M  V30 3808 H 373.422 1.98471 -3.95046 0
M  V30 3809 N 372.481 1.55866 -0.233164 0
M  V30 3810 C 373.411 2.23783 0.666599 0
M  V30 3811 C 374.392 1.21343 1.19205 0
M  V30 3812 O 375.577 1.4996 1.23392 0
M  V30 3813 C 372.707 2.92671 1.86978 0
M  V30 3814 C 371.661 4.01682 1.47768 0
M  V30 3815 C 370.987 4.57926 2.76058 0
M  V30 3816 C 372.287 5.18126 0.658993 0
M  V30 3817 H 373.981 2.99232 0.100306 0
M  V30 3818 H 371.527 1.43924 0.046804 0
M  V30 3819 H 373.48 3.3888 2.50476 0
M  V30 3820 H 372.204 2.14688 2.46123 0
M  V30 3821 H 370.863 3.56222 0.866106 0
M  V30 3822 H 370.511 3.76659 3.33372 0
M  V30 3823 H 370.211 5.31505 2.50552 0
M  V30 3824 H 371.735 5.06859 3.40479 0
M  V30 3825 H 373.149 5.60644 1.19795 0
M  V30 3826 H 371.546 5.98009 0.500552 0
M  V30 3827 H 372.616 4.83763 -0.331856 0
M  V30 3828 N 373.959 -0.0401083 1.57549 0
M  V30 3829 C 375.206 -0.733125 1.88763 0
M  V30 3830 C 375.534 -1.75946 0.829058 0
M  V30 3831 O 374.789 -1.94949 -0.171323 0
M  V30 3832 C 375.088 -1.44902 3.26708 0
M  V30 3833 C 374.754 -0.559707 4.47413 0
M  V30 3834 C 373.416 -0.314731 4.8017 0
M  V30 3835 C 375.768 0.0549743 5.21171 0
M  V30 3836 C 373.096 0.553886 5.8408 0
M  V30 3837 C 375.448 0.911229 6.26003 0
M  V30 3838 C 374.112 1.16577 6.57241 0
M  V30 3839 H 373.382 -0.268269 0.690733 0
M  V30 3840 H 376.029 0.00679408 1.91499 0
M  V30 3841 H 374.334 -2.26197 3.1991 0
M  V30 3842 H 376.031 -1.99058 3.48105 0
M  V30 3843 H 372.621 -0.760793 4.21794 0
M  V30 3844 H 376.805 -0.121344 4.96152 0
M  V30 3845 H 372.061 0.759518 6.06664 0
M  V30 3846 H 376.235 1.3941 6.82303 0
M  V30 3847 H 373.862 1.84058 7.37582 0
M  V30 3848 N 375.437 -1.54477 -0.31217 0
M  V30 3849 C 376.387 -1.81037 -1.38598 0
M  V30 3850 C 377.371 -0.666941 -1.46426 0
M  V30 3851 O 378.563 -0.927269 -1.50767 0
M  V30 3852 C 375.692 -2.05127 -2.75277 0
M  V30 3853 C 374.778 -3.25624 -2.71716 0
M  V30 3854 N 375.169 -4.46428 -2.37773 0
M  V30 3855 C 373.467 -3.27427 -3.02833 0
M  V30 3856 C 374.168 -5.28406 -2.43232 0
M  V30 3857 N 373.144 -4.6586 -2.80135 0
M  V30 3858 H 376.946 -2.7201 -1.11301 0
M  V30 3859 H 374.46 -1.53826 -0.520705 0
M  V30 3860 H 376.457 -2.22299 -3.52688 0
M  V30 3861 H 375.117 -1.15416 -3.03495 0
M  V30 3862 H 376.128 -4.73227 -2.1042 0
M  V30 3863 H 372.805 -2.47786 -3.36018 0
M  V30 3864 H 374.195 -6.34903 -2.19882 0
M  V30 3865 N 376.915 0.57481 -1.46744 0
M  V30 3866 C 377.878 1.66533 -1.57478 0
M  V30 3867 C 378.878 1.54338 -0.451263 0
M  V30 3868 O 380.068 1.58814 -0.715813 0
M  V30 3869 C 377.2 3.05999 -1.50259 0
M  V30 3870 H 378.393 1.58372 -2.54673 0
M  V30 3871 H 375.946 0.793301 -1.34672 0
M  V30 3872 H 376.681 3.19709 -0.543725 0
M  V30 3873 H 376.466 3.16259 -2.31781 0
M  V30 3874 H 377.956 3.8537 -1.60872 0
M  V30 3875 N 378.394 1.34581 0.820102 0
M  V30 3876 C 379.671 1.17675 1.56244 0
M  V30 3877 C 380.051 -0.249541 2.0962 0
M  V30 3878 O 379.399 -1.25125 1.91196 0
M  V30 3879 C 379.609 2.23364 2.6816 0
M  V30 3880 C 380.957 2.58485 3.36854 0
M  V30 3881 O 381.981 2.22175 2.78418 0
M  V30 3882 O 380.84 3.20868 4.42386 0
M  V30 3883 H 377.934 0.456333 0.689702 0
M  V30 3884 H 380.48 1.46222 0.861231 0
M  V30 3885 H 379.252 3.19087 2.26493 0
M  V30 3886 H 378.875 1.96009 3.45928 0
M  V30 3887 N 379.872 -1.04064 1.18357 0
M  V30 3888 C 381.12 -1.76915 0.977013 0
M  V30 3889 C 381.441 -1.88624 -0.494577 0
M  V30 3890 O 380.711 -1.41125 -1.3587 0
M  V30 3891 H 379.291 -0.65535 0.358504 0
M  V30 3892 H 381.953 -1.25592 1.49039 0
M  V30 3893 H 381.049 -2.78178 1.41504 0
M  V30 3894 N 381.35 -0.985608 -1.22978 0
M  V30 3895 C 382.282 -0.488154 -2.23941 0
M  V30 3896 C 383.295 0.41282 -1.57479 0
M  V30 3897 O 384.484 0.216121 -1.77187 0
M  V30 3898 C 381.584 0.312611 -3.37455 0
M  V30 3899 C 380.757 -0.582741 -4.33501 0
M  V30 3900 C 379.816 0.165064 -5.25941 0
M  V30 3901 O 378.842 -0.447077 -5.67442 0
M  V30 3902 N 380.044 1.44953 -5.62111 0
M  V30 3903 H 382.809 -1.3563 -2.67254 0
M  V30 3904 H 380.37 -0.859477 -1.37203 0
M  V30 3905 H 382.362 0.821357 -3.96277 0
M  V30 3906 H 380.932 1.0818 -2.93285 0
M  V30 3907 H 380.152 -1.27225 -3.73105 0
M  V30 3908 H 381.44 -1.19275 -4.94622 0
M  V30 3909 H 380.838 1.9683 -5.30353 0
M  V30 3910 H 379.395 1.90361 -6.23383 0
M  V30 3911 N 382.828 1.3818 -0.7579 0
M  V30 3912 C 384.056 2.04301 -0.326937 0
M  V30 3913 C 384.471 1.57163 1.0462 0
M  V30 3914 O 383.828 0.746626 1.66529 0
M  V30 3915 C 383.879 3.59846 -0.345363 0
M  V30 3916 O 383.6 4.05256 -1.66432 0
M  V30 3917 C 385.101 4.4319 0.098927 0
M  V30 3918 H 382.321 0.656443 -0.139012 0
M  V30 3919 H 384.865 1.76786 -1.02796 0
M  V30 3920 H 383.02 3.86182 0.306955 0
M  V30 3921 H 383.434 4.99709 -1.59345 0
M  V30 3922 H 384.908 5.51989 0.0348745 0
M  V30 3923 H 385.385 4.23947 1.14741 0
M  V30 3924 H 385.991 4.22051 -0.52468 0
M  V30 3925 N 384.306 0.507319 1.49211 0
M  V30 3926 C 385.216 -0.272136 2.33016 0
M  V30 3927 C 386.232 -0.961206 1.45041 0
M  V30 3928 O 387.408 -0.941191 1.78055 0
M  V30 3929 C 384.473 -1.31895 3.20631 0
M  V30 3930 C 383.534 -0.642648 4.24463 0
M  V30 3931 C 382.767 -1.63959 5.07891 0
M  V30 3932 O 382.99 -2.87007 4.92933 0
M  V30 3933 O 381.924 -1.19143 5.8999 0
M  V30 3934 H 385.75 0.413982 3.00865 0
M  V30 3935 H 383.335 0.268556 1.46966 0
M  V30 3936 H 385.217 -1.92446 3.7489 0
M  V30 3937 H 383.892 -1.98788 2.5547 0
M  V30 3938 H 382.799 0.00276252 3.741 0
M  V30 3939 H 384.132 -0.0160534 4.92197 0
M  V30 3940 N 385.784 -1.5574 0.241426 0
M  V30 3941 C 386.716 -2.18469 -0.693091 0
M  V30 3942 C 387.729 -1.15942 -1.14286 0
M  V30 3943 O 388.918 -1.42832 -1.07058 0
M  V30 3944 C 386.018 -2.7696 -1.95311 0
M  V30 3945 C 385.191 -4.04853 -1.65568 0
M  V30 3946 C 384.25 -4.47715 -2.76474 0
M  V30 3947 O 383.276 -5.14205 -2.44094 0
M  V30 3948 N 384.478 -4.15044 -4.05855 0
M  V30 3949 H 387.243 -2.99292 -0.156388 0
M  V30 3950 H 384.804 -1.61784 0.0611752 0
M  V30 3951 H 386.796 -3.02594 -2.68736 0
M  V30 3952 H 385.366 -2.00326 -2.39975 0
M  V30 3953 H 384.586 -3.86865 -0.756886 0
M  V30 3954 H 385.874 -4.88246 -1.43153 0
M  V30 3955 H 385.272 -3.61654 -4.34998 0
M  V30 3956 H 383.829 -4.45526 -4.75762 0
M  V30 3957 N 387.262 0.0317525 -1.57568 0
M  V30 3958 C 388.678 0.38735 -1.54828 0
M  V30 3959 C 388.878 1.7677 -0.967187 0
M  V30 3960 O 387.934 2.45581 -0.587063 0
M  V30 3961 C 389.247 0.291667 -2.99282 0
M  V30 3962 C 390.795 0.368946 -3.10818 0
M  V30 3963 C 391.27 0.302741 -4.56998 0
M  V30 3964 N 392.761 0.361617 -4.61786 0
M  V30 3965 C 393.496 0.333238 -5.72431 0
M  V30 3966 N 392.992 0.257308 -6.92322 0
M  V30 3967 N 394.785 0.382769 -5.60795 0
M  V30 3968 H 386.936 -0.871609 -1.93692 0
M  V30 3969 H 389.199 -0.331161 -0.888277 0
M  V30 3970 H 388.905 -0.656794 -3.45513 0
M  V30 3971 H 388.779 1.08638 -3.61217 0
M  V30 3972 H 391.166 1.30784 -2.64536 0
M  V30 3973 H 391.247 -0.455066 -2.5172 0
M  V30 3974 H 390.891 -0.632473 -5.03947 0
M  V30 3975 H 390.821 1.14482 -5.14005 0
M  V30 3976 H 393.312 0.422923 -3.75526 0
M  V30 3977 H 393.625 0.24068 -7.72425 0
M  V30 3978 H 391.97 0.223396 -6.94641 0
M  V30 3979 H 395.161 0.44006 -4.66027 0
M  V30 3980 H 395.334 0.357184 -6.47015 0
M  V30 3981 N 388.74 1.54641 0.303973 0
M  V30 3982 C 389.988 1.73437 1.0375 0
M  V30 3983 C 390.309 0.521449 1.87899 0
M  V30 3984 O 389.579 -0.46432 1.90318 0
M  V30 3985 H 388.159 0.639518 0.386039 0
M  V30 3986 H 390.821 1.91988 0.335675 0
M  V30 3987 H 389.917 2.62235 1.69231 0
M  V30 3988 N 390.218 -0.567019 1.47046 0
M  V30 3989 C 391.467 -1.32091 1.5243 0
M  V30 3990 C 391.78 -1.94704 0.187021 0
M  V30 3991 O 392.986 -2.7124 0.118771 0
M  V30 3992 C 391.442 -2.39479 2.68659 0
M  V30 3993 C 391.05 -1.831 4.08874 0
M  V30 3994 C 392.794 -3.16111 2.83327 0
M  V30 3995 C 390.701 -2.8821 5.16419 0
M  V30 3996 H 389.631 -0.496629 0.56734 0
M  V30 3997 H 392.282 -0.603354 1.73297 0
M  V30 3998 H 390.664 -3.14105 2.41152 0
M  V30 3999 H 391.838 -1.14913 4.46242 0
M  V30 4000 H 390.153 -1.19085 3.99008 0
M  V30 4001 H 392.75 -3.94585 3.60842 0
M  V30 4002 H 393.093 -3.69686 1.91411 0
M  V30 4003 H 393.626 -2.48595 3.10556 0
M  V30 4004 H 390.365 -2.39504 6.10179 0
M  V30 4005 H 389.885 -3.54839 4.8358 0
M  V30 4006 H 391.564 -3.51881 5.42945 0
M  V30 4007 N 391.696 -1.35014 -0.812953 0
M  V30 4008 C 392.644 -1.27435 -1.94585 0
M  V30 4009 C 393.638 -0.170494 -1.6854 0
M  V30 4010 O 394.844 -0.336085 -1.76835 0
M  V30 4011 H 391.219 -0.396144 -0.639198 0
M  V30 4012 H 393.19 -2.23158 -1.98098 0
M  V30 4013 C 391.939 -1.05677 -3.31252 0
M  V30 4014 H 391.262 -1.89853 -3.51846 0
M  V30 4015 H 392.702 -1.04413 -4.10943 0
M  V30 4016 C 391.161 0.239615 -3.36047 0
M  V30 4017 O 391.691 1.23759 -3.8216 0
M  V30 4018 N 389.897 0.276186 -2.89285 0
M  V30 4019 H 389.444 -0.53653 -2.51951 0
M  V30 4020 H 389.402 1.14332 -2.92875 0
M  V30 4021 N 393.175 1.03435 -1.18907 0
M  V30 4022 C 394.105 2.13503 -0.945448 0
M  V30 4023 C 395.086 1.69682 0.119189 0
M  V30 4024 O 396.271 1.94169 -0.034707 0
M  V30 4025 C 393.401 3.44004 -0.477316 0
M  V30 4026 C 392.355 4.0148 -1.48316 0
M  V30 4027 C 391.681 5.27537 -0.872311 0
M  V30 4028 C 392.981 4.36921 -2.86177 0
M  V30 4029 H 394.675 2.34141 -1.86597 0
M  V30 4030 H 392.221 1.12523 -0.898584 0
M  V30 4031 H 394.174 4.20372 -0.294204 0
M  V30 4032 H 392.898 3.23072 0.478786 0
M  V30 4033 H 391.557 3.27201 -1.65332 0
M  V30 4034 H 391.205 5.02917 0.0911752 0
M  V30 4035 H 390.905 5.66954 -1.54393 0
M  V30 4036 H 392.429 6.06576 -0.699871 0
M  V30 4037 H 393.843 5.04248 -2.72776 0
M  V30 4038 H 392.24 4.87405 -3.50081 0
M  V30 4039 H 393.31 3.46466 -3.39248 0
M  V30 4040 N 394.653 0.992116 1.22453 0
M  V30 4041 C 395.899 0.678177 1.91761 0
M  V30 4042 C 396.254 -0.781141 1.75829 0
M  V30 4043 O 395.547 -1.55747 1.11595 0
M  V30 4044 C 395.741 1.01832 3.42586 0
M  V30 4045 C 395.57 2.50916 3.73191 0
M  V30 4046 C 394.34 3.17308 3.93248 0
M  V30 4047 C 396.538 3.49032 3.77732 0
M  V30 4048 N 394.52 4.55876 4.11157 0
M  V30 4049 C 395.891 4.73055 4.00773 0
M  V30 4050 C 397.946 3.43349 3.60577 0
M  V30 4051 C 396.649 5.92089 4.0844 0
M  V30 4052 C 398.675 4.61759 3.69503 0
M  V30 4053 C 398.037 5.84582 3.92993 0
M  V30 4054 H 394.136 0.299425 0.722405 0
M  V30 4055 H 396.72 1.27197 1.47408 0
M  V30 4056 H 394.891 0.453118 3.85748 0
M  V30 4057 H 396.623 0.660454 3.99274 0
M  V30 4058 H 393.378 2.67778 3.9063 0
M  V30 4059 H 393.802 5.27748 4.24042 0
M  V30 4060 H 398.444 2.49408 3.41402 0
M  V30 4061 H 396.162 6.86435 4.26418 0
M  V30 4062 H 399.748 4.58951 3.57569 0
M  V30 4063 H 398.628 6.74676 3.99728 0
M  V30 4064 N 396.131 -1.37776 0.765217 0
M  V30 4065 C 397.041 -2.34135 0.147666 0
M  V30 4066 C 398.057 -1.59854 -0.687215 0
M  V30 4067 O 399.233 -1.91983 -0.608659 0
M  V30 4068 C 396.298 -3.3901 -0.72617 0
M  V30 4069 C 395.359 -4.2912 0.124417 0
M  V30 4070 C 394.592 -5.28986 -0.707807 0
M  V30 4071 O 394.815 -5.36205 -1.94525 0
M  V30 4072 O 393.749 -6.01779 -0.12046 0
M  V30 4073 H 397.575 -2.88664 0.943758 0
M  V30 4074 H 395.16 -1.39824 0.526277 0
M  V30 4075 H 397.042 -4.03195 -1.22524 0
M  V30 4076 H 395.717 -2.86819 -1.50056 0
M  V30 4077 H 394.624 -3.68057 0.669696 0
M  V30 4078 H 395.957 -4.84598 0.861736 0
M  V30 4079 N 397.609 -0.515225 -1.4894 0
M  V30 4080 C 398.542 0.302518 -2.26186 0
M  V30 4081 C 399.52 0.957895 -1.31389 0
M  V30 4082 O 400.704 0.985198 -1.60705 0
M  V30 4083 C 397.831 1.42719 -3.07163 0
M  V30 4084 C 396.877 0.884736 -4.17223 0
M  V30 4085 S 397.71 -0.235767 -5.34981 0
M  V30 4086 C 398.866 0.891731 -6.19515 0
M  V30 4087 H 399.099 -0.353076 -2.95196 0
M  V30 4088 H 396.632 -0.300753 -1.51443 0
M  V30 4089 H 398.59 2.07152 -3.54398 0
M  V30 4090 H 397.251 2.05445 -2.37595 0
M  V30 4091 H 396.444 1.72801 -4.73451 0
M  V30 4092 H 396.046 0.317362 -3.72651 0
M  V30 4093 H 398.338 1.79377 -6.53322 0
M  V30 4094 H 399.281 0.367751 -7.07144 0
M  V30 4095 H 399.689 1.16548 -5.52338 0
M  V30 4096 N 399.087 1.5561 -0.249682 0
M  V30 4097 C 400.05 2.20217 0.635394 0
M  V30 4098 C 401.05 1.17227 1.10066 0
M  V30 4099 O 402.24 1.42292 1.00492 0
M  V30 4100 C 399.372 2.84794 1.87363 0
M  V30 4101 H 400.565 2.99814 0.0716752 0
M  V30 4102 H 398.118 1.563 -0.000153234 0
M  V30 4103 H 398.853 2.09142 2.47851 0
M  V30 4104 H 398.638 3.60241 1.5482 0
M  V30 4105 H 400.128 3.3423 2.5036 0
M  V30 4106 N 400.565 -0.0233959 1.57583 0
M  V30 4107 C 401.475 -1.03907 2.10334 0
M  V30 4108 C 402.491 -1.39257 1.04323 0
M  V30 4109 O 403.667 -1.48462 1.36091 0
M  V30 4110 C 400.732 -2.31938 2.57693 0
M  V30 4111 C 399.793 -2.03117 3.78209 0
M  V30 4112 C 399.026 -3.25043 4.233 0
M  V30 4113 O 399.249 -4.35916 3.67876 0
M  V30 4114 O 398.183 -3.10411 5.15683 0
M  V30 4115 H 402.009 -0.620748 2.97288 0
M  V30 4116 H 399.594 -0.240743 1.47448 0
M  V30 4117 H 401.476 -3.07196 2.88458 0
M  V30 4118 H 400.151 -2.73055 1.73847 0
M  V30 4119 H 399.058 -1.25408 3.52454 0
M  V30 4120 H 400.391 -1.66852 4.63056 0
M  V30 4121 N 402.043 -1.548 -0.295768 0
M  V30 4122 C 403.29 -1.74329 -1.03032 0
M  V30 4123 C 403.618 -0.531915 -1.87085 0
M  V30 4124 O 402.873 0.486052 -1.89568 0
M  V30 4125 C 403.172 -2.98797 -1.961 0
M  V30 4126 C 402.838 -4.32356 -1.2798 0
M  V30 4127 C 401.5 -4.68661 -1.09135 0
M  V30 4128 C 403.852 -5.15128 -0.793243 0
M  V30 4129 C 401.18 -5.85312 -0.403269 0
M  V30 4130 C 403.532 -6.32488 -0.118854 0
M  V30 4131 C 402.196 -6.6745 0.0815043 0
M  V30 4132 H 401.466 -0.637916 -0.37702 0
M  V30 4133 H 404.113 -1.8906 -0.304696 0
M  V30 4134 H 402.418 -2.78869 -2.75207 0
M  V30 4135 H 404.115 -3.11102 -2.53015 0
M  V30 4136 H 400.705 -4.03808 -1.43655 0
M  V30 4137 H 404.889 -4.87575 -0.92653 0
M  V30 4138 H 400.145 -6.1094 -0.237098 0
M  V30 4139 H 404.319 -6.95892 0.266035 0
M  V30 4140 H 401.946 -7.57695 0.616685 0
M  V30 4141 N 403.521 0.559213 -1.47345 0
M  V30 4142 C 404.451 1.67622 -1.62558 0
M  V30 4143 C 405.432 1.63331 -0.475087 0
M  V30 4144 O 406.617 1.80983 -0.704182 0
M  V30 4145 C 403.747 3.0626 -1.63774 0
M  V30 4146 C 402.701 3.25397 -2.7803 0
M  V30 4147 C 402.027 4.64801 -2.64318 0
M  V30 4148 C 403.327 3.10965 -4.19641 0
M  V30 4149 H 405.021 1.55146 -2.56067 0
M  V30 4150 H 402.567 0.744961 -1.23233 0
M  V30 4151 H 404.52 3.84247 -1.73008 0
M  V30 4152 H 403.244 3.1969 -0.66825 0
M  V30 4153 H 401.903 2.49817 -2.68304 0
M  V30 4154 H 401.551 4.75028 -1.65401 0
M  V30 4155 H 401.251 4.78555 -3.40968 0
M  V30 4156 H 402.775 5.44926 -2.75478 0
M  V30 4157 H 404.189 3.78772 -4.30354 0
M  V30 4158 H 402.586 3.36229 -4.97062 0
M  V30 4159 H 403.656 2.07736 -4.38148 0
M  V30 4160 N 404.999 1.35443 0.805782 0
M  V30 4161 C 405.929 1.31095 1.93226 0
M  V30 4162 C 406.91 0.185244 1.69088 0
M  V30 4163 O 408.095 0.380332 1.90439 0
M  V30 4164 C 405.225 1.08299 3.29983 0
M  V30 4165 C 404.179 2.17519 3.68605 0
M  V30 4166 C 403.505 1.79887 5.03532 0
M  V30 4167 C 404.805 3.5949 3.78898 0
M  V30 4168 H 406.499 2.25352 1.97122 0
M  V30 4169 H 404.045 1.0848 0.946996 0
M  V30 4170 H 405.998 1.03897 4.08391 0
M  V30 4171 H 404.722 0.104885 3.26432 0
M  V30 4172 H 403.381 2.2102 2.92482 0
M  V30 4173 H 403.029 0.80693 4.96485 0
M  V30 4174 H 402.729 2.53001 5.30344 0
M  V30 4175 H 404.253 1.77011 5.84379 0
M  V30 4176 H 405.667 3.58307 4.47536 0
M  V30 4177 H 404.064 4.31371 4.1718 0
M  V30 4178 H 405.134 3.95584 2.80431 0
M  V30 4179 N 406.477 -1.02803 1.19454 0
M  V30 4180 C 407.424 -2.11099 0.933046 0
M  V30 4181 C 408.394 -1.65571 -0.132447 0
M  V30 4182 O 409.579 -1.90797 0.00987576 0
M  V30 4183 C 406.719 -3.41763 0.478747 0
M  V30 4184 C 405.832 -4.00833 1.6111 0
M  V30 4185 C 404.967 -5.19511 1.10825 0
M  V30 4186 C 404.006 -5.70639 2.21445 0
M  V30 4187 N 403.143 -6.80589 1.72461 0
M  V30 4188 H 407.983 -2.32804 1.86028 0
M  V30 4189 H 405.52 -1.14179 0.927441 0
M  V30 4190 H 407.478 -4.16736 0.196745 0
M  V30 4191 H 406.108 -3.20166 -0.411493 0
M  V30 4192 H 405.16 -3.23066 2.00829 0
M  V30 4193 H 406.472 -4.34794 2.4445 0
M  V30 4194 H 405.626 -6.01645 0.781533 0
M  V30 4195 H 404.365 -4.87086 0.244606 0
M  V30 4196 H 403.37 -4.87116 2.54947 0
M  V30 4197 H 404.595 -6.05102 3.08267 0
M  V30 4198 H 402.541 -6.50016 0.884056 0
M  V30 4199 H 402.458 -7.13681 2.49389 0
M  V30 4200 H 403.726 -7.66317 1.42755 0
M  V30 4201 N 407.956 -0.998596 -1.21925 0
M  V30 4202 C 408.888 -0.511879 -2.23411 0
M  V30 4203 C 409.901 0.396094 -1.57908 0
M  V30 4204 O 411.09 0.197316 -1.77406 0
M  V30 4205 C 408.19 0.276802 -3.37768 0
M  V30 4206 C 407.363 -0.628687 -4.32858 0
M  V30 4207 C 406.422 0.109272 -5.26087 0
M  V30 4208 O 405.448 -0.507237 -5.66935 0
M  V30 4209 N 406.65 1.38983 -5.63617 0
M  V30 4210 H 409.415 -1.38457 -2.658 0
M  V30 4211 H 406.976 -0.873981 -1.36283 0
M  V30 4212 H 408.968 0.77928 -3.97126 0
M  V30 4213 H 407.538 1.05063 -2.94415 0
M  V30 4214 H 406.758 -1.31175 -3.71735 0
M  V30 4215 H 408.046 -1.24514 -4.93329 0
M  V30 4216 H 407.444 1.91194 -5.32411 0
M  V30 4217 H 406.001 1.83739 -6.25367 0
M  V30 4218 N 409.434 1.37368 -0.772513 0
M  V30 4219 C 410.711 1.93839 -0.26188 0
M  V30 4220 C 411.091 1.7061 1.24319 0
M  V30 4221 O 410.439 1.05534 2.02669 0
M  V30 4222 C 410.649 3.43154 -0.636102 0
M  V30 4223 C 411.997 4.20249 -0.606324 0
M  V30 4224 O 413.021 3.5152 -0.575538 0
M  V30 4225 O 411.88 5.42809 -0.634086 0
M  V30 4226 H 408.974 0.82478 -0.0605555 0
M  V30 4227 H 411.52 1.4665 -0.853917 0
M  V30 4228 H 410.292 3.53647 -1.6748 0
M  V30 4229 H 409.915 3.97596 -0.0170516 0
M  V30 4230 N 410.912 0.523116 1.48665 0
M  V30 4231 C 412.158 -0.0134963 2.02796 0
M  V30 4232 C 412.491 -1.34582 1.40004 0
M  V30 4233 O 411.766 -1.86756 0.543381 0
M  V30 4234 C 412.049 -0.14276 3.59817 0
M  V30 4235 C 411.902 1.21425 4.331 0
M  V30 4236 C 413.221 -0.872856 4.31357 0
M  V30 4237 H 410.34 -0.00343074 0.736992 0
M  V30 4238 H 412.982 0.678816 1.7746 0
M  V30 4239 H 411.132 -0.732401 3.81534 0
M  V30 4240 H 412.804 1.84447 4.2282 0
M  V30 4241 H 411.047 1.79791 3.94788 0
M  V30 4242 H 411.718 1.07687 5.41394 0
M  V30 4243 H 414.194 -0.372555 4.14429 0
M  V30 4244 H 413.07 -0.932185 5.40927 0
M  V30 4245 H 413.331 -1.92161 3.98154 0
M  V30 4246 N 412.39 -1.55475 0.257931 0
M  V30 4247 C 413.636 -1.99502 -0.364266 0
M  V30 4248 C 413.969 -1.146 -1.56782 0
M  V30 4249 O 413.244 -0.211968 -1.93342 0
M  V30 4250 C 413.527 -3.51917 -0.763333 0
M  V30 4251 C 413.38 -4.4758 0.446371 0
M  V30 4252 C 414.699 -4.09742 -1.60623 0
M  V30 4253 H 411.818 -0.725277 -0.130929 0
M  V30 4254 H 414.46 -1.8653 0.361446 0
M  V30 4255 H 412.61 -3.63101 -1.38166 0
M  V30 4256 H 414.282 -4.48362 1.08487 0
M  V30 4257 H 412.525 -4.19947 1.08753 0
M  V30 4258 H 413.196 -5.51862 0.123645 0
M  V30 4259 H 415.672 -4.01727 -1.08418 0
M  V30 4260 H 414.548 -5.16631 -1.85429 0
M  V30 4261 H 414.809 -3.58889 -2.58169 0
M  V30 4262 N 413.868 0.0150385 -1.57593 0
M  V30 4263 C 414.816 1.02958 -2.08572 0
M  V30 4264 C 415.81 1.36554 -1.00246 0
M  V30 4265 O 417.016 1.35295 -1.18724 0
M  V30 4266 H 413.391 0.349619 -0.665786 0
M  V30 4267 H 415.362 0.573932 -2.92829 0
M  V30 4268 C 414.111 2.31752 -2.59203 0
M  V30 4269 H 413.434 2.06765 -3.42182 0
M  V30 4270 H 414.874 3.01053 -2.98568 0
M  V30 4271 C 413.333 3.01692 -1.49945 0
M  V30 4272 O 413.863 3.92083 -0.873704 0
M  V30 4273 N 412.069 2.6326 -1.23056 0
M  V30 4274 H 411.616 1.89838 -1.74125 0
M  V30 4275 H 411.574 3.10372 -0.501685 0
M  V30 4276 N 415.346 1.54954 0.287554 0
M  V30 4277 C 416.309 1.86076 1.33823 0
M  V30 4278 C 417.309 0.734414 1.43049 0
M  V30 4279 O 418.499 1.00266 1.42452 0
M  V30 4280 C 415.631 2.05305 2.72144 0
M  V30 4281 H 416.824 2.79984 1.07465 0
M  V30 4282 H 414.377 1.47223 0.524902 0
M  V30 4283 H 415.112 1.1373 3.03704 0
M  V30 4284 H 414.897 2.873 2.66836 0
M  V30 4285 H 416.387 2.30706 3.48087 0
M  V30 4286 N 416.824 -0.551391 1.4764 0
M  V30 4287 C 418.073 -1.30467 1.53822 0
M  V30 4288 C 418.386 -1.94495 0.207661 0
M  V30 4289 O 419.592 -2.71099 0.147533 0
M  V30 4290 C 418.048 -2.36616 2.71184 0
M  V30 4291 C 417.656 -1.78754 4.10793 0
M  V30 4292 C 419.4 -3.13088 2.86663 0
M  V30 4293 C 417.307 -2.82717 5.19447 0
M  V30 4294 H 416.237 -0.490584 0.572576 0
M  V30 4295 H 418.888 -0.58494 1.73927 0
M  V30 4296 H 417.27 -3.11529 2.4447 0
M  V30 4297 H 418.444 -1.10173 4.47435 0
M  V30 4298 H 416.759 -1.14846 4.00249 0
M  V30 4299 H 419.356 -3.90736 3.65007 0
M  V30 4300 H 419.699 -3.67635 1.95321 0
M  V30 4301 H 420.232 -2.45288 3.13175 0
M  V30 4302 H 416.971 -2.33018 6.12685 0
M  V30 4303 H 416.491 -3.4969 4.87316 0
M  V30 4304 H 418.17 -3.46102 5.46646 0
M  V30 4305 N 418.302 -1.35869 -0.798587 0
M  V30 4306 C 419.25 -1.29491 -1.93222 0
M  V30 4307 C 420.244 -0.18836 -1.6835 0
M  V30 4308 O 421.45 -0.354822 -1.76468 0
M  V30 4309 H 417.825 -0.402901 -0.63496 0
M  V30 4310 H 419.796 -2.25247 -1.9572 0
M  V30 4311 C 418.545 -1.09184 -3.30112 0
M  V30 4312 H 417.868 -1.93574 -3.49813 0
M  V30 4313 H 419.308 -1.08766 -4.09812 0
M  V30 4314 C 417.767 0.203959 -3.36282 0
M  V30 4315 O 418.297 1.19699 -3.83451 0
M  V30 4316 N 416.503 0.245488 -2.89561 0
M  V30 4317 H 416.05 -0.563223 -2.51367 0
M  V30 4318 H 416.008 1.11219 -2.94071 0
M  V30 4319 N 419.78 1.02168 -1.19998 0
M  V30 4320 C 420.71 2.12488 -0.96804 0
M  V30 4321 C 421.691 1.69799 0.101185 0
M  V30 4322 O 422.876 1.94121 -0.0552993 0
M  V30 4323 C 420.006 3.43479 -0.513776 0
M  V30 4324 C 418.96 3.99884 -1.52566 0
M  V30 4325 C 418.286 5.26582 -0.928214 0
M  V30 4326 C 419.586 4.33861 -2.90795 0
M  V30 4327 H 421.28 2.32149 -1.89069 0
M  V30 4328 H 418.826 1.11564 -0.910468 0
M  V30 4329 H 420.779 4.20036 -0.338774 0
M  V30 4330 H 419.503 3.23561 0.444493 0
M  V30 4331 H 418.162 3.25429 -1.68794 0
M  V30 4332 H 417.81 5.02986 0.0378289 0
M  V30 4333 H 417.51 5.65284 -1.60397 0
M  V30 4334 H 419.034 6.05799 -0.764167 0
M  V30 4335 H 420.448 5.01327 -2.78109 0
M  V30 4336 H 418.845 4.83664 -3.55231 0
M  V30 4337 H 419.915 3.42848 -3.42904 0
M  V30 4338 N 421.258 1.00505 1.21394 0
M  V30 4339 C 422.535 0.603277 1.86064 0
M  V30 4340 C 422.915 -0.919095 1.90042 0
M  V30 4341 O 422.263 -1.80607 1.39977 0
M  V30 4342 C 422.473 1.23772 3.26315 0
M  V30 4343 C 423.821 1.34586 4.02705 0
M  V30 4344 O 424.845 1.19304 3.35626 0
M  V30 4345 O 423.704 1.59169 5.22807 0
M  V30 4346 H 420.798 0.206634 0.800769 0
M  V30 4347 H 423.344 1.1017 1.29076 0
M  V30 4348 H 422.116 2.27848 3.18121 0
M  V30 4349 H 421.739 0.725648 3.90922 0
M  V30 4350 N 422.737 -1.36956 0.779787 0
M  V30 4351 C 423.985 -1.99097 0.347079 0
M  V30 4352 C 424.306 -1.62206 -1.08232 0
M  V30 4353 O 423.576 -0.891373 -1.74446 0
M  V30 4354 H 422.156 -0.736409 0.125342 0
M  V30 4355 H 424.818 -1.67308 0.999696 0
M  V30 4356 H 423.914 -3.09107 0.431162 0
M  V30 4357 N 424.215 -0.530993 -1.48385 0
M  V30 4358 C 425.463 0.00273189 -2.021 0
M  V30 4359 C 425.784 1.34672 -1.41027 0
M  V30 4360 O 425.054 1.8724 -0.576012 0
M  V30 4361 H 423.634 0.00399774 -0.746989 0
M  V30 4362 H 426.296 -0.695054 -1.82085 0
M  V30 4363 H 425.392 0.11031 -3.11905 0
M  V30 4364 N 425.693 1.55336 -0.266172 0
M  V30 4365 C 426.941 1.99003 0.35246 0
M  V30 4366 C 427.262 1.15591 1.57047 0
M  V30 4367 O 426.532 0.243268 1.94384 0
M  V30 4368 H 425.112 0.735025 0.133217 0
M  V30 4369 H 427.774 1.91367 -0.369434 0
M  V30 4370 H 426.87 3.05289 0.648453 0
M  V30 4371 N 427.171 -0.0066808 1.57599 0
M  V30 4372 C 428.396 -0.707738 1.94951 0
M  V30 4373 C 428.821 -1.66882 0.867868 0
M  V30 4374 O 428.179 -1.80457 -0.17458 0
M  V30 4375 C 428.227 -1.42162 3.31394 0
M  V30 4376 O 427.331 -2.53578 3.25226 0
M  V30 4377 H 426.672 -0.188752 0.636607 0
M  V30 4378 H 429.202 0.0445193 2.04552 0
M  V30 4379 H 429.212 -1.78655 3.66806 0
M  V30 4380 H 427.887 -0.716903 4.09675 0
M  V30 4381 H 426.464 -2.19463 3.01481 0
M  V30 4382 N 428.649 -1.55105 -0.279332 0
M  V30 4383 C 429.612 -1.86783 -1.32834 0
M  V30 4384 C 430.612 -0.74199 -1.42657 0
M  V30 4385 O 431.802 -1.0102 -1.41918 0
M  V30 4386 C 428.934 -2.06746 -2.71052 0
M  V30 4387 H 430.127 -2.8055 -1.05979 0
M  V30 4388 H 427.68 -1.47499 -0.517087 0
M  V30 4389 H 428.415 -1.15339 -3.03097 0
M  V30 4390 H 428.2 -2.88711 -2.65309 0
M  V30 4391 H 429.69 -2.32549 -3.46858 0
M  V30 4392 N 430.127 0.543554 -1.4793 0
M  V30 4393 C 431.355 1.32516 -1.58894 0
M  V30 4394 C 431.77 1.87215 -0.244131 0
M  V30 4395 O 431.127 1.65709 0.764652 0
M  V30 4396 C 431.178 2.48554 -2.62494 0
M  V30 4397 O 430.899 1.96112 -3.91755 0
M  V30 4398 C 432.4 3.40572 -2.8377 0
M  V30 4399 H 429.62 0.403472 -0.536145 0
M  V30 4400 H 432.164 0.657106 -1.93655 0
M  V30 4401 H 430.319 3.1127 -2.30629 0
M  V30 4402 H 430.733 2.71967 -4.4848 0
M  V30 4403 H 432.207 4.18375 -3.60093 0
M  V30 4404 H 432.684 3.94965 -1.92092 0
M  V30 4405 H 433.29 2.8366 -3.16887 0
M  V30 4406 N 431.605 1.3629 0.791371 0
M  V30 4407 C 432.852 1.30412 1.54916 0
M  V30 4408 C 433.18 -0.117162 1.94147 0
M  V30 4409 O 432.435 -1.08599 1.62803 0
M  V30 4410 C 432.734 2.17068 2.8393 0
M  V30 4411 C 432.4 3.65645 2.63846 0
M  V30 4412 C 431.062 4.0614 2.58077 0
M  V30 4413 C 433.414 4.59855 2.45322 0
M  V30 4414 C 430.742 5.3899 2.31748 0
M  V30 4415 C 433.094 5.9292 2.2052 0
M  V30 4416 C 431.758 6.32542 2.13183 0
M  V30 4417 H 431.028 0.47721 0.566879 0
M  V30 4418 H 433.675 1.68325 0.913172 0
M  V30 4419 H 431.98 1.72085 3.51986 0
M  V30 4420 H 433.677 2.09846 3.4171 0
M  V30 4421 H 430.267 3.33518 2.69191 0
M  V30 4422 H 434.451 4.29443 2.48782 0
M  V30 4423 H 429.707 5.68672 2.24548 0
M  V30 4424 H 433.881 6.65487 2.05182 0
M  V30 4425 H 431.508 7.35412 1.92544 0
M  V30 4426 N 433.083 -1.0153 1.20538 0
M  V30 4427 C 434.329 -1.75408 1.01783 0
M  V30 4428 C 434.662 -1.88943 -0.448814 0
M  V30 4429 O 433.937 -1.4162 -1.33319 0
M  V30 4430 C 434.22 -3.17255 1.70356 0
M  V30 4431 C 434.073 -3.11508 3.24473 0
M  V30 4432 C 435.392 -4.15955 1.43769 0
M  V30 4433 H 432.511 -0.636713 0.371167 0
M  V30 4434 H 435.153 -1.18436 1.4857 0
M  V30 4435 H 433.303 -3.65898 1.30578 0
M  V30 4436 H 434.975 -2.70658 3.73553 0
M  V30 4437 H 433.218 -2.4887 3.55311 0
M  V30 4438 H 433.889 -4.11784 3.67611 0
M  V30 4439 H 436.365 -3.75973 1.7828 0
M  V30 4440 H 435.241 -5.13368 1.94279 0
M  V30 4441 H 435.502 -4.40586 0.365564 0
M  V30 4442 N 434.561 -1.01147 -1.20859 0
M  V30 4443 C 435.491 -0.597663 -2.25722 0
M  V30 4444 C 436.472 0.384744 -1.65692 0
M  V30 4445 O 437.657 0.271303 -1.92296 0
M  V30 4446 C 434.787 0.0700149 -3.47229 0
M  V30 4447 C 433.741 -0.832843 -4.19819 0
M  V30 4448 C 433.067 -0.0312202 -5.34691 0
M  V30 4449 C 434.367 -2.1385 -4.76514 0
M  V30 4450 H 436.061 -1.47423 -2.60589 0
M  V30 4451 H 433.607 -0.710301 -1.25263 0
M  V30 4452 H 435.56 0.37103 -4.19763 0
M  V30 4453 H 434.284 0.981259 -3.11511 0
M  V30 4454 H 432.943 -1.11778 -3.49144 0
M  V30 4455 H 432.591 0.881515 -4.95215 0
M  V30 4456 H 432.291 -0.632434 -5.84187 0
M  V30 4457 H 433.815 0.26346 -6.10031 0
M  V30 4458 H 435.229 -1.9002 -5.40893 0
M  V30 4459 H 433.626 -2.69012 -5.36426 0
M  V30 4460 H 434.696 -2.80495 -3.95538 0
M  V30 4461 N 436.039 1.36541 -0.78704 0
M  V30 4462 C 436.987 2.31965 -0.171724 0
M  V30 4463 C 437.981 1.55689 0.667631 0
M  V30 4464 O 439.187 1.70969 0.562981 0
M  V30 4465 H 435.562 0.751101 -0.0367545 0
M  V30 4466 H 437.533 2.81428 -0.992017 0
M  V30 4467 C 436.282 3.40968 0.680904 0
M  V30 4468 H 435.605 3.99775 0.0443961 0
M  V30 4469 H 437.045 4.10063 1.07815 0
M  V30 4470 C 435.504 2.82338 1.83813 0
M  V30 4471 O 436.034 2.74311 2.93456 0
M  V30 4472 N 434.24 2.39661 1.6435 0
M  V30 4473 H 433.787 2.46389 0.751668 0
M  V30 4474 H 433.745 2.00779 2.4194 0
M  V30 4475 N 437.518 0.538854 1.48102 0
M  V30 4476 C 438.766 0.00798599 2.02098 0
M  V30 4477 C 439.087 -1.33922 1.41739 0
M  V30 4478 O 438.357 -1.86932 0.585934 0
M  V30 4479 H 436.937 -3.62179e-05 0.747 0
M  V30 4480 H 439.599 0.7047 1.81714 0
M  V30 4481 H 438.695 -0.0937672 3.11959 0
M  V30 4482 N 438.996 -1.55193 0.274407 0
M  V30 4483 C 440.224 -2.03987 -0.345943 0
M  V30 4484 C 440.639 -1.15279 -1.4952 0
M  V30 4485 O 439.996 -0.172759 -1.8168 0
M  V30 4486 C 440.047 -3.51898 -0.827631 0
M  V30 4487 O 439.768 -4.37231 0.275855 0
M  V30 4488 C 441.269 -4.16577 -1.51587 0
M  V30 4489 H 438.489 -0.666335 -0.0789892 0
M  V30 4490 H 441.033 -2.00423 0.406294 0
M  V30 4491 H 439.188 -3.55909 -1.52996 0
M  V30 4492 H 439.602 -5.24415 -0.0943638 0
M  V30 4493 H 441.076 -5.21678 -1.80433 0
M  V30 4494 H 441.553 -3.64707 -2.44716 0
M  V30 4495 H 442.159 -4.16568 -0.857409 0
M  V30 4496 N 440.474 -0.00167713 -1.576 0
M  V30 4497 C 441.404 0.988091 -2.11563 0
M  V30 4498 C 442.385 1.35736 -1.02517 0
M  V30 4499 O 443.57 1.44082 -1.30208 0
M  V30 4500 C 440.7 2.27941 -2.62031 0
M  V30 4501 C 439.654 2.0517 -3.75619 0
M  V30 4502 C 438.98 3.4033 -4.12407 0
M  V30 4503 C 440.28 1.41294 -5.02825 0
M  V30 4504 H 441.974 0.538771 -2.94513 0
M  V30 4505 H 439.52 0.257712 -1.41675 0
M  V30 4506 H 441.473 2.97539 -2.9841 0
M  V30 4507 H 440.197 2.74989 -1.76205 0
M  V30 4508 H 438.856 1.37998 -3.39635 0
M  V30 4509 H 438.504 3.85085 -3.23603 0
M  V30 4510 H 438.204 3.25909 -4.88935 0
M  V30 4511 H 439.728 4.1124 -4.51347 0
M  V30 4512 H 441.142 2.00851 -5.36965 0
M  V30 4513 H 439.539 1.37356 -5.84169 0
M  V30 4514 H 440.609 0.382362 -4.8339 0
M  V30 4515 N 441.952 1.55251 0.271103 0
M  V30 4516 C 442.915 1.87484 1.31842 0
M  V30 4517 C 443.915 0.749545 1.42262 0
M  V30 4518 O 445.105 1.01771 1.4138 0
M  V30 4519 C 442.237 2.0818 2.69951 0
M  V30 4520 H 443.43 2.81108 1.0449 0
M  V30 4521 H 440.983 1.47771 0.509258 0
M  V30 4522 H 441.718 1.16944 3.02481 0
M  V30 4523 H 441.503 2.90114 2.63774 0
M  V30 4524 H 442.993 2.34385 3.4562 0
M  V30 4525 N 443.43 -0.535701 1.48216 0
M  V30 4526 C 444.655 -1.32149 1.59848 0
M  V30 4527 C 445.08 -1.86338 0.256842 0
M  V30 4528 O 444.438 -1.64107 -0.770632 0
M  V30 4529 C 444.486 -2.45224 2.64381 0
M  V30 4530 O 443.59 -3.48093 2.21144 0
M  V30 4531 H 442.931 -0.391634 0.536208 0
M  V30 4532 H 445.461 -0.645202 1.94161 0
M  V30 4533 H 445.471 -2.91491 2.85476 0
M  V30 4534 H 444.146 -2.05143 3.61786 0
M  V30 4535 H 442.723 -3.07984 2.10239 0
M  V30 4536 N 444.908 -1.36708 -0.784132 0
M  V30 4537 C 446.138 -1.34203 -1.57077 0
M  V30 4538 C 446.546 0.0774945 -1.89041 0
M  V30 4539 O 445.889 1.04628 -1.50992 0
M  V30 4540 C 445.951 -2.10351 -2.91535 0
M  V30 4541 C 445.615 -3.59405 -2.82272 0
M  V30 4542 C 446.612 -4.53545 -2.54151 0
M  V30 4543 C 444.297 -4.02362 -3.00683 0
M  V30 4544 C 446.291 -5.8862 -2.44551 0
M  V30 4545 C 443.978 -5.37526 -2.90704 0
M  V30 4546 C 444.976 -6.30468 -2.62677 0
M  V30 4547 O 444.664 -7.63149 -2.52702 0
M  V30 4548 H 444.396 -0.461791 -0.493685 0
M  V30 4549 H 446.95 -1.80475 -0.980712 0
M  V30 4550 H 445.18 -1.5875 -3.52612 0
M  V30 4551 H 446.869 -2.00636 -3.52845 0
M  V30 4552 H 447.635 -4.21669 -2.39625 0
M  V30 4553 H 443.514 -3.30389 -3.21503 0
M  V30 4554 H 447.058 -6.61133 -2.22596 0
M  V30 4555 H 442.955 -5.69008 -3.04795 0
M  V30 4556 H 443.723 -7.73331 -2.68144 0
M  V30 4557 N 446.386 1.0089 -1.21074 0
M  V30 4558 C 447.797 1.56056 -1.02486 0
M  V30 4559 C 448.148 1.91728 0.416506 0
M  V30 4560 O 447.273 1.73066 1.29912 0
M  V30 4561 C 447.868 2.83563 -1.85411 0
M  V30 4562 C 446.427 3.3523 -1.71166 0
M  V30 4563 C 445.574 2.0846 -1.82865 0
M  V30 4564 H 448.525 0.831818 -1.35154 0
M  V30 4565 H 448.546 3.55286 -1.36205 0
M  V30 4566 H 448.058 2.57569 -2.9031 0
M  V30 4567 H 446.159 3.66167 -0.689361 0
M  V30 4568 H 446.272 4.06913 -2.52901 0
M  V30 4569 H 444.636 2.21275 -1.26132 0
M  V30 4570 H 445.419 1.84883 -2.89263 0
M  V30 4571 N 447.864 1.01787 1.20321 0
M  V30 4572 C 449.089 0.727009 1.9424 0
M  V30 4573 C 449.514 -0.706179 1.74341 0
M  V30 4574 O 448.872 -1.48609 1.03852 0
M  V30 4575 C 448.92 1.06958 3.44372 0
M  V30 4576 O 448.024 0.181983 4.11998 0
M  V30 4577 H 447.365 0.269626 0.606793 0
M  V30 4578 H 449.895 1.36158 1.52716 0
M  V30 4579 H 449.905 1.02182 3.94997 0
M  V30 4580 H 448.58 2.11378 3.58179 0
M  V30 4581 H 447.157 0.287378 3.71791 0
M  V30 4582 N 449.342 -1.36122 0.79427 0
M  V30 4583 C 450.619 -1.93398 0.292685 0
M  V30 4584 C 450.999 -1.72567 -1.21589 0
M  V30 4585 O 450.347 -1.08745 -2.00965 0
M  V30 4586 C 450.557 -3.42099 0.690614 0
M  V30 4587 C 451.905 -4.19231 0.673105 0
M  V30 4588 O 452.929 -3.50559 0.631389 0
M  V30 4589 O 451.788 -5.41732 0.720362 0
M  V30 4590 H 448.882 -0.823712 0.0736693 0
M  V30 4591 H 451.428 -1.45273 0.87714 0
M  V30 4592 H 450.2 -3.50938 1.73085 0
M  V30 4593 H 449.823 -3.97519 0.0803036 0
M  V30 4594 N 450.82 -0.546701 -1.47814 0
M  V30 4595 C 451.77 0.227042 -2.26867 0
M  V30 4596 C 452.754 0.894844 -1.33721 0
M  V30 4597 O 453.946 0.794887 -1.58147 0
M  V30 4598 C 451.075 1.26299 -3.19223 0
M  V30 4599 C 450.161 0.59913 -4.19847 0
M  V30 4600 N 450.552 -0.324777 -5.04756 0
M  V30 4601 C 448.85 0.854331 -4.37741 0
M  V30 4602 C 449.551 -0.709386 -5.77358 0
M  V30 4603 N 448.527 -0.0666153 -5.43559 0
M  V30 4604 H 452.329 -0.483476 -2.89896 0
M  V30 4605 H 449.843 -0.365893 -1.58224 0
M  V30 4606 H 451.84 1.83116 -3.74532 0
M  V30 4607 H 450.5 1.97471 -2.57751 0
M  V30 4608 H 451.511 -0.698351 -5.1317 0
M  V30 4609 H 448.188 1.55536 -3.87447 0
M  V30 4610 H 449.578 -1.46796 -6.55668 0
M  V30 4611 N 452.299 1.55045 -0.282633 0
M  V30 4612 C 453.539 2.01668 0.333088 0
M  V30 4613 C 453.903 1.1667 1.52486 0
M  V30 4614 O 455.104 1.52907 2.21072 0
M  V30 4615 C 453.375 3.50509 0.698442 0
M  V30 4616 S 454.934 4.19112 1.29963 0
M  V30 4617 H 451.752 0.703468 0.103219 0
M  V30 4618 H 454.354 1.91233 -0.406222 0
M  V30 4619 H 453.058 4.10015 -0.177693 0
M  V30 4620 H 452.589 3.64943 1.46902 0
M  V30 4621 H 454.604 4.23362 2.58803 0
M  V30 4622 N 453.777 0.010035 1.57597 0
M  V30 4623 C 454.709 -1.00649 2.05918 0
M  V30 4624 C 455.722 -1.30077 0.978964 0
M  V30 4625 O 456.911 -1.26878 1.25556 0
M  V30 4626 C 454.011 -2.33876 2.45265 0
M  V30 4627 C 453.184 -2.23242 3.7614 0
M  V30 4628 C 452.243 -3.39242 4.02245 0
M  V30 4629 O 451.269 -3.1698 4.72771 0
M  V30 4630 N 452.471 -4.6242 3.50924 0
M  V30 4631 H 455.236 -0.594333 2.93748 0
M  V30 4632 H 452.797 -0.17714 1.60928 0
M  V30 4633 H 454.789 -3.1027 2.59836 0
M  V30 4634 H 453.359 -2.66799 1.62902 0
M  V30 4635 H 452.579 -1.31696 3.71551 0
M  V30 4636 H 453.867 -2.13321 4.61922 0
M  V30 4637 H 453.265 -4.83404 2.93832 0
M  V30 4638 H 451.822 -5.36046 3.70807 0
M  V30 4639 N 455.255 -1.55392 -0.262866 0
M  V30 4640 C 456.532 -1.67204 -1.01499 0
M  V30 4641 C 456.912 -0.545186 -2.03939 0
M  V30 4642 O 456.26 0.453467 -2.23955 0
M  V30 4643 C 456.47 -3.06847 -1.6627 0
M  V30 4644 C 457.818 -3.64928 -2.17054 0
M  V30 4645 O 458.842 -3.09545 -1.76239 0
M  V30 4646 O 457.701 -4.61984 -2.91947 0
M  V30 4647 H 454.795 -0.679467 -0.471438 0
M  V30 4648 H 457.341 -1.67729 -0.257918 0
M  V30 4649 H 456.113 -3.80309 -0.920915 0
M  V30 4650 H 455.736 -3.10266 -2.48638 0
M  V30 4651 N 456.733 0.527833 -1.48498 0
M  V30 4652 C 457.681 1.65313 -1.63628 0
M  V30 4653 C 458.675 1.6177 -0.502676 0
M  V30 4654 O 459.881 1.66601 -0.681469 0
M  V30 4655 H 456.256 0.547518 -0.515488 0
M  V30 4656 H 458.227 1.49696 -2.58135 0
M  V30 4657 C 456.976 3.03576 -1.6952 0
M  V30 4658 H 456.299 3.06997 -2.56111 0
M  V30 4659 H 457.739 3.81923 -1.84149 0
M  V30 4660 C 456.198 3.34089 -0.43432 0
M  V30 4661 O 456.728 3.99151 0.451852 0
M  V30 4662 N 454.934 2.88991 -0.305368 0
M  V30 4663 H 454.481 2.36222 -1.02747 0
M  V30 4664 H 454.439 3.09776 0.537249 0
M  V30 4665 N 458.211 1.37122 0.776871 0
M  V30 4666 C 459.144 1.26835 1.89705 0
M  V30 4667 C 460.122 0.14992 1.61907 0
M  V30 4668 O 461.306 0.323242 1.85708 0
M  V30 4669 C 458.433 0.95986 3.24814 0
M  V30 4670 C 457.479 2.09447 3.7153 0
M  V30 4671 S 458.312 3.71368 3.85806 0
M  V30 4672 C 459.468 3.42659 5.23771 0
M  V30 4673 H 459.701 2.21647 1.98141 0
M  V30 4674 H 457.234 1.22685 0.937433 0
M  V30 4675 H 459.192 0.788696 4.02852 0
M  V30 4676 H 457.853 0.0293137 3.14086 0
M  V30 4677 H 457.046 1.8335 4.69467 0
M  V30 4678 H 456.648 2.2255 3.00578 0
M  V30 4679 H 458.94 2.9733 6.0877 0
M  V30 4680 H 459.883 4.39905 5.54878 0
M  V30 4681 H 460.291 2.77708 4.91466 0
M  V30 4682 N 459.689 -1.00246 1.21608 0
M  V30 4683 C 460.935 -1.74417 1.04643 0
M  V30 4684 C 461.29 -1.87862 -0.415387 0
M  V30 4685 O 460.583 -1.40373 -1.30407 0
M  V30 4686 C 460.777 -3.15448 1.68009 0
M  V30 4687 C 460.606 -3.15755 3.20201 0
M  V30 4688 C 459.376 -3.2219 3.89258 0
M  V30 4689 C 461.574 -3.00668 4.17257 0
M  V30 4690 N 459.556 -3.1215 5.28617 0
M  V30 4691 C 460.927 -2.98553 5.43384 0
M  V30 4692 C 462.982 -2.84989 4.08272 0
M  V30 4693 C 461.685 -2.82364 6.61561 0
M  V30 4694 C 463.711 -2.70158 5.26088 0
M  V30 4695 C 463.073 -2.68721 6.51128 0
M  V30 4696 H 459.172 -0.648317 0.437274 0
M  V30 4697 H 461.756 -1.19129 1.54001 0
M  V30 4698 H 459.927 -3.69001 1.21215 0
M  V30 4699 H 461.659 -3.78128 1.44226 0
M  V30 4700 H 458.414 -3.29488 3.40198 0
M  V30 4701 H 458.838 -3.10465 6.01615 0
M  V30 4702 H 463.48 -2.84904 3.12393 0
M  V30 4703 H 461.198 -2.81196 7.57598 0
M  V30 4704 H 464.784 -2.59022 5.20959 0
M  V30 4705 H 463.664 -2.57382 7.40759 0
M  V30 4706 N 461.167 -1.02423 -1.1978 0
M  V30 4707 C 462.583 -0.740459 -1.41384 0
M  V30 4708 C 462.783 0.676827 -1.89793 0
M  V30 4709 O 461.839 1.4435 -2.0717 0
M  V30 4710 C 463.152 -1.77264 -2.42895 0
M  V30 4711 C 464.7 -1.79165 -2.56649 0
M  V30 4712 C 465.175 -2.8133 -3.6141 0
M  V30 4713 N 466.666 -2.80118 -3.68901 0
M  V30 4714 C 467.401 -3.55824 -4.49641 0
M  V30 4715 N 466.897 -4.41231 -5.34123 0
M  V30 4716 N 468.69 -3.44387 -4.44246 0
M  V30 4717 H 460.841 -1.9391 -0.866764 0
M  V30 4718 H 463.104 -0.838074 -0.443098 0
M  V30 4719 H 462.81 -2.7884 -2.14339 0
M  V30 4720 H 462.684 -1.59108 -3.42001 0
M  V30 4721 H 465.071 -0.782702 -2.84531 0
M  V30 4722 H 465.152 -2.01396 -1.57713 0
M  V30 4723 H 464.796 -3.82394 -3.34271 0
M  V30 4724 H 464.726 -2.56359 -4.59986 0
M  V30 4725 H 467.217 -2.1817 -3.08562 0
M  V30 4726 H 467.53 -4.95747 -5.92836 0
M  V30 4727 H 465.875 -4.45306 -5.33599 0
M  V30 4728 H 469.066 -2.7708 -3.77285 0
M  V30 4729 H 469.239 -4.0364 -5.06931 0
M  V30 4730 N 462.645 1.35699 -0.801477 0
M  V30 4731 C 463.885 2.00741 -0.385027 0
M  V30 4732 C 464.249 1.62213 1.02718 0
M  V30 4733 O 465.45 2.19936 1.54537 0
M  V30 4734 C 463.721 3.53032 -0.557057 0
M  V30 4735 S 465.28 4.38195 -0.230272 0
M  V30 4736 H 462.098 0.695748 -0.146477 0
M  V30 4737 H 464.7 1.65378 -1.04261 0
M  V30 4738 H 463.404 3.7856 -1.58494 0
M  V30 4739 H 462.935 3.93229 0.116029 0
M  V30 4740 H 464.95 4.86748 0.963895 0
M  V30 4741 N 464.123 0.554532 1.47522 0
M  V30 4742 C 465.534 0.120446 1.86311 0
M  V30 4743 C 465.885 -1.30904 1.46145 0
M  V30 4744 O 465.01 -1.98434 0.863294 0
M  V30 4745 C 465.605 0.211808 3.38137 0
M  V30 4746 C 464.164 -0.167224 3.76028 0
M  V30 4747 C 463.311 0.560576 2.71575 0
M  V30 4748 H 466.262 0.764408 1.39077 0
M  V30 4749 H 466.283 -0.570275 3.76202 0
M  V30 4750 H 465.795 1.25232 3.6734 0
M  V30 4751 H 463.896 -1.20894 3.52442 0
M  V30 4752 H 464.009 0.189473 4.78725 0
M  V30 4753 H 462.373 0.00396836 2.547 0
M  V30 4754 H 463.156 1.60219 3.0362 0
M  V30 4755 N 465.601 -1.54893 0.290851 0
M  V30 4756 C 467.017 -1.59476 -0.0628432 0
M  V30 4757 C 467.217 -1.30795 -1.5328 0
M  V30 4758 O 466.273 -1.07644 -2.28406 0
M  V30 4759 C 467.586 -2.98928 0.325962 0
M  V30 4760 C 469.134 -3.11799 0.273882 0
M  V30 4761 C 469.609 -4.53544 0.637359 0
M  V30 4762 N 471.1 -4.59433 0.589507 0
M  V30 4763 C 471.835 -5.67164 0.84335 0
M  V30 4764 N 471.331 -6.82975 1.16263 0
M  V30 4765 N 473.124 -5.56786 0.771091 0
M  V30 4766 H 465.275 -1.71798 1.24896 0
M  V30 4767 H 467.538 -0.801879 0.505663 0
M  V30 4768 H 467.244 -3.24805 1.34887 0
M  V30 4769 H 467.118 -3.75793 -0.325441 0
M  V30 4770 H 469.505 -2.85677 -0.739765 0
M  V30 4771 H 469.586 -2.37112 0.959766 0
M  V30 4772 H 469.23 -4.80394 1.64877 0
M  V30 4773 H 469.16 -5.26553 -0.0704866 0
M  V30 4774 H 471.651 -3.76245 0.353252 0
M  V30 4775 H 471.964 -7.61048 1.34257 0
M  V30 4776 H 470.309 -6.84552 1.20057 0
M  V30 4777 H 473.5 -4.65187 0.521383 0
M  V30 4778 H 473.673 -6.40664 0.972295 0
M  V30 4779 N 467.08 -0.0183926 -1.57589 0
M  V30 4780 C 468.012 0.995557 -2.06449 0
M  V30 4781 C 469.025 1.29556 -0.985849 0
M  V30 4782 O 470.214 1.2621 -1.26227 0
M  V30 4783 C 467.314 2.32572 -2.46502 0
M  V30 4784 C 466.487 2.21245 -3.77319 0
M  V30 4785 C 465.546 3.37104 -4.04039 0
M  V30 4786 O 464.572 3.14468 -4.74445 0
M  V30 4787 N 465.774 4.60553 -3.53372 0
M  V30 4788 H 468.539 0.578746 -2.94059 0
M  V30 4789 H 466.1 0.168603 -1.6102 0
M  V30 4790 H 468.092 3.08887 -2.61478 0
M  V30 4791 H 466.662 2.65931 -1.64315 0
M  V30 4792 H 465.882 1.29723 -3.72244 0
M  V30 4793 H 467.17 2.10868 -4.63047 0
M  V30 4794 H 466.568 4.81839 -2.96391 0
M  V30 4795 H 465.125 5.34072 -3.73644 0
M  V30 4796 N 468.558 1.5553 0.254621 0
M  V30 4797 C 469.804 1.77262 0.985193 0
M  V30 4798 C 470.137 0.582286 1.85265 0
M  V30 4799 O 469.412 -0.419666 1.89919 0
M  V30 4800 C 469.695 3.0881 1.85225 0
M  V30 4801 C 469.548 4.38233 1.0135 0
M  V30 4802 C 470.867 3.3653 2.83612 0
M  V30 4803 H 467.986 0.644906 0.356742 0
M  V30 4804 H 470.628 1.88264 0.256236 0
M  V30 4805 H 468.778 2.99562 2.47376 0
M  V30 4806 H 470.45 4.59463 0.411269 0
M  V30 4807 H 468.693 4.32636 0.317574 0
M  V30 4808 H 469.364 5.26644 1.65379 0
M  V30 4809 H 471.84 3.45691 2.31596 0
M  V30 4810 H 470.716 4.29805 3.41407 0
M  V30 4811 H 470.977 2.57064 3.59681 0
M  V30 4812 N 470.036 -0.519951 1.48776 0
M  V30 4813 C 471.261 -1.30447 1.6124 0
M  V30 4814 C 471.686 -1.86055 0.276591 0
M  V30 4815 O 471.044 -1.64915 -0.753183 0
M  V30 4816 C 471.092 -2.42406 2.66967 0
M  V30 4817 O 470.196 -3.45728 2.24824 0
M  V30 4818 H 469.537 -0.385924 0.540332 0
M  V30 4819 H 472.067 -0.624572 1.94834 0
M  V30 4820 H 472.077 -2.88447 2.88552 0
M  V30 4821 H 470.752 -2.01294 3.63941 0
M  V30 4822 H 469.329 -3.05737 2.13494 0
M  V30 4823 N 471.514 -1.37532 -0.769588 0
M  V30 4824 C 472.742 -1.36059 -1.55871 0
M  V30 4825 C 473.157 0.053544 -1.88724 0
M  V30 4826 O 472.514 1.01591 -1.5161 0
M  V30 4827 C 472.565 -2.20107 -2.86767 0
M  V30 4828 O 472.286 -3.56009 -2.55321 0
M  V30 4829 C 473.787 -2.26636 -3.80987 0
M  V30 4830 H 471.007 -0.465967 -0.482821 0
M  V30 4831 H 473.551 -1.80901 -0.953686 0
M  V30 4832 H 471.706 -1.78768 -3.43687 0
M  V30 4833 H 472.12 -4.0009 -3.39158 0
M  V30 4834 H 473.594 -2.89763 -4.69831 0
M  V30 4835 H 474.071 -1.2754 -4.20274 0
M  V30 4836 H 474.677 -2.68296 -3.29996 0
M  V30 4837 N 472.992 0.995999 -1.22138 0
M  V30 4838 C 474.238 1.73767 -1.04561 0
M  V30 4839 C 474.571 1.89633 0.418698 0
M  V30 4840 O 473.846 1.43723 1.3105 0
M  V30 4841 C 474.129 3.14505 -1.75382 0
M  V30 4842 C 473.982 3.06306 -3.29388 0
M  V30 4843 C 475.301 4.13615 -1.50369 0
M  V30 4844 H 472.42 0.630728 -0.38125 0
M  V30 4845 H 475.062 1.16057 -1.50435 0
M  V30 4846 H 473.212 3.63775 -1.36383 0
M  V30 4847 H 474.884 2.64681 -3.77812 0
M  V30 4848 H 473.127 2.43186 -3.59226 0
M  V30 4849 H 473.798 4.05884 -3.74116 0
M  V30 4850 H 476.274 3.73089 -1.84239 0
M  V30 4851 H 475.15 5.10212 -2.02421 0
M  V30 4852 H 475.411 4.39949 -0.435611 0
M  V30 4853 N 474.47 1.03057 1.19235 0
M  V30 4854 C 475.716 0.729098 1.89241 0
M  V30 4855 C 476.049 -0.740573 1.79525 0
M  V30 4856 O 475.324 -1.53946 1.18874 0
M  V30 4857 C 475.607 1.18304 3.40112 0
M  V30 4858 C 475.46 2.71406 3.5869 0
M  V30 4859 C 476.779 0.765161 4.33397 0
M  V30 4860 H 473.898 0.266338 0.687192 0
M  V30 4861 H 476.54 1.28079 1.40341 0
M  V30 4862 H 474.69 0.713672 3.81889 0
M  V30 4863 H 476.362 3.26303 3.26074 0
M  V30 4864 H 474.605 3.11717 3.01687 0
M  V30 4865 H 475.276 2.98225 4.64506 0
M  V30 4866 H 477.752 1.16889 3.99345 0
M  V30 4867 H 476.628 1.11065 5.37546 0
M  V30 4868 H 476.889 -0.332372 4.40849 0
M  V30 4869 N 475.948 -1.35272 0.808662 0
M  V30 4870 C 477.188 -2.00534 0.395668 0
M  V30 4871 C 477.552 -1.62755 -1.01857 0
M  V30 4872 O 478.753 -2.20752 -1.53368 0
M  V30 4873 C 477.024 -3.52732 0.575771 0
M  V30 4874 S 478.583 -4.38067 0.253507 0
M  V30 4875 H 475.401 -0.694962 0.150165 0
M  V30 4876 H 478.003 -1.64823 1.05137 0
M  V30 4877 H 476.707 -3.77714 1.60499 0
M  V30 4878 H 476.238 -3.93285 -0.0951739 0
M  V30 4879 H 478.253 -4.87252 -0.938068 0
M  V30 4880 N 477.426 -0.562348 -1.47226 0
M  V30 4881 C 478.672 -0.0402761 -2.0276 0
M  V30 4882 C 479.005 1.30823 -1.43523 0
M  V30 4883 O 478.28 1.85249 -0.592705 0
M  V30 4884 C 478.563 0.047311 -3.60069 0
M  V30 4885 C 478.416 -1.32865 -4.29729 0
M  V30 4886 C 479.735 0.758182 -4.3352 0
M  V30 4887 H 476.854 -0.0161105 -0.736824 0
M  V30 4888 H 479.496 -0.725628 -1.75598 0
M  V30 4889 H 477.646 0.630986 -3.83342 0
M  V30 4890 H 479.318 -1.95593 -4.17781 0
M  V30 4891 H 477.561 -1.90195 -3.89882 0
M  V30 4892 H 478.232 -1.22004 -5.38349 0
M  V30 4893 H 480.708 0.262546 -4.15271 0
M  V30 4894 H 479.584 0.78844 -5.43208 0
M  V30 4895 H 479.845 1.81537 -4.03109 0
M  V30 4896 N 478.904 1.54736 -0.299062 0
M  V30 4897 C 479.854 2.20155 0.592932 0
M  V30 4898 C 480.838 1.1739 1.10038 0
M  V30 4899 O 482.03 1.43116 1.04147 0
M  V30 4900 C 479.159 2.94437 1.76527 0
M  V30 4901 C 478.245 4.04516 1.27388 0
M  V30 4902 N 478.636 5.03319 0.500339 0
M  V30 4903 C 476.934 4.18022 1.55478 0
M  V30 4904 C 477.635 5.81209 0.238909 0
M  V30 4905 N 476.611 5.37408 0.818163 0
M  V30 4906 H 480.413 2.93899 -0.00563596 0
M  V30 4907 H 477.927 1.62068 -0.103732 0
M  V30 4908 H 479.924 3.3977 2.41582 0
M  V30 4909 H 478.584 2.22209 2.36756 0
M  V30 4910 H 479.595 5.17696 0.145419 0
M  V30 4911 H 476.272 3.56998 2.16469 0
M  V30 4912 H 477.662 6.70812 -0.382223 0
M  V30 4913 N 480.382 0.0267497 1.57577 0
M  V30 4914 C 481.292 -0.971633 2.13533 0
M  V30 4915 C 482.308 -1.35868 1.08701 0
M  V30 4916 O 483.484 -1.44058 1.40746 0
M  V30 4917 C 480.549 -2.23622 2.64941 0
M  V30 4918 C 479.61 -1.90982 3.8448 0
M  V30 4919 C 478.843 -3.11411 4.33427 0
M  V30 4920 O 479.066 -4.23992 3.81558 0
M  V30 4921 O 478 -2.93848 5.25297 0
M  V30 4922 H 481.826 -0.525853 2.99113 0
M  V30 4923 H 479.411 -0.193712 1.48139 0
M  V30 4924 H 481.293 -2.97864 2.98086 0
M  V30 4925 H 479.968 -2.67386 1.82446 0
M  V30 4926 H 478.875 -1.14132 3.56265 0
M  V30 4927 H 480.208 -1.52036 4.6813 0
M  V30 4928 N 481.861 -1.55662 -0.24637 0
M  V30 4929 C 483.272 -1.67953 -0.81539 0
M  V30 4930 C 483.623 -0.624302 -1.86002 0
M  V30 4931 O 482.748 0.229328 -2.15181 0
M  V30 4932 C 483.343 -3.04484 -1.48576 0
M  V30 4933 C 481.902 -3.18713 -2.00248 0
M  V30 4934 C 481.049 -2.6383 -0.853766 0
M  V30 4935 H 484 -1.58685 -0.0221692 0
M  V30 4936 H 484.021 -2.98959 -2.3538 0
M  V30 4937 H 483.533 -3.81264 -0.725222 0
M  V30 4938 H 481.634 -2.46757 -2.79181 0
M  V30 4939 H 481.747 -4.25628 -2.1995 0
M  V30 4940 H 480.111 -2.21667 -1.25442 0
M  V30 4941 H 480.894 -3.43135 -0.106302 0
M  V30 4942 N 483.339 0.512053 -1.4905 0
M  V30 4943 C 484.755 0.84224 -1.35567 0
M  V30 4944 C 484.955 1.97878 -0.380319 0
M  V30 4945 O 484.011 2.51769 0.19201 0
M  V30 4946 C 485.324 1.19286 -2.76028 0
M  V30 4947 C 486.872 1.30171 -2.84648 0
M  V30 4948 C 487.347 1.68568 -4.25851 0
M  V30 4949 N 488.838 1.75638 -4.28609 0
M  V30 4950 C 489.573 2.06769 -5.34821 0
M  V30 4951 N 489.069 2.36201 -6.51292 0
M  V30 4952 N 490.862 2.07927 -5.22229 0
M  V30 4953 H 483.013 -0.237574 -2.11067 0
M  V30 4954 H 485.276 -0.0436747 -0.946993 0
M  V30 4955 H 484.982 0.431199 -3.49047 0
M  V30 4956 H 484.856 2.13889 -3.10695 0
M  V30 4957 H 487.243 2.05411 -2.11873 0
M  V30 4958 H 487.324 0.336457 -2.53578 0
M  V30 4959 H 486.968 0.938824 -4.99148 0
M  V30 4960 H 486.898 2.66174 -4.54377 0
M  V30 4961 H 489.389 1.55097 -3.44606 0
M  V30 4962 H 489.702 2.59112 -7.28066 0
M  V30 4963 H 488.047 2.33681 -6.54536 0
M  V30 4964 H 491.238 1.84403 -4.30248 0
M  V30 4965 H 491.411 2.31856 -6.05101 0
M  V30 4966 N 484.817 1.37938 0.762283 0
M  V30 4967 C 486.057 1.35076 1.53407 0
M  V30 4968 C 486.421 -0.061546 1.91901 0
M  V30 4969 O 487.622 -0.214973 2.67939 0
M  V30 4970 C 485.893 2.27206 2.75884 0
M  V30 4971 S 487.452 2.42283 3.65848 0
M  V30 4972 H 484.27 0.479387 0.52508 0
M  V30 4973 H 486.872 1.7378 0.895586 0
M  V30 4974 H 485.576 3.28724 2.457 0
M  V30 4975 H 485.107 1.8962 3.44685 0
M  V30 4976 H 487.122 1.64044 4.68299 0
M  V30 4977 N 486.295 -0.989507 1.22664 0
M  V30 4978 C 487.227 -2.0824 0.957542 0
M  V30 4979 C 488.24 -1.6267 -0.0651098 0
M  V30 4980 O 489.429 -1.77695 0.169312 0
M  V30 4981 C 486.529 -3.36298 0.419145 0
M  V30 4982 C 485.702 -4.10882 1.49982 0
M  V30 4983 C 484.761 -5.17221 0.967904 0
M  V30 4984 O 483.787 -5.44613 1.65487 0
M  V30 4985 N 484.989 -5.80124 -0.20896 0
M  V30 4986 H 487.754 -2.31904 1.89843 0
M  V30 4987 H 485.315 -1.15552 1.13399 0
M  V30 4988 H 487.307 -4.04671 0.0485451 0
M  V30 4989 H 485.877 -3.09671 -0.426937 0
M  V30 4990 H 485.097 -3.37092 2.04359 0
M  V30 4991 H 486.385 -4.57482 2.22682 0
M  V30 4992 H 485.783 -5.60244 -0.783818 0
M  V30 4993 H 484.34 -6.49715 -0.520913 0
M  V30 4994 N 487.773 -1.03688 -1.18687 0
M  V30 4995 C 489.184 -0.766488 -1.70241 0
M  V30 4996 C 489.535 0.713052 -1.82784 0
M  V30 4997 O 488.66 1.55529 -1.50465 0
M  V30 4998 C 489.255 -1.38475 -3.09209 0
M  V30 4999 C 487.814 -1.16276 -3.5799 0
M  V30 5000 C 486.961 -1.4778 -2.34641 0
M  V30 5001 H 489.912 -1.20378 -1.03415 0
M  V30 5002 H 489.933 -0.785939 -3.72295 0
M  V30 5003 H 489.445 -2.46157 -3.00048 0
M  V30 5004 H 487.546 -0.104508 -3.72453 0
M  V30 5005 H 487.659 -1.8571 -4.41643 0
M  V30 5006 H 486.023 -0.897366 -2.38368 0
M  V30 5007 H 486.806 -2.56562 -2.28102 0
M  V30 5008 N 489.251 1.34841 -0.815825 0
M  V30 5009 C 490.662 1.80937 -0.46029 0
M  V30 5010 C 491.013 1.67685 1.01863 0
M  V30 5011 O 490.138 1.21277 1.79223 0
M  V30 5012 C 490.733 3.28509 -0.828708 0
M  V30 5013 C 489.292 3.72712 -0.525644 0
M  V30 5014 C 488.439 2.56676 -1.04941 0
M  V30 5015 H 491.39 1.22688 -1.00664 0
M  V30 5016 H 491.411 3.80279 -0.129757 0
M  V30 5017 H 490.923 3.38122 -1.90513 0
M  V30 5018 H 489.024 3.68642 0.541666 0
M  V30 5019 H 489.137 4.67119 -1.06474 0
M  V30 5020 H 487.501 2.50302 -0.471286 0
M  V30 5021 H 488.284 2.69063 -2.13214 0
M  V30 5022 N 490.729 0.570148 1.46925 0
M  V30 5023 C 492.006 -0.0153259 1.95594 0
M  V30 5024 C 492.386 -1.47232 1.51281 0
M  V30 5025 O 491.734 -2.15574 0.757624 0
M  V30 5026 C 491.944 0.143624 3.48704 0
M  V30 5027 C 493.292 0.00494484 4.246 0
M  V30 5028 O 494.316 0.0718214 3.56128 0
M  V30 5029 O 493.175 -0.141175 5.46318 0
M  V30 5030 H 490.269 -0.0568819 0.825041 0
M  V30 5031 H 492.815 0.637583 1.57267 0
M  V30 5032 H 491.587 1.15699 3.73804 0
M  V30 5033 H 491.21 -0.5463 3.93829 0
M  V30 5034 N 492.207 -1.54576 0.307264 0
M  V30 5035 C 493.447 -2.02172 -0.300962 0
M  V30 5036 C 493.811 -1.19081 -1.50611 0
M  V30 5037 O 495.012 -1.56405 -2.18612 0
M  V30 5038 C 493.283 -3.51576 -0.642591 0
M  V30 5039 S 494.842 -4.21127 -1.23279 0
M  V30 5040 H 491.66 -0.705021 -0.0920141 0
M  V30 5041 H 494.262 -1.90563 0.436594 0
M  V30 5042 H 492.966 -4.09681 0.242901 0
M  V30 5043 H 492.497 -3.67234 -1.41077 0
M  V30 5044 H 494.512 -4.27426 -2.52034 0
M  V30 5045 N 493.685 -0.035106 -1.57561 0
M  V30 5046 C 494.635 0.954034 -2.0708 0
M  V30 5047 C 495.619 1.2818 -0.972558 0
M  V30 5048 O 496.811 1.26691 -1.23606 0
M  V30 5049 C 493.94 2.23442 -2.60631 0
M  V30 5050 C 493.026 1.93475 -3.77396 0
M  V30 5051 N 493.417 1.33802 -4.87781 0
M  V30 5052 C 491.715 2.23434 -3.85996 0
M  V30 5053 C 492.416 1.21103 -5.68954 0
M  V30 5054 N 491.392 1.70855 -5.16052 0
M  V30 5055 H 495.194 0.487731 -2.89825 0
M  V30 5056 H 492.708 0.169759 -1.6151 0
M  V30 5057 H 494.705 2.95183 -2.94402 0
M  V30 5058 H 493.365 2.70693 -1.79319 0
M  V30 5059 H 494.376 1.01227 -5.07911 0
M  V30 5060 H 491.053 2.73317 -3.15601 0
M  V30 5061 H 492.443 0.749105 -6.67711 0
M  V30 5062 N 495.163 1.55791 0.238111 0
M  V30 5063 C 496.411 1.77681 0.963001 0
M  V30 5064 C 496.732 0.600674 1.85518 0
M  V30 5065 O 496.002 -0.383182 1.92116 0
M  V30 5066 H 494.582 0.655315 0.358568 0
M  V30 5067 H 497.244 1.93239 0.253945 0
M  V30 5068 H 496.34 2.69177 1.57956 0
M  V30 5069 N 496.642 -0.504142 1.49319 0
M  V30 5070 C 497.592 -1.60284 1.62151 0
M  V30 5071 C 498.576 -1.53657 0.477315 0
M  V30 5072 O 499.768 -1.6124 0.730108 0
M  V30 5073 C 496.897 -2.98909 1.68844 0
M  V30 5074 C 495.983 -3.10544 2.8883 0
M  V30 5075 N 496.374 -2.92078 4.12946 0
M  V30 5076 C 494.672 -3.4164 2.86702 0
M  V30 5077 C 495.373 -3.07812 4.93585 0
M  V30 5078 N 494.349 -3.36549 4.26891 0
M  V30 5079 H 498.151 -1.44656 2.55835 0
M  V30 5080 H 495.665 -0.710198 1.46048 0
M  V30 5081 H 497.662 -3.77865 1.76134 0
M  V30 5082 H 496.322 -3.15609 0.762943 0
M  V30 5083 H 497.333 -2.68316 4.42975 0
M  V30 5084 H 494.01 -3.64537 2.03517 0
M  V30 5085 H 495.4 -2.98054 6.02174 0
M  V30 5086 N 498.12 -1.38341 -0.754957 0
M  V30 5087 C 499.368 -1.34208 -1.51105 0
M  V30 5088 C 499.689 0.0677634 -1.94882 0
M  V30 5089 O 498.959 1.01517 -1.67544 0
M  V30 5090 H 497.539 -0.493819 -0.560493 0
M  V30 5091 H 500.201 -1.73005 -0.897507 0
M  V30 5092 H 499.297 -1.99203 -2.4026 0
M  V30 5093 N 499.598 0.982988 -1.23187 0
M  V30 5094 C 500.826 1.75921 -1.08901 0
M  V30 5095 C 501.241 1.85341 0.359719 0
M  V30 5096 O 500.598 1.33072 1.24892 0
M  V30 5097 C 500.649 3.18742 -1.70545 0
M  V30 5098 O 500.37 3.09814 -3.09753 0
M  V30 5099 C 501.871 4.1277 -1.61667 0
M  V30 5100 H 499.091 0.552166 -0.381252 0
M  V30 5101 H 501.635 1.23516 -1.62985 0
M  V30 5102 H 499.79 3.68182 -1.20501 0
M  V30 5103 H 500.204 3.99703 -3.39614 0
M  V30 5104 H 501.678 5.10697 -2.09506 0
M  V30 5105 H 502.155 4.3542 -0.575009 0
M  V30 5106 H 502.761 3.69232 -2.11064 0
M  V30 5107 N 501.076 1.04316 1.18135 0
M  V30 5108 C 502.316 0.756937 1.89868 0
M  V30 5109 C 502.68 -0.702609 1.78682 0
M  V30 5110 O 503.881 -1.10255 2.45148 0
M  V30 5111 C 502.152 1.21327 3.36176 0
M  V30 5112 S 503.711 1.05307 4.25976 0
M  V30 5113 H 500.529 0.275143 0.655604 0
M  V30 5114 H 503.131 1.33597 1.42731 0
M  V30 5115 H 501.835 2.27086 3.41848 0
M  V30 5116 H 501.366 0.628137 3.88353 0
M  V30 5117 H 503.381 -0.0280093 4.96192 0
M  V30 5118 N 502.554 -1.34406 0.822964 0
M  V30 5119 C 503.8 -1.98578 0.411666 0
M  V30 5120 C 504.133 -1.65093 -1.02264 0
M  V30 5121 O 503.408 -0.92258 -1.71227 0
M  V30 5122 C 503.691 -3.54823 0.614235 0
M  V30 5123 C 503.544 -3.9805 2.09466 0
M  V30 5124 C 504.863 -4.40071 0.050221 0
M  V30 5125 H 501.982 -0.721355 0.151047 0
M  V30 5126 H 504.624 -1.59301 1.03554 0
M  V30 5127 H 502.774 -3.88411 0.0831774 0
M  V30 5128 H 504.446 -3.74795 2.68936 0
M  V30 5129 H 502.689 -3.4836 2.5851 0
M  V30 5130 H 503.36 -5.06819 2.18721 0
M  V30 5131 H 505.836 -4.13037 0.503953 0
M  V30 5132 H 504.712 -5.48452 0.221759 0
M  V30 5133 H 504.973 -4.29576 -1.04482 0
M  V30 5134 N 504.032 -0.577932 -1.46621 0
M  V30 5135 C 505.309 0.00495287 -1.95599 0
M  V30 5136 C 505.689 1.46428 -1.5206 0
M  V30 5137 O 505.037 2.1517 -0.769046 0
M  V30 5138 C 505.247 -0.162114 -3.48623 0
M  V30 5139 C 506.595 -0.0274623 -4.24591 0
M  V30 5140 O 507.619 -0.0907067 -3.56084 0
M  V30 5141 O 506.478 0.1122 -5.46385 0
M  V30 5142 H 503.572 0.0525057 -0.825332 0
M  V30 5143 H 506.118 -0.645914 -1.56927 0
M  V30 5144 H 504.89 -1.17679 -3.73185 0
M  V30 5145 H 504.513 0.525407 -3.94113 0
M  V30 5146 N 505.51 1.54411 -0.315457 0
M  V30 5147 C 506.758 2.00023 0.288971 0
M  V30 5148 C 507.079 1.20529 1.5329 0
M  V30 5149 O 506.349 0.304986 1.93511 0
M  V30 5150 H 504.929 0.738891 0.109766 0
M  V30 5151 H 507.591 1.90094 -0.430129 0
M  V30 5152 H 506.687 3.07198 0.550999 0
M  V30 5153 N 506.988 0.0434614 1.5754 0
M  V30 5154 C 507.938 -0.943039 2.07583 0
M  V30 5155 C 508.922 -1.27662 0.979342 0
M  V30 5156 O 510.114 -1.26034 1.24276 0
M  V30 5157 C 507.243 -2.22056 2.61813 0
M  V30 5158 C 506.329 -1.91471 3.78417 0
M  V30 5159 N 506.72 -1.31214 4.88484 0
M  V30 5160 C 505.018 -2.21384 3.87176 0
M  V30 5161 C 505.719 -1.18084 5.69588 0
M  V30 5162 N 504.695 -1.68116 5.16951 0
M  V30 5163 H 508.497 -0.472354 2.90079 0
M  V30 5164 H 506.011 -0.161191 1.61598 0
M  V30 5165 H 508.008 -2.93618 2.95963 0
M  V30 5166 H 506.668 -2.69738 1.80752 0
M  V30 5167 H 507.679 -0.985318 5.08441 0
M  V30 5168 H 504.356 -2.7164 3.17046 0
M  V30 5169 H 505.746 -0.713684 6.68099 0
M  V30 5170 N 508.466 -1.55915 -0.229846 0
M  V30 5171 C 509.706 -1.80314 -0.962614 0
M  V30 5172 C 510.07 -0.61568 -1.81861 0
M  V30 5173 O 511.271 -0.738795 -2.58448 0
M  V30 5174 C 509.542 -3.0956 -1.78627 0
M  V30 5175 S 511.101 -3.55243 -2.57581 0
M  V30 5176 H 507.919 -0.633142 -0.323499 0
M  V30 5177 H 510.521 -1.94155 -0.228919 0
M  V30 5178 H 509.225 -3.94033 -1.14742 0
M  V30 5179 H 508.756 -2.98503 -2.56241 0
M  V30 5180 H 510.771 -3.17924 -3.80971 0
M  V30 5181 N 509.944 0.496216 -1.49584 0
M  V30 5182 C 510.876 1.61404 -1.62731 0
M  V30 5183 C 511.889 1.54613 -0.50978 0
M  V30 5184 O 513.078 1.60458 -0.782017 0
M  V30 5185 C 510.178 3.00212 -1.57245 0
M  V30 5186 C 509.351 3.32138 -2.84611 0
M  V30 5187 C 508.41 4.5038 -2.72112 0
M  V30 5188 O 507.436 4.51926 -3.46051 0
M  V30 5189 N 508.638 5.50575 -1.83977 0
M  V30 5190 H 511.403 1.50552 -2.59141 0
M  V30 5191 H 508.964 0.684182 -1.46733 0
M  V30 5192 H 510.956 3.77241 -1.4653 0
M  V30 5193 H 509.526 3.04964 -0.686729 0
M  V30 5194 H 508.746 2.4396 -3.09641 0
M  V30 5195 H 510.034 3.50268 -3.69039 0
M  V30 5196 H 509.432 5.52128 -1.23171 0
M  V30 5197 H 507.989 6.26687 -1.79182 0
M  V30 5198 N 511.423 1.38739 0.74761 0
M  V30 5199 C 512.663 1.36695 1.51966 0
M  V30 5200 C 513.027 -0.0411889 1.91956 0
M  V30 5201 O 514.228 -0.186543 2.68152 0
M  V30 5202 C 512.499 2.30119 2.73459 0
M  V30 5203 S 514.058 2.4615 3.63257 0
M  V30 5204 H 510.876 0.484929 0.519966 0
M  V30 5205 H 513.478 1.7472 0.877104 0
M  V30 5206 H 512.182 3.31312 2.422 0
M  V30 5207 H 511.713 1.93265 3.42655 0
M  V30 5208 H 513.728 1.69001 4.66533 0
M  V30 5209 N 512.901 -0.976442 1.23707 0
M  V30 5210 C 514.129 -1.75341 1.09833 0
M  V30 5211 C 514.544 -1.8553 -0.349885 0
M  V30 5212 O 513.901 -1.33732 -1.24185 0
M  V30 5213 C 513.952 -3.17833 1.72233 0
M  V30 5214 O 513.673 -3.08167 3.11391 0
M  V30 5215 C 515.174 -4.11906 1.63853 0
M  V30 5216 H 512.394 -0.550137 0.384175 0
M  V30 5217 H 514.938 -1.2265 1.63638 0
M  V30 5218 H 513.093 -3.67538 1.22452 0
M  V30 5219 H 513.507 -3.97897 3.41729 0
M  V30 5220 H 514.981 -5.09579 2.12211 0
M  V30 5221 H 515.458 -4.35109 0.598092 0
M  V30 5222 H 516.064 -3.68107 2.13019 0
M  V30 5223 N 514.379 -1.04941 -1.1758 0
M  V30 5224 C 515.627 -0.756492 -1.87408 0
M  V30 5225 C 515.948 0.718478 -1.81281 0
M  V30 5226 O 515.218 1.519 -1.23706 0
M  V30 5227 H 513.798 -0.276841 -0.693807 0
M  V30 5228 H 516.46 -1.32803 -1.42652 0
M  V30 5229 H 515.556 -1.06918 -2.93215 0
M  V30 5230 N 515.857 1.33968 -0.830081 0
M  V30 5231 C 516.807 2.26845 -0.229242 0
M  V30 5232 C 517.791 1.48862 0.610659 0
M  V30 5233 O 518.983 1.70808 0.464067 0
M  V30 5234 C 516.112 3.3798 0.602057 0
M  V30 5235 C 515.198 4.23369 -0.248866 0
M  V30 5236 N 515.589 4.88182 -1.32334 0
M  V30 5237 C 513.887 4.45987 -0.0344077 0
M  V30 5238 C 514.588 5.51671 -1.84482 0
M  V30 5239 N 513.564 5.31348 -1.14762 0
M  V30 5240 H 517.366 2.74464 -1.05104 0
M  V30 5241 H 514.88 1.4777 -0.673623 0
M  V30 5242 H 516.877 4.03494 1.04873 0
M  V30 5243 H 515.537 2.9191 1.42193 0
M  V30 5244 H 516.548 4.88988 -1.70619 0
M  V30 5245 H 513.225 4.10658 0.752727 0
M  V30 5246 H 514.615 6.13308 -2.74413 0
M  V30 5247 N 517.335 0.585699 1.46312 0
M  V30 5248 C 518.582 0.0724211 2.0237 0
M  V30 5249 C 518.91 -1.28868 1.45683 0
M  V30 5250 O 518.165 -1.85853 0.612945 0
M  V30 5251 C 518.464 -0.0401312 3.57377 0
M  V30 5252 C 518.13 1.25376 4.33119 0
M  V30 5253 C 516.792 1.60824 4.5353 0
M  V30 5254 C 519.144 2.10987 4.76586 0
M  V30 5255 C 516.472 2.81676 5.14661 0
M  V30 5256 C 518.824 3.31068 5.39052 0
M  V30 5257 C 517.488 3.66794 5.5769 0
M  V30 5258 H 516.758 0.0265007 0.740526 0
M  V30 5259 H 519.405 0.762935 1.75646 0
M  V30 5260 H 517.71 -0.813791 3.83255 0
M  V30 5261 H 519.407 -0.453078 3.98432 0
M  V30 5262 H 515.997 0.967808 4.1753 0
M  V30 5263 H 520.181 1.84904 4.60569 0
M  V30 5264 H 515.437 3.0949 5.27282 0
M  V30 5265 H 519.611 3.97672 5.71691 0
M  V30 5266 H 517.238 4.60529 6.04828 0
M  V30 5267 N 518.813 -1.54241 0.323641 0
M  V30 5268 C 520.059 -2.01572 -0.272089 0
M  V30 5269 C 520.414 -1.20774 -1.49771 0
M  V30 5270 O 519.707 -0.281821 -1.89516 0
M  V30 5271 C 519.901 -3.5129 -0.658031 0
M  V30 5272 C 519.73 -4.46582 0.528645 0
M  V30 5273 C 518.5 -4.94737 1.02777 0
M  V30 5274 C 520.698 -4.95416 1.38086 0
M  V30 5275 N 518.68 -5.73933 2.17885 0
M  V30 5276 C 520.051 -5.72537 2.3791 0
M  V30 5277 C 522.106 -4.77559 1.40861 0
M  V30 5278 C 520.809 -6.33702 3.40314 0
M  V30 5279 C 522.835 -5.39559 2.42136 0
M  V30 5280 C 522.197 -6.16532 3.40688 0
M  V30 5281 H 518.296 -0.779425 -0.0634072 0
M  V30 5282 H 520.88 -1.8922 0.458697 0
M  V30 5283 H 519.051 -3.63888 -1.35795 0
M  V30 5284 H 520.783 -3.85388 -1.23524 0
M  V30 5285 H 517.538 -4.69796 0.599046 0
M  V30 5286 H 517.962 -6.18209 2.75947 0
M  V30 5287 H 522.604 -4.17611 0.660352 0
M  V30 5288 H 520.322 -6.9277 4.16047 0
M  V30 5289 H 523.908 -5.27659 2.45086 0
M  V30 5290 H 522.788 -6.63655 4.1777 0
M  V30 5291 N 520.291 -0.0518155 -1.57515 0
M  V30 5292 C 521.707 0.304735 -1.56664 0
M  V30 5293 C 521.907 1.71395 -1.05953 0
M  V30 5294 O 520.963 2.42123 -0.716414 0
M  V30 5295 C 522.276 0.132614 -3.00407 0
M  V30 5296 C 523.824 0.20367 -3.12337 0
M  V30 5297 C 524.299 0.0600706 -4.57961 0
M  V30 5298 N 525.79 0.116326 -4.63054 0
M  V30 5299 C 526.525 0.0293363 -5.73392 0
M  V30 5300 N 526.021 -0.110038 -6.92713 0
M  V30 5301 N 527.814 0.0849651 -5.62036 0
M  V30 5302 H 519.965 -0.973056 -1.888 0
M  V30 5303 H 522.228 -0.377781 -0.869474 0
M  V30 5304 H 521.934 -0.839019 -3.41546 0
M  V30 5305 H 521.808 0.893376 -3.66468 0
M  V30 5306 H 524.195 1.16578 -2.71097 0
M  V30 5307 H 524.276 -0.587857 -2.48954 0
M  V30 5308 H 523.92 -0.898715 -4.99886 0
M  V30 5309 H 523.85 0.87075 -5.19351 0
M  V30 5310 H 526.341 0.22327 -3.7724 0
M  V30 5311 H 526.654 -0.169104 -7.72615 0
M  V30 5312 H 524.999 -0.145132 -6.94848 0
M  V30 5313 H 528.19 0.192411 -4.67704 0
M  V30 5314 H 528.363 0.0137131 -6.47999 0
M  V30 5315 N 521.769 1.56035 0.221574 0
M  V30 5316 C 523.017 1.78693 0.944102 0
M  V30 5317 C 523.338 0.620317 1.8487 0
M  V30 5318 O 522.608 -0.362784 1.92512 0
M  V30 5319 H 521.188 0.659082 0.351597 0
M  V30 5320 H 523.85 1.93497 0.233435 0
M  V30 5321 H 522.946 2.70837 1.55093 0
M  V30 5322 N 523.247 -0.488276 1.49845 0
M  V30 5323 C 524.658 -1.06955 1.53028 0
M  V30 5324 C 525.009 -1.9351 0.323797 0
M  V30 5325 O 524.134 -2.08891 -0.565116 0
M  V30 5326 C 524.729 -1.94643 2.77307 0
M  V30 5327 C 523.288 -2.4791 2.83227 0
M  V30 5328 C 522.435 -1.25833 2.47106 0
M  V30 5329 H 525.386 -0.271626 1.56358 0
M  V30 5330 H 525.407 -2.79496 2.5819 0
M  V30 5331 H 524.919 -1.31621 3.65099 0
M  V30 5332 H 523.02 -3.14535 1.99745 0
M  V30 5333 H 523.133 -2.84193 3.85709 0
M  V30 5334 H 521.497 -1.58764 1.99163 0
M  V30 5335 H 522.28 -0.644993 3.37186 0
M  V30 5336 N 524.725 -1.39134 -0.740242 0
M  V30 5337 C 525.973 -1.35803 -1.49673 0
M  V30 5338 C 526.294 0.0470897 -1.94943 0
M  V30 5339 O 525.564 0.997347 -1.68611 0
M  V30 5340 H 524.144 -0.499736 -0.555224 0
M  V30 5341 H 526.806 -1.73947 -0.879107 0
M  V30 5342 H 525.902 -2.0174 -2.38133 0
M  V30 5343 N 526.204 0.969867 -1.24223 0
M  V30 5344 C 527.444 1.72754 -1.0925 0
M  V30 5345 C 527.808 1.88541 0.362787 0
M  V30 5346 O 529.009 2.61217 0.633969 0
M  V30 5347 C 527.28 3.08204 -1.80957 0
M  V30 5348 S 528.839 3.99418 -1.81688 0
M  V30 5349 H 525.657 0.593981 -0.390778 0
M  V30 5350 H 528.259 1.15792 -1.5752 0
M  V30 5351 H 526.963 2.94372 -2.85961 0
M  V30 5352 H 526.494 3.70232 -1.33012 0
M  V30 5353 H 528.509 4.8828 -0.883001 0
M  V30 5354 N 527.682 1.05563 1.17022 0
M  V30 5355 C 528.959 0.68165 1.83338 0
M  V30 5356 C 529.339 -0.837665 1.93769 0
M  V30 5357 O 528.687 -1.74507 1.47511 0
M  V30 5358 C 528.897 1.375 3.20772 0
M  V30 5359 C 530.245 1.51545 3.96635 0
M  V30 5360 O 531.269 1.33431 3.30264 0
M  V30 5361 O 530.128 1.812 5.15586 0
M  V30 5362 H 527.222 0.240412 0.791285 0
M  V30 5363 H 529.768 1.15545 1.24288 0
M  V30 5364 H 528.54 2.41135 3.08171 0
M  V30 5365 H 528.163 0.890798 3.87493 0
M  V30 5366 N 529.16 -1.33526 0.837174 0
M  V30 5367 C 530.07 -2.33023 0.271568 0
M  V30 5368 C 531.086 -1.63272 -0.601514 0
M  V30 5369 O 532.262 -1.94939 -0.506038 0
M  V30 5370 C 529.327 -3.42382 -0.545448 0
M  V30 5371 C 528.388 -4.27857 0.351709 0
M  V30 5372 C 527.621 -5.31994 -0.426409 0
M  V30 5373 O 527.844 -5.45763 -1.65828 0
M  V30 5374 O 526.778 -6.01572 0.1987 0
M  V30 5375 H 530.604 -2.83256 1.09545 0
M  V30 5376 H 528.189 -1.36837 0.599655 0
M  V30 5377 H 530.071 -4.09122 -1.00979 0
M  V30 5378 H 528.746 -2.94369 -1.34641 0
M  V30 5379 H 527.653 -3.6399 0.863853 0
M  V30 5380 H 528.986 -4.79349 1.1174 0
M  V30 5381 N 530.638 -0.59345 -1.46 0
M  V30 5382 C 531.568 0.121192 -2.33185 0
M  V30 5383 C 532.549 0.872977 -1.4599 0
M  V30 5384 O 533.734 0.846321 -1.74789 0
M  V30 5385 C 530.864 1.12844 -3.28456 0
M  V30 5386 C 529.818 0.4908 -4.25177 0
M  V30 5387 C 529.144 1.60529 -5.10034 0
M  V30 5388 C 530.444 -0.578949 -5.19081 0
M  V30 5389 H 532.138 -0.606767 -2.93187 0
M  V30 5390 H 529.684 -0.293242 -1.40983 0
M  V30 5391 H 531.637 1.63684 -3.88311 0
M  V30 5392 H 530.361 1.88681 -2.66584 0
M  V30 5393 H 529.02 0.00339328 -3.666 0
M  V30 5394 H 528.668 2.35359 -4.44539 0
M  V30 5395 H 528.368 1.18422 -5.75543 0
M  V30 5396 H 529.892 2.11623 -5.72755 0
M  V30 5397 H 531.306 -0.155199 -5.7309 0
M  V30 5398 H 529.703 -0.920947 -5.92991 0
M  V30 5399 H 530.773 -1.46109 -4.62364 0
M  V30 5400 N 532.116 1.54067 -0.331816 0
M  V30 5401 C 533.393 1.92915 0.322955 0
M  V30 5402 C 533.773 1.26225 1.69205 0
M  V30 5403 O 533.121 0.408919 2.24811 0
M  V30 5404 C 533.331 3.46619 0.406946 0
M  V30 5405 C 534.679 4.19386 0.663339 0
M  V30 5406 O 535.703 3.5282 0.489536 0
M  V30 5407 O 534.562 5.37288 0.999193 0
M  V30 5408 H 531.656 0.805808 0.186016 0
M  V30 5409 H 534.202 1.65342 -0.382135 0
M  V30 5410 H 532.974 3.87354 -0.554287 0
M  V30 5411 H 532.597 3.80324 1.15929 0
M  V30 5412 N 533.594 0.0601682 1.57485 0
M  V30 5413 C 534.834 -0.615384 1.94916 0
M  V30 5414 C 535.198 -1.67475 0.938948 0
M  V30 5415 O 536.399 -2.40502 1.20051 0
M  V30 5416 C 534.67 -1.18788 3.37082 0
M  V30 5417 S 536.229 -1.88018 3.96478 0
M  V30 5418 H 533.047 -0.201821 0.681754 0
M  V30 5419 H 535.649 0.131252 1.95059 0
M  V30 5420 H 534.353 -0.404869 4.08398 0
M  V30 5421 H 533.884 -1.97114 3.40455 0
M  V30 5422 H 535.899 -3.16161 3.82435 0
M  V30 5423 N 535.072 -1.5615 -0.213296 0
M  V30 5424 C 536.32 -1.79191 -0.934612 0
M  V30 5425 C 536.641 -0.630112 -1.84539 0
M  V30 5426 O 535.911 0.35257 -1.92701 0
M  V30 5427 H 534.491 -0.660937 -0.348097 0
M  V30 5428 H 537.153 -1.93618 -0.22317 0
M  V30 5429 H 536.249 -2.71656 -1.53654 0
M  V30 5430 N 536.55 0.480323 -1.50102 0
M  V30 5431 C 537.961 1.06142 -1.53593 0
M  V30 5432 C 538.312 1.93335 -0.334055 0
M  V30 5433 O 537.437 2.09188 0.55403 0
M  V30 5434 C 538.032 1.9317 -2.78336 0
M  V30 5435 C 536.591 2.46405 -2.84538 0
M  V30 5436 C 535.738 1.24521 -2.4777 0
M  V30 5437 H 538.689 0.26333 -1.565 0
M  V30 5438 H 538.71 2.78123 -2.59669 0
M  V30 5439 H 538.222 1.29683 -3.65792 0
M  V30 5440 H 536.323 3.13472 -2.01411 0
M  V30 5441 H 536.436 2.82143 -3.87211 0
M  V30 5442 H 534.8 1.57706 -2.00003 0
M  V30 5443 H 535.583 0.627102 -3.37524 0
M  V30 5444 N 538.028 1.39524 0.732853 0
M  V30 5445 C 539.253 1.40329 1.52717 0
M  V30 5446 C 539.678 0.000286574 1.881 0
M  V30 5447 O 539.036 -0.987262 1.52062 0
M  V30 5448 C 539.084 2.28464 2.78992 0
M  V30 5449 O 538.188 1.716 3.75003 0
M  V30 5450 H 537.529 0.47778 0.461109 0
M  V30 5451 H 540.059 1.83546 0.903996 0
M  V30 5452 H 540.069 2.43051 3.27705 0
M  V30 5453 H 538.744 3.30425 2.52572 0
M  V30 5454 H 537.321 1.66267 3.33781 0
M  V30 5455 N 539.506 -0.963266 1.24736 0
M  V30 5456 C 540.454 -2.07985 1.04139 0
M  V30 5457 C 541.448 -1.69381 -0.0250556 0
M  V30 5458 O 542.654 -1.79531 0.129863 0
M  V30 5459 H 539.029 -0.680627 0.319768 0
M  V30 5460 H 541 -2.22517 1.98818 0
M  V30 5461 C 539.749 -3.4123 0.667615 0
M  V30 5462 H 539.072 -3.71397 1.48 0
M  V30 5463 H 540.512 -4.20244 0.563136 0
M  V30 5464 C 538.971 -3.3104 -0.625647 0
M  V30 5465 O 539.501 -3.65334 -1.67016 0
M  V30 5466 N 537.707 -2.84168 -0.608033 0
M  V30 5467 H 537.254 -2.56458 0.242323 0
M  V30 5468 H 537.212 -2.77732 -1.47352 0
M  V30 5469 N 540.985 -1.06182 -1.16461 0
M  V30 5470 C 542.225 -0.787048 -1.8864 0
M  V30 5471 C 542.589 0.674093 -1.79778 0
M  V30 5472 O 543.79 1.06341 -2.46871 0
M  V30 5473 C 542.061 -1.2666 -3.34203 0
M  V30 5474 S 543.62 -1.12071 -4.24247 0
M  V30 5475 H 540.438 -0.285539 -0.651144 0
M  V30 5476 H 543.04 -1.35851 -1.40587 0
M  V30 5477 H 541.744 -2.32496 -3.38192 0
M  V30 5478 H 541.275 -0.689841 -3.87304 0
M  V30 5479 H 543.29 -0.0509341 -4.96174 0
M  V30 5480 N 542.463 1.3308 -0.844243 0
M  V30 5481 C 543.688 2.02341 -0.455282 0
M  V30 5482 C 544.113 1.6308 0.93737 0
M  V30 5483 O 543.471 0.826118 1.61385 0
M  V30 5484 C 543.519 3.55743 -0.58988 0
M  V30 5485 O 542.623 4.1063 0.38166 0
M  V30 5486 H 541.964 0.637898 -0.184343 0
M  V30 5487 H 544.494 1.6986 -1.14056 0
M  V30 5488 H 544.504 4.05243 -0.473522 0
M  V30 5489 H 543.179 3.83662 -1.60549 0
M  V30 5490 H 541.756 3.72236 0.22241 0
M  V30 5491 N 543.941 0.601185 1.45683 0
M  V30 5492 C 544.873 -0.159446 2.28645 0
M  V30 5493 C 545.886 -0.837882 1.39583 0
M  V30 5494 O 547.075 -0.704344 1.64016 0
M  V30 5495 C 544.175 -1.24641 3.15147 0
M  V30 5496 C 543.348 -0.656334 4.32448 0
M  V30 5497 C 542.407 -1.63337 5.00208 0
M  V30 5498 O 541.433 -1.16217 5.57209 0
M  V30 5499 N 542.635 -2.96773 4.98905 0
M  V30 5500 H 545.4 0.5524 2.94565 0
M  V30 5501 H 542.961 0.440223 1.558 0
M  V30 5502 H 544.953 -1.8997 3.57342 0
M  V30 5503 H 543.523 -1.86087 2.51178 0
M  V30 5504 H 542.743 0.174879 3.93812 0
M  V30 5505 H 544.031 -0.242211 5.08223 0
M  V30 5506 H 543.429 -3.37662 4.53873 0
M  V30 5507 H 541.986 -3.57541 5.44984 0
M  V30 5508 N 545.419 -1.53889 0.339982 0
M  V30 5509 C 546.369 -2.2165 -0.534354 0
M  V30 5510 C 547.353 -1.20266 -1.06887 0
M  V30 5511 O 548.545 -1.45827 -1.00316 0
M  V30 5512 C 545.674 -2.99014 -1.68659 0
M  V30 5513 C 544.76 -4.07751 -1.16618 0
M  V30 5514 N 545.151 -5.04469 -0.366717 0
M  V30 5515 C 543.449 -4.21998 -1.4434 0
M  V30 5516 C 544.15 -5.81638 -0.0847275 0
M  V30 5517 N 543.126 -5.39388 -0.675391 0
M  V30 5518 H 546.928 -2.93781 0.0835562 0
M  V30 5519 H 544.442 -1.61736 0.146665 0
M  V30 5520 H 546.439 -3.46056 -2.32489 0
M  V30 5521 H 545.099 -2.28408 -2.30781 0
M  V30 5522 H 546.11 -5.17899 -0.00811038 0
M  V30 5523 H 542.787 -3.62612 -2.06928 0
M  V30 5524 H 544.177 -6.69563 0.559943 0
M  V30 5525 N 546.897 -0.0685191 -1.57451 0
M  V30 5526 C 548.145 0.60016 -1.92983 0
M  V30 5527 C 548.466 1.70348 -0.949028 0
M  V30 5528 O 547.736 1.959 0.00335647 0
M  V30 5529 H 546.316 0.224682 -0.712409 0
M  V30 5530 H 548.978 -0.125605 -1.94495 0
M  V30 5531 H 548.074 1.02759 -2.94698 0
M  V30 5532 N 548.375 1.56261 0.205012 0
M  V30 5533 C 549.305 1.96779 1.257 0
M  V30 5534 C 550.286 0.838309 1.48008 0
M  V30 5535 O 551.471 1.10189 1.59913 0
M  V30 5536 C 548.601 2.29876 2.60335 0
M  V30 5537 C 547.555 3.45469 2.52656 0
M  V30 5538 C 546.881 3.64215 3.91473 0
M  V30 5539 C 548.181 4.79954 2.06014 0
M  V30 5540 H 549.875 2.84904 0.920338 0
M  V30 5541 H 547.421 1.37072 0.441277 0
M  V30 5542 H 549.374 2.56814 3.34102 0
M  V30 5543 H 548.098 1.38622 2.95722 0
M  V30 5544 H 546.757 3.18605 1.81345 0
M  V30 5545 H 546.405 2.70309 4.24196 0
M  V30 5546 H 546.105 4.41973 3.87213 0
M  V30 5547 H 547.629 3.93519 4.66878 0
M  V30 5548 H 549.043 5.05989 2.69533 0
M  V30 5549 H 547.44 5.61111 2.12777 0
M  V30 5550 H 548.51 4.74201 1.01297 0
M  V30 5551 N 549.853 -0.472356 1.50355 0
M  V30 5552 C 551.093 -1.23439 1.62918 0
M  V30 5553 C 551.457 -1.89284 0.321801 0
M  V30 5554 O 552.658 -2.66854 0.322852 0
M  V30 5555 C 550.929 -2.25119 2.7759 0
M  V30 5556 S 552.488 -3.10278 3.10279 0
M  V30 5557 H 549.306 -0.41911 0.574341 0
M  V30 5558 H 551.908 -0.531621 1.88133 0
M  V30 5559 H 550.612 -1.75324 3.71066 0
M  V30 5560 H 550.143 -3.00026 2.54457 0
M  V30 5561 H 552.158 -4.26257 2.54007 0
M  V30 5562 N 551.331 -1.39911 -0.725443 0
M  V30 5563 C 552.559 -1.40949 -1.51463 0
M  V30 5564 C 552.974 -0.0065242 -1.88799 0
M  V30 5565 O 552.331 0.967163 -1.54765 0
M  V30 5566 C 552.382 -2.29119 -2.79619 0
M  V30 5567 O 552.103 -3.63952 -2.43866 0
M  V30 5568 C 553.604 -2.38642 -3.73584 0
M  V30 5569 H 550.824 -0.481091 -0.467752 0
M  V30 5570 H 553.368 -1.83843 -0.895651 0
M  V30 5571 H 551.523 -1.89612 -3.37826 0
M  V30 5572 H 551.937 -4.10677 -3.26258 0
M  V30 5573 H 553.411 -3.04563 -4.60375 0
M  V30 5574 H 553.888 -1.40846 -4.16004 0
M  V30 5575 H 554.494 -2.78659 -3.21293 0
M  V30 5576 N 552.809 0.956637 -1.25245 0
M  V30 5577 C 553.719 2.0868 -1.0719 0
M  V30 5578 C 554.735 1.73997 -0.00959074 0
M  V30 5579 O 555.911 2.00301 -0.210104 0
M  V30 5580 C 552.976 3.39754 -0.690526 0
M  V30 5581 C 552.037 3.88316 -1.83055 0
M  V30 5582 C 551.27 5.13134 -1.46728 0
M  V30 5583 O 551.493 5.6925 -0.362029 0
M  V30 5584 O 550.427 5.56356 -2.29677 0
M  V30 5585 H 554.253 2.26813 -2.01965 0
M  V30 5586 H 551.838 1.07098 -1.04165 0
M  V30 5587 H 553.72 4.18543 -0.489871 0
M  V30 5588 H 552.395 3.22896 0.227981 0
M  V30 5589 H 551.302 3.1054 -2.08604 0
M  V30 5590 H 552.635 4.09669 -2.72822 0
M  V30 5591 N 554.287 1.06798 1.15896 0
M  V30 5592 C 555.515 0.808694 1.90441 0
M  V30 5593 C 555.93 -0.637506 1.77711 0
M  V30 5594 O 555.287 -1.43684 1.12522 0
M  V30 5595 C 555.338 1.20068 3.40978 0
M  V30 5596 O 555.059 2.59013 3.53333 0
M  V30 5597 C 556.56 0.96987 4.3256 0
M  V30 5598 H 553.78 0.292809 0.603742 0
M  V30 5599 H 556.324 1.42296 1.46874 0
M  V30 5600 H 554.479 0.630842 3.82229 0
M  V30 5601 H 554.893 2.7485 4.46719 0
M  V30 5602 H 556.367 1.29371 5.36626 0
M  V30 5603 H 556.844 -0.0941209 4.39099 0
M  V30 5604 H 557.45 1.52433 3.97044 0
M  V30 5605 N 555.766 -1.3263 0.851289 0
M  V30 5606 C 557.014 -1.96978 0.452128 0
M  V30 5607 C 557.335 -1.67715 -0.99482 0
M  V30 5608 O 556.605 -0.98259 -1.69476 0
M  V30 5609 H 555.185 -0.72873 0.164202 0
M  V30 5610 H 557.847 -1.61774 1.08698 0
M  V30 5611 H 556.943 -3.06387 0.594407 0
M  V30 5612 N 557.244 -0.608902 -1.45362 0
M  V30 5613 C 558.484 -0.10763 -2.04116 0
M  V30 5614 C 558.848 1.23883 -1.46686 0
M  V30 5615 O 560.049 1.83091 -1.96803 0
M  V30 5616 C 558.32 -0.0703351 -3.57331 0
M  V30 5617 S 559.879 0.369554 -4.37241 0
M  V30 5618 H 556.697 -0.0502123 -0.709225 0
M  V30 5619 H 559.299 -0.8073 -1.78053 0
M  V30 5620 H 558.003 -1.05379 -3.9664 0
M  V30 5621 H 557.534 0.651287 -3.87971 0
M  V30 5622 H 559.549 1.61878 -4.69052 0
M  V30 5623 N 558.722 1.53707 -0.348139 0
M  V30 5624 C 560.138 1.596 0.00361134 0
M  V30 5625 C 560.338 1.36394 1.4832 0
M  V30 5626 O 559.394 1.16046 2.24253 0
M  V30 5627 C 560.707 2.97512 -0.436682 0
M  V30 5628 C 562.255 3.10568 -0.389416 0
M  V30 5629 C 562.73 4.50866 -0.805249 0
M  V30 5630 N 564.221 4.56929 -0.759616 0
M  V30 5631 C 564.956 5.63643 -1.05327 0
M  V30 5632 N 564.452 6.78189 -1.41531 0
M  V30 5633 N 566.245 5.5354 -0.977207 0
M  V30 5634 H 558.396 1.67044 -1.31187 0
M  V30 5635 H 560.659 0.782559 -0.535075 0
M  V30 5636 H 560.365 3.19575 -1.46849 0
M  V30 5637 H 560.239 3.76742 0.185744 0
M  V30 5638 H 562.626 2.88226 0.633228 0
M  V30 5639 H 562.707 2.33387 -1.04711 0
M  V30 5640 H 562.351 4.73943 -1.82593 0
M  V30 5641 H 562.281 5.26452 -0.124989 0
M  V30 5642 H 564.772 3.74675 -0.49265 0
M  V30 5643 H 565.085 7.55541 -1.62411 0
M  V30 5644 H 563.43 6.79624 -1.45381 0
M  V30 5645 H 566.621 4.62932 -0.693675 0
M  V30 5646 H 566.794 6.36614 -1.2094 0
M  V30 5647 N 560.2 0.0768682 1.57412 0
M  V30 5648 C 561.44 -0.594676 1.95558 0
M  V30 5649 C 561.804 -1.66469 0.956658 0
M  V30 5650 O 563.005 -2.39215 1.22595 0
M  V30 5651 C 561.276 -1.15206 3.38323 0
M  V30 5652 S 562.835 -1.83803 3.9845 0
M  V30 5653 H 559.653 -0.194579 0.683857 0
M  V30 5654 H 562.255 0.151933 1.94909 0
M  V30 5655 H 560.959 -0.36153 4.08805 0
M  V30 5656 H 560.49 -1.93491 3.42527 0
M  V30 5657 H 562.505 -3.12087 3.85767 0
M  V30 5658 N 561.678 -1.56367 -0.196722 0
M  V30 5659 C 562.955 -1.71359 -0.943159 0
M  V30 5660 C 563.335 -0.631192 -2.01443 0
M  V30 5661 O 562.683 0.358071 -2.25677 0
M  V30 5662 C 562.893 -3.13623 -1.53106 0
M  V30 5663 C 564.241 -3.73806 -2.01381 0
M  V30 5664 O 565.265 -3.16742 -1.62951 0
M  V30 5665 O 564.124 -4.73951 -2.7209 0
M  V30 5666 H 561.218 -0.698851 -0.442195 0
M  V30 5667 H 563.764 -1.68672 -0.186547 0
M  V30 5668 H 562.536 -3.83873 -0.758785 0
M  V30 5669 H 562.159 -3.20532 -2.35255 0
M  V30 5670 N 563.156 0.464375 -1.50603 0
M  V30 5671 C 564.119 1.54393 -1.69397 0
M  V30 5672 C 565.119 1.50566 -0.564504 0
M  V30 5673 O 566.309 1.53066 -0.831645 0
M  V30 5674 C 563.441 2.9401 -1.72543 0
M  V30 5675 H 564.634 1.39044 -2.65719 0
M  V30 5676 H 562.187 0.69122 -1.40185 0
M  V30 5677 H 562.922 3.14795 -0.77938 0
M  V30 5678 H 562.707 2.98195 -2.54602 0
M  V30 5679 H 564.197 3.72375 -1.89015 0
M  V30 5680 N 564.634 1.40294 0.718013 0
M  V30 5681 C 565.882 1.38167 1.47494 0
M  V30 5682 C 566.203 -0.01607 1.94993 0
M  V30 5683 O 565.473 -0.970396 1.70177 0
M  V30 5684 H 564.053 0.508505 0.547203 0
M  V30 5685 H 566.715 1.75324 0.851322 0
M  V30 5686 H 565.811 2.05503 2.34894 0
M  V30 5687 N 566.112 -0.949982 1.2575 0
M  V30 5688 C 567.358 -1.69822 1.11947 0
M  V30 5689 C 567.713 -1.89455 -0.335334 0
M  V30 5690 O 567.006 -1.45778 -1.24336 0
M  V30 5691 C 567.2 -3.08039 1.81237 0
M  V30 5692 C 567.029 -3.0189 3.33305 0
M  V30 5693 C 565.799 -3.05391 4.02573 0
M  V30 5694 C 567.997 -2.827 4.29634 0
M  V30 5695 N 565.979 -2.89449 5.4138 0
M  V30 5696 C 567.35 -2.75237 5.55558 0
M  V30 5697 C 569.405 -2.67416 4.19992 0
M  V30 5698 C 568.108 -2.54051 6.72942 0
M  V30 5699 C 570.134 -2.47602 5.37073 0
M  V30 5700 C 569.496 -2.40863 6.6194 0
M  V30 5701 H 565.595 -0.629188 0.464378 0
M  V30 5702 H 568.179 -1.1249 1.58916 0
M  V30 5703 H 566.35 -3.63528 1.36756 0
M  V30 5704 H 568.082 -3.71671 1.60134 0
M  V30 5705 H 564.837 -3.14763 3.53866 0
M  V30 5706 H 565.261 -2.84669 6.14241 0
M  V30 5707 H 569.903 -2.71398 3.24196 0
M  V30 5708 H 567.621 -2.48811 7.68842 0
M  V30 5709 H 571.207 -2.36694 5.31477 0
M  V30 5710 H 570.087 -2.25732 7.51009 0
M  V30 5711 N 567.59 -1.07411 -1.15328 0
M  V30 5712 C 568.818 -0.818782 -1.90009 0
M  V30 5713 C 569.233 0.628072 -1.78047 0
M  V30 5714 O 568.59 1.43085 -1.13282 0
M  V30 5715 C 568.641 -1.21874 -3.40337 0
M  V30 5716 O 568.362 -2.60883 -3.51954 0
M  V30 5717 C 569.863 -0.992796 -4.3204 0
M  V30 5718 H 567.083 -0.296007 -0.60218 0
M  V30 5719 H 569.627 -1.43073 -1.46117 0
M  V30 5720 H 567.782 -0.651103 -3.81889 0
M  V30 5721 H 568.196 -2.77216 -4.45255 0
M  V30 5722 H 569.67 -1.32215 -5.35932 0
M  V30 5723 H 570.147 0.0708331 -4.39143 0
M  V30 5724 H 570.753 -1.54537 -3.9623 0
M  V30 5725 N 569.068 1.32177 -0.85831 0
M  V30 5726 C 570.316 1.96735 -0.462568 0
M  V30 5727 C 570.637 1.6824 0.985911 0
M  V30 5728 O 569.907 0.991564 1.68952 0
M  V30 5729 H 568.487 0.727849 -0.168064 0
M  V30 5730 H 571.149 1.61195 -1.09554 0
M  V30 5731 H 570.245 3.06068 -0.610647 0
M  V30 5732 N 570.547 0.616602 1.45037 0
M  V30 5733 C 571.772 0.120192 2.07051 0
M  V30 5734 C 572.197 -1.19008 1.45666 0
M  V30 5735 O 571.555 -1.7267 0.552692 0
M  V30 5736 C 571.603 0.00354901 3.606 0
M  V30 5737 O 570.707 -1.04431 3.98958 0
M  V30 5738 H 570.048 0.0781599 0.659384 0
M  V30 5739 H 572.578 0.849167 1.86146 0
M  V30 5740 H 572.588 -0.191754 4.07549 0
M  V30 5741 H 571.263 0.960239 4.04663 0
M  V30 5742 H 569.84 -0.824749 3.63665 0
M  V30 5743 N 572.025 -1.5352 0.356285 0
M  V30 5744 C 572.973 -2.26945 -0.50978 0
M  V30 5745 C 573.967 -1.29569 -1.09125 0
M  V30 5746 O 575.173 -1.47231 -1.03552 0
M  V30 5747 H 571.548 -0.729368 -0.183102 0
M  V30 5748 H 573.519 -2.98111 0.131374 0
M  V30 5749 C 572.268 -3.06466 -1.64237 0
M  V30 5750 H 571.591 -3.81233 -1.20423 0
M  V30 5751 H 573.031 -3.61035 -2.22327 0
M  V30 5752 C 571.49 -2.16737 -2.57928 0
M  V30 5753 O 572.02 -1.77195 -3.60507 0
M  V30 5754 N 570.226 -1.81558 -2.26903 0
M  V30 5755 H 569.773 -2.13913 -1.43524 0
M  V30 5756 H 569.731 -1.21806 -2.89846 0
M  V30 5757 N 573.503 -0.0852151 -1.57369 0
M  V30 5758 C 574.743 0.584297 -1.95871 0
M  V30 5759 C 575.107 1.6596 -0.965473 0
M  V30 5760 O 576.308 2.38561 -1.23862 0
M  V30 5761 C 574.579 1.13411 -3.38929 0
M  V30 5762 S 576.138 1.81687 -3.99419 0
M  V30 5763 H 572.956 0.19095 -0.684879 0
M  V30 5764 H 575.558 -0.162267 -1.94825 0
M  V30 5765 H 574.262 0.339845 -4.0899 0
M  V30 5766 H 573.793 1.91672 -3.43548 0
M  V30 5767 H 575.808 3.10037 -3.87417 0
M  V30 5768 N 574.981 1.5647 0.188427 0
M  V30 5769 C 576.206 1.85486 0.927891 0
M  V30 5770 C 576.631 0.669575 1.75779 0
M  V30 5771 O 575.989 -0.381573 1.77239 0
M  V30 5772 C 576.037 3.12784 1.7944 0
M  V30 5773 O 575.141 2.93805 2.894 0
M  V30 5774 H 574.482 0.610585 0.260925 0
M  V30 5775 H 577.012 2.037 0.191729 0
M  V30 5776 H 577.022 3.43749 2.19774 0
M  V30 5777 H 575.697 3.98671 1.18468 0
M  V30 5778 H 574.274 2.74153 2.52774 0
M  V30 5779 N 576.459 -0.456382 1.50847 0
M  V30 5780 C 577.369 -1.57805 1.73594 0
M  V30 5781 C 578.385 -1.62599 0.619476 0
M  V30 5782 O 579.561 -1.80195 0.899532 0
M  V30 5783 C 576.626 -2.93926 1.8387 0
M  V30 5784 C 575.687 -2.99402 3.07663 0
M  V30 5785 C 574.92 -4.29031 3.1744 0
M  V30 5786 O 575.143 -5.20358 2.33631 0
M  V30 5787 O 574.077 -4.40401 4.10281 0
M  V30 5788 H 577.903 -1.41531 2.68705 0
M  V30 5789 H 575.488 -0.637422 1.3512 0
M  V30 5790 H 577.37 -3.74747 1.92725 0
M  V30 5791 H 576.045 -3.10368 0.91944 0
M  V30 5792 H 574.952 -2.17606 3.043 0
M  V30 5793 H 576.285 -2.87901 3.99216 0
M  V30 5794 N 577.937 -1.40673 -0.710563 0
M  V30 5795 C 578.847 -1.43663 -1.85467 0
M  V30 5796 C 579.863 -0.328721 -1.70867 0
M  V30 5797 O 581.039 -0.574098 -1.93044 0
M  V30 5798 C 578.104 -1.30226 -3.21313 0
M  V30 5799 C 577.165 -2.51204 -3.48131 0
M  V30 5800 C 576.398 -2.38398 -4.77495 0
M  V30 5801 O 576.621 -1.40048 -5.5294 0
M  V30 5802 O 575.555 -3.2787 -5.04762 0
M  V30 5803 H 579.381 -2.40156 -1.859 0
M  V30 5804 H 576.966 -1.22049 -0.861652 0
M  V30 5805 H 578.848 -1.2496 -4.02446 0
M  V30 5806 H 577.523 -0.368419 -3.21597 0
M  V30 5807 H 576.43 -2.62048 -2.66987 0
M  V30 5808 H 577.763 -3.43366 -3.52648 0
M  V30 5809 N 579.415 0.9433 -1.26252 0
M  V30 5810 C 580.655 1.70397 -1.1289 0
M  V30 5811 C 581.019 1.89268 0.322713 0
M  V30 5812 O 582.22 2.62503 0.578418 0
M  V30 5813 C 580.491 3.04296 -1.87453 0
M  V30 5814 S 582.05 3.95475 -1.90119 0
M  V30 5815 H 578.868 0.585559 -0.403289 0
M  V30 5816 H 581.47 1.12424 -1.59941 0
M  V30 5817 H 580.174 2.8824 -2.9214 0
M  V30 5818 H 579.705 3.67327 -1.40835 0
M  V30 5819 H 581.72 4.86297 -0.986373 0
M  V30 5820 N 580.893 1.08022 1.14757 0
M  V30 5821 C 582.304 0.829144 1.67279 0
M  V30 5822 C 582.655 -0.644721 1.85305 0
M  V30 5823 O 581.78 -1.49838 1.56133 0
M  V30 5824 C 582.375 1.49855 3.03857 0
M  V30 5825 C 580.934 1.29482 3.53428 0
M  V30 5826 C 580.081 1.56386 2.28995 0
M  V30 5827 H 583.032 1.24134 0.988762 0
M  V30 5828 H 583.053 0.923572 3.69121 0
M  V30 5829 H 582.565 2.57123 2.90705 0
M  V30 5830 H 580.666 0.242669 3.71809 0
M  V30 5831 H 580.779 2.01974 4.34446 0
M  V30 5832 H 579.143 0.985217 2.34874 0
M  V30 5833 H 579.926 2.64851 2.18423 0
M  V30 5834 N 582.371 -1.3172 0.865308 0
M  V30 5835 C 583.301 -2.31109 0.333302 0
M  V30 5836 C 584.282 -1.60148 -0.573301 0
M  V30 5837 O 585.467 -1.87882 -0.491305 0
M  V30 5838 C 582.597 -3.44104 -0.470078 0
M  V30 5839 C 581.551 -4.26623 0.343021 0
M  V30 5840 C 580.877 -5.31482 -0.585756 0
M  V30 5841 C 582.177 -4.98001 1.57456 0
M  V30 5842 H 583.871 -2.75855 1.1638 0
M  V30 5843 H 581.417 -1.3262 0.561069 0
M  V30 5844 H 583.37 -4.12682 -0.852752 0
M  V30 5845 H 582.094 -2.98112 -1.33404 0
M  V30 5846 H 580.753 -3.59707 0.707583 0
M  V30 5847 H 580.401 -4.81741 -1.44686 0
M  V30 5848 H 580.101 -5.87582 -0.0456494 0
M  V30 5849 H 581.625 -6.0292 -0.965375 0
M  V30 5850 H 583.039 -5.59201 1.26359 0
M  V30 5851 H 581.436 -5.63876 2.05339 0
M  V30 5852 H 582.506 -4.25253 2.32997 0
M  V30 5853 N 583.85 -0.624285 -1.44708 0
M  V30 5854 C 585.098 -0.125802 -2.01708 0
M  V30 5855 C 585.418 1.2543 -1.49306 0
M  V30 5856 O 584.689 1.83198 -0.693924 0
M  V30 5857 H 583.269 -0.0435161 -0.745731 0
M  V30 5858 H 585.931 -0.809446 -1.77296 0
M  V30 5859 H 585.027 -0.0882734 -3.11975 0
M  V30 5860 N 585.328 1.53329 -0.364422 0
M  V30 5861 C 586.574 2.02222 0.21855 0
M  V30 5862 C 586.929 1.24702 1.46517 0
M  V30 5863 O 586.222 0.331969 1.88702 0
M  V30 5864 C 586.416 3.52911 0.564661 0
M  V30 5865 C 586.245 4.45023 -0.646862 0
M  V30 5866 C 585.015 4.91838 -1.15858 0
M  V30 5867 C 587.213 4.91581 -1.51172 0
M  V30 5868 N 585.195 5.67955 -2.33025 0
M  V30 5869 C 586.566 5.66028 -2.53006 0
M  V30 5870 C 588.621 4.73656 -1.53473 0
M  V30 5871 C 587.324 6.24457 -3.56996 0
M  V30 5872 C 589.35 5.3295 -2.56356 0
M  V30 5873 C 588.712 6.07282 -3.56914 0
M  V30 5874 H 584.811 0.780832 0.0427199 0
M  V30 5875 H 587.395 1.87937 -0.508704 0
M  V30 5876 H 585.566 3.6736 1.26099 0
M  V30 5877 H 587.298 3.88528 1.13262 0
M  V30 5878 H 584.053 4.68043 -0.723393 0
M  V30 5879 H 584.477 6.10675 -2.92241 0
M  V30 5880 H 589.119 4.15714 -0.770842 0
M  V30 5881 H 586.837 6.81496 -4.34268 0
M  V30 5882 H 590.423 5.20976 -2.58989 0
M  V30 5883 H 589.303 6.52345 -4.35218 0
M  V30 5884 N 586.806 0.0935595 1.57322 0
M  V30 5885 C 587.756 -0.876521 2.10478 0
M  V30 5886 C 588.74 -1.24482 1.01946 0
M  V30 5887 O 589.932 -1.22016 1.28223 0
M  V30 5888 C 587.061 -2.13615 2.68745 0
M  V30 5889 C 586.147 -1.79335 3.84317 0
M  V30 5890 N 586.538 -1.15606 4.92411 0
M  V30 5891 C 584.836 -2.08954 3.94023 0
M  V30 5892 C 585.537 -0.999036 5.73057 0
M  V30 5893 N 584.513 -1.51585 5.22037 0
M  V30 5894 H 588.315 -0.379829 2.91435 0
M  V30 5895 H 585.829 -0.109699 1.62029 0
M  V30 5896 H 587.826 -2.84053 3.05155 0
M  V30 5897 H 586.486 -2.63851 1.89242 0
M  V30 5898 H 587.497 -0.823063 5.11318 0
M  V30 5899 H 584.174 -2.61416 3.25527 0
M  V30 5900 H 585.564 -0.500772 6.70031 0
M  V30 5901 N 588.284 -1.56567 -0.180126 0
M  V30 5902 C 589.532 -1.81133 -0.896392 0
M  V30 5903 C 589.853 -0.669114 -1.83161 0
M  V30 5904 O 589.123 0.311616 -1.93406 0
M  V30 5905 H 587.703 -0.668172 -0.333999 0
M  V30 5906 H 590.365 -1.94048 -0.182051 0
M  V30 5907 H 589.461 -2.74854 -1.47857 0
M  V30 5908 N 589.762 0.448376 -1.51087 0
M  V30 5909 C 591.173 1.0286 -1.5581 0
M  V30 5910 C 591.524 1.92583 -0.374989 0
M  V30 5911 O 590.649 2.10316 0.509533 0
M  V30 5912 C 591.244 1.87223 -2.8237 0
M  V30 5913 C 589.803 2.40314 -2.897 0
M  V30 5914 C 588.95 1.19238 -2.50355 0
M  V30 5915 H 591.901 0.230075 -1.57023 0
M  V30 5916 H 591.922 2.72553 -2.6551 0
M  V30 5917 H 591.434 1.21894 -3.68461 0
M  V30 5918 H 589.535 3.09129 -2.08014 0
M  V30 5919 H 589.648 2.73866 -3.93108 0
M  V30 5920 H 588.012 1.53428 -2.03303 0
M  V30 5921 H 588.795 0.555367 -3.38778 0
M  V30 5922 N 591.24 1.41047 0.703093 0
M  V30 5923 C 592.488 1.39723 1.4602 0
M  V30 5924 C 592.809 0.00461257 1.94999 0
M  V30 5925 O 592.079 -0.952292 1.71196 0
M  V30 5926 H 590.659 0.514281 0.541779 0
M  V30 5927 H 593.321 1.76217 0.832678 0
M  V30 5928 H 592.417 2.07982 2.32701 0
M  V30 5929 N 592.718 -0.936591 1.26751 0
M  V30 5930 C 593.958 -1.69796 1.13792 0
M  V30 5931 C 594.322 -1.89437 -0.312671 0
M  V30 5932 O 595.523 -2.62806 -0.564489 0
M  V30 5933 C 593.794 -3.03297 1.89065 0
M  V30 5934 S 595.353 -3.94461 1.92214 0
M  V30 5935 H 592.171 -0.583412 0.406389 0
M  V30 5936 H 594.773 -1.11575 1.60535 0
M  V30 5937 H 593.477 -2.86687 2.93665 0
M  V30 5938 H 593.008 -3.66575 1.42781 0
M  V30 5939 H 595.023 -4.85767 1.01215 0
M  V30 5940 N 594.196 -1.08629 -1.14182 0
M  V30 5941 C 595.128 -0.676189 -2.18998 0
M  V30 5942 C 596.141 0.277871 -1.60411 0
M  V30 5943 O 597.33 0.0651771 -1.78381 0
M  V30 5944 C 594.43 0.0254916 -3.3889 0
M  V30 5945 C 593.603 -0.948039 -4.27002 0
M  V30 5946 C 592.662 -0.281268 -5.25448 0
M  V30 5947 O 591.688 -0.926378 -5.61611 0
M  V30 5948 N 592.89 0.967923 -5.72374 0
M  V30 5949 H 595.655 -1.57792 -2.54798 0
M  V30 5950 H 593.216 -0.972665 -1.29425 0
M  V30 5951 H 595.208 0.482554 -4.01813 0
M  V30 5952 H 593.778 0.829348 -3.01398 0
M  V30 5953 H 592.998 -1.58388 -3.6098 0
M  V30 5954 H 594.286 -1.60765 -4.82734 0
M  V30 5955 H 593.684 1.51175 -5.45126 0
M  V30 5956 H 592.241 1.36844 -6.37273 0
M  V30 5957 N 595.674 1.31259 -0.872281 0
M  V30 5958 C 597.09 1.49283 -0.564521 0
M  V30 5959 C 597.29 1.80243 0.900807 0
M  V30 5960 O 596.346 1.88246 1.68284 0
M  V30 5961 C 597.659 2.62503 -1.46673 0
M  V30 5962 C 599.207 2.76386 -1.46901 0
M  V30 5963 C 599.682 3.92705 -2.35684 0
M  V30 5964 N 601.173 3.99995 -2.33577 0
M  V30 5965 C 601.908 4.89276 -2.98992 0
M  V30 5966 N 601.404 5.83443 -3.73585 0
M  V30 5967 N 603.197 4.82541 -2.88289 0
M  V30 5968 H 595.348 1.09432 -1.82039 0
M  V30 5969 H 597.611 0.540949 -0.77851 0
M  V30 5970 H 597.317 2.46407 -2.50951 0
M  V30 5971 H 597.191 3.58695 -1.16696 0
M  V30 5972 H 599.578 2.91894 -0.433796 0
M  V30 5973 H 599.659 1.80853 -1.80903 0
M  V30 5974 H 599.303 3.77954 -3.39283 0
M  V30 5975 H 599.233 4.87549 -1.99006 0
M  V30 5976 H 601.724 3.32624 -1.7936 0
M  V30 5977 H 602.037 6.48303 -4.20622 0
M  V30 5978 H 600.382 5.83415 -3.77694 0
M  V30 5979 H 603.573 4.07951 -2.2955 0
M  V30 5980 H 603.746 5.51916 -3.39549 0
M  V30 5981 N 597.152 0.631951 1.44375 0
M  V30 5982 C 598.563 0.219036 1.85411 0
M  V30 5983 C 598.914 -1.22974 1.52879 0
M  V30 5984 O 598.039 -1.93579 0.967266 0
M  V30 5985 C 598.634 0.39075 3.36539 0
M  V30 5986 C 597.193 0.0323351 3.76386 0
M  V30 5987 C 596.34 0.703744 2.68221 0
M  V30 5988 H 599.291 0.837056 1.3483 0
M  V30 5989 H 599.312 -0.370056 3.78696 0
M  V30 5990 H 598.824 1.44527 3.60185 0
M  V30 5991 H 596.925 -1.02042 3.58355 0
M  V30 5992 H 597.038 0.442969 4.77048 0
M  V30 5993 H 595.402 0.138974 2.54321 0
M  V30 5994 H 596.185 1.76088 2.947 0
M  V30 5995 N 598.631 -1.53133 0.372548 0
M  V30 5996 C 599.871 -2.03267 -0.214943 0
M  V30 5997 C 600.235 -1.25362 -1.45425 0
M  V30 5998 O 601.436 -1.65536 -2.11781 0
M  V30 5999 C 599.707 -3.53985 -0.492897 0
M  V30 6000 S 601.266 -4.25977 -1.05307 0
M  V30 6001 H 598.084 -0.708289 -0.062029 0
M  V30 6002 H 600.686 -1.88539 0.517025 0
M  V30 6003 H 599.39 -4.08282 0.416442 0
M  V30 6004 H 598.921 -3.72887 -1.25375 0
M  V30 6005 H 600.936 -4.37731 -2.33679 0
M  V30 6006 N 600.109 -0.101901 -1.5727 0
M  V30 6007 C 601.056 0.854577 -2.14396 0
M  V30 6008 C 602.026 1.27521 -1.06432 0
M  V30 6009 O 603.211 1.35575 -1.34253 0
M  V30 6010 C 600.351 2.10576 -2.73408 0
M  V30 6011 C 599.464 1.73504 -3.95626 0
M  V30 6012 C 598.599 2.9346 -4.42781 0
M  V30 6013 C 597.638 2.52547 -5.57572 0
M  V30 6014 N 596.775 3.65359 -5.99547 0
M  V30 6015 H 601.615 0.360578 -2.9581 0
M  V30 6016 H 599.152 0.166303 -1.46157 0
M  V30 6017 H 601.11 2.83859 -3.05745 0
M  V30 6018 H 599.74 2.57463 -1.94711 0
M  V30 6019 H 598.792 0.901622 -3.6956 0
M  V30 6020 H 600.104 1.39426 -4.78917 0
M  V30 6021 H 599.258 3.74988 -4.76937 0
M  V30 6022 H 597.997 3.30753 -3.58404 0
M  V30 6023 H 597.002 1.69446 -5.23037 0
M  V30 6024 H 598.227 2.1639 -6.43702 0
M  V30 6025 H 596.173 4.02358 -5.18116 0
M  V30 6026 H 596.09 3.35148 -6.77652 0
M  V30 6027 H 597.358 4.47378 -6.38336 0
M  V30 6028 N 601.587 1.56661 0.17182 0
M  V30 6029 C 602.827 1.83762 0.895029 0
M  V30 6030 C 603.191 0.682752 1.79451 0
M  V30 6031 O 604.392 0.834208 2.55528 0
M  V30 6032 C 602.663 3.15976 1.67015 0
M  V30 6033 S 604.222 3.64558 2.44219 0
M  V30 6034 H 601.04 0.644713 0.299778 0
M  V30 6035 H 603.642 1.94871 0.156701 0
M  V30 6036 H 602.346 3.98021 1.00039 0
M  V30 6037 H 601.877 3.07807 2.44986 0
M  V30 6038 H 603.892 3.31845 3.68909 0
M  V30 6039 N 603.065 -0.440357 1.51323 0
M  V30 6040 C 603.975 -1.55955 1.75258 0
M  V30 6041 C 604.991 -1.61933 0.636687 0
M  V30 6042 O 606.167 -1.79231 0.918593 0
M  V30 6043 C 603.232 -2.9196 1.86977 0
M  V30 6044 C 602.293 -2.96122 3.10822 0
M  V30 6045 C 601.526 -4.2564 3.21973 0
M  V30 6046 O 601.749 -5.17851 2.39137 0
M  V30 6047 O 600.683 -4.36025 4.14929 0
M  V30 6048 H 604.509 -1.38673 2.70191 0
M  V30 6049 H 602.094 -0.623055 1.35788 0
M  V30 6050 H 603.976 -3.72682 1.96688 0
M  V30 6051 H 602.651 -3.09375 0.952307 0
M  V30 6052 H 601.558 -2.14366 3.06591 0
M  V30 6053 H 602.891 -2.83651 4.02247 0
M  V30 6054 N 604.543 -1.41418 -0.695603 0
M  V30 6055 C 605.493 -1.39731 -1.80165 0
M  V30 6056 C 606.477 -0.271689 -1.5859 0
M  V30 6057 O 607.669 -0.512354 -1.69422 0
M  V30 6058 C 604.798 -1.28187 -3.1847 0
M  V30 6059 C 603.884 -2.45612 -3.45739 0
M  V30 6060 N 604.275 -3.71077 -3.43708 0
M  V30 6061 C 602.573 -2.39424 -3.76288 0
M  V30 6062 C 603.274 -4.48957 -3.69882 0
M  V30 6063 N 602.25 -3.7907 -3.89624 0
M  V30 6064 H 606.052 -2.34656 -1.76957 0
M  V30 6065 H 603.566 -1.35473 -0.89559 0
M  V30 6066 H 605.563 -1.2506 -3.977 0
M  V30 6067 H 604.223 -0.342468 -3.22889 0
M  V30 6068 H 605.234 -4.03963 -3.2409 0
M  V30 6069 H 601.911 -1.53955 -3.88077 0
M  V30 6070 H 603.301 -5.57887 -3.74448 0
M  V30 6071 N 606.021 0.929856 -1.27246 0
M  V30 6072 C 606.971 2.01629 -1.06442 0
M  V30 6073 C 607.955 1.60899 0.00687842 0
M  V30 6074 O 609.147 1.75733 -0.211407 0
M  V30 6075 C 606.276 3.35849 -0.711361 0
M  V30 6076 C 605.362 3.8303 -1.82069 0
M  V30 6077 N 605.753 4.02743 -3.05993 0
M  V30 6078 C 604.051 4.12046 -1.70687 0
M  V30 6079 C 604.752 4.42001 -3.78167 0
M  V30 6080 N 603.728 4.4935 -3.05918 0
M  V30 6081 H 607.53 2.14898 -2.00489 0
M  V30 6082 H 605.044 1.11654 -1.17929 0
M  V30 6083 H 607.041 4.13343 -0.543442 0
M  V30 6084 H 605.701 3.23944 0.221517 0
M  V30 6085 H 606.712 3.89112 -3.41778 0
M  V30 6086 H 603.389 4.08866 -0.844681 0
M  V30 6087 H 604.779 4.6535 -4.84664 0
M  V30 6088 N 607.499 1.09233 1.13605 0
M  V30 6089 C 608.739 0.836786 1.86487 0
M  V30 6090 C 609.103 -0.626191 1.81502 0
M  V30 6091 O 610.304 -0.99758 2.49603 0
M  V30 6092 C 608.575 1.35476 3.30728 0
M  V30 6093 S 610.134 1.2328 4.21126 0
M  V30 6094 H 606.952 0.302702 0.643345 0
M  V30 6095 H 609.554 1.3953 1.36936 0
M  V30 6096 H 608.258 2.41381 3.31909 0
M  V30 6097 H 607.789 0.792286 3.85339 0
M  V30 6098 H 609.804 0.182468 4.95864 0
M  V30 6099 N 608.977 -1.30795 0.87923 0
M  V30 6100 C 610.388 -1.78535 0.546093 0
M  V30 6101 C 610.739 -1.72354 -0.937467 0
M  V30 6102 O 609.864 -1.2969 -1.73233 0
M  V30 6103 C 610.459 -3.24181 0.9845 0
M  V30 6104 C 609.018 -3.69779 0.702871 0
M  V30 6105 C 608.165 -2.51377 1.17068 0
M  V30 6106 H 611.116 -1.17746 1.06403 0
M  V30 6107 H 611.137 -3.79227 0.311045 0
M  V30 6108 H 610.649 -3.28647 2.06429 0
M  V30 6109 H 608.75 -3.70806 -0.365166 0
M  V30 6110 H 608.863 -4.61507 1.28639 0
M  V30 6111 H 607.227 -2.47768 0.590172 0
M  V30 6112 H 608.01 -2.58584 2.25808 0
M  V30 6113 N 610.455 -0.639598 -1.44038 0
M  V30 6114 C 611.695 -0.150902 -2.03842 0
M  V30 6115 C 612.059 1.20744 -1.49281 0
M  V30 6116 O 613.26 1.78875 -2.00642 0
M  V30 6117 C 611.531 -0.146114 -3.57101 0
M  V30 6118 S 613.09 0.276725 -4.37927 0
M  V30 6119 H 609.908 -0.0652447 -0.708 0
M  V30 6120 H 612.51 -0.844886 -1.76301 0
M  V30 6121 H 611.214 -1.13769 -3.94316 0
M  V30 6122 H 610.745 0.568846 -3.89266 0
M  V30 6123 H 612.76 1.51893 -4.7238 0
M  V30 6124 N 611.933 1.52934 -0.380664 0
M  V30 6125 C 613.21 1.93845 0.261417 0
M  V30 6126 C 613.59 1.31544 1.65104 0
M  V30 6127 O 612.938 0.480234 2.23397 0
M  V30 6128 C 613.148 3.47739 0.296466 0
M  V30 6129 C 614.496 4.21284 0.529578 0
M  V30 6130 O 615.52 3.54199 0.377041 0
M  V30 6131 O 614.379 5.40195 0.827753 0
M  V30 6132 H 611.473 0.811318 0.160285 0
M  V30 6133 H 614.019 1.64042 -0.434544 0
M  V30 6134 H 612.791 3.85395 -0.67724 0
M  V30 6135 H 612.414 3.8382 1.0377 0
M  V30 6136 N 613.412 0.11024 1.57214 0
M  V30 6137 C 614.823 -0.416527 1.81994 0
M  V30 6138 C 615.174 -1.67183 1.02686 0
M  V30 6139 O 614.299 -2.14823 0.260782 0
M  V30 6140 C 614.894 -0.762466 3.30109 0
M  V30 6141 C 613.453 -1.23391 3.556 0
M  V30 6142 C 612.6 -0.238166 2.76275 0
M  V30 6143 H 615.551 0.335491 1.55113 0
M  V30 6144 H 615.572 -1.62068 3.44259 0
M  V30 6145 H 615.084 0.151346 3.87805 0
M  V30 6146 H 613.185 -2.16492 3.03253 0
M  V30 6147 H 613.298 -1.18528 4.64207 0
M  V30 6148 H 611.662 -0.723421 2.4421 0
M  V30 6149 H 612.445 0.668591 3.36727 0
M  V30 6150 N 614.89 -1.56749 -0.16351 0
M  V30 6151 C 615.837 -1.97011 -1.2023 0
M  V30 6152 C 616.807 -0.835186 -1.43575 0
M  V30 6153 O 617.992 -1.09594 -1.56185 0
M  V30 6154 C 615.132 -2.34186 -2.53478 0
M  V30 6155 C 614.245 -3.60893 -2.37446 0
M  V30 6156 C 613.38 -3.87245 -3.63614 0
M  V30 6157 C 612.419 -5.07274 -3.42548 0
M  V30 6158 N 611.556 -5.29719 -4.60806 0
M  V30 6159 H 616.396 -2.85562 -0.851958 0
M  V30 6160 H 613.933 -1.41292 -0.409257 0
M  V30 6161 H 615.891 -2.53764 -3.31149 0
M  V30 6162 H 614.521 -1.48736 -2.86492 0
M  V30 6163 H 613.573 -3.49185 -1.50911 0
M  V30 6164 H 614.885 -4.48722 -2.1783 0
M  V30 6165 H 614.039 -4.07232 -4.49719 0
M  V30 6166 H 612.778 -2.97806 -3.86216 0
M  V30 6167 H 611.783 -4.87177 -2.5483 0
M  V30 6168 H 613.008 -5.98251 -3.2136 0
M  V30 6169 H 610.954 -4.43233 -4.83612 0
M  V30 6170 H 610.871 -6.11786 -4.44132 0
M  V30 6171 H 612.139 -5.54192 -5.48171 0
M  V30 6172 N 616.368 0.432326 -1.51554 0
M  V30 6173 C 617.596 1.20364 -1.68286 0
M  V30 6174 C 618.011 1.84888 -0.38233 0
M  V30 6175 O 617.368 1.70924 0.639627 0
M  V30 6176 C 617.419 2.28398 -2.80208 0
M  V30 6177 O 617.14 1.66512 -4.05223 0
M  V30 6178 C 618.641 3.18584 -3.08251 0
M  V30 6179 H 615.861 0.36259 -0.564596 0
M  V30 6180 H 618.405 0.511647 -1.97996 0
M  V30 6181 H 616.56 2.93305 -2.53083 0
M  V30 6182 H 616.974 2.37951 -4.67418 0
M  V30 6183 H 618.448 3.90511 -3.90135 0
M  V30 6184 H 618.925 3.79628 -2.2086 0
M  V30 6185 H 619.531 2.59372 -3.37055 0
M  V30 6186 N 617.846 1.41785 0.688094 0
M  V30 6187 C 619.094 1.41264 1.4453 0
M  V30 6188 C 619.415 0.0252946 1.94984 0
M  V30 6189 O 618.685 -0.934081 1.72197 0
M  V30 6190 H 617.265 0.519998 0.536294 0
M  V30 6191 H 619.927 1.7709 0.813941 0
M  V30 6192 H 619.023 2.10439 2.30482 0
M  V30 6193 N 619.324 -0.923095 1.27737 0
M  V30 6194 C 620.272 -2.04567 1.10703 0
M  V30 6195 C 621.266 -1.69375 0.0288445 0
M  V30 6196 O 622.472 -1.79027 0.186913 0
M  V30 6197 H 618.847 -0.670109 0.34126 0
M  V30 6198 H 620.818 -2.1608 2.05796 0
M  V30 6199 C 619.567 -3.38934 0.775837 0
M  V30 6200 H 618.89 -3.66501 1.59741 0
M  V30 6201 H 620.33 -4.18239 0.696548 0
M  V30 6202 C 618.789 -3.32863 -0.520012 0
M  V30 6203 O 619.319 -3.70462 -1.55308 0
M  V30 6204 N 617.525 -2.85958 -0.51732 0
M  V30 6205 H 617.072 -2.55557 0.32379 0
M  V30 6206 H 617.03 -2.82279 -1.38441 0
M  V30 6207 N 620.802 -1.09834 -1.13024 0
M  V30 6208 C 622.042 -0.846664 -1.8604 0
M  V30 6209 C 622.406 0.616557 -1.81831 0
M  V30 6210 O 623.607 0.984329 -2.50129 0
M  V30 6211 C 621.878 -1.37228 -3.30005 0
M  V30 6212 S 623.437 -1.25511 -4.20467 0
M  V30 6213 H 620.255 -0.30611 -0.64173 0
M  V30 6214 H 622.857 -1.40255 -1.36194 0
M  V30 6215 H 621.561 -2.43138 -3.30624 0
M  V30 6216 H 621.092 -0.81271 -3.84914 0
M  V30 6217 H 623.107 -0.208762 -4.95761 0
M  V30 6218 N 622.28 1.30327 -0.886154 0
M  V30 6219 C 623.505 2.0079 -0.519425 0
M  V30 6220 C 623.93 1.65979 0.885013 0
M  V30 6221 O 623.288 0.877043 1.58675 0
M  V30 6222 C 623.336 3.53686 -0.702758 0
M  V30 6223 O 622.44 4.11637 0.250828 0
M  V30 6224 H 621.781 0.63171 -0.204544 0
M  V30 6225 H 624.311 1.66145 -1.19402 0
M  V30 6226 H 624.321 4.03531 -0.602207 0
M  V30 6227 H 622.996 3.78361 -1.72673 0
M  V30 6228 H 621.573 3.72755 0.103873 0
M  V30 6229 N 623.758 0.647228 1.43697 0
M  V30 6230 C 625.004 0.158422 2.0218 0
M  V30 6231 C 625.337 -1.22233 1.50907 0
M  V30 6232 O 624.612 -1.81478 0.699702 0
M  V30 6233 C 624.895 0.1627 3.59732 0
M  V30 6234 C 624.748 1.57694 4.21251 0
M  V30 6235 C 626.067 -0.504138 4.37203 0
M  V30 6236 H 623.186 0.059042 0.734631 0
M  V30 6237 H 625.828 0.826772 1.71069 0
M  V30 6238 H 623.978 -0.406414 3.86368 0
M  V30 6239 H 625.65 2.19618 4.05667 0
M  V30 6240 H 623.893 2.12603 3.7813 0
M  V30 6241 H 624.564 1.53183 5.3032 0
M  V30 6242 H 627.04 -0.0199841 4.16095 0
M  V30 6243 H 625.916 -0.470394 5.46881 0
M  V30 6244 H 626.177 -1.57726 4.13007 0
M  V30 6245 N 625.236 -1.5273 0.388769 0
M  V30 6246 C 626.461 -2.0647 -0.19621 0
M  V30 6247 C 626.886 -1.25865 -1.39784 0
M  V30 6248 O 626.244 -0.283562 -1.79069 0
M  V30 6249 C 626.292 -3.56456 -0.5451 0
M  V30 6250 O 625.396 -3.78426 -1.63912 0
M  V30 6251 H 624.737 -0.663599 -0.023067 0
M  V30 6252 H 627.267 -1.96898 0.556084 0
M  V30 6253 H 627.277 -3.99888 -0.809557 0
M  V30 6254 H 625.952 -4.14561 0.333417 0
M  V30 6255 H 624.529 -3.46884 -1.36842 0
M  V30 6256 N 626.714 -0.118576 -1.57153 0
M  V30 6257 C 628.13 0.238014 -1.57815 0
M  V30 6258 C 628.33 1.66747 -1.13127 0
M  V30 6259 O 627.386 2.38867 -0.818462 0
M  V30 6260 C 628.699 0.00508207 -3.007 0
M  V30 6261 C 630.247 0.0710139 -3.12919 0
M  V30 6262 C 630.722 -0.13422 -4.57803 0
M  V30 6263 N 632.213 -0.0801755 -4.63131 0
M  V30 6264 C 632.948 -0.213885 -5.73001 0
M  V30 6265 N 632.444 -0.403742 -6.91623 0
M  V30 6266 N 634.237 -0.15349 -5.6189 0
M  V30 6267 H 626.388 -1.05226 -1.84503 0
M  V30 6268 H 628.651 -0.414318 -0.852669 0
M  V30 6269 H 628.357 -0.983125 -3.3768 0
M  V30 6270 H 628.231 0.73714 -3.69927 0
M  V30 6271 H 630.618 1.04975 -2.75798 0
M  V30 6272 H 630.699 -0.692918 -2.46236 0
M  V30 6273 H 630.343 -1.10992 -4.95624 0
M  V30 6274 H 630.273 0.649692 -5.22577 0
M  V30 6275 H 632.764 0.0630689 -3.77847 0
M  V30 6276 H 633.077 -0.496645 -7.71202 0
M  V30 6277 H 631.422 -0.43971 -6.93608 0
M  V30 6278 H 634.613 -0.00613174 -4.681 0
M  V30 6279 H 634.786 -0.261138 -6.47474 0
M  V30 6280 N 628.193 1.56834 0.155195 0
M  V30 6281 C 629.439 1.83169 0.870467 0
M  V30 6282 C 629.772 0.698929 1.81187 0
M  V30 6283 O 629.047 -0.298035 1.92203 0
M  V30 6284 C 629.33 3.19965 1.65211 0
M  V30 6285 C 629.183 4.43792 0.732744 0
M  V30 6286 C 630.502 3.53885 2.61636 0
M  V30 6287 H 627.621 0.666288 0.315006 0
M  V30 6288 H 630.263 1.89513 0.135988 0
M  V30 6289 H 628.413 3.14687 2.27825 0
M  V30 6290 H 630.085 4.61148 0.118236 0
M  V30 6291 H 628.328 4.3378 0.0417906 0
M  V30 6292 H 628.999 5.36095 1.31552 0
M  V30 6293 H 631.475 3.5972 2.09143 0
M  V30 6294 H 630.351 4.50648 3.13381 0
M  V30 6295 H 630.612 2.79418 3.42605 0
M  V30 6296 N 629.671 -0.424282 1.51781 0
M  V30 6297 C 630.618 -1.51591 1.74037 0
M  V30 6298 C 631.588 -1.55556 0.582358 0
M  V30 6299 O 632.773 -1.72364 0.818245 0
M  V30 6300 C 629.913 -2.89188 1.8832 0
M  V30 6301 C 629.026 -2.9465 3.1592 0
M  V30 6302 C 628.161 -4.23452 3.20721 0
M  V30 6303 C 627.2 -4.22831 4.42584 0
M  V30 6304 N 626.337 -5.43178 4.44862 0
M  V30 6305 H 631.177 -1.31917 2.67212 0
M  V30 6306 H 628.714 -0.640599 1.32419 0
M  V30 6307 H 630.672 -3.69044 1.94583 0
M  V30 6308 H 629.302 -3.07392 0.985402 0
M  V30 6309 H 628.354 -2.07378 3.18902 0
M  V30 6310 H 629.666 -2.90055 4.05795 0
M  V30 6311 H 628.82 -5.1169 3.25973 0
M  V30 6312 H 627.559 -4.30722 2.28757 0
M  V30 6313 H 626.564 -3.32984 4.37495 0
M  V30 6314 H 627.789 -4.17213 5.35826 0
M  V30 6315 H 625.735 -5.51145 3.55775 0
M  V30 6316 H 625.652 -5.40515 5.28563 0
M  V30 6317 H 626.92 -6.33412 4.54324 0
M  V30 6318 N 631.149 -1.42148 -0.680565 0
M  V30 6319 C 632.081 -1.41119 -1.80605 0
M  V30 6320 C 633.094 -0.311099 -1.598 0
M  V30 6321 O 634.283 -0.573813 -1.69026 0
M  V30 6322 C 631.383 -1.18204 -3.17618 0
M  V30 6323 C 630.556 -2.40537 -3.65322 0
M  V30 6324 C 629.615 -2.13254 -4.8105 0
M  V30 6325 O 628.641 -2.8641 -4.91892 0
M  V30 6326 N 629.843 -1.13208 -5.69354 0
M  V30 6327 H 632.608 -2.38128 -1.81975 0
M  V30 6328 H 630.169 -1.36953 -0.863446 0
M  V30 6329 H 632.161 -0.97878 -3.92686 0
M  V30 6330 H 630.731 -0.29738 -3.11182 0
M  V30 6331 H 629.951 -2.76468 -2.80996 0
M  V30 6332 H 631.239 -3.22012 -3.93936 0
M  V30 6333 H 630.637 -0.526893 -5.63241 0
M  V30 6334 H 629.194 -0.988699 -6.44258 0
M  V30 6335 N 632.627 0.916307 -1.28225 0
M  V30 6336 C 633.867 1.67964 -1.16479 0
M  V30 6337 C 634.231 1.8991 0.282494 0
M  V30 6338 O 635.432 2.63671 0.522607 0
M  V30 6339 C 633.703 3.00251 -1.93866 0
M  V30 6340 S 635.262 3.91353 -1.98465 0
M  V30 6341 H 632.08 0.576873 -0.415619 0
M  V30 6342 H 634.682 1.09006 -1.62289 0
M  V30 6343 H 633.386 2.81978 -2.98189 0
M  V30 6344 H 632.917 3.64257 -1.48595 0
M  V30 6345 H 634.932 4.84096 -1.0893 0
M  V30 6346 N 634.105 1.10431 1.1244 0
M  V30 6347 C 635.035 0.775143 2.20258 0
M  V30 6348 C 636.016 -0.25186 1.68225 0
M  V30 6349 O 637.201 -0.117637 1.93843 0
M  V30 6350 C 634.331 0.206133 3.46688 0
M  V30 6351 C 633.285 1.16382 4.11873 0
M  V30 6352 C 632.611 0.456014 5.32752 0
M  V30 6353 C 633.911 2.5104 4.58013 0
M  V30 6354 H 635.605 1.67665 2.4805 0
M  V30 6355 H 633.151 0.807595 1.19222 0
M  V30 6356 H 635.104 -0.036291 4.21384 0
M  V30 6357 H 633.828 -0.730614 3.18323 0
M  V30 6358 H 632.487 1.39169 3.39157 0
M  V30 6359 H 632.135 -0.485203 5.00654 0
M  V30 6360 H 631.835 1.09466 5.77314 0
M  V30 6361 H 633.359 0.222135 6.10196 0
M  V30 6362 H 634.773 2.32401 5.24083 0
M  V30 6363 H 633.17 3.10789 5.13352 0
M  V30 6364 H 634.24 3.11039 3.71998 0
M  V30 6365 N 635.583 -1.29855 0.893053 0
M  V30 6366 C 636.515 -2.26911 0.32311 0
M  V30 6367 C 637.528 -1.54039 -0.526858 0
M  V30 6368 O 638.717 -1.75132 -0.345095 0
M  V30 6369 C 635.817 -3.34266 -0.558509 0
M  V30 6370 C 634.99 -4.36601 0.264222 0
M  V30 6371 C 634.049 -5.23326 -0.549171 0
M  V30 6372 O 633.075 -5.69192 0.0309883 0
M  V30 6373 N 634.277 -5.50008 -1.85664 0
M  V30 6374 H 637.042 -2.76455 1.15726 0
M  V30 6375 H 634.603 -1.4312 0.756859 0
M  V30 6376 H 636.595 -3.89211 -1.1089 0
M  V30 6377 H 635.165 -2.8459 -1.29334 0
M  V30 6378 H 634.385 -3.81409 0.996046 0
M  V30 6379 H 635.673 -5.02019 0.827906 0
M  V30 6380 H 635.071 -5.14542 -2.35081 0
M  V30 6381 H 633.628 -6.07796 -2.35431 0
M  V30 6382 N 637.061 -0.65484 -1.43351 0
M  V30 6383 C 638.472 -0.248506 -1.85039 0
M  V30 6384 C 638.823 1.20526 -1.54816 0
M  V30 6385 O 637.948 1.92016 -0.99794 0
M  V30 6386 C 638.543 -0.444241 -3.35875 0
M  V30 6387 C 637.102 -0.0922108 -3.76287 0
M  V30 6388 C 636.249 -0.746327 -2.67068 0
M  V30 6389 H 639.2 -0.8584 -1.33481 0
M  V30 6390 H 639.221 0.309762 -3.79237 0
M  V30 6391 H 638.733 -1.50239 -3.5784 0
M  V30 6392 H 636.834 0.96328 -3.59933 0
M  V30 6393 H 636.947 -0.518807 -4.76283 0
M  V30 6394 H 635.311 -0.179416 -2.54067 0
M  V30 6395 H 636.094 -1.80754 -2.91861 0
M  V30 6396 N 638.539 1.52521 -0.396863 0
M  V30 6397 C 639.95 1.86547 0.0754868 0
M  V30 6398 C 640.301 1.31621 1.45501 0
M  V30 6399 O 639.426 0.650563 2.0639 0
M  V30 6400 C 640.021 3.38495 0.143754 0
M  V30 6401 C 638.58 3.72205 0.560413 0
M  V30 6402 C 637.727 2.75954 -0.272856 0
M  V30 6403 H 640.678 1.46323 -0.614434 0
M  V30 6404 H 640.699 3.68153 0.961425 0
M  V30 6405 H 640.211 3.78442 -0.860415 0
M  V30 6406 H 638.312 3.3783 1.57167 0
M  V30 6407 H 638.425 4.78074 0.313314 0
M  V30 6408 H 636.789 2.53339 0.263 0
M  V30 6409 H 637.572 3.1874 -1.27515 0
M  V30 6410 N 640.017 0.126909 1.57088 0
M  V30 6411 C 640.927 -0.833867 2.1928 0
M  V30 6412 C 641.943 -1.2868 1.17122 0
M  V30 6413 O 643.119 -1.34815 1.49622 0
M  V30 6414 C 640.184 -2.0632 2.78627 0
M  V30 6415 C 639.245 -1.66143 3.95847 0
M  V30 6416 C 638.478 -2.83217 4.52354 0
M  V30 6417 O 638.701 -3.98868 4.0775 0
M  V30 6418 O 637.635 -2.59846 5.42922 0
M  V30 6419 H 641.461 -0.334564 3.01852 0
M  V30 6420 H 639.046 -0.0991091 1.49071 0
M  V30 6421 H 640.928 -2.78304 3.16425 0
M  V30 6422 H 639.603 -2.55242 1.99082 0
M  V30 6423 H 638.51 -0.912435 3.62802 0
M  V30 6424 H 639.843 -1.21957 4.76852 0
M  V30 6425 N 641.495 -1.56914 -0.146875 0
M  V30 6426 C 642.458 -1.97368 -1.16526 0
M  V30 6427 C 643.458 -0.860223 -1.35856 0
M  V30 6428 O 644.648 -1.12684 -1.32846 0
M  V30 6429 C 641.78 -2.28974 -2.52555 0
M  V30 6430 H 642.973 -2.88523 -0.818209 0
M  V30 6431 H 640.526 -1.5135 -0.390221 0
M  V30 6432 H 641.261 -1.40611 -2.92231 0
M  V30 6433 H 641.046 -3.10157 -2.39886 0
M  V30 6434 H 642.536 -2.61109 -3.25902 0
M  V30 6435 N 642.974 0.416227 -1.52004 0
M  V30 6436 C 644.202 1.18573 -1.69553 0
M  V30 6437 C 644.617 1.84472 -0.401919 0
M  V30 6438 O 643.974 1.71593 0.621463 0
M  V30 6439 C 644.025 2.25413 -2.82615 0
M  V30 6440 O 643.746 1.62205 -4.06966 0
M  V30 6441 C 645.247 3.15297 -3.11613 0
M  V30 6442 H 642.467 0.356582 -0.56841 0
M  V30 6443 H 645.011 0.490618 -1.98528 0
M  V30 6444 H 643.166 2.90604 -2.56179 0
M  V30 6445 H 643.58 2.3298 -4.69916 0
M  V30 6446 H 645.054 3.86351 -3.94255 0
M  V30 6447 H 645.531 3.77264 -2.24874 0
M  V30 6448 H 646.137 2.55783 -3.39787 0
M  V30 6449 N 644.452 1.42507 0.673017 0
M  V30 6450 C 645.382 1.48916 1.79851 0
M  V30 6451 C 646.363 0.345566 1.66553 0
M  V30 6452 O 647.548 0.560116 1.85947 0
M  V30 6453 C 644.678 1.39258 3.18158 0
M  V30 6454 C 643.632 2.51662 3.46194 0
M  V30 6455 C 642.958 2.27062 4.84094 0
M  V30 6456 C 644.258 3.93968 3.42909 0
M  V30 6457 H 645.952 2.43114 1.74745 0
M  V30 6458 H 643.498 1.17013 0.839288 0
M  V30 6459 H 645.451 1.42349 3.96629 0
M  V30 6460 H 644.175 0.415542 3.23946 0
M  V30 6461 H 642.834 2.47891 2.70084 0
M  V30 6462 H 642.482 1.27648 4.86534 0
M  V30 6463 H 642.182 3.02398 5.03815 0
M  V30 6464 H 643.706 2.31905 5.64847 0
M  V30 6465 H 645.12 3.99332 4.11347 0
M  V30 6466 H 643.517 4.6917 3.74165 0
M  V30 6467 H 644.587 4.20512 2.41449 0
M  V30 6468 N 645.93 -0.909495 1.28709 0
M  V30 6469 C 647.346 -1.18862 1.06508 0
M  V30 6470 C 647.546 -2.00604 -0.189864 0
M  V30 6471 O 646.602 -2.36281 -0.890355 0
M  V30 6472 C 647.915 -1.91908 2.31499 0
M  V30 6473 C 649.463 -2.04773 2.36721 0
M  V30 6474 C 649.938 -2.81228 3.6149 0
M  V30 6475 N 651.429 -2.88787 3.62155 0
M  V30 6476 C 652.164 -3.48455 4.55375 0
M  V30 6477 N 651.66 -4.09369 5.58918 0
M  V30 6478 N 653.453 -3.46035 4.42963 0
M  V30 6479 H 645.604 -0.363867 2.0926 0
M  V30 6480 H 647.867 -0.223649 0.921241 0
M  V30 6481 H 647.573 -1.39275 3.22948 0
M  V30 6482 H 647.447 -2.92436 2.38245 0
M  V30 6483 H 649.834 -2.56585 1.45767 0
M  V30 6484 H 649.915 -1.03408 2.33967 0
M  V30 6485 H 649.559 -2.30094 4.5279 0
M  V30 6486 H 649.489 -3.82917 3.61499 0
M  V30 6487 H 651.98 -2.45514 2.87283 0
M  V30 6488 H 652.293 -4.52891 6.26187 0
M  V30 6489 H 650.638 -4.0786 5.62739 0
M  V30 6490 H 653.829 -2.9766 3.6127 0
M  V30 6491 H 654.002 -3.92244 5.15799 0
M  V30 6492 N 647.408 -1.11026 -1.11852 0
M  V30 6493 C 648.371 -0.768006 -2.1595 0
M  V30 6494 C 649.371 0.210538 -1.59416 0
M  V30 6495 O 650.561 -0.0133978 -1.74195 0
M  V30 6496 C 647.693 -0.138678 -3.40618 0
M  V30 6497 H 648.886 -1.69012 -2.4774 0
M  V30 6498 H 646.439 -0.911578 -1.26964 0
M  V30 6499 H 647.174 0.793872 -3.14433 0
M  V30 6500 H 646.959 -0.843012 -3.8293 0
M  V30 6501 H 648.449 0.0848039 -4.17514 0
M  V30 6502 N 648.886 1.2938 -0.899927 0
M  V30 6503 C 650.134 1.95164 -0.524924 0
M  V30 6504 C 650.455 1.71292 0.931888 0
M  V30 6505 O 649.725 1.04481 1.65712 0
M  V30 6506 H 648.305 0.722133 -0.191135 0
M  V30 6507 H 650.967 1.57628 -1.14627 0
M  V30 6508 H 650.063 3.0397 -0.707711 0
M  V30 6509 N 650.364 0.662433 1.43002 0
M  V30 6510 C 651.274 -0.0239199 2.34588 0
M  V30 6511 C 652.29 -0.802255 1.54402 0
M  V30 6512 O 653.466 -0.747401 1.87018 0
M  V30 6513 C 650.531 -0.972098 3.32793 0
M  V30 6514 C 649.592 -0.189673 4.28881 0
M  V30 6515 C 648.825 -1.09269 5.22395 0
M  V30 6516 O 649.048 -2.33209 5.20547 0
M  V30 6517 O 647.982 -0.560136 5.99288 0
M  V30 6518 H 651.808 0.730171 2.94792 0
M  V30 6519 H 649.393 0.422635 1.43297 0
M  V30 6520 H 651.275 -1.51676 3.93157 0
M  V30 6521 H 649.95 -1.70626 2.75079 0
M  V30 6522 H 648.857 0.398794 3.71968 0
M  V30 6523 H 650.19 0.50511 4.89601 0
M  V30 6524 N 651.842 -1.52309 0.404946 0
M  V30 6525 C 652.772 -2.29805 -0.41376 0
M  V30 6526 C 653.753 -1.3384 -1.0498 0
M  V30 6527 O 654.938 -1.62745 -1.05961 0
M  V30 6528 C 652.068 -3.11639 -1.53292 0
M  V30 6529 C 651.022 -4.15616 -1.02211 0
M  V30 6530 C 650.348 -4.8577 -2.23455 0
M  V30 6531 C 651.648 -5.2224 -0.0790725 0
M  V30 6532 H 653.342 -2.98493 0.232878 0
M  V30 6533 H 650.888 -1.43552 0.113441 0
M  V30 6534 H 652.841 -3.64618 -2.11262 0
M  V30 6535 H 651.565 -2.40712 -2.20738 0
M  V30 6536 H 650.224 -3.63641 -0.46484 0
M  V30 6537 H 649.872 -4.11376 -2.89445 0
M  V30 6538 H 649.572 -5.56058 -1.89929 0
M  V30 6539 H 651.096 -5.4156 -2.82038 0
M  V30 6540 H 652.51 -5.70485 -0.567438 0
M  V30 6541 H 650.907 -5.99867 0.167167 0
M  V30 6542 H 651.977 -4.77078 0.867447 0
M  V30 6543 N 653.32 -0.135238 -1.57019 0
M  V30 6544 C 654.545 0.529343 -2.00531 0
M  V30 6545 C 654.97 1.58391 -1.01459 0
M  V30 6546 O 654.328 1.81296 0.0113986 0
M  V30 6547 C 654.376 1.11748 -3.42848 0
M  V30 6548 O 653.48 2.23267 -3.46736 0
M  V30 6549 H 652.821 0.130669 -0.651016 0
M  V30 6550 H 655.351 -0.228503 -2.0332 0
M  V30 6551 H 655.361 1.44905 -3.81401 0
M  V30 6552 H 654.036 0.345147 -4.14465 0
M  V30 6553 H 652.613 1.91428 -3.20015 0
M  V30 6554 N 654.798 1.5699 0.138552 0
M  V30 6555 C 656.045 1.83809 0.849732 0
M  V30 6556 C 656.373 0.717409 1.80786 0
M  V30 6557 O 655.628 -0.292897 1.93496 0
M  V30 6558 C 655.927 3.17007 1.65049 0
M  V30 6559 C 655.593 4.43037 0.838398 0
M  V30 6560 C 654.255 4.77262 0.614385 0
M  V30 6561 C 656.607 5.20495 0.271044 0
M  V30 6562 C 653.935 5.864 -0.187552 0
M  V30 6563 C 656.287 6.30476 -0.517979 0
M  V30 6564 C 654.951 6.63245 -0.75249 0
M  V30 6565 H 654.221 0.672605 0.310939 0
M  V30 6566 H 656.868 1.91166 0.112971 0
M  V30 6567 H 655.173 3.05138 2.4576 0
M  V30 6568 H 656.87 3.34975 2.20437 0
M  V30 6569 H 653.46 4.16211 1.02307 0
M  V30 6570 H 657.644 4.94422 0.431371 0
M  V30 6571 H 652.9 6.10226 -0.378659 0
M  V30 6572 H 657.074 6.89686 -0.964694 0
M  V30 6573 H 654.701 7.47648 -1.37573 0
M  V30 6574 N 656.276 -0.40816 1.52223 0
M  V30 6575 C 657.523 -1.15502 1.66329 0
M  V30 6576 C 657.851 -1.90474 0.393701 0
M  V30 6577 O 657.106 -1.85507 -0.623356 0
M  V30 6578 C 657.405 -2.17422 2.83659 0
M  V30 6579 C 657.071 -1.5925 4.21841 0
M  V30 6580 C 655.733 -1.4311 4.59427 0
M  V30 6581 C 658.085 -1.16776 5.0795 0
M  V30 6582 C 655.413 -0.830148 5.80797 0
M  V30 6583 C 657.765 -0.580988 6.29926 0
M  V30 6584 C 656.429 -0.406729 6.6626 0
M  V30 6585 H 655.699 -0.422653 0.608642 0
M  V30 6586 H 658.346 -0.442114 1.86327 0
M  V30 6587 H 656.651 -2.94861 2.58001 0
M  V30 6588 H 658.348 -2.75084 2.9177 0
M  V30 6589 H 654.938 -1.72796 3.92224 0
M  V30 6590 H 659.122 -1.28055 4.79495 0
M  V30 6591 H 654.378 -0.68316 6.07571 0
M  V30 6592 H 658.552 -0.243488 6.95974 0
M  V30 6593 H 656.179 0.0610366 7.60175 0
M  V30 6594 N 657.755 -1.42862 -0.66545 0
M  V30 6595 C 658.983 -1.47246 -1.45349 0
M  V30 6596 C 659.398 -0.0865944 -1.88601 0
M  V30 6597 O 658.755 0.900652 -1.58728 0
M  V30 6598 C 658.806 -2.40772 -2.6965 0
M  V30 6599 O 658.527 -3.73968 -2.2821 0
M  V30 6600 C 660.028 -2.54272 -3.63126 0
M  V30 6601 H 657.248 -0.500497 -0.446927 0
M  V30 6602 H 659.792 -1.87477 -0.816871 0
M  V30 6603 H 657.947 -2.0377 -3.29479 0
M  V30 6604 H 658.361 -4.24146 -3.08546 0
M  V30 6605 H 659.835 -3.23815 -4.47043 0
M  V30 6606 H 660.312 -1.58364 -4.09656 0
M  V30 6607 H 660.918 -2.92036 -3.09185 0
M  V30 6608 N 659.233 0.902656 -1.29189 0
M  V30 6609 C 660.649 1.18296 -1.07137 0
M  V30 6610 C 660.849 2.00701 0.179223 0
M  V30 6611 O 659.905 2.3675 0.877812 0
M  V30 6612 C 661.218 1.90677 -2.32514 0
M  V30 6613 C 662.766 2.03515 -2.37804 0
M  V30 6614 C 663.241 2.79307 -3.62976 0
M  V30 6615 N 664.732 2.86862 -3.63681 0
M  V30 6616 C 665.467 3.46035 -4.57217 0
M  V30 6617 N 664.963 4.06399 -5.61081 0
M  V30 6618 N 666.756 3.43681 -4.44792 0
M  V30 6619 H 658.907 0.352765 -2.0945 0
M  V30 6620 H 661.17 0.21876 -0.922414 0
M  V30 6621 H 660.876 1.3756 -3.23682 0
M  V30 6622 H 660.75 2.91169 -2.39793 0
M  V30 6623 H 663.137 2.55809 -1.47125 0
M  V30 6624 H 663.218 1.02166 -2.34512 0
M  V30 6625 H 662.862 2.2769 -4.54004 0
M  V30 6626 H 662.792 3.80995 -3.63525 0
M  V30 6627 H 665.283 2.43987 -2.88581 0
M  V30 6628 H 665.596 4.49564 -6.2858 0
M  V30 6629 H 663.941 4.0487 -5.64894 0
M  V30 6630 H 667.132 2.9574 -3.62843 0
M  V30 6631 H 667.305 3.89503 -5.17872 0
M  V30 6632 N 660.711 1.11618 1.11262 0
M  V30 6633 C 661.939 0.888739 1.8684 0
M  V30 6634 C 662.354 -0.561558 1.80255 0
M  V30 6635 O 661.711 -1.38782 1.18515 0
M  V30 6636 C 661.762 1.34422 3.35579 0
M  V30 6637 O 661.483 2.73766 3.42029 0
M  V30 6638 C 662.984 1.15246 4.28058 0
M  V30 6639 H 660.204 0.318152 0.590779 0
M  V30 6640 H 662.748 1.48398 1.40707 0
M  V30 6641 H 660.903 0.79239 3.7921 0
M  V30 6642 H 661.317 2.9355 4.34659 0
M  V30 6643 H 662.791 1.52015 5.30656 0
M  V30 6644 H 663.268 0.0922007 4.39103 0
M  V30 6645 H 663.874 1.69136 3.90222 0
M  V30 6646 N 662.189 -1.289 0.906776 0
M  V30 6647 C 663.152 -2.25777 0.394656 0
M  V30 6648 C 664.152 -1.53621 -0.475119 0
M  V30 6649 O 665.342 -1.71949 -0.279165 0
M  V30 6650 C 662.474 -3.38113 -0.43499 0
M  V30 6651 H 663.667 -2.72592 1.25033 0
M  V30 6652 H 661.22 -1.40463 0.685547 0
M  V30 6653 H 661.955 -2.96648 -1.31036 0
M  V30 6654 H 661.74 -3.91647 0.188334 0
M  V30 6655 H 663.23 -4.10168 -0.784365 0
M  V30 6656 N 663.667 -0.670007 -1.42649 0
M  V30 6657 C 664.913 -0.19923 -2.02422 0
M  V30 6658 C 665.268 1.17947 -1.52007 0
M  V30 6659 O 664.561 1.77939 -0.710512 0
M  V30 6660 C 664.755 -0.168298 -3.57004 0
M  V30 6661 C 664.584 -1.54246 -4.22419 0
M  V30 6662 C 663.354 -2.13904 -4.57792 0
M  V30 6663 C 665.552 -2.4842 -4.50324 0
M  V30 6664 N 663.534 -3.44151 -5.08364 0
M  V30 6665 C 664.905 -3.63317 -5.02395 0
M  V30 6666 C 666.96 -2.47011 -4.32308 0
M  V30 6667 C 665.663 -4.77051 -5.38345 0
M  V30 6668 C 667.689 -3.59838 -4.6933 0
M  V30 6669 C 667.051 -4.73462 -5.21549 0
M  V30 6670 H 663.15 -0.117717 -0.773089 0
M  V30 6671 H 665.734 -0.881955 -1.73579 0
M  V30 6672 H 663.905 0.483824 -3.85375 0
M  V30 6673 H 665.637 0.314914 -4.03473 0
M  V30 6674 H 662.392 -1.66441 -4.4339 0
M  V30 6675 H 662.816 -4.10846 -5.38084 0
M  V30 6676 H 667.458 -1.60394 -3.91195 0
M  V30 6677 H 665.176 -5.64347 -5.78393 0
M  V30 6678 H 668.762 -3.59969 -4.57071 0
M  V30 6679 H 667.642 -5.59321 -5.49663 0
M  V30 6680 N 665.145 1.52092 -0.413018 0
M  V30 6681 C 666.075 2.30021 0.401567 0
M  V30 6682 C 667.056 1.34395 1.04269 0
M  V30 6683 O 668.241 1.63304 1.05097 0
M  V30 6684 C 665.371 3.12447 1.51638 0
M  V30 6685 C 664.325 4.16153 1.00005 0
M  V30 6686 C 663.651 4.86948 2.20875 0
M  V30 6687 C 664.951 5.22275 0.0513757 0
M  V30 6688 H 666.645 2.98365 -0.248704 0
M  V30 6689 H 664.191 1.4349 -0.121052 0
M  V30 6690 H 666.144 3.65733 2.09326 0
M  V30 6691 H 664.868 2.41879 2.19458 0
M  V30 6692 H 663.527 3.63882 0.445549 0
M  V30 6693 H 663.175 4.12905 2.8726 0
M  V30 6694 H 662.875 5.57057 1.86978 0
M  V30 6695 H 664.399 5.43048 2.79162 0
M  V30 6696 H 665.813 5.70778 0.537176 0
M  V30 6697 H 664.21 5.9977 -0.198977 0
M  V30 6698 H 665.28 4.76611 -0.892736 0
M  V30 6699 N 666.623 0.143563 1.56945 0
M  V30 6700 C 667.586 -0.783295 2.154 0
M  V30 6701 C 668.586 -1.17763 1.09492 0
M  V30 6702 O 669.776 -1.09912 1.35148 0
M  V30 6703 C 666.908 -2.06248 2.7143 0
M  V30 6704 H 668.101 -0.274863 2.98638 0
M  V30 6705 H 665.654 -0.105859 1.55941 0
M  V30 6706 H 666.389 -2.61466 1.91849 0
M  V30 6707 H 666.174 -1.78897 3.4891 0
M  V30 6708 H 667.664 -2.72453 3.16479 0
M  V30 6709 N 668.101 -1.57061 -0.130224 0
M  V30 6710 C 669.031 -2.02552 -1.16168 0
M  V30 6711 C 670.012 -0.907971 -1.4384 0
M  V30 6712 O 671.197 -1.17693 -1.54473 0
M  V30 6713 C 668.327 -2.42035 -2.49071 0
M  V30 6714 C 667.281 -3.5713 -2.35886 0
M  V30 6715 C 666.607 -3.82478 -3.7365 0
M  V30 6716 C 667.907 -4.89236 -1.8288 0
M  V30 6717 H 669.601 -2.8897 -0.783359 0
M  V30 6718 H 667.147 -1.39021 -0.375376 0
M  V30 6719 H 669.1 -2.72462 -3.21469 0
M  V30 6720 H 667.824 -1.52573 -2.88771 0
M  V30 6721 H 666.483 -3.26895 -1.65938 0
M  V30 6722 H 666.131 -2.9024 -4.10816 0
M  V30 6723 H 665.831 -4.59944 -3.65685 0
M  V30 6724 H 667.355 -4.15347 -4.47571 0
M  V30 6725 H 668.769 -5.18272 -2.45085 0
M  V30 6726 H 667.166 -5.70624 -1.85763 0
M  V30 6727 H 668.236 -4.78494 -0.785571 0
M  V30 6728 N 669.579 0.400081 -1.52437 0
M  V30 6729 C 670.807 1.16768 -1.70801 0
M  V30 6730 C 671.222 1.84036 -0.421462 0
M  V30 6731 O 670.579 1.72242 0.603228 0
M  V30 6732 C 670.63 2.22403 -2.8499 0
M  V30 6733 O 670.351 1.57879 -4.08663 0
M  V30 6734 C 671.852 3.11974 -3.1494 0
M  V30 6735 H 669.072 0.350533 -0.57216 0
M  V30 6736 H 671.616 0.469534 -1.99037 0
M  V30 6737 H 669.771 2.87871 -2.59247 0
M  V30 6738 H 670.185 2.27982 -4.7236 0
M  V30 6739 H 671.659 3.82148 -3.9833 0
M  V30 6740 H 672.136 3.74858 -2.28863 0
M  V30 6741 H 672.742 2.52165 -3.42481 0
M  V30 6742 N 671.057 1.43213 0.657864 0
M  V30 6743 C 671.987 1.50815 1.78262 0
M  V30 6744 C 672.968 0.363211 1.66177 0
M  V30 6745 O 674.153 0.579806 1.85343 0
M  V30 6746 C 671.283 1.42625 3.16663 0
M  V30 6747 C 670.237 2.5532 3.43505 0
M  V30 6748 C 669.563 2.32184 4.81658 0
M  V30 6749 C 670.863 3.97583 3.38711 0
M  V30 6750 H 672.557 2.44954 1.72157 0
M  V30 6751 H 670.103 1.17896 0.82683 0
M  V30 6752 H 672.056 1.46548 3.95097 0
M  V30 6753 H 670.78 0.449877 3.23487 0
M  V30 6754 H 669.439 2.50742 2.6744 0
M  V30 6755 H 669.087 1.32801 4.85153 0
M  V30 6756 H 668.787 3.07724 5.00579 0
M  V30 6757 H 670.311 2.37883 5.62356 0
M  V30 6758 H 671.725 4.03673 4.07089 0
M  V30 6759 H 670.122 4.73112 3.69168 0
M  V30 6760 H 671.192 4.23049 2.36976 0
M  V30 6761 N 672.536 -0.895792 1.29666 0
M  V30 6762 C 673.499 -1.98189 1.15124 0
M  V30 6763 C 674.499 -1.60572 0.0855717 0
M  V30 6764 O 675.689 -1.70991 0.332826 0
M  V30 6765 C 672.821 -3.32289 0.761372 0
M  V30 6766 H 674.014 -2.12518 2.11603 0
M  V30 6767 H 671.567 -1.0808 1.12908 0
M  V30 6768 H 672.302 -3.23662 -0.203393 0
M  V30 6769 H 672.087 -3.60958 1.53139 0
M  V30 6770 H 673.577 -4.1198 0.682792 0
M  V30 6771 N 674.014 -1.12206 -1.10668 0
M  V30 6772 C 674.944 -0.810086 -2.18997 0
M  V30 6773 C 675.925 0.225065 -1.68604 0
M  V30 6774 O 677.11 0.086783 -1.94006 0
M  V30 6775 C 674.24 -0.261262 -3.46316 0
M  V30 6776 C 673.194 -1.2292 -4.09969 0
M  V30 6777 C 672.52 -0.540713 -5.31959 0
M  V30 6778 C 673.82 -2.58295 -4.53962 0
M  V30 6779 H 675.514 -1.7159 -2.45352 0
M  V30 6780 H 673.06 -0.82646 -1.17922 0
M  V30 6781 H 675.013 -0.0307522 -4.21389 0
M  V30 6782 H 673.737 0.679879 -3.19445 0
M  V30 6783 H 672.396 -1.44548 -3.369 0
M  V30 6784 H 672.044 0.405492 -5.01363 0
M  V30 6785 H 671.744 -1.18637 -5.75499 0
M  V30 6786 H 673.268 -0.319184 -6.09765 0
M  V30 6787 H 674.682 -2.40709 -5.20319 0
M  V30 6788 H 673.079 -3.18916 -5.08343 0
M  V30 6789 H 674.149 -3.16918 -3.67002 0
M  V30 6790 N 675.492 1.28418 -0.913599 0
M  V30 6791 C 676.455 2.25564 -0.406624 0
M  V30 6792 C 677.455 1.5387 0.466965 0
M  V30 6793 O 678.645 1.72094 0.270042 0
M  V30 6794 C 675.777 3.38339 0.417053 0
M  V30 6795 H 676.97 2.71926 -1.26477 0
M  V30 6796 H 674.523 1.40098 -0.692986 0
M  V30 6797 H 675.258 2.97339 1.29461 0
M  V30 6798 H 675.043 3.91542 -0.209102 0
M  V30 6799 H 676.533 4.10578 0.762602 0
M  V30 6800 N 676.97 0.677563 1.42291 0
M  V30 6801 C 678.217 0.200975 2.015 0
M  V30 6802 C 678.545 -1.19342 1.53583 0
M  V30 6803 O 677.8 -1.81579 0.7299 0
M  V30 6804 C 678.099 0.187229 3.56909 0
M  V30 6805 C 677.765 1.52667 4.24268 0
M  V30 6806 C 676.427 1.89341 4.42384 0
M  V30 6807 C 678.779 2.40869 4.62203 0
M  V30 6808 C 676.107 3.13836 4.95705 0
M  V30 6809 C 678.459 3.64679 5.16906 0
M  V30 6810 C 677.123 4.01519 5.33234 0
M  V30 6811 H 676.393 0.0735418 0.737342 0
M  V30 6812 H 679.04 0.873095 1.70439 0
M  V30 6813 H 677.345 -0.568407 3.87655 0
M  V30 6814 H 679.042 -0.198773 4.00507 0
M  V30 6815 H 675.632 1.23138 4.1053 0
M  V30 6816 H 679.816 2.1382 4.47878 0
M  V30 6817 H 675.072 3.42396 5.06532 0
M  V30 6818 H 679.246 4.33224 5.45243 0
M  V30 6819 H 676.873 4.98062 5.74316 0
M  V30 6820 N 678.448 -1.51871 0.421078 0
M  V30 6821 C 679.378 -2.30231 -0.389363 0
M  V30 6822 C 680.359 -1.34946 -1.03555 0
M  V30 6823 O 681.544 -1.63859 -1.04229 0
M  V30 6824 C 678.674 -3.13247 -1.49979 0
M  V30 6825 C 677.628 -4.16677 -0.977966 0
M  V30 6826 C 676.954 -4.88112 -2.1829 0
M  V30 6827 C 678.254 -5.22295 -0.0236775 0
M  V30 6828 H 679.948 -2.98229 0.264524 0
M  V30 6829 H 677.494 -1.43424 0.12866 0
M  V30 6830 H 679.447 -3.66838 -2.07383 0
M  V30 6831 H 678.171 -2.4304 -2.18173 0
M  V30 6832 H 676.83 -3.64114 -0.426245 0
M  V30 6833 H 676.478 -4.14423 -2.85066 0
M  V30 6834 H 676.178 -5.58041 -1.84021 0
M  V30 6835 H 677.702 -5.44521 -2.76278 0
M  V30 6836 H 679.116 -5.71055 -0.506899 0
M  V30 6837 H 677.513 -5.99656 0.230782 0
M  V30 6838 H 678.583 -4.76131 0.917999 0
M  V30 6839 N 679.926 -0.151884 -1.56866 0
M  V30 6840 C 680.856 0.781943 -2.20018 0
M  V30 6841 C 681.837 1.25347 -1.14987 0
M  V30 6842 O 683.022 1.31015 -1.43348 0
M  V30 6843 C 680.152 2.01928 -2.82564 0
M  V30 6844 C 679.106 1.68434 -3.93464 0
M  V30 6845 C 678.432 2.99472 -4.42968 0
M  V30 6846 C 679.732 0.927244 -5.14003 0
M  V30 6847 H 681.426 0.255607 -2.98307 0
M  V30 6848 H 678.972 0.121502 -1.43486 0
M  V30 6849 H 680.925 2.67741 -3.25411 0
M  V30 6850 H 679.649 2.56943 -2.01614 0
M  V30 6851 H 678.308 1.04998 -3.51242 0
M  V30 6852 H 677.956 3.52488 -3.58834 0
M  V30 6853 H 677.656 2.77823 -5.17772 0
M  V30 6854 H 679.18 3.66348 -4.88489 0
M  V30 6855 H 680.594 1.48756 -5.53665 0
M  V30 6856 H 678.991 0.810513 -5.94601 0
M  V30 6857 H 680.061 -0.0801163 -4.84834 0
M  V30 6858 N 681.404 1.57128 0.121893 0
M  V30 6859 C 682.334 2.03165 1.15092 0
M  V30 6860 C 683.315 0.915587 1.43356 0
M  V30 6861 O 684.5 1.1851 1.53847 0
M  V30 6862 C 681.63 2.43352 2.47784 0
M  V30 6863 C 680.584 3.58376 2.33989 0
M  V30 6864 C 679.91 3.84454 3.71617 0
M  V30 6865 C 681.21 4.90199 1.80283 0
M  V30 6866 H 682.904 2.89382 0.768023 0
M  V30 6867 H 680.45 1.39218 0.367998 0
M  V30 6868 H 682.403 2.74163 3.20019 0
M  V30 6869 H 681.127 1.54103 2.87958 0
M  V30 6870 H 679.786 3.2777 1.64202 0
M  V30 6871 H 679.434 2.92414 4.09271 0
M  V30 6872 H 679.134 4.61877 3.6324 0
M  V30 6873 H 680.658 4.17714 4.45362 0
M  V30 6874 H 682.072 5.19565 2.42333 0
M  V30 6875 H 680.469 5.71601 1.82735 0
M  V30 6876 H 681.539 4.78904 0.760184 0
M  V30 6877 N 682.882 -0.391992 1.52647 0
M  V30 6878 C 684.131 -1.13449 1.6677 0
M  V30 6879 C 684.444 -1.91203 0.412399 0
M  V30 6880 O 685.65 -2.68013 0.433707 0
M  V30 6881 C 684.106 -2.06577 2.9471 0
M  V30 6882 C 683.714 -1.3426 4.27409 0
M  V30 6883 C 685.458 -2.80981 3.18198 0
M  V30 6884 C 683.365 -2.26136 5.46458 0
M  V30 6885 H 682.295 -0.427211 0.621295 0
M  V30 6886 H 684.946 -0.397522 1.79142 0
M  V30 6887 H 683.328 -2.83898 2.76076 0
M  V30 6888 H 684.502 -0.621856 4.56585 0
M  V30 6889 H 682.817 -0.718279 4.10158 0
M  V30 6890 H 685.414 -3.49898 4.04321 0
M  V30 6891 H 685.757 -3.44891 2.33144 0
M  V30 6892 H 686.29 -2.10754 3.37383 0
M  V30 6893 H 683.029 -1.66846 6.33911 0
M  V30 6894 H 682.549 -2.96134 5.21598 0
M  V30 6895 H 684.228 -2.86286 5.80215 0
M  V30 6896 N 684.36 -1.4356 -0.65026 0
M  V30 6897 C 685.585 -1.48995 -1.44275 0
M  V30 6898 C 686.01 -0.109954 -1.87778 0
M  V30 6899 O 685.368 0.896926 -1.57559 0
M  V30 6900 C 685.416 -2.44341 -2.65198 0
M  V30 6901 O 684.52 -1.93172 -3.6436 0
M  V30 6902 H 683.861 -0.503852 -0.432469 0
M  V30 6903 H 686.391 -1.88504 -0.795446 0
M  V30 6904 H 686.401 -2.61743 -3.12977 0
M  V30 6905 H 685.076 -3.44588 -2.32877 0
M  V30 6906 H 683.653 -1.85445 -3.23519 0
M  V30 6907 N 685.838 0.888903 -1.30139 0
M  V30 6908 C 687.066 1.67358 -1.21651 0
M  V30 6909 C 687.481 1.87499 0.221246 0
M  V30 6910 O 686.838 1.41969 1.14677 0
M  V30 6911 C 686.889 3.05213 -1.93719 0
M  V30 6912 O 686.61 2.85984 -3.31881 0
M  V30 6913 C 688.111 3.9964 -1.9184 0
M  V30 6914 H 685.331 0.522365 -0.42116 0
M  V30 6915 H 687.875 1.11086 -1.71698 0
M  V30 6916 H 686.03 3.5823 -1.4748 0
M  V30 6917 H 686.444 3.73411 -3.68327 0
M  V30 6918 H 687.918 4.93749 -2.46811 0
M  V30 6919 H 688.395 4.29955 -0.896409 0
M  V30 6920 H 689.001 3.52558 -2.37872 0
M  V30 6921 N 687.317 1.12792 1.10072 0
M  V30 6922 C 688.28 0.802264 2.14701 0
M  V30 6923 C 689.28 -0.18515 1.59731 0
M  V30 6924 O 690.47 0.041109 1.74151 0
M  V30 6925 C 687.602 0.19285 3.40354 0
M  V30 6926 H 688.795 1.72932 2.45019 0
M  V30 6927 H 686.348 0.931662 1.25498 0
M  V30 6928 H 687.083 -0.743748 3.15656 0
M  V30 6929 H 686.868 0.903827 3.81541 0
M  V30 6930 H 688.358 -0.0183704 4.17596 0
M  V30 6931 N 688.795 -1.27931 0.920396 0
M  V30 6932 C 689.758 -2.25345 0.41858 0
M  V30 6933 C 690.758 -1.54116 -0.458798 0
M  V30 6934 O 691.948 -1.72235 -0.260912 0
M  V30 6935 C 689.08 -3.38556 -0.399104 0
M  V30 6936 H 690.273 -2.71251 1.27918 0
M  V30 6937 H 687.826 -1.39728 0.700406 0
M  V30 6938 H 688.561 -2.98021 -1.27882 0
M  V30 6939 H 688.346 -3.91426 0.229863 0
M  V30 6940 H 689.836 -4.10976 -0.740817 0
M  V30 6941 N 690.273 -0.685099 -1.4193 0
M  V30 6942 C 691.221 -0.00165985 -2.326 0
M  V30 6943 C 692.215 0.779678 -1.50391 0
M  V30 6944 O 693.421 0.68648 -1.66395 0
M  V30 6945 H 689.796 0.0182616 -0.751778 0
M  V30 6946 H 691.767 -0.783592 -2.87928 0
M  V30 6947 C 690.516 0.928385 -3.35077 0
M  V30 6948 H 689.839 0.336578 -3.98381 0
M  V30 6949 H 691.279 1.37509 -4.01083 0
M  V30 6950 C 689.738 2.03964 -2.68142 0
M  V30 6951 O 690.268 3.12727 -2.5212 0
M  V30 6952 N 688.474 1.81433 -2.27003 0
M  V30 6953 H 688.021 0.929807 -2.40234 0
M  V30 6954 H 687.979 2.55973 -1.82552 0
M  V30 6955 N 691.751 1.51645 -0.429126 0
M  V30 6956 C 692.681 2.30434 0.377148 0
M  V30 6957 C 693.662 1.35493 1.02838 0
M  V30 6958 O 694.847 1.6441 1.03359 0
M  V30 6959 C 691.977 3.14038 1.48315 0
M  V30 6960 C 690.931 4.1719 0.955855 0
M  V30 6961 C 690.257 4.89263 2.15698 0
M  V30 6962 C 691.557 5.223 -0.00402136 0
M  V30 6963 H 693.251 2.98085 -0.280336 0
M  V30 6964 H 690.797 1.43354 -0.136265 0
M  V30 6965 H 692.75 3.67933 2.05435 0
M  V30 6966 H 691.474 2.44193 2.16881 0
M  V30 6967 H 690.133 3.64335 0.406929 0
M  V30 6968 H 689.781 4.15929 2.82864 0
M  V30 6969 H 689.481 5.59009 1.81059 0
M  V30 6970 H 691.005 5.45978 2.73387 0
M  V30 6971 H 692.419 5.71315 0.476607 0
M  V30 6972 H 690.816 5.99525 -0.26258 0
M  V30 6973 H 691.886 4.75638 -0.943236 0
M  V30 6974 N 693.229 0.160201 1.56784 0
M  V30 6975 C 694.454 -0.497373 2.01348 0
M  V30 6976 C 694.879 -1.56757 1.03966 0
M  V30 6977 O 694.237 -1.81292 0.0174455 0
M  V30 6978 C 694.285 -1.0628 3.44582 0
M  V30 6979 O 693.389 -2.17723 3.50244 0
M  V30 6980 H 692.73 -0.120295 0.653012 0
M  V30 6981 H 695.26 0.260821 2.02931 0
M  V30 6982 H 695.27 -1.38819 3.83658 0
M  V30 6983 H 693.945 -0.279166 4.14962 0
M  V30 6984 H 692.522 -1.86313 3.2302 0
M  V30 6985 N 694.707 -1.5719 -0.113559 0
M  V30 6986 C 695.637 -2.03772 -1.14013 0
M  V30 6987 C 696.618 -0.923176 -1.42869 0
M  V30 6988 O 697.803 -1.19325 -1.53216 0
M  V30 6989 C 694.933 -2.44663 -2.4649 0
M  V30 6990 C 693.887 -3.59612 -2.32085 0
M  V30 6991 C 693.213 -3.8642 -3.69573 0
M  V30 6992 C 694.513 -4.91149 -1.7768 0
M  V30 6993 H 696.207 -2.89785 -0.752665 0
M  V30 6994 H 693.753 -1.39412 -0.360609 0
M  V30 6995 H 695.706 -2.75857 -3.18561 0
M  V30 6996 H 694.43 -1.55628 -2.87137 0
M  V30 6997 H 693.089 -3.28636 -1.62461 0
M  V30 6998 H 692.737 -2.94581 -4.07715 0
M  V30 6999 H 692.437 -4.63797 -3.60786 0
M  V30 7000 H 693.961 -4.2007 -4.4314 0
M  V30 7001 H 695.375 -5.20843 -2.39574 0
M  V30 7002 H 693.772 -5.72562 -1.79701 0
M  V30 7003 H 694.842 -4.79301 -0.734776 0
M  V30 7004 N 696.185 0.383891 -1.52853 0
M  V30 7005 C 697.115 1.47559 -1.80965 0
M  V30 7006 C 698.096 1.5669 -0.661986 0
M  V30 7007 O 699.281 1.71556 -0.910072 0
M  V30 7008 C 696.411 2.85114 -1.98312 0
M  V30 7009 C 695.365 2.9082 -3.14019 0
M  V30 7010 C 694.691 4.30873 -3.16627 0
M  V30 7011 C 695.991 2.60001 -4.52986 0
M  V30 7012 H 697.685 1.24283 -2.72386 0
M  V30 7013 H 695.231 0.596445 -1.31067 0
M  V30 7014 H 697.184 3.61496 -2.16561 0
M  V30 7015 H 695.908 3.09738 -1.03585 0
M  V30 7016 H 694.567 2.16886 -2.9556 0
M  V30 7017 H 694.215 4.52545 -2.19573 0
M  V30 7018 H 693.915 4.3561 -3.94357 0
M  V30 7019 H 695.439 5.09154 -3.37038 0
M  V30 7020 H 696.853 3.261 -4.71521 0
M  V30 7021 H 695.25 2.76081 -5.32822 0
M  V30 7022 H 696.32 1.5532 -4.59351 0
M  V30 7023 N 697.663 1.43903 0.642637 0
M  V30 7024 C 698.593 1.52697 1.76652 0
M  V30 7025 C 699.574 0.380816 1.65782 0
M  V30 7026 O 700.759 0.599432 1.84717 0
M  V30 7027 C 697.889 1.45975 3.15133 0
M  V30 7028 C 696.843 2.58949 3.40778 0
M  V30 7029 C 696.169 2.37279 4.79169 0
M  V30 7030 C 697.469 4.01153 3.34475 0
M  V30 7031 H 699.163 2.46766 1.69549 0
M  V30 7032 H 696.709 1.18767 0.814279 0
M  V30 7033 H 698.662 1.5073 3.93521 0
M  V30 7034 H 697.386 0.484162 3.22991 0
M  V30 7035 H 696.045 2.53564 2.64765 0
M  V30 7036 H 695.693 1.37939 4.83717 0
M  V30 7037 H 695.393 3.13016 4.97287 0
M  V30 7038 H 696.917 2.43834 5.59801 0
M  V30 7039 H 698.331 4.07968 4.02784 0
M  V30 7040 H 696.728 4.77001 3.64129 0
M  V30 7041 H 697.798 4.25539 2.32475 0
M  V30 7042 N 699.141 -0.881989 1.30609 0
M  V30 7043 C 700.366 -1.67236 1.22665 0
M  V30 7044 C 700.791 -1.8696 -0.206777 0
M  V30 7045 O 700.149 -1.4027 -1.14865 0
M  V30 7046 C 700.197 -3.02446 1.96363 0
M  V30 7047 O 699.301 -3.91614 1.29276 0
M  V30 7048 H 698.642 -0.510902 0.424117 0
M  V30 7049 H 701.172 -1.10055 1.72479 0
M  V30 7050 H 701.182 -3.52468 2.055 0
M  V30 7051 H 699.857 -2.8741 3.00613 0
M  V30 7052 H 698.434 -3.50055 1.28514 0
M  V30 7053 N 700.619 -1.13374 -1.09472 0
M  V30 7054 C 702.035 -0.871846 -1.33682 0
M  V30 7055 C 702.235 0.492847 -1.9538 0
M  V30 7056 O 701.291 1.23946 -2.19985 0
M  V30 7057 C 702.604 -1.99608 -2.24893 0
M  V30 7058 C 704.152 -2.02812 -2.38404 0
M  V30 7059 C 704.627 -3.14497 -3.3295 0
M  V30 7060 N 706.118 -3.14004 -3.40523 0
M  V30 7061 C 706.853 -3.97061 -4.13679 0
M  V30 7062 N 706.349 -4.90131 -4.89636 0
M  V30 7063 N 708.142 -3.85162 -4.09398 0
M  V30 7064 H 700.293 -2.01288 -0.677995 0
M  V30 7065 H 702.556 -0.876492 -0.361201 0
M  V30 7066 H 702.262 -2.98 -1.86786 0
M  V30 7067 H 702.136 -1.90981 -3.25278 0
M  V30 7068 H 704.523 -1.05034 -2.75775 0
M  V30 7069 H 704.604 -2.15511 -1.37799 0
M  V30 7070 H 704.248 -4.12514 -2.96302 0
M  V30 7071 H 704.178 -2.99035 -4.33458 0
M  V30 7072 H 706.669 -2.46587 -2.86362 0
M  V30 7073 H 706.982 -5.49996 -5.42885 0
M  V30 7074 H 705.327 -4.94138 -4.88726 0
M  V30 7075 H 708.518 -3.11779 -3.49158 0
M  V30 7076 H 708.691 -4.5012 -4.6615 0
M  V30 7077 N 702.098 1.27442 -0.927168 0
M  V30 7078 C 703.061 2.2512 -0.430525 0
M  V30 7079 C 704.061 1.54357 0.450619 0
M  V30 7080 O 705.251 1.72371 0.251774 0
M  V30 7081 C 702.383 3.38763 0.381144 0
M  V30 7082 H 703.576 2.70569 -1.29354 0
M  V30 7083 H 701.129 1.39355 -0.707806 0
M  V30 7084 H 701.864 2.98695 1.263 0
M  V30 7085 H 701.649 3.91298 -0.250618 0
M  V30 7086 H 703.139 4.11364 0.719012 0
M  V30 7087 N 703.576 0.692616 1.41565 0
M  V30 7088 C 704.486 0.0258451 2.34586 0
M  V30 7089 C 705.502 -0.769324 1.56069 0
M  V30 7090 O 706.678 -0.707563 1.88562 0
M  V30 7091 C 703.743 -0.901289 3.3478 0
M  V30 7092 C 702.804 -0.0986579 4.29187 0
M  V30 7093 C 702.037 -0.981634 5.24595 0
M  V30 7094 O 702.26 -2.22115 5.25377 0
M  V30 7095 O 701.194 -0.432892 6.00341 0
M  V30 7096 H 705.02 0.792537 2.93177 0
M  V30 7097 H 702.605 0.452935 1.42369 0
M  V30 7098 H 704.487 -1.43302 3.96286 0
M  V30 7099 H 703.162 -1.64752 2.78637 0
M  V30 7100 H 702.069 0.477604 3.71039 0
M  V30 7101 H 703.402 0.608848 4.8842 0
M  V30 7102 N 705.054 -1.51416 0.437162 0
M  V30 7103 C 706.47 -1.59349 0.0894459 0
M  V30 7104 C 706.67 -1.44809 -1.40116 0
M  V30 7105 O 705.726 -1.28924 -2.17106 0
M  V30 7106 C 707.039 -2.9446 0.609398 0
M  V30 7107 C 708.587 -3.07769 0.569824 0
M  V30 7108 C 709.062 -4.45404 1.06675 0
M  V30 7109 N 710.553 -4.51723 1.02473 0
M  V30 7110 C 711.288 -5.56544 1.3801 0
M  V30 7111 N 710.784 -6.68784 1.80831 0
M  V30 7112 N 712.577 -5.46901 1.29828 0
M  V30 7113 H 704.728 -1.59112 1.40703 0
M  V30 7114 H 706.991 -0.750031 0.579791 0
M  V30 7115 H 706.697 -3.1047 1.65231 0
M  V30 7116 H 706.571 -3.77184 0.0342236 0
M  V30 7117 H 708.958 -2.91428 -0.464107 0
M  V30 7118 H 709.039 -2.26885 1.1814 0
M  V30 7119 H 708.683 -4.62492 2.09914 0
M  V30 7120 H 708.613 -5.24827 0.431712 0
M  V30 7121 H 711.104 -3.71165 0.710258 0
M  V30 7122 H 711.417 -7.44787 2.06185 0
M  V30 7123 H 709.762 -6.69992 1.84757 0
M  V30 7124 H 712.953 -4.581 0.962397 0
M  V30 7125 H 713.126 -6.2848 1.57851 0
M  V30 7126 N 706.532 -0.168513 -1.56696 0
M  V30 7127 C 707.48 0.779791 -2.19139 0
M  V30 7128 C 708.474 1.23957 -1.1546 0
M  V30 7129 O 709.68 1.20555 -1.33666 0
M  V30 7130 H 706.055 0.269739 -0.701958 0
M  V30 7131 H 708.026 0.229156 -2.97519 0
M  V30 7132 C 706.775 2.00003 -2.84419 0
M  V30 7133 H 706.098 1.65527 -3.63924 0
M  V30 7134 H 707.538 2.64251 -3.31583 0
M  V30 7135 C 705.997 2.82187 -1.84044 0
M  V30 7136 O 706.527 3.79247 -1.32418 0
M  V30 7137 N 704.733 2.47145 -1.52864 0
M  V30 7138 H 704.28 1.68277 -1.9504 0
M  V30 7139 H 704.238 3.02422 -0.859569 0
M  V30 7140 N 708.01 1.57248 0.105221 0
M  V30 7141 C 709.426 1.52853 0.459153 0
M  V30 7142 C 709.626 0.883674 1.8109 0
M  V30 7143 O 708.682 0.471864 2.48052 0
M  V30 7144 C 709.995 2.97596 0.43096 0
M  V30 7145 C 711.543 3.08758 0.513536 0
M  V30 7146 C 712.018 4.55089 0.515593 0
M  V30 7147 N 713.509 4.59597 0.576639 0
M  V30 7148 C 714.244 5.70253 0.599904 0
M  V30 7149 N 713.74 6.90368 0.579985 0
M  V30 7150 N 715.533 5.58399 0.643953 0
M  V30 7151 H 707.684 1.97547 -0.780306 0
M  V30 7152 H 709.947 0.902758 -0.289363 0
M  V30 7153 H 709.653 3.48201 -0.494903 0
M  V30 7154 H 709.527 3.55756 1.2537 0
M  V30 7155 H 711.914 2.58148 1.42982 0
M  V30 7156 H 711.995 2.53568 -0.337148 0
M  V30 7157 H 711.639 5.06348 -0.396701 0
M  V30 7158 H 711.569 5.08105 1.38335 0
M  V30 7159 H 714.06 3.73144 0.597639 0
M  V30 7160 H 714.373 7.70462 0.600741 0
M  V30 7161 H 712.718 6.92843 0.547191 0
M  V30 7162 H 715.909 4.63467 0.656975 0
M  V30 7163 H 716.082 6.44644 0.658616 0
M  V30 7164 N 709.488 -0.375779 1.53054 0
M  V30 7165 C 710.904 -0.716764 1.426 0
M  V30 7166 C 711.104 -1.93651 0.556931 0
M  V30 7167 O 710.16 -2.52475 0.0354461 0
M  V30 7168 C 711.473 -0.939499 2.85646 0
M  V30 7169 C 713.021 -1.04015 2.95212 0
M  V30 7170 C 713.496 -1.29543 4.39298 0
M  V30 7171 N 714.987 -1.36335 4.42682 0
M  V30 7172 C 715.722 -1.57778 5.51266 0
M  V30 7173 N 715.218 -1.76604 6.69913 0
M  V30 7174 N 717.011 -1.60065 5.38828 0
M  V30 7175 H 709.162 0.42664 2.08071 0
M  V30 7176 H 711.425 0.128758 0.939215 0
M  V30 7177 H 711.131 -0.115189 3.51511 0
M  V30 7178 H 711.005 -1.85048 3.2869 0
M  V30 7179 H 713.392 -1.85501 2.29507 0
M  V30 7180 H 713.473 -0.106785 2.55577 0
M  V30 7181 H 713.117 -0.485611 5.05573 0
M  V30 7182 H 713.047 -2.24184 4.76497 0
M  V30 7183 H 715.538 -1.23441 3.5717 0
M  V30 7184 H 715.851 -1.9251 7.48438 0
M  V30 7185 H 714.196 -1.73802 6.72917 0
M  V30 7186 H 717.387 -1.44917 4.45103 0
M  V30 7187 H 717.56 -1.76435 6.23518 0
M  V30 7188 N 710.966 -1.44241 -0.634997 0
M  V30 7189 C 711.896 -1.53632 -1.7584 0
M  V30 7190 C 712.877 -0.389603 -1.65578 0
M  V30 7191 O 714.062 -0.609219 -1.84397 0
M  V30 7192 C 711.192 -1.47644 -3.14354 0
M  V30 7193 C 710.146 -2.60752 -3.394 0
M  V30 7194 C 709.472 -2.39817 -4.77904 0
M  V30 7195 C 710.772 -4.02921 -3.32343 0
M  V30 7196 H 712.466 -2.47662 -1.68238 0
M  V30 7197 H 710.012 -1.19197 -0.807969 0
M  V30 7198 H 711.965 -1.52815 -3.92716 0
M  V30 7199 H 710.689 -0.501284 -3.2273 0
M  V30 7200 H 709.348 -2.54965 -2.63417 0
M  V30 7201 H 708.996 -1.40502 -4.82978 0
M  V30 7202 H 708.696 -3.15649 -4.9562 0
M  V30 7203 H 710.22 -2.46799 -5.585 0
M  V30 7204 H 711.634 -4.10098 -4.00615 0
M  V30 7205 H 710.031 -4.78925 -3.61595 0
M  V30 7206 H 711.101 -4.26766 -2.30215 0
M  V30 7207 N 712.444 0.87505 -1.31075 0
M  V30 7208 C 713.394 1.96933 -1.14898 0
M  V30 7209 C 714.378 1.60783 -0.0613703 0
M  V30 7210 O 715.57 1.74678 -0.285751 0
M  V30 7211 C 712.699 3.3253 -0.853166 0
M  V30 7212 C 711.785 3.74963 -1.98151 0
M  V30 7213 N 712.176 3.89403 -3.22799 0
M  V30 7214 C 710.474 4.04436 -1.8801 0
M  V30 7215 C 711.175 4.25563 -3.96574 0
M  V30 7216 N 710.151 4.3597 -3.24701 0
M  V30 7217 H 713.953 2.06201 -2.09424 0
M  V30 7218 H 711.467 1.06551 -1.22558 0
M  V30 7219 H 713.464 4.10666 -0.718266 0
M  V30 7220 H 712.124 3.24592 0.0839218 0
M  V30 7221 H 713.135 3.74266 -3.57974 0
M  V30 7222 H 709.812 4.04915 -1.01733 0
M  V30 7223 H 711.202 4.44375 -5.03965 0
M  V30 7224 N 713.922 1.13953 1.08869 0
M  V30 7225 C 715.17 0.903023 1.80803 0
M  V30 7226 C 715.491 -0.572151 1.86417 0
M  V30 7227 O 714.761 -1.41589 1.35386 0
M  V30 7228 H 713.341 0.331099 0.669614 0
M  V30 7229 H 716.003 1.43719 1.31647 0
M  V30 7230 H 715.099 1.29881 2.83791 0
M  V30 7231 N 715.4 -1.26948 0.933913 0
M  V30 7232 C 716.677 -1.89212 0.495784 0
M  V30 7233 C 717.057 -1.84469 -1.02637 0
M  V30 7234 O 716.405 -1.29409 -1.88323 0
M  V30 7235 C 716.615 -3.32865 1.0489 0
M  V30 7236 C 717.963 -4.09749 1.11315 0
M  V30 7237 O 718.987 -3.41905 0.998966 0
M  V30 7238 O 717.846 -5.31061 1.28983 0
M  V30 7239 H 714.94 -0.811284 0.160459 0
M  V30 7240 H 717.486 -1.35171 1.02601 0
M  V30 7241 H 716.258 -3.30642 2.09265 0
M  V30 7242 H 715.881 -3.94435 0.500692 0
M  V30 7243 N 716.879 -0.700114 -1.41195 0
M  V30 7244 C 718.109 -0.241828 -2.0518 0
M  V30 7245 C 718.517 1.1157 -1.52803 0
M  V30 7246 O 717.86 1.70926 -0.673042 0
M  V30 7247 C 717.922 -0.12695 -3.59276 0
M  V30 7248 C 717.586 -1.41725 -4.34469 0
M  V30 7249 C 718.583 -2.35604 -4.63451 0
M  V30 7250 C 716.268 -1.67189 -4.73659 0
M  V30 7251 C 718.262 -3.53204 -5.3059 0
M  V30 7252 C 715.949 -2.85073 -5.40534 0
M  V30 7253 C 716.947 -3.77904 -5.68927 0
M  V30 7254 O 716.635 -4.93723 -6.34424 0
M  V30 7255 H 716.367 -0.109247 -0.667114 0
M  V30 7256 H 718.921 -0.954538 -1.81873 0
M  V30 7257 H 717.151 0.641571 -3.81341 0
M  V30 7258 H 718.84 0.294748 -4.04828 0
M  V30 7259 H 719.606 -2.1719 -4.33651 0
M  V30 7260 H 715.485 -0.957935 -4.50937 0
M  V30 7261 H 719.029 -4.25679 -5.52669 0
M  V30 7262 H 714.926 -3.03402 -5.69752 0
M  V30 7263 H 715.694 -4.93597 -6.5292 0
M  V30 7264 N 718.357 1.51182 -0.445186 0
M  V30 7265 C 719.32 2.26501 0.350722 0
M  V30 7266 C 720.32 1.3025 0.942952 0
M  V30 7267 O 721.51 1.53897 0.816175 0
M  V30 7268 C 718.642 3.06274 1.49697 0
M  V30 7269 H 719.835 2.98299 -0.309474 0
M  V30 7270 H 717.388 1.55034 -0.198551 0
M  V30 7271 H 718.123 2.38911 2.19299 0
M  V30 7272 H 717.908 3.76979 1.0784 0
M  V30 7273 H 719.398 3.63306 2.05909 0
M  V30 7274 N 719.835 0.176821 1.56605 0
M  V30 7275 C 721.065 -0.472142 2.01133 0
M  V30 7276 C 721.473 -1.56979 1.05614 0
M  V30 7277 O 720.816 -1.83632 0.0500137 0
M  V30 7278 C 720.878 -1.10547 3.42081 0
M  V30 7279 C 720.542 -0.148806 4.56758 0
M  V30 7280 C 721.539 0.634939 5.16008 0
M  V30 7281 C 719.224 -0.0430325 5.02282 0
M  V30 7282 C 721.218 1.5116 6.19217 0
M  V30 7283 C 718.905 0.83721 6.05338 0
M  V30 7284 C 719.903 1.61311 6.63677 0
M  V30 7285 O 719.591 2.47863 7.64735 0
M  V30 7286 H 719.323 -0.124725 0.664394 0
M  V30 7287 H 721.877 0.277329 2.03519 0
M  V30 7288 H 720.107 -1.90318 3.36625 0
M  V30 7289 H 721.796 -1.6572 3.70529 0
M  V30 7290 H 722.562 0.563424 4.81716 0
M  V30 7291 H 718.441 -0.636753 4.56581 0
M  V30 7292 H 721.985 2.11767 6.64681 0
M  V30 7293 H 717.882 0.909908 6.39055 0
M  V30 7294 H 718.65 2.4144 7.8208 0
M  V30 7295 N 721.313 -1.57302 -0.09688 0
M  V30 7296 C 722.263 -1.98369 -1.12399 0
M  V30 7297 C 723.247 -0.861872 -1.3587 0
M  V30 7298 O 724.439 -1.1257 -1.36591 0
M  V30 7299 C 721.568 -2.41017 -2.4447 0
M  V30 7300 C 720.654 -3.59881 -2.24381 0
M  V30 7301 N 721.045 -4.74872 -1.74155 0
M  V30 7302 C 719.343 -3.65943 -2.54954 0
M  V30 7303 C 720.044 -5.56823 -1.68294 0
M  V30 7304 N 719.02 -4.99942 -2.13444 0
M  V30 7305 H 722.822 -2.84726 -0.728575 0
M  V30 7306 H 720.336 -1.59523 -0.304332 0
M  V30 7307 H 722.333 -2.68665 -3.18786 0
M  V30 7308 H 720.993 -1.56036 -2.84751 0
M  V30 7309 H 722.004 -4.97657 -1.43379 0
M  V30 7310 H 718.681 -2.9162 -2.98771 0
M  V30 7311 H 720.071 -6.59099 -1.30528 0
M  V30 7312 N 722.791 0.367657 -1.53252 0
M  V30 7313 C 724.202 0.944563 -1.61043 0
M  V30 7314 C 724.553 1.90325 -0.476546 0
M  V30 7315 O 723.678 2.12721 0.397333 0
M  V30 7316 C 724.273 1.71992 -2.91898 0
M  V30 7317 C 722.832 2.2462 -3.02031 0
M  V30 7318 C 721.979 1.05799 -2.56324 0
M  V30 7319 H 724.93 0.146516 -1.58022 0
M  V30 7320 H 724.951 2.58095 -2.79584 0
M  V30 7321 H 724.463 1.02192 -3.74404 0
M  V30 7322 H 722.564 2.97668 -2.24108 0
M  V30 7323 H 722.677 2.52644 -4.07073 0
M  V30 7324 H 721.041 1.42435 -2.1115 0
M  V30 7325 H 721.824 0.375008 -3.41246 0
M  V30 7326 N 724.269 1.44576 0.627338 0
M  V30 7327 C 725.199 1.54562 1.75022 0
M  V30 7328 C 726.18 0.398378 1.65369 0
M  V30 7329 O 727.365 0.61899 1.84071 0
M  V30 7330 C 724.495 1.49309 3.13567 0
M  V30 7331 C 723.449 2.62549 3.38012 0
M  V30 7332 C 722.775 2.42348 4.76625 0
M  V30 7333 C 724.075 4.04678 3.30202 0
M  V30 7334 H 725.769 2.4855 1.66922 0
M  V30 7335 H 723.315 1.19624 0.801636 0
M  V30 7336 H 725.268 1.54895 3.919 0
M  V30 7337 H 723.992 0.518392 3.2246 0
M  V30 7338 H 722.651 2.56358 2.62061 0
M  V30 7339 H 722.299 1.43062 4.82226 0
M  V30 7340 H 721.999 3.18273 4.93939 0
M  V30 7341 H 723.523 2.49758 5.57183 0
M  V30 7342 H 724.937 4.12217 3.98435 0
M  V30 7343 H 723.334 4.80836 3.5905 0
M  V30 7344 H 724.404 4.2798 2.27949 0
M  V30 7345 N 725.747 -0.868086 1.31537 0
M  V30 7346 C 726.679 -1.98165 1.15166 0
M  V30 7347 C 727.692 -1.6255 0.0902335 0
M  V30 7348 O 728.881 -1.75272 0.33791 0
M  V30 7349 C 725.981 -3.30772 0.737776 0
M  V30 7350 C 725.154 -3.94716 1.88462 0
M  V30 7351 C 724.213 -5.05641 1.45648 0
M  V30 7352 O 723.239 -5.2636 2.16642 0
M  V30 7353 N 724.441 -5.79474 0.34493 0
M  V30 7354 H 727.206 -2.12754 2.11083 0
M  V30 7355 H 724.767 -1.04217 1.23897 0
M  V30 7356 H 726.759 -4.02366 0.434032 0
M  V30 7357 H 725.329 -3.1233 -0.129834 0
M  V30 7358 H 724.549 -3.16079 2.35558 0
M  V30 7359 H 725.837 -4.34175 2.65273 0
M  V30 7360 H 725.235 -5.65164 -0.246259 0
M  V30 7361 H 723.792 -6.51722 0.100728 0
M  V30 7362 N 727.225 -1.14528 -1.08264 0
M  V30 7363 C 728.135 -0.84728 -2.18765 0
M  V30 7364 C 729.151 0.172826 -1.7314 0
M  V30 7365 O 730.327 0.000985336 -2.014 0
M  V30 7366 C 727.392 -0.330633 -3.4512 0
M  V30 7367 C 726.453 -1.41348 -4.05363 0
M  V30 7368 C 725.686 -0.921387 -5.25686 0
M  V30 7369 O 725.909 0.236587 -5.69909 0
M  V30 7370 O 724.843 -1.70101 -5.77364 0
M  V30 7371 H 728.669 -1.7708 -2.46731 0
M  V30 7372 H 726.254 -0.923661 -1.17426 0
M  V30 7373 H 728.136 -0.0485053 -4.21372 0
M  V30 7374 H 726.811 0.565147 -3.18728 0
M  V30 7375 H 725.718 -1.74908 -3.30693 0
M  V30 7376 H 727.051 -2.28383 -4.36007 0
M  V30 7377 N 728.703 1.26451 -0.940633 0
M  V30 7378 C 729.636 2.24771 -0.394094 0
M  V30 7379 C 730.614 1.54169 0.516781 0
M  V30 7380 O 731.798 1.82942 0.454352 0
M  V30 7381 C 728.925 3.3591 0.433807 0
M  V30 7382 C 727.971 4.24472 -0.415464 0
M  V30 7383 S 728.804 5.0293 -1.83907 0
M  V30 7384 C 729.96 6.17546 -1.01921 0
M  V30 7385 H 730.193 2.70782 -1.22737 0
M  V30 7386 H 727.726 1.35308 -0.743709 0
M  V30 7387 H 729.684 4.00387 0.905576 0
M  V30 7388 H 728.345 2.88512 1.24175 0
M  V30 7389 H 727.538 5.03525 0.218833 0
M  V30 7390 H 727.14 3.64857 -0.821897 0
M  V30 7391 H 729.432 6.76996 -0.261227 0
M  V30 7392 H 730.375 6.8528 -1.78318 0
M  V30 7393 H 730.783 5.6176 -0.555511 0
M  V30 7394 N 730.181 0.707592 1.40822 0
M  V30 7395 C 731.129 0.0386643 2.32568 0
M  V30 7396 C 732.123 -0.755653 1.51612 0
M  V30 7397 O 733.329 -0.659921 1.67467 0
M  V30 7398 H 729.704 -0.00629912 0.751974 0
M  V30 7399 H 731.675 0.8293 2.86645 0
M  V30 7400 C 730.424 -0.87496 3.36511 0
M  V30 7401 H 729.747 -0.273157 3.98866 0
M  V30 7402 H 731.187 -1.31111 4.03219 0
M  V30 7403 C 729.646 -1.99672 2.71353 0
M  V30 7404 O 730.176 -3.08676 2.57064 0
M  V30 7405 N 728.382 -1.77799 2.29861 0
M  V30 7406 H 727.929 -0.89147 2.41683 0
M  V30 7407 H 727.887 -2.53036 1.86601 0
M  V30 7408 N 731.66 -1.50943 0.453197 0
M  V30 7409 C 732.908 -2.01813 -0.107709 0
M  V30 7410 C 733.229 -1.33841 -1.41816 0
M  V30 7411 O 732.499 -0.477973 -1.8998 0
M  V30 7412 H 731.079 -0.745773 -0.0427948 0
M  V30 7413 H 733.741 -1.8545 0.599531 0
M  V30 7414 H 732.837 -3.10911 -0.27218 0
M  V30 7415 N 733.138 -0.185124 -1.56509 0
M  V30 7416 C 734.048 0.751908 -2.22224 0
M  V30 7417 C 735.064 1.24244 -1.21817 0
M  V30 7418 O 736.24 1.29169 -1.54523 0
M  V30 7419 C 733.305 1.95837 -2.86092 0
M  V30 7420 C 732.366 1.51337 -4.01741 0
M  V30 7421 C 731.599 2.66233 -4.62554 0
M  V30 7422 O 731.822 3.8346 -4.22273 0
M  V30 7423 O 730.756 2.39517 -5.52191 0
M  V30 7424 H 734.582 0.222304 -3.02885 0
M  V30 7425 H 732.167 0.0437141 -1.49336 0
M  V30 7426 H 734.049 2.66368 -3.26536 0
M  V30 7427 H 732.724 2.47677 -2.08417 0
M  V30 7428 H 731.631 0.777155 -3.65939 0
M  V30 7429 H 732.964 1.04175 -4.81049 0
M  V30 7430 N 734.616 1.57351 0.0885366 0
M  V30 7431 C 736.027 1.75303 0.642308 0
M  V30 7432 C 736.378 0.808238 1.78779 0
M  V30 7433 O 735.503 -0.01171 2.16397 0
M  V30 7434 C 736.098 3.17885 1.17194 0
M  V30 7435 C 734.657 3.37239 1.67172 0
M  V30 7436 C 733.804 2.7108 0.584045 0
M  V30 7437 H 736.755 1.58103 -0.137567 0
M  V30 7438 H 736.776 3.2112 2.04114 0
M  V30 7439 H 736.288 3.86625 0.338024 0
M  V30 7440 H 734.389 2.73588 2.52943 0
M  V30 7441 H 734.502 4.45594 1.76019 0
M  V30 7442 H 732.866 2.33161 1.02508 0
M  V30 7443 H 733.649 3.42464 -0.239403 0
M  V30 7444 N 736.094 -0.359525 1.53444 0
M  V30 7445 C 737.024 -1.44662 1.8329 0
M  V30 7446 C 738.005 -1.55617 0.68683 0
M  V30 7447 O 739.19 -1.70086 0.93725 0
M  V30 7448 C 736.32 -2.81923 2.02822 0
M  V30 7449 C 735.274 -2.85787 3.18606 0
M  V30 7450 C 734.6 -4.25781 3.23442 0
M  V30 7451 C 735.9 -2.52762 4.57065 0
M  V30 7452 H 737.594 -1.19934 2.74329 0
M  V30 7453 H 735.14 -0.575517 1.31999 0
M  V30 7454 H 737.093 -3.58005 2.22285 0
M  V30 7455 H 735.817 -3.08051 1.085 0
M  V30 7456 H 734.476 -2.12157 2.98973 0
M  V30 7457 H 734.124 -4.48994 2.26745 0
M  V30 7458 H 733.824 -4.29281 4.01238 0
M  V30 7459 H 735.348 -5.03727 3.45096 0
M  V30 7460 H 736.762 -3.18557 4.76649 0
M  V30 7461 H 735.159 -2.67569 5.37147 0
M  V30 7462 H 736.229 -1.47993 4.61764 0
M  V30 7463 N 737.572 -1.44907 -0.619662 0
M  V30 7464 C 738.535 -1.52282 -1.71297 0
M  V30 7465 C 739.535 -0.40359 -1.55653 0
M  V30 7466 O 740.725 -0.666638 -1.6094 0
M  V30 7467 C 737.857 -1.40778 -3.10474 0
M  V30 7468 H 739.05 -2.49683 -1.66128 0
M  V30 7469 H 736.603 -1.32168 -0.834339 0
M  V30 7470 H 737.338 -0.445156 -3.2123 0
M  V30 7471 H 737.123 -2.21947 -3.23237 0
M  V30 7472 H 738.613 -1.48946 -3.90135 0
M  V30 7473 N 739.05 0.861098 -1.31996 0
M  V30 7474 C 740.013 1.95068 -1.20338 0
M  V30 7475 C 741.013 1.60289 -0.128114 0
M  V30 7476 O 742.203 1.70048 -0.378044 0
M  V30 7477 C 739.335 3.30153 -0.849205 0
M  V30 7478 H 740.528 2.06833 -2.17164 0
M  V30 7479 H 738.081 1.05049 -1.15734 0
M  V30 7480 H 738.816 3.24087 0.117508 0
M  V30 7481 H 738.601 3.56771 -1.62655 0
M  V30 7482 H 740.091 4.10025 -0.791782 0
M  V30 7483 N 740.528 1.15101 1.07655 0
M  V30 7484 C 741.438 0.858869 2.18313 0
M  V30 7485 C 742.454 -0.163641 1.73229 0
M  V30 7486 O 743.63 0.00969541 2.01398 0
M  V30 7487 C 740.695 0.34893 3.4494 0
M  V30 7488 C 739.756 1.43495 4.04608 0
M  V30 7489 C 738.989 0.949253 5.2519 0
M  V30 7490 O 739.212 -0.20636 5.70027 0
M  V30 7491 O 738.146 1.73161 5.76454 0
M  V30 7492 H 741.972 1.78386 2.45788 0
M  V30 7493 H 739.557 0.929876 1.16934 0
M  V30 7494 H 741.439 0.070851 4.2134 0
M  V30 7495 H 740.114 -0.548237 3.19024 0
M  V30 7496 H 739.021 1.7666 3.29761 0
M  V30 7497 H 740.354 2.30692 4.3479 0
M  V30 7498 N 742.006 -1.2595 0.947325 0
M  V30 7499 C 742.953 -2.26159 0.460497 0
M  V30 7500 C 743.923 -1.58919 -0.483125 0
M  V30 7501 O 745.108 -1.86603 -0.397983 0
M  V30 7502 C 742.248 -3.441 -0.26247 0
M  V30 7503 C 741.361 -4.25999 0.717539 0
M  V30 7504 C 740.496 -5.31193 -0.0272486 0
M  V30 7505 C 739.535 -6.04774 0.944177 0
M  V30 7506 N 738.672 -7.01721 0.230741 0
M  V30 7507 H 743.512 -2.67173 1.31995 0
M  V30 7508 H 741.049 -1.31358 0.662088 0
M  V30 7509 H 743.007 -4.11317 -0.698137 0
M  V30 7510 H 741.637 -3.03983 -1.08602 0
M  V30 7511 H 740.689 -3.58513 1.27171 0
M  V30 7512 H 742.001 -4.76981 1.45913 0
M  V30 7513 H 741.155 -6.04451 -0.521903 0
M  V30 7514 H 739.894 -4.81066 -0.801682 0
M  V30 7515 H 738.899 -5.30338 1.4499 0
M  V30 7516 H 740.124 -6.56991 1.71872 0
M  V30 7517 H 738.07 -6.53895 -0.525088 0
M  V30 7518 H 737.987 -7.50484 0.911556 0
M  V30 7519 H 739.255 -7.79122 -0.242616 0
M  V30 7520 N 743.484 -0.715051 -1.40445 0
M  V30 7521 C 744.394 -0.0631624 -2.34515 0
M  V30 7522 C 745.41 0.744397 -1.57273 0
M  V30 7523 O 746.586 0.677475 -1.89663 0
M  V30 7524 C 743.651 0.847915 -3.36172 0
M  V30 7525 C 742.712 0.0303655 -4.29289 0
M  V30 7526 C 741.945 0.898051 -5.2609 0
M  V30 7527 O 742.168 2.13729 -5.28844 0
M  V30 7528 O 741.102 0.337328 -6.00954 0
M  V30 7529 H 744.928 -0.839078 -2.91879 0
M  V30 7530 H 742.513 -0.475527 -1.4163 0
M  V30 7531 H 744.395 1.3698 -3.98515 0
M  V30 7532 H 743.07 1.60299 -2.81222 0
M  V30 7533 H 741.977 -0.536573 -3.70232 0
M  V30 7534 H 743.31 -0.686474 -4.87389 0
M  V30 7535 N 744.962 1.50701 -0.461195 0
M  V30 7536 C 745.894 2.26124 0.374244 0
M  V30 7537 C 746.907 1.31064 0.965715 0
M  V30 7538 O 748.096 1.56647 0.855801 0
M  V30 7539 C 745.196 3.01996 1.5379 0
M  V30 7540 C 744.369 4.24336 1.06101 0
M  V30 7541 C 743.428 4.82585 2.09756 0
M  V30 7542 O 742.454 5.43775 1.68219 0
M  V30 7543 N 743.656 4.68712 3.42475 0
M  V30 7544 H 746.421 2.9846 -0.2723 0
M  V30 7545 H 743.982 1.59256 -0.291415 0
M  V30 7546 H 745.974 3.37846 2.22806 0
M  V30 7547 H 744.544 2.32521 2.08933 0
M  V30 7548 H 743.764 3.93707 0.197085 0
M  V30 7549 H 745.052 5.03678 0.720156 0
M  V30 7550 H 744.45 4.20026 3.78938 0
M  V30 7551 H 743.007 5.08858 4.07317 0
M  V30 7552 N 746.441 0.193421 1.56409 0
M  V30 7553 C 747.852 -0.319471 1.83946 0
M  V30 7554 C 748.203 -1.61505 1.11403 0
M  V30 7555 O 747.328 -2.13139 0.374289 0
M  V30 7556 C 747.923 -0.586411 3.33686 0
M  V30 7557 C 746.482 -1.04368 3.61641 0
M  V30 7558 C 745.629 -0.0913834 2.77149 0
M  V30 7559 H 748.58 0.417242 1.53117 0
M  V30 7560 H 748.601 -1.43591 3.52366 0
M  V30 7561 H 748.113 0.356701 3.86457 0
M  V30 7562 H 746.214 -2.00113 3.14302 0
M  V30 7563 H 746.327 -0.937549 4.69837 0
M  V30 7564 H 744.691 -0.592954 2.47702 0
M  V30 7565 H 745.474 0.846142 3.32709 0
M  V30 7566 N 747.919 -1.57396 -0.0801906 0
M  V30 7567 C 749.167 -1.86467 -0.779384 0
M  V30 7568 C 749.488 -0.784243 -1.78535 0
M  V30 7569 O 748.758 0.187986 -1.94996 0
M  V30 7570 H 747.338 -0.68806 -0.29083 0
M  V30 7571 H 750 -1.94813 -0.0582749 0
M  V30 7572 H 749.096 -2.83701 -1.30078 0
M  V30 7573 N 749.397 0.351382 -1.53633 0
M  V30 7574 C 750.645 1.09034 -1.70165 0
M  V30 7575 C 750.966 1.89413 -0.463422 0
M  V30 7576 O 750.236 1.888 0.522624 0
M  V30 7577 H 748.816 0.405522 -0.627344 0
M  V30 7578 H 751.478 0.394554 -1.90865 0
M  V30 7579 H 750.574 1.77215 -2.56907 0
M  V30 7580 N 750.875 1.45233 0.611969 0
M  V30 7581 C 751.838 1.53189 1.70487 0
M  V30 7582 C 752.838 0.411839 1.55437 0
M  V30 7583 O 754.028 0.675164 1.60584 0
M  V30 7584 C 751.16 1.42422 3.09723 0
M  V30 7585 H 752.353 2.5056 1.64802 0
M  V30 7586 H 749.906 1.32609 0.827318 0
M  V30 7587 H 750.641 0.462185 3.2099 0
M  V30 7588 H 750.426 2.23658 3.22055 0
M  V30 7589 H 751.916 1.51012 3.89339 0
M  V30 7590 N 752.353 -0.854086 1.3245 0
M  V30 7591 C 753.303 -1.9508 1.18016 0
M  V30 7592 C 754.287 -1.60665 0.0869417 0
M  V30 7593 O 755.479 -1.74201 0.313505 0
M  V30 7594 C 752.608 -3.3113 0.905961 0
M  V30 7595 C 751.694 -3.71763 2.04091 0
M  V30 7596 N 752.085 -3.84218 3.28953 0
M  V30 7597 C 750.383 -4.01393 1.94421 0
M  V30 7598 C 751.084 -4.192 4.03294 0
M  V30 7599 N 750.06 -4.30749 3.31596 0
M  V30 7600 H 753.862 -2.02843 2.12678 0
M  V30 7601 H 751.376 -1.04588 1.24238 0
M  V30 7602 H 753.373 -4.09471 0.783508 0
M  V30 7603 H 752.033 -3.24684 -0.0322715 0
M  V30 7604 H 753.044 -3.68524 3.63883 0
M  V30 7605 H 749.721 -4.03246 1.08162 0
M  V30 7606 H 751.111 -4.36301 5.1097 0
M  V30 7607 N 753.831 -1.1567 -1.07043 0
M  V30 7608 C 754.779 -0.852204 -2.16426 0
M  V30 7609 C 755.773 0.175661 -1.68487 0
M  V30 7610 O 756.979 0.0303874 -1.79974 0
M  V30 7611 H 753.354 -0.257942 -0.706378 0
M  V30 7612 H 755.325 -1.78231 -2.39324 0
M  V30 7613 C 754.074 -0.361362 -3.45817 0
M  V30 7614 H 753.397 -1.14369 -3.83092 0
M  V30 7615 H 754.837 -0.186997 -4.23587 0
M  V30 7616 C 753.296 0.917703 -3.2416 0
M  V30 7617 O 753.826 1.98858 -3.49025 0
M  V30 7618 N 752.032 0.858456 -2.77631 0
M  V30 7619 H 751.579 -0.0131821 -2.57597 0
M  V30 7620 H 751.537 1.71478 -2.6352 0
M  V30 7621 N 755.309 1.25446 -0.953992 0
M  V30 7622 C 756.72 1.75047 -0.649255 0
M  V30 7623 C 757.071 1.77527 0.835385 0
M  V30 7624 O 756.196 1.39569 1.65377 0
M  V30 7625 C 756.791 3.17889 -1.17183 0
M  V30 7626 C 755.35 3.65052 -0.917267 0
M  V30 7627 C 754.497 2.44124 -1.31525 0
M  V30 7628 H 757.448 1.11342 -1.13087 0
M  V30 7629 H 757.469 3.76768 -0.531616 0
M  V30 7630 H 756.981 3.16052 -2.25239 0
M  V30 7631 H 755.082 3.72305 0.148354 0
M  V30 7632 H 755.195 4.53222 -1.55328 0
M  V30 7633 H 753.559 2.43906 -0.733624 0
M  V30 7634 H 754.342 2.44979 -2.405 0
M  V30 7635 N 756.787 0.722489 1.40064 0
M  V30 7636 C 758.034 0.264979 2.00759 0
M  V30 7637 C 758.362 -1.14395 1.57302 0
M  V30 7638 O 757.617 -1.79165 0.787298 0
M  V30 7639 C 757.916 0.300682 3.56133 0
M  V30 7640 C 757.582 1.66087 4.19197 0
M  V30 7641 C 756.244 2.03319 4.36136 0
M  V30 7642 C 758.596 2.55452 4.54306 0
M  V30 7643 C 755.924 3.29448 4.8547 0
M  V30 7644 C 758.276 3.8094 5.05042 0
M  V30 7645 C 756.94 4.1828 5.2019 0
M  V30 7646 H 756.21 0.0969625 0.734629 0
M  V30 7647 H 758.857 0.926877 1.67575 0
M  V30 7648 H 757.162 -0.44479 3.89267 0
M  V30 7649 H 758.859 -0.0712542 4.00937 0
M  V30 7650 H 755.449 1.36137 4.06405 0
M  V30 7651 H 759.633 2.27961 4.40849 0
M  V30 7652 H 754.889 3.58338 4.95382 0
M  V30 7653 H 759.063 4.50351 5.31184 0
M  V30 7654 H 756.69 5.16081 5.58179 0
M  V30 7655 N 758.265 -1.50454 0.469181 0
M  V30 7656 C 759.212 -2.28486 -0.325982 0
M  V30 7657 C 760.182 -1.33455 -0.988893 0
M  V30 7658 O 761.367 -1.6239 -1.0017 0
M  V30 7659 C 758.507 -3.15288 -1.40313 0
M  V30 7660 C 757.62 -4.25348 -0.755183 0
M  V30 7661 C 756.755 -4.9941 -1.81006 0
M  V30 7662 C 755.794 -6.01348 -1.14226 0
M  V30 7663 N 754.931 -6.68695 -2.1399 0
M  V30 7664 H 759.771 -2.95987 0.345753 0
M  V30 7665 H 757.308 -1.45965 0.182355 0
M  V30 7666 H 759.266 -3.63964 -2.03927 0
M  V30 7667 H 757.896 -2.49837 -2.04405 0
M  V30 7668 H 756.948 -3.80399 -0.00651901 0
M  V30 7669 H 758.26 -4.98279 -0.227941 0
M  V30 7670 H 757.414 -5.51794 -2.52206 0
M  V30 7671 H 756.153 -4.26181 -2.3711 0
M  V30 7672 H 755.158 -5.48225 -0.415876 0
M  V30 7673 H 756.383 -6.76548 -0.588135 0
M  V30 7674 H 754.329 -5.98258 -2.69115 0
M  V30 7675 H 754.246 -7.37495 -1.66246 0
M  V30 7676 H 755.514 -7.25697 -2.84576 0
M  V30 7677 N 759.743 -0.201713 -1.56304 0
M  V30 7678 C 761.02 0.483273 -1.89536 0
M  V30 7679 C 761.4 1.79176 -1.11621 0
M  V30 7680 O 760.748 2.27445 -0.219339 0
M  V30 7681 C 760.958 0.695604 -3.41998 0
M  V30 7682 C 762.306 1.012 -4.12364 0
M  V30 7683 O 763.33 0.783094 -3.47485 0
M  V30 7684 O 762.189 1.44534 -5.27041 0
M  V30 7685 H 759.283 0.252801 -0.787414 0
M  V30 7686 H 761.829 -0.24242 -1.6796 0
M  V30 7687 H 760.601 -0.228165 -3.90634 0
M  V30 7688 H 760.224 1.47351 -3.69288 0
M  V30 7689 O 761.26 1.6137 -0.064807 0
M  V30 7690 H 761.951 1.85948 0.542485 0
M  V30 END ATOM
M  V30 BEGIN BOND
M  V30 END BOND
M  V30 END CTAB
M  END
$$$$
