drugbank_target|Q9UKL6 Phosphatidylcholine transfer protein (DB02306; DB04372)
 OpenBabel12092119433D

  0  0  0     0  0            999 V3000
M  V30 BEGIN CTAB
M  V30 COUNTS 3460 3502 0 0 0
M  V30 BEGIN ATOM
M  V30 1 H -0.908 1.98254 -0.117106 0
M  V30 2 N 0 1.576 0 0
M  V30 3 C 0.933 2.03868 1.02534 0
M  V30 4 C 1.911 0.928543 1.3348 0
M  V30 5 O 3.095 1.19667 1.45644 0
M  V30 6 C 0.222 2.43627 2.35294 0
M  V30 7 C -0.732 3.65373 2.2001 0
M  V30 8 S 0.101 5.13292 1.52614 0
M  V30 9 C 1.257 5.56322 2.86805 0
M  V30 10 H 1.49 2.90518 0.631377 0
M  V30 11 H -0.977 1.52953 0.210867 0
M  V30 12 H 0.981 2.67203 3.11629 0
M  V30 13 H -0.358 1.57376 2.7183 0
M  V30 14 H -1.165 3.90944 3.18086 0
M  V30 15 H -1.563 3.418 1.51819 0
M  V30 16 H 0.729 5.58782 3.83104 0
M  V30 17 H 1.672 6.56266 2.65933 0
M  V30 18 H 2.08 4.83886 2.90714 0
M  V30 19 N 1.4781 -0.272755 1.55222 0
M  V30 20 C 2.3881 -1.35918 1.91216 0
M  V30 21 C 3.4041 -1.54026 0.809436 0
M  V30 22 O 4.5801 -1.68148 1.10852 0
M  V30 23 C 1.6451 -2.69834 2.17693 0
M  V30 24 C 0.7061 -2.6047 3.41253 0
M  V30 25 C -0.0609 -3.88 3.66458 0
M  V30 26 O 0.1621 -4.88693 2.94169 0
M  V30 27 O -0.9039 -3.88189 4.59992 0
M  V30 28 H 2.9221 -1.0839 2.83699 0
M  V30 29 H 0.5071 -0.471301 1.41771 0
M  V30 30 H 2.3891 -3.49017 2.36147 0
M  V30 31 H 1.0641 -2.97148 1.28392 0
M  V30 32 H -0.0289 -1.79663 3.28134 0
M  V30 33 H 1.3041 -2.38106 4.30774 0
M  V30 34 N 2.9562 -1.48159 -0.537278 0
M  V30 35 C 3.8862 -1.65029 -1.6519 0
M  V30 36 C 4.8672 -0.499281 -1.62607 0
M  V30 37 O 6.0522 -0.730972 -1.79918 0
M  V30 38 C 3.1822 -1.68303 -3.03795 0
M  V30 39 C 2.1362 -2.8283 -3.21234 0
M  V30 40 C 1.4622 -2.71189 -4.60826 0
M  V30 41 C 2.7622 -4.24211 -3.04701 0
M  V30 42 H 4.4562 -2.58341 -1.51328 0
M  V30 43 H 2.0022 -1.24325 -0.726585 0
M  V30 44 H 3.9552 -1.78693 -3.81637 0
M  V30 45 H 2.6792 -0.715635 -3.18663 0
M  V30 46 H 1.3382 -2.71983 -2.45807 0
M  V30 47 H 0.9862 -1.72435 -4.7252 0
M  V30 48 H 0.6862 -3.48035 -4.7344 0
M  V30 49 H 2.2102 -2.83537 -5.40777 0
M  V30 50 H 3.6242 -4.3593 -3.72341 0
M  V30 51 H 2.0212 -5.01998 -3.28813 0
M  V30 52 H 3.0912 -4.41184 -2.01209 0
M  V30 53 N 4.4343 0.785586 -1.36625 0
M  V30 54 C 5.3973 1.87999 -1.31107 0
M  V30 55 C 6.3973 1.59316 -0.217959 0
M  V30 56 O 7.5873 1.67656 -0.472977 0
M  V30 57 C 4.7193 3.24861 -1.03334 0
M  V30 58 H 5.9123 1.94307 -2.2844 0
M  V30 59 H 3.4653 0.983813 -1.21453 0
M  V30 60 H 4.2003 3.24235 -0.0647432 0
M  V30 61 H 3.9853 3.4707 -1.82441 0
M  V30 62 H 5.4753 4.04929 -1.02088 0
M  V30 63 N 5.9124 1.20967 1.01018 0
M  V30 64 C 6.8754 0.965918 2.07853 0
M  V30 65 C 7.8754 -0.0610545 1.60684 0
M  V30 66 O 9.0654 0.175681 1.73312 0
M  V30 67 C 6.1974 0.455513 3.37843 0
M  V30 68 H 7.3904 1.91365 2.3091 0
M  V30 69 H 4.9434 1.02594 1.17916 0
M  V30 70 H 5.6784 -0.497381 3.20463 0
M  V30 71 H 5.4634 1.19622 3.73407 0
M  V30 72 H 6.9534 0.304667 4.16487 0
M  V30 73 N 7.3905 -1.2043 1.01659 0
M  V30 74 C 8.6385 -1.89423 0.704522 0
M  V30 75 C 8.9595 -1.79231 -0.768197 0
M  V30 76 O 8.2295 -1.1947 -1.55254 0
M  V30 77 H 6.8095 -0.701178 0.257602 0
M  V30 78 H 9.4715 -1.4626 1.28818 0
M  V30 79 H 8.5675 -2.96052 0.987916 0
M  V30 80 N 8.8686 -0.792821 -1.36206 0
M  V30 81 C 10.0936 -0.377701 -2.03932 0
M  V30 82 C 10.5186 0.998947 -1.59382 0
M  V30 83 O 9.8766 1.64421 -0.763903 0
M  V30 84 C 9.9246 -0.453635 -3.57735 0
M  V30 85 O 9.0286 0.538151 -4.08874 0
M  V30 86 H 8.3696 -0.159855 -0.644471 0
M  V30 87 H 10.8996 -1.07488 -1.7409 0
M  V30 88 H 10.9096 -0.318464 -4.06755 0
M  V30 89 H 9.5846 -1.45784 -3.89512 0
M  V30 90 H 8.1616 0.364359 -3.71116 0
M  V30 91 N 10.3467 1.47872 -0.545128 0
M  V30 92 C 11.5937 2.02493 -0.0165858 0
M  V30 93 C 11.9217 1.42073 1.32836 0
M  V30 94 O 11.1767 0.561459 1.87473 0
M  V30 95 C 11.4757 3.57131 0.13867 0
M  V30 96 C 11.1417 4.36411 -1.13384 0
M  V30 97 C 9.8037 4.57792 -1.48256 0
M  V30 98 C 12.1557 4.82223 -1.97764 0
M  V30 99 C 9.4837 5.22233 -2.67376 0
M  V30 100 C 11.8357 5.47977 -3.16076 0
M  V30 101 C 10.4997 5.67593 -3.51275 0
M  V30 102 H 9.7697 0.740975 -0.00606918 0
M  V30 103 H 12.4167 1.77683 -0.714207 0
M  V30 104 H 10.7217 3.80865 0.919172 0
M  V30 105 H 12.4187 3.97031 0.562782 0
M  V30 106 H 9.0087 4.2004 -0.852297 0
M  V30 107 H 13.1927 4.65493 -1.72132 0
M  V30 108 H 8.4487 5.35616 -2.94831 0
M  V30 109 H 12.6227 5.8244 -3.81755 0
M  V30 110 H 10.2497 6.17298 -4.43675 0
M  V30 111 N 11.8248 0.280983 1.55075 0
M  V30 112 C 13.0498 -0.340154 2.04592 0
M  V30 113 C 13.4748 -1.48246 1.15779 0
M  V30 114 O 12.8328 -1.80614 0.15761 0
M  V30 115 C 12.8808 -0.793104 3.5177 0
M  V30 116 O 11.9848 -1.89981 3.66034 0
M  V30 117 H 11.3258 -0.0694289 0.66036 0
M  V30 118 H 13.8558 0.416993 2.00306 0
M  V30 119 H 13.8658 -1.08729 3.93245 0
M  V30 120 H 12.5408 0.0426163 4.15878 0
M  V30 121 H 11.1178 -1.60771 3.36463 0
M  V30 122 N 13.3029 -1.57598 0.00835791 0
M  V30 123 C 14.2129 -2.12385 -0.996487 0
M  V30 124 C 15.2289 -1.07108 -1.37127 0
M  V30 125 O 16.4049 -1.39055 -1.4569 0
M  V30 126 C 13.4699 -2.62314 -2.26699 0
M  V30 127 C 12.5309 -3.82225 -1.95456 0
M  V30 128 C 11.7639 -4.29763 -3.16449 0
M  V30 129 O 11.9869 -3.76584 -4.28416 0
M  V30 130 O 10.9209 -5.21832 -2.99958 0
M  V30 131 H 14.7469 -2.98479 -0.560725 0
M  V30 132 H 12.3319 -1.47903 -0.210987 0
M  V30 133 H 14.2139 -2.94589 -3.01322 0
M  V30 134 H 12.8889 -1.79313 -2.69497 0
M  V30 135 H 11.7959 -3.54909 -1.18282 0
M  V30 136 H 13.1289 -4.66324 -1.57489 0
M  V30 137 N 14.781 0.264519 -1.55364 0
M  V30 138 C 15.691 1.34902 -1.91934 0
M  V30 139 C 16.707 1.53595 -0.817593 0
M  V30 140 O 17.883 1.67558 -1.11742 0
M  V30 141 C 14.948 2.68676 -2.19121 0
M  V30 142 C 14.009 2.58657 -3.4263 0
M  V30 143 C 13.242 3.86051 -3.68511 0
M  V30 144 O 13.465 4.87126 -2.96757 0
M  V30 145 O 12.399 3.85744 -4.62045 0
M  V30 146 H 16.225 1.06883 -2.8427 0
M  V30 147 H 13.81 0.463775 -1.42019 0
M  V30 148 H 15.692 3.47759 -2.37995 0
M  V30 149 H 14.367 2.96463 -1.29966 0
M  V30 150 H 13.274 1.7792 -3.29082 0
M  V30 151 H 14.607 2.35818 -4.32031 0
M  V30 152 N 16.2591 1.48442 0.529413 0
M  V30 153 C 17.1911 1.59095 1.64989 0
M  V30 154 C 18.2041 0.475212 1.5571 0
M  V30 155 O 19.3931 0.746081 1.6216 0
M  V30 156 C 16.4931 1.50518 3.0364 0
M  V30 157 C 15.6661 2.77142 3.38395 0
M  V30 158 C 14.7251 2.62012 4.56329 0
M  V30 159 O 13.7511 3.35898 4.59522 0
M  V30 160 N 14.9531 1.71667 5.54536 0
M  V30 161 H 17.7181 2.55723 1.56287 0
M  V30 162 H 15.2791 1.45173 0.716697 0
M  V30 163 H 17.2711 1.38091 3.80412 0
M  V30 164 H 15.8411 0.618627 3.06418 0
M  V30 165 H 15.0611 3.0413 2.50796 0
M  V30 166 H 16.3491 3.61146 3.58401 0
M  V30 167 H 15.7471 1.10841 5.54735 0
M  V30 168 H 14.3041 1.65178 6.30523 0
M  V30 169 N 17.7372 -0.778329 1.37039 0
M  V30 170 C 18.9842 -1.53665 1.31884 0
M  V30 171 C 19.3122 -1.9425 -0.0986303 0
M  V30 172 O 18.5672 -1.63832 -1.07041 0
M  V30 173 C 18.8662 -2.81845 2.19768 0
M  V30 174 C 18.5322 -2.60345 3.68146 0
M  V30 175 C 17.1942 -2.5419 4.08584 0
M  V30 176 C 19.5462 -2.40923 4.62175 0
M  V30 177 C 16.8742 -2.26594 5.41177 0
M  V30 178 C 19.2262 -2.14852 5.94997 0
M  V30 179 C 17.8902 -2.07137 6.34547 0
M  V30 180 H 17.1602 -0.562299 0.482598 0
M  V30 181 H 19.8072 -0.897069 1.69189 0
M  V30 182 H 18.1122 -3.50328 1.75436 0
M  V30 183 H 19.8092 -3.39692 2.13097 0
M  V30 184 H 16.3992 -2.65996 3.36072 0
M  V30 185 H 20.5832 -2.44673 4.31797 0
M  V30 186 H 15.8392 -2.19111 5.70789 0
M  V30 187 H 20.0132 -1.98822 6.67415 0
M  V30 188 H 17.6402 -1.85518 7.37216 0
M  V30 189 N 19.2153 -1.21501 -1.00376 0
M  V30 190 C 20.4613 -1.04457 -1.74529 0
M  V30 191 C 20.8163 0.417386 -1.87818 0
M  V30 192 O 20.1093 1.30556 -1.40234 0
M  V30 193 C 20.3033 -1.67673 -3.15627 0
M  V30 194 C 20.1323 -3.19865 -3.16096 0
M  V30 195 C 18.9023 -3.88915 -3.22604 0
M  V30 196 C 21.1003 -4.16936 -3.01112 0
M  V30 197 N 19.0823 -5.28284 -3.12712 0
M  V30 198 C 20.4533 -5.43066 -2.99131 0
M  V30 199 C 22.5083 -4.07968 -2.85423 0
M  V30 200 C 21.2113 -6.6126 -2.83068 0
M  V30 201 C 23.2373 -5.258 -2.70718 0
M  V30 202 C 22.5993 -6.50842 -2.69414 0
M  V30 203 H 18.6983 -0.436584 -0.648782 0
M  V30 204 H 21.2823 -1.53875 -1.19293 0
M  V30 205 H 19.4533 -1.20822 -3.6913 0
M  V30 206 H 21.1853 -1.43824 -3.78281 0
M  V30 207 H 17.9403 -3.39847 -3.2985 0
M  V30 208 H 18.3643 -6.01284 -3.11105 0
M  V30 209 H 23.0063 -3.1209 -2.85236 0
M  V30 210 H 20.7243 -7.57298 -2.82002 0
M  V30 211 H 24.3103 -5.20683 -2.59577 0
M  V30 212 H 23.1903 -7.40485 -2.5817 0
M  V30 213 N 20.6934 1.19889 -1.02296 0
M  V30 214 C 21.6034 2.26571 -0.608508 0
M  V30 215 C 22.6194 1.70299 0.356964 0
M  V30 216 O 23.7954 2.00235 0.216326 0
M  V30 217 C 20.8604 3.46677 0.0402814 0
M  V30 218 C 19.9214 4.18153 -0.97194 0
M  V30 219 C 19.1544 5.32525 -0.354016 0
M  V30 220 O 19.3774 5.64112 0.844604 0
M  V30 221 O 18.3114 5.92242 -1.07391 0
M  V30 222 H 22.1374 2.64251 -1.49684 0
M  V30 223 H 19.7224 1.26629 -0.792809 0
M  V30 224 H 21.6044 4.19475 0.402324 0
M  V30 225 H 20.2794 3.10858 0.902707 0
M  V30 226 H 19.1864 3.47499 -1.38546 0
M  V30 227 H 20.5194 4.57927 -1.80454 0
M  V30 228 N 22.1715 0.800033 1.35784 0
M  V30 229 C 23.1345 0.211565 2.28221 0
M  V30 230 C 24.1345 -0.59728 1.49296 0
M  V30 231 O 25.3245 -0.416721 1.69142 0
M  V30 232 C 22.4565 -0.705846 3.33513 0
M  V30 233 H 23.6495 1.02677 2.81776 0
M  V30 234 H 21.2025 0.570211 1.45528 0
M  V30 235 H 21.9375 -1.54498 2.85133 0
M  V30 236 H 21.7225 -0.127655 3.91892 0
M  V30 237 H 23.2125 -1.11211 4.02519 0
M  V30 238 N 23.6496 -1.47581 0.552962 0
M  V30 239 C 24.8896 -2.04379 0.0296245 0
M  V30 240 C 25.2536 -1.4185 -1.29393 0
M  V30 241 O 26.4546 -1.89669 -1.90471 0
M  V30 242 C 24.7256 -3.57339 -0.0661371 0
M  V30 243 S 26.2846 -4.35511 -0.536213 0
M  V30 244 H 23.1026 -0.710625 0.0230991 0
M  V30 245 H 25.7046 -1.81005 0.738734 0
M  V30 246 H 24.4086 -4.00374 0.901596 0
M  V30 247 H 23.9396 -3.85202 -0.798931 0
M  V30 248 H 25.9546 -4.6253 -1.79668 0
M  V30 249 N 25.1277 -0.289203 -1.54924 0
M  V30 250 C 26.0907 0.579144 -2.21762 0
M  V30 251 C 27.0907 1.07047 -1.1999 0
M  V30 252 O 28.2807 0.968384 -1.44803 0
M  V30 253 C 25.4127 1.80055 -2.8947 0
M  V30 254 H 26.6057 -0.00464908 -2.999 0
M  V30 255 H 24.1587 -0.0399306 -1.56249 0
M  V30 256 H 24.8937 2.42449 -2.15381 0
M  V30 257 H 24.6787 1.45602 -3.64064 0
M  V30 258 H 26.1687 2.41773 -3.40493 0
M  V30 259 N 26.6058 1.57591 -0.0167156 0
M  V30 260 C 27.5158 2.1291 0.98521 0
M  V30 261 C 28.5318 1.07834 1.36557 0
M  V30 262 O 29.7078 1.39826 1.44951 0
M  V30 263 C 26.7728 2.63512 2.25305 0
M  V30 264 C 25.8338 3.83256 1.93426 0
M  V30 265 C 25.0668 4.31435 3.14165 0
M  V30 266 O 25.2898 3.78851 4.26413 0
M  V30 267 O 24.2238 5.23416 2.97186 0
M  V30 268 H 28.0498 2.98772 0.544888 0
M  V30 269 H 25.6348 1.48012 0.203141 0
M  V30 270 H 27.5168 2.96183 2.99756 0
M  V30 271 H 26.1918 1.8074 2.68542 0
M  V30 272 H 25.0988 3.55531 1.16398 0
M  V30 273 H 26.4318 4.67153 1.55013 0
M  V30 274 N 28.0839 -0.256276 1.55502 0
M  V30 275 C 29.0139 -1.32102 1.92539 0
M  V30 276 C 29.9949 -1.50684 0.789194 0
M  V30 277 O 31.1799 -1.63449 1.04872 0
M  V30 278 C 28.3099 -2.67752 2.21192 0
M  V30 279 C 27.2639 -2.63878 3.36975 0
M  V30 280 C 26.5899 -4.03236 3.51147 0
M  V30 281 C 27.8899 -2.21682 4.72921 0
M  V30 282 H 29.5839 -1.01351 2.81724 0
M  V30 283 H 27.1299 -0.486105 1.35547 0
M  V30 284 H 29.0829 -3.42365 2.45691 0
M  V30 285 H 27.8069 -3.0012 1.28824 0
M  V30 286 H 26.4659 -1.91722 3.12471 0
M  V30 287 H 26.1139 -4.32854 2.56216 0
M  V30 288 H 25.8139 -4.01535 4.29003 0
M  V30 289 H 27.3379 -4.79563 3.77957 0
M  V30 290 H 28.7519 -2.86023 4.96854 0
M  V30 291 H 27.1489 -2.3111 5.53812 0
M  V30 292 H 28.2189 -1.16833 4.70615 0
M  V30 293 N 29.562 -1.4872 -0.521534 0
M  V30 294 C 30.494 -1.59968 -1.64143 0
M  V30 295 C 31.507 -0.483463 -1.55456 0
M  V30 296 O 32.696 -0.75467 -1.61762 0
M  V30 297 C 29.796 -1.52127 -3.02838 0
M  V30 298 C 28.969 -2.78932 -3.36921 0
M  V30 299 C 28.028 -2.64428 -4.54933 0
M  V30 300 O 27.054 -3.38331 -4.57735 0
M  V30 301 N 28.256 -1.74606 -5.53618 0
M  V30 302 H 31.021 -2.56548 -1.54929 0
M  V30 303 H 28.582 -1.45551 -0.708988 0
M  V30 304 H 30.574 -1.40106 -3.79674 0
M  V30 305 H 29.144 -0.634868 -3.06085 0
M  V30 306 H 28.364 -3.05455 -2.4918 0
M  V30 307 H 29.652 -3.63041 -3.56481 0
M  V30 308 H 29.05 -1.13782 -5.54139 0
M  V30 309 H 27.607 -1.6852 -6.29638 0
M  V30 310 N 31.0401 0.771051 -1.3745 0
M  V30 311 C 31.9721 1.89352 -1.29146 0
M  V30 312 C 32.9851 1.61477 -0.207124 0
M  V30 313 O 34.1741 1.72382 -0.463324 0
M  V30 314 C 31.2741 3.24596 -0.974195 0
M  V30 315 C 30.4471 3.80111 -2.16413 0
M  V30 316 C 29.5061 4.93832 -1.81703 0
M  V30 317 O 28.5321 5.09382 -2.54006 0
M  V30 318 N 29.7341 5.75483 -0.761573 0
M  V30 319 H 32.4991 1.96991 -2.25864 0
M  V30 320 H 30.0601 0.950191 -1.31084 0
M  V30 321 H 32.0521 3.98193 -0.722828 0
M  V30 322 H 30.6221 3.12454 -0.0955527 0
M  V30 323 H 29.8421 2.98284 -2.57721 0
M  V30 324 H 31.1301 4.13932 -2.95867 0
M  V30 325 H 30.5281 5.65469 -0.161609 0
M  V30 326 H 29.0851 6.49302 -0.570064 0
M  V30 327 N 32.5182 1.22032 0.997298 0
M  V30 328 C 33.9292 1.0397 1.55071 0
M  V30 329 C 34.2802 -0.398192 1.92117 0
M  V30 330 O 33.4052 -1.28254 1.74298 0
M  V30 331 C 34.0002 1.88109 2.81781 0
M  V30 332 C 32.5592 1.74357 3.33581 0
M  V30 333 C 31.7062 1.84846 2.06706 0
M  V30 334 H 34.6572 1.35941 0.818883 0
M  V30 335 H 34.6782 1.39589 3.53971 0
M  V30 336 H 34.1902 2.92754 2.54787 0
M  V30 337 H 32.2912 0.72427 3.65493 0
M  V30 338 H 32.4042 2.56772 4.04481 0
M  V30 339 H 30.7682 1.28238 2.20062 0
M  V30 340 H 31.5512 2.91014 1.82114 0
M  V30 341 N 33.9963 -1.19345 1.0293 0
M  V30 342 C 34.9593 -2.20793 0.615069 0
M  V30 343 C 35.9593 -1.57553 -0.321533 0
M  V30 344 O 37.1493 -1.73862 -0.108483 0
M  V30 345 C 34.2813 -3.40754 -0.0999222 0
M  V30 346 H 35.4743 -2.58955 1.51269 0
M  V30 347 H 33.0273 -1.3303 0.820534 0
M  V30 348 H 33.7623 -3.0811 -1.01187 0
M  V30 349 H 33.5473 -3.87889 0.57309 0
M  V30 350 H 35.0373 -4.15898 -0.376645 0
M  V30 351 N 35.4744 -0.807222 -1.35358 0
M  V30 352 C 36.4044 -0.232509 -2.3234 0
M  V30 353 C 37.3854 0.642386 -1.57504 0
M  V30 354 O 38.5704 0.572526 -1.85569 0
M  V30 355 C 35.7004 0.619238 -3.41735 0
M  V30 356 C 34.6544 -0.157215 -4.27711 0
M  V30 357 C 33.9804 0.816273 -5.28433 0
M  V30 358 C 35.2804 -1.35656 -5.04376 0
M  V30 359 H 36.9744 -1.04276 -2.80654 0
M  V30 360 H 34.5204 -0.50288 -1.34934 0
M  V30 361 H 36.4734 1.03137 -4.08584 0
M  V30 362 H 35.1974 1.46239 -2.92031 0
M  V30 363 H 33.8564 -0.550525 -3.62443 0
M  V30 364 H 33.5044 1.65494 -4.74996 0
M  V30 365 H 33.2044 0.301067 -5.86828 0
M  V30 366 H 34.7284 1.22659 -5.98153 0
M  V30 367 H 36.1424 -1.01927 -5.64166 0
M  V30 368 H 34.5394 -1.8063 -5.7227 0
M  V30 369 H 35.6094 -2.14288 -4.34981 0
M  V30 370 N 36.9525 1.47285 -0.560781 0
M  V30 371 C 37.9155 2.28535 0.174488 0
M  V30 372 C 38.9155 1.37153 0.839388 0
M  V30 373 O 40.1055 1.59748 0.694702 0
M  V30 374 C 37.2375 3.16934 1.25561 0
M  V30 375 H 38.4305 2.95012 -0.539262 0
M  V30 376 H 35.9835 1.53034 -0.317865 0
M  V30 377 H 36.7185 2.55157 2.00164 0
M  V30 378 H 36.5035 3.8419 0.783604 0
M  V30 379 H 37.9935 3.78143 1.77193 0
M  V30 380 N 38.4306 0.297415 1.54768 0
M  V30 381 C 39.6786 -0.312295 1.99673 0
M  V30 382 C 39.9996 -1.54686 1.18732 0
M  V30 383 O 39.2696 -1.93854 0.282382 0
M  V30 384 H 37.8496 -0.118381 0.73756 0
M  V30 385 H 40.5116 0.407915 1.90583 0
M  V30 386 H 39.6076 -0.586813 3.06534 0
M  V30 387 N 39.9087 -1.5758 0.0250728 0
M  V30 388 C 40.8717 -2.08896 -0.943139 0
M  V30 389 C 41.8717 -1.00321 -1.25668 0
M  V30 390 O 43.0617 -1.26495 -1.19769 0
M  V30 391 C 40.1937 -2.55143 -2.26086 0
M  V30 392 H 41.3867 -2.95723 -0.498775 0
M  V30 393 H 38.9397 -1.54703 -0.222888 0
M  V30 394 H 39.6747 -1.71633 -2.75159 0
M  V30 395 H 39.4597 -3.34461 -2.04641 0
M  V30 396 H 40.9497 -2.95083 -2.95492 0
M  V30 397 N 41.3868 0.248026 -1.55636 0
M  V30 398 C 42.6638 0.998988 -1.68165 0
M  V30 399 C 43.0438 2.03409 -0.564621 0
M  V30 400 O 42.3918 2.24378 0.432076 0
M  V30 401 C 42.6018 1.63334 -3.0842 0
M  V30 402 C 43.9498 2.13562 -3.66983 0
M  V30 403 O 44.9738 1.73277 -3.11213 0
M  V30 404 O 43.8328 2.87526 -4.64749 0
M  V30 405 H 40.9268 0.464933 -0.683935 0
M  V30 406 H 43.4728 0.241902 -1.67967 0
M  V30 407 H 42.2448 0.884583 -3.8117 0
M  V30 408 H 41.8678 2.45666 -3.12624 0
M  V30 409 N 42.8649 1.48995 0.513639 0
M  V30 410 C 44.1109 1.59053 1.26783 0
M  V30 411 C 44.4659 0.268136 1.90522 0
M  V30 412 O 43.7589 -0.730534 1.77126 0
M  V30 413 C 43.9529 2.67756 2.36731 0
M  V30 414 C 43.7819 4.10437 1.83771 0
M  V30 415 C 42.5519 4.7738 1.65639 0
M  V30 416 C 44.7499 4.9608 1.35681 0
M  V30 417 N 42.7319 6.04419 1.07476 0
M  V30 418 C 44.1029 6.13496 0.895715 0
M  V30 419 C 46.1579 4.82177 1.24136 0
M  V30 420 C 44.8609 7.1854 0.3306 0
M  V30 421 C 46.8869 5.87358 0.690229 0
M  V30 422 C 46.2489 7.03993 0.239292 0
M  V30 423 H 42.3479 0.636463 0.454355 0
M  V30 424 H 44.9319 1.85948 0.577196 0
M  V30 425 H 43.1029 2.42655 3.03271 0
M  V30 426 H 44.8349 2.67406 3.0377 0
M  V30 427 H 41.5899 4.33974 1.8964 0
M  V30 428 H 42.0139 6.72214 0.803579 0
M  V30 429 H 46.6559 3.92329 1.57601 0
M  V30 430 H 44.3739 8.08098 -0.0163435 0
M  V30 431 H 47.9599 5.78658 0.603852 0
M  V30 432 H 46.8399 7.83992 -0.180526 0
M  V30 433 N 44.343 -0.763751 1.37857 0
M  V30 434 C 45.275 -1.88664 1.30148 0
M  V30 435 C 46.288 -1.61365 0.215685 0
M  V30 436 O 47.477 -1.72134 0.472459 0
M  V30 437 C 44.577 -3.24075 0.991396 0
M  V30 438 C 43.75 -3.78958 2.18426 0
M  V30 439 C 42.809 -4.92862 1.8432 0
M  V30 440 O 41.835 -5.08027 2.56704 0
M  V30 441 N 43.037 -5.75071 0.792081 0
M  V30 442 H 45.802 -1.95791 2.26905 0
M  V30 443 H 43.363 -0.943226 1.31586 0
M  V30 444 H 45.355 -3.97804 0.743935 0
M  V30 445 H 43.925 -3.12399 0.112122 0
M  V30 446 H 43.145 -2.96913 2.59299 0
M  V30 447 H 44.433 -4.12357 2.98058 0
M  V30 448 H 43.831 -5.65375 0.191595 0
M  V30 449 H 42.388 -6.48991 0.60449 0
M  V30 450 N 45.8211 -1.22559 -0.990812 0
M  V30 451 C 46.7511 -1.0218 -2.09956 0
M  V30 452 C 47.7321 0.0579394 -1.70001 0
M  V30 453 O 48.9171 -0.104684 -1.93918 0
M  V30 454 C 46.0471 -0.601023 -3.4206 0
M  V30 455 C 45.0011 -1.62694 -3.95872 0
M  V30 456 C 44.3271 -1.06193 -5.24049 0
M  V30 457 C 45.6271 -3.01743 -4.2632 0
M  V30 458 H 47.3211 -1.94916 -2.27262 0
M  V30 459 H 44.8671 -0.938566 -1.09211 0
M  V30 460 H 46.8201 -0.445561 -4.19038 0
M  V30 461 H 45.5441 0.362005 -3.24588 0
M  V30 462 H 44.2031 -1.77021 -3.21028 0
M  V30 463 H 43.8511 -0.0901903 -5.02919 0
M  V30 464 H 43.5511 -1.74732 -5.61019 0
M  V30 465 H 45.0751 -0.918092 -6.03658 0
M  V30 466 H 46.4891 -2.90777 -4.94087 0
M  V30 467 H 44.8861 -3.67425 -4.74467 0
M  V30 468 H 45.9561 -3.51518 -3.34011 0
M  V30 469 N 47.2992 1.18797 -1.03562 0
M  V30 470 C 48.2292 2.24472 -0.643019 0
M  V30 471 C 49.2102 1.66433 0.351283 0
M  V30 472 O 50.3952 1.92803 0.232505 0
M  V30 473 C 47.5252 3.473 4.24935e-05 0
M  V30 474 C 46.4792 4.18055 -0.917257 0
M  V30 475 C 45.8052 5.34519 -0.138941 0
M  V30 476 C 47.1052 4.72109 -2.23407 0
M  V30 477 H 48.7992 2.57566 -1.52643 0
M  V30 478 H 46.3452 1.23806 -0.735394 0
M  V30 479 H 48.2982 4.20426 0.286383 0
M  V30 480 H 47.0222 3.13424 0.918299 0
M  V30 481 H 45.6812 3.46821 -1.1879 0
M  V30 482 H 45.3292 4.96891 0.781562 0
M  V30 483 H 45.0292 5.82794 -0.750005 0
M  V30 484 H 46.5532 6.10438 0.1405 0
M  V30 485 H 47.9672 5.36955 -2.00879 0
M  V30 486 H 46.3642 5.30897 -2.79765 0
M  V30 487 H 47.4342 3.89807 -2.88407 0
M  V30 488 N 48.7773 0.814389 1.34928 0
M  V30 489 C 50.0233 0.399013 1.98836 0
M  V30 490 C 50.3563 -1.03314 1.64438 0
M  V30 491 O 49.6313 -1.71811 0.911659 0
M  V30 492 C 49.9143 0.591629 3.55207 0
M  V30 493 C 49.7673 2.06928 3.99376 0
M  V30 494 C 51.0863 0.022199 4.40094 0
M  V30 495 H 48.2053 0.146451 0.722303 0
M  V30 496 H 50.8473 1.02537 1.59957 0
M  V30 497 H 48.9973 0.0584441 3.88456 0
M  V30 498 H 50.6693 2.66544 3.76499 0
M  V30 499 H 48.9123 2.56287 3.49999 0
M  V30 500 H 49.5833 2.1549 5.08201 0
M  V30 501 H 52.0593 0.477643 4.13349 0
M  V30 502 H 50.9353 0.186832 5.48582 0
M  V30 503 H 51.1963 -1.07215 4.28902 0
M  V30 504 N 50.2554 -1.46986 0.568584 0
M  V30 505 C 51.1654 -2.33942 -0.17555 0
M  V30 506 C 52.1814 -1.48891 -0.90041 0
M  V30 507 O 53.3574 -1.81794 -0.86676 0
M  V30 508 C 50.4224 -3.25811 -1.18524 0
M  V30 509 C 49.4834 -4.26757 -0.466582 0
M  V30 510 C 48.7164 -5.14236 -1.42817 0
M  V30 511 O 48.9394 -5.04379 -2.66379 0
M  V30 512 O 47.8734 -5.94412 -0.946453 0
M  V30 513 H 51.6994 -2.98896 0.538036 0
M  V30 514 H 49.2844 -1.4573 0.329097 0
M  V30 515 H 51.1664 -3.82527 -1.76779 0
M  V30 516 H 49.8414 -2.63471 -1.88055 0
M  V30 517 H 48.7484 -3.73769 0.157451 0
M  V30 518 H 50.0814 -4.91843 0.187485 0
M  V30 519 N 51.7335 -0.305618 -1.54608 0
M  V30 520 C 52.9615 0.304775 -2.04643 0
M  V30 521 C 53.3765 1.47167 -1.18268 0
M  V30 522 O 52.7335 1.81296 -0.209328 0
M  V30 523 C 52.7845 0.756564 -3.53495 0
M  V30 524 O 52.5055 -0.36389 -4.36586 0
M  V30 525 C 54.0065 1.43163 -4.19546 0
M  V30 526 H 51.2265 0.0655481 -0.667791 0
M  V30 527 H 53.7705 -0.446592 -1.99564 0
M  V30 528 H 51.9255 1.45794 -3.58919 0
M  V30 529 H 52.3395 -0.0113121 -5.24499 0
M  V30 530 H 53.8135 1.69886 -5.25207 0
M  V30 531 H 54.2905 2.37318 -3.69563 0
M  V30 532 H 54.8965 0.773307 -4.18211 0
M  V30 533 N 53.2116 1.57565 -0.0334293 0
M  V30 534 C 54.4366 1.96689 0.657895 0
M  V30 535 C 54.8616 0.910057 1.64619 0
M  V30 536 O 54.2196 -0.128598 1.80843 0
M  V30 537 C 54.2676 3.34905 1.33683 0
M  V30 538 O 53.3716 3.31574 2.45219 0
M  V30 539 H 52.7126 0.641205 0.172489 0
M  V30 540 H 55.2426 2.04372 -0.0965621 0
M  V30 541 H 55.2526 3.71234 1.69262 0
M  V30 542 H 53.9276 4.11366 0.612411 0
M  V30 543 H 52.5046 3.06968 2.11719 0
M  V30 544 N 54.6897 -0.239769 1.55765 0
M  V30 545 C 55.9377 -0.964892 1.77579 0
M  V30 546 C 56.2587 -1.85582 0.598699 0
M  V30 547 O 55.5287 -1.92075 -0.385226 0
M  V30 548 H 54.1087 -0.359265 0.654933 0
M  V30 549 H 56.7707 -0.256001 1.93211 0
M  V30 550 H 55.8667 -1.58243 2.69009 0
M  V30 551 N 56.1678 -1.49265 -0.50573 0
M  V30 552 C 57.4168 -1.57761 -1.25675 0
M  V30 553 C 57.7298 -0.267371 -1.93764 0
M  V30 554 O 58.9358 -0.230827 -2.70517 0
M  V30 555 C 57.3918 -2.78332 -2.28165 0
M  V30 556 C 56.9998 -4.16096 -1.66037 0
M  V30 557 C 58.7438 -2.96155 -3.04125 0
M  V30 558 C 56.6508 -5.27895 -2.6661 0
M  V30 559 H 55.5808 -0.587391 -0.472745 0
M  V30 560 H 58.2318 -1.75644 -0.53118 0
M  V30 561 H 56.6138 -2.53934 -3.03865 0
M  V30 562 H 57.7878 -4.50612 -0.963622 0
M  V30 563 H 56.1028 -4.03591 -1.02484 0
M  V30 564 H 58.6998 -3.76849 -3.79327 0
M  V30 565 H 59.0428 -2.06534 -3.61455 0
M  V30 566 H 59.5758 -3.2057 -2.35541 0
M  V30 567 H 56.3148 -6.1956 -2.14068 0
M  V30 568 H 55.8348 -4.97839 -3.34539 0
M  V30 569 H 57.5138 -5.57031 -3.29129 0
M  V30 570 N 57.6459 0.756429 -1.3826 0
M  V30 571 C 58.8709 1.55077 -1.37717 0
M  V30 572 C 59.2959 1.88073 0.03164 0
M  V30 573 O 58.6539 1.50364 1.01293 0
M  V30 574 C 58.7019 2.8283 -2.23695 0
M  V30 575 O 57.8059 3.77862 -1.6521 0
M  V30 576 H 57.1469 0.469152 -0.469885 0
M  V30 577 H 59.6769 0.935019 -1.81985 0
M  V30 578 H 59.6869 3.31783 -2.37453 0
M  V30 579 H 58.3619 2.58144 -3.2609 0
M  V30 580 H 56.9389 3.36555 -1.60578 0
M  V30 581 N 59.124 1.23083 0.984299 0
M  V30 582 C 60.373 1.05466 1.71929 0
M  V30 583 C 60.686 -0.409211 1.91272 0
M  V30 584 O 61.892 -0.705226 2.62181 0
M  V30 585 C 60.348 1.83874 3.09384 0
M  V30 586 C 59.956 3.34566 2.97943 0
M  V30 587 C 61.7 1.74734 3.8687 0
M  V30 588 C 59.607 4.05381 4.30605 0
M  V30 589 H 58.537 0.391039 0.644674 0
M  V30 590 H 61.188 1.47013 1.09815 0
M  V30 591 H 59.57 1.35131 3.72231 0
M  V30 592 H 60.744 3.90767 2.44209 0
M  V30 593 H 59.059 3.44476 2.33934 0
M  V30 594 H 61.656 2.24957 4.85076 0
M  V30 595 H 61.999 0.709372 4.10212 0
M  V30 596 H 62.532 2.21067 3.30717 0
M  V30 597 H 59.271 5.09467 4.1246 0
M  V30 598 H 58.791 3.53967 4.84218 0
M  V30 599 H 60.47 4.11458 4.99311 0
M  V30 600 N 60.6021 -1.18246 1.0419 0
M  V30 601 C 61.8321 -1.91916 0.764961 0
M  V30 602 C 62.2401 -1.76485 -0.681898 0
M  V30 603 O 61.5831 -1.09275 -1.47664 0
M  V30 604 C 61.6451 -3.4373 1.05309 0
M  V30 605 C 61.3091 -3.8294 2.4941 0
M  V30 606 C 62.3061 -3.86621 3.47592 0
M  V30 607 C 59.9911 -4.142 2.84155 0
M  V30 608 C 61.9851 -4.21013 4.78568 0
M  V30 609 C 59.6721 -4.48262 4.15337 0
M  V30 610 C 60.6701 -4.51645 5.12353 0
M  V30 611 O 60.3581 -4.84911 6.41183 0
M  V30 612 H 60.0901 -0.61606 0.278292 0
M  V30 613 H 62.6441 -1.50947 1.39299 0
M  V30 614 H 60.8741 -3.84946 0.367933 0
M  V30 615 H 62.5631 -3.9865 0.763752 0
M  V30 616 H 63.3291 -3.62607 3.22089 0
M  V30 617 H 59.2081 -4.10743 2.09311 0
M  V30 618 H 62.7521 -4.23568 5.54289 0
M  V30 619 H 58.6491 -4.71737 4.40607 0
M  V30 620 H 59.4171 -5.02809 6.45852 0
M  V30 621 N 62.0802 -0.821533 -1.34494 0
M  V30 622 C 63.4962 -0.507117 -1.51329 0
M  V30 623 C 63.6962 0.968964 -1.76673 0
M  V30 624 O 62.7522 1.75348 -1.81685 0
M  V30 625 C 64.0652 -1.36544 -2.67911 0
M  V30 626 C 65.6132 -1.36242 -2.81793 0
M  V30 627 C 66.0882 -2.2052 -4.01416 0
M  V30 628 N 67.5792 -2.18136 -4.08621 0
M  V30 629 C 68.3142 -2.80095 -5.00334 0
M  V30 630 N 67.8102 -3.51039 -5.9728 0
M  V30 631 N 69.6032 -2.69656 -4.93196 0
M  V30 632 H 61.7542 -1.77729 -1.16302 0
M  V30 633 H 64.0172 -0.757291 -0.570276 0
M  V30 634 H 63.7232 -2.41361 -2.55808 0
M  V30 635 H 63.5972 -1.02917 -3.62888 0
M  V30 636 H 65.9842 -0.322041 -2.93338 0
M  V30 637 H 66.0652 -1.73866 -1.87628 0
M  V30 638 H 65.7092 -3.24607 -3.90631 0
M  V30 639 H 65.6392 -1.80247 -4.94791 0
M  V30 640 H 68.1302 -1.6653 -3.39229 0
M  V30 641 H 68.4432 -3.95565 -6.63889 0
M  V30 642 H 66.7882 -3.55145 -5.97409 0
M  V30 643 H 69.9792 -2.13808 -4.16418 0
M  V30 644 H 70.1522 -3.1823 -5.64476 0
M  V30 645 N 63.5583 1.46682 -0.576371 0
M  V30 646 C 64.4883 2.33028 0.148397 0
M  V30 647 C 65.4693 1.44961 0.889956 0
M  V30 648 O 66.6543 1.73789 0.866662 0
M  V30 649 C 63.7843 3.27117 1.1667 0
M  V30 650 C 62.7383 4.24575 0.540386 0
M  V30 651 C 62.0643 5.08126 1.6647 0
M  V30 652 C 63.3643 5.19722 -0.518331 0
M  V30 653 H 65.0583 2.93875 -0.572509 0
M  V30 654 H 62.6043 1.41315 -0.276768 0
M  V30 655 H 64.5573 3.86374 1.68204 0
M  V30 656 H 63.2813 2.64364 1.9178 0
M  V30 657 H 61.9403 3.66571 0.0461769 0
M  V30 658 H 61.5883 4.41762 2.40531 0
M  V30 659 H 61.2883 5.74122 1.25131 0
M  V30 660 H 62.8123 5.70246 2.18293 0
M  V30 661 H 64.2263 5.73232 -0.0883058 0
M  V30 662 H 62.6233 5.94026 -0.851679 0
M  V30 663 H 63.6933 4.64037 -1.40703 0
M  V30 664 N 65.0364 0.313813 1.54444 0
M  V30 665 C 65.9664 -0.549454 2.26943 0
M  V30 666 C 66.9474 -1.12741 1.27372 0
M  V30 667 O 68.1324 -1.15436 1.56167 0
M  V30 668 C 65.2624 -1.71523 3.01989 0
M  V30 669 C 64.2164 -1.26703 4.08816 0
M  V30 670 C 63.5424 -2.51898 4.71647 0
M  V30 671 C 64.8424 -0.388962 5.2085 0
M  V30 672 H 66.5364 0.0552661 2.99349 0
M  V30 673 H 64.0824 0.0280207 1.43973 0
M  V30 674 H 66.0354 -2.32535 3.51433 0
M  V30 675 H 64.7594 -2.34639 2.27183 0
M  V30 676 H 63.4184 -0.679896 3.6024 0
M  V30 677 H 63.0664 -3.13356 3.93468 0
M  V30 678 H 62.7664 -2.22605 5.43802 0
M  V30 679 H 64.2904 -3.1369 5.23861 0
M  V30 680 H 65.7044 -0.905107 5.6611 0
M  V30 681 H 64.1014 -0.18924 5.99802 0
M  V30 682 H 65.1714 0.582699 4.81386 0
M  V30 683 N 66.5145 -1.57545 0.0417849 0
M  V30 684 C 67.7915 -1.83642 -0.673433 0
M  V30 685 C 68.1715 -0.928298 -1.89594 0
M  V30 686 O 67.5195 0.0129955 -2.28496 0
M  V30 687 C 67.7295 -3.33155 -1.03964 0
M  V30 688 C 69.0775 -3.99941 -1.42592 0
M  V30 689 O 70.1015 -3.37725 -1.13226 0
M  V30 690 O 68.9605 -5.09619 -1.9736 0
M  V30 691 H 66.0545 -0.757638 -0.331533 0
M  V30 692 H 68.6005 -1.69554 0.070433 0
M  V30 693 H 67.3725 -3.9093 -0.170098 0
M  V30 694 H 66.9955 -3.52396 -1.84126 0
M  V30 695 N 67.9926 0.231505 -1.5589 0
M  V30 696 C 68.9396 1.28682 -1.91598 0
M  V30 697 C 69.9096 1.47071 -0.771974 0
M  V30 698 O 71.0946 1.60802 -1.027 0
M  V30 699 C 68.2346 2.6342 -2.22944 0
M  V30 700 C 67.3476 2.52912 -3.50228 0
M  V30 701 C 66.4826 3.80106 -3.7107 0
M  V30 702 C 65.5216 3.64279 -4.91902 0
M  V30 703 N 64.6586 4.834 -5.09184 0
M  V30 704 H 69.4986 0.975305 -2.81588 0
M  V30 705 H 67.0356 0.470299 -1.39379 0
M  V30 706 H 68.9936 3.41869 -2.39126 0
M  V30 707 H 67.6236 2.92687 -1.36139 0
M  V30 708 H 66.6756 1.6595 -3.42294 0
M  V30 709 H 67.9876 2.37133 -4.38827 0
M  V30 710 H 67.1416 4.66999 -3.87295 0
M  V30 711 H 65.8806 3.98799 -2.80733 0
M  V30 712 H 64.8856 2.7577 -4.75637 0
M  V30 713 H 66.1106 3.47067 -5.83714 0
M  V30 714 H 64.0566 5.02425 -4.21788 0
M  V30 715 H 63.9736 4.70311 -5.91898 0
M  V30 716 H 65.2416 5.71747 -5.29835 0
M  V30 717 N 69.4707 1.49531 0.497807 0
M  V30 718 C 70.4177 1.66436 1.59899 0
M  V30 719 C 71.3877 0.505793 1.58212 0
M  V30 720 O 72.5727 0.733202 1.7615 0
M  V30 721 C 69.7127 1.7399 2.98029 0
M  V30 722 C 68.8257 3.01172 3.09708 0
M  V30 723 C 67.9607 2.99686 4.38591 0
M  V30 724 C 66.9997 4.21434 4.43914 0
M  V30 725 N 66.1367 4.1784 5.64229 0
M  V30 726 H 70.9767 2.60459 1.44793 0
M  V30 727 H 68.5137 1.29137 0.704423 0
M  V30 728 H 70.4717 1.76352 3.78095 0
M  V30 729 H 69.1017 0.834301 3.11832 0
M  V30 730 H 68.1537 3.08408 2.22685 0
M  V30 731 H 69.4657 3.91165 3.09502 0
M  V30 732 H 68.6197 3.00628 5.2698 0
M  V30 733 H 67.3587 2.07477 4.41367 0
M  V30 734 H 66.3637 4.20733 3.53926 0
M  V30 735 H 67.5887 5.14839 4.42851 0
M  V30 736 H 65.5347 3.28469 5.67841 0
M  V30 737 H 65.4517 5.01571 5.65652 0
M  V30 738 H 66.7197 4.22889 6.54817 0
M  V30 739 N 70.9488 -0.749086 1.3866 0
M  V30 740 C 72.1768 -1.53834 1.38358 0
M  V30 741 C 72.5918 -1.88783 -0.0255219 0
M  V30 742 O 71.9488 -1.53101 -0.993292 0
M  V30 743 C 71.9998 -2.83468 2.2434 0
M  V30 744 O 71.7208 -2.50008 3.5976 0
M  V30 745 C 73.2218 -3.7758 2.32267 0
M  V30 746 H 70.4418 -0.47585 0.473083 0
M  V30 747 H 72.9858 -0.926726 1.82297 0
M  V30 748 H 71.1408 -3.40995 1.83851 0
M  V30 749 H 71.5548 -3.33182 4.05081 0
M  V30 750 H 73.0288 -4.65478 2.96706 0
M  V30 751 H 73.5058 -4.18334 1.33765 0
M  V30 752 H 74.1118 -3.25976 2.73166 0
M  V30 753 N 72.4269 -1.23603 -0.977757 0
M  V30 754 C 73.6749 -1.06759 -1.71601 0
M  V30 755 C 73.9959 0.395929 -1.90938 0
M  V30 756 O 73.2659 1.28356 -1.47992 0
M  V30 757 H 71.8459 -0.392062 -0.635843 0
M  V30 758 H 74.5079 -1.55362 -1.1768 0
M  V30 759 H 73.6039 -1.55763 -2.70452 0
M  V30 760 N 73.905 1.17692 -1.04816 0
M  V30 761 C 74.835 2.23777 -0.666791 0
M  V30 762 C 75.816 1.66796 0.33361 0
M  V30 763 O 77.001 1.93039 0.212042 0
M  V30 764 C 74.131 3.47281 -0.0367933 0
M  V30 765 C 73.085 4.17059 -0.961546 0
M  V30 766 C 72.411 5.34342 -0.195626 0
M  V30 767 C 73.711 4.69713 -2.28402 0
M  V30 768 H 75.405 2.55933 -1.55367 0
M  V30 769 H 72.951 1.23019 -0.748484 0
M  V30 770 H 74.904 4.20706 0.241775 0
M  V30 771 H 73.628 3.14381 0.885004 0
M  V30 772 H 72.287 3.45541 -1.22462 0
M  V30 773 H 71.935 4.97692 0.728816 0
M  V30 774 H 71.635 5.81966 -0.811775 0
M  V30 775 H 73.159 6.10553 0.0757473 0
M  V30 776 H 74.573 5.34794 -2.06563 0
M  V30 777 H 72.97 5.279 -2.8538 0
M  V30 778 H 74.04 3.86726 -2.92525 0
M  V30 779 N 75.3831 0.828654 1.34056 0
M  V30 780 C 76.6131 0.431993 2.02033 0
M  V30 781 C 77.0211 -0.96844 1.62536 0
M  V30 782 O 76.3641 -1.6391 0.829408 0
M  V30 783 C 76.4261 0.461224 3.56529 0
M  V30 784 C 76.0901 1.81599 4.1937 0
M  V30 785 C 77.0871 2.7777 4.39477 0
M  V30 786 C 74.7721 2.10604 4.56017 0
M  V30 787 C 76.7661 4.01115 4.95364 0
M  V30 788 C 74.4531 3.34207 5.11614 0
M  V30 789 C 75.4511 4.2928 5.31232 0
M  V30 790 O 75.1391 5.50699 5.8565 0
M  V30 791 H 74.8711 0.170943 0.654029 0
M  V30 792 H 77.4251 1.11988 1.72185 0
M  V30 793 H 75.6551 -0.283388 3.8566 0
M  V30 794 H 77.3441 0.0838149 4.05813 0
M  V30 795 H 78.1101 2.56659 4.11523 0
M  V30 796 H 73.9891 1.37402 4.40047 0
M  V30 797 H 77.5331 4.75333 5.10592 0
M  V30 798 H 73.4301 3.55179 5.38997 0
M  V30 799 H 74.1981 5.52298 6.04077 0
M  V30 800 N 76.8612 -1.46375 0.584142 0
M  V30 801 C 77.7712 -2.34115 -0.150728 0
M  V30 802 C 78.7872 -1.49838 -0.884567 0
M  V30 803 O 79.9632 -1.82704 -0.847429 0
M  V30 804 C 77.0282 -3.2705 -1.15062 0
M  V30 805 C 76.0892 -4.27228 -0.421293 0
M  V30 806 C 75.3222 -5.15722 -1.37355 0
M  V30 807 O 75.5452 -5.07176 -2.61014 0
M  V30 808 O 74.4792 -5.95383 -0.883355 0
M  V30 809 H 78.3052 -2.98309 0.569708 0
M  V30 810 H 75.8902 -1.45373 0.344535 0
M  V30 811 H 77.7722 -3.84381 -1.72712 0
M  V30 812 H 76.4472 -2.65451 -1.8525 0
M  V30 813 H 75.3542 -3.7358 0.197085 0
M  V30 814 H 76.6872 -4.91616 0.239641 0
M  V30 815 N 78.3393 -0.321999 -1.54275 0
M  V30 816 C 79.5693 0.282642 -2.04658 0
M  V30 817 C 79.9773 1.46453 -1.19784 0
M  V30 818 O 79.3203 1.82367 -0.220932 0
M  V30 819 C 79.3823 0.781857 -3.50895 0
M  V30 820 C 79.0463 -0.277517 -4.56157 0
M  V30 821 C 80.0433 -1.11307 -5.07845 0
M  V30 822 C 77.7283 -0.425256 -5.00497 0
M  V30 823 C 79.7223 -2.08211 -6.02434 0
M  V30 824 C 77.4093 -1.39771 -5.94901 0
M  V30 825 C 78.4073 -2.2246 -6.45756 0
M  V30 826 O 78.0953 -3.18054 -7.38307 0
M  V30 827 H 77.8273 0.0622636 -0.673126 0
M  V30 828 H 80.3813 -0.465792 -2.00049 0
M  V30 829 H 78.6113 1.58118 -3.52896 0
M  V30 830 H 80.3003 1.30467 -3.84361 0
M  V30 831 H 81.0663 -1.00991 -4.74369 0
M  V30 832 H 76.9453 0.20847 -4.60528 0
M  V30 833 H 80.4893 -2.72791 -6.42052 0
M  V30 834 H 76.3863 -1.50152 -6.27794 0
M  V30 835 H 77.1543 -3.13275 -7.56175 0
M  V30 836 N 79.8174 1.5752 -0.0501392 0
M  V30 837 C 80.7644 2.1147 0.924603 0
M  V30 838 C 81.7344 1.02182 1.30951 0
M  V30 839 O 82.9194 1.29723 1.39916 0
M  V30 840 C 80.0594 2.66337 2.19451 0
M  V30 841 C 79.1724 3.89708 1.86418 0
M  V30 842 C 78.3074 4.32893 3.07859 0
M  V30 843 C 77.3464 5.48967 2.70742 0
M  V30 844 N 76.4834 5.87211 3.84874 0
M  V30 845 H 81.3234 2.94465 0.457639 0
M  V30 846 H 78.8604 1.45531 0.214266 0
M  V30 847 H 80.8184 2.96247 2.93758 0
M  V30 848 H 79.4484 1.86141 2.63726 0
M  V30 849 H 78.5004 3.66396 1.02264 0
M  V30 850 H 79.8124 4.74074 1.55096 0
M  V30 851 H 78.9664 4.6435 3.90466 0
M  V30 852 H 77.7054 3.47336 3.42358 0
M  V30 853 H 76.7104 5.17183 1.86551 0
M  V30 854 H 77.9354 6.3624 2.37436 0
M  V30 855 H 75.8814 5.04607 4.19175 0
M  V30 856 H 75.7984 6.66266 3.57247 0
M  V30 857 H 77.0664 6.23282 4.68123 0
M  V30 858 N 81.2955 -0.223234 1.56011 0
M  V30 859 C 82.5415 -0.949279 1.79211 0
M  V30 860 C 82.8745 -1.84054 0.619494 0
M  V30 861 O 82.1495 -1.90726 -0.381317 0
M  V30 862 C 82.4325 -1.78965 3.12479 0
M  V30 863 C 82.2855 -0.924997 4.40186 0
M  V30 864 C 83.6045 -2.76774 3.42175 0
M  V30 865 H 80.7235 -0.343676 0.651963 0
M  V30 866 H 83.3655 -0.218253 1.88742 0
M  V30 867 H 81.5155 -2.41291 3.04485 0
M  V30 868 H 83.1875 -0.318615 4.60198 0
M  V30 869 H 81.4305 -0.230344 4.33188 0
M  V30 870 H 82.1015 -1.54735 5.29869 0
M  V30 871 H 84.5775 -2.24584 3.50287 0
M  V30 872 H 83.4535 -3.32678 4.36597 0
M  V30 873 H 83.7145 -3.54429 2.64258 0
M  V30 874 N 82.7736 -1.49793 -0.48987 0
M  V30 875 C 84.0206 -1.59841 -1.24327 0
M  V30 876 C 84.3486 -0.290135 -1.92324 0
M  V30 877 O 83.6036 0.722749 -1.81865 0
M  V30 878 C 83.9026 -2.71488 -2.32441 0
M  V30 879 C 83.5686 -4.12614 -1.81826 0
M  V30 880 C 82.2306 -4.51017 -1.67742 0
M  V30 881 C 84.5826 -5.00892 -1.4407 0
M  V30 882 C 81.9106 -5.75459 -1.14297 0
M  V30 883 C 84.2626 -6.25863 -0.920742 0
M  V30 884 C 82.9266 -6.63086 -0.766383 0
M  V30 885 H 82.1966 -0.584899 -0.454944 0
M  V30 886 H 84.8436 -1.83663 -0.542215 0
M  V30 887 H 83.1486 -2.4168 -3.0838 0
M  V30 888 H 84.8456 -2.76469 -2.90458 0
M  V30 889 H 81.4356 -3.82307 -1.93751 0
M  V30 890 H 85.6196 -4.7187 -1.53794 0
M  V30 891 H 80.8756 -6.02989 -1.01068 0
M  V30 892 H 85.0496 -6.9364 -0.619448 0
M  V30 893 H 82.6766 -7.59393 -0.350083 0
M  V30 894 N 84.2517 0.741722 -1.39055 0
M  V30 895 C 85.4997 1.49818 -1.35643 0
M  V30 896 C 85.8207 1.94938 0.0491642 0
M  V30 897 O 85.0907 1.68505 0.999141 0
M  V30 898 H 83.6707 0.555755 -0.499144 0
M  V30 899 H 86.3327 0.880957 -1.73854 0
M  V30 900 H 85.4287 2.38348 -2.01486 0
M  V30 901 N 85.7298 1.2412 0.971189 0
M  V30 902 C 86.9758 1.08041 1.71625 0
M  V30 903 C 87.3088 -0.380407 1.90438 0
M  V30 904 O 86.5838 -1.28127 1.46334 0
M  V30 905 C 86.8668 1.81682 3.10908 0
M  V30 906 C 86.7198 3.35493 2.99608 0
M  V30 907 C 88.0388 1.58671 4.10501 0
M  V30 908 H 85.1578 0.39388 0.622919 0
M  V30 909 H 87.7998 1.52743 1.13003 0
M  V30 910 H 85.9498 1.43684 3.60953 0
M  V30 911 H 87.6218 3.83068 2.57015 0
M  V30 912 H 85.8648 3.64052 2.35899 0
M  V30 913 H 86.5358 3.82217 3.98264 0
M  V30 914 H 89.0118 1.91719 3.69301 0
M  V30 915 H 87.8878 2.1266 5.06031 0
M  V30 916 H 88.1488 0.524161 4.38982 0
M  V30 917 N 87.2079 -1.17134 1.05439 0
M  V30 918 C 88.1379 -2.2342 0.678649 0
M  V30 919 C 89.1189 -1.66971 -0.32476 0
M  V30 920 O 90.3039 -1.93149 -0.201802 0
M  V30 921 C 87.4339 -3.47256 0.0552099 0
M  V30 922 C 86.3879 -4.16543 0.98365 0
M  V30 923 C 85.7139 -5.34231 0.223961 0
M  V30 924 C 87.0139 -4.68495 2.3089 0
M  V30 925 H 88.7079 -2.55105 1.56722 0
M  V30 926 H 86.2539 -1.2262 0.754998 0
M  V30 927 H 88.2069 -4.20828 -0.21946 0
M  V30 928 H 86.9309 -3.14846 -0.868319 0
M  V30 929 H 85.5899 -3.44887 1.24293 0
M  V30 930 H 85.2379 -4.98071 -0.702412 0
M  V30 931 H 84.9379 -5.81527 0.842627 0
M  V30 932 H 86.4619 -6.10585 -0.0433671 0
M  V30 933 H 87.8759 -5.33691 2.09396 0
M  V30 934 H 86.2729 -5.26379 2.88176 0
M  V30 935 H 87.3429 -3.85169 2.94572 0
M  V30 936 N 88.686 -0.835752 -1.33615 0
M  V30 937 C 89.596 -0.269088 -2.33052 0
M  V30 938 C 90.612 0.603251 -1.63208 0
M  V30 939 O 91.788 0.508112 -1.94885 0
M  V30 940 C 88.853 0.549091 -3.42324 0
M  V30 941 C 87.914 -0.347156 -4.27894 0
M  V30 942 C 87.147 0.43207 -5.31948 0
M  V30 943 O 87.37 1.66409 -5.45586 0
M  V30 944 O 86.304 -0.192298 -6.01593 0
M  V30 945 H 90.13 -1.09243 -2.83372 0
M  V30 946 H 87.715 -0.598198 -1.36901 0
M  V30 947 H 89.597 1.01414 -4.09015 0
M  V30 948 H 88.272 1.34955 -2.94226 0
M  V30 949 H 87.179 -0.859979 -3.64081 0
M  V30 950 H 88.512 -1.1123 -4.79467 0
M  V30 951 N 90.1641 1.46063 -0.591896 0
M  V30 952 C 91.4411 1.95595 -0.0137119 0
M  V30 953 C 91.8211 1.5345 1.4497 0
M  V30 954 O 91.1691 0.789543 2.14426 0
M  V30 955 C 91.3791 3.48453 -0.195373 0
M  V30 956 C 92.7271 4.24546 -0.0679765 0
M  V30 957 O 93.7511 3.55982 -0.124681 0
M  V30 958 O 92.6101 5.46467 0.0600579 0
M  V30 959 H 89.7041 0.825795 0.0446279 0
M  V30 960 H 92.2501 1.56303 -0.660859 0
M  V30 961 H 91.0221 3.72045 -1.21235 0
M  V30 962 H 90.6451 3.94597 0.487775 0
M  V30 963 N 91.6422 0.330177 1.54103 0
M  V30 964 C 92.8822 -0.270916 2.02597 0
M  V30 965 C 93.2462 -1.48826 1.21304 0
M  V30 966 O 94.4472 -2.16266 1.59633 0
M  V30 967 C 92.7182 -0.590328 3.52491 0
M  V30 968 S 94.2772 -1.17014 4.2291 0
M  V30 969 H 91.0952 -0.0815379 0.706309 0
M  V30 970 H 93.6972 0.464835 1.89893 0
M  V30 971 H 92.4012 0.303691 4.09275 0
M  V30 972 H 91.9322 -1.3561 3.69288 0
M  V30 973 H 93.9472 -2.45662 4.3112 0
M  V30 974 N 93.1203 -1.57491 0.0584922 0
M  V30 975 C 94.3453 -1.97711 -0.62652 0
M  V30 976 C 94.7703 -0.936132 -1.63151 0
M  V30 977 O 94.1283 0.099811 -1.81025 0
M  V30 978 C 94.1763 -3.36989 -1.28338 0
M  V30 979 O 93.2803 -3.35433 -2.39913 0
M  V30 980 H 92.6213 -0.643868 -0.162266 0
M  V30 981 H 95.1513 -2.04193 0.129064 0
M  V30 982 H 95.1613 -3.73879 -1.63335 0
M  V30 983 H 93.8363 -4.12289 -0.546889 0
M  V30 984 H 92.4133 -3.10298 -2.06809 0
M  V30 985 N 94.5984 0.214957 -1.56127 0
M  V30 986 C 96.0094 0.781386 -1.69562 0
M  V30 987 C 96.3604 1.84707 -0.66165 0
M  V30 988 O 95.4854 2.156 0.185927 0
M  V30 989 C 96.0804 1.42411 -3.07416 0
M  V30 990 C 94.6394 1.93786 -3.22683 0
M  V30 991 C 93.7864 0.800438 -2.65496 0
M  V30 992 H 96.7374 -0.00980633 -1.58697 0
M  V30 993 H 96.7584 2.29309 -3.0364 0
M  V30 994 H 96.2704 0.64826 -3.82648 0
M  V30 995 H 94.3714 2.74152 -2.52332 0
M  V30 996 H 94.4844 2.1133 -4.29973 0
M  V30 997 H 92.8484 1.2095 -2.2415 0
M  V30 998 H 93.6314 0.0371471 -3.4328 0
M  V30 999 N 96.0765 1.50051 0.48192 0
M  V30 1000 C 97.3045 1.64237 1.25832 0
M  V30 1001 C 97.7195 0.321336 1.86045 0
M  V30 1002 O 97.0765 -0.695478 1.68729 0
M  V30 1003 C 97.1275 2.72548 2.37487 0
M  V30 1004 O 96.8485 3.99529 1.79745 0
M  V30 1005 C 98.3495 2.9761 3.28547 0
M  V30 1006 H 95.5695 0.55237 0.380957 0
M  V30 1007 H 98.1135 1.96207 0.576467 0
M  V30 1008 H 96.2685 2.43303 3.01467 0
M  V30 1009 H 96.6825 4.59342 2.5319 0
M  V30 1010 H 98.1565 3.77084 4.03127 0
M  V30 1011 H 98.6335 2.0826 3.86684 0
M  V30 1012 H 99.2395 3.28345 2.70314 0
M  V30 1013 N 97.5546 -0.734337 1.39446 0
M  V30 1014 C 98.4846 -1.86155 1.40955 0
M  V30 1015 C 99.4656 -1.67898 0.272827 0
M  V30 1016 O 100.651 -1.88207 0.478743 0
M  V30 1017 C 97.7806 -3.23912 1.25294 0
M  V30 1018 C 96.7346 -3.56808 2.36373 0
M  V30 1019 C 96.0606 -4.93508 2.058 0
M  V30 1020 C 97.3606 -3.59713 3.78687 0
M  V30 1021 H 99.0546 -1.8515 2.35287 0
M  V30 1022 H 96.6006 -0.889367 1.13253 0
M  V30 1023 H 98.5536 -4.02443 1.2497 0
M  V30 1024 H 97.2776 -3.25446 0.274308 0
M  V30 1025 H 95.9366 -2.80606 2.35914 0
M  V30 1026 H 95.5846 -4.91623 1.06374 0
M  V30 1027 H 95.2846 -5.16486 2.80208 0
M  V30 1028 H 96.8086 -5.74396 2.07128 0
M  V30 1029 H 98.2226 -4.2832 3.81071 0
M  V30 1030 H 96.6196 -3.94209 4.52459 0
M  V30 1031 H 97.6896 -2.59504 4.09617 0
M  V30 1032 N 99.0327 -1.24633 -0.964593 0
M  V30 1033 C 99.9627 -1.06611 -2.07741 0
M  V30 1034 C 100.944 0.0218666 -1.70086 0
M  V30 1035 O 102.129 -0.145793 -1.93652 0
M  V30 1036 C 99.2587 -0.673444 -3.40708 0
M  V30 1037 C 98.2127 -1.71054 -3.92332 0
M  V30 1038 C 97.5387 -1.17285 -5.21678 0
M  V30 1039 C 98.8387 -3.10718 -4.19824 0
M  V30 1040 H 100.533 -1.99693 -2.23076 0
M  V30 1041 H 98.0787 -0.96152 -1.07195 0
M  V30 1042 H 100.032 -0.534345 -4.17998 0
M  V30 1043 H 98.7557 0.293073 -3.25282 0
M  V30 1044 H 97.4147 -1.83791 -3.17201 0
M  V30 1045 H 97.0627 -0.196847 -5.02615 0
M  V30 1046 H 96.7627 -1.86592 -5.57187 0
M  V30 1047 H 98.2867 -1.04593 -6.01575 0
M  V30 1048 H 99.7007 -3.01192 -4.87808 0
M  V30 1049 H 98.0977 -3.77406 -4.66567 0
M  V30 1050 H 99.1677 -3.58524 -3.26479 0
M  V30 1051 N 100.511 1.16574 -1.06058 0
M  V30 1052 C 101.474 2.19085 -0.673392 0
M  V30 1053 C 102.474 1.5835 0.279648 0
M  V30 1054 O 103.664 1.74088 0.0623488 0
M  V30 1055 C 100.796 3.40899 0.00954234 0
M  V30 1056 H 101.989 2.54853 -1.58081 0
M  V30 1057 H 99.5418 1.30808 -0.855516 0
M  V30 1058 H 100.277 3.10684 0.929826 0
M  V30 1059 H 100.062 3.86233 -0.67573 0
M  V30 1060 H 101.552 4.1675 0.266245 0
M  V30 1061 N 101.989 0.842826 1.3317 0
M  V30 1062 C 103.266 0.362216 1.92217 0
M  V30 1063 C 103.646 -1.15289 1.76838 0
M  V30 1064 O 102.994 -1.96914 1.15919 0
M  V30 1065 C 103.204 0.813495 3.39387 0
M  V30 1066 C 104.552 0.823804 4.16532 0
M  V30 1067 O 105.576 0.757358 3.48055 0
M  V30 1068 O 104.435 0.915193 5.38782 0
M  V30 1069 H 101.529 0.103317 0.820521 0
M  V30 1070 H 104.075 0.928942 1.42017 0
M  V30 1071 H 102.847 1.85624 3.4447 0
M  V30 1072 H 102.47 0.223561 3.96971 0
M  V30 1073 N 103.467 -1.45747 0.599634 0
M  V30 1074 C 104.716 -2.01502 0.0893511 0
M  V30 1075 C 105.029 -1.4748 -1.28488 0
M  V30 1076 O 106.235 -1.95161 -1.88745 0
M  V30 1077 C 104.691 -3.59735 0.109082 0
M  V30 1078 C 104.299 -4.22754 1.48267 0
M  V30 1079 C 106.043 -4.23085 -0.346374 0
M  V30 1080 C 103.95 -5.73115 1.45921 0
M  V30 1081 H 102.88 -0.753417 0.0296347 0
M  V30 1082 H 105.531 -1.67303 0.753788 0
M  V30 1083 H 103.913 -3.91087 -0.621854 0
M  V30 1084 H 105.087 -4.02987 2.23468 0
M  V30 1085 H 103.402 -3.71567 1.87955 0
M  V30 1086 H 105.999 -5.33327 -0.38298 0
M  V30 1087 H 106.342 -3.93201 -1.36743 0
M  V30 1088 H 106.875 -3.9642 0.331038 0
M  V30 1089 H 103.614 -6.07685 2.45762 0
M  V30 1090 H 103.134 -5.95097 0.749665 0
M  V30 1091 H 104.813 -6.3616 1.17941 0
M  V30 1092 N 104.945 -0.338344 -1.53925 0
M  V30 1093 C 106.175 0.260919 -2.04946 0
M  V30 1094 C 106.583 1.45174 -1.2133 0
M  V30 1095 O 105.926 1.82122 -0.240262 0
M  V30 1096 C 105.988 0.744596 -3.51704 0
M  V30 1097 C 105.652 -0.325883 -4.55837 0
M  V30 1098 C 106.649 -1.16687 -5.06636 0
M  V30 1099 C 104.334 -0.478317 -5.00017 0
M  V30 1100 C 106.328 -2.14588 -6.00192 0
M  V30 1101 C 104.015 -1.46073 -5.93385 0
M  V30 1102 C 105.013 -2.29297 -6.4336 0
M  V30 1103 O 104.701 -3.25867 -7.34892 0
M  V30 1104 H 104.433 0.0551207 -0.673749 0
M  V30 1105 H 106.987 -0.486984 -1.99544 0
M  V30 1106 H 105.217 1.54366 -3.54553 0
M  V30 1107 H 106.906 1.26383 -3.85723 0
M  V30 1108 H 107.672 -1.06016 -4.73271 0
M  V30 1109 H 103.551 0.159613 -4.60724 0
M  V30 1110 H 107.095 -2.79585 -6.39123 0
M  V30 1111 H 102.992 -1.56802 -6.26166 0
M  V30 1112 H 103.76 -3.21278 -7.5281 0
M  V30 1113 N 106.423 1.57458 -0.0668435 0
M  V30 1114 C 107.356 2.08033 0.93795 0
M  V30 1115 C 108.334 0.984321 1.29421 0
M  V30 1116 O 109.518 1.25736 1.40437 0
M  V30 1117 C 106.645 2.53388 2.24749 0
M  V30 1118 C 105.691 3.74376 2.04315 0
M  V30 1119 S 106.524 5.19303 1.30706 0
M  V30 1120 C 107.68 5.67986 2.62951 0
M  V30 1121 H 107.913 2.92935 0.50759 0
M  V30 1122 H 105.446 1.5371 0.145804 0
M  V30 1123 H 107.404 2.8018 3.00016 0
M  V30 1124 H 106.065 1.68763 2.64911 0
M  V30 1125 H 105.258 4.04083 3.01218 0
M  V30 1126 H 104.86 3.47931 1.37186 0
M  V30 1127 H 107.152 5.74528 3.5906 0
M  V30 1128 H 108.095 6.66955 2.3786 0
M  V30 1129 H 108.503 4.95781 2.69929 0
M  V30 1130 N 107.901 -0.206675 1.56239 0
M  V30 1131 C 109.178 -0.954051 1.70755 0
M  V30 1132 C 109.558 -2.01841 0.618353 0
M  V30 1133 O 108.906 -2.25444 -0.372434 0
M  V30 1134 C 109.116 -1.551 3.12642 0
M  V30 1135 C 110.464 -2.03757 3.72516 0
M  V30 1136 O 111.488 -1.64965 3.15698 0
M  V30 1137 O 110.347 -2.75103 4.72208 0
M  V30 1138 H 107.441 -0.446636 0.696021 0
M  V30 1139 H 109.987 -0.197283 1.68549 0
M  V30 1140 H 108.759 -0.783212 3.83382 0
M  V30 1141 H 108.382 -2.37291 3.19028 0
M  V30 1142 N 109.379 -1.50304 -0.473955 0
M  V30 1143 C 110.604 -1.65175 -1.25427 0
M  V30 1144 C 111.029 -0.333673 -1.85117 0
M  V30 1145 O 110.387 0.702114 -1.67153 0
M  V30 1146 C 110.435 -2.74295 -2.34082 0
M  V30 1147 O 109.539 -2.35349 -3.38651 0
M  V30 1148 H 108.88 -0.551944 -0.369126 0
M  V30 1149 H 111.41 -1.96662 -0.564364 0
M  V30 1150 H 111.42 -2.97285 -2.79438 0
M  V30 1151 H 110.095 -3.69959 -1.90008 0
M  V30 1152 H 108.672 -2.22794 -2.99027 0
M  V30 1153 N 110.857 0.726932 -1.39834 0
M  V30 1154 C 112.134 1.47902 -1.28001 0
M  V30 1155 C 112.514 2.1083 0.106789 0
M  V30 1156 O 111.862 1.99242 1.11869 0
M  V30 1157 C 112.072 2.52392 -2.41038 0
M  V30 1158 C 113.42 3.18546 -2.80737 0
M  V30 1159 O 114.444 2.62708 -2.40547 0
M  V30 1160 O 113.303 4.19604 -3.50135 0
M  V30 1161 H 110.397 0.657163 -0.502062 0
M  V30 1162 H 112.943 0.760071 -1.51727 0
M  V30 1163 H 111.715 2.04329 -3.33715 0
M  V30 1164 H 111.338 3.31837 -2.19021 0
M  V30 1165 N 112.336 1.25143 0.95797 0
M  V30 1166 C 113.566 1.12261 1.73439 0
M  V30 1167 C 113.974 -0.326715 1.86358 0
M  V30 1168 O 113.317 -1.2367 1.35836 0
M  V30 1169 C 113.379 1.69966 3.16784 0
M  V30 1170 C 113.043 3.18936 3.27305 0
M  V30 1171 C 114.04 4.15968 3.11877 0
M  V30 1172 C 111.725 3.59083 3.51234 0
M  V30 1173 C 113.719 5.51126 3.20217 0
M  V30 1174 C 111.406 4.9438 3.5921 0
M  V30 1175 C 112.404 5.90211 3.43716 0
M  V30 1176 O 112.092 7.23046 3.51368 0
M  V30 1177 H 111.824 0.392476 0.550399 0
M  V30 1178 H 114.378 1.65927 1.21068 0
M  V30 1179 H 112.608 1.10744 3.70503 0
M  V30 1180 H 114.297 1.52232 3.76272 0
M  V30 1181 H 115.063 3.86292 2.93264 0
M  V30 1182 H 110.942 2.84989 3.62356 0
M  V30 1183 H 114.486 6.25905 3.0804 0
M  V30 1184 H 110.383 5.23723 3.77339 0
M  V30 1185 H 111.151 7.31097 3.6802 0
M  V30 1186 N 113.814 -1.1601 1.06675 0
M  V30 1187 C 115.23 -1.38622 0.790948 0
M  V30 1188 C 115.43 -1.92109 -0.607965 0
M  V30 1189 O 114.486 -2.12239 -1.36787 0
M  V30 1190 C 115.799 -2.36347 1.85905 0
M  V30 1191 C 117.347 -2.50023 1.88301 0
M  V30 1192 C 117.822 -3.51033 2.94176 0
M  V30 1193 N 119.313 -3.58563 2.93235 0
M  V30 1194 C 120.048 -4.36521 3.71803 0
M  V30 1195 N 119.544 -5.17869 4.602 0
M  V30 1196 N 121.337 -4.31541 3.60178 0
M  V30 1197 H 113.488 -0.796294 1.96908 0
M  V30 1198 H 115.751 -0.412597 0.853503 0
M  V30 1199 H 115.457 -2.04147 2.86386 0
M  V30 1200 H 115.331 -3.36042 1.71334 0
M  V30 1201 H 117.718 -2.81524 0.884769 0
M  V30 1202 H 117.799 -1.5035 2.06951 0
M  V30 1203 H 117.443 -3.20268 3.94196 0
M  V30 1204 H 117.373 -4.50445 2.72776 0
M  V30 1205 H 119.864 -3.00496 2.29152 0
M  V30 1206 H 120.177 -5.74578 5.16797 0
M  V30 1207 H 118.522 -5.17199 4.64253 0
M  V30 1208 H 121.713 -3.67051 2.90502 0
M  V30 1209 H 121.886 -4.9205 4.21653 0
M  V30 1210 N 115.292 -0.849877 -1.32721 0
M  V30 1211 C 116.239 -0.289033 -2.28983 0
M  V30 1212 C 117.209 0.601324 -1.54833 0
M  V30 1213 O 118.394 0.537253 -1.8308 0
M  V30 1214 C 115.534 0.520623 -3.4115 0
M  V30 1215 C 114.647 -0.394989 -4.3019 0
M  V30 1216 C 113.782 0.426834 -5.29482 0
M  V30 1217 C 112.821 -0.486476 -6.10164 0
M  V30 1218 N 111.958 0.297879 -7.01468 0
M  V30 1219 H 116.798 -1.11519 -2.76347 0
M  V30 1220 H 114.335 -0.56138 -1.35967 0
M  V30 1221 H 116.293 1.00563 -4.04899 0
M  V30 1222 H 114.923 1.31165 -2.9495 0
M  V30 1223 H 113.975 -0.99836 -3.67065 0
M  V30 1224 H 115.287 -1.09612 -4.86607 0
M  V30 1225 H 114.441 0.975205 -5.98811 0
M  V30 1226 H 113.18 1.16136 -4.73671 0
M  V30 1227 H 112.185 -1.04677 -5.39743 0
M  V30 1228 H 113.41 -1.21953 -6.6806 0
M  V30 1229 H 111.356 1.01558 -6.48091 0
M  V30 1230 H 111.273 -0.344318 -7.55216 0
M  V30 1231 H 112.541 0.828131 -7.75089 0
M  V30 1232 N 116.77 1.45427 -0.607355 0
M  V30 1233 C 117.702 2.2871 0.149752 0
M  V30 1234 C 118.715 1.39937 0.831958 0
M  V30 1235 O 119.904 1.64313 0.697385 0
M  V30 1236 C 117.004 3.15673 1.23304 0
M  V30 1237 C 116.177 4.32722 0.637996 0
M  V30 1238 C 115.236 5.00895 1.61215 0
M  V30 1239 O 114.262 5.57697 1.13854 0
M  V30 1240 N 115.464 5.00159 2.94655 0
M  V30 1241 H 118.229 2.94328 -0.564882 0
M  V30 1242 H 115.79 1.55612 -0.446823 0
M  V30 1243 H 117.782 3.58144 1.88454 0
M  V30 1244 H 116.352 2.51965 1.8502 0
M  V30 1245 H 115.572 3.93734 -0.191572 0
M  V30 1246 H 116.86 5.08321 0.220665 0
M  V30 1247 H 116.258 4.553 3.35735 0
M  V30 1248 H 114.815 5.46495 3.55228 0
M  V30 1249 N 118.248 0.346503 1.53744 0
M  V30 1250 C 119.494 -0.242135 2.01954 0
M  V30 1251 C 119.849 -1.47962 1.22984 0
M  V30 1252 O 119.142 -1.89077 0.309924 0
M  V30 1253 C 119.336 -0.605809 3.52228 0
M  V30 1254 C 119.165 0.594882 4.45748 0
M  V30 1255 C 117.935 1.1011 4.93157 0
M  V30 1256 C 120.133 1.45425 4.93311 0
M  V30 1257 N 118.115 2.26381 5.70636 0
M  V30 1258 C 119.486 2.46383 5.68942 0
M  V30 1259 C 121.541 1.47935 4.75415 0
M  V30 1260 C 120.244 3.49684 6.28581 0
M  V30 1261 C 122.27 2.50119 5.35905 0
M  V30 1262 C 121.632 3.49803 6.11406 0
M  V30 1263 H 117.731 -0.0518296 0.780281 0
M  V30 1264 H 120.315 0.486736 1.88518 0
M  V30 1265 H 118.486 -1.30378 3.65864 0
M  V30 1266 H 120.218 -1.17789 3.87179 0
M  V30 1267 H 116.973 0.668721 4.68855 0
M  V30 1268 H 117.397 2.85094 6.14044 0
M  V30 1269 H 122.039 0.722274 4.16585 0
M  V30 1270 H 119.757 4.26285 6.86518 0
M  V30 1271 H 123.343 2.52892 5.23963 0
M  V30 1272 H 122.223 4.27576 6.5738 0
M  V30 1273 N 119.726 -1.57421 0.075193 0
M  V30 1274 C 121.003 -1.85029 -0.634329 0
M  V30 1275 C 121.383 -0.968305 -1.87582 0
M  V30 1276 O 120.731 -0.0354749 -2.28472 0
M  V30 1277 C 120.941 -3.35286 -0.968742 0
M  V30 1278 C 122.289 -4.02875 -1.34077 0
M  V30 1279 O 123.313 -3.40051 -1.06037 0
M  V30 1280 O 122.172 -5.13691 -1.86506 0
M  V30 1281 H 119.266 -0.7645 -0.315387 0
M  V30 1282 H 121.812 -1.69366 0.106382 0
M  V30 1283 H 120.584 -3.91203 -0.0871376 0
M  V30 1284 H 120.207 -3.56223 -1.7661 0
M  V30 1285 N 121.204 0.198386 -1.56346 0
M  V30 1286 C 122.136 1.26987 -1.90806 0
M  V30 1287 C 123.149 1.41877 -0.798419 0
M  V30 1288 O 124.338 1.42362 -1.07682 0
M  V30 1289 C 121.438 2.64246 -2.12196 0
M  V30 1290 C 120.611 2.71007 -3.43328 0
M  V30 1291 C 119.67 3.89439 -3.5387 0
M  V30 1292 O 118.696 3.76695 -4.26719 0
M  V30 1293 N 119.898 5.04752 -2.86715 0
M  V30 1294 H 122.663 0.977433 -2.83313 0
M  V30 1295 H 120.224 0.388322 -1.57174 0
M  V30 1296 H 122.216 3.41896 -2.1654 0
M  V30 1297 H 120.786 2.85992 -1.26204 0
M  V30 1298 H 120.006 1.79657 -3.50881 0
M  V30 1299 H 121.294 2.72512 -4.29668 0
M  V30 1300 H 120.692 5.18004 -2.2735 0
M  V30 1301 H 119.249 5.8036 -2.96691 0
M  V30 1302 N 122.682 1.50554 0.465978 0
M  V30 1303 C 123.912 1.65323 1.23903 0
M  V30 1304 C 124.32 0.338051 1.86155 0
M  V30 1305 O 123.663 -0.690518 1.70228 0
M  V30 1306 C 123.725 2.69048 2.3844 0
M  V30 1307 C 123.389 4.12462 1.96784 0
M  V30 1308 C 124.386 4.98168 1.48745 0
M  V30 1309 C 122.071 4.58407 2.05349 0
M  V30 1310 C 124.065 6.27868 1.0982 0
M  V30 1311 C 121.752 5.88112 1.66035 0
M  V30 1312 C 122.75 6.72668 1.18349 0
M  V30 1313 O 122.438 7.99951 0.795825 0
M  V30 1314 H 122.17 0.558629 0.38067 0
M  V30 1315 H 124.724 1.97561 0.562022 0
M  V30 1316 H 122.954 2.32062 3.09328 0
M  V30 1317 H 124.643 2.72985 3.0039 0
M  V30 1318 H 125.409 4.63885 1.41546 0
M  V30 1319 H 121.288 3.92735 2.41414 0
M  V30 1320 H 124.832 6.93819 0.725293 0
M  V30 1321 H 120.729 6.21914 1.72895 0
M  V30 1322 H 121.497 8.13265 0.924222 0
M  V30 1323 N 124.16 -0.719506 1.40217 0
M  V30 1324 C 125.406 -1.48152 1.38488 0
M  V30 1325 C 125.739 -1.94195 -0.0141867 0
M  V30 1326 O 125.014 -1.67884 -0.982096 0
M  V30 1327 C 125.297 -2.71035 2.37091 0
M  V30 1328 C 125.15 -2.30912 3.86005 0
M  V30 1329 C 126.469 -3.73182 2.33288 0
M  V30 1330 H 123.588 -0.537395 0.504357 0
M  V30 1331 H 126.23 -0.821472 1.71324 0
M  V30 1332 H 124.38 -3.27352 2.0922 0
M  V30 1333 H 126.052 -1.80107 4.24687 0
M  V30 1334 H 124.295 -1.62958 4.02029 0
M  V30 1335 H 124.966 -3.18978 4.50508 0
M  V30 1336 H 127.442 -3.26485 2.57966 0
M  V30 1337 H 126.318 -4.56806 3.04334 0
M  V30 1338 H 126.579 -4.21202 1.34317 0
M  V30 1339 N 125.638 -1.25649 -0.95132 0
M  V30 1340 C 126.585 -1.06323 -2.04851 0
M  V30 1341 C 127.555 0.0286491 -1.66075 0
M  V30 1342 O 128.74 -0.12917 -1.90362 0
M  V30 1343 C 125.88 -0.691529 -3.381 0
M  V30 1344 C 124.993 -1.85861 -3.89974 0
M  V30 1345 C 124.128 -1.43096 -5.11563 0
M  V30 1346 C 123.167 -2.56696 -5.55674 0
M  V30 1347 N 122.304 -2.14684 -6.68472 0
M  V30 1348 H 127.144 -2.00222 -2.20715 0
M  V30 1349 H 124.681 -0.997027 -1.08156 0
M  V30 1350 H 126.639 -0.456963 -4.1469 0
M  V30 1351 H 125.269 0.210474 -3.22113 0
M  V30 1352 H 124.321 -2.20639 -3.09875 0
M  V30 1353 H 125.633 -2.71161 -4.18657 0
M  V30 1354 H 124.787 -1.15624 -5.9558 0
M  V30 1355 H 123.526 -0.548722 -4.84603 0
M  V30 1356 H 122.531 -2.84909 -4.7022 0
M  V30 1357 H 123.756 -3.45503 -5.8464 0
M  V30 1358 H 121.702 -1.28881 -6.43215 0
M  V30 1359 H 121.619 -2.9353 -6.96689 0
M  V30 1360 H 122.887 -1.90397 -7.5589 0
M  V30 1361 N 127.117 1.15442 -1.07289 0
M  V30 1362 C 128.027 2.23786 -0.704057 0
M  V30 1363 C 129.043 1.7166 0.284413 0
M  V30 1364 O 130.219 2.00972 0.131205 0
M  V30 1365 C 127.284 3.46535 -0.106792 0
M  V30 1366 C 126.345 4.13654 -1.14842 0
M  V30 1367 C 125.578 5.30544 -0.57956 0
M  V30 1368 O 125.801 5.67187 0.604585 0
M  V30 1369 O 124.735 5.87154 -1.32414 0
M  V30 1370 H 128.561 2.57664 -1.60757 0
M  V30 1371 H 126.146 1.23152 -0.845803 0
M  V30 1372 H 128.028 4.20804 0.224048 0
M  V30 1373 H 126.703 3.14407 0.770049 0
M  V30 1374 H 125.61 3.4131 -1.5316 0
M  V30 1375 H 126.943 4.49861 -1.99714 0
M  V30 1376 N 128.595 0.856903 1.32268 0
M  V30 1377 C 129.525 0.31858 2.31316 0
M  V30 1378 C 130.506 -0.583487 1.59779 0
M  V30 1379 O 131.691 -0.503259 1.87566 0
M  V30 1380 C 128.821 -0.491979 3.43798 0
M  V30 1381 C 127.775 0.315849 4.26833 0
M  V30 1382 C 127.101 -0.619586 5.31098 0
M  V30 1383 C 128.401 1.54282 4.98993 0
M  V30 1384 H 130.095 1.14621 2.76591 0
M  V30 1385 H 127.641 0.552613 1.32974 0
M  V30 1386 H 129.594 -0.879012 4.1213 0
M  V30 1387 H 128.318 -1.35299 2.97257 0
M  V30 1388 H 126.977 0.684664 3.6015 0
M  V30 1389 H 126.625 -1.47751 4.8081 0
M  V30 1390 H 126.325 -0.0830621 5.87541 0
M  V30 1391 H 127.849 -1.00375 6.02293 0
M  V30 1392 H 129.263 1.22796 5.59995 0
M  V30 1393 H 127.66 2.01745 5.65172 0
M  V30 1394 H 128.73 2.30285 4.26728 0
M  V30 1395 N 130.073 -1.45103 0.615059 0
M  V30 1396 C 131.303 -2.06254 0.119596 0
M  V30 1397 C 131.711 -1.4591 -1.20445 0
M  V30 1398 O 131.054 -0.570384 -1.7462 0
M  V30 1399 C 131.116 -3.59396 -0.0865591 0
M  V30 1400 C 130.78 -4.42116 1.15683 0
M  V30 1401 C 131.777 -4.7662 2.07676 0
M  V30 1402 C 129.462 -4.82749 1.38775 0
M  V30 1403 C 131.456 -5.50622 3.21082 0
M  V30 1404 C 129.143 -5.56504 2.52481 0
M  V30 1405 C 130.141 -5.90358 3.43463 0
M  V30 1406 O 129.829 -6.62615 4.55189 0
M  V30 1407 H 129.561 -0.672423 0.0694512 0
M  V30 1408 H 132.115 -1.87219 0.844885 0
M  V30 1409 H 130.345 -3.76859 -0.866823 0
M  V30 1410 H 132.034 -4.02365 -0.534555 0
M  V30 1411 H 132.8 -4.4578 1.91063 0
M  V30 1412 H 128.679 -4.55829 0.688545 0
M  V30 1413 H 132.223 -5.76965 3.92119 0
M  V30 1414 H 128.12 -5.86759 2.69043 0
M  V30 1415 H 128.888 -6.81071 4.53966 0
M  V30 1416 N 131.551 -0.354651 -1.53558 0
M  V30 1417 C 132.461 0.50515 -2.29097 0
M  V30 1418 C 133.477 1.10223 -1.34636 0
M  V30 1419 O 134.653 1.11553 -1.67684 0
M  V30 1420 C 131.718 1.63479 -3.05738 0
M  V30 1421 C 130.779 1.06636 -4.15845 0
M  V30 1422 C 130.012 2.14217 -4.88822 0
M  V30 1423 O 130.235 3.35137 -4.61562 0
M  V30 1424 O 129.169 1.77887 -5.75013 0
M  V30 1425 H 132.995 -0.109237 -3.03503 0
M  V30 1426 H 130.58 -0.119357 -1.48922 0
M  V30 1427 H 132.462 2.2918 -3.5363 0
M  V30 1428 H 131.137 2.23478 -2.34178 0
M  V30 1429 H 130.044 0.373565 -3.7223 0
M  V30 1430 H 131.377 0.511081 -4.89539 0
M  V30 1431 N 133.029 1.57378 -0.0835403 0
M  V30 1432 C 133.961 2.10389 0.909338 0
M  V30 1433 C 134.974 1.03858 1.25369 0
M  V30 1434 O 136.163 1.31338 1.20882 0
M  V30 1435 C 133.263 2.55908 2.2218 0
M  V30 1436 C 132.436 3.86145 2.05453 0
M  V30 1437 C 131.495 4.17633 3.20108 0
M  V30 1438 O 130.521 4.87043 2.94581 0
M  V30 1439 N 131.723 3.72113 4.45547 0
M  V30 1440 H 134.488 2.962 0.456657 0
M  V30 1441 H 132.049 1.61579 0.101877 0
M  V30 1442 H 134.041 2.74027 2.97811 0
M  V30 1443 H 132.611 1.75171 2.58909 0
M  V30 1444 H 131.831 3.7729 1.1422 0
M  V30 1445 H 133.119 4.7137 1.91541 0
M  V30 1446 H 132.517 3.16062 4.69171 0
M  V30 1447 H 131.074 3.95409 5.18165 0
M  V30 1448 N 134.507 -0.190092 1.56449 0
M  V30 1449 C 135.417 -1.25591 1.98152 0
M  V30 1450 C 136.433 -1.49519 0.889944 0
M  V30 1451 O 137.609 -1.62036 1.19609 0
M  V30 1452 C 134.674 -2.57916 2.3169 0
M  V30 1453 C 133.735 -2.42015 3.5458 0
M  V30 1454 C 132.968 -3.6803 3.8651 0
M  V30 1455 O 133.191 -4.72413 3.1966 0
M  V30 1456 O 132.125 -3.6326 4.79923 0
M  V30 1457 H 135.951 -0.931988 2.89046 0
M  V30 1458 H 133.536 -0.395488 1.4407 0
M  V30 1459 H 135.418 -3.36008 2.54316 0
M  V30 1460 H 134.093 -2.89925 1.43963 0
M  V30 1461 H 133 -1.62017 3.37196 0
M  V30 1462 H 134.333 -2.14937 4.4279 0
M  V30 1463 N 135.985 -1.50799 -0.457987 0
M  V30 1464 C 137.225 -1.64088 -1.21879 0
M  V30 1465 C 137.589 -0.339848 -1.88968 0
M  V30 1466 O 138.79 -0.348301 -2.66534 0
M  V30 1467 C 137.061 -2.79726 -2.2246 0
M  V30 1468 S 138.62 -3.13225 -3.07303 0
M  V30 1469 H 135.438 -0.578314 -0.41361 0
M  V30 1470 H 138.04 -1.88632 -0.513645 0
M  V30 1471 H 136.744 -3.72722 -1.71775 0
M  V30 1472 H 136.275 -2.57308 -2.97584 0
M  V30 1473 H 138.29 -2.58062 -4.23814 0
M  V30 1474 N 137.463 0.71206 -1.40597 0
M  V30 1475 C 138.411 1.84746 -1.41321 0
M  V30 1476 C 139.405 1.66842 -0.293268 0
M  V30 1477 O 140.611 1.73904 -0.464481 0
M  V30 1478 H 136.986 0.608522 -0.441819 0
M  V30 1479 H 138.957 1.81252 -2.37045 0
M  V30 1480 C 137.706 3.22638 -1.29614 0
M  V30 1481 H 137.029 3.37023 -2.15071 0
M  V30 1482 H 138.469 4.02209 -1.3418 0
M  V30 1483 C 136.928 3.36899 -0.00673121 0
M  V30 1484 O 137.458 3.90186 0.954859 0
M  V30 1485 N 135.664 2.9053 0.0639327 0
M  V30 1486 H 135.211 2.47353 -0.719311 0
M  V30 1487 H 135.169 3.0045 0.926118 0
M  V30 1488 N 138.941 1.26152 0.944643 0
M  V30 1489 C 140.189 1.11271 1.6871 0
M  V30 1490 C 140.51 -0.345166 1.91921 0
M  V30 1491 O 139.78 -1.24387 1.51343 0
M  V30 1492 H 138.36 0.408783 0.625224 0
M  V30 1493 H 141.022 1.58427 1.1352 0
M  V30 1494 H 140.118 1.62879 2.66227 0
M  V30 1495 N 140.419 -1.14872 1.07899 0
M  V30 1496 C 141.329 -2.2341 0.715915 0
M  V30 1497 C 142.345 -1.71808 -0.275306 0
M  V30 1498 O 143.521 -2.01039 -0.120545 0
M  V30 1499 C 140.586 -3.46474 0.125168 0
M  V30 1500 C 139.647 -4.13039 1.17034 0
M  V30 1501 C 138.88 -5.30229 0.607688 0
M  V30 1502 O 139.103 -5.675 -0.574497 0
M  V30 1503 O 138.037 -5.86444 1.35526 0
M  V30 1504 H 141.863 -2.56808 1.62121 0
M  V30 1505 H 139.448 -1.22702 0.852322 0
M  V30 1506 H 141.33 -4.20917 -0.201729 0
M  V30 1507 H 140.005 -3.14811 -0.753364 0
M  V30 1508 H 138.912 -3.40493 1.54968 0
M  V30 1509 H 140.245 -4.48796 2.02097 0
M  V30 1510 N 141.898 -0.863906 -1.31812 0
M  V30 1511 C 143.126 -0.486111 -2.01108 0
M  V30 1512 C 143.541 0.919755 -1.64882 0
M  V30 1513 O 142.898 1.60162 -0.874893 0
M  V30 1514 C 142.949 -0.626435 -3.56031 0
M  V30 1515 O 142.67 -1.97693 -3.90959 0
M  V30 1516 C 144.171 -0.248857 -4.42601 0
M  V30 1517 H 141.391 -0.190052 -0.643523 0
M  V30 1518 H 143.935 -1.1634 -1.68182 0
M  V30 1519 H 142.09 0.00322717 -3.874 0
M  V30 1520 H 142.504 -1.98034 -4.85678 0
M  V30 1521 H 143.978 -0.398016 -5.50563 0
M  V30 1522 H 144.455 0.811489 -4.31638 0
M  V30 1523 H 145.061 -0.853971 -4.16638 0
M  V30 1524 N 143.376 1.44774 -0.622745 0
M  V30 1525 C 144.622 2.0242 -0.124083 0
M  V30 1526 C 144.955 1.4881 1.24777 0
M  V30 1527 O 144.23 0.668799 1.8264 0
M  V30 1528 C 144.513 3.59957 -0.101619 0
M  V30 1529 C 144.366 4.23867 -1.50521 0
M  V30 1530 C 145.685 4.36284 0.578272 0
M  V30 1531 H 142.804 0.735528 -0.0465645 0
M  V30 1532 H 145.446 1.72447 -0.797617 0
M  V30 1533 H 143.596 3.85623 0.471934 0
M  V30 1534 H 145.268 4.09336 -2.12701 0
M  V30 1535 H 143.511 3.81684 -2.06154 0
M  V30 1536 H 144.182 5.32843 -1.4416 0
M  V30 1537 H 146.658 4.16001 0.0906057 0
M  V30 1538 H 145.534 5.46004 0.563149 0
M  V30 1539 H 145.795 4.10271 1.64713 0
M  V30 1540 N 144.854 0.36279 1.53368 0
M  V30 1541 C 146.1 -0.228113 2.01513 0
M  V30 1542 C 146.433 -1.48648 1.2497 0
M  V30 1543 O 145.708 -1.91459 0.342616 0
M  V30 1544 C 145.991 -0.522884 3.56284 0
M  V30 1545 C 145.844 0.74892 4.43521 0
M  V30 1546 C 147.163 -1.32461 4.19693 0
M  V30 1547 H 144.282 -0.0814343 0.732487 0
M  V30 1548 H 146.924 0.48713 1.83649 0
M  V30 1549 H 145.074 -1.1322 3.71636 0
M  V30 1550 H 146.746 1.38648 4.39971 0
M  V30 1551 H 144.989 1.36986 4.11603 0
M  V30 1552 H 145.66 0.497667 5.49752 0
M  V30 1553 H 148.136 -0.809203 4.08156 0
M  V30 1554 H 147.012 -1.49961 5.28018 0
M  V30 1555 H 147.273 -2.33232 3.75573 0
M  V30 1556 N 146.332 -1.57332 0.0918853 0
M  V30 1557 C 147.562 -1.98286 -0.580205 0
M  V30 1558 C 147.97 -0.969713 -1.6246 0
M  V30 1559 O 147.313 0.0493501 -1.83634 0
M  V30 1560 C 147.375 -3.35603 -1.28882 0
M  V30 1561 C 147.039 -4.55285 -0.395559 0
M  V30 1562 C 148.036 -5.18687 0.355002 0
M  V30 1563 C 145.721 -5.01314 -0.314556 0
M  V30 1564 C 147.715 -6.26484 1.17458 0
M  V30 1565 C 145.402 -6.08979 0.508677 0
M  V30 1566 C 146.4 -6.71429 1.2519 0
M  V30 1567 O 146.088 -7.77018 2.06151 0
M  V30 1568 H 145.82 -0.656678 -0.160466 0
M  V30 1569 H 148.374 -2.04721 0.16688 0
M  V30 1570 H 146.604 -3.25842 -2.08241 0
M  V30 1571 H 148.293 -3.61026 -1.85512 0
M  V30 1572 H 149.059 -4.84058 0.302134 0
M  V30 1573 H 144.938 -4.5247 -0.882697 0
M  V30 1574 H 148.482 -6.75159 1.75518 0
M  V30 1575 H 144.379 -6.4304 0.563037 0
M  V30 1576 H 145.147 -7.93991 1.98799 0
M  V30 1577 N 147.81 0.181792 -1.56548 0
M  V30 1578 C 149.056 0.896803 -1.82562 0
M  V30 1579 C 149.411 1.80324 -0.670908 0
M  V30 1580 O 148.704 1.8868 0.333235 0
M  V30 1581 C 148.898 1.73728 -3.12335 0
M  V30 1582 C 148.727 0.913714 -4.4032 0
M  V30 1583 C 147.497 0.592903 -5.01809 0
M  V30 1584 C 149.695 0.260164 -5.13642 0
M  V30 1585 N 147.677 -0.247901 -6.13399 0
M  V30 1586 C 149.048 -0.442256 -6.18421 0
M  V30 1587 C 151.103 0.177253 -4.97584 0
M  V30 1588 C 149.806 -1.21971 -7.08883 0
M  V30 1589 C 151.832 -0.586839 -5.88481 0
M  V30 1590 C 151.194 -1.27766 -6.92716 0
M  V30 1591 H 147.293 0.307122 -0.719166 0
M  V30 1592 H 149.877 0.164535 -1.94004 0
M  V30 1593 H 148.048 2.44105 -3.02105 0
M  V30 1594 H 149.78 2.39279 -3.26386 0
M  V30 1595 H 146.535 0.920502 -4.64568 0
M  V30 1596 H 146.959 -0.658304 -6.73792 0
M  V30 1597 H 151.601 0.696993 -4.17015 0
M  V30 1598 H 149.319 -1.75083 -7.88905 0
M  V30 1599 H 152.905 -0.652522 -5.78129 0
M  V30 1600 H 151.785 -1.85943 -7.61836 0
M  V30 1601 N 149.288 1.51039 0.449983 0
M  V30 1602 C 150.198 1.74261 1.57067 0
M  V30 1603 C 151.214 0.626363 1.62335 0
M  V30 1604 O 152.39 0.907162 1.79812 0
M  V30 1605 C 149.455 1.85114 2.93144 0
M  V30 1606 C 148.516 3.0893 2.98095 0
M  V30 1607 C 147.749 3.19256 4.27681 0
M  V30 1608 O 147.972 2.35835 5.19363 0
M  V30 1609 O 146.906 4.12144 4.38658 0
M  V30 1610 H 150.732 2.69303 1.40391 0
M  V30 1611 H 148.317 1.35389 0.631688 0
M  V30 1612 H 150.199 1.94311 3.73926 0
M  V30 1613 H 148.874 0.932588 3.09975 0
M  V30 1614 H 147.781 3.0522 2.16314 0
M  V30 1615 H 149.114 4.00433 2.86206 0
M  V30 1616 N 150.766 -0.704594 1.40972 0
M  V30 1617 C 152.012 -1.46675 1.40051 0
M  V30 1618 C 152.345 -1.94199 0.00641102 0
M  V30 1619 O 151.62 -1.68916 -0.964235 0
M  V30 1620 C 151.903 -2.68505 2.39952 0
M  V30 1621 C 151.756 -2.26805 3.88432 0
M  V30 1622 C 153.075 -3.70686 2.37233 0
M  V30 1623 H 150.194 -0.532015 0.510028 0
M  V30 1624 H 152.836 -0.803255 1.72185 0
M  V30 1625 H 150.986 -3.25114 2.1268 0
M  V30 1626 H 152.658 -1.75592 4.26574 0
M  V30 1627 H 150.901 -1.58685 4.03734 0
M  V30 1628 H 151.572 -3.14181 4.53866 0
M  V30 1629 H 154.048 -3.23731 2.61415 0
M  V30 1630 H 152.924 -4.53553 3.09162 0
M  V30 1631 H 153.185 -4.19754 1.38777 0
M  V30 1632 N 152.244 -1.26651 -0.937939 0
M  V30 1633 C 153.191 -1.0849 -2.03712 0
M  V30 1634 C 154.161 0.011033 -1.66096 0
M  V30 1635 O 155.346 -0.149353 -1.90215 0
M  V30 1636 C 152.486 -0.72735 -3.37348 0
M  V30 1637 C 151.599 -1.89986 -3.87981 0
M  V30 1638 C 150.734 -1.48513 -5.10017 0
M  V30 1639 C 149.773 -2.62575 -5.5292 0
M  V30 1640 N 148.91 -2.21762 -6.66158 0
M  V30 1641 H 153.75 -2.02551 -2.18579 0
M  V30 1642 H 151.287 -1.00844 -1.07093 0
M  V30 1643 H 153.245 -0.50092 -4.14182 0
M  V30 1644 H 151.875 0.176298 -3.22318 0
M  V30 1645 H 150.927 -2.23913 -3.07518 0
M  V30 1646 H 152.239 -2.75586 -4.15757 0
M  V30 1647 H 151.393 -1.21934 -5.94321 0
M  V30 1648 H 150.132 -0.60009 -4.83994 0
M  V30 1649 H 149.137 -2.8988 -4.67172 0
M  V30 1650 H 150.362 -3.51685 -5.80943 0
M  V30 1651 H 148.308 -1.35696 -6.41812 0
M  V30 1652 H 148.225 -3.00903 -6.93537 0
M  V30 1653 H 149.493 -1.98403 -7.53828 0
M  V30 1654 N 153.722 1.14298 -1.08507 0
M  V30 1655 C 154.952 1.88945 -0.835663 0
M  V30 1656 C 155.36 1.78894 0.615928 0
M  V30 1657 O 154.703 1.1468 1.43506 0
M  V30 1658 C 154.765 3.39585 -1.17994 0
M  V30 1659 C 154.429 3.7342 -2.63451 0
M  V30 1660 C 155.426 3.73454 -3.61702 0
M  V30 1661 C 153.111 4.03368 -2.99332 0
M  V30 1662 C 155.105 4.02961 -4.93864 0
M  V30 1663 C 152.792 4.32538 -4.31687 0
M  V30 1664 C 153.79 4.32318 -5.28763 0
M  V30 1665 O 153.478 4.6078 -6.58739 0
M  V30 1666 H 153.21 0.605307 -0.300965 0
M  V30 1667 H 155.764 1.45673 -1.44806 0
M  V30 1668 H 153.994 3.83315 -0.51055 0
M  V30 1669 H 155.683 3.9554 -0.911182 0
M  V30 1670 H 156.449 3.50403 -3.35325 0
M  V30 1671 H 152.328 4.02692 -2.24411 0
M  V30 1672 H 155.872 4.02704 -5.69627 0
M  V30 1673 H 151.769 4.55059 -4.57812 0
M  V30 1674 H 152.537 4.78492 -6.64069 0
M  V30 1675 N 155.201 0.870884 1.31352 0
M  V30 1676 C 156.612 0.534714 1.78879 0
M  V30 1677 C 156.963 -0.948423 1.71754 0
M  V30 1678 O 156.088 -1.74055 1.28584 0
M  V30 1679 C 156.683 0.963839 3.24801 0
M  V30 1680 C 155.242 0.679311 3.70219 0
M  V30 1681 C 154.389 1.15465 2.52117 0
M  V30 1682 H 157.34 1.05651 1.18421 0
M  V30 1683 H 157.361 0.286892 3.79417 0
M  V30 1684 H 156.873 2.04332 3.29955 0
M  V30 1685 H 154.974 -0.388769 3.70566 0
M  V30 1686 H 155.087 1.25698 4.62317 0
M  V30 1687 H 153.451 0.574383 2.48139 0
M  V30 1688 H 154.234 2.24157 2.60016 0
M  V30 1689 N 156.679 -1.44442 0.630414 0
M  V30 1690 C 157.926 -2.02052 0.134617 0
M  V30 1691 C 158.254 -1.49576 -1.24327 0
M  V30 1692 O 157.509 -0.669806 -1.83881 0
M  V30 1693 C 157.808 -3.57332 0.0697835 0
M  V30 1694 C 157.474 -4.29058 1.38635 0
M  V30 1695 C 156.136 -4.4837 1.74694 0
M  V30 1696 C 158.488 -4.69872 2.25543 0
M  V30 1697 C 155.816 -5.05756 2.97369 0
M  V30 1698 C 158.168 -5.28616 3.47487 0
M  V30 1699 C 156.832 -5.46147 3.8377 0
M  V30 1700 H 156.102 -0.739361 0.0492598 0
M  V30 1701 H 158.749 -1.73217 0.816586 0
M  V30 1702 H 157.054 -3.85577 -0.695553 0
M  V30 1703 H 158.751 -3.99637 -0.330344 0
M  V30 1704 H 155.341 -4.14357 1.09574 0
M  V30 1705 H 159.525 -4.54666 1.98979 0
M  V30 1706 H 154.781 -5.17515 3.25558 0
M  V30 1707 H 158.955 -5.59192 4.15063 0
M  V30 1708 H 156.582 -5.9038 4.7891 0
M  V30 1709 N 158.157 -0.370918 -1.53173 0
M  V30 1710 C 159.568 0.107139 -1.86392 0
M  V30 1711 C 159.919 1.47714 -1.29132 0
M  V30 1712 O 159.044 2.07464 -0.615439 0
M  V30 1713 C 159.639 0.201187 -3.38202 0
M  V30 1714 C 158.198 0.623507 -3.712 0
M  V30 1715 C 157.345 -0.225978 -2.76378 0
M  V30 1716 H 160.296 -0.58951 -1.47345 0
M  V30 1717 H 160.317 1.02377 -3.66468 0
M  V30 1718 H 159.829 -0.796058 -3.79848 0
M  V30 1719 H 157.93 1.62879 -3.35114 0
M  V30 1720 H 158.043 0.394414 -4.77474 0
M  V30 1721 H 156.407 0.305962 -2.52856 0
M  V30 1722 H 157.19 -1.22086 -3.20858 0
M  V30 1723 N 159.635 1.57281 -0.100228 0
M  V30 1724 C 160.568 2.09976 0.893612 0
M  V30 1725 C 161.546 1.01155 1.27304 0
M  V30 1726 O 162.73 1.28687 1.37739 0
M  V30 1727 C 159.857 2.58098 2.19324 0
M  V30 1728 C 158.903 3.78626 1.96328 0
M  V30 1729 S 159.736 5.21959 1.19662 0
M  V30 1730 C 160.892 5.73435 2.50844 0
M  V30 1731 H 161.125 2.93946 0.44534 0
M  V30 1732 H 158.658 1.53985 0.113167 0
M  V30 1733 H 160.616 2.8648 2.94005 0
M  V30 1734 H 159.277 1.74344 2.61272 0
M  V30 1735 H 158.47 4.10382 2.92579 0
M  V30 1736 H 158.072 3.50763 1.29775 0
M  V30 1737 H 160.364 5.82015 3.46792 0
M  V30 1738 H 161.307 6.7185 2.23659 0
M  V30 1739 H 161.715 5.01395 2.59352 0
M  V30 1740 N 161.113 -0.173488 1.56642 0
M  V30 1741 C 162.338 -0.910149 1.86363 0
M  V30 1742 C 162.763 -1.75132 0.686318 0
M  V30 1743 O 162.121 -1.77595 -0.364643 0
M  V30 1744 C 162.169 -1.76447 3.14482 0
M  V30 1745 O 161.273 -2.86584 2.96553 0
M  V30 1746 H 160.614 -0.255086 0.613047 0
M  V30 1747 H 163.144 -0.172283 2.03873 0
M  V30 1748 H 163.154 -2.16483 3.45831 0
M  V30 1749 H 161.829 -1.14658 3.99783 0
M  V30 1750 H 160.406 -2.50146 2.76553 0
M  V30 1751 N 162.591 -1.51276 -0.441967 0
M  V30 1752 C 163.539 -1.72823 -1.55676 0
M  V30 1753 C 164.533 -0.59445 -1.58627 0
M  V30 1754 O 165.739 -0.775715 -1.62427 0
M  V30 1755 H 162.114 -0.545983 -0.517113 0
M  V30 1756 H 164.085 -2.6628 -1.34675 0
M  V30 1757 C 162.834 -1.86619 -2.93375 0
M  V30 1758 H 162.157 -2.73264 -2.91834 0
M  V30 1759 H 163.597 -2.05709 -3.70756 0
M  V30 1760 C 162.056 -0.624842 -3.31055 0
M  V30 1761 O 162.586 0.222636 -4.01083 0
M  V30 1762 N 160.792 -0.470288 -2.86769 0
M  V30 1763 H 160.339 -1.161 -2.29953 0
M  V30 1764 H 160.297 0.359051 -3.12343 0
M  V30 1765 N 164.069 0.697108 -1.41344 0
M  V30 1766 C 165.485 1.00751 -1.2378 0
M  V30 1767 C 165.685 2.01105 -0.126066 0
M  V30 1768 O 164.741 2.47295 0.51004 0
M  V30 1769 C 166.054 1.53359 -2.58653 0
M  V30 1770 C 167.602 1.6525 -2.65822 0
M  V30 1771 C 168.077 2.2126 -4.01009 0
M  V30 1772 N 169.568 2.28622 -4.02847 0
M  V30 1773 C 170.303 2.72984 -5.04249 0
M  V30 1774 N 169.799 3.16962 -6.16041 0
M  V30 1775 N 171.592 2.72534 -4.91611 0
M  V30 1776 H 163.743 0.0322662 -2.12375 0
M  V30 1777 H 166.006 0.0768853 -0.944877 0
M  V30 1778 H 165.712 0.870773 -3.4075 0
M  V30 1779 H 165.586 2.51597 -2.81032 0
M  V30 1780 H 167.973 2.30644 -1.84086 0
M  V30 1781 H 168.054 0.655614 -2.47256 0
M  V30 1782 H 167.698 1.56482 -4.83193 0
M  V30 1783 H 167.628 3.21698 -4.16915 0
M  V30 1784 H 170.119 1.97585 -3.22131 0
M  V30 1785 H 170.432 3.49434 -6.89287 0
M  V30 1786 H 168.777 3.14875 -6.1958 0
M  V30 1787 H 171.968 2.37525 -4.0336 0
M  V30 1788 H 172.141 3.06789 -5.70775 0
M  V30 1789 N 165.547 1.27147 0.931209 0
M  V30 1790 C 166.824 1.0401 1.65654 0
M  V30 1791 C 167.204 -0.426297 2.06751 0
M  V30 1792 O 166.552 -1.40879 1.79904 0
M  V30 1793 C 166.762 1.99834 2.86125 0
M  V30 1794 C 168.11 2.29007 3.57549 0
M  V30 1795 O 169.134 1.97779 2.96246 0
M  V30 1796 O 167.993 2.82222 4.67989 0
M  V30 1797 H 165.087 0.396239 0.725895 0
M  V30 1798 H 167.633 1.38397 0.982056 0
M  V30 1799 H 166.405 2.98744 2.52721 0
M  V30 1800 H 166.028 1.65987 3.61295 0
M  V30 1801 N 167.025 -1.13721 1.09112 0
M  V30 1802 C 168.255 -1.88499 0.845671 0
M  V30 1803 C 168.663 -1.79218 -0.606432 0
M  V30 1804 O 168.006 -1.1544 -1.42896 0
M  V30 1805 C 168.068 -3.38954 1.19793 0
M  V30 1806 C 167.732 -3.72018 2.65428 0
M  V30 1807 C 168.729 -3.7153 3.63677 0
M  V30 1808 C 166.414 -4.01775 3.01467 0
M  V30 1809 C 168.408 -4.00336 4.95994 0
M  V30 1810 C 166.095 -4.30243 4.33975 0
M  V30 1811 C 167.093 -4.29508 5.31048 0
M  V30 1812 O 166.781 -4.5728 6.61173 0
M  V30 1813 H 166.513 -0.603702 0.304171 0
M  V30 1814 H 169.067 -1.44903 1.45576 0
M  V30 1815 H 167.297 -3.83039 0.530871 0
M  V30 1816 H 168.986 -3.95052 0.932146 0
M  V30 1817 H 169.752 -3.4862 3.37179 0
M  V30 1818 H 165.631 -4.01496 2.26544 0
M  V30 1819 H 169.175 -3.99678 5.71755 0
M  V30 1820 H 165.072 -4.52625 4.60219 0
M  V30 1821 H 165.84 -4.74964 6.66597 0
M  V30 1822 N 168.503 -0.877838 -1.30888 0
M  V30 1823 C 169.749 -0.493426 -1.96706 0
M  V30 1824 C 170.082 0.953504 -1.6918 0
M  V30 1825 O 169.357 1.67266 -0.992594 0
M  V30 1826 C 169.64 -0.760429 -3.51979 0
M  V30 1827 C 169.493 -2.25747 -3.89048 0
M  V30 1828 C 170.812 -0.232148 -4.39487 0
M  V30 1829 H 167.931 -0.180746 -0.714493 0
M  V30 1830 H 170.573 -1.10052 -1.54882 0
M  V30 1831 H 168.723 -0.243715 -3.87735 0
M  V30 1832 H 170.395 -2.84204 -3.63354 0
M  V30 1833 H 168.638 -2.72694 -3.37373 0
M  V30 1834 H 169.309 -2.39491 -4.97341 0
M  V30 1835 H 171.785 -0.674314 -4.106 0
M  V30 1836 H 170.661 -0.448355 -5.47066 0
M  V30 1837 H 170.922 0.866297 -4.33529 0
M  V30 1838 N 169.982 1.44106 -0.638065 0
M  V30 1839 C 171.212 2.06037 -0.152394 0
M  V30 1840 C 171.62 1.47808 1.18108 0
M  V30 1841 O 170.963 0.598092 1.73691 0
M  V30 1842 C 171.025 3.59488 0.0293714 0
M  V30 1843 C 170.689 4.4022 -1.22702 0
M  V30 1844 C 171.686 4.73256 -2.15232 0
M  V30 1845 C 169.371 4.8048 -1.46437 0
M  V30 1846 C 171.365 5.45444 -3.29802 0
M  V30 1847 C 169.052 5.52417 -2.61303 0
M  V30 1848 C 170.05 5.84819 -3.52811 0
M  V30 1849 O 169.738 6.55289 -4.65673 0
M  V30 1850 H 169.47 0.671233 -0.0801401 0
M  V30 1851 H 172.024 1.85851 -0.874563 0
M  V30 1852 H 170.254 3.78191 0.806758 0
M  V30 1853 H 171.943 4.03164 0.470475 0
M  V30 1854 H 172.709 4.42684 -1.98131 0
M  V30 1855 H 168.588 4.54676 -0.760977 0
M  V30 1856 H 172.132 5.70653 -4.01249 0
M  V30 1857 H 168.029 5.82404 -2.78344 0
M  V30 1858 H 168.797 6.73762 -4.64744 0
M  V30 1859 N 171.46 0.379036 1.52974 0
M  V30 1860 C 172.39 -0.452706 2.29069 0
M  V30 1861 C 173.371 -1.07237 1.32039 0
M  V30 1862 O 174.556 -1.08708 1.60923 0
M  V30 1863 C 171.686 -1.5856 3.08992 0
M  V30 1864 C 170.64 -1.0925 4.13822 0
M  V30 1865 C 169.966 -2.31668 4.81907 0
M  V30 1866 C 171.266 -0.167702 5.22031 0
M  V30 1867 H 172.96 0.182181 2.98845 0
M  V30 1868 H 170.506 0.0890592 1.43724 0
M  V30 1869 H 172.459 -2.1742 3.6098 0
M  V30 1870 H 171.183 -2.24792 2.36931 0
M  V30 1871 H 169.842 -0.526494 3.628 0
M  V30 1872 H 169.49 -2.96386 4.06404 0
M  V30 1873 H 169.19 -1.9934 5.52754 0
M  V30 1874 H 170.714 -2.91189 5.36695 0
M  V30 1875 H 172.128 -0.664186 5.6944 0
M  V30 1876 H 170.525 0.0653265 6.00064 0
M  V30 1877 H 171.595 0.786347 4.78482 0
M  V30 1878 N 172.938 -1.57226 0.108567 0
M  V30 1879 C 174.354 -1.5766 -0.248058 0
M  V30 1880 C 174.554 -1.12063 -1.67464 0
M  V30 1881 O 173.61 -0.803236 -2.39383 0
M  V30 1882 C 174.923 -3.0069 -0.0242287 0
M  V30 1883 C 176.471 -3.12868 -0.0909372 0
M  V30 1884 C 176.946 -4.57879 0.105067 0
M  V30 1885 N 178.437 -4.63172 0.0506846 0
M  V30 1886 C 179.172 -5.73126 0.177396 0
M  V30 1887 N 178.668 -6.91866 0.359696 0
M  V30 1888 N 180.461 -5.61977 0.117709 0
M  V30 1889 H 172.612 -1.85169 1.04049 0
M  V30 1890 H 174.875 -0.85529 0.40888 0
M  V30 1891 H 174.581 -3.38299 0.961604 0
M  V30 1892 H 174.455 -3.6945 -0.76068 0
M  V30 1893 H 176.842 -2.75124 -1.06729 0
M  V30 1894 H 176.923 -2.46672 0.677225 0
M  V30 1895 H 176.567 -4.96321 1.07834 0
M  V30 1896 H 176.497 -5.22153 -0.682954 0
M  V30 1897 H 178.988 -3.778 -0.0871266 0
M  V30 1898 H 179.301 -7.71503 0.447529 0
M  V30 1899 H 177.646 -6.93874 0.395536 0
M  V30 1900 H 180.837 -4.68094 -0.0236741 0
M  V30 1901 H 181.01 -6.47627 0.219905 0
M  V30 1902 N 174.416 0.165178 -1.56732 0
M  V30 1903 C 175.348 1.22911 -1.93457 0
M  V30 1904 C 176.361 1.40152 -0.828333 0
M  V30 1905 O 177.55 1.40046 -1.10677 0
M  V30 1906 C 174.65 2.59686 -2.17753 0
M  V30 1907 C 173.823 2.63663 -3.48999 0
M  V30 1908 C 172.882 3.81845 -3.62051 0
M  V30 1909 O 171.908 3.67559 -4.34613 0
M  V30 1910 N 173.11 4.98557 -2.97357 0
M  V30 1911 H 175.875 0.917118 -2.85323 0
M  V30 1912 H 173.436 0.354895 -1.57962 0
M  V30 1913 H 175.428 3.37225 -2.23743 0
M  V30 1914 H 173.998 2.83251 -1.32242 0
M  V30 1915 H 173.218 1.72173 -3.54612 0
M  V30 1916 H 174.506 2.63336 -4.35352 0
M  V30 1917 H 173.904 5.13065 -2.38287 0
M  V30 1918 H 172.461 5.73936 -3.08934 0
M  V30 1919 N 175.894 1.51508 0.433938 0
M  V30 1920 C 177.31 1.39759 0.770682 0
M  V30 1921 C 177.51 0.482594 1.95636 0
M  V30 1922 O 176.566 -0.0609691 2.52426 0
M  V30 1923 C 177.879 2.81851 1.04787 0
M  V30 1924 C 179.427 2.91025 1.1521 0
M  V30 1925 C 179.902 4.34032 1.46219 0
M  V30 1926 N 181.393 4.37154 1.53136 0
M  V30 1927 C 182.128 5.4484 1.78709 0
M  V30 1928 N 181.624 6.62682 2.02051 0
M  V30 1929 N 183.417 5.32324 1.80519 0
M  V30 1930 H 175.568 2.09548 -0.346892 0
M  V30 1931 H 177.831 0.943446 -0.0928074 0
M  V30 1932 H 177.537 3.50815 0.249304 0
M  V30 1933 H 177.411 3.21386 1.97461 0
M  V30 1934 H 179.798 2.22257 1.94128 0
M  V30 1935 H 179.879 2.54983 0.204281 0
M  V30 1936 H 179.523 5.03351 0.678274 0
M  V30 1937 H 179.453 4.6759 2.42212 0
M  V30 1938 H 181.944 3.52197 1.36987 0
M  V30 1939 H 182.257 7.40543 2.20943 0
M  V30 1940 H 180.602 6.65791 1.99366 0
M  V30 1941 H 183.793 4.39246 1.61805 0
M  V30 1942 H 183.966 6.16328 2.00111 0
M  V30 1943 N 177.372 -0.689602 1.41712 0
M  V30 1944 C 178.788 -1.00093 1.24312 0
M  V30 1945 C 178.988 -2.01036 0.136729 0
M  V30 1946 O 178.044 -2.47562 -0.496918 0
M  V30 1947 C 179.357 -1.51985 2.59463 0
M  V30 1948 C 180.905 -1.63838 2.66695 0
M  V30 1949 C 181.38 -2.1913 4.02177 0
M  V30 1950 N 182.871 -2.26483 4.04054 0
M  V30 1951 C 183.606 -2.70306 5.0569 0
M  V30 1952 N 183.102 -3.13691 6.17713 0
M  V30 1953 N 184.895 -2.69923 4.9305 0
M  V30 1954 H 177.046 -0.0210029 2.1239 0
M  V30 1955 H 179.309 -0.0718733 0.945272 0
M  V30 1956 H 179.015 -0.85269 3.41207 0
M  V30 1957 H 178.889 -2.50103 2.82362 0
M  V30 1958 H 181.276 -2.29664 1.85306 0
M  V30 1959 H 181.357 -0.642492 2.476 0
M  V30 1960 H 181.001 -1.53918 4.84016 0
M  V30 1961 H 180.931 -3.19482 4.18615 0
M  V30 1962 H 183.422 -1.95874 3.23174 0
M  V30 1963 H 183.735 -3.45773 6.9113 0
M  V30 1964 H 182.08 -3.11585 6.21241 0
M  V30 1965 H 185.271 -2.35382 4.04614 0
M  V30 1966 H 185.444 -3.03758 5.72394 0
M  V30 1967 N 178.85 -1.27639 -0.924453 0
M  V30 1968 C 180.127 -1.04887 -1.651 0
M  V30 1969 C 180.507 0.415327 -2.06974 0
M  V30 1970 O 179.855 1.39923 -1.80648 0
M  V30 1971 C 180.065 -2.01348 -2.85061 0
M  V30 1972 C 181.413 -2.30899 -3.56329 0
M  V30 1973 O 182.437 -1.99348 -2.95193 0
M  V30 1974 O 181.296 -2.84699 -4.66485 0
M  V30 1975 H 178.39 -0.400083 -0.723784 0
M  V30 1976 H 180.936 -1.38916 -0.974703 0
M  V30 1977 H 179.708 -3.0008 -2.51133 0
M  V30 1978 H 179.331 -1.679 -3.6041 0
M  V30 1979 N 180.328 1.1314 -1.09713 0
M  V30 1980 C 181.258 2.20748 -0.761102 0
M  V30 1981 C 182.239 1.68061 0.262566 0
M  V30 1982 O 183.424 1.93765 0.129977 0
M  V30 1983 C 180.554 3.46812 -0.184054 0
M  V30 1984 C 179.508 4.12606 -1.13757 0
M  V30 1985 C 178.834 5.33031 -0.422083 0
M  V30 1986 C 180.134 4.59603 -2.48118 0
M  V30 1987 H 181.828 2.49113 -1.66082 0
M  V30 1988 H 179.374 1.19734 -0.799987 0
M  V30 1989 H 181.327 4.21353 0.0631215 0
M  V30 1990 H 180.051 3.17851 0.750868 0
M  V30 1991 H 178.71 3.40036 -1.37007 0
M  V30 1992 H 178.358 5.00335 0.517072 0
M  V30 1993 H 178.058 5.77999 -1.05788 0
M  V30 1994 H 179.582 6.10325 -0.183277 0
M  V30 1995 H 180.996 5.25552 -2.29059 0
M  V30 1996 H 179.393 5.15321 -3.07514 0
M  V30 1997 H 180.463 3.73971 -3.08665 0
M  V30 1998 N 181.806 0.884767 1.30421 0
M  V30 1999 C 183.083 0.423185 1.90967 0
M  V30 2000 C 183.463 -1.09605 1.80416 0
M  V30 2001 O 182.811 -1.93126 1.22125 0
M  V30 2002 C 183.021 0.921056 3.36627 0
M  V30 2003 C 184.369 0.955903 4.137 0
M  V30 2004 O 185.393 0.867706 3.4547 0
M  V30 2005 O 184.252 1.08614 5.35598 0
M  V30 2006 H 181.346 0.129369 0.816819 0
M  V30 2007 H 183.892 0.973653 1.3899 0
M  V30 2008 H 182.664 1.96489 3.3839 0
M  V30 2009 H 182.287 0.349741 3.96059 0
M  V30 2010 N 183.284 -1.43765 0.645699 0
M  V30 2011 C 184.217 -2.2798 -0.100072 0
M  V30 2012 C 185.195 -1.39391 -0.837194 0
M  V30 2013 O 186.379 -1.68833 -0.838306 0
M  V30 2014 C 183.506 -3.18643 -1.14823 0
M  V30 2015 C 182.552 -4.2344 -0.510009 0
M  V30 2016 S 183.385 -5.30761 0.710824 0
M  V30 2017 C 184.541 -6.24992 -0.33699 0
M  V30 2018 H 184.774 -2.90884 0.614322 0
M  V30 2019 H 182.307 -1.48166 0.434304 0
M  V30 2020 H 184.265 -3.71424 -1.74799 0
M  V30 2021 H 182.926 -2.54932 -1.8349 0
M  V30 2022 H 182.119 -4.86948 -1.29991 0
M  V30 2023 H 181.721 -3.73997 0.0154577 0
M  V30 2024 H 184.013 -6.66691 -1.20537 0
M  V30 2025 H 184.956 -7.07612 0.262879 0
M  V30 2026 H 185.364 -5.60517 -0.669425 0
M  V30 2027 N 184.763 -0.387143 -1.52771 0
M  V30 2028 C 185.673 0.456442 -2.30117 0
M  V30 2029 C 186.689 1.07342 -1.36944 0
M  V30 2030 O 187.865 1.07971 -1.70013 0
M  V30 2031 C 184.93 1.56957 -3.09136 0
M  V30 2032 C 183.991 0.977916 -4.18014 0
M  V30 2033 C 183.224 2.038 -4.93256 0
M  V30 2034 O 183.447 3.25271 -4.68567 0
M  V30 2035 O 182.381 1.6565 -5.78657 0
M  V30 2036 H 186.207 -0.17359 -3.03203 0
M  V30 2037 H 183.792 -0.150919 -1.48636 0
M  V30 2038 H 185.674 2.21628 -3.58412 0
M  V30 2039 H 184.349 2.18461 -2.38865 0
M  V30 2040 H 183.256 0.294525 -3.72939 0
M  V30 2041 H 184.589 0.407128 -4.90513 0
M  V30 2042 N 186.241 1.57166 -0.116904 0
M  V30 2043 C 187.489 1.94737 0.540533 0
M  V30 2044 C 187.81 1.00096 1.67349 0
M  V30 2045 O 187.08 0.0568854 1.95817 0
M  V30 2046 H 185.66 0.718981 0.202669 0
M  V30 2047 H 188.322 1.94017 -0.185353 0
M  V30 2048 H 187.418 2.97719 0.936483 0
M  V30 2049 N 187.719 -0.156864 1.56817 0
M  V30 2050 C 189.135 -0.50916 1.5126 0
M  V30 2051 C 189.335 -1.83897 0.823658 0
M  V30 2052 O 188.391 -2.49469 0.390055 0
M  V30 2053 C 189.704 -0.52857 2.96018 0
M  V30 2054 C 191.252 -0.614771 3.06903 0
M  V30 2055 C 191.727 -0.664938 4.53147 0
M  V30 2056 N 193.218 -0.727433 4.57452 0
M  V30 2057 C 193.953 -0.787067 5.67973 0
M  V30 2058 N 193.449 -0.806649 6.88088 0
M  V30 2059 N 195.242 -0.827195 5.5598 0
M  V30 2060 H 187.393 0.714935 2.00006 0
M  V30 2061 H 189.656 0.259526 0.911784 0
M  V30 2062 H 189.362 0.380154 3.49639 0
M  V30 2063 H 189.236 -1.36998 3.51442 0
M  V30 2064 H 191.623 -1.51392 2.53307 0
M  V30 2065 H 191.704 0.253597 2.5454 0
M  V30 2066 H 191.348 0.230011 5.07379 0
M  V30 2067 H 191.278 -1.54966 5.03282 0
M  V30 2068 H 193.769 -0.719998 3.70978 0
M  V30 2069 H 194.082 -0.853727 7.6807 0
M  V30 2070 H 192.427 -0.774687 6.90669 0
M  V30 2071 H 195.618 -0.808998 4.61056 0
M  V30 2072 H 195.791 -0.870206 6.4213 0
M  V30 2073 N 189.197 -1.51736 -0.425897 0
M  V30 2074 C 190.144 -1.73875 -1.51776 0
M  V30 2075 C 191.114 -0.580702 -1.55618 0
M  V30 2076 O 192.299 -0.81641 -1.72451 0
M  V30 2077 C 189.439 -1.88012 -2.89388 0
M  V30 2078 C 188.552 -3.15606 -2.94986 0
M  V30 2079 C 187.687 -3.20271 -4.23793 0
M  V30 2080 C 186.726 -4.42134 -4.23302 0
M  V30 2081 N 185.863 -4.44284 -5.43651 0
M  V30 2082 H 190.703 -2.67071 -1.32201 0
M  V30 2083 H 188.24 -1.32351 -0.642008 0
M  V30 2084 H 190.198 -1.9419 -3.69251 0
M  V30 2085 H 188.828 -0.98213 -3.07496 0
M  V30 2086 H 187.88 -3.18681 -2.07717 0
M  V30 2087 H 189.192 -4.05486 -2.90486 0
M  V30 2088 H 188.346 -3.25428 -5.12036 0
M  V30 2089 H 187.085 -2.28299 -4.30965 0
M  V30 2090 H 186.09 -4.3714 -3.3345 0
M  V30 2091 H 187.315 -5.35382 -4.17783 0
M  V30 2092 H 185.261 -3.55188 -5.51523 0
M  V30 2093 H 185.178 -5.27988 -5.41078 0
M  V30 2094 H 186.446 -4.53649 -6.33895 0
M  V30 2095 N 190.675 0.682077 -1.42076 0
M  V30 2096 C 191.924 1.43786 -1.41451 0
M  V30 2097 C 192.237 1.95574 -0.0317074 0
M  V30 2098 O 193.443 2.71326 0.0971462 0
M  V30 2099 C 191.899 2.60071 -2.48779 0
M  V30 2100 C 191.507 2.15013 -3.93031 0
M  V30 2101 C 193.251 3.37626 -2.57311 0
M  V30 2102 C 191.158 3.28336 -4.91883 0
M  V30 2103 H 190.088 0.540143 -0.526082 0
M  V30 2104 H 192.739 0.739157 -1.67955 0
M  V30 2105 H 191.121 3.32275 -2.15429 0
M  V30 2106 H 192.295 1.5001 -4.35699 0
M  V30 2107 H 190.61 1.50416 -3.88284 0
M  V30 2108 H 193.207 4.22012 -3.28345 0
M  V30 2109 H 193.55 3.83727 -1.61429 0
M  V30 2110 H 194.083 2.72488 -2.89819 0
M  V30 2111 H 190.822 2.87234 -5.89217 0
M  V30 2112 H 190.342 3.92145 -4.53853 0
M  V30 2113 H 192.021 3.93913 -5.13265 0
M  V30 2114 N 192.153 1.28127 0.917671 0
M  V30 2115 C 193.103 1.08361 2.00604 0
M  V30 2116 C 194.087 0.00847518 1.60898 0
M  V30 2117 O 195.279 0.228167 1.75523 0
M  V30 2118 C 192.408 0.743376 3.35155 0
M  V30 2119 C 191.494 1.85716 3.81275 0
M  V30 2120 N 191.885 3.09822 3.99805 0
M  V30 2121 C 190.183 1.74612 4.10398 0
M  V30 2122 C 190.884 3.82368 4.38372 0
M  V30 2123 N 189.86 3.10192 4.4641 0
M  V30 2124 H 193.662 2.02531 2.12975 0
M  V30 2125 H 191.176 1.18989 1.10523 0
M  V30 2126 H 193.173 0.582859 4.12805 0
M  V30 2127 H 191.833 -0.190595 3.2414 0
M  V30 2128 H 192.844 3.45475 3.85833 0
M  V30 2129 H 189.521 0.883657 4.08041 0
M  V30 2130 H 190.911 4.89082 4.60704 0
M  V30 2131 N 193.631 -1.12557 1.10312 0
M  V30 2132 C 194.877 -1.84311 0.846011 0
M  V30 2133 C 195.21 -1.83805 -0.626859 0
M  V30 2134 O 194.485 -1.28268 -1.46211 0
M  V30 2135 C 194.768 -3.32048 1.39341 0
M  V30 2136 C 194.621 -3.41016 2.93305 0
M  V30 2137 C 195.94 -4.27764 1.03468 0
M  V30 2138 H 193.059 -0.669192 0.30879 0
M  V30 2139 H 195.701 -1.32057 1.36605 0
M  V30 2140 H 193.851 -3.76678 0.951087 0
M  V30 2141 H 195.523 -3.05031 3.46055 0
M  V30 2142 H 193.766 -2.81603 3.29973 0
M  V30 2143 H 194.437 -4.44948 3.26689 0
M  V30 2144 H 196.913 -3.91253 1.41633 0
M  V30 2145 H 195.789 -5.29549 1.44463 0
M  V30 2146 H 196.05 -4.42064 -0.0560404 0
M  V30 2147 N 195.109 -0.891671 -1.2995 0
M  V30 2148 C 196.358 -0.509521 -1.95158 0
M  V30 2149 C 196.671 0.947388 -1.71125 0
M  V30 2150 O 197.877 1.43669 -2.30372 0
M  V30 2151 C 196.333 -0.860315 -3.49466 0
M  V30 2152 C 195.941 -2.33545 -3.8231 0
M  V30 2153 C 197.685 -0.547687 -4.20952 0
M  V30 2154 C 195.592 -2.62752 -5.29826 0
M  V30 2155 H 194.522 -0.18682 -0.730489 0
M  V30 2156 H 197.173 -1.08756 -1.47798 0
M  V30 2157 H 195.555 -0.211285 -3.95436 0
M  V30 2158 H 196.729 -3.02936 -3.47227 0
M  V30 2159 H 195.044 -2.61629 -3.23944 0
M  V30 2160 H 197.641 -0.742854 -5.29515 0
M  V30 2161 H 197.984 0.51332 -4.13123 0
M  V30 2162 H 198.517 -1.1542 -3.80688 0
M  V30 2163 H 195.256 -3.6762 -5.42712 0
M  V30 2164 H 194.776 -1.97977 -5.66185 0
M  V30 2165 H 196.455 -2.48601 -5.97333 0
M  V30 2166 N 196.587 1.43421 -0.653314 0
M  V30 2167 C 197.517 2.33487 0.0246656 0
M  V30 2168 C 198.498 1.49475 0.811863 0
M  V30 2169 O 199.683 1.78139 0.773322 0
M  V30 2170 C 196.813 3.32841 0.99166 0
M  V30 2171 C 195.767 4.26842 0.314568 0
M  V30 2172 C 195.093 5.16236 1.39302 0
M  V30 2173 C 196.393 5.16243 -0.793095 0
M  V30 2174 H 198.087 2.90427 -0.727481 0
M  V30 2175 H 195.633 1.39649 -0.351287 0
M  V30 2176 H 197.586 3.94747 1.47487 0
M  V30 2177 H 196.31 2.74158 1.77497 0
M  V30 2178 H 194.969 3.663 -0.148199 0
M  V30 2179 H 194.617 4.53891 2.16776 0
M  V30 2180 H 194.317 5.79948 0.945223 0
M  V30 2181 H 195.841 5.81015 1.87759 0
M  V30 2182 H 197.255 5.71958 -0.392039 0
M  V30 2183 H 195.652 5.88676 -1.16536 0
M  V30 2184 H 196.722 4.55927 -1.65103 0
M  V30 2185 N 198.065 0.39524 1.52563 0
M  V30 2186 C 199.028 -0.425001 2.25225 0
M  V30 2187 C 200.028 -0.985266 1.27079 0
M  V30 2188 O 201.218 -0.866332 1.5113 0
M  V30 2189 C 198.35 -1.59686 3.01186 0
M  V30 2190 H 199.543 0.211233 2.99155 0
M  V30 2191 H 197.096 0.147472 1.55603 0
M  V30 2192 H 197.831 -2.27035 2.31572 0
M  V30 2193 H 197.616 -1.20176 3.73229 0
M  V30 2194 H 199.106 -2.17743 3.5634 0
M  V30 2195 N 199.544 -1.57102 0.125237 0
M  V30 2196 C 200.96 -1.57915 -0.231322 0
M  V30 2197 C 201.16 -1.13833 -1.66266 0
M  V30 2198 O 200.216 -0.828581 -2.38518 0
M  V30 2199 C 201.529 -3.00699 0.00766489 0
M  V30 2200 C 203.077 -3.12947 -0.0577483 0
M  V30 2201 C 203.552 -4.57742 0.153626 0
M  V30 2202 N 205.043 -4.63092 0.0998073 0
M  V30 2203 C 205.778 -5.72905 0.238174 0
M  V30 2204 N 205.274 -6.91445 0.433057 0
M  V30 2205 N 207.067 -5.6182 0.177308 0
M  V30 2206 H 199.218 -1.84055 1.06007 0
M  V30 2207 H 201.481 -0.850905 0.417929 0
M  V30 2208 H 201.187 -3.3726 0.997431 0
M  V30 2209 H 201.061 -3.70236 -0.721452 0
M  V30 2210 H 203.448 -2.7624 -1.03804 0
M  V30 2211 H 203.529 -2.4594 0.70335 0
M  V30 2212 H 203.173 -4.95149 1.13092 0
M  V30 2213 H 203.103 -5.22848 -0.627534 0
M  V30 2214 H 205.594 -3.77871 -0.047051 0
M  V30 2215 H 205.907 -7.70985 0.529332 0
M  V30 2216 H 204.252 -6.93415 0.469109 0
M  V30 2217 H 207.443 -4.68093 0.0259748 0
M  V30 2218 H 207.616 -6.47357 0.288582 0
M  V30 2219 N 201.022 0.148545 -1.56898 0
M  V30 2220 C 202.247 0.880385 -1.87787 0
M  V30 2221 C 202.672 1.74018 -0.714093 0
M  V30 2222 O 202.03 1.78153 0.336343 0
M  V30 2223 C 202.078 1.71422 -3.17249 0
M  V30 2224 O 201.182 2.8183 -3.01074 0
M  V30 2225 H 200.523 0.245301 -0.617028 0
M  V30 2226 H 203.053 0.139826 -2.04122 0
M  V30 2227 H 203.063 2.10954 -3.49231 0
M  V30 2228 H 201.738 1.08284 -4.01556 0
M  V30 2229 H 200.315 2.45715 -2.80497 0
M  V30 2230 N 202.5 1.5196 0.417844 0
M  V30 2231 C 203.728 1.69426 1.18753 0
M  V30 2232 C 204.143 0.399955 1.84515 0
M  V30 2233 O 203.5 -0.623288 1.71527 0
M  V30 2234 C 203.551 2.82375 2.25714 0
M  V30 2235 O 203.272 4.06793 1.62638 0
M  V30 2236 C 204.773 3.11277 3.15628 0
M  V30 2237 H 201.993 0.568031 0.357186 0
M  V30 2238 H 204.537 1.98475 0.49273 0
M  V30 2239 H 202.692 2.5587 2.90877 0
M  V30 2240 H 203.106 4.69667 2.3348 0
M  V30 2241 H 204.58 3.93843 3.86771 0
M  V30 2242 H 205.057 2.24473 3.77503 0
M  V30 2243 H 205.663 3.39515 2.56144 0
M  V30 2244 N 203.978 -0.674533 1.42435 0
M  V30 2245 C 205.203 -1.46784 1.46524 0
M  V30 2246 C 205.628 -1.87938 0.078066 0
M  V30 2247 O 204.986 -1.56014 -0.92354 0
M  V30 2248 C 205.034 -2.69307 2.39805 0
M  V30 2249 O 204.138 -3.67587 1.86959 0
M  V30 2250 H 203.479 -0.440959 0.496439 0
M  V30 2251 H 206.009 -0.827326 1.87127 0
M  V30 2252 H 206.019 -3.17374 2.56393 0
M  V30 2253 H 204.694 -2.38692 3.40586 0
M  V30 2254 H 203.271 -3.2662 1.79927 0
M  V30 2255 N 205.456 -1.28612 -0.910864 0
M  V30 2256 C 206.389 -1.07109 -2.01502 0
M  V30 2257 C 207.367 0.013706 -1.62594 0
M  V30 2258 O 208.551 -0.134796 -1.88017 0
M  V30 2259 C 205.678 -0.628255 -3.32822 0
M  V30 2260 C 204.724 -1.71012 -3.90714 0
M  V30 2261 S 205.557 -3.30676 -4.21205 0
M  V30 2262 C 206.713 -2.88234 -5.55583 0
M  V30 2263 H 206.946 -2.00591 -2.19432 0
M  V30 2264 H 204.479 -1.12633 -1.05609 0
M  V30 2265 H 206.437 -0.37946 -4.08742 0
M  V30 2266 H 205.098 0.28678 -3.12788 0
M  V30 2267 H 204.291 -1.35195 -4.85529 0
M  V30 2268 H 203.893 -1.91186 -3.21441 0
M  V30 2269 H 206.185 -2.34584 -6.35591 0
M  V30 2270 H 207.128 -3.81857 -5.96314 0
M  V30 2271 H 207.536 -2.26862 -5.16908 0
M  V30 2272 N 206.934 1.1197 -1.10907 0
M  V30 2273 C 208.345 1.65114 -0.871446 0
M  V30 2274 C 208.696 1.86885 0.597353 0
M  V30 2275 O 207.821 1.59896 1.45816 0
M  V30 2276 C 208.416 2.99944 -1.5754 0
M  V30 2277 C 206.975 3.50018 -1.38435 0
M  V30 2278 C 206.122 2.24941 -1.62164 0
M  V30 2279 H 209.073 0.956851 -1.2661 0
M  V30 2280 H 209.094 3.66651 -1.01721 0
M  V30 2281 H 208.606 2.84067 -2.64438 0
M  V30 2282 H 206.707 3.71071 -0.337214 0
M  V30 2283 H 206.82 4.29165 -2.12965 0
M  V30 2284 H 205.184 2.3229 -1.04467 0
M  V30 2285 H 205.967 2.11612 -2.70324 0
M  V30 2286 N 208.412 0.89855 1.29475 0
M  V30 2287 C 209.344 0.332726 2.26772 0
M  V30 2288 C 210.357 -0.520323 1.54261 0
M  V30 2289 O 211.546 -0.337668 1.75277 0
M  V30 2290 C 208.646 -0.544334 3.345 0
M  V30 2291 C 207.819 0.282728 4.36485 0
M  V30 2292 C 206.878 -0.526982 5.23555 0
M  V30 2293 O 205.904 0.0551165 5.69173 0
M  V30 2294 N 207.106 -1.83331 5.5079 0
M  V30 2295 H 209.871 1.16897 2.75962 0
M  V30 2296 H 207.432 0.762919 1.42798 0
M  V30 2297 H 209.424 -1.09239 3.89678 0
M  V30 2298 H 207.994 -1.28127 2.85136 0
M  V30 2299 H 207.214 1.01221 3.80983 0
M  V30 2300 H 208.502 0.84918 5.01664 0
M  V30 2301 H 207.9 -2.32898 5.15534 0
M  V30 2302 H 206.457 -2.32852 6.08788 0
M  V30 2303 N 209.89 -1.43072 0.660911 0
M  V30 2304 C 210.82 -2.33497 -0.0122829 0
M  V30 2305 C 211.801 -1.49903 -0.803925 0
M  V30 2306 O 212.986 -1.78546 -0.763864 0
M  V30 2307 C 210.116 -3.33363 -0.973994 0
M  V30 2308 C 209.07 -4.27003 -0.291928 0
M  V30 2309 C 208.396 -5.16967 -1.36562 0
M  V30 2310 C 209.696 -5.15816 0.820462 0
M  V30 2311 H 211.39 -2.90038 0.742873 0
M  V30 2312 H 208.936 -1.39461 0.358688 0
M  V30 2313 H 210.889 -3.95524 -1.45392 0
M  V30 2314 H 209.613 -2.75095 -1.7604 0
M  V30 2315 H 208.272 -3.66217 0.167623 0
M  V30 2316 H 207.92 -4.55034 -2.14366 0
M  V30 2317 H 207.62 -5.80441 -0.914454 0
M  V30 2318 H 209.144 -5.82003 -1.84675 0
M  V30 2319 H 210.558 -5.71742 0.422366 0
M  V30 2320 H 208.955 -5.8805 1.19656 0
M  V30 2321 H 210.025 -4.55045 1.67518 0
M  V30 2322 N 211.368 -0.403325 -1.52352 0
M  V30 2323 C 212.616 0.174003 -2.0135 0
M  V30 2324 C 212.937 1.46139 -1.29106 0
M  V30 2325 O 212.207 1.91448 -0.415253 0
M  V30 2326 H 210.787 0.0672911 -0.743963 0
M  V30 2327 H 213.449 -0.538235 -1.87321 0
M  V30 2328 H 212.545 0.374254 -3.09848 0
M  V30 2329 N 212.846 1.57033 -0.133567 0
M  V30 2330 C 213.756 2.19632 0.824564 0
M  V30 2331 C 214.772 1.17666 1.28182 0
M  V30 2332 O 215.948 1.50193 1.3418 0
M  V30 2333 C 213.013 2.79499 2.05137 0
M  V30 2334 C 212.074 3.96548 1.64464 0
M  V30 2335 C 211.307 4.5355 2.81297 0
M  V30 2336 O 211.53 4.09438 3.97136 0
M  V30 2337 O 210.464 5.44018 2.57542 0
M  V30 2338 H 214.29 3.01991 0.321766 0
M  V30 2339 H 211.875 1.49112 0.0927889 0
M  V30 2340 H 213.757 3.17602 2.7696 0
M  V30 2341 H 212.432 2.00162 2.54395 0
M  V30 2342 H 211.339 3.63186 0.897048 0
M  V30 2343 H 212.672 4.77364 1.19934 0
M  V30 2344 N 214.325 -0.140222 1.56975 0
M  V30 2345 C 215.741 -0.493088 1.51792 0
M  V30 2346 C 215.941 -1.83013 0.843116 0
M  V30 2347 O 214.997 -2.49041 0.416493 0
M  V30 2348 C 216.31 -0.497144 2.96562 0
M  V30 2349 C 217.858 -0.582186 3.07538 0
M  V30 2350 C 218.333 -0.616838 4.53827 0
M  V30 2351 N 219.824 -0.678873 4.58198 0
M  V30 2352 C 220.559 -0.726782 5.68775 0
M  V30 2353 N 220.055 -0.733623 6.88905 0
M  V30 2354 N 221.848 -0.768179 5.56826 0
M  V30 2355 H 213.999 0.736108 1.99237 0
M  V30 2356 H 216.262 0.269182 0.90898 0
M  V30 2357 H 215.968 0.417217 3.49217 0
M  V30 2358 H 215.842 -1.33263 3.52875 0
M  V30 2359 H 218.229 -1.48697 2.54899 0
M  V30 2360 H 218.31 0.280581 2.54257 0
M  V30 2361 H 217.954 0.283812 5.07106 0
M  V30 2362 H 217.884 -1.49619 5.04898 0
M  V30 2363 H 220.375 -0.68061 3.7172 0
M  V30 2364 H 220.688 -0.772215 7.68932 0
M  V30 2365 H 219.033 -0.701389 6.91452 0
M  V30 2366 H 222.224 -0.760051 4.61888 0
M  V30 2367 H 222.397 -0.80205 6.43017 0
M  V30 2368 N 215.803 -1.52179 -0.40978 0
M  V30 2369 C 217.028 -1.70347 -1.18308 0
M  V30 2370 C 217.453 -0.411887 -1.83535 0
M  V30 2371 O 216.811 0.630587 -1.6998 0
M  V30 2372 C 216.859 -2.83977 -2.22238 0
M  V30 2373 O 215.963 -2.495 -3.28365 0
M  V30 2374 H 215.304 -0.567103 -0.345384 0
M  V30 2375 H 217.834 -1.98879 -0.480445 0
M  V30 2376 H 217.844 -3.0887 -2.66577 0
M  V30 2377 H 216.519 -3.77685 -1.74146 0
M  V30 2378 H 215.096 -2.35277 -2.89308 0
M  V30 2379 N 217.281 0.66697 -1.42791 0
M  V30 2380 C 218.529 1.42417 -1.43394 0
M  V30 2381 C 218.85 1.94925 -0.0542373 0
M  V30 2382 O 218.12 1.73564 0.908415 0
M  V30 2383 H 216.7 0.528515 -0.527902 0
M  V30 2384 H 219.362 0.787562 -1.78279 0
M  V30 2385 H 218.458 2.27333 -2.13837 0
M  V30 2386 N 218.759 1.29093 0.90403 0
M  V30 2387 C 220.005 1.16986 1.65656 0
M  V30 2388 C 220.338 -0.278925 1.92186 0
M  V30 2389 O 219.613 -1.2019 1.5292 0
M  V30 2390 C 219.896 1.97908 3.0084 0
M  V30 2391 C 219.749 3.50903 2.81403 0
M  V30 2392 C 221.068 1.80208 4.01513 0
M  V30 2393 H 218.187 0.426346 0.601164 0
M  V30 2394 H 220.829 1.58518 1.04747 0
M  V30 2395 H 218.979 1.62616 3.52829 0
M  V30 2396 H 220.651 3.96153 2.36348 0
M  V30 2397 H 218.894 3.76045 2.1627 0
M  V30 2398 H 219.565 4.02791 3.77443 0
M  V30 2399 H 222.041 2.11025 3.58619 0
M  V30 2400 H 220.917 2.39184 4.94047 0
M  V30 2401 H 221.178 0.756119 4.35586 0
M  V30 2402 N 220.237 -1.11381 1.11499 0
M  V30 2403 C 221.486 -1.82494 0.858993 0
M  V30 2404 C 221.799 -1.85605 -0.617278 0
M  V30 2405 O 223.005 -2.52824 -0.989552 0
M  V30 2406 C 221.461 -3.27745 1.48699 0
M  V30 2407 C 221.069 -3.32961 2.99735 0
M  V30 2408 C 222.813 -4.03754 1.31085 0
M  V30 2409 C 220.72 -4.72612 3.55516 0
M  V30 2410 H 219.65 -0.683802 0.317696 0
M  V30 2411 H 222.301 -1.25331 1.34031 0
M  V30 2412 H 220.683 -3.84844 0.933339 0
M  V30 2413 H 221.857 -2.85741 3.61509 0
M  V30 2414 H 220.172 -2.70433 3.16631 0
M  V30 2415 H 222.769 -5.06891 1.70192 0
M  V30 2416 H 223.112 -4.15527 0.253496 0
M  V30 2417 H 223.645 -3.53043 1.83318 0
M  V30 2418 H 220.384 -4.66036 4.60967 0
M  V30 2419 H 219.904 -5.2024 2.98513 0
M  V30 2420 H 221.583 -5.4157 3.53992 0
M  V30 2421 N 221.715 -0.905404 -1.28997 0
M  V30 2422 C 223.131 -0.60233 -1.47798 0
M  V30 2423 C 223.331 0.854645 -1.82478 0
M  V30 2424 O 222.387 1.63439 -1.92468 0
M  V30 2425 C 223.7 -1.53306 -2.58685 0
M  V30 2426 C 225.248 -1.53887 -2.72558 0
M  V30 2427 C 225.723 -2.45602 -3.86579 0
M  V30 2428 N 227.214 -2.43681 -3.93921 0
M  V30 2429 C 227.949 -3.11347 -4.81509 0
M  V30 2430 N 227.445 -3.88313 -5.73746 0
M  V30 2431 N 229.238 -3.00476 -4.75048 0
M  V30 2432 H 221.389 -1.84765 -1.04764 0
M  V30 2433 H 223.652 -0.792025 -0.520961 0
M  V30 2434 H 223.358 -2.57141 -2.39941 0
M  V30 2435 H 223.232 -1.25787 -3.55609 0
M  V30 2436 H 225.619 -0.507941 -2.90696 0
M  V30 2437 H 225.7 -1.85447 -1.76191 0
M  V30 2438 H 225.344 -3.48792 -3.69197 0
M  V30 2439 H 225.274 -2.11349 -4.82327 0
M  V30 2440 H 227.765 -1.87767 -3.27951 0
M  V30 2441 H 228.078 -4.36985 -6.37389 0
M  V30 2442 H 226.423 -3.92419 -5.73614 0
M  V30 2443 H 229.614 -2.39858 -4.01977 0
M  V30 2444 H 229.787 -3.53485 -5.43095 0
M  V30 2445 N 223.193 1.4272 -0.668489 0
M  V30 2446 C 224.439 2.01923 -0.188419 0
M  V30 2447 C 224.772 1.52704 1.19979 0
M  V30 2448 O 224.047 0.726566 1.8042 0
M  V30 2449 C 224.33 3.59451 -0.216085 0
M  V30 2450 C 224.183 4.18864 -1.6393 0
M  V30 2451 C 225.502 4.37903 0.439179 0
M  V30 2452 H 222.621 0.733674 -0.0699412 0
M  V30 2453 H 225.263 1.69822 -0.852076 0
M  V30 2454 H 223.413 3.86929 0.349012 0
M  V30 2455 H 225.085 4.02362 -2.25616 0
M  V30 2456 H 223.328 3.74933 -2.18193 0
M  V30 2457 H 223.999 5.27987 -1.61039 0
M  V30 2458 H 226.475 4.16079 -0.0417878 0
M  V30 2459 H 225.351 5.47519 0.389157 0
M  V30 2460 H 225.612 4.15303 1.51577 0
M  V30 2461 N 224.671 0.411399 1.52136 0
M  V30 2462 C 225.618 -0.412975 2.27075 0
M  V30 2463 C 226.588 -1.03912 1.29582 0
M  V30 2464 O 227.773 -1.06296 1.58448 0
M  V30 2465 C 224.913 -1.52247 3.09701 0
M  V30 2466 C 224.026 -0.917021 4.22155 0
M  V30 2467 C 223.161 -1.9994 4.92135 0
M  V30 2468 C 222.2 -1.37101 5.96548 0
M  V30 2469 N 221.337 -2.39364 6.60038 0
M  V30 2470 H 226.177 0.232499 2.97092 0
M  V30 2471 H 223.714 0.126496 1.46555 0
M  V30 2472 H 225.672 -2.17674 3.55913 0
M  V30 2473 H 224.302 -2.13794 2.41851 0
M  V30 2474 H 223.354 -0.151742 3.80097 0
M  V30 2475 H 224.666 -0.418006 4.97045 0
M  V30 2476 H 223.82 -2.73088 5.41763 0
M  V30 2477 H 222.559 -2.53208 4.16818 0
M  V30 2478 H 221.564 -0.624873 5.46237 0
M  V30 2479 H 222.789 -0.845998 6.7381 0
M  V30 2480 H 220.735 -2.91759 5.87548 0
M  V30 2481 H 220.652 -1.9428 7.3061 0
M  V30 2482 H 221.92 -3.12074 7.14304 0
M  V30 2483 N 226.149 -1.5696 0.141893 0
M  V30 2484 C 227.081 -2.13619 -0.830627 0
M  V30 2485 C 228.094 -1.08439 -1.21428 0
M  V30 2486 O 229.283 -1.35734 -1.15925 0
M  V30 2487 C 226.383 -2.63978 -2.12529 0
M  V30 2488 C 225.556 -3.93504 -1.9098 0
M  V30 2489 C 224.615 -4.29225 -3.04388 0
M  V30 2490 O 223.641 -4.97641 -2.76302 0
M  V30 2491 N 224.843 -3.88393 -4.31429 0
M  V30 2492 H 227.608 -2.97691 -0.34641 0
M  V30 2493 H 225.169 -1.61846 -0.0418375 0
M  V30 2494 H 227.161 -2.84891 -2.87436 0
M  V30 2495 H 225.731 -1.84659 -2.52229 0
M  V30 2496 H 224.951 -3.81269 -1.00139 0
M  V30 2497 H 226.239 -4.78154 -1.73914 0
M  V30 2498 H 225.637 -3.33257 -4.57117 0
M  V30 2499 H 224.194 -4.14368 -5.03133 0
M  V30 2500 N 227.627 0.131896 -1.57047 0
M  V30 2501 C 228.857 0.855219 -1.88068 0
M  V30 2502 C 229.265 1.74557 -0.729817 0
M  V30 2503 O 228.608 1.81083 0.308962 0
M  V30 2504 C 228.67 1.75119 -3.13964 0
M  V30 2505 C 228.334 1.03646 -4.45091 0
M  V30 2506 C 229.331 0.383276 -5.18485 0
M  V30 2507 C 227.016 1.02148 -4.91804 0
M  V30 2508 C 229.01 -0.275347 -6.36805 0
M  V30 2509 C 226.697 0.359047 -6.10044 0
M  V30 2510 C 227.695 -0.288222 -6.82392 0
M  V30 2511 O 227.383 -0.94011 -7.98384 0
M  V30 2512 H 227.115 0.251864 -0.627328 0
M  V30 2513 H 229.669 0.124782 -2.05021 0
M  V30 2514 H 227.899 2.52295 -2.9306 0
M  V30 2515 H 229.588 2.3478 -3.31109 0
M  V30 2516 H 230.354 0.386562 -4.83457 0
M  V30 2517 H 226.233 1.5147 -4.35405 0
M  V30 2518 H 229.777 -0.781148 -6.93213 0
M  V30 2519 H 225.674 0.35348 -6.44531 0
M  V30 2520 H 226.442 -0.84329 -8.14144 0
M  V30 2521 N 229.106 1.52395 0.401703 0
M  V30 2522 C 230.053 1.76268 1.48991 0
M  V30 2523 C 231.023 0.605386 1.54675 0
M  V30 2524 O 232.208 0.843742 1.7113 0
M  V30 2525 C 229.348 1.92592 2.86361 0
M  V30 2526 C 228.461 3.20259 2.89928 0
M  V30 2527 C 227.596 3.26972 4.18644 0
M  V30 2528 C 226.635 4.48812 4.16214 0
M  V30 2529 N 225.772 4.52877 5.36514 0
M  V30 2530 H 230.612 2.6914 1.27935 0
M  V30 2531 H 228.149 1.33355 0.620871 0
M  V30 2532 H 230.107 2.0004 3.66115 0
M  V30 2533 H 228.737 1.03093 3.05895 0
M  V30 2534 H 227.789 3.21945 2.02621 0
M  V30 2535 H 229.101 4.10056 2.83999 0
M  V30 2536 H 228.255 3.33533 5.06794 0
M  V30 2537 H 226.994 2.35126 4.27278 0
M  V30 2538 H 225.999 4.4239 3.26453 0
M  V30 2539 H 227.224 5.41961 4.09213 0
M  V30 2540 H 225.17 3.63917 5.45802 0
M  V30 2541 H 225.087 5.36529 5.32609 0
M  V30 2542 H 226.355 4.63676 6.26597 0
M  V30 2543 N 230.584 -0.659388 1.43143 0
M  V30 2544 C 231.516 -1.7849 1.43784 0
M  V30 2545 C 232.529 -1.5932 0.334787 0
M  V30 2546 O 233.718 -1.68155 0.598842 0
M  V30 2547 C 230.818 -3.15828 1.22906 0
M  V30 2548 C 229.991 -3.61711 2.45934 0
M  V30 2549 C 229.05 -4.77831 2.20371 0
M  V30 2550 O 228.076 -4.87586 2.93681 0
M  V30 2551 N 229.278 -5.67611 1.21647 0
M  V30 2552 H 232.043 -1.7842 2.40803 0
M  V30 2553 H 229.604 -0.84302 1.3822 0
M  V30 2554 H 231.596 -3.91189 1.03697 0
M  V30 2555 H 230.166 -3.10707 0.343542 0
M  V30 2556 H 229.386 -2.76861 2.80609 0
M  V30 2557 H 230.674 -3.89112 3.27825 0
M  V30 2558 H 230.072 -5.62397 0.610449 0
M  V30 2559 H 228.629 -6.42719 1.08423 0
M  V30 2560 N 232.062 -1.29571 -0.897171 0
M  V30 2561 C 233.287 -1.20705 -1.68656 0
M  V30 2562 C 233.712 0.228582 -1.86706 0
M  V30 2563 O 233.07 1.16494 -1.3892 0
M  V30 2564 C 233.118 -1.9282 -3.04717 0
M  V30 2565 O 232.222 -1.24697 -3.93096 0
M  V30 2566 H 231.563 -0.418126 -0.515816 0
M  V30 2567 H 234.093 -1.71183 -1.12061 0
M  V30 2568 H 234.103 -2.01372 -3.54843 0
M  V30 2569 H 232.778 -2.97239 -2.90899 0
M  V30 2570 H 231.355 -1.2442 -3.51531 0
M  V30 2571 N 233.54 1.10788 -1.12088 0
M  V30 2572 C 234.47 2.19083 -0.807755 0
M  V30 2573 C 235.451 1.6858 0.226859 0
M  V30 2574 O 236.636 1.93997 0.0888475 0
M  V30 2575 C 233.766 3.46344 -0.257576 0
M  V30 2576 C 232.72 4.101 -1.22483 0
M  V30 2577 C 232.046 5.32016 -0.535052 0
M  V30 2578 C 233.346 4.54236 -2.57811 0
M  V30 2579 H 235.04 2.45534 -1.71328 0
M  V30 2580 H 232.586 1.1801 -0.825205 0
M  V30 2581 H 234.539 4.21392 -0.0262679 0
M  V30 2582 H 233.263 3.19373 0.683278 0
M  V30 2583 H 231.922 3.37054 -1.44189 0
M  V30 2584 H 231.57 5.01319 0.410827 0
M  V30 2585 H 231.27 5.75625 -1.18024 0
M  V30 2586 H 232.794 6.09799 -0.312695 0
M  V30 2587 H 234.208 5.20575 -2.40155 0
M  V30 2588 H 232.605 5.08682 -3.18375 0
M  V30 2589 H 233.675 3.6734 -3.16528 0
M  V30 2590 N 235.018 0.912232 1.28515 0
M  V30 2591 C 235.981 0.404223 2.25607 0
M  V30 2592 C 236.981 -0.468602 1.53821 0
M  V30 2593 O 238.171 -0.271873 1.72065 0
M  V30 2594 C 235.303 -0.420653 3.38295 0
M  V30 2595 H 236.496 1.26188 2.7206 0
M  V30 2596 H 234.049 0.691495 1.40171 0
M  V30 2597 H 234.784 -1.29777 2.97201 0
M  V30 2598 H 234.569 0.204935 3.91564 0
M  V30 2599 H 236.059 -0.766971 4.10496 0
M  V30 2600 N 236.496 -1.42363 0.676048 0
M  V30 2601 C 237.745 -2.00745 0.196037 0
M  V30 2602 C 238.058 -1.54083 -1.20489 0
M  V30 2603 O 239.264 -2.04891 -1.78134 0
M  V30 2604 C 237.72 -3.58651 0.299616 0
M  V30 2605 C 237.328 -4.143 1.70468 0
M  V30 2606 C 239.072 -4.24326 -0.121619 0
M  V30 2607 C 236.979 -5.64574 1.76096 0
M  V30 2608 H 235.909 -0.750787 0.0695301 0
M  V30 2609 H 238.56 -1.63072 0.841412 0
M  V30 2610 H 236.942 -3.93833 -0.413673 0
M  V30 2611 H 238.116 -3.90575 2.44515 0
M  V30 2612 H 236.431 -3.61081 2.07387 0
M  V30 2613 H 239.028 -5.34607 -0.0997362 0
M  V30 2614 H 239.371 -3.99897 -1.15708 0
M  V30 2615 H 239.904 -3.94108 0.540706 0
M  V30 2616 H 236.643 -5.93804 2.77628 0
M  V30 2617 H 236.163 -5.90286 1.06406 0
M  V30 2618 H 237.842 -6.29013 1.51496 0
M  V30 2619 N 237.974 -0.419461 -1.51915 0
M  V30 2620 C 238.884 0.407528 -2.31033 0
M  V30 2621 C 239.9 1.04413 -1.3919 0
M  V30 2622 O 241.076 1.0434 -1.72265 0
M  V30 2623 C 238.141 1.50365 -3.12396 0
M  V30 2624 C 237.202 0.889029 -4.19994 0
M  V30 2625 C 236.435 1.93291 -4.97468 0
M  V30 2626 O 236.658 3.15259 -4.75361 0
M  V30 2627 O 235.592 1.53339 -5.8204 0
M  V30 2628 H 239.418 -0.237865 -3.02767 0
M  V30 2629 H 237.003 -0.182413 -1.48282 0
M  V30 2630 H 238.885 2.13975 -3.63032 0
M  V30 2631 H 237.56 2.13345 -2.43445 0
M  V30 2632 H 236.467 0.215353 -3.7348 0
M  V30 2633 H 237.8 0.302991 -4.91267 0
M  V30 2634 N 239.452 1.56882 -0.150215 0
M  V30 2635 C 240.677 2.01027 0.510184 0
M  V30 2636 C 241.102 1.02966 1.57415 0
M  V30 2637 O 240.46 0.00590158 1.81299 0
M  V30 2638 C 240.508 3.43899 1.08472 0
M  V30 2639 O 239.612 3.4885 2.19948 0
M  V30 2640 H 238.953 0.652233 0.124451 0
M  V30 2641 H 241.483 2.03093 -0.247894 0
M  V30 2642 H 241.493 3.82766 1.41259 0
M  V30 2643 H 240.168 4.14776 0.305582 0
M  V30 2644 H 238.745 3.21827 1.88366 0
M  V30 2645 N 240.93 -0.123565 1.57115 0
M  V30 2646 C 242.207 -0.862196 1.75572 0
M  V30 2647 C 242.587 -1.98279 0.724475 0
M  V30 2648 O 241.935 -2.27102 -0.252407 0
M  V30 2649 C 242.145 -1.38309 3.20424 0
M  V30 2650 C 243.493 -1.83724 3.82793 0
M  V30 2651 O 244.517 -1.47999 3.23998 0
M  V30 2652 O 243.376 -2.49685 4.86127 0
M  V30 2653 H 240.47 -0.409113 0.718718 0
M  V30 2654 H 243.016 -0.107661 1.69358 0
M  V30 2655 H 241.788 -0.578889 3.86994 0
M  V30 2656 H 241.411 -2.20046 3.31158 0
M  V30 2657 N 242.408 -1.52605 -0.393616 0
M  V30 2658 C 243.656 -1.67093 -1.13685 0
M  V30 2659 C 243.977 -0.411011 -1.90619 0
M  V30 2660 O 243.247 0.574491 -1.87287 0
M  V30 2661 H 241.827 -0.615923 -0.422668 0
M  V30 2662 H 244.489 -1.89704 -0.447039 0
M  V30 2663 H 243.585 -2.51922 -1.84232 0
M  V30 2664 N 243.887 0.651787 -1.4349 0
M  V30 2665 C 244.834 1.76462 -1.4876 0
M  V30 2666 C 245.804 1.62641 -0.337189 0
M  V30 2667 O 246.989 1.82864 -0.544544 0
M  V30 2668 C 244.129 3.14623 -1.41796 0
M  V30 2669 C 243.242 3.39568 -2.67053 0
M  V30 2670 C 242.377 4.67585 -2.52068 0
M  V30 2671 C 241.416 4.85639 -3.72587 0
M  V30 2672 N 240.553 6.04915 -3.56402 0
M  V30 2673 H 245.393 1.71293 -2.43849 0
M  V30 2674 H 242.93 0.835889 -1.21043 0
M  V30 2675 H 244.888 3.94496 -1.35753 0
M  V30 2676 H 243.518 3.18859 -0.50288 0
M  V30 2677 H 242.57 2.53783 -2.8337 0
M  V30 2678 H 243.882 3.48795 -3.56572 0
M  V30 2679 H 243.036 5.55586 -2.4374 0
M  V30 2680 H 241.775 4.60681 -1.60075 0
M  V30 2681 H 240.78 3.96073 -3.81321 0
M  V30 2682 H 242.005 4.94372 -4.65589 0
M  V30 2683 H 239.951 5.9914 -2.67146 0
M  V30 2684 H 239.868 6.15106 -4.39524 0
M  V30 2685 H 241.136 6.95533 -3.51929 0
M  V30 2686 N 245.365 1.30045 0.890287 0
M  V30 2687 C 246.312 1.15976 1.99545 0
M  V30 2688 C 247.282 0.0506202 1.66023 0
M  V30 2689 O 248.467 0.219847 1.89529 0
M  V30 2690 C 245.607 0.852054 3.34416 0
M  V30 2691 C 244.72 2.04255 3.80662 0
M  V30 2692 C 243.855 1.6734 5.04154 0
M  V30 2693 C 242.894 2.82916 5.42794 0
M  V30 2694 N 242.031 2.46333 6.57468 0
M  V30 2695 H 246.871 2.10524 2.10911 0
M  V30 2696 H 244.408 1.04749 1.03276 0
M  V30 2697 H 246.366 0.654296 4.12037 0
M  V30 2698 H 244.996 -0.0565502 3.2275 0
M  V30 2699 H 244.048 2.35172 2.98995 0
M  V30 2700 H 245.36 2.90826 4.05242 0
M  V30 2701 H 244.514 1.43908 5.89386 0
M  V30 2702 H 243.253 0.779308 4.81433 0
M  V30 2703 H 242.258 3.0702 4.56091 0
M  V30 2704 H 243.483 3.73004 5.6749 0
M  V30 2705 H 241.429 1.59423 6.36334 0
M  V30 2706 H 241.346 3.26436 6.81891 0
M  V30 2707 H 242.614 2.26244 7.45945 0
M  V30 2708 N 246.843 -1.10192 1.12674 0
M  V30 2709 C 248.091 -1.81845 0.881861 0
M  V30 2710 C 248.412 -1.85737 -0.593867 0
M  V30 2711 O 247.682 -1.33724 -1.4316 0
M  V30 2712 H 246.262 -0.673432 0.323261 0
M  V30 2713 H 248.924 -1.33316 1.42172 0
M  V30 2714 H 248.02 -2.85288 1.2656 0
M  V30 2715 N 248.321 -0.919034 -1.28029 0
M  V30 2716 C 249.546 -0.570357 -1.99403 0
M  V30 2717 C 249.971 0.842486 -1.68178 0
M  V30 2718 O 249.329 1.56391 -0.917141 0
M  V30 2719 C 249.377 -0.792541 -3.51783 0
M  V30 2720 O 248.481 0.145988 -4.12142 0
M  V30 2721 H 247.822 -0.220555 -0.6263 0
M  V30 2722 H 250.352 -1.23592 -1.63053 0
M  V30 2723 H 250.362 -0.704708 -4.01868 0
M  V30 2724 H 249.037 -1.82247 -3.73844 0
M  V30 2725 H 247.614 0.00897528 -3.72899 0
M  V30 2726 N 249.799 1.42003 -0.683588 0
M  V30 2727 C 250.746 2.30798 -0.0107309 0
M  V30 2728 C 251.716 1.4645 0.783688 0
M  V30 2729 O 252.901 1.75263 0.754156 0
M  V30 2730 C 250.041 3.3238 0.928306 0
M  V30 2731 C 249.154 4.31814 0.126776 0
M  V30 2732 C 248.289 5.20468 1.06236 0
M  V30 2733 C 247.328 6.11577 0.253035 0
M  V30 2734 N 246.465 6.92754 1.14179 0
M  V30 2735 H 251.305 2.8778 -0.773727 0
M  V30 2736 H 248.842 1.41745 -0.393283 0
M  V30 2737 H 250.8 3.89813 1.48666 0
M  V30 2738 H 249.43 2.76976 1.65783 0
M  V30 2739 H 248.482 3.76427 -0.54833 0
M  V30 2740 H 249.794 4.96276 -0.501192 0
M  V30 2741 H 248.948 5.82677 1.69035 0
M  V30 2742 H 247.687 4.56204 1.7242 0
M  V30 2743 H 246.692 5.48428 -0.388108 0
M  V30 2744 H 247.917 6.77892 -0.404839 0
M  V30 2745 H 245.863 6.3111 1.78987 0
M  V30 2746 H 245.78 7.53855 0.569111 0
M  V30 2747 H 247.048 7.59441 1.75697 0
M  V30 2748 N 251.277 0.427512 1.51691 0
M  V30 2749 C 252.523 -0.142439 2.02299 0
M  V30 2750 C 252.856 -1.43214 1.31162 0
M  V30 2751 O 252.131 -1.89833 0.423511 0
M  V30 2752 C 252.414 -0.371301 3.58181 0
M  V30 2753 C 252.267 0.936358 4.39946 0
M  V30 2754 C 253.586 -1.14542 4.24933 0
M  V30 2755 H 250.705 -0.0502937 0.735282 0
M  V30 2756 H 253.347 0.564584 1.81418 0
M  V30 2757 H 251.497 -0.973559 3.76104 0
M  V30 2758 H 253.169 1.57184 4.33694 0
M  V30 2759 H 251.412 1.5432 4.05423 0
M  V30 2760 H 252.083 0.730388 5.47147 0
M  V30 2761 H 254.559 -0.635362 4.11221 0
M  V30 2762 H 253.435 -1.27431 5.33903 0
M  V30 2763 H 253.696 -2.17093 3.85127 0
M  V30 2764 N 252.755 -1.56801 0.158532 0
M  V30 2765 C 254.002 -1.9649 -0.489679 0
M  V30 2766 C 254.33 -1.04394 -1.6411 0
M  V30 2767 O 253.585 -0.0754401 -1.95555 0
M  V30 2768 C 253.884 -3.4235 -1.02623 0
M  V30 2769 C 253.55 -4.50899 0.00794526 0
M  V30 2770 C 252.212 -4.80312 0.292207 0
M  V30 2771 C 254.564 -5.16333 0.710584 0
M  V30 2772 C 251.892 -5.72461 1.28472 0
M  V30 2773 C 254.244 -6.09553 1.69199 0
M  V30 2774 C 252.908 -6.37339 1.98383 0
M  V30 2775 H 252.178 -0.719009 -0.179186 0
M  V30 2776 H 254.825 -1.8989 0.247798 0
M  V30 2777 H 253.13 -3.45838 -1.84128 0
M  V30 2778 H 254.827 -3.70393 -1.53656 0
M  V30 2779 H 251.417 -4.28015 -0.22379 0
M  V30 2780 H 255.601 -4.93732 0.504174 0
M  V30 2781 H 250.857 -5.92278 1.51714 0
M  V30 2782 H 255.031 -6.59327 2.24189 0
M  V30 2783 H 252.658 -7.08546 2.7544 0
M  V30 2784 N 254.233 0.115231 -1.57178 0
M  V30 2785 C 255.166 1.17166 -1.95825 0
M  V30 2786 C 256.144 1.39912 -0.828463 0
M  V30 2787 O 257.328 1.54004 -1.08697 0
M  V30 2788 C 254.455 2.52478 -2.25771 0
M  V30 2789 C 253.501 2.46136 -3.48309 0
M  V30 2790 S 254.334 1.89736 -5.0076 0
M  V30 2791 C 255.49 3.26713 -5.33863 0
M  V30 2792 H 255.723 0.842103 -2.85124 0
M  V30 2793 H 253.256 0.322136 -1.51002 0
M  V30 2794 H 255.214 3.30332 -2.43702 0
M  V30 2795 H 253.875 2.82609 -1.37079 0
M  V30 2796 H 253.068 3.45819 -3.66641 0
M  V30 2797 H 252.67 1.76404 -3.29784 0
M  V30 2798 H 254.962 4.22935 -5.29275 0
M  V30 2799 H 255.905 3.13205 -6.35065 0
M  V30 2800 H 256.313 3.25316 -4.61335 0
M  V30 2801 N 255.711 1.52812 0.385517 0
M  V30 2802 C 256.941 1.71658 1.14966 0
M  V30 2803 C 257.349 0.436253 1.84102 0
M  V30 2804 O 256.692 -0.599313 1.73649 0
M  V30 2805 C 256.754 2.81309 2.23843 0
M  V30 2806 C 256.418 4.22313 1.74644 0
M  V30 2807 C 257.415 5.05352 1.22129 0
M  V30 2808 C 255.1 4.68648 1.80761 0
M  V30 2809 C 257.094 6.32807 0.763838 0
M  V30 2810 C 254.781 5.96086 1.34627 0
M  V30 2811 C 255.779 6.77996 0.825264 0
M  V30 2812 O 255.467 8.03045 0.370669 0
M  V30 2813 H 255.199 0.578022 0.350523 0
M  V30 2814 H 257.753 2.00263 0.456509 0
M  V30 2815 H 255.983 2.48133 2.96592 0
M  V30 2816 H 257.672 2.88524 2.85497 0
M  V30 2817 H 258.438 4.70736 1.16758 0
M  V30 2818 H 254.317 4.04979 2.20256 0
M  V30 2819 H 257.861 6.96689 0.356494 0
M  V30 2820 H 253.758 6.30205 1.39686 0
M  V30 2821 H 254.526 8.17021 0.491829 0
M  V30 2822 N 257.189 -0.644168 1.43834 0
M  V30 2823 C 258.419 -1.42939 1.49171 0
M  V30 2824 C 258.827 -1.88874 0.111048 0
M  V30 2825 O 258.17 -1.60656 -0.8908 0
M  V30 2826 C 258.232 -2.69151 2.38324 0
M  V30 2827 C 257.896 -2.45097 3.85715 0
M  V30 2828 C 258.893 -2.07747 4.76589 0
M  V30 2829 C 256.578 -2.59141 4.30292 0
M  V30 2830 C 258.572 -1.8475 6.10038 0
M  V30 2831 C 256.259 -2.35759 5.63792 0
M  V30 2832 C 257.257 -1.9862 6.53482 0
M  V30 2833 O 256.945 -1.75489 7.84512 0
M  V30 2834 H 256.677 -0.445271 0.508635 0
M  V30 2835 H 259.231 -0.79621 1.8934 0
M  V30 2836 H 257.461 -3.3506 1.93058 0
M  V30 2837 H 259.15 -3.31123 2.3476 0
M  V30 2838 H 259.916 -1.96465 4.43426 0
M  V30 2839 H 255.795 -2.87022 3.60749 0
M  V30 2840 H 259.339 -1.55686 6.80006 0
M  V30 2841 H 255.236 -2.46646 5.9652 0
M  V30 2842 H 256.004 -1.89841 7.9618 0
M  V30 2843 N 258.668 -1.30515 -0.883378 0
M  V30 2844 C 259.915 -1.1943 -1.63532 0
M  V30 2845 C 260.243 0.250627 -1.92878 0
M  V30 2846 O 259.498 1.19556 -1.54935 0
M  V30 2847 C 259.797 -1.96994 -2.98209 0
M  V30 2848 C 259.463 -3.466 -2.88408 0
M  V30 2849 C 258.125 -3.87397 -2.85442 0
M  V30 2850 C 260.477 -4.41863 -2.76418 0
M  V30 2851 C 257.805 -5.21745 -2.68327 0
M  V30 2852 C 260.157 -5.7632 -2.60841 0
M  V30 2853 C 258.821 -6.16354 -2.56251 0
M  V30 2854 H 258.091 -0.437025 -0.598406 0
M  V30 2855 H 260.738 -1.61635 -1.02696 0
M  V30 2856 H 259.043 -1.47429 -3.63004 0
M  V30 2857 H 260.74 -1.85808 -3.55354 0
M  V30 2858 H 257.33 -3.14182 -2.91527 0
M  V30 2859 H 261.514 -4.11285 -2.77775 0
M  V30 2860 H 256.77 -5.51853 -2.63189 0
M  V30 2861 H 260.944 -6.49772 -2.50538 0
M  V30 2862 H 258.571 -7.20401 -2.42748 0
M  V30 2863 N 260.146 1.09593 -1.13257 0
M  V30 2864 C 261.423 1.78293 -0.804432 0
M  V30 2865 C 261.803 1.99004 0.70431 0
M  V30 2866 O 261.151 1.59007 1.641 0
M  V30 2867 C 261.361 3.10707 -1.5894 0
M  V30 2868 C 262.709 3.85443 -1.78099 0
M  V30 2869 O 263.733 3.20454 -1.55525 0
M  V30 2870 O 262.592 5.02108 -2.15753 0
M  V30 2871 H 259.686 0.773156 -0.293528 0
M  V30 2872 H 262.232 1.16164 -1.23709 0
M  V30 2873 H 261.004 2.91106 -2.61482 0
M  V30 2874 H 260.627 3.80558 -1.15157 0
M  V30 2875 N 261.624 0.925811 1.2754 0
M  V30 2876 C 262.572 0.413897 2.28888 0
M  V30 2877 C 263.566 -0.500779 1.61829 0
M  V30 2878 O 264.772 -0.38069 1.75928 0
M  V30 2879 H 261.147 0.115274 0.743112 0
M  V30 2880 H 263.118 1.28151 2.69481 0
M  V30 2881 C 261.867 -0.319792 3.46226 0
M  V30 2882 H 261.19 0.374846 3.98039 0
M  V30 2883 H 262.63 -0.642435 4.19105 0
M  V30 2884 C 261.089 -1.53209 3.00048 0
M  V30 2885 O 261.619 -2.6309 3.03557 0
M  V30 2886 N 259.825 -1.38326 2.55566 0
M  V30 2887 H 259.372 -0.489292 2.5291 0
M  V30 2888 H 259.33 -2.19564 2.25031 0
M  V30 2889 N 263.102 -1.41638 0.69111 0
M  V30 2890 C 264.513 -1.84346 0.295517 0
M  V30 2891 C 264.864 -1.57833 -1.16547 0
M  V30 2892 O 263.989 -1.04648 -1.89414 0
M  V30 2893 C 264.584 -3.34636 0.529575 0
M  V30 2894 C 263.143 -3.7593 0.187944 0
M  V30 2895 C 262.29 -2.65082 0.814052 0
M  V30 2896 H 265.241 -1.31253 0.892092 0
M  V30 2897 H 265.262 -3.79903 -0.213148 0
M  V30 2898 H 264.774 -3.53901 1.59297 0
M  V30 2899 H 262.875 -3.62268 -0.871367 0
M  V30 2900 H 262.988 -4.74808 0.63985 0
M  V30 2901 H 261.352 -2.53528 0.244017 0
M  V30 2902 H 262.135 -2.87167 1.88123 0
M  V30 2903 N 264.58 -0.43555 -1.51462 0
M  V30 2904 C 265.828 0.131254 -2.01673 0
M  V30 2905 C 266.149 1.43368 -1.32177 0
M  V30 2906 O 265.419 1.90524 -0.455769 0
M  V30 2907 H 263.999 0.0514954 -0.745223 0
M  V30 2908 H 266.661 -0.577847 -1.86137 0
M  V30 2909 H 265.757 0.308446 -3.10572 0
M  V30 2910 N 266.058 1.56714 -0.166846 0
M  V30 2911 C 267.306 1.96358 0.478305 0
M  V30 2912 C 267.627 1.0537 1.6408 0
M  V30 2913 O 266.897 0.119154 1.95537 0
M  V30 2914 H 265.477 0.725065 0.179692 0
M  V30 2915 H 268.139 1.93329 -0.246985 0
M  V30 2916 H 267.235 3.00547 0.841292 0
M  V30 2917 N 267.536 -0.106894 1.57237 0
M  V30 2918 C 268.468 -1.15646 1.97885 0
M  V30 2919 C 269.481 -1.36981 0.879779 0
M  V30 2920 O 270.67 -1.35841 1.15799 0
M  V30 2921 C 267.77 -2.51425 2.27241 0
M  V30 2922 C 266.943 -2.50529 3.58545 0
M  V30 2923 C 266.002 -3.68145 3.75973 0
M  V30 2924 O 265.028 -3.51176 4.47956 0
M  V30 2925 N 266.23 -4.87177 3.15656 0
M  V30 2926 H 268.995 -0.81059 2.8853 0
M  V30 2927 H 266.556 -0.296024 1.59171 0
M  V30 2928 H 268.548 -3.28689 2.36105 0
M  V30 2929 H 267.118 -2.78147 1.42663 0
M  V30 2930 H 266.338 -1.58894 3.60758 0
M  V30 2931 H 267.626 -2.46997 4.44826 0
M  V30 2932 H 267.024 -5.03868 2.57165 0
M  V30 2933 H 265.581 -5.62075 3.30023 0
M  V30 2934 N 269.014 -1.53014 -0.377408 0
M  V30 2935 C 270.263 -1.67845 -1.11853 0
M  V30 2936 C 270.576 -0.430625 -1.90801 0
M  V30 2937 O 271.782 -0.459261 -2.67587 0
M  V30 2938 C 270.238 -2.96668 -2.03756 0
M  V30 2939 C 269.846 -4.28671 -1.30175 0
M  V30 2940 C 271.59 -3.20865 -2.77932 0
M  V30 2941 C 269.497 -5.48591 -2.20911 0
M  V30 2942 H 268.427 -0.625343 -0.421263 0
M  V30 2943 H 271.078 -1.79514 -0.380409 0
M  V30 2944 H 269.46 -2.78773 -2.8125 0
M  V30 2945 H 270.634 -4.57157 -0.578259 0
M  V30 2946 H 268.949 -4.10825 -0.679108 0
M  V30 2947 H 271.546 -4.07642 -3.46024 0
M  V30 2948 H 271.889 -2.36424 -3.4265 0
M  V30 2949 H 272.422 -3.39379 -2.07525 0
M  V30 2950 H 269.161 -6.35474 -1.6079 0
M  V30 2951 H 268.681 -5.244 -2.91144 0
M  V30 2952 H 270.36 -5.8292 -2.80736 0
M  V30 2953 N 270.492 0.636531 -1.44174 0
M  V30 2954 C 271.903 1.21806 -1.41493 0
M  V30 2955 C 272.254 1.95785 -0.1275 0
M  V30 2956 O 271.379 2.02147 0.772376 0
M  V30 2957 C 271.974 2.21551 -2.56321 0
M  V30 2958 C 270.533 2.75143 -2.56853 0
M  V30 2959 C 269.68 1.50052 -2.33195 0
M  V30 2960 H 272.631 0.427531 -1.52833 0
M  V30 2961 H 272.652 3.0405 -2.28765 0
M  V30 2962 H 272.164 1.67679 -3.50008 0
M  V30 2963 H 270.265 3.33033 -1.67093 0
M  V30 2964 H 270.378 3.2155 -3.55165 0
M  V30 2965 H 268.742 1.77993 -1.82183 0
M  V30 2966 H 269.525 0.980903 -3.28988 0
M  V30 2967 N 271.97 1.30982 0.876444 0
M  V30 2968 C 273.195 1.23373 1.66715 0
M  V30 2969 C 273.62 -0.19885 1.87046 0
M  V30 2970 O 272.978 -1.1427 1.40756 0
M  V30 2971 C 273.026 1.97644 3.01611 0
M  V30 2972 O 272.13 1.30935 3.91062 0
M  V30 2973 H 271.471 0.426279 0.509099 0
M  V30 2974 H 274.001 1.72944 1.09323 0
M  V30 2975 H 274.011 2.06992 3.51594 0
M  V30 2976 H 272.686 3.01829 2.86133 0
M  V30 2977 H 271.263 1.29996 3.49507 0
M  V30 2978 N 273.449 -1.08991 1.13837 0
M  V30 2979 C 274.695 -1.81699 0.91417 0
M  V30 2980 C 275.05 -1.84264 -0.553594 0
M  V30 2981 O 274.343 -1.30313 -1.4046 0
M  V30 2982 C 274.537 -3.27042 1.44147 0
M  V30 2983 C 274.366 -3.38637 2.95897 0
M  V30 2984 C 273.136 -3.50177 3.64286 0
M  V30 2985 C 275.334 -3.30791 3.93804 0
M  V30 2986 N 273.316 -3.50501 5.04006 0
M  V30 2987 C 274.687 -3.38037 5.19741 0
M  V30 2988 C 276.742 -3.14488 3.86007 0
M  V30 2989 C 275.445 -3.30659 6.38793 0
M  V30 2990 C 277.471 -3.08438 5.04599 0
M  V30 2991 C 276.833 -3.1628 6.29402 0
M  V30 2992 H 272.932 -0.678967 0.387979 0
M  V30 2993 H 275.516 -1.30224 1.4474 0
M  V30 2994 H 273.687 -3.76976 0.935091 0
M  V30 2995 H 275.419 -3.87785 1.1578 0
M  V30 2996 H 272.174 -3.53815 3.1482 0
M  V30 2997 H 272.598 -3.54236 5.76928 0
M  V30 2998 H 277.24 -3.07291 2.90399 0
M  V30 2999 H 274.958 -3.36618 7.34652 0
M  V30 3000 H 278.544 -2.96952 5.0031 0
M  V30 3001 H 277.424 -3.1162 7.19627 0
M  V30 3002 N 274.927 -0.932562 -1.27047 0
M  V30 3003 C 275.857 -0.452902 -2.29066 0
M  V30 3004 C 276.838 0.489338 -1.62909 0
M  V30 3005 O 278.023 0.393046 -1.90181 0
M  V30 3006 C 275.153 0.290698 -3.46081 0
M  V30 3007 C 274.107 -0.564168 -4.24265 0
M  V30 3008 C 273.433 0.308886 -5.33807 0
M  V30 3009 C 274.733 -1.83112 -4.89149 0
M  V30 3010 H 276.427 -1.30552 -2.69437 0
M  V30 3011 H 273.973 -0.629201 -1.29526 0
M  V30 3012 H 275.926 0.637233 -4.16554 0
M  V30 3013 H 274.65 1.17738 -3.0464 0
M  V30 3014 H 273.309 -0.893477 -3.55545 0
M  V30 3015 H 272.957 1.19467 -4.88607 0
M  V30 3016 H 272.657 -0.259633 -5.87026 0
M  V30 3017 H 274.181 0.650884 -6.07121 0
M  V30 3018 H 275.595 -1.55236 -5.51883 0
M  V30 3019 H 273.992 -2.34353 -5.52448 0
M  V30 3020 H 275.062 -2.54772 -4.12576 0
M  V30 3021 N 276.405 1.4127 -0.698611 0
M  V30 3022 C 277.654 2.00408 -0.227949 0
M  V30 3023 C 277.967 1.55981 1.18023 0
M  V30 3024 O 279.173 2.07699 1.74852 0
M  V30 3025 C 277.629 3.58129 -0.356636 0
M  V30 3026 C 277.237 4.11536 -1.77037 0
M  V30 3027 C 278.981 4.24466 0.0540969 0
M  V30 3028 C 276.888 5.61701 -1.85055 0
M  V30 3029 H 275.818 0.749586 -0.0814657 0
M  V30 3030 H 278.469 1.61713 -0.867249 0
M  V30 3031 H 276.851 3.94442 0.350965 0
M  V30 3032 H 278.025 3.86636 -2.50698 0
M  V30 3033 H 276.34 3.57736 -2.13105 0
M  V30 3034 H 278.937 5.34698 0.0146723 0
M  V30 3035 H 279.28 4.01687 1.09332 0
M  V30 3036 H 279.813 3.93198 -0.603337 0
M  V30 3037 H 276.552 5.89312 -2.8704 0
M  V30 3038 H 276.072 5.88519 -1.15783 0
M  V30 3039 H 277.751 6.26524 -1.61484 0
M  V30 3040 N 277.883 0.443576 1.51229 0
M  V30 3041 C 278.831 -0.37904 2.29491 0
M  V30 3042 C 279.825 -1.0153 1.35603 0
M  V30 3043 O 281.031 -0.94955 1.52917 0
M  V30 3044 H 277.406 -0.141053 0.738653 0
M  V30 3045 H 279.377 0.301799 2.9687 0
M  V30 3046 C 278.126 -1.46426 3.15364 0
M  V30 3047 H 277.449 -0.984037 3.87501 0
M  V30 3048 H 278.889 -2.01297 3.7317 0
M  V30 3049 C 277.348 -2.45099 2.31146 0
M  V30 3050 O 277.878 -3.49773 1.9754 0
M  V30 3051 N 276.084 -2.16139 1.94249 0
M  V30 3052 H 275.631 -1.31044 2.21777 0
M  V30 3053 H 275.589 -2.82398 1.38198 0
M  V30 3054 N 279.361 -1.56624 0.175154 0
M  V30 3055 C 280.607 -1.98061 -0.462976 0
M  V30 3056 C 280.962 -1.05949 -1.60601 0
M  V30 3057 O 280.255 -0.0999027 -1.91339 0
M  V30 3058 C 280.449 -3.43419 -0.989864 0
M  V30 3059 C 280.278 -4.49587 0.100583 0
M  V30 3060 C 279.048 -5.02281 0.551539 0
M  V30 3061 C 281.246 -5.06322 0.902369 0
M  V30 3062 N 279.228 -5.92088 1.62189 0
M  V30 3063 C 280.599 -5.92607 1.82256 0
M  V30 3064 C 282.654 -4.88811 0.947019 0
M  V30 3065 C 281.357 -6.63254 2.78364 0
M  V30 3066 C 283.383 -5.60182 1.89606 0
M  V30 3067 C 282.745 -6.46197 2.80372 0
M  V30 3068 H 278.844 -0.769833 -0.137409 0
M  V30 3069 H 281.428 -1.9273 0.276256 0
M  V30 3070 H 279.599 -3.49288 -1.6986 0
M  V30 3071 H 281.331 -3.7186 -1.59694 0
M  V30 3072 H 278.086 -4.73367 0.148537 0
M  V30 3073 H 278.51 -6.41696 2.15767 0
M  V30 3074 H 283.152 -4.22004 0.259304 0
M  V30 3075 H 280.87 -7.29271 3.48122 0
M  V30 3076 H 284.456 -5.48617 1.93676 0
M  V30 3077 H 283.336 -7.00453 3.52612 0
M  V30 3078 N 280.839 0.0985539 -1.57292 0
M  V30 3079 C 281.802 1.10402 -2.00858 0
M  V30 3080 C 282.802 1.33146 -0.901593 0
M  V30 3081 O 283.992 1.29318 -1.16716 0
M  V30 3082 C 281.124 2.45394 -2.36632 0
M  V30 3083 H 282.317 0.729099 -2.90902 0
M  V30 3084 H 279.87 0.343495 -1.52479 0
M  V30 3085 H 280.605 2.87769 -1.49531 0
M  V30 3086 H 280.39 2.30235 -3.17387 0
M  V30 3087 H 281.88 3.17718 -2.71007 0
M  V30 3088 N 282.317 1.53212 0.369288 0
M  V30 3089 C 283.28 1.7872 1.43498 0
M  V30 3090 C 284.28 0.657554 1.46741 0
M  V30 3091 O 285.47 0.925736 1.47566 0
M  V30 3092 C 282.602 1.90591 2.82645 0
M  V30 3093 H 283.795 2.73894 1.22156 0
M  V30 3094 H 281.348 1.44233 0.602203 0
M  V30 3095 H 282.083 0.974709 3.09306 0
M  V30 3096 H 281.868 2.72751 2.8169 0
M  V30 3097 H 283.358 2.11931 3.59826 0
M  V30 3098 N 283.795 -0.628877 1.44509 0
M  V30 3099 C 284.742 -1.74074 1.51549 0
M  V30 3100 C 285.712 -1.62084 0.363021 0
M  V30 3101 O 286.897 -1.81975 0.573567 0
M  V30 3102 C 284.037 -3.12328 1.46784 0
M  V30 3103 C 283.15 -3.35277 2.72422 0
M  V30 3104 C 282.285 -4.63515 2.59475 0
M  V30 3105 C 281.324 -4.7965 3.80266 0
M  V30 3106 N 280.461 -5.99168 3.65981 0
M  V30 3107 H 285.301 -1.67392 2.46544 0
M  V30 3108 H 282.838 -0.816527 1.22357 0
M  V30 3109 H 284.796 -3.92286 1.42012 0
M  V30 3110 H 283.426 -3.18018 0.553544 0
M  V30 3111 H 282.478 -2.49242 2.87372 0
M  V30 3112 H 283.79 -3.43078 3.62076 0
M  V30 3113 H 282.944 -5.51638 2.52548 0
M  V30 3114 H 281.683 -4.58076 1.67384 0
M  V30 3115 H 280.688 -3.89957 3.87574 0
M  V30 3116 H 281.913 -4.86902 4.73395 0
M  V30 3117 H 279.859 -5.94814 2.76644 0
M  V30 3118 H 279.776 -6.08035 4.49254 0
M  V30 3119 H 281.044 -6.89846 3.6295 0
M  V30 3120 N 285.273 -1.31445 -0.869486 0
M  V30 3121 C 286.221 -1.19067 -1.99814 0
M  V30 3122 C 287.215 -0.0988569 -1.69111 0
M  V30 3123 O 288.421 -0.260781 -1.78101 0
M  V30 3124 H 284.796 -0.368677 -0.655425 0
M  V30 3125 H 286.767 -2.14555 -2.07385 0
M  V30 3126 C 285.516 -0.915323 -3.35436 0
M  V30 3127 H 284.839 -1.74759 -3.59582 0
M  V30 3128 H 286.279 -0.868895 -4.15001 0
M  V30 3129 C 284.738 0.381928 -3.34728 0
M  V30 3130 O 285.268 1.39857 -3.76567 0
M  V30 3131 N 283.474 0.398633 -2.87853 0
M  V30 3132 H 283.021 -0.429186 -2.54 0
M  V30 3133 H 282.979 1.26651 -2.87762 0
M  V30 3134 N 286.751 1.08385 -1.14413 0
M  V30 3135 C 287.999 1.80419 -0.910679 0
M  V30 3136 C 288.32 1.86658 0.564243 0
M  V30 3137 O 287.59 1.35985 1.41014 0
M  V30 3138 H 286.17 0.668204 -0.333934 0
M  V30 3139 H 288.832 1.31037 -1.44275 0
M  V30 3140 H 287.928 2.83238 -1.31082 0
M  V30 3141 N 288.23 0.939286 1.26551 0
M  V30 3142 C 289.476 0.586715 1.94128 0
M  V30 3143 C 289.809 -0.8717 1.73537 0
M  V30 3144 O 289.084 -1.62339 1.07127 0
M  V30 3145 C 289.367 0.927497 3.4795 0
M  V30 3146 C 289.22 2.44052 3.77834 0
M  V30 3147 C 290.539 0.441569 4.37879 0
M  V30 3148 H 287.658 0.21463 0.705055 0
M  V30 3149 H 290.3 1.17316 1.49455 0
M  V30 3150 H 288.45 0.428431 3.8613 0
M  V30 3151 H 290.122 3.01216 3.4938 0
M  V30 3152 H 288.365 2.8848 3.23978 0
M  V30 3153 H 289.036 2.62947 4.85348 0
M  V30 3154 H 291.512 0.869448 4.06915 0
M  V30 3155 H 290.388 0.708856 5.44304 0
M  V30 3156 H 290.649 -0.658467 4.37169 0
M  V30 3157 N 289.708 -1.40897 0.706093 0
M  V30 3158 C 291.119 -1.84023 0.315052 0
M  V30 3159 C 291.47 -1.5906 -1.14866 0
M  V30 3160 O 290.595 -1.06651 -1.88293 0
M  V30 3161 C 291.19 -3.34055 0.565038 0
M  V30 3162 C 289.749 -3.7571 0.227806 0
M  V30 3163 C 288.896 -2.64204 0.842122 0
M  V30 3164 H 291.847 -1.303 0.905963 0
M  V30 3165 H 291.868 -3.80107 -0.172843 0
M  V30 3166 H 291.38 -3.52192 1.63042 0
M  V30 3167 H 289.481 -3.63172 -0.832895 0
M  V30 3168 H 289.594 -4.74103 0.690174 0
M  V30 3169 H 287.958 -2.53255 0.270893 0
M  V30 3170 H 288.741 -2.85155 1.91158 0
M  V30 3171 N 291.186 -0.45159 -1.50991 0
M  V30 3172 C 292.134 0.366864 -2.29689 0
M  V30 3173 C 293.128 1.00809 -1.36139 0
M  V30 3174 O 294.334 0.941427 -1.53418 0
M  V30 3175 H 290.709 0.137133 -0.739391 0
M  V30 3176 H 292.68 -0.317538 -2.96706 0
M  V30 3177 C 291.429 1.44751 -3.16137 0
M  V30 3178 H 290.752 0.963473 -3.88017 0
M  V30 3179 H 292.192 1.99315 -3.74232 0
M  V30 3180 C 290.651 2.43869 -2.32442 0
M  V30 3181 O 291.181 3.4872 -1.99392 0
M  V30 3182 N 289.387 2.15105 -1.95392 0
M  V30 3183 H 288.934 1.29866 -2.22469 0
M  V30 3184 H 288.892 2.81661 -1.39693 0
M  V30 3185 N 292.664 1.56529 -0.183458 0
M  V30 3186 C 293.911 1.97244 0.458357 0
M  V30 3187 C 294.239 1.06992 1.62428 0
M  V30 3188 O 293.494 0.106542 1.9541 0
M  V30 3189 C 293.793 3.43939 0.971637 0
M  V30 3190 C 293.459 4.5083 -0.0796784 0
M  V30 3191 C 292.121 4.79786 -0.368584 0
M  V30 3192 C 294.473 5.15138 -0.792638 0
M  V30 3193 C 291.801 5.70345 -1.37563 0
M  V30 3194 C 294.153 6.06784 -1.78875 0
M  V30 3195 C 292.817 6.34102 -2.08497 0
M  V30 3196 H 292.087 0.721768 0.167725 0
M  V30 3197 H 294.734 1.89472 -0.277976 0
M  V30 3198 H 293.039 3.48724 1.78602 0
M  V30 3199 H 294.736 3.72791 1.47744 0
M  V30 3200 H 291.326 4.28317 0.155668 0
M  V30 3201 H 295.51 4.92868 -0.582659 0
M  V30 3202 H 290.766 5.89789 -1.61118 0
M  V30 3203 H 294.94 6.55677 -2.3465 0
M  V30 3204 H 292.567 7.04074 -2.86678 0
M  V30 3205 N 294.142 -0.090211 1.57342 0
M  V30 3206 C 295.072 -1.10976 2.05443 0
M  V30 3207 C 296.053 -1.41482 0.944284 0
M  V30 3208 O 297.238 -1.51428 1.21586 0
M  V30 3209 C 294.368 -2.42831 2.48295 0
M  V30 3210 C 293.322 -2.26721 3.63018 0
M  V30 3211 C 292.648 -3.63796 3.91863 0
M  V30 3212 C 293.948 -1.7037 4.93732 0
M  V30 3213 H 295.642 -0.709564 2.9087 0
M  V30 3214 H 293.188 -0.339874 1.39932 0
M  V30 3215 H 295.141 -3.14431 2.80555 0
M  V30 3216 H 293.865 -2.84795 1.59873 0
M  V30 3217 H 292.524 -1.57565 3.31012 0
M  V30 3218 H 292.172 -4.03297 3.00601 0
M  V30 3219 H 291.872 -3.53861 4.69101 0
M  V30 3220 H 293.396 -4.36855 4.26603 0
M  V30 3221 H 294.81 -2.31816 5.24342 0
M  V30 3222 H 293.207 -1.71181 5.75167 0
M  V30 3223 H 294.277 -0.663542 4.80339 0
M  V30 3224 N 295.62 -1.53406 -0.361157 0
M  V30 3225 C 296.567 -1.80156 -1.44265 0
M  V30 3226 C 297.537 -0.646183 -1.53015 0
M  V30 3227 O 298.722 -0.888818 -1.68833 0
M  V30 3228 C 295.862 -2.00116 -2.81154 0
M  V30 3229 C 294.975 -3.27833 -2.81335 0
M  V30 3230 C 294.11 -3.37957 -4.09828 0
M  V30 3231 C 293.149 -4.59689 -4.04168 0
M  V30 3232 N 292.286 -4.66942 -5.24318 0
M  V30 3233 H 297.126 -2.72438 -1.20754 0
M  V30 3234 H 294.663 -1.34954 -0.585296 0
M  V30 3235 H 296.621 -2.09677 -3.60682 0
M  V30 3236 H 295.251 -1.11167 -3.03054 0
M  V30 3237 H 294.303 -3.27204 -1.94014 0
M  V30 3238 H 295.615 -4.17442 -2.73027 0
M  V30 3239 H 294.769 -3.46853 -4.97773 0
M  V30 3240 H 293.508 -2.46372 -4.20894 0
M  V30 3241 H 292.513 -4.50889 -3.14609 0
M  V30 3242 H 293.738 -5.5262 -3.947 0
M  V30 3243 H 291.684 -3.7826 -5.35962 0
M  V30 3244 H 291.601 -5.50462 -5.18197 0
M  V30 3245 H 292.869 -4.80127 -6.14084 0
M  V30 3246 N 297.098 0.621204 -1.44841 0
M  V30 3247 C 298.375 1.38 -1.38619 0
M  V30 3248 C 298.755 2.11041 -0.0498935 0
M  V30 3249 O 298.103 2.06992 0.967816 0
M  V30 3250 C 298.313 2.33817 -2.59096 0
M  V30 3251 C 299.661 2.96844 -3.03593 0
M  V30 3252 O 300.685 2.44141 -2.59371 0
M  V30 3253 O 299.544 3.92476 -3.80296 0
M  V30 3254 H 296.638 0.61811 -0.549426 0
M  V30 3255 H 299.184 0.645429 -1.56947 0
M  V30 3256 H 297.956 1.79012 -3.47952 0
M  V30 3257 H 297.579 3.14676 -2.43032 0
M  V30 3258 N 298.576 1.31904 0.862503 0
M  V30 3259 C 299.509 1.14514 1.97388 0
M  V30 3260 C 300.487 0.0466493 1.62533 0
M  V30 3261 O 301.671 0.204484 1.87388 0
M  V30 3262 C 298.798 0.751347 3.30261 0
M  V30 3263 C 297.844 1.85395 3.84098 0
M  V30 3264 S 298.677 3.46081 4.08642 0
M  V30 3265 C 299.833 3.08655 5.44502 0
M  V30 3266 H 300.066 2.08597 2.11836 0
M  V30 3267 H 297.599 1.16475 1.01356 0
M  V30 3268 H 299.557 0.530901 4.07052 0
M  V30 3269 H 298.218 -0.170493 3.13637 0
M  V30 3270 H 297.411 1.53122 4.80177 0
M  V30 3271 H 297.013 2.02984 3.14123 0
M  V30 3272 H 299.305 2.58012 6.26447 0
M  V30 3273 H 300.248 4.03726 5.81731 0
M  V30 3274 H 300.656 2.45891 5.08132 0
M  V30 3275 N 300.054 -1.07777 1.14986 0
M  V30 3276 C 301.017 -2.13041 0.845358 0
M  V30 3277 C 302.017 -1.60071 -0.152931 0
M  V30 3278 O 303.207 -1.74033 0.0761879 0
M  V30 3279 C 300.339 -3.39896 0.261383 0
M  V30 3280 H 301.532 -2.41485 1.77834 0
M  V30 3281 H 299.085 -1.23595 0.956757 0
M  V30 3282 H 299.82 -3.17091 -0.68 0
M  V30 3283 H 299.605 -3.79642 0.980514 0
M  V30 3284 H 301.095 -4.17548 0.0657687 0
M  V30 3285 N 301.532 -0.945985 -1.26051 0
M  V30 3286 C 302.948 -0.649045 -1.45807 0
M  V30 3287 C 303.148 0.796158 -1.85104 0
M  V30 3288 O 302.204 1.57233 -1.97571 0
M  V30 3289 C 303.517 -1.61458 -2.53677 0
M  V30 3290 C 305.065 -1.62481 -2.67524 0
M  V30 3291 C 305.54 -2.57776 -3.7857 0
M  V30 3292 N 307.031 -2.5609 -3.85969 0
M  V30 3293 C 307.766 -3.26508 -4.7136 0
M  V30 3294 N 307.262 -4.0637 -5.61102 0
M  V30 3295 N 309.055 -3.15437 -4.65248 0
M  V30 3296 H 301.206 -1.88005 -0.988328 0
M  V30 3297 H 303.469 -0.808198 -0.4955 0
M  V30 3298 H 303.175 -2.64644 -2.31638 0
M  V30 3299 H 303.049 -1.37036 -3.51427 0
M  V30 3300 H 305.436 -0.600167 -2.88933 0
M  V30 3301 H 305.517 -1.90958 -1.70202 0
M  V30 3302 H 305.161 -3.60361 -3.57913 0
M  V30 3303 H 305.091 -2.26587 -4.75359 0
M  V30 3304 H 307.582 -1.98105 -3.21812 0
M  V30 3305 H 307.895 -4.57042 -6.23164 0
M  V30 3306 H 306.24 -4.10469 -5.60839 0
M  V30 3307 H 309.431 -2.52525 -3.94143 0
M  V30 3308 H 309.604 -3.70584 -5.31575 0
M  V30 3309 N 303.011 1.40521 -0.713556 0
M  V30 3310 C 303.974 2.29098 -0.0684347 0
M  V30 3311 C 304.974 1.45268 0.689472 0
M  V30 3312 O 306.164 1.66205 0.521677 0
M  V30 3313 C 303.296 3.28446 0.913024 0
M  V30 3314 H 304.489 2.87645 -0.84855 0
M  V30 3315 H 302.042 1.48809 -0.47809 0
M  V30 3316 H 302.777 2.74913 1.72027 0
M  V30 3317 H 302.562 3.90327 0.372472 0
M  V30 3318 H 304.052 3.94777 1.36165 0
M  V30 3319 N 304.489 0.459591 1.5075 0
M  V30 3320 C 305.729 -0.09824 2.04164 0
M  V30 3321 C 306.093 -1.3801 1.33481 0
M  V30 3322 O 307.294 -2.01959 1.77387 0
M  V30 3323 C 305.565 -0.289467 3.56226 0
M  V30 3324 S 307.124 -0.807507 4.31306 0
M  V30 3325 H 303.942 -0.0213845 0.710678 0
M  V30 3326 H 306.544 0.624098 1.85271 0
M  V30 3327 H 305.248 0.649461 4.05229 0
M  V30 3328 H 304.779 -1.03825 3.79452 0
M  V30 3329 H 306.794 -2.0824 4.50389 0
M  V30 3330 N 305.967 -1.56429 0.191757 0
M  V30 3331 C 306.899 -2.16154 -0.762245 0
M  V30 3332 C 307.912 -1.12247 -1.17917 0
M  V30 3333 O 309.101 -1.39353 -1.11548 0
M  V30 3334 C 306.201 -2.70606 -2.04024 0
M  V30 3335 C 305.374 -3.99381 -1.78364 0
M  V30 3336 C 304.433 -4.38692 -2.90578 0
M  V30 3337 O 303.459 -5.06179 -2.6033 0
M  V30 3338 N 304.661 -4.01922 -4.18854 0
M  V30 3339 H 307.426 -2.98643 -0.251526 0
M  V30 3340 H 304.987 -1.61897 0.00967373 0
M  V30 3341 H 306.979 -2.93891 -2.78227 0
M  V30 3342 H 305.549 -1.9259 -2.46227 0
M  V30 3343 H 304.769 -3.84262 -0.879581 0
M  V30 3344 H 306.057 -4.83445 -1.58614 0
M  V30 3345 H 305.455 -3.47631 -4.46283 0
M  V30 3346 H 304.012 -4.30165 -4.89695 0
M  V30 3347 N 307.445 0.0818655 -1.57387 0
M  V30 3348 C 308.393 1.11712 -2.04018 0
M  V30 3349 C 309.387 1.40683 -0.94364 0
M  V30 3350 O 310.593 1.40209 -1.12878 0
M  V30 3351 H 306.968 0.377542 -0.650358 0
M  V30 3352 H 308.939 0.697614 -2.90131 0
M  V30 3353 C 307.688 2.42537 -2.49141 0
M  V30 3354 H 307.011 2.21092 -3.33104 0
M  V30 3355 H 308.451 3.13446 -2.85531 0
M  V30 3356 C 306.91 3.0778 -1.37014 0
M  V30 3357 O 307.44 3.95436 -0.706621 0
M  V30 3358 N 305.646 2.68242 -1.11779 0
M  V30 3359 H 305.193 1.97052 -1.65917 0
M  V30 3360 H 305.151 3.1222 -0.369594 0
M  V30 3361 N 308.923 1.53595 0.353017 0
M  V30 3362 C 310.153 1.74058 1.11299 0
M  V30 3363 C 310.561 0.475205 1.83135 0
M  V30 3364 O 309.904 -0.562344 1.74881 0
M  V30 3365 C 309.966 2.85994 2.17825 0
M  V30 3366 C 309.63 4.25923 1.65647 0
M  V30 3367 C 310.627 5.07829 1.11383 0
M  V30 3368 C 308.312 4.72377 1.7078 0
M  V30 3369 C 310.306 6.34285 0.629439 0
M  V30 3370 C 307.993 5.98808 1.21953 0
M  V30 3371 C 308.991 6.79594 0.681265 0
M  V30 3372 O 308.679 8.03651 0.200248 0
M  V30 3373 H 308.411 0.585327 0.338183 0
M  V30 3374 H 310.965 2.01186 0.413927 0
M  V30 3375 H 309.195 2.54368 2.91262 0
M  V30 3376 H 310.884 2.94515 2.79313 0
M  V30 3377 H 311.65 4.73107 1.06746 0
M  V30 3378 H 307.529 4.0956 2.11617 0
M  V30 3379 H 311.073 6.97288 0.208636 0
M  V30 3380 H 306.97 6.33026 1.26287 0
M  V30 3381 H 307.738 8.1788 0.318416 0
M  V30 3382 N 310.401 -0.613514 1.45168 0
M  V30 3383 C 311.331 -1.7354 1.56225 0
M  V30 3384 C 312.312 -1.64981 0.41414 0
M  V30 3385 O 313.497 -1.83472 0.636526 0
M  V30 3386 C 310.627 -3.12128 1.52295 0
M  V30 3387 C 309.581 -3.35491 2.65762 0
M  V30 3388 C 308.907 -4.74291 2.46885 0
M  V30 3389 C 310.207 -3.26325 4.0781 0
M  V30 3390 H 311.901 -1.64543 2.50132 0
M  V30 3391 H 309.447 -0.790185 1.20383 0
M  V30 3392 H 311.4 -3.90404 1.58628 0
M  V30 3393 H 310.124 -3.2195 0.549139 0
M  V30 3394 H 308.783 -2.59603 2.58847 0
M  V30 3395 H 308.431 -4.80839 1.47657 0
M  V30 3396 H 308.131 -4.9088 3.22972 0
M  V30 3397 H 309.655 -5.54775 2.55063 0
M  V30 3398 H 311.069 -3.94483 4.16 0
M  V30 3399 H 309.466 -3.54445 4.8424 0
M  V30 3400 H 310.536 -2.23855 4.30136 0
M  V30 3401 N 311.879 -1.3236 -0.855495 0
M  V30 3402 C 312.826 -1.21225 -1.964 0
M  V30 3403 C 313.796 -0.0946204 -1.6583 0
M  V30 3404 O 314.981 -0.27002 -1.8888 0
M  V30 3405 C 312.121 -0.940419 -3.32039 0
M  V30 3406 C 311.234 -2.14276 -3.75113 0
M  V30 3407 C 310.369 -1.80648 -4.9954 0
M  V30 3408 C 309.408 -2.97208 -5.35102 0
M  V30 3409 N 308.545 -2.63678 -6.50706 0
M  V30 3410 H 313.385 -2.16042 -2.05255 0
M  V30 3411 H 310.922 -1.07451 -1.00463 0
M  V30 3412 H 312.88 -0.763311 -4.10158 0
M  V30 3413 H 311.51 -0.0290413 -3.22787 0
M  V30 3414 H 310.562 -2.43017 -2.92655 0
M  V30 3415 H 311.874 -3.01468 -3.97389 0
M  V30 3416 H 311.028 -1.59484 -5.85363 0
M  V30 3417 H 309.767 -0.906678 -4.79198 0
M  V30 3418 H 308.772 -3.19004 -4.47791 0
M  V30 3419 H 309.997 -3.87918 -5.57401 0
M  V30 3420 H 307.943 -1.76238 -6.31883 0
M  V30 3421 H 307.86 -3.444 -6.72997 0
M  V30 3422 H 309.128 -2.45942 -7.39684 0
M  V30 3423 N 313.357 1.07166 -1.15556 0
M  V30 3424 C 314.304 2.14417 -0.854055 0
M  V30 3425 C 315.274 1.64965 0.193806 0
M  V30 3426 O 316.459 1.90703 0.0609443 0
M  V30 3427 C 313.599 3.43304 -0.351574 0
M  V30 3428 C 312.712 4.06537 -1.46123 0
M  V30 3429 C 311.847 5.23266 -0.914677 0
M  V30 3430 C 310.886 5.78464 -2.00114 0
M  V30 3431 N 310.023 6.86521 -1.47083 0
M  V30 3432 H 314.863 2.39548 -1.77259 0
M  V30 3433 H 312.4 1.17543 -0.884425 0
M  V30 3434 H 314.358 4.17179 -0.0419409 0
M  V30 3435 H 312.988 3.18419 0.530037 0
M  V30 3436 H 312.04 3.30297 -1.88701 0
M  V30 3437 H 313.352 4.43567 -2.28144 0
M  V30 3438 H 312.506 6.04131 -0.557698 0
M  V30 3439 H 311.245 4.87658 -0.0636583 0
M  V30 3440 H 310.25 4.96243 -2.36692 0
M  V30 3441 H 311.475 6.16126 -2.85597 0
M  V30 3442 H 309.421 6.52849 -0.642198 0
M  V30 3443 H 309.338 7.22446 -2.22729 0
M  V30 3444 H 310.606 7.71087 -1.14215 0
M  V30 3445 N 314.835 0.952656 1.25548 0
M  V30 3446 C 316.063 0.623496 1.97282 0
M  V30 3447 C 316.478 -0.803987 1.70826 0
M  V30 3448 O 315.835 -1.53755 0.983147 0
M  V30 3449 C 315.886 0.870209 3.5087 0
M  V30 3450 O 315.607 2.24156 3.76412 0
M  V30 3451 C 317.108 0.553164 4.39835 0
M  V30 3452 H 314.328 0.233931 0.628902 0
M  V30 3453 H 316.872 1.27649 1.59768 0
M  V30 3454 H 315.027 0.263652 3.86502 0
M  V30 3455 H 315.441 2.31021 4.70882 0
M  V30 3456 H 316.915 0.776342 5.46513 0
M  V30 3457 H 317.392 -0.512215 4.36203 0
M  V30 3458 H 317.998 1.13896 4.09766 0
M  V30 3459 O 316.352 -1.36754 0.859105 0
M  V30 3460 H 317.043 -1.8829 0.454606 0
M  V30 END ATOM
M  V30 BEGIN BOND
M  V30 END BOND
M  V30 END CTAB
M  END
$$$$
