drugbank_target|Q9UK32 Ribosomal protein S6 kinase alpha-6 (DB12010)
 OpenBabel12092121133D

  0  0  0     0  0            999 V3000
M  V30 BEGIN CTAB
M  V30 COUNTS 11763 11896 0 0 0
M  V30 BEGIN ATOM
M  V30 1 H -0.908 1.98254 -0.117106 0
M  V30 2 N 0 1.576 0 0
M  V30 3 C 0.933 2.03868 1.02534 0
M  V30 4 C 1.911 0.928543 1.3348 0
M  V30 5 O 3.095 1.19667 1.45644 0
M  V30 6 C 0.222 2.43627 2.35294 0
M  V30 7 C -0.732 3.65373 2.2001 0
M  V30 8 S 0.101 5.13292 1.52614 0
M  V30 9 C 1.257 5.56322 2.86805 0
M  V30 10 H 1.49 2.90518 0.631377 0
M  V30 11 H -0.977 1.52953 0.210867 0
M  V30 12 H 0.981 2.67203 3.11629 0
M  V30 13 H -0.358 1.57376 2.7183 0
M  V30 14 H -1.165 3.90944 3.18086 0
M  V30 15 H -1.563 3.418 1.51819 0
M  V30 16 H 0.729 5.58782 3.83104 0
M  V30 17 H 1.672 6.56266 2.65933 0
M  V30 18 H 2.08 4.83886 2.90714 0
M  V30 19 N 1.4781 -0.272755 1.55222 0
M  V30 20 C 2.4081 -1.34136 1.91127 0
M  V30 21 C 3.3891 -1.51513 0.773168 0
M  V30 22 O 4.5741 -1.64552 1.03132 0
M  V30 23 C 1.7041 -2.70083 2.1834 0
M  V30 24 C 0.6581 -2.67437 3.34158 0
M  V30 25 C -0.0159 -4.06938 3.46851 0
M  V30 26 C 1.2841 -2.26686 4.70543 0
M  V30 27 H 2.9781 -1.04333 2.80633 0
M  V30 28 H 0.5241 -0.500454 1.35024 0
M  V30 29 H 2.4771 -3.44952 2.42046 0
M  V30 30 H 1.2011 -3.01469 1.25634 0
M  V30 31 H -0.1399 -1.95026 3.1042 0
M  V30 32 H -0.4919 -4.35547 2.51611 0
M  V30 33 H -0.7919 -4.06062 4.2472 0
M  V30 34 H 0.7321 -4.83545 3.72849 0
M  V30 35 H 2.1461 -2.91277 4.93792 0
M  V30 36 H 0.5431 -2.36971 5.5133 0
M  V30 37 H 1.6131 -1.21818 4.69349 0
M  V30 38 N 2.9562 -1.48159 -0.537278 0
M  V30 39 C 4.3672 -1.49429 -1.11928 0
M  V30 40 C 4.7182 -0.26 -1.9447 0
M  V30 41 O 3.8432 0.633489 -2.0692 0
M  V30 42 C 4.4382 -2.70758 -2.03656 0
M  V30 43 C 2.9972 -2.74923 -2.57088 0
M  V30 44 C 2.1442 -2.42835 -1.3389 0
M  V30 45 H 5.0952 -1.55381 -0.322886 0
M  V30 46 H 5.1162 -2.48861 -2.87834 0
M  V30 47 H 4.6282 -3.60575 -1.43553 0
M  V30 48 H 2.7292 -1.89296 -3.20933 0
M  V30 49 H 2.8422 -3.76157 -2.9672 0
M  V30 50 H 1.2062 -1.93836 -1.65226 0
M  V30 51 H 1.9892 -3.34884 -0.755504 0
M  V30 52 N 4.4343 0.785586 -1.36625 0
M  V30 53 C 5.6813 1.54362 -1.31067 0
M  V30 54 C 6.0093 1.94195 0.10893 0
M  V30 55 O 5.2643 1.63262 1.07908 0
M  V30 56 C 5.5633 2.83007 -2.1827 0
M  V30 57 C 5.2293 2.62294 -3.6676 0
M  V30 58 C 3.8913 2.56353 -4.0723 0
M  V30 59 C 6.2433 2.43371 -4.6089 0
M  V30 60 C 3.5713 2.29461 -5.39967 0
M  V30 61 C 5.9233 2.18005 -5.93849 0
M  V30 62 C 4.5873 2.105 -6.3344 0
M  V30 63 H 3.8573 0.564851 -0.479609 0
M  V30 64 H 6.5043 0.906028 -1.68711 0
M  V30 65 H 4.8093 3.51253 -1.73576 0
M  V30 66 H 6.5063 3.40817 -2.11292 0
M  V30 67 H 3.0963 2.67774 -3.34656 0
M  V30 68 H 7.2803 2.46959 -4.30494 0
M  V30 69 H 2.5363 2.22135 -5.69619 0
M  V30 70 H 6.7103 2.02359 -6.66351 0
M  V30 71 H 4.3373 1.89425 -7.36222 0
M  V30 72 N 5.9124 1.20967 1.01018 0
M  V30 73 C 6.8754 0.965918 2.07853 0
M  V30 74 C 7.8754 -0.0610545 1.60684 0
M  V30 75 O 9.0654 0.175681 1.73312 0
M  V30 76 C 6.1974 0.455513 3.37843 0
M  V30 77 H 7.3904 1.91365 2.3091 0
M  V30 78 H 4.9434 1.02594 1.17916 0
M  V30 79 H 5.6784 -0.497381 3.20463 0
M  V30 80 H 5.4634 1.19622 3.73407 0
M  V30 81 H 6.9534 0.304667 4.16487 0
M  V30 82 N 7.3905 -1.2043 1.01659 0
M  V30 83 C 8.8015 -1.71517 0.737482 0
M  V30 84 C 9.1525 -1.81547 -0.743973 0
M  V30 85 O 8.2775 -1.47803 -1.58061 0
M  V30 86 C 8.8725 -3.11515 1.33206 0
M  V30 87 C 7.4315 -3.59912 1.10183 0
M  V30 88 C 6.5785 -2.37116 1.43776 0
M  V30 89 H 9.5295 -1.05444 1.18606 0
M  V30 90 H 9.5505 -3.73575 0.722636 0
M  V30 91 H 9.0625 -3.04182 2.41028 0
M  V30 92 H 7.1635 -3.72577 0.0412756 0
M  V30 93 H 7.2765 -4.44731 1.78188 0
M  V30 94 H 5.6405 -2.39857 0.856778 0
M  V30 95 H 6.4235 -2.32424 2.52654 0
M  V30 96 N 8.8686 -0.792821 -1.36206 0
M  V30 97 C 9.8006 -0.151469 -2.28699 0
M  V30 98 C 10.8136 0.641262 -1.49638 0
M  V30 99 O 12.0026 0.475885 -1.72039 0
M  V30 100 C 9.1026 0.808424 -3.29117 0
M  V30 101 C 8.2756 0.0650202 -4.37352 0
M  V30 102 C 7.3346 0.941358 -5.17711 0
M  V30 103 O 6.3606 0.397352 -5.67811 0
M  V30 104 N 7.5626 2.2652 -5.3448 0
M  V30 105 H 10.3276 -0.945982 -2.84379 0
M  V30 106 H 7.8886 -0.647032 -1.48409 0
M  V30 107 H 9.8806 1.3986 -3.79765 0
M  V30 108 H 8.4506 1.5038 -2.74052 0
M  V30 109 H 7.6706 -0.706255 -3.87822 0
M  V30 110 H 8.9586 -0.447847 -5.06825 0
M  V30 111 H 8.3566 2.73128 -4.95396 0
M  V30 112 H 6.9136 2.80493 -5.88359 0
M  V30 113 N 10.3467 1.47872 -0.545128 0
M  V30 114 C 11.6237 1.9554 0.0485222 0
M  V30 115 C 12.0037 1.4876 1.49779 0
M  V30 116 O 11.3517 0.720925 2.16829 0
M  V30 117 C 11.5617 3.48898 -0.084417 0
M  V30 118 C 12.9097 4.24547 0.0671239 0
M  V30 119 O 13.9337 3.56198 -0.0113649 0
M  V30 120 O 12.7927 5.45999 0.233882 0
M  V30 121 H 9.8867 0.823957 0.0708773 0
M  V30 122 H 12.4327 1.58327 -0.610798 0
M  V30 123 H 11.2047 3.75714 -1.09337 0
M  V30 124 H 10.8277 3.92845 0.613066 0
M  V30 125 N 11.8248 0.280983 1.55075 0
M  V30 126 C 12.7348 -0.61388 2.26426 0
M  V30 127 C 13.7508 -1.16521 1.29224 0
M  V30 128 O 14.9268 -1.19426 1.62171 0
M  V30 129 C 11.9918 -1.7788 2.9759 0
M  V30 130 C 11.0528 -1.26355 4.10284 0
M  V30 131 C 10.2858 -2.37295 4.78045 0
M  V30 132 O 10.5088 -3.56777 4.45047 0
M  V30 133 O 9.4428 -2.05119 5.65871 0
M  V30 134 H 13.2688 -0.0356932 3.03679 0
M  V30 135 H 10.8538 0.0481686 1.49322 0
M  V30 136 H 12.7358 -2.45791 3.42293 0
M  V30 137 H 11.4108 -2.34397 2.23249 0
M  V30 138 H 10.3178 -0.550735 3.70024 0
M  V30 139 H 11.6508 -0.744065 4.86543 0
M  V30 140 N 13.3029 -1.57598 0.00835791 0
M  V30 141 C 14.7139 -1.7892 -0.53333 0
M  V30 142 C 15.0649 -0.916609 -1.73473 0
M  V30 143 O 14.1899 -0.121336 -2.1606 0
M  V30 144 C 14.7849 -3.24488 -0.974313 0
M  V30 145 C 13.3439 -3.46878 -1.46125 0
M  V30 146 C 12.4909 -2.74157 -0.416302 0
M  V30 147 H 15.4419 -1.56958 0.234495 0
M  V30 148 H 15.4629 -3.3306 -1.83988 0
M  V30 149 H 14.9749 -3.87972 -0.099718 0
M  V30 150 H 13.0759 -2.8862 -2.35646 0
M  V30 151 H 13.1889 -4.55572 -1.48295 0
M  V30 152 H 11.5529 -2.39022 -0.87981 0
M  V30 153 H 12.3359 -3.40345 0.44947 0
M  V30 154 N 14.781 0.264519 -1.55364 0
M  V30 155 C 16.027 0.992314 -1.77552 0
M  V30 156 C 16.382 1.83626 -0.574379 0
M  V30 157 O 15.675 1.86648 0.432782 0
M  V30 158 C 15.869 1.9004 -3.02687 0
M  V30 159 C 15.698 1.14583 -4.34857 0
M  V30 160 C 14.468 0.858068 -4.97961 0
M  V30 161 C 16.666 0.532069 -5.1154 0
M  V30 162 N 14.648 0.0775974 -6.13851 0
M  V30 163 C 16.019 -0.113823 -6.19896 0
M  V30 164 C 18.074 0.440763 -4.95945 0
M  V30 165 C 16.777 -0.842231 -7.14352 0
M  V30 166 C 18.803 -0.274072 -5.90765 0
M  V30 167 C 18.165 -0.90867 -6.98515 0
M  V30 168 H 14.264 0.344811 -0.701875 0
M  V30 169 H 16.848 0.267141 -1.92859 0
M  V30 170 H 15.019 2.59775 -2.88741 0
M  V30 171 H 16.751 2.56243 -3.13243 0
M  V30 172 H 13.506 1.16547 -4.59036 0
M  V30 173 H 13.93 -0.300216 -6.76334 0
M  V30 174 H 18.572 0.917064 -4.12735 0
M  V30 175 H 16.29 -1.33019 -7.97077 0
M  V30 176 H 19.876 -0.345151 -5.80775 0
M  V30 177 H 18.756 -1.45299 -7.70622 0
M  V30 178 N 16.2591 1.48442 0.529413 0
M  V30 179 C 17.5361 1.46978 1.29062 0
M  V30 180 C 17.9161 0.181769 2.10316 0
M  V30 181 O 17.2641 -0.836481 2.12639 0
M  V30 182 C 17.4741 2.7321 2.17157 0
M  V30 183 C 18.8221 3.21562 2.77278 0
M  V30 184 O 19.8461 2.74131 2.27444 0
M  V30 185 O 18.7051 4.04094 3.67927 0
M  V30 186 H 15.7991 0.587003 0.582543 0
M  V30 187 H 18.3451 1.60676 0.546021 0
M  V30 188 H 17.1171 3.58465 1.56903 0
M  V30 189 H 16.7401 2.62235 2.98862 0
M  V30 190 N 17.7372 -0.778329 1.37039 0
M  V30 191 C 19.1532 -1.07796 1.17695 0
M  V30 192 C 19.3532 -2.01498 0.00860115 0
M  V30 193 O 18.4092 -2.43901 -0.653352 0
M  V30 194 C 19.7222 -1.68178 2.49272 0
M  V30 195 C 21.2702 -1.80467 2.55735 0
M  V30 196 C 21.7452 -2.44263 3.87427 0
M  V30 197 N 23.2362 -2.51721 3.88833 0
M  V30 198 C 23.9712 -3.01919 4.87476 0
M  V30 199 N 23.4672 -3.5234 5.96513 0
M  V30 200 N 25.2602 -3.00733 4.74885 0
M  V30 201 H 17.4112 -0.156032 2.11826 0
M  V30 202 H 19.6742 -0.131844 0.938787 0
M  V30 203 H 19.3802 -1.06796 3.35093 0
M  V30 204 H 19.2542 -2.67554 2.65885 0
M  V30 205 H 21.6412 -2.40984 1.70325 0
M  V30 206 H 21.7222 -0.798656 2.43013 0
M  V30 207 H 21.3662 -1.84388 4.73248 0
M  V30 208 H 21.2962 -3.45458 3.9745 0
M  V30 209 H 23.7872 -2.1603 3.10063 0
M  V30 210 H 24.1002 -3.89027 6.67741 0
M  V30 211 H 22.4452 -3.50462 6.00168 0
M  V30 212 H 25.6362 -2.60638 3.88826 0
M  V30 213 H 25.8092 -3.39545 5.51918 0
M  V30 214 N 19.2153 -1.21501 -1.00376 0
M  V30 215 C 20.1253 -0.991447 -2.12621 0
M  V30 216 C 21.1413 0.0568446 -1.73907 0
M  V30 217 O 22.3173 -0.13348 -2.00957 0
M  V30 218 C 19.3823 -0.560312 -3.42142 0
M  V30 219 C 18.4433 -1.68096 -3.95022 0
M  V30 220 C 17.6763 -1.2703 -5.18362 0
M  V30 221 O 17.8993 -0.144438 -5.70217 0
M  V30 222 O 16.8333 -2.08269 -5.64719 0
M  V30 223 H 20.6593 -1.93158 -2.34358 0
M  V30 224 H 18.2443 -0.999999 -1.10997 0
M  V30 225 H 20.1263 -0.329724 -4.20108 0
M  V30 226 H 18.8013 0.351089 -3.2179 0
M  V30 227 H 17.7083 -1.96597 -3.18278 0
M  V30 228 H 19.0413 -2.56983 -4.19786 0
M  V30 229 N 20.6934 1.19889 -1.02296 0
M  V30 230 C 21.6264 2.21639 -0.543282 0
M  V30 231 C 22.6044 1.57275 0.412698 0
M  V30 232 O 23.7884 1.85568 0.331198 0
M  V30 233 C 20.9154 3.38057 0.208571 0
M  V30 234 C 19.9614 4.20751 -0.697933 0
M  V30 235 S 20.7944 4.89529 -2.17075 0
M  V30 236 C 21.9504 6.09363 -1.42923 0
M  V30 237 H 22.1834 2.61984 -1.40541 0
M  V30 238 H 19.7164 1.30041 -0.832387 0
M  V30 239 H 21.6744 4.05539 0.63624 0
M  V30 240 H 20.3354 2.96159 1.04635 0
M  V30 241 H 19.5284 5.03862 -0.117831 0
M  V30 242 H 19.1304 3.58556 -1.06366 0
M  V30 243 H 21.4224 6.73742 -0.712637 0
M  V30 244 H 22.3654 6.71845 -2.23673 0
M  V30 245 H 22.7734 5.56798 -0.929327 0
M  V30 246 N 22.1715 0.800033 1.35784 0
M  V30 247 C 23.0815 0.207204 2.33683 0
M  V30 248 C 24.0975 -0.64631 1.61551 0
M  V30 249 O 25.2735 -0.559604 1.93469 0
M  V30 250 C 22.3385 -0.639659 3.40748 0
M  V30 251 C 21.3995 0.233585 4.28664 0
M  V30 252 C 20.6325 -0.572954 5.30616 0
M  V30 253 O 20.8555 -1.80816 5.40982 0
M  V30 254 O 19.7895 0.0327285 6.01891 0
M  V30 255 H 23.6155 1.01692 2.86169 0
M  V30 256 H 21.2005 0.561691 1.38439 0
M  V30 257 H 23.0825 -1.12223 4.06182 0
M  V30 258 H 21.7575 -1.42708 2.90544 0
M  V30 259 H 20.6645 0.763147 3.66233 0
M  V30 260 H 21.9975 0.984784 4.82248 0
M  V30 261 N 23.6496 -1.47581 0.552962 0
M  V30 262 C 24.8956 -2.02782 0.0273648 0
M  V30 263 C 25.2286 -1.42687 -1.31734 0
M  V30 264 O 24.5036 -0.580897 -1.85623 0
M  V30 265 C 24.7866 -3.60031 -0.0702371 0
M  V30 266 C 24.6396 -4.30566 1.30126 0
M  V30 267 C 25.9586 -4.33028 -0.785771 0
M  V30 268 H 23.0776 -0.736912 0.0114185 0
M  V30 269 H 25.7196 -1.76056 0.714432 0
M  V30 270 H 23.8696 -3.82932 -0.655382 0
M  V30 271 H 25.5416 -4.19018 1.92929 0
M  V30 272 H 23.7846 -3.91086 1.87709 0
M  V30 273 H 24.4556 -5.39114 1.18573 0
M  V30 274 H 26.9316 -4.15095 -0.288982 0
M  V30 275 H 25.8076 -5.42695 -0.823013 0
M  V30 276 H 26.0686 -4.01945 -1.841 0
M  V30 277 N 25.1277 -0.289203 -1.54924 0
M  V30 278 C 26.3747 0.323519 -1.99899 0
M  V30 279 C 26.7027 1.54797 -1.17762 0
M  V30 280 O 25.9577 1.94237 -0.238835 0
M  V30 281 C 26.2567 0.736119 -3.49737 0
M  V30 282 C 25.9227 -0.385276 -4.49251 0
M  V30 283 C 24.5847 -0.693156 -4.76181 0
M  V30 284 C 26.9367 -1.14021 -5.08575 0
M  V30 285 C 24.2647 -1.7593 -5.59701 0
M  V30 286 C 26.6167 -2.19619 -5.93254 0
M  V30 287 C 25.2807 -2.51026 -6.185 0
M  V30 288 H 24.5507 0.118384 -0.731482 0
M  V30 289 H 27.1977 -0.405847 -1.8715 0
M  V30 290 H 25.5027 1.54539 -3.60035 0
M  V30 291 H 27.1997 1.22118 -3.81953 0
M  V30 292 H 23.7897 -0.135202 -4.28387 0
M  V30 293 H 27.9737 -0.915611 -4.87781 0
M  V30 294 H 23.2297 -2.0075 -5.77503 0
M  V30 295 H 27.4037 -2.78581 -6.38252 0
M  V30 296 H 25.0307 -3.33772 -6.83008 0
M  V30 297 N 26.6058 1.57591 -0.0167156 0
M  V30 298 C 27.8308 1.9598 0.67872 0
M  V30 299 C 28.2558 0.892546 1.65575 0
M  V30 300 O 27.6138 -0.147772 1.80697 0
M  V30 301 C 27.6618 3.33468 1.37227 0
M  V30 302 O 26.7658 3.28954 2.48722 0
M  V30 303 H 26.1068 0.639339 0.17928 0
M  V30 304 H 28.6368 2.04463 -0.0748802 0
M  V30 305 H 28.6468 3.69417 1.7319 0
M  V30 306 H 27.3218 4.10694 0.656007 0
M  V30 307 H 25.8988 3.04705 2.14963 0
M  V30 308 N 28.0839 -0.256276 1.55502 0
M  V30 309 C 29.3319 -0.983672 1.76545 0
M  V30 310 C 29.6529 -1.86206 0.578982 0
M  V30 311 O 28.9229 -1.91656 -0.405577 0
M  V30 312 H 27.5029 -0.366191 0.651086 0
M  V30 313 H 30.1649 -0.276479 1.92929 0
M  V30 314 H 29.2609 -1.61087 2.67315 0
M  V30 315 N 29.562 -1.4872 -0.521534 0
M  V30 316 C 30.81 -1.56857 -1.27437 0
M  V30 317 C 31.131 -0.247982 -1.93417 0
M  V30 318 O 30.401 0.731151 -1.81744 0
M  V30 319 H 28.981 -0.577885 -0.473347 0
M  V30 320 H 31.643 -1.85233 -0.606205 0
M  V30 321 H 30.739 -2.35402 -2.0492 0
M  V30 322 N 31.0401 0.771051 -1.3745 0
M  V30 323 C 32.2881 1.52661 -1.32435 0
M  V30 324 C 32.6091 1.9479 0.0905024 0
M  V30 325 O 31.8791 1.66348 1.03466 0
M  V30 326 H 30.4591 0.566218 -0.487244 0
M  V30 327 H 33.1211 0.917636 -1.71946 0
M  V30 328 H 32.2171 2.42568 -1.96385 0
M  V30 329 N 32.5182 1.22032 0.997298 0
M  V30 330 C 33.4812 0.987909 2.06816 0
M  V30 331 C 34.4812 -0.0440084 1.6074 0
M  V30 332 O 35.6712 0.194053 1.73116 0
M  V30 333 C 32.8032 0.49132 3.37341 0
M  V30 334 H 33.9962 1.93803 2.28868 0
M  V30 335 H 31.5492 1.03838 1.16822 0
M  V30 336 H 32.2842 -0.463364 3.20973 0
M  V30 337 H 32.0692 1.23575 3.72118 0
M  V30 338 H 33.5592 0.348824 4.16141 0
M  V30 339 N 33.9963 -1.19345 1.0293 0
M  V30 340 C 35.2213 -1.93538 0.745511 0
M  V30 341 C 35.6463 -1.75007 -0.689511 0
M  V30 342 O 35.0043 -1.05265 -1.47611 0
M  V30 343 C 35.0523 -3.43336 1.10239 0
M  V30 344 O 34.1563 -4.11806 0.221289 0
M  V30 345 H 33.4973 -0.604193 0.275404 0
M  V30 346 H 36.0273 -1.5141 1.37609 0
M  V30 347 H 36.0373 -3.94004 1.05947 0
M  V30 348 H 34.7123 -3.56146 2.14786 0
M  V30 349 H 33.2893 -3.715 0.322842 0
M  V30 350 N 35.4744 -0.807222 -1.35358 0
M  V30 351 C 36.6994 -0.399309 -2.0352 0
M  V30 352 C 37.1244 0.981986 -1.60433 0
M  V30 353 O 36.4824 1.63601 -0.781299 0
M  V30 354 C 36.5304 -0.491552 -3.57234 0
M  V30 355 O 35.6344 0.494754 -4.09421 0
M  V30 356 H 34.9754 -0.166682 -0.642739 0
M  V30 357 H 37.5054 -1.09328 -1.72941 0
M  V30 358 H 37.5154 -0.361588 -4.06395 0
M  V30 359 H 36.1904 -1.49907 -3.87944 0
M  V30 360 H 34.7674 0.324977 -3.71481 0
M  V30 361 N 36.9525 1.47285 -0.560781 0
M  V30 362 C 38.2005 2.02064 -0.0379868 0
M  V30 363 C 38.5215 1.43711 1.31803 0
M  V30 364 O 37.7915 0.61362 1.86042 0
M  V30 365 H 36.3715 0.746918 -0.0110531 0
M  V30 366 H 39.0335 1.80648 -0.731598 0
M  V30 367 H 38.1295 3.12064 0.0474463 0
M  V30 368 N 38.4306 0.297415 1.54768 0
M  V30 369 C 39.3406 -0.58983 2.27064 0
M  V30 370 C 40.3566 -1.15144 1.30453 0
M  V30 371 O 41.5326 -1.17699 1.63428 0
M  V30 372 C 38.5976 -1.74714 2.9946 0
M  V30 373 C 37.6586 -1.21997 4.11601 0
M  V30 374 C 36.8916 -2.32212 4.80535 0
M  V30 375 O 37.1146 -3.52036 4.48806 0
M  V30 376 O 36.0486 -1.99106 5.68014 0
M  V30 377 H 39.8746 -0.00348199 3.037 0
M  V30 378 H 37.4596 0.0640035 1.49263 0
M  V30 379 H 39.3416 -2.42147 3.44881 0
M  V30 380 H 38.0166 -2.32016 2.25722 0
M  V30 381 H 36.9236 -0.511458 3.70587 0
M  V30 382 H 38.2566 -0.692419 4.87305 0
M  V30 383 N 39.9087 -1.5758 0.0250728 0
M  V30 384 C 41.1547 -1.91917 -0.655413 0
M  V30 385 C 41.4877 -0.901433 -1.72011 0
M  V30 386 O 40.7627 0.0764069 -1.9435 0
M  V30 387 C 41.0457 -3.36751 -1.27558 0
M  V30 388 C 40.8987 -4.49258 -0.220719 0
M  V30 389 C 42.2177 -3.81469 -2.19475 0
M  V30 390 H 39.3367 -0.697925 -0.23679 0
M  V30 391 H 41.9787 -1.89825 0.0815036 0
M  V30 392 H 40.1287 -3.38664 -1.90365 0
M  V30 393 H 41.8007 -4.59478 0.409601 0
M  V30 394 H 40.0437 -4.31415 0.454264 0
M  V30 395 H 40.7147 -5.47618 -0.694175 0
M  V30 396 H 43.1907 -3.81266 -1.66659 0
M  V30 397 H 42.0667 -4.83512 -2.59822 0
M  V30 398 H 42.3277 -3.16744 -3.08424 0
M  V30 399 N 41.3868 0.248026 -1.55636 0
M  V30 400 C 42.3348 1.32683 -1.91045 0
M  V30 401 C 43.3288 1.49883 -0.789401 0
M  V30 402 O 44.5348 1.51371 -0.974007 0
M  V30 403 H 40.9098 0.444272 -0.606734 0
M  V30 404 H 42.8808 1.00085 -2.81115 0
M  V30 405 C 41.6298 2.6755 -2.22064 0
M  V30 406 H 40.9528 2.55114 -3.07826 0
M  V30 407 H 42.3928 3.41912 -2.50743 0
M  V30 408 C 40.8518 3.20556 -1.0366 0
M  V30 409 O 41.3818 4.00695 -0.284016 0
M  V30 410 N 39.5878 2.78568 -0.82753 0
M  V30 411 H 39.1348 2.1351 -1.44123 0
M  V30 412 H 39.0928 3.14378 -0.0369803 0
M  V30 413 N 42.8649 1.48995 0.513639 0
M  V30 414 C 44.1129 1.57531 1.26604 0
M  V30 415 C 44.4339 0.258236 1.93283 0
M  V30 416 O 43.7039 -0.721502 1.8213 0
M  V30 417 H 42.2839 0.580387 0.470276 0
M  V30 418 H 44.9459 1.85552 0.596373 0
M  V30 419 H 44.0419 2.36486 2.03669 0
M  V30 420 N 44.343 -0.763751 1.37857 0
M  V30 421 C 45.273 -1.89103 1.36975 0
M  V30 422 C 46.254 -1.68439 0.237152 0
M  V30 423 O 47.439 -1.8918 0.438713 0
M  V30 424 C 44.569 -3.26496 1.18395 0
M  V30 425 C 43.523 -3.61741 2.28751 0
M  V30 426 C 42.849 -4.97762 1.95286 0
M  V30 427 C 44.149 -3.67665 3.70972 0
M  V30 428 H 45.843 -1.90099 2.31307 0
M  V30 429 H 43.389 -0.91319 1.11341 0
M  V30 430 H 45.342 -4.05003 1.16406 0
M  V30 431 H 44.066 -3.25955 0.205215 0
M  V30 432 H 42.725 -2.85547 2.29909 0
M  V30 433 H 42.373 -4.93769 0.959221 0
M  V30 434 H 42.073 -5.22313 2.69189 0
M  V30 435 H 43.597 -5.7866 1.94898 0
M  V30 436 H 45.011 -4.36307 3.719 0
M  V30 437 H 43.408 -4.03718 4.43995 0
M  V30 438 H 44.478 -2.68134 4.0402 0
M  V30 439 N 45.8211 -1.22559 -0.990812 0
M  V30 440 C 46.7681 -0.997519 -2.0813 0
M  V30 441 C 47.7381 0.0814702 -1.659 0
M  V30 442 O 48.9231 -0.0685424 -1.90677 0
M  V30 443 C 46.0631 -0.583615 -3.40129 0
M  V30 444 C 45.1761 -1.7336 -3.9569 0
M  V30 445 C 44.3111 -1.26748 -5.15857 0
M  V30 446 C 43.3501 -2.38888 -5.63559 0
M  V30 447 N 42.4871 -1.93308 -6.74964 0
M  V30 448 H 47.3271 -1.93099 -2.26973 0
M  V30 449 H 44.8641 -0.962114 -1.11273 0
M  V30 450 H 46.8221 -0.324801 -4.15934 0
M  V30 451 H 45.4521 0.312845 -3.2128 0
M  V30 452 H 44.5041 -2.10669 -3.16738 0
M  V30 453 H 45.8161 -2.57704 -4.27071 0
M  V30 454 H 44.9701 -0.966173 -5.98957 0
M  V30 455 H 43.7091 -0.394272 -4.86104 0
M  V30 456 H 42.7141 -2.69805 -4.79046 0
M  V30 457 H 43.9391 -3.26728 -5.95336 0
M  V30 458 H 41.8851 -1.08352 -6.4699 0
M  V30 459 H 41.8021 -2.71217 -7.05675 0
M  V30 460 H 43.0701 -1.66252 -7.61564 0
M  V30 461 N 47.2992 1.18797 -1.03562 0
M  V30 462 C 48.2322 2.2105 -0.56676 0
M  V30 463 C 49.2102 1.57704 0.395993 0
M  V30 464 O 50.3942 1.85908 0.311498 0
M  V30 465 C 47.5212 3.38259 0.172704 0
M  V30 466 C 46.5672 4.19987 -0.74252 0
M  V30 467 S 47.4002 4.87199 -2.22254 0
M  V30 468 C 48.5562 6.07813 -1.49379 0
M  V30 469 H 48.7892 2.60478 -1.43312 0
M  V30 470 H 46.3222 1.29151 -0.846133 0
M  V30 471 H 48.2802 4.06191 0.593191 0
M  V30 472 H 46.9412 2.97252 1.01488 0
M  V30 473 H 46.1342 5.03709 -0.171265 0
M  V30 474 H 45.7362 3.57408 -1.10163 0
M  V30 475 H 48.0282 6.72948 -0.784056 0
M  V30 476 H 48.9712 6.69435 -2.30786 0
M  V30 477 H 49.3792 5.55781 -0.988331 0
M  V30 478 N 48.7773 0.814389 1.34928 0
M  V30 479 C 50.0233 0.399013 1.98836 0
M  V30 480 C 50.3563 -1.03314 1.64438 0
M  V30 481 O 49.6313 -1.71811 0.911659 0
M  V30 482 C 49.9143 0.591629 3.55207 0
M  V30 483 C 49.7673 2.06928 3.99376 0
M  V30 484 C 51.0863 0.022199 4.40094 0
M  V30 485 H 48.2053 0.146451 0.722303 0
M  V30 486 H 50.8473 1.02537 1.59957 0
M  V30 487 H 48.9973 0.0584441 3.88456 0
M  V30 488 H 50.6693 2.66544 3.76499 0
M  V30 489 H 48.9123 2.56287 3.49999 0
M  V30 490 H 49.5833 2.1549 5.08201 0
M  V30 491 H 52.0593 0.477643 4.13349 0
M  V30 492 H 50.9353 0.186832 5.48582 0
M  V30 493 H 51.1963 -1.07215 4.28902 0
M  V30 494 N 50.2554 -1.46986 0.568584 0
M  V30 495 C 51.5324 -1.95592 -0.0174074 0
M  V30 496 C 51.9124 -1.51124 -1.47393 0
M  V30 497 O 51.2604 -0.755329 -2.15655 0
M  V30 498 C 51.4704 -3.48719 0.139913 0
M  V30 499 C 52.8184 -4.246 0.000426376 0
M  V30 500 O 53.8424 -3.56135 0.0680316 0
M  V30 501 O 52.7014 -5.46302 -0.146988 0
M  V30 502 H 49.7954 -0.82498 -0.0577599 0
M  V30 503 H 52.3414 -1.57335 0.635909 0
M  V30 504 H 51.1134 -3.73927 1.15301 0
M  V30 505 H 50.7364 -3.93771 -0.550491 0
M  V30 506 N 51.7335 -0.305618 -1.54608 0
M  V30 507 C 52.6435 0.57778 -2.27374 0
M  V30 508 C 53.6595 1.14451 -1.31061 0
M  V30 509 O 54.8355 1.16831 -1.6405 0
M  V30 510 C 51.9005 1.73123 -3.00382 0
M  V30 511 C 50.9615 1.19812 -4.12242 0
M  V30 512 C 50.1945 2.2966 -4.81759 0
M  V30 513 O 50.4175 3.49651 -4.50666 0
M  V30 514 O 49.3515 1.96091 -5.69062 0
M  V30 515 H 53.1775 -0.012624 -3.03697 0
M  V30 516 H 50.7625 -0.0719184 -1.49227 0
M  V30 517 H 52.6445 2.40315 -3.4616 0
M  V30 518 H 51.3195 2.30815 -2.26949 0
M  V30 519 H 50.2265 0.491798 -3.70853 0
M  V30 520 H 51.5595 0.666566 -4.87666 0
M  V30 521 N 53.2116 1.57565 -0.0334293 0
M  V30 522 C 54.6226 1.79746 0.504798 0
M  V30 523 C 54.9736 0.944091 1.71992 0
M  V30 524 O 54.0986 0.155694 2.15839 0
M  V30 525 C 54.6936 3.25997 0.922567 0
M  V30 526 C 53.2526 3.49159 1.40588 0
M  V30 527 C 52.3996 2.74785 0.372633 0
M  V30 528 H 55.3506 1.56565 -0.259436 0
M  V30 529 H 55.3716 3.35945 1.78666 0
M  V30 530 H 54.8836 3.88081 0.0379825 0
M  V30 531 H 52.9846 2.92332 2.31025 0
M  V30 532 H 53.0976 4.57873 1.41028 0
M  V30 533 H 51.4616 2.40391 0.841672 0
M  V30 534 H 52.2446 3.39587 -0.503559 0
M  V30 535 N 54.6897 -0.239769 1.55765 0
M  V30 536 C 55.6227 -1.32356 1.85895 0
M  V30 537 C 56.6007 -1.46053 0.714662 0
M  V30 538 O 57.7847 -1.62154 0.961157 0
M  V30 539 C 54.9117 -2.6962 2.04994 0
M  V30 540 C 53.9577 -2.73036 3.27648 0
M  V30 541 S 54.7907 -2.28929 4.84099 0
M  V30 542 C 55.9467 -3.68103 5.06212 0
M  V30 543 H 56.1797 -1.06601 2.77531 0
M  V30 544 H 53.7127 -0.441112 1.47965 0
M  V30 545 H 55.6707 -3.48653 2.16682 0
M  V30 546 H 54.3317 -2.92609 1.14188 0
M  V30 547 H 53.5247 -3.7386 3.38 0
M  V30 548 H 53.1267 -2.02052 3.14723 0
M  V30 549 H 55.4187 -4.63656 4.93993 0
M  V30 550 H 56.3617 -3.6268 6.08168 0
M  V30 551 H 56.7697 -3.60947 4.34025 0
M  V30 552 N 56.1678 -1.49265 -0.50573 0
M  V30 553 C 57.0778 -1.68312 -1.63427 0
M  V30 554 C 58.0938 -0.565682 -1.64548 0
M  V30 555 O 59.2698 -0.839801 -1.83055 0
M  V30 556 C 56.3348 -1.74107 -2.99813 0
M  V30 557 C 55.3958 -2.97653 -3.09356 0
M  V30 558 C 54.6288 -3.03163 -4.39236 0
M  V30 559 O 54.8518 -2.16396 -5.27758 0
M  V30 560 O 53.7858 -3.9558 -4.53652 0
M  V30 561 H 57.6118 -2.63907 -1.50289 0
M  V30 562 H 55.1968 -1.32951 -0.681502 0
M  V30 563 H 57.0788 -1.803 -3.80881 0
M  V30 564 H 55.7538 -0.816901 -3.13223 0
M  V30 565 H 54.6608 -2.96981 -2.27493 0
M  V30 566 H 55.9938 -3.89535 -3.00871 0
M  V30 567 N 57.6459 0.756429 -1.3826 0
M  V30 568 C 58.5559 1.9009 -1.37488 0
M  V30 569 C 59.5719 1.71855 -0.272366 0
M  V30 570 O 60.7479 1.94827 -0.510318 0
M  V30 571 C 57.8129 3.25421 -1.19592 0
M  V30 572 C 56.8739 3.56202 -2.39622 0
M  V30 573 C 56.1069 4.85075 -2.2257 0
M  V30 574 O 56.3299 5.57246 -1.21793 0
M  V30 575 O 55.2639 5.15269 -3.11098 0
M  V30 576 H 59.0899 1.93695 -2.33914 0
M  V30 577 H 56.6749 0.901313 -1.1915 0
M  V30 578 H 58.5569 4.06337 -1.11661 0
M  V30 579 H 57.2319 3.22634 -0.262486 0
M  V30 580 H 56.1389 2.75458 -2.53128 0
M  V30 581 H 57.4719 3.63747 -3.31586 0
M  V30 582 N 59.124 1.23083 0.984299 0
M  V30 583 C 60.372 1.05848 1.72165 0
M  V30 584 C 60.693 -0.406049 1.90726 0
M  V30 585 O 59.963 -1.29139 1.47309 0
M  V30 586 H 58.543 0.388685 0.637913 0
M  V30 587 H 61.205 1.54736 1.18503 0
M  V30 588 H 60.301 1.54327 2.71274 0
M  V30 589 N 60.6021 -1.18246 1.0419 0
M  V30 590 C 61.5121 -2.25574 0.644476 0
M  V30 591 C 62.5281 -1.70845 -0.329826 0
M  V30 592 O 63.7041 -2.00554 -0.184443 0
M  V30 593 C 60.7691 -3.46697 0.014877 0
M  V30 594 C 59.8301 -4.16554 1.03834 0
M  V30 595 C 59.0631 -5.31894 0.438692 0
M  V30 596 O 59.2861 -5.65385 -0.754752 0
M  V30 597 O 58.2201 -5.90459 1.168 0
M  V30 598 H 62.0461 -2.61836 1.53869 0
M  V30 599 H 59.6311 -1.25352 0.812854 0
M  V30 600 H 61.5131 -4.20062 -0.335538 0
M  V30 601 H 60.1881 -3.12255 -0.853138 0
M  V30 602 H 59.0951 -3.45251 1.44057 0
M  V30 603 H 60.4281 -4.54998 1.87716 0
M  V30 604 N 62.0802 -0.821533 -1.34494 0
M  V30 605 C 63.0432 -0.247847 -2.27856 0
M  V30 606 C 64.0432 0.573453 -1.50227 0
M  V30 607 O 65.2332 0.389759 -1.69784 0
M  V30 608 C 62.3652 0.652698 -3.34593 0
M  V30 609 H 63.5582 -1.07146 -2.80107 0
M  V30 610 H 61.1112 -0.593291 -1.44602 0
M  V30 611 H 61.8462 1.49943 -2.87555 0
M  V30 612 H 61.6312 0.065292 -3.92046 0
M  V30 613 H 63.1212 1.04793 -4.04238 0
M  V30 614 N 63.5583 1.46682 -0.576371 0
M  V30 615 C 64.8353 1.95599 0.00703437 0
M  V30 616 C 65.2153 1.51904 1.46589 0
M  V30 617 O 64.5633 0.766755 2.15251 0
M  V30 618 C 64.7733 3.4864 -0.158404 0
M  V30 619 C 66.1213 4.24594 -0.0229439 0
M  V30 620 O 67.1453 3.56094 -0.0869173 0
M  V30 621 O 66.0043 5.46373 0.118015 0
M  V30 622 H 63.0983 0.825275 0.053384 0
M  V30 623 H 65.6443 1.56996 -0.644244 0
M  V30 624 H 64.4163 3.7331 -1.17282 0
M  V30 625 H 64.0393 3.94057 0.5296 0
M  V30 626 N 65.0364 0.313813 1.54444 0
M  V30 627 C 66.2614 -0.296681 2.05267 0
M  V30 628 C 66.6864 -1.45757 1.18897 0
M  V30 629 O 66.0444 -1.80239 0.195886 0
M  V30 630 C 66.0924 -0.71831 3.53373 0
M  V30 631 O 65.1964 -1.82175 3.69981 0
M  V30 632 H 64.5374 -0.0554061 0.661684 0
M  V30 633 H 67.0674 0.459387 1.99376 0
M  V30 634 H 67.0774 -1.00364 3.95463 0
M  V30 635 H 65.7524 0.130821 4.15694 0
M  V30 636 H 64.3294 -1.53598 3.39797 0
M  V30 637 N 66.5145 -1.57545 0.0417849 0
M  V30 638 C 67.7545 -1.94185 -0.63809 0
M  V30 639 C 68.1185 -0.919339 -1.68559 0
M  V30 640 O 69.3195 -1.17236 -2.41886 0
M  V30 641 C 67.5905 -3.35672 -1.22714 0
M  V30 642 S 69.1495 -3.94256 -1.92633 0
M  V30 643 H 65.9675 -0.679353 -0.209764 0
M  V30 644 H 68.5695 -1.95199 0.108479 0
M  V30 645 H 67.2735 -4.07898 -0.452503 0
M  V30 646 H 66.8045 -3.38132 -2.01073 0
M  V30 647 H 68.8195 -3.7872 -3.20602 0
M  V30 648 N 67.9926 0.231505 -1.5589 0
M  V30 649 C 68.9426 1.29007 -1.87993 0
M  V30 650 C 69.9266 1.42764 -0.742102 0
M  V30 651 O 71.1186 1.45747 -1.00433 0
M  V30 652 C 68.2476 2.6425 -2.1915 0
M  V30 653 C 67.3336 2.54435 -3.39299 0
M  V30 654 N 67.7246 2.14262 -4.58176 0
M  V30 655 C 66.0226 2.85416 -3.42715 0
M  V30 656 C 66.7236 2.15455 -5.40328 0
M  V30 657 N 65.6996 2.55558 -4.79783 0
M  V30 658 H 69.5016 0.970213 -2.77424 0
M  V30 659 H 67.0156 0.440097 -1.56323 0
M  V30 660 H 69.0126 3.40665 -2.40319 0
M  V30 661 H 67.6726 2.9709 -1.31025 0
M  V30 662 H 68.6836 1.85554 -4.83518 0
M  V30 663 H 65.3606 3.22693 -2.64906 0
M  V30 664 H 66.7506 1.86605 -6.45467 0
M  V30 665 N 69.4707 1.49531 0.497807 0
M  V30 666 C 70.7477 1.49682 1.25915 0
M  V30 667 C 71.1277 0.226339 2.09883 0
M  V30 668 O 70.4757 -0.791189 2.14365 0
M  V30 669 C 70.6857 2.77755 2.11313 0
M  V30 670 C 72.0337 3.27371 2.70395 0
M  V30 671 O 73.0577 2.78894 2.21578 0
M  V30 672 O 71.9167 4.11808 3.59272 0
M  V30 673 H 69.0107 0.599228 0.56996 0
M  V30 674 H 71.5567 1.61798 0.511816 0
M  V30 675 H 70.3287 3.61713 1.49264 0
M  V30 676 H 69.9517 2.68515 2.93233 0
M  V30 677 N 70.9488 -0.749086 1.3866 0
M  V30 678 C 71.8588 -1.89358 1.38494 0
M  V30 679 C 72.8748 -1.71708 0.281476 0
M  V30 680 O 74.0508 -1.94554 0.520643 0
M  V30 681 C 71.1158 -3.24782 1.21316 0
M  V30 682 C 70.1768 -3.54926 2.41508 0
M  V30 683 C 69.4098 -4.83888 2.2514 0
M  V30 684 O 69.6328 -5.56592 1.24746 0
M  V30 685 O 68.5668 -5.13612 3.13826 0
M  V30 686 H 72.3928 -1.92452 2.34938 0
M  V30 687 H 69.9778 -0.894981 1.19626 0
M  V30 688 H 71.8598 -4.05739 1.13814 0
M  V30 689 H 70.5348 -3.2249 0.279592 0
M  V30 690 H 69.4418 -2.74112 2.54585 0
M  V30 691 H 70.7748 -3.61983 3.3351 0
M  V30 692 N 72.4269 -1.23603 -0.977757 0
M  V30 693 C 73.6749 -1.06759 -1.71601 0
M  V30 694 C 73.9959 0.395929 -1.90938 0
M  V30 695 O 73.2659 1.28356 -1.47992 0
M  V30 696 H 71.8459 -0.392062 -0.635843 0
M  V30 697 H 74.5079 -1.55362 -1.1768 0
M  V30 698 H 73.6039 -1.55763 -2.70452 0
M  V30 699 N 73.905 1.17692 -1.04816 0
M  V30 700 C 75.151 1.88137 -0.75711 0
M  V30 701 C 75.484 1.80604 0.713841 0
M  V30 702 O 74.759 1.21146 1.52164 0
M  V30 703 C 75.042 3.38318 -1.2334 0
M  V30 704 C 74.895 3.54622 -2.76701 0
M  V30 705 C 76.214 4.32214 -0.829415 0
M  V30 706 H 73.333 0.683163 -0.27651 0
M  V30 707 H 75.975 1.38424 -1.30149 0
M  V30 708 H 74.125 3.80787 -0.770286 0
M  V30 709 H 75.797 3.21194 -3.31107 0
M  V30 710 H 74.04 2.97026 -3.16161 0
M  V30 711 H 74.711 4.60028 -3.05088 0
M  V30 712 H 77.187 3.97565 -1.22805 0
M  V30 713 H 76.063 5.35838 -1.19033 0
M  V30 714 H 76.324 4.41294 0.266891 0
M  V30 715 N 75.3831 0.828654 1.34056 0
M  V30 716 C 76.6291 0.42008 1.98402 0
M  V30 717 C 76.9621 -1.01564 1.65525 0
M  V30 718 O 76.2371 -1.70834 0.929831 0
M  V30 719 C 76.5201 0.62927 3.54559 0
M  V30 720 C 76.3731 2.11152 3.97159 0
M  V30 721 C 77.6921 0.0688756 4.40046 0
M  V30 722 H 74.8111 0.154104 0.720709 0
M  V30 723 H 77.4531 1.04228 1.5886 0
M  V30 724 H 75.6031 0.0996418 3.88372 0
M  V30 725 H 77.2751 2.70522 3.73651 0
M  V30 726 H 75.5181 2.59985 3.47261 0
M  V30 727 H 76.1891 2.20868 5.05887 0
M  V30 728 H 78.6651 0.521458 4.1282 0
M  V30 729 H 77.5411 0.245006 5.48353 0
M  V30 730 H 77.8021 -1.0266 4.30015 0
M  V30 731 N 76.8612 -1.46375 0.584142 0
M  V30 732 C 77.8082 -2.30323 -0.148286 0
M  V30 733 C 78.7782 -1.40703 -0.882713 0
M  V30 734 O 79.9632 -1.69651 -0.873099 0
M  V30 735 C 77.1032 -3.25196 -1.15507 0
M  V30 736 C 76.2162 -4.29915 -0.423943 0
M  V30 737 C 75.3512 -5.11914 -1.41838 0
M  V30 738 C 74.3902 -6.08381 -0.673736 0
M  V30 739 N 73.5272 -6.83242 -1.6163 0
M  V30 740 H 78.3672 -2.92427 0.573644 0
M  V30 741 H 75.9042 -1.44118 0.294703 0
M  V30 742 H 77.8622 -3.78646 -1.75166 0
M  V30 743 H 76.4922 -2.64898 -1.8447 0
M  V30 744 H 75.5442 -3.7931 0.287714 0
M  V30 745 H 76.8562 -4.98549 0.158128 0
M  V30 746 H 76.0102 -5.69648 -2.08773 0
M  V30 747 H 74.7492 -4.43243 -2.03438 0
M  V30 748 H 73.7542 -5.49799 0.00938483 0
M  V30 749 H 74.9792 -6.79071 -0.0631082 0
M  V30 750 H 72.9252 -6.1728 -2.22038 0
M  V30 751 H 72.8422 -7.48144 -1.08707 0
M  V30 752 H 74.1102 -7.45534 -2.27596 0
M  V30 753 N 78.3393 -0.321999 -1.54275 0
M  V30 754 C 79.2493 0.553631 -2.27974 0
M  V30 755 C 80.2653 1.13054 -1.32268 0
M  V30 756 O 81.4413 1.15084 -1.6528 0
M  V30 757 C 78.5063 1.69927 -3.02201 0
M  V30 758 C 77.5673 1.15433 -4.1349 0
M  V30 759 C 76.8003 2.24537 -4.84168 0
M  V30 760 O 77.0233 3.44852 -4.5435 0
M  V30 761 O 75.9573 1.90044 -5.7111 0
M  V30 762 H 79.7833 -0.0448345 -3.03667 0
M  V30 763 H 77.3683 -0.0877418 -1.49142 0
M  V30 764 H 79.2503 2.3663 -3.48689 0
M  V30 765 H 77.9253 2.28395 -2.29385 0
M  V30 766 H 76.8323 0.452436 -3.71354 0
M  V30 767 H 78.1653 0.614805 -4.88345 0
M  V30 768 N 79.8174 1.5752 -0.0501392 0
M  V30 769 C 81.0664 1.91827 0.623328 0
M  V30 770 C 81.3794 0.930222 1.72065 0
M  V30 771 O 82.5854 1.1653 2.4522 0
M  V30 772 C 81.0414 3.40692 1.16003 0
M  V30 773 C 80.6494 4.479 0.0948811 0
M  V30 774 C 82.3934 3.84034 1.80881 0
M  V30 775 C 80.3004 5.87879 0.644411 0
M  V30 776 H 79.2304 0.715918 0.236596 0
M  V30 777 H 81.8814 1.83115 -0.118861 0
M  V30 778 H 80.2634 3.44405 1.9545 0
M  V30 779 H 81.4374 4.55775 -0.678675 0
M  V30 780 H 79.7524 4.13892 -0.45637 0
M  V30 781 H 82.3494 4.85984 2.22988 0
M  V30 782 H 82.6924 3.20225 2.6601 0
M  V30 783 H 83.2254 3.82833 1.0809 0
M  V30 784 H 79.9644 6.55282 -0.169229 0
M  V30 785 H 79.4844 5.83567 1.38598 0
M  V30 786 H 81.1634 6.37098 1.12763 0
M  V30 787 N 81.2955 -0.223234 1.56011 0
M  V30 788 C 82.7065 -0.790368 1.69145 0
M  V30 789 C 83.0575 -1.85055 0.651845 0
M  V30 790 O 82.1825 -2.15498 -0.197359 0
M  V30 791 C 82.7775 -1.4404 3.06656 0
M  V30 792 C 81.3365 -1.95494 3.2165 0
M  V30 793 C 80.4835 -0.814506 2.65068 0
M  V30 794 H 83.4345 0.00139011 1.587 0
M  V30 795 H 83.4555 -2.30916 3.0242 0
M  V30 796 H 82.9675 -0.668543 3.82298 0
M  V30 797 H 81.0685 -2.75487 2.50874 0
M  V30 798 H 81.1815 -2.13607 4.28846 0
M  V30 799 H 79.5455 -1.22137 2.23505 0
M  V30 800 H 80.3285 -0.0553515 3.43255 0
M  V30 801 N 82.7736 -1.49793 -0.48987 0
M  V30 802 C 84.0226 -1.59085 -1.23995 0
M  V30 803 C 84.3356 -0.287907 -1.9347 0
M  V30 804 O 85.5416 -0.259506 -2.70257 0
M  V30 805 C 83.9976 -2.80736 -2.252 0
M  V30 806 C 83.6056 -4.17833 -1.61614 0
M  V30 807 C 85.3496 -2.99364 -3.00967 0
M  V30 808 C 83.2566 -5.30693 -2.60996 0
M  V30 809 H 82.1866 -0.592372 -0.466488 0
M  V30 810 H 84.8376 -1.76197 -0.51252 0
M  V30 811 H 83.2196 -2.57142 -3.01154 0
M  V30 812 H 84.3936 -4.51608 -0.915774 0
M  V30 813 H 82.7086 -4.04656 -0.981977 0
M  V30 814 H 85.3056 -3.80851 -3.75308 0
M  V30 815 H 85.6486 -2.10356 -3.59244 0
M  V30 816 H 86.1816 -3.2305 -2.32128 0
M  V30 817 H 82.9206 -6.21796 -2.07485 0
M  V30 818 H 82.4406 -5.01359 -3.2924 0
M  V30 819 H 84.1196 -5.6049 -3.23202 0
M  V30 820 N 84.2517 0.741722 -1.39055 0
M  V30 821 C 85.4797 1.53098 -1.39171 0
M  V30 822 C 85.8947 1.88794 0.0155099 0
M  V30 823 O 85.2517 1.53626 0.985159 0
M  V30 824 C 85.3027 2.82274 -2.2584 0
M  V30 825 O 85.0237 2.48097 -3.61081 0
M  V30 826 C 86.5247 3.76343 -2.34266 0
M  V30 827 H 83.7447 0.473335 -0.4756 0
M  V30 828 H 86.2887 0.917045 -1.82785 0
M  V30 829 H 84.4437 3.40015 -1.85656 0
M  V30 830 H 84.8577 3.31029 -4.06842 0
M  V30 831 H 86.3317 4.63898 -2.9917 0
M  V30 832 H 86.8087 4.17619 -1.35982 0
M  V30 833 H 87.4147 3.24523 -2.74891 0
M  V30 834 N 85.7298 1.2412 0.971189 0
M  V30 835 C 86.6798 0.997551 2.05019 0
M  V30 836 C 87.6638 -0.0597747 1.60789 0
M  V30 837 O 88.8558 0.153516 1.76333 0
M  V30 838 C 85.9848 0.600557 3.38006 0
M  V30 839 C 85.0708 1.69377 3.88809 0
M  V30 840 N 85.4618 2.92586 4.12586 0
M  V30 841 C 83.7598 1.57048 4.17435 0
M  V30 842 C 84.4608 3.63431 4.54195 0
M  V30 843 N 83.4368 2.90979 4.59165 0
M  V30 844 H 87.2388 1.93316 2.21374 0
M  V30 845 H 84.7528 1.14194 1.1547 0
M  V30 846 H 86.7498 0.40725 4.14906 0
M  V30 847 H 85.4098 -0.327903 3.2304 0
M  V30 848 H 86.4208 3.288 4.00139 0
M  V30 849 H 83.0978 0.709798 4.11422 0
M  V30 850 H 84.4878 4.69102 4.81033 0
M  V30 851 N 87.2079 -1.17134 1.05439 0
M  V30 852 C 88.1579 -2.1919 0.627675 0
M  V30 853 C 89.1419 -1.57328 -0.337147 0
M  V30 854 O 90.3339 -1.76329 -0.153976 0
M  V30 855 C 87.4629 -3.43299 0.00651435 0
M  V30 856 C 86.5489 -4.12255 0.995312 0
M  V30 857 N 86.9399 -4.56997 2.16765 0
M  V30 858 C 85.2379 -4.38316 0.824336 0
M  V30 859 C 85.9389 -5.10239 2.7934 0
M  V30 860 N 84.9149 -5.02595 2.07122 0
M  V30 861 H 88.7169 -2.5149 1.52086 0
M  V30 862 H 86.2309 -1.33491 0.924868 0
M  V30 863 H 88.2279 -4.15693 -0.316965 0
M  V30 864 H 86.8879 -3.1249 -0.882033 0
M  V30 865 H 87.8989 -4.51006 2.54587 0
M  V30 866 H 84.5759 -4.17498 -0.0129526 0
M  V30 867 H 85.9659 -5.54961 3.78772 0
M  V30 868 N 88.686 -0.835752 -1.33615 0
M  V30 869 C 89.932 -0.430596 -1.98176 0
M  V30 870 C 90.265 1.00684 -1.66061 0
M  V30 871 O 89.54 1.70339 -0.938877 0
M  V30 872 C 89.823 -0.648065 -3.5422 0
M  V30 873 C 89.676 -2.13255 -3.96033 0
M  V30 874 C 90.995 -0.0922113 -4.40003 0
M  V30 875 H 88.114 -0.157924 -0.719881 0
M  V30 876 H 90.756 -1.05069 -1.58305 0
M  V30 877 H 88.906 -0.120237 -3.88314 0
M  V30 878 H 90.578 -2.725 -3.72211 0
M  V30 879 H 88.821 -2.61823 -3.45878 0
M  V30 880 H 89.492 -2.23547 -5.04708 0
M  V30 881 H 91.968 -0.543343 -4.12537 0
M  V30 882 H 90.844 -0.274083 -5.48215 0
M  V30 883 H 91.105 1.00378 -4.30554 0
M  V30 884 N 90.1641 1.46063 -0.591896 0
M  V30 885 C 91.1111 2.30399 0.136069 0
M  V30 886 C 92.0811 1.41169 0.875238 0
M  V30 887 O 93.2661 1.70112 0.86409 0
M  V30 888 C 90.4061 3.25804 1.13781 0
M  V30 889 C 89.5191 4.30134 0.401137 0
M  V30 890 C 88.6541 5.12659 1.39121 0
M  V30 891 C 87.6931 6.0873 0.641462 0
M  V30 892 N 86.8301 6.8409 1.58004 0
M  V30 893 H 91.6701 2.92118 -0.589144 0
M  V30 894 H 89.2071 1.43959 -0.302342 0
M  V30 895 H 91.1651 3.79569 1.73156 0
M  V30 896 H 89.7951 2.65872 1.83062 0
M  V30 897 H 88.8471 3.79152 -0.307826 0
M  V30 898 H 90.1591 4.98458 -0.184565 0
M  V30 899 H 89.3131 5.70747 2.05749 0
M  V30 900 H 88.0521 4.44316 2.01084 0
M  V30 901 H 87.0571 5.49786 -0.0385419 0
M  V30 902 H 88.2821 6.79095 0.0270945 0
M  V30 903 H 86.2281 6.18449 2.18761 0
M  V30 904 H 86.1451 7.48709 1.04738 0
M  V30 905 H 87.4131 7.4673 2.23639 0
M  V30 906 N 91.6422 0.330177 1.54103 0
M  V30 907 C 92.5522 -0.541534 2.28264 0
M  V30 908 C 93.5682 -1.12351 1.32866 0
M  V30 909 O 94.7442 -1.14206 1.65888 0
M  V30 910 C 91.8092 -1.68322 3.03098 0
M  V30 911 C 90.8702 -1.13238 4.14096 0
M  V30 912 C 90.1032 -2.21966 4.85352 0
M  V30 913 O 90.3262 -3.42437 4.56172 0
M  V30 914 O 89.2602 -1.87013 5.7211 0
M  V30 915 H 93.0862 0.060938 3.03639 0
M  V30 916 H 90.6712 0.09565 1.49093 0
M  V30 917 H 92.5532 -2.34777 3.49939 0
M  V30 918 H 91.2282 -2.27176 2.30593 0
M  V30 919 H 90.1352 -0.432736 3.71589 0
M  V30 920 H 91.4682 -0.588898 4.88664 0
M  V30 921 N 93.1203 -1.57491 0.0584922 0
M  V30 922 C 94.3683 -1.92597 -0.612436 0
M  V30 923 C 94.6893 -0.938162 -1.70949 0
M  V30 924 O 93.9593 0.0158301 -1.95894 0
M  V30 925 H 92.5393 -0.710964 -0.229214 0
M  V30 926 H 95.2013 -1.94571 0.113218 0
M  V30 927 H 94.2973 -2.94038 -1.04633 0
M  V30 928 N 94.5984 0.214957 -1.56127 0
M  V30 929 C 95.8284 0.953707 -1.8327 0
M  V30 930 C 96.2364 1.78181 -0.636262 0
M  V30 931 O 95.5794 1.79191 0.404516 0
M  V30 932 C 95.6414 1.91516 -3.0424 0
M  V30 933 C 95.3054 1.27094 -4.38972 0
M  V30 934 C 96.3024 0.657575 -5.15725 0
M  V30 935 C 93.9874 1.28073 -4.85698 0
M  V30 936 C 95.9814 0.0625968 -6.37369 0
M  V30 937 C 93.6684 0.681914 -6.07283 0
M  V30 938 C 94.6664 0.0739046 -6.8296 0
M  V30 939 O 94.3544 -0.515582 -8.02245 0
M  V30 940 H 94.0864 0.284764 -0.613095 0
M  V30 941 H 96.6404 0.233283 -2.04071 0
M  V30 942 H 94.8704 2.67475 -2.79274 0
M  V30 943 H 96.5594 2.52001 -3.18198 0
M  V30 944 H 97.3254 0.642288 -4.80728 0
M  V30 945 H 93.2044 1.74337 -4.26764 0
M  V30 946 H 96.7484 -0.412593 -6.96379 0
M  V30 947 H 92.6454 0.694636 -6.41752 0
M  V30 948 H 93.4134 -0.410544 -8.1747 0
M  V30 949 N 96.0765 1.50051 0.48192 0
M  V30 950 C 96.9865 1.7089 1.60728 0
M  V30 951 C 98.0025 0.591788 1.63627 0
M  V30 952 O 99.1785 0.868817 1.81696 0
M  V30 953 C 96.2435 1.78855 2.97005 0
M  V30 954 C 95.3045 3.02537 3.04581 0
M  V30 955 C 94.5375 3.10112 4.34357 0
M  V30 956 O 94.7605 2.24765 5.24249 0
M  V30 957 O 93.6945 4.02747 4.47301 0
M  V30 958 H 97.5205 2.66264 1.46072 0
M  V30 959 H 95.1055 1.34018 0.660264 0
M  V30 960 H 96.9875 1.86336 3.77964 0
M  V30 961 H 95.6625 0.866628 3.11883 0
M  V30 962 H 94.5695 3.00563 2.22739 0
M  V30 963 H 95.9025 3.94272 2.94636 0
M  V30 964 N 97.5546 -0.734337 1.39446 0
M  V30 965 C 98.5016 -1.84835 1.38219 0
M  V30 966 C 99.4716 -1.64331 0.24179 0
M  V30 967 O 100.657 -1.85728 0.437002 0
M  V30 968 C 97.7966 -3.22355 1.23212 0
M  V30 969 C 96.9096 -3.5456 2.46801 0
M  V30 970 C 96.0446 -4.81485 2.24377 0
M  V30 971 C 95.0836 -5.06536 3.43639 0
M  V30 972 N 94.2206 -6.24665 3.20528 0
M  V30 973 H 99.0606 -1.85219 2.33448 0
M  V30 974 H 96.5976 -0.905039 1.15963 0
M  V30 975 H 98.5556 -4.0174 1.12522 0
M  V30 976 H 97.1856 -3.21248 0.316121 0
M  V30 977 H 96.2376 -2.69872 2.68092 0
M  V30 978 H 97.5496 -3.6899 3.3563 0
M  V30 979 H 96.7036 -5.68852 2.10933 0
M  V30 980 H 95.4426 -4.6923 1.32944 0
M  V30 981 H 94.4476 -4.17632 3.5758 0
M  V30 982 H 95.6726 -5.20676 4.35974 0
M  V30 983 H 93.6186 -6.13696 2.3176 0
M  V30 984 H 93.5356 -6.39685 4.02913 0
M  V30 985 H 94.8036 -7.14868 3.10779 0
M  V30 986 N 99.0327 -1.24633 -0.964593 0
M  V30 987 C 99.9957 -1.0424 -2.04124 0
M  V30 988 C 100.996 0.00137563 -1.608 0
M  V30 989 O 102.186 -0.239883 -1.7254 0
M  V30 990 C 99.3177 -0.580588 -3.3592 0
M  V30 991 H 100.511 -1.99803 -2.23649 0
M  V30 992 H 98.0637 -1.06899 -1.14027 0
M  V30 993 H 98.7987 0.3781 -3.22088 0
M  V30 994 H 98.5837 -1.33398 -3.6871 0
M  V30 995 H 100.074 -0.459034 -4.15069 0
M  V30 996 N 100.511 1.16574 -1.06058 0
M  V30 997 C 101.788 1.83048 -0.689416 0
M  V30 998 C 102.168 1.94122 0.829443 0
M  V30 999 O 101.516 1.48249 1.7388 0
M  V30 1000 C 101.726 3.20186 -1.38859 0
M  V30 1001 C 103.074 3.95989 -1.53226 0
M  V30 1002 O 104.098 3.29696 -1.3483 0
M  V30 1003 O 102.957 5.14813 -1.83384 0
M  V30 1004 H 100.051 0.790258 -0.243764 0
M  V30 1005 H 102.597 1.23797 -1.16071 0
M  V30 1006 H 101.369 3.07146 -2.4244 0
M  V30 1007 H 100.992 3.87112 -0.907216 0
M  V30 1008 N 101.989 0.842826 1.3317 0
M  V30 1009 C 103.4 0.496651 1.79973 0
M  V30 1010 C 103.751 -0.984641 1.69703 0
M  V30 1011 O 102.876 -1.76743 1.24863 0
M  V30 1012 C 103.471 0.894727 3.26772 0
M  V30 1013 C 102.03 0.600629 3.71577 0
M  V30 1014 C 101.177 1.10091 2.5451 0
M  V30 1015 H 104.128 1.03116 1.20635 0
M  V30 1016 H 104.149 0.206347 3.7994 0
M  V30 1017 H 103.661 1.97287 3.34215 0
M  V30 1018 H 101.762 -0.467284 3.69658 0
M  V30 1019 H 101.875 1.15863 4.64879 0
M  V30 1020 H 100.239 0.52162 2.49301 0
M  V30 1021 H 101.022 2.18591 2.64713 0
M  V30 1022 N 103.467 -1.45747 0.599634 0
M  V30 1023 C 104.43 -2.28917 -0.113835 0
M  V30 1024 C 105.43 -1.3933 -0.802729 0
M  V30 1025 O 106.62 -1.61534 -0.652103 0
M  V30 1026 C 103.752 -3.20152 -1.17114 0
M  V30 1027 H 104.945 -2.93478 0.617289 0
M  V30 1028 H 102.498 -1.52137 0.358327 0
M  V30 1029 H 103.233 -2.60374 -1.93329 0
M  V30 1030 H 103.018 -3.86133 -0.681468 0
M  V30 1031 H 104.508 -3.82708 -1.67105 0
M  V30 1032 N 104.945 -0.338344 -1.53925 0
M  V30 1033 C 105.877 0.555117 -2.22376 0
M  V30 1034 C 106.89 1.06812 -1.22862 0
M  V30 1035 O 108.079 0.979163 -1.49247 0
M  V30 1036 C 105.179 1.77609 -2.88631 0
M  V30 1037 C 104.352 1.39927 -4.14414 0
M  V30 1038 C 103.411 2.47936 -4.64127 0
M  V30 1039 O 102.437 2.11461 -5.28463 0
M  V30 1040 N 103.639 3.79107 -4.39612 0
M  V30 1041 H 106.404 -0.0310778 -2.99684 0
M  V30 1042 H 103.965 -0.162226 -1.61085 0
M  V30 1043 H 105.957 2.49287 -3.18807 0
M  V30 1044 H 104.527 2.26978 -2.14941 0
M  V30 1045 H 103.747 0.513481 -3.90841 0
M  V30 1046 H 105.035 1.12341 -4.96243 0
M  V30 1047 H 104.433 4.11531 -3.88148 0
M  V30 1048 H 102.99 4.4697 -4.74406 0
M  V30 1049 N 106.423 1.57458 -0.0668435 0
M  V30 1050 C 107.67 1.93301 0.603406 0
M  V30 1051 C 107.998 0.946486 1.69917 0
M  V30 1052 O 107.253 -0.0387021 1.95662 0
M  V30 1053 C 107.552 3.35784 1.22409 0
M  V30 1054 C 107.218 4.50179 0.254955 0
M  V30 1055 C 105.88 4.81199 -0.0116746 0
M  V30 1056 C 108.232 5.19598 -0.408338 0
M  V30 1057 C 105.56 5.78978 -0.94877 0
M  V30 1058 C 107.912 6.18381 -1.33372 0
M  V30 1059 C 106.576 6.47821 -1.60887 0
M  V30 1060 H 105.846 0.707338 0.220802 0
M  V30 1061 H 108.493 1.91012 -0.136665 0
M  V30 1062 H 106.798 3.34515 2.03978 0
M  V30 1063 H 108.495 3.60804 1.74989 0
M  V30 1064 H 105.085 4.25983 0.472954 0
M  V30 1065 H 109.269 4.95832 -0.215456 0
M  V30 1066 H 104.525 6.00115 -1.16925 0
M  V30 1067 H 108.699 6.71277 -1.85367 0
M  V30 1068 H 106.326 7.23399 -2.33661 0
M  V30 1069 N 107.901 -0.206675 1.56239 0
M  V30 1070 C 108.811 -1.27686 1.96808 0
M  V30 1071 C 109.827 -1.50455 0.874035 0
M  V30 1072 O 111.003 -1.63295 1.17884 0
M  V30 1073 C 108.068 -2.60358 2.28942 0
M  V30 1074 C 107.129 -2.45762 3.51994 0
M  V30 1075 C 106.362 -3.72108 3.82585 0
M  V30 1076 O 106.585 -4.75776 3.14631 0
M  V30 1077 O 105.519 -3.6833 4.76043 0
M  V30 1078 H 109.345 -0.962593 2.88041 0
M  V30 1079 H 106.93 -0.410746 1.43643 0
M  V30 1080 H 108.812 -3.38687 2.50737 0
M  V30 1081 H 107.487 -2.91435 1.4088 0
M  V30 1082 H 106.394 -1.65584 3.35459 0
M  V30 1083 H 107.727 -2.19621 4.40486 0
M  V30 1084 N 109.379 -1.50304 -0.473955 0
M  V30 1085 C 110.309 -1.71886 -1.58042 0
M  V30 1086 C 111.29 -0.567799 -1.60344 0
M  V30 1087 O 112.475 -0.806623 -1.76656 0
M  V30 1088 C 109.605 -1.81036 -2.96384 0
M  V30 1089 C 108.559 -2.962 -3.08949 0
M  V30 1090 C 107.885 -2.9049 -4.48909 0
M  V30 1091 C 109.185 -4.36752 -2.86434 0
M  V30 1092 H 110.879 -2.64527 -1.40234 0
M  V30 1093 H 108.425 -1.27295 -0.673201 0
M  V30 1094 H 110.378 -1.94719 -3.73714 0
M  V30 1095 H 109.102 -0.850147 -3.15341 0
M  V30 1096 H 107.761 -2.82164 -2.3405 0
M  V30 1097 H 107.409 -1.92321 -4.64781 0
M  V30 1098 H 107.109 -3.67802 -4.58253 0
M  V30 1099 H 108.633 -3.06218 -5.28264 0
M  V30 1100 H 110.047 -4.5133 -3.53517 0
M  V30 1101 H 108.444 -5.15493 -3.07225 0
M  V30 1102 H 109.514 -4.49321 -1.82316 0
M  V30 1103 N 110.857 0.726932 -1.39834 0
M  V30 1104 C 111.787 1.85405 -1.41941 0
M  V30 1105 C 112.768 1.67751 -0.281728 0
M  V30 1106 O 113.953 1.8795 -0.488717 0
M  V30 1107 C 111.083 3.23243 -1.2701 0
M  V30 1108 C 110.037 3.55549 -2.38262 0
M  V30 1109 C 109.363 4.9241 -2.08415 0
M  V30 1110 C 110.663 3.577 -3.80589 0
M  V30 1111 H 112.357 1.83899 -2.36266 0
M  V30 1112 H 109.903 0.883349 -1.13723 0
M  V30 1113 H 111.856 4.01775 -1.27103 0
M  V30 1114 H 110.58 3.25296 -0.291564 0
M  V30 1115 H 109.239 2.79351 -2.37399 0
M  V30 1116 H 108.887 4.91052 -1.0898 0
M  V30 1117 H 108.587 5.14992 -2.82943 0
M  V30 1118 H 110.111 5.73289 -2.10171 0
M  V30 1119 H 111.525 4.26293 -3.83337 0
M  V30 1120 H 109.922 3.91804 -4.54543 0
M  V30 1121 H 110.992 2.57328 -4.10987 0
M  V30 1122 N 112.336 1.25143 0.95797 0
M  V30 1123 C 113.283 1.05235 2.05412 0
M  V30 1124 C 114.253 -0.0374561 1.66058 0
M  V30 1125 O 115.438 0.119073 1.90428 0
M  V30 1126 C 112.578 0.673589 3.38462 0
M  V30 1127 C 111.691 1.8379 3.90954 0
M  V30 1128 C 110.826 1.40381 5.12315 0
M  V30 1129 C 109.865 2.53746 5.57027 0
M  V30 1130 N 109.002 2.11136 6.69601 0
M  V30 1131 H 113.842 1.99048 2.21774 0
M  V30 1132 H 111.379 0.991277 1.08683 0
M  V30 1133 H 113.337 0.434964 4.14926 0
M  V30 1134 H 111.967 -0.227554 3.21997 0
M  V30 1135 H 111.019 2.18992 3.11041 0
M  V30 1136 H 112.331 2.68937 4.20089 0
M  V30 1137 H 111.485 1.12464 5.96185 0
M  V30 1138 H 110.224 0.523015 4.84887 0
M  V30 1139 H 109.229 2.82412 4.71724 0
M  V30 1140 H 110.454 3.42398 5.86464 0
M  V30 1141 H 108.4 1.25468 6.4389 0
M  V30 1142 H 108.317 2.89832 6.98236 0
M  V30 1143 H 109.585 1.86385 7.56889 0
M  V30 1144 N 113.814 -1.1601 1.06675 0
M  V30 1145 C 115.06 -1.86909 0.786945 0
M  V30 1146 C 115.393 -1.81717 -0.685018 0
M  V30 1147 O 114.668 -1.23551 -1.50218 0
M  V30 1148 C 114.951 -3.36313 1.28707 0
M  V30 1149 C 114.804 -3.50175 2.82308 0
M  V30 1150 C 116.123 -4.3084 0.898071 0
M  V30 1151 H 113.242 -0.678677 0.287343 0
M  V30 1152 H 115.884 -1.36336 1.32334 0
M  V30 1153 H 114.034 -3.79513 0.830768 0
M  V30 1154 H 115.706 -3.15886 3.36175 0
M  V30 1155 H 113.949 -2.91959 3.20847 0
M  V30 1156 H 114.62 -4.55116 3.12368 0
M  V30 1157 H 117.096 -3.95561 1.29114 0
M  V30 1158 H 115.972 -5.33876 1.27543 0
M  V30 1159 H 116.233 -4.41662 -0.196651 0
M  V30 1160 N 115.292 -0.849877 -1.32721 0
M  V30 1161 C 116.222 -0.306308 -2.31482 0
M  V30 1162 C 117.203 0.591952 -1.59468 0
M  V30 1163 O 118.388 0.513199 -1.87296 0
M  V30 1164 C 115.518 0.510204 -3.43532 0
M  V30 1165 C 114.472 -0.293209 -4.26994 0
M  V30 1166 C 113.798 0.647743 -5.30762 0
M  V30 1167 C 115.098 -1.51634 -4.99804 0
M  V30 1168 H 116.792 -1.13153 -2.77195 0
M  V30 1169 H 114.338 -0.545553 -1.33266 0
M  V30 1170 H 116.291 0.900856 -4.11658 0
M  V30 1171 H 115.015 1.36874 -2.96535 0
M  V30 1172 H 113.674 -0.665555 -3.60508 0
M  V30 1173 H 113.322 1.50299 -4.8002 0
M  V30 1174 H 113.022 0.11422 -5.87489 0
M  V30 1175 H 114.546 1.03567 -6.01753 0
M  V30 1176 H 115.96 -1.19824 -5.60638 0
M  V30 1177 H 114.357 -1.98745 -5.66234 0
M  V30 1178 H 115.427 -2.28018 -4.27943 0
M  V30 1179 N 116.77 1.45427 -0.607355 0
M  V30 1180 C 118.018 2.01841 -0.102253 0
M  V30 1181 C 118.339 1.47832 1.27164 0
M  V30 1182 O 117.609 0.672497 1.83995 0
M  V30 1183 H 116.189 0.746188 -0.0348101 0
M  V30 1184 H 118.851 1.78229 -0.7887 0
M  V30 1185 H 117.947 3.12057 -0.0518585 0
M  V30 1186 N 118.248 0.346503 1.53744 0
M  V30 1187 C 119.18 -0.543316 2.22667 0
M  V30 1188 C 120.193 -1.06159 1.23427 0
M  V30 1189 O 121.382 -0.971235 1.49764 0
M  V30 1190 C 118.482 -1.76076 2.89569 0
M  V30 1191 C 117.655 -1.37727 4.15151 0
M  V30 1192 C 116.714 -2.45471 4.65436 0
M  V30 1193 O 115.74 -2.08655 5.29577 0
M  V30 1194 N 116.942 -3.7677 4.41616 0
M  V30 1195 H 119.707 0.0469703 2.99663 0
M  V30 1196 H 117.268 0.170766 1.60997 0
M  V30 1197 H 119.26 -2.47593 3.20125 0
M  V30 1198 H 117.83 -2.25835 2.16142 0
M  V30 1199 H 117.05 -0.492746 3.91108 0
M  V30 1200 H 118.338 -1.09708 4.96832 0
M  V30 1201 H 117.736 -4.09467 3.90325 0
M  V30 1202 H 116.293 -4.44448 4.7677 0
M  V30 1203 N 119.726 -1.57421 0.075193 0
M  V30 1204 C 120.974 -1.93236 -0.591974 0
M  V30 1205 C 121.295 -0.956241 -1.69944 0
M  V30 1206 O 120.565 -0.00494792 -1.95899 0
M  V30 1207 H 119.145 -0.713355 -0.22166 0
M  V30 1208 H 121.807 -1.9444 0.133848 0
M  V30 1209 H 120.903 -2.95131 -1.01509 0
M  V30 1210 N 121.204 0.198386 -1.56346 0
M  V30 1211 C 122.429 0.939682 -1.84891 0
M  V30 1212 C 122.854 1.76202 -0.658369 0
M  V30 1213 O 122.212 1.76993 0.392851 0
M  V30 1214 C 122.26 1.81428 -3.11635 0
M  V30 1215 O 121.364 2.91265 -2.91956 0
M  V30 1216 H 120.705 0.264807 -0.608912 0
M  V30 1217 H 123.235 0.204695 -2.03573 0
M  V30 1218 H 123.245 2.21958 -3.42343 0
M  V30 1219 H 121.92 1.21004 -3.97908 0
M  V30 1220 H 120.497 2.54514 -2.72538 0
M  V30 1221 N 122.682 1.50554 0.465978 0
M  V30 1222 C 123.929 1.61798 1.21768 0
M  V30 1223 C 124.257 0.320696 1.91838 0
M  V30 1224 O 123.512 -0.693724 1.82992 0
M  V30 1225 C 123.811 2.75152 2.28093 0
M  V30 1226 C 123.477 4.15454 1.75239 0
M  V30 1227 C 122.139 4.53628 1.60546 0
M  V30 1228 C 124.491 5.03121 1.36083 0
M  V30 1229 C 121.819 5.77204 1.05128 0
M  V30 1230 C 124.171 6.27249 0.821056 0
M  V30 1231 C 122.835 6.64221 0.660795 0
M  V30 1232 H 122.105 0.592063 0.445582 0
M  V30 1233 H 124.752 1.84503 0.512927 0
M  V30 1234 H 123.057 2.46556 3.04496 0
M  V30 1235 H 124.754 2.81055 2.86023 0
M  V30 1236 H 121.344 3.85341 1.87644 0
M  V30 1237 H 125.528 4.74257 1.46267 0
M  V30 1238 H 120.784 6.0452 0.91462 0
M  V30 1239 H 124.958 6.94537 0.509018 0
M  V30 1240 H 122.585 7.59854 0.229226 0
M  V30 1241 N 124.16 -0.719506 1.40217 0
M  V30 1242 C 125.408 -1.47641 1.3801 0
M  V30 1243 C 125.729 -1.94992 -0.018145 0
M  V30 1244 O 124.999 -1.70073 -0.972207 0
M  V30 1245 H 123.579 -0.547744 0.507923 0
M  V30 1246 H 126.241 -0.853187 1.75233 0
M  V30 1247 H 125.337 -2.35112 2.05253 0
M  V30 1248 N 125.638 -1.25649 -0.95132 0
M  V30 1249 C 126.585 -1.06323 -2.04851 0
M  V30 1250 C 127.555 0.0286491 -1.66075 0
M  V30 1251 O 128.74 -0.12917 -1.90362 0
M  V30 1252 C 125.88 -0.691529 -3.381 0
M  V30 1253 C 124.993 -1.85861 -3.89974 0
M  V30 1254 C 124.128 -1.43096 -5.11563 0
M  V30 1255 C 123.167 -2.56696 -5.55674 0
M  V30 1256 N 122.304 -2.14684 -6.68472 0
M  V30 1257 H 127.144 -2.00222 -2.20715 0
M  V30 1258 H 124.681 -0.997027 -1.08156 0
M  V30 1259 H 126.639 -0.456963 -4.1469 0
M  V30 1260 H 125.269 0.210474 -3.22113 0
M  V30 1261 H 124.321 -2.20639 -3.09875 0
M  V30 1262 H 125.633 -2.71161 -4.18657 0
M  V30 1263 H 124.787 -1.15624 -5.9558 0
M  V30 1264 H 123.526 -0.548722 -4.84603 0
M  V30 1265 H 122.531 -2.84909 -4.7022 0
M  V30 1266 H 123.756 -3.45503 -5.8464 0
M  V30 1267 H 121.702 -1.28881 -6.43215 0
M  V30 1268 H 121.619 -2.9353 -6.96689 0
M  V30 1269 H 122.887 -1.90397 -7.5589 0
M  V30 1270 N 127.117 1.15442 -1.07289 0
M  V30 1271 C 128.363 1.86489 -0.796846 0
M  V30 1272 C 128.696 1.82078 0.675371 0
M  V30 1273 O 127.971 1.24346 1.4956 0
M  V30 1274 C 128.254 3.35626 -1.30489 0
M  V30 1275 C 128.107 3.48673 -2.84161 0
M  V30 1276 C 129.426 4.30357 -0.920907 0
M  V30 1277 H 126.545 0.677144 -0.290939 0
M  V30 1278 H 129.187 1.35633 -1.33056 0
M  V30 1279 H 127.337 3.79068 -0.850883 0
M  V30 1280 H 129.009 3.14099 -3.37846 0
M  V30 1281 H 127.252 2.90253 -3.22391 0
M  V30 1282 H 127.923 4.53453 -3.14777 0
M  V30 1283 H 130.399 3.94871 -1.3121 0
M  V30 1284 H 129.275 5.33193 -1.30372 0
M  V30 1285 H 129.536 4.4176 0.173226 0
M  V30 1286 N 128.595 0.856903 1.32268 0
M  V30 1287 C 129.842 0.461386 1.97174 0
M  V30 1288 C 130.17 -0.983491 1.67803 0
M  V30 1289 O 129.425 -1.70541 0.959903 0
M  V30 1290 C 129.724 0.649919 3.51441 0
M  V30 1291 C 129.39 2.0656 4.00804 0
M  V30 1292 C 128.052 2.45279 4.13995 0
M  V30 1293 C 130.404 2.98947 4.26943 0
M  V30 1294 C 127.732 3.75653 4.50668 0
M  V30 1295 C 130.084 4.28822 4.65075 0
M  V30 1296 C 128.748 4.67472 4.76472 0
M  V30 1297 H 128.018 0.168833 0.72151 0
M  V30 1298 H 130.665 1.08739 1.57633 0
M  V30 1299 H 128.97 -0.0593018 3.91755 0
M  V30 1300 H 130.667 0.32391 3.9969 0
M  V30 1301 H 127.257 1.75495 3.91024 0
M  V30 1302 H 131.441 2.70265 4.16258 0
M  V30 1303 H 126.697 4.05379 4.57688 0
M  V30 1304 H 130.871 5.0047 4.84255 0
M  V30 1305 H 128.498 5.68539 5.04646 0
M  V30 1306 N 130.073 -1.45103 0.615059 0
M  V30 1307 C 131.003 -2.33339 -0.0865619 0
M  V30 1308 C 131.984 -1.4727 -0.851209 0
M  V30 1309 O 133.169 -1.76026 -0.820281 0
M  V30 1310 C 130.299 -3.30095 -1.07956 0
M  V30 1311 C 129.253 -4.25858 -0.427628 0
M  V30 1312 C 128.579 -5.12361 -1.5294 0
M  V30 1313 C 129.879 -5.18165 0.655944 0
M  V30 1314 H 131.573 -2.92254 0.650224 0
M  V30 1315 H 129.119 -1.40532 0.314138 0
M  V30 1316 H 131.072 -3.90698 -1.57901 0
M  V30 1317 H 129.796 -2.69355 -1.84703 0
M  V30 1318 H 128.455 -3.66564 0.0510292 0
M  V30 1319 H 128.103 -4.47984 -2.28734 0
M  V30 1320 H 127.803 -5.77238 -1.09865 0
M  V30 1321 H 129.327 -5.75833 -2.03098 0
M  V30 1322 H 130.741 -5.72796 0.240257 0
M  V30 1323 H 129.138 -5.91559 1.00888 0
M  V30 1324 H 130.208 -4.60144 1.52957 0
M  V30 1325 N 131.551 -0.354651 -1.53558 0
M  V30 1326 C 132.797 0.238797 -2.01389 0
M  V30 1327 C 133.13 1.49309 -1.2418 0
M  V30 1328 O 132.405 1.91638 -0.332457 0
M  V30 1329 C 132.688 0.541771 -3.56001 0
M  V30 1330 C 132.541 -0.725388 -4.43912 0
M  V30 1331 C 133.86 1.34685 -4.18984 0
M  V30 1332 H 130.979 0.0853177 -0.732045 0
M  V30 1333 H 133.621 -0.477384 -1.83905 0
M  V30 1334 H 131.771 1.15189 -3.71031 0
M  V30 1335 H 133.443 -1.36313 -4.407 0
M  V30 1336 H 131.686 -1.34801 -4.12324 0
M  V30 1337 H 132.357 -0.468505 -5.50008 0
M  V30 1338 H 134.833 0.830837 -4.07721 0
M  V30 1339 H 133.709 1.52759 -5.27215 0
M  V30 1340 H 133.97 2.35221 -3.74331 0
M  V30 1341 N 133.029 1.57378 -0.0835403 0
M  V30 1342 C 134.445 1.57246 0.273109 0
M  V30 1343 C 134.645 1.09385 1.69225 0
M  V30 1344 O 133.701 0.765051 2.40631 0
M  V30 1345 C 135.014 3.00614 0.0720628 0
M  V30 1346 C 136.562 3.12684 0.1407 0
M  V30 1347 C 137.037 4.57989 -0.0322094 0
M  V30 1348 N 138.528 4.63194 0.0230085 0
M  V30 1349 C 139.263 5.73335 -0.0861941 0
M  V30 1350 N 138.759 6.9235 -0.24958 0
M  V30 1351 N 140.552 5.62093 -0.0282886 0
M  V30 1352 H 132.703 1.86801 -1.0109 0
M  V30 1353 H 134.966 0.861687 -0.395222 0
M  V30 1354 H 134.672 3.39786 -0.907662 0
M  V30 1355 H 134.546 3.68193 0.81936 0
M  V30 1356 H 136.933 2.73391 1.11092 0
M  V30 1357 H 137.014 2.47719 -0.637896 0
M  V30 1358 H 136.658 4.97973 -0.999247 0
M  V30 1359 H 136.588 5.21 0.765937 0
M  V30 1360 H 139.079 3.77613 0.14722 0
M  V30 1361 H 139.392 7.72117 -0.324733 0
M  V30 1362 H 137.737 6.94415 -0.285097 0
M  V30 1363 H 140.928 4.67997 0.0981408 0
M  V30 1364 H 141.101 6.47895 -0.116845 0
M  V30 1365 N 134.507 -0.190092 1.56449 0
M  V30 1366 C 135.454 -1.23557 1.94942 0
M  V30 1367 C 136.424 -1.44972 0.810696 0
M  V30 1368 O 137.609 -1.58023 1.06927 0
M  V30 1369 C 134.749 -2.57416 2.2985 0
M  V30 1370 C 133.862 -2.43537 3.5681 0
M  V30 1371 C 132.997 -3.70134 3.81017 0
M  V30 1372 C 132.036 -3.51109 5.01387 0
M  V30 1373 N 131.173 -4.6973 5.21822 0
M  V30 1374 H 136.013 -0.900304 2.84075 0
M  V30 1375 H 133.55 -0.43318 1.40577 0
M  V30 1376 H 135.508 -3.35409 2.48106 0
M  V30 1377 H 134.138 -2.88975 1.43852 0
M  V30 1378 H 133.19 -1.56816 3.46573 0
M  V30 1379 H 134.502 -2.25415 4.4496 0
M  V30 1380 H 133.656 -4.56566 3.9954 0
M  V30 1381 H 132.395 -3.91215 2.91207 0
M  V30 1382 H 131.4 -2.63063 4.82782 0
M  V30 1383 H 132.625 -3.31468 5.9271 0
M  V30 1384 H 130.571 -4.91065 4.34961 0
M  V30 1385 H 130.488 -4.54452 6.0416 0
M  V30 1386 H 131.756 -5.57499 5.44808 0
M  V30 1387 N 135.985 -1.50799 -0.457987 0
M  V30 1388 C 136.932 -1.70617 -1.5543 0
M  V30 1389 C 137.902 -0.547562 -1.56815 0
M  V30 1390 O 139.087 -0.779647 -1.74144 0
M  V30 1391 C 136.227 -1.81831 -2.93311 0
M  V30 1392 C 135.34 -3.09278 -3.01615 0
M  V30 1393 C 134.475 -3.11209 -4.30491 0
M  V30 1394 C 133.514 -4.33055 -4.32585 0
M  V30 1395 N 132.651 -4.32652 -5.52952 0
M  V30 1396 H 137.491 -2.64207 -1.37836 0
M  V30 1397 H 135.028 -1.30959 -0.669937 0
M  V30 1398 H 136.986 -1.86314 -3.73287 0
M  V30 1399 H 135.616 -0.916685 -3.0951 0
M  V30 1400 H 134.668 -3.14203 -2.1443 0
M  V30 1401 H 135.98 -3.99233 -2.99022 0
M  V30 1402 H 135.134 -3.14494 -5.18824 0
M  V30 1403 H 133.873 -2.19106 -4.35711 0
M  V30 1404 H 132.878 -4.29969 -3.42647 0
M  V30 1405 H 134.103 -5.264 -4.29046 0
M  V30 1406 H 132.049 -3.43409 -5.58933 0
M  V30 1407 H 131.966 -5.16392 -5.52155 0
M  V30 1408 H 133.234 -4.40101 -6.43375 0
M  V30 1409 N 137.463 0.71206 -1.40597 0
M  V30 1410 C 138.691 1.50111 -1.42388 0
M  V30 1411 C 139.106 1.88784 -0.0245395 0
M  V30 1412 O 138.463 1.55681 0.952351 0
M  V30 1413 C 138.514 2.7742 -2.31776 0
M  V30 1414 O 138.235 2.40382 -3.66262 0
M  V30 1415 C 139.736 3.7129 -2.42196 0
M  V30 1416 H 136.956 0.46314 -0.485533 0
M  V30 1417 H 139.5 0.878068 -1.8469 0
M  V30 1418 H 137.655 3.36001 -1.92827 0
M  V30 1419 H 138.069 3.22324 -4.13772 0
M  V30 1420 H 139.543 4.57448 -3.08943 0
M  V30 1421 H 140.02 4.14641 -1.44809 0
M  V30 1422 H 140.626 3.18619 -2.81712 0
M  V30 1423 N 138.941 1.26152 0.944643 0
M  V30 1424 C 140.189 1.11271 1.6871 0
M  V30 1425 C 140.51 -0.345166 1.91921 0
M  V30 1426 O 139.78 -1.24387 1.51343 0
M  V30 1427 H 138.36 0.408783 0.625224 0
M  V30 1428 H 141.022 1.58427 1.1352 0
M  V30 1429 H 140.118 1.62879 2.66227 0
M  V30 1430 N 140.419 -1.14872 1.07899 0
M  V30 1431 C 141.83 -1.67367 0.827363 0
M  V30 1432 C 142.181 -1.85236 -0.646693 0
M  V30 1433 O 141.306 -1.55974 -1.50004 0
M  V30 1434 C 141.901 -3.04016 1.49532 0
M  V30 1435 C 140.46 -3.53566 1.29106 0
M  V30 1436 C 139.607 -2.29161 1.56143 0
M  V30 1437 H 142.558 -0.990083 1.24028 0
M  V30 1438 H 142.579 -3.69219 0.919643 0
M  V30 1439 H 142.091 -2.90978 2.56814 0
M  V30 1440 H 140.192 -3.71835 0.238713 0
M  V30 1441 H 140.305 -4.34661 2.01511 0
M  V30 1442 H 138.669 -2.34978 0.982717 0
M  V30 1443 H 139.452 -2.18705 2.64619 0
M  V30 1444 N 141.898 -0.863906 -1.31812 0
M  V30 1445 C 143.175 -0.39275 -1.91616 0
M  V30 1446 C 143.555 1.12461 -1.7865 0
M  V30 1447 O 142.903 1.95045 -1.19037 0
M  V30 1448 C 143.113 -0.867385 -3.38049 0
M  V30 1449 C 144.461 -0.889966 -4.15168 0
M  V30 1450 O 145.485 -0.812635 -3.46806 0
M  V30 1451 O 144.344 -1.00079 -5.37258 0
M  V30 1452 H 141.438 -0.116358 -0.818773 0
M  V30 1453 H 143.984 -0.951418 -1.40521 0
M  V30 1454 H 142.756 -1.91081 -3.41473 0
M  V30 1455 H 142.379 -0.286687 -3.96565 0
M  V30 1456 N 143.376 1.44774 -0.622745 0
M  V30 1457 C 144.339 2.29069 0.0774015 0
M  V30 1458 C 145.339 1.4059 0.780461 0
M  V30 1459 O 146.529 1.62551 0.626322 0
M  V30 1460 C 143.661 3.21974 1.12006 0
M  V30 1461 H 144.854 2.92459 -0.663901 0
M  V30 1462 H 142.407 1.51548 -0.382486 0
M  V30 1463 H 143.142 2.63417 1.89162 0
M  V30 1464 H 142.927 3.87168 0.619951 0
M  V30 1465 H 144.417 3.85318 1.60995 0
M  V30 1466 N 144.854 0.36279 1.53368 0
M  V30 1467 C 146.102 -0.227326 2.00817 0
M  V30 1468 C 146.423 -1.49511 1.25186 0
M  V30 1469 O 145.693 -1.92482 0.364348 0
M  V30 1470 H 144.273 -0.0869923 0.741917 0
M  V30 1471 H 146.935 0.488381 1.88682 0
M  V30 1472 H 146.031 -0.456273 3.08747 0
M  V30 1473 N 146.332 -1.57332 0.0918853 0
M  V30 1474 C 147.264 -2.10869 -0.898168 0
M  V30 1475 C 148.277 -1.04521 -1.24817 0
M  V30 1476 O 149.466 -1.31977 -1.20184 0
M  V30 1477 C 146.566 -2.57083 -2.2082 0
M  V30 1478 C 145.739 -3.87229 -2.03402 0
M  V30 1479 C 144.798 -4.19324 -3.17889 0
M  V30 1480 O 143.824 -4.88598 -2.91994 0
M  V30 1481 N 145.026 -3.74471 -4.43567 0
M  V30 1482 H 147.791 -2.96439 -0.440943 0
M  V30 1483 H 145.352 -1.61631 -0.0933064 0
M  V30 1484 H 147.344 -2.75602 -2.96354 0
M  V30 1485 H 145.914 -1.76541 -2.57977 0
M  V30 1486 H 145.134 -3.7789 -1.12218 0
M  V30 1487 H 146.422 -4.72379 -1.89038 0
M  V30 1488 H 145.82 -3.18546 -4.67488 0
M  V30 1489 H 144.377 -3.98151 -5.16061 0
M  V30 1490 N 147.81 0.181792 -1.56548 0
M  V30 1491 C 148.74 1.22765 -1.98623 0
M  V30 1492 C 149.721 1.46747 -0.860189 0
M  V30 1493 O 150.906 1.58259 -1.12551 0
M  V30 1494 C 148.036 2.56894 -2.33715 0
M  V30 1495 C 146.99 2.475 -3.49182 0
M  V30 1496 C 146.316 3.86023 -3.69986 0
M  V30 1497 C 147.616 1.98866 -4.82959 0
M  V30 1498 H 149.31 0.877942 -2.86239 0
M  V30 1499 H 146.856 0.42088 -1.37712 0
M  V30 1500 H 148.809 3.30253 -2.61746 0
M  V30 1501 H 147.533 2.93632 -1.42997 0
M  V30 1502 H 146.192 1.76596 -3.21262 0
M  V30 1503 H 145.84 4.20136 -2.76576 0
M  V30 1504 H 145.54 3.80609 -4.47672 0
M  V30 1505 H 147.064 4.60984 -4.00407 0
M  V30 1506 H 148.478 2.61992 -5.09934 0
M  V30 1507 H 146.875 2.04424 -5.64208 0
M  V30 1508 H 147.945 0.942465 -4.75653 0
M  V30 1509 N 149.288 1.51039 0.449983 0
M  V30 1510 C 150.518 1.66627 1.22143 0
M  V30 1511 C 150.926 0.357776 1.85786 0
M  V30 1512 O 150.269 -0.672424 1.70951 0
M  V30 1513 C 150.331 2.71562 2.35573 0
M  V30 1514 C 149.995 4.14526 1.92399 0
M  V30 1515 C 150.992 4.99717 1.43453 0
M  V30 1516 C 148.677 4.60559 2.00475 0
M  V30 1517 C 150.671 6.28998 1.03155 0
M  V30 1518 C 148.358 5.8984 1.59788 0
M  V30 1519 C 149.356 6.73886 1.11208 0
M  V30 1520 O 149.044 8.0075 0.710935 0
M  V30 1521 H 148.776 0.562635 0.374724 0
M  V30 1522 H 151.33 1.98146 0.541036 0
M  V30 1523 H 149.56 2.3533 3.06849 0
M  V30 1524 H 151.249 2.76156 2.97478 0
M  V30 1525 H 152.015 4.65361 1.36618 0
M  V30 1526 H 147.894 3.95273 2.37235 0
M  V30 1527 H 151.438 6.9455 0.651663 0
M  V30 1528 H 147.335 6.23713 1.66289 0
M  V30 1529 H 148.103 8.142 0.837913 0
M  V30 1530 N 150.766 -0.704594 1.40972 0
M  V30 1531 C 151.729 -1.80035 1.41845 0
M  V30 1532 C 152.729 -1.57774 0.310474 0
M  V30 1533 O 153.919 -1.64613 0.56992 0
M  V30 1534 C 151.051 -3.18284 1.22098 0
M  V30 1535 H 152.244 -1.80658 2.3938 0
M  V30 1536 H 149.797 -0.911329 1.26982 0
M  V30 1537 H 150.532 -3.23306 0.253672 0
M  V30 1538 H 150.317 -3.35843 2.02366 0
M  V30 1539 H 151.807 -3.98289 1.25522 0
M  V30 1540 N 152.244 -1.26651 -0.937939 0
M  V30 1541 C 153.177 -1.02811 -2.03728 0
M  V30 1542 C 154.155 0.0481915 -1.62529 0
M  V30 1543 O 155.339 -0.0948839 -1.88261 0
M  V30 1544 C 152.466 -0.557517 -3.3408 0
M  V30 1545 C 151.512 -1.62686 -3.94253 0
M  V30 1546 S 152.345 -3.21667 -4.28125 0
M  V30 1547 C 153.501 -2.76384 -5.61572 0
M  V30 1548 H 153.734 -1.95891 -2.23638 0
M  V30 1549 H 151.267 -1.10367 -1.07974 0
M  V30 1550 H 153.225 -0.292674 -4.09455 0
M  V30 1551 H 151.886 0.353062 -3.12109 0
M  V30 1552 H 151.079 -1.24866 -4.88287 0
M  V30 1553 H 150.681 -1.84324 -3.25424 0
M  V30 1554 H 152.973 -2.2105 -6.40424 0
M  V30 1555 H 153.916 -3.69123 -6.0428 0
M  V30 1556 H 154.324 -2.15847 -5.21604 0
M  V30 1557 N 153.722 1.14298 -1.08507 0
M  V30 1558 C 154.669 2.19414 -0.715965 0
M  V30 1559 C 155.639 1.63399 0.298326 0
M  V30 1560 O 156.824 1.89929 0.182101 0
M  V30 1561 C 153.964 3.44845 -0.132534 0
M  V30 1562 C 153.077 4.15007 -1.19973 0
M  V30 1563 C 152.212 5.28024 -0.580048 0
M  V30 1564 C 151.251 5.9002 -1.62921 0
M  V30 1565 N 150.388 6.94485 -1.03125 0
M  V30 1566 H 155.228 2.50336 -1.61666 0
M  V30 1567 H 152.765 1.2293 -0.807882 0
M  V30 1568 H 154.723 4.16601 0.223454 0
M  V30 1569 H 153.353 3.14403 0.731467 0
M  V30 1570 H 152.405 3.41629 -1.67313 0
M  V30 1571 H 153.717 4.57178 -1.99473 0
M  V30 1572 H 152.871 6.06455 -0.172364 0
M  V30 1573 H 151.61 4.87076 0.246603 0
M  V30 1574 H 150.615 5.10291 -2.04654 0
M  V30 1575 H 151.84 6.33042 -2.45835 0
M  V30 1576 H 149.786 6.55612 -0.225711 0
M  V30 1577 H 149.703 7.35148 -1.76334 0
M  V30 1578 H 150.971 7.7679 -0.649458 0
M  V30 1579 N 155.201 0.870884 1.31352 0
M  V30 1580 C 156.447 0.482987 1.96965 0
M  V30 1581 C 156.78 -0.962462 1.68672 0
M  V30 1582 O 156.055 -1.6779 0.98371 0
M  V30 1583 C 156.338 0.741752 3.52378 0
M  V30 1584 C 156.191 2.2368 3.9024 0
M  V30 1585 C 157.51 0.208838 4.39604 0
M  V30 1586 H 154.629 0.176955 0.715441 0
M  V30 1587 H 157.271 1.09229 1.55464 0
M  V30 1588 H 155.421 0.223149 3.87859 0
M  V30 1589 H 157.093 2.82273 3.64856 0
M  V30 1590 H 155.336 2.70901 3.38814 0
M  V30 1591 H 156.007 2.3685 4.98604 0
M  V30 1592 H 158.483 0.652529 4.10952 0
M  V30 1593 H 157.359 0.419336 5.47296 0
M  V30 1594 H 157.62 -0.889275 4.33064 0
M  V30 1595 N 156.679 -1.44442 0.630414 0
M  V30 1596 C 157.609 -2.33418 -0.0618083 0
M  V30 1597 C 158.59 -1.48165 -0.835541 0
M  V30 1598 O 159.775 -1.76886 -0.801564 0
M  V30 1599 C 156.905 -3.31222 -1.04449 0
M  V30 1600 C 155.859 -4.26288 -0.382436 0
M  V30 1601 C 155.185 -5.13954 -1.47497 0
M  V30 1602 C 156.485 -5.1744 0.710865 0
M  V30 1603 H 158.179 -2.91548 0.681184 0
M  V30 1604 H 155.725 -1.40191 0.329026 0
M  V30 1605 H 157.678 -3.92351 -1.53748 0
M  V30 1606 H 156.402 -2.71299 -1.81836 0
M  V30 1607 H 155.061 -3.6649 0.0899054 0
M  V30 1608 H 154.709 -4.50385 -2.2397 0
M  V30 1609 H 154.409 -5.7837 -1.03737 0
M  V30 1610 H 155.933 -5.77955 -1.96979 0
M  V30 1611 H 157.347 -5.72509 0.300996 0
M  V30 1612 H 155.744 -5.90455 1.07156 0
M  V30 1613 H 156.814 -4.58496 1.57829 0
M  V30 1614 N 158.157 -0.370918 -1.53173 0
M  V30 1615 C 159.104 0.473035 -2.259 0
M  V30 1616 C 160.074 1.07311 -1.26781 0
M  V30 1617 O 161.259 1.1046 -1.55574 0
M  V30 1618 C 158.399 1.60405 -3.05556 0
M  V30 1619 C 157.512 1.02863 -4.19575 0
M  V30 1620 C 156.647 2.12918 -4.86661 0
M  V30 1621 C 155.686 1.52869 -5.92704 0
M  V30 1622 N 154.823 2.56779 -6.53459 0
M  V30 1623 H 159.663 -0.153649 -2.97604 0
M  V30 1624 H 157.2 -0.0875946 -1.46839 0
M  V30 1625 H 159.158 2.27034 -3.50016 0
M  V30 1626 H 157.788 2.20131 -2.36097 0
M  V30 1627 H 156.84 0.252465 -3.79561 0
M  V30 1628 H 158.152 0.549642 -4.95762 0
M  V30 1629 H 157.306 2.87356 -5.34333 0
M  V30 1630 H 156.045 2.6417 -4.09958 0
M  V30 1631 H 155.05 0.769479 -5.44389 0
M  V30 1632 H 156.275 1.02435 -6.7133 0
M  V30 1633 H 154.221 3.07235 -5.79606 0
M  V30 1634 H 154.138 2.13583 -7.25202 0
M  V30 1635 H 155.406 3.30903 -7.05779 0
M  V30 1636 N 159.635 1.57281 -0.100228 0
M  V30 1637 C 160.582 2.14305 0.856858 0
M  V30 1638 C 161.552 1.06296 1.27634 0
M  V30 1639 O 162.737 1.34109 1.35718 0
M  V30 1640 C 159.877 2.73184 2.10866 0
M  V30 1641 C 158.99 3.95442 1.73925 0
M  V30 1642 C 158.125 4.42468 2.93931 0
M  V30 1643 C 157.164 5.57303 2.5314 0
M  V30 1644 N 156.301 5.99158 3.65997 0
M  V30 1645 H 161.141 2.95772 0.363726 0
M  V30 1646 H 158.678 1.46139 0.167858 0
M  V30 1647 H 160.636 3.05442 2.84185 0
M  V30 1648 H 159.266 1.94437 2.57671 0
M  V30 1649 H 158.318 3.69464 0.905554 0
M  V30 1650 H 159.63 4.78769 1.39935 0
M  V30 1651 H 158.784 4.76537 3.75496 0
M  V30 1652 H 157.523 3.58052 3.31134 0
M  V30 1653 H 156.528 5.22857 1.70003 0
M  V30 1654 H 157.753 6.43471 2.17075 0
M  V30 1655 H 155.699 5.17687 4.02909 0
M  V30 1656 H 155.616 6.77295 3.35869 0
M  V30 1657 H 156.884 6.3786 4.48057 0
M  V30 1658 N 161.113 -0.173488 1.56642 0
M  V30 1659 C 162.076 -1.19859 1.95362 0
M  V30 1660 C 163.076 -1.37296 0.83704 0
M  V30 1661 O 164.266 -1.34739 1.10413 0
M  V30 1662 C 161.398 -2.56405 2.24654 0
M  V30 1663 H 162.591 -0.867062 2.87092 0
M  V30 1664 H 160.144 -0.415853 1.50666 0
M  V30 1665 H 160.879 -2.94576 1.35631 0
M  V30 1666 H 160.664 -2.45115 3.06041 0
M  V30 1667 H 162.154 -3.30287 2.5554 0
M  V30 1668 N 162.591 -1.51276 -0.441967 0
M  V30 1669 C 163.816 -1.67799 -1.21895 0
M  V30 1670 C 164.241 -0.372864 -1.84367 0
M  V30 1671 O 163.599 0.666501 -1.68604 0
M  V30 1672 C 163.647 -2.79199 -2.28211 0
M  V30 1673 O 162.751 -2.42479 -3.33583 0
M  V30 1674 H 162.092 -0.559649 -0.357336 0
M  V30 1675 H 164.622 -1.97815 -0.522522 0
M  V30 1676 H 164.632 -3.03146 -2.73069 0
M  V30 1677 H 163.307 -3.73906 -1.82118 0
M  V30 1678 H 161.884 -2.29087 -2.94234 0
M  V30 1679 N 164.069 0.697108 -1.41344 0
M  V30 1680 C 164.999 1.82353 -1.45841 0
M  V30 1681 C 165.98 1.67115 -0.317247 0
M  V30 1682 O 167.165 1.86871 -0.528474 0
M  V30 1683 C 164.295 3.20476 -1.33838 0
M  V30 1684 C 163.249 3.50415 -2.4575 0
M  V30 1685 C 162.575 4.87878 -2.18813 0
M  V30 1686 C 163.875 3.49546 -3.88091 0
M  V30 1687 H 165.569 1.78846 -2.40113 0
M  V30 1688 H 163.115 0.859028 -1.15571 0
M  V30 1689 H 165.068 3.98988 -1.35596 0
M  V30 1690 H 163.792 3.24604 -0.360498 0
M  V30 1691 H 162.451 2.74253 -2.43271 0
M  V30 1692 H 162.099 4.8863 -1.19371 0
M  V30 1693 H 161.799 5.08875 -2.93803 0
M  V30 1694 H 163.323 5.68702 -2.22284 0
M  V30 1695 H 164.737 4.18066 -3.92293 0
M  V30 1696 H 163.134 3.82075 -4.62751 0
M  V30 1697 H 164.204 2.48552 -4.16353 0
M  V30 1698 N 165.547 1.27147 0.931209 0
M  V30 1699 C 166.494 1.09568 2.03134 0
M  V30 1700 C 167.464 -0.00222433 1.661 0
M  V30 1701 O 168.649 0.159439 1.90133 0
M  V30 1702 C 165.789 0.745231 3.36957 0
M  V30 1703 C 164.902 1.92041 3.86968 0
M  V30 1704 C 164.037 1.51216 5.09222 0
M  V30 1705 C 163.076 2.65504 5.5152 0
M  V30 1706 N 162.213 2.25291 6.64972 0
M  V30 1707 H 167.053 2.03708 2.17502 0
M  V30 1708 H 164.59 1.01411 1.06556 0
M  V30 1709 H 166.548 0.522878 4.1391 0
M  V30 1710 H 165.178 -0.159202 3.22407 0
M  V30 1711 H 164.23 2.25541 3.06326 0
M  V30 1712 H 165.542 2.77787 4.1429 0
M  V30 1713 H 164.696 1.25084 5.93666 0
M  V30 1714 H 163.435 0.625749 4.83669 0
M  V30 1715 H 162.44 2.92354 4.65628 0
M  V30 1716 H 163.665 3.54761 5.7907 0
M  V30 1717 H 161.611 1.39098 6.41083 0
M  V30 1718 H 161.528 3.04577 6.91931 0
M  V30 1719 H 162.796 2.02398 7.52765 0
M  V30 1720 N 167.025 -1.13721 1.09112 0
M  V30 1721 C 168.271 -1.85198 0.826414 0
M  V30 1722 C 168.604 -1.83129 -0.646319 0
M  V30 1723 O 167.879 -1.2671 -1.47563 0
M  V30 1724 C 168.162 -3.33507 1.35812 0
M  V30 1725 C 168.015 -3.44108 2.89672 0
M  V30 1726 C 169.334 -4.28838 0.989256 0
M  V30 1727 H 166.453 -0.67243 0.301675 0
M  V30 1728 H 169.095 -1.33499 1.35197 0
M  V30 1729 H 167.245 -3.77666 0.911082 0
M  V30 1730 H 168.917 -3.08684 3.428 0
M  V30 1731 H 167.16 -2.85087 3.26967 0
M  V30 1732 H 167.831 -4.48388 3.21951 0
M  V30 1733 H 170.307 -3.92734 1.37475 0
M  V30 1734 H 169.183 -5.31051 1.38838 0
M  V30 1735 H 169.444 -4.4198 -0.102924 0
M  V30 1736 N 168.503 -0.877838 -1.30888 0
M  V30 1737 C 169.919 -0.570844 -1.49042 0
M  V30 1738 C 170.119 0.893159 -1.80624 0
M  V30 1739 O 169.175 1.67485 -1.88958 0
M  V30 1740 C 170.488 -1.47784 -2.61878 0
M  V30 1741 C 172.036 -1.48071 -2.75761 0
M  V30 1742 C 172.511 -2.37347 -3.91702 0
M  V30 1743 N 174.002 -2.35271 -3.99001 0
M  V30 1744 C 174.737 -3.01063 -4.88004 0
M  V30 1745 N 174.233 -3.76055 -5.81854 0
M  V30 1746 N 176.026 -2.90332 -4.81315 0
M  V30 1747 H 168.177 -1.82502 -1.0866 0
M  V30 1748 H 170.44 -0.780797 -0.537644 0
M  V30 1749 H 170.146 -2.51993 -2.45341 0
M  V30 1750 H 170.02 -1.18215 -3.58197 0
M  V30 1751 H 172.407 -0.446166 -2.91708 0
M  V30 1752 H 172.488 -1.81668 -1.80085 0
M  V30 1753 H 172.132 -3.40883 -3.76512 0
M  V30 1754 H 172.062 -2.01071 -4.86701 0
M  V30 1755 H 174.553 -1.80768 -3.3186 0
M  V30 1756 H 174.866 -4.23366 -6.46514 0
M  V30 1757 H 173.211 -3.80163 -5.81808 0
M  V30 1758 H 176.402 -2.31278 -4.06974 0
M  V30 1759 H 176.575 -3.41885 -5.50471 0
M  V30 1760 N 169.982 1.44106 -0.638065 0
M  V30 1761 C 171.259 1.95453 -0.0759321 0
M  V30 1762 C 171.639 1.57984 1.40015 0
M  V30 1763 O 170.987 0.857361 2.11806 0
M  V30 1764 C 171.197 3.47655 -0.306132 0
M  V30 1765 C 172.545 4.24114 -0.203008 0
M  V30 1766 O 173.569 3.55405 -0.237871 0
M  V30 1767 O 172.428 5.46381 -0.113827 0
M  V30 1768 H 169.522 0.826797 0.0183332 0
M  V30 1769 H 172.068 1.54122 -0.710251 0
M  V30 1770 H 170.84 3.68 -1.3301 0
M  V30 1771 H 170.463 3.95949 0.361991 0
M  V30 1772 N 171.46 0.379036 1.52974 0
M  V30 1773 C 172.876 0.0285448 1.59574 0
M  V30 1774 C 173.076 -1.45542 1.39355 0
M  V30 1775 O 172.132 -2.2187 1.20541 0
M  V30 1776 C 173.445 0.496535 2.96572 0
M  V30 1777 C 174.993 0.451909 3.0972 0
M  V30 1778 C 175.468 0.895924 4.49152 0
M  V30 1779 N 176.959 0.851522 4.55306 0
M  V30 1780 C 177.694 1.16661 5.61407 0
M  V30 1781 N 177.19 1.55166 6.752 0
M  V30 1782 N 178.983 1.08853 5.51459 0
M  V30 1783 H 171.134 1.34525 1.64367 0
M  V30 1784 H 173.397 0.550733 0.771619 0
M  V30 1785 H 173.103 1.53258 3.16552 0
M  V30 1786 H 172.977 -0.109802 3.7704 0
M  V30 1787 H 175.364 -0.575029 2.89443 0
M  V30 1788 H 175.445 1.09392 2.3123 0
M  V30 1789 H 175.089 1.92104 4.70168 0
M  V30 1790 H 175.019 0.23103 5.26093 0
M  V30 1791 H 177.51 0.568038 3.73606 0
M  V30 1792 H 177.823 1.776 7.52116 0
M  V30 1793 H 176.168 1.59044 6.76557 0
M  V30 1794 H 179.359 0.786803 4.6144 0
M  V30 1795 H 179.532 1.33742 6.34048 0
M  V30 1796 N 172.938 -1.57226 0.108567 0
M  V30 1797 C 174.184 -1.95121 -0.552761 0
M  V30 1798 C 174.517 -0.991345 -1.66991 0
M  V30 1799 O 173.792 -0.0267211 -1.94482 0
M  V30 1800 C 174.075 -3.43039 -1.09528 0
M  V30 1801 C 173.928 -4.49797 0.0177332 0
M  V30 1802 C 175.247 -3.92567 -1.98945 0
M  V30 1803 H 172.366 -0.709496 -0.199461 0
M  V30 1804 H 175.008 -1.89126 0.182011 0
M  V30 1805 H 173.158 -3.48279 -1.72146 0
M  V30 1806 H 174.83 -4.56661 0.652584 0
M  V30 1807 H 173.073 -4.284 0.682309 0
M  V30 1808 H 173.744 -5.50528 -0.402919 0
M  V30 1809 H 176.22 -3.89565 -1.46214 0
M  V30 1810 H 175.096 -4.96605 -2.33827 0
M  V30 1811 H 175.357 -3.32648 -2.91201 0
M  V30 1812 N 174.416 0.165178 -1.56732 0
M  V30 1813 C 175.832 0.517174 -1.50988 0
M  V30 1814 C 176.032 1.84331 -0.813894 0
M  V30 1815 O 175.088 2.49672 -0.37682 0
M  V30 1816 C 176.401 0.544261 -2.95733 0
M  V30 1817 C 177.949 0.631039 -3.06573 0
M  V30 1818 C 178.424 0.68896 -4.52788 0
M  V30 1819 N 179.915 0.751683 -4.5706 0
M  V30 1820 C 180.65 0.817177 -5.67547 0
M  V30 1821 N 180.146 0.843129 -6.8765 0
M  V30 1822 N 181.939 0.856668 -5.55534 0
M  V30 1823 H 174.09 -0.704318 -2.00382 0
M  V30 1824 H 176.353 -0.254687 -0.913148 0
M  V30 1825 H 176.059 -0.361607 -3.49836 0
M  V30 1826 H 175.933 1.3886 -3.5071 0
M  V30 1827 H 178.32 1.52733 -2.52501 0
M  V30 1828 H 178.401 -0.240095 -2.54671 0
M  V30 1829 H 178.045 -0.2031 -5.07494 0
M  V30 1830 H 177.975 1.57633 -5.02454 0
M  V30 1831 H 180.466 0.739661 -3.70591 0
M  V30 1832 H 180.779 0.894448 -7.67606 0
M  V30 1833 H 179.124 0.811304 -6.90248 0
M  V30 1834 H 182.315 0.833437 -4.60621 0
M  V30 1835 H 182.488 0.904247 -6.4166 0
M  V30 1836 N 175.894 1.51508 0.433938 0
M  V30 1837 C 177.122 1.68157 1.20543 0
M  V30 1838 C 177.537 0.380362 1.84929 0
M  V30 1839 O 176.894 -0.641446 1.70856 0
M  V30 1840 C 176.945 2.79965 2.28696 0
M  V30 1841 O 176.666 4.05045 1.66943 0
M  V30 1842 C 178.167 3.07912 3.18912 0
M  V30 1843 H 175.387 0.56421 0.363191 0
M  V30 1844 H 177.931 1.97941 0.513754 0
M  V30 1845 H 176.086 2.5277 2.93574 0
M  V30 1846 H 176.5 4.67165 2.38448 0
M  V30 1847 H 177.974 3.89719 3.90926 0
M  V30 1848 H 178.451 2.20456 3.79863 0
M  V30 1849 H 179.057 3.36779 2.59731 0
M  V30 1850 N 177.372 -0.689602 1.41712 0
M  V30 1851 C 178.319 -1.80345 1.44029 0
M  V30 1852 C 179.289 -1.63478 0.293948 0
M  V30 1853 O 180.474 -1.84244 0.495869 0
M  V30 1854 C 177.614 -3.18272 1.33405 0
M  V30 1855 C 176.727 -3.46529 2.57956 0
M  V30 1856 C 175.862 -4.74103 2.39582 0
M  V30 1857 C 174.901 -4.95347 3.5958 0
M  V30 1858 N 174.038 -6.14151 3.40239 0
M  V30 1859 H 178.878 -1.77698 2.39222 0
M  V30 1860 H 176.415 -0.867688 1.18784 0
M  V30 1861 H 178.373 -3.97956 1.25246 0
M  V30 1862 H 177.003 -3.2008 0.418164 0
M  V30 1863 H 176.055 -2.61207 2.76542 0
M  V30 1864 H 177.367 -3.58126 3.47199 0
M  V30 1865 H 176.521 -5.61853 2.28924 0
M  V30 1866 H 175.26 -4.64763 1.47805 0
M  V30 1867 H 174.265 -4.06044 3.70686 0
M  V30 1868 H 175.49 -5.06542 4.52318 0
M  V30 1869 H 173.436 -6.06013 2.51167 0
M  V30 1870 H 173.353 -6.26543 4.23061 0
M  V30 1871 H 174.621 -7.04619 3.33365 0
M  V30 1872 N 178.85 -1.27639 -0.924453 0
M  V30 1873 C 179.783 -1.04966 -2.02626 0
M  V30 1874 C 180.761 0.0309505 -1.62571 0
M  V30 1875 O 181.945 -0.114846 -1.8815 0
M  V30 1876 C 179.072 -0.59292 -3.3347 0
M  V30 1877 C 178.118 -1.66858 -3.92506 0
M  V30 1878 S 178.951 -3.2619 -4.24689 0
M  V30 1879 C 180.107 -2.82325 -5.58609 0
M  V30 1880 H 180.34 -1.98252 -2.21547 0
M  V30 1881 H 177.873 -1.11506 -1.06798 0
M  V30 1882 H 179.831 -0.336086 -4.09122 0
M  V30 1883 H 178.492 0.319939 -3.12466 0
M  V30 1884 H 177.685 -1.30038 -4.86935 0
M  V30 1885 H 177.287 -1.87766 -3.2345 0
M  V30 1886 H 179.579 -2.2783 -6.38044 0
M  V30 1887 H 180.522 -3.75511 -6.00331 0
M  V30 1888 H 180.93 -2.21367 -5.19285 0
M  V30 1889 N 180.328 1.1314 -1.09713 0
M  V30 1890 C 181.238 2.22242 -0.751367 0
M  V30 1891 C 182.254 1.72224 0.247938 0
M  V30 1892 O 183.43 2.01205 0.0885463 0
M  V30 1893 C 180.495 3.46231 -0.180274 0
M  V30 1894 C 179.556 4.11125 -1.2359 0
M  V30 1895 C 178.789 5.29195 -0.691966 0
M  V30 1896 O 179.012 5.68342 0.48414 0
M  V30 1897 O 177.946 5.84214 -1.44838 0
M  V30 1898 H 181.772 2.54197 -1.66186 0
M  V30 1899 H 179.357 1.21331 -0.871735 0
M  V30 1900 H 181.239 4.21185 0.134739 0
M  V30 1901 H 179.914 3.1597 0.703185 0
M  V30 1902 H 178.821 3.37985 -1.60366 0
M  V30 1903 H 180.154 4.45524 -2.09211 0
M  V30 1904 N 181.806 0.884767 1.30421 0
M  V30 1905 C 183.222 0.57874 1.48737 0
M  V30 1906 C 183.422 -0.883567 1.81095 0
M  V30 1907 O 182.478 -1.6648 1.89844 0
M  V30 1908 C 183.791 1.49171 2.61091 0
M  V30 1909 C 185.339 1.49532 2.74971 0
M  V30 1910 C 185.814 2.39421 3.90438 0
M  V30 1911 N 187.305 2.37383 3.97748 0
M  V30 1912 C 188.04 3.03647 4.86401 0
M  V30 1913 N 187.536 3.79136 5.79852 0
M  V30 1914 N 189.329 2.9288 4.79768 0
M  V30 1915 H 181.48 1.83075 1.0769 0
M  V30 1916 H 183.743 0.783637 0.533495 0
M  V30 1917 H 183.449 2.53291 2.44001 0
M  V30 1918 H 183.323 1.20113 3.57565 0
M  V30 1919 H 185.71 0.46163 2.91467 0
M  V30 1920 H 185.791 1.8262 1.79119 0
M  V30 1921 H 185.435 3.42874 3.74699 0
M  V30 1922 H 185.365 2.03649 4.85628 0
M  V30 1923 H 187.856 1.82525 3.30897 0
M  V30 1924 H 188.169 4.26789 6.4426 0
M  V30 1925 H 186.514 3.83243 5.79784 0
M  V30 1926 H 189.705 2.33433 4.05742 0
M  V30 1927 H 189.878 3.448 5.4865 0
M  V30 1928 N 183.284 -1.43765 0.645699 0
M  V30 1929 C 184.561 -1.9541 0.0862963 0
M  V30 1930 C 184.941 -1.58725 -1.39175 0
M  V30 1931 O 184.289 -0.868581 -2.11348 0
M  V30 1932 C 184.499 -3.47488 0.324565 0
M  V30 1933 C 185.847 -4.24001 0.225497 0
M  V30 1934 O 186.871 -3.55274 0.256715 0
M  V30 1935 O 185.73 -5.46313 0.142801 0
M  V30 1936 H 182.824 -0.826882 -0.0139483 0
M  V30 1937 H 185.37 -1.53743 0.718415 0
M  V30 1938 H 184.142 -3.67289 1.3496 0
M  V30 1939 H 183.765 -3.96135 -0.340987 0
M  V30 1940 N 184.763 -0.387143 -1.52771 0
M  V30 1941 C 186.012 0.19697 -2.00736 0
M  V30 1942 C 186.325 1.48082 -1.27793 0
M  V30 1943 O 187.531 2.14485 -1.66458 0
M  V30 1944 C 185.987 0.401568 -3.57653 0
M  V30 1945 C 185.595 -0.868907 -4.39493 0
M  V30 1946 C 187.339 0.942164 -4.13912 0
M  V30 1947 C 185.246 -0.632705 -5.88006 0
M  V30 1948 H 184.176 0.0773827 -0.750019 0
M  V30 1949 H 186.827 -0.50921 -1.76293 0
M  V30 1950 H 185.209 1.16954 -3.78335 0
M  V30 1951 H 186.383 -1.64133 -4.30577 0
M  V30 1952 H 184.698 -1.33429 -3.94443 0
M  V30 1953 H 187.295 1.13455 -5.22525 0
M  V30 1954 H 187.638 1.9106 -3.69867 0
M  V30 1955 H 188.171 0.233814 -3.97112 0
M  V30 1956 H 184.91 -1.57208 -6.36369 0
M  V30 1957 H 184.43 0.100825 -5.99715 0
M  V30 1958 H 186.109 -0.26642 -6.46451 0
M  V30 1959 N 186.241 1.57166 -0.116904 0
M  V30 1960 C 187.171 2.18222 0.830759 0
M  V30 1961 C 188.152 1.12167 1.27877 0
M  V30 1962 O 189.337 1.40394 1.34176 0
M  V30 1963 C 186.467 2.77996 2.08172 0
M  V30 1964 C 185.421 3.89614 1.77157 0
M  V30 1965 C 184.747 4.36187 3.09265 0
M  V30 1966 C 186.047 5.1181 1.04151 0
M  V30 1967 H 187.741 2.97664 0.321992 0
M  V30 1968 H 185.287 1.4318 0.153434 0
M  V30 1969 H 187.24 3.19366 2.74924 0
M  V30 1970 H 185.964 1.9584 2.6137 0
M  V30 1971 H 184.623 3.48816 1.12796 0
M  V30 1972 H 184.271 3.50893 3.60393 0
M  V30 1973 H 183.971 5.11455 2.89288 0
M  V30 1974 H 185.495 4.80207 3.77139 0
M  V30 1975 H 186.909 5.50214 1.61052 0
M  V30 1976 H 185.306 5.92648 0.942762 0
M  V30 1977 H 186.376 4.84892 0.0279022 0
M  V30 1978 N 187.719 -0.156864 1.56817 0
M  V30 1979 C 188.965 -0.872416 1.83076 0
M  V30 1980 C 189.298 -1.81261 0.697001 0
M  V30 1981 O 188.573 -1.92171 -0.30008 0
M  V30 1982 C 188.856 -1.65551 3.19789 0
M  V30 1983 C 188.709 -0.737467 4.43713 0
M  V30 1984 C 190.028 -2.62012 3.53606 0
M  V30 1985 H 187.147 -0.315715 0.665953 0
M  V30 1986 H 189.789 -0.138004 1.89498 0
M  V30 1987 H 187.939 -2.28159 3.14445 0
M  V30 1988 H 189.611 -0.123143 4.61136 0
M  V30 1989 H 187.854 -0.0464067 4.33775 0
M  V30 1990 H 188.525 -1.32122 5.35955 0
M  V30 1991 H 191.001 -2.09525 3.59497 0
M  V30 1992 H 189.877 -3.13861 4.50314 0
M  V30 1993 H 190.138 -3.42902 2.79053 0
M  V30 1994 N 189.197 -1.51736 -0.425897 0
M  V30 1995 C 190.107 -1.76738 -1.54275 0
M  V30 1996 C 191.123 -0.65211 -1.61318 0
M  V30 1997 O 192.299 -0.935654 -1.78346 0
M  V30 1998 C 189.364 -1.89755 -2.90162 0
M  V30 1999 C 188.425 -3.13633 -2.93143 0
M  V30 2000 C 187.658 -3.2602 -4.22548 0
M  V30 2001 O 187.881 -2.44067 -5.15546 0
M  V30 2002 O 186.815 -4.19071 -4.32046 0
M  V30 2003 H 190.641 -2.71502 -1.36089 0
M  V30 2004 H 188.226 -1.36376 -0.610069 0
M  V30 2005 H 190.108 -2.00236 -3.70788 0
M  V30 2006 H 188.783 -0.981785 -3.08452 0
M  V30 2007 H 187.69 -3.08622 -2.11431 0
M  V30 2008 H 189.023 -4.04936 -2.798 0
M  V30 2009 N 190.675 0.682077 -1.42076 0
M  V30 2010 C 191.921 1.44428 -1.42367 0
M  V30 2011 C 192.254 1.94164 -0.0373056 0
M  V30 2012 O 191.529 1.70429 0.937239 0
M  V30 2013 C 191.812 2.64654 -2.44194 0
M  V30 2014 C 191.665 2.20596 -3.91991 0
M  V30 2015 C 192.984 3.66865 -2.431 0
M  V30 2016 H 190.103 0.523834 -0.518428 0
M  V30 2017 H 192.745 0.77576 -1.73442 0
M  V30 2018 H 190.895 3.2169 -2.17826 0
M  V30 2019 H 192.567 1.68783 -4.29313 0
M  V30 2020 H 190.81 1.52242 -4.06208 0
M  V30 2021 H 191.481 3.06921 -4.58807 0
M  V30 2022 H 193.957 3.19531 -2.66532 0
M  V30 2023 H 192.833 4.48577 -3.16339 0
M  V30 2024 H 193.094 4.17493 -1.45437 0
M  V30 2025 N 192.153 1.28127 0.917671 0
M  V30 2026 C 193.101 1.11569 2.04096 0
M  V30 2027 C 194.095 0.0360242 1.69362 0
M  V30 2028 O 195.301 0.194501 1.78946 0
M  V30 2029 H 191.676 0.344097 0.668656 0
M  V30 2030 H 193.647 2.06711 2.15205 0
M  V30 2031 C 192.396 0.790197 3.38602 0
M  V30 2032 H 191.719 1.61293 3.6582 0
M  V30 2033 H 193.159 0.714271 4.1794 0
M  V30 2034 C 191.618 -0.505897 3.3308 0
M  V30 2035 O 192.148 -1.53736 3.71117 0
M  V30 2036 N 190.354 -0.505193 2.86175 0
M  V30 2037 H 189.901 0.334621 2.55417 0
M  V30 2038 H 189.859 -1.37243 2.82863 0
M  V30 2039 N 193.631 -1.12557 1.10312 0
M  V30 2040 C 194.581 -2.16331 0.720076 0
M  V30 2041 C 195.565 -1.58616 -0.270115 0
M  V30 2042 O 196.757 -1.76823 -0.0790507 0
M  V30 2043 C 193.886 -3.42963 0.152113 0
M  V30 2044 C 192.972 -4.07663 1.16927 0
M  V30 2045 N 193.363 -4.47392 2.35953 0
M  V30 2046 C 191.661 -4.34425 1.0095 0
M  V30 2047 C 192.362 -4.97932 3.0073 0
M  V30 2048 N 191.338 -4.93358 2.28252 0
M  V30 2049 H 195.14 -2.44813 1.62616 0
M  V30 2050 H 192.654 -1.29449 0.980654 0
M  V30 2051 H 194.651 -4.16664 -0.14037 0
M  V30 2052 H 193.311 -3.1595 -0.748701 0
M  V30 2053 H 194.322 -4.39802 2.73486 0
M  V30 2054 H 190.999 -4.17177 0.164134 0
M  V30 2055 H 192.389 -5.38397 4.01969 0
M  V30 2056 N 195.109 -0.891671 -1.2995 0
M  V30 2057 C 196.52 -0.563104 -1.78006 0
M  V30 2058 C 196.871 0.920978 -1.73241 0
M  V30 2059 O 195.996 1.71987 -1.31337 0
M  V30 2060 C 196.591 -1.01539 -3.23226 0
M  V30 2061 C 195.15 -0.738124 -3.69092 0
M  V30 2062 C 194.297 -1.19461 -2.50249 0
M  V30 2063 H 197.248 -1.07522 -1.16725 0
M  V30 2064 H 197.269 -0.347217 -3.78912 0
M  V30 2065 H 196.781 -2.09555 -3.26662 0
M  V30 2066 H 194.882 0.329766 -3.71138 0
M  V30 2067 H 194.995 -1.33037 -4.60259 0
M  V30 2068 H 193.359 -0.613787 -2.47194 0
M  V30 2069 H 194.142 -2.28265 -2.56417 0
M  V30 2070 N 196.587 1.43421 -0.653314 0
M  V30 2071 C 197.834 2.01812 -0.166745 0
M  V30 2072 C 198.162 1.51535 1.21931 0
M  V30 2073 O 197.417 0.698975 1.82792 0
M  V30 2074 C 197.716 3.57176 -0.126623 0
M  V30 2075 C 197.382 4.26798 -1.45444 0
M  V30 2076 C 196.044 4.45534 -1.81805 0
M  V30 2077 C 198.396 4.66225 -2.32989 0
M  V30 2078 C 195.724 5.00961 -3.05377 0
M  V30 2079 C 198.076 5.23021 -3.55853 0
M  V30 2080 C 196.74 5.39973 -3.9241 0
M  V30 2081 H 196.01 0.738484 -0.0610162 0
M  V30 2082 H 198.657 1.71896 -0.84404 0
M  V30 2083 H 196.962 3.86634 0.634123 0
M  V30 2084 H 198.659 4.00112 0.266723 0
M  V30 2085 H 195.249 4.12561 -1.16153 0
M  V30 2086 H 199.433 4.51443 -2.06187 0
M  V30 2087 H 194.689 5.12271 -3.3375 0
M  V30 2088 H 198.863 5.52518 -4.23907 0
M  V30 2089 H 196.49 5.82687 -4.88242 0
M  V30 2090 N 198.065 0.39524 1.52563 0
M  V30 2091 C 199.314 -0.186321 2.00838 0
M  V30 2092 C 199.627 -1.47402 1.28577 0
M  V30 2093 O 200.833 -2.13599 1.67593 0
M  V30 2094 C 199.289 -0.382595 3.57861 0
M  V30 2095 C 198.897 0.892202 4.39026 0
M  V30 2096 C 200.641 -0.9202 4.14406 0
M  V30 2097 C 198.548 0.66388 5.87662 0
M  V30 2098 H 197.478 -0.0734041 0.750418 0
M  V30 2099 H 200.129 0.518552 1.76021 0
M  V30 2100 H 198.511 -1.14946 3.7895 0
M  V30 2101 H 199.685 1.66414 4.29701 0
M  V30 2102 H 198 1.35519 3.9373 0
M  V30 2103 H 200.597 -1.10683 5.23119 0
M  V30 2104 H 200.94 -1.89096 3.70875 0
M  V30 2105 H 201.473 -0.212751 3.97231 0
M  V30 2106 H 198.212 1.6058 6.35527 0
M  V30 2107 H 197.732 -0.0690193 5.9976 0
M  V30 2108 H 199.411 0.300699 6.46301 0
M  V30 2109 N 199.544 -1.57102 0.125237 0
M  V30 2110 C 200.79 -1.95697 -0.532035 0
M  V30 2111 C 201.123 -1.009 -1.6593 0
M  V30 2112 O 200.398 -0.047347 -1.94442 0
M  V30 2113 C 200.681 -3.44181 -1.05884 0
M  V30 2114 C 200.534 -4.49752 0.0654392 0
M  V30 2115 C 201.853 -3.94655 -1.9477 0
M  V30 2116 H 198.972 -0.711571 -0.191925 0
M  V30 2117 H 201.614 -1.88923 0.20206 0
M  V30 2118 H 199.764 -3.50085 -1.68442 0
M  V30 2119 H 201.436 -4.55943 0.700982 0
M  V30 2120 H 199.679 -4.27653 0.727709 0
M  V30 2121 H 200.35 -5.50924 -0.344505 0
M  V30 2122 H 202.826 -3.91094 -1.42074 0
M  V30 2123 H 201.702 -4.99057 -2.28546 0
M  V30 2124 H 201.963 -3.35718 -2.87656 0
M  V30 2125 N 201.022 0.148545 -1.56898 0
M  V30 2126 C 201.969 1.18345 -1.98149 0
M  V30 2127 C 202.939 1.42772 -0.848848 0
M  V30 2128 O 204.124 1.55132 -1.11079 0
M  V30 2129 C 201.264 2.51231 -2.36594 0
M  V30 2130 C 200.377 2.33991 -3.63142 0
M  V30 2131 C 199.512 3.59902 -3.90697 0
M  V30 2132 C 198.551 3.37692 -5.1052 0
M  V30 2133 N 197.688 4.5573 -5.34092 0
M  V30 2134 H 202.528 0.82467 -2.86362 0
M  V30 2135 H 200.065 0.395756 -1.41676 0
M  V30 2136 H 202.023 3.28713 -2.56912 0
M  V30 2137 H 200.653 2.85059 -1.51463 0
M  V30 2138 H 199.705 1.47572 -3.50609 0
M  V30 2139 H 201.017 2.13539 -4.5078 0
M  V30 2140 H 200.171 4.45813 -4.11505 0
M  V30 2141 H 198.91 3.83357 -3.01477 0
M  V30 2142 H 197.915 2.5017 -4.89587 0
M  V30 2143 H 199.14 3.15637 -6.0129 0
M  V30 2144 H 197.086 4.79361 -4.47827 0
M  V30 2145 H 197.003 4.38274 -6.15996 0
M  V30 2146 H 198.271 5.42858 -5.59397 0
M  V30 2147 N 202.5 1.5196 0.417844 0
M  V30 2148 C 203.43 1.77634 1.51554 0
M  V30 2149 C 204.411 0.626918 1.58126 0
M  V30 2150 O 205.596 0.871632 1.7354 0
M  V30 2151 C 202.726 1.91911 2.8946 0
M  V30 2152 C 201.68 3.07463 2.97743 0
M  V30 2153 C 201.006 3.06951 4.37819 0
M  V30 2154 C 202.306 4.47082 2.70027 0
M  V30 2155 H 204 2.6955 1.3032 0
M  V30 2156 H 201.546 1.29706 0.625492 0
M  V30 2157 H 203.499 2.08455 3.6623 0
M  V30 2158 H 202.223 0.966598 3.11969 0
M  V30 2159 H 200.882 2.90656 2.23416 0
M  V30 2160 H 200.53 2.09438 4.57323 0
M  V30 2161 H 200.23 3.84556 4.44286 0
M  V30 2162 H 201.754 3.25613 5.16535 0
M  V30 2163 H 203.168 4.6414 3.36522 0
M  V30 2164 H 201.565 5.2654 2.87881 0
M  V30 2165 H 202.635 4.55777 1.65514 0
M  V30 2166 N 203.978 -0.674533 1.42435 0
M  V30 2167 C 204.928 -1.7807 1.4239 0
M  V30 2168 C 205.912 -1.58169 0.295202 0
M  V30 2169 O 207.104 -1.68643 0.537449 0
M  V30 2170 C 204.233 -3.16532 1.32901 0
M  V30 2171 C 203.319 -3.42055 2.50717 0
M  V30 2172 N 203.71 -3.38162 3.76139 0
M  V30 2173 C 202.008 -3.72692 2.44983 0
M  V30 2174 C 202.709 -3.63177 4.54398 0
M  V30 2175 N 201.685 -3.83954 3.84812 0
M  V30 2176 H 205.487 -1.73454 2.37257 0
M  V30 2177 H 203.001 -0.875381 1.36788 0
M  V30 2178 H 204.998 -3.958 1.30951 0
M  V30 2179 H 203.658 -3.22345 0.390363 0
M  V30 2180 H 204.669 -3.18057 4.0873 0
M  V30 2181 H 201.346 -3.85749 1.59699 0
M  V30 2182 H 202.736 -3.66125 5.63384 0
M  V30 2183 N 205.456 -1.28612 -0.910864 0
M  V30 2184 C 206.686 -1.1862 -1.69153 0
M  V30 2185 C 207.094 0.257324 -1.87442 0
M  V30 2186 O 206.437 1.18543 -1.40332 0
M  V30 2187 C 206.499 -1.81606 -3.10257 0
M  V30 2188 C 206.163 -3.30864 -3.15243 0
M  V30 2189 C 207.16 -4.27256 -2.96223 0
M  V30 2190 C 204.845 -3.71871 -3.37664 0
M  V30 2191 C 206.839 -5.62631 -2.99541 0
M  V30 2192 C 204.526 -5.07371 -3.40614 0
M  V30 2193 C 205.524 -6.02561 -3.21573 0
M  V30 2194 O 205.212 -7.35589 -3.2429 0
M  V30 2195 H 204.944 -0.412633 -0.535453 0
M  V30 2196 H 207.498 -1.70306 -1.14827 0
M  V30 2197 H 205.728 -1.24418 -3.66138 0
M  V30 2198 H 207.417 -1.66092 -3.70362 0
M  V30 2199 H 208.183 -3.9691 -2.78725 0
M  V30 2200 H 204.062 -2.98241 -3.5153 0
M  V30 2201 H 207.606 -6.36907 -2.84597 0
M  V30 2202 H 203.503 -5.37366 -3.57642 0
M  V30 2203 H 204.271 -7.44252 -3.40633 0
M  V30 2204 N 206.934 1.1197 -1.10907 0
M  V30 2205 C 207.897 2.16031 -0.765707 0
M  V30 2206 C 208.897 1.59393 0.212235 0
M  V30 2207 O 210.087 1.74196 -0.0115441 0
M  V30 2208 C 207.219 3.40632 -0.135053 0
M  V30 2209 H 208.412 2.47919 -1.68748 0
M  V30 2210 H 205.965 1.27061 -0.910226 0
M  V30 2211 H 206.7 3.14348 0.797218 0
M  V30 2212 H 206.485 3.8302 -0.838937 0
M  V30 2213 H 207.975 4.17505 0.0892469 0
M  V30 2214 N 208.412 0.89855 1.29475 0
M  V30 2215 C 209.659 0.523882 1.95606 0
M  V30 2216 C 209.987 -0.929608 1.70847 0
M  V30 2217 O 209.242 -1.67401 1.01367 0
M  V30 2218 C 209.541 0.761398 3.49195 0
M  V30 2219 C 209.207 2.19207 3.94029 0
M  V30 2220 C 207.869 2.58326 4.05982 0
M  V30 2221 C 210.221 3.12379 4.17216 0
M  V30 2222 C 207.549 3.898 4.38489 0
M  V30 2223 C 209.901 4.43401 4.51197 0
M  V30 2224 C 208.565 4.82394 4.61359 0
M  V30 2225 H 207.835 0.191702 0.715773 0
M  V30 2226 H 210.482 1.13699 1.54094 0
M  V30 2227 H 208.787 0.0653622 3.91745 0
M  V30 2228 H 210.484 0.450904 3.98457 0
M  V30 2229 H 207.074 1.87846 3.85242 0
M  V30 2230 H 211.258 2.83371 4.07449 0
M  V30 2231 H 206.514 4.19734 4.44559 0
M  V30 2232 H 210.688 5.15623 4.68087 0
M  V30 2233 H 208.315 5.84306 4.86303 0
M  V30 2234 N 209.89 -1.43072 0.660911 0
M  V30 2235 C 210.822 -2.29108 -0.0647641 0
M  V30 2236 C 211.835 -1.42928 -0.779448 0
M  V30 2237 O 213.024 -1.66788 -0.635921 0
M  V30 2238 C 210.124 -3.20032 -1.11503 0
M  V30 2239 C 209.297 -4.34792 -0.476955 0
M  V30 2240 C 208.356 -5.06534 -1.42513 0
M  V30 2241 O 207.382 -5.61538 -0.930771 0
M  V30 2242 N 208.584 -5.1075 -2.75889 0
M  V30 2243 H 211.349 -2.92029 0.673731 0
M  V30 2244 H 208.91 -1.53846 0.50427 0
M  V30 2245 H 210.902 -3.64892 -1.75032 0
M  V30 2246 H 209.472 -2.58658 -1.75541 0
M  V30 2247 H 208.692 -3.92752 0.337572 0
M  V30 2248 H 209.98 -5.0879 -0.0318525 0
M  V30 2249 H 209.378 -4.67447 -3.18606 0
M  V30 2250 H 207.935 -5.59302 -3.347 0
M  V30 2251 N 211.368 -0.403325 -1.52352 0
M  V30 2252 C 212.596 0.174012 -2.06167 0
M  V30 2253 C 213.011 1.39347 -1.27388 0
M  V30 2254 O 212.368 1.79597 -0.324201 0
M  V30 2255 C 212.419 0.530223 -3.5759 0
M  V30 2256 O 212.14 -0.640806 -4.33388 0
M  V30 2257 C 213.641 1.16192 -4.27802 0
M  V30 2258 H 210.861 0.0229464 -0.670608 0
M  V30 2259 H 213.405 -0.572604 -1.9632 0
M  V30 2260 H 211.56 1.22673 -3.67464 0
M  V30 2261 H 211.974 -0.344851 -5.23365 0
M  V30 2262 H 213.448 1.36141 -5.34948 0
M  V30 2263 H 213.925 2.13335 -3.83907 0
M  V30 2264 H 214.531 0.505775 -4.22282 0
M  V30 2265 N 212.846 1.57033 -0.133567 0
M  V30 2266 C 213.756 2.19632 0.824564 0
M  V30 2267 C 214.772 1.17666 1.28182 0
M  V30 2268 O 215.948 1.50193 1.3418 0
M  V30 2269 C 213.013 2.79499 2.05137 0
M  V30 2270 C 212.074 3.96548 1.64464 0
M  V30 2271 C 211.307 4.5355 2.81297 0
M  V30 2272 O 211.53 4.09438 3.97136 0
M  V30 2273 O 210.464 5.44018 2.57542 0
M  V30 2274 H 214.29 3.01991 0.321766 0
M  V30 2275 H 211.875 1.49112 0.0927889 0
M  V30 2276 H 213.757 3.17602 2.7696 0
M  V30 2277 H 212.432 2.00162 2.54395 0
M  V30 2278 H 211.339 3.63186 0.897048 0
M  V30 2279 H 212.672 4.77364 1.19934 0
M  V30 2280 N 214.325 -0.140222 1.56975 0
M  V30 2281 C 215.573 -0.850005 1.83356 0
M  V30 2282 C 215.894 -1.81399 0.71551 0
M  V30 2283 O 215.164 -1.94136 -0.262294 0
M  V30 2284 H 213.744 -0.316886 0.676456 0
M  V30 2285 H 216.406 -0.132608 1.94448 0
M  V30 2286 H 215.502 -1.40814 2.78528 0
M  V30 2287 N 215.803 -1.52179 -0.40978 0
M  V30 2288 C 216.75 -1.75475 -1.49924 0
M  V30 2289 C 217.72 -0.597175 -1.54994 0
M  V30 2290 O 218.905 -0.834655 -1.71575 0
M  V30 2291 C 216.045 -1.9107 -2.87378 0
M  V30 2292 C 215.158 -3.18717 -2.91622 0
M  V30 2293 C 214.293 -3.24747 -4.20372 0
M  V30 2294 C 213.332 -4.46598 -4.18588 0
M  V30 2295 N 212.469 -4.50025 -5.38908 0
M  V30 2296 H 217.309 -2.68458 -1.29361 0
M  V30 2297 H 214.846 -1.33024 -0.627934 0
M  V30 2298 H 216.804 -1.98096 -3.6717 0
M  V30 2299 H 215.434 -1.01469 -3.06437 0
M  V30 2300 H 214.486 -3.20866 -2.04326 0
M  V30 2301 H 215.798 -4.08544 -2.86169 0
M  V30 2302 H 214.952 -3.30841 -5.08556 0
M  V30 2303 H 213.691 -2.32857 -4.28519 0
M  V30 2304 H 212.696 -4.40652 -3.28794 0
M  V30 2305 H 213.921 -5.39783 -4.12081 0
M  V30 2306 H 211.867 -3.61017 -5.47725 0
M  V30 2307 H 211.784 -5.33697 -5.35447 0
M  V30 2308 H 213.052 -4.60347 -6.29048 0
M  V30 2309 N 217.281 0.66697 -1.42791 0
M  V30 2310 C 218.211 1.79218 -1.49677 0
M  V30 2311 C 219.192 1.66405 -0.352623 0
M  V30 2312 O 220.377 1.85708 -0.567993 0
M  V30 2313 C 217.507 3.17565 -1.40605 0
M  V30 2314 C 216.461 3.45124 -2.53127 0
M  V30 2315 C 215.787 4.83127 -2.29112 0
M  V30 2316 C 217.087 3.41236 -3.95418 0
M  V30 2317 H 218.781 1.73713 -2.43853 0
M  V30 2318 H 216.327 0.83432 -1.17367 0
M  V30 2319 H 218.28 3.96022 -1.44029 0
M  V30 2320 H 217.004 3.23767 -0.429271 0
M  V30 2321 H 215.663 2.69031 -2.49034 0
M  V30 2322 H 215.311 4.85988 -1.29709 0
M  V30 2323 H 215.011 5.02528 -3.04531 0
M  V30 2324 H 216.535 5.63859 -2.34297 0
M  V30 2325 H 217.949 4.09651 -4.01073 0
M  V30 2326 H 216.346 3.72173 -4.70752 0
M  V30 2327 H 217.416 2.39665 -4.21532 0
M  V30 2328 N 218.759 1.29093 0.90403 0
M  V30 2329 C 219.989 1.19516 1.68522 0
M  V30 2330 C 220.397 -0.24738 1.87576 0
M  V30 2331 O 219.74 -1.17798 1.40959 0
M  V30 2332 C 219.802 1.83249 3.0929 0
M  V30 2333 C 219.466 3.32531 3.13484 0
M  V30 2334 C 220.463 4.28821 2.93953 0
M  V30 2335 C 218.148 3.73656 3.35688 0
M  V30 2336 C 220.142 5.64212 2.96553 0
M  V30 2337 C 217.829 5.0917 3.37919 0
M  V30 2338 C 218.827 6.04258 3.18373 0
M  V30 2339 O 218.515 7.37298 3.20385 0
M  V30 2340 H 218.247 0.415467 0.533257 0
M  V30 2341 H 220.801 1.70912 1.13922 0
M  V30 2342 H 219.031 1.26358 3.65473 0
M  V30 2343 H 220.72 1.68054 3.69476 0
M  V30 2344 H 221.486 3.98382 2.76616 0
M  V30 2345 H 217.365 3.00101 3.49943 0
M  V30 2346 H 220.909 6.38407 2.81216 0
M  V30 2347 H 216.806 5.39256 3.54787 0
M  V30 2348 H 217.574 7.46048 3.36681 0
M  V30 2349 N 220.237 -1.11381 1.11499 0
M  V30 2350 C 221.167 -2.19509 0.796125 0
M  V30 2351 C 222.148 -1.68458 -0.235796 0
M  V30 2352 O 223.333 -1.93947 -0.0991344 0
M  V30 2353 C 220.463 -3.46475 0.239205 0
M  V30 2354 C 219.417 -4.10744 1.20307 0
M  V30 2355 C 218.743 -5.32293 0.50683 0
M  V30 2356 C 220.043 -4.55597 2.55399 0
M  V30 2357 H 221.737 -2.46439 1.70024 0
M  V30 2358 H 219.283 -1.18446 0.818935 0
M  V30 2359 H 221.236 -4.214 0.00392006 0
M  V30 2360 H 219.96 -3.19006 -0.700206 0
M  V30 2361 H 218.619 -3.37813 1.42399 0
M  V30 2362 H 218.267 -5.01095 -0.437408 0
M  V30 2363 H 217.967 -5.76243 1.1497 0
M  V30 2364 H 219.491 -6.09956 0.280351 0
M  V30 2365 H 220.905 -5.21841 2.37391 0
M  V30 2366 H 219.302 -5.10363 3.15673 0
M  V30 2367 H 220.372 -3.69013 3.14575 0
M  V30 2368 N 221.715 -0.905404 -1.28997 0
M  V30 2369 C 222.964 -0.530191 -1.94607 0
M  V30 2370 C 223.277 0.929185 -1.72121 0
M  V30 2371 O 224.483 1.41218 -2.31883 0
M  V30 2372 C 222.939 -0.897333 -3.48534 0
M  V30 2373 C 222.547 -2.37587 -3.79811 0
M  V30 2374 C 224.291 -0.592304 -4.20347 0
M  V30 2375 C 222.198 -2.68357 -5.27009 0
M  V30 2376 H 221.128 -0.194558 -0.728466 0
M  V30 2377 H 223.779 -1.10318 -1.46636 0
M  V30 2378 H 222.161 -0.253214 -3.9519 0
M  V30 2379 H 223.335 -3.06602 -3.43994 0
M  V30 2380 H 221.65 -2.6505 -3.2115 0
M  V30 2381 H 224.247 -0.798975 -5.28697 0
M  V30 2382 H 224.59 0.469474 -4.13644 0
M  V30 2383 H 225.123 -1.19452 -3.79442 0
M  V30 2384 H 221.862 -3.73355 -5.38782 0
M  V30 2385 H 221.382 -2.03971 -5.64053 0
M  V30 2386 H 223.061 -2.54922 -5.94663 0
M  V30 2387 N 223.193 1.4272 -0.668489 0
M  V30 2388 C 224.123 2.335 -0.000100175 0
M  V30 2389 C 225.104 1.50328 0.795964 0
M  V30 2390 O 226.289 1.78949 0.754385 0
M  V30 2391 C 223.419 3.33874 0.956302 0
M  V30 2392 C 222.373 4.27152 0.269278 0
M  V30 2393 C 221.699 5.17684 1.33818 0
M  V30 2394 C 222.999 5.15373 -0.847805 0
M  V30 2395 H 224.693 2.89639 -0.758244 0
M  V30 2396 H 222.239 1.39269 -0.366079 0
M  V30 2397 H 224.192 3.9629 1.43292 0
M  V30 2398 H 222.916 2.76025 1.74579 0
M  V30 2399 H 221.575 3.66123 -0.187042 0
M  V30 2400 H 221.223 4.56165 2.1195 0
M  V30 2401 H 220.923 5.80918 0.883659 0
M  V30 2402 H 222.447 5.82974 1.81586 0
M  V30 2403 H 223.861 5.7151 -0.452681 0
M  V30 2404 H 222.258 5.87407 -1.22773 0
M  V30 2405 H 223.328 4.5415 -1.69929 0
M  V30 2406 N 224.671 0.411399 1.52136 0
M  V30 2407 C 225.948 -0.222308 1.94333 0
M  V30 2408 C 226.328 -1.6242 1.34844 0
M  V30 2409 O 225.676 -2.22384 0.525145 0
M  V30 2410 C 225.886 -0.226345 3.48265 0
M  V30 2411 C 227.234 -0.444592 4.22266 0
M  V30 2412 O 228.258 -0.305602 3.54887 0
M  V30 2413 O 227.117 -0.718749 5.41753 0
M  V30 2414 H 224.211 -0.143907 0.814383 0
M  V30 2415 H 226.757 0.467506 1.63133 0
M  V30 2416 H 225.529 0.75475 3.83952 0
M  V30 2417 H 225.152 -0.960163 3.85832 0
M  V30 2418 N 226.149 -1.5696 0.141893 0
M  V30 2419 C 227.396 -1.9596 -0.510492 0
M  V30 2420 C 227.724 -1.02648 -1.65208 0
M  V30 2421 O 226.979 -0.0546947 -1.95624 0
M  V30 2422 C 227.278 -3.41242 -1.06249 0
M  V30 2423 C 226.944 -4.50882 -0.0398791 0
M  V30 2424 C 225.606 -4.80595 0.241247 0
M  V30 2425 C 227.958 -5.17058 0.65578 0
M  V30 2426 C 225.286 -5.73792 1.22393 0
M  V30 2427 C 227.638 -6.11313 1.62724 0
M  V30 2428 C 226.302 -6.39407 1.91612 0
M  V30 2429 H 225.572 -0.717068 -0.186802 0
M  V30 2430 H 228.219 -1.90142 0.227643 0
M  V30 2431 H 226.524 -3.43866 -1.87785 0
M  V30 2432 H 228.221 -3.68742 -1.57576 0
M  V30 2433 H 224.811 -4.27754 -0.269174 0
M  V30 2434 H 228.995 -4.94239 0.451779 0
M  V30 2435 H 224.251 -5.93853 1.45424 0
M  V30 2436 H 228.425 -6.61668 2.17183 0
M  V30 2437 H 226.052 -7.11427 2.6791 0
M  V30 2438 N 227.627 0.131896 -1.57047 0
M  V30 2439 C 228.557 1.16384 -2.02428 0
M  V30 2440 C 229.538 1.43936 -0.90644 0
M  V30 2441 O 230.723 1.54599 -1.17528 0
M  V30 2442 C 227.853 2.49328 -2.4177 0
M  V30 2443 C 226.807 2.36266 -3.56879 0
M  V30 2444 C 226.133 3.74057 -3.8208 0
M  V30 2445 C 227.433 1.834 -4.89042 0
M  V30 2446 H 229.127 0.786433 -2.88887 0
M  V30 2447 H 226.673 0.376855 -1.38981 0
M  V30 2448 H 228.626 3.21759 -2.7212 0
M  V30 2449 H 227.35 2.88934 -1.52266 0
M  V30 2450 H 226.009 1.66286 -3.26718 0
M  V30 2451 H 225.657 4.11125 -2.89803 0
M  V30 2452 H 225.357 3.66174 -4.59554 0
M  V30 2453 H 226.881 4.48012 -4.1487 0
M  V30 2454 H 228.295 2.45636 -5.18011 0
M  V30 2455 H 226.692 1.8637 -5.70426 0
M  V30 2456 H 227.762 0.790662 -4.7841 0
M  V30 2457 N 229.106 1.52395 0.401703 0
M  V30 2458 C 230.522 1.41363 0.740864 0
M  V30 2459 C 230.722 0.523982 1.94568 0
M  V30 2460 O 229.778 -0.00741204 2.52499 0
M  V30 2461 C 231.091 2.84011 0.987847 0
M  V30 2462 C 232.639 2.93404 1.09011 0
M  V30 2463 C 233.114 4.37036 1.3698 0
M  V30 2464 N 234.605 4.40304 1.43829 0
M  V30 2465 C 235.34 5.48508 1.67112 0
M  V30 2466 N 234.836 6.66819 1.87949 0
M  V30 2467 N 236.629 5.36034 1.69187 0
M  V30 2468 H 228.78 2.08765 -0.391262 0
M  V30 2469 H 231.043 0.941265 -0.112798 0
M  V30 2470 H 230.749 3.51265 0.174835 0
M  V30 2471 H 230.623 3.25502 1.906 0
M  V30 2472 H 233.01 2.26325 1.8937 0
M  V30 2473 H 233.091 2.55359 0.15015 0
M  V30 2474 H 232.735 5.04676 0.571353 0
M  V30 2475 H 232.665 4.72623 2.3224 0
M  V30 2476 H 235.156 3.55024 1.29486 0
M  V30 2477 H 235.469 7.45063 2.05185 0
M  V30 2478 H 233.814 6.6987 1.85199 0
M  V30 2479 H 237.005 4.42579 1.52451 0
M  V30 2480 H 237.178 6.20434 1.86993 0
M  V30 2481 N 230.584 -0.659388 1.43143 0
M  V30 2482 C 231.832 -1.41654 1.44147 0
M  V30 2483 C 232.153 -1.94893 0.0645739 0
M  V30 2484 O 231.423 -1.74044 -0.899198 0
M  V30 2485 H 230.003 -0.525708 0.530697 0
M  V30 2486 H 232.665 -0.778097 1.78694 0
M  V30 2487 H 231.761 -2.26195 2.1504 0
M  V30 2488 N 232.062 -1.29571 -0.897171 0
M  V30 2489 C 233.31 -1.17456 -1.64464 0
M  V30 2490 C 233.631 0.273698 -1.9307 0
M  V30 2491 O 232.901 1.18684 -1.55855 0
M  V30 2492 H 231.481 -0.431706 -0.609622 0
M  V30 2493 H 234.143 -1.62531 -1.07562 0
M  V30 2494 H 233.239 -1.72648 -2.59998 0
M  V30 2495 N 233.54 1.10788 -1.12088 0
M  V30 2496 C 234.817 1.79136 -0.785476 0
M  V30 2497 C 235.197 1.98246 0.725377 0
M  V30 2498 O 234.545 1.57258 1.65778 0
M  V30 2499 C 234.755 3.12375 -1.55636 0
M  V30 2500 C 236.103 3.8731 -1.74001 0
M  V30 2501 O 237.127 3.22085 -1.52117 0
M  V30 2502 O 235.986 5.04369 -2.10415 0
M  V30 2503 H 233.08 0.776226 -0.285311 0
M  V30 2504 H 235.626 1.1747 -1.2247 0
M  V30 2505 H 234.398 2.93863 -2.5838 0
M  V30 2506 H 234.021 3.81758 -1.11114 0
M  V30 2507 N 235.018 0.912232 1.28515 0
M  V30 2508 C 236.264 0.545405 1.95328 0
M  V30 2509 C 236.597 -0.908313 1.71649 0
M  V30 2510 O 235.872 -1.64575 1.03659 0
M  V30 2511 C 236.155 0.853483 3.4984 0
M  V30 2512 C 236.008 2.35982 3.82926 0
M  V30 2513 C 237.327 0.348589 4.38717 0
M  V30 2514 H 234.446 0.199626 0.709449 0
M  V30 2515 H 237.088 1.1412 1.5191 0
M  V30 2516 H 235.238 0.34643 3.86952 0
M  V30 2517 H 236.91 2.93738 3.55691 0
M  V30 2518 H 235.153 2.81543 3.30024 0
M  V30 2519 H 235.824 2.52593 4.90816 0
M  V30 2520 H 238.3 0.78294 4.08668 0
M  V30 2521 H 237.176 0.593242 5.45685 0
M  V30 2522 H 237.437 -0.751049 4.35674 0
M  V30 2523 N 236.496 -1.42363 0.676048 0
M  V30 2524 C 237.743 -2.01522 0.19883 0
M  V30 2525 C 238.071 -1.53456 -1.19505 0
M  V30 2526 O 237.326 -0.727967 -1.81657 0
M  V30 2527 C 237.625 -3.56929 0.183431 0
M  V30 2528 C 237.291 -4.24431 1.52215 0
M  V30 2529 C 235.953 -4.42585 1.8887 0
M  V30 2530 C 238.305 -4.62459 2.40377 0
M  V30 2531 C 235.633 -4.96039 3.13309 0
M  V30 2532 C 237.985 -5.17294 3.64129 0
M  V30 2533 C 236.649 -5.33661 4.00951 0
M  V30 2534 H 235.919 -0.737419 0.0727571 0
M  V30 2535 H 238.566 -1.70531 0.871281 0
M  V30 2536 H 236.871 -3.87594 -0.572532 0
M  V30 2537 H 238.568 -4.00486 -0.203035 0
M  V30 2538 H 235.158 -4.10661 1.22701 0
M  V30 2539 H 239.342 -4.48105 2.13343 0
M  V30 2540 H 234.598 -5.06896 3.41857 0
M  V30 2541 H 238.772 -5.45704 4.32644 0
M  V30 2542 H 236.399 -5.74845 4.9745 0
M  V30 2543 N 237.974 -0.419461 -1.51915 0
M  V30 2544 C 239.202 0.152136 -2.0634 0
M  V30 2545 C 239.617 1.37988 -1.28859 0
M  V30 2546 O 238.974 1.79243 -0.343232 0
M  V30 2547 C 239.025 0.492266 -3.58133 0
M  V30 2548 O 238.746 -0.686736 -4.32684 0
M  V30 2549 C 240.247 1.11648 -4.2901 0
M  V30 2550 H 237.467 0.0158325 -0.670813 0
M  V30 2551 H 240.011 -0.593394 -1.95702 0
M  V30 2552 H 238.166 1.18769 -3.68745 0
M  V30 2553 H 238.58 -0.400341 -5.2297 0
M  V30 2554 H 240.054 1.3046 -5.36362 0
M  V30 2555 H 240.531 2.09251 -3.86148 0
M  V30 2556 H 241.137 0.460958 -4.22795 0
M  V30 2557 N 239.452 1.56882 -0.150215 0
M  V30 2558 C 240.868 1.58263 0.20617 0
M  V30 2559 C 241.068 1.16464 1.64434 0
M  V30 2560 O 240.124 0.866422 2.3717 0
M  V30 2561 C 241.437 3.00649 -0.0555025 0
M  V30 2562 C 242.985 3.12999 0.00795388 0
M  V30 2563 C 243.46 4.5744 -0.226429 0
M  V30 2564 N 244.951 4.62875 -0.173469 0
M  V30 2565 C 245.686 5.72454 -0.329288 0
M  V30 2566 N 245.182 6.90669 -0.543005 0
M  V30 2567 N 246.975 5.61467 -0.266666 0
M  V30 2568 H 239.126 1.82345 -1.08922 0
M  V30 2569 H 241.389 0.844149 -0.431413 0
M  V30 2570 H 241.095 3.3563 -1.05096 0
M  V30 2571 H 240.969 3.71337 0.66246 0
M  V30 2572 H 243.356 2.77857 0.993966 0
M  V30 2573 H 243.437 2.4479 -0.742388 0
M  V30 2574 H 243.081 4.93287 -1.20956 0
M  V30 2575 H 243.011 5.2378 0.544274 0
M  V30 2576 H 245.502 3.77898 -0.0130709 0
M  V30 2577 H 245.815 7.70045 -0.651922 0
M  V30 2578 H 244.16 6.92581 -0.579366 0
M  V30 2579 H 247.351 4.67992 -0.100441 0
M  V30 2580 H 247.524 6.46816 -0.391535 0
M  V30 2581 N 240.93 -0.123565 1.57115 0
M  V30 2582 C 241.86 -1.15309 2.03042 0
M  V30 2583 C 242.841 -1.43454 0.914061 0
M  V30 2584 O 244.026 -1.53973 1.18347 0
M  V30 2585 C 241.156 -2.48043 2.43089 0
M  V30 2586 C 240.11 -2.3437 3.58127 0
M  V30 2587 C 239.436 -3.72026 3.84059 0
M  V30 2588 C 240.736 -1.80804 4.90007 0
M  V30 2589 H 242.43 -0.771102 2.893 0
M  V30 2590 H 239.976 -0.369479 1.39179 0
M  V30 2591 H 241.929 -3.20311 2.73823 0
M  V30 2592 H 240.653 -2.88122 1.53796 0
M  V30 2593 H 239.312 -1.64551 3.27595 0
M  V30 2594 H 238.96 -4.09582 2.91979 0
M  V30 2595 H 238.66 -3.63732 4.6149 0
M  V30 2596 H 240.184 -4.45806 4.1724 0
M  V30 2597 H 241.598 -2.42886 5.19307 0
M  V30 2598 H 239.995 -1.83343 5.71407 0
M  V30 2599 H 241.065 -0.76528 4.78823 0
M  V30 2600 N 242.408 -1.52605 -0.393616 0
M  V30 2601 C 243.633 -1.71592 -1.16495 0
M  V30 2602 C 244.058 -0.43133 -1.83088 0
M  V30 2603 O 243.416 0.612523 -1.7064 0
M  V30 2604 C 243.464 -2.86318 -2.19213 0
M  V30 2605 O 242.568 -2.52969 -3.257 0
M  V30 2606 H 241.909 -0.570734 -0.33935 0
M  V30 2607 H 244.439 -1.99377 -0.459324 0
M  V30 2608 H 244.449 -3.1168 -2.63286 0
M  V30 2609 H 243.124 -3.79511 -1.7013 0
M  V30 2610 H 241.701 -2.38332 -2.86797 0
M  V30 2611 N 243.887 0.651787 -1.4349 0
M  V30 2612 C 244.834 1.76462 -1.4876 0
M  V30 2613 C 245.804 1.62641 -0.337189 0
M  V30 2614 O 246.989 1.82864 -0.544544 0
M  V30 2615 C 244.129 3.14623 -1.41796 0
M  V30 2616 C 243.242 3.39568 -2.67053 0
M  V30 2617 C 242.377 4.67585 -2.52068 0
M  V30 2618 C 241.416 4.85639 -3.72587 0
M  V30 2619 N 240.553 6.04915 -3.56402 0
M  V30 2620 H 245.393 1.71293 -2.43849 0
M  V30 2621 H 242.93 0.835889 -1.21043 0
M  V30 2622 H 244.888 3.94496 -1.35753 0
M  V30 2623 H 243.518 3.18859 -0.50288 0
M  V30 2624 H 242.57 2.53783 -2.8337 0
M  V30 2625 H 243.882 3.48795 -3.56572 0
M  V30 2626 H 243.036 5.55586 -2.4374 0
M  V30 2627 H 241.775 4.60681 -1.60075 0
M  V30 2628 H 240.78 3.96073 -3.81321 0
M  V30 2629 H 242.005 4.94372 -4.65589 0
M  V30 2630 H 239.951 5.9914 -2.67146 0
M  V30 2631 H 239.868 6.15106 -4.39524 0
M  V30 2632 H 241.136 6.95533 -3.51929 0
M  V30 2633 N 245.365 1.30045 0.890287 0
M  V30 2634 C 246.275 1.17885 2.02831 0
M  V30 2635 C 247.291 0.0999609 1.73713 0
M  V30 2636 O 248.467 0.313867 1.98939 0
M  V30 2637 C 245.532 0.866079 3.35708 0
M  V30 2638 C 244.593 2.02979 3.78283 0
M  V30 2639 C 243.826 1.73184 5.0482 0
M  V30 2640 O 244.049 0.657237 5.66601 0
M  V30 2641 O 242.983 2.58267 5.43674 0
M  V30 2642 H 246.809 2.13474 2.16015 0
M  V30 2643 H 244.394 1.09587 1.01543 0
M  V30 2644 H 246.276 0.706623 4.15433 0
M  V30 2645 H 244.951 -0.0599443 3.23644 0
M  V30 2646 H 243.858 2.24454 2.99285 0
M  V30 2647 H 245.191 2.93734 3.94944 0
M  V30 2648 N 246.843 -1.10192 1.12674 0
M  V30 2649 C 248.089 -1.82475 0.884915 0
M  V30 2650 C 248.422 -1.85093 -0.58773 0
M  V30 2651 O 247.697 -1.3134 -1.43457 0
M  V30 2652 C 247.98 -3.29018 1.46353 0
M  V30 2653 C 247.833 -3.34718 3.00473 0
M  V30 2654 C 249.152 -4.25473 1.12519 0
M  V30 2655 H 246.271 -0.662492 0.322915 0
M  V30 2656 H 248.913 -1.2913 1.39375 0
M  V30 2657 H 247.063 -3.74576 1.03077 0
M  V30 2658 H 248.735 -2.97622 3.52447 0
M  V30 2659 H 246.978 -2.74541 3.35872 0
M  V30 2660 H 247.649 -4.37918 3.36053 0
M  V30 2661 H 250.125 -3.88161 1.499 0
M  V30 2662 H 249.001 -5.26365 1.55663 0
M  V30 2663 H 249.262 -4.42084 0.0377407 0
M  V30 2664 N 248.321 -0.919034 -1.28029 0
M  V30 2665 C 249.251 -0.428581 -2.29533 0
M  V30 2666 C 250.232 0.50659 -1.62381 0
M  V30 2667 O 251.417 0.413195 -1.89753 0
M  V30 2668 C 248.547 0.327388 -3.45753 0
M  V30 2669 C 247.501 -0.519137 -4.2484 0
M  V30 2670 C 246.827 0.365486 -5.33449 0
M  V30 2671 C 248.127 -1.77914 -4.91064 0
M  V30 2672 H 249.821 -1.27687 -2.70807 0
M  V30 2673 H 247.367 -0.615428 -1.30186 0
M  V30 2674 H 249.32 0.681378 -4.15855 0
M  V30 2675 H 248.044 1.20963 -3.03374 0
M  V30 2676 H 246.703 -0.855717 -3.56473 0
M  V30 2677 H 246.351 1.24642 -4.87312 0
M  V30 2678 H 246.051 -0.197356 -5.87268 0
M  V30 2679 H 247.575 0.715241 -6.06396 0
M  V30 2680 H 248.989 -1.49374 -5.53498 0
M  V30 2681 H 247.386 -2.2848 -5.54903 0
M  V30 2682 H 248.456 -2.50382 -4.15255 0
M  V30 2683 N 249.799 1.42003 -0.683588 0
M  V30 2684 C 251.046 2.01413 -0.209514 0
M  V30 2685 C 251.374 1.54088 1.1869 0
M  V30 2686 O 250.629 0.737591 1.81268 0
M  V30 2687 C 250.928 3.56827 -0.202357 0
M  V30 2688 C 250.594 4.23617 -1.54464 0
M  V30 2689 C 249.256 4.41577 -1.91215 0
M  V30 2690 C 251.608 4.61178 -2.42826 0
M  V30 2691 C 248.936 4.9437 -3.15935 0
M  V30 2692 C 251.288 5.15355 -3.66867 0
M  V30 2693 C 249.952 5.31528 -4.03776 0
M  V30 2694 H 249.222 0.737023 -0.0766668 0
M  V30 2695 H 251.869 1.70067 -0.880312 0
M  V30 2696 H 250.174 3.87892 0.551969 0
M  V30 2697 H 251.871 4.00588 0.181793 0
M  V30 2698 H 248.461 4.10004 -1.24877 0
M  V30 2699 H 252.645 4.46968 -2.15717 0
M  V30 2700 H 247.901 5.05076 -3.44541 0
M  V30 2701 H 252.075 5.43402 -4.35531 0
M  V30 2702 H 249.702 5.72199 -5.00492 0
M  V30 2703 N 251.277 0.427512 1.51691 0
M  V30 2704 C 252.505 -0.141191 2.06418 0
M  V30 2705 C 252.92 -1.37303 1.29589 0
M  V30 2706 O 252.277 -1.79059 0.352732 0
M  V30 2707 C 252.328 -0.473266 3.58389 0
M  V30 2708 O 252.049 0.709673 4.32314 0
M  V30 2709 C 253.55 -1.09371 4.29596 0
M  V30 2710 H 250.77 -0.0122747 0.670888 0
M  V30 2711 H 253.314 0.603764 1.95384 0
M  V30 2712 H 251.469 -1.16812 3.69369 0
M  V30 2713 H 251.883 0.42807 5.2275 0
M  V30 2714 H 253.357 -1.27613 5.37046 0
M  V30 2715 H 253.834 -2.072 3.87253 0
M  V30 2716 H 254.44 -0.43853 4.23033 0
M  V30 2717 N 252.755 -1.56801 0.158532 0
M  V30 2718 C 253.665 -2.20916 -0.789518 0
M  V30 2719 C 254.681 -1.1969 -1.26294 0
M  V30 2720 O 255.857 -1.52308 -1.31773 0
M  V30 2721 C 252.922 -2.82727 -2.00665 0
M  V30 2722 C 251.983 -3.99114 -1.58134 0
M  V30 2723 C 251.216 -4.57968 -2.74045 0
M  V30 2724 O 251.439 -4.15704 -3.90572 0
M  V30 2725 O 250.373 -5.48047 -2.48855 0
M  V30 2726 H 254.199 -3.02464 -0.273681 0
M  V30 2727 H 251.784 -1.4924 -0.0690548 0
M  V30 2728 H 253.666 -3.21968 -2.71872 0
M  V30 2729 H 252.341 -2.04184 -2.51179 0
M  V30 2730 H 251.248 -3.64567 -0.839155 0
M  V30 2731 H 252.581 -4.79212 -1.12325 0
M  V30 2732 N 254.233 0.115231 -1.57178 0
M  V30 2733 C 255.143 1.15994 -2.03918 0
M  V30 2734 C 256.159 1.45103 -0.960268 0
M  V30 2735 O 257.335 1.56144 -1.27204 0
M  V30 2736 C 254.4 2.46568 -2.43732 0
M  V30 2737 C 253.461 2.24822 -3.65723 0
M  V30 2738 C 252.694 3.4917 -4.03629 0
M  V30 2739 O 252.917 4.56623 -3.41835 0
M  V30 2740 O 251.851 3.39949 -4.96708 0
M  V30 2741 H 255.677 0.793019 -2.93164 0
M  V30 2742 H 253.262 0.3263 -1.45793 0
M  V30 2743 H 255.144 3.23492 -2.70057 0
M  V30 2744 H 253.819 2.82726 -1.57631 0
M  V30 2745 H 252.726 1.45744 -3.44542 0
M  V30 2746 H 254.059 1.93566 -4.52541 0
M  V30 2747 N 255.711 1.52812 0.385517 0
M  V30 2748 C 256.988 1.5861 1.14465 0
M  V30 2749 C 257.368 0.381402 2.07626 0
M  V30 2750 O 256.716 -0.629999 2.19643 0
M  V30 2751 C 256.926 2.92664 1.90128 0
M  V30 2752 C 258.274 3.46526 2.45367 0
M  V30 2753 O 259.298 2.94562 2.0028 0
M  V30 2754 O 258.157 4.37323 3.27736 0
M  V30 2755 H 255.251 0.639855 0.523941 0
M  V30 2756 H 257.797 1.65149 0.390389 0
M  V30 2757 H 256.569 3.71788 1.22022 0
M  V30 2758 H 256.192 2.89527 2.72507 0
M  V30 2759 N 257.189 -0.644168 1.43834 0
M  V30 2760 C 258.435 -1.40603 1.46146 0
M  V30 2761 C 258.768 -1.93997 0.0887717 0
M  V30 2762 O 258.043 -1.72854 -0.891724 0
M  V30 2763 C 258.326 -2.58086 2.51124 0
M  V30 2764 C 258.179 -2.10126 3.97702 0
M  V30 2765 C 259.498 -3.60291 2.52742 0
M  V30 2766 H 256.617 -0.509905 0.532134 0
M  V30 2767 H 259.259 -0.729502 1.75437 0
M  V30 2768 H 257.409 -3.15801 2.26278 0
M  V30 2769 H 259.081 -1.57342 4.33637 0
M  V30 2770 H 257.324 -1.41419 4.10101 0
M  V30 2771 H 257.995 -2.94649 4.66783 0
M  V30 2772 H 260.471 -3.12352 2.7491 0
M  V30 2773 H 259.347 -4.40032 3.28121 0
M  V30 2774 H 259.608 -4.1349 1.56455 0
M  V30 2775 N 258.668 -1.30515 -0.883378 0
M  V30 2776 C 259.615 -1.17032 -1.98927 0
M  V30 2777 C 260.585 -0.0594241 -1.65994 0
M  V30 2778 O 261.77 -0.229895 -1.8941 0
M  V30 2779 C 258.91 -0.869777 -3.33959 0
M  V30 2780 C 258.023 -2.06271 -3.79574 0
M  V30 2781 C 257.158 -1.70011 -5.03259 0
M  V30 2782 C 256.197 -2.8579 -5.41286 0
M  V30 2783 N 255.334 -2.49816 -6.56153 0
M  V30 2784 H 260.174 -2.1164 -2.09792 0
M  V30 2785 H 257.711 -1.05296 -1.02719 0
M  V30 2786 H 259.669 -0.676138 -4.11685 0
M  V30 2787 H 258.299 0.0394332 -3.22776 0
M  V30 2788 H 257.351 -2.36755 -2.97744 0
M  V30 2789 H 258.663 -2.92971 -4.03694 0
M  V30 2790 H 257.817 -1.47032 -5.88614 0
M  V30 2791 H 256.556 -0.804829 -4.81013 0
M  V30 2792 H 255.561 -3.09434 -4.54456 0
M  V30 2793 H 256.786 -3.76008 -5.65504 0
M  V30 2794 H 254.732 -1.62795 -6.35479 0
M  V30 2795 H 254.649 -3.30048 -6.8015 0
M  V30 2796 H 255.917 -2.30197 -7.44735 0
M  V30 2797 N 260.146 1.09593 -1.13257 0
M  V30 2798 C 261.393 1.81734 -0.893257 0
M  V30 2799 C 261.721 1.8563 0.580656 0
M  V30 2800 O 260.976 1.31906 1.44566 0
M  V30 2801 C 261.275 3.27802 -1.42411 0
M  V30 2802 C 260.941 3.44041 -2.91456 0
M  V30 2803 C 259.603 3.48181 -3.3215 0
M  V30 2804 C 261.955 3.48719 -3.87356 0
M  V30 2805 C 259.283 3.54575 -4.67433 0
M  V30 2806 C 261.635 3.56648 -5.2248 0
M  V30 2807 C 260.299 3.59055 -5.62704 0
M  V30 2808 H 259.569 0.665011 -0.326866 0
M  V30 2809 H 262.216 1.2912 -1.41422 0
M  V30 2810 H 260.521 3.83042 -0.823795 0
M  V30 2811 H 262.218 3.82149 -1.21503 0
M  V30 2812 H 258.808 3.41502 -2.58987 0
M  V30 2813 H 262.992 3.44763 -3.57004 0
M  V30 2814 H 258.248 3.54725 -4.97976 0
M  V30 2815 H 262.422 3.59212 -5.96607 0
M  V30 2816 H 260.049 3.63763 -6.67518 0
M  V30 2817 N 261.624 0.925811 1.2754 0
M  V30 2818 C 262.854 0.580666 1.98272 0
M  V30 2819 C 263.262 -0.845207 1.69272 0
M  V30 2820 O 262.605 -1.57306 0.948707 0
M  V30 2821 C 262.667 0.724418 3.52126 0
M  V30 2822 C 262.331 2.12206 4.04744 0
M  V30 2823 C 263.328 3.09604 4.17662 0
M  V30 2824 C 261.013 2.4385 4.39138 0
M  V30 2825 C 263.007 4.36755 4.64246 0
M  V30 2826 C 260.694 3.71237 4.85414 0
M  V30 2827 C 261.692 4.67503 4.97926 0
M  V30 2828 O 261.38 5.92624 5.43187 0
M  V30 2829 H 261.112 0.218987 0.639547 0
M  V30 2830 H 263.666 1.24452 1.63404 0
M  V30 2831 H 261.896 0.0034663 3.867 0
M  V30 2832 H 263.585 0.384607 4.04074 0
M  V30 2833 H 264.351 2.86478 3.91351 0
M  V30 2834 H 260.23 1.69665 4.28643 0
M  V30 2835 H 263.774 5.11898 4.73927 0
M  V30 2836 H 259.671 3.94182 5.11166 0
M  V30 2837 H 260.439 5.95585 5.61445 0
M  V30 2838 N 263.102 -1.41638 0.69111 0
M  V30 2839 C 264.032 -2.3347 0.037248 0
M  V30 2840 C 265.013 -1.51575 -0.771947 0
M  V30 2841 O 266.198 -1.80126 -0.72582 0
M  V30 2842 C 263.328 -3.35354 -0.903064 0
M  V30 2843 C 262.282 -4.27526 -0.201288 0
M  V30 2844 C 261.608 -5.19747 -1.25565 0
M  V30 2845 C 262.908 -5.13959 0.929689 0
M  V30 2846 H 264.602 -2.88397 0.804227 0
M  V30 2847 H 262.148 -1.38669 0.388189 0
M  V30 2848 H 264.101 -3.98519 -1.36969 0
M  V30 2849 H 262.825 -2.78767 -1.70166 0
M  V30 2850 H 261.484 -3.65779 0.245265 0
M  V30 2851 H 261.132 -4.59479 -2.04666 0
M  V30 2852 H 260.832 -5.8225 -0.791128 0
M  V30 2853 H 262.356 -5.85789 -1.72288 0
M  V30 2854 H 263.77 -5.70718 0.543546 0
M  V30 2855 H 262.167 -5.85379 1.32103 0
M  V30 2856 H 263.237 -4.51389 1.77133 0
M  V30 2857 N 264.58 -0.43555 -1.51462 0
M  V30 2858 C 265.543 0.365137 -2.26273 0
M  V30 2859 C 266.543 0.951227 -1.29647 0
M  V30 2860 O 267.733 0.825958 -1.53374 0
M  V30 2861 C 264.865 1.51645 -3.05314 0
M  V30 2862 H 266.058 -0.290474 -2.9849 0
M  V30 2863 H 263.611 -0.188676 -1.55157 0
M  V30 2864 H 264.346 2.20816 -2.3751 0
M  V30 2865 H 264.131 1.10238 -3.76284 0
M  V30 2866 H 265.621 2.08218 -3.61987 0
M  V30 2867 N 266.058 1.56714 -0.166846 0
M  V30 2868 C 266.968 2.21331 0.777791 0
M  V30 2869 C 267.984 1.20358 1.25658 0
M  V30 2870 O 269.16 1.53005 1.30964 0
M  V30 2871 C 266.225 2.83787 1.99163 0
M  V30 2872 C 265.286 3.99947 1.56016 0
M  V30 2873 C 264.519 4.59415 2.71613 0
M  V30 2874 O 264.742 4.17769 3.88362 0
M  V30 2875 O 263.676 5.49359 2.45945 0
M  V30 2876 H 267.502 3.02605 0.257636 0
M  V30 2877 H 265.087 1.49275 0.0611393 0
M  V30 2878 H 266.969 3.23405 2.70161 0
M  V30 2879 H 265.644 2.05513 2.50092 0
M  V30 2880 H 264.551 3.65007 0.819809 0
M  V30 2881 H 265.884 4.79801 1.09782 0
M  V30 2882 N 267.536 -0.106894 1.57237 0
M  V30 2883 C 268.466 -1.13148 2.04254 0
M  V30 2884 C 269.447 -1.42476 0.929224 0
M  V30 2885 O 270.632 -1.52709 1.19973 0
M  V30 2886 C 267.762 -2.4545 2.45706 0
M  V30 2887 C 266.716 -2.30558 3.60592 0
M  V30 2888 C 266.042 -3.67931 3.87983 0
M  V30 2889 C 267.342 -1.75597 4.91897 0
M  V30 2890 H 269.036 -0.740374 2.90101 0
M  V30 2891 H 266.582 -0.354696 1.39563 0
M  V30 2892 H 268.535 -3.17389 2.77205 0
M  V30 2893 H 267.259 -2.86475 1.56843 0
M  V30 2894 H 265.918 -1.61067 3.29322 0
M  V30 2895 H 265.566 -4.06462 2.96306 0
M  V30 2896 H 265.266 -3.58817 4.65322 0
M  V30 2897 H 266.79 -4.41356 4.21945 0
M  V30 2898 H 268.204 -2.37364 5.21854 0
M  V30 2899 H 266.601 -1.77272 5.73319 0
M  V30 2900 H 267.671 -0.714451 4.79608 0
M  V30 2901 N 269.014 -1.53014 -0.377408 0
M  V30 2902 C 269.977 -1.77957 -1.44444 0
M  V30 2903 C 270.977 -0.649763 -1.47087 0
M  V30 2904 O 272.167 -0.917897 -1.48055 0
M  V30 2905 C 269.299 -1.89089 -2.83651 0
M  V30 2906 H 270.492 -2.73243 -1.23606 0
M  V30 2907 H 268.045 -1.43912 -0.609844 0
M  V30 2908 H 268.78 -0.958293 -3.09818 0
M  V30 2909 H 268.565 -2.71254 -2.83132 0
M  V30 2910 H 270.055 -2.1002 -3.60945 0
M  V30 2911 N 270.492 0.636531 -1.44174 0
M  V30 2912 C 271.422 1.76003 -1.53444 0
M  V30 2913 C 272.403 1.65619 -0.387841 0
M  V30 2914 O 273.588 1.84461 -0.607257 0
M  V30 2915 C 270.718 3.14511 -1.4731 0
M  V30 2916 C 269.672 3.39677 -2.60391 0
M  V30 2917 C 268.998 4.78159 -2.39308 0
M  V30 2918 C 270.298 3.32772 -4.02567 0
M  V30 2919 H 271.992 1.68501 -2.47483 0
M  V30 2920 H 269.538 0.809237 -1.19111 0
M  V30 2921 H 271.491 3.92878 -1.52397 0
M  V30 2922 H 270.215 3.22783 -0.49785 0
M  V30 2923 H 268.874 2.63688 -2.54684 0
M  V30 2924 H 268.522 4.83128 -1.39988 0
M  V30 2925 H 268.222 4.95956 -3.15122 0
M  V30 2926 H 269.746 5.58762 -2.46205 0
M  V30 2927 H 271.16 4.01051 -4.09672 0
M  V30 2928 H 269.557 3.62104 -4.7854 0
M  V30 2929 H 270.627 2.30669 -4.2652 0
M  V30 2930 N 271.97 1.30982 0.876444 0
M  V30 2931 C 272.933 1.18054 1.96459 0
M  V30 2932 C 273.933 0.109399 1.60427 0
M  V30 2933 O 275.123 0.358173 1.70478 0
M  V30 2934 C 272.255 0.810616 3.31122 0
M  V30 2935 H 273.448 2.14735 2.09354 0
M  V30 2936 H 271.001 1.145 1.06392 0
M  V30 2937 H 271.736 -0.155322 3.23928 0
M  V30 2938 H 271.521 1.58481 3.58645 0
M  V30 2939 H 273.011 0.743876 4.10921 0
M  V30 2940 N 273.449 -1.08991 1.13837 0
M  V30 2941 C 274.379 -2.17771 0.842507 0
M  V30 2942 C 275.36 -1.6892 -0.20001 0
M  V30 2943 O 276.545 -1.94113 -0.0579731 0
M  V30 2944 C 273.675 -3.4589 0.312644 0
M  V30 2945 C 272.629 -4.08099 1.28992 0
M  V30 2946 C 271.955 -5.31098 0.619623 0
M  V30 2947 C 273.255 -4.50077 2.65005 0
M  V30 2948 H 274.949 -2.42777 1.75213 0
M  V30 2949 H 272.495 -1.16682 0.843875 0
M  V30 2950 H 274.448 -4.21297 0.0933043 0
M  V30 2951 H 273.172 -3.20419 -0.632382 0
M  V30 2952 H 271.831 -3.34717 1.49533 0
M  V30 2953 H 271.479 -5.0191 -0.33102 0
M  V30 2954 H 271.179 -5.73674 1.27167 0
M  V30 2955 H 272.703 -6.09224 0.409669 0
M  V30 2956 H 274.117 -5.16688 2.48407 0
M  V30 2957 H 272.514 -5.03553 3.26427 0
M  V30 2958 H 273.584 -3.62257 3.22332 0
M  V30 2959 N 274.927 -0.932562 -1.27047 0
M  V30 2960 C 276.204 -0.49377 -1.89265 0
M  V30 2961 C 276.584 1.02833 -1.8436 0
M  V30 2962 O 275.932 1.88461 -1.29209 0
M  V30 2963 C 276.142 -1.04536 -3.32976 0
M  V30 2964 C 277.49 -1.10879 -4.09867 0
M  V30 2965 O 278.514 -0.995327 -3.42011 0
M  V30 2966 O 277.373 -1.28417 -5.31198 0
M  V30 2967 H 274.467 -0.159596 -0.811454 0
M  V30 2968 H 277.013 -1.02457 -1.3528 0
M  V30 2969 H 275.785 -2.08913 -3.30864 0
M  V30 2970 H 275.408 -0.496494 -3.94488 0
M  V30 2971 N 276.405 1.4127 -0.698611 0
M  V30 2972 C 277.355 2.27997 -0.0119836 0
M  V30 2973 C 278.339 1.42363 0.749765 0
M  V30 2974 O 279.531 1.65607 0.624758 0
M  V30 2975 C 276.66 3.30702 0.921458 0
M  V30 2976 C 275.746 4.23814 0.155796 0
M  V30 2977 N 276.137 4.98572 -0.852015 0
M  V30 2978 C 274.435 4.44284 0.390836 0
M  V30 2979 C 275.136 5.66744 -1.3106 0
M  V30 2980 N 274.112 5.39867 -0.635944 0
M  V30 2981 H 277.914 2.83232 -0.784649 0
M  V30 2982 H 275.428 1.53518 -0.529711 0
M  V30 2983 H 277.425 3.91661 1.42854 0
M  V30 2984 H 276.085 2.77028 1.69369 0
M  V30 2985 H 277.096 5.03024 -1.23235 0
M  V30 2986 H 273.773 4.01614 1.14071 0
M  V30 2987 H 275.163 6.36672 -2.14707 0
M  V30 2988 N 277.883 0.443576 1.51229 0
M  V30 2989 C 278.813 -0.355142 2.30783 0
M  V30 2990 C 279.794 -1.0154 1.36468 0
M  V30 2991 O 280.979 -1.01785 1.65389 0
M  V30 2992 C 278.109 -1.45312 3.15439 0
M  V30 2993 C 277.063 -0.916002 4.18083 0
M  V30 2994 C 276.389 -2.1102 4.91299 0
M  V30 2995 C 277.689 0.0538602 5.22272 0
M  V30 2996 H 279.383 0.308767 2.97804 0
M  V30 2997 H 276.929 0.149937 1.43217 0
M  V30 2998 H 278.882 -2.01914 3.69876 0
M  V30 2999 H 277.606 -2.14541 2.46252 0
M  V30 3000 H 276.265 -0.372145 3.64706 0
M  V30 3001 H 275.913 -2.78882 4.18609 0
M  V30 3002 H 275.613 -1.75717 5.60712 0
M  V30 3003 H 277.137 -2.68164 5.48562 0
M  V30 3004 H 278.551 -0.422069 5.71744 0
M  V30 3005 H 276.948 0.319776 5.99247 0
M  V30 3006 H 278.018 0.98858 4.74716 0
M  V30 3007 N 279.361 -1.56624 0.175154 0
M  V30 3008 C 280.311 -2.14747 -0.766004 0
M  V30 3009 C 281.295 -1.08275 -1.19018 0
M  V30 3010 O 282.487 -1.34388 -1.15191 0
M  V30 3011 C 279.616 -2.79478 -1.99366 0
M  V30 3012 C 278.702 -3.93114 -1.5913 0
M  V30 3013 N 279.093 -4.97752 -0.89872 0
M  V30 3014 C 277.391 -4.04345 -1.88204 0
M  V30 3015 C 278.092 -5.77473 -0.700012 0
M  V30 3016 N 277.068 -5.29207 -1.24263 0
M  V30 3017 H 280.87 -2.93015 -0.22793 0
M  V30 3018 H 278.384 -1.6238 -0.0253843 0
M  V30 3019 H 280.381 -3.19498 -2.67818 0
M  V30 3020 H 279.041 -2.02692 -2.53665 0
M  V30 3021 H 280.052 -5.14903 -0.556347 0
M  V30 3022 H 276.729 -3.38667 -2.44153 0
M  V30 3023 H 278.119 -6.71728 -0.152047 0
M  V30 3024 N 280.839 0.0985539 -1.57292 0
M  V30 3025 C 281.771 1.14595 -1.98496 0
M  V30 3026 C 282.784 1.36512 -0.887031 0
M  V30 3027 O 283.973 1.35225 -1.16518 0
M  V30 3028 C 281.073 2.50216 -2.28572 0
M  V30 3029 C 280.246 2.48624 -3.59868 0
M  V30 3030 C 279.305 3.66146 -3.7792 0
M  V30 3031 O 278.331 3.48795 -4.49812 0
M  V30 3032 N 279.533 4.85496 -3.18235 0
M  V30 3033 H 282.298 0.795277 -2.88956 0
M  V30 3034 H 279.859 0.287579 -1.59325 0
M  V30 3035 H 281.851 3.27432 -2.37845 0
M  V30 3036 H 280.421 2.77387 -1.44136 0
M  V30 3037 H 279.641 1.56978 -3.61596 0
M  V30 3038 H 280.929 2.44635 -4.46129 0
M  V30 3039 H 280.327 5.02497 -2.59833 0
M  V30 3040 H 278.884 5.60317 -3.32999 0
M  V30 3041 N 282.317 1.53212 0.369288 0
M  V30 3042 C 283.247 1.82365 1.45826 0
M  V30 3043 C 284.228 0.676907 1.56051 0
M  V30 3044 O 285.413 0.926401 1.70679 0
M  V30 3045 C 282.543 2.01023 2.83208 0
M  V30 3046 C 281.497 3.1678 2.8781 0
M  V30 3047 C 280.823 3.20724 4.27832 0
M  V30 3048 C 282.123 4.55447 2.55667 0
M  V30 3049 H 283.817 2.73559 1.21678 0
M  V30 3050 H 281.363 1.3163 0.583911 0
M  V30 3051 H 283.316 2.20001 3.59413 0
M  V30 3052 H 282.04 1.06536 3.08736 0
M  V30 3053 H 280.699 2.97616 2.14056 0
M  V30 3054 H 280.347 2.23882 4.50429 0
M  V30 3055 H 280.047 3.98496 4.31827 0
M  V30 3056 H 281.571 3.41881 5.05915 0
M  V30 3057 H 282.985 4.74611 3.21586 0
M  V30 3058 H 281.382 5.35432 2.70984 0
M  V30 3059 H 282.452 4.60812 1.5093 0
M  V30 3060 N 283.795 -0.628877 1.44509 0
M  V30 3061 C 285.043 -1.38565 1.4712 0
M  V30 3062 C 285.364 -1.94712 0.105899 0
M  V30 3063 O 284.634 -1.75912 -0.862079 0
M  V30 3064 H 283.214 -0.514333 0.541729 0
M  V30 3065 H 285.876 -0.740018 1.80305 0
M  V30 3066 H 284.972 -2.21583 2.19789 0
M  V30 3067 N 285.273 -1.31445 -0.869486 0
M  V30 3068 C 286.522 -1.20517 -1.61736 0
M  V30 3069 C 286.835 0.235341 -1.94179 0
M  V30 3070 O 288.041 0.466312 -2.67465 0
M  V30 3071 C 286.497 -2.10982 -2.91573 0
M  V30 3072 C 286.105 -3.60032 -2.66611 0
M  V30 3073 C 287.849 -2.08856 -3.69567 0
M  V30 3074 C 285.756 -4.42503 -3.92358 0
M  V30 3075 H 284.686 -0.447493 -0.606849 0
M  V30 3076 H 287.337 -1.56303 -0.96133 0
M  V30 3077 H 285.719 -1.68095 -3.58553 0
M  V30 3078 H 286.893 -4.11167 -2.08035 0
M  V30 3079 H 285.208 -3.64139 -2.0197 0
M  V30 3080 H 287.805 -2.67716 -4.62852 0
M  V30 3081 H 288.148 -1.07582 -4.02159 0
M  V30 3082 H 288.681 -2.49945 -3.09471 0
M  V30 3083 H 285.42 -5.44533 -3.64916 0
M  V30 3084 H 284.94 -3.96125 -4.50383 0
M  V30 3085 H 286.619 -4.54741 -4.60238 0
M  V30 3086 N 286.751 1.08385 -1.14413 0
M  V30 3087 C 287.997 1.81044 -0.913834 0
M  V30 3088 C 288.33 1.86004 0.558209 0
M  V30 3089 O 287.605 1.33606 1.4135 0
M  V30 3090 C 287.888 3.26648 -1.51569 0
M  V30 3091 C 287.741 3.29895 -3.0576 0
M  V30 3092 C 289.06 4.23629 -1.19273 0
M  V30 3093 H 286.179 0.65727 -0.333414 0
M  V30 3094 H 288.821 1.26896 -1.41412 0
M  V30 3095 H 286.971 3.72889 -1.09023 0
M  V30 3096 H 288.643 2.91977 -3.57137 0
M  V30 3097 H 286.886 2.69163 -3.40197 0
M  V30 3098 H 287.557 4.32516 -3.42977 0
M  V30 3099 H 290.033 3.85727 -1.56057 0
M  V30 3100 H 288.909 5.23822 -1.64017 0
M  V30 3101 H 289.17 4.41968 -0.108068 0
M  V30 3102 N 288.23 0.939286 1.26551 0
M  V30 3103 C 289.46 0.601663 1.97645 0
M  V30 3104 C 289.868 -0.827206 1.70159 0
M  V30 3105 O 289.211 -1.56291 0.965338 0
M  V30 3106 C 289.273 0.761725 3.51337 0
M  V30 3107 C 288.937 2.16487 4.0247 0
M  V30 3108 C 289.934 3.14016 4.14355 0
M  V30 3109 C 287.619 2.48494 4.36527 0
M  V30 3110 C 289.613 4.41654 4.59587 0
M  V30 3111 C 287.3 3.76364 4.81449 0
M  V30 3112 C 288.298 4.72758 4.92939 0
M  V30 3113 O 287.986 5.98352 5.36871 0
M  V30 3114 H 287.718 0.225758 0.637189 0
M  V30 3115 H 290.272 1.26178 1.62075 0
M  V30 3116 H 288.502 0.0444808 3.86674 0
M  V30 3117 H 290.191 0.427442 4.03643 0
M  V30 3118 H 290.957 2.90613 3.8829 0
M  V30 3119 H 286.836 1.74202 4.26819 0
M  V30 3120 H 290.38 5.16896 4.68471 0
M  V30 3121 H 286.277 3.99582 5.06956 0
M  V30 3122 H 287.045 6.01507 5.55096 0
M  V30 3123 N 289.708 -1.40897 0.706093 0
M  V30 3124 C 291.124 -1.55042 0.37869 0
M  V30 3125 C 291.324 -1.67944 -1.11342 0
M  V30 3126 O 290.38 -1.66372 -1.89938 0
M  V30 3127 C 291.693 -2.78398 1.13643 0
M  V30 3128 C 293.241 -2.92206 1.12181 0
M  V30 3129 C 293.716 -4.18463 1.86152 0
M  V30 3130 N 295.207 -4.25443 1.83173 0
M  V30 3131 C 295.942 -5.2202 2.37239 0
M  V30 3132 N 295.438 -6.24563 2.99821 0
M  V30 3133 N 297.231 -5.14033 2.27435 0
M  V30 3134 H 289.382 -1.30769 1.67372 0
M  V30 3135 H 291.645 -0.631653 0.706907 0
M  V30 3136 H 291.351 -2.7511 2.19106 0
M  V30 3137 H 291.225 -3.70228 0.721853 0
M  V30 3138 H 293.612 -2.95004 0.0754171 0
M  V30 3139 H 293.693 -2.01521 1.57554 0
M  V30 3140 H 293.337 -4.16427 2.90776 0
M  V30 3141 H 293.267 -5.08141 1.38206 0
M  V30 3142 H 295.758 -3.51976 1.37556 0
M  V30 3143 H 296.071 -6.94665 3.38616 0
M  V30 3144 H 294.416 -6.25035 3.03902 0
M  V30 3145 H 297.607 -4.3285 1.78208 0
M  V30 3146 H 297.78 -5.89129 2.69873 0
M  V30 3147 N 291.186 -0.45159 -1.50991 0
M  V30 3148 C 292.463 0.170707 -1.94854 0
M  V30 3149 C 292.843 1.58788 -1.39103 0
M  V30 3150 O 292.191 2.20913 -0.583921 0
M  V30 3151 C 292.401 0.133929 -3.48743 0
M  V30 3152 C 293.749 0.33248 -4.23296 0
M  V30 3153 O 294.773 0.211403 -3.55572 0
M  V30 3154 O 293.632 0.57486 -5.43468 0
M  V30 3155 H 290.726 0.122264 -0.817912 0
M  V30 3156 H 293.272 -0.510594 -1.61836 0
M  V30 3157 H 292.044 -0.856283 -3.81816 0
M  V30 3158 H 291.667 0.857529 -3.88242 0
M  V30 3159 N 292.664 1.56529 -0.183458 0
M  V30 3160 C 293.594 2.21549 0.737456 0
M  V30 3161 C 294.575 1.17489 1.23005 0
M  V30 3162 O 295.76 1.45959 1.281 0
M  V30 3163 C 292.89 2.86575 1.96194 0
M  V30 3164 C 291.844 3.96778 1.60473 0
M  V30 3165 C 291.17 4.48911 2.90487 0
M  V30 3166 C 292.47 5.15767 0.823497 0
M  V30 3167 H 294.164 2.98761 0.195453 0
M  V30 3168 H 291.71 1.43702 0.0925686 0
M  V30 3169 H 293.663 3.30739 2.61131 0
M  V30 3170 H 292.387 2.06749 2.52828 0
M  V30 3171 H 291.046 3.53286 0.978997 0
M  V30 3172 H 290.694 3.65862 3.45186 0
M  V30 3173 H 290.394 5.23265 2.67335 0
M  V30 3174 H 291.918 4.95771 3.56432 0
M  V30 3175 H 293.332 5.56549 1.37571 0
M  V30 3176 H 291.729 5.96114 0.690551 0
M  V30 3177 H 292.799 4.84574 -0.177782 0
M  V30 3178 N 294.142 -0.090211 1.57342 0
M  V30 3179 C 295.089 -1.10909 2.02405 0
M  V30 3180 C 296.059 -1.39523 0.901252 0
M  V30 3181 O 297.244 -1.50903 1.1676 0
M  V30 3182 C 294.384 -2.42277 2.45755 0
M  V30 3183 C 293.497 -2.20352 3.71576 0
M  V30 3184 C 292.632 -3.45154 4.03785 0
M  V30 3185 C 291.671 -3.18512 5.22701 0
M  V30 3186 N 290.808 -4.35593 5.50639 0
M  V30 3187 H 295.648 -0.71782 2.89225 0
M  V30 3188 H 293.185 -0.342901 1.43048 0
M  V30 3189 H 295.143 -3.18951 2.68935 0
M  V30 3190 H 293.773 -2.79242 1.61938 0
M  V30 3191 H 292.825 -1.34458 3.55844 0
M  V30 3192 H 294.137 -1.96661 4.58395 0
M  V30 3193 H 293.291 -4.30233 4.27767 0
M  V30 3194 H 292.03 -3.71904 3.15498 0
M  V30 3195 H 291.035 -2.31827 4.98534 0
M  V30 3196 H 292.26 -2.93103 6.12591 0
M  V30 3197 H 290.206 -4.6241 4.6531 0
M  V30 3198 H 290.123 -4.1511 6.31838 0
M  V30 3199 H 291.391 -5.21723 5.7916 0
M  V30 3200 N 295.62 -1.53406 -0.361157 0
M  V30 3201 C 297.031 -1.61442 -0.937728 0
M  V30 3202 C 297.382 -0.48461 -1.90121 0
M  V30 3203 O 296.507 0.388312 -2.12888 0
M  V30 3204 C 297.102 -2.92624 -1.70753 0
M  V30 3205 C 295.661 -3.02981 -2.23337 0
M  V30 3206 C 294.808 -2.5677 -1.04712 0
M  V30 3207 H 297.759 -1.58083 -0.139816 0
M  V30 3208 H 297.78 -2.80675 -2.56908 0
M  V30 3209 H 297.292 -3.74834 -1.00604 0
M  V30 3210 H 295.393 -2.25368 -2.96715 0
M  V30 3211 H 295.506 -4.0814 -2.50916 0
M  V30 3212 H 293.87 -2.11752 -1.41539 0
M  V30 3213 H 294.653 -3.41402 -0.360539 0
M  V30 3214 N 297.098 0.621204 -1.44841 0
M  V30 3215 C 298.008 1.7612 -1.5498 0
M  V30 3216 C 299.024 1.68477 -0.434927 0
M  V30 3217 O 300.2 1.89076 -0.693693 0
M  V30 3218 C 297.265 3.1254 -1.50065 0
M  V30 3219 C 296.326 3.31741 -2.72482 0
M  V30 3220 C 295.559 4.61653 -2.67792 0
M  V30 3221 O 295.782 5.431 -1.74352 0
M  V30 3222 O 294.716 4.83271 -3.58794 0
M  V30 3223 H 298.542 1.70518 -2.51311 0
M  V30 3224 H 296.127 0.783643 -1.27198 0
M  V30 3225 H 298.009 3.93844 -1.49882 0
M  V30 3226 H 296.684 3.18663 -0.568806 0
M  V30 3227 H 295.591 2.50077 -2.7823 0
M  V30 3228 H 296.924 3.30486 -3.64746 0
M  V30 3229 N 298.576 1.31904 0.862503 0
M  V30 3230 C 299.524 1.20125 1.9918 0
M  V30 3231 C 300.518 0.107824 1.69056 0
M  V30 3232 O 301.724 0.270223 1.7796 0
M  V30 3233 H 298.099 0.372148 0.65346 0
M  V30 3234 H 300.07 2.15652 2.06244 0
M  V30 3235 C 298.819 0.933099 3.34946 0
M  V30 3236 H 298.142 1.76664 3.5865 0
M  V30 3237 H 299.582 0.890892 4.14535 0
M  V30 3238 C 298.041 -0.364172 3.34926 0
M  V30 3239 O 298.571 -1.37858 3.77304 0
M  V30 3240 N 296.777 -0.383362 2.8806 0
M  V30 3241 H 296.324 0.442651 2.53768 0
M  V30 3242 H 296.282 -1.25123 2.8843 0
M  V30 3243 N 300.054 -1.07777 1.14986 0
M  V30 3244 C 301.303 -1.79669 0.916617 0
M  V30 3245 C 301.616 -1.87474 -0.557917 0
M  V30 3246 O 302.822 -2.55845 -0.908617 0
M  V30 3247 C 301.278 -3.22848 1.59051 0
M  V30 3248 C 300.886 -3.23257 3.10176 0
M  V30 3249 C 302.63 -3.99379 1.43864 0
M  V30 3250 C 300.537 -4.61063 3.70372 0
M  V30 3251 H 299.467 -0.673349 0.33929 0
M  V30 3252 H 302.118 -1.21003 1.37951 0
M  V30 3253 H 300.5 -3.8168 1.0553 0
M  V30 3254 H 301.674 -2.74095 3.70417 0
M  V30 3255 H 299.989 -2.60222 3.25074 0
M  V30 3256 H 302.586 -5.0122 1.86232 0
M  V30 3257 H 302.929 -4.14511 0.385564 0
M  V30 3258 H 303.462 -3.47032 1.94457 0
M  V30 3259 H 300.201 -4.51135 4.7556 0
M  V30 3260 H 299.721 -5.1048 3.14913 0
M  V30 3261 H 301.4 -5.30034 3.71043 0
M  V30 3262 N 301.532 -0.945985 -1.26051 0
M  V30 3263 C 302.462 -0.477172 -2.28572 0
M  V30 3264 C 303.443 0.472032 -1.63419 0
M  V30 3265 O 304.628 0.372853 -1.90587 0
M  V30 3266 C 301.758 0.253975 -3.4637 0
M  V30 3267 C 300.712 -0.609135 -4.23643 0
M  V30 3268 C 300.038 0.252252 -5.34105 0
M  V30 3269 C 301.338 -1.8829 -4.8718 0
M  V30 3270 H 303.032 -1.33402 -2.68038 0
M  V30 3271 H 300.578 -0.642904 -1.28852 0
M  V30 3272 H 302.531 0.593016 -4.17207 0
M  V30 3273 H 301.255 1.145 -3.05871 0
M  V30 3274 H 299.914 -0.931138 -3.54578 0
M  V30 3275 H 299.562 1.14278 -4.89846 0
M  V30 3276 H 299.262 -0.32188 -5.86718 0
M  V30 3277 H 300.786 0.586454 -6.07777 0
M  V30 3278 H 302.2 -1.61081 -5.50205 0
M  V30 3279 H 300.597 -2.40199 -5.49931 0
M  V30 3280 H 301.667 -2.59134 -4.09851 0
M  V30 3281 N 303.011 1.40521 -0.713556 0
M  V30 3282 C 303.941 2.33381 -0.0743864 0
M  V30 3283 C 304.922 1.52784 0.747735 0
M  V30 3284 O 306.107 1.81258 0.697071 0
M  V30 3285 C 303.237 3.36748 0.849598 0
M  V30 3286 C 302.191 4.27793 0.133247 0
M  V30 3287 C 301.517 5.21679 1.17281 0
M  V30 3288 C 302.817 5.12415 -1.01134 0
M  V30 3289 H 304.511 2.87081 -0.850007 0
M  V30 3290 H 302.057 1.38034 -0.410201 0
M  V30 3291 H 304.01 4.00648 1.30612 0
M  V30 3292 H 302.734 2.81439 1.65709 0
M  V30 3293 H 301.393 3.65342 -0.303426 0
M  V30 3294 H 301.041 4.62677 1.9733 0
M  V30 3295 H 300.741 5.83435 0.698397 0
M  V30 3296 H 302.265 5.88456 1.62947 0
M  V30 3297 H 303.679 5.69781 -0.634274 0
M  V30 3298 H 302.076 5.83203 -1.41399 0
M  V30 3299 H 303.146 4.48514 -1.84292 0
M  V30 3300 N 304.489 0.459591 1.5075 0
M  V30 3301 C 305.766 -0.160371 1.94941 0
M  V30 3302 C 306.146 -1.58048 1.39943 0
M  V30 3303 O 305.494 -2.206 0.595629 0
M  V30 3304 C 305.704 -0.115432 3.48809 0
M  V30 3305 C 307.052 -0.310026 4.23467 0
M  V30 3306 O 308.076 -0.192543 3.55679 0
M  V30 3307 O 306.935 -0.546031 5.43765 0
M  V30 3308 H 304.029 -0.117925 0.818549 0
M  V30 3309 H 306.575 0.519169 1.61563 0
M  V30 3310 H 305.347 0.87652 3.81357 0
M  V30 3311 H 304.97 -0.836928 3.88692 0
M  V30 3312 N 305.967 -1.56429 0.191757 0
M  V30 3313 C 306.877 -2.22541 -0.742481 0
M  V30 3314 C 307.893 -1.22342 -1.23727 0
M  V30 3315 O 309.069 -1.55069 -1.28513 0
M  V30 3316 C 306.134 -2.8692 -1.94623 0
M  V30 3317 C 305.195 -4.02378 -1.49633 0
M  V30 3318 C 304.428 -4.63678 -2.6427 0
M  V30 3319 O 304.651 -4.23895 -3.81666 0
M  V30 3320 O 303.585 -5.53202 -2.37174 0
M  V30 3321 H 307.411 -3.02977 -0.209462 0
M  V30 3322 H 304.996 -1.49353 -0.0373832 0
M  V30 3323 H 306.878 -3.27663 -2.64982 0
M  V30 3324 H 305.553 -2.09466 -2.46791 0
M  V30 3325 H 304.46 -3.66265 -0.761636 0
M  V30 3326 H 305.793 -4.81487 -1.02134 0
M  V30 3327 N 307.445 0.0818655 -1.57387 0
M  V30 3328 C 308.694 0.781681 -1.85937 0
M  V30 3329 C 309.007 1.79246 -0.782957 0
M  V30 3330 O 310.213 2.54112 -0.955987 0
M  V30 3331 C 308.669 1.44109 -3.29789 0
M  V30 3332 C 308.277 0.469396 -4.45534 0
M  V30 3333 C 310.021 2.12386 -3.67549 0
M  V30 3334 C 307.928 1.13415 -5.80423 0
M  V30 3335 H 306.858 0.295682 -0.693605 0
M  V30 3336 H 309.509 0.0348051 -1.83467 0
M  V30 3337 H 307.891 2.23588 -3.2684 0
M  V30 3338 H 309.065 -0.294856 -4.59856 0
M  V30 3339 H 307.38 -0.108383 -4.16259 0
M  V30 3340 H 309.977 2.62878 -4.65617 0
M  V30 3341 H 310.32 2.91877 -2.96839 0
M  V30 3342 H 310.853 1.39751 -3.72444 0
M  V30 3343 H 307.592 0.379771 -6.54399 0
M  V30 3344 H 307.112 1.8695 -5.69921 0
M  V30 3345 H 308.791 1.65686 -6.25426 0
M  V30 3346 N 308.923 1.53595 0.353017 0
M  V30 3347 C 310.171 1.70049 1.09215 0
M  V30 3348 C 310.492 0.461406 1.89463 0
M  V30 3349 O 309.762 -0.524633 1.88744 0
M  V30 3350 H 308.342 0.626912 0.40619 0
M  V30 3351 H 311.004 1.90822 0.396585 0
M  V30 3352 H 310.1 2.56718 1.77488 0
M  V30 3353 N 310.401 -0.613514 1.45168 0
M  V30 3354 C 311.351 -1.71871 1.49815 0
M  V30 3355 C 312.335 -1.56774 0.362021 0
M  V30 3356 O 313.527 -1.66212 0.608493 0
M  V30 3357 C 310.656 -3.1061 1.46207 0
M  V30 3358 C 309.742 -3.31114 2.64999 0
M  V30 3359 N 310.133 -3.21904 3.90143 0
M  V30 3360 C 308.431 -3.61966 2.6057 0
M  V30 3361 C 309.132 -3.43577 4.69393 0
M  V30 3362 N 308.108 -3.67287 4.00751 0
M  V30 3363 H 311.91 -1.63235 2.444 0
M  V30 3364 H 309.424 -0.816577 1.40377 0
M  V30 3365 H 311.421 -3.8989 1.4762 0
M  V30 3366 H 310.081 -3.20399 0.52673 0
M  V30 3367 H 311.092 -3.00436 4.21852 0
M  V30 3368 H 307.769 -3.78629 1.75916 0
M  V30 3369 H 309.159 -3.41901 5.78406 0
M  V30 3370 N 311.879 -1.3236 -0.855495 0
M  V30 3371 C 313.128 -1.22226 -1.60448 0
M  V30 3372 C 313.441 0.214733 -1.94418 0
M  V30 3373 O 314.647 0.437917 -2.67945 0
M  V30 3374 C 313.103 -2.14063 -2.89318 0
M  V30 3375 C 312.711 -3.62839 -2.62777 0
M  V30 3376 C 314.455 -2.12764 -3.67331 0
M  V30 3377 C 312.362 -4.4664 -3.87643 0
M  V30 3378 H 311.292 -0.453904 -0.602069 0
M  V30 3379 H 313.943 -1.57314 -0.944698 0
M  V30 3380 H 312.325 -1.71889 -3.5675 0
M  V30 3381 H 313.499 -4.1335 -2.03662 0
M  V30 3382 H 311.814 -3.66261 -1.98096 0
M  V30 3383 H 314.411 -2.72611 -4.59987 0
M  V30 3384 H 314.754 -1.11841 -4.00995 0
M  V30 3385 H 315.287 -2.53214 -3.06802 0
M  V30 3386 H 312.026 -5.48373 -3.5912 0
M  V30 3387 H 311.546 -4.0088 -4.46156 0
M  V30 3388 H 313.225 -4.59597 -4.55389 0
M  V30 3389 N 313.357 1.07166 -1.15556 0
M  V30 3390 C 314.304 2.14417 -0.854055 0
M  V30 3391 C 315.274 1.64965 0.193806 0
M  V30 3392 O 316.459 1.90703 0.0609443 0
M  V30 3393 C 313.599 3.43304 -0.351574 0
M  V30 3394 C 312.712 4.06537 -1.46123 0
M  V30 3395 C 311.847 5.23266 -0.914677 0
M  V30 3396 C 310.886 5.78464 -2.00114 0
M  V30 3397 N 310.023 6.86521 -1.47083 0
M  V30 3398 H 314.863 2.39548 -1.77259 0
M  V30 3399 H 312.4 1.17543 -0.884425 0
M  V30 3400 H 314.358 4.17179 -0.0419409 0
M  V30 3401 H 312.988 3.18419 0.530037 0
M  V30 3402 H 312.04 3.30297 -1.88701 0
M  V30 3403 H 313.352 4.43567 -2.28144 0
M  V30 3404 H 312.506 6.04131 -0.557698 0
M  V30 3405 H 311.245 4.87658 -0.0636583 0
M  V30 3406 H 310.25 4.96243 -2.36692 0
M  V30 3407 H 311.475 6.16126 -2.85597 0
M  V30 3408 H 309.421 6.52849 -0.642198 0
M  V30 3409 H 309.338 7.22446 -2.22729 0
M  V30 3410 H 310.606 7.71087 -1.14215 0
M  V30 3411 N 314.835 0.952656 1.25548 0
M  V30 3412 C 315.765 0.489287 2.28316 0
M  V30 3413 C 316.746 -0.463359 1.63667 0
M  V30 3414 O 317.931 -0.36274 1.90782 0
M  V30 3415 C 315.061 -0.235603 3.465 0
M  V30 3416 C 314.015 0.631593 4.23314 0
M  V30 3417 C 313.341 -0.223923 5.34231 0
M  V30 3418 C 314.641 1.90871 4.86174 0
M  V30 3419 H 316.335 1.34822 2.67326 0
M  V30 3420 H 313.881 0.649728 1.28509 0
M  V30 3421 H 315.834 -0.570882 4.17515 0
M  V30 3422 H 314.558 -1.12877 3.06474 0
M  V30 3423 H 313.217 0.949929 3.54079 0
M  V30 3424 H 312.865 -1.11678 4.90446 0
M  V30 3425 H 312.565 0.35299 5.86539 0
M  V30 3426 H 314.089 -0.554214 6.0808 0
M  V30 3427 H 315.503 1.63997 5.49343 0
M  V30 3428 H 313.9 2.43112 5.4865 0
M  V30 3429 H 314.97 2.61304 4.08471 0
M  V30 3430 N 316.313 -1.40141 0.720998 0
M  V30 3431 C 317.541 -2.05096 0.272656 0
M  V30 3432 C 317.956 -1.54334 -1.0875 0
M  V30 3433 O 317.313 -0.702211 -1.6845 0
M  V30 3434 C 317.364 -3.60636 0.249835 0
M  V30 3435 O 317.085 -4.09526 1.55629 0
M  V30 3436 C 318.586 -4.42772 -0.216396 0
M  V30 3437 H 315.806 -0.659897 0.121558 0
M  V30 3438 H 318.35 -1.79449 0.980723 0
M  V30 3439 H 316.505 -3.85232 -0.409237 0
M  V30 3440 H 316.919 -5.03758 1.4604 0
M  V30 3441 H 318.393 -5.51702 -0.181212 0
M  V30 3442 H 318.87 -4.20756 -1.25941 0
M  V30 3443 H 319.476 -4.23294 0.412596 0
M  V30 3444 N 317.792 -0.46758 -1.50504 0
M  V30 3445 C 319.069 0.15003 -1.95024 0
M  V30 3446 C 319.449 1.57304 -1.40779 0
M  V30 3447 O 318.797 2.20281 -0.607319 0
M  V30 3448 C 319.007 0.0969324 -3.48865 0
M  V30 3449 C 320.355 0.287565 -4.23625 0
M  V30 3450 O 321.379 0.173678 -3.55776 0
M  V30 3451 O 320.238 0.517186 -5.44047 0
M  V30 3452 H 317.332 0.113582 -0.819163 0
M  V30 3453 H 319.878 -0.52773 -1.61286 0
M  V30 3454 H 318.65 -0.896732 -3.80886 0
M  V30 3455 H 318.273 0.816303 -3.8913 0
M  V30 3456 N 319.27 1.56325 -0.20005 0
M  V30 3457 C 320.517 1.97719 0.437411 0
M  V30 3458 C 320.845 1.08709 1.61284 0
M  V30 3459 O 320.1 0.127261 1.95286 0
M  V30 3460 C 320.399 3.4495 0.935103 0
M  V30 3461 C 320.065 4.5072 -0.12749 0
M  V30 3462 C 318.727 4.79368 -0.419451 0
M  V30 3463 C 321.079 5.14268 -0.847231 0
M  V30 3464 C 318.407 5.68854 -1.43604 0
M  V30 3465 C 320.759 6.04852 -1.85301 0
M  V30 3466 C 319.423 6.31855 -2.15211 0
M  V30 3467 H 318.693 0.723507 0.16006 0
M  V30 3468 H 321.34 1.89166 -0.298056 0
M  V30 3469 H 319.645 3.50599 1.74894 0
M  V30 3470 H 321.342 3.74337 1.43781 0
M  V30 3471 H 317.932 4.28458 0.11023 0
M  V30 3472 H 322.116 4.92222 -0.634901 0
M  V30 3473 H 317.372 5.88047 -1.67364 0
M  V30 3474 H 321.546 6.53152 -2.41591 0
M  V30 3475 H 319.173 7.00994 -2.94129 0
M  V30 3476 N 320.748 -0.0735177 1.57428 0
M  V30 3477 C 321.996 -0.771472 1.86796 0
M  V30 3478 C 322.317 -1.78201 0.791804 0
M  V30 3479 O 321.587 -1.95074 -0.179718 0
M  V30 3480 H 320.167 -0.28791 0.689287 0
M  V30 3481 H 322.829 -0.0500161 1.94836 0
M  V30 3482 H 321.925 -1.28874 2.8425 0
M  V30 3483 N 322.226 -1.5378 -0.344866 0
M  V30 3484 C 323.156 -1.84662 -1.42906 0
M  V30 3485 C 324.137 -0.701648 -1.54955 0
M  V30 3486 O 325.322 -0.953438 -1.69184 0
M  V30 3487 C 322.452 -2.05503 -2.79974 0
M  V30 3488 C 321.406 -3.21318 -2.82734 0
M  V30 3489 C 320.732 -3.2749 -4.22675 0
M  V30 3490 C 322.032 -4.59456 -2.48389 0
M  V30 3491 H 323.726 -2.75461 -1.17311 0
M  V30 3492 H 321.272 -1.32542 -0.562896 0
M  V30 3493 H 323.225 -2.25691 -3.55867 0
M  V30 3494 H 321.949 -1.11434 -3.07002 0
M  V30 3495 H 320.608 -3.00984 -2.09294 0
M  V30 3496 H 320.256 -2.31019 -4.4681 0
M  V30 3497 H 319.956 -4.05316 -4.25433 0
M  V30 3498 H 321.48 -3.49887 -5.00412 0
M  V30 3499 H 322.894 -4.79667 -3.13995 0
M  V30 3500 H 321.291 -5.39675 -2.62432 0
M  V30 3501 H 322.361 -4.63155 -1.4358 0
M  V30 3502 N 323.704 0.605807 -1.45491 0
M  V30 3503 C 324.929 1.39625 -1.53361 0
M  V30 3504 C 325.354 1.87351 -0.167645 0
M  V30 3505 O 324.712 1.60243 0.848051 0
M  V30 3506 C 324.76 2.57559 -2.5238 0
M  V30 3507 O 323.864 3.58248 -2.04285 0
M  V30 3508 H 323.205 0.416771 -0.516912 0
M  V30 3509 H 325.735 0.737103 -1.90861 0
M  V30 3510 H 325.745 3.0478 -2.71244 0
M  V30 3511 H 324.42 2.22171 -3.51586 0
M  V30 3512 H 322.997 3.17664 -1.95305 0
M  V30 3513 N 325.182 1.32811 0.848464 0
M  V30 3514 C 326.129 1.22265 1.95755 0
M  V30 3515 C 327.099 0.103413 1.65778 0
M  V30 3516 O 328.284 0.280033 1.88734 0
M  V30 3517 C 325.424 0.958014 3.31536 0
M  V30 3518 C 324.537 2.16262 3.73971 0
M  V30 3519 C 323.672 1.83295 4.98575 0
M  V30 3520 C 322.711 3.00041 5.33518 0
M  V30 3521 N 321.848 2.67125 6.49299 0
M  V30 3522 H 326.688 2.17128 2.04107 0
M  V30 3523 H 324.225 1.07982 0.998913 0
M  V30 3524 H 326.183 0.785052 4.09747 0
M  V30 3525 H 324.813 0.046159 3.22767 0
M  V30 3526 H 323.865 2.44565 2.91362 0
M  V30 3527 H 325.177 3.03572 3.95785 0
M  V30 3528 H 324.331 1.62586 5.84509 0
M  V30 3529 H 323.07 0.932078 4.7871 0
M  V30 3530 H 322.075 3.21374 4.46093 0
M  V30 3531 H 323.3 3.90869 5.55336 0
M  V30 3532 H 321.246 1.79586 6.3094 0
M  V30 3533 H 321.163 3.47965 6.71161 0
M  V30 3534 H 322.431 2.49861 7.3837 0
M  V30 3535 N 326.66 -1.06551 1.16123 0
M  V30 3536 C 327.57 -2.17484 0.879662 0
M  V30 3537 C 328.586 -1.73377 -0.147104 0
M  V30 3538 O 329.762 -2.01379 0.0289128 0
M  V30 3539 C 326.827 -3.44591 0.381829 0
M  V30 3540 C 325.888 -4.0322 1.4735 0
M  V30 3541 C 325.121 -5.24261 0.999324 0
M  V30 3542 O 325.344 -5.70198 -0.151957 0
M  V30 3543 O 324.278 -5.74775 1.78653 0
M  V30 3544 H 328.104 -2.44075 1.80724 0
M  V30 3545 H 325.689 -1.16042 0.940992 0
M  V30 3546 H 327.571 -4.21254 0.111053 0
M  V30 3547 H 326.246 -3.19532 -0.51777 0
M  V30 3548 H 325.153 -3.2806 1.79798 0
M  V30 3549 H 326.486 -4.32568 2.34831 0
M  V30 3550 N 328.138 -0.959301 -1.25041 0
M  V30 3551 C 329.363 -0.633507 -1.97488 0
M  V30 3552 C 329.788 0.788555 -1.70773 0
M  V30 3553 O 329.146 1.53394 -0.966431 0
M  V30 3554 C 329.194 -0.904057 -3.49083 0
M  V30 3555 O 328.298 0.0147939 -4.12397 0
M  V30 3556 H 327.639 -0.240368 -0.618966 0
M  V30 3557 H 330.169 -1.28717 -1.59038 0
M  V30 3558 H 330.179 -0.832203 -3.99423 0
M  V30 3559 H 328.854 -1.94048 -3.67856 0
M  V30 3560 H 327.431 -0.109664 -3.72739 0
M  V30 3561 N 329.616 1.39756 -0.72842 0
M  V30 3562 C 330.862 2.00942 -0.273892 0
M  V30 3563 C 331.195 1.57656 1.13394 0
M  V30 3564 O 330.47 0.802434 1.77176 0
M  V30 3565 C 330.753 3.58211 -0.368346 0
M  V30 3566 C 330.606 4.11534 -1.81548 0
M  V30 3567 C 331.925 4.39372 0.253054 0
M  V30 3568 H 329.044 0.730047 -0.100996 0
M  V30 3569 H 331.686 1.66056 -0.923337 0
M  V30 3570 H 329.836 3.88061 0.184588 0
M  V30 3571 H 331.508 3.92431 -2.42478 0
M  V30 3572 H 329.751 3.65341 -2.33898 0
M  V30 3573 H 330.422 5.20682 -1.83288 0
M  V30 3574 H 332.898 4.15527 -0.218224 0
M  V30 3575 H 331.774 5.48677 0.156585 0
M  V30 3576 H 332.035 4.21358 1.33826 0
M  V30 3577 N 331.094 0.475555 1.50254 0
M  V30 3578 C 332.371 -0.139685 1.95101 0
M  V30 3579 C 332.751 -1.56555 1.41611 0
M  V30 3580 O 332.099 -2.19956 0.618993 0
M  V30 3581 C 332.309 -0.0784298 3.48912 0
M  V30 3582 C 333.657 -0.265095 4.23772 0
M  V30 3583 O 334.681 -0.154808 3.55863 0
M  V30 3584 O 333.54 -0.488327 5.44314 0
M  V30 3585 H 330.634 -0.109236 0.819754 0
M  V30 3586 H 333.18 0.536276 1.61004 0
M  V30 3587 H 331.952 0.916918 3.80405 0
M  V30 3588 H 331.575 -0.795655 3.89558 0
M  V30 3589 N 332.573 -1.56217 0.208337 0
M  V30 3590 C 333.505 -2.1695 -0.739276 0
M  V30 3591 C 334.518 -1.13492 -1.1672 0
M  V30 3592 O 335.707 -1.40529 -1.10063 0
M  V30 3593 C 332.807 -2.72755 -2.01142 0
M  V30 3594 C 331.98 -4.0125 -1.74118 0
M  V30 3595 C 331.039 -4.41749 -2.85909 0
M  V30 3596 O 330.065 -5.08912 -2.54946 0
M  V30 3597 N 331.267 -4.06342 -4.14568 0
M  V30 3598 H 334.032 -2.98893 -0.219837 0
M  V30 3599 H 331.593 -1.61878 0.0268445 0
M  V30 3600 H 333.585 -2.96826 -2.75094 0
M  V30 3601 H 332.155 -1.95191 -2.4417 0
M  V30 3602 H 331.375 -3.85173 -0.838775 0
M  V30 3603 H 332.663 -4.851 -1.53477 0
M  V30 3604 H 332.061 -3.52345 -4.42571 0
M  V30 3605 H 330.618 -4.35335 -4.85105 0
M  V30 3606 N 334.051 0.0651679 -1.57465 0
M  V30 3607 C 334.961 1.09448 -2.07505 0
M  V30 3608 C 335.977 1.41974 -1.00595 0
M  V30 3609 O 337.153 1.52018 -1.32107 0
M  V30 3610 C 334.218 2.38689 -2.51453 0
M  V30 3611 C 333.279 2.13073 -3.72691 0
M  V30 3612 C 332.512 3.36152 -4.14533 0
M  V30 3613 O 332.735 4.45517 -3.56189 0
M  V30 3614 O 331.669 3.23974 -5.07272 0
M  V30 3615 H 335.495 0.69935 -2.95538 0
M  V30 3616 H 333.08 0.279752 -1.46757 0
M  V30 3617 H 334.962 3.14736 -2.80212 0
M  V30 3618 H 333.637 2.77568 -1.66546 0
M  V30 3619 H 332.544 1.34709 -3.49005 0
M  V30 3620 H 333.877 1.79071 -4.5847 0
M  V30 3621 N 335.529 1.53961 0.336706 0
M  V30 3622 C 336.476 1.82428 1.41381 0
M  V30 3623 C 337.446 0.670444 1.51968 0
M  V30 3624 O 338.631 0.915565 1.67398 0
M  V30 3625 C 335.771 2.04564 2.77934 0
M  V30 3626 C 334.884 3.32267 2.76084 0
M  V30 3627 C 334.019 3.44434 4.04399 0
M  V30 3628 C 333.058 4.66061 3.96804 0
M  V30 3629 N 332.195 4.75224 5.16823 0
M  V30 3630 H 337.035 2.74324 1.16405 0
M  V30 3631 H 334.572 1.35869 0.563752 0
M  V30 3632 H 336.53 2.15388 3.57301 0
M  V30 3633 H 335.16 1.15974 3.01247 0
M  V30 3634 H 334.212 3.3025 1.88784 0
M  V30 3635 H 335.524 4.21733 2.66351 0
M  V30 3636 H 334.678 3.54728 4.92192 0
M  V30 3637 H 333.417 2.53037 4.16921 0
M  V30 3638 H 332.422 4.55838 3.07396 0
M  V30 3639 H 333.647 5.58829 3.85858 0
M  V30 3640 H 331.593 3.86739 5.29876 0
M  V30 3641 H 331.51 5.58636 5.09374 0
M  V30 3642 H 332.778 4.89835 6.06367 0
M  V30 3643 N 337.007 -0.598083 1.45811 0
M  V30 3644 C 337.954 -1.7082 1.55207 0
M  V30 3645 C 338.924 -1.61278 0.39732 0
M  V30 3646 O 340.109 -1.80717 0.612038 0
M  V30 3647 C 337.249 -3.09144 1.53376 0
M  V30 3648 C 336.362 -3.29423 2.79472 0
M  V30 3649 C 335.497 -4.57907 2.69248 0
M  V30 3650 C 334.536 -4.71476 3.90354 0
M  V30 3651 N 333.673 -5.9127 3.78608 0
M  V30 3652 H 338.513 -1.62125 2.50039 0
M  V30 3653 H 336.05 -0.790389 1.24062 0
M  V30 3654 H 338.008 -3.89186 1.50301 0
M  V30 3655 H 336.638 -3.16773 0.620876 0
M  V30 3656 H 335.69 -2.43091 2.92594 0
M  V30 3657 H 337.002 -3.3532 3.69272 0
M  V30 3658 H 336.156 -5.46157 2.64192 0
M  V30 3659 H 334.895 -4.54423 1.77063 0
M  V30 3660 H 333.9 -3.81648 3.95759 0
M  V30 3661 H 335.125 -4.76751 4.83617 0
M  V30 3662 H 333.071 -5.88813 2.89199 0
M  V30 3663 H 332.988 -5.98369 4.6205 0
M  V30 3664 H 334.256 -6.81992 3.77501 0
M  V30 3665 N 338.485 -1.33259 -0.841409 0
M  V30 3666 C 339.448 -1.23221 -1.9326 0
M  V30 3667 C 340.448 -0.151895 -1.60081 0
M  V30 3668 O 341.638 -0.403246 -1.69468 0
M  V30 3669 C 338.77 -0.898123 -3.28856 0
M  V30 3670 H 339.963 -2.2021 -2.03587 0
M  V30 3671 H 337.516 -1.17281 -1.03319 0
M  V30 3672 H 338.251 0.0693841 -3.24226 0
M  V30 3673 H 338.036 -1.67934 -3.54317 0
M  V30 3674 H 339.526 -0.852563 -4.08805 0
M  V30 3675 N 339.963 1.05934 -1.16686 0
M  V30 3676 C 341.193 1.82226 -0.973515 0
M  V30 3677 C 341.601 1.8297 0.481532 0
M  V30 3678 O 340.944 1.25009 1.34604 0
M  V30 3679 C 341.006 3.29897 -1.42858 0
M  V30 3680 C 340.67 3.52849 -2.90425 0
M  V30 3681 C 341.667 3.45595 -3.88407 0
M  V30 3682 C 339.352 3.80053 -3.28428 0
M  V30 3683 C 341.346 3.65217 -5.22394 0
M  V30 3684 C 339.033 3.99325 -4.62583 0
M  V30 3685 C 340.031 3.91905 -5.59374 0
M  V30 3686 O 339.719 4.10647 -6.91104 0
M  V30 3687 H 339.451 0.581314 -0.345036 0
M  V30 3688 H 342.005 1.3453 -1.55212 0
M  V30 3689 H 340.235 3.78472 -0.793477 0
M  V30 3690 H 341.924 3.87692 -1.20207 0
M  V30 3691 H 342.69 3.24564 -3.60393 0
M  V30 3692 H 338.569 3.84936 -2.53664 0
M  V30 3693 H 342.113 3.59341 -5.9793 0
M  V30 3694 H 338.01 4.19846 -4.90306 0
M  V30 3695 H 338.778 4.27915 -6.97733 0
M  V30 3696 N 341.441 0.965919 1.2453 0
M  V30 3697 C 342.666 0.643971 1.97149 0
M  V30 3698 C 343.091 -0.779487 1.71189 0
M  V30 3699 O 342.449 -1.5288 0.974553 0
M  V30 3700 C 342.497 0.922557 3.48599 0
M  V30 3701 O 341.601 0.00707672 4.12399 0
M  V30 3702 H 340.942 0.243647 0.617683 0
M  V30 3703 H 343.472 1.29558 1.58353 0
M  V30 3704 H 343.482 0.853373 3.98976 0
M  V30 3705 H 342.157 1.95996 3.66822 0
M  V30 3706 H 340.734 0.12943 3.72675 0
M  V30 3707 N 342.919 -1.39368 0.735821 0
M  V30 3708 C 344.166 -2.00497 0.284123 0
M  V30 3709 C 344.494 -1.58387 -1.12889 0
M  V30 3710 O 343.749 -0.804359 -1.78406 0
M  V30 3711 C 344.048 -3.5583 0.334651 0
M  V30 3712 C 343.714 -4.17593 1.7008 0
M  V30 3713 C 342.376 -4.34176 2.07472 0
M  V30 3714 C 344.728 -4.51848 2.59775 0
M  V30 3715 C 342.056 -4.82304 3.34065 0
M  V30 3716 C 344.408 -5.01384 3.85741 0
M  V30 3717 C 343.072 -5.16175 4.23225 0
M  V30 3718 H 342.342 -0.73367 0.103968 0
M  V30 3719 H 344.989 -1.66683 0.942825 0
M  V30 3720 H 343.294 -3.89674 -0.407625 0
M  V30 3721 H 344.991 -4.00986 -0.0329927 0
M  V30 3722 H 341.581 -4.05087 1.40008 0
M  V30 3723 H 345.765 -4.38653 2.32157 0
M  V30 3724 H 341.021 -4.91941 3.63049 0
M  V30 3725 H 345.195 -5.26863 4.55399 0
M  V30 3726 H 342.822 -5.5323 5.21384 0
M  V30 3727 N 344.397 -0.483516 -1.5 0
M  V30 3728 C 345.637 0.0657469 -2.04294 0
M  V30 3729 C 346.001 1.35869 -1.35659 0
M  V30 3730 O 347.202 1.99111 -1.80578 0
M  V30 3731 C 345.473 0.232758 -3.56641 0
M  V30 3732 S 347.032 0.738788 -4.32536 0
M  V30 3733 H 343.85 0.0100755 -0.710929 0
M  V30 3734 H 346.452 -0.653494 -1.84254 0
M  V30 3735 H 345.156 -0.713847 -4.04144 0
M  V30 3736 H 344.687 0.977751 -3.81056 0
M  V30 3737 H 346.702 2.01048 -4.53645 0
M  V30 3738 N 345.875 1.56104 -0.216619 0
M  V30 3739 C 347.123 1.97781 0.415593 0
M  V30 3740 C 347.444 1.10536 1.60645 0
M  V30 3741 O 346.714 0.181303 1.95059 0
M  V30 3742 H 345.294 0.730415 0.156534 0
M  V30 3743 H 347.956 1.92445 -0.308366 0
M  V30 3744 H 347.052 3.03072 0.74525 0
M  V30 3745 N 347.353 -0.0568162 1.57498 0
M  V30 3746 C 348.581 -0.765626 1.92213 0
M  V30 3747 C 348.996 -1.70353 0.813961 0
M  V30 3748 O 348.353 -1.81268 -0.211701 0
M  V30 3749 C 348.404 -1.5465 3.2675 0
M  V30 3750 O 348.125 -0.646278 4.33307 0
M  V30 3751 C 349.626 -2.35497 3.75574 0
M  V30 3752 H 346.846 -0.216835 0.634999 0
M  V30 3753 H 349.39 -0.0226146 2.04487 0
M  V30 3754 H 347.545 -2.24165 3.15957 0
M  V30 3755 H 347.959 -1.19093 5.108 0
M  V30 3756 H 349.433 -2.85722 4.72299 0
M  V30 3757 H 349.91 -3.15692 3.05344 0
M  V30 3758 H 350.516 -1.7111 3.8936 0
M  V30 3759 N 348.832 -1.54138 -0.328536 0
M  V30 3760 C 350.078 -1.7236 -1.06865 0
M  V30 3761 C 350.411 -0.493231 -1.87832 0
M  V30 3762 O 349.686 0.5098 -1.877 0
M  V30 3763 C 349.969 -2.99621 -1.99747 0
M  V30 3764 C 349.822 -4.32899 -1.22143 0
M  V30 3765 C 351.141 -3.22615 -2.99345 0
M  V30 3766 H 348.26 -0.627151 -0.387105 0
M  V30 3767 H 350.902 -1.86827 -0.345767 0
M  V30 3768 H 349.052 -2.87418 -2.61387 0
M  V30 3769 H 350.724 -4.56978 -0.630017 0
M  V30 3770 H 348.967 -4.30628 -0.523628 0
M  V30 3771 H 349.638 -5.18154 -1.90318 0
M  V30 3772 H 352.114 -3.34248 -2.47826 0
M  V30 3773 H 350.99 -4.13027 -3.61524 0
M  V30 3774 H 351.251 -2.3961 -3.71536 0
M  V30 3775 N 350.31 0.590341 -1.46126 0
M  V30 3776 C 351.22 1.72793 -1.58681 0
M  V30 3777 C 352.236 1.67516 -0.470566 0
M  V30 3778 O 353.412 1.87562 -0.733642 0
M  V30 3779 C 350.477 3.09287 -1.5666 0
M  V30 3780 C 349.538 3.25886 -2.79458 0
M  V30 3781 C 348.771 4.55869 -2.77524 0
M  V30 3782 O 348.994 5.3928 -1.85832 0
M  V30 3783 O 347.928 4.75552 -3.68964 0
M  V30 3784 H 351.754 1.65149 -2.54872 0
M  V30 3785 H 349.339 0.756486 -1.28832 0
M  V30 3786 H 351.221 3.90577 -1.58202 0
M  V30 3787 H 349.896 3.17385 -0.636271 0
M  V30 3788 H 348.803 2.44119 -2.83472 0
M  V30 3789 H 350.136 3.22675 -3.71674 0
M  V30 3790 N 351.788 1.33704 0.83433 0
M  V30 3791 C 353.018 1.28281 1.6195 0
M  V30 3792 C 353.426 -0.147603 1.88623 0
M  V30 3793 O 352.769 -1.1016 1.47005 0
M  V30 3794 C 352.831 1.99386 2.99141 0
M  V30 3795 C 352.495 3.48681 2.95416 0
M  V30 3796 C 353.492 4.438 2.70809 0
M  V30 3797 C 351.177 3.90925 3.15409 0
M  V30 3798 C 353.171 5.79138 2.66229 0
M  V30 3799 C 350.858 5.26366 3.10454 0
M  V30 3800 C 351.856 6.20284 2.85895 0
M  V30 3801 O 351.544 7.53245 2.80852 0
M  V30 3802 H 351.276 0.44315 0.510484 0
M  V30 3803 H 353.83 1.76711 1.04702 0
M  V30 3804 H 352.06 1.45554 3.58261 0
M  V30 3805 H 353.749 1.87403 3.60049 0
M  V30 3806 H 354.515 4.12485 2.5511 0
M  V30 3807 H 350.394 3.18229 3.33543 0
M  V30 3808 H 353.938 6.52416 2.4698 0
M  V30 3809 H 349.835 5.57304 3.25703 0
M  V30 3810 H 350.603 7.62846 2.96661 0
M  V30 3811 N 353.266 -1.05314 1.17247 0
M  V30 3812 C 354.199 -2.12512 0.831507 0
M  V30 3813 C 355.177 -1.61351 -0.201168 0
M  V30 3814 O 356.361 -1.88317 -0.0829831 0
M  V30 3815 C 353.488 -3.37848 0.24015 0
M  V30 3816 C 352.534 -4.07832 1.24801 0
M  V30 3817 S 353.367 -4.56537 2.79882 0
M  V30 3818 C 354.523 -5.85122 2.22223 0
M  V30 3819 H 354.756 -2.41106 1.7394 0
M  V30 3820 H 352.289 -1.17896 0.996988 0
M  V30 3821 H 354.247 -4.10391 -0.0945588 0
M  V30 3822 H 352.908 -3.07392 -0.645668 0
M  V30 3823 H 352.101 -4.97883 0.78287 0
M  V30 3824 H 351.703 -3.41348 1.52831 0
M  V30 3825 H 353.995 -6.58408 1.59703 0
M  V30 3826 H 354.938 -6.36381 3.10523 0
M  V30 3827 H 355.346 -5.39626 1.65722 0
M  V30 3828 N 354.744 -0.972509 -1.24016 0
M  V30 3829 C 355.707 -0.511403 -2.23422 0
M  V30 3830 C 356.707 0.394679 -1.55881 0
M  V30 3831 O 357.897 0.189469 -1.73167 0
M  V30 3832 C 355.029 0.258769 -3.39916 0
M  V30 3833 H 356.222 -1.39024 -2.6573 0
M  V30 3834 H 353.775 -0.757585 -1.36713 0
M  V30 3835 H 354.51 1.1545 -3.03054 0
M  V30 3836 H 354.295 -0.391522 -3.9014 0
M  V30 3837 H 355.785 0.570244 -4.13688 0
M  V30 3838 N 356.222 1.38976 -0.743202 0
M  V30 3839 C 357.633 1.83123 -0.363732 0
M  V30 3840 C 357.984 1.6205 1.10609 0
M  V30 3841 O 357.109 1.11606 1.854 0
M  V30 3842 C 357.704 3.32439 -0.653408 0
M  V30 3843 C 356.263 3.74974 -0.327338 0
M  V30 3844 C 355.41 2.61878 -0.911875 0
M  V30 3845 H 358.361 1.27852 -0.940191 0
M  V30 3846 H 358.382 3.80432 0.0720031 0
M  V30 3847 H 357.894 3.47745 -1.72323 0
M  V30 3848 H 355.995 3.65252 0.736314 0
M  V30 3849 H 356.108 4.72106 -0.815631 0
M  V30 3850 H 354.472 2.52448 -0.337944 0
M  V30 3851 H 355.255 2.79987 -1.98651 0
M  V30 3852 N 357.7 0.491464 1.49741 0
M  V30 3853 C 358.61 -0.296835 2.32715 0
M  V30 3854 C 359.626 -0.976536 1.44013 0
M  V30 3855 O 360.802 -0.960023 1.77047 0
M  V30 3856 C 357.867 -1.35288 3.19215 0
M  V30 3857 C 356.928 -0.687632 4.23757 0
M  V30 3858 C 356.161 -1.69336 5.06123 0
M  V30 3859 O 356.384 -2.92219 4.89861 0
M  V30 3860 O 355.318 -1.25394 5.88693 0
M  V30 3861 H 359.144 0.382048 3.01287 0
M  V30 3862 H 356.729 0.252953 1.47243 0
M  V30 3863 H 358.611 -1.96411 3.72828 0
M  V30 3864 H 357.286 -2.01487 2.53347 0
M  V30 3865 H 356.193 -0.0369159 3.74082 0
M  V30 3866 H 357.526 -0.0682566 4.92153 0
M  V30 3867 N 359.178 -1.55987 0.224894 0
M  V30 3868 C 360.424 -1.98684 -0.406502 0
M  V30 3869 C 360.757 -1.11248 -1.59177 0
M  V30 3870 O 360.032 -0.170909 -1.93748 0
M  V30 3871 C 360.315 -3.50218 -0.837808 0
M  V30 3872 C 360.168 -4.48426 0.351332 0
M  V30 3873 C 361.487 -4.06243 -1.69278 0
M  V30 3874 H 358.606 -0.722337 -0.146283 0
M  V30 3875 H 361.248 -1.87255 0.321799 0
M  V30 3876 H 359.398 -3.60089 -1.45837 0
M  V30 3877 H 361.07 -4.50562 0.989526 0
M  V30 3878 H 359.313 -4.22159 0.998207 0
M  V30 3879 H 359.984 -5.52 0.00655905 0
M  V30 3880 H 362.46 -3.99337 -1.16914 0
M  V30 3881 H 361.336 -5.12581 -1.96346 0
M  V30 3882 H 361.597 -3.53332 -2.65723 0
M  V30 3883 N 360.656 0.0484629 -1.57525 0
M  V30 3884 C 361.902 0.744226 -1.88651 0
M  V30 3885 C 362.235 1.76029 -0.820212 0
M  V30 3886 O 361.51 1.93782 0.166985 0
M  V30 3887 C 361.793 1.43128 -3.30434 0
M  V30 3888 C 361.646 0.43005 -4.47739 0
M  V30 3889 C 362.965 2.37031 -3.70816 0
M  V30 3890 H 360.084 0.269089 -0.68612 0
M  V30 3891 H 362.726 0.00713532 -1.89999 0
M  V30 3892 H 360.876 2.05956 -3.29415 0
M  V30 3893 H 362.548 -0.194816 -4.60888 0
M  V30 3894 H 360.791 -0.252522 -4.33064 0
M  V30 3895 H 361.462 0.948874 -5.43783 0
M  V30 3896 H 363.938 1.84263 -3.73077 0
M  V30 3897 H 362.814 2.82094 -4.70865 0
M  V30 3898 H 363.075 3.22864 -3.02012 0
M  V30 3899 N 362.134 1.5431 0.320358 0
M  V30 3900 C 363.082 1.84647 1.4145 0
M  V30 3901 C 364.076 0.718624 1.53402 0
M  V30 3902 O 365.282 0.902335 1.5575 0
M  V30 3903 H 361.657 0.585349 0.472091 0
M  V30 3904 H 363.628 2.7614 1.13089 0
M  V30 3905 C 362.377 2.09341 2.77617 0
M  V30 3906 H 361.7 2.9559 2.69196 0
M  V30 3907 H 363.14 2.3452 3.53237 0
M  V30 3908 C 361.599 0.885939 3.25043 0
M  V30 3909 O 362.129 0.0967891 4.01583 0
M  V30 3910 N 360.335 0.696682 2.82125 0
M  V30 3911 H 359.882 1.34006 2.2 0
M  V30 3912 H 359.84 -0.109712 3.14209 0
M  V30 3913 N 363.613 -0.582584 1.46437 0
M  V30 3914 C 365.029 -0.905962 1.31394 0
M  V30 3915 C 365.229 -1.99468 0.285476 0
M  V30 3916 O 364.285 -2.50566 -0.311914 0
M  V30 3917 C 365.598 -1.3232 2.70022 0
M  V30 3918 C 367.146 -1.43604 2.78113 0
M  V30 3919 C 367.621 -1.88694 4.17323 0
M  V30 3920 N 369.112 -1.95887 4.19741 0
M  V30 3921 C 369.847 -2.32051 5.24347 0
M  V30 3922 N 369.343 -2.67006 6.39281 0
M  V30 3923 N 371.136 -2.32606 5.11713 0
M  V30 3924 H 363.287 0.1366 2.1196 0
M  V30 3925 H 365.55 -0.00155736 0.947999 0
M  V30 3926 H 365.256 -0.597242 3.46592 0
M  V30 3927 H 365.13 -2.28469 3.00136 0
M  V30 3928 H 367.517 -2.15286 2.01832 0
M  V30 3929 H 367.598 -0.457059 2.51684 0
M  V30 3930 H 367.242 -1.1759 4.941 0
M  V30 3931 H 367.172 -2.8755 4.4116 0
M  V30 3932 H 369.663 -1.71362 3.36814 0
M  V30 3933 H 369.976 -2.93554 7.14875 0
M  V30 3934 H 368.321 -2.64644 6.42642 0
M  V30 3935 H 371.512 -2.04721 4.2096 0
M  V30 3936 H 371.685 -2.60462 5.93349 0
M  V30 3937 N 365.091 -1.34144 -0.827227 0
M  V30 3938 C 366.507 -1.13732 -1.11969 0
M  V30 3939 C 366.707 0.0640463 -2.01398 0
M  V30 3940 O 365.763 0.740856 -2.41387 0
M  V30 3941 C 367.076 -2.43047 -1.77055 0
M  V30 3942 C 368.624 -2.49063 -1.89569 0
M  V30 3943 C 369.099 -3.78369 -2.58072 0
M  V30 3944 N 370.59 -3.79505 -2.65575 0
M  V30 3945 C 371.325 -4.76274 -3.19297 0
M  V30 3946 N 370.821 -5.83424 -3.73616 0
M  V30 3947 N 372.614 -4.63735 -3.17658 0
M  V30 3948 H 364.765 -2.11126 -0.232296 0
M  V30 3949 H 367.028 -0.933424 -0.165602 0
M  V30 3950 H 366.734 -3.31025 -1.18807 0
M  V30 3951 H 366.608 -2.56066 -2.76966 0
M  V30 3952 H 368.995 -1.61527 -2.46968 0
M  V30 3953 H 369.076 -2.39975 -0.885745 0
M  V30 3954 H 368.72 -4.66293 -2.01329 0
M  V30 3955 H 368.65 -3.84737 -3.59562 0
M  V30 3956 H 371.141 -3.02074 -2.27068 0
M  V30 3957 H 371.454 -6.53282 -4.12846 0
M  V30 3958 H 369.799 -5.87143 -3.71871 0
M  V30 3959 H 372.99 -3.79177 -2.74486 0
M  V30 3960 H 373.163 -5.39318 -3.59221 0
M  V30 3961 N 366.569 1.04691 -1.17803 0
M  V30 3962 C 367.817 1.7743 -0.967617 0
M  V30 3963 C 368.138 1.88359 0.504574 0
M  V30 3964 O 367.408 1.40402 1.36617 0
M  V30 3965 H 365.988 0.657242 -0.355024 0
M  V30 3966 H 368.65 1.2638 -1.48371 0
M  V30 3967 H 367.746 2.78924 -1.40027 0
M  V30 3968 N 368.047 0.979072 1.23499 0
M  V30 3969 C 368.997 0.489378 2.22686 0
M  V30 3970 C 369.981 -0.434871 1.54912 0
M  V30 3971 O 371.173 -0.263941 1.75021 0
M  V30 3972 C 368.302 -0.208178 3.42668 0
M  V30 3973 C 367.388 0.735563 4.17672 0
M  V30 3974 N 367.779 1.87763 4.69658 0
M  V30 3975 C 366.077 0.548625 4.42613 0
M  V30 3976 C 366.778 2.46886 5.26709 0
M  V30 3977 N 365.754 1.75287 5.14563 0
M  V30 3978 H 369.556 1.36062 2.60508 0
M  V30 3979 H 367.07 0.83958 1.39014 0
M  V30 3980 H 369.067 -0.576295 4.12898 0
M  V30 3981 H 367.727 -1.07572 3.06363 0
M  V30 3982 H 368.738 2.25885 4.66043 0
M  V30 3983 H 365.415 -0.274006 4.166 0
M  V30 3984 H 366.805 3.43326 5.77561 0
M  V30 3985 N 369.525 -1.3858 0.750561 0
M  V30 3986 C 370.75 -2.04997 0.314812 0
M  V30 3987 C 371.175 -1.56235 -1.04749 0
M  V30 3988 O 370.533 -0.712981 -1.66692 0
M  V30 3989 C 370.581 -3.58961 0.343415 0
M  V30 3990 O 369.685 -4.07025 -0.663628 0
M  V30 3991 H 369.026 -0.649081 0.139962 0
M  V30 3992 H 371.556 -1.77313 1.02084 0
M  V30 3993 H 371.566 -4.07542 0.193233 0
M  V30 3994 H 370.241 -3.93811 1.33738 0
M  V30 3995 H 368.818 -3.6982 -0.478307 0
M  V30 3996 N 371.003 -0.499398 -1.49478 0
M  V30 3997 C 371.935 0.316575 -2.27003 0
M  V30 3998 C 372.948 0.932047 -1.33479 0
M  V30 3999 O 374.137 0.815658 -1.58774 0
M  V30 4000 C 371.237 1.46055 -3.05812 0
M  V30 4001 C 370.41 0.952679 -4.26899 0
M  V30 4002 C 369.469 1.97407 -4.87767 0
M  V30 4003 O 368.495 1.54326 -5.4788 0
M  V30 4004 N 369.697 3.30436 -4.77276 0
M  V30 4005 H 372.462 -0.348168 -2.97671 0
M  V30 4006 H 370.023 -0.33185 -1.58463 0
M  V30 4007 H 372.015 2.14135 -3.43407 0
M  V30 4008 H 370.585 2.02948 -2.37762 0
M  V30 4009 H 369.805 0.0968248 -3.94081 0
M  V30 4010 H 371.093 0.59174 -5.05347 0
M  V30 4011 H 370.491 3.68126 -4.29534 0
M  V30 4012 H 369.048 3.94235 -5.19059 0
M  V30 4013 N 372.481 1.55866 -0.233164 0
M  V30 4014 C 373.706 2.03449 0.402906 0
M  V30 4015 C 374.131 1.11166 1.51736 0
M  V30 4016 O 373.489 0.101996 1.81013 0
M  V30 4017 C 373.537 3.49165 0.9009 0
M  V30 4018 O 372.641 3.60019 2.01147 0
M  V30 4019 H 371.982 0.657913 0.0897025 0
M  V30 4020 H 374.512 2.01493 -0.355201 0
M  V30 4021 H 374.522 3.89716 1.2077 0
M  V30 4022 H 373.197 4.15813 0.0852889 0
M  V30 4023 H 371.774 3.3136 1.71042 0
M  V30 4024 N 373.959 -0.0401083 1.57549 0
M  V30 4025 C 374.922 -1.02871 2.04817 0
M  V30 4026 C 375.922 -1.29708 0.950388 0
M  V30 4027 O 377.112 -1.24897 1.21435 0
M  V30 4028 C 374.244 -2.36443 2.45576 0
M  V30 4029 H 375.437 -0.620631 2.93408 0
M  V30 4030 H 372.99 -0.286667 1.53649 0
M  V30 4031 H 373.725 -2.82021 1.60108 0
M  V30 4032 H 373.51 -2.18296 3.25713 0
M  V30 4033 H 375 -3.07441 2.82612 0
M  V30 4034 N 375.437 -1.54477 -0.31217 0
M  V30 4035 C 376.714 -1.63891 -1.06767 0
M  V30 4036 C 377.094 -0.480028 -2.0557 0
M  V30 4037 O 376.442 0.524487 -2.22399 0
M  V30 4038 C 376.652 -3.01402 -1.75948 0
M  V30 4039 C 378 -3.57838 -2.28554 0
M  V30 4040 O 379.024 -3.03782 -1.85998 0
M  V30 4041 O 377.883 -4.52462 -3.06497 0
M  V30 4042 H 374.977 -0.664125 -0.492816 0
M  V30 4043 H 377.523 -1.66823 -0.311149 0
M  V30 4044 H 376.295 -3.77187 -1.04144 0
M  V30 4045 H 375.918 -3.02199 -2.58383 0
M  V30 4046 N 376.915 0.57481 -1.46744 0
M  V30 4047 C 378.161 1.33251 -1.53674 0
M  V30 4048 C 378.516 1.91468 -0.189125 0
M  V30 4049 O 377.809 1.73954 0.803151 0
M  V30 4050 C 378.003 2.476 -2.57738 0
M  V30 4051 C 377.832 2.00586 -4.02487 0
M  V30 4052 C 376.602 1.85237 -4.70123 0
M  V30 4053 C 378.8 1.56078 -4.90045 0
M  V30 4054 N 376.782 1.32377 -5.99458 0
M  V30 4055 C 378.153 1.14863 -6.09267 0
M  V30 4056 C 380.208 1.43968 -4.76632 0
M  V30 4057 C 378.911 0.627435 -7.16558 0
M  V30 4058 C 380.937 0.932512 -5.84002 0
M  V30 4059 C 380.299 0.53019 -7.02402 0
M  V30 4060 H 376.398 0.480284 -0.617131 0
M  V30 4061 H 378.982 0.653592 -1.83402 0
M  V30 4062 H 377.153 3.13045 -2.29907 0
M  V30 4063 H 378.885 3.14567 -2.54616 0
M  V30 4064 H 375.64 2.07423 -4.25761 0
M  V30 4065 H 376.064 1.08085 -6.68316 0
M  V30 4066 H 380.706 1.73689 -3.85476 0
M  V30 4067 H 378.424 0.317821 -8.07475 0
M  V30 4068 H 382.01 0.842611 -5.75666 0
M  V30 4069 H 380.89 0.14381 -7.84068 0
M  V30 4070 N 378.394 1.34581 0.820102 0
M  V30 4071 C 379.64 1.28294 1.57836 0
M  V30 4072 C 379.995 -0.145099 1.91852 0
M  V30 4073 O 379.288 -1.09209 1.57429 0
M  V30 4074 C 379.482 2.10997 2.8847 0
M  V30 4075 C 379.311 3.61698 2.67216 0
M  V30 4076 C 378.081 4.3097 2.63805 0
M  V30 4077 C 380.279 4.55638 2.38534 0
M  V30 4078 N 378.261 5.67502 2.34126 0
M  V30 4079 C 379.632 5.80194 2.18574 0
M  V30 4080 C 381.687 4.44523 2.24285 0
M  V30 4081 C 380.39 6.94886 1.8581 0
M  V30 4082 C 382.416 5.5905 1.92916 0
M  V30 4083 C 381.778 6.82627 1.73782 0
M  V30 4084 H 377.877 0.524697 0.579842 0
M  V30 4085 H 380.461 1.69323 0.961139 0
M  V30 4086 H 378.632 1.7226 3.48111 0
M  V30 4087 H 380.364 1.96333 3.53886 0
M  V30 4088 H 377.119 3.83438 2.77978 0
M  V30 4089 H 377.543 6.39525 2.22118 0
M  V30 4090 H 382.185 3.49599 2.37782 0
M  V30 4091 H 379.903 7.89789 1.7105 0
M  V30 4092 H 383.489 5.52396 1.82619 0
M  V30 4093 H 382.369 7.69748 1.49861 0
M  V30 4094 N 379.872 -1.04064 1.18357 0
M  V30 4095 C 381.097 -1.81454 1.00445 0
M  V30 4096 C 381.522 -1.82823 -0.442423 0
M  V30 4097 O 380.88 -1.24555 -1.31741 0
M  V30 4098 C 380.928 -3.24925 1.56384 0
M  V30 4099 O 380.032 -4.04856 0.785209 0
M  V30 4100 H 379.373 -0.560604 0.355835 0
M  V30 4101 H 381.903 -1.31059 1.57114 0
M  V30 4102 H 381.913 -3.75702 1.59097 0
M  V30 4103 H 380.588 -3.23244 2.61699 0
M  V30 4104 H 379.165 -3.63537 0.830399 0
M  V30 4105 N 381.35 -0.985608 -1.22978 0
M  V30 4106 C 382.58 -0.674603 -1.95276 0
M  V30 4107 C 382.988 0.763483 -1.73111 0
M  V30 4108 O 382.331 1.52601 -1.02268 0
M  V30 4109 C 382.393 -0.891597 -3.48268 0
M  V30 4110 C 382.057 -2.31275 -3.94158 0
M  V30 4111 C 383.054 -3.29179 -4.02415 0
M  V30 4112 C 380.739 -2.64524 -4.27004 0
M  V30 4113 C 382.733 -4.58407 -4.42879 0
M  V30 4114 C 380.42 -3.93974 -4.67149 0
M  V30 4115 C 381.418 -4.90727 -4.75053 0
M  V30 4116 O 381.106 -6.17865 -5.14294 0
M  V30 4117 H 380.838 -0.249251 -0.628371 0
M  V30 4118 H 383.392 -1.32106 -1.5728 0
M  V30 4119 H 381.622 -0.187962 -3.86243 0
M  V30 4120 H 383.311 -0.576957 -4.01779 0
M  V30 4121 H 384.077 -3.04823 -3.77237 0
M  V30 4122 H 379.956 -1.89923 -4.2006 0
M  V30 4123 H 383.5 -5.33926 -4.48964 0
M  V30 4124 H 379.397 -4.18122 -4.91777 0
M  V30 4125 H 380.165 -6.21694 -5.32389 0
M  V30 4126 N 382.828 1.3818 -0.7579 0
M  V30 4127 C 384.076 1.99624 -0.315361 0
M  V30 4128 C 384.397 1.60464 1.10799 0
M  V30 4129 O 383.667 0.863507 1.75842 0
M  V30 4130 H 382.247 0.73831 -0.113611 0
M  V30 4131 H 384.909 1.68878 -0.972952 0
M  V30 4132 H 384.005 3.09754 -0.381931 0
M  V30 4133 N 384.306 0.507319 1.49211 0
M  V30 4134 C 385.552 -0.0350047 2.0277 0
M  V30 4135 C 385.885 -1.3606 1.38569 0
M  V30 4136 O 385.16 -1.87321 0.523542 0
M  V30 4137 C 385.443 -0.180916 3.59645 0
M  V30 4138 C 385.296 1.16825 4.34364 0
M  V30 4139 C 386.615 -0.918558 4.30407 0
M  V30 4140 H 383.734 -0.0112473 0.736914 0
M  V30 4141 H 386.376 0.659956 1.7817 0
M  V30 4142 H 384.526 -0.772826 3.80736 0
M  V30 4143 H 386.198 1.79952 4.24753 0
M  V30 4144 H 384.441 1.75594 3.96673 0
M  V30 4145 H 385.112 1.01939 5.42506 0
M  V30 4146 H 387.588 -0.41649 4.1401 0
M  V30 4147 H 386.464 -0.989505 5.39907 0
M  V30 4148 H 386.725 -1.96373 3.96093 0
M  V30 4149 N 385.784 -1.5574 0.241426 0
M  V30 4150 C 386.714 -2.24133 -0.654722 0
M  V30 4151 C 387.695 -1.21974 -1.1856 0
M  V30 4152 O 388.88 -1.50612 -1.22595 0
M  V30 4153 C 386.01 -2.93659 -1.85423 0
M  V30 4154 C 384.964 -4.0246 -1.45636 0
M  V30 4155 C 384.29 -4.59383 -2.73626 0
M  V30 4156 C 385.59 -5.18468 -0.631506 0
M  V30 4157 H 387.284 -2.99281 -0.0844353 0
M  V30 4158 H 384.83 -1.43947 -0.0391707 0
M  V30 4159 H 386.783 -3.40203 -2.48676 0
M  V30 4160 H 385.507 -2.15991 -2.44981 0
M  V30 4161 H 384.166 -3.56676 -0.847202 0
M  V30 4162 H 383.814 -3.78422 -3.3137 0
M  V30 4163 H 383.514 -5.32826 -2.4773 0
M  V30 4164 H 385.038 -5.08658 -3.37786 0
M  V30 4165 H 386.452 -5.61272 -1.1682 0
M  V30 4166 H 384.849 -5.98266 -0.468831 0
M  V30 4167 H 385.919 -4.8358 0.357506 0
M  V30 4168 N 387.262 0.0317525 -1.57568 0
M  V30 4169 C 388.195 1.06621 -2.0176 0
M  V30 4170 C 389.173 1.35323 -0.901462 0
M  V30 4171 O 390.357 1.48025 -1.16708 0
M  V30 4172 C 387.484 2.40155 -2.38837 0
M  V30 4173 C 386.53 2.27327 -3.60867 0
M  V30 4174 S 387.363 1.62925 -5.10113 0
M  V30 4175 C 388.519 2.97955 -5.5043 0
M  V30 4176 H 388.752 0.689781 -2.89187 0
M  V30 4177 H 386.285 0.24164 -1.52497 0
M  V30 4178 H 388.243 3.1695 -2.6087 0
M  V30 4179 H 386.904 2.74946 -1.51867 0
M  V30 4180 H 386.097 3.25898 -3.84456 0
M  V30 4181 H 385.699 1.58675 -3.38671 0
M  V30 4182 H 387.991 3.94285 -5.5095 0
M  V30 4183 H 388.934 2.79102 -6.50775 0
M  V30 4184 H 389.342 3.00404 -4.77931 0
M  V30 4185 N 388.74 1.54641 0.303973 0
M  V30 4186 C 389.987 1.7378 1.03955 0
M  V30 4187 C 390.315 0.521986 1.87365 0
M  V30 4188 O 389.57 -0.496099 1.89308 0
M  V30 4189 C 389.869 2.97753 1.97681 0
M  V30 4190 C 389.535 4.31671 1.30271 0
M  V30 4191 C 388.197 4.68075 1.11619 0
M  V30 4192 C 390.549 5.147 0.82055 0
M  V30 4193 C 387.877 5.8509 0.434304 0
M  V30 4194 C 390.229 6.32416 0.152395 0
M  V30 4195 C 388.893 6.67484 -0.0461067 0
M  V30 4196 H 388.163 0.635908 0.380398 0
M  V30 4197 H 390.81 1.88896 0.314718 0
M  V30 4198 H 389.115 2.77406 2.76682 0
M  V30 4199 H 390.812 3.09756 2.54661 0
M  V30 4200 H 387.402 4.03041 1.45795 0
M  V30 4201 H 391.586 4.87077 0.952374 0
M  V30 4202 H 386.842 6.10806 0.269495 0
M  V30 4203 H 391.016 6.96023 -0.229126 0
M  V30 4204 H 388.643 7.58011 -0.576494 0
M  V30 4205 N 390.218 -0.567019 1.47046 0
M  V30 4206 C 391.128 -1.70247 1.6141 0
M  V30 4207 C 392.144 -1.66746 0.497157 0
M  V30 4208 O 393.32 -1.86371 0.763389 0
M  V30 4209 C 390.385 -3.06756 1.61561 0
M  V30 4210 C 389.446 -3.21399 2.84607 0
M  V30 4211 C 388.679 -4.51396 2.84741 0
M  V30 4212 O 388.902 -5.36255 1.94388 0
M  V30 4213 O 387.836 -4.69621 3.76483 0
M  V30 4214 H 391.662 -1.61073 2.57467 0
M  V30 4215 H 389.247 -0.735894 1.30019 0
M  V30 4216 H 391.129 -3.8801 1.64396 0
M  V30 4217 H 389.804 -3.16333 0.686684 0
M  V30 4218 H 388.711 -2.39579 2.8732 0
M  V30 4219 H 390.044 -3.16721 3.76761 0
M  V30 4220 N 391.696 -1.35014 -0.812953 0
M  V30 4221 C 392.629 -1.21761 -1.93001 0
M  V30 4222 C 393.607 -0.10694 -1.62248 0
M  V30 4223 O 394.791 -0.273891 -1.865 0
M  V30 4224 C 391.918 -0.873404 -3.27245 0
M  V30 4225 C 390.964 -1.99523 -3.76952 0
M  V30 4226 S 391.797 -3.61009 -3.95516 0
M  V30 4227 C 392.953 -3.28651 -5.32672 0
M  V30 4228 H 393.186 -2.16315 -2.03948 0
M  V30 4229 H 390.719 -1.20156 -0.969631 0
M  V30 4230 H 392.677 -0.68161 -4.04802 0
M  V30 4231 H 391.338 0.053971 -3.14054 0
M  V30 4232 H 390.531 -1.70838 -4.74163 0
M  V30 4233 H 390.133 -2.14503 -3.06373 0
M  V30 4234 H 392.425 -2.81085 -6.1644 0
M  V30 4235 H 393.368 -4.25039 -5.66346 0
M  V30 4236 H 393.776 -2.6458 -4.98656 0
M  V30 4237 N 393.175 1.03435 -1.18907 0
M  V30 4238 C 394.105 2.13503 -0.945448 0
M  V30 4239 C 395.086 1.69682 0.119189 0
M  V30 4240 O 396.271 1.94169 -0.034707 0
M  V30 4241 C 393.401 3.44004 -0.477316 0
M  V30 4242 C 392.355 4.0148 -1.48316 0
M  V30 4243 C 391.681 5.27537 -0.872311 0
M  V30 4244 C 392.981 4.36921 -2.86177 0
M  V30 4245 H 394.675 2.34141 -1.86597 0
M  V30 4246 H 392.221 1.12523 -0.898584 0
M  V30 4247 H 394.174 4.20372 -0.294204 0
M  V30 4248 H 392.898 3.23072 0.478786 0
M  V30 4249 H 391.557 3.27201 -1.65332 0
M  V30 4250 H 391.205 5.02917 0.0911752 0
M  V30 4251 H 390.905 5.66954 -1.54393 0
M  V30 4252 H 392.429 6.06576 -0.699871 0
M  V30 4253 H 393.843 5.04248 -2.72776 0
M  V30 4254 H 392.24 4.87405 -3.50081 0
M  V30 4255 H 393.31 3.46466 -3.39248 0
M  V30 4256 N 394.653 0.992116 1.22453 0
M  V30 4257 C 395.881 0.685944 1.95198 0
M  V30 4258 C 396.296 -0.749233 1.73297 0
M  V30 4259 O 395.653 -1.50549 1.03156 0
M  V30 4260 C 395.704 0.981395 3.47924 0
M  V30 4261 O 395.425 2.36018 3.6909 0
M  V30 4262 C 396.926 0.692815 4.37853 0
M  V30 4263 H 394.146 0.253821 0.621141 0
M  V30 4264 H 396.69 1.32668 1.55626 0
M  V30 4265 H 394.845 0.386481 3.85467 0
M  V30 4266 H 395.259 2.45884 4.63294 0
M  V30 4267 H 396.733 0.949818 5.43767 0
M  V30 4268 H 397.21 -0.373181 4.37612 0
M  V30 4269 H 397.816 1.26874 4.05935 0
M  V30 4270 N 396.131 -1.37776 0.765217 0
M  V30 4271 C 397.379 -1.99454 0.325943 0
M  V30 4272 C 397.7 -1.61049 -1.09947 0
M  V30 4273 O 396.97 -0.872821 -1.75381 0
M  V30 4274 H 395.55 -0.737697 0.117525 0
M  V30 4275 H 398.212 -1.68359 0.981895 0
M  V30 4276 H 397.308 -3.09547 0.398353 0
M  V30 4277 N 397.609 -0.515225 -1.4894 0
M  V30 4278 C 398.837 0.0206034 -2.0689 0
M  V30 4279 C 399.252 1.29514 -1.37374 0
M  V30 4280 O 398.609 1.76698 -0.456529 0
M  V30 4281 C 398.66 0.26351 -3.60538 0
M  V30 4282 O 398.381 -0.960517 -4.27441 0
M  V30 4283 C 399.882 0.841383 -4.35242 0
M  V30 4284 H 397.102 -0.0268608 -0.670462 0
M  V30 4285 H 399.646 -0.716651 -1.91532 0
M  V30 4286 H 397.801 0.950777 -3.75552 0
M  V30 4287 H 398.215 -0.73212 -5.19365 0
M  V30 4288 H 399.689 0.96085 -5.43573 0
M  V30 4289 H 400.166 1.8427 -3.98674 0
M  V30 4290 H 400.772 0.191143 -4.2487 0
M  V30 4291 N 399.087 1.5561 -0.249682 0
M  V30 4292 C 400.017 2.24477 0.642826 0
M  V30 4293 C 400.998 1.22601 1.17911 0
M  V30 4294 O 402.183 1.5126 1.21795 0
M  V30 4295 C 399.313 2.94638 1.83863 0
M  V30 4296 C 398.267 4.03227 1.435 0
M  V30 4297 C 397.593 4.60828 2.71186 0
M  V30 4298 C 398.893 5.18796 0.604002 0
M  V30 4299 H 400.587 2.99321 0.0685625 0
M  V30 4300 H 398.133 1.43965 0.0315363 0
M  V30 4301 H 400.086 3.41517 2.46868 0
M  V30 4302 H 398.81 2.17287 2.43832 0
M  V30 4303 H 397.469 3.57121 0.828275 0
M  V30 4304 H 397.117 3.80174 3.29358 0
M  V30 4305 H 396.817 5.34132 2.44901 0
M  V30 4306 H 398.341 5.10442 3.35084 0
M  V30 4307 H 399.755 5.61883 1.13842 0
M  V30 4308 H 398.152 5.98506 0.437097 0
M  V30 4309 H 399.222 4.83384 -0.383147 0
M  V30 4310 N 400.565 -0.0233959 1.57583 0
M  V30 4311 C 401.976 -0.56927 1.77809 0
M  V30 4312 C 402.327 -1.75284 0.881472 0
M  V30 4313 O 401.452 -2.1626 0.0777805 0
M  V30 4314 C 402.047 -1.03949 3.22459 0
M  V30 4315 C 400.606 -1.53084 3.43864 0
M  V30 4316 C 399.753 -0.471454 2.73263 0
M  V30 4317 H 402.704 0.202825 1.57399 0
M  V30 4318 H 402.725 -1.90661 3.29285 0
M  V30 4319 H 402.237 -0.177865 3.87692 0
M  V30 4320 H 400.338 -2.41414 2.83814 0
M  V30 4321 H 400.451 -1.57443 4.52491 0
M  V30 4322 H 398.815 -0.927788 2.37201 0
M  V30 4323 H 399.598 0.380808 3.41181 0
M  V30 4324 N 402.043 -1.548 -0.295768 0
M  V30 4325 C 403.29 -1.74329 -1.03032 0
M  V30 4326 C 403.618 -0.531915 -1.87085 0
M  V30 4327 O 402.873 0.486052 -1.89568 0
M  V30 4328 C 403.172 -2.98797 -1.961 0
M  V30 4329 C 402.838 -4.32356 -1.2798 0
M  V30 4330 C 401.5 -4.68661 -1.09135 0
M  V30 4331 C 403.852 -5.15128 -0.793243 0
M  V30 4332 C 401.18 -5.85312 -0.403269 0
M  V30 4333 C 403.532 -6.32488 -0.118854 0
M  V30 4334 C 402.196 -6.6745 0.0815043 0
M  V30 4335 H 401.466 -0.637916 -0.37702 0
M  V30 4336 H 404.113 -1.8906 -0.304696 0
M  V30 4337 H 402.418 -2.78869 -2.75207 0
M  V30 4338 H 404.115 -3.11102 -2.53015 0
M  V30 4339 H 400.705 -4.03808 -1.43655 0
M  V30 4340 H 404.889 -4.87575 -0.92653 0
M  V30 4341 H 400.145 -6.1094 -0.237098 0
M  V30 4342 H 404.319 -6.95892 0.266035 0
M  V30 4343 H 401.946 -7.57695 0.616685 0
M  V30 4344 N 403.521 0.559213 -1.47345 0
M  V30 4345 C 404.453 1.68161 -1.55738 0
M  V30 4346 C 405.466 1.56636 -0.443744 0
M  V30 4347 O 406.655 1.6363 -0.713258 0
M  V30 4348 C 403.755 3.06611 -1.4437 0
M  V30 4349 C 402.928 3.4391 -2.70268 0
M  V30 4350 C 401.987 4.61515 -2.52765 0
M  V30 4351 O 401.013 4.66197 -3.26572 0
M  V30 4352 N 402.215 5.57883 -1.6046 0
M  V30 4353 H 404.98 1.61408 -2.52522 0
M  V30 4354 H 402.541 0.7458 -1.43699 0
M  V30 4355 H 404.533 3.83117 -1.30398 0
M  V30 4356 H 403.103 3.07602 -0.556766 0
M  V30 4357 H 402.323 2.56873 -2.99015 0
M  V30 4358 H 403.611 3.65605 -3.53851 0
M  V30 4359 H 403.009 5.56855 -0.996422 0
M  V30 4360 H 401.566 6.33723 -1.52441 0
M  V30 4361 N 404.999 1.35443 0.805782 0
M  V30 4362 C 406.247 1.28507 1.55982 0
M  V30 4363 C 406.568 -0.140046 1.94496 0
M  V30 4364 O 405.838 -1.07666 1.63661 0
M  V30 4365 H 404.418 0.472676 0.578434 0
M  V30 4366 H 407.08 1.69555 0.961098 0
M  V30 4367 H 406.176 1.90148 2.47488 0
M  V30 4368 N 406.477 -1.02803 1.19454 0
M  V30 4369 C 407.424 -2.11099 0.933046 0
M  V30 4370 C 408.394 -1.65571 -0.132447 0
M  V30 4371 O 409.579 -1.90797 0.00987576 0
M  V30 4372 C 406.719 -3.41763 0.478747 0
M  V30 4373 C 405.832 -4.00833 1.6111 0
M  V30 4374 C 404.967 -5.19511 1.10825 0
M  V30 4375 C 404.006 -5.70639 2.21445 0
M  V30 4376 N 403.143 -6.80589 1.72461 0
M  V30 4377 H 407.983 -2.32804 1.86028 0
M  V30 4378 H 405.52 -1.14179 0.927441 0
M  V30 4379 H 407.478 -4.16736 0.196745 0
M  V30 4380 H 406.108 -3.20166 -0.411493 0
M  V30 4381 H 405.16 -3.23066 2.00829 0
M  V30 4382 H 406.472 -4.34794 2.4445 0
M  V30 4383 H 405.626 -6.01645 0.781533 0
M  V30 4384 H 404.365 -4.87086 0.244606 0
M  V30 4385 H 403.37 -4.87116 2.54947 0
M  V30 4386 H 404.595 -6.05102 3.08267 0
M  V30 4387 H 402.541 -6.50016 0.884056 0
M  V30 4388 H 402.458 -7.13681 2.49389 0
M  V30 4389 H 403.726 -7.66317 1.42755 0
M  V30 4390 N 407.956 -0.998596 -1.21925 0
M  V30 4391 C 409.233 -0.593401 -1.86382 0
M  V30 4392 C 409.613 0.92916 -1.89552 0
M  V30 4393 O 408.961 1.81347 -1.39017 0
M  V30 4394 C 409.171 -1.22039 -3.26967 0
M  V30 4395 C 410.519 -1.32449 -4.03413 0
M  V30 4396 O 411.543 -1.17522 -3.36254 0
M  V30 4397 O 410.402 -1.56395 -5.23644 0
M  V30 4398 H 407.496 -0.202385 -0.801854 0
M  V30 4399 H 410.042 -1.09484 -1.29659 0
M  V30 4400 H 408.814 -2.26158 -3.19325 0
M  V30 4401 H 408.437 -0.704906 -3.91301 0
M  V30 4402 N 409.434 1.37368 -0.772513 0
M  V30 4403 C 410.85 1.53059 -0.452231 0
M  V30 4404 C 411.05 1.73065 1.03203 0
M  V30 4405 O 410.106 1.75245 1.81784 0
M  V30 4406 C 411.419 2.72659 -1.26797 0
M  V30 4407 C 412.967 2.86521 -1.25995 0
M  V30 4408 C 413.442 4.09105 -2.05905 0
M  V30 4409 N 414.933 4.16219 -2.03263 0
M  V30 4410 C 415.668 5.10107 -2.61875 0
M  V30 4411 N 415.164 6.09547 -3.29278 0
M  V30 4412 N 416.957 5.02596 -2.51701 0
M  V30 4413 H 409.108 1.22634 -1.7342 0
M  V30 4414 H 411.371 0.597206 -0.736239 0
M  V30 4415 H 411.077 2.64343 -2.31982 0
M  V30 4416 H 410.951 3.66363 -0.897672 0
M  V30 4417 H 413.338 2.94308 -0.216081 0
M  V30 4418 H 413.419 1.93774 -1.66989 0
M  V30 4419 H 413.063 4.0208 -3.10313 0
M  V30 4420 H 412.993 5.00968 -1.62292 0
M  V30 4421 H 415.484 3.45012 -1.54192 0
M  V30 4422 H 415.797 6.77718 -3.71374 0
M  V30 4423 H 414.142 6.09824 -3.33377 0
M  V30 4424 H 417.333 4.23855 -1.98657 0
M  V30 4425 H 417.506 5.75582 -2.97673 0
M  V30 4426 N 410.912 0.523116 1.48665 0
M  V30 4427 C 411.86 -0.256859 2.31177 0
M  V30 4428 C 412.854 -0.94199 1.40794 0
M  V30 4429 O 414.06 -0.867157 1.57735 0
M  V30 4430 H 410.435 -0.1017 0.745091 0
M  V30 4431 H 412.406 0.458739 2.94853 0
M  V30 4432 C 411.155 -1.29503 3.22683 0
M  V30 4433 H 410.478 -0.777248 3.92172 0
M  V30 4434 H 411.918 -1.81233 3.83315 0
M  V30 4435 C 410.377 -2.32501 2.43813 0
M  V30 4436 O 410.907 -3.3881 2.15803 0
M  V30 4437 N 409.113 -2.05538 2.05432 0
M  V30 4438 H 408.66 -1.19104 2.28412 0
M  V30 4439 H 408.618 -2.74676 1.52973 0
M  V30 4440 N 412.39 -1.55475 0.257931 0
M  V30 4441 C 413.3 -2.2549 -0.647425 0
M  V30 4442 C 414.316 -1.2748 -1.18427 0
M  V30 4443 O 415.492 -1.6038 -1.2182 0
M  V30 4444 C 412.557 -2.94916 -1.82278 0
M  V30 4445 C 411.618 -4.08363 -1.32432 0
M  V30 4446 C 410.851 -4.74469 -2.44366 0
M  V30 4447 O 411.074 -4.39701 -3.63344 0
M  V30 4448 O 410.008 -5.62763 -2.13497 0
M  V30 4449 H 413.834 -3.03593 -0.0807707 0
M  V30 4450 H 411.419 -1.49377 0.0259962 0
M  V30 4451 H 413.301 -3.38606 -2.50846 0
M  V30 4452 H 411.976 -2.19744 -2.37685 0
M  V30 4453 H 410.883 -3.69166 -0.605605 0
M  V30 4454 H 412.216 -4.85385 -0.816211 0
M  V30 4455 N 413.868 0.0150385 -1.57593 0
M  V30 4456 C 415.096 0.714395 -1.94175 0
M  V30 4457 C 415.511 1.68135 -0.858841 0
M  V30 4458 O 414.868 1.81766 0.163567 0
M  V30 4459 C 414.919 1.45933 -3.30735 0
M  V30 4460 O 414.64 0.531167 -4.34868 0
M  V30 4461 C 416.141 2.25456 -3.81686 0
M  V30 4462 H 413.361 0.199923 -0.640525 0
M  V30 4463 H 415.905 -0.0316096 -2.04476 0
M  V30 4464 H 414.06 2.15709 -3.21789 0
M  V30 4465 H 414.474 1.05509 -5.13778 0
M  V30 4466 H 415.948 2.731 -4.79709 0
M  V30 4467 H 416.425 3.07485 -3.13607 0
M  V30 4468 H 417.031 1.60727 -3.9376 0
M  V30 4469 N 415.346 1.54954 0.287554 0
M  V30 4470 C 416.279 1.81737 1.3801 0
M  V30 4471 C 417.257 0.669412 1.48181 0
M  V30 4472 O 418.441 0.910839 1.65033 0
M  V30 4473 C 415.568 1.96606 2.75796 0
M  V30 4474 C 414.614 3.19098 2.82982 0
M  V30 4475 S 415.447 4.7683 2.43707 0
M  V30 4476 C 416.603 4.94653 3.83496 0
M  V30 4477 H 416.836 2.74122 1.15085 0
M  V30 4478 H 414.369 1.46538 0.486403 0
M  V30 4479 H 416.327 2.05858 3.55152 0
M  V30 4480 H 414.988 1.05136 2.95982 0
M  V30 4481 H 414.181 3.26344 3.84077 0
M  V30 4482 H 413.783 3.08361 2.11635 0
M  V30 4483 H 416.075 4.79502 4.78628 0
M  V30 4484 H 417.018 5.96728 3.8121 0
M  V30 4485 H 417.426 4.2272 3.74123 0
M  V30 4486 N 416.824 -0.551391 1.4764 0
M  V30 4487 C 417.772 -1.67896 1.60978 0
M  V30 4488 C 418.766 -1.62549 0.476877 0
M  V30 4489 O 419.972 -1.67664 0.654878 0
M  V30 4490 H 416.347 -0.555649 0.506713 0
M  V30 4491 H 418.318 -1.53784 2.55721 0
M  V30 4492 C 417.067 -3.06234 1.64669 0
M  V30 4493 H 416.39 -3.11033 2.51194 0
M  V30 4494 H 417.83 -3.84804 1.7805 0
M  V30 4495 C 416.289 -3.34737 0.381115 0
M  V30 4496 O 416.819 -3.98381 -0.515297 0
M  V30 4497 N 415.025 -2.8944 0.259354 0
M  V30 4498 H 414.572 -2.37827 0.98976 0
M  V30 4499 H 414.53 -3.08882 -0.586464 0
M  V30 4500 N 418.302 -1.35869 -0.798587 0
M  V30 4501 C 419.235 -1.23801 -1.91699 0
M  V30 4502 C 420.213 -0.124143 -1.62125 0
M  V30 4503 O 421.397 -0.293656 -1.86199 0
M  V30 4504 C 418.524 -0.908063 -3.263 0
M  V30 4505 C 417.57 -2.0351 -3.74815 0
M  V30 4506 S 418.403 -3.65183 -3.91665 0
M  V30 4507 C 419.559 -3.34283 -5.29156 0
M  V30 4508 H 419.792 -2.18466 -2.01643 0
M  V30 4509 H 417.325 -1.21178 -0.956833 0
M  V30 4510 H 419.283 -0.724506 -4.04056 0
M  V30 4511 H 417.944 0.0206584 -3.14093 0
M  V30 4512 H 417.137 -1.75858 -4.72324 0
M  V30 4513 H 416.739 -2.1774 -3.04081 0
M  V30 4514 H 419.031 -2.87607 -6.13424 0
M  V30 4515 H 419.974 -4.31022 -5.61806 0
M  V30 4516 H 420.382 -2.69854 -4.95822 0
M  V30 4517 N 419.78 1.02168 -1.19998 0
M  V30 4518 C 421.029 1.75091 -1.0013 0
M  V30 4519 C 421.342 1.89923 0.467835 0
M  V30 4520 O 422.548 2.59888 0.785515 0
M  V30 4521 C 421.004 3.14892 -1.74273 0
M  V30 4522 C 420.612 3.0809 -3.25245 0
M  V30 4523 C 422.356 3.9206 -1.62755 0
M  V30 4524 C 420.263 4.42867 -3.91948 0
M  V30 4525 H 419.193 0.656394 -0.37103 0
M  V30 4526 H 421.844 1.14284 -1.43567 0
M  V30 4527 H 420.226 3.7621 -1.2362 0
M  V30 4528 H 421.4 2.5611 -3.83072 0
M  V30 4529 H 419.715 2.44416 -3.3712 0
M  V30 4530 H 422.312 4.91764 -2.09934 0
M  V30 4531 H 422.655 4.12199 -0.582894 0
M  V30 4532 H 423.188 3.37359 -2.10793 0
M  V30 4533 H 419.927 4.27931 -4.96543 0
M  V30 4534 H 419.447 4.94874 -3.3891 0
M  V30 4535 H 421.126 5.11728 -3.95909 0
M  V30 4536 N 421.258 1.00505 1.21394 0
M  V30 4537 C 422.188 0.585684 2.26035 0
M  V30 4538 C 423.169 -0.393525 1.65485 0
M  V30 4539 O 424.354 -0.281497 1.92149 0
M  V30 4540 C 421.484 -0.0884283 3.47187 0
M  V30 4541 C 420.438 0.810567 4.20254 0
M  V30 4542 C 419.764 0.00286382 5.347 0
M  V30 4543 C 421.064 2.1132 4.77641 0
M  V30 4544 H 422.758 1.46039 2.61368 0
M  V30 4545 H 420.304 0.703648 1.25638 0
M  V30 4546 H 422.257 -0.393286 4.19561 0
M  V30 4547 H 420.981 -0.997766 3.10986 0
M  V30 4548 H 419.64 1.09925 3.49731 0
M  V30 4549 H 419.288 -0.907765 4.94741 0
M  V30 4550 H 418.988 0.601444 5.84514 0
M  V30 4551 H 420.512 -0.295808 6.09883 0
M  V30 4552 H 421.926 1.87148 5.41893 0
M  V30 4553 H 420.323 2.66164 5.37845 0
M  V30 4554 H 421.393 2.78393 3.9702 0
M  V30 4555 N 422.737 -1.36956 0.779787 0
M  V30 4556 C 423.684 -2.30175 0.169697 0
M  V30 4557 C 424.654 -1.51501 -0.68094 0
M  V30 4558 O 425.839 -1.80042 -0.631629 0
M  V30 4559 C 422.979 -3.37985 -0.697131 0
M  V30 4560 C 422.092 -4.31661 0.170992 0
M  V30 4561 C 421.227 -5.2655 -0.701298 0
M  V30 4562 C 420.266 -6.11867 0.168869 0
M  V30 4563 N 419.403 -6.98973 -0.661855 0
M  V30 4564 H 424.243 -2.81767 0.970135 0
M  V30 4565 H 421.78 -1.38699 0.489994 0
M  V30 4566 H 423.738 -3.99128 -1.2146 0
M  V30 4567 H 422.368 -2.87739 -1.46309 0
M  V30 4568 H 421.42 -3.71756 0.80634 0
M  V30 4569 H 422.732 -4.91644 0.841875 0
M  V30 4570 H 421.886 -5.92937 -1.28494 0
M  V30 4571 H 420.625 -4.66998 -1.40584 0
M  V30 4572 H 419.63 -5.44452 0.764986 0
M  V30 4573 H 420.855 -6.73493 0.870863 0
M  V30 4574 H 418.801 -6.41941 -1.35086 0
M  V30 4575 H 418.718 -7.55984 -0.0484447 0
M  V30 4576 H 419.986 -7.6974 -1.22963 0
M  V30 4577 N 424.215 -0.530993 -1.48385 0
M  V30 4578 C 425.178 0.220497 -2.28137 0
M  V30 4579 C 426.178 0.866851 -1.35434 0
M  V30 4580 O 427.368 0.726746 -1.58316 0
M  V30 4581 C 424.5 1.31921 -3.1434 0
M  V30 4582 H 425.693 -0.479714 -2.96038 0
M  V30 4583 H 423.246 -0.286968 -1.53643 0
M  V30 4584 H 423.981 2.05264 -2.51072 0
M  V30 4585 H 423.766 0.86085 -3.82533 0
M  V30 4586 H 425.256 1.84776 -3.74497 0
M  V30 4587 N 425.693 1.55336 -0.266172 0
M  V30 4588 C 426.64 2.22172 0.625165 0
M  V30 4589 C 427.61 1.19211 1.15663 0
M  V30 4590 O 428.795 1.47723 1.20758 0
M  V30 4591 C 425.935 2.93972 1.8076 0
M  V30 4592 C 425.048 4.11632 1.31084 0
M  V30 4593 C 424.183 4.71099 2.45436 0
M  V30 4594 C 423.222 5.8097 1.92718 0
M  V30 4595 N 422.359 6.34538 3.00509 0
M  V30 4596 H 427.199 2.9796 0.0485582 0
M  V30 4597 H 424.736 1.47095 0.0122024 0
M  V30 4598 H 426.694 3.33811 2.50251 0
M  V30 4599 H 425.324 2.20623 2.35638 0
M  V30 4600 H 424.376 3.76975 0.509326 0
M  V30 4601 H 425.688 4.90893 0.884633 0
M  V30 4602 H 424.842 5.13612 3.22936 0
M  V30 4603 H 423.581 3.91096 2.91368 0
M  V30 4604 H 422.586 5.37916 1.13695 0
M  V30 4605 H 423.811 6.62836 1.47733 0
M  V30 4606 H 421.757 5.57433 3.45839 0
M  V30 4607 H 421.674 7.09046 2.62279 0
M  V30 4608 H 422.942 6.81709 3.78011 0
M  V30 4609 N 427.171 -0.0066808 1.57599 0
M  V30 4610 C 428.101 -0.999296 2.11036 0
M  V30 4611 C 429.082 -1.36278 1.01795 0
M  V30 4612 O 430.267 -1.4477 1.29442 0
M  V30 4613 C 427.397 -2.29328 2.60818 0
M  V30 4614 C 426.351 -2.07159 3.74525 0
M  V30 4615 C 425.677 -3.42512 4.10596 0
M  V30 4616 C 426.977 -1.43959 5.02069 0
M  V30 4617 H 428.671 -0.554382 2.94223 0
M  V30 4618 H 426.217 -0.265221 1.41536 0
M  V30 4619 H 428.17 -2.99117 2.96828 0
M  V30 4620 H 426.894 -2.7592 1.74745 0
M  V30 4621 H 425.553 -1.39797 3.38899 0
M  V30 4622 H 425.201 -3.86795 3.21556 0
M  V30 4623 H 424.901 -3.28498 4.87199 0
M  V30 4624 H 426.425 -4.13628 4.4916 0
M  V30 4625 H 427.839 -2.03696 5.35893 0
M  V30 4626 H 426.236 -1.40452 5.83432 0
M  V30 4627 H 427.306 -0.407992 4.83181 0
M  V30 4628 N 428.649 -1.55105 -0.279332 0
M  V30 4629 C 429.897 -1.75066 -1.00977 0
M  V30 4630 C 430.218 -0.551276 -1.87045 0
M  V30 4631 O 429.488 0.433984 -1.91032 0
M  V30 4632 H 428.068 -0.645578 -0.375816 0
M  V30 4633 H 430.73 -1.92497 -0.305089 0
M  V30 4634 H 429.826 -2.64894 -1.65038 0
M  V30 4635 N 430.127 0.543554 -1.4793 0
M  V30 4636 C 431.06 1.66556 -1.55995 0
M  V30 4637 C 432.038 1.57315 -0.411205 0
M  V30 4638 O 433.222 1.7798 -0.620922 0
M  V30 4639 C 430.349 3.04883 -1.47527 0
M  V30 4640 C 429.395 3.32526 -2.67074 0
M  V30 4641 S 430.228 3.20282 -4.29162 0
M  V30 4642 C 431.384 4.61079 -4.23269 0
M  V30 4643 H 431.617 1.59462 -2.50917 0
M  V30 4644 H 429.15 0.725456 -1.36296 0
M  V30 4645 H 431.108 3.84665 -1.43328 0
M  V30 4646 H 429.769 3.09429 -0.539665 0
M  V30 4647 H 428.962 4.33403 -2.5725 0
M  V30 4648 H 428.564 2.60389 -2.68466 0
M  V30 4649 H 430.856 5.52318 -3.92365 0
M  V30 4650 H 431.799 4.75959 -5.24279 0
M  V30 4651 H 432.207 4.39766 -3.5393 0
M  V30 4652 N 431.605 1.3629 0.791371 0
M  V30 4653 C 433.016 1.27225 1.36641 0
M  V30 4654 C 433.367 -0.0887968 1.95999 0
M  V30 4655 O 432.492 -0.990207 1.92416 0
M  V30 4656 C 433.087 2.30375 2.48421 0
M  V30 4657 C 431.646 2.25004 3.01746 0
M  V30 4658 C 430.793 2.15259 1.7481 0
M  V30 4659 H 433.744 1.47198 0.593173 0
M  V30 4660 H 433.765 1.93905 3.27385 0
M  V30 4661 H 433.277 3.29422 2.05189 0
M  V30 4662 H 431.378 1.29417 3.49403 0
M  V30 4663 H 431.491 3.1761 3.58693 0
M  V30 4664 H 429.855 1.61482 1.96966 0
M  V30 4665 H 430.638 3.16191 1.33709 0
M  V30 4666 N 433.083 -1.0153 1.20538 0
M  V30 4667 C 434.015 -2.10224 0.913155 0
M  V30 4668 C 435.028 -1.62495 -0.0995998 0
M  V30 4669 O 436.217 -1.78014 0.131582 0
M  V30 4670 C 433.317 -3.37111 0.347717 0
M  V30 4671 C 432.49 -4.13971 1.41233 0
M  V30 4672 C 431.549 -5.19158 0.857976 0
M  V30 4673 O 430.575 -5.48 1.53897 0
M  V30 4674 N 431.777 -5.7955 -0.331966 0
M  V30 4675 H 434.542 -2.35879 1.84881 0
M  V30 4676 H 432.103 -1.17931 1.10923 0
M  V30 4677 H 434.095 -4.04683 -0.0373026 0
M  V30 4678 H 432.665 -3.08696 -0.492527 0
M  V30 4679 H 431.885 -3.41351 1.97163 0
M  V30 4680 H 433.173 -4.62103 2.12928 0
M  V30 4681 H 432.571 -5.58455 -0.902478 0
M  V30 4682 H 431.128 -6.48464 -0.65861 0
M  V30 4683 N 434.561 -1.01147 -1.20859 0
M  V30 4684 C 435.808 -0.697865 -1.90095 0
M  V30 4685 C 436.136 0.772014 -1.78522 0
M  V30 4686 O 435.391 1.57595 -1.16027 0
M  V30 4687 C 435.69 -1.0727 -3.40922 0
M  V30 4688 C 435.356 -2.53792 -3.72693 0
M  V30 4689 C 434.018 -2.93829 -3.81075 0
M  V30 4690 C 436.37 -3.48674 -3.87397 0
M  V30 4691 C 433.698 -4.27696 -4.01613 0
M  V30 4692 C 436.05 -4.82223 -4.09444 0
M  V30 4693 C 434.714 -5.21973 -4.16054 0
M  V30 4694 H 433.984 -0.255367 -0.695607 0
M  V30 4695 H 436.631 -1.27111 -1.43231 0
M  V30 4696 H 434.936 -0.417799 -3.89566 0
M  V30 4697 H 436.633 -0.807818 -3.92779 0
M  V30 4698 H 433.223 -2.21768 -3.66765 0
M  V30 4699 H 437.407 -3.18904 -3.80281 0
M  V30 4700 H 432.663 -4.58055 -4.04964 0
M  V30 4701 H 436.837 -5.55672 -4.19763 0
M  V30 4702 H 434.464 -6.25717 -4.31721 0
M  V30 4703 N 436.039 1.36541 -0.78704 0
M  V30 4704 C 436.969 2.32659 -0.197992 0
M  V30 4705 C 437.95 1.56533 0.665697 0
M  V30 4706 O 439.135 1.84698 0.60001 0
M  V30 4707 C 436.265 3.40778 0.669901 0
M  V30 4708 C 435.219 4.27897 -0.0937039 0
M  V30 4709 C 434.545 5.27163 0.894629 0
M  V30 4710 C 435.845 5.06334 -1.28154 0
M  V30 4711 H 437.539 2.82171 -1.00099 0
M  V30 4712 H 435.085 1.35665 -0.482793 0
M  V30 4713 H 437.038 4.07008 1.09191 0
M  V30 4714 H 435.762 2.89827 1.50558 0
M  V30 4715 H 434.421 3.6322 -0.49666 0
M  V30 4716 H 434.069 4.72486 1.72527 0
M  V30 4717 H 433.769 5.86317 0.388149 0
M  V30 4718 H 435.293 5.96266 1.31525 0
M  V30 4719 H 436.707 5.65617 -0.93541 0
M  V30 4720 H 435.104 5.74888 -1.72115 0
M  V30 4721 H 436.174 4.38114 -2.07807 0
M  V30 4722 N 437.518 0.538854 1.48102 0
M  V30 4723 C 438.743 0.0102694 2.07397 0
M  V30 4724 C 439.168 -1.26562 1.39153 0
M  V30 4725 O 438.526 -1.75357 0.460387 0
M  V30 4726 C 438.574 -0.187602 3.60112 0
M  V30 4727 O 437.678 -1.25432 3.92862 0
M  V30 4728 H 437.019 0.0430975 0.6626 0
M  V30 4729 H 439.549 0.749301 1.90385 0
M  V30 4730 H 439.559 -0.407517 4.0596 0
M  V30 4731 H 438.234 0.744386 4.09184 0
M  V30 4732 H 436.811 -1.01636 3.58782 0
M  V30 4733 N 438.996 -1.55193 0.274407 0
M  V30 4734 C 439.959 -2.212 -0.600279 0
M  V30 4735 C 440.959 -1.18963 -1.08187 0
M  V30 4736 O 442.149 -1.43873 -0.982158 0
M  V30 4737 C 439.281 -2.87739 -1.82809 0
M  V30 4738 H 440.474 -2.9989 -0.0239682 0
M  V30 4739 H 438.027 -1.5628 0.0250192 0
M  V30 4740 H 438.762 -2.13058 -2.44493 0
M  V30 4741 H 438.547 -3.62658 -1.49069 0
M  V30 4742 H 440.037 -3.38171 -2.45011 0
M  V30 4743 N 440.474 -0.00167713 -1.576 0
M  V30 4744 C 441.384 1.00548 -2.1196 0
M  V30 4745 C 442.4 1.3758 -1.06526 0
M  V30 4746 O 443.576 1.46278 -1.38436 0
M  V30 4747 C 440.641 2.27809 -2.6135 0
M  V30 4748 C 439.702 1.97074 -3.81393 0
M  V30 4749 C 438.935 3.18267 -4.28417 0
M  V30 4750 O 439.158 4.30009 -3.74765 0
M  V30 4751 O 438.092 3.02167 -5.20556 0
M  V30 4752 H 441.918 0.573373 -2.98238 0
M  V30 4753 H 439.503 0.217255 -1.47812 0
M  V30 4754 H 441.385 3.02568 -2.93309 0
M  V30 4755 H 440.06 2.70254 -1.78169 0
M  V30 4756 H 438.967 1.19785 -3.54404 0
M  V30 4757 H 440.3 1.59464 -4.65652 0
M  V30 4758 N 441.952 1.55251 0.271103 0
M  V30 4759 C 442.915 1.87484 1.31842 0
M  V30 4760 C 443.915 0.749545 1.42262 0
M  V30 4761 O 445.105 1.01771 1.4138 0
M  V30 4762 C 442.237 2.0818 2.69951 0
M  V30 4763 H 443.43 2.81108 1.0449 0
M  V30 4764 H 440.983 1.47771 0.509258 0
M  V30 4765 H 441.718 1.16944 3.02481 0
M  V30 4766 H 441.503 2.90114 2.63774 0
M  V30 4767 H 442.993 2.34385 3.4562 0
M  V30 4768 N 443.43 -0.535701 1.48216 0
M  V30 4769 C 444.362 -1.65662 1.58394 0
M  V30 4770 C 445.375 -1.5591 0.468607 0
M  V30 4771 O 446.564 -1.62475 0.7392 0
M  V30 4772 C 443.664 -3.04276 1.4923 0
M  V30 4773 C 442.837 -3.39567 2.75705 0
M  V30 4774 C 441.896 -4.57436 2.60075 0
M  V30 4775 O 440.922 -4.60942 3.33948 0
M  V30 4776 N 442.124 -5.55259 1.69315 0
M  V30 4777 H 444.889 -1.5737 2.55058 0
M  V30 4778 H 442.45 -0.722845 1.44867 0
M  V30 4779 H 444.442 -3.80994 1.36477 0
M  V30 4780 H 443.012 -3.06677 0.605632 0
M  V30 4781 H 442.232 -2.52083 3.03064 0
M  V30 4782 H 443.52 -3.59929 3.59623 0
M  V30 4783 H 442.918 -5.552 1.08489 0
M  V30 4784 H 441.475 -6.31218 1.62504 0
M  V30 4785 N 444.908 -1.36708 -0.784132 0
M  V30 4786 C 446.133 -1.34565 -1.5782 0
M  V30 4787 C 446.558 0.0695257 -1.87971 0
M  V30 4788 O 445.916 1.04302 -1.48293 0
M  V30 4789 C 445.964 -2.17952 -2.87279 0
M  V30 4790 O 445.068 -1.57563 -3.81114 0
M  V30 4791 H 444.409 -0.460337 -0.478524 0
M  V30 4792 H 446.939 -1.80064 -0.971495 0
M  V30 4793 H 446.949 -2.30721 -3.365 0
M  V30 4794 H 445.624 -3.20823 -2.64661 0
M  V30 4795 H 444.201 -1.53764 -3.39722 0
M  V30 4796 N 446.386 1.0089 -1.21074 0
M  V30 4797 C 447.316 2.1145 -0.990523 0
M  V30 4798 C 448.297 1.69897 0.0831699 0
M  V30 4799 O 449.482 1.94052 -0.0758853 0
M  V30 4800 C 446.612 3.42914 -0.550177 0
M  V30 4801 C 445.566 3.98244 -1.56799 0
M  V30 4802 C 444.892 5.25568 -0.984013 0
M  V30 4803 C 446.192 4.30752 -2.95381 0
M  V30 4804 H 447.886 2.3013 -1.91521 0
M  V30 4805 H 445.432 1.10592 -0.92225 0
M  V30 4806 H 447.385 4.19653 -0.383305 0
M  V30 4807 H 446.109 3.24014 0.41015 0
M  V30 4808 H 444.768 3.23621 -1.72236 0
M  V30 4809 H 444.416 5.02998 -0.0155216 0
M  V30 4810 H 444.116 5.63551 -1.66384 0
M  V30 4811 H 445.64 6.04955 -0.828378 0
M  V30 4812 H 447.054 4.98349 -2.8341 0
M  V30 4813 H 445.451 4.79869 -3.60341 0
M  V30 4814 H 446.521 3.39192 -3.46521 0
M  V30 4815 N 447.864 1.01787 1.20321 0
M  V30 4816 C 448.794 0.609625 2.25401 0
M  V30 4817 C 449.775 -0.375951 1.65893 0
M  V30 4818 O 450.96 -0.261101 1.92437 0
M  V30 4819 C 448.09 -0.0515995 3.47262 0
M  V30 4820 C 447.044 0.855095 4.19371 0
M  V30 4821 C 446.37 0.0595757 5.34667 0
M  V30 4822 C 447.67 2.16374 4.75373 0
M  V30 4823 H 449.364 1.48803 2.59804 0
M  V30 4824 H 446.91 0.716934 1.24884 0
M  V30 4825 H 448.863 -0.348764 4.19954 0
M  V30 4826 H 447.587 -0.964726 3.12027 0
M  V30 4827 H 446.246 1.13628 3.48546 0
M  V30 4828 H 445.894 -0.85524 4.95676 0
M  V30 4829 H 445.594 0.663406 5.83843 0
M  V30 4830 H 447.118 -0.231105 6.10162 0
M  V30 4831 H 448.532 1.92885 5.39878 0
M  V30 4832 H 446.929 2.71853 5.34991 0
M  V30 4833 H 447.999 2.82589 3.94045 0
M  V30 4834 N 449.342 -1.36122 0.79427 0
M  V30 4835 C 450.758 -1.5232 0.476525 0
M  V30 4836 C 450.958 -1.74685 -1.00436 0
M  V30 4837 O 450.014 -1.78115 -1.78973 0
M  V30 4838 C 451.327 -2.70607 1.31119 0
M  V30 4839 C 452.875 -2.8448 1.30537 0
M  V30 4840 C 453.35 -4.05778 2.12387 0
M  V30 4841 N 454.841 -4.12933 2.09859 0
M  V30 4842 C 455.576 -5.05876 2.69957 0
M  V30 4843 N 455.072 -6.04232 3.38934 0
M  V30 4844 N 456.865 -4.98528 2.59665 0
M  V30 4845 H 449.016 -1.1986 1.75349 0
M  V30 4846 H 451.279 -0.585418 0.745647 0
M  V30 4847 H 450.985 -2.60619 2.36158 0
M  V30 4848 H 450.859 -3.64888 0.955843 0
M  V30 4849 H 453.246 -2.93927 0.262876 0
M  V30 4850 H 453.327 -1.91093 1.70051 0
M  V30 4851 H 452.971 -3.97092 3.1667 0
M  V30 4852 H 452.901 -4.98323 1.70242 0
M  V30 4853 H 455.392 -3.42515 1.59662 0
M  V30 4854 H 455.705 -6.71724 3.82109 0
M  V30 4855 H 454.05 -6.04443 3.43036 0
M  V30 4856 H 457.241 -4.20641 2.05375 0
M  V30 4857 H 457.414 -5.70773 3.06793 0
M  V30 4858 N 450.82 -0.546701 -1.47814 0
M  V30 4859 C 451.753 0.254472 -2.26777 0
M  V30 4860 C 452.731 0.929809 -1.33392 0
M  V30 4861 O 453.915 0.950889 -1.62759 0
M  V30 4862 C 451.042 1.36171 -3.10121 0
M  V30 4863 C 450.088 0.796038 -4.19005 0
M  V30 4864 S 450.921 -0.349191 -5.3436 0
M  V30 4865 C 452.077 0.760122 -6.21267 0
M  V30 4866 H 452.31 -0.415612 -2.94381 0
M  V30 4867 H 449.843 -0.332809 -1.5077 0
M  V30 4868 H 451.801 1.99588 -3.58713 0
M  V30 4869 H 450.462 2.00359 -2.41899 0
M  V30 4870 H 449.655 1.62719 -4.7701 0
M  V30 4871 H 449.257 0.238246 -3.7324 0
M  V30 4872 H 451.549 1.65479 -6.5698 0
M  V30 4873 H 452.492 0.217673 -7.07765 0
M  V30 4874 H 452.9 1.04806 -5.54685 0
M  V30 4875 N 452.299 1.55045 -0.282633 0
M  V30 4876 C 453.229 2.2579 0.595066 0
M  V30 4877 C 454.21 1.25074 1.15284 0
M  V30 4878 O 455.395 1.5381 1.18559 0
M  V30 4879 C 452.525 2.98472 1.77572 0
M  V30 4880 C 451.479 4.0618 1.34914 0
M  V30 4881 C 450.805 4.66477 2.6135 0
M  V30 4882 C 452.105 5.1996 0.493821 0
M  V30 4883 H 453.799 2.994 0.00505653 0
M  V30 4884 H 451.345 1.44 0.000992001 0
M  V30 4885 H 453.298 3.46677 2.39568 0
M  V30 4886 H 452.022 2.2241 2.39168 0
M  V30 4887 H 450.681 3.58797 0.752338 0
M  V30 4888 H 450.329 3.87074 3.2122 0
M  V30 4889 H 450.029 5.39207 2.33516 0
M  V30 4890 H 451.553 5.17435 3.24181 0
M  V30 4891 H 452.967 5.64172 1.01898 0
M  V30 4892 H 451.364 5.99299 0.310047 0
M  V30 4893 H 452.434 4.82462 -0.485593 0
M  V30 4894 N 453.777 0.010035 1.57597 0
M  V30 4895 C 455.024 -0.6727 1.91 0
M  V30 4896 C 455.352 -1.73219 0.884614 0
M  V30 4897 O 454.607 -1.95395 -0.109215 0
M  V30 4898 C 454.906 -1.34434 3.31153 0
M  V30 4899 C 454.572 -0.417083 4.48967 0
M  V30 4900 C 453.234 -0.161809 4.80928 0
M  V30 4901 C 455.586 0.220753 5.20732 0
M  V30 4902 C 452.914 0.739426 5.82022 0
M  V30 4903 C 455.266 1.10993 6.22787 0
M  V30 4904 C 453.93 1.37428 6.532 0
M  V30 4905 H 453.2 -0.246158 0.698918 0
M  V30 4906 H 455.847 0.0677145 1.9138 0
M  V30 4907 H 454.152 -2.15905 3.26944 0
M  V30 4908 H 455.849 -1.87883 3.54261 0
M  V30 4909 H 452.439 -0.626217 4.24001 0
M  V30 4910 H 456.623 0.0365643 4.96287 0
M  V30 4911 H 451.879 0.952139 6.03941 0
M  V30 4912 H 456.053 1.61046 6.77523 0
M  V30 4913 H 453.68 2.0743 7.31353 0
M  V30 4914 N 455.255 -1.55392 -0.262866 0
M  V30 4915 C 456.202 -1.88966 -1.32516 0
M  V30 4916 C 457.172 -0.742187 -1.48596 0
M  V30 4917 O 458.357 -0.99439 -1.62839 0
M  V30 4918 C 455.497 -2.17592 -2.67858 0
M  V30 4919 C 454.61 -3.45061 -2.59917 0
M  V30 4920 C 453.745 -3.63336 -3.87505 0
M  V30 4921 C 452.784 -4.84462 -3.74116 0
M  V30 4922 N 451.921 -4.99342 -4.93561 0
M  V30 4923 H 456.761 -2.79566 -1.03184 0
M  V30 4924 H 454.298 -1.38404 -0.498285 0
M  V30 4925 H 456.256 -2.3219 -3.46617 0
M  V30 4926 H 454.886 -1.30215 -2.95371 0
M  V30 4927 H 453.938 -3.38881 -1.72812 0
M  V30 4928 H 455.25 -4.3396 -2.45926 0
M  V30 4929 H 454.404 -3.77807 -4.74707 0
M  V30 4930 H 453.143 -2.72641 -4.04374 0
M  V30 4931 H 452.148 -4.69985 -2.85297 0
M  V30 4932 H 453.373 -5.76603 -3.58757 0
M  V30 4933 H 451.319 -4.1158 -5.10821 0
M  V30 4934 H 451.236 -5.82303 -4.82141 0
M  V30 4935 H 452.504 -5.18208 -5.82306 0
M  V30 4936 N 456.733 0.527833 -1.48498 0
M  V30 4937 C 458.149 0.856571 -1.34666 0
M  V30 4938 C 458.349 1.98271 -0.35931 0
M  V30 4939 O 457.405 2.51551 0.218703 0
M  V30 4940 C 458.718 1.22207 -2.74747 0
M  V30 4941 C 460.266 1.33183 -2.83251 0
M  V30 4942 C 460.741 1.73075 -4.24039 0
M  V30 4943 N 462.232 1.80174 -4.26722 0
M  V30 4944 C 462.967 2.1243 -5.32598 0
M  V30 4945 N 462.463 2.43096 -6.4875 0
M  V30 4946 N 464.256 2.13454 -5.19994 0
M  V30 4947 H 456.407 -0.215174 -2.11307 0
M  V30 4948 H 458.67 -0.0336281 -0.947403 0
M  V30 4949 H 458.376 0.468195 -3.4857 0
M  V30 4950 H 458.25 2.17173 -3.08409 0
M  V30 4951 H 460.637 2.07647 -2.09683 0
M  V30 4952 H 460.718 0.363333 -2.53206 0
M  V30 4953 H 460.362 0.991712 -4.98124 0
M  V30 4954 H 460.292 2.70979 -4.51529 0
M  V30 4955 H 462.783 1.58744 -3.42942 0
M  V30 4956 H 463.096 2.6682 -7.25277 0
M  V30 4957 H 461.441 2.40611 -6.52021 0
M  V30 4958 H 464.632 1.88956 -4.28268 0
M  V30 4959 H 464.805 2.38261 -6.02608 0
M  V30 4960 N 458.211 1.37122 0.776871 0
M  V30 4961 C 459.159 1.32549 1.91138 0
M  V30 4962 C 460.153 0.215119 1.68029 0
M  V30 4963 O 461.359 0.382852 1.75881 0
M  V30 4964 H 457.734 0.412952 0.62847 0
M  V30 4965 H 459.705 2.28332 1.92112 0
M  V30 4966 C 458.454 1.14422 3.28333 0
M  V30 4967 H 457.777 1.99115 3.46689 0
M  V30 4968 H 459.217 1.15272 4.0803 0
M  V30 4969 C 457.676 -0.150434 3.36564 0
M  V30 4970 O 458.206 -1.13584 3.85307 0
M  V30 4971 N 456.412 -0.19939 2.89915 0
M  V30 4972 H 455.959 0.603142 2.5044 0
M  V30 4973 H 455.917 -1.06526 2.95803 0
M  V30 4974 N 459.689 -1.00246 1.21608 0
M  V30 4975 C 461.1 -1.55511 1.03312 0
M  V30 4976 C 461.451 -1.91946 -0.406332 0
M  V30 4977 O 460.576 -1.73753 -1.28992 0
M  V30 4978 C 461.171 -2.82576 1.86913 0
M  V30 4979 C 459.73 -3.34318 1.72941 0
M  V30 4980 C 458.877 -2.07487 1.83968 0
M  V30 4981 H 461.828 -0.824638 1.35593 0
M  V30 4982 H 461.849 -3.54559 1.38087 0
M  V30 4983 H 461.361 -2.56026 2.91672 0
M  V30 4984 H 459.462 -3.65797 0.70877 0
M  V30 4985 H 459.575 -4.05566 2.55055 0
M  V30 4986 H 457.939 -2.20603 1.27304 0
M  V30 4987 H 458.722 -1.83346 2.9024 0
M  V30 4988 N 461.167 -1.02423 -1.1978 0
M  V30 4989 C 462.13 -0.605703 -2.21052 0
M  V30 4990 C 463.13 0.328209 -1.57415 0
M  V30 4991 O 464.32 0.115853 -1.73814 0
M  V30 4992 C 461.452 0.114366 -3.40708 0
M  V30 4993 H 462.645 -1.5017 -2.59594 0
M  V30 4994 H 460.198 -0.814888 -1.33376 0
M  V30 4995 H 460.933 1.02492 -3.07678 0
M  V30 4996 H 460.718 -0.556641 -3.88129 0
M  V30 4997 H 462.208 0.394272 -4.15735 0
M  V30 4998 N 462.645 1.35699 -0.801477 0
M  V30 4999 C 463.593 2.3177 -0.196317 0
M  V30 5000 C 464.587 1.56388 0.651081 0
M  V30 5001 O 465.793 1.71557 0.544815 0
M  V30 5002 H 462.168 0.750669 -0.0447189 0
M  V30 5003 H 464.139 2.8036 -1.02181 0
M  V30 5004 C 462.888 3.41671 0.644702 0
M  V30 5005 H 462.211 3.998 0.0019921 0
M  V30 5006 H 463.651 4.11184 1.0346 0
M  V30 5007 C 462.11 2.84271 1.80808 0
M  V30 5008 O 462.64 2.77408 2.9053 0
M  V30 5009 N 460.846 2.41391 1.61799 0
M  V30 5010 H 460.393 2.47173 0.725493 0
M  V30 5011 H 460.351 2.03334 2.39797 0
M  V30 5012 N 464.123 0.554532 1.47522 0
M  V30 5013 C 465.539 0.214107 1.58157 0
M  V30 5014 C 465.739 -1.28331 1.55349 0
M  V30 5015 O 464.795 -2.06329 1.45549 0
M  V30 5016 C 466.108 0.838391 2.88776 0
M  V30 5017 C 467.656 0.809374 3.02354 0
M  V30 5018 C 468.131 1.41268 4.35669 0
M  V30 5019 N 469.622 1.37574 4.42298 0
M  V30 5020 C 470.357 1.8122 5.4401 0
M  V30 5021 N 469.853 2.3271 6.52547 0
M  V30 5022 N 471.646 1.72307 5.35039 0
M  V30 5023 H 463.797 1.52744 1.4759 0
M  V30 5024 H 466.06 0.636812 0.702264 0
M  V30 5025 H 465.766 1.89065 2.96559 0
M  V30 5026 H 465.64 0.329847 3.75755 0
M  V30 5027 H 468.027 -0.234187 2.94169 0
M  V30 5028 H 468.108 1.35565 2.16924 0
M  V30 5029 H 467.752 2.45529 4.4461 0
M  V30 5030 H 467.682 0.841871 5.19827 0
M  V30 5031 H 470.173 0.999081 3.64454 0
M  V30 5032 H 470.486 2.63944 7.26329 0
M  V30 5033 H 468.831 2.36719 6.53444 0
M  V30 5034 H 472.022 1.3186 4.49144 0
M  V30 5035 H 472.195 2.06641 6.14169 0
M  V30 5036 N 465.601 -1.54893 0.290851 0
M  V30 5037 C 466.531 -2.26103 -0.583084 0
M  V30 5038 C 467.512 -1.25684 -1.14619 0
M  V30 5039 O 468.697 -1.54436 -1.17741 0
M  V30 5040 C 465.827 -2.99409 -1.75987 0
M  V30 5041 C 464.781 -4.0689 -1.32758 0
M  V30 5042 C 464.107 -4.67856 -2.58872 0
M  V30 5043 C 465.407 -5.20215 -0.46624 0
M  V30 5044 H 467.101 -2.99398 0.0108214 0
M  V30 5045 H 464.647 -1.43998 0.00664468 0
M  V30 5046 H 466.6 -3.47943 -2.37727 0
M  V30 5047 H 465.324 -2.23675 -2.37985 0
M  V30 5048 H 463.983 -3.59191 -0.733299 0
M  V30 5049 H 463.631 -3.88772 -3.19163 0
M  V30 5050 H 463.331 -5.40438 -2.30653 0
M  V30 5051 H 464.855 -5.19147 -3.21433 0
M  V30 5052 H 466.269 -5.64704 -0.989047 0
M  V30 5053 H 464.666 -5.99455 -0.27826 0
M  V30 5054 H 465.736 -4.82198 0.511173 0
M  V30 5055 N 467.08 -0.0183926 -1.57589 0
M  V30 5056 C 468.328 0.661253 -1.90976 0
M  V30 5057 C 468.649 1.73281 -0.894353 0
M  V30 5058 O 467.919 1.9579 0.0656788 0
M  V30 5059 H 466.499 0.247233 -0.704901 0
M  V30 5060 H 469.161 -0.0636639 -1.94796 0
M  V30 5061 H 468.257 1.12083 -2.9128 0
M  V30 5062 N 468.558 1.5553 0.254621 0
M  V30 5063 C 469.783 1.81383 1.00573 0
M  V30 5064 C 470.208 0.594419 1.78461 0
M  V30 5065 O 469.566 -0.456403 1.75461 0
M  V30 5066 C 469.614 3.04892 1.92545 0
M  V30 5067 O 468.718 2.81266 3.01601 0
M  V30 5068 H 468.059 0.598969 0.286587 0
M  V30 5069 H 470.589 2.02703 0.277952 0
M  V30 5070 H 470.599 3.34119 2.34155 0
M  V30 5071 H 469.274 3.93287 1.3527 0
M  V30 5072 H 467.851 2.63185 2.64174 0
M  V30 5073 N 470.036 -0.519951 1.48776 0
M  V30 5074 C 470.946 -1.65025 1.66745 0
M  V30 5075 C 471.962 -1.6508 0.549954 0
M  V30 5076 O 473.138 -1.83848 0.822295 0
M  V30 5077 C 470.203 -3.0146 1.71238 0
M  V30 5078 C 469.264 -3.12182 2.94688 0
M  V30 5079 C 468.497 -4.42109 2.98958 0
M  V30 5080 O 468.72 -5.29799 2.1135 0
M  V30 5081 O 467.654 -4.57406 3.91233 0
M  V30 5082 H 471.48 -1.52801 2.62461 0
M  V30 5083 H 469.065 -0.694157 1.32294 0
M  V30 5084 H 470.947 -3.82584 1.76657 0
M  V30 5085 H 469.622 -3.13988 0.786975 0
M  V30 5086 H 468.529 -2.30316 2.94797 0
M  V30 5087 H 469.862 -3.04574 3.86646 0
M  V30 5088 N 471.514 -1.37532 -0.769588 0
M  V30 5089 C 472.762 -1.32597 -1.5252 0
M  V30 5090 C 473.083 0.0884294 -1.94799 0
M  V30 5091 O 472.353 1.03289 -1.66458 0
M  V30 5092 H 470.933 -0.487846 -0.565699 0
M  V30 5093 H 473.595 -1.72044 -0.915806 0
M  V30 5094 H 472.691 -1.96643 -2.42359 0
M  V30 5095 N 472.992 0.995999 -1.22138 0
M  V30 5096 C 474.238 1.73767 -1.04561 0
M  V30 5097 C 474.571 1.89633 0.418698 0
M  V30 5098 O 473.846 1.43723 1.3105 0
M  V30 5099 C 474.129 3.14505 -1.75382 0
M  V30 5100 C 473.982 3.06306 -3.29388 0
M  V30 5101 C 475.301 4.13615 -1.50369 0
M  V30 5102 H 472.42 0.630728 -0.38125 0
M  V30 5103 H 475.062 1.16057 -1.50435 0
M  V30 5104 H 473.212 3.63775 -1.36383 0
M  V30 5105 H 474.884 2.64681 -3.77812 0
M  V30 5106 H 473.127 2.43186 -3.59226 0
M  V30 5107 H 473.798 4.05884 -3.74116 0
M  V30 5108 H 476.274 3.73089 -1.84239 0
M  V30 5109 H 475.15 5.10212 -2.02421 0
M  V30 5110 H 475.411 4.39949 -0.435611 0
M  V30 5111 N 474.47 1.03057 1.19235 0
M  V30 5112 C 475.38 0.622922 2.26179 0
M  V30 5113 C 476.396 -0.346113 1.70523 0
M  V30 5114 O 477.572 -0.203572 2.00369 0
M  V30 5115 C 474.637 -0.0182063 3.46695 0
M  V30 5116 C 473.698 0.998546 4.17526 0
M  V30 5117 C 472.931 0.387917 5.32288 0
M  V30 5118 O 473.154 -0.808668 5.64639 0
M  V30 5119 O 472.088 1.1116 5.91546 0
M  V30 5120 H 475.914 1.51363 2.63292 0
M  V30 5121 H 473.499 0.800856 1.26122 0
M  V30 5122 H 475.381 -0.375606 4.19723 0
M  V30 5123 H 474.056 -0.882895 3.11427 0
M  V30 5124 H 472.963 1.40756 3.4661 0
M  V30 5125 H 474.296 1.83366 4.56769 0
M  V30 5126 N 475.948 -1.35272 0.808662 0
M  V30 5127 C 476.858 -2.33546 0.222079 0
M  V30 5128 C 477.874 -1.6196 -0.636011 0
M  V30 5129 O 479.05 -1.93822 -0.547274 0
M  V30 5130 C 476.115 -3.41148 -0.61795 0
M  V30 5131 C 475.176 -4.28507 0.260875 0
M  V30 5132 C 474.409 -5.3097 -0.539156 0
M  V30 5133 O 474.632 -5.42123 -1.77367 0
M  V30 5134 O 473.566 -6.01858 0.0710526 0
M  V30 5135 H 477.392 -2.85515 1.03512 0
M  V30 5136 H 474.977 -1.38079 0.570495 0
M  V30 5137 H 476.859 -4.06889 -1.09634 0
M  V30 5138 H 475.534 -2.91447 -1.40855 0
M  V30 5139 H 474.441 -3.6574 0.786451 0
M  V30 5140 H 475.774 -4.81611 1.01547 0
M  V30 5141 N 477.426 -0.562348 -1.47226 0
M  V30 5142 C 478.675 -0.038041 -2.01664 0
M  V30 5143 C 478.988 1.32199 -1.44162 0
M  V30 5144 O 480.194 1.9365 -1.90294 0
M  V30 5145 C 478.65 -0.0174958 -3.59896 0
M  V30 5146 C 478.258 -1.3746 -4.2639 0
M  V30 5147 C 480.002 0.453934 -4.22066 0
M  V30 5148 C 477.909 -1.31289 -5.76643 0
M  V30 5149 H 476.839 -0.0104511 -0.753928 0
M  V30 5150 H 479.49 -0.710966 -1.69167 0
M  V30 5151 H 477.872 0.721182 -3.89378 0
M  V30 5152 H 479.046 -2.1314 -4.08544 0
M  V30 5153 H 477.361 -1.78438 -3.7623 0
M  V30 5154 H 479.958 0.518584 -5.32179 0
M  V30 5155 H 480.301 1.46706 -3.89594 0
M  V30 5156 H 480.834 -0.230044 -3.97134 0
M  V30 5157 H 477.573 -2.30217 -6.13743 0
M  V30 5158 H 477.093 -0.597973 -5.96812 0
M  V30 5159 H 478.772 -1.01713 -6.38955 0
M  V30 5160 N 478.904 1.54736 -0.299062 0
M  V30 5161 C 479.851 2.23448 0.577899 0
M  V30 5162 C 480.821 1.21637 1.13109 0
M  V30 5163 O 482.006 1.50252 1.17597 0
M  V30 5164 C 479.146 2.9774 1.74484 0
M  V30 5165 C 478.259 4.1432 1.22323 0
M  V30 5166 C 477.394 4.76199 2.35388 0
M  V30 5167 C 476.433 5.84927 1.80351 0
M  V30 5168 N 475.57 6.4077 2.86982 0
M  V30 5169 H 480.41 2.97996 -0.0146545 0
M  V30 5170 H 477.947 1.47088 -0.0190013 0
M  V30 5171 H 479.905 3.39045 2.43114 0
M  V30 5172 H 478.535 2.25572 2.30905 0
M  V30 5173 H 477.587 3.7797 0.429249 0
M  V30 5174 H 478.899 4.92659 0.780309 0
M  V30 5175 H 478.053 5.20346 3.11969 0
M  V30 5176 H 476.792 3.97188 2.83006 0
M  V30 5177 H 475.797 5.40207 1.02259 0
M  V30 5178 H 477.022 6.65821 1.3364 0
M  V30 5179 H 474.968 5.64643 3.33938 0
M  V30 5180 H 474.885 7.1445 2.4718 0
M  V30 5181 H 476.153 6.89574 3.63466 0
M  V30 5182 N 480.382 0.0267497 1.57577 0
M  V30 5183 C 481.798 -0.32962 1.56159 0
M  V30 5184 C 481.998 -1.73059 1.03213 0
M  V30 5185 O 481.054 -2.43233 0.677804 0
M  V30 5186 C 482.367 -0.18039 3.00158 0
M  V30 5187 C 483.915 -0.253334 3.11973 0
M  V30 5188 C 484.39 -0.132921 4.57807 0
M  V30 5189 N 485.881 -0.189979 4.6281 0
M  V30 5190 C 486.616 -0.120554 5.73273 0
M  V30 5191 N 486.112 -0.000180315 6.928 0
M  V30 5192 N 487.905 -0.174369 5.61829 0
M  V30 5193 H 480.056 0.942896 1.90324 0
M  V30 5194 H 482.319 0.3639 0.875375 0
M  V30 5195 H 482.025 0.784576 3.42837 0
M  V30 5196 H 481.899 -0.951565 3.65 0
M  V30 5197 H 484.286 -1.20876 2.69208 0
M  V30 5198 H 484.367 0.548177 2.49857 0
M  V30 5199 H 484.011 0.819073 5.01252 0
M  V30 5200 H 483.941 -0.953264 5.179 0
M  V30 5201 H 486.432 -0.283257 3.76837 0
M  V30 5202 H 486.745 0.0461666 7.72786 0
M  V30 5203 H 485.09 0.034569 6.94991 0
M  V30 5204 H 488.281 -0.266794 4.67339 0
M  V30 5205 H 488.454 -0.116802 6.47895 0
M  V30 5206 N 481.861 -1.55662 -0.24637 0
M  V30 5207 C 482.811 -1.86753 -1.30795 0
M  V30 5208 C 483.795 -0.728445 -1.43466 0
M  V30 5209 O 484.987 -0.99038 -1.46699 0
M  V30 5210 C 482.116 -2.16618 -2.66329 0
M  V30 5211 C 481.202 -3.36855 -2.57661 0
M  V30 5212 N 481.593 -4.56111 -2.18624 0
M  V30 5213 C 479.891 -3.39976 -2.88673 0
M  V30 5214 C 480.592 -5.38247 -2.20601 0
M  V30 5215 N 479.568 -4.77322 -2.60124 0
M  V30 5216 H 483.37 -2.76486 -0.996642 0
M  V30 5217 H 480.884 -1.55896 -0.454994 0
M  V30 5218 H 482.881 -2.37057 -3.42942 0
M  V30 5219 H 481.541 -1.28185 -2.98327 0
M  V30 5220 H 482.552 -4.81726 -1.9016 0
M  V30 5221 H 479.229 -2.61815 -3.25206 0
M  V30 5222 H 480.619 -6.43657 -1.92756 0
M  V30 5223 N 483.339 0.512053 -1.4905 0
M  V30 5224 C 484.269 1.62365 -1.67809 0
M  V30 5225 C 485.25 1.61737 -0.526809 0
M  V30 5226 O 486.435 1.78651 -0.761404 0
M  V30 5227 C 483.565 3.00895 -1.73435 0
M  V30 5228 C 482.519 3.16387 -2.88242 0
M  V30 5229 C 481.845 4.56157 -2.78971 0
M  V30 5230 C 483.145 2.97457 -4.29321 0
M  V30 5231 H 484.839 1.46921 -2.60873 0
M  V30 5232 H 482.385 0.705379 -1.2554 0
M  V30 5233 H 484.338 3.78549 -1.85145 0
M  V30 5234 H 483.062 3.17403 -0.769619 0
M  V30 5235 H 481.721 2.41155 -2.76116 0
M  V30 5236 H 481.369 4.69525 -1.8043 0
M  V30 5237 H 481.069 4.67465 -3.5602 0
M  V30 5238 H 482.593 5.35886 -2.92675 0
M  V30 5239 H 484.007 3.64888 -4.42187 0
M  V30 5240 H 482.404 3.20245 -5.07507 0
M  V30 5241 H 483.474 1.93692 -4.44535 0
M  V30 5242 N 484.817 1.37938 0.762283 0
M  V30 5243 C 486.064 1.33668 1.52115 0
M  V30 5244 C 486.392 -0.0759538 1.94352 0
M  V30 5245 O 485.647 -1.05121 1.6507 0
M  V30 5246 C 485.946 2.23042 2.79261 0
M  V30 5247 C 485.612 3.71159 2.56031 0
M  V30 5248 C 484.274 4.11523 2.49404 0
M  V30 5249 C 486.626 4.64955 2.35513 0
M  V30 5250 C 483.954 5.43784 2.20263 0
M  V30 5251 C 486.306 5.97464 2.07894 0
M  V30 5252 C 484.97 6.36922 1.99718 0
M  V30 5253 H 484.24 0.489127 0.556629 0
M  V30 5254 H 486.887 1.70224 0.877262 0
M  V30 5255 H 485.192 1.79512 3.48256 0
M  V30 5256 H 486.889 2.17047 3.37182 0
M  V30 5257 H 483.479 3.39153 2.62056 0
M  V30 5258 H 487.663 4.34623 2.39617 0
M  V30 5259 H 482.919 5.73307 2.12435 0
M  V30 5260 H 487.093 6.6969 1.91019 0
M  V30 5261 H 484.72 7.39331 1.76902 0
M  V30 5262 N 486.295 -0.989507 1.22664 0
M  V30 5263 C 487.542 -1.72953 1.05325 0
M  V30 5264 C 487.87 -1.90104 -0.411168 0
M  V30 5265 O 487.125 -1.44386 -1.32103 0
M  V30 5266 C 487.424 -3.13649 1.71345 0
M  V30 5267 C 487.09 -3.16403 3.21248 0
M  V30 5268 C 485.752 -3.16862 3.62149 0
M  V30 5269 C 488.104 -3.12428 4.17179 0
M  V30 5270 C 485.432 -3.11051 4.97458 0
M  V30 5271 C 487.784 -3.08159 5.52468 0
M  V30 5272 C 486.448 -3.06935 5.92746 0
M  V30 5273 H 485.718 -0.632881 0.385412 0
M  V30 5274 H 488.365 -1.15863 1.52473 0
M  V30 5275 H 486.67 -3.74069 1.16532 0
M  V30 5276 H 488.367 -3.69658 1.55416 0
M  V30 5277 H 484.957 -3.16798 2.88682 0
M  V30 5278 H 489.141 -3.11221 3.86595 0
M  V30 5279 H 484.397 -3.0845 5.27891 0
M  V30 5280 H 488.571 -3.04039 6.26525 0
M  V30 5281 H 486.198 -3.02186 6.97558 0
M  V30 5282 N 487.773 -1.03688 -1.18687 0
M  V30 5283 C 488.736 -0.629115 -2.20397 0
M  V30 5284 C 489.736 0.311495 -1.57754 0
M  V30 5285 O 490.926 0.0974107 -1.73927 0
M  V30 5286 C 488.058 0.0782231 -3.4081 0
M  V30 5287 H 489.251 -1.52915 -2.57987 0
M  V30 5288 H 486.804 -0.828988 -1.32505 0
M  V30 5289 H 487.539 0.992233 -3.08748 0
M  V30 5290 H 487.324 -0.597776 -3.87517 0
M  V30 5291 H 488.814 0.350156 -4.16129 0
M  V30 5292 N 489.251 1.34841 -0.815825 0
M  V30 5293 C 490.199 2.31549 -0.220888 0
M  V30 5294 C 491.193 1.5707 0.634457 0
M  V30 5295 O 492.399 1.72125 0.526589 0
M  V30 5296 H 488.774 0.750153 -0.0526782 0
M  V30 5297 H 490.745 2.7926 -1.05149 0
M  V30 5298 C 489.494 3.42335 0.608427 0
M  V30 5299 H 488.817 3.9978 -0.0404121 0
M  V30 5300 H 490.257 4.12258 0.990931 0
M  V30 5301 C 488.716 2.86173 1.77782 0
M  V30 5302 O 489.246 2.80474 2.87571 0
M  V30 5303 N 487.452 2.43093 1.59229 0
M  V30 5304 H 486.999 2.47928 0.699237 0
M  V30 5305 H 486.957 2.05866 2.37627 0
M  V30 5306 N 490.729 0.570148 1.46925 0
M  V30 5307 C 491.978 0.0487352 2.01641 0
M  V30 5308 C 492.291 -1.31433 1.44861 0
M  V30 5309 O 493.497 -1.92638 1.91318 0
M  V30 5310 C 491.953 0.0365817 3.59881 0
M  V30 5311 C 491.561 1.39719 4.25655 0
M  V30 5312 C 493.305 -0.431545 4.22301 0
M  V30 5313 C 491.212 1.34345 5.75939 0
M  V30 5314 H 490.142 0.0144492 0.753862 0
M  V30 5315 H 492.793 0.719928 1.68788 0
M  V30 5316 H 491.175 -0.700522 3.89755 0
M  V30 5317 H 492.349 2.15303 4.07408 0
M  V30 5318 H 490.664 1.80431 3.75278 0
M  V30 5319 H 493.261 -0.490354 5.32447 0
M  V30 5320 H 493.604 -1.44638 3.90366 0
M  V30 5321 H 494.137 0.251102 3.97007 0
M  V30 5322 H 490.876 2.33469 6.12513 0
M  V30 5323 H 490.396 0.629615 5.96486 0
M  V30 5324 H 492.075 1.051 6.38407 0
M  V30 5325 N 492.207 -1.54576 0.307264 0
M  V30 5326 C 493.484 -1.92377 -0.353605 0
M  V30 5327 C 493.864 -1.23517 -1.71192 0
M  V30 5328 O 493.212 -0.373101 -2.25433 0
M  V30 5329 C 493.422 -3.45928 -0.462039 0
M  V30 5330 C 494.77 -4.18278 -0.729975 0
M  V30 5331 O 495.794 -3.51997 -0.545605 0
M  V30 5332 O 494.653 -5.3563 -1.08454 0
M  V30 5333 H 491.747 -0.802747 -0.198812 0
M  V30 5334 H 494.293 -1.65929 0.355783 0
M  V30 5335 H 493.065 -3.88187 0.492592 0
M  V30 5336 H 492.688 -3.78431 -1.21965 0
M  V30 5337 N 493.685 -0.035106 -1.57561 0
M  V30 5338 C 494.931 0.637362 -1.93156 0
M  V30 5339 C 495.286 1.69391 -0.912392 0
M  V30 5340 O 494.579 1.91469 0.070735 0
M  V30 5341 C 494.773 1.29149 -3.3325 0
M  V30 5342 C 494.602 0.29983 -4.48699 0
M  V30 5343 C 493.372 -0.102454 -5.05196 0
M  V30 5344 C 495.57 -0.448297 -5.12342 0
M  V30 5345 N 493.552 -1.08866 -6.0417 0
M  V30 5346 C 494.923 -1.28807 -6.06472 0
M  V30 5347 C 496.978 -0.508351 -4.95298 0
M  V30 5348 C 495.681 -2.18248 -6.85391 0
M  V30 5349 C 497.707 -1.39013 -5.7483 0
M  V30 5350 C 497.069 -2.21766 -6.6858 0
M  V30 5351 H 493.168 0.205358 -0.754554 0
M  V30 5352 H 495.752 -0.103682 -1.94424 0
M  V30 5353 H 493.923 2.00264 -3.3279 0
M  V30 5354 H 495.655 1.92147 -3.56177 0
M  V30 5355 H 492.41 0.273223 -4.72811 0
M  V30 5356 H 492.834 -1.57817 -6.58348 0
M  V30 5357 H 497.476 0.117197 -4.22638 0
M  V30 5358 H 495.194 -2.81855 -7.57353 0
M  V30 5359 H 498.78 -1.44096 -5.63673 0
M  V30 5360 H 497.66 -2.88892 -7.29048 0
M  V30 5361 N 495.163 1.55791 0.238111 0
M  V30 5362 C 496.44 1.68798 0.98826 0
M  V30 5363 C 496.82 0.577562 2.03045 0
M  V30 5364 O 496.168 -0.41778 2.24648 0
M  V30 5365 C 496.378 3.09454 1.61367 0
M  V30 5366 C 497.726 3.68335 2.11221 0
M  V30 5367 O 498.75 3.1231 1.71292 0
M  V30 5368 O 497.609 4.6657 2.84561 0
M  V30 5369 H 494.703 0.686881 0.460568 0
M  V30 5370 H 497.249 1.68118 0.231202 0
M  V30 5371 H 496.021 3.81726 0.860295 0
M  V30 5372 H 495.644 3.14182 2.4367 0
M  V30 5373 N 496.642 -0.504142 1.49319 0
M  V30 5374 C 497.589 -1.60603 1.65756 0
M  V30 5375 C 498.559 -1.58425 0.499082 0
M  V30 5376 O 499.744 -1.76459 0.725728 0
M  V30 5377 C 496.884 -2.98764 1.72726 0
M  V30 5378 C 495.997 -3.10982 2.99857 0
M  V30 5379 C 495.132 -4.39857 2.97824 0
M  V30 5380 C 494.171 -4.45697 4.19548 0
M  V30 5381 N 493.308 -5.65995 4.15444 0
M  V30 5382 H 498.148 -1.45895 2.59843 0
M  V30 5383 H 495.685 -0.709891 1.28837 0
M  V30 5384 H 497.643 -3.78839 1.74747 0
M  V30 5385 H 496.273 -3.12183 0.821075 0
M  V30 5386 H 495.325 -2.23991 3.07461 0
M  V30 5387 H 496.637 -3.11157 3.89849 0
M  V30 5388 H 495.791 -5.2825 2.98391 0
M  V30 5389 H 494.53 -4.42242 2.05604 0
M  V30 5390 H 493.535 -3.55707 4.19229 0
M  V30 5391 H 494.76 -4.4503 5.12957 0
M  V30 5392 H 492.706 -5.69229 3.26059 0
M  V30 5393 H 492.623 -5.67773 4.99169 0
M  V30 5394 H 493.891 -6.56604 4.20109 0
M  V30 5395 N 498.12 -1.38341 -0.754957 0
M  V30 5396 C 499.05 -1.38176 -1.88227 0
M  V30 5397 C 500.031 -0.247873 -1.68284 0
M  V30 5398 O 501.216 -0.45075 -1.88896 0
M  V30 5399 C 498.346 -1.20471 -3.25736 0
M  V30 5400 C 497.3 -2.3105 -3.60278 0
M  V30 5401 C 496.626 -1.98452 -4.96509 0
M  V30 5402 C 497.926 -3.73305 -3.65295 0
M  V30 5403 H 499.62 -2.32512 -1.88622 0
M  V30 5404 H 497.166 -1.1192 -0.906082 0
M  V30 5405 H 499.119 -1.18982 -4.04254 0
M  V30 5406 H 497.843 -0.225965 -3.25817 0
M  V30 5407 H 496.502 -2.31723 -2.84078 0
M  V30 5408 H 496.15 -0.990641 -4.93148 0
M  V30 5409 H 495.85 -2.7251 -5.20588 0
M  V30 5410 H 497.374 -1.98578 -5.77407 0
M  V30 5411 H 498.788 -3.7467 -4.3393 0
M  V30 5412 H 497.185 -4.46557 -4.00883 0
M  V30 5413 H 498.255 -4.05719 -2.65556 0
M  V30 5414 N 499.598 0.982988 -1.23187 0
M  V30 5415 C 500.828 1.75666 -1.08743 0
M  V30 5416 C 501.236 1.85662 0.364195 0
M  V30 5417 O 500.579 1.33317 1.26382 0
M  V30 5418 C 500.641 3.20144 -1.63549 0
M  V30 5419 C 500.305 3.33665 -3.12277 0
M  V30 5420 C 501.302 3.20194 -4.096 0
M  V30 5421 C 498.987 3.58397 -3.51933 0
M  V30 5422 C 500.981 3.31256 -5.44563 0
M  V30 5423 C 498.668 3.69098 -4.87042 0
M  V30 5424 C 499.666 3.55537 -5.83166 0
M  V30 5425 O 499.354 3.65864 -7.1582 0
M  V30 5426 H 499.086 0.558194 -0.381307 0
M  V30 5427 H 501.64 1.24387 -1.63454 0
M  V30 5428 H 499.87 3.72659 -1.03256 0
M  V30 5429 H 501.559 3.79262 -1.4462 0
M  V30 5430 H 502.325 3.00987 -3.80305 0
M  V30 5431 H 498.204 3.68025 -2.77631 0
M  V30 5432 H 501.748 3.20588 -6.19572 0
M  V30 5433 H 497.645 3.87814 -5.16014 0
M  V30 5434 H 498.413 3.82675 -7.23534 0
M  V30 5435 N 501.076 1.04316 1.18135 0
M  V30 5436 C 502.023 0.636398 2.21853 0
M  V30 5437 C 502.993 -0.357039 1.62217 0
M  V30 5438 O 504.178 -0.250453 1.89149 0
M  V30 5439 C 501.318 0.00812779 3.45099 0
M  V30 5440 C 500.431 1.04933 4.19062 0
M  V30 5441 C 499.566 0.389313 5.29771 0
M  V30 5442 C 498.605 1.41544 5.9551 0
M  V30 5443 N 497.742 0.78021 6.97751 0
M  V30 5444 H 502.582 1.52536 2.56002 0
M  V30 5445 H 500.119 0.76304 1.25762 0
M  V30 5446 H 502.077 -0.373497 4.15525 0
M  V30 5447 H 500.707 -0.844336 3.11562 0
M  V30 5448 H 499.759 1.54888 3.47439 0
M  V30 5449 H 501.071 1.82862 4.64072 0
M  V30 5450 H 500.225 -0.0463805 6.06682 0
M  V30 5451 H 498.964 -0.422038 4.8587 0
M  V30 5452 H 497.969 1.86124 5.17337 0
M  V30 5453 H 499.194 2.22854 6.41493 0
M  V30 5454 H 497.14 -0.0107899 6.55999 0
M  V30 5455 H 497.057 1.49716 7.41027 0
M  V30 5456 H 498.325 0.368996 7.78626 0
M  V30 5457 N 502.554 -1.34406 0.822964 0
M  V30 5458 C 503.97 -1.51275 0.508727 0
M  V30 5459 C 504.17 -1.76776 -0.967083 0
M  V30 5460 O 503.226 -1.81871 -1.75155 0
M  V30 5461 C 504.539 -2.67765 1.36829 0
M  V30 5462 C 506.087 -2.81647 1.36542 0
M  V30 5463 C 506.562 -4.01181 2.20947 0
M  V30 5464 N 508.053 -4.08388 2.18571 0
M  V30 5465 C 508.788 -5.00036 2.80627 0
M  V30 5466 N 508.284 -5.96906 3.51674 0
M  V30 5467 N 510.077 -4.92908 2.70181 0
M  V30 5468 H 502.228 -1.16113 1.77852 0
M  V30 5469 H 504.491 -0.56947 0.757897 0
M  V30 5470 H 504.197 -2.55551 2.41633 0
M  V30 5471 H 504.071 -3.62779 1.03303 0
M  V30 5472 H 506.458 -2.93303 0.325163 0
M  V30 5473 H 506.539 -1.87443 1.74066 0
M  V30 5474 H 506.183 -3.90286 3.25022 0
M  V30 5475 H 506.113 -4.94599 1.80774 0
M  V30 5476 H 508.604 -3.39051 1.66891 0
M  V30 5477 H 508.917 -6.63468 3.96271 0
M  V30 5478 H 507.262 -5.9703 3.5578 0
M  V30 5479 H 510.453 -4.1619 2.14251 0
M  V30 5480 H 510.626 -5.64137 3.18831 0
M  V30 5481 N 504.032 -0.577932 -1.46621 0
M  V30 5482 C 504.942 0.160651 -2.34049 0
M  V30 5483 C 505.958 0.890911 -1.49462 0
M  V30 5484 O 507.134 0.855166 -1.82343 0
M  V30 5485 C 504.199 1.16447 -3.26559 0
M  V30 5486 C 503.26 0.4394 -4.27045 0
M  V30 5487 C 502.493 1.3954 -5.15135 0
M  V30 5488 O 502.716 2.63162 -5.06065 0
M  V30 5489 O 501.65 0.908585 -5.95003 0
M  V30 5490 H 505.476 -0.557057 -2.98547 0
M  V30 5491 H 503.061 -0.338369 -1.45518 0
M  V30 5492 H 504.943 1.7434 -3.83645 0
M  V30 5493 H 503.618 1.86373 -2.64663 0
M  V30 5494 H 502.525 -0.181247 -3.73661 0
M  V30 5495 H 503.858 -0.218799 -4.91713 0
M  V30 5496 N 505.51 1.54411 -0.315457 0
M  V30 5497 C 506.756 2.00716 0.289972 0
M  V30 5498 C 507.089 1.2034 1.5242 0
M  V30 5499 O 506.364 0.283579 1.92422 0
M  V30 5500 C 506.647 3.54507 0.632196 0
M  V30 5501 C 506.5 4.45615 -0.61218 0
M  V30 5502 C 507.819 4.15421 1.45305 0
M  V30 5503 H 504.938 0.729637 0.10392 0
M  V30 5504 H 507.58 1.8506 -0.430427 0
M  V30 5505 H 505.73 3.67979 1.24595 0
M  V30 5506 H 507.402 4.44026 -1.25053 0
M  V30 5507 H 505.645 4.15621 -1.24264 0
M  V30 5508 H 506.316 5.51022 -0.328379 0
M  V30 5509 H 508.792 4.05474 0.934331 0
M  V30 5510 H 507.668 5.23157 1.66127 0
M  V30 5511 H 507.929 3.68223 2.44671 0
M  V30 5512 N 506.988 0.0434614 1.5754 0
M  V30 5513 C 507.92 -0.962586 2.08007 0
M  V30 5514 C 508.933 -1.27972 1.00634 0
M  V30 5515 O 510.122 -1.24186 1.28219 0
M  V30 5516 C 507.222 -2.28621 2.50171 0
M  V30 5517 C 506.395 -2.15214 3.80791 0
M  V30 5518 C 505.454 -3.30633 4.09351 0
M  V30 5519 O 504.48 -3.0688 4.79388 0
M  V30 5520 N 505.682 -4.54873 3.60654 0
M  V30 5521 H 508.447 -0.531891 2.94942 0
M  V30 5522 H 506.008 -0.142965 1.61268 0
M  V30 5523 H 508 -3.04689 2.66359 0
M  V30 5524 H 506.57 -2.63283 1.68525 0
M  V30 5525 H 505.79 -1.23785 3.74261 0
M  V30 5526 H 507.078 -2.03475 4.66343 0
M  V30 5527 H 506.476 -4.77063 3.04019 0
M  V30 5528 H 505.033 -5.2806 3.82094 0
M  V30 5529 N 508.466 -1.55915 -0.229846 0
M  V30 5530 C 509.877 -1.68809 -0.797531 0
M  V30 5531 C 510.228 -0.643995 -1.8533 0
M  V30 5532 O 509.353 0.206492 -2.15413 0
M  V30 5533 C 509.948 -3.06043 -1.45338 0
M  V30 5534 C 508.507 -3.20819 -1.96856 0
M  V30 5535 C 507.654 -2.6472 -0.825736 0
M  V30 5536 H 510.605 -1.58699 -0.00533733 0
M  V30 5537 H 510.626 -3.01438 -2.32196 0
M  V30 5538 H 510.138 -3.82012 -0.684743 0
M  V30 5539 H 508.239 -2.49704 -2.76548 0
M  V30 5540 H 508.352 -4.27937 -2.15423 0
M  V30 5541 H 506.716 -2.22985 -1.23084 0
M  V30 5542 H 507.499 -3.43229 -0.0699019 0
M  V30 5543 N 509.944 0.496216 -1.49584 0
M  V30 5544 C 511.355 1.07765 -1.52459 0
M  V30 5545 C 511.706 1.93679 -0.31353 0
M  V30 5546 O 510.831 2.08588 0.576186 0
M  V30 5547 C 511.426 1.96111 -2.76271 0
M  V30 5548 C 509.985 2.49409 -2.81908 0
M  V30 5549 C 509.132 1.27142 -2.46435 0
M  V30 5550 H 512.083 0.279914 -1.56212 0
M  V30 5551 H 512.104 2.80862 -2.56704 0
M  V30 5552 H 511.616 1.33555 -3.64396 0
M  V30 5553 H 509.717 3.1559 -1.98074 0
M  V30 5554 H 509.83 2.86234 -3.84196 0
M  V30 5555 H 508.194 1.59818 -1.98319 0
M  V30 5556 H 508.977 0.662866 -3.3684 0
M  V30 5557 N 511.423 1.38739 0.74761 0
M  V30 5558 C 512.67 1.35274 1.50689 0
M  V30 5559 C 512.998 -0.0553359 1.94421 0
M  V30 5560 O 512.253 -1.03365 1.66175 0
M  V30 5561 C 512.552 2.25992 2.7688 0
M  V30 5562 C 512.218 3.73854 2.5208 0
M  V30 5563 C 510.88 4.14145 2.45025 0
M  V30 5564 C 513.232 4.67427 2.30568 0
M  V30 5565 C 510.56 5.4609 2.14483 0
M  V30 5566 C 512.912 5.99635 2.01545 0
M  V30 5567 C 511.576 6.39004 1.92951 0
M  V30 5568 H 510.846 0.495003 0.55141 0
M  V30 5569 H 513.493 1.71145 0.859158 0
M  V30 5570 H 511.798 1.83196 3.46333 0
M  V30 5571 H 513.495 2.20611 3.34861 0
M  V30 5572 H 510.085 3.41913 2.58444 0
M  V30 5573 H 514.269 4.3714 2.34994 0
M  V30 5574 H 509.525 5.75528 2.06342 0
M  V30 5575 H 513.699 6.71678 1.83906 0
M  V30 5576 H 511.326 7.41165 1.6905 0
M  V30 5577 N 512.901 -0.976442 1.23707 0
M  V30 5578 C 513.848 -2.06952 1.02174 0
M  V30 5579 C 514.818 -1.65984 -0.0621034 0
M  V30 5580 O 516.003 -1.90584 0.0907906 0
M  V30 5581 C 513.143 -3.39425 0.62327 0
M  V30 5582 C 512.256 -3.9364 1.77966 0
M  V30 5583 C 511.391 -5.14343 1.3276 0
M  V30 5584 C 510.43 -5.60733 2.45449 0
M  V30 5585 N 509.567 -6.72662 2.01172 0
M  V30 5586 H 514.407 -2.24704 1.95734 0
M  V30 5587 H 511.944 -1.10143 0.975034 0
M  V30 5588 H 513.902 -4.15526 0.37332 0
M  V30 5589 H 512.532 -3.21624 -0.275329 0
M  V30 5590 H 511.584 -3.14258 2.14351 0
M  V30 5591 H 512.896 -4.24035 2.62671 0
M  V30 5592 H 512.05 -5.97789 1.03601 0
M  V30 5593 H 510.789 -4.8561 0.450975 0
M  V30 5594 H 509.794 -4.75865 2.75378 0
M  V30 5595 H 511.019 -5.91483 3.33654 0
M  V30 5596 H 508.965 -6.45681 1.15895 0
M  V30 5597 H 508.882 -7.02462 2.79434 0
M  V30 5598 H 510.15 -7.59572 1.75129 0
M  V30 5599 N 514.379 -1.04941 -1.1758 0
M  V30 5600 C 515.79 -0.784501 -1.69418 0
M  V30 5601 C 516.141 0.693625 -1.8353 0
M  V30 5602 O 515.266 1.53925 -1.52106 0
M  V30 5603 C 515.861 -1.41746 -3.07723 0
M  V30 5604 C 514.42 -1.20066 -3.56737 0
M  V30 5605 C 513.567 -1.5026 -2.33061 0
M  V30 5606 H 516.518 -1.21469 -1.02133 0
M  V30 5607 H 516.539 -0.825381 -3.7144 0
M  V30 5608 H 516.051 -2.49325 -2.9742 0
M  V30 5609 H 514.152 -0.144006 -3.72322 0
M  V30 5610 H 514.265 -1.90384 -4.39648 0
M  V30 5611 H 512.629 -0.922598 -2.37403 0
M  V30 5612 H 513.412 -2.58967 -2.25368 0
M  V30 5613 N 515.857 1.33968 -0.830081 0
M  V30 5614 C 516.82 2.27694 -0.26235 0
M  V30 5615 C 517.82 1.50589 0.563876 0
M  V30 5616 O 519.01 1.70028 0.378941 0
M  V30 5617 C 516.142 3.35002 0.63138 0
M  V30 5618 H 517.335 2.79419 -1.08928 0
M  V30 5619 H 514.888 1.44221 -0.602486 0
M  V30 5620 H 515.623 2.88504 1.48109 0
M  V30 5621 H 515.408 3.92079 0.0403276 0
M  V30 5622 H 516.898 4.04897 1.02217 0
M  V30 5623 N 517.335 0.585699 1.46312 0
M  V30 5624 C 518.56 0.0762461 2.0726 0
M  V30 5625 C 518.985 -1.22071 1.43109 0
M  V30 5626 O 518.343 -1.73804 0.515942 0
M  V30 5627 C 518.391 -0.0729404 3.60526 0
M  V30 5628 O 517.495 -1.1287 3.96654 0
M  V30 5629 H 516.836 0.0641558 0.660893 0
M  V30 5630 H 519.366 0.809492 1.87905 0
M  V30 5631 H 519.376 -0.278158 4.07051 0
M  V30 5632 H 518.051 0.874188 4.06609 0
M  V30 5633 H 516.628 -0.901703 3.61834 0
M  V30 5634 N 518.813 -1.54241 0.323641 0
M  V30 5635 C 520.061 -2.00174 -0.278359 0
M  V30 5636 C 520.382 -1.2134 -1.52648 0
M  V30 5637 O 519.652 -0.315244 -1.93347 0
M  V30 5638 H 518.232 -0.739463 -0.105845 0
M  V30 5639 H 520.894 -1.89864 0.440204 0
M  V30 5640 H 519.99 -3.07486 -0.5347 0
M  V30 5641 N 520.291 -0.0518155 -1.57515 0
M  V30 5642 C 521.238 0.922352 -2.11569 0
M  V30 5643 C 522.208 1.30842 -1.02321 0
M  V30 5644 O 523.393 1.39778 -1.29872 0
M  V30 5645 C 520.533 2.19167 -2.6657 0
M  V30 5646 C 519.646 1.86003 -3.89906 0
M  V30 5647 C 518.781 3.07398 -4.33221 0
M  V30 5648 C 517.82 2.70158 -5.49255 0
M  V30 5649 N 516.957 3.84248 -5.8762 0
M  V30 5650 H 521.797 0.454506 -2.94514 0
M  V30 5651 H 519.334 0.212718 -1.45554 0
M  V30 5652 H 521.292 2.93443 -2.96559 0
M  V30 5653 H 519.922 2.63528 -1.86421 0
M  V30 5654 H 518.974 1.01874 -3.66505 0
M  V30 5655 H 520.286 1.54592 -4.74239 0
M  V30 5656 H 519.44 3.89972 -4.64765 0
M  V30 5657 H 518.179 3.41988 -3.477 0
M  V30 5658 H 517.184 1.86001 -5.17382 0
M  V30 5659 H 518.409 2.36759 -6.36492 0
M  V30 5660 H 516.355 4.18638 -5.05053 0
M  V30 5661 H 516.272 3.56538 -6.66646 0
M  V30 5662 H 517.54 4.6746 -6.2378 0
M  V30 5663 N 521.769 1.56035 0.221574 0
M  V30 5664 C 523.18 1.69229 0.788567 0
M  V30 5665 C 523.531 0.653814 1.84986 0
M  V30 5666 O 522.656 -0.195065 2.15519 0
M  V30 5667 C 523.251 3.06809 1.43713 0
M  V30 5668 C 521.81 3.21858 1.95152 0
M  V30 5669 C 520.957 2.65155 0.811685 0
M  V30 5670 H 523.908 1.587 -0.00307894 0
M  V30 5671 H 523.929 3.02666 2.30594 0
M  V30 5672 H 523.441 3.82369 0.664475 0
M  V30 5673 H 521.542 2.51167 2.7522 0
M  V30 5674 H 521.655 4.29073 2.1315 0
M  V30 5675 H 520.019 2.23635 1.21899 0
M  V30 5676 H 520.802 3.43261 0.0516987 0
M  V30 5677 N 523.247 -0.488276 1.49845 0
M  V30 5678 C 524.524 -1.24959 1.50481 0
M  V30 5679 C 524.904 -2.09735 0.239698 0
M  V30 5680 O 524.252 -2.14865 -0.777524 0
M  V30 5681 C 524.462 -2.0954 2.79095 0
M  V30 5682 C 525.81 -2.68305 3.29086 0
M  V30 5683 O 526.834 -2.19797 2.80299 0
M  V30 5684 O 525.693 -3.56643 4.14087 0
M  V30 5685 H 522.787 -0.566133 0.602845 0
M  V30 5686 H 525.333 -0.501504 1.6212 0
M  V30 5687 H 524.105 -1.46958 3.62656 0
M  V30 5688 H 523.728 -2.91517 2.70377 0
M  V30 5689 N 524.725 -1.39134 -0.740242 0
M  V30 5690 C 526.002 -1.26584 -1.49117 0
M  V30 5691 C 526.382 0.126902 -2.10718 0
M  V30 5692 O 525.73 1.13765 -1.98166 0
M  V30 5693 C 525.94 -2.38619 -2.54681 0
M  V30 5694 C 527.288 -2.77685 -3.21211 0
M  V30 5695 O 528.312 -2.38029 -2.64991 0
M  V30 5696 O 527.171 -3.46115 -4.22926 0
M  V30 5697 H 524.265 -0.495769 -0.661923 0
M  V30 5698 H 526.811 -1.50995 -0.774514 0
M  V30 5699 H 525.583 -3.3175 -2.07504 0
M  V30 5700 H 525.206 -2.15845 -3.33911 0
M  V30 5701 N 526.204 0.969867 -1.24223 0
M  V30 5702 C 527.432 1.74756 -1.10761 0
M  V30 5703 C 527.847 1.85713 0.340041 0
M  V30 5704 O 527.204 1.34389 1.23474 0
M  V30 5705 C 527.255 3.16915 -1.73917 0
M  V30 5706 O 526.976 3.06511 -3.13021 0
M  V30 5707 C 528.477 4.11032 -1.66036 0
M  V30 5708 H 525.697 0.548092 -0.387087 0
M  V30 5709 H 528.241 1.2178 -1.64286 0
M  V30 5710 H 526.396 3.66884 -1.244 0
M  V30 5711 H 526.81 3.96079 -3.43834 0
M  V30 5712 H 528.284 5.08446 -2.14911 0
M  V30 5713 H 528.761 4.34785 -0.621159 0
M  V30 5714 H 529.367 3.66972 -2.14969 0
M  V30 5715 N 527.682 1.05563 1.17022 0
M  V30 5716 C 528.929 0.767937 1.87374 0
M  V30 5717 C 529.257 -0.705224 1.81265 0
M  V30 5718 O 528.512 -1.5318 1.21796 0
M  V30 5719 C 528.811 1.19849 3.36706 0
M  V30 5720 C 528.477 2.6745 3.63017 0
M  V30 5721 C 527.139 3.0777 3.69907 0
M  V30 5722 C 529.491 3.62811 3.74189 0
M  V30 5723 C 526.819 4.42307 3.85463 0
M  V30 5724 C 529.171 4.97087 3.91264 0
M  V30 5725 C 527.835 5.37055 3.96394 0
M  V30 5726 H 527.105 0.281008 0.68565 0
M  V30 5727 H 529.752 1.32339 1.38415 0
M  V30 5728 H 528.057 0.562096 3.87747 0
M  V30 5729 H 529.754 0.953038 3.8951 0
M  V30 5730 H 526.344 2.35228 3.58282 0
M  V30 5731 H 530.528 3.32798 3.68183 0
M  V30 5732 H 525.784 4.72769 3.87684 0
M  V30 5733 H 529.958 5.70869 3.9885 0
M  V30 5734 H 527.585 6.41308 4.082 0
M  V30 5735 N 529.16 -1.33526 0.837174 0
M  V30 5736 C 530.4 -1.99649 0.438115 0
M  V30 5737 C 530.764 -1.64879 -0.983816 0
M  V30 5738 O 531.965 -2.23956 -1.48651 0
M  V30 5739 C 530.236 -3.51431 0.650461 0
M  V30 5740 S 531.795 -4.37431 0.346371 0
M  V30 5741 H 528.613 -0.69162 0.164872 0
M  V30 5742 H 531.215 -1.62556 1.08609 0
M  V30 5743 H 529.919 -3.74225 1.68475 0
M  V30 5744 H 529.45 -3.93398 -0.0117309 0
M  V30 5745 H 531.465 -4.89132 -0.834504 0
M  V30 5746 N 530.638 -0.59345 -1.46 0
M  V30 5747 C 531.885 -0.0831523 -2.02329 0
M  V30 5748 C 532.213 1.28093 -1.46364 0
M  V30 5749 O 531.468 1.85526 -0.622793 0
M  V30 5750 C 531.767 0.021178 -3.57394 0
M  V30 5751 C 531.433 -1.27671 -4.32448 0
M  V30 5752 C 530.095 -1.63227 -4.5267 0
M  V30 5753 C 532.447 -2.13511 -4.7546 0
M  V30 5754 C 529.775 -2.84401 -5.1316 0
M  V30 5755 C 532.127 -3.33922 -5.37289 0
M  V30 5756 C 530.791 -3.69747 -5.55737 0
M  V30 5757 H 530.061 -0.0304276 -0.740375 0
M  V30 5758 H 532.708 -0.772239 -1.75239 0
M  V30 5759 H 531.013 0.793454 -3.83682 0
M  V30 5760 H 532.71 0.431942 -3.98667 0
M  V30 5761 H 529.3 -0.989937 -4.17011 0
M  V30 5762 H 533.484 -1.87344 -4.59582 0
M  V30 5763 H 528.74 -3.12282 -5.25633 0
M  V30 5764 H 532.914 -4.00698 -5.69574 0
M  V30 5765 H 530.541 -4.6373 -6.02377 0
M  V30 5766 N 532.116 1.54067 -0.331816 0
M  V30 5767 C 533.393 1.92915 0.322955 0
M  V30 5768 C 533.773 1.26225 1.69205 0
M  V30 5769 O 533.121 0.408919 2.24811 0
M  V30 5770 C 533.331 3.46619 0.406946 0
M  V30 5771 C 534.679 4.19386 0.663339 0
M  V30 5772 O 535.703 3.5282 0.489536 0
M  V30 5773 O 534.562 5.37288 0.999193 0
M  V30 5774 H 531.656 0.805808 0.186016 0
M  V30 5775 H 534.202 1.65342 -0.382135 0
M  V30 5776 H 532.974 3.87354 -0.554287 0
M  V30 5777 H 532.597 3.80324 1.15929 0
M  V30 5778 N 533.594 0.0601682 1.57485 0
M  V30 5779 C 535.005 -0.474217 1.80577 0
M  V30 5780 C 535.356 -1.70365 0.973147 0
M  V30 5781 O 534.481 -2.15544 0.192306 0
M  V30 5782 C 535.076 -0.867102 3.27516 0
M  V30 5783 C 533.635 -1.34642 3.51495 0
M  V30 5784 C 532.782 -0.32594 2.75378 0
M  V30 5785 H 535.733 0.285973 1.56102 0
M  V30 5786 H 535.754 -1.72938 3.38929 0
M  V30 5787 H 535.266 0.0278927 3.8809 0
M  V30 5788 H 533.367 -2.2603 2.96212 0
M  V30 5789 H 533.48 -1.33237 4.60201 0
M  V30 5790 H 531.844 -0.800749 2.41785 0
M  V30 5791 H 532.627 0.561125 3.38683 0
M  V30 5792 N 535.072 -1.5615 -0.213296 0
M  V30 5793 C 535.982 -1.96265 -1.28519 0
M  V30 5794 C 536.998 -0.86765 -1.50824 0
M  V30 5795 O 538.174 -1.17191 -1.63793 0
M  V30 5796 C 535.239 -2.27836 -2.61327 0
M  V30 5797 C 534.3 -3.50949 -2.47252 0
M  V30 5798 C 533.533 -3.81004 -3.73727 0
M  V30 5799 O 533.756 -3.12612 -4.77106 0
M  V30 5800 O 532.69 -4.74477 -3.70344 0
M  V30 5801 H 536.516 -2.87631 -0.974795 0
M  V30 5802 H 534.101 -1.43467 -0.416832 0
M  V30 5803 H 535.983 -2.49299 -3.39747 0
M  V30 5804 H 534.658 -1.39643 -2.9203 0
M  V30 5805 H 533.565 -3.34754 -1.67004 0
M  V30 5806 H 534.898 -4.39551 -2.21486 0
M  V30 5807 N 536.55 0.480323 -1.50102 0
M  V30 5808 C 537.797 1.23307 -1.60629 0
M  V30 5809 C 538.125 1.92135 -0.302375 0
M  V30 5810 O 537.38 1.82321 0.711154 0
M  V30 5811 C 537.679 2.30708 -2.72963 0
M  V30 5812 C 537.345 1.79195 -4.13763 0
M  V30 5813 C 536.007 1.64867 -4.52076 0
M  V30 5814 C 538.359 1.40878 -5.018 0
M  V30 5815 C 535.687 1.10631 -5.76175 0
M  V30 5816 C 538.039 0.880872 -6.26437 0
M  V30 5817 C 536.703 0.724146 -6.6356 0
M  V30 5818 H 535.973 0.451211 -0.587784 0
M  V30 5819 H 538.62 0.53051 -1.84005 0
M  V30 5820 H 536.925 3.06834 -2.43639 0
M  V30 5821 H 538.622 2.88692 -2.78313 0
M  V30 5822 H 535.212 1.91313 -3.83533 0
M  V30 5823 H 539.396 1.50786 -4.7284 0
M  V30 5824 H 534.652 0.972263 -6.0362 0
M  V30 5825 H 538.826 0.575269 -6.9402 0
M  V30 5826 H 536.453 0.301722 -7.59601 0
M  V30 5827 N 538.028 1.39524 0.732853 0
M  V30 5828 C 539.256 1.40143 1.52209 0
M  V30 5829 C 539.671 -0.00348836 1.888 0
M  V30 5830 O 539.028 -0.975357 1.5425 0
M  V30 5831 C 539.079 2.27632 2.8083 0
M  V30 5832 O 538.8 3.62654 2.45792 0
M  V30 5833 C 540.301 2.36658 3.74844 0
M  V30 5834 H 537.521 0.478604 0.470297 0
M  V30 5835 H 540.065 1.83366 0.905388 0
M  V30 5836 H 538.22 1.87818 3.38826 0
M  V30 5837 H 538.634 4.08941 3.28431 0
M  V30 5838 H 540.108 3.02118 4.61984 0
M  V30 5839 H 540.585 1.38638 4.16745 0
M  V30 5840 H 541.191 2.76951 3.22766 0
M  V30 5841 N 539.506 -0.963266 1.24736 0
M  V30 5842 C 540.469 -2.04013 1.04457 0
M  V30 5843 C 541.469 -1.608 0.000335555 0
M  V30 5844 O 542.659 -1.72515 0.241719 0
M  V30 5845 C 539.791 -3.35858 0.584162 0
M  V30 5846 H 540.984 -2.23436 2.00041 0
M  V30 5847 H 538.537 -1.13914 1.07021 0
M  V30 5848 H 539.272 -3.22128 -0.374673 0
M  V30 5849 H 539.057 -3.68568 1.3379 0
M  V30 5850 H 540.547 -4.1502 0.463451 0
M  V30 5851 N 540.985 -1.06182 -1.16461 0
M  V30 5852 C 541.932 -0.671613 -2.20812 0
M  V30 5853 C 542.902 0.331186 -1.62765 0
M  V30 5854 O 544.087 0.22033 -1.89524 0
M  V30 5855 C 541.227 -0.063029 -3.45042 0
M  V30 5856 C 540.34 -1.11587 -4.1734 0
M  V30 5857 C 539.475 -0.473546 -5.29085 0
M  V30 5858 C 538.514 -1.51 -5.93182 0
M  V30 5859 N 537.651 -0.891118 -6.96422 0
M  V30 5860 H 542.491 -1.56589 -2.53542 0
M  V30 5861 H 540.028 -0.782951 -1.24532 0
M  V30 5862 H 541.986 0.307344 -4.16066 0
M  V30 5863 H 540.616 0.794663 -3.12866 0
M  V30 5864 H 539.668 -1.60396 -3.44931 0
M  V30 5865 H 540.98 -1.90221 -4.61104 0
M  V30 5866 H 540.134 -0.0501432 -6.06679 0
M  V30 5867 H 538.873 0.344687 -4.8648 0
M  V30 5868 H 537.878 -1.94331 -5.14311 0
M  V30 5869 H 539.103 -2.33031 -6.37866 0
M  V30 5870 H 537.049 -0.0935753 -6.55933 0
M  V30 5871 H 536.966 -1.61486 -7.38551 0
M  V30 5872 H 538.234 -0.492822 -7.77941 0
M  V30 5873 N 542.463 1.3308 -0.844243 0
M  V30 5874 C 543.691 2.01808 -0.456203 0
M  V30 5875 C 544.106 1.63498 0.944131 0
M  V30 5876 O 543.463 0.85102 1.61443 0
M  V30 5877 C 543.514 3.56922 -0.573513 0
M  V30 5878 O 543.235 3.93851 -1.91868 0
M  V30 5879 C 544.736 4.42922 -0.183125 0
M  V30 5880 H 541.956 0.646273 -0.180477 0
M  V30 5881 H 544.5 1.69891 -1.1383 0
M  V30 5882 H 542.655 3.87352 0.0607367 0
M  V30 5883 H 543.069 4.88564 -1.90802 0
M  V30 5884 H 544.543 5.51093 -0.316241 0
M  V30 5885 H 545.02 4.30386 0.875477 0
M  V30 5886 H 545.626 4.1786 -0.792027 0
M  V30 5887 N 543.941 0.601185 1.45683 0
M  V30 5888 C 545.352 0.179659 1.85834 0
M  V30 5889 C 545.703 -1.26189 1.50236 0
M  V30 5890 O 544.828 -1.95587 0.925987 0
M  V30 5891 C 545.423 0.319277 3.37292 0
M  V30 5892 C 543.982 -0.0475092 3.7637 0
M  V30 5893 C 543.129 0.646692 2.69654 0
M  V30 5894 H 546.08 0.808268 1.36575 0
M  V30 5895 H 546.101 -0.4503 3.77826 0
M  V30 5896 H 545.613 1.36855 3.6317 0
M  V30 5897 H 543.714 -1.0962 3.5611 0
M  V30 5898 H 543.827 0.34168 4.7788 0
M  V30 5899 H 542.191 0.0849971 2.54558 0
M  V30 5900 H 542.974 1.69797 2.98369 0
M  V30 5901 N 545.419 -1.53889 0.339982 0
M  V30 5902 C 546.366 -2.24902 -0.518452 0
M  V30 5903 C 547.336 -1.24593 -1.09844 0
M  V30 5904 O 548.521 -1.53317 -1.13572 0
M  V30 5905 C 545.661 -3.02262 -1.66529 0
M  V30 5906 C 544.774 -4.17418 -1.11295 0
M  V30 5907 C 543.909 -4.82273 -2.2268 0
M  V30 5908 C 542.948 -5.89503 -1.6478 0
M  V30 5909 N 542.085 -6.48153 -2.69893 0
M  V30 5910 H 546.925 -2.97853 0.0936579 0
M  V30 5911 H 544.462 -1.46986 0.0579924 0
M  V30 5912 H 546.42 -3.45371 -2.3404 0
M  V30 5913 H 545.05 -2.31614 -2.24844 0
M  V30 5914 H 544.102 -3.78976 -0.328886 0
M  V30 5915 H 545.414 -4.94554 -0.649414 0
M  V30 5916 H 544.568 -5.28435 -2.98063 0
M  V30 5917 H 543.307 -4.04552 -2.72376 0
M  V30 5918 H 542.312 -5.42728 -0.879004 0
M  V30 5919 H 543.537 -6.6913 -1.1594 0
M  V30 5920 H 541.483 -5.73298 -3.1885 0
M  V30 5921 H 541.4 -7.20752 -2.28151 0
M  V30 5922 H 542.668 -6.98968 -3.45056 0
M  V30 5923 N 546.897 -0.0685191 -1.57451 0
M  V30 5924 C 548.174 0.642167 -1.84758 0
M  V30 5925 C 548.554 1.87991 -0.960344 0
M  V30 5926 O 547.902 2.28485 -0.0257894 0
M  V30 5927 C 548.112 0.982946 -3.34872 0
M  V30 5928 C 549.46 1.35784 -4.02303 0
M  V30 5929 O 550.484 1.07477 -3.39598 0
M  V30 5930 O 549.343 1.88681 -5.12895 0
M  V30 5931 H 546.437 0.318625 -0.763156 0
M  V30 5932 H 548.983 -0.0992015 -1.6941 0
M  V30 5933 H 547.755 0.10372 -3.91163 0
M  V30 5934 H 547.378 1.78119 -3.55471 0
M  V30 5935 N 548.375 1.56261 0.205012 0
M  V30 5936 C 549.6 1.84491 0.947512 0
M  V30 5937 C 550.025 0.650894 1.76479 0
M  V30 5938 O 549.383 -0.40035 1.76824 0
M  V30 5939 C 549.431 3.10863 1.82747 0
M  V30 5940 O 548.535 2.90719 2.925 0
M  V30 5941 H 547.876 0.607783 0.267386 0
M  V30 5942 H 550.406 2.03485 0.213323 0
M  V30 5943 H 550.416 3.41399 2.23407 0
M  V30 5944 H 549.091 3.97392 1.2269 0
M  V30 5945 H 547.668 2.71457 2.55667 0
M  V30 5946 N 549.853 -0.472356 1.50355 0
M  V30 5947 C 551.264 -1.05326 1.54154 0
M  V30 5948 C 551.615 -1.93155 0.344303 0
M  V30 5949 O 550.74 -2.09479 -0.542928 0
M  V30 5950 C 551.335 -1.91691 2.79356 0
M  V30 5951 C 549.894 -2.44892 2.8584 0
M  V30 5952 C 549.041 -1.23205 2.48426 0
M  V30 5953 H 551.992 -0.255027 1.56637 0
M  V30 5954 H 552.013 -2.76742 2.6114 0
M  V30 5955 H 551.525 -1.27741 3.66475 0
M  V30 5956 H 549.626 -3.12399 2.0307 0
M  V30 5957 H 549.739 -2.80086 3.88701 0
M  V30 5958 H 548.103 -1.56643 2.00836 0
M  V30 5959 H 548.886 -0.609194 3.37852 0
M  V30 5960 N 551.331 -1.39911 -0.725443 0
M  V30 5961 C 552.579 -1.37382 -1.48224 0
M  V30 5962 C 552.9 0.0264107 -1.94982 0
M  V30 5963 O 552.17 0.979408 -1.6966 0
M  V30 5964 H 550.75 -0.505596 -0.549892 0
M  V30 5965 H 553.412 -1.7487 -0.860608 0
M  V30 5966 H 552.508 -2.04254 -2.3598 0
M  V30 5967 N 552.809 0.956637 -1.25245 0
M  V30 5968 C 553.739 2.07058 -1.07931 0
M  V30 5969 C 554.72 1.70096 0.0110361 0
M  V30 5970 O 555.905 1.93555 -0.158121 0
M  V30 5971 C 553.035 3.40272 -0.695124 0
M  V30 5972 C 551.989 3.91235 -1.73549 0
M  V30 5973 C 551.315 5.20921 -1.20604 0
M  V30 5974 C 552.615 4.17837 -3.13385 0
M  V30 5975 H 554.309 2.218 -2.01109 0
M  V30 5976 H 551.855 1.06581 -0.968326 0
M  V30 5977 H 553.808 4.1765 -0.560949 0
M  V30 5978 H 552.532 3.25462 0.272355 0
M  V30 5979 H 551.191 3.16025 -1.85807 0
M  V30 5980 H 550.839 5.02479 -0.228846 0
M  V30 5981 H 550.539 5.55987 -1.90136 0
M  V30 5982 H 552.063 6.00897 -1.08421 0
M  V30 5983 H 553.477 4.8588 -3.04292 0
M  V30 5984 H 551.874 4.64154 -3.80369 0
M  V30 5985 H 552.944 3.2419 -3.60595 0
M  V30 5986 N 554.287 1.06798 1.15896 0
M  V30 5987 C 555.698 0.811355 1.68149 0
M  V30 5988 C 556.049 -0.664339 1.8461 0
M  V30 5989 O 555.174 -1.51485 1.54535 0
M  V30 5990 C 555.769 1.46624 3.05429 0
M  V30 5991 C 554.328 1.25726 3.54781 0
M  V30 5992 C 553.475 1.53949 2.3064 0
M  V30 5993 H 556.426 1.23078 1.00187 0
M  V30 5994 H 556.447 0.88437 3.7008 0
M  V30 5995 H 555.959 2.54025 2.93416 0
M  V30 5996 H 554.06 0.20322 3.72045 0
M  V30 5997 H 554.173 1.97354 4.36564 0
M  V30 5998 H 552.537 0.96025 2.35905 0
M  V30 5999 H 553.32 2.6252 2.2122 0
M  V30 6000 N 555.766 -1.3263 0.851289 0
M  V30 6001 C 556.729 -2.27247 0.298541 0
M  V30 6002 C 557.729 -1.51467 -0.539847 0
M  V30 6003 O 558.919 -1.7061 -0.351843 0
M  V30 6004 C 556.051 -3.35964 -0.578004 0
M  V30 6005 H 557.244 -2.7765 1.13359 0
M  V30 6006 H 554.797 -1.43245 0.625354 0
M  V30 6007 H 555.532 -2.90823 -1.435 0
M  V30 6008 H 555.317 -3.92094 0.0220539 0
M  V30 6009 H 556.807 -4.06472 -0.957626 0
M  V30 6010 N 557.244 -0.608902 -1.45362 0
M  V30 6011 C 558.469 -0.10921 -2.07112 0
M  V30 6012 C 558.894 1.19779 -1.45033 0
M  V30 6013 O 558.252 1.72961 -0.543527 0
M  V30 6014 C 558.3 0.0155745 -3.60597 0
M  V30 6015 O 557.404 1.06546 -3.98399 0
M  V30 6016 H 556.745 -0.0746619 -0.659789 0
M  V30 6017 H 559.275 -0.839283 -1.86594 0
M  V30 6018 H 559.285 0.213364 -4.07442 0
M  V30 6019 H 557.96 -0.938765 -4.05167 0
M  V30 6020 H 556.537 0.844024 -3.63223 0
M  V30 6021 N 558.722 1.53707 -0.348139 0
M  V30 6022 C 559.685 2.23812 0.494058 0
M  V30 6023 C 560.685 1.23989 1.02388 0
M  V30 6024 O 561.875 1.48395 0.912396 0
M  V30 6025 C 559.007 2.96133 1.68872 0
M  V30 6026 H 560.2 2.99663 -0.119141 0
M  V30 6027 H 557.753 1.55983 -0.0995539 0
M  V30 6028 H 558.488 2.24481 2.34049 0
M  V30 6029 H 558.273 3.69357 1.31596 0
M  V30 6030 H 559.763 3.49475 2.28597 0
M  V30 6031 N 560.2 0.0768682 1.57412 0
M  V30 6032 C 561.148 -0.906229 2.1422 0
M  V30 6033 C 562.142 -1.30477 1.08037 0
M  V30 6034 O 563.348 -1.28143 1.2641 0
M  V30 6035 H 559.723 -0.310207 0.685037 0
M  V30 6036 H 561.694 -0.402228 2.95677 0
M  V30 6037 C 560.443 -2.16245 2.72274 0
M  V30 6038 H 559.766 -1.86463 3.53655 0
M  V30 6039 H 561.206 -2.83134 3.15613 0
M  V30 6040 C 559.665 -2.92437 1.67279 0
M  V30 6041 O 560.195 -3.86322 1.10081 0
M  V30 6042 N 558.401 -2.55637 1.38195 0
M  V30 6043 H 557.948 -1.79363 1.84897 0
M  V30 6044 H 557.906 -3.06919 0.681787 0
M  V30 6045 N 561.678 -1.56367 -0.196722 0
M  V30 6046 C 562.641 -1.93561 -1.22746 0
M  V30 6047 C 563.641 -0.816566 -1.38524 0
M  V30 6048 O 564.831 -1.084 -1.36363 0
M  V30 6049 C 561.963 -2.20823 -2.59712 0
M  V30 6050 H 563.156 -2.85774 -0.909586 0
M  V30 6051 H 560.709 -1.50032 -0.438174 0
M  V30 6052 H 561.444 -1.31243 -2.96557 0
M  V30 6053 H 561.229 -3.02368 -2.49632 0
M  V30 6054 H 562.719 -2.50608 -3.34044 0
M  V30 6055 N 563.156 0.464375 -1.50603 0
M  V30 6056 C 564.106 1.55929 -1.66343 0
M  V30 6057 C 565.09 1.52338 -0.517887 0
M  V30 6058 O 566.282 1.59248 -0.772601 0
M  V30 6059 C 563.411 2.94327 -1.7671 0
M  V30 6060 C 562.497 3.02777 -2.96962 0
M  V30 6061 N 562.888 2.81026 -4.20545 0
M  V30 6062 C 561.186 3.33919 -2.95659 0
M  V30 6063 C 561.887 2.94618 -5.01573 0
M  V30 6064 N 560.863 3.25112 -4.35664 0
M  V30 6065 H 564.665 1.37822 -2.59581 0
M  V30 6066 H 562.179 0.671227 -1.47879 0
M  V30 6067 H 564.176 3.73063 -1.86091 0
M  V30 6068 H 562.836 3.13476 -0.846353 0
M  V30 6069 H 563.847 2.56477 -4.49933 0
M  V30 6070 H 560.524 3.59013 -2.13111 0
M  V30 6071 H 561.914 2.81984 -6.09865 0
M  V30 6072 N 564.634 1.40294 0.718013 0
M  V30 6073 C 565.566 1.36281 1.84283 0
M  V30 6074 C 566.579 0.268621 1.60569 0
M  V30 6075 O 567.768 0.528798 1.70487 0
M  V30 6076 C 564.868 1.09741 3.2064 0
M  V30 6077 C 564.041 2.30767 3.71571 0
M  V30 6078 C 563.1 2.00424 4.86535 0
M  V30 6079 O 562.126 2.73268 4.99313 0
M  V30 6080 N 563.328 0.980724 5.72156 0
M  V30 6081 H 566.093 2.3322 1.88225 0
M  V30 6082 H 563.654 1.34616 0.899453 0
M  V30 6083 H 565.646 0.874322 3.95143 0
M  V30 6084 H 564.216 0.214771 3.11861 0
M  V30 6085 H 563.436 2.68921 2.88228 0
M  V30 6086 H 564.724 3.11455 4.02335 0
M  V30 6087 H 564.122 0.377375 5.6444 0
M  V30 6088 H 562.679 0.817538 6.46653 0
M  V30 6089 N 566.112 -0.949982 1.2575 0
M  V30 6090 C 567.042 -2.06483 1.09028 0
M  V30 6091 C 568.023 -1.701 -0.00201532 0
M  V30 6092 O 569.208 -1.93469 0.168383 0
M  V30 6093 C 566.338 -3.39899 0.71316 0
M  V30 6094 C 565.292 -3.90309 1.75621 0
M  V30 6095 C 564.618 -5.20274 1.23365 0
M  V30 6096 C 565.918 -4.16169 3.15596 0
M  V30 6097 H 567.612 -2.20731 2.02283 0
M  V30 6098 H 565.158 -1.06066 0.973964 0
M  V30 6099 H 567.111 -4.17346 0.58309 0
M  V30 6100 H 565.835 -3.25602 -0.255091 0
M  V30 6101 H 564.494 -3.15035 1.8748 0
M  V30 6102 H 564.142 -5.02351 0.255491 0
M  V30 6103 H 563.842 -5.54971 1.93082 0
M  V30 6104 H 565.366 -6.00314 1.11607 0
M  V30 6105 H 566.78 -4.84259 3.06864 0
M  V30 6106 H 565.177 -4.62131 3.82825 0
M  V30 6107 H 566.247 -3.22273 3.6231 0
M  V30 6108 N 567.59 -1.07411 -1.15328 0
M  V30 6109 C 568.837 -0.797649 -1.86128 0
M  V30 6110 C 569.165 0.676298 -1.82364 0
M  V30 6111 O 568.42 1.51223 -1.24218 0
M  V30 6112 C 568.719 -1.25191 -3.34757 0
M  V30 6113 C 568.385 -2.73191 -3.58716 0
M  V30 6114 C 567.047 -3.13616 -3.64964 0
M  V30 6115 C 569.399 -3.68718 -3.6837 0
M  V30 6116 C 566.727 -4.48383 -3.78377 0
M  V30 6117 C 569.079 -5.03248 -3.83306 0
M  V30 6118 C 567.743 -5.43293 -3.878 0
M  V30 6119 H 567.013 -0.29188 -0.681092 0
M  V30 6120 H 569.66 -1.34524 -1.36292 0
M  V30 6121 H 567.965 -0.623712 -3.86804 0
M  V30 6122 H 569.662 -1.01489 -3.87945 0
M  V30 6123 H 566.252 -2.40898 -3.54494 0
M  V30 6124 H 570.436 -3.38614 -3.62842 0
M  V30 6125 H 565.692 -4.78877 -3.80114 0
M  V30 6126 H 569.866 -5.77142 -3.89718 0
M  V30 6127 H 567.493 -6.47721 -3.97946 0
M  V30 6128 N 569.068 1.32177 -0.85831 0
M  V30 6129 C 570.015 2.28794 -0.303607 0
M  V30 6130 C 570.985 1.55213 0.591453 0
M  V30 6131 O 572.17 1.83418 0.525585 0
M  V30 6132 C 569.31 3.41475 0.49889 0
M  V30 6133 C 568.423 4.2993 -0.422373 0
M  V30 6134 C 567.558 5.29743 0.393111 0
M  V30 6135 C 566.597 6.09842 -0.525317 0
M  V30 6136 N 565.734 7.01643 0.253208 0
M  V30 6137 H 570.574 2.75631 -1.13276 0
M  V30 6138 H 568.111 1.35606 -0.570026 0
M  V30 6139 H 570.069 4.05531 0.979826 0
M  V30 6140 H 568.699 2.95779 1.29284 0
M  V30 6141 H 567.751 3.66422 -1.02171 0
M  V30 6142 H 569.063 4.85899 -1.12709 0
M  V30 6143 H 568.217 5.9942 0.937056 0
M  V30 6144 H 566.956 4.744 1.13117 0
M  V30 6145 H 565.961 5.39066 -1.08112 0
M  V30 6146 H 567.186 6.6727 -1.26205 0
M  V30 6147 H 565.132 6.48725 0.974295 0
M  V30 6148 H 565.049 7.54981 -0.392398 0
M  V30 6149 H 566.317 7.756 0.778761 0
M  V30 6150 N 570.547 0.616602 1.45037 0
M  V30 6151 C 571.795 0.115103 2.01772 0
M  V30 6152 C 572.116 -1.2622 1.48639 0
M  V30 6153 O 571.386 -1.83563 0.684199 0
M  V30 6154 H 569.966 0.0395607 0.745952 0
M  V30 6155 H 572.628 0.800032 1.77723 0
M  V30 6156 H 571.724 0.0717274 3.12018 0
M  V30 6157 N 572.025 -1.5352 0.356285 0
M  V30 6158 C 573.272 -2.01117 -0.236303 0
M  V30 6159 C 573.6 -1.24381 -1.49531 0
M  V30 6160 O 572.855 -0.323057 -1.93015 0
M  V30 6161 C 573.154 -3.52607 -0.583369 0
M  V30 6162 C 572.82 -4.47151 0.58023 0
M  V30 6163 C 571.482 -4.72718 0.899528 0
M  V30 6164 C 573.834 -5.03137 1.36024 0
M  V30 6165 C 571.162 -5.51523 2.00098 0
M  V30 6166 C 573.514 -5.83145 2.45204 0
M  V30 6167 C 572.178 -6.07001 2.77679 0
M  V30 6168 H 571.448 -0.735938 -0.0864695 0
M  V30 6169 H 574.095 -1.85209 0.48683 0
M  V30 6170 H 572.4 -3.66413 -1.38739 0
M  V30 6171 H 574.097 -3.86901 -1.05397 0
M  V30 6172 H 570.687 -4.27394 0.321322 0
M  V30 6173 H 574.871 -4.83339 1.12682 0
M  V30 6174 H 570.127 -5.68229 2.25668 0
M  V30 6175 H 574.301 -6.25537 3.06067 0
M  V30 6176 H 571.928 -6.67851 3.63151 0
M  V30 6177 N 573.503 -0.0852151 -1.57369 0
M  V30 6178 C 574.728 0.592872 -1.98746 0
M  V30 6179 C 575.153 1.61538 -0.963689 0
M  V30 6180 O 574.511 1.81168 0.069071 0
M  V30 6181 C 574.559 1.22599 -3.39119 0
M  V30 6182 O 573.663 2.34185 -3.39457 0
M  V30 6183 H 573.004 0.151314 -0.646529 0
M  V30 6184 H 575.534 -0.163703 -2.03944 0
M  V30 6185 H 575.544 1.56965 -3.76598 0
M  V30 6186 H 574.219 0.476831 -4.13158 0
M  V30 6187 H 572.796 2.01512 -3.13763 0
M  V30 6188 N 574.981 1.5647 0.188427 0
M  V30 6189 C 576.228 1.81013 0.907779 0
M  V30 6190 C 576.556 0.65953 1.82977 0
M  V30 6191 O 575.811 -0.354308 1.92466 0
M  V30 6192 C 576.11 3.11596 1.7505 0
M  V30 6193 C 575.776 4.40145 0.978922 0
M  V30 6194 C 574.438 4.75066 0.765912 0
M  V30 6195 C 576.79 5.19369 0.436498 0
M  V30 6196 C 574.118 5.867 -0.00089868 0
M  V30 6197 C 576.47 6.31805 -0.317136 0
M  V30 6198 C 575.134 6.65303 -0.541103 0
M  V30 6199 H 574.404 0.662373 0.33218 0
M  V30 6200 H 577.051 1.9071 0.173732 0
M  V30 6201 H 575.356 2.97165 2.55343 0
M  V30 6202 H 577.053 3.27793 2.30983 0
M  V30 6203 H 573.643 4.12745 1.15497 0
M  V30 6204 H 577.827 4.92799 0.588449 0
M  V30 6205 H 573.083 6.11122 -0.184329 0
M  V30 6206 H 577.257 6.92406 -0.744788 0
M  V30 6207 H 574.884 7.51646 -1.13718 0
M  V30 6208 N 576.459 -0.456382 1.50847 0
M  V30 6209 C 577.705 -1.20914 1.62811 0
M  V30 6210 C 578.038 -1.91301 0.334304 0
M  V30 6211 O 577.313 -1.82775 -0.665098 0
M  V30 6212 C 577.596 -2.24122 2.81853 0
M  V30 6213 C 577.449 -1.57944 4.21158 0
M  V30 6214 C 578.768 -3.25295 2.96431 0
M  V30 6215 H 575.887 -0.438233 0.592554 0
M  V30 6216 H 578.529 -0.50091 1.83278 0
M  V30 6217 H 576.679 -2.84524 2.64534 0
M  V30 6218 H 578.351 -1.01025 4.50102 0
M  V30 6219 H 576.594 -0.882185 4.24735 0
M  V30 6220 H 577.265 -2.33014 5.00408 0
M  V30 6221 H 579.741 -2.7493 3.12335 0
M  V30 6222 H 578.617 -3.94822 3.81322 0
M  V30 6223 H 578.878 -3.90286 2.07676 0
M  V30 6224 N 577.937 -1.40673 -0.710563 0
M  V30 6225 C 578.9 -1.4108 -1.80635 0
M  V30 6226 C 579.9 -0.303783 -1.57904 0
M  V30 6227 O 581.09 -0.562937 -1.64853 0
M  V30 6228 C 578.222 -1.20748 -3.18799 0
M  V30 6229 H 579.415 -2.38612 -1.81671 0
M  V30 6230 H 576.968 -1.26595 -0.916704 0
M  V30 6231 H 577.703 -0.239964 -3.23411 0
M  V30 6232 H 577.488 -2.00941 -3.36698 0
M  V30 6233 H 578.978 -1.23833 -3.98817 0
M  V30 6234 N 579.415 0.9433 -1.26252 0
M  V30 6235 C 580.643 1.72367 -1.14443 0
M  V30 6236 C 581.058 1.86392 0.300572 0
M  V30 6237 O 580.415 1.36978 1.20596 0
M  V30 6238 C 580.466 3.13155 -1.806 0
M  V30 6239 O 580.187 2.99803 -3.19452 0
M  V30 6240 C 581.688 4.07417 -1.74717 0
M  V30 6241 H 578.908 0.539758 -0.398626 0
M  V30 6242 H 581.452 1.18268 -1.66832 0
M  V30 6243 H 579.607 3.64162 -1.32154 0
M  V30 6244 H 580.021 3.88697 -3.52158 0
M  V30 6245 H 581.495 5.03773 -2.25647 0
M  V30 6246 H 581.972 4.3337 -0.713244 0
M  V30 6247 H 582.578 3.6233 -2.22704 0
M  V30 6248 N 580.893 1.08022 1.14757 0
M  V30 6249 C 582.118 0.82895 1.90114 0
M  V30 6250 C 582.543 -0.612772 1.77839 0
M  V30 6251 O 581.901 -1.42895 1.11583 0
M  V30 6252 C 581.949 1.25062 3.38219 0
M  V30 6253 O 581.053 0.400119 4.10454 0
M  V30 6254 H 580.394 0.301412 0.591648 0
M  V30 6255 H 582.924 1.44062 1.45284 0
M  V30 6256 H 582.934 1.22977 3.89025 0
M  V30 6257 H 581.609 2.30067 3.46471 0
M  V30 6258 H 580.186 0.484052 3.69745 0
M  V30 6259 N 582.371 -1.3172 0.865308 0
M  V30 6260 C 583.62 -1.96145 0.470098 0
M  V30 6261 C 583.933 -1.69182 -0.981674 0
M  V30 6262 O 585.139 -2.27431 -1.48281 0
M  V30 6263 C 583.595 -3.51129 0.789732 0
M  V30 6264 C 583.203 -3.86938 2.25795 0
M  V30 6265 C 584.947 -4.2197 0.462765 0
M  V30 6266 C 582.854 -5.35012 2.52024 0
M  V30 6267 H 581.784 -0.734105 0.172065 0
M  V30 6268 H 584.435 -1.49959 1.05757 0
M  V30 6269 H 582.817 -3.95781 0.131571 0
M  V30 6270 H 583.991 -3.5326 2.95879 0
M  V30 6271 H 582.306 -3.29149 2.55049 0
M  V30 6272 H 584.903 -5.30904 0.636019 0
M  V30 6273 H 585.246 -4.12005 -0.59645 0
M  V30 6274 H 585.779 -3.82936 1.07727 0
M  V30 6275 H 582.518 -5.50008 3.56611 0
M  V30 6276 H 582.038 -5.70058 1.8653 0
M  V30 6277 H 583.717 -6.0222 2.36515 0
M  V30 6278 N 583.85 -0.624285 -1.44708 0
M  V30 6279 C 584.812 0.0749638 -2.29077 0
M  V30 6280 C 585.812 0.778965 -1.40673 0
M  V30 6281 O 587.003 0.624591 -1.62618 0
M  V30 6282 C 584.135 1.11663 -3.22094 0
M  V30 6283 H 585.327 -0.667013 -2.92388 0
M  V30 6284 H 582.88 -0.384098 -1.51507 0
M  V30 6285 H 583.615 1.88881 -2.63618 0
M  V30 6286 H 583.401 0.61583 -3.87234 0
M  V30 6287 H 584.891 1.60585 -3.8549 0
M  V30 6288 N 585.328 1.53329 -0.364422 0
M  V30 6289 C 586.238 2.29414 0.490552 0
M  V30 6290 C 587.254 1.35335 1.09363 0
M  V30 6291 O 588.43 1.68391 1.10483 0
M  V30 6292 C 585.495 3.06772 1.61529 0
M  V30 6293 C 584.556 4.16516 1.03986 0
M  V30 6294 C 583.789 4.90176 2.111 0
M  V30 6295 O 584.012 4.63687 3.32191 0
M  V30 6296 O 582.946 5.76134 1.74222 0
M  V30 6297 H 586.772 3.03428 -0.12856 0
M  V30 6298 H 584.357 1.48843 -0.128837 0
M  V30 6299 H 586.239 3.55082 2.26924 0
M  V30 6300 H 584.914 2.35596 2.21983 0
M  V30 6301 H 583.821 3.7246 0.349856 0
M  V30 6302 H 585.154 4.89855 0.4799 0
M  V30 6303 N 586.806 0.0935595 1.57322 0
M  V30 6304 C 587.716 -0.880192 2.17462 0
M  V30 6305 C 588.732 -1.31135 1.14366 0
M  V30 6306 O 589.908 -1.37958 1.46729 0
M  V30 6307 C 586.973 -2.12184 2.74188 0
M  V30 6308 C 586.034 -1.74503 3.92234 0
M  V30 6309 C 585.267 -2.92748 4.46245 0
M  V30 6310 O 585.49 -4.07427 3.99198 0
M  V30 6311 O 584.424 -2.71303 5.37288 0
M  V30 6312 H 588.25 -0.398516 3.01074 0
M  V30 6313 H 585.835 -0.130707 1.48827 0
M  V30 6314 H 587.717 -2.84953 3.10451 0
M  V30 6315 H 586.392 -2.59407 1.93623 0
M  V30 6316 H 585.299 -0.989186 3.60785 0
M  V30 6317 H 586.632 -1.32044 4.74157 0
M  V30 6318 N 588.284 -1.56567 -0.180126 0
M  V30 6319 C 589.514 -1.85349 -0.912647 0
M  V30 6320 C 589.922 -0.675795 -1.76719 0
M  V30 6321 O 589.265 0.3645 -1.80047 0
M  V30 6322 C 589.327 -3.08431 -1.84691 0
M  V30 6323 C 588.991 -4.41694 -1.17284 0
M  V30 6324 C 589.988 -5.17062 -0.542532 0
M  V30 6325 C 587.673 -4.8843 -1.17223 0
M  V30 6326 C 589.667 -6.37351 0.0793953 0
M  V30 6327 C 587.354 -6.08652 -0.54647 0
M  V30 6328 C 588.352 -6.82955 0.0782458 0
M  V30 6329 O 588.04 -8.00897 0.694158 0
M  V30 6330 H 587.772 -0.619286 -0.271036 0
M  V30 6331 H 590.326 -2.0454 -0.187768 0
M  V30 6332 H 588.556 -2.85163 -2.61188 0
M  V30 6333 H 590.245 -3.23733 -2.44851 0
M  V30 6334 H 591.011 -4.8204 -0.535045 0
M  V30 6335 H 586.89 -4.30542 -1.64788 0
M  V30 6336 H 590.434 -6.95287 0.567612 0
M  V30 6337 H 586.331 -6.4314 -0.55151 0
M  V30 6338 H 587.099 -8.16352 0.592537 0
M  V30 6339 N 589.762 0.448376 -1.51087 0
M  V30 6340 C 590.709 1.54341 -1.71603 0
M  V30 6341 C 591.679 1.56463 -0.557536 0
M  V30 6342 O 592.864 1.73644 -0.79072 0
M  V30 6343 C 590.004 2.92148 -1.83695 0
M  V30 6344 C 589.117 2.99639 -3.11192 0
M  V30 6345 C 588.252 4.285 -3.13944 0
M  V30 6346 C 587.291 4.29819 -4.35801 0
M  V30 6347 N 586.428 5.50186 -4.36164 0
M  V30 6348 H 591.268 1.36151 -2.65079 0
M  V30 6349 H 588.805 0.661585 -1.31383 0
M  V30 6350 H 590.763 3.72093 -1.88687 0
M  V30 6351 H 589.393 3.0892 -0.936374 0
M  V30 6352 H 588.445 2.12425 -3.15562 0
M  V30 6353 H 589.757 2.96474 -4.01129 0
M  V30 6354 H 588.911 5.16811 -3.17791 0
M  V30 6355 H 587.65 4.34307 -2.21876 0
M  V30 6356 H 586.655 3.39902 -4.32142 0
M  V30 6357 H 587.88 4.25685 -5.29121 0
M  V30 6358 H 585.826 5.56735 -3.46961 0
M  V30 6359 H 585.743 5.48856 -5.19897 0
M  V30 6360 H 587.011 6.40559 -4.44189 0
M  V30 6361 N 591.24 1.41047 0.703093 0
M  V30 6362 C 592.489 1.39301 1.4587 0
M  V30 6363 C 592.802 0.00267077 1.956 0
M  V30 6364 O 594.008 -0.137414 2.71152 0
M  V30 6365 C 592.464 2.44891 2.63735 0
M  V30 6366 C 592.072 3.89796 2.20824 0
M  V30 6367 C 593.816 2.5227 3.41409 0
M  V30 6368 C 591.723 4.86955 3.35602 0
M  V30 6369 H 590.653 0.518005 0.547893 0
M  V30 6370 H 593.304 1.66839 0.764009 0
M  V30 6371 H 591.686 2.10472 3.35436 0
M  V30 6372 H 592.86 4.33424 1.56461 0
M  V30 6373 H 591.175 3.86008 1.56163 0
M  V30 6374 H 593.772 3.22044 4.26839 0
M  V30 6375 H 594.115 1.55714 3.86081 0
M  V30 6376 H 594.648 2.85742 2.7676 0
M  V30 6377 H 591.387 5.84888 2.9595 0
M  V30 6378 H 590.907 4.47982 3.98839 0
M  V30 6379 H 592.586 5.07361 4.01489 0
M  V30 6380 N 592.718 -0.936591 1.26751 0
M  V30 6381 C 593.946 -1.71758 1.15355 0
M  V30 6382 C 594.361 -1.86549 -0.290683 0
M  V30 6383 O 593.718 -1.37616 -1.19868 0
M  V30 6384 C 593.769 -3.12193 1.82258 0
M  V30 6385 O 593.49 -2.98105 3.21038 0
M  V30 6386 C 594.991 -4.06485 1.76875 0
M  V30 6387 H 592.211 -0.537636 0.401483 0
M  V30 6388 H 594.755 -1.17382 1.67457 0
M  V30 6389 H 592.91 -3.63456 1.34083 0
M  V30 6390 H 593.324 -3.86824 3.54214 0
M  V30 6391 H 594.798 -5.02569 2.28316 0
M  V30 6392 H 595.275 -4.32986 0.736216 0
M  V30 6393 H 595.881 -3.61144 2.24623 0
M  V30 6394 N 594.196 -1.08629 -1.14182 0
M  V30 6395 C 595.607 -0.838003 -1.66836 0
M  V30 6396 C 595.958 0.634885 -1.85644 0
M  V30 6397 O 595.083 1.49008 -1.56926 0
M  V30 6398 C 595.678 -1.51465 -3.03058 0
M  V30 6399 C 594.237 -1.31355 -3.52736 0
M  V30 6400 C 593.384 -1.57599 -2.28162 0
M  V30 6401 H 596.335 -1.24656 -0.982165 0
M  V30 6402 H 596.356 -0.943134 -3.68626 0
M  V30 6403 H 595.868 -2.58661 -2.89337 0
M  V30 6404 H 593.969 -0.262384 -3.71675 0
M  V30 6405 H 594.082 -2.04275 -4.33369 0
M  V30 6406 H 592.446 -0.997659 -2.34348 0
M  V30 6407 H 593.229 -2.66006 -2.17015 0
M  V30 6408 N 595.674 1.31259 -0.872281 0
M  V30 6409 C 596.923 1.95893 -0.480493 0
M  V30 6410 C 597.236 1.697 0.972688 0
M  V30 6411 O 598.442 2.28214 1.47073 0
M  V30 6412 C 596.898 3.50705 -0.808342 0
M  V30 6413 C 596.506 3.85735 -2.27844 0
M  V30 6414 C 598.25 4.21719 -0.485136 0
M  V30 6415 C 596.157 5.33668 -2.54858 0
M  V30 6416 H 595.087 0.733182 -0.175955 0
M  V30 6417 H 597.738 1.49396 -1.0655 0
M  V30 6418 H 596.12 3.95706 -0.152558 0
M  V30 6419 H 597.294 3.51686 -2.97748 0
M  V30 6420 H 595.609 3.27792 -2.56791 0
M  V30 6421 H 598.206 5.30559 -0.664166 0
M  V30 6422 H 598.549 4.12316 0.574592 0
M  V30 6423 H 599.082 3.82359 -1.09756 0
M  V30 6424 H 595.821 5.48109 -3.59523 0
M  V30 6425 H 595.341 5.69061 -1.8955 0
M  V30 6426 H 597.02 6.00958 -2.39706 0
M  V30 6427 N 597.152 0.631951 1.44375 0
M  V30 6428 C 598.38 0.143867 2.06399 0
M  V30 6429 C 598.795 -1.18188 1.47231 0
M  V30 6430 O 598.152 -1.72511 0.595498 0
M  V30 6431 C 598.203 0.0238253 3.61492 0
M  V30 6432 O 597.924 1.29715 4.18456 0
M  V30 6433 C 599.425 -0.492856 4.40552 0
M  V30 6434 H 596.645 0.0800542 0.666207 0
M  V30 6435 H 599.189 0.866586 1.85231 0
M  V30 6436 H 597.344 -0.649338 3.81919 0
M  V30 6437 H 597.758 1.14252 5.11905 0
M  V30 6438 H 599.232 -0.525861 5.49489 0
M  V30 6439 H 599.709 -1.52006 4.12057 0
M  V30 6440 H 600.315 0.147085 4.25046 0
M  V30 6441 N 598.631 -1.53133 0.372548 0
M  V30 6442 C 599.856 -2.0625 -0.218098 0
M  V30 6443 C 600.281 -1.24375 -1.41111 0
M  V30 6444 O 599.639 -0.264554 -1.79359 0
M  V30 6445 C 599.687 -3.55858 -0.582876 0
M  V30 6446 O 598.791 -3.76667 -1.67917 0
M  V30 6447 H 598.132 -0.663317 -0.030104 0
M  V30 6448 H 600.662 -1.97477 0.535169 0
M  V30 6449 H 600.672 -3.99007 -0.851925 0
M  V30 6450 H 599.347 -4.14892 0.289428 0
M  V30 6451 H 597.924 -3.45413 -1.40513 0
M  V30 6452 N 600.109 -0.101901 -1.5727 0
M  V30 6453 C 601.072 0.840129 -2.13247 0
M  V30 6454 C 602.072 1.20625 -1.06331 0
M  V30 6455 O 603.262 1.13456 -1.32186 0
M  V30 6456 C 600.394 2.13372 -2.65867 0
M  V30 6457 H 601.587 0.353945 -2.97804 0
M  V30 6458 H 599.14 0.147167 -1.55606 0
M  V30 6459 H 599.875 2.66461 -1.84849 0
M  V30 6460 H 599.66 1.88085 -3.44044 0
M  V30 6461 H 601.15 2.80748 -3.09145 0
M  V30 6462 N 601.587 1.56661 0.17182 0
M  V30 6463 C 602.535 1.97289 1.23207 0
M  V30 6464 C 603.529 0.861566 1.45854 0
M  V30 6465 O 604.735 1.04668 1.4644 0
M  V30 6466 H 601.11 0.627681 0.41415 0
M  V30 6467 H 603.081 2.85662 0.862542 0
M  V30 6468 C 601.83 2.34849 2.564 0
M  V30 6469 H 601.153 3.19903 2.39797 0
M  V30 6470 H 602.593 2.67121 3.29276 0
M  V30 6471 C 601.052 1.19172 3.15119 0
M  V30 6472 O 601.582 0.479113 3.98833 0
M  V30 6473 N 599.788 0.962415 2.74201 0
M  V30 6474 H 599.335 1.54365 2.06226 0
M  V30 6475 H 599.293 0.190272 3.13824 0
M  V30 6476 N 603.065 -0.440357 1.51323 0
M  V30 6477 C 604.311 -1.19181 1.64085 0
M  V30 6478 C 604.644 -1.90936 0.354575 0
M  V30 6479 O 603.919 -1.8347 -0.645675 0
M  V30 6480 C 604.202 -2.2112 2.84215 0
M  V30 6481 C 604.055 -1.53468 4.22809 0
M  V30 6482 C 605.374 -3.22133 2.99864 0
M  V30 6483 H 602.493 -0.431924 0.597169 0
M  V30 6484 H 605.135 -0.481443 1.83799 0
M  V30 6485 H 603.285 -2.81703 2.67537 0
M  V30 6486 H 604.957 -0.962455 4.51148 0
M  V30 6487 H 603.2 -0.837086 4.25647 0
M  V30 6488 H 603.871 -2.27694 5.02852 0
M  V30 6489 H 606.347 -2.71601 3.15233 0
M  V30 6490 H 605.223 -3.90756 3.85488 0
M  V30 6491 H 605.484 -3.88061 2.11804 0
M  V30 6492 N 604.543 -1.41418 -0.695603 0
M  V30 6493 C 605.473 -1.46035 -1.82197 0
M  V30 6494 C 606.454 -0.319025 -1.67082 0
M  V30 6495 O 607.639 -0.530462 -1.86815 0
M  V30 6496 C 604.769 -1.34179 -3.20333 0
M  V30 6497 C 603.723 -2.46123 -3.50154 0
M  V30 6498 C 603.049 -2.19332 -4.87645 0
M  V30 6499 C 604.349 -3.88463 -3.49133 0
M  V30 6500 H 606.043 -2.40303 -1.78591 0
M  V30 6501 H 603.589 -1.15663 -0.857797 0
M  V30 6502 H 605.542 -1.36021 -3.98844 0
M  V30 6503 H 604.266 -0.363952 -3.24566 0
M  V30 6504 H 602.925 -2.43563 -2.73994 0
M  V30 6505 H 602.573 -1.19891 -4.88503 0
M  V30 6506 H 602.273 -2.94344 -5.08562 0
M  V30 6507 H 603.797 -2.22889 -5.68465 0
M  V30 6508 H 605.211 -3.92738 -4.17648 0
M  V30 6509 H 603.608 -4.63158 -3.81582 0
M  V30 6510 H 604.678 -4.16617 -2.48109 0
M  V30 6511 N 606.021 0.929856 -1.27246 0
M  V30 6512 C 607.432 1.49223 -1.12203 0
M  V30 6513 C 607.783 1.93989 0.293731 0
M  V30 6514 O 606.908 1.80978 1.18642 0
M  V30 6515 C 607.503 2.71198 -2.0307 0
M  V30 6516 C 606.062 3.23666 -1.92139 0
M  V30 6517 C 605.209 1.96409 -1.95752 0
M  V30 6518 H 608.16 0.744181 -1.4017 0
M  V30 6519 H 608.181 3.45905 -1.58524 0
M  V30 6520 H 607.693 2.38585 -3.06102 0
M  V30 6521 H 605.794 3.61042 -0.920834 0
M  V30 6522 H 605.907 3.90006 -2.78267 0
M  V30 6523 H 604.271 2.12806 -1.39949 0
M  V30 6524 H 605.054 1.66113 -3.00436 0
M  V30 6525 N 607.499 1.09233 1.13605 0
M  V30 6526 C 608.748 0.82205 1.84188 0
M  V30 6527 C 609.061 -0.654548 1.84323 0
M  V30 6528 O 610.267 -1.04029 2.50779 0
M  V30 6529 C 608.723 1.42066 3.30674 0
M  V30 6530 C 608.331 2.92965 3.38933 0
M  V30 6531 C 610.075 1.22924 4.06313 0
M  V30 6532 C 607.982 3.45922 4.79679 0
M  V30 6533 H 606.912 0.303854 0.690064 0
M  V30 6534 H 609.563 1.31479 1.28006 0
M  V30 6535 H 607.945 0.855613 3.86646 0
M  V30 6536 H 609.119 3.55679 2.92966 0
M  V30 6537 H 607.434 3.11118 2.76757 0
M  V30 6538 H 610.031 1.59945 5.10217 0
M  V30 6539 H 610.374 0.169726 4.15954 0
M  V30 6540 H 610.907 1.76168 3.56665 0
M  V30 6541 H 607.646 4.51484 4.75229 0
M  V30 6542 H 607.166 2.87971 5.26149 0
M  V30 6543 H 608.845 3.43009 5.48592 0
M  V30 6544 N 608.977 -1.30795 0.87923 0
M  V30 6545 C 610.223 -1.96653 0.495519 0
M  V30 6546 C 610.556 -1.69282 -0.951703 0
M  V30 6547 O 609.831 -0.994374 -1.6716 0
M  V30 6548 C 610.114 -3.51898 0.764174 0
M  V30 6549 C 609.967 -3.88808 2.2616 0
M  V30 6550 C 611.286 -4.39462 0.236825 0
M  V30 6551 H 608.405 -0.7143 0.181507 0
M  V30 6552 H 611.047 -1.54765 1.10217 0
M  V30 6553 H 609.197 -3.87709 0.247841 0
M  V30 6554 H 610.869 -3.63051 2.8459 0
M  V30 6555 H 609.112 -3.37082 2.73053 0
M  V30 6556 H 609.783 -4.97086 2.4002 0
M  V30 6557 H 612.259 -4.10528 0.678683 0
M  V30 6558 H 611.135 -5.47018 0.454176 0
M  V30 6559 H 611.396 -4.33621 -0.861683 0
M  V30 6560 N 610.455 -0.639598 -1.44038 0
M  V30 6561 C 611.387 0.0987684 -2.28987 0
M  V30 6562 C 612.4 0.80058 -1.41755 0
M  V30 6563 O 613.589 0.660611 -1.65826 0
M  V30 6564 C 610.689 1.16242 -3.18341 0
M  V30 6565 C 609.862 0.541447 -4.34036 0
M  V30 6566 C 608.921 1.50017 -5.04362 0
M  V30 6567 O 607.947 1.01403 -5.60095 0
M  V30 6568 N 609.149 2.83441 -5.06598 0
M  V30 6569 H 611.914 -0.630305 -2.92997 0
M  V30 6570 H 609.475 -0.481376 -1.54578 0
M  V30 6571 H 611.467 1.80429 -3.62253 0
M  V30 6572 H 610.037 1.79362 -2.56024 0
M  V30 6573 H 609.257 -0.27923 -3.9321 0
M  V30 6574 H 610.545 0.107379 -5.08687 0
M  V30 6575 H 609.943 3.2551 -4.62666 0
M  V30 6576 H 608.5 3.42966 -5.54272 0
M  V30 6577 N 611.933 1.52934 -0.380664 0
M  V30 6578 C 613.182 2.00651 0.205477 0
M  V30 6579 C 613.495 1.27164 1.48623 0
M  V30 6580 O 614.701 1.65547 2.15189 0
M  V30 6581 C 613.157 3.57479 0.416726 0
M  V30 6582 C 612.765 4.39857 -0.850268 0
M  V30 6583 C 614.509 4.13509 0.959702 0
M  V30 6584 C 612.416 5.88269 -0.607773 0
M  V30 6585 H 611.346 0.749684 0.0805614 0
M  V30 6586 H 613.997 1.76508 -0.501732 0
M  V30 6587 H 612.379 3.77836 1.18557 0
M  V30 6588 H 613.553 4.31269 -1.62307 0
M  V30 6589 H 611.868 3.95005 -1.31756 0
M  V30 6590 H 614.465 5.22039 1.15669 0
M  V30 6591 H 614.808 3.69054 1.92626 0
M  V30 6592 H 615.341 3.9701 0.250645 0
M  V30 6593 H 612.08 6.3703 -1.54509 0
M  V30 6594 H 611.6 5.99667 0.126247 0
M  V30 6595 H 613.279 6.46558 -0.239014 0
M  V30 6596 N 613.412 0.11024 1.57214 0
M  V30 6597 C 614.36 -0.860586 2.16094 0
M  V30 6598 C 615.354 -1.28156 1.1078 0
M  V30 6599 O 616.56 -1.25433 1.29099 0
M  V30 6600 H 612.935 -0.295606 0.691463 0
M  V30 6601 H 614.906 -0.33942 2.96463 0
M  V30 6602 C 613.655 -2.10421 2.768 0
M  V30 6603 H 612.978 -1.7892 3.5753 0
M  V30 6604 H 614.418 -2.76375 3.21547 0
M  V30 6605 C 612.877 -2.88823 1.73444 0
M  V30 6606 O 613.407 -3.839 1.18251 0
M  V30 6607 N 611.613 -2.52649 1.43586 0
M  V30 6608 H 611.16 -1.754 1.8866 0
M  V30 6609 H 611.118 -3.05403 0.746735 0
M  V30 6610 N 614.89 -1.56749 -0.16351 0
M  V30 6611 C 616.138 -1.82074 -0.87713 0
M  V30 6612 C 616.459 -0.688503 -1.82441 0
M  V30 6613 O 615.729 0.291085 -1.93725 0
M  V30 6614 H 614.309 -0.671677 -0.326893 0
M  V30 6615 H 616.971 -1.9423 -0.161459 0
M  V30 6616 H 616.067 -2.76407 -1.44934 0
M  V30 6617 N 616.368 0.432326 -1.51554 0
M  V30 6618 C 617.316 1.54572 -1.73811 0
M  V30 6619 C 618.31 1.58246 -0.604539 0
M  V30 6620 O 619.516 1.6193 -0.786041 0
M  V30 6621 H 615.891 0.513626 -0.549265 0
M  V30 6622 H 617.862 1.32977 -2.67132 0
M  V30 6623 C 616.611 2.92181 -1.88483 0
M  V30 6624 H 615.934 2.90088 -2.75116 0
M  V30 6625 H 617.374 3.69439 -2.08065 0
M  V30 6626 C 615.833 3.3065 -0.645909 0
M  V30 6627 O 616.363 4.01216 0.197093 0
M  V30 6628 N 614.569 2.86464 -0.488538 0
M  V30 6629 H 614.116 2.29209 -1.17562 0
M  V30 6630 H 614.074 3.12565 0.339156 0
M  V30 6631 N 617.846 1.41785 0.688094 0
M  V30 6632 C 618.809 1.43936 1.78368 0
M  V30 6633 C 619.809 0.328866 1.57401 0
M  V30 6634 O 620.999 0.589093 1.63937 0
M  V30 6635 C 618.131 1.25804 3.16838 0
M  V30 6636 H 619.324 2.41472 1.77852 0
M  V30 6637 H 616.877 1.28037 0.896448 0
M  V30 6638 H 617.612 0.291386 3.22988 0
M  V30 6639 H 617.397 2.06272 3.33458 0
M  V30 6640 H 618.887 1.30162 3.96797 0
M  V30 6641 N 619.324 -0.923095 1.27737 0
M  V30 6642 C 620.287 -2.00587 1.10894 0
M  V30 6643 C 621.287 -1.60718 0.0514927 0
M  V30 6644 O 622.477 -1.71658 0.296481 0
M  V30 6645 C 619.609 -3.33829 0.690717 0
M  V30 6646 H 620.802 -2.16959 2.07048 0
M  V30 6647 H 618.355 -1.10451 1.1059 0
M  V30 6648 H 619.09 -3.23157 -0.272 0
M  V30 6649 H 618.875 -3.64125 1.45448 0
M  V30 6650 H 620.365 -4.13336 0.595252 0
M  V30 6651 N 620.802 -1.09834 -1.13024 0
M  V30 6652 C 621.734 -0.699379 -2.18269 0
M  V30 6653 C 622.747 0.260841 -1.60697 0
M  V30 6654 O 623.936 0.0462538 -1.7844 0
M  V30 6655 C 621.036 -0.0104537 -3.38898 0
M  V30 6656 C 620.209 -0.993275 -4.25973 0
M  V30 6657 C 619.268 -0.336982 -5.2512 0
M  V30 6658 O 618.294 -0.985892 -5.60597 0
M  V30 6659 N 619.496 0.90716 -5.73368 0
M  V30 6660 H 622.261 -1.60486 -2.5311 0
M  V30 6661 H 619.822 -0.986337 -1.28386 0
M  V30 6662 H 621.814 0.43991 -4.02302 0
M  V30 6663 H 620.384 0.797335 -3.0226 0
M  V30 6664 H 619.604 -1.62208 -3.5928 0
M  V30 6665 H 620.892 -1.65876 -4.81002 0
M  V30 6666 H 620.29 1.45384 -5.46699 0
M  V30 6667 H 618.847 1.30077 -6.38689 0
M  V30 6668 N 622.28 1.30327 -0.886154 0
M  V30 6669 C 623.527 1.96097 -0.505192 0
M  V30 6670 C 623.855 1.69952 0.945868 0
M  V30 6671 O 623.11 0.997653 1.68361 0
M  V30 6672 C 623.409 3.49906 -0.728042 0
M  V30 6673 C 623.075 3.96103 -2.15437 0
M  V30 6674 C 621.737 4.08428 -2.5444 0
M  V30 6675 C 624.089 4.20177 -3.08384 0
M  V30 6676 C 621.417 4.42189 -3.85598 0
M  V30 6677 C 623.769 4.55407 -4.39075 0
M  V30 6678 C 622.433 4.65941 -4.7797 0
M  V30 6679 H 621.703 0.71757 -0.184863 0
M  V30 6680 H 624.35 1.55171 -1.12223 0
M  V30 6681 H 622.655 3.9179 -0.027978 0
M  V30 6682 H 624.352 3.98869 -0.412862 0
M  V30 6683 H 620.942 3.87017 -1.84162 0
M  V30 6684 H 625.126 4.10134 -2.7947 0
M  V30 6685 H 620.382 4.48544 -4.15473 0
M  V30 6686 H 624.556 4.72986 -5.11133 0
M  V30 6687 H 622.183 4.91856 -5.79639 0
M  V30 6688 N 623.758 0.647228 1.43697 0
M  V30 6689 C 625.006 0.157876 2.01482 0
M  V30 6690 C 625.327 -1.23039 1.51282 0
M  V30 6691 O 624.597 -1.82071 0.722982 0
M  V30 6692 H 623.177 0.0553745 0.744945 0
M  V30 6693 H 625.839 0.83755 1.75986 0
M  V30 6694 H 624.935 0.137895 3.11795 0
M  V30 6695 N 625.236 -1.5273 0.388769 0
M  V30 6696 C 626.146 -2.30165 -0.453993 0
M  V30 6697 C 627.162 -1.37058 -1.07197 0
M  V30 6698 O 628.338 -1.70127 -1.0779 0
M  V30 6699 C 625.403 -3.09303 -1.56628 0
M  V30 6700 C 624.464 -4.18117 -0.973467 0
M  V30 6701 C 623.697 -4.93472 -2.03275 0
M  V30 6702 O 623.92 -4.68913 -3.24772 0
M  V30 6703 O 622.854 -5.78833 -1.65034 0
M  V30 6704 H 626.68 -3.03185 0.176816 0
M  V30 6705 H 624.265 -1.4862 0.152501 0
M  V30 6706 H 626.147 -3.58648 -2.21246 0
M  V30 6707 H 624.822 -2.39098 -2.18206 0
M  V30 6708 H 623.729 -3.7297 -0.290556 0
M  V30 6709 H 625.062 -4.90556 -0.401908 0
M  V30 6710 N 626.714 -0.118576 -1.57153 0
M  V30 6711 C 627.96 0.540326 -1.95469 0
M  V30 6712 C 628.293 1.66356 -1.00196 0
M  V30 6713 O 627.568 1.94461 -0.039104 0
M  V30 6714 C 627.851 1.07342 -3.43729 0
M  V30 6715 C 627.704 -0.0463732 -4.49776 0
M  V30 6716 C 629.023 1.96442 -3.93826 0
M  V30 6717 H 626.142 0.19494 -0.710751 0
M  V30 6718 H 628.784 -0.19405 -1.89006 0
M  V30 6719 H 626.934 1.69925 -3.49368 0
M  V30 6720 H 628.606 -0.681648 -4.56236 0
M  V30 6721 H 626.849 -0.709574 -4.27957 0
M  V30 6722 H 627.52 0.367856 -5.50773 0
M  V30 6723 H 629.996 1.43731 -3.90488 0
M  V30 6724 H 628.872 2.3066 -4.98084 0
M  V30 6725 H 629.133 2.89077 -3.34495 0
M  V30 6726 N 628.193 1.56834 0.155195 0
M  V30 6727 C 629.423 1.86778 0.883044 0
M  V30 6728 C 629.831 0.703824 1.75622 0
M  V30 6729 O 629.174 -0.33581 1.80605 0
M  V30 6730 C 629.236 3.1133 1.79761 0
M  V30 6731 C 628.9 4.43504 1.10242 0
M  V30 6732 C 629.897 5.17859 0.460204 0
M  V30 6733 C 627.582 4.90233 1.09437 0
M  V30 6734 C 629.576 6.37144 -0.180782 0
M  V30 6735 C 627.263 6.09444 0.449569 0
M  V30 6736 C 628.261 6.82744 -0.186888 0
M  V30 6737 O 627.949 7.99692 -0.821486 0
M  V30 6738 H 627.681 0.62352 0.261149 0
M  V30 6739 H 630.235 2.04813 0.155204 0
M  V30 6740 H 628.465 2.89282 2.56618 0
M  V30 6741 H 630.154 3.27587 2.39669 0
M  V30 6742 H 630.92 4.8283 0.458289 0
M  V30 6743 H 626.799 4.33109 1.57917 0
M  V30 6744 H 630.343 6.94296 -0.678154 0
M  V30 6745 H 626.24 6.43936 0.449123 0
M  V30 6746 H 627.008 8.15306 -0.722337 0
M  V30 6747 N 629.671 -0.424282 1.51781 0
M  V30 6748 C 630.581 -1.54087 1.76902 0
M  V30 6749 C 631.597 -1.61249 0.653826 0
M  V30 6750 O 632.773 -1.78247 0.937552 0
M  V30 6751 C 629.838 -2.8996 1.90063 0
M  V30 6752 C 628.899 -2.92809 3.13945 0
M  V30 6753 C 628.132 -4.22201 3.26469 0
M  V30 6754 O 628.355 -5.15286 2.44616 0
M  V30 6755 O 627.289 -4.31599 4.1953 0
M  V30 6756 H 631.115 -1.358 2.71647 0
M  V30 6757 H 628.7 -0.608618 1.36441 0
M  V30 6758 H 630.582 -3.70575 2.0063 0
M  V30 6759 H 629.257 -3.08347 0.985067 0
M  V30 6760 H 628.164 -2.11102 3.08847 0
M  V30 6761 H 629.497 -2.79369 4.05233 0
M  V30 6762 N 631.149 -1.42148 -0.680565 0
M  V30 6763 C 632.079 -1.4796 -1.80638 0
M  V30 6764 C 633.06 -0.336728 -1.66734 0
M  V30 6765 O 634.245 -0.550247 -1.86242 0
M  V30 6766 C 631.375 -1.37569 -3.18892 0
M  V30 6767 C 630.329 -2.49823 -3.47524 0
M  V30 6768 C 629.655 -2.24491 -4.85291 0
M  V30 6769 C 630.955 -3.92144 -3.44994 0
M  V30 6770 H 632.649 -2.42184 -1.76032 0
M  V30 6771 H 630.195 -1.16566 -0.845481 0
M  V30 6772 H 632.148 -1.40243 -3.97379 0
M  V30 6773 H 630.872 -0.398357 -3.24162 0
M  V30 6774 H 629.531 -2.46455 -2.71395 0
M  V30 6775 H 629.179 -1.25066 -4.87204 0
M  V30 6776 H 628.879 -2.99722 -5.05411 0
M  V30 6777 H 630.403 -2.28906 -5.66069 0
M  V30 6778 H 631.817 -3.97145 -4.13459 0
M  V30 6779 H 630.214 -4.67179 -3.76648 0
M  V30 6780 H 631.284 -4.19225 -2.43676 0
M  V30 6781 N 632.627 0.916307 -1.28225 0
M  V30 6782 C 633.574 2.01841 -1.11932 0
M  V30 6783 C 634.544 1.66091 -0.0171604 0
M  V30 6784 O 635.729 1.89934 -0.181617 0
M  V30 6785 C 632.869 3.36065 -0.784504 0
M  V30 6786 C 631.982 3.847 -1.96544 0
M  V30 6787 C 631.117 5.07423 -1.57149 0
M  V30 6788 C 630.156 5.48384 -2.71922 0
M  V30 6789 N 629.293 6.62298 -2.33037 0
M  V30 6790 H 634.133 2.1511 -2.06232 0
M  V30 6791 H 631.67 1.05366 -1.02647 0
M  V30 6792 H 633.628 4.13272 -0.571148 0
M  V30 6793 H 632.258 3.22571 0.121565 0
M  V30 6794 H 631.31 3.03673 -2.291 0
M  V30 6795 H 632.622 4.1102 -2.82603 0
M  V30 6796 H 631.776 5.92165 -1.32004 0
M  V30 6797 H 630.515 4.82906 -0.682153 0
M  V30 6798 H 629.52 4.62184 -2.97768 0
M  V30 6799 H 630.745 5.7489 -3.61494 0
M  V30 6800 H 628.691 6.39416 -1.4657 0
M  V30 6801 H 628.608 6.8833 -3.12631 0
M  V30 6802 H 629.876 7.50352 -2.11169 0
M  V30 6803 N 634.105 1.10431 1.1244 0
M  V30 6804 C 635.015 0.765502 2.21759 0
M  V30 6805 C 636.031 -0.236966 1.72379 0
M  V30 6806 O 637.207 -0.0757329 2.01258 0
M  V30 6807 C 634.272 0.202316 3.46109 0
M  V30 6808 C 633.333 1.26205 4.1033 0
M  V30 6809 C 632.566 0.725648 5.28744 0
M  V30 6810 O 632.789 -0.447942 5.68638 0
M  V30 6811 O 631.723 1.48555 5.83279 0
M  V30 6812 H 635.549 1.67801 2.53133 0
M  V30 6813 H 633.134 0.879443 1.20773 0
M  V30 6814 H 635.016 -0.107918 4.21262 0
M  V30 6815 H 633.691 -0.683052 3.16411 0
M  V30 6816 H 632.598 1.62514 3.36957 0
M  V30 6817 H 633.931 2.12044 4.44183 0
M  V30 6818 N 635.583 -1.29855 0.893053 0
M  V30 6819 C 636.86 -1.90694 0.435336 0
M  V30 6820 C 637.24 -1.8111 -1.08454 0
M  V30 6821 O 636.588 -1.23352 -1.92345 0
M  V30 6822 C 636.798 -3.36033 0.942472 0
M  V30 6823 C 638.146 -4.13083 0.982226 0
M  V30 6824 O 639.17 -3.4491 0.889686 0
M  V30 6825 O 638.029 -5.34896 1.12022 0
M  V30 6826 H 635.123 -0.815978 0.134567 0
M  V30 6827 H 637.669 -1.38367 0.982484 0
M  V30 6828 H 636.441 -3.37132 1.9864 0
M  V30 6829 H 636.064 -3.95828 0.374952 0
M  V30 6830 N 637.061 -0.65484 -1.43351 0
M  V30 6831 C 638.31 -0.166215 -2.01014 0
M  V30 6832 C 638.623 1.22764 -1.52278 0
M  V30 6833 O 639.829 1.81156 -2.02224 0
M  V30 6834 C 638.285 -0.246341 -3.59056 0
M  V30 6835 C 637.893 -1.64299 -4.16785 0
M  V30 6836 C 639.637 0.184597 -4.24098 0
M  V30 6837 C 637.544 -1.67695 -5.67126 0
M  V30 6838 H 636.474 -0.0583769 -0.751737 0
M  V30 6839 H 639.125 -0.817111 -1.64303 0
M  V30 6840 H 637.507 0.472092 -3.93176 0
M  V30 6841 H 638.681 -2.3869 -3.94162 0
M  V30 6842 H 636.996 -2.02004 -3.6412 0
M  V30 6843 H 639.593 0.179088 -5.344 0
M  V30 6844 H 639.936 1.21632 -3.98135 0
M  V30 6845 H 640.469 -0.482141 -3.94867 0
M  V30 6846 H 637.208 -2.68783 -5.9786 0
M  V30 6847 H 636.728 -0.976313 -5.91801 0
M  V30 6848 H 638.407 -1.42142 -6.31193 0
M  V30 6849 N 638.539 1.52521 -0.396863 0
M  V30 6850 C 639.787 2.01274 0.182536 0
M  V30 6851 C 640.108 1.28485 1.46685 0
M  V30 6852 O 639.378 0.407134 1.91623 0
M  V30 6853 H 637.958 0.743671 0.0704442 0
M  V30 6854 H 640.62 1.87547 -0.530289 0
M  V30 6855 H 639.716 3.09687 0.387385 0
M  V30 6856 N 640.017 0.126909 1.57088 0
M  V30 6857 C 641.263 -0.529952 1.95753 0
M  V30 6858 C 641.596 -1.65823 1.01077 0
M  V30 6859 O 640.871 -1.94437 0.0494162 0
M  V30 6860 C 641.154 -1.05517 3.44294 0
M  V30 6861 C 641.007 0.0702253 4.49745 0
M  V30 6862 C 642.326 -1.9435 3.94862 0
M  V30 6863 H 639.445 -0.191168 0.711775 0
M  V30 6864 H 642.087 0.204071 1.88901 0
M  V30 6865 H 640.237 -1.68069 3.50264 0
M  V30 6866 H 641.909 0.705834 4.55868 0
M  V30 6867 H 640.152 0.732259 4.27575 0
M  V30 6868 H 640.823 -0.338642 5.5096 0
M  V30 6869 H 643.299 -1.41658 3.91244 0
M  V30 6870 H 642.175 -2.28015 4.993 0
M  V30 6871 H 642.436 -2.87299 3.36024 0
M  V30 6872 N 641.495 -1.56914 -0.146875 0
M  V30 6873 C 642.743 -1.82994 -0.85777 0
M  V30 6874 C 643.064 -0.707814 -1.817 0
M  V30 6875 O 642.334 0.270521 -1.94023 0
M  V30 6876 H 640.914 -0.675106 -0.319751 0
M  V30 6877 H 643.576 -1.9439 -0.140849 0
M  V30 6878 H 642.672 -2.77928 -1.41994 0
M  V30 6879 N 642.974 0.416227 -1.52004 0
M  V30 6880 C 644.199 1.19029 -1.69843 0
M  V30 6881 C 644.624 1.83708 -0.404103 0
M  V30 6882 O 643.982 1.69711 0.637787 0
M  V30 6883 C 644.03 2.23439 -2.83032 0
M  V30 6884 O 643.134 3.29419 -2.48106 0
M  V30 6885 H 642.475 0.347785 -0.565634 0
M  V30 6886 H 645.005 0.488871 -1.98674 0
M  V30 6887 H 645.015 2.67884 -3.07737 0
M  V30 6888 H 643.69 1.75745 -3.76944 0
M  V30 6889 H 642.267 2.90303 -2.34048 0
M  V30 6890 N 644.452 1.42507 0.673017 0
M  V30 6891 C 645.682 1.46261 1.45916 0
M  V30 6892 C 646.09 0.0729724 1.89059 0
M  V30 6893 O 645.433 -0.922987 1.58829 0
M  V30 6894 C 645.495 2.32853 2.73898 0
M  V30 6895 C 645.159 3.80699 2.52819 0
M  V30 6896 C 646.156 4.72307 2.17306 0
M  V30 6897 C 643.841 4.24983 2.67758 0
M  V30 6898 C 645.835 6.06192 1.97003 0
M  V30 6899 C 643.522 5.58927 2.4707 0
M  V30 6900 C 644.52 6.49348 2.11746 0
M  V30 6901 O 644.208 7.80817 1.91259 0
M  V30 6902 H 643.94 0.499561 0.455428 0
M  V30 6903 H 646.494 1.87697 0.834196 0
M  V30 6904 H 644.724 1.86268 3.38882 0
M  V30 6905 H 646.413 2.28041 3.35786 0
M  V30 6906 H 647.179 4.39378 2.05359 0
M  V30 6907 H 643.058 3.54893 2.94231 0
M  V30 6908 H 646.602 6.76731 1.69355 0
M  V30 6909 H 642.499 5.91429 2.58615 0
M  V30 6910 H 643.267 7.92194 2.05843 0
M  V30 6911 N 645.93 -0.909495 1.28709 0
M  V30 6912 C 647.155 -1.69801 1.1909 0
M  V30 6913 C 647.58 -1.86479 -0.246388 0
M  V30 6914 O 646.938 -1.37802 -1.17815 0
M  V30 6915 C 646.986 -3.06543 1.89904 0
M  V30 6916 O 646.09 -3.94268 1.2094 0
M  V30 6917 H 645.431 -0.519783 0.413185 0
M  V30 6918 H 647.961 -1.13689 1.70106 0
M  V30 6919 H 647.971 -3.56748 1.97977 0
M  V30 6920 H 646.646 -2.93722 2.94449 0
M  V30 6921 H 645.223 -3.52702 1.2106 0
M  V30 6922 N 647.408 -1.11026 -1.11852 0
M  V30 6923 C 648.654 -0.857729 -1.83768 0
M  V30 6924 C 648.987 0.615143 -1.842 0
M  V30 6925 O 648.262 1.45391 -1.29196 0
M  V30 6926 C 648.545 -1.41453 -3.31154 0
M  V30 6927 C 648.398 -2.95471 -3.39142 0
M  V30 6928 C 649.717 -1.0619 -4.27097 0
M  V30 6929 H 646.836 -0.313044 -0.667212 0
M  V30 6930 H 649.478 -1.37443 -1.31185 0
M  V30 6931 H 647.628 -0.975052 -3.76065 0
M  V30 6932 H 649.3 -3.4799 -3.02821 0
M  V30 6933 H 647.543 -3.31759 -2.79497 0
M  V30 6934 H 648.214 -3.29515 -4.42859 0
M  V30 6935 H 650.69 -1.44122 -3.90344 0
M  V30 6936 H 649.566 -1.47832 -5.28618 0
M  V30 6937 H 649.827 0.0278912 -4.42091 0
M  V30 6938 N 648.886 1.2938 -0.899927 0
M  V30 6939 C 650.126 1.97332 -0.532871 0
M  V30 6940 C 650.49 1.69385 0.904029 0
M  V30 6941 O 651.691 2.30793 1.37797 0
M  V30 6942 C 649.962 3.47927 -0.817393 0
M  V30 6943 S 651.521 4.3528 -0.55468 0
M  V30 6944 H 648.339 0.682966 -0.197683 0
M  V30 6945 H 650.941 1.57189 -1.16241 0
M  V30 6946 H 649.645 3.65761 -1.86138 0
M  V30 6947 H 649.176 3.93006 -0.175978 0
M  V30 6948 H 651.191 4.92557 0.600182 0
M  V30 6949 N 650.364 0.662433 1.43002 0
M  V30 6950 C 651.311 -0.0235324 2.30788 0
M  V30 6951 C 652.281 -0.805342 1.4527 0
M  V30 6952 O 653.466 -0.78009 1.74124 0
M  V30 6953 C 650.606 -0.977545 3.30965 0
M  V30 6954 C 649.719 -0.190865 4.31578 0
M  V30 6955 C 648.854 -1.13951 5.18834 0
M  V30 6956 C 647.893 -0.343796 6.11134 0
M  V30 6957 N 647.03 -1.2445 6.90982 0
M  V30 6958 H 651.87 0.730921 2.88897 0
M  V30 6959 H 649.407 0.372197 1.42313 0
M  V30 6960 H 651.365 -1.54437 3.87563 0
M  V30 6961 H 649.995 -1.69877 2.74484 0
M  V30 6962 H 649.047 0.492388 3.772 0
M  V30 6963 H 650.359 0.427464 4.96965 0
M  V30 6964 H 649.513 -1.77666 5.80103 0
M  V30 6965 H 648.252 -1.79174 4.53595 0
M  V30 6966 H 647.257 0.30665 5.48944 0
M  V30 6967 H 648.482 0.304161 6.78419 0
M  V30 6968 H 646.428 -1.88336 6.28383 0
M  V30 6969 H 646.345 -0.680959 7.52927 0
M  V30 6970 H 647.613 -1.86952 7.56749 0
M  V30 6971 N 651.842 -1.52309 0.404946 0
M  V30 6972 C 653.258 -1.59503 0.0556255 0
M  V30 6973 C 653.458 -1.41805 -1.43156 0
M  V30 6974 O 652.514 -1.2429 -2.19792 0
M  V30 6975 C 653.827 -2.95687 0.546801 0
M  V30 6976 C 655.375 -3.08909 0.504413 0
M  V30 6977 C 655.85 -4.47566 0.97203 0
M  V30 6978 N 657.341 -4.53795 0.928679 0
M  V30 6979 C 658.076 -5.59346 1.26174 0
M  V30 6980 N 657.572 -6.72469 1.66604 0
M  V30 6981 N 659.365 -5.49532 1.18198 0
M  V30 6982 H 651.516 -1.6206 1.37296 0
M  V30 6983 H 653.779 -0.762161 0.563751 0
M  V30 6984 H 653.485 -3.13905 1.58609 0
M  V30 6985 H 653.359 -3.77172 -0.0457905 0
M  V30 6986 H 655.746 -2.90378 -0.525819 0
M  V30 6987 H 655.827 -2.2934 1.13301 0
M  V30 6988 H 655.471 -4.6684 2.00057 0
M  V30 6989 H 655.401 -5.25625 0.320292 0
M  V30 6990 H 657.892 -3.72588 0.631369 0
M  V30 6991 H 658.205 -7.48993 1.9034 0
M  V30 6992 H 656.55 -6.73761 1.70504 0
M  V30 6993 H 659.741 -4.60038 0.865011 0
M  V30 6994 H 659.914 -6.31687 1.44485 0
M  V30 6995 N 653.32 -0.135238 -1.57019 0
M  V30 6996 C 654.56 0.521686 -1.9763 0
M  V30 6997 C 654.924 1.62804 -1.01778 0
M  V30 6998 O 656.125 2.345 -1.31389 0
M  V30 6999 C 654.396 1.0257 -3.42365 0
M  V30 7000 S 655.955 1.68888 -4.04997 0
M  V30 7001 H 652.773 0.169064 -0.690607 0
M  V30 7002 H 655.375 -0.224168 -1.94211 0
M  V30 7003 H 654.079 0.209556 -4.09865 0
M  V30 7004 H 653.61 1.80645 -3.49472 0
M  V30 7005 H 655.625 2.97554 -3.97084 0
M  V30 7006 N 654.798 1.5699 0.138552 0
M  V30 7007 C 656.047 1.82998 0.848205 0
M  V30 7008 C 656.36 0.717829 1.81952 0
M  V30 7009 O 657.566 0.863756 2.57394 0
M  V30 7010 C 656.022 3.24379 1.55904 0
M  V30 7011 C 655.63 4.43552 0.62971 0
M  V30 7012 C 657.374 3.59654 2.25498 0
M  V30 7013 C 655.281 5.75957 1.34266 0
M  V30 7014 H 654.211 0.682495 0.320495 0
M  V30 7015 H 656.862 1.83222 0.100924 0
M  V30 7016 H 655.244 3.18567 2.35226 0
M  V30 7017 H 656.418 4.6062 -0.128882 0
M  V30 7018 H 654.733 4.16379 0.0417526 0
M  V30 7019 H 657.33 4.55837 2.79493 0
M  V30 7020 H 657.673 2.86124 3.02388 0
M  V30 7021 H 658.206 3.67164 1.53087 0
M  V30 7022 H 654.945 6.52604 0.615441 0
M  V30 7023 H 654.465 5.62811 2.07375 0
M  V30 7024 H 656.144 6.19046 1.88126 0
M  V30 7025 N 656.276 -0.40816 1.52223 0
M  V30 7026 C 657.226 -1.49648 1.72016 0
M  V30 7027 C 658.21 -1.50311 0.574069 0
M  V30 7028 O 659.402 -1.56271 0.831173 0
M  V30 7029 C 656.531 -2.87566 1.87512 0
M  V30 7030 C 655.617 -2.91547 3.07995 0
M  V30 7031 N 656.008 -2.65225 4.30685 0
M  V30 7032 C 654.306 -3.22715 3.07849 0
M  V30 7033 C 655.007 -2.75799 5.12162 0
M  V30 7034 N 653.983 -3.08719 4.4743 0
M  V30 7035 H 657.785 -1.28093 2.64517 0
M  V30 7036 H 655.299 -0.61588 1.50269 0
M  V30 7037 H 657.296 -3.65899 1.99809 0
M  V30 7038 H 655.956 -3.10118 0.962114 0
M  V30 7039 H 656.967 -2.39601 4.59142 0
M  V30 7040 H 653.644 -3.50856 2.26289 0
M  V30 7041 H 655.034 -2.59155 6.1991 0
M  V30 7042 N 657.755 -1.42862 -0.66545 0
M  V30 7043 C 658.718 -1.46756 -1.76055 0
M  V30 7044 C 659.718 -0.353866 -1.56858 0
M  V30 7045 O 660.908 -0.615099 -1.62979 0
M  V30 7046 C 658.04 -1.30829 -3.14796 0
M  V30 7047 H 659.233 -2.44271 -1.73987 0
M  V30 7048 H 656.786 -1.29447 -0.875965 0
M  V30 7049 H 657.521 -0.342733 -3.22484 0
M  V30 7050 H 657.306 -2.11551 -3.30134 0
M  V30 7051 H 658.796 -1.36458 -3.94676 0
M  V30 7052 N 659.233 0.902656 -1.29189 0
M  V30 7053 C 660.461 1.68639 -1.19869 0
M  V30 7054 C 660.876 1.87254 0.241121 0
M  V30 7055 O 660.233 1.40745 1.16177 0
M  V30 7056 C 660.284 3.07251 -1.90471 0
M  V30 7057 O 660.005 2.89488 -3.28829 0
M  V30 7058 C 661.506 4.01653 -1.8759 0
M  V30 7059 H 658.726 0.526802 -0.415596 0
M  V30 7060 H 661.27 1.12901 -1.7051 0
M  V30 7061 H 659.425 3.59774 -1.43672 0
M  V30 7062 H 659.839 3.77296 -3.64346 0
M  V30 7063 H 661.313 4.96339 -2.4156 0
M  V30 7064 H 661.79 4.30881 -0.850756 0
M  V30 7065 H 662.396 3.55061 -2.34119 0
M  V30 7066 N 660.711 1.11618 1.11262 0
M  V30 7067 C 661.939 0.888739 1.8684 0
M  V30 7068 C 662.354 -0.561558 1.80255 0
M  V30 7069 O 661.711 -1.38782 1.18515 0
M  V30 7070 C 661.762 1.34422 3.35579 0
M  V30 7071 O 661.483 2.73766 3.42029 0
M  V30 7072 C 662.984 1.15246 4.28058 0
M  V30 7073 H 660.204 0.318152 0.590779 0
M  V30 7074 H 662.748 1.48398 1.40707 0
M  V30 7075 H 660.903 0.79239 3.7921 0
M  V30 7076 H 661.317 2.9355 4.34659 0
M  V30 7077 H 662.791 1.52015 5.30656 0
M  V30 7078 H 663.268 0.0922007 4.39103 0
M  V30 7079 H 663.874 1.69136 3.90222 0
M  V30 7080 N 662.189 -1.289 0.906776 0
M  V30 7081 C 663.137 -2.29477 0.379873 0
M  V30 7082 C 664.131 -1.61068 -0.524747 0
M  V30 7083 O 665.337 -1.75344 -0.406765 0
M  V30 7084 H 661.712 -0.744742 0.10423 0
M  V30 7085 H 663.683 -2.71353 1.24137 0
M  V30 7086 C 662.432 -3.45713 -0.371154 0
M  V30 7087 H 661.755 -3.98551 0.315716 0
M  V30 7088 H 663.195 -4.18105 -0.704581 0
M  V30 7089 C 661.654 -2.9774 -1.57646 0
M  V30 7090 O 662.184 -2.99618 -2.67567 0
M  V30 7091 N 660.39 -2.53485 -1.42105 0
M  V30 7092 H 659.937 -2.52156 -0.526783 0
M  V30 7093 H 659.895 -2.21747 -2.22881 0
M  V30 7094 N 663.667 -0.670007 -1.42649 0
M  V30 7095 C 664.6 0.0613623 -2.28117 0
M  V30 7096 C 665.578 0.813414 -1.40792 0
M  V30 7097 O 666.762 0.809529 -1.70232 0
M  V30 7098 C 663.889 1.09399 -3.20546 0
M  V30 7099 C 662.935 0.438064 -4.24244 0
M  V30 7100 S 663.768 -0.800808 -5.29478 0
M  V30 7101 C 664.924 0.23086 -6.25474 0
M  V30 7102 H 665.157 -0.663606 -2.89799 0
M  V30 7103 H 662.69 -0.45939 -1.47407 0
M  V30 7104 H 664.648 1.68469 -3.74337 0
M  V30 7105 H 663.309 1.79137 -2.58009 0
M  V30 7106 H 662.502 1.21707 -4.89084 0
M  V30 7107 H 662.104 -0.0789346 -3.73917 0
M  V30 7108 H 664.396 1.09204 -6.68641 0
M  V30 7109 H 665.339 -0.382945 -7.07064 0
M  V30 7110 H 665.747 0.574191 -5.61572 0
M  V30 7111 N 665.145 1.52092 -0.413018 0
M  V30 7112 C 666.055 2.30858 0.417318 0
M  V30 7113 C 667.071 1.38746 1.05003 0
M  V30 7114 O 668.247 1.71821 1.05069 0
M  V30 7115 C 665.312 3.11756 1.51687 0
M  V30 7116 C 664.373 4.19613 0.906825 0
M  V30 7117 C 663.606 4.96644 1.95399 0
M  V30 7118 O 663.829 4.7402 3.17271 0
M  V30 7119 O 662.763 5.81385 1.55805 0
M  V30 7120 H 666.589 3.02865 -0.225028 0
M  V30 7121 H 664.174 1.48358 -0.176126 0
M  V30 7122 H 666.056 3.62122 2.15512 0
M  V30 7123 H 664.731 2.42539 2.14375 0
M  V30 7124 H 663.638 3.73385 0.231183 0
M  V30 7125 H 664.971 4.91134 0.323814 0
M  V30 7126 N 666.623 0.143563 1.56945 0
M  V30 7127 C 667.87 -0.508407 1.96014 0
M  V30 7128 C 668.198 -1.65099 1.02824 0
M  V30 7129 O 667.453 -1.95618 0.0567764 0
M  V30 7130 C 667.752 -1.05885 3.41355 0
M  V30 7131 C 667.418 -0.0350809 4.50886 0
M  V30 7132 C 666.08 0.246362 4.80569 0
M  V30 7133 C 668.432 0.661282 5.16988 0
M  V30 7134 C 665.76 1.23003 5.73661 0
M  V30 7135 C 668.112 1.63375 6.11139 0
M  V30 7136 C 666.776 1.92292 6.39203 0
M  V30 7137 H 666.046 -0.186039 0.717266 0
M  V30 7138 H 668.693 0.229667 1.90118 0
M  V30 7139 H 666.998 -1.87419 3.44066 0
M  V30 7140 H 668.695 -1.57183 3.6891 0
M  V30 7141 H 665.285 -0.264622 4.27782 0
M  V30 7142 H 669.469 0.457038 4.94191 0
M  V30 7143 H 664.725 1.46056 5.93698 0
M  V30 7144 H 668.899 2.17887 6.61436 0
M  V30 7145 H 666.526 2.68666 7.11142 0
M  V30 7146 N 668.101 -1.57061 -0.130224 0
M  V30 7147 C 669.064 -1.98593 -1.14426 0
M  V30 7148 C 670.064 -0.874584 -1.34936 0
M  V30 7149 O 671.254 -1.14086 -1.31643 0
M  V30 7150 C 668.386 -2.31639 -2.50112 0
M  V30 7151 H 669.579 -2.89374 -0.787561 0
M  V30 7152 H 667.132 -1.51756 -0.374146 0
M  V30 7153 H 667.867 -1.43703 -2.90723 0
M  V30 7154 H 667.652 -3.12684 -2.36583 0
M  V30 7155 H 669.142 -2.64551 -3.23114 0
M  V30 7156 N 669.579 0.400081 -1.52437 0
M  V30 7157 C 670.825 1.14788 -1.67187 0
M  V30 7158 C 671.158 1.89928 -0.405074 0
M  V30 7159 O 670.433 1.85118 0.596804 0
M  V30 7160 C 670.716 2.13507 -2.89977 0
M  V30 7161 C 670.569 1.42204 -4.2673 0
M  V30 7162 C 671.888 3.14069 -3.083 0
M  V30 7163 H 669.007 0.415939 -0.608411 0
M  V30 7164 H 671.649 0.432542 -1.85011 0
M  V30 7165 H 669.799 2.7451 -2.74912 0
M  V30 7166 H 671.471 0.842503 -4.53541 0
M  V30 7167 H 669.714 0.723939 -4.27717 0
M  V30 7168 H 670.385 2.14281 -5.08712 0
M  V30 7169 H 672.861 2.63148 -3.22323 0
M  V30 7170 H 671.737 3.80398 -3.95713 0
M  V30 7171 H 671.998 3.82309 -2.22018 0
M  V30 7172 N 671.057 1.43213 0.657864 0
M  V30 7173 C 672.004 1.48011 1.77092 0
M  V30 7174 C 672.974 0.330291 1.62783 0
M  V30 7175 O 674.159 0.536787 1.83094 0
M  V30 7176 C 671.299 1.40461 3.15222 0
M  V30 7177 C 670.412 2.65612 3.40697 0
M  V30 7178 C 669.547 2.50083 4.68649 0
M  V30 7179 C 668.586 3.70525 4.87214 0
M  V30 7180 N 667.723 3.53835 6.0642 0
M  V30 7181 H 672.563 2.43121 1.72326 0
M  V30 7182 H 670.1 1.20687 0.841013 0
M  V30 7183 H 672.058 1.34079 3.95068 0
M  V30 7184 H 670.688 0.489359 3.19069 0
M  V30 7185 H 669.74 2.82292 2.54982 0
M  V30 7186 H 671.052 3.5509 3.50303 0
M  V30 7187 H 670.206 2.41383 5.56614 0
M  V30 7188 H 668.945 1.58121 4.61356 0
M  V30 7189 H 667.95 3.79639 3.97686 0
M  V30 7190 H 669.175 4.63489 4.96341 0
M  V30 7191 H 667.121 2.64604 6.00267 0
M  V30 7192 H 667.038 4.36912 6.16963 0
M  V30 7193 H 668.306 3.48978 6.97019 0
M  V30 7194 N 672.536 -0.895792 1.29666 0
M  V30 7195 C 673.785 -1.64131 1.17234 0
M  V30 7196 C 674.098 -1.93665 -0.274416 0
M  V30 7197 O 675.304 -2.66472 -0.520105 0
M  V30 7198 C 673.76 -2.95764 2.05065 0
M  V30 7199 C 673.368 -2.7381 3.54587 0
M  V30 7200 C 675.112 -3.737 2.01367 0
M  V30 7201 C 673.019 -4.01194 4.34508 0
M  V30 7202 H 671.949 -0.615742 0.435175 0
M  V30 7203 H 674.6 -0.992626 1.54335 0
M  V30 7204 H 672.982 -3.61867 1.60837 0
M  V30 7205 H 674.156 -2.16277 4.06892 0
M  V30 7206 H 672.471 -2.09265 3.59996 0
M  V30 7207 H 675.068 -4.68152 2.58337 0
M  V30 7208 H 675.411 -4.04245 0.994575 0
M  V30 7209 H 675.944 -3.14444 2.43659 0
M  V30 7210 H 672.683 -3.75813 5.37071 0
M  V30 7211 H 672.203 -4.58272 3.86971 0
M  V30 7212 H 673.882 -4.69307 4.45376 0
M  V30 7213 N 674.014 -1.12206 -1.10668 0
M  V30 7214 C 675.263 -0.870595 -1.81944 0
M  V30 7215 C 675.576 0.605447 -1.85994 0
M  V30 7216 O 676.782 0.973433 -2.53449 0
M  V30 7217 C 675.238 -1.50783 -3.26791 0
M  V30 7218 C 674.846 -3.01849 -3.31046 0
M  V30 7219 C 676.59 -1.33653 -4.02911 0
M  V30 7220 C 674.497 -3.58518 -4.70339 0
M  V30 7221 H 673.427 -0.322043 -0.681765 0
M  V30 7222 H 676.078 -1.34827 -1.24475 0
M  V30 7223 H 674.46 -0.957825 -3.84242 0
M  V30 7224 H 675.634 -3.63321 -2.83433 0
M  V30 7225 H 673.949 -3.18346 -2.68411 0
M  V30 7226 H 676.546 -1.73416 -5.05797 0
M  V30 7227 H 676.889 -0.279949 -4.15358 0
M  V30 7228 H 677.422 -1.85562 -3.51868 0
M  V30 7229 H 674.161 -4.63925 -4.63091 0
M  V30 7230 H 673.681 -3.01819 -5.18329 0
M  V30 7231 H 675.36 -3.57434 -5.39305 0
M  V30 7232 N 675.492 1.28418 -0.913599 0
M  V30 7233 C 676.769 1.89977 -0.465619 0
M  V30 7234 C 677.149 1.82813 1.05559 0
M  V30 7235 O 676.497 1.26397 1.90358 0
M  V30 7236 C 676.707 3.34492 -0.995813 0
M  V30 7237 C 678.055 4.11468 -1.04782 0
M  V30 7238 O 679.079 3.43451 -0.944445 0
M  V30 7239 O 677.938 5.33046 -1.20518 0
M  V30 7240 H 675.032 0.813734 -0.147532 0
M  V30 7241 H 677.578 1.36786 -1.00437 0
M  V30 7242 H 676.35 3.33929 -2.03978 0
M  V30 7243 H 675.973 3.95181 -0.437878 0
M  V30 7244 N 676.97 0.677563 1.42291 0
M  V30 7245 C 677.917 0.000947061 2.308 0
M  V30 7246 C 678.887 -0.789889 1.46116 0
M  V30 7247 O 680.072 -0.761578 1.74942 0
M  V30 7248 C 677.212 -0.942387 3.31984 0
M  V30 7249 C 676.325 -0.14508 4.31756 0
M  V30 7250 C 675.46 -1.08442 5.20013 0
M  V30 7251 C 674.499 -0.278958 6.11464 0
M  V30 7252 N 673.636 -1.17115 6.92263 0
M  V30 7253 H 678.476 0.761521 2.88106 0
M  V30 7254 H 676.013 0.38727 1.41911 0
M  V30 7255 H 677.971 -1.50317 3.89179 0
M  V30 7256 H 676.601 -1.66956 2.76271 0
M  V30 7257 H 675.653 0.532368 3.76656 0
M  V30 7258 H 676.965 0.48015 4.96484 0
M  V30 7259 H 676.119 -1.71504 5.81955 0
M  V30 7260 H 674.858 -1.74353 4.55469 0
M  V30 7261 H 673.863 0.364856 5.48588 0
M  V30 7262 H 675.088 0.376099 6.78058 0
M  V30 7263 H 673.034 -1.81661 6.30345 0
M  V30 7264 H 672.951 -0.601063 7.53607 0
M  V30 7265 H 674.219 -1.78915 7.58689 0
M  V30 7266 N 678.448 -1.51871 0.421078 0
M  V30 7267 C 679.673 -2.0684 -0.152371 0
M  V30 7268 C 680.098 -1.28802 -1.37083 0
M  V30 7269 O 679.456 -0.321482 -1.78427 0
M  V30 7270 C 679.504 -3.57532 -0.469368 0
M  V30 7271 O 678.608 -3.81818 -1.55848 0
M  V30 7272 H 677.949 -0.663939 -0.00898586 0
M  V30 7273 H 680.479 -1.95674 0.597724 0
M  V30 7274 H 680.489 -4.01515 -0.724553 0
M  V30 7275 H 679.164 -4.13761 0.421276 0
M  V30 7276 H 677.741 -3.49709 -1.29453 0
M  V30 7277 N 679.926 -0.151884 -1.56866 0
M  V30 7278 C 680.873 0.785936 -2.17006 0
M  V30 7279 C 681.843 1.2407 -1.10435 0
M  V30 7280 O 683.028 1.31235 -1.38499 0
M  V30 7281 C 680.168 2.01771 -2.79969 0
M  V30 7282 C 679.281 1.6083 -4.00946 0
M  V30 7283 C 678.416 2.79224 -4.51893 0
M  V30 7284 C 677.455 2.3468 -5.65324 0
M  V30 7285 N 676.592 3.461 -6.10867 0
M  V30 7286 H 681.432 0.266286 -2.96808 0
M  V30 7287 H 678.969 0.11972 -1.46612 0
M  V30 7288 H 680.927 2.73989 -3.14621 0
M  V30 7289 H 679.557 2.51139 -2.02803 0
M  V30 7290 H 678.609 0.783592 -3.72242 0
M  V30 7291 H 679.921 1.24119 -4.83111 0
M  V30 7292 H 679.075 3.59625 -4.88625 0
M  V30 7293 H 677.814 3.19183 -3.68746 0
M  V30 7294 H 676.819 1.52721 -5.28163 0
M  V30 7295 H 678.044 1.95801 -6.5026 0
M  V30 7296 H 675.99 3.85671 -5.30654 0
M  V30 7297 H 675.907 3.1342 -6.87971 0
M  V30 7298 H 677.175 4.26844 -6.52246 0
M  V30 7299 N 681.404 1.57128 0.121893 0
M  V30 7300 C 682.82 1.52357 0.47534 0
M  V30 7301 C 683.02 0.864417 1.82017 0
M  V30 7302 O 682.076 0.445529 2.48538 0
M  V30 7303 C 683.389 2.97122 0.4625 0
M  V30 7304 C 684.937 3.08196 0.546255 0
M  V30 7305 C 685.412 4.54516 0.563833 0
M  V30 7306 N 686.903 4.58959 0.625353 0
M  V30 7307 C 687.638 5.69585 0.660354 0
M  V30 7308 N 687.134 6.89714 0.653175 0
M  V30 7309 N 688.927 5.57685 0.703143 0
M  V30 7310 H 681.078 1.98364 -0.75931 0
M  V30 7311 H 683.341 0.905777 -0.279772 0
M  V30 7312 H 683.047 3.48706 -0.457943 0
M  V30 7313 H 682.921 3.54406 1.29136 0
M  V30 7314 H 685.308 2.56617 1.45712 0
M  V30 7315 H 685.389 2.53912 -0.310234 0
M  V30 7316 H 685.033 5.06741 -0.342974 0
M  V30 7317 H 684.963 5.06609 1.43716 0
M  V30 7318 H 687.454 3.72489 0.637182 0
M  V30 7319 H 687.767 7.69781 0.682425 0
M  V30 7320 H 686.112 6.92223 0.620646 0
M  V30 7321 H 689.303 4.62744 0.706095 0
M  V30 7322 H 689.476 6.43909 0.726952 0
M  V30 7323 N 682.882 -0.391992 1.52647 0
M  V30 7324 C 684.159 -1.15136 1.58123 0
M  V30 7325 C 684.539 -2.07786 0.372597 0
M  V30 7326 O 683.887 -2.19374 -0.639304 0
M  V30 7327 C 684.097 -1.91367 2.91856 0
M  V30 7328 C 685.445 -2.46833 3.45483 0
M  V30 7329 O 686.469 -2.01527 2.9371 0
M  V30 7330 O 685.328 -3.29587 4.3593 0
M  V30 7331 H 682.422 -0.526649 0.637629 0
M  V30 7332 H 684.968 -0.397386 1.64982 0
M  V30 7333 H 683.74 -1.23597 3.71268 0
M  V30 7334 H 683.363 -2.73732 2.88369 0
M  V30 7335 N 684.36 -1.4356 -0.65026 0
M  V30 7336 C 685.771 -1.40324 -1.2315 0
M  V30 7337 C 686.122 -0.108812 -1.95898 0
M  V30 7338 O 685.247 0.79163 -2.01401 0
M  V30 7339 C 685.842 -2.54195 -2.23987 0
M  V30 7340 C 684.401 -2.54215 -2.77582 0
M  V30 7341 C 683.548 -2.31752 -1.5227 0
M  V30 7342 H 686.499 -1.52418 -0.442095 0
M  V30 7343 H 686.52 -2.25854 -3.0622 0
M  V30 7344 H 686.032 -3.48392 -1.71011 0
M  V30 7345 H 684.133 -1.63907 -3.34612 0
M  V30 7346 H 684.246 -3.52081 -3.24925 0
M  V30 7347 H 682.61 -1.80476 -1.79723 0
M  V30 7348 H 683.393 -3.28037 -1.01225 0
M  V30 7349 N 685.838 0.888903 -1.30139 0
M  V30 7350 C 687.063 1.67884 -1.21777 0
M  V30 7351 C 687.488 1.86848 0.216689 0
M  V30 7352 O 686.846 1.39659 1.15608 0
M  V30 7353 C 686.894 3.03483 -1.94757 0
M  V30 7354 O 685.998 3.92294 -1.27198 0
M  V30 7355 H 685.339 0.513144 -0.421402 0
M  V30 7356 H 687.869 1.10968 -1.71893 0
M  V30 7357 H 687.879 3.53553 -2.03627 0
M  V30 7358 H 686.554 2.89 -2.99085 0
M  V30 7359 H 685.131 3.50732 -1.26655 0
M  V30 7360 N 687.317 1.12792 1.10072 0
M  V30 7361 C 688.227 0.812369 2.20086 0
M  V30 7362 C 689.243 -0.200349 1.72843 0
M  V30 7363 O 690.419 -0.0330262 2.01373 0
M  V30 7364 C 687.484 0.275685 3.45602 0
M  V30 7365 C 686.545 1.34881 4.07561 0
M  V30 7366 C 685.778 0.837639 5.27086 0
M  V30 7367 O 686.001 -0.327224 5.69461 0
M  V30 7368 O 684.935 1.60894 5.79997 0
M  V30 7369 H 688.761 1.73133 2.49517 0
M  V30 7370 H 686.346 0.904863 1.18881 0
M  V30 7371 H 688.228 -0.0185375 4.21396 0
M  V30 7372 H 686.903 -0.615783 3.17789 0
M  V30 7373 H 685.81 1.69625 3.33434 0
M  V30 7374 H 687.143 2.21418 4.39585 0
M  V30 7375 N 688.795 -1.27931 0.920396 0
M  V30 7376 C 689.705 -2.30824 0.419212 0
M  V30 7377 C 690.721 -1.66767 -0.496461 0
M  V30 7378 O 691.897 -1.97763 -0.38104 0
M  V30 7379 C 688.962 -3.45158 -0.326601 0
M  V30 7380 C 688.023 -4.24754 0.623098 0
M  V30 7381 C 687.256 -5.33629 -0.0872172 0
M  V30 7382 O 687.479 -5.55204 -1.30784 0
M  V30 7383 O 686.413 -5.99091 0.580875 0
M  V30 7384 H 690.239 -2.75716 1.27337 0
M  V30 7385 H 687.824 -1.32747 0.685465 0
M  V30 7386 H 689.706 -4.14716 -0.747559 0
M  V30 7387 H 688.381 -3.02336 -1.15648 0
M  V30 7388 H 687.288 -3.57759 1.09359 0
M  V30 7389 H 688.621 -4.71272 1.41998 0
M  V30 7390 N 690.273 -0.685099 -1.4193 0
M  V30 7391 C 691.522 -0.208816 -2.00616 0
M  V30 7392 C 691.835 1.19506 -1.54847 0
M  V30 7393 O 693.041 1.76826 -2.06021 0
M  V30 7394 C 691.497 -0.322446 -3.58453 0
M  V30 7395 C 691.105 -1.73102 -4.13206 0
M  V30 7396 C 692.849 0.0945979 -4.24395 0
M  V30 7397 C 690.756 -1.79687 -5.63442 0
M  V30 7398 H 689.686 -0.0743092 -0.750329 0
M  V30 7399 H 692.337 -0.851778 -1.62533 0
M  V30 7400 H 690.719 0.388588 -3.94089 0
M  V30 7401 H 691.893 -2.46997 -3.8901 0
M  V30 7402 H 690.208 -2.09682 -3.59753 0
M  V30 7403 H 692.805 0.0656937 -5.3466 0
M  V30 7404 H 693.148 1.1316 -4.00625 0
M  V30 7405 H 693.681 -0.56579 -3.93756 0
M  V30 7406 H 690.42 -2.81404 -5.92024 0
M  V30 7407 H 689.94 -1.10162 -5.89597 0
M  V30 7408 H 691.619 -1.55498 -6.28036 0
M  V30 7409 N 691.751 1.51645 -0.429126 0
M  V30 7410 C 692.661 2.31288 0.392809 0
M  V30 7411 C 693.677 1.39852 1.03525 0
M  V30 7412 O 694.853 1.72926 1.03241 0
M  V30 7413 C 691.918 3.13347 1.48372 0
M  V30 7414 C 690.979 4.20551 0.862268 0
M  V30 7415 C 690.212 4.98688 1.9012 0
M  V30 7416 O 690.435 4.77359 3.12225 0
M  V30 7417 O 689.369 5.83005 1.4963 0
M  V30 7418 H 693.195 3.02609 -0.257138 0
M  V30 7419 H 690.78 1.48163 -0.191851 0
M  V30 7420 H 692.662 3.64387 2.1166 0
M  V30 7421 H 691.337 2.44799 2.1179 0
M  V30 7422 H 690.244 3.73609 0.191568 0
M  V30 7423 H 691.577 4.91449 0.271704 0
M  V30 7424 N 693.229 0.160201 1.56784 0
M  V30 7425 C 694.478 -0.487619 1.95717 0
M  V30 7426 C 694.791 -1.65136 1.0483 0
M  V30 7427 O 695.997 -2.36468 1.33398 0
M  V30 7428 C 694.453 -0.91888 3.47972 0
M  V30 7429 C 694.061 0.218655 4.47466 0
M  V30 7430 C 695.805 -1.53575 3.95746 0
M  V30 7431 C 693.712 -0.231614 5.90946 0
M  V30 7432 H 692.642 -0.185939 0.730714 0
M  V30 7433 H 695.293 0.246657 1.81835 0
M  V30 7434 H 693.675 -1.70881 3.57234 0
M  V30 7435 H 694.849 0.995825 4.49911 0
M  V30 7436 H 693.164 0.744767 4.09685 0
M  V30 7437 H 695.761 -1.88448 5.00391 0
M  V30 7438 H 696.104 -2.42959 3.38048 0
M  V30 7439 H 696.637 -0.810467 3.89456 0
M  V30 7440 H 693.376 0.62718 6.52493 0
M  V30 7441 H 692.896 -0.974379 5.91833 0
M  V30 7442 H 694.575 -0.67922 6.43425 0
M  V30 7443 N 694.707 -1.5719 -0.113559 0
M  V30 7444 C 695.637 -2.03772 -1.14013 0
M  V30 7445 C 696.618 -0.923176 -1.42869 0
M  V30 7446 O 697.803 -1.19325 -1.53216 0
M  V30 7447 C 694.933 -2.44663 -2.4649 0
M  V30 7448 C 693.887 -3.59612 -2.32085 0
M  V30 7449 C 693.213 -3.8642 -3.69573 0
M  V30 7450 C 694.513 -4.91149 -1.7768 0
M  V30 7451 H 696.207 -2.89785 -0.752665 0
M  V30 7452 H 693.753 -1.39412 -0.360609 0
M  V30 7453 H 695.706 -2.75857 -3.18561 0
M  V30 7454 H 694.43 -1.55628 -2.87137 0
M  V30 7455 H 693.089 -3.28636 -1.62461 0
M  V30 7456 H 692.737 -2.94581 -4.07715 0
M  V30 7457 H 692.437 -4.63797 -3.60786 0
M  V30 7458 H 693.961 -4.2007 -4.4314 0
M  V30 7459 H 695.375 -5.20843 -2.39574 0
M  V30 7460 H 693.772 -5.72562 -1.79701 0
M  V30 7461 H 694.842 -4.79301 -0.734776 0
M  V30 7462 N 696.185 0.383891 -1.52853 0
M  V30 7463 C 697.118 1.49105 -1.72751 0
M  V30 7464 C 698.096 1.52077 -0.575438 0
M  V30 7465 O 699.28 1.70406 -0.805854 0
M  V30 7466 C 696.407 2.87551 -1.78975 0
M  V30 7467 C 695.453 3.02383 -3.00777 0
M  V30 7468 S 696.286 2.73048 -4.60657 0
M  V30 7469 C 697.442 4.13678 -4.69704 0
M  V30 7470 H 697.675 1.32002 -2.66388 0
M  V30 7471 H 695.208 0.577088 -1.4321 0
M  V30 7472 H 697.166 3.6733 -1.83246 0
M  V30 7473 H 695.827 3.01977 -0.864215 0
M  V30 7474 H 695.02 4.03733 -3.01688 0
M  V30 7475 H 694.622 2.30504 -2.94523 0
M  V30 7476 H 696.914 5.07676 -4.48633 0
M  V30 7477 H 697.857 4.1778 -5.71721 0
M  V30 7478 H 698.265 3.99825 -3.98497 0
M  V30 7479 N 697.663 1.43903 0.642637 0
M  V30 7480 C 699.079 1.27536 0.959519 0
M  V30 7481 C 699.279 0.202751 2.00477 0
M  V30 7482 O 698.335 -0.415256 2.49062 0
M  V30 7483 C 699.648 2.6432 1.43372 0
M  V30 7484 C 701.196 2.71937 1.54981 0
M  V30 7485 C 701.671 4.09164 2.05789 0
M  V30 7486 N 703.162 4.11282 2.13076 0
M  V30 7487 C 703.897 5.14303 2.53534 0
M  V30 7488 N 703.393 6.27693 2.93212 0
M  V30 7489 N 705.186 5.01657 2.53567 0
M  V30 7490 H 697.337 2.12344 -0.0488376 0
M  V30 7491 H 699.6 0.947124 0.0407559 0
M  V30 7492 H 699.306 3.43826 0.740048 0
M  V30 7493 H 699.18 2.90432 2.40685 0
M  V30 7494 H 701.567 1.92757 2.23448 0
M  V30 7495 H 701.648 2.49578 0.560739 0
M  V30 7496 H 701.292 4.88815 1.37921 0
M  V30 7497 H 701.222 4.28893 3.05546 0
M  V30 7498 H 703.713 3.2944 1.85143 0
M  V30 7499 H 704.026 7.02125 3.22863 0
M  V30 7500 H 702.371 6.31149 2.90991 0
M  V30 7501 H 705.562 4.12134 2.21952 0
M  V30 7502 H 705.735 5.82072 2.84774 0
M  V30 7503 N 699.141 -0.881989 1.30609 0
M  V30 7504 C 700.371 -1.66469 1.22359 0
M  V30 7505 C 700.779 -1.87969 -0.215507 0
M  V30 7506 O 700.122 -1.42938 -1.15388 0
M  V30 7507 C 700.184 -3.06135 1.88472 0
M  V30 7508 C 699.848 -3.07795 3.37804 0
M  V30 7509 C 700.845 -2.86633 4.33749 0
M  V30 7510 C 698.53 -3.29297 3.793 0
M  V30 7511 C 700.524 -2.86934 5.69164 0
M  V30 7512 C 698.211 -3.29228 5.14832 0
M  V30 7513 C 699.209 -3.08071 6.09574 0
M  V30 7514 O 698.897 -3.07824 7.4263 0
M  V30 7515 H 698.629 -0.526129 0.424458 0
M  V30 7516 H 701.183 -1.11004 1.72821 0
M  V30 7517 H 699.413 -3.63276 1.32543 0
M  V30 7518 H 701.102 -3.66571 1.74301 0
M  V30 7519 H 701.868 -2.69814 4.0302 0
M  V30 7520 H 697.747 -3.44799 3.05998 0
M  V30 7521 H 701.291 -2.70339 6.43088 0
M  V30 7522 H 697.188 -3.45583 5.452 0
M  V30 7523 H 697.956 -3.2397 7.51656 0
M  V30 7524 N 700.619 -1.13374 -1.09472 0
M  V30 7525 C 701.867 -0.893422 -1.8128 0
M  V30 7526 C 702.188 0.582029 -1.86111 0
M  V30 7527 O 701.458 1.42305 -1.34633 0
M  V30 7528 H 700.038 -0.327543 -0.67136 0
M  V30 7529 H 702.7 -1.43018 -1.32408 0
M  V30 7530 H 701.796 -1.28374 -2.84476 0
M  V30 7531 N 702.098 1.27442 -0.927168 0
M  V30 7532 C 703.03 2.25975 -0.383158 0
M  V30 7533 C 704.043 1.55382 0.485832 0
M  V30 7534 O 705.232 1.75986 0.298541 0
M  V30 7535 C 702.332 3.35629 0.469688 0
M  V30 7536 C 701.505 4.35747 -0.379886 0
M  V30 7537 C 700.564 5.24598 0.410227 0
M  V30 7538 O 699.59 5.68909 -0.181888 0
M  V30 7539 N 700.792 5.54737 1.71017 0
M  V30 7540 H 703.557 2.7329 -1.23015 0
M  V30 7541 H 701.118 1.41063 -0.794539 0
M  V30 7542 H 703.11 3.92015 1.00532 0
M  V30 7543 H 701.68 2.87919 1.21744 0
M  V30 7544 H 700.9 3.78634 -1.09682 0
M  V30 7545 H 702.188 4.99648 -0.960717 0
M  V30 7546 H 701.586 5.20594 2.21356 0
M  V30 7547 H 700.143 6.13824 2.19234 0
M  V30 7548 N 703.576 0.692616 1.41565 0
M  V30 7549 C 704.526 0.00231847 2.28 0
M  V30 7550 C 705.51 -0.755793 1.42044 0
M  V30 7551 O 706.702 -0.631772 1.65341 0
M  V30 7552 C 703.831 -0.935468 3.30309 0
M  V30 7553 C 702.917 -0.173761 4.23744 0
M  V30 7554 N 703.308 0.830872 4.98929 0
M  V30 7555 C 701.606 -0.409666 4.44115 0
M  V30 7556 C 702.307 1.28656 5.67294 0
M  V30 7557 N 701.283 0.613053 5.40132 0
M  V30 7558 H 705.085 0.772635 2.83562 0
M  V30 7559 H 702.599 0.523198 1.53741 0
M  V30 7560 H 704.596 -1.44513 3.91052 0
M  V30 7561 H 703.256 -1.70542 2.76307 0
M  V30 7562 H 704.267 1.21101 5.03542 0
M  V30 7563 H 700.944 -1.15773 4.01127 0
M  V30 7564 H 702.334 2.12006 6.37576 0
M  V30 7565 N 705.054 -1.51416 0.437162 0
M  V30 7566 C 706.465 -1.86682 -0.0260005 0
M  V30 7567 C 706.816 -1.35432 -1.4196 0
M  V30 7568 O 705.941 -0.705055 -2.04592 0
M  V30 7569 C 706.536 -3.38757 -0.0539577 0
M  V30 7570 C 705.095 -3.7356 -0.461532 0
M  V30 7571 C 704.242 -2.75134 0.345924 0
M  V30 7572 H 707.193 -1.44642 0.653013 0
M  V30 7573 H 707.214 -3.70573 -0.863478 0
M  V30 7574 H 706.726 -3.76028 0.96045 0
M  V30 7575 H 704.827 -3.41878 -1.48155 0
M  V30 7576 H 704.94 -4.78737 -0.186451 0
M  V30 7577 H 703.304 -2.53947 -0.195739 0
M  V30 7578 H 704.087 -3.15247 1.35921 0
M  V30 7579 N 706.532 -0.168513 -1.56696 0
M  V30 7580 C 707.48 0.779791 -2.19139 0
M  V30 7581 C 708.474 1.23957 -1.1546 0
M  V30 7582 O 709.68 1.20555 -1.33666 0
M  V30 7583 H 706.055 0.269739 -0.701958 0
M  V30 7584 H 708.026 0.229156 -2.97519 0
M  V30 7585 C 706.775 2.00003 -2.84419 0
M  V30 7586 H 706.098 1.65527 -3.63924 0
M  V30 7587 H 707.538 2.64251 -3.31583 0
M  V30 7588 C 705.997 2.82187 -1.84044 0
M  V30 7589 O 706.527 3.79247 -1.32418 0
M  V30 7590 N 704.733 2.47145 -1.52864 0
M  V30 7591 H 704.28 1.68277 -1.9504 0
M  V30 7592 H 704.238 3.02422 -0.859569 0
M  V30 7593 N 708.01 1.57248 0.105221 0
M  V30 7594 C 709.259 1.84756 0.809198 0
M  V30 7595 C 709.572 0.756262 1.80389 0
M  V30 7596 O 710.778 0.918158 2.55504 0
M  V30 7597 C 709.234 3.27613 1.48989 0
M  V30 7598 C 708.842 4.44788 0.535484 0
M  V30 7599 C 710.586 3.64356 2.17819 0
M  V30 7600 C 708.493 5.78676 1.22019 0
M  V30 7601 H 707.423 0.689139 0.305946 0
M  V30 7602 H 710.074 1.83395 0.0620371 0
M  V30 7603 H 708.456 3.23485 2.28415 0
M  V30 7604 H 709.63 4.60243 -0.226557 0
M  V30 7605 H 707.945 4.16374 -0.0465769 0
M  V30 7606 H 710.542 4.61663 2.69761 0
M  V30 7607 H 710.885 2.92474 2.96251 0
M  V30 7608 H 711.418 3.70328 1.45264 0
M  V30 7609 H 708.157 6.53763 0.476875 0
M  V30 7610 H 707.677 5.67083 1.9539 0
M  V30 7611 H 709.356 6.22897 1.74952 0
M  V30 7612 N 709.488 -0.375779 1.53054 0
M  V30 7613 C 710.737 -1.11674 1.67964 0
M  V30 7614 C 711.05 -1.90755 0.432655 0
M  V30 7615 O 712.256 -2.67538 0.462109 0
M  V30 7616 C 710.712 -2.0344 2.96884 0
M  V30 7617 C 710.32 -1.29719 4.28809 0
M  V30 7618 C 712.064 -2.7759 3.2116 0
M  V30 7619 C 709.971 -2.20327 5.48826 0
M  V30 7620 H 708.901 -0.420597 0.625791 0
M  V30 7621 H 711.552 -0.378499 1.79554 0
M  V30 7622 H 709.934 -2.80953 2.79072 0
M  V30 7623 H 711.108 -0.573394 4.57219 0
M  V30 7624 H 709.423 -0.674735 4.10897 0
M  V30 7625 H 712.02 -3.4559 4.0801 0
M  V30 7626 H 712.363 -3.42399 2.36789 0
M  V30 7627 H 712.896 -2.07164 3.396 0
M  V30 7628 H 709.635 -1.60113 6.35645 0
M  V30 7629 H 709.155 -2.90585 5.2471 0
M  V30 7630 H 710.834 -2.80116 5.83219 0
M  V30 7631 N 710.966 -1.44241 -0.634997 0
M  V30 7632 C 712.194 -1.50296 -1.42193 0
M  V30 7633 C 712.609 -0.12658 -1.88375 0
M  V30 7634 O 711.966 0.86678 -1.60603 0
M  V30 7635 C 712.017 -2.46437 -2.64482 0
M  V30 7636 O 711.738 -3.78724 -2.20226 0
M  V30 7637 C 713.239 -2.61918 -3.57651 0
M  V30 7638 H 710.459 -0.509865 -0.43621 0
M  V30 7639 H 713.003 -1.89167 -0.776921 0
M  V30 7640 H 711.158 -2.10712 -3.25083 0
M  V30 7641 H 711.572 -4.30595 -2.9948 0
M  V30 7642 H 713.046 -3.33225 -4.40074 0
M  V30 7643 H 713.523 -1.67017 -4.06204 0
M  V30 7644 H 714.129 -2.98528 -3.02921 0
M  V30 7645 N 712.444 0.87505 -1.31075 0
M  V30 7646 C 713.374 1.99775 -1.20881 0
M  V30 7647 C 714.355 1.69822 -0.0971612 0
M  V30 7648 O 715.54 1.92158 -0.280895 0
M  V30 7649 C 712.67 3.35163 -0.910118 0
M  V30 7650 C 711.624 3.79406 -1.98078 0
M  V30 7651 C 710.95 5.12197 -1.53488 0
M  V30 7652 C 712.25 3.97061 -3.39323 0
M  V30 7653 H 713.944 2.08562 -2.14808 0
M  V30 7654 H 711.49 1.00207 -1.03415 0
M  V30 7655 H 713.443 4.13237 -0.825423 0
M  V30 7656 H 712.167 3.26536 0.064822 0
M  V30 7657 H 710.826 3.03568 -2.05528 0
M  V30 7658 H 710.474 5.00007 -0.547941 0
M  V30 7659 H 710.174 5.4277 -2.2511 0
M  V30 7660 H 711.698 5.92785 -1.46417 0
M  V30 7661 H 713.112 4.65545 -3.34576 0
M  V30 7662 H 711.509 4.39025 -4.09118 0
M  V30 7663 H 712.579 3.00601 -3.80483 0
M  V30 7664 N 713.922 1.13953 1.08869 0
M  V30 7665 C 714.869 0.82213 2.15661 0
M  V30 7666 C 715.839 -0.218274 1.6466 0
M  V30 7667 O 717.024 -0.0892475 1.90591 0
M  V30 7668 C 714.164 0.300572 3.43789 0
M  V30 7669 C 713.277 1.40071 4.08661 0
M  V30 7670 C 712.412 0.836897 5.24566 0
M  V30 7671 C 711.451 1.91504 5.81371 0
M  V30 7672 N 710.588 1.36875 6.88629 0
M  V30 7673 H 715.428 1.73683 2.42153 0
M  V30 7674 H 712.965 0.866879 1.18843 0
M  V30 7675 H 714.923 -0.0199943 4.17195 0
M  V30 7676 H 713.553 -0.577248 3.17597 0
M  V30 7677 H 712.605 1.83776 3.33062 0
M  V30 7678 H 713.917 2.21534 4.46905 0
M  V30 7679 H 713.071 0.467953 6.04893 0
M  V30 7680 H 711.81 -0.00874207 4.87699 0
M  V30 7681 H 710.815 2.29299 4.99702 0
M  V30 7682 H 712.04 2.76419 6.20298 0
M  V30 7683 H 709.986 0.545211 6.5373 0
M  V30 7684 H 709.903 2.1198 7.25672 0
M  V30 7685 H 711.171 1.02756 7.72698 0
M  V30 7686 N 715.4 -1.26948 0.933913 0
M  V30 7687 C 716.677 -1.89212 0.495784 0
M  V30 7688 C 717.057 -1.84469 -1.02637 0
M  V30 7689 O 716.405 -1.29409 -1.88323 0
M  V30 7690 C 716.615 -3.32865 1.0489 0
M  V30 7691 C 717.963 -4.09749 1.11315 0
M  V30 7692 O 718.987 -3.41905 0.998966 0
M  V30 7693 O 717.846 -5.31061 1.28983 0
M  V30 7694 H 714.94 -0.811284 0.160459 0
M  V30 7695 H 717.486 -1.35171 1.02601 0
M  V30 7696 H 716.258 -3.30642 2.09265 0
M  V30 7697 H 715.881 -3.94435 0.500692 0
M  V30 7698 N 716.879 -0.700114 -1.41195 0
M  V30 7699 C 718.125 -0.233351 -2.01453 0
M  V30 7700 C 718.458 1.16548 -1.55339 0
M  V30 7701 O 717.733 1.78756 -0.766575 0
M  V30 7702 C 718.016 -0.2961 -3.58881 0
M  V30 7703 C 717.869 -1.7322 -4.15108 0
M  V30 7704 C 719.188 0.341525 -4.38773 0
M  V30 7705 H 716.307 -0.0862667 -0.731934 0
M  V30 7706 H 718.949 -0.889693 -1.67882 0
M  V30 7707 H 717.099 0.262736 -3.87611 0
M  V30 7708 H 718.771 -2.34523 -3.97236 0
M  V30 7709 H 717.014 -2.2649 -3.69979 0
M  V30 7710 H 717.685 -1.7276 -5.24269 0
M  V30 7711 H 720.161 -0.134461 -4.15883 0
M  V30 7712 H 719.037 0.267098 -5.4825 0
M  V30 7713 H 719.298 1.42289 -4.18577 0
M  V30 7714 N 718.357 1.51182 -0.445186 0
M  V30 7715 C 719.604 2.02152 0.118645 0
M  V30 7716 C 719.932 1.32888 1.42025 0
M  V30 7717 O 719.187 0.435041 1.90803 0
M  V30 7718 C 719.486 3.55408 0.376797 0
M  V30 7719 C 719.152 4.43008 -0.839945 0
M  V30 7720 C 717.814 4.66669 -1.17361 0
M  V30 7721 C 720.166 4.9435 -1.65127 0
M  V30 7722 C 717.494 5.38919 -2.31913 0
M  V30 7723 C 719.846 5.67857 -2.78786 0
M  V30 7724 C 718.51 5.89779 -3.12597 0
M  V30 7725 H 717.78 0.739727 0.0434152 0
M  V30 7726 H 720.427 1.82055 -0.593984 0
M  V30 7727 H 718.732 3.73879 1.1714 0
M  V30 7728 H 720.429 3.92388 0.826602 0
M  V30 7729 H 717.019 4.24793 -0.569958 0
M  V30 7730 H 721.203 4.75947 -1.4067 0
M  V30 7731 H 716.459 5.54105 -2.58413 0
M  V30 7732 H 720.633 6.06628 -3.42017 0
M  V30 7733 H 718.26 6.45542 -4.01471 0
M  V30 7734 N 719.835 0.176821 1.56605 0
M  V30 7735 C 721.112 -0.513365 1.88743 0
M  V30 7736 C 721.492 -1.80929 1.08757 0
M  V30 7737 O 720.84 -2.27765 0.183127 0
M  V30 7738 C 721.05 -0.749925 3.40848 0
M  V30 7739 C 722.398 -1.07747 4.10701 0
M  V30 7740 O 723.422 -0.838277 3.46196 0
M  V30 7741 O 722.281 -1.52901 5.24675 0
M  V30 7742 H 719.375 -0.265296 0.783292 0
M  V30 7743 H 721.921 0.215669 1.68324 0
M  V30 7744 H 720.693 0.16599 3.90948 0
M  V30 7745 H 720.316 -1.53208 3.66897 0
M  V30 7746 N 721.313 -1.57302 -0.09688 0
M  V30 7747 C 722.59 -1.7701 -0.832272 0
M  V30 7748 C 722.97 -0.758025 -1.97021 0
M  V30 7749 O 722.318 0.213824 -2.27497 0
M  V30 7750 C 722.528 -3.22725 -1.32851 0
M  V30 7751 C 723.876 -3.85856 -1.772 0
M  V30 7752 O 724.9 -3.26464 -1.42478 0
M  V30 7753 O 723.759 -4.90295 -2.41398 0
M  V30 7754 H 720.853 -0.725558 -0.396856 0
M  V30 7755 H 723.399 -1.69516 -0.0789005 0
M  V30 7756 H 722.171 -3.87921 -0.51312 0
M  V30 7757 H 721.794 -3.34845 -2.14394 0
M  V30 7758 N 722.791 0.367657 -1.53252 0
M  V30 7759 C 724.039 1.10832 -1.68999 0
M  V30 7760 C 724.36 1.89894 -0.443306 0
M  V30 7761 O 723.63 1.88235 0.54262 0
M  V30 7762 H 722.21 0.412153 -0.623008 0
M  V30 7763 H 724.872 0.414775 -1.90435 0
M  V30 7764 H 723.968 1.7993 -2.55013 0
M  V30 7765 N 724.269 1.44576 0.627338 0
M  V30 7766 C 725.685 1.28546 0.945938 0
M  V30 7767 C 725.885 0.224003 2.00251 0
M  V30 7768 O 724.941 -0.388817 2.49488 0
M  V30 7769 C 726.254 2.65825 1.40561 0
M  V30 7770 C 727.802 2.73566 1.52088 0
M  V30 7771 C 728.277 4.11323 2.01438 0
M  V30 7772 N 729.768 4.13519 2.08702 0
M  V30 7773 C 730.503 5.16964 2.48065 0
M  V30 7774 N 729.999 6.30768 2.86538 0
M  V30 7775 N 731.792 5.04319 2.48232 0
M  V30 7776 H 723.943 2.1228 -0.0713567 0
M  V30 7777 H 726.206 0.947503 0.0307081 0
M  V30 7778 H 725.912 3.44591 0.703539 0
M  V30 7779 H 725.786 2.92969 2.37591 0
M  V30 7780 H 728.173 1.95116 2.21391 0
M  V30 7781 H 728.254 2.50159 0.534237 0
M  V30 7782 H 727.898 4.9025 1.32729 0
M  V30 7783 H 727.828 4.32109 3.0098 0
M  V30 7784 H 730.319 3.31385 1.81638 0
M  V30 7785 H 730.632 7.0551 3.15398 0
M  V30 7786 H 728.977 6.342 2.84281 0
M  V30 7787 H 732.168 4.14465 2.17569 0
M  V30 7788 H 732.341 5.85059 2.78585 0
M  V30 7789 N 725.747 -0.868086 1.31537 0
M  V30 7790 C 726.977 -1.65162 1.24118 0
M  V30 7791 C 727.385 -1.88187 -0.195558 0
M  V30 7792 O 726.728 -1.44154 -1.13866 0
M  V30 7793 C 726.79 -3.04119 1.91708 0
M  V30 7794 C 726.454 -3.04194 3.4105 0
M  V30 7795 C 727.451 -2.82016 4.36764 0
M  V30 7796 C 725.136 -3.25256 3.82772 0
M  V30 7797 C 727.13 -2.80881 5.72175 0
M  V30 7798 C 724.817 -3.23749 5.18295 0
M  V30 7799 C 725.815 -3.01589 6.12808 0
M  V30 7800 O 725.503 -2.9993 7.45853 0
M  V30 7801 H 725.235 -0.521597 0.430015 0
M  V30 7802 H 727.789 -1.09165 1.73989 0
M  V30 7803 H 726.019 -3.61849 1.36389 0
M  V30 7804 H 727.708 -3.64701 1.78179 0
M  V30 7805 H 728.474 -2.65525 4.05859 0
M  V30 7806 H 724.353 -3.41534 3.09638 0
M  V30 7807 H 727.897 -2.63503 6.45919 0
M  V30 7808 H 723.794 -3.39781 5.48834 0
M  V30 7809 H 724.562 -3.15979 7.55049 0
M  V30 7810 N 727.225 -1.14528 -1.08264 0
M  V30 7811 C 728.471 -0.91576 -1.80947 0
M  V30 7812 C 728.804 0.55623 -1.86064 0
M  V30 7813 O 728.079 1.41207 -1.33756 0
M  V30 7814 C 728.362 -1.51917 -3.26486 0
M  V30 7815 C 728.215 -3.06111 -3.2957 0
M  V30 7816 C 729.534 -1.19724 -4.23502 0
M  V30 7817 H 726.653 -0.334113 -0.656915 0
M  V30 7818 H 729.295 -1.41547 -1.26746 0
M  V30 7819 H 727.445 -1.0942 -3.72773 0
M  V30 7820 H 729.117 -3.57448 -2.91597 0
M  V30 7821 H 727.36 -3.40483 -2.688 0
M  V30 7822 H 728.031 -3.43438 -4.32151 0
M  V30 7823 H 730.507 -1.56467 -3.85561 0
M  V30 7824 H 729.383 -1.64575 -5.23647 0
M  V30 7825 H 729.644 -0.112771 -4.41956 0
M  V30 7826 N 728.703 1.26451 -0.940633 0
M  V30 7827 C 729.933 1.97581 -0.603766 0
M  V30 7828 C 730.341 1.70246 0.825395 0
M  V30 7829 O 729.684 0.967001 1.56188 0
M  V30 7830 C 729.746 3.51256 -0.765463 0
M  V30 7831 C 729.41 4.0224 -2.16915 0
M  V30 7832 C 730.407 4.1402 -3.14457 0
M  V30 7833 C 728.092 4.36263 -2.48958 0
M  V30 7834 C 730.086 4.59117 -4.42143 0
M  V30 7835 C 727.773 4.81048 -3.76877 0
M  V30 7836 C 728.771 4.92436 -4.73282 0
M  V30 7837 O 728.459 5.36234 -5.98923 0
M  V30 7838 H 728.191 0.636948 -0.226436 0
M  V30 7839 H 730.745 1.61941 -1.2635 0
M  V30 7840 H 728.975 3.86669 -0.0485956 0
M  V30 7841 H 730.664 4.03597 -0.431738 0
M  V30 7842 H 731.43 3.87981 -2.91026 0
M  V30 7843 H 727.309 4.26634 -1.74656 0
M  V30 7844 H 730.853 4.6792 -5.17394 0
M  V30 7845 H 726.75 5.06531 -4.00121 0
M  V30 7846 H 727.518 5.54456 -6.02097 0
M  V30 7847 N 730.181 0.707592 1.40822 0
M  V30 7848 C 731.111 0.0644925 2.33411 0
M  V30 7849 C 732.092 -0.754205 1.52466 0
M  V30 7850 O 733.277 -0.704749 1.80961 0
M  V30 7851 C 730.407 -0.863865 3.36385 0
M  V30 7852 C 729.361 -0.15138 4.27732 0
M  V30 7853 C 728.687 -1.19491 5.21177 0
M  V30 7854 C 729.987 0.989607 5.12839 0
M  V30 7855 H 731.681 0.837829 2.87438 0
M  V30 7856 H 729.227 0.404346 1.38207 0
M  V30 7857 H 731.18 -1.32309 4.0009 0
M  V30 7858 H 729.904 -1.66901 2.80734 0
M  V30 7859 H 728.563 0.287937 3.65467 0
M  V30 7860 H 728.211 -1.9929 4.61836 0
M  V30 7861 H 727.911 -0.723123 5.83134 0
M  V30 7862 H 729.435 -1.6544 5.8776 0
M  V30 7863 H 730.849 0.610114 5.70044 0
M  V30 7864 H 729.246 1.38926 5.83798 0
M  V30 7865 H 730.316 1.82389 4.49291 0
M  V30 7866 N 731.66 -1.50943 0.453197 0
M  V30 7867 C 732.906 -2.02512 -0.108082 0
M  V30 7868 C 733.239 -1.33574 -1.40967 0
M  V30 7869 O 732.514 -0.455671 -1.89087 0
M  V30 7870 C 732.797 -3.58759 -0.310453 0
M  V30 7871 C 732.65 -4.38293 1.0109 0
M  V30 7872 C 733.969 -4.26816 -1.07313 0
M  V30 7873 H 731.088 -0.73603 -0.0378064 0
M  V30 7874 H 733.73 -1.80433 0.595295 0
M  V30 7875 H 731.88 -3.77702 -0.909582 0
M  V30 7876 H 733.552 -4.30964 1.64523 0
M  V30 7877 H 731.795 -4.02745 1.61179 0
M  V30 7878 H 732.466 -5.45828 0.82315 0
M  V30 7879 H 734.942 -4.1224 -0.565473 0
M  V30 7880 H 733.818 -5.35989 -1.1835 0
M  V30 7881 H 734.079 -3.88757 -2.10525 0
M  V30 7882 N 733.138 -0.185124 -1.56509 0
M  V30 7883 C 734.366 0.462139 -2.01673 0
M  V30 7884 C 734.781 1.55873 -1.06532 0
M  V30 7885 O 734.138 1.82371 -0.0684805 0
M  V30 7886 C 734.189 1.0277 -3.46584 0
M  V30 7887 O 733.91 -0.0251296 -4.38093 0
M  V30 7888 C 735.411 1.75183 -4.07217 0
M  V30 7889 H 732.631 0.117001 -0.660721 0
M  V30 7890 H 735.175 -0.290905 -2.0242 0
M  V30 7891 H 733.33 1.73118 -3.46568 0
M  V30 7892 H 733.744 0.394387 -5.23015 0
M  V30 7893 H 735.218 2.09999 -5.10494 0
M  V30 7894 H 735.695 2.6519 -3.50101 0
M  V30 7895 H 736.301 1.09445 -4.10977 0
M  V30 7896 N 734.616 1.57351 0.0885366 0
M  V30 7897 C 735.893 1.77449 0.822873 0
M  V30 7898 C 736.273 0.768463 1.96616 0
M  V30 7899 O 735.621 -0.201757 2.27608 0
M  V30 7900 C 735.831 3.23425 1.31137 0
M  V30 7901 C 737.179 3.86791 1.75152 0
M  V30 7902 O 738.203 3.27215 1.40745 0
M  V30 7903 O 737.062 4.91568 2.38794 0
M  V30 7904 H 734.156 0.727653 0.393002 0
M  V30 7905 H 736.702 1.69556 0.0699095 0
M  V30 7906 H 735.474 3.88188 0.49254 0
M  V30 7907 H 735.097 3.35977 2.12615 0
M  V30 7908 N 736.094 -0.359525 1.53444 0
M  V30 7909 C 737.024 -1.44662 1.8329 0
M  V30 7910 C 738.005 -1.55617 0.68683 0
M  V30 7911 O 739.19 -1.70086 0.93725 0
M  V30 7912 C 736.32 -2.81923 2.02822 0
M  V30 7913 C 735.274 -2.85787 3.18606 0
M  V30 7914 C 734.6 -4.25781 3.23442 0
M  V30 7915 C 735.9 -2.52762 4.57065 0
M  V30 7916 H 737.594 -1.19934 2.74329 0
M  V30 7917 H 735.14 -0.575517 1.31999 0
M  V30 7918 H 737.093 -3.58005 2.22285 0
M  V30 7919 H 735.817 -3.08051 1.085 0
M  V30 7920 H 734.476 -2.12157 2.98973 0
M  V30 7921 H 734.124 -4.48994 2.26745 0
M  V30 7922 H 733.824 -4.29281 4.01238 0
M  V30 7923 H 735.348 -5.03727 3.45096 0
M  V30 7924 H 736.762 -3.18557 4.76649 0
M  V30 7925 H 735.159 -2.67569 5.37147 0
M  V30 7926 H 736.229 -1.47993 4.61764 0
M  V30 7927 N 737.572 -1.44907 -0.619662 0
M  V30 7928 C 738.505 -1.47133 -1.74434 0
M  V30 7929 C 739.483 -0.328933 -1.59238 0
M  V30 7930 O 740.667 -0.527632 -1.80965 0
M  V30 7931 C 737.794 -1.31491 -3.12134 0
M  V30 7932 C 736.84 -2.49441 -3.4595 0
M  V30 7933 S 737.673 -4.11945 -3.42142 0
M  V30 7934 C 738.829 -3.98747 -4.82443 0
M  V30 7935 H 739.062 -2.42295 -1.7228 0
M  V30 7936 H 736.595 -1.32343 -0.795276 0
M  V30 7937 H 738.553 -1.23153 -3.91591 0
M  V30 7938 H 737.214 -0.378203 -3.11815 0
M  V30 7939 H 736.407 -2.3439 -4.46181 0
M  V30 7940 H 736.009 -2.54577 -2.73982 0
M  V30 7941 H 738.301 -3.63145 -5.71954 0
M  V30 7942 H 739.244 -4.98848 -5.0255 0
M  V30 7943 H 739.652 -3.30608 -4.57557 0
M  V30 7944 N 739.05 0.861098 -1.31996 0
M  V30 7945 C 739.997 1.96912 -1.20392 0
M  V30 7946 C 740.967 1.65869 -0.0875899 0
M  V30 7947 O 742.152 1.88992 -0.262011 0
M  V30 7948 C 739.292 3.32435 -0.926335 0
M  V30 7949 C 738.405 3.76018 -2.12684 0
M  V30 7950 C 737.54 5.00301 -1.78529 0
M  V30 7951 C 736.579 5.36357 -2.94937 0
M  V30 7952 N 735.716 6.51818 -2.60917 0
M  V30 7953 H 740.556 2.06169 -2.1517 0
M  V30 7954 H 738.093 1.00917 -1.07024 0
M  V30 7955 H 740.051 4.10478 -0.745917 0
M  V30 7956 H 738.681 3.22796 -0.0153578 0
M  V30 7957 H 737.733 2.93683 -2.41774 0
M  V30 7958 H 739.045 3.98664 -2.99781 0
M  V30 7959 H 738.199 5.86034 -1.57001 0
M  V30 7960 H 736.938 4.79578 -0.886356 0
M  V30 7961 H 735.943 4.49139 -3.17103 0
M  V30 7962 H 737.168 5.59041 -3.85552 0
M  V30 7963 H 735.114 6.32624 -1.73558 0
M  V30 7964 H 735.031 6.7445 -3.41544 0
M  V30 7965 H 736.299 7.4072 -2.42804 0
M  V30 7966 N 740.528 1.15101 1.07655 0
M  V30 7967 C 741.776 0.922149 1.79836 0
M  V30 7968 C 742.097 -0.552346 1.87014 0
M  V30 7969 O 741.367 -1.40145 1.3688 0
M  V30 7970 H 739.947 0.338182 0.666064 0
M  V30 7971 H 742.609 1.45107 1.30115 0
M  V30 7972 H 741.705 1.32883 2.82398 0
M  V30 7973 N 742.006 -1.2595 0.947325 0
M  V30 7974 C 743.254 -1.93081 0.596996 0
M  V30 7975 C 743.575 -1.74632 -0.867672 0
M  V30 7976 O 742.845 -1.1056 -1.6172 0
M  V30 7977 H 741.425 -0.714542 0.217805 0
M  V30 7978 H 744.087 -1.53265 1.20398 0
M  V30 7979 H 743.183 -3.01134 0.82004 0
M  V30 7980 N 743.484 -0.715051 -1.40445 0
M  V30 7981 C 744.394 -0.0631624 -2.34515 0
M  V30 7982 C 745.41 0.744397 -1.57273 0
M  V30 7983 O 746.586 0.677475 -1.89663 0
M  V30 7984 C 743.651 0.847915 -3.36172 0
M  V30 7985 C 742.712 0.0303655 -4.29289 0
M  V30 7986 C 741.945 0.898051 -5.2609 0
M  V30 7987 O 742.168 2.13729 -5.28844 0
M  V30 7988 O 741.102 0.337328 -6.00954 0
M  V30 7989 H 744.928 -0.839078 -2.91879 0
M  V30 7990 H 742.513 -0.475527 -1.4163 0
M  V30 7991 H 744.395 1.3698 -3.98515 0
M  V30 7992 H 743.07 1.60299 -2.81222 0
M  V30 7993 H 741.977 -0.536573 -3.70232 0
M  V30 7994 H 743.31 -0.686474 -4.87389 0
M  V30 7995 N 744.962 1.50701 -0.461195 0
M  V30 7996 C 745.892 2.31182 0.328184 0
M  V30 7997 C 746.873 1.37644 0.999408 0
M  V30 7998 O 748.058 1.66565 0.99848 0
M  V30 7999 C 745.188 3.17113 1.41621 0
M  V30 8000 C 744.142 4.19124 0.867148 0
M  V30 8001 C 743.468 4.93728 2.05272 0
M  V30 8002 C 744.768 5.22174 -0.114808 0
M  V30 8003 H 746.462 2.97423 -0.343501 0
M  V30 8004 H 744.008 1.43033 -0.166641 0
M  V30 8005 H 745.961 3.72208 1.97584 0
M  V30 8006 H 744.685 2.48739 2.11652 0
M  V30 8007 H 743.344 3.65116 0.329557 0
M  V30 8008 H 742.992 4.21835 2.73978 0
M  V30 8009 H 742.692 5.62724 1.69161 0
M  V30 8010 H 744.216 5.51654 2.61744 0
M  V30 8011 H 745.63 5.72198 0.355316 0
M  V30 8012 H 744.027 5.98833 -0.389689 0
M  V30 8013 H 745.097 4.7353 -1.04391 0
M  V30 8014 N 746.441 0.193421 1.56409 0
M  V30 8015 C 747.371 -0.723334 2.22014 0
M  V30 8016 C 748.352 -1.22254 1.1827 0
M  V30 8017 O 749.537 -1.27168 1.46771 0
M  V30 8018 C 746.667 -1.94366 2.87818 0
M  V30 8019 C 745.621 -1.57943 3.97791 0
M  V30 8020 C 744.947 -2.87623 4.50752 0
M  V30 8021 C 746.247 -0.790639 5.16281 0
M  V30 8022 H 747.941 -0.176426 2.9888 0
M  V30 8023 H 745.487 -0.0834166 1.43758 0
M  V30 8024 H 747.44 -2.5902 3.32396 0
M  V30 8025 H 746.164 -2.51507 2.08355 0
M  V30 8026 H 744.823 -0.956482 3.53903 0
M  V30 8027 H 744.471 -3.4285 3.68053 0
M  V30 8028 H 744.171 -2.63998 5.24956 0
M  V30 8029 H 745.695 -3.53268 4.9803 0
M  V30 8030 H 747.109 -1.34024 5.57414 0
M  V30 8031 H 745.506 -0.65258 5.96541 0
M  V30 8032 H 746.576 0.208633 4.84451 0
M  V30 8033 N 747.919 -1.57396 -0.0801906 0
M  V30 8034 C 749.196 -1.77883 -0.813451 0
M  V30 8035 C 749.576 -0.778879 -1.96206 0
M  V30 8036 O 748.924 0.189683 -2.27711 0
M  V30 8037 C 749.134 -3.24116 -1.2942 0
M  V30 8038 C 750.482 -3.87714 -1.73098 0
M  V30 8039 O 751.506 -3.27956 -1.39007 0
M  V30 8040 O 750.365 -4.92828 -2.36184 0
M  V30 8041 H 747.459 -0.729727 -0.389138 0
M  V30 8042 H 750.005 -1.69591 -0.0609166 0
M  V30 8043 H 748.777 -3.88443 -0.471947 0
M  V30 8044 H 748.4 -3.371 -2.1083 0
M  V30 8045 N 749.397 0.351382 -1.53633 0
M  V30 8046 C 750.813 0.693987 -1.43722 0
M  V30 8047 C 751.013 1.9274 -0.587669 0
M  V30 8048 O 750.069 2.52387 -0.0756082 0
M  V30 8049 C 751.382 0.893937 -2.87105 0
M  V30 8050 C 752.93 0.993051 -2.96829 0
M  V30 8051 C 753.405 1.22537 -4.41303 0
M  V30 8052 N 754.896 1.29275 -4.44795 0
M  V30 8053 C 755.631 1.48988 -5.53706 0
M  V30 8054 N 755.127 1.65924 -6.72637 0
M  V30 8055 N 756.92 1.51472 -5.41306 0
M  V30 8056 H 749.071 -0.459688 -2.07366 0
M  V30 8057 H 751.334 -0.143684 -0.937048 0
M  V30 8058 H 751.04 0.0592517 -3.5165 0
M  V30 8059 H 750.914 1.79795 -3.31592 0
M  V30 8060 H 753.301 1.81827 -2.32429 0
M  V30 8061 H 753.382 0.0661119 -2.55715 0
M  V30 8062 H 753.026 0.405117 -5.06282 0
M  V30 8063 H 752.956 2.16575 -4.80003 0
M  V30 8064 H 755.447 1.17743 -3.59089 0
M  V30 8065 H 755.76 1.80578 -7.51406 0
M  V30 8066 H 754.105 1.63075 -6.75597 0
M  V30 8067 H 757.296 1.37818 -4.47352 0
M  V30 8068 H 757.469 1.66493 -6.26246 0
M  V30 8069 N 750.875 1.45233 0.611969 0
M  V30 8070 C 752.124 1.48296 1.36716 0
M  V30 8071 C 752.437 0.12706 1.95187 0
M  V30 8072 O 753.643 0.0353066 2.71477 0
M  V30 8073 C 752.099 2.61168 2.47627 0
M  V30 8074 C 751.707 4.03051 1.95587 0
M  V30 8075 C 753.451 2.73472 3.24674 0
M  V30 8076 C 751.358 5.07312 3.03954 0
M  V30 8077 H 750.288 0.5518 0.513841 0
M  V30 8078 H 752.939 1.7136 0.656359 0
M  V30 8079 H 751.321 2.31379 3.21372 0
M  V30 8080 H 752.495 4.42497 1.2858 0
M  V30 8081 H 750.81 3.95158 1.31298 0
M  V30 8082 H 753.407 3.48537 4.05494 0
M  V30 8083 H 753.75 1.79953 3.75397 0
M  V30 8084 H 754.283 3.02765 2.58028 0
M  V30 8085 H 751.022 6.02525 2.58154 0
M  V30 8086 H 750.542 4.7244 3.69541 0
M  V30 8087 H 752.221 5.31867 3.6841 0
M  V30 8088 N 752.353 -0.854086 1.3245 0
M  V30 8089 C 753.283 -1.97827 1.24044 0
M  V30 8090 C 754.264 -1.69646 0.124166 0
M  V30 8091 O 755.449 -1.91687 0.31143 0
M  V30 8092 C 752.579 -3.33673 0.963324 0
M  V30 8093 C 751.533 -3.76207 2.04089 0
M  V30 8094 C 750.859 -5.0969 1.61618 0
M  V30 8095 C 752.159 -3.91612 3.45597 0
M  V30 8096 H 753.853 -2.05118 2.18099 0
M  V30 8097 H 751.399 -0.985489 1.04996 0
M  V30 8098 H 753.352 -4.11871 0.891061 0
M  V30 8099 H 752.076 -3.26597 -0.0128649 0
M  V30 8100 H 750.735 -3.0026 2.10332 0
M  V30 8101 H 750.383 -4.99072 0.627418 0
M  V30 8102 H 750.083 -5.3912 2.33717 0
M  V30 8103 H 751.607 -5.90381 1.55829 0
M  V30 8104 H 753.021 -4.60163 3.4194 0
M  V30 8105 H 751.418 -4.3246 4.16051 0
M  V30 8106 H 752.488 -2.9451 3.85217 0
M  V30 8107 N 753.831 -1.1567 -1.07043 0
M  V30 8108 C 754.778 -0.856336 -2.14326 0
M  V30 8109 C 755.748 0.192051 -1.64986 0
M  V30 8110 O 756.933 0.0589148 -1.90709 0
M  V30 8111 C 754.073 -0.355227 -3.43267 0
M  V30 8112 C 753.186 -1.46555 -4.06381 0
M  V30 8113 C 752.321 -0.920245 -5.23168 0
M  V30 8114 C 751.36 -2.00729 -5.78251 0
M  V30 8115 N 750.497 -1.47813 -6.86364 0
M  V30 8116 H 755.337 -1.77514 -2.39359 0
M  V30 8117 H 752.874 -0.885676 -1.17449 0
M  V30 8118 H 754.832 -0.0463804 -4.17174 0
M  V30 8119 H 753.462 0.526649 -3.18475 0
M  V30 8120 H 752.514 -1.89052 -3.30096 0
M  V30 8121 H 753.826 -2.28616 -4.43324 0
M  V30 8122 H 752.98 -0.564127 -6.04072 0
M  V30 8123 H 751.719 -0.0688477 -4.87651 0
M  V30 8124 H 750.724 -2.3722 -4.95991 0
M  V30 8125 H 751.949 -2.86252 -6.15822 0
M  V30 8126 H 749.895 -0.649145 -6.5278 0
M  V30 8127 H 749.812 -2.23498 -7.22208 0
M  V30 8128 H 751.08 -1.15036 -7.70965 0
M  V30 8129 N 755.309 1.25446 -0.953992 0
M  V30 8130 C 756.241 2.25111 -0.431004 0
M  V30 8131 C 757.254 1.56377 0.452764 0
M  V30 8132 O 758.443 1.76579 0.261144 0
M  V30 8133 C 755.543 3.3655 0.39839 0
M  V30 8134 C 754.716 4.34843 -0.472229 0
M  V30 8135 C 753.775 5.25351 0.29886 0
M  V30 8136 O 752.801 5.68396 -0.302522 0
M  V30 8137 N 754.003 5.5824 1.59211 0
M  V30 8138 H 756.768 2.70619 -1.28785 0
M  V30 8139 H 754.329 1.39346 -0.824281 0
M  V30 8140 H 756.321 3.94059 0.921941 0
M  V30 8141 H 754.891 2.90436 1.15609 0
M  V30 8142 H 754.111 3.76222 -1.17689 0
M  V30 8143 H 755.399 4.97497 -1.06648 0
M  V30 8144 H 754.797 5.25172 2.10264 0
M  V30 8145 H 753.354 6.18336 2.06164 0
M  V30 8146 N 756.787 0.722489 1.40064 0
M  V30 8147 C 757.734 0.0743738 2.3068 0
M  V30 8148 C 758.704 -0.743004 1.48555 0
M  V30 8149 O 759.889 -0.705536 1.77276 0
M  V30 8150 C 757.029 -0.836292 3.34814 0
M  V30 8151 C 756.142 -0.00764663 4.31999 0
M  V30 8152 C 755.277 -0.918428 5.232 0
M  V30 8153 C 754.316 -0.0842838 6.12042 0
M  V30 8154 N 753.453 -0.950316 6.95639 0
M  V30 8155 H 758.293 0.852794 2.85537 0
M  V30 8156 H 755.83 0.432222 1.40607 0
M  V30 8157 H 757.788 -1.3786 3.93765 0
M  V30 8158 H 756.418 -1.58082 2.81443 0
M  V30 8159 H 755.47 0.651928 3.74772 0
M  V30 8160 H 756.782 0.63786 4.94705 0
M  V30 8161 H 755.936 -1.52902 5.87116 0
M  V30 8162 H 754.675 -1.59774 4.60786 0
M  V30 8163 H 753.68 0.5392 5.4715 0
M  V30 8164 H 754.905 0.591628 6.76518 0
M  V30 8165 H 752.851 -1.61515 6.35806 0
M  V30 8166 H 752.768 -0.361004 7.55138 0
M  V30 8167 H 754.036 -1.54687 7.63997 0
M  V30 8168 N 758.265 -1.50454 0.469181 0
M  V30 8169 C 759.505 -2.04222 -0.0852381 0
M  V30 8170 C 759.869 -1.34357 -1.37158 0
M  V30 8171 O 761.07 -1.78669 -2.00825 0
M  V30 8172 C 759.341 -3.56403 -0.266778 0
M  V30 8173 S 760.9 -4.31811 -0.780028 0
M  V30 8174 H 757.718 -0.7108 -0.0168589 0
M  V30 8175 H 760.32 -1.8487 0.635883 0
M  V30 8176 H 759.024 -4.04807 0.67525 0
M  V30 8177 H 758.555 -3.80106 -1.01407 0
M  V30 8178 H 760.57 -4.51706 -2.05368 0
M  V30 8179 N 759.743 -0.201713 -1.56304 0
M  V30 8180 C 760.99 0.435307 -1.97766 0
M  V30 8181 C 761.318 1.61169 -1.0888 0
M  V30 8182 O 760.573 1.95272 -0.12934 0
M  V30 8183 C 760.872 0.931432 -3.45049 0
M  V30 8184 C 760.538 -0.132287 -4.50706 0
M  V30 8185 C 759.2 -0.424552 -4.79323 0
M  V30 8186 C 761.552 -0.852703 -5.14177 0
M  V30 8187 C 758.88 -1.4421 -5.68701 0
M  V30 8188 C 761.232 -1.85944 -6.04655 0
M  V30 8189 C 759.896 -2.15884 -6.31625 0
M  V30 8190 H 759.166 0.15929 -0.723676 0
M  V30 8191 H 761.813 -0.300069 -1.89134 0
M  V30 8192 H 760.118 1.7452 -3.50785 0
M  V30 8193 H 761.815 1.43383 -3.74489 0
M  V30 8194 H 758.405 0.105671 -4.2847 0
M  V30 8195 H 762.589 -0.640139 -4.92154 0
M  V30 8196 H 757.845 -1.6799 -5.87869 0
M  V30 8197 H 762.019 -2.42286 -6.52894 0
M  V30 8198 H 759.646 -2.94875 -7.0068 0
M  V30 8199 N 761.222 1.57436 0.0718424 0
M  V30 8200 C 762.447 1.91858 0.787745 0
M  V30 8201 C 762.872 0.798119 1.70328 0
M  V30 8202 O 762.23 -0.24905 1.79581 0
M  V30 8203 C 762.278 3.25232 1.55744 0
M  V30 8204 O 761.382 3.14462 2.6681 0
M  V30 8205 H 760.723 0.628258 0.214914 0
M  V30 8206 H 763.253 2.04561 0.0401012 0
M  V30 8207 H 763.263 3.59105 1.9367 0
M  V30 8208 H 761.938 4.0636 0.885691 0
M  V30 8209 H 760.515 2.92148 2.31741 0
M  V30 8210 N 762.7 -0.34323 1.53817 0
M  V30 8211 C 763.61 -1.44493 1.84821 0
M  V30 8212 C 764.626 -1.57556 0.738381 0
M  V30 8213 O 765.802 -1.73026 1.03072 0
M  V30 8214 C 762.867 -2.79478 2.05166 0
M  V30 8215 C 761.928 -2.75756 3.29025 0
M  V30 8216 C 761.161 -4.04302 3.4839 0
M  V30 8217 O 761.384 -5.01595 2.71586 0
M  V30 8218 O 760.318 -4.08754 4.41819 0
M  V30 8219 H 764.144 -1.21209 2.78464 0
M  V30 8220 H 761.729 -0.535437 1.39476 0
M  V30 8221 H 763.611 -3.59419 2.19991 0
M  V30 8222 H 762.286 -3.02692 1.14713 0
M  V30 8223 H 761.193 -1.94434 3.19603 0
M  V30 8224 H 762.526 -2.57495 4.19472 0
M  V30 8225 N 764.178 -1.45556 -0.604258 0
M  V30 8226 C 765.594 -1.30035 -0.925368 0
M  V30 8227 C 765.794 -0.255833 -1.99869 0
M  V30 8228 O 764.85 0.349076 -2.50075 0
M  V30 8229 C 766.163 -2.68028 -1.36314 0
M  V30 8230 C 767.711 -2.75951 -1.47717 0
M  V30 8231 C 768.186 -4.14476 -1.94868 0
M  V30 8232 N 769.677 -4.16787 -2.02097 0
M  V30 8233 C 770.412 -5.20845 -2.39809 0
M  V30 8234 N 769.908 -6.35246 -2.76467 0
M  V30 8235 N 771.701 -5.08204 -2.40177 0
M  V30 8236 H 763.852 -2.1214 0.10512 0
M  V30 8237 H 766.115 -0.947871 -0.0156303 0
M  V30 8238 H 765.821 -3.45667 -0.648628 0
M  V30 8239 H 765.695 -2.96711 -2.329 0
M  V30 8240 H 768.082 -1.98613 -2.18258 0
M  V30 8241 H 768.163 -2.50977 -0.494371 0
M  V30 8242 H 767.807 -4.923 -1.24912 0
M  V30 8243 H 767.737 -4.36843 -2.94068 0
M  V30 8244 H 770.228 -3.34233 -1.76343 0
M  V30 8245 H 770.541 -7.10438 -3.04134 0
M  V30 8246 H 768.886 -6.38642 -2.74155 0
M  V30 8247 H 772.077 -4.17874 -2.10947 0
M  V30 8248 H 772.25 -5.89417 -2.69242 0
M  V30 8249 N 765.656 0.84705 -1.32902 0
M  V30 8250 C 766.566 1.98845 -1.2449 0
M  V30 8251 C 767.582 1.7329 -0.15702 0
M  V30 8252 O 768.758 1.978 -0.379104 0
M  V30 8253 C 765.823 3.32679 -0.975985 0
M  V30 8254 C 764.884 3.71405 -2.15306 0
M  V30 8255 C 764.117 4.98853 -1.89688 0
M  V30 8256 O 764.34 5.64134 -0.843168 0
M  V30 8257 O 763.274 5.34889 -2.76002 0
M  V30 8258 H 767.1 2.0888 -2.2046 0
M  V30 8259 H 764.685 0.978852 -1.12867 0
M  V30 8260 H 766.567 4.12885 -0.842826 0
M  V30 8261 H 765.242 3.23667 -0.0464954 0
M  V30 8262 H 764.149 2.91743 -2.34172 0
M  V30 8263 H 765.482 3.85073 -3.06561 0
M  V30 8264 N 767.134 1.16236 1.06428 0
M  V30 8265 C 768.097 0.870163 2.1204 0
M  V30 8266 C 769.097 -0.134239 1.60239 0
M  V30 8267 O 770.287 0.0964932 1.73933 0
M  V30 8268 C 767.419 0.301033 3.39568 0
M  V30 8269 H 768.612 1.8064 2.39394 0
M  V30 8270 H 766.165 0.971116 1.2247 0
M  V30 8271 H 766.9 -0.642948 3.17863 0
M  V30 8272 H 766.685 1.02475 3.78472 0
M  V30 8273 H 768.175 0.114494 4.17443 0
M  V30 8274 N 768.612 -1.24939 0.960631 0
M  V30 8275 C 769.837 -1.9742 0.635608 0
M  V30 8276 C 770.262 -1.70857 -0.786737 0
M  V30 8277 O 769.62 -0.968063 -1.53291 0
M  V30 8278 C 769.668 -3.48987 0.907771 0
M  V30 8279 O 768.772 -4.12399 -0.0104053 0
M  V30 8280 H 768.113 -0.61871 0.241027 0
M  V30 8281 H 770.643 -1.58901 1.28886 0
M  V30 8282 H 770.653 -3.99334 0.836453 0
M  V30 8283 H 769.328 -3.6765 1.94439 0
M  V30 8284 H 767.905 -3.72727 0.113631 0
M  V30 8285 N 770.09 -0.729906 -1.39679 0
M  V30 8286 C 771.367 -0.202149 -1.94553 0
M  V30 8287 C 771.747 1.29507 -1.66707 0
M  V30 8288 O 771.095 2.05819 -0.992517 0
M  V30 8289 C 771.305 -0.530279 -3.44948 0
M  V30 8290 C 772.653 -0.476808 -4.21914 0
M  V30 8291 O 773.677 -0.467171 -3.53123 0
M  V30 8292 O 772.536 -0.466869 -5.44502 0
M  V30 8293 H 769.63 -0.0351644 -0.826252 0
M  V30 8294 H 772.176 -0.808417 -1.49207 0
M  V30 8295 H 770.948 -1.56526 -3.5863 0
M  V30 8296 H 770.571 0.10522 -3.97461 0
M  V30 8297 N 771.568 1.50203 -0.477153 0
M  V30 8298 C 772.817 2.01551 0.0774548 0
M  V30 8299 C 773.13 1.36359 1.40234 0
M  V30 8300 O 774.336 1.78898 2.04225 0
M  V30 8301 C 772.792 3.59406 0.188539 0
M  V30 8302 C 772.4 4.3356 -1.12828 0
M  V30 8303 C 774.144 4.18776 0.694782 0
M  V30 8304 C 772.051 5.83213 -0.98066 0
M  V30 8305 H 770.981 0.75329 0.0327212 0
M  V30 8306 H 773.632 1.72959 -0.612969 0
M  V30 8307 H 772.014 3.84611 0.942881 0
M  V30 8308 H 773.188 4.20074 -1.89405 0
M  V30 8309 H 771.503 3.85827 -1.5661 0
M  V30 8310 H 774.1 5.28338 0.822356 0
M  V30 8311 H 774.443 3.80557 1.68766 0
M  V30 8312 H 774.976 3.978 -0.00234519 0
M  V30 8313 H 771.715 6.25914 -1.94709 0
M  V30 8314 H 771.235 5.99256 -0.255375 0
M  V30 8315 H 772.914 6.4373 -0.649717 0
M  V30 8316 N 773.046 0.209999 1.56195 0
M  V30 8317 C 773.976 -0.699746 2.22769 0
M  V30 8318 C 774.957 -1.20993 1.1956 0
M  V30 8319 O 776.142 -1.25605 1.48112 0
M  V30 8320 C 773.272 -1.91302 2.89863 0
M  V30 8321 C 772.226 -1.53715 3.99444 0
M  V30 8322 C 771.552 -2.82826 4.53777 0
M  V30 8323 C 772.852 -0.735836 5.17091 0
M  V30 8324 H 774.546 -0.144716 2.9905 0
M  V30 8325 H 772.092 -0.0681645 1.43839 0
M  V30 8326 H 774.045 -2.5548 3.35124 0
M  V30 8327 H 772.769 -2.49283 2.11011 0
M  V30 8328 H 771.428 -0.918892 3.54897 0
M  V30 8329 H 771.076 -3.38927 3.71669 0
M  V30 8330 H 770.776 -2.58415 5.27727 0
M  V30 8331 H 772.3 -3.47966 5.01749 0
M  V30 8332 H 773.714 -1.28105 5.58804 0
M  V30 8333 H 772.111 -0.589272 5.972 0
M  V30 8334 H 773.181 0.260004 4.84202 0
M  V30 8335 N 774.524 -1.57472 -0.0634922 0
M  V30 8336 C 775.754 -1.91608 -0.772645 0
M  V30 8337 C 776.162 -0.805019 -1.71219 0
M  V30 8338 O 775.505 0.229941 -1.82255 0
M  V30 8339 C 775.567 -3.21281 -1.61304 0
M  V30 8340 C 775.231 -4.49177 -0.841973 0
M  V30 8341 C 776.228 -5.19661 -0.157494 0
M  V30 8342 C 773.913 -4.9578 -0.80669 0
M  V30 8343 C 775.907 -6.35006 0.551948 0
M  V30 8344 C 773.594 -6.11028 -0.0934812 0
M  V30 8345 C 774.592 -6.80493 0.58463 0
M  V30 8346 O 774.28 -7.93542 1.28633 0
M  V30 8347 H 774.012 -0.637685 -0.224352 0
M  V30 8348 H 776.566 -2.05369 -0.0355279 0
M  V30 8349 H 774.796 -3.03752 -2.39315 0
M  V30 8350 H 776.485 -3.41003 -2.20162 0
M  V30 8351 H 777.251 -4.84681 -0.176006 0
M  V30 8352 H 773.13 -4.41579 -1.32397 0
M  V30 8353 H 776.674 -6.89161 1.0818 0
M  V30 8354 H 772.571 -6.45459 -0.0729258 0
M  V30 8355 H 773.339 -8.09708 1.19646 0
M  V30 8356 N 776.003 0.335068 -1.53997 0
M  V30 8357 C 777.249 1.07594 -1.71905 0
M  V30 8358 C 777.582 1.88039 -0.485264 0
M  V30 8359 O 776.857 1.87482 0.517752 0
M  V30 8360 C 777.14 2.01016 -2.98772 0
M  V30 8361 C 776.993 1.23977 -4.32377 0
M  V30 8362 C 778.312 3.0071 -3.21343 0
M  V30 8363 H 775.431 0.38976 -0.625505 0
M  V30 8364 H 778.073 0.353684 -1.86679 0
M  V30 8365 H 776.223 2.62603 -2.86307 0
M  V30 8366 H 777.895 0.649383 -4.56706 0
M  V30 8367 H 776.138 0.541878 -4.30402 0
M  V30 8368 H 776.809 1.92512 -5.17342 0
M  V30 8369 H 779.285 2.4924 -3.33194 0
M  V30 8370 H 778.161 3.63272 -4.11491 0
M  V30 8371 H 778.422 3.72549 -2.38033 0
M  V30 8372 N 777.481 1.45874 0.596531 0
M  V30 8373 C 778.73 1.49737 1.35135 0
M  V30 8374 C 779.043 0.147755 1.95041 0
M  V30 8375 O 780.249 0.0640984 2.71424 0
M  V30 8376 C 778.705 2.6378 2.44843 0
M  V30 8377 C 778.313 4.05102 1.91301 0
M  V30 8378 C 780.057 2.769 3.21755 0
M  V30 8379 C 777.964 5.10508 2.98557 0
M  V30 8380 H 776.894 0.557219 0.507959 0
M  V30 8381 H 779.545 1.72046 0.638147 0
M  V30 8382 H 777.927 2.34774 3.189 0
M  V30 8383 H 779.101 4.43836 1.2388 0
M  V30 8384 H 777.416 3.96528 1.271 0
M  V30 8385 H 780.013 3.52819 4.01775 0
M  V30 8386 H 780.356 1.83924 3.73467 0
M  V30 8387 H 780.889 3.05485 2.54802 0
M  V30 8388 H 777.628 6.0523 2.51749 0
M  V30 8389 H 777.148 4.76332 3.6451 0
M  V30 8390 H 778.827 5.35745 3.62748 0
M  V30 8391 N 778.959 -0.83999 1.33349 0
M  V30 8392 C 780.184 -1.63249 1.27924 0
M  V30 8393 C 780.609 -1.87523 -0.147193 0
M  V30 8394 O 779.967 -1.43853 -1.10345 0
M  V30 8395 C 780.015 -2.96046 2.05886 0
M  V30 8396 O 779.119 -3.87303 1.4167 0
M  V30 8397 H 778.46 -0.49715 0.440157 0
M  V30 8398 H 780.99 -1.04512 1.75893 0
M  V30 8399 H 781 -3.45752 2.16609 0
M  V30 8400 H 779.675 -2.77701 3.09605 0
M  V30 8401 H 778.252 -3.45789 1.39585 0
M  V30 8402 N 780.437 -1.16799 -1.0581 0
M  V30 8403 C 781.384 -0.87902 -2.13405 0
M  V30 8404 C 782.354 0.174541 -1.6518 0
M  V30 8405 O 783.539 0.0386843 -1.90761 0
M  V30 8406 C 780.679 -0.391616 -3.42871 0
M  V30 8407 C 779.792 -1.50857 -4.04804 0
M  V30 8408 C 778.927 -0.975682 -5.22163 0
M  V30 8409 C 777.966 -2.06851 -5.76089 0
M  V30 8410 N 777.103 -1.55085 -6.84758 0
M  V30 8411 H 781.943 -1.80043 -2.37463 0
M  V30 8412 H 779.48 -0.898083 -1.16503 0
M  V30 8413 H 781.438 -0.0906247 -4.17102 0
M  V30 8414 H 780.068 0.49284 -3.19016 0
M  V30 8415 H 779.12 -1.92542 -3.28073 0
M  V30 8416 H 780.432 -2.33305 -4.40874 0
M  V30 8417 H 779.586 -0.628165 -6.03439 0
M  V30 8418 H 778.325 -0.120566 -4.87551 0
M  V30 8419 H 777.33 -2.42467 -4.93447 0
M  V30 8420 H 778.555 -2.92768 -6.12751 0
M  V30 8421 H 776.501 -0.718345 -6.52055 0
M  V30 8422 H 776.418 -2.31145 -7.19797 0
M  V30 8423 H 777.686 -1.23206 -7.69702 0
M  V30 8424 N 781.915 1.24427 -0.967243 0
M  V30 8425 C 783.143 1.96541 -0.646477 0
M  V30 8426 C 783.558 1.71753 0.783996 0
M  V30 8427 O 782.915 1.00102 1.52597 0
M  V30 8428 C 782.966 3.4983 -0.911098 0
M  V30 8429 O 782.687 3.7377 -2.28534 0
M  V30 8430 C 784.188 4.3916 -0.604458 0
M  V30 8431 H 781.408 0.626129 -0.241255 0
M  V30 8432 H 783.952 1.58268 -1.29505 0
M  V30 8433 H 782.107 3.86168 -0.308741 0
M  V30 8434 H 782.521 4.68154 -2.365 0
M  V30 8435 H 783.995 5.4557 -0.840069 0
M  V30 8436 H 784.472 4.36771 0.461273 0
M  V30 8437 H 785.078 4.08409 -1.1867 0
M  V30 8438 N 783.393 0.737304 1.3929 0
M  V30 8439 C 784.639 0.286681 2.00763 0
M  V30 8440 C 784.972 -1.12388 1.58375 0
M  V30 8441 O 784.247 -1.76661 0.813699 0
M  V30 8442 C 784.53 0.391147 3.57969 0
M  V30 8443 C 784.383 1.84165 4.1037 0
M  V30 8444 C 785.702 -0.225072 4.39524 0
M  V30 8445 H 782.821 0.105642 0.729389 0
M  V30 8446 H 785.463 0.933892 1.65464 0
M  V30 8447 H 783.613 -0.159875 3.88171 0
M  V30 8448 H 785.285 2.44972 3.90879 0
M  V30 8449 H 783.528 2.3622 3.63844 0
M  V30 8450 H 784.199 1.866 5.19504 0
M  V30 8451 H 786.675 0.244677 4.1538 0
M  V30 8452 H 785.551 -0.121646 5.48765 0
M  V30 8453 H 785.812 -1.31141 4.22202 0
M  V30 8454 N 784.871 -1.49948 0.485112 0
M  V30 8455 C 786.148 -1.95186 -0.12726 0
M  V30 8456 C 786.528 -1.42605 -1.5565 0
M  V30 8457 O 785.876 -0.632986 -2.19558 0
M  V30 8458 C 786.086 -3.48955 -0.0562117 0
M  V30 8459 C 787.434 -4.23932 -0.238106 0
M  V30 8460 O 788.458 -3.55955 -0.132145 0
M  V30 8461 O 787.317 -5.44614 -0.453658 0
M  V30 8462 H 784.411 -0.820433 -0.104014 0
M  V30 8463 H 786.957 -1.60659 0.546517 0
M  V30 8464 H 785.729 -3.79814 0.941122 0
M  V30 8465 H 785.352 -3.90056 -0.770834 0
M  V30 8466 N 786.349 -0.21828 -1.56081 0
M  V30 8467 C 787.579 0.41865 -2.02314 0
M  V30 8468 C 787.987 1.54124 -1.09739 0
M  V30 8469 O 787.33 1.83435 -0.0986829 0
M  V30 8470 C 787.392 1.01439 -3.44892 0
M  V30 8471 C 787.056 0.0276523 -4.56992 0
M  V30 8472 C 788.053 -0.771526 -5.14143 0
M  V30 8473 C 785.738 -0.0901537 -5.02219 0
M  V30 8474 C 787.732 -1.67525 -6.14991 0
M  V30 8475 C 785.419 -0.997411 -6.02905 0
M  V30 8476 C 786.417 -1.78851 -6.59167 0
M  V30 8477 O 786.105 -2.68052 -7.57894 0
M  V30 8478 H 785.837 0.107066 -0.667468 0
M  V30 8479 H 788.391 -0.331191 -2.02712 0
M  V30 8480 H 786.621 1.81326 -3.41552 0
M  V30 8481 H 788.31 1.55838 -3.74792 0
M  V30 8482 H 789.076 -0.690945 -4.80053 0
M  V30 8483 H 784.955 0.515474 -4.58109 0
M  V30 8484 H 788.499 -2.29316 -6.58832 0
M  V30 8485 H 784.396 -1.07902 -6.36418 0
M  V30 8486 H 785.164 -2.6209 -7.75404 0
M  V30 8487 N 787.827 1.57504 0.0551401 0
M  V30 8488 C 788.757 2.07864 1.06372 0
M  V30 8489 C 789.738 0.975565 1.39344 0
M  V30 8490 O 790.923 1.24929 1.48682 0
M  V30 8491 C 788.053 2.53643 2.3724 0
M  V30 8492 C 787.007 3.67978 2.18578 0
M  V30 8493 C 786.333 3.9987 3.54976 0
M  V30 8494 C 787.633 4.97405 1.59329 0
M  V30 8495 H 789.327 2.92379 0.644595 0
M  V30 8496 H 786.873 1.40654 0.308619 0
M  V30 8497 H 788.826 2.8749 3.08103 0
M  V30 8498 H 787.55 1.66177 2.81163 0
M  V30 8499 H 786.209 3.3444 1.50152 0
M  V30 8500 H 785.857 3.0951 3.965 0
M  V30 8501 H 785.557 4.76867 3.43324 0
M  V30 8502 H 787.081 4.36228 4.27244 0
M  V30 8503 H 788.495 5.29375 2.20078 0
M  V30 8504 H 786.892 5.78837 1.58327 0
M  V30 8505 H 787.962 4.81697 0.55638 0
M  V30 8506 N 789.305 -0.326896 1.54172 0
M  V30 8507 C 790.255 -1.40319 1.79707 0
M  V30 8508 C 791.239 -1.47056 0.652938 0
M  V30 8509 O 792.431 -1.51645 0.91284 0
M  V30 8510 C 789.56 -2.77222 2.02491 0
M  V30 8511 C 788.646 -2.74811 3.23016 0
M  V30 8512 N 789.037 -2.42022 4.44138 0
M  V30 8513 C 787.335 -3.05943 3.24522 0
M  V30 8514 C 788.036 -2.48263 5.26061 0
M  V30 8515 N 787.012 -2.84567 4.63166 0
M  V30 8516 H 790.814 -1.13892 2.70935 0
M  V30 8517 H 788.328 -0.53536 1.53322 0
M  V30 8518 H 790.325 -3.54793 2.18923 0
M  V30 8519 H 788.985 -3.04582 1.12515 0
M  V30 8520 H 789.996 -2.14926 4.71197 0
M  V30 8521 H 786.673 -3.38367 2.44569 0
M  V30 8522 H 788.063 -2.2593 6.32776 0
M  V30 8523 N 790.784 -1.46188 -0.588786 0
M  V30 8524 C 792.024 -1.52738 -1.35833 0
M  V30 8525 C 792.388 -0.172403 -1.91224 0
M  V30 8526 O 793.589 -0.112633 -2.68564 0
M  V30 8527 C 791.86 -2.59085 -2.4619 0
M  V30 8528 S 793.419 -2.84997 -3.3365 0
M  V30 8529 H 790.237 -0.539713 -0.462851 0
M  V30 8530 H 792.839 -1.83386 -0.677489 0
M  V30 8531 H 791.543 -3.56177 -2.03878 0
M  V30 8532 H 791.074 -2.3015 -3.19053 0
M  V30 8533 H 793.089 -2.19804 -4.4486 0
M  V30 8534 N 792.262 0.832906 -1.33792 0
M  V30 8535 C 793.194 1.95042 -1.2038 0
M  V30 8536 C 794.207 1.62253 -0.133299 0
M  V30 8537 O 795.396 1.74315 -0.384261 0
M  V30 8538 C 792.496 3.287 -0.825215 0
M  V30 8539 C 791.669 3.89581 -1.98861 0
M  V30 8540 C 790.728 5.01602 -1.59003 0
M  V30 8541 O 789.754 5.20431 -2.30522 0
M  V30 8542 N 790.956 5.78356 -0.498446 0
M  V30 8543 H 793.721 2.07083 -2.16649 0
M  V30 8544 H 791.282 1.00896 -1.26616 0
M  V30 8545 H 793.274 4.01074 -0.540559 0
M  V30 8546 H 791.844 3.12565 0.0469796 0
M  V30 8547 H 791.064 3.09723 -2.43856 0
M  V30 8548 H 792.352 4.26989 -2.76691 0
M  V30 8549 H 791.75 5.65618 0.0963297 0
M  V30 8550 H 790.307 6.51226 -0.273485 0
M  V30 8551 N 793.74 1.17359 1.05189 0
M  V30 8552 C 794.988 0.960087 1.77839 0
M  V30 8553 C 795.309 -0.512554 1.88143 0
M  V30 8554 O 794.579 -1.3721 1.39822 0
M  V30 8555 H 793.159 0.352234 0.658741 0
M  V30 8556 H 795.821 1.47834 1.27008 0
M  V30 8557 H 794.917 1.38843 2.79516 0
M  V30 8558 N 795.218 -1.23913 0.973828 0
M  V30 8559 C 796.464 -1.92436 0.640026 0
M  V30 8560 C 796.797 -1.75875 -0.823512 0
M  V30 8561 O 796.072 -1.11563 -1.59323 0
M  V30 8562 C 796.355 -3.4526 1.0231 0
M  V30 8563 C 796.208 -3.70961 2.54378 0
M  V30 8564 C 797.527 -4.36495 0.562155 0
M  V30 8565 H 794.646 -0.698868 0.233992 0
M  V30 8566 H 797.288 -1.46163 1.21393 0
M  V30 8567 H 795.438 -3.84802 0.534751 0
M  V30 8568 H 797.11 -3.40941 3.10737 0
M  V30 8569 H 795.353 -3.15899 2.97305 0
M  V30 8570 H 796.024 -4.77912 2.76232 0
M  V30 8571 H 798.5 -4.04363 0.981333 0
M  V30 8572 H 797.376 -5.42142 0.858689 0
M  V30 8573 H 797.637 -4.38818 -0.537659 0
M  V30 8574 N 796.696 -0.74468 -1.38897 0
M  V30 8575 C 797.942 -0.297324 -2.00609 0
M  V30 8576 C 798.275 1.11547 -1.58968 0
M  V30 8577 O 797.55 1.76227 -0.823057 0
M  V30 8578 C 797.833 -0.410125 -3.57757 0
M  V30 8579 C 797.686 -1.86338 -4.09387 0
M  V30 8580 C 799.005 0.20176 -4.39637 0
M  V30 8581 H 796.124 -0.109509 -0.728819 0
M  V30 8582 H 798.766 -0.942653 -1.64967 0
M  V30 8583 H 796.916 0.139287 -3.8825 0
M  V30 8584 H 798.588 -2.47042 -3.89574 0
M  V30 8585 H 796.831 -2.38146 -3.62586 0
M  V30 8586 H 797.502 -1.89352 -5.18507 0
M  V30 8587 H 799.978 -0.266703 -4.15244 0
M  V30 8588 H 798.854 0.0925415 -5.48822 0
M  V30 8589 H 799.115 1.289 -4.22891 0
M  V30 8590 N 798.174 1.49689 -0.493057 0
M  V30 8591 C 799.124 2.25901 0.308682 0
M  V30 8592 C 800.108 1.30408 0.94247 0
M  V30 8593 O 801.3 1.55179 0.851384 0
M  V30 8594 C 798.429 3.14463 1.37725 0
M  V30 8595 C 797.515 4.17414 0.7501 0
M  V30 8596 N 797.906 5.05599 -0.142597 0
M  V30 8597 C 796.204 4.34377 1.01159 0
M  V30 8598 C 796.905 5.7954 -0.500782 0
M  V30 8599 N 795.881 5.43446 0.129386 0
M  V30 8600 H 799.683 2.91451 -0.378652 0
M  V30 8601 H 797.197 1.59441 -0.308614 0
M  V30 8602 H 799.194 3.67687 1.965 0
M  V30 8603 H 797.854 2.50464 2.06635 0
M  V30 8604 H 798.865 5.15354 -0.512894 0
M  V30 8605 H 795.542 3.81588 1.69402 0
M  V30 8606 H 796.932 6.60534 -1.23063 0
M  V30 8607 N 799.652 0.226554 1.55963 0
M  V30 8608 C 801.068 -0.128733 1.5908 0
M  V30 8609 C 801.268 -1.58558 1.24345 0
M  V30 8610 O 800.324 -2.32661 0.981069 0
M  V30 8611 C 801.637 0.202076 3.0002 0
M  V30 8612 C 803.185 0.144718 3.12665 0
M  V30 8613 C 803.66 0.449272 4.55791 0
M  V30 8614 N 805.151 0.399026 4.61478 0
M  V30 8615 C 805.886 0.608106 5.70166 0
M  V30 8616 N 805.382 0.879227 6.87198 0
M  V30 8617 N 807.175 0.5402 5.59498 0
M  V30 8618 H 799.326 1.17686 1.76816 0
M  V30 8619 H 801.589 0.472072 0.822102 0
M  V30 8620 H 801.295 1.21341 3.30105 0
M  V30 8621 H 801.169 -0.480554 3.74126 0
M  V30 8622 H 803.556 -0.857261 2.82374 0
M  V30 8623 H 803.637 0.860899 2.40878 0
M  V30 8624 H 803.281 1.44871 4.86801 0
M  V30 8625 H 803.211 -0.288157 5.25811 0
M  V30 8626 H 805.702 0.197372 3.77384 0
M  V30 8627 H 806.015 1.02673 7.65949 0
M  V30 8628 H 804.36 0.916477 6.88931 0
M  V30 8629 H 807.551 0.328581 4.66945 0
M  V30 8630 H 807.724 0.706548 6.44137 0
M  V30 8631 N 801.13 -1.57531 -0.0467866 0
M  V30 8632 C 802.407 -1.79568 -0.775536 0
M  V30 8633 C 802.787 -0.820322 -1.94509 0
M  V30 8634 O 802.135 0.14134 -2.28062 0
M  V30 8635 C 802.345 -3.26789 -1.22516 0
M  V30 8636 C 803.693 -3.91299 -1.64835 0
M  V30 8637 O 804.717 -3.30831 -1.3202 0
M  V30 8638 O 803.576 -4.97727 -2.25677 0
M  V30 8639 H 800.67 -0.737817 -0.373572 0
M  V30 8640 H 803.216 -1.69682 -0.0249302 0
M  V30 8641 H 801.988 -3.89357 -0.389446 0
M  V30 8642 H 801.611 -3.41496 -2.03633 0
M  V30 8643 N 802.608 0.318715 -1.54344 0
M  V30 8644 C 803.538 1.39751 -1.87061 0
M  V30 8645 C 804.519 1.53741 -0.727848 0
M  V30 8646 O 805.704 1.67541 -0.982016 0
M  V30 8647 C 802.834 2.76446 -2.10226 0
M  V30 8648 C 801.788 2.77239 -3.26071 0
M  V30 8649 C 801.114 4.17056 -3.34617 0
M  V30 8650 C 802.414 2.40555 -4.63606 0
M  V30 8651 H 804.108 1.12619 -2.77412 0
M  V30 8652 H 801.654 0.540318 -1.33479 0
M  V30 8653 H 803.607 3.51985 -2.31699 0
M  V30 8654 H 802.331 3.05066 -1.16629 0
M  V30 8655 H 800.99 2.04155 -3.04493 0
M  V30 8656 H 800.638 4.42824 -2.3857 0
M  V30 8657 H 800.338 4.18492 -4.12478 0
M  V30 8658 H 801.862 4.94401 -3.5833 0
M  V30 8659 H 803.276 3.05808 -4.84927 0
M  V30 8660 H 801.673 2.53234 -5.44052 0
M  V30 8661 H 802.743 1.35698 -4.65526 0
M  V30 8662 N 804.086 1.46499 0.581025 0
M  V30 8663 C 805.033 1.5719 1.68997 0
M  V30 8664 C 806.003 0.416114 1.60803 0
M  V30 8665 O 807.188 0.633086 1.79991 0
M  V30 8666 C 804.328 1.56973 3.07333 0
M  V30 8667 C 803.441 2.83298 3.26139 0
M  V30 8668 C 802.576 2.74574 4.54734 0
M  V30 8669 C 801.615 3.9583 4.66889 0
M  V30 8670 N 800.752 3.85482 5.86811 0
M  V30 8671 H 805.592 2.51914 1.59196 0
M  V30 8672 H 803.129 1.24975 0.775857 0
M  V30 8673 H 805.087 1.54832 3.87405 0
M  V30 8674 H 803.717 0.657803 3.16027 0
M  V30 8675 H 802.769 2.95411 2.3966 0
M  V30 8676 H 804.081 3.7316 3.30988 0
M  V30 8677 H 803.235 2.70548 5.43036 0
M  V30 8678 H 801.974 1.82354 4.52325 0
M  V30 8679 H 800.979 4.00186 3.77003 0
M  V30 8680 H 802.204 4.89148 4.71075 0
M  V30 8681 H 800.15 2.96051 5.85397 0
M  V30 8682 H 800.067 4.69002 5.92936 0
M  V30 8683 H 801.335 3.85434 6.7754 0
M  V30 8684 N 805.565 -0.825799 1.34232 0
M  V30 8685 C 806.976 -1.39835 1.23706 0
M  V30 8686 C 807.327 -1.95709 -0.138649 0
M  V30 8687 O 806.452 -1.89833 -1.03886 0
M  V30 8688 C 807.047 -2.54203 2.23978 0
M  V30 8689 C 805.606 -3.07374 2.17251 0
M  V30 8690 C 804.753 -1.80232 2.10741 0
M  V30 8691 H 807.704 -0.630442 1.4564 0
M  V30 8692 H 807.725 -3.32214 1.8551 0
M  V30 8693 H 807.237 -2.13506 3.24094 0
M  V30 8694 H 805.338 -3.52583 1.20483 0
M  V30 8695 H 805.451 -3.6666 3.08379 0
M  V30 8696 H 803.815 -2.01012 1.56417 0
M  V30 8697 H 804.598 -1.41713 3.12686 0
M  V30 8698 N 807.043 -1.17915 -1.04565 0
M  V30 8699 C 808.268 -0.996749 -1.81878 0
M  V30 8700 C 808.693 0.450169 -1.82634 0
M  V30 8701 O 808.051 1.32268 -1.23995 0
M  V30 8702 C 808.099 -1.55005 -3.25585 0
M  V30 8703 O 807.203 -0.76804 -4.05185 0
M  V30 8704 H 806.544 -0.353456 -0.562108 0
M  V30 8705 H 809.074 -1.56557 -1.31723 0
M  V30 8706 H 809.084 -1.57503 -3.76373 0
M  V30 8707 H 807.759 -2.60327 -3.2435 0
M  V30 8708 H 806.336 -0.81498 -3.63885 0
M  V30 8709 N 808.521 1.23394 -0.980386 0
M  V30 8710 C 809.469 2.26872 -0.513018 0
M  V30 8711 C 810.463 1.63853 0.429948 0
M  V30 8712 O 811.669 1.77417 0.303842 0
M  V30 8713 H 808.044 0.737398 -0.147473 0
M  V30 8714 H 810.015 2.63654 -1.39746 0
M  V30 8715 C 808.764 3.47289 0.168962 0
M  V30 8716 H 808.087 3.96033 -0.547546 0
M  V30 8717 H 809.527 4.21502 0.459616 0
M  V30 8718 C 807.986 3.06425 1.40019 0
M  V30 8719 O 808.516 3.14708 2.49643 0
M  V30 8720 N 806.722 2.61339 1.27084 0
M  V30 8721 H 806.269 2.54799 0.378872 0
M  V30 8722 H 806.227 2.34364 2.09573 0
M  V30 8723 N 809.999 0.752036 1.385 0
M  V30 8724 C 811.248 0.304294 1.99391 0
M  V30 8725 C 811.561 -1.11982 1.60373 0
M  V30 8726 O 812.767 -1.66795 2.14223 0
M  V30 8727 C 811.223 0.493101 3.56506 0
M  V30 8728 C 810.831 1.9262 4.04477 0
M  V30 8729 C 812.575 0.107994 4.24363 0
M  V30 8730 C 810.482 2.06365 5.54227 0
M  V30 8731 H 809.412 0.110024 0.745929 0
M  V30 8732 H 812.063 0.928355 1.58284 0
M  V30 8733 H 810.445 -0.20012 3.95494 0
M  V30 8734 H 811.619 2.65276 3.76783 0
M  V30 8735 H 809.934 2.26608 3.49339 0
M  V30 8736 H 812.531 0.189474 5.34364 0
M  V30 8737 H 812.874 -0.939165 4.05568 0
M  V30 8738 H 813.407 0.753011 3.90608 0
M  V30 8739 H 810.146 3.0933 5.77923 0
M  V30 8740 H 809.666 1.38167 5.83669 0
M  V30 8741 H 811.345 1.85286 6.19902 0
M  V30 8742 N 811.477 -1.49425 0.500989 0
M  V30 8743 C 812.407 -2.31971 -0.266775 0
M  V30 8744 C 813.388 -1.40245 -0.962563 0
M  V30 8745 O 814.573 -1.69154 -0.953968 0
M  V30 8746 C 811.703 -3.20757 -1.33163 0
M  V30 8747 C 810.657 -4.21275 -0.75572 0
M  V30 8748 C 809.983 -4.98997 -1.92109 0
M  V30 8749 C 811.283 -5.21686 0.253213 0
M  V30 8750 H 812.977 -2.96408 0.422237 0
M  V30 8751 H 810.523 -1.4254 0.204505 0
M  V30 8752 H 812.476 -3.77315 -1.87646 0
M  V30 8753 H 811.2 -2.54263 -2.04983 0
M  V30 8754 H 809.859 -3.65861 -0.232637 0
M  V30 8755 H 809.507 -4.28951 -2.62698 0
M  V30 8756 H 809.207 -5.67011 -1.54182 0
M  V30 8757 H 810.731 -5.584 -2.47026 0
M  V30 8758 H 812.145 -5.72939 -0.203483 0
M  V30 8759 H 810.542 -5.9759 0.548322 0
M  V30 8760 H 811.612 -4.70596 1.16909 0
M  V30 8761 N 812.955 -0.234822 -1.55841 0
M  V30 8762 C 814.185 0.397168 -2.02746 0
M  V30 8763 C 814.593 1.52951 -1.11367 0
M  V30 8764 O 813.936 1.8332 -0.118133 0
M  V30 8765 C 813.998 0.977748 -3.45948 0
M  V30 8766 C 813.662 -0.0208193 -4.56995 0
M  V30 8767 C 814.659 -0.826015 -5.13296 0
M  V30 8768 C 812.344 -0.143416 -5.02095 0
M  V30 8769 C 814.338 -1.74038 -6.1318 0
M  V30 8770 C 812.025 -1.0613 -6.01814 0
M  V30 8771 C 813.023 -1.85832 -6.57233 0
M  V30 8772 O 812.711 -2.76075 -7.55008 0
M  V30 8773 H 812.443 0.0999802 -0.668566 0
M  V30 8774 H 814.997 -0.352673 -2.0235 0
M  V30 8775 H 813.227 1.77693 -3.43456 0
M  V30 8776 H 814.916 1.51854 -3.76424 0
M  V30 8777 H 815.682 -0.741822 -4.79293 0
M  V30 8778 H 811.561 0.466857 -4.5863 0
M  V30 8779 H 815.105 -2.36291 -6.56363 0
M  V30 8780 H 811.002 -1.14646 -6.35237 0
M  V30 8781 H 811.77 -2.703 -7.7258 0
M  V30 8782 N 814.433 1.57553 0.0384317 0
M  V30 8783 C 815.366 2.01307 1.07475 0
M  V30 8784 C 816.344 0.895717 1.35704 0
M  V30 8785 O 817.528 1.16079 1.48519 0
M  V30 8786 C 814.655 2.37817 2.41165 0
M  V30 8787 C 813.701 3.599 2.28855 0
M  V30 8788 S 814.534 5.09418 1.65086 0
M  V30 8789 C 815.69 5.49162 3.00286 0
M  V30 8790 H 815.923 2.88892 0.702034 0
M  V30 8791 H 813.456 1.52394 0.248103 0
M  V30 8792 H 815.414 2.59524 3.18053 0
M  V30 8793 H 814.075 1.507 2.75587 0
M  V30 8794 H 813.268 3.83071 3.27525 0
M  V30 8795 H 812.87 3.37996 1.60109 0
M  V30 8796 H 815.162 5.49274 3.96617 0
M  V30 8797 H 816.105 6.49586 2.81858 0
M  V30 8798 H 816.513 4.76653 3.02427 0
M  V30 8799 N 815.911 -0.310526 1.54511 0
M  V30 8800 C 817.188 -1.06593 1.64004 0
M  V30 8801 C 817.568 -2.05519 0.482216 0
M  V30 8802 O 816.916 -2.22455 -0.52212 0
M  V30 8803 C 817.126 -1.75627 3.01589 0
M  V30 8804 C 818.474 -2.28173 3.58081 0
M  V30 8805 O 819.498 -1.85674 3.03979 0
M  V30 8806 O 818.357 -3.06015 4.52788 0
M  V30 8807 H 815.451 -0.492109 0.664649 0
M  V30 8808 H 817.997 -0.309374 1.66856 0
M  V30 8809 H 816.769 -1.03743 3.77297 0
M  V30 8810 H 816.392 -2.58061 3.02473 0
M  V30 8811 N 817.389 -1.46805 -0.573248 0
M  V30 8812 C 818.299 -1.60687 -1.70929 0
M  V30 8813 C 819.315 -0.490084 -1.66956 0
M  V30 8814 O 820.491 -0.755482 -1.86693 0
M  V30 8815 C 817.556 -1.60259 -3.07438 0
M  V30 8816 C 816.617 -2.83242 -3.22603 0
M  V30 8817 C 815.85 -2.82825 -4.52599 0
M  V30 8818 O 816.073 -1.92113 -5.37074 0
M  V30 8819 O 815.007 -3.74489 -4.71213 0
M  V30 8820 H 818.833 -2.56782 -1.62163 0
M  V30 8821 H 816.418 -1.29706 -0.741399 0
M  V30 8822 H 818.3 -1.6275 -3.88704 0
M  V30 8823 H 816.975 -0.673268 -3.16621 0
M  V30 8824 H 815.882 -2.86302 -2.40794 0
M  V30 8825 H 817.215 -3.75415 -3.18315 0
M  V30 8826 N 818.867 0.818669 -1.34668 0
M  V30 8827 C 820.092 1.61193 -1.30505 0
M  V30 8828 C 820.517 1.87734 0.117341 0
M  V30 8829 O 819.875 1.45591 1.08042 0
M  V30 8830 C 819.923 2.92733 -2.1057 0
M  V30 8831 O 819.027 3.85 -1.47813 0
M  V30 8832 H 818.368 0.490085 -0.44801 0
M  V30 8833 H 820.898 1.01701 -1.77534 0
M  V30 8834 H 820.908 3.42262 -2.22082 0
M  V30 8835 H 819.583 2.7274 -3.13984 0
M  V30 8836 H 818.16 3.43525 -1.45069 0
M  V30 8837 N 820.346 1.18468 1.03938 0
M  V30 8838 C 821.309 0.914944 2.10146 0
M  V30 8839 C 822.309 -0.10022 1.60487 0
M  V30 8840 O 823.499 0.133365 1.73689 0
M  V30 8841 C 820.631 0.372993 3.38853 0
M  V30 8842 H 821.824 1.85677 2.35508 0
M  V30 8843 H 819.377 0.996876 1.20383 0
M  V30 8844 H 820.112 -0.57538 3.19155 0
M  V30 8845 H 819.897 1.1048 3.76213 0
M  V30 8846 H 821.387 0.203014 4.17106 0
M  V30 8847 N 821.824 -1.22873 0.986916 0
M  V30 8848 C 823.049 -1.96028 0.677341 0
M  V30 8849 C 823.474 -1.72487 -0.750319 0
M  V30 8850 O 822.832 -1.00036 -1.51203 0
M  V30 8851 C 822.88 -3.46983 0.981593 0
M  V30 8852 O 821.984 -4.12328 0.0770729 0
M  V30 8853 H 821.325 -0.613458 0.254096 0
M  V30 8854 H 823.855 -1.56132 1.32227 0
M  V30 8855 H 823.865 -3.9747 0.920969 0
M  V30 8856 H 822.54 -3.63442 2.02194 0
M  V30 8857 H 821.117 -3.72402 0.192666 0
M  V30 8858 N 823.302 -0.75937 -1.38099 0
M  V30 8859 C 824.265 -0.14372 -2.28749 0
M  V30 8860 C 825.265 0.641338 -1.47457 0
M  V30 8861 O 826.455 0.466751 -1.67831 0
M  V30 8862 C 823.587 0.804545 -3.3127 0
M  V30 8863 H 824.78 -0.942663 -2.847 0
M  V30 8864 H 822.333 -0.526757 -1.47156 0
M  V30 8865 H 823.068 1.62895 -2.80421 0
M  V30 8866 H 822.853 0.243939 -3.9134 0
M  V30 8867 H 824.343 1.23111 -3.99041 0
M  V30 8868 N 824.78 1.49157 -0.508906 0
M  V30 8869 C 826.057 1.95363 0.0961913 0
M  V30 8870 C 826.437 1.45064 1.53362 0
M  V30 8871 O 825.785 0.667835 2.18523 0
M  V30 8872 C 825.995 3.49 0.000688881 0
M  V30 8873 C 827.343 4.24257 0.170632 0
M  V30 8874 O 828.367 3.5612 0.0754994 0
M  V30 8875 O 827.226 5.45267 0.366957 0
M  V30 8876 H 824.32 0.821984 0.0909489 0
M  V30 8877 H 826.866 1.59769 -0.572007 0
M  V30 8878 H 825.638 3.78269 -1.00143 0
M  V30 8879 H 825.261 3.91233 0.708682 0
M  V30 8880 N 826.258 0.243083 1.55714 0
M  V30 8881 C 827.483 -0.389944 2.03701 0
M  V30 8882 C 827.908 -1.51025 1.12129 0
M  V30 8883 O 827.266 -1.80944 0.11352 0
M  V30 8884 C 827.314 -0.878649 3.49731 0
M  V30 8885 O 826.418 -1.98851 3.61292 0
M  V30 8886 H 825.759 -0.0855115 0.658471 0
M  V30 8887 H 828.289 0.368023 2.01263 0
M  V30 8888 H 828.299 -1.18287 3.90477 0
M  V30 8889 H 826.974 -0.0588107 4.15858 0
M  V30 8890 H 825.551 -1.68928 3.32442 0
M  V30 8891 N 827.736 -1.57571 -0.0300757 0
M  V30 8892 C 828.985 -1.88407 -0.720126 0
M  V30 8893 C 829.298 -0.841466 -1.76575 0
M  V30 8894 O 830.504 -1.03902 -2.50832 0
M  V30 8895 C 828.96 -3.34348 -1.33188 0
M  V30 8896 C 828.568 -4.46837 -0.32266 0
M  V30 8897 C 830.312 -3.74333 -2.00187 0
M  V30 8898 C 828.219 -5.83838 -0.942703 0
M  V30 8899 H 827.149 -0.702952 -0.272718 0
M  V30 8900 H 829.8 -1.83482 0.0255337 0
M  V30 8901 H 828.182 -3.34014 -2.12721 0
M  V30 8902 H 829.356 -4.58638 0.445887 0
M  V30 8903 H 827.671 -4.15678 0.245181 0
M  V30 8904 H 830.268 -4.74008 -2.47428 0
M  V30 8905 H 830.611 -3.06275 -2.81959 0
M  V30 8906 H 831.144 -3.76837 -1.2743 0
M  V30 8907 H 827.883 -6.55294 -0.164413 0
M  V30 8908 H 827.403 -5.75759 -1.68111 0
M  V30 8909 H 829.082 -6.30535 -1.45034 0
M  V30 8910 N 829.214 0.302327 -1.54673 0
M  V30 8911 C 830.63 0.647911 -1.45857 0
M  V30 8912 C 830.83 1.90773 -0.64869 0
M  V30 8913 O 829.886 2.52018 -0.155865 0
M  V30 8914 C 831.199 0.802144 -2.89804 0
M  V30 8915 C 832.747 0.898114 -2.99838 0
M  V30 8916 C 833.222 1.08436 -4.44978 0
M  V30 8917 N 834.713 1.15059 -4.48682 0
M  V30 8918 C 835.448 1.31296 -5.58166 0
M  V30 8919 N 834.944 1.4444 -6.77576 0
M  V30 8920 N 836.737 1.34174 -5.45851 0
M  V30 8921 H 828.888 -0.525428 -2.05798 0
M  V30 8922 H 831.151 -0.173423 -0.932002 0
M  V30 8923 H 830.857 -0.0526531 -3.51661 0
M  V30 8924 H 830.731 1.69155 -3.37145 0
M  V30 8925 H 833.118 1.7434 -2.38096 0
M  V30 8926 H 833.199 -0.0152752 -2.55795 0
M  V30 8927 H 832.843 0.243843 -5.07314 0
M  V30 8928 H 832.773 2.01195 -4.8665 0
M  V30 8929 H 835.264 1.0626 -3.62653 0
M  V30 8930 H 835.577 1.56582 -7.56771 0
M  V30 8931 H 833.922 1.41499 -6.80443 0
M  V30 8932 H 837.113 1.23516 -4.5151 0
M  V30 8933 H 837.286 1.46485 -6.31226 0
M  V30 8934 N 830.692 1.47107 0.565454 0
M  V30 8935 C 831.941 1.5257 1.31929 0
M  V30 8936 C 832.254 0.189092 1.94684 0
M  V30 8937 O 833.46 0.121657 2.71227 0
M  V30 8938 C 831.916 2.68914 2.39193 0
M  V30 8939 C 831.524 4.09069 1.82665 0
M  V30 8940 C 833.268 2.83663 3.1581 0
M  V30 8941 C 831.175 5.16726 2.87661 0
M  V30 8942 H 830.105 0.567869 0.496025 0
M  V30 8943 H 832.756 1.73361 0.60151 0
M  V30 8944 H 831.138 2.41486 3.13848 0
M  V30 8945 H 832.312 4.46364 1.14438 0
M  V30 8946 H 830.627 3.99135 1.1866 0
M  V30 8947 H 833.224 3.61261 3.94201 0
M  V30 8948 H 833.567 1.91804 3.69482 0
M  V30 8949 H 834.1 3.10821 2.48265 0
M  V30 8950 H 830.839 6.10433 2.38854 0
M  V30 8951 H 830.359 4.83957 3.54324 0
M  V30 8952 H 832.038 5.43319 3.51303 0
M  V30 8953 N 832.17 -0.811516 1.35101 0
M  V30 8954 C 833.41 -1.58177 1.29458 0
M  V30 8955 C 833.774 -1.91555 -0.130688 0
M  V30 8956 O 834.975 -2.6699 -0.311428 0
M  V30 8957 C 833.246 -2.83896 2.17112 0
M  V30 8958 S 834.805 -3.74344 2.28936 0
M  V30 8959 H 831.623 -0.542021 0.460146 0
M  V30 8960 H 834.225 -0.957653 1.70438 0
M  V30 8961 H 832.929 -2.57391 3.19653 0
M  V30 8962 H 832.46 -3.51297 1.7707 0
M  V30 8963 H 834.475 -4.73909 1.47054 0
M  V30 8964 N 833.648 -1.19017 -1.03309 0
M  V30 8965 C 834.925 -0.899659 -1.73682 0
M  V30 8966 C 835.305 0.595677 -2.02521 0
M  V30 8967 O 834.653 1.55263 -1.67648 0
M  V30 8968 C 834.863 -1.75508 -3.01659 0
M  V30 8969 C 836.211 -1.98679 -3.75249 0
M  V30 8970 O 837.235 -1.72624 -3.11576 0
M  V30 8971 O 836.094 -2.42587 -4.89708 0
M  V30 8972 H 833.188 -0.334903 -0.756154 0
M  V30 8973 H 835.734 -1.29809 -1.09305 0
M  V30 8974 H 834.506 -2.7684 -2.76542 0
M  V30 8975 H 834.129 -1.35565 -3.73775 0
M  V30 8976 N 835.127 1.22348 -0.993418 0
M  V30 8977 C 836.374 1.9111 -0.669568 0
M  V30 8978 C 836.702 1.77357 0.79843 0
M  V30 8979 O 835.957 1.13675 1.593 0
M  V30 8980 C 836.256 3.42477 -1.02197 0
M  V30 8981 C 835.922 3.7642 -2.48232 0
M  V30 8982 C 834.584 3.85395 -2.88139 0
M  V30 8983 C 836.936 3.9253 -3.42884 0
M  V30 8984 C 834.264 4.07918 -4.21687 0
M  V30 8985 C 836.616 4.16557 -4.76091 0
M  V30 8986 C 835.28 4.23757 -5.15739 0
M  V30 8987 H 834.55 0.699321 -0.245012 0
M  V30 8988 H 837.197 1.45102 -1.2497 0
M  V30 8989 H 835.502 3.90143 -0.359921 0
M  V30 8990 H 837.199 3.93935 -0.74942 0
M  V30 8991 H 833.789 3.70017 -2.16299 0
M  V30 8992 H 837.973 3.84974 -3.13224 0
M  V30 8993 H 833.229 4.11719 -4.51993 0
M  V30 8994 H 837.403 4.27966 -5.4938 0
M  V30 8995 H 835.03 4.40962 -6.19239 0
M  V30 8996 N 836.605 0.766683 1.37694 0
M  V30 8997 C 837.853 0.328065 1.9942 0
M  V30 8998 C 838.174 -1.09775 1.61166 0
M  V30 8999 O 837.444 -1.75288 0.874686 0
M  V30 9000 H 836.024 0.11831 0.737572 0
M  V30 9001 H 838.686 0.983686 1.68255 0
M  V30 9002 H 837.782 0.401647 3.09505 0
M  V30 9003 N 838.083 -1.48885 0.516809 0
M  V30 9004 C 839.33 -2.02488 -0.0220602 0
M  V30 9005 C 839.658 -1.39513 -1.35523 0
M  V30 9006 O 838.913 -0.52558 -1.8851 0
M  V30 9007 C 839.212 -3.56801 -0.206798 0
M  V30 9008 C 838.878 -4.38496 1.05035 0
M  V30 9009 C 837.54 -4.60538 1.39492 0
M  V30 9010 C 839.892 -4.85909 1.88525 0
M  V30 9011 C 837.22 -5.2724 2.57361 0
M  V30 9012 C 839.572 -5.53909 3.05561 0
M  V30 9013 C 838.236 -5.74193 3.4038 0
M  V30 9014 H 837.506 -0.740956 -0.00807238 0
M  V30 9015 H 840.153 -1.79014 0.680168 0
M  V30 9016 H 838.458 -3.79042 -0.991687 0
M  V30 9017 H 840.155 -3.95885 -0.638447 0
M  V30 9018 H 836.745 -4.2159 0.771984 0
M  V30 9019 H 840.929 -4.68694 1.63218 0
M  V30 9020 H 836.185 -5.41145 2.84556 0
M  V30 9021 H 840.359 -5.89619 3.7057 0
M  V30 9022 H 837.986 -6.25652 4.31814 0
M  V30 9023 N 839.561 -0.251338 -1.55583 0
M  V30 9024 C 840.524 0.63305 -2.20284 0
M  V30 9025 C 841.524 1.09941 -1.17344 0
M  V30 9026 O 842.714 1.00341 -1.42399 0
M  V30 9027 C 839.846 1.8706 -2.84993 0
M  V30 9028 H 841.039 0.0684846 -2.99822 0
M  V30 9029 H 838.592 -0.00181653 -1.563 0
M  V30 9030 H 839.327 2.47629 -2.09405 0
M  V30 9031 H 839.112 1.54436 -3.60405 0
M  V30 9032 H 840.602 2.50004 -3.34496 0
M  V30 9033 N 841.039 1.57585 0.0217189 0
M  V30 9034 C 841.986 2.07036 1.02004 0
M  V30 9035 C 842.956 0.96106 1.35473 0
M  V30 9036 O 844.141 1.23211 1.45684 0
M  V30 9037 C 841.281 2.56056 2.31364 0
M  V30 9038 C 840.394 3.80805 2.03989 0
M  V30 9039 C 839.529 4.18409 3.27272 0
M  V30 9040 C 838.568 5.36055 2.95486 0
M  V30 9041 N 837.705 5.69056 4.11242 0
M  V30 9042 H 842.545 2.92073 0.591396 0
M  V30 9043 H 840.082 1.44403 0.280384 0
M  V30 9044 H 842.04 2.82548 3.06957 0
M  V30 9045 H 840.67 1.73925 2.71937 0
M  V30 9046 H 839.722 3.61354 1.1886 0
M  V30 9047 H 841.034 4.66512 1.76546 0
M  V30 9048 H 840.188 4.46068 4.11228 0
M  V30 9049 H 838.927 3.31369 3.57835 0
M  V30 9050 H 837.932 5.08142 2.09933 0
M  V30 9051 H 839.157 6.24755 2.66193 0
M  V30 9052 H 837.103 4.84974 4.41742 0
M  V30 9053 H 837.02 6.49288 3.87247 0
M  V30 9054 H 838.288 6.01295 4.96049 0
M  V30 9055 N 842.517 -0.29412 1.54831 0
M  V30 9056 C 843.449 -1.38476 1.82639 0
M  V30 9057 C 844.462 -1.46517 0.709694 0
M  V30 9058 O 845.651 -1.48712 0.987269 0
M  V30 9059 C 842.751 -2.76791 1.95551 0
M  V30 9060 C 841.924 -2.91599 3.26019 0
M  V30 9061 C 840.983 -4.10456 3.29261 0
M  V30 9062 O 840.009 -4.02214 4.02756 0
M  V30 9063 N 841.211 -5.21422 2.55145 0
M  V30 9064 H 843.976 -1.14974 2.76769 0
M  V30 9065 H 841.537 -0.484206 1.5449 0
M  V30 9066 H 843.529 -3.5456 1.95113 0
M  V30 9067 H 842.099 -2.93209 1.08384 0
M  V30 9068 H 841.319 -2.00886 3.39173 0
M  V30 9069 H 842.607 -2.98409 4.12104 0
M  V30 9070 H 842.005 -5.31 1.95078 0
M  V30 9071 H 840.562 -5.97501 2.60454 0
M  V30 9072 N 843.995 -1.47404 -0.557645 0
M  V30 9073 C 844.925 -1.62736 -1.67449 0
M  V30 9074 C 845.906 -0.476824 -1.6328 0
M  V30 9075 O 847.091 -0.706108 -1.80908 0
M  V30 9076 C 844.221 -1.641 -3.06086 0
M  V30 9077 C 843.175 -2.78377 -3.25101 0
M  V30 9078 C 842.501 -2.64812 -4.6452 0
M  V30 9079 C 843.801 -4.19971 -3.10518 0
M  V30 9080 H 845.495 -2.56232 -1.54873 0
M  V30 9081 H 843.041 -1.23312 -0.743649 0
M  V30 9082 H 844.994 -1.73417 -3.84063 0
M  V30 9083 H 843.718 -0.671652 -3.19619 0
M  V30 9084 H 842.377 -2.6857 -2.49531 0
M  V30 9085 H 842.025 -1.65906 -4.74852 0
M  V30 9086 H 841.725 -3.41477 -4.78191 0
M  V30 9087 H 843.249 -2.76057 -5.44633 0
M  V30 9088 H 844.663 -4.30757 -3.78313 0
M  V30 9089 H 843.06 -4.97419 -3.35699 0
M  V30 9090 H 844.13 -4.38369 -2.0727 0
M  V30 9091 N 845.473 0.80434 -1.35529 0
M  V30 9092 C 846.889 1.10023 -1.15616 0
M  V30 9093 C 847.089 2.01478 0.0298535 0
M  V30 9094 O 846.145 2.42609 0.699778 0
M  V30 9095 C 847.458 1.72905 -2.46017 0
M  V30 9096 C 849.006 1.85315 -2.52245 0
M  V30 9097 C 849.481 2.51612 -3.82695 0
M  V30 9098 N 850.972 2.59095 -3.83958 0
M  V30 9099 C 851.707 3.11167 -4.81625 0
M  V30 9100 N 851.203 3.63659 -5.89681 0
M  V30 9101 N 852.996 3.09741 -4.6906 0
M  V30 9102 H 845.147 0.196428 -2.1149 0
M  V30 9103 H 847.41 0.149735 -0.9361 0
M  V30 9104 H 847.116 1.13171 -3.32994 0
M  V30 9105 H 846.99 2.72579 -2.6073 0
M  V30 9106 H 849.377 2.44191 -1.65695 0
M  V30 9107 H 849.458 0.844886 -2.41444 0
M  V30 9108 H 849.102 1.93385 -4.69643 0
M  V30 9109 H 849.032 3.5298 -3.90785 0
M  V30 9110 H 851.523 2.21908 -3.05884 0
M  V30 9111 H 851.836 4.01699 -6.60195 0
M  V30 9112 H 850.181 3.61852 -5.9337 0
M  V30 9113 H 853.372 2.68011 -3.83781 0
M  V30 9114 H 853.545 3.50016 -5.45338 0
M  V30 9115 N 846.951 1.19563 1.02676 0
M  V30 9116 C 848.199 0.997593 1.75763 0
M  V30 9117 C 848.52 -0.47253 1.89188 0
M  V30 9118 O 847.79 -1.34214 1.42701 0
M  V30 9119 H 846.37 0.366128 0.651122 0
M  V30 9120 H 849.032 1.50495 1.23844 0
M  V30 9121 H 848.128 1.44741 2.76508 0
M  V30 9122 N 848.429 -1.21819 0.999893 0
M  V30 9123 C 849.339 -2.27691 0.565159 0
M  V30 9124 C 850.355 -1.69587 -0.389398 0
M  V30 9125 O 851.531 -1.99786 -0.254499 0
M  V30 9126 C 848.596 -3.46537 -0.106432 0
M  V30 9127 C 847.657 -4.19932 0.891964 0
M  V30 9128 C 846.89 -5.33103 0.252327 0
M  V30 9129 O 847.113 -5.62398 -0.952103 0
M  V30 9130 O 846.047 -5.94184 0.960698 0
M  V30 9131 H 849.873 -2.67059 1.44613 0
M  V30 9132 H 847.458 -1.28119 0.768499 0
M  V30 9133 H 849.34 -4.18631 -0.482301 0
M  V30 9134 H 848.015 -3.09079 -0.961865 0
M  V30 9135 H 846.922 -3.5008 1.3189 0
M  V30 9136 H 848.255 -4.61287 1.71682 0
M  V30 9137 N 849.908 -0.773975 -1.37286 0
M  V30 9138 C 850.856 -0.149581 -2.32119 0
M  V30 9139 C 851.85 0.682457 -1.55045 0
M  V30 9140 O 853.056 0.579269 -1.70424 0
M  V30 9141 H 849.431 -0.0295857 -0.751418 0
M  V30 9142 H 851.402 -0.965117 -2.82362 0
M  V30 9143 C 850.151 0.713409 -3.40302 0
M  V30 9144 H 849.474 0.0825416 -3.99715 0
M  V30 9145 H 850.914 1.11723 -4.09016 0
M  V30 9146 C 849.373 1.86498 -2.80571 0
M  V30 9147 O 849.903 2.9606 -2.71498 0
M  V30 9148 N 848.109 1.66629 -2.38082 0
M  V30 9149 H 847.656 0.775145 -2.45661 0
M  V30 9150 H 847.614 2.43845 -1.98461 0
M  V30 9151 N 851.386 1.48609 -0.524698 0
M  V30 9152 C 852.634 2.02097 0.0112991 0
M  V30 9153 C 852.955 1.40455 1.35268 0
M  V30 9154 O 852.225 0.56807 1.87483 0
M  V30 9155 H 850.805 0.746966 0.00716426 0
M  V30 9156 H 853.467 1.82378 -0.687329 0
M  V30 9157 H 852.563 3.11855 0.123531 0
M  V30 9158 N 852.864 0.259585 1.55447 0
M  V30 9159 C 853.794 -0.62852 2.24882 0
M  V30 9160 C 854.775 -1.17128 1.23349 0
M  V30 9161 O 855.96 -1.20829 1.52033 0
M  V30 9162 C 853.09 -1.81983 2.95803 0
M  V30 9163 C 852.044 -1.40929 4.04132 0
M  V30 9164 C 851.37 -2.68246 4.62545 0
M  V30 9165 C 852.67 -0.570956 5.1917 0
M  V30 9166 H 854.364 -0.0495021 2.99359 0
M  V30 9167 H 851.91 -0.0223688 1.43983 0
M  V30 9168 H 853.863 -2.44689 3.43082 0
M  V30 9169 H 852.587 -2.42444 2.18835 0
M  V30 9170 H 851.246 -0.805519 3.57641 0
M  V30 9171 H 850.894 -3.26931 3.82263 0
M  V30 9172 H 850.594 -2.41495 5.35681 0
M  V30 9173 H 852.118 -3.31827 5.12565 0
M  V30 9174 H 853.532 -1.10262 5.62597 0
M  V30 9175 H 851.929 -0.398979 5.98772 0
M  V30 9176 H 852.999 0.413918 4.8313 0
M  V30 9177 N 854.342 -1.57594 -0.0133615 0
M  V30 9178 C 855.272 -2.10611 -1.00823 0
M  V30 9179 C 856.253 -1.01217 -1.36708 0
M  V30 9180 O 857.438 -1.28827 -1.45318 0
M  V30 9181 C 854.568 -2.59844 -2.30431 0
M  V30 9182 C 853.522 -3.73644 -2.08745 0
M  V30 9183 C 852.848 -4.09141 -3.4425 0
M  V30 9184 C 854.148 -5.01454 -1.46086 0
M  V30 9185 H 855.842 -2.93985 -0.566849 0
M  V30 9186 H 853.388 -1.41423 -0.271219 0
M  V30 9187 H 855.341 -2.95557 -3.00373 0
M  V30 9188 H 854.065 -1.73573 -2.76658 0
M  V30 9189 H 852.724 -3.38303 -1.41232 0
M  V30 9190 H 852.372 -3.19914 -3.88155 0
M  V30 9191 H 852.072 -4.85802 -3.3056 0
M  V30 9192 H 853.596 -4.47402 -4.15528 0
M  V30 9193 H 855.01 -5.35024 -2.05966 0
M  V30 9194 H 853.407 -5.82832 -1.42924 0
M  V30 9195 H 854.477 -4.83003 -0.428471 0
M  V30 9196 N 855.82 0.285905 -1.54985 0
M  V30 9197 C 856.75 1.35752 -1.89983 0
M  V30 9198 C 857.731 1.52163 -0.760295 0
M  V30 9199 O 858.916 1.65421 -1.01733 0
M  V30 9200 C 856.046 2.71925 -2.16042 0
M  V30 9201 C 855 2.70261 -3.31878 0
M  V30 9202 C 854.326 4.09864 -3.43388 0
M  V30 9203 C 855.626 2.30667 -4.68604 0
M  V30 9204 H 857.32 1.06709 -2.79738 0
M  V30 9205 H 854.866 0.511884 -1.34595 0
M  V30 9206 H 856.819 3.46992 -2.39113 0
M  V30 9207 H 855.543 3.02523 -1.23074 0
M  V30 9208 H 854.202 1.97651 -3.08755 0
M  V30 9209 H 853.85 4.37664 -2.47909 0
M  V30 9210 H 853.55 4.09648 -4.21262 0
M  V30 9211 H 855.074 4.86689 -3.68736 0
M  V30 9212 H 856.488 2.95453 -4.91305 0
M  V30 9213 H 854.885 2.41637 -5.49301 0
M  V30 9214 H 855.955 1.25793 -4.68299 0
M  V30 9215 N 857.298 1.47698 0.54982 0
M  V30 9216 C 858.526 1.5833 1.33188 0
M  V30 9217 C 858.941 0.236193 1.87317 0
M  V30 9218 O 858.298 -0.77167 1.65383 0
M  V30 9219 C 858.349 2.61438 2.49664 0
M  V30 9220 O 858.07 3.9092 1.97771 0
M  V30 9221 C 859.571 2.82324 3.41772 0
M  V30 9222 H 856.791 0.53443 0.405741 0
M  V30 9223 H 859.335 1.93375 0.665309 0
M  V30 9224 H 857.49 2.29307 3.12245 0
M  V30 9225 H 857.904 4.47323 2.73866 0
M  V30 9226 H 859.378 3.58316 4.19897 0
M  V30 9227 H 859.855 1.90416 3.95776 0
M  V30 9228 H 860.461 3.15682 2.85 0
M  V30 9229 N 858.776 -0.797141 1.35954 0
M  V30 9230 C 860.187 -1.37179 1.26644 0
M  V30 9231 C 860.538 -1.9596 -0.0971046 0
M  V30 9232 O 859.663 -1.91994 -0.998355 0
M  V30 9233 C 860.258 -2.49395 2.2932 0
M  V30 9234 C 858.817 -3.02697 2.23722 0
M  V30 9235 C 857.964 -1.75721 2.14517 0
M  V30 9236 H 860.915 -0.599407 1.46945 0
M  V30 9237 H 860.936 -3.28204 1.92515 0
M  V30 9238 H 860.448 -2.06584 3.2855 0
M  V30 9239 H 858.549 -3.49948 1.27934 0
M  V30 9240 H 858.662 -3.60036 3.16087 0
M  V30 9241 H 857.026 -1.97649 1.60646 0
M  V30 9242 H 857.809 -1.35049 3.15621 0
M  V30 9243 N 860.254 -1.20106 -1.0204 0
M  V30 9244 C 861.494 -1.02013 -1.77123 0
M  V30 9245 C 861.858 0.440439 -1.8688 0
M  V30 9246 O 863.059 0.74144 -2.58372 0
M  V30 9247 C 861.33 -1.68058 -3.15423 0
M  V30 9248 S 862.889 -1.65016 -4.0659 0
M  V30 9249 H 859.707 -0.365882 -0.609632 0
M  V30 9250 H 862.309 -1.52597 -1.22206 0
M  V30 9251 H 861.013 -2.73544 -3.05944 0
M  V30 9252 H 860.544 -1.17589 -3.75415 0
M  V30 9253 H 862.559 -0.680341 -4.91514 0
M  V30 9254 N 861.732 1.21287 -1.00634 0
M  V30 9255 C 862.962 1.94103 -0.70765 0
M  V30 9256 C 863.37 1.74382 0.733991 0
M  V30 9257 O 862.713 1.04843 1.50843 0
M  V30 9258 C 862.775 3.46705 -0.950581 0
M  V30 9259 C 862.439 3.90176 -2.37932 0
M  V30 9260 C 863.436 3.96769 -3.35961 0
M  V30 9261 C 861.121 4.22453 -2.71733 0
M  V30 9262 C 863.115 4.35034 -4.65858 0
M  V30 9263 C 860.802 4.60394 -4.01846 0
M  V30 9264 C 861.8 4.66656 -4.9872 0
M  V30 9265 O 861.488 5.03732 -6.26505 0
M  V30 9266 H 861.22 0.62405 -0.259881 0
M  V30 9267 H 863.774 1.55015 -1.34757 0
M  V30 9268 H 862.004 3.85868 -0.253492 0
M  V30 9269 H 863.693 4.00741 -0.645069 0
M  V30 9270 H 864.459 3.72009 -3.11182 0
M  V30 9271 H 860.338 4.16776 -1.97025 0
M  V30 9272 H 863.882 4.39836 -5.4147 0
M  V30 9273 H 859.779 4.84609 -4.26409 0
M  V30 9274 H 860.547 5.21761 -6.30641 0
M  V30 9275 N 863.21 0.781244 1.36873 0
M  V30 9276 C 864.438 0.361566 2.03716 0
M  V30 9277 C 864.853 -1.01937 1.58916 0
M  V30 9278 O 864.21 -1.65237 0.774783 0
M  V30 9279 C 864.261 0.406391 3.59208 0
M  V30 9280 O 863.982 1.73286 4.02372 0
M  V30 9281 C 865.483 -0.0236894 4.43294 0
M  V30 9282 H 862.703 0.150133 0.653988 0
M  V30 9283 H 865.247 1.05781 1.75016 0
M  V30 9284 H 863.402 -0.241364 3.86647 0
M  V30 9285 H 863.816 1.67804 4.96933 0
M  V30 9286 H 865.29 0.0588205 5.51969 0
M  V30 9287 H 865.767 -1.07529 4.25833 0
M  V30 9288 H 866.373 0.59624 4.211 0
M  V30 9289 N 864.689 -1.48329 0.532571 0
M  V30 9290 C 865.652 -2.2816 -0.218069 0
M  V30 9291 C 866.652 -1.35526 -0.865409 0
M  V30 9292 O 867.842 -1.58394 -0.725061 0
M  V30 9293 C 864.974 -3.1448 -1.31586 0
M  V30 9294 H 866.167 -2.95987 0.482865 0
M  V30 9295 H 863.72 -1.53612 0.288603 0
M  V30 9296 H 864.455 -2.5129 -2.04997 0
M  V30 9297 H 864.24 -3.82625 -0.856779 0
M  V30 9298 H 865.73 -3.74693 -1.84377 0
M  V30 9299 N 866.167 -0.267825 -1.55308 0
M  V30 9300 C 867.115 0.638848 -2.23655 0
M  V30 9301 C 868.109 1.16363 -1.2311 0
M  V30 9302 O 869.315 1.1181 -1.41062 0
M  V30 9303 H 865.69 0.224551 -0.717691 0
M  V30 9304 H 867.661 0.0394809 -2.98374 0
M  V30 9305 C 866.41 1.8151 -2.96562 0
M  V30 9306 H 865.733 1.42048 -3.73715 0
M  V30 9307 H 867.173 2.42629 -3.47717 0
M  V30 9308 C 865.632 2.69911 -2.01618 0
M  V30 9309 O 866.162 3.70058 -1.56268 0
M  V30 9310 N 864.368 2.36924 -1.68272 0
M  V30 9311 H 863.915 1.55533 -2.05347 0
M  V30 9312 H 863.873 2.96343 -1.05016 0
M  V30 9313 N 867.645 1.57599 0.00500368 0
M  V30 9314 C 868.892 1.90349 0.690895 0
M  V30 9315 C 869.22 0.868045 1.74055 0
M  V30 9316 O 868.475 -0.127855 1.95282 0
M  V30 9317 C 868.774 3.29855 1.37588 0
M  V30 9318 C 868.44 4.48548 0.459906 0
M  V30 9319 C 867.102 4.80752 0.207693 0
M  V30 9320 C 869.454 5.20919 -0.171054 0
M  V30 9321 C 866.782 5.82701 -0.683855 0
M  V30 9322 C 869.134 6.23818 -1.05045 0
M  V30 9323 C 867.798 6.54481 -1.31189 0
M  V30 9324 H 867.068 0.696538 0.252816 0
M  V30 9325 H 869.715 1.91436 -0.0494495 0
M  V30 9326 H 868.02 3.24869 2.19015 0
M  V30 9327 H 869.717 3.52452 1.91255 0
M  V30 9328 H 866.307 4.23384 0.666648 0
M  V30 9329 H 870.491 4.96299 0.0107942 0
M  V30 9330 H 865.747 6.04822 -0.894467 0
M  V30 9331 H 869.921 6.79029 -1.54574 0
M  V30 9332 H 867.548 7.33299 -2.00442 0
M  V30 9333 N 869.123 -0.277682 1.55134 0
M  V30 9334 C 870.369 -1.0114 1.7578 0
M  V30 9335 C 870.702 -1.86109 0.554719 0
M  V30 9336 O 869.977 -1.89275 -0.447813 0
M  V30 9337 C 870.26 -1.89789 3.06027 0
M  V30 9338 C 870.113 -1.07844 4.3668 0
M  V30 9339 C 871.432 -2.88577 3.32282 0
M  V30 9340 H 868.551 -0.366277 0.639539 0
M  V30 9341 H 871.193 -0.284155 1.87863 0
M  V30 9342 H 869.343 -2.51796 2.95856 0
M  V30 9343 H 871.015 -0.479432 4.58802 0
M  V30 9344 H 869.258 -0.381764 4.32117 0
M  V30 9345 H 869.929 -1.73179 5.24131 0
M  V30 9346 H 872.405 -2.36702 3.42215 0
M  V30 9347 H 871.281 -3.47749 4.2469 0
M  V30 9348 H 871.542 -3.63458 2.51696 0
M  V30 9349 N 870.601 -1.47988 -0.541979 0
M  V30 9350 C 871.564 -1.61148 -1.62984 0
M  V30 9351 C 872.564 -0.48553 -1.53295 0
M  V30 9352 O 873.754 -0.751012 -1.5718 0
M  V30 9353 C 870.886 -1.57038 -3.02576 0
M  V30 9354 H 872.079 -2.58138 -1.52659 0
M  V30 9355 H 869.632 -1.36405 -0.763106 0
M  V30 9356 H 870.367 -0.614807 -3.18419 0
M  V30 9357 H 870.152 -2.38769 -3.11018 0
M  V30 9358 H 871.642 -1.69416 -3.81691 0
M  V30 9359 N 872.079 0.78992 -1.36375 0
M  V30 9360 C 873.49 1.36506 -1.2737 0
M  V30 9361 C 873.841 1.96008 0.086711 0
M  V30 9362 O 872.966 1.92521 0.988159 0
M  V30 9363 C 873.561 2.48175 -2.30639 0
M  V30 9364 C 872.12 3.01506 -2.25325 0
M  V30 9365 C 871.267 1.74581 -2.15445 0
M  V30 9366 H 874.218 0.591606 -1.47261 0
M  V30 9367 H 874.239 3.27179 -1.94253 0
M  V30 9368 H 873.751 2.04838 -3.2964 0
M  V30 9369 H 871.852 3.49265 -1.29788 0
M  V30 9370 H 871.965 3.58355 -3.17992 0
M  V30 9371 H 870.329 1.96794 -1.61692 0
M  V30 9372 H 871.112 1.33373 -3.16333 0
M  V30 9373 N 873.557 1.20646 1.01402 0
M  V30 9374 C 874.467 0.973385 2.13453 0
M  V30 9375 C 875.483 -0.0715865 1.73853 0
M  V30 9376 O 876.659 0.116438 2.01063 0
M  V30 9377 C 873.724 0.531285 3.42605 0
M  V30 9378 C 872.785 1.64741 3.96433 0
M  V30 9379 C 872.018 1.22631 5.1942 0
M  V30 9380 O 872.241 0.0960891 5.70319 0
M  V30 9381 O 871.175 2.03474 5.66465 0
M  V30 9382 H 875.001 1.91164 2.35987 0
M  V30 9383 H 872.586 0.990553 1.11841 0
M  V30 9384 H 874.468 0.294095 4.20373 0
M  V30 9385 H 873.143 -0.378358 3.21481 0
M  V30 9386 H 872.05 1.93891 3.19933 0
M  V30 9387 H 873.383 2.53415 4.2195 0
M  V30 9388 N 875.035 -1.20752 1.01276 0
M  V30 9389 C 876.281 -1.90302 0.700924 0
M  V30 9390 C 876.614 -1.78406 -0.767142 0
M  V30 9391 O 875.889 -1.16575 -1.55694 0
M  V30 9392 C 876.172 -3.41831 1.13242 0
M  V30 9393 C 876.025 -3.6268 2.66051 0
M  V30 9394 C 877.344 -4.34486 0.700738 0
M  V30 9395 H 874.463 -0.69107 0.256107 0
M  V30 9396 H 877.105 -1.42227 1.25982 0
M  V30 9397 H 875.255 -3.82906 0.656902 0
M  V30 9398 H 876.927 -3.30882 3.21426 0
M  V30 9399 H 875.17 -3.06281 3.07204 0
M  V30 9400 H 875.841 -4.68882 2.91296 0
M  V30 9401 H 878.317 -4.01036 1.10948 0
M  V30 9402 H 877.193 -5.39136 1.03073 0
M  V30 9403 H 877.454 -4.40307 -0.39778 0
M  V30 9404 N 876.513 -0.788492 -1.36457 0
M  V30 9405 C 877.443 -0.200468 -2.32638 0
M  V30 9406 C 878.424 0.664031 -1.56603 0
M  V30 9407 O 879.609 0.598045 -1.84762 0
M  V30 9408 C 876.739 0.666274 -3.40849 0
M  V30 9409 C 875.693 -0.0982574 -4.27887 0
M  V30 9410 C 875.019 0.889018 -5.27258 0
M  V30 9411 C 876.319 -1.28692 -5.06197 0
M  V30 9412 H 878.013 -1.00399 -2.82065 0
M  V30 9413 H 875.559 -0.484237 -1.35614 0
M  V30 9414 H 877.512 1.08757 -4.07124 0
M  V30 9415 H 876.236 1.50249 -2.89987 0
M  V30 9416 H 874.895 -0.500525 -3.63167 0
M  V30 9417 H 874.543 1.72024 -4.7267 0
M  V30 9418 H 874.243 0.381909 -5.86358 0
M  V30 9419 H 875.767 1.30891 -5.96406 0
M  V30 9420 H 877.181 -0.941429 -5.65517 0
M  V30 9421 H 875.578 -1.72726 -5.74705 0
M  V30 9422 H 876.648 -2.08273 -4.37893 0
M  V30 9423 N 877.991 1.48044 -0.54043 0
M  V30 9424 C 878.924 2.26667 0.264083 0
M  V30 9425 C 879.902 1.32996 0.935456 0
M  V30 9426 O 881.086 1.62354 0.95778 0
M  V30 9427 C 878.213 3.09541 1.37485 0
M  V30 9428 C 877.259 4.18664 0.813792 0
M  V30 9429 S 878.092 5.34503 -0.326536 0
M  V30 9430 C 879.248 6.20939 0.786452 0
M  V30 9431 H 879.481 2.94554 -0.403129 0
M  V30 9432 H 877.014 1.5091 -0.326415 0
M  V30 9433 H 878.972 3.57863 2.01107 0
M  V30 9434 H 877.633 2.41048 2.01382 0
M  V30 9435 H 876.826 4.76316 1.6474 0
M  V30 9436 H 876.428 3.73136 0.254066 0
M  V30 9437 H 878.72 6.56273 1.68262 0
M  V30 9438 H 879.663 7.07667 0.247673 0
M  V30 9439 H 880.071 5.54236 1.07156 0
M  V30 9440 N 879.47 0.276058 1.55163 0
M  V30 9441 C 880.402 -0.644254 2.19959 0
M  V30 9442 C 881.415 -1.11675 1.18459 0
M  V30 9443 O 882.604 -1.0385 1.45181 0
M  V30 9444 C 879.704 -1.89093 2.81242 0
M  V30 9445 C 878.877 -1.56509 4.08441 0
M  V30 9446 C 877.936 -2.66433 4.53762 0
M  V30 9447 O 876.962 -2.32579 5.19515 0
M  V30 9448 N 878.164 -3.96509 4.23982 0
M  V30 9449 H 880.929 -0.0896808 2.99566 0
M  V30 9450 H 878.49 0.0971981 1.61608 0
M  V30 9451 H 880.482 -2.61929 3.08505 0
M  V30 9452 H 879.052 -2.35453 2.05622 0
M  V30 9453 H 878.272 -0.670522 3.88455 0
M  V30 9454 H 879.56 -1.32242 4.91314 0
M  V30 9455 H 878.958 -4.26834 3.71254 0
M  V30 9456 H 877.515 -4.6572 4.56014 0
M  V30 9457 N 880.948 -1.576 0.00335426 0
M  V30 9458 C 881.88 -2.0549 -1.01521 0
M  V30 9459 C 882.893 -0.973441 -1.30491 0
M  V30 9460 O 884.082 -1.25017 -1.27409 0
M  V30 9461 C 881.182 -2.44272 -2.34914 0
M  V30 9462 C 880.355 -3.75191 -2.24835 0
M  V30 9463 C 879.414 -4.00804 -3.40944 0
M  V30 9464 O 878.44 -4.71423 -3.18981 0
M  V30 9465 N 879.642 -3.48961 -4.63904 0
M  V30 9466 H 882.407 -2.93493 -0.60678 0
M  V30 9467 H 879.968 -1.60851 -0.18396 0
M  V30 9468 H 881.96 -2.58518 -3.11369 0
M  V30 9469 H 880.53 -1.6177 -2.67487 0
M  V30 9470 H 879.75 -3.70989 -1.3327 0
M  V30 9471 H 881.038 -4.61013 -2.15277 0
M  V30 9472 H 880.436 -2.9178 -4.84645 0
M  V30 9473 H 878.993 -3.68531 -5.37613 0
M  V30 9474 N 882.426 0.269451 -1.5528 0
M  V30 9475 C 883.674 0.998604 -1.75705 0
M  V30 9476 C 883.995 1.86691 -0.563175 0
M  V30 9477 O 883.265 1.91305 0.421811 0
M  V30 9478 H 881.845 0.371698 -0.647958 0
M  V30 9479 H 884.507 0.292826 -1.92688 0
M  V30 9480 H 883.603 1.63348 -2.6594 0
M  V30 9481 N 883.904 1.48273 0.534124 0
M  V30 9482 C 885.134 1.59503 1.31311 0
M  V30 9483 C 885.542 0.25284 1.87503 0
M  V30 9484 O 884.885 -0.767399 1.66903 0
M  V30 9485 C 884.947 2.57899 2.50456 0
M  V30 9486 C 884.611 4.03063 2.15382 0
M  V30 9487 C 885.608 4.90869 1.713 0
M  V30 9488 C 883.293 4.4857 2.26032 0
M  V30 9489 C 885.287 6.22209 1.38328 0
M  V30 9490 C 882.974 5.79932 1.92672 0
M  V30 9491 C 883.972 6.66574 1.4889 0
M  V30 9492 O 883.66 7.95492 1.15966 0
M  V30 9493 H 883.392 0.540695 0.405739 0
M  V30 9494 H 885.946 1.94794 0.651497 0
M  V30 9495 H 884.176 2.1772 3.19585 0
M  V30 9496 H 885.865 2.59008 3.12522 0
M  V30 9497 H 886.631 4.56951 1.62545 0
M  V30 9498 H 882.51 3.81321 2.59066 0
M  V30 9499 H 886.054 6.89792 1.04082 0
M  V30 9500 H 881.951 6.13386 2.01066 0
M  V30 9501 H 882.719 8.08207 1.29399 0
M  V30 9502 N 885.382 -0.782676 1.36792 0
M  V30 9503 C 886.659 -1.52939 1.21939 0
M  V30 9504 C 887.039 -2.10228 -0.191639 0
M  V30 9505 O 886.387 -1.94574 -1.19805 0
M  V30 9506 C 886.597 -2.61898 2.30674 0
M  V30 9507 C 887.945 -3.29598 2.67676 0
M  V30 9508 O 888.969 -2.72186 2.29768 0
M  V30 9509 O 887.828 -4.3337 3.32946 0
M  V30 9510 H 884.922 -0.676856 0.47518 0
M  V30 9511 H 887.468 -0.82058 1.48542 0
M  V30 9512 H 886.24 -2.17607 3.25212 0
M  V30 9513 H 885.863 -3.40391 2.05475 0
M  V30 9514 N 886.86 -1.21182 -1.00761 0
M  V30 9515 C 887.823 -0.970339 -2.07646 0
M  V30 9516 C 888.823 0.0576345 -1.60697 0
M  V30 9517 O 890.013 -0.179369 -1.73274 0
M  V30 9518 C 887.145 -0.462703 -3.37745 0
M  V30 9519 H 888.338 -1.91856 -2.30502 0
M  V30 9520 H 885.891 -1.02844 -1.17698 0
M  V30 9521 H 886.626 0.490559 -3.20568 0
M  V30 9522 H 886.411 -1.20416 -3.73152 0
M  V30 9523 H 887.901 -0.313531 -4.16421 0
M  V30 9524 N 888.338 1.20213 -1.01915 0
M  V30 9525 C 889.301 2.21307 -0.596327 0
M  V30 9526 C 890.301 1.57274 0.334879 0
M  V30 9527 O 891.491 1.73764 0.12322 0
M  V30 9528 C 888.623 3.40657 0.128808 0
M  V30 9529 H 889.816 2.60228 -1.49068 0
M  V30 9530 H 887.369 1.33721 -0.809226 0
M  V30 9531 H 888.104 3.07241 1.03796 0
M  V30 9532 H 887.889 3.88361 -0.540183 0
M  V30 9533 H 889.379 4.15564 0.411892 0
M  V30 9534 N 889.816 0.795718 1.36037 0
M  V30 9535 C 891.056 0.376514 2.00902 0
M  V30 9536 C 891.42 -1.03405 1.61776 0
M  V30 9537 O 892.621 -1.55468 2.19279 0
M  V30 9538 C 890.892 0.542086 3.53265 0
M  V30 9539 S 892.451 0.211694 4.38289 0
M  V30 9540 H 889.269 0.143527 0.696363 0
M  V30 9541 H 891.871 1.03559 1.65819 0
M  V30 9542 H 890.575 1.56888 3.79229 0
M  V30 9543 H 890.106 -0.132698 3.93176 0
M  V30 9544 H 892.121 -0.98452 4.86335 0
M  V30 9545 N 891.294 -1.47756 0.548274 0
M  V30 9546 C 892.571 -1.9555 -0.0443603 0
M  V30 9547 C 892.951 -1.49079 -1.49462 0
M  V30 9548 O 892.299 -0.725538 -2.16675 0
M  V30 9549 C 892.509 -3.48879 0.0918425 0
M  V30 9550 C 893.857 -4.2456 -0.0580879 0
M  V30 9551 O 894.881 -3.56195 0.018946 0
M  V30 9552 O 893.74 -5.46048 -0.222261 0
M  V30 9553 H 890.834 -0.824106 -0.0691235 0
M  V30 9554 H 893.38 -1.58196 0.614166 0
M  V30 9555 H 892.152 -3.7548 1.10137 0
M  V30 9556 H 891.775 -3.92975 -0.604704 0
M  V30 9557 N 892.772 -0.284283 -1.55015 0
M  V30 9558 C 894.021 0.33055 -1.98973 0
M  V30 9559 C 894.334 1.56284 -1.17621 0
M  V30 9560 O 895.54 2.2512 -1.51767 0
M  V30 9561 C 893.996 0.639457 -3.54174 0
M  V30 9562 C 893.604 -0.573543 -4.44313 0
M  V30 9563 C 895.348 1.21641 -4.06699 0
M  V30 9564 C 893.255 -0.238715 -5.90918 0
M  V30 9565 H 892.185 0.127285 -0.743179 0
M  V30 9566 H 894.836 -0.390372 -1.793 0
M  V30 9567 H 893.218 1.41953 -3.69683 0
M  V30 9568 H 894.392 -1.3502 -4.40575 0
M  V30 9569 H 892.707 -1.06797 -4.02472 0
M  V30 9570 H 895.304 1.48088 -5.13784 0
M  V30 9571 H 895.647 2.15328 -3.56286 0
M  V30 9572 H 896.18 0.498422 -3.94665 0
M  V30 9573 H 892.919 -1.1437 -6.45445 0
M  V30 9574 H 892.439 0.500997 -5.97704 0
M  V30 9575 H 894.118 0.165774 -6.46788 0
M  V30 9576 N 894.251 1.57596 -0.0117121 0
M  V30 9577 C 895.497 1.92189 0.665966 0
M  V30 9578 C 895.852 0.887145 1.70726 0
M  V30 9579 O 895.145 -0.099151 1.91343 0
M  V30 9580 C 895.339 3.31296 1.34082 0
M  V30 9581 C 895.168 4.48205 0.366406 0
M  V30 9582 C 893.938 5.05293 -0.0274458 0
M  V30 9583 C 896.136 5.12951 -0.37219 0
M  V30 9584 N 894.118 6.0572 -0.998846 0
M  V30 9585 C 895.489 6.08318 -1.1979 0
M  V30 9586 C 897.544 4.95998 -0.434768 0
M  V30 9587 C 896.247 6.88555 -2.0805 0
M  V30 9588 C 898.273 5.7683 -1.30464 0
M  V30 9589 C 897.635 6.71798 -2.11816 0
M  V30 9590 H 893.734 0.751422 0.216537 0
M  V30 9591 H 896.318 1.94556 -0.0748079 0
M  V30 9592 H 894.489 3.2978 2.05182 0
M  V30 9593 H 896.221 3.53285 1.97413 0
M  V30 9594 H 892.976 4.72354 0.343382 0
M  V30 9595 H 893.4 6.60619 -1.48027 0
M  V30 9596 H 898.042 4.22417 0.179925 0
M  V30 9597 H 895.76 7.61453 -2.70581 0
M  V30 9598 H 899.346 5.6575 -1.35712 0
M  V30 9599 H 898.226 7.33256 -2.78037 0
M  V30 9600 N 895.729 -0.261212 1.5542 0
M  V30 9601 C 896.954 -1.01341 1.80955 0
M  V30 9602 C 897.379 -1.78711 0.586849 0
M  V30 9603 O 896.737 -1.75266 -0.463837 0
M  V30 9604 C 896.785 -1.93835 3.04073 0
M  V30 9605 O 895.889 -3.02791 2.79985 0
M  V30 9606 H 895.23 -0.289123 0.597749 0
M  V30 9607 H 897.76 -0.286543 2.02584 0
M  V30 9608 H 897.77 -2.3557 3.33123 0
M  V30 9609 H 896.445 -1.36936 3.9271 0
M  V30 9610 H 895.022 -2.65287 2.62063 0
M  V30 9611 N 897.207 -1.48554 -0.526253 0
M  V30 9612 C 898.137 -1.66252 -1.63959 0
M  V30 9613 C 899.118 -0.511351 -1.62232 0
M  V30 9614 O 900.303 -0.744322 -1.7937 0
M  V30 9615 C 897.433 -1.70556 -3.02536 0
M  V30 9616 C 896.387 -2.8521 -3.19123 0
M  V30 9617 C 895.713 -2.74606 -4.58798 0
M  V30 9618 C 897.013 -4.26463 -3.0154 0
M  V30 9619 H 898.707 -2.59459 -1.49404 0
M  V30 9620 H 896.253 -1.24862 -0.717326 0
M  V30 9621 H 898.206 -1.81524 -3.80298 0
M  V30 9622 H 896.93 -0.739297 -3.18123 0
M  V30 9623 H 895.589 -2.73802 -2.43779 0
M  V30 9624 H 895.237 -1.75941 -4.71226 0
M  V30 9625 H 894.937 -3.51544 -4.70841 0
M  V30 9626 H 896.461 -2.87548 -5.38655 0
M  V30 9627 H 897.875 -4.38685 -3.69091 0
M  V30 9628 H 896.272 -5.04428 -3.25073 0
M  V30 9629 H 897.342 -4.42667 -1.97925 0
M  V30 9630 N 898.685 0.775411 -1.37205 0
M  V30 9631 C 899.933 1.53081 -1.3195 0
M  V30 9632 C 900.254 1.9476 0.0966864 0
M  V30 9633 O 899.524 1.66019 1.03993 0
M  V30 9634 H 898.104 0.567762 -0.485444 0
M  V30 9635 H 900.766 0.92309 -1.71654 0
M  V30 9636 H 899.862 2.4319 -1.95614 0
M  V30 9637 N 900.163 1.21714 1.00117 0
M  V30 9638 C 901.409 1.03823 1.74208 0
M  V30 9639 C 901.742 -0.426733 1.89454 0
M  V30 9640 O 901.017 -1.31658 1.43166 0
M  V30 9641 C 901.3 1.74047 3.15246 0
M  V30 9642 C 901.153 3.28087 3.077 0
M  V30 9643 C 902.472 1.48614 4.14249 0
M  V30 9644 H 899.591 0.378573 0.632338 0
M  V30 9645 H 902.233 1.49942 1.16694 0
M  V30 9646 H 900.383 1.3484 3.64349 0
M  V30 9647 H 902.055 3.76686 2.6628 0
M  V30 9648 H 900.298 3.58191 2.44707 0
M  V30 9649 H 900.969 3.72392 4.07466 0
M  V30 9650 H 903.445 1.82656 3.73866 0
M  V30 9651 H 902.321 2.00257 5.11066 0
M  V30 9652 H 902.582 0.416957 4.40129 0
M  V30 9653 N 901.641 -1.19671 1.02551 0
M  V30 9654 C 902.571 -2.25009 0.623965 0
M  V30 9655 C 903.552 -1.66129 -0.36538 0
M  V30 9656 O 904.737 -1.92599 -0.248842 0
M  V30 9657 C 901.867 -3.47287 -0.0294869 0
M  V30 9658 C 900.821 -4.18818 0.881781 0
M  V30 9659 C 900.147 -5.34618 0.0936189 0
M  V30 9660 C 901.447 -4.73986 2.19396 0
M  V30 9661 H 903.141 -2.58851 1.50454 0
M  V30 9662 H 900.687 -1.24425 0.724872 0
M  V30 9663 H 902.64 -4.20168 -0.322016 0
M  V30 9664 H 901.364 -3.12635 -0.944838 0
M  V30 9665 H 900.023 -3.47815 1.15845 0
M  V30 9666 H 899.671 -4.9621 -0.823661 0
M  V30 9667 H 899.371 -5.83409 0.700568 0
M  V30 9668 H 900.895 -6.10297 -0.192249 0
M  V30 9669 H 902.309 -5.38639 1.96319 0
M  V30 9670 H 900.706 -5.3325 2.75254 0
M  V30 9671 H 901.776 -3.92238 2.85092 0
M  V30 9672 N 903.119 -0.802921 -1.35613 0
M  V30 9673 C 904.366 -0.381576 -1.98872 0
M  V30 9674 C 904.694 1.0503 -1.63704 0
M  V30 9675 O 903.949 1.7427 -0.890418 0
M  V30 9676 C 904.248 -0.507806 -3.53774 0
M  V30 9677 C 903.914 -1.90245 -4.088 0
M  V30 9678 C 902.576 -2.28401 -4.2354 0
M  V30 9679 C 904.928 -2.81504 -4.3864 0
M  V30 9680 C 902.256 -3.57192 -4.65436 0
M  V30 9681 C 904.608 -4.09737 -4.81973 0
M  V30 9682 C 903.272 -4.47897 -4.94919 0
M  V30 9683 H 902.542 -0.139629 -0.727726 0
M  V30 9684 H 905.189 -1.023 -1.61886 0
M  V30 9685 H 903.494 0.21708 -3.91198 0
M  V30 9686 H 905.191 -0.162625 -4.0067 0
M  V30 9687 H 901.781 -1.596 -3.97776 0
M  V30 9688 H 905.965 -2.53276 -4.26808 0
M  V30 9689 H 901.221 -3.86611 -4.73648 0
M  V30 9690 H 905.395 -4.80555 -5.04024 0
M  V30 9691 H 903.022 -5.47747 -5.27141 0
M  V30 9692 N 904.597 1.47463 -0.556102 0
M  V30 9693 C 905.827 2.06568 -0.0364056 0
M  V30 9694 C 906.235 1.40939 1.26225 0
M  V30 9695 O 905.578 0.499572 1.76777 0
M  V30 9696 C 905.64 3.58755 0.231278 0
M  V30 9697 C 905.304 4.46417 -0.977776 0
M  V30 9698 C 906.301 4.846 -1.88305 0
M  V30 9699 C 903.986 4.87948 -1.19214 0
M  V30 9700 C 905.98 5.63111 -2.98639 0
M  V30 9701 C 903.667 5.66224 -2.29857 0
M  V30 9702 C 904.665 6.03716 -3.194 0
M  V30 9703 O 904.353 6.80415 -4.28125 0
M  V30 9704 H 904.085 0.674675 -0.042305 0
M  V30 9705 H 906.639 1.9047 -0.768775 0
M  V30 9706 H 904.869 3.73061 1.01794 0
M  V30 9707 H 906.558 3.99884 0.696221 0
M  V30 9708 H 907.324 4.53115 -1.72949 0
M  V30 9709 H 903.203 4.58233 -0.504347 0
M  V30 9710 H 906.747 5.92293 -3.68557 0
M  V30 9711 H 902.644 5.97121 -2.45186 0
M  V30 9712 H 903.412 6.98807 -4.26159 0
M  V30 9713 N 906.075 0.2925 1.54862 0
M  V30 9714 C 907.303 -0.322113 2.04377 0
M  V30 9715 C 907.718 -1.48164 1.17016 0
M  V30 9716 O 907.075 -1.81466 0.19395 0
M  V30 9717 C 907.126 -0.786506 3.5284 0
M  V30 9718 O 906.847 0.326863 4.36879 0
M  V30 9719 C 908.348 -1.46715 4.18318 0
M  V30 9720 H 905.568 -0.0712074 0.667211 0
M  V30 9721 H 908.112 0.429657 1.99935 0
M  V30 9722 H 906.267 -1.48832 3.5767 0
M  V30 9723 H 906.681 -0.0331558 5.2449 0
M  V30 9724 H 908.155 -1.74333 5.23748 0
M  V30 9725 H 908.632 -2.40443 3.67538 0
M  V30 9726 H 909.238 -0.808735 4.1754 0
M  V30 9727 N 907.553 -1.57587 0.0200696 0
M  V30 9728 C 908.486 -2.05157 -0.999295 0
M  V30 9729 C 909.464 -0.945466 -1.32286 0
M  V30 9730 O 910.648 -1.21512 -1.44108 0
M  V30 9731 C 907.775 -2.46604 -2.32173 0
M  V30 9732 C 906.821 -3.68146 -2.15339 0
M  V30 9733 S 907.654 -5.15194 -1.46065 0
M  V30 9734 C 908.81 -5.59929 -2.79697 0
M  V30 9735 H 909.043 -2.91299 -0.59433 0
M  V30 9736 H 906.576 -1.53209 -0.191372 0
M  V30 9737 H 908.534 -2.7115 -3.08201 0
M  V30 9738 H 907.195 -1.60825 -2.69804 0
M  V30 9739 H 906.388 -3.94963 -3.13082 0
M  V30 9740 H 905.99 -3.43705 -1.47454 0
M  V30 9741 H 908.282 -5.63615 -3.75957 0
M  V30 9742 H 909.225 -6.59599 -2.57555 0
M  V30 9743 H 909.633 -4.87549 -2.84528 0
M  V30 9744 N 909.032 0.252966 -1.55557 0
M  V30 9745 C 909.962 1.31691 -1.9282 0
M  V30 9746 C 910.943 1.50516 -0.7924 0
M  V30 9747 O 912.128 1.63225 -1.05219 0
M  V30 9748 C 909.258 2.67281 -2.21762 0
M  V30 9749 C 908.212 2.6316 -3.37536 0
M  V30 9750 C 907.538 4.02488 -3.52005 0
M  V30 9751 C 908.838 2.20675 -4.73392 0
M  V30 9752 H 910.532 1.00751 -2.81939 0
M  V30 9753 H 908.078 0.483219 -1.3565 0
M  V30 9754 H 910.031 3.41842 -2.46419 0
M  V30 9755 H 908.755 2.99845 -1.29463 0
M  V30 9756 H 907.414 1.91057 -3.12878 0
M  V30 9757 H 907.062 4.32307 -2.57137 0
M  V30 9758 H 906.762 4.00621 -4.29857 0
M  V30 9759 H 908.286 4.78758 -3.78977 0
M  V30 9760 H 909.7 2.84965 -4.97461 0
M  V30 9761 H 908.097 2.29931 -5.54303 0
M  V30 9762 H 909.167 1.15831 -4.70862 0
M  V30 9763 N 910.51 1.48831 0.518367 0
M  V30 9764 C 911.473 1.63721 1.604 0
M  V30 9765 C 912.473 0.509857 1.52503 0
M  V30 9766 O 913.663 0.775922 1.55965 0
M  V30 9767 C 910.795 1.61831 3.00039 0
M  V30 9768 H 911.988 2.60534 1.48533 0
M  V30 9769 H 909.541 1.37602 0.741309 0
M  V30 9770 H 910.276 0.665387 3.17401 0
M  V30 9771 H 910.061 2.43686 3.0718 0
M  V30 9772 H 911.551 1.75467 3.78947 0
M  V30 9773 N 911.988 -0.768124 1.37614 0
M  V30 9774 C 913.236 -1.52379 1.3276 0
M  V30 9775 C 913.557 -1.94809 -0.0863564 0
M  V30 9776 O 912.827 -1.66568 -1.03112 0
M  V30 9777 H 911.407 -0.565179 0.488448 0
M  V30 9778 H 914.069 -0.913974 1.72141 0
M  V30 9779 H 913.165 -2.4215 1.96901 0
M  V30 9780 N 913.466 -1.22244 -0.994698 0
M  V30 9781 C 914.696 -1.07062 -1.76695 0
M  V30 9782 C 915.104 0.381895 -1.85306 0
M  V30 9783 O 914.447 1.27648 -1.32105 0
M  V30 9784 C 914.509 -1.60487 -3.2169 0
M  V30 9785 C 914.173 -3.09079 -3.36629 0
M  V30 9786 C 915.17 -4.06526 -3.24088 0
M  V30 9787 C 912.855 -3.48497 -3.61739 0
M  V30 9788 C 914.849 -5.41377 -3.36437 0
M  V30 9789 C 912.536 -4.83498 -3.73729 0
M  V30 9790 C 913.534 -5.79747 -3.61086 0
M  V30 9791 O 913.222 -7.12297 -3.72678 0
M  V30 9792 H 912.954 -0.375963 -0.561807 0
M  V30 9793 H 915.508 -1.62259 -1.25941 0
M  V30 9794 H 913.738 -0.996957 -3.73628 0
M  V30 9795 H 915.427 -1.40994 -3.80625 0
M  V30 9796 H 916.193 -3.77415 -3.04602 0
M  V30 9797 H 912.072 -2.74106 -3.70657 0
M  V30 9798 H 915.616 -6.16485 -3.26485 0
M  V30 9799 H 911.513 -5.1229 -3.92721 0
M  V30 9800 H 912.281 -7.1985 -3.89562 0
M  V30 9801 N 914.944 1.19125 -1.03184 0
M  V30 9802 C 916.172 1.92838 -0.74975 0
M  V30 9803 C 916.587 1.75667 0.691851 0
M  V30 9804 O 915.944 1.0805 1.47076 0
M  V30 9805 C 915.995 3.44509 -1.09525 0
M  V30 9806 O 915.716 3.6113 -2.48025 0
M  V30 9807 C 917.217 4.35338 -0.836397 0
M  V30 9808 H 914.437 0.61246 -0.274105 0
M  V30 9809 H 916.981 1.5118 -1.37712 0
M  V30 9810 H 915.136 3.83988 -0.513006 0
M  V30 9811 H 915.55 4.54959 -2.60984 0
M  V30 9812 H 917.024 5.4035 -1.12808 0
M  V30 9813 H 917.501 4.38602 0.229102 0
M  V30 9814 H 918.107 4.01544 -1.40152 0
M  V30 9815 N 916.422 0.810101 1.35185 0
M  V30 9816 C 917.833 0.452616 1.81131 0
M  V30 9817 C 918.184 -1.02573 1.67252 0
M  V30 9818 O 917.309 -1.79735 1.20516 0
M  V30 9819 C 917.904 0.814775 3.28857 0
M  V30 9820 C 916.463 0.509839 3.72931 0
M  V30 9821 C 915.61 1.03852 2.57119 0
M  V30 9822 H 918.561 1.00143 1.23114 0
M  V30 9823 H 918.582 0.113635 3.8033 0
M  V30 9824 H 918.094 1.89078 3.38926 0
M  V30 9825 H 916.195 -0.557289 3.68409 0
M  V30 9826 H 916.308 1.04493 4.67566 0
M  V30 9827 H 914.672 0.460671 2.50499 0
M  V30 9828 H 915.455 2.12071 2.69964 0
M  V30 9829 N 917.9 -1.47166 0.563914 0
M  V30 9830 C 919.147 -2.02456 0.042371 0
M  V30 9831 C 919.475 -1.43753 -1.31016 0
M  V30 9832 O 918.73 -0.585287 -1.86743 0
M  V30 9833 C 919.029 -3.57279 -0.0931797 0
M  V30 9834 C 918.695 -4.34932 1.18933 0
M  V30 9835 C 917.357 -4.55867 1.54073 0
M  V30 9836 C 919.709 -4.79665 2.03889 0
M  V30 9837 C 917.037 -5.18785 2.74005 0
M  V30 9838 C 919.389 -5.43907 3.23029 0
M  V30 9839 C 918.053 -5.63074 3.58475 0
M  V30 9840 H 917.323 -0.740838 0.0155047 0
M  V30 9841 H 919.97 -1.76759 0.736776 0
M  V30 9842 H 918.275 -3.82005 -0.870596 0
M  V30 9843 H 919.972 -3.97716 -0.512176 0
M  V30 9844 H 916.562 -4.18921 0.905718 0
M  V30 9845 H 920.746 -4.63264 1.78046 0
M  V30 9846 H 916.002 -5.31818 3.01628 0
M  V30 9847 H 920.176 -5.77531 3.89141 0
M  V30 9848 H 917.803 -6.11598 4.515 0
M  V30 9849 N 919.378 -0.300708 -1.54705 0
M  V30 9850 C 920.341 0.562648 -2.22187 0
M  V30 9851 C 921.341 1.06152 -1.20782 0
M  V30 9852 O 922.531 0.957596 -1.45519 0
M  V30 9853 C 919.663 1.77899 -2.908 0
M  V30 9854 H 920.856 -0.0269361 -2.99888 0
M  V30 9855 H 918.409 -0.0515412 -1.56215 0
M  V30 9856 H 919.144 2.40841 -2.17177 0
M  V30 9857 H 918.929 1.42892 -3.65136 0
M  V30 9858 H 920.419 2.39236 -3.42281 0
M  V30 9859 N 920.856 1.57574 -0.0284266 0
M  V30 9860 C 921.804 2.11332 0.971675 0
M  V30 9861 C 922.798 1.03974 1.33738 0
M  V30 9862 O 924.004 1.22409 1.31969 0
M  V30 9863 H 920.379 0.675174 0.331125 0
M  V30 9864 H 922.35 2.943 0.49296 0
M  V30 9865 C 921.099 2.65496 2.24516 0
M  V30 9866 H 920.422 3.47753 1.9725 0
M  V30 9867 H 921.862 3.06757 2.92705 0
M  V30 9868 C 920.321 1.58207 2.97443 0
M  V30 9869 O 920.851 0.981496 3.89525 0
M  V30 9870 N 919.057 1.30269 2.59766 0
M  V30 9871 H 918.604 1.79294 1.84963 0
M  V30 9872 H 918.562 0.587085 3.0887 0
M  V30 9873 N 922.334 -0.244713 1.55689 0
M  V30 9874 C 923.582 -0.970525 1.77272 0
M  V30 9875 C 923.903 -1.85771 0.592804 0
M  V30 9876 O 923.173 -1.91952 -0.391323 0
M  V30 9877 H 921.753 -0.361342 0.653789 0
M  V30 9878 H 924.415 -0.262134 1.93129 0
M  V30 9879 H 923.511 -1.59096 2.68505 0
M  V30 9880 N 923.813 -1.49104 -0.510467 0
M  V30 9881 C 925.224 -1.51423 -1.09215 0
M  V30 9882 C 925.575 -0.295035 -1.93969 0
M  V30 9883 O 924.7 0.596064 -2.08029 0
M  V30 9884 C 925.295 -2.74387 -1.98739 0
M  V30 9885 C 923.854 -2.79515 -2.52088 0
M  V30 9886 C 923.001 -2.4521 -1.29488 0
M  V30 9887 H 925.952 -1.55938 -0.294807 0
M  V30 9888 H 925.973 -2.54012 -2.83298 0
M  V30 9889 H 925.485 -3.63105 -1.37026 0
M  V30 9890 H 923.586 -1.95054 -3.17466 0
M  V30 9891 H 923.699 -3.81447 -2.89887 0
M  V30 9892 H 922.063 -1.96785 -1.61703 0
M  V30 9893 H 922.846 -3.36192 -0.694978 0
M  V30 9894 N 925.291 0.760815 -1.38019 0
M  V30 9895 C 926.239 1.89578 -1.34771 0
M  V30 9896 C 927.233 1.67766 -0.234714 0
M  V30 9897 O 928.439 1.75423 -0.403352 0
M  V30 9898 H 924.814 0.623608 -0.420258 0
M  V30 9899 H 926.785 1.89434 -2.30558 0
M  V30 9900 C 925.534 3.26976 -1.18246 0
M  V30 9901 H 924.857 3.44342 -2.03147 0
M  V30 9902 H 926.297 4.06657 -1.20026 0
M  V30 9903 C 924.756 3.36717 0.111145 0
M  V30 9904 O 925.286 3.86607 1.09079 0
M  V30 9905 N 923.492 2.90128 0.165542 0
M  V30 9906 H 923.039 2.49719 -0.632328 0
M  V30 9907 H 922.997 2.97026 1.03067 0
M  V30 9908 N 926.769 1.22769 0.988202 0
M  V30 9909 C 928.046 0.9635 1.70223 0
M  V30 9910 C 928.426 -0.520102 2.04593 0
M  V30 9911 O 927.774 -1.48934 1.73295 0
M  V30 9912 C 927.984 1.86583 2.94937 0
M  V30 9913 C 929.332 2.12469 3.67616 0
M  V30 9914 O 930.356 1.84069 3.04954 0
M  V30 9915 O 929.215 2.60595 4.80367 0
M  V30 9916 H 926.309 0.362737 0.743203 0
M  V30 9917 H 928.855 1.33776 1.04412 0
M  V30 9918 H 927.627 2.86913 2.66077 0
M  V30 9919 H 927.25 1.49344 3.68486 0
M  V30 9920 N 928.247 -1.18576 1.03814 0
M  V30 9921 C 929.475 -1.92437 0.759966 0
M  V30 9922 C 929.89 -1.76031 -0.682526 0
M  V30 9923 O 929.247 -1.08829 -1.46501 0
M  V30 9924 C 929.298 -3.43923 1.11351 0
M  V30 9925 O 929.019 -3.5981 2.49937 0
M  V30 9926 C 930.52 -4.34888 0.859472 0
M  V30 9927 H 927.74 -0.610998 0.277349 0
M  V30 9928 H 930.284 -1.50448 1.38512 0
M  V30 9929 H 928.439 -3.83711 0.533362 0
M  V30 9930 H 928.853 -4.53569 2.63393 0
M  V30 9931 H 930.327 -5.39744 1.15672 0
M  V30 9932 H 930.804 -4.38717 -0.205839 0
M  V30 9933 H 931.41 -4.00795 1.42279 0
M  V30 9934 N 929.725 -0.817259 -1.34754 0
M  V30 9935 C 931.136 -0.462215 -1.80888 0
M  V30 9936 C 931.487 1.01685 -1.67794 0
M  V30 9937 O 930.612 1.79094 -1.21468 0
M  V30 9938 C 931.207 -0.832204 -3.2842 0
M  V30 9939 C 929.766 -0.52961 -3.72655 0
M  V30 9940 C 928.913 -1.05214 -2.56564 0
M  V30 9941 H 931.864 -1.00795 -1.22581 0
M  V30 9942 H 931.885 -0.133804 -3.80265 0
M  V30 9943 H 931.397 -1.90873 -3.37919 0
M  V30 9944 H 929.498 0.537743 -3.68699 0
M  V30 9945 H 929.611 -1.06971 -4.67005 0
M  V30 9946 H 927.975 -0.473949 -2.50251 0
M  V30 9947 H 928.758 -2.135 -2.68836 0
M  V30 9948 N 931.203 1.46865 -0.571711 0
M  V30 9949 C 932.113 2.33979 0.170571 0
M  V30 9950 C 933.129 1.49083 0.897239 0
M  V30 9951 O 934.305 1.81979 0.862888 0
M  V30 9952 C 931.37 3.26063 1.17831 0
M  V30 9953 C 930.431 4.26855 0.457499 0
M  V30 9954 C 929.664 5.14539 1.41722 0
M  V30 9955 O 929.887 5.04945 2.65305 0
M  V30 9956 O 928.821 5.94612 0.9338 0
M  V30 9957 H 932.647 2.98781 -0.544396 0
M  V30 9958 H 930.232 1.4566 -0.332198 0
M  V30 9959 H 932.114 3.82903 1.75965 0
M  V30 9960 H 930.789 2.63871 1.87493 0
M  V30 9961 H 929.696 3.73734 -0.165406 0
M  V30 9962 H 931.029 4.91802 -0.197953 0
M  V30 9963 N 932.681 0.308908 1.54543 0
M  V30 9964 C 933.591 -0.572939 2.27496 0
M  V30 9965 C 934.607 -1.14171 1.31305 0
M  V30 9966 O 935.783 -1.16481 1.64299 0
M  V30 9967 C 932.848 -1.72483 3.0075 0
M  V30 9968 C 931.909 -1.18934 4.12496 0
M  V30 9969 C 931.142 -2.28634 4.82247 0
M  V30 9970 O 931.365 -3.48691 4.5141 0
M  V30 9971 O 930.299 -1.94879 5.69478 0
M  V30 9972 H 934.125 0.0190877 3.03694 0
M  V30 9973 H 931.71 0.0750943 1.49211 0
M  V30 9974 H 933.592 -2.39578 3.46671 0
M  V30 9975 H 932.267 -2.30332 2.2744 0
M  V30 9976 H 931.174 -0.483904 3.70957 0
M  V30 9977 H 932.507 -0.656185 4.87806 0
M  V30 9978 N 934.159 -1.57557 0.0367827 0
M  V30 9979 C 935.408 -1.91291 -0.639569 0
M  V30 9980 C 935.721 -0.915601 -1.72847 0
M  V30 9981 O 936.927 -1.14447 -2.46199 0
M  V30 9982 C 935.383 -3.39697 -1.18888 0
M  V30 9983 C 934.991 -4.47803 -0.132851 0
M  V30 9984 C 936.735 -3.82487 -1.8413 0
M  V30 9985 C 934.642 -5.87311 -0.694229 0
M  V30 9986 H 933.572 -0.713886 -0.242658 0
M  V30 9987 H 936.223 -1.83209 0.103332 0
M  V30 9988 H 934.605 -3.42736 -1.98363 0
M  V30 9989 H 935.779 -4.56334 0.640009 0
M  V30 9990 H 934.094 -4.14264 0.421264 0
M  V30 9991 H 936.691 -4.84076 -2.27101 0
M  V30 9992 H 937.034 -3.17959 -2.68716 0
M  V30 9993 H 937.567 -3.81903 -1.11332 0
M  V30 9994 H 934.306 -6.55401 0.113667 0
M  V30 9995 H 933.826 -5.82371 -1.4354 0
M  V30 9996 H 935.505 -6.36119 -1.1816 0
M  V30 9997 N 935.637 0.236453 -1.55816 0
M  V30 9998 C 936.567 1.29639 -1.94206 0
M  V30 9999 C 937.548 1.49667 -0.808319 0
M  V30 10000 O 938.733 1.621 -1.06945 0
M  V30 10001 C 935.863 2.64914 -2.24584 0
M  V30 10002 C 934.817 2.59565 -3.40308 0
M  V30 10003 C 934.143 3.98732 -3.56254 0
M  V30 10004 C 935.443 2.15642 -4.75706 0
M  V30 10005 H 937.137 0.977552 -2.82992 0
M  V30 10006 H 934.683 0.468804 -1.36155 0
M  V30 10007 H 936.636 3.39209 -2.50031 0
M  V30 10008 H 935.36 2.98455 -1.32636 0
M  V30 10009 H 934.019 1.87728 -3.14887 0
M  V30 10010 H 933.667 4.29556 -2.61707 0
M  V30 10011 H 933.367 3.96039 -4.34082 0
M  V30 10012 H 934.891 4.74711 -3.84033 0
M  V30 10013 H 936.305 2.79673 -5.00456 0
M  V30 10014 H 934.702 2.24039 -5.56711 0
M  V30 10015 H 935.772 1.10831 -4.72064 0
M  V30 10016 N 937.115 1.49373 0.502552 0
M  V30 10017 C 938.045 1.68839 1.61294 0
M  V30 10018 C 939.026 0.537096 1.61398 0
M  V30 10019 O 940.211 0.772764 1.78163 0
M  V30 10020 C 937.341 1.75347 2.99784 0
M  V30 10021 C 936.295 2.90251 3.14545 0
M  V30 10022 C 935.621 2.8187 4.54371 0
M  V30 10023 C 936.921 4.31207 2.94717 0
M  V30 10024 H 938.615 2.61803 1.45257 0
M  V30 10025 H 936.161 1.25987 0.697371 0
M  V30 10026 H 938.114 1.87552 3.77362 0
M  V30 10027 H 936.838 0.789814 3.16906 0
M  V30 10028 H 935.497 2.77646 2.39392 0
M  V30 10029 H 935.145 1.83416 4.68367 0
M  V30 10030 H 934.845 3.5899 4.65188 0
M  V30 10031 H 936.369 2.96081 5.34012 0
M  V30 10032 H 937.783 4.44501 3.62065 0
M  V30 10033 H 936.18 5.09536 3.17007 0
M  V30 10034 H 937.25 4.45759 1.90857 0
M  V30 10035 N 938.594 -0.753485 1.38421 0
M  V30 10036 C 940.01 -1.05656 1.1962 0
M  V30 10037 C 940.21 -2.0145 0.0449443 0
M  V30 10038 O 939.266 -2.45039 -0.609253 0
M  V30 10039 C 940.579 -1.63655 2.52265 0
M  V30 10040 C 942.127 -1.75825 2.58949 0
M  V30 10041 C 942.602 -2.37236 3.91769 0
M  V30 10042 N 944.093 -2.44666 3.9331 0
M  V30 10043 C 944.828 -2.93077 4.92842 0
M  V30 10044 N 944.324 -3.41523 6.02772 0
M  V30 10045 N 946.117 -2.92118 4.80232 0
M  V30 10046 H 938.268 -0.117799 2.12073 0
M  V30 10047 H 940.531 -0.114889 0.941012 0
M  V30 10048 H 940.237 -1.00734 3.36965 0
M  V30 10049 H 940.111 -2.62715 2.70667 0
M  V30 10050 H 942.498 -2.37873 1.74644 0
M  V30 10051 H 942.579 -0.754693 2.44414 0
M  V30 10052 H 942.223 -1.75822 4.76497 0
M  V30 10053 H 942.153 -3.38233 4.03616 0
M  V30 10054 H 944.644 -2.10403 3.1391 0
M  V30 10055 H 944.957 -3.76919 6.74649 0
M  V30 10056 H 943.302 -3.3958 6.06391 0
M  V30 10057 H 946.493 -2.53582 3.93464 0
M  V30 10058 H 946.666 -3.29535 5.57952 0
M  V30 10059 N 940.072 -1.23292 -0.981677 0
M  V30 10060 C 941.321 -1.05832 -1.71705 0
M  V30 10061 C 941.634 0.40514 -1.91358 0
M  V30 10062 O 942.84 0.699645 -2.6233 0
M  V30 10063 C 941.296 -1.84532 -3.08992 0
M  V30 10064 C 940.904 -3.35199 -2.9723 0
M  V30 10065 C 942.648 -1.75557 -3.86497 0
M  V30 10066 C 940.555 -4.06296 -4.29741 0
M  V30 10067 H 939.485 -0.39241 -0.64384 0
M  V30 10068 H 942.136 -1.47247 -1.09502 0
M  V30 10069 H 940.518 -1.35923 -3.71942 0
M  V30 10070 H 941.692 -3.91286 -2.43377 0
M  V30 10071 H 940.007 -3.44973 -2.332 0
M  V30 10072 H 942.604 -2.25989 -4.84596 0
M  V30 10073 H 942.947 -0.718101 -4.1006 0
M  V30 10074 H 943.48 -2.21771 -3.30246 0
M  V30 10075 H 940.219 -5.10344 -4.11375 0
M  V30 10076 H 939.739 -3.54997 -4.83464 0
M  V30 10077 H 941.418 -4.12519 -4.98434 0
M  V30 10078 N 941.55 1.18024 -1.04442 0
M  V30 10079 C 942.798 1.87727 -0.74854 0
M  V30 10080 C 943.119 1.80975 0.726156 0
M  V30 10081 O 942.389 1.23061 1.52423 0
M  V30 10082 H 940.969 0.694974 -0.273897 0
M  V30 10083 H 943.631 1.43213 -1.32197 0
M  V30 10084 H 942.727 2.93665 -1.05674 0
M  V30 10085 N 943.028 0.824394 1.34319 0
M  V30 10086 C 943.976 0.235628 2.31403 0
M  V30 10087 C 944.97 -0.624443 1.57471 0
M  V30 10088 O 946.176 -0.515618 1.72457 0
M  V30 10089 H 942.551 0.0574537 0.749802 0
M  V30 10090 H 944.522 1.06925 2.78585 0
M  V30 10091 C 943.271 -0.586617 3.42716 0
M  V30 10092 H 942.594 0.0658669 3.99746 0
M  V30 10093 H 944.034 -0.964661 4.1288 0
M  V30 10094 C 942.493 -1.75957 2.87299 0
M  V30 10095 O 943.023 -2.8578 2.82299 0
M  V30 10096 N 941.229 -1.57678 2.44102 0
M  V30 10097 H 940.776 -0.683436 2.48369 0
M  V30 10098 H 940.734 -2.36311 2.07375 0
M  V30 10099 N 944.506 -1.46559 0.579492 0
M  V30 10100 C 945.754 -2.02 0.0637157 0
M  V30 10101 C 946.075 -1.45378 -1.29962 0
M  V30 10102 O 945.345 -0.637262 -1.85245 0
M  V30 10103 H 943.925 -0.746717 0.0205638 0
M  V30 10104 H 946.587 -1.79702 0.754544 0
M  V30 10105 H 945.683 -3.12099 -0.00770254 0
M  V30 10106 N 945.984 -0.3171 -1.54377 0
M  V30 10107 C 946.931 0.551782 -2.24107 0
M  V30 10108 C 947.901 1.11681 -1.22949 0
M  V30 10109 O 949.086 1.15836 -1.51614 0
M  V30 10110 C 946.226 1.70997 -2.99756 0
M  V30 10111 C 945.339 1.17479 -4.15719 0
M  V30 10112 C 944.474 2.29815 -4.78914 0
M  V30 10113 C 943.513 1.73513 -5.86992 0
M  V30 10114 N 942.65 2.79485 -6.44075 0
M  V30 10115 H 947.49 -0.049431 -2.97959 0
M  V30 10116 H 945.027 -0.0361658 -1.47056 0
M  V30 10117 H 946.985 2.39141 -3.41859 0
M  V30 10118 H 945.615 2.28257 -2.28251 0
M  V30 10119 H 944.667 0.385109 -3.78446 0
M  V30 10120 H 945.979 0.72276 -4.93536 0
M  V30 10121 H 945.133 3.05875 -5.23952 0
M  V30 10122 H 943.872 2.78352 -4.00464 0
M  V30 10123 H 942.877 0.959475 -5.41363 0
M  V30 10124 H 944.102 1.2586 -6.67335 0
M  V30 10125 H 942.048 3.27325 -5.68502 0
M  V30 10126 H 941.965 2.38825 -7.17286 0
M  V30 10127 H 943.233 3.55394 -6.93769 0
M  V30 10128 N 947.462 1.57535 -0.0451378 0
M  V30 10129 C 948.709 1.92451 0.629987 0
M  V30 10130 C 949.037 0.92298 1.71206 0
M  V30 10131 O 948.292 -0.0656626 1.9559 0
M  V30 10132 C 948.591 3.34065 1.27024 0
M  V30 10133 C 948.257 4.49785 0.316971 0
M  V30 10134 C 946.919 4.81169 0.0546406 0
M  V30 10135 C 949.271 5.20111 -0.336693 0
M  V30 10136 C 946.599 5.8023 -0.86889 0
M  V30 10137 C 948.951 6.2016 -1.24838 0
M  V30 10138 C 947.615 6.49976 -1.51944 0
M  V30 10139 H 946.885 0.704228 0.230529 0
M  V30 10140 H 949.532 1.91182 -0.110328 0
M  V30 10141 H 947.837 3.31672 2.08568 0
M  V30 10142 H 949.534 3.58359 1.79945 0
M  V30 10143 H 946.124 4.2529 0.531614 0
M  V30 10144 H 950.308 4.96082 -0.147105 0
M  V30 10145 H 945.564 6.0167 -1.08643 0
M  V30 10146 H 949.738 6.73767 -1.76098 0
M  V30 10147 H 947.365 7.26551 -2.2367 0
M  V30 10148 N 948.94 -0.228186 1.55939 0
M  V30 10149 C 950.165 -0.974795 1.83064 0
M  V30 10150 C 950.59 -1.77426 0.624624 0
M  V30 10151 O 949.948 -1.76211 -0.426556 0
M  V30 10152 C 949.996 -1.87342 3.08116 0
M  V30 10153 O 949.1 -2.96784 2.86344 0
M  V30 10154 H 948.441 -0.276379 0.603747 0
M  V30 10155 H 950.971 -0.243507 2.03146 0
M  V30 10156 H 950.981 -2.28451 3.38045 0
M  V30 10157 H 949.656 -1.28575 3.95526 0
M  V30 10158 H 948.233 -2.59669 2.67631 0
M  V30 10159 N 950.418 -1.49637 -0.494624 0
M  V30 10160 C 951.348 -1.69692 -1.60396 0
M  V30 10161 C 952.329 -0.545648 -1.61111 0
M  V30 10162 O 953.514 -0.782202 -1.77751 0
M  V30 10163 C 950.644 -1.76934 -2.9885 0
M  V30 10164 C 949.598 -2.91915 -3.13001 0
M  V30 10165 C 948.924 -2.84276 -4.5287 0
M  V30 10166 C 950.224 -4.32764 -2.92426 0
M  V30 10167 H 951.918 -2.6257 -1.43866 0
M  V30 10168 H 949.464 -1.26355 -0.690679 0
M  V30 10169 H 951.417 -1.8955 -3.76362 0
M  V30 10170 H 950.141 -0.806609 -3.16483 0
M  V30 10171 H 948.8 -2.78911 -2.37916 0
M  V30 10172 H 948.448 -1.85897 -4.67388 0
M  V30 10173 H 948.148 -3.61452 -4.63278 0
M  V30 10174 H 949.672 -2.98909 -5.32434 0
M  V30 10175 H 951.086 -4.46415 -3.59703 0
M  V30 10176 H 949.483 -5.1121 -3.143 0
M  V30 10177 H 950.553 -4.46765 -1.88491 0
M  V30 10178 N 951.896 0.746133 -1.38819 0
M  V30 10179 C 953.121 1.54049 -1.38866 0
M  V30 10180 C 953.546 1.88092 0.0176624 0
M  V30 10181 O 952.904 1.51113 1.00173 0
M  V30 10182 C 952.952 2.8116 -2.25791 0
M  V30 10183 O 952.056 3.76623 -1.68014 0
M  V30 10184 H 951.397 0.465648 -0.473359 0
M  V30 10185 H 953.927 0.921469 -1.82675 0
M  V30 10186 H 953.937 3.30009 -2.39913 0
M  V30 10187 H 952.612 2.55713 -3.27999 0
M  V30 10188 H 951.189 3.35352 -1.63074 0
M  V30 10189 N 953.375 1.23811 0.975125 0
M  V30 10190 C 954.623 1.07124 1.71373 0
M  V30 10191 C 954.944 -0.391864 1.91022 0
M  V30 10192 O 954.214 -1.28041 1.48265 0
M  V30 10193 H 952.794 0.393415 0.635007 0
M  V30 10194 H 955.456 1.55612 1.17349 0
M  V30 10195 H 954.552 1.56338 2.7012 0
M  V30 10196 N 954.853 -1.17469 1.05066 0
M  V30 10197 C 956.101 -1.87327 0.758485 0
M  V30 10198 C 956.422 -1.81358 -0.716549 0
M  V30 10199 O 955.692 -1.23868 -1.51768 0
M  V30 10200 H 954.272 -0.693512 0.277579 0
M  V30 10201 H 956.934 -1.4251 1.32954 0
M  V30 10202 H 956.03 -2.93101 1.0723 0
M  V30 10203 N 956.331 -0.831506 -1.3388 0
M  V30 10204 C 957.279 -0.247896 -2.31275 0
M  V30 10205 C 958.273 0.616083 -1.578 0
M  V30 10206 O 959.479 0.506465 -1.72728 0
M  V30 10207 H 955.854 -0.0614293 -0.749487 0
M  V30 10208 H 957.825 -1.08401 -2.78014 0
M  V30 10209 C 956.574 0.568434 -3.43022 0
M  V30 10210 H 955.897 -0.0870654 -3.99705 0
M  V30 10211 H 957.337 0.942751 -4.13386 0
M  V30 10212 C 955.796 1.74431 -2.88228 0
M  V30 10213 O 956.326 2.84278 -2.83811 0
M  V30 10214 N 954.532 1.56382 -2.44935 0
M  V30 10215 H 954.079 0.670255 -2.48727 0
M  V30 10216 H 954.037 2.35208 -2.08625 0
M  V30 10217 N 957.809 1.4625 -0.587256 0
M  V30 10218 C 959.055 2.0323 -0.0830359 0
M  V30 10219 C 959.41 1.45007 1.26455 0
M  V30 10220 O 958.703 0.607494 1.81714 0
M  V30 10221 C 958.897 3.57382 0.036328 0
M  V30 10222 C 958.726 4.30556 -1.29814 0
M  V30 10223 C 957.496 4.69285 -1.87349 0
M  V30 10224 C 959.694 4.63806 -2.22236 0
M  V30 10225 N 957.676 5.27229 -3.14488 0
M  V30 10226 C 959.047 5.22368 -3.33964 0
M  V30 10227 C 961.102 4.45738 -2.2186 0
M  V30 10228 C 959.805 5.64769 -4.45454 0
M  V30 10229 C 961.831 4.89158 -3.32383 0
M  V30 10230 C 961.193 5.47795 -4.42832 0
M  V30 10231 H 957.292 0.77856 -0.0732716 0
M  V30 10232 H 959.876 1.78343 -0.781152 0
M  V30 10233 H 958.047 3.81973 0.703621 0
M  V30 10234 H 959.779 4.01009 0.545347 0
M  V30 10235 H 956.534 4.5219 -1.40789 0
M  V30 10236 H 956.958 5.60719 -3.79372 0
M  V30 10237 H 961.6 3.99735 -1.37739 0
M  V30 10238 H 959.318 6.09748 -5.30314 0
M  V30 10239 H 962.904 4.76926 -3.33216 0
M  V30 10240 H 961.784 5.80778 -5.26941 0
M  V30 10241 N 959.287 0.325282 1.54207 0
M  V30 10242 C 960.564 -0.33113 1.92777 0
M  V30 10243 C 960.944 -1.69739 1.25506 0
M  V30 10244 O 960.292 -2.24983 0.399385 0
M  V30 10245 C 960.502 -0.421636 3.46444 0
M  V30 10246 C 961.85 -0.681111 4.19101 0
M  V30 10247 O 962.874 -0.504488 3.52609 0
M  V30 10248 O 961.733 -1.02196 5.3686 0
M  V30 10249 H 958.827 -0.18943 0.805013 0
M  V30 10250 H 961.373 0.375123 1.65502 0
M  V30 10251 H 960.145 0.537862 3.87586 0
M  V30 10252 H 959.768 -1.1754 3.79829 0
M  V30 10253 N 960.765 -1.57509 0.0534917 0
M  V30 10254 C 961.713 -2.12851 -0.937931 0
M  V30 10255 C 962.707 -1.06088 -1.32067 0
M  V30 10256 O 963.913 -1.24494 -1.30005 0
M  V30 10257 H 960.288 -0.680357 -0.320342 0
M  V30 10258 H 962.259 -2.95047 -0.446077 0
M  V30 10259 C 961.008 -2.69034 -2.20264 0
M  V30 10260 H 960.331 -3.50848 -1.91693 0
M  V30 10261 H 961.771 -3.11375 -2.87788 0
M  V30 10262 C 960.23 -1.62919 -2.94888 0
M  V30 10263 O 960.76 -1.04334 -3.87914 0
M  V30 10264 N 958.966 -1.34385 -2.57661 0
M  V30 10265 H 958.513 -1.82214 -1.82088 0
M  V30 10266 H 958.471 -0.636149 -3.07897 0
M  V30 10267 N 962.243 0.219913 -1.56058 0
M  V30 10268 C 963.492 0.942119 -1.78345 0
M  V30 10269 C 963.805 1.85435 -0.622344 0
M  V30 10270 O 965.011 2.61533 -0.728886 0
M  V30 10271 C 963.467 1.72544 -3.15843 0
M  V30 10272 C 963.075 0.859263 -4.39682 0
M  V30 10273 C 964.819 2.43876 -3.47455 0
M  V30 10274 C 962.726 1.64003 -5.68205 0
M  V30 10275 H 961.656 0.355514 -0.664925 0
M  V30 10276 H 964.307 0.195963 -1.82451 0
M  V30 10277 H 962.689 2.51456 -3.05918 0
M  V30 10278 H 963.863 0.110562 -4.60667 0
M  V30 10279 H 962.178 0.257985 -4.156 0
M  V30 10280 H 964.775 3.02794 -4.40704 0
M  V30 10281 H 965.118 3.16843 -2.7003 0
M  V30 10282 H 965.651 1.71952 -3.58716 0
M  V30 10283 H 962.39 0.953606 -6.48526 0
M  V30 10284 H 961.91 2.3633 -5.51279 0
M  V30 10285 H 963.589 2.20028 -6.08438 0
M  V30 10286 N 963.721 1.49897 0.486681 0
M  V30 10287 C 964.946 1.64106 1.26823 0
M  V30 10288 C 965.371 0.317967 1.85393 0
M  V30 10289 O 964.729 -0.71626 1.66551 0
M  V30 10290 C 964.777 2.72301 2.36399 0
M  V30 10291 O 963.881 2.32469 3.40634 0
M  V30 10292 H 963.222 0.548794 0.373793 0
M  V30 10293 H 965.752 1.96177 0.581017 0
M  V30 10294 H 965.762 2.94906 2.81948 0
M  V30 10295 H 964.437 3.68335 1.93137 0
M  V30 10296 H 963.014 2.20251 3.00905 0
M  V30 10297 N 965.199 -0.738761 1.39212 0
M  V30 10298 C 966.476 -1.48982 1.26742 0
M  V30 10299 C 966.856 -2.10732 -0.12466 0
M  V30 10300 O 966.204 -1.98287 -1.13554 0
M  V30 10301 C 966.414 -2.54427 2.38889 0
M  V30 10302 C 967.762 -3.20915 2.78027 0
M  V30 10303 O 968.786 -2.64738 2.38311 0
M  V30 10304 O 967.645 -4.22558 3.46565 0
M  V30 10305 H 964.739 -0.661395 0.496473 0
M  V30 10306 H 967.285 -0.772907 1.51077 0
M  V30 10307 H 966.057 -2.07151 3.3197 0
M  V30 10308 H 965.68 -3.33682 2.162 0
M  V30 10309 N 966.677 -1.24326 -0.968545 0
M  V30 10310 C 967.925 -1.08032 -1.70803 0
M  V30 10311 C 968.246 0.381728 -1.91227 0
M  V30 10312 O 967.516 1.27253 -1.48942 0
M  V30 10313 H 966.096 -0.396777 -0.632912 0
M  V30 10314 H 968.758 -1.56232 -1.16523 0
M  V30 10315 H 967.854 -1.57769 -2.69287 0
M  V30 10316 N 968.156 1.1691 -1.05688 0
M  V30 10317 C 969.119 2.19297 -0.666433 0
M  V30 10318 C 970.119 1.5826 0.284674 0
M  V30 10319 O 971.309 1.74068 0.0678757 0
M  V30 10320 C 968.441 3.40894 0.0203656 0
M  V30 10321 H 969.634 2.55354 -1.57272 0
M  V30 10322 H 967.187 1.31078 -0.851359 0
M  V30 10323 H 967.922 3.10388 0.939686 0
M  V30 10324 H 967.707 3.86446 -0.663464 0
M  V30 10325 H 969.197 4.16664 0.279475 0
M  V30 10326 N 969.634 0.838594 1.33437 0
M  V30 10327 C 970.581 0.269609 2.2922 0
M  V30 10328 C 971.551 -0.614429 1.54318 0
M  V30 10329 O 972.736 -0.552756 1.82618 0
M  V30 10330 C 969.876 -0.549527 3.40697 0
M  V30 10331 C 968.989 0.358502 4.3051 0
M  V30 10332 C 968.124 -0.471709 5.29101 0
M  V30 10333 C 967.163 0.434728 6.10554 0
M  V30 10334 N 966.3 -0.357339 7.0119 0
M  V30 10335 H 971.14 1.09172 2.77282 0
M  V30 10336 H 968.677 0.549832 1.36438 0
M  V30 10337 H 970.635 -1.03992 4.04032 0
M  V30 10338 H 969.265 -1.33661 2.93828 0
M  V30 10339 H 968.317 0.967204 3.67899 0
M  V30 10340 H 969.629 1.05483 4.87519 0
M  V30 10341 H 968.783 -1.02594 5.97963 0
M  V30 10342 H 967.522 -1.20147 4.72669 0
M  V30 10343 H 966.527 1.00097 5.40611 0
M  V30 10344 H 967.752 1.16285 6.6907 0
M  V30 10345 H 965.698 -1.07049 6.47207 0
M  V30 10346 H 965.615 0.280277 7.5548 0
M  V30 10347 H 966.883 -0.893814 7.74359 0
M  V30 10348 N 971.112 -1.45937 0.595003 0
M  V30 10349 C 972.389 -1.95592 0.0178748 0
M  V30 10350 C 972.769 -1.53758 -1.44643 0
M  V30 10351 O 972.117 -0.794104 -2.14257 0
M  V30 10352 C 972.327 -3.4841 0.202789 0
M  V30 10353 C 973.675 -4.2453 0.0770121 0
M  V30 10354 O 974.699 -3.55954 0.132257 0
M  V30 10355 O 973.558 -5.46479 -0.0484271 0
M  V30 10356 H 970.652 -0.825888 -0.0428702 0
M  V30 10357 H 973.198 -1.56162 0.664184 0
M  V30 10358 H 971.97 -3.71787 1.22027 0
M  V30 10359 H 971.593 -3.947 -0.479376 0
M  V30 10360 N 972.59 -0.333456 -1.54032 0
M  V30 10361 C 973.52 0.52051 -2.27625 0
M  V30 10362 C 974.501 1.1111 -1.28797 0
M  V30 10363 O 975.686 1.13438 -1.57625 0
M  V30 10364 C 972.816 1.67663 -3.04149 0
M  V30 10365 C 971.77 1.21487 -4.10396 0
M  V30 10366 C 971.096 2.45872 -4.74817 0
M  V30 10367 C 972.396 0.322603 -5.21303 0
M  V30 10368 H 974.09 -0.0933823 -2.99254 0
M  V30 10369 H 971.636 -0.0463526 -1.43925 0
M  V30 10370 H 973.589 2.28041 -3.54366 0
M  V30 10371 H 972.313 2.31727 -2.30153 0
M  V30 10372 H 970.972 0.633966 -3.61077 0
M  V30 10373 H 970.62 3.0832 -3.97426 0
M  V30 10374 H 970.32 2.15662 -5.46593 0
M  V30 10375 H 971.844 3.06994 -5.27814 0
M  V30 10376 H 973.258 0.832942 -5.67217 0
M  V30 10377 H 971.655 0.112843 -5.99994 0
M  V30 10378 H 972.725 -0.643954 -4.80605 0
M  V30 10379 N 974.068 1.57479 -0.061844 0
M  V30 10380 C 974.998 2.15181 0.9066 0
M  V30 10381 C 975.979 1.07624 1.31724 0
M  V30 10382 O 977.164 1.35614 1.39006 0
M  V30 10383 C 974.294 2.70542 2.17771 0
M  V30 10384 C 973.248 3.83178 1.9068 0
M  V30 10385 C 972.574 4.25099 3.24337 0
M  V30 10386 C 973.874 5.07853 1.21994 0
M  V30 10387 H 975.568 2.96355 0.42594 0
M  V30 10388 H 973.114 1.42556 0.203435 0
M  V30 10389 H 975.067 3.09552 2.85929 0
M  V30 10390 H 973.791 1.86575 2.68062 0
M  V30 10391 H 972.45 3.44656 1.24931 0
M  V30 10392 H 972.098 3.38069 3.72449 0
M  V30 10393 H 971.798 5.01021 3.07005 0
M  V30 10394 H 973.322 4.66718 3.93709 0
M  V30 10395 H 974.736 5.44242 1.80204 0
M  V30 10396 H 973.133 5.88987 1.14954 0
M  V30 10397 H 974.203 4.84497 0.197536 0
M  V30 10398 N 975.546 -0.211634 1.56173 0
M  V30 10399 C 976.771 -0.955324 1.84088 0
M  V30 10400 C 977.196 -1.76754 0.643407 0
M  V30 10401 O 976.554 -1.76653 -0.407842 0
M  V30 10402 C 976.602 -1.84063 3.10085 0
M  V30 10403 O 975.706 -2.9373 2.89476 0
M  V30 10404 H 975.047 -0.26996 0.606645 0
M  V30 10405 H 977.577 -0.221947 2.03393 0
M  V30 10406 H 977.587 -2.24852 3.40449 0
M  V30 10407 H 976.262 -1.24373 3.96868 0
M  V30 10408 H 974.839 -2.56816 2.7037 0
M  V30 10409 N 977.024 -1.50153 -0.478725 0
M  V30 10410 C 977.974 -1.64848 -1.57509 0
M  V30 10411 C 978.958 -0.503327 -1.52825 0
M  V30 10412 O 980.15 -0.75737 -1.59978 0
M  V30 10413 C 977.279 -1.73893 -2.96 0
M  V30 10414 C 976.365 -2.9406 -3.05597 0
M  V30 10415 N 976.756 -4.17844 -2.85027 0
M  V30 10416 C 975.054 -2.92459 -3.36725 0
M  V30 10417 C 975.755 -4.98739 -2.9939 0
M  V30 10418 N 974.731 -4.32542 -3.29255 0
M  V30 10419 H 978.533 -2.58254 -1.40293 0
M  V30 10420 H 976.047 -1.47232 -0.685307 0
M  V30 10421 H 978.044 -1.82523 -3.74821 0
M  V30 10422 H 976.704 -0.816402 -3.14269 0
M  V30 10423 H 977.715 -4.47465 -2.60759 0
M  V30 10424 H 974.392 -2.09675 -3.6103 0
M  V30 10425 H 975.782 -6.07146 -2.8779 0
M  V30 10426 N 978.502 0.731368 -1.39602 0
M  V30 10427 C 979.435 1.85433 -1.33004 0
M  V30 10428 C 980.413 1.61327 -0.20307 0
M  V30 10429 O 981.597 1.84545 -0.384124 0
M  V30 10430 C 978.724 3.21483 -1.06613 0
M  V30 10431 C 977.77 3.64443 -2.21549 0
M  V30 10432 S 978.603 3.73387 -3.83852 0
M  V30 10433 C 979.759 5.12222 -3.59694 0
M  V30 10434 H 979.992 1.90747 -2.28041 0
M  V30 10435 H 977.525 0.89659 -1.25701 0
M  V30 10436 H 979.483 4.00041 -0.920719 0
M  V30 10437 H 978.144 3.1382 -0.132563 0
M  V30 10438 H 977.337 4.63185 -1.98686 0
M  V30 10439 H 976.939 2.93099 -2.32312 0
M  V30 10440 H 979.231 5.98666 -3.17184 0
M  V30 10441 H 980.174 5.40115 -4.5791 0
M  V30 10442 H 980.582 4.8207 -2.93716 0
M  V30 10443 N 979.98 1.24838 0.961938 0
M  V30 10444 C 980.91 1.07053 2.07514 0
M  V30 10445 C 981.891 -0.0182465 1.7009 0
M  V30 10446 O 983.076 0.149915 1.9362 0
M  V30 10447 C 980.206 0.680693 3.40564 0
M  V30 10448 C 979.16 1.71889 3.91967 0
M  V30 10449 C 978.486 1.18395 5.21428 0
M  V30 10450 C 979.786 3.1161 4.19161 0
M  V30 10451 H 981.48 2.00167 2.22651 0
M  V30 10452 H 979.026 0.963799 1.0699 0
M  V30 10453 H 980.979 0.54324 4.17884 0
M  V30 10454 H 979.703 -0.28615 3.25344 0
M  V30 10455 H 978.362 1.84465 3.16809 0
M  V30 10456 H 978.01 0.207543 5.02572 0
M  V30 10457 H 977.71 1.87778 5.56788 0
M  V30 10458 H 979.234 1.05873 6.01351 0
M  V30 10459 H 980.648 3.0223 4.87165 0
M  V30 10460 H 979.045 3.78398 4.65763 0
M  V30 10461 H 980.115 3.59218 3.25715 0
M  V30 10462 N 981.458 -1.16348 1.06306 0
M  V30 10463 C 982.408 -2.18717 0.643947 0
M  V30 10464 C 983.392 -1.57574 -0.325445 0
M  V30 10465 O 984.584 -1.76439 -0.140868 0
M  V30 10466 C 981.713 -3.43285 0.0320266 0
M  V30 10467 C 980.799 -4.11504 1.02592 0
M  V30 10468 N 981.19 -4.55374 2.20155 0
M  V30 10469 C 979.488 -4.37691 0.856887 0
M  V30 10470 C 980.189 -5.08149 2.83124 0
M  V30 10471 N 979.165 -5.01042 2.10851 0
M  V30 10472 H 982.967 -2.50353 1.53951 0
M  V30 10473 H 980.481 -1.328 0.934763 0
M  V30 10474 H 982.478 -4.15917 -0.286064 0
M  V30 10475 H 981.138 -3.13137 -0.858786 0
M  V30 10476 H 982.149 -4.49101 2.57931 0
M  V30 10477 H 978.826 -4.17496 0.0180742 0
M  V30 10478 H 980.216 -5.52131 3.82885 0
M  V30 10479 N 982.937 -0.845659 -1.3299 0
M  V30 10480 C 983.87 -0.228695 -2.27051 0
M  V30 10481 C 984.848 0.62812 -1.49978 0
M  V30 10482 O 986.032 0.586897 -1.79131 0
M  V30 10483 C 983.159 0.678251 -3.31839 0
M  V30 10484 C 982.205 -0.103994 -4.26373 0
M  V30 10485 S 983.038 -1.46642 -5.1503 0
M  V30 10486 C 984.194 -0.564953 -6.23345 0
M  V30 10487 H 984.427 -1.02609 -2.79032 0
M  V30 10488 H 981.96 -0.642786 -1.40384 0
M  V30 10489 H 983.918 1.1959 -3.92694 0
M  V30 10490 H 982.579 1.44937 -2.78661 0
M  V30 10491 H 981.772 0.586406 -5.00577 0
M  V30 10492 H 981.374 -0.552927 -3.6989 0
M  V30 10493 H 983.666 0.234466 -6.77094 0
M  V30 10494 H 984.609 -1.27736 -6.96483 0
M  V30 10495 H 985.017 -0.143286 -5.64318 0
M  V30 10496 N 984.415 1.45619 -0.602734 0
M  V30 10497 C 985.692 1.9558 -0.0282472 0
M  V30 10498 C 986.072 1.54523 1.43826 0
M  V30 10499 O 985.42 0.805456 2.13833 0
M  V30 10500 C 985.63 3.48298 -0.221263 0
M  V30 10501 C 986.978 4.24483 -0.0995249 0
M  V30 10502 O 988.002 3.55879 -0.151132 0
M  V30 10503 O 986.861 5.46497 0.0194454 0
M  V30 10504 H 983.955 0.826104 0.0384897 0
M  V30 10505 H 986.501 1.55808 -0.672456 0
M  V30 10506 H 985.273 3.71134 -1.23997 0
M  V30 10507 H 984.896 3.94948 0.458437 0
M  V30 10508 N 985.893 0.34162 1.53853 0
M  V30 10509 C 987.304 -0.14269 1.86154 0
M  V30 10510 C 987.655 -1.50151 1.2629 0
M  V30 10511 O 986.78 -2.08601 0.575735 0
M  V30 10512 C 987.375 -0.265691 3.37757 0
M  V30 10513 C 985.934 -0.694231 3.69942 0
M  V30 10514 C 985.081 0.173195 2.76759 0
M  V30 10515 H 988.032 0.561284 1.48443 0
M  V30 10516 H 988.053 -1.09352 3.64448 0
M  V30 10517 H 987.565 0.723424 3.81298 0
M  V30 10518 H 985.666 -1.69244 3.31945 0
M  V30 10519 H 985.779 -0.485461 4.76634 0
M  V30 10520 H 984.143 -0.35416 2.52226 0
M  V30 10521 H 984.926 1.15941 3.23129 0
M  V30 10522 N 987.371 -1.57444 0.0701946 0
M  V30 10523 C 988.321 -2.09154 -0.90767 0
M  V30 10524 C 989.305 -1.00087 -1.25982 0
M  V30 10525 O 990.497 -1.26397 -1.23906 0
M  V30 10526 C 987.626 -2.65544 -2.17581 0
M  V30 10527 C 986.712 -3.81613 -1.85021 0
M  V30 10528 N 987.103 -4.90641 -1.22904 0
M  V30 10529 C 985.401 -3.90878 -2.1478 0
M  V30 10530 C 986.102 -5.71511 -1.084 0
M  V30 10531 N 985.078 -5.1973 -1.59318 0
M  V30 10532 H 988.88 -2.90839 -0.423051 0
M  V30 10533 H 986.394 -1.61848 -0.13374 0
M  V30 10534 H 988.391 -3.00904 -2.88552 0
M  V30 10535 H 987.051 -1.85304 -2.66632 0
M  V30 10536 H 988.062 -5.1004 -0.898878 0
M  V30 10537 H 984.739 -3.21611 -2.66219 0
M  V30 10538 H 986.129 -6.69214 -0.600183 0
M  V30 10539 N 988.849 0.203349 -1.56283 0
M  V30 10540 C 989.781 1.27592 -1.90402 0
M  V30 10541 C 990.794 1.4213 -0.79391 0
M  V30 10542 O 991.983 1.42703 -1.07229 0
M  V30 10543 C 989.083 2.64919 -2.11356 0
M  V30 10544 C 988.256 2.72095 -3.42466 0
M  V30 10545 C 987.315 3.9056 -3.52631 0
M  V30 10546 O 986.341 3.78048 -4.25521 0
M  V30 10547 N 987.543 5.0566 -2.85111 0
M  V30 10548 H 990.308 0.986423 -2.83001 0
M  V30 10549 H 987.869 0.39331 -1.5705 0
M  V30 10550 H 989.861 3.42581 -2.15453 0
M  V30 10551 H 988.431 2.86391 -1.25295 0
M  V30 10552 H 987.651 1.8077 -3.50308 0
M  V30 10553 H 988.939 2.73874 -4.28801 0
M  V30 10554 H 988.337 5.18723 -2.25705 0
M  V30 10555 H 986.894 5.81299 -2.94847 0
M  V30 10556 N 990.327 1.50405 0.470755 0
M  V30 10557 C 991.743 1.37838 0.804534 0
M  V30 10558 C 991.943 0.434743 1.96754 0
M  V30 10559 O 990.999 -0.122507 2.52203 0
M  V30 10560 C 992.312 2.79212 1.11629 0
M  V30 10561 C 993.86 2.88129 1.22272 0
M  V30 10562 C 994.335 4.30337 1.5676 0
M  V30 10563 N 995.826 4.3329 1.63751 0
M  V30 10564 C 996.561 5.4032 1.91942 0
M  V30 10565 N 996.057 6.57558 2.18151 0
M  V30 10566 N 997.85 5.27764 1.93446 0
M  V30 10567 H 990.001 2.10332 -0.295689 0
M  V30 10568 H 992.264 0.945429 -0.0697733 0
M  V30 10569 H 991.97 3.50103 0.334778 0
M  V30 10570 H 991.844 3.16475 2.0524 0
M  V30 10571 H 994.231 2.17457 1.9949 0
M  V30 10572 H 994.312 2.54409 0.2664 0
M  V30 10573 H 993.956 5.01547 0.800817 0
M  V30 10574 H 993.886 4.61545 2.53543 0
M  V30 10575 H 996.377 3.48752 1.45535 0
M  V30 10576 H 996.69 7.34935 2.38936 0
M  V30 10577 H 995.035 6.60732 2.15542 0
M  V30 10578 H 998.226 4.35169 1.72468 0
M  V30 10579 H 998.399 6.11264 2.15081 0
M  V30 10580 N 991.805 -0.723954 1.39988 0
M  V30 10581 C 993.035 -1.51094 1.40905 0
M  V30 10582 C 993.443 -1.89199 0.00476744 0
M  V30 10583 O 992.786 -1.55398 -0.979646 0
M  V30 10584 C 992.848 -2.82114 2.22827 0
M  V30 10585 C 992.512 -2.66379 3.71337 0
M  V30 10586 C 993.509 -2.34192 4.64166 0
M  V30 10587 C 991.194 -2.82905 4.15054 0
M  V30 10588 C 993.188 -2.18729 5.98696 0
M  V30 10589 C 990.875 -2.67059 5.49657 0
M  V30 10590 C 991.873 -2.35018 6.41292 0
M  V30 10591 O 991.561 -2.19284 7.73414 0
M  V30 10592 H 991.293 -0.473142 0.482818 0
M  V30 10593 H 993.847 -0.901321 1.84568 0
M  V30 10594 H 992.077 -3.45377 1.7393 0
M  V30 10595 H 993.766 -3.43789 2.15787 0
M  V30 10596 H 994.532 -2.21065 4.31689 0
M  V30 10597 H 990.411 -3.06834 3.44055 0
M  V30 10598 H 993.955 -1.93641 6.70186 0
M  V30 10599 H 989.852 -2.79768 5.81722 0
M  V30 10600 H 990.62 -2.34269 7.84258 0
M  V30 10601 N 993.283 -1.25346 -0.955304 0
M  V30 10602 C 994.511 -1.12793 -1.73451 0
M  V30 10603 C 994.926 0.318344 -1.86097 0
M  V30 10604 O 994.283 1.21897 -1.35821 0
M  V30 10605 C 994.334 -1.77603 -3.14864 0
M  V30 10606 O 994.055 -3.16577 -3.02837 0
M  V30 10607 C 995.556 -1.70821 -4.09066 0
M  V30 10608 H 992.776 -0.393457 -0.543537 0
M  V30 10609 H 995.32 -1.65696 -1.19855 0
M  V30 10610 H 993.475 -1.28673 -3.65407 0
M  V30 10611 H 993.889 -3.48433 -3.92039 0
M  V30 10612 H 995.363 -2.2083 -5.05903 0
M  V30 10613 H 995.84 -0.671858 -4.34031 0
M  V30 10614 H 996.446 -2.19237 -3.64438 0
M  V30 10615 N 994.761 1.15782 -1.06922 0
M  V30 10616 C 995.724 2.18578 -0.689654 0
M  V30 10617 C 996.724 1.58553 0.267872 0
M  V30 10618 O 997.914 1.7413 0.0494097 0
M  V30 10619 C 995.046 3.40896 -0.0157919 0
M  V30 10620 H 996.239 2.53672 -1.59971 0
M  V30 10621 H 993.792 1.30168 -0.865214 0
M  V30 10622 H 994.527 3.11367 0.906712 0
M  V30 10623 H 994.312 3.85721 -0.704415 0
M  V30 10624 H 995.802 4.16937 0.235266 0
M  V30 10625 N 996.239 0.8527 1.3254 0
M  V30 10626 C 997.149 0.298744 2.3269 0
M  V30 10627 C 998.165 -0.582418 1.63963 0
M  V30 10628 O 999.341 -0.483253 1.95516 0
M  V30 10629 C 996.406 -0.505453 3.42996 0
M  V30 10630 C 995.467 0.401618 4.27417 0
M  V30 10631 C 994.7 -0.364294 5.32455 0
M  V30 10632 O 994.923 -1.59448 5.47661 0
M  V30 10633 O 993.857 0.268892 6.01299 0
M  V30 10634 H 997.683 1.12843 2.81958 0
M  V30 10635 H 995.268 0.615584 1.36128 0
M  V30 10636 H 997.15 -0.961974 4.10273 0
M  V30 10637 H 995.825 -1.31197 2.95921 0
M  V30 10638 H 994.732 0.906274 3.62957 0
M  V30 10639 H 996.065 1.17327 4.78012 0
M  V30 10640 N 997.718 -1.45297 0.610449 0
M  V30 10641 C 998.65 -2.28742 -0.144884 0
M  V30 10642 C 999.663 -1.40114 -0.828977 0
M  V30 10643 O 1000.85 -1.64461 -0.693887 0
M  V30 10644 C 997.952 -3.15934 -1.22632 0
M  V30 10645 C 997.125 -4.32857 -0.628785 0
M  V30 10646 C 996.184 -5.01237 -1.60148 0
M  V30 10647 O 995.21 -5.57938 -1.12667 0
M  V30 10648 N 996.412 -5.00785 -2.9359 0
M  V30 10649 H 999.177 -2.94207 0.571145 0
M  V30 10650 H 996.738 -1.55517 0.450134 0
M  V30 10651 H 998.73 -3.58545 -1.87691 0
M  V30 10652 H 997.3 -2.52358 -1.84483 0
M  V30 10653 H 996.52 -3.93693 0.199951 0
M  V30 10654 H 997.808 -5.08367 -0.209845 0
M  V30 10655 H 997.206 -4.56014 -3.34765 0
M  V30 10656 H 995.763 -5.4725 -3.54064 0
M  V30 10657 N 999.196 -0.349774 -1.5367 0
M  V30 10658 C 1000.44 0.245862 -2.00196 0
M  V30 10659 C 1000.76 1.51154 -1.24144 0
M  V30 10660 O 1001.96 2.18481 -1.61178 0
M  V30 10661 C 1000.42 0.488665 -3.56567 0
M  V30 10662 C 1000.03 -0.761475 -4.41481 0
M  V30 10663 C 1001.77 1.04282 -4.11492 0
M  V30 10664 C 999.679 -0.489128 -5.89374 0
M  V30 10665 H 998.609 0.0956493 -0.747909 0
M  V30 10666 H 1001.26 -0.466068 -1.77483 0
M  V30 10667 H 999.642 1.26145 -3.75371 0
M  V30 10668 H 1000.82 -1.53585 -4.34452 0
M  V30 10669 H 999.131 -1.23771 -3.9758 0
M  V30 10670 H 1001.73 1.26164 -5.19603 0
M  V30 10671 H 1002.07 2.00023 -3.65098 0
M  V30 10672 H 1002.6 0.330582 -3.96424 0
M  V30 10673 H 999.343 -1.41643 -6.40014 0
M  V30 10674 H 998.863 0.247039 -5.99291 0
M  V30 10675 H 1000.54 -0.1087 -6.46909 0
M  V30 10676 N 1000.67 1.57404 -0.0785433 0
M  V30 10677 C 1001.6 2.16131 0.883726 0
M  V30 10678 C 1002.58 1.09015 1.30575 0
M  V30 10679 O 1003.77 1.3708 1.37559 0
M  V30 10680 C 1000.9 2.72836 2.1489 0
M  V30 10681 C 999.854 3.85178 1.86605 0
M  V30 10682 C 999.18 4.28516 3.1981 0
M  V30 10683 C 1000.48 5.09118 1.16601 0
M  V30 10684 H 1002.17 2.9679 0.394484 0
M  V30 10685 H 999.72 1.42763 0.188304 0
M  V30 10686 H 1001.67 3.12567 2.8263 0
M  V30 10687 H 1000.4 1.89408 2.66068 0
M  V30 10688 H 999.056 3.45962 1.21268 0
M  V30 10689 H 998.704 3.42 3.68843 0
M  V30 10690 H 998.404 5.04249 3.01674 0
M  V30 10691 H 999.928 4.70868 3.88737 0
M  V30 10692 H 1001.34 5.46123 1.74422 0
M  V30 10693 H 999.739 5.90173 1.087 0
M  V30 10694 H 1000.81 4.8468 0.146138 0
M  V30 10695 N 1002.15 -0.195058 1.56388 0
M  V30 10696 C 1003.1 -1.24175 1.94549 0
M  V30 10697 C 1004.07 -1.45229 0.806089 0
M  V30 10698 O 1005.25 -1.58362 1.06425 0
M  V30 10699 C 1002.39 -2.58145 2.29031 0
M  V30 10700 C 1001.51 -2.44669 3.56035 0
M  V30 10701 C 1000.64 -3.71342 3.7984 0
M  V30 10702 C 999.681 -3.52699 5.0027 0
M  V30 10703 N 998.818 -4.71385 5.20328 0
M  V30 10704 H 1003.66 -0.909319 2.83788 0
M  V30 10705 H 1001.19 -0.437641 1.40439 0
M  V30 10706 H 1003.15 -3.36195 2.4704 0
M  V30 10707 H 1001.78 -2.8943 1.42933 0
M  V30 10708 H 1000.83 -1.57916 3.46073 0
M  V30 10709 H 1002.15 -2.26827 4.44242 0
M  V30 10710 H 1001.3 -4.57832 3.98088 0
M  V30 10711 H 1000.04 -3.92138 2.89964 0
M  V30 10712 H 999.045 -2.64594 4.81944 0
M  V30 10713 H 1000.27 -3.33349 5.91655 0
M  V30 10714 H 998.216 -4.92444 4.33399 0
M  V30 10715 H 998.133 -4.56368 6.02714 0
M  V30 10716 H 999.401 -5.59226 5.43035 0
M  V30 10717 N 1003.63 -1.50653 -0.462772 0
M  V30 10718 C 1004.58 -1.66509 -1.55752 0
M  V30 10719 C 1005.56 -0.519508 -1.52282 0
M  V30 10720 O 1006.76 -0.774296 -1.59166 0
M  V30 10721 C 1003.88 -1.77023 -2.94139 0
M  V30 10722 C 1002.97 -2.97284 -3.02461 0
M  V30 10723 N 1003.36 -4.20843 -2.80579 0
M  V30 10724 C 1001.66 -2.96014 -3.33604 0
M  V30 10725 C 1002.36 -5.01886 -2.94084 0
M  V30 10726 N 1001.34 -4.3601 -3.24648 0
M  V30 10727 H 1005.14 -2.59727 -1.37546 0
M  V30 10728 H 1002.65 -1.47951 -0.669653 0
M  V30 10729 H 1004.65 -1.86488 -3.72864 0
M  V30 10730 H 1003.31 -0.849688 -3.13385 0
M  V30 10731 H 1004.32 -4.50206 -2.55998 0
M  V30 10732 H 1001 -2.13493 -3.58786 0
M  V30 10733 H 1002.39 -6.10164 -2.81334 0
M  V30 10734 N 1005.11 0.71652 -1.4037 0
M  V30 10735 C 1006.33 1.51069 -1.42102 0
M  V30 10736 C 1006.76 1.88087 -0.0222387 0
M  V30 10737 O 1006.12 1.53204 0.969448 0
M  V30 10738 C 1006.16 2.76307 -2.31704 0
M  V30 10739 O 1005.27 3.72975 -1.75964 0
M  V30 10740 H 1004.61 0.455502 -0.483129 0
M  V30 10741 H 1007.14 0.882514 -1.84588 0
M  V30 10742 H 1007.15 3.24846 -2.46859 0
M  V30 10743 H 1005.82 2.48698 -3.3335 0
M  V30 10744 H 1004.4 3.31818 -1.70151 0
M  V30 10745 N 1006.59 1.25851 0.948643 0
M  V30 10746 C 1007.83 1.12127 1.69703 0
M  V30 10747 C 1008.19 -0.333318 1.89491 0
M  V30 10748 O 1007.48 -1.24181 1.4591 0
M  V30 10749 C 1007.67 1.81565 3.07846 0
M  V30 10750 C 1007.5 3.33626 3.01535 0
M  V30 10751 C 1006.27 4.02897 3.04962 0
M  V30 10752 C 1008.47 4.29934 2.82243 0
M  V30 10753 N 1006.45 5.41688 2.88872 0
M  V30 10754 C 1007.82 5.5585 2.74646 0
M  V30 10755 C 1009.88 4.20276 2.66969 0
M  V30 10756 C 1008.58 6.73212 2.53335 0
M  V30 10757 C 1010.61 5.37336 2.4703 0
M  V30 10758 C 1009.97 6.62196 2.40158 0
M  V30 10759 H 1006.07 0.465047 0.628693 0
M  V30 10760 H 1008.65 1.59035 1.12321 0
M  V30 10761 H 1006.82 1.37143 3.63382 0
M  V30 10762 H 1008.56 1.6053 3.715 0
M  V30 10763 H 1005.31 3.54201 3.14386 0
M  V30 10764 H 1005.74 6.14544 2.84015 0
M  V30 10765 H 1010.38 3.24485 2.71053 0
M  V30 10766 H 1008.1 7.69107 2.47993 0
M  V30 10767 H 1011.68 5.31728 2.36128 0
M  V30 10768 H 1010.56 7.51249 2.24933 0
M  V30 10769 N 1008.06 -1.15214 1.07534 0
M  V30 10770 C 1009.31 -1.85388 0.794617 0
M  V30 10771 C 1009.63 -1.83331 -0.681838 0
M  V30 10772 O 1010.83 -2.49207 -1.0774 0
M  V30 10773 C 1009.29 -3.32747 1.37141 0
M  V30 10774 C 1008.9 -3.43244 2.87902 0
M  V30 10775 C 1010.64 -4.08093 1.16879 0
M  V30 10776 C 1008.55 -4.84762 3.38763 0
M  V30 10777 H 1007.48 -0.694499 0.293577 0
M  V30 10778 H 1010.13 -1.29944 1.29564 0
M  V30 10779 H 1008.51 -3.87874 0.798121 0
M  V30 10780 H 1009.68 -2.98214 3.51291 0
M  V30 10781 H 1008 -2.81345 3.06975 0
M  V30 10782 H 1010.6 -5.12535 1.52353 0
M  V30 10783 H 1010.94 -4.1616 0.107958 0
M  V30 10784 H 1011.47 -3.59241 1.70854 0
M  V30 10785 H 1008.21 -4.81879 4.4438 0
M  V30 10786 H 1007.73 -5.30366 2.80128 0
M  V30 10787 H 1009.41 -5.53624 3.34827 0
M  V30 10788 N 1009.54 -0.859717 -1.32086 0
M  V30 10789 C 1010.77 -0.479724 -2.01262 0
M  V30 10790 C 1011.19 0.924985 -1.64589 0
M  V30 10791 O 1010.54 1.60439 -0.869803 0
M  V30 10792 C 1010.59 -0.615128 -3.56228 0
M  V30 10793 O 1010.31 -1.96451 -3.91585 0
M  V30 10794 C 1011.82 -0.234804 -4.42678 0
M  V30 10795 H 1009.04 -0.188007 -0.644123 0
M  V30 10796 H 1011.58 -1.15805 -1.68551 0
M  V30 10797 H 1009.73 0.0155268 -3.87397 0
M  V30 10798 H 1010.15 -1.96491 -4.86304 0
M  V30 10799 H 1011.62 -0.380534 -5.50687 0
M  V30 10800 H 1012.1 0.825189 -4.31378 0
M  V30 10801 H 1012.71 -0.840739 -4.16907 0
M  V30 10802 N 1011.02 1.44971 -0.618145 0
M  V30 10803 C 1011.97 2.27704 0.116119 0
M  V30 10804 C 1012.95 1.37927 0.828558 0
M  V30 10805 O 1014.15 1.61836 0.716806 0
M  V30 10806 C 1011.28 3.25004 1.10578 0
M  V30 10807 C 1010.36 4.22269 0.39364 0
M  V30 10808 N 1010.75 5.02571 -0.570581 0
M  V30 10809 C 1009.05 4.41387 0.639809 0
M  V30 10810 C 1009.75 5.73211 -0.990144 0
M  V30 10811 N 1008.73 5.42587 -0.331653 0
M  V30 10812 H 1012.53 2.87193 -0.624295 0
M  V30 10813 H 1010.04 1.56252 -0.442631 0
M  V30 10814 H 1012.04 3.83017 1.64631 0
M  V30 10815 H 1010.7 2.67075 1.84664 0
M  V30 10816 H 1011.71 5.09153 -0.947814 0
M  V30 10817 H 1008.39 3.94572 1.36453 0
M  V30 10818 H 1009.78 6.47728 -1.78601 0
M  V30 10819 N 1012.5 0.357919 1.53482 0
M  V30 10820 C 1013.91 0.00655107 1.59599 0
M  V30 10821 C 1014.11 -1.47449 1.37336 0
M  V30 10822 O 1013.17 -2.2351 1.17472 0
M  V30 10823 C 1014.48 0.455617 2.97228 0
M  V30 10824 C 1016.03 0.409183 3.10314 0
M  V30 10825 C 1016.51 0.833941 4.50344 0
M  V30 10826 N 1018 0.788695 4.56436 0
M  V30 10827 C 1018.73 1.08914 5.62961 0
M  V30 10828 N 1018.23 1.45847 6.77274 0
M  V30 10829 N 1020.02 1.01243 5.52907 0
M  V30 10830 H 1012.17 1.32248 1.66206 0
M  V30 10831 H 1014.44 0.540047 0.779136 0
M  V30 10832 H 1014.14 1.48881 3.18634 0
M  V30 10833 H 1014.02 -0.161751 3.76853 0
M  V30 10834 H 1016.4 -0.614863 2.88623 0
M  V30 10835 H 1016.48 1.06195 2.32715 0
M  V30 10836 H 1016.13 1.85607 4.72771 0
M  V30 10837 H 1016.06 0.158507 5.26361 0
M  V30 10838 H 1018.55 0.516497 3.74354 0
M  V30 10839 H 1018.86 1.67218 7.54492 0
M  V30 10840 H 1017.21 1.49705 6.78685 0
M  V30 10841 H 1020.4 0.723137 4.62481 0
M  V30 10842 H 1020.57 1.24991 6.35831 0
M  V30 10843 N 1013.98 -1.5736 0.0868897 0
M  V30 10844 C 1015.25 -1.85495 -0.620561 0
M  V30 10845 C 1015.63 -0.982218 -1.86857 0
M  V30 10846 O 1014.98 -0.0524529 -2.2844 0
M  V30 10847 C 1015.19 -3.35996 -0.943798 0
M  V30 10848 C 1016.54 -4.03861 -1.31079 0
M  V30 10849 O 1017.56 -3.4083 -1.03507 0
M  V30 10850 O 1016.42 -5.15062 -1.82683 0
M  V30 10851 H 1013.52 -0.766822 -0.309697 0
M  V30 10852 H 1016.06 -1.69282 0.118966 0
M  V30 10853 H 1014.83 -3.91257 -0.0580628 0
M  V30 10854 H 1014.46 -3.57525 -1.73958 0
M  V30 10855 N 1015.45 0.186762 -1.56489 0
M  V30 10856 C 1016.39 1.25565 -1.91745 0
M  V30 10857 C 1017.4 1.4128 -0.80894 0
M  V30 10858 O 1018.59 1.41558 -1.08737 0
M  V30 10859 C 1015.69 2.62662 -2.14154 0
M  V30 10860 C 1014.86 2.68448 -3.45333 0
M  V30 10861 C 1013.92 3.86798 -3.56754 0
M  V30 10862 O 1012.95 3.73514 -4.29507 0
M  V30 10863 N 1014.15 5.02607 -2.90459 0
M  V30 10864 H 1016.91 0.956351 -2.84032 0
M  V30 10865 H 1014.47 0.376631 -1.57458 0
M  V30 10866 H 1016.47 3.40277 -2.19075 0
M  V30 10867 H 1015.04 2.85046 -1.28326 0
M  V30 10868 H 1014.26 1.77044 -3.52206 0
M  V30 10869 H 1015.54 2.69311 -4.31682 0
M  V30 10870 H 1014.94 5.163 -2.31194 0
M  V30 10871 H 1013.5 5.78139 -3.00996 0
M  V30 10872 N 1016.93 1.50896 0.454776 0
M  V30 10873 C 1017.86 1.73885 1.5584 0
M  V30 10874 C 1018.84 0.588172 1.59607 0
M  V30 10875 O 1020.03 0.829054 1.75614 0
M  V30 10876 C 1017.16 1.84796 2.94054 0
M  V30 10877 C 1016.11 3.00111 3.05152 0
M  V30 10878 C 1015.44 2.96183 4.45174 0
M  V30 10879 C 1016.74 4.40365 2.80849 0
M  V30 10880 H 1018.43 2.66292 1.36854 0
M  V30 10881 H 1015.98 1.28142 0.656936 0
M  V30 10882 H 1017.93 1.99462 3.71204 0
M  V30 10883 H 1016.66 0.890235 3.14233 0
M  V30 10884 H 1015.31 2.85121 2.30438 0
M  V30 10885 H 1014.96 1.98224 4.62295 0
M  V30 10886 H 1014.66 3.73608 4.53532 0
M  V30 10887 H 1016.19 3.1292 5.24322 0
M  V30 10888 H 1017.6 4.55795 3.47741 0
M  V30 10889 H 1016 5.19363 3.00636 0
M  V30 10890 H 1017.07 4.51606 1.76579 0
M  V30 10891 N 1018.41 -0.709066 1.40748 0
M  V30 10892 C 1019.82 -1.28847 1.35112 0
M  V30 10893 C 1020.17 -1.9618 0.0277149 0
M  V30 10894 O 1019.3 -1.97955 -0.874233 0
M  V30 10895 C 1019.89 -2.34306 2.44716 0
M  V30 10896 C 1018.45 -2.87856 2.4252 0
M  V30 10897 C 1017.6 -1.61723 2.25257 0
M  V30 10898 H 1020.55 -0.504742 1.50459 0
M  V30 10899 H 1020.57 -3.15297 2.12998 0
M  V30 10900 H 1020.08 -1.85271 3.41022 0
M  V30 10901 H 1018.18 -3.41103 1.49931 0
M  V30 10902 H 1018.3 -3.39205 3.38344 0
M  V30 10903 H 1016.66 -1.87032 1.7289 0
M  V30 10904 H 1017.44 -1.14703 3.23571 0
M  V30 10905 N 1019.89 -1.26353 -0.941956 0
M  V30 10906 C 1020.84 -1.07654 -2.06188 0
M  V30 10907 C 1021.83 -0.00369741 -1.694 0
M  V30 10908 O 1023.04 -0.160316 -1.79285 0
M  V30 10909 H 1019.41 -0.331274 -0.675101 0
M  V30 10910 H 1021.38 -2.02566 -2.19111 0
M  V30 10911 C 1020.13 -0.725436 -3.40048 0
M  V30 10912 H 1019.46 -1.54283 -3.68832 0
M  V30 10913 H 1020.9 -0.634383 -4.19227 0
M  V30 10914 C 1019.35 0.569369 -3.32054 0
M  V30 10915 O 1019.88 1.60791 -3.68116 0
M  V30 10916 N 1018.09 0.559714 -2.85159 0
M  V30 10917 H 1017.64 -0.285817 -2.56009 0
M  V30 10918 H 1017.6 1.42617 -2.80193 0
M  V30 10919 N 1021.37 1.14642 -1.08144 0
M  V30 10920 C 1022.64 1.81774 -0.72232 0
M  V30 10921 C 1023.02 1.95587 0.794294 0
M  V30 10922 O 1022.37 1.51361 1.71178 0
M  V30 10923 C 1022.58 3.1763 -1.44611 0
M  V30 10924 C 1023.93 3.93161 -1.60343 0
M  V30 10925 O 1024.95 3.2721 -1.40755 0
M  V30 10926 O 1023.81 5.11422 -1.9264 0
M  V30 10927 H 1020.91 0.785733 -0.257978 0
M  V30 10928 H 1023.45 1.21683 -1.18285 0
M  V30 10929 H 1022.23 3.02723 -2.4794 0
M  V30 10930 H 1021.85 3.85412 -0.976892 0
M  V30 10931 N 1022.85 0.866709 1.31628 0
M  V30 10932 C 1023.78 0.277328 2.27516 0
M  V30 10933 C 1024.79 -0.557786 1.52946 0
M  V30 10934 O 1025.98 -0.38031 1.74402 0
M  V30 10935 C 1023.08 -0.625742 3.33073 0
M  V30 10936 C 1022.25 0.176204 4.37045 0
M  V30 10937 C 1021.31 -0.654497 5.22114 0
M  V30 10938 O 1020.34 -0.0836961 5.69138 0
M  V30 10939 N 1021.54 -1.96708 5.46156 0
M  V30 10940 H 1024.3 1.10133 2.78731 0
M  V30 10941 H 1021.87 0.72787 1.44616 0
M  V30 10942 H 1023.86 -1.18709 3.86898 0
M  V30 10943 H 1022.43 -1.35042 2.81926 0
M  V30 10944 H 1021.65 0.918999 3.83338 0
M  V30 10945 H 1022.94 0.726594 5.03585 0
M  V30 10946 H 1022.33 -2.454 5.09701 0
M  V30 10947 H 1020.89 -2.47629 6.02929 0
M  V30 10948 N 1024.32 -1.44642 0.625825 0
M  V30 10949 C 1025.73 -1.85502 0.211175 0
M  V30 10950 C 1026.09 -1.52356 -1.2362 0
M  V30 10951 O 1025.21 -0.959051 -1.93988 0
M  V30 10952 C 1025.81 -3.36702 0.37648 0
M  V30 10953 C 1024.36 -3.76396 0.0163795 0
M  V30 10954 C 1023.51 -2.68517 0.692368 0
M  V30 10955 H 1026.46 -1.35183 0.831333 0
M  V30 10956 H 1026.48 -3.78536 -0.386106 0
M  V30 10957 H 1026 -3.60795 1.42999 0
M  V30 10958 H 1024.1 -3.57919 -1.0356 0
M  V30 10959 H 1024.21 -4.77231 0.422742 0
M  V30 10960 H 1022.57 -2.54377 0.128191 0
M  V30 10961 H 1023.36 -2.95444 1.74837 0
M  V30 10962 N 1025.8 -0.366053 -1.5329 0
M  V30 10963 C 1026.75 0.480205 -2.25749 0
M  V30 10964 C 1027.72 1.07713 -1.2644 0
M  V30 10965 O 1028.9 1.10953 -1.55222 0
M  V30 10966 C 1026.04 1.61374 -3.05045 0
M  V30 10967 C 1025.16 1.04194 -4.19246 0
M  V30 10968 C 1024.29 2.14462 -4.85983 0
M  V30 10969 C 1023.33 1.5475 -5.92215 0
M  V30 10970 N 1022.47 2.58852 -6.52641 0
M  V30 10971 H 1027.31 -0.144199 -2.97651 0
M  V30 10972 H 1024.84 -0.0829321 -1.46866 0
M  V30 10973 H 1026.8 2.28144 -3.49294 0
M  V30 10974 H 1025.43 2.2088 -2.35397 0
M  V30 10975 H 1024.48 0.264514 -3.79479 0
M  V30 10976 H 1025.8 0.565379 -4.95585 0
M  V30 10977 H 1024.95 2.89051 -5.33418 0
M  V30 10978 H 1023.69 2.6547 -4.09117 0
M  V30 10979 H 1022.69 0.786759 -5.44142 0
M  V30 10980 H 1023.92 1.04566 -6.71001 0
M  V30 10981 H 1021.87 3.09073 -5.78627 0
M  V30 10982 H 1021.78 2.15884 -7.24521 0
M  V30 10983 H 1023.05 3.33142 -7.04724 0
M  V30 10984 N 1027.28 1.57312 -0.0952337 0
M  V30 10985 C 1028.7 1.57445 0.261416 0
M  V30 10986 C 1028.9 1.10639 1.68408 0
M  V30 10987 O 1027.95 0.782912 2.40056 0
M  V30 10988 C 1029.26 3.00659 0.0497206 0
M  V30 10989 C 1030.81 3.1278 0.117459 0
M  V30 10990 C 1031.29 4.57952 -0.0662441 0
M  V30 10991 N 1032.78 4.63199 -0.0114146 0
M  V30 10992 C 1033.51 5.73255 -0.128799 0
M  V30 10993 N 1033.01 6.92146 -0.301026 0
M  V30 10994 N 1034.8 5.62056 -0.0700599 0
M  V30 10995 H 1026.95 1.86045 -1.02475 0
M  V30 10996 H 1029.22 0.858726 -0.401614 0
M  V30 10997 H 1028.92 3.39102 -0.932888 0
M  V30 10998 H 1028.8 3.68792 0.791975 0
M  V30 10999 H 1031.18 2.74209 1.09057 0
M  V30 11000 H 1031.26 2.47238 -0.656288 0
M  V30 11001 H 1030.91 4.97217 -1.03623 0
M  V30 11002 H 1030.84 5.21555 0.727198 0
M  V30 11003 H 1033.33 3.77712 0.119154 0
M  V30 11004 H 1033.64 7.71855 -0.382104 0
M  V30 11005 H 1031.99 6.94184 -0.336695 0
M  V30 11006 H 1035.18 4.68057 0.0633587 0
M  V30 11007 H 1035.35 6.4779 -0.164991 0
M  V30 11008 N 1028.76 -0.17846 1.56586 0
M  V30 11009 C 1029.71 -1.24042 1.96765 0
M  V30 11010 C 1030.7 -1.46218 0.855375 0
M  V30 11011 O 1031.91 -1.46882 1.04046 0
M  V30 11012 H 1028.28 -0.416807 0.62592 0
M  V30 11013 H 1030.25 -0.874644 2.85294 0
M  V30 11014 C 1029 -2.57394 2.3376 0
M  V30 11015 H 1028.32 -2.41151 3.18883 0
M  V30 11016 H 1029.76 -3.30405 2.65723 0
M  V30 11017 C 1028.22 -3.15621 1.17835 0
M  V30 11018 O 1028.75 -3.99032 0.462202 0
M  V30 11019 N 1026.96 -2.74606 0.950783 0
M  V30 11020 H 1026.51 -2.06878 1.5349 0
M  V30 11021 H 1026.46 -3.13902 0.176967 0
M  V30 11022 N 1030.24 -1.51135 -0.446768 0
M  V30 11023 C 1031.51 -1.5387 -1.20762 0
M  V30 11024 C 1031.89 -0.297446 -2.08994 0
M  V30 11025 O 1031.24 0.717975 -2.16927 0
M  V30 11026 C 1031.45 -2.84767 -2.01764 0
M  V30 11027 C 1032.8 -3.3636 -2.59128 0
M  V30 11028 O 1033.82 -2.86254 -2.11984 0
M  V30 11029 O 1032.68 -4.23765 -3.45088 0
M  V30 11030 H 1029.78 -0.618228 -0.549293 0
M  V30 11031 H 1032.32 -1.63442 -0.456605 0
M  V30 11032 H 1031.09 -3.6657 -1.36901 0
M  V30 11033 H 1030.72 -2.78313 -2.8395 0
M  V30 11034 N 1031.71 0.701592 -1.41122 0
M  V30 11035 C 1032.96 1.46376 -1.40363 0
M  V30 11036 C 1033.29 1.94197 -0.0105442 0
M  V30 11037 O 1032.57 1.69121 0.960637 0
M  V30 11038 C 1032.85 2.67994 -2.40523 0
M  V30 11039 C 1032.7 2.25977 -3.88914 0
M  V30 11040 C 1034.02 3.70181 -2.38022 0
M  V30 11041 H 1031.14 0.530929 -0.511159 0
M  V30 11042 H 1033.78 0.799588 -1.72356 0
M  V30 11043 H 1031.93 3.24661 -2.13372 0
M  V30 11044 H 1033.61 1.74684 -4.26946 0
M  V30 11045 H 1031.85 1.57826 -4.04071 0
M  V30 11046 H 1032.52 3.13215 -4.54533 0
M  V30 11047 H 1035 3.23174 -2.62103 0
M  V30 11048 H 1033.87 4.52894 -3.10127 0
M  V30 11049 H 1034.13 4.19458 -1.3967 0
M  V30 11050 N 1033.19 1.2685 0.935242 0
M  V30 11051 C 1034.42 1.15645 1.72165 0
M  V30 11052 C 1034.84 -0.283909 1.85945 0
M  V30 11053 O 1034.2 -1.20567 1.354 0
M  V30 11054 C 1034.25 1.83689 3.10307 0
M  V30 11055 O 1033.35 1.12972 3.96625 0
M  V30 11056 H 1032.69 0.402629 0.528002 0
M  V30 11057 H 1035.22 1.67781 1.17093 0
M  V30 11058 H 1035.23 1.90749 3.60664 0
M  V30 11059 H 1033.91 2.88472 2.99595 0
M  V30 11060 H 1032.48 1.13929 3.5507 0
M  V30 11061 N 1034.67 -1.14067 1.0875 0
M  V30 11062 C 1035.62 -2.17302 0.690195 0
M  V30 11063 C 1036.6 -1.58229 -0.291948 0
M  V30 11064 O 1037.8 -1.76698 -0.103411 0
M  V30 11065 C 1034.93 -3.4314 0.104835 0
M  V30 11066 C 1034.01 -4.09235 1.11298 0
M  V30 11067 N 1034.4 -4.50601 2.29765 0
M  V30 11068 C 1032.7 -4.35775 0.949535 0
M  V30 11069 C 1033.4 -5.02029 2.93839 0
M  V30 11070 N 1032.38 -4.96457 2.21431 0
M  V30 11071 H 1036.18 -2.47031 1.59226 0
M  V30 11072 H 1033.69 -1.30788 0.962722 0
M  V30 11073 H 1035.69 -4.16431 -0.197777 0
M  V30 11074 H 1034.35 -3.14888 -0.792172 0
M  V30 11075 H 1035.36 -4.43529 2.67399 0
M  V30 11076 H 1032.04 -4.17364 0.106627 0
M  V30 11077 H 1033.43 -5.43885 3.94511 0
M  V30 11078 N 1036.15 -0.873678 -1.31166 0
M  V30 11079 C 1037.39 -0.487178 -1.96861 0
M  V30 11080 C 1037.73 0.95887 -1.68877 0
M  V30 11081 O 1037 1.6758 -0.987279 0
M  V30 11082 C 1037.29 -0.74925 -3.52219 0
M  V30 11083 C 1037.14 -2.2451 -3.89763 0
M  V30 11084 C 1038.46 -0.218194 -4.39559 0
M  V30 11085 H 1035.58 -0.178477 -0.715063 0
M  V30 11086 H 1038.22 -1.0956 -1.55231 0
M  V30 11087 H 1036.37 -0.231403 -3.8781 0
M  V30 11088 H 1038.04 -2.83049 -3.64254 0
M  V30 11089 H 1036.28 -2.71621 -3.38237 0
M  V30 11090 H 1036.95 -2.37911 -4.98099 0
M  V30 11091 H 1039.43 -0.661274 -4.10812 0
M  V30 11092 H 1038.31 -0.430983 -5.47205 0
M  V30 11093 H 1038.57 0.880056 -4.33252 0
M  V30 11094 N 1037.63 1.44308 -0.633487 0
M  V30 11095 C 1038.87 2.02322 -0.139123 0
M  V30 11096 C 1039.21 1.49733 1.23667 0
M  V30 11097 O 1038.48 0.682353 1.82138 0
M  V30 11098 C 1038.76 3.59871 -0.128366 0
M  V30 11099 C 1038.62 4.22737 -1.53667 0
M  V30 11100 C 1039.94 4.36702 0.545834 0
M  V30 11101 H 1037.05 0.735161 -0.0520293 0
M  V30 11102 H 1039.7 1.7185 -0.810411 0
M  V30 11103 H 1037.85 3.85963 0.443263 0
M  V30 11104 H 1039.52 4.07744 -2.15737 0
M  V30 11105 H 1037.76 3.80142 -2.08985 0
M  V30 11106 H 1038.43 5.31757 -1.48116 0
M  V30 11107 H 1040.91 4.16057 0.0596879 0
M  V30 11108 H 1039.78 5.46407 0.522557 0
M  V30 11109 H 1040.05 4.11483 1.6166 0
M  V30 11110 N 1039.1 0.374177 1.53094 0
M  V30 11111 C 1040.05 -0.468226 2.26001 0
M  V30 11112 C 1041.02 -1.07041 1.27009 0
M  V30 11113 O 1042.21 -1.10129 1.55809 0
M  V30 11114 C 1039.35 -1.59754 3.05896 0
M  V30 11115 C 1038.46 -1.01969 4.19793 0
M  V30 11116 C 1037.59 -2.11882 4.87113 0
M  V30 11117 C 1036.63 -1.51607 5.93028 0
M  V30 11118 N 1035.77 -2.55388 6.54004 0
M  V30 11119 H 1040.61 0.159983 2.9757 0
M  V30 11120 H 1038.15 0.0907196 1.4682 0
M  V30 11121 H 1040.11 -2.26288 3.50499 0
M  V30 11122 H 1038.74 -2.19628 2.36565 0
M  V30 11123 H 1037.79 -0.244386 3.79614 0
M  V30 11124 H 1039.1 -0.539089 4.95878 0
M  V30 11125 H 1038.25 -2.86218 5.34943 0
M  V30 11126 H 1036.99 -2.63297 4.10519 0
M  V30 11127 H 1036 -0.757891 5.44551 0
M  V30 11128 H 1037.22 -1.01006 6.71546 0
M  V30 11129 H 1035.17 -3.06 5.80258 0
M  V30 11130 H 1035.09 -2.12039 7.25655 0
M  V30 11131 H 1036.35 -3.294 7.06481 0
M  V30 11132 N 1040.58 -1.57259 0.103575 0
M  V30 11133 C 1041.83 -1.94272 -0.557024 0
M  V30 11134 C 1042.15 -0.986739 -1.68192 0
M  V30 11135 O 1041.42 -0.0402818 -1.95859 0
M  V30 11136 H 1040 -0.717237 -0.208757 0
M  V30 11137 H 1042.66 -1.94167 0.168898 0
M  V30 11138 H 1041.76 -2.96914 -0.961691 0
M  V30 11139 N 1042.06 0.170153 -1.56679 0
M  V30 11140 C 1043.02 1.19443 -1.95617 0
M  V30 11141 C 1044.02 1.37118 -0.83996 0
M  V30 11142 O 1045.21 1.34504 -1.10699 0
M  V30 11143 C 1042.35 2.55926 -2.25199 0
M  V30 11144 H 1043.54 0.86095 -2.87276 0
M  V30 11145 H 1041.09 0.412646 -1.50755 0
M  V30 11146 H 1041.83 2.94286 -1.36257 0
M  V30 11147 H 1041.61 2.44464 -3.06562 0
M  V30 11148 H 1043.1 3.29742 -2.56242 0
M  V30 11149 N 1043.54 1.5137 0.438746 0
M  V30 11150 C 1044.47 1.67264 1.55236 0
M  V30 11151 C 1045.45 0.520238 1.54053 0
M  V30 11152 O 1046.63 0.743897 1.73201 0
M  V30 11153 C 1043.76 1.68492 2.93816 0
M  V30 11154 C 1042.81 2.8968 3.1303 0
M  V30 11155 S 1043.64 4.50514 2.89478 0
M  V30 11156 C 1044.8 4.54485 4.30342 0
M  V30 11157 H 1045.03 2.61456 1.4152 0
M  V30 11158 H 1042.56 1.41036 0.628341 0
M  V30 11159 H 1044.52 1.69884 3.73697 0
M  V30 11160 H 1043.18 0.754787 3.04896 0
M  V30 11161 H 1042.37 2.86936 4.14347 0
M  V30 11162 H 1041.98 2.86022 2.40972 0
M  V30 11163 H 1044.27 4.30039 5.2352 0
M  V30 11164 H 1045.21 5.56288 4.3812 0
M  V30 11165 H 1045.62 3.83824 4.13931 0
M  V30 11166 N 1045.02 -0.694098 1.41492 0
M  V30 11167 C 1046.26 -1.4563 1.41137 0
M  V30 11168 C 1046.6 -1.94189 0.0208428 0
M  V30 11169 O 1045.87 -1.69628 -0.951655 0
M  V30 11170 C 1046.15 -2.66714 2.41941 0
M  V30 11171 C 1046.01 -2.23912 3.90107 0
M  V30 11172 C 1047.33 -3.68913 2.39981 0
M  V30 11173 H 1044.44 -0.52821 0.513968 0
M  V30 11174 H 1047.09 -0.790437 1.72778 0
M  V30 11175 H 1045.24 -3.23525 2.1509 0
M  V30 11176 H 1046.91 -1.72417 4.27867 0
M  V30 11177 H 1045.15 -1.5568 4.04903 0
M  V30 11178 H 1045.82 -3.108 4.56188 0
M  V30 11179 H 1048.3 -3.21779 2.63813 0
M  V30 11180 H 1047.17 -4.51242 3.12524 0
M  V30 11181 H 1047.44 -4.18711 1.41892 0
M  V30 11182 N 1046.49 -1.27344 -0.928501 0
M  V30 11183 C 1047.46 -1.10043 -2.01055 0
M  V30 11184 C 1048.46 -0.0446793 -1.60738 0
M  V30 11185 O 1049.65 -0.289202 -1.71783 0
M  V30 11186 C 1046.78 -0.676559 -3.34119 0
M  V30 11187 H 1047.97 -2.06126 -2.17835 0
M  V30 11188 H 1045.53 -1.10121 -1.10919 0
M  V30 11189 H 1046.26 0.285697 -3.23039 0
M  V30 11190 H 1046.05 -1.43903 -3.64739 0
M  V30 11191 H 1047.54 -0.577725 -4.13584 0
M  V30 11192 N 1047.97 1.13488 -1.09353 0
M  V30 11193 C 1049.2 1.88592 -0.850915 0
M  V30 11194 C 1049.62 1.79087 0.597761 0
M  V30 11195 O 1048.97 1.15695 1.41142 0
M  V30 11196 C 1049.02 3.38219 -1.27633 0
M  V30 11197 O 1048.74 3.47476 -2.66819 0
M  V30 11198 C 1050.25 4.30293 -1.06598 0
M  V30 11199 H 1047.47 0.597069 -0.306185 0
M  V30 11200 H 1050.01 1.43668 -1.45533 0
M  V30 11201 H 1048.16 3.80729 -0.715828 0
M  V30 11202 H 1048.58 4.40485 -2.84733 0
M  V30 11203 H 1050.05 5.33611 -1.41293 0
M  V30 11204 H 1050.53 4.392 -0.0037135 0
M  V30 11205 H 1051.14 3.9355 -1.6124 0
M  V30 11206 N 1049.45 0.880621 1.30701 0
M  V30 11207 C 1050.68 0.51094 2.00182 0
M  V30 11208 C 1051.09 -0.903914 1.66211 0
M  V30 11209 O 1050.43 -1.60529 0.893089 0
M  V30 11210 C 1050.49 0.600775 3.54445 0
M  V30 11211 C 1050.16 1.97915 4.1192 0
M  V30 11212 C 1051.16 2.94802 4.28238 0
M  V30 11213 C 1048.84 2.28336 4.47401 0
M  V30 11214 C 1050.83 4.20245 4.79242 0
M  V30 11215 C 1048.52 3.54026 4.98105 0
M  V30 11216 C 1049.52 4.49796 5.13978 0
M  V30 11217 O 1049.21 5.73256 5.63589 0
M  V30 11218 H 1048.94 0.196477 0.646818 0
M  V30 11219 H 1051.49 1.18659 1.67658 0
M  V30 11220 H 1049.72 -0.131832 3.86475 0
M  V30 11221 H 1051.41 0.242996 4.05172 0
M  V30 11222 H 1052.18 2.7261 4.01134 0
M  V30 11223 H 1048.06 1.54564 4.34317 0
M  V30 11224 H 1051.6 4.95003 4.91546 0
M  V30 11225 H 1047.5 3.76057 5.24644 0
M  V30 11226 H 1048.27 5.75577 5.81939 0
M  V30 11227 N 1050.93 -1.4397 0.641131 0
M  V30 11228 C 1052.15 -2.06818 0.155318 0
M  V30 11229 C 1052.58 -1.47665 -1.16519 0
M  V30 11230 O 1051.94 -0.58192 -1.71707 0
M  V30 11231 C 1051.99 -3.60542 0.0647537 0
M  V30 11232 O 1051.09 -4.00674 -0.976447 0
M  V30 11233 H 1050.43 -0.657962 0.0893404 0
M  V30 11234 H 1052.96 -1.84678 0.88064 0
M  V30 11235 H 1052.97 -4.07816 -0.122552 0
M  V30 11236 H 1051.65 -4.02975 1.02878 0
M  V30 11237 H 1050.22 -3.65013 -0.762905 0
M  V30 11238 N 1052.41 -0.382291 -1.52893 0
M  V30 11239 C 1053.37 0.44408 -2.24857 0
M  V30 11240 C 1054.37 0.996004 -1.26239 0
M  V30 11241 O 1055.56 0.879114 -1.5039 0
M  V30 11242 C 1052.69 1.62234 -2.99822 0
M  V30 11243 H 1053.89 -0.185862 -2.99324 0
M  V30 11244 H 1051.44 -0.134275 -1.55722 0
M  V30 11245 H 1052.17 2.28991 -2.29638 0
M  V30 11246 H 1051.96 1.23336 -3.72197 0
M  V30 11247 H 1053.45 2.20756 -3.54481 0
M  V30 11248 N 1053.89 1.57202 -0.111913 0
M  V30 11249 C 1054.82 2.17957 0.837683 0
M  V30 11250 C 1055.8 1.1176 1.28233 0
M  V30 11251 O 1056.98 1.39967 1.34621 0
M  V30 11252 C 1054.11 2.77333 2.09054 0
M  V30 11253 C 1053.07 3.8905 1.78393 0
M  V30 11254 C 1052.39 4.35203 3.10649 0
M  V30 11255 C 1053.69 5.11477 1.05775 0
M  V30 11256 H 1055.39 2.9756 0.331441 0
M  V30 11257 H 1052.93 1.43131 0.157979 0
M  V30 11258 H 1054.88 3.18492 2.75936 0
M  V30 11259 H 1053.61 1.95009 2.6199 0
M  V30 11260 H 1052.27 3.48456 1.13903 0
M  V30 11261 H 1051.92 3.49747 3.61506 0
M  V30 11262 H 1051.62 5.10534 2.9091 0
M  V30 11263 H 1053.14 4.79007 3.78661 0
M  V30 11264 H 1054.55 5.497 1.62798 0
M  V30 11265 H 1052.95 5.92346 0.961573 0
M  V30 11266 H 1054.02 4.84881 0.043297 0
M  V30 11267 N 1055.36 -0.161842 1.56767 0
M  V30 11268 C 1056.59 -0.892247 1.86672 0
M  V30 11269 C 1057.01 -1.75407 0.69841 0
M  V30 11270 O 1056.36 -1.7945 -0.332251 0
M  V30 11271 C 1056.41 -1.7612 3.15696 0
M  V30 11272 O 1056.14 -0.934131 4.28025 0
M  V30 11273 C 1057.64 -2.60046 3.59014 0
M  V30 11274 H 1054.86 -0.258747 0.619105 0
M  V30 11275 H 1057.4 -0.159089 2.0388 0
M  V30 11276 H 1055.56 -2.44759 3.00286 0
M  V30 11277 H 1055.97 -1.52931 5.01709 0
M  V30 11278 H 1057.44 -3.16618 4.5217 0
M  V30 11279 H 1057.92 -3.35374 2.83586 0
M  V30 11280 H 1058.53 -1.96724 3.77067 0
M  V30 11281 N 1056.84 -1.516 -0.430713 0
M  V30 11282 C 1057.79 -1.69776 -1.52185 0
M  V30 11283 C 1058.78 -0.551692 -1.51146 0
M  V30 11284 O 1059.97 -0.807883 -1.57487 0
M  V30 11285 C 1057.1 -1.83222 -2.90318 0
M  V30 11286 C 1056.18 -3.03633 -2.96087 0
M  V30 11287 N 1056.57 -4.267 -2.71589 0
M  V30 11288 C 1054.87 -3.03024 -3.2725 0
M  V30 11289 C 1055.57 -5.08011 -2.83372 0
M  V30 11290 N 1054.55 -4.42798 -3.15327 0
M  V30 11291 H 1058.35 -2.62586 -1.32006 0
M  V30 11292 H 1055.86 -1.49338 -0.63812 0
M  V30 11293 H 1057.86 -1.94355 -3.68825 0
M  V30 11294 H 1056.52 -0.915971 -3.11513 0
M  V30 11295 H 1057.53 -4.55535 -2.46391 0
M  V30 11296 H 1054.21 -2.21055 -3.54176 0
M  V30 11297 H 1055.6 -6.15995 -2.68329 0
M  V30 11298 N 1058.32 0.686584 -1.41858 0
M  V30 11299 C 1059.27 1.80038 -1.44413 0
M  V30 11300 C 1060.24 1.63415 -0.297427 0
M  V30 11301 O 1061.42 1.84138 -0.499789 0
M  V30 11302 C 1058.56 3.17988 -1.34082 0
M  V30 11303 C 1057.67 3.45979 -2.58693 0
M  V30 11304 C 1056.81 4.73592 -2.4059 0
M  V30 11305 C 1055.85 4.94581 -3.60633 0
M  V30 11306 N 1054.99 6.13426 -3.41545 0
M  V30 11307 H 1059.83 1.77189 -2.396 0
M  V30 11308 H 1057.36 0.865158 -1.18968 0
M  V30 11309 H 1059.32 3.97689 -1.26092 0
M  V30 11310 H 1057.95 3.1999 -0.424975 0
M  V30 11311 H 1057 2.60617 -2.77097 0
M  V30 11312 H 1058.31 3.57386 -3.47961 0
M  V30 11313 H 1057.47 5.61364 -2.30119 0
M  V30 11314 H 1056.21 4.64448 -1.48794 0
M  V30 11315 H 1055.21 4.05254 -3.71549 0
M  V30 11316 H 1056.44 5.05578 -4.53395 0
M  V30 11317 H 1054.38 6.05477 -2.52456 0
M  V30 11318 H 1054.3 6.25641 -4.24393 0
M  V30 11319 H 1055.57 7.03908 -3.34864 0
M  V30 11320 N 1059.8 1.27835 0.921735 0
M  V30 11321 C 1061.03 1.17352 1.704 0
M  V30 11322 C 1061.44 -0.268892 1.86875 0
M  V30 11323 O 1060.8 -1.18253 1.39005 0
M  V30 11324 C 1060.85 1.85889 3.10045 0
M  V30 11325 O 1060.57 3.24495 2.94338 0
M  V30 11326 C 1062.07 1.81607 4.04393 0
M  V30 11327 H 1059.29 0.40773 0.532914 0
M  V30 11328 H 1061.83 1.68815 1.15419 0
M  V30 11329 H 1059.99 1.38316 3.61867 0
M  V30 11330 H 1060.4 3.58705 3.82663 0
M  V30 11331 H 1061.88 2.34165 4.99871 0
M  V30 11332 H 1062.35 0.786697 4.32097 0
M  V30 11333 H 1062.96 2.28822 3.58498 0
M  V30 11334 N 1061.28 -1.12907 1.09954 0
M  V30 11335 C 1062.52 -1.84306 0.838912 0
M  V30 11336 C 1062.85 -1.83825 -0.635508 0
M  V30 11337 O 1062.11 -1.27556 -1.48418 0
M  V30 11338 C 1062.4 -3.31885 1.32616 0
M  V30 11339 C 1062.07 -3.52542 2.81114 0
M  V30 11340 C 1060.73 -3.57888 3.21667 0
M  V30 11341 C 1063.08 -3.60065 3.76833 0
M  V30 11342 C 1060.41 -3.68296 4.567 0
M  V30 11343 C 1062.76 -3.72001 5.11662 0
M  V30 11344 C 1061.43 -3.75602 5.51797 0
M  V30 11345 H 1060.7 -0.674422 0.30698 0
M  V30 11346 H 1063.35 -1.33261 1.37527 0
M  V30 11347 H 1061.65 -3.85318 0.709719 0
M  V30 11348 H 1063.35 -3.85588 1.10105 0
M  V30 11349 H 1059.94 -3.4904 2.48735 0
M  V30 11350 H 1064.12 -3.55209 3.46612 0
M  V30 11351 H 1059.38 -3.69352 4.87226 0
M  V30 11352 H 1063.55 -3.76765 5.8568 0
M  V30 11353 H 1061.18 -3.83419 6.56425 0
M  V30 11354 N 1062.75 -0.88754 -1.30232 0
M  V30 11355 C 1063.69 -0.313488 -2.27046 0
M  V30 11356 C 1064.7 0.533383 -1.53814 0
M  V30 11357 O 1065.89 0.352516 -1.74984 0
M  V30 11358 C 1062.99 0.572674 -3.34026 0
M  V30 11359 C 1062.16 -0.245712 -4.36709 0
M  V30 11360 C 1061.22 0.57135 -5.23089 0
M  V30 11361 O 1060.25 -0.00685948 -5.692 0
M  V30 11362 N 1061.45 1.87994 -5.49216 0
M  V30 11363 H 1064.21 -1.14553 -2.76943 0
M  V30 11364 H 1061.77 -0.750785 -1.43439 0
M  V30 11365 H 1063.77 1.12539 -3.88738 0
M  V30 11366 H 1062.34 1.3054 -2.84039 0
M  V30 11367 H 1061.56 -0.979869 -3.81827 0
M  V30 11368 H 1062.84 -0.806618 -5.02366 0
M  V30 11369 H 1062.24 2.3726 -5.13541 0
M  V30 11370 H 1060.8 2.38005 -6.06792 0
M  V30 11371 N 1064.23 1.43628 -0.648757 0
M  V30 11372 C 1065.64 1.85142 -0.24066 0
M  V30 11373 C 1065.99 1.54304 1.21181 0
M  V30 11374 O 1065.12 0.989792 1.92437 0
M  V30 11375 C 1065.71 3.3606 -0.429999 0
M  V30 11376 C 1064.27 3.76323 -0.0762588 0
M  V30 11377 C 1063.42 2.67382 -0.734999 0
M  V30 11378 H 1066.37 1.33844 -0.852734 0
M  V30 11379 H 1066.39 3.79102 0.325836 0
M  V30 11380 H 1065.9 3.58474 -1.48721 0
M  V30 11381 H 1064.01 3.59521 0.978529 0
M  V30 11382 H 1064.12 4.76498 -0.498612 0
M  V30 11383 H 1062.48 2.54141 -0.168644 0
M  V30 11384 H 1063.27 2.92625 -1.79515 0
M  V30 11385 N 1065.71 0.390394 1.52688 0
M  V30 11386 C 1066.96 -0.191729 2.01892 0
M  V30 11387 C 1067.29 -1.4637 1.27631 0
M  V30 11388 O 1066.56 -1.90809 0.377094 0
M  V30 11389 C 1066.85 -0.458535 3.57169 0
M  V30 11390 C 1066.7 0.828796 4.42098 0
M  V30 11391 C 1068.02 -1.2487 4.22014 0
M  V30 11392 H 1065.14 -0.0682091 0.733837 0
M  V30 11393 H 1067.78 0.520176 1.82741 0
M  V30 11394 H 1065.93 -1.06498 3.73618 0
M  V30 11395 H 1067.6 1.46562 4.37398 0
M  V30 11396 H 1065.85 1.44388 4.09066 0
M  V30 11397 H 1066.52 0.596746 5.48765 0
M  V30 11398 H 1068.99 -0.735452 4.09549 0
M  V30 11399 H 1067.87 -1.40412 5.30637 0
M  V30 11400 H 1068.13 -2.2642 3.79719 0
M  V30 11401 N 1067.19 -1.57141 0.120249 0
M  V30 11402 C 1068.12 -2.18398 -0.826112 0
M  V30 11403 C 1069.1 -1.12439 -1.27638 0
M  V30 11404 O 1070.28 -1.40679 -1.33877 0
M  V30 11405 C 1067.41 -2.78438 -2.0758 0
M  V30 11406 C 1066.37 -3.89991 -1.76327 0
M  V30 11407 C 1065.69 -4.36844 -3.08336 0
M  V30 11408 C 1066.99 -5.12031 -1.03062 0
M  V30 11409 H 1068.69 -2.97731 -0.315656 0
M  V30 11410 H 1066.23 -1.43213 -0.150387 0
M  V30 11411 H 1068.19 -3.19951 -2.74243 0
M  V30 11412 H 1066.91 -1.96396 -2.60953 0
M  V30 11413 H 1065.57 -3.49055 -1.12053 0
M  V30 11414 H 1065.22 -3.51659 -3.59646 0
M  V30 11415 H 1064.92 -5.1207 -2.88199 0
M  V30 11416 H 1066.44 -4.81009 -3.76116 0
M  V30 11417 H 1067.86 -5.50555 -1.59881 0
M  V30 11418 H 1066.25 -5.92848 -0.930146 0
M  V30 11419 H 1067.32 -4.84897 -0.017582 0
M  V30 11420 N 1068.67 0.153526 -1.5685 0
M  V30 11421 C 1069.58 1.20932 -2.01029 0
M  V30 11422 C 1070.59 1.47401 -0.924598 0
M  V30 11423 O 1071.77 1.592 -1.23359 0
M  V30 11424 C 1068.83 2.52438 -2.37647 0
M  V30 11425 C 1067.89 2.33673 -3.60132 0
M  V30 11426 C 1067.13 3.58909 -3.94994 0
M  V30 11427 O 1067.35 4.64823 -3.30599 0
M  V30 11428 O 1066.28 3.5196 -4.8827 0
M  V30 11429 H 1070.11 0.864273 -2.91143 0
M  V30 11430 H 1067.7 0.361755 -1.44954 0
M  V30 11431 H 1069.58 3.29981 -2.62088 0
M  V30 11432 H 1068.25 2.86486 -1.5069 0
M  V30 11433 H 1067.16 1.54102 -3.40886 0
M  V30 11434 H 1068.49 2.04544 -4.47686 0
M  V30 11435 N 1070.14 1.51827 0.422667 0
M  V30 11436 C 1071.56 1.57533 1.00201 0
M  V30 11437 C 1071.91 0.407623 1.91919 0
M  V30 11438 O 1071.03 -0.473763 2.1115 0
M  V30 11439 C 1071.63 2.85508 1.82403 0
M  V30 11440 C 1070.19 2.93737 2.35362 0
M  V30 11441 C 1069.33 2.52343 1.14971 0
M  V30 11442 H 1072.28 1.57391 0.20339 0
M  V30 11443 H 1072.3 2.70097 2.68007 0
M  V30 11444 H 1071.82 3.70477 1.15623 0
M  V30 11445 H 1069.92 2.13231 3.05554 0
M  V30 11446 H 1070.03 3.977 2.67155 0
M  V30 11447 H 1068.39 2.05878 1.49955 0
M  V30 11448 H 1069.18 3.39672 0.497786 0
M  V30 11449 N 1071.62 -0.679052 1.4222 0
M  V30 11450 C 1072.87 -1.44125 1.42674 0
M  V30 11451 C 1073.2 -1.94156 0.041438 0
M  V30 11452 O 1072.48 -1.70628 -0.93361 0
M  V30 11453 C 1072.76 -2.64133 2.44756 0
M  V30 11454 C 1072.61 -2.19761 3.9246 0
M  V30 11455 C 1073.93 -3.66347 2.43881 0
M  V30 11456 H 1071.05 -0.522729 0.519541 0
M  V30 11457 H 1073.69 -0.772067 1.73606 0
M  V30 11458 H 1071.84 -3.21225 2.1851 0
M  V30 11459 H 1073.51 -1.67869 4.29671 0
M  V30 11460 H 1071.76 -1.51377 4.06531 0
M  V30 11461 H 1072.43 -3.05944 4.59459 0
M  V30 11462 H 1074.9 -3.18963 2.67211 0
M  V30 11463 H 1073.78 -4.47902 3.17293 0
M  V30 11464 H 1074.04 -4.17183 1.46325 0
M  V30 11465 N 1073.1 -1.28322 -0.914942 0
M  V30 11466 C 1074.06 -1.12169 -1.99877 0
M  V30 11467 C 1075.06 -0.0617252 -1.60681 0
M  V30 11468 O 1076.25 -0.307405 -1.71466 0
M  V30 11469 C 1073.39 -0.711959 -3.33383 0
M  V30 11470 H 1074.58 -2.08425 -2.15636 0
M  V30 11471 H 1072.13 -1.11291 -1.09745 0
M  V30 11472 H 1072.87 0.251418 -3.23324 0
M  V30 11473 H 1072.65 -1.47764 -3.63192 0
M  V30 11474 H 1074.14 -0.621558 -4.12948 0
M  V30 11475 N 1074.58 1.12322 -1.10551 0
M  V30 11476 C 1075.54 2.16273 -0.758844 0
M  V30 11477 C 1076.54 1.59325 0.217294 0
M  V30 11478 O 1077.73 1.74199 -0.00601346 0
M  V30 11479 C 1074.86 3.40674 -0.124238 0
M  V30 11480 H 1076.06 2.48454 -1.6796 0
M  V30 11481 H 1073.61 1.2735 -0.906188 0
M  V30 11482 H 1074.34 3.14094 0.807194 0
M  V30 11483 H 1074.13 3.83284 -0.826772 0
M  V30 11484 H 1075.62 4.17474 0.102502 0
M  V30 11485 N 1076.06 0.894434 1.2976 0
M  V30 11486 C 1077.28 0.5322 2.00455 0
M  V30 11487 C 1077.71 -0.874427 1.66539 0
M  V30 11488 O 1077.06 -1.58113 0.887129 0
M  V30 11489 C 1077.11 0.725264 3.53231 0
M  V30 11490 O 1076.22 -0.224612 4.11788 0
M  V30 11491 H 1075.56 0.208562 0.630395 0
M  V30 11492 H 1078.09 1.20458 1.65382 0
M  V30 11493 H 1078.1 0.627889 4.0314 0
M  V30 11494 H 1076.77 1.75079 3.77253 0
M  V30 11495 H 1075.35 -0.0801361 3.72814 0
M  V30 11496 N 1077.53 -1.43282 0.656365 0
M  V30 11497 C 1078.76 -2.06641 0.177245 0
M  V30 11498 C 1079.18 -1.48893 -1.14946 0
M  V30 11499 O 1078.54 -0.600099 -1.7108 0
M  V30 11500 C 1078.59 -3.60453 0.10299 0
M  V30 11501 O 1077.69 -4.01687 -0.933895 0
M  V30 11502 H 1077.04 -0.656978 0.096314 0
M  V30 11503 H 1079.57 -1.83733 0.900178 0
M  V30 11504 H 1079.58 -4.07923 -0.079291 0
M  V30 11505 H 1078.25 -4.01861 1.07147 0
M  V30 11506 H 1076.83 -3.65801 -0.724148 0
M  V30 11507 N 1079.01 -0.398486 -1.52479 0
M  V30 11508 C 1079.94 0.423498 -2.29627 0
M  V30 11509 C 1080.92 1.05547 -1.33394 0
M  V30 11510 O 1082.11 1.0665 -1.62294 0
M  V30 11511 C 1079.24 1.54612 -3.10986 0
M  V30 11512 C 1078.19 1.03971 -4.15179 0
M  V30 11513 C 1077.52 2.25512 -4.84818 0
M  V30 11514 C 1078.82 0.10121 -5.22202 0
M  V30 11515 H 1080.51 -0.220222 -2.98589 0
M  V30 11516 H 1078.06 -0.107355 -1.43599 0
M  V30 11517 H 1080.01 2.12806 -3.63719 0
M  V30 11518 H 1078.74 2.21756 -2.39774 0
M  V30 11519 H 1077.4 0.480251 -3.63441 0
M  V30 11520 H 1077.04 2.91187 -4.10145 0
M  V30 11521 H 1076.74 1.92285 -5.55248 0
M  V30 11522 H 1078.27 2.84331 -5.40359 0
M  V30 11523 H 1079.68 0.591617 -5.70239 0
M  V30 11524 H 1078.08 -0.141737 -5.99933 0
M  V30 11525 H 1079.15 -0.847216 -4.77441 0
M  V30 11526 N 1080.49 1.57075 -0.12858 0
M  V30 11527 C 1081.45 2.14643 0.803813 0
M  V30 11528 C 1082.45 1.08363 1.18803 0
M  V30 11529 O 1083.64 1.34093 1.11197 0
M  V30 11530 C 1080.78 2.6945 2.08829 0
M  V30 11531 H 1081.97 2.98362 0.303347 0
M  V30 11532 H 1079.52 1.55833 0.120735 0
M  V30 11533 H 1080.26 1.89345 2.63285 0
M  V30 11534 H 1080.04 3.47187 1.82218 0
M  V30 11535 H 1081.53 3.13865 2.7546 0
M  V30 11536 N 1081.97 -0.145205 1.5693 0
M  V30 11537 C 1082.9 -1.20438 1.95006 0
M  V30 11538 C 1083.91 -1.39085 0.846114 0
M  V30 11539 O 1085.1 -1.38625 1.12452 0
M  V30 11540 C 1082.2 -2.56892 2.21043 0
M  V30 11541 C 1081.38 -2.59197 3.52329 0
M  V30 11542 C 1080.44 -3.77204 3.66884 0
M  V30 11543 O 1079.46 -3.61995 4.39259 0
M  V30 11544 N 1080.66 -4.9473 3.03682 0
M  V30 11545 H 1083.43 -0.880709 2.86467 0
M  V30 11546 H 1080.99 -0.334751 1.58401 0
M  V30 11547 H 1082.98 -3.34349 2.2802 0
M  V30 11548 H 1081.55 -2.81544 1.35838 0
M  V30 11549 H 1080.77 -1.67644 3.56776 0
M  V30 11550 H 1082.06 -2.57771 4.3867 0
M  V30 11551 H 1081.46 -5.09989 2.44801 0
M  V30 11552 H 1080.01 -5.69956 3.16218 0
M  V30 11553 N 1083.45 -1.52049 -0.414609 0
M  V30 11554 C 1084.86 -1.40729 -0.752822 0
M  V30 11555 C 1085.06 -0.507468 -1.95005 0
M  V30 11556 O 1084.12 0.0288189 -2.52484 0
M  V30 11557 C 1085.43 -2.83163 -1.01189 0
M  V30 11558 C 1086.98 -2.92469 -1.11494 0
M  V30 11559 C 1087.46 -4.35859 -1.4068 0
M  V30 11560 N 1088.95 -4.39069 -1.47557 0
M  V30 11561 C 1089.68 -5.47072 -1.71756 0
M  V30 11562 N 1089.18 -6.65201 -1.93595 0
M  V30 11563 N 1090.97 -5.3458 -1.73726 0
M  V30 11564 H 1083.12 -2.09089 0.373549 0
M  V30 11565 H 1085.38 -0.942188 0.104814 0
M  V30 11566 H 1085.09 -3.51104 -0.204609 0
M  V30 11567 H 1084.96 -3.23874 -1.93353 0
M  V30 11568 H 1087.35 -2.24711 -1.91282 0
M  V30 11569 H 1087.43 -2.55222 -0.171794 0
M  V30 11570 H 1087.08 -5.04174 -0.614119 0
M  V30 11571 H 1087.01 -4.70637 -2.36238 0
M  V30 11572 H 1089.5 -3.53913 -1.32491 0
M  V30 11573 H 1089.81 -7.43297 -2.11495 0
M  V30 11574 H 1088.16 -6.68276 -1.90871 0
M  V30 11575 H 1091.35 -4.41271 -1.56198 0
M  V30 11576 H 1091.52 -6.18826 -1.92246 0
M  V30 11577 N 1084.93 0.6715 -1.42579 0
M  V30 11578 C 1086.34 0.985019 -1.25577 0
M  V30 11579 C 1086.54 2.00845 -0.162319 0
M  V30 11580 O 1085.6 2.48175 0.465352 0
M  V30 11581 C 1086.91 1.48668 -2.61377 0
M  V30 11582 C 1088.46 1.60429 -2.68759 0
M  V30 11583 C 1088.93 2.13991 -4.04935 0
M  V30 11584 N 1090.42 2.21319 -4.06906 0
M  V30 11585 C 1091.16 2.63845 -5.09091 0
M  V30 11586 N 1090.66 3.05799 -6.21658 0
M  V30 11587 N 1092.45 2.63623 -4.96447 0
M  V30 11588 H 1084.6 -0.00604561 -2.12399 0
M  V30 11589 H 1086.86 0.0598299 -0.94611 0
M  V30 11590 H 1086.57 0.80917 -3.42265 0
M  V30 11591 H 1086.44 2.46487 -2.85524 0
M  V30 11592 H 1088.83 2.27286 -1.88216 0
M  V30 11593 H 1088.91 0.610909 -2.48398 0
M  V30 11594 H 1088.55 1.47741 -4.85937 0
M  V30 11595 H 1088.48 3.14126 -4.2265 0
M  V30 11596 H 1090.98 1.91743 -3.25643 0
M  V30 11597 H 1091.29 3.36944 -6.95477 0
M  V30 11598 H 1089.63 3.03648 -6.25158 0
M  V30 11599 H 1092.82 2.30211 -4.07579 0
M  V30 11600 H 1093 2.96444 -5.76216 0
M  V30 11601 N 1086.4 1.28806 0.908124 0
M  V30 11602 C 1087.63 1.19271 1.69674 0
M  V30 11603 C 1088.05 -0.244403 1.86505 0
M  V30 11604 O 1087.41 -1.17668 1.37927 0
M  V30 11605 C 1087.46 1.9023 3.06341 0
M  V30 11606 O 1086.56 1.2136 3.94139 0
M  V30 11607 H 1085.9 0.413738 0.519343 0
M  V30 11608 H 1088.43 1.70227 1.13508 0
M  V30 11609 H 1088.44 1.98356 3.56537 0
M  V30 11610 H 1087.12 2.94762 2.93408 0
M  V30 11611 H 1085.7 1.21435 3.52573 0
M  V30 11612 N 1087.88 -1.11734 1.11145 0
M  V30 11613 C 1088.81 -2.16847 0.710809 0
M  V30 11614 C 1089.79 -1.59966 -0.291494 0
M  V30 11615 O 1090.98 -1.87554 -0.188645 0
M  V30 11616 C 1088.1 -3.38663 0.0499744 0
M  V30 11617 C 1087.15 -4.14199 1.01693 0
M  V30 11618 S 1087.98 -4.7154 2.53793 0
M  V30 11619 C 1089.14 -5.96682 1.89001 0
M  V30 11620 H 1089.37 -2.50497 1.60121 0
M  V30 11621 H 1086.9 -1.23311 0.929182 0
M  V30 11622 H 1088.86 -4.09212 -0.324959 0
M  V30 11623 H 1087.52 -3.03279 -0.817335 0
M  V30 11624 H 1086.72 -5.01494 0.501933 0
M  V30 11625 H 1086.32 -3.49395 1.33414 0
M  V30 11626 H 1088.61 -6.6634 1.22462 0
M  V30 11627 H 1089.55 -6.52821 2.74282 0
M  V30 11628 H 1089.96 -5.48084 1.35145 0
M  V30 11629 N 1089.36 -0.901303 -1.29284 0
M  V30 11630 C 1090.31 -0.378666 -2.27672 0
M  V30 11631 C 1091.28 0.540102 -1.57074 0
M  V30 11632 O 1092.46 0.464997 -1.85047 0
M  V30 11633 C 1089.6 0.38635 -3.42931 0
M  V30 11634 C 1088.71 -0.563496 -4.28309 0
M  V30 11635 C 1087.85 0.218731 -5.30749 0
M  V30 11636 C 1086.89 -0.725536 -6.07785 0
M  V30 11637 N 1086.03 0.0223854 -7.02096 0
M  V30 11638 H 1090.87 -1.22277 -2.71758 0
M  V30 11639 H 1088.4 -0.614302 -1.33659 0
M  V30 11640 H 1090.36 0.845967 -4.08533 0
M  V30 11641 H 1088.99 1.1949 -2.9987 0
M  V30 11642 H 1088.04 -1.14163 -3.62865 0
M  V30 11643 H 1089.35 -1.28623 -4.81931 0
M  V30 11644 H 1088.51 0.739473 -6.02177 0
M  V30 11645 H 1087.25 0.97459 -4.77863 0
M  V30 11646 H 1086.25 -1.25776 -5.3522 0
M  V30 11647 H 1087.48 -1.48075 -6.6276 0
M  V30 11648 H 1085.42 0.760482 -6.51577 0
M  V30 11649 H 1085.34 -0.640408 -7.53283 0
M  V30 11650 H 1086.61 0.523339 -7.77741 0
M  V30 11651 N 1090.84 1.42931 -0.663954 0
M  V30 11652 C 1091.78 2.3079 0.0210764 0
M  V30 11653 C 1092.75 1.45356 0.803796 0
M  V30 11654 O 1093.94 1.74207 0.778237 0
M  V30 11655 C 1091.08 3.31069 0.974023 0
M  V30 11656 C 1090.19 4.31598 0.186273 0
M  V30 11657 C 1089.33 5.18955 1.13399 0
M  V30 11658 C 1088.37 6.1117 0.337292 0
M  V30 11659 N 1087.5 6.91114 1.23715 0
M  V30 11660 H 1092.34 2.88819 -0.733995 0
M  V30 11661 H 1089.88 1.42274 -0.373711 0
M  V30 11662 H 1091.84 3.87727 1.54024 0
M  V30 11663 H 1090.47 2.74665 1.69585 0
M  V30 11664 H 1089.52 3.77147 -0.496402 0
M  V30 11665 H 1090.83 4.96919 -0.432753 0
M  V30 11666 H 1089.99 5.80292 1.77049 0
M  V30 11667 H 1088.73 4.53785 1.78691 0
M  V30 11668 H 1087.73 5.48911 -0.312492 0
M  V30 11669 H 1088.96 6.78386 -0.31138 0
M  V30 11670 H 1086.9 6.28583 1.87668 0
M  V30 11671 H 1086.82 7.52999 0.672946 0
M  V30 11672 H 1088.09 7.56948 1.86146 0
M  V30 11673 N 1092.32 0.406567 1.52266 0
M  V30 11674 C 1093.73 0.0573228 1.59497 0
M  V30 11675 C 1093.93 -1.43005 1.41957 0
M  V30 11676 O 1092.99 -2.19659 1.24523 0
M  V30 11677 C 1094.3 0.549947 2.95628 0
M  V30 11678 C 1095.85 0.5077 3.08855 0
M  V30 11679 C 1096.32 0.976792 4.47463 0
M  V30 11680 N 1097.81 0.933508 4.53696 0
M  V30 11681 C 1098.55 1.26769 5.59211 0
M  V30 11682 N 1098.05 1.6732 6.72292 0
M  V30 11683 N 1099.84 1.18782 5.49406 0
M  V30 11684 H 1091.99 1.37468 1.61914 0
M  V30 11685 H 1094.25 0.564562 0.76156 0
M  V30 11686 H 1093.96 1.58943 3.13736 0
M  V30 11687 H 1093.83 -0.0417767 3.77177 0
M  V30 11688 H 1096.22 -0.522728 2.90433 0
M  V30 11689 H 1096.3 1.13545 2.29219 0
M  V30 11690 H 1095.94 2.00554 4.66627 0
M  V30 11691 H 1095.87 0.325885 5.25591 0
M  V30 11692 H 1098.37 0.635333 3.72521 0
M  V30 11693 H 1098.68 1.91137 7.4879 0
M  V30 11694 H 1097.02 1.71221 6.73579 0
M  V30 11695 H 1100.21 0.869906 4.59946 0
M  V30 11696 H 1100.39 1.45157 6.31533 0
M  V30 11697 N 1093.79 -1.57004 0.136909 0
M  V30 11698 C 1095.02 -2.00156 -0.523936 0
M  V30 11699 C 1095.44 -1.01688 -1.59075 0
M  V30 11700 O 1094.79 -0.0123678 -1.82496 0
M  V30 11701 C 1094.85 -3.4326 -1.13379 0
M  V30 11702 O 1094.57 -4.37963 -0.109598 0
M  V30 11703 C 1096.07 -4.01637 -1.87623 0
M  V30 11704 H 1093.29 -0.65681 -0.137263 0
M  V30 11705 H 1095.83 -2.03219 0.228522 0
M  V30 11706 H 1093.99 -3.4108 -1.83693 0
M  V30 11707 H 1094.4 -5.21555 -0.55503 0
M  V30 11708 H 1095.87 -5.03795 -2.25597 0
M  V30 11709 H 1096.35 -3.41781 -2.75831 0
M  V30 11710 H 1096.96 -4.07417 -1.22031 0
M  V30 11711 N 1095.27 0.136881 -1.57004 0
M  V30 11712 C 1096.5 0.866405 -1.88436 0
M  V30 11713 C 1096.92 1.73483 -0.727006 0
M  V30 11714 O 1096.28 1.78398 0.323094 0
M  V30 11715 C 1096.33 1.69059 -3.18514 0
M  V30 11716 O 1095.43 2.79584 -3.03161 0
M  V30 11717 H 1094.77 0.240709 -0.618834 0
M  V30 11718 H 1097.3 0.124653 -2.0422 0
M  V30 11719 H 1097.31 2.08353 -3.50789 0
M  V30 11720 H 1095.99 1.05296 -4.0235 0
M  V30 11721 H 1094.57 2.43623 -2.82315 0
M  V30 11722 N 1096.75 1.52266 0.40654 0
M  V30 11723 C 1097.98 1.70304 1.17491 0
M  V30 11724 C 1098.39 0.413656 1.84213 0
M  V30 11725 O 1097.75 -0.610524 1.71985 0
M  V30 11726 C 1097.8 2.84045 2.23609 0
M  V30 11727 O 1097.52 4.0799 1.5961 0
M  V30 11728 C 1099.02 3.13614 3.13306 0
M  V30 11729 H 1096.24 0.570669 0.352955 0
M  V30 11730 H 1098.79 1.98836 0.477967 0
M  V30 11731 H 1096.94 2.58025 2.88967 0
M  V30 11732 H 1097.36 4.7139 2.29983 0
M  V30 11733 H 1098.83 3.96707 3.83833 0
M  V30 11734 H 1099.31 2.27272 3.75824 0
M  V30 11735 H 1099.91 3.41409 2.53614 0
M  V30 11736 N 1098.23 -0.663929 1.42933 0
M  V30 11737 C 1099.48 -1.42111 1.43697 0
M  V30 11738 C 1099.8 -1.94913 0.0583858 0
M  V30 11739 O 1099.07 -1.73757 -0.904719 0
M  V30 11740 H 1097.65 -0.527391 0.529026 0
M  V30 11741 H 1100.31 -0.783766 1.78446 0
M  V30 11742 H 1099.41 -2.26877 2.1432 0
M  V30 11743 N 1099.71 -1.29285 -0.901281 0
M  V30 11744 C 1100.64 -1.16832 -2.0217 0
M  V30 11745 C 1101.62 -0.0629265 -1.69984 0
M  V30 11746 O 1102.8 -0.242123 -1.92685 0
M  V30 11747 C 1099.93 -0.842406 -3.36929 0
M  V30 11748 C 1098.89 -1.90394 -3.8332 0
M  V30 11749 C 1098.21 -1.43138 -5.15185 0
M  V30 11750 C 1099.51 -3.31254 -4.03817 0
M  V30 11751 H 1101.21 -2.10562 -2.12847 0
M  V30 11752 H 1098.75 -1.01375 -1.0227 0
M  V30 11753 H 1100.71 -0.741999 -4.14816 0
M  V30 11754 H 1099.43 0.130598 -3.26339 0
M  V30 11755 H 1098.09 -1.99371 -3.07647 0
M  V30 11756 H 1097.74 -0.447091 -5.01009 0
M  V30 11757 H 1097.44 -2.14129 -5.47195 0
M  V30 11758 H 1098.96 -1.34444 -5.95615 0
M  V30 11759 H 1100.37 -3.25129 -4.72191 0
M  V30 11760 H 1098.77 -4.00189 -4.47178 0
M  V30 11761 H 1099.84 -3.74349 -3.08206 0
M  V30 11762 O 1101.22 1.0367 -1.23834 0
M  V30 11763 H 1101.91 1.65154 -1.01211 0
M  V30 END ATOM
M  V30 BEGIN BOND
M  V30 END BOND
M  V30 END CTAB
M  END
$$$$
