drugbank_target|Q9UKE5 TRAF2 and NCK-interacting protein kinase (DB12010)
 OpenBabel12092121143D

  0  0  0     0  0            999 V3000
M  V30 BEGIN CTAB
M  V30 COUNTS 21656 21872 0 0 0
M  V30 BEGIN ATOM
M  V30 1 H -0.908 1.98254 -0.117106 0
M  V30 2 N 0 1.576 0 0
M  V30 3 C 0.933 2.03868 1.02534 0
M  V30 4 C 1.911 0.928543 1.3348 0
M  V30 5 O 3.095 1.19667 1.45644 0
M  V30 6 C 0.222 2.43627 2.35294 0
M  V30 7 C -0.732 3.65373 2.2001 0
M  V30 8 S 0.101 5.13292 1.52614 0
M  V30 9 C 1.257 5.56322 2.86805 0
M  V30 10 H 1.49 2.90518 0.631377 0
M  V30 11 H -0.977 1.52953 0.210867 0
M  V30 12 H 0.981 2.67203 3.11629 0
M  V30 13 H -0.358 1.57376 2.7183 0
M  V30 14 H -1.165 3.90944 3.18086 0
M  V30 15 H -1.563 3.418 1.51819 0
M  V30 16 H 0.729 5.58782 3.83104 0
M  V30 17 H 1.672 6.56266 2.65933 0
M  V30 18 H 2.08 4.83886 2.90714 0
M  V30 19 N 1.4781 -0.272755 1.55222 0
M  V30 20 C 2.4411 -1.32041 1.87344 0
M  V30 21 C 3.4411 -1.42342 0.74803 0
M  V30 22 O 4.6311 -1.41488 1.0162 0
M  V30 23 C 1.7631 -2.70173 2.07893 0
M  V30 24 H 2.9561 -1.04789 2.80997 0
M  V30 25 H 0.5091 -0.51083 1.47717 0
M  V30 26 H 1.2441 -3.02605 1.16622 0
M  V30 27 H 1.0291 -2.64082 2.89833 0
M  V30 28 H 2.5191 -3.45869 2.34017 0
M  V30 29 N 2.9562 -1.48159 -0.537278 0
M  V30 30 C 4.1812 -1.59707 -1.32319 0
M  V30 31 C 4.6062 -0.254859 -1.86365 0
M  V30 32 O 3.9642 0.772378 -1.64024 0
M  V30 33 C 4.0122 -2.6412 -2.45505 0
M  V30 34 O 3.1162 -2.20774 -3.48328 0
M  V30 35 H 2.4572 -0.535791 -0.392204 0
M  V30 36 H 4.9872 -1.94092 -0.647268 0
M  V30 37 H 4.9972 -2.85166 -2.91795 0
M  V30 38 H 3.6722 -3.61567 -2.05528 0
M  V30 39 H 2.2492 -2.09911 -3.08207 0
M  V30 40 N 4.4343 0.785586 -1.36625 0
M  V30 41 C 5.7113 1.53198 -1.21613 0
M  V30 42 C 6.0913 2.10187 0.196113 0
M  V30 43 O 5.4393 1.94318 1.20219 0
M  V30 44 C 5.6493 2.62388 -2.30116 0
M  V30 45 C 6.9973 3.30167 -2.66974 0
M  V30 46 O 8.0213 2.72674 -2.29188 0
M  V30 47 O 6.8803 4.34077 -3.32023 0
M  V30 48 H 3.9743 0.677865 -0.473738 0
M  V30 49 H 6.5203 0.823739 -1.48367 0
M  V30 50 H 5.2923 2.18299 -3.24748 0
M  V30 51 H 4.9153 3.40827 -2.0475 0
M  V30 52 N 5.9124 1.20967 1.01018 0
M  V30 53 C 7.1374 1.0503 1.78839 0
M  V30 54 C 7.5624 -0.395752 1.8389 0
M  V30 55 O 6.9204 -1.28529 1.27867 0
M  V30 56 C 6.9684 1.64602 3.2084 0
M  V30 57 O 6.0724 0.887988 4.02726 0
M  V30 58 H 5.4134 0.369987 0.551367 0
M  V30 59 H 7.9434 1.60399 1.27018 0
M  V30 60 H 7.9534 1.68607 3.71532 0
M  V30 61 H 6.6284 2.69841 3.16479 0
M  V30 62 H 5.2054 0.922648 3.61305 0
M  V30 63 N 7.3905 -1.2043 1.01659 0
M  V30 64 C 8.8015 -1.71517 0.737482 0
M  V30 65 C 9.1525 -1.81547 -0.743973 0
M  V30 66 O 8.2775 -1.47803 -1.58061 0
M  V30 67 C 8.8725 -3.11515 1.33206 0
M  V30 68 C 7.4315 -3.59912 1.10183 0
M  V30 69 C 6.5785 -2.37116 1.43776 0
M  V30 70 H 9.5295 -1.05444 1.18606 0
M  V30 71 H 9.5505 -3.73575 0.722636 0
M  V30 72 H 9.0625 -3.04182 2.41028 0
M  V30 73 H 7.1635 -3.72577 0.0412756 0
M  V30 74 H 7.2765 -4.44731 1.78188 0
M  V30 75 H 5.6405 -2.39857 0.856778 0
M  V30 76 H 6.4235 -2.32424 2.52654 0
M  V30 77 N 8.8686 -0.792821 -1.36206 0
M  V30 78 C 9.8316 -0.199459 -2.2833 0
M  V30 79 C 10.8316 0.605189 -1.48977 0
M  V30 80 O 12.0216 0.425685 -1.68919 0
M  V30 81 C 9.1536 0.723523 -3.33134 0
M  V30 82 H 10.3466 -1.01181 -2.82316 0
M  V30 83 H 7.8996 -0.562485 -1.45828 0
M  V30 84 H 8.6346 1.56008 -2.84309 0
M  V30 85 H 8.4196 0.148436 -3.91819 0
M  V30 86 H 9.9096 1.13344 -4.01924 0
M  V30 87 N 10.3467 1.47872 -0.545128 0
M  V30 88 C 11.7627 1.5829 -0.204032 0
M  V30 89 C 11.9627 1.54529 1.29317 0
M  V30 90 O 11.0187 1.44232 2.07252 0
M  V30 91 C 12.3317 2.89304 -0.819987 0
M  V30 92 C 13.8797 3.02864 -0.790105 0
M  V30 93 C 14.3547 4.3656 -1.38491 0
M  V30 94 N 15.8457 4.43165 -1.34755 0
M  V30 95 C 16.5807 5.45153 -1.77753 0
M  V30 96 N 16.0767 6.54016 -2.2855 0
M  V30 97 N 17.8697 5.36125 -1.68897 0
M  V30 98 H 10.0207 1.4856 -1.51802 0
M  V30 99 H 12.2837 0.706305 -0.632327 0
M  V30 100 H 11.9897 2.97757 -1.87173 0
M  V30 101 H 11.8637 3.75957 -0.305915 0
M  V30 102 H 14.2507 2.94014 0.252913 0
M  V30 103 H 14.3317 2.17782 -1.34181 0
M  V30 104 H 13.9757 4.46164 -2.42693 0
M  V30 105 H 13.9057 5.20353 -0.808754 0
M  V30 106 H 16.3967 3.65083 -0.975855 0
M  V30 107 H 16.7097 7.27994 -2.59314 0
M  V30 108 H 15.0547 6.54938 -2.32553 0
M  V30 109 H 18.2457 4.49975 -1.28998 0
M  V30 110 H 18.4187 6.15472 -2.02726 0
M  V30 111 N 11.8248 0.280983 1.55075 0
M  V30 112 C 13.0498 -0.340154 2.04592 0
M  V30 113 C 13.4748 -1.48246 1.15779 0
M  V30 114 O 12.8328 -1.80614 0.15761 0
M  V30 115 C 12.8808 -0.793104 3.5177 0
M  V30 116 O 11.9848 -1.89981 3.66034 0
M  V30 117 H 11.3258 -0.0694289 0.66036 0
M  V30 118 H 13.8558 0.416993 2.00306 0
M  V30 119 H 13.8658 -1.08729 3.93245 0
M  V30 120 H 12.5408 0.0426163 4.15878 0
M  V30 121 H 11.1178 -1.60771 3.36463 0
M  V30 122 N 13.3029 -1.57598 0.00835791 0
M  V30 123 C 14.2329 -2.1198 -0.979113 0
M  V30 124 C 15.2139 -1.03091 -1.35301 0
M  V30 125 O 16.3989 -1.30818 -1.43528 0
M  V30 126 C 13.5289 -2.62995 -2.26828 0
M  V30 127 C 12.4829 -3.76485 -2.03576 0
M  V30 128 C 11.8089 -4.13846 -3.38579 0
M  V30 129 C 13.1089 -5.0342 -1.39161 0
M  V30 130 H 14.8029 -2.94738 -0.526281 0
M  V30 131 H 12.3489 -1.41783 -0.251704 0
M  V30 132 H 14.3019 -2.99669 -2.96271 0
M  V30 133 H 13.0259 -1.7737 -2.7424 0
M  V30 134 H 11.6849 -3.40217 -1.36557 0
M  V30 135 H 11.3329 -3.25232 -3.83709 0
M  V30 136 H 11.0329 -4.90312 -3.23834 0
M  V30 137 H 12.5569 -4.53086 -4.09323 0
M  V30 138 H 13.9709 -5.37812 -1.98573 0
M  V30 139 H 12.3679 -5.84746 -1.34878 0
M  V30 140 H 13.4379 -4.83548 -0.361868 0
M  V30 141 N 14.781 0.264519 -1.55364 0
M  V30 142 C 16.058 1.01677 -1.67096 0
M  V30 143 C 16.438 2.03996 -0.543015 0
M  V30 144 O 15.786 2.23907 0.45585 0
M  V30 145 C 15.996 1.66596 -3.0667 0
M  V30 146 C 17.344 2.17442 -3.64697 0
M  V30 147 O 18.368 1.76568 -3.09358 0
M  V30 148 O 17.227 2.92439 -4.61673 0
M  V30 149 H 14.321 0.472161 -0.678965 0
M  V30 150 H 16.867 0.259703 -1.67701 0
M  V30 151 H 15.639 0.924962 -3.80211 0
M  V30 152 H 15.262 2.48968 -3.10001 0
M  V30 153 N 16.2591 1.48442 0.529413 0
M  V30 154 C 17.1691 1.6569 1.66084 0
M  V30 155 C 18.1851 0.539432 1.65427 0
M  V30 156 O 19.3611 0.810572 1.84368 0
M  V30 157 C 16.4261 1.69315 3.02545 0
M  V30 158 C 15.4871 2.92694 3.14052 0
M  V30 159 C 14.7201 2.96137 4.44003 0
M  V30 160 O 14.9431 2.07973 5.31134 0
M  V30 161 O 13.8771 3.88312 4.59888 0
M  V30 162 H 17.7031 2.61483 1.54469 0
M  V30 163 H 15.2881 1.3185 0.702567 0
M  V30 164 H 17.1701 1.74217 3.83701 0
M  V30 165 H 15.8451 0.766966 3.14483 0
M  V30 166 H 14.7521 2.93324 2.32189 0
M  V30 167 H 16.0851 3.84699 3.0703 0
M  V30 168 N 17.7372 -0.778329 1.37039 0
M  V30 169 C 18.9862 -1.53189 1.3121 0
M  V30 170 C 19.2992 -1.95328 -0.103095 0
M  V30 171 O 20.5052 -2.70012 -0.283826 0
M  V30 172 C 18.9612 -2.76591 2.30272 0
M  V30 173 C 18.5692 -2.41577 3.77286 0
M  V30 174 C 20.3132 -3.5455 2.33441 0
M  V30 175 C 18.2202 -3.61441 4.68096 0
M  V30 176 H 17.1502 -0.5751 0.487622 0
M  V30 177 H 19.8012 -0.853101 1.62464 0
M  V30 178 H 18.1832 -3.46326 1.92027 0
M  V30 179 H 19.3572 -1.79668 4.2433 0
M  V30 180 H 17.6722 -1.76806 3.76999 0
M  V30 181 H 20.2692 -4.43628 2.98493 0
M  V30 182 H 20.6122 -3.93936 1.34611 0
M  V30 183 H 21.1452 -2.91805 2.7036 0
M  V30 184 H 17.8842 -3.27142 5.6803 0
M  V30 185 H 17.4042 -4.22478 4.25761 0
M  V30 186 H 19.0832 -4.28335 4.8491 0
M  V30 187 N 19.2153 -1.21501 -1.00376 0
M  V30 188 C 20.4923 -0.941745 -1.71437 0
M  V30 189 C 20.8723 0.546114 -2.03914 0
M  V30 190 O 20.2203 1.51128 -1.71384 0
M  V30 191 C 20.4303 -1.82812 -2.97289 0
M  V30 192 C 21.7783 -2.07771 -3.70292 0
M  V30 193 O 22.8023 -1.80171 -3.07273 0
M  V30 194 O 21.6613 -2.54456 -4.83647 0
M  V30 195 H 18.7553 -0.353243 -0.747762 0
M  V30 196 H 21.3013 -1.32436 -1.06108 0
M  V30 197 H 20.0733 -2.83501 -2.69709 0
M  V30 198 H 19.6963 -1.4464 -3.70358 0
M  V30 199 N 20.6934 1.19889 -1.02296 0
M  V30 200 C 21.6234 2.25141 -0.619174 0
M  V30 201 C 22.6044 1.66051 0.368915 0
M  V30 202 O 23.7894 1.92546 0.252941 0
M  V30 203 C 20.9194 3.4728 0.0368783 0
M  V30 204 C 19.8734 4.19005 -0.872865 0
M  V30 205 C 19.1994 5.34637 -0.0822402 0
M  V30 206 C 20.4994 4.74452 -2.18387 0
M  V30 207 H 22.1934 2.59171 -1.49903 0
M  V30 208 H 19.7394 1.24579 -0.722222 0
M  V30 209 H 21.6924 4.20098 0.330958 0
M  V30 210 H 20.4164 3.12433 0.95149 0
M  V30 211 H 19.0754 3.48061 -1.15105 0
M  V30 212 H 18.7234 4.96034 0.83422 0
M  V30 213 H 18.4234 5.83557 -0.688149 0
M  V30 214 H 19.9474 6.10255 0.205238 0
M  V30 215 H 21.3614 5.39055 -1.95172 0
M  V30 216 H 19.7584 5.33834 -2.74119 0
M  V30 217 H 20.8284 3.92844 -2.84257 0
M  V30 218 N 22.1715 0.800033 1.35784 0
M  V30 219 C 23.3965 0.388511 2.03729 0
M  V30 220 C 23.8215 -0.990481 1.5991 0
M  V30 221 O 23.1795 -1.64013 0.772612 0
M  V30 222 C 23.2275 0.4726 3.5749 0
M  V30 223 O 22.3315 -0.51646 4.09153 0
M  V30 224 H 21.6725 0.163271 0.643614 0
M  V30 225 H 24.2025 1.0841 1.73518 0
M  V30 226 H 24.2125 0.34003 4.06581 0
M  V30 227 H 22.8875 1.47848 3.88734 0
M  V30 228 H 21.4645 -0.344673 3.71304 0
M  V30 229 N 23.6496 -1.47581 0.552962 0
M  V30 230 C 24.6126 -2.28439 -0.186605 0
M  V30 231 C 25.6126 -1.36706 -0.84665 0
M  V30 232 O 26.8026 -1.59378 -0.703164 0
M  V30 233 C 23.9346 -3.16264 -1.2724 0
M  V30 234 H 25.1276 -2.95294 0.523609 0
M  V30 235 H 22.6806 -1.532 0.309745 0
M  V30 236 H 23.4156 -2.54091 -2.01514 0
M  V30 237 H 23.2006 -3.83769 -0.803968 0
M  V30 238 H 24.6906 -3.77198 -1.79196 0
M  V30 239 N 25.1277 -0.289203 -1.54924 0
M  V30 240 C 26.0577 0.58549 -2.2604 0
M  V30 241 C 27.0387 1.14753 -1.25562 0
M  V30 242 O 28.2237 1.17906 -1.54311 0
M  V30 243 C 25.3537 1.76305 -2.99222 0
M  V30 244 C 24.3077 1.33191 -4.06748 0
M  V30 245 C 23.6337 2.5937 -4.6758 0
M  V30 246 C 24.9337 0.471775 -5.20165 0
M  V30 247 H 26.6277 -0.00763532 -2.99399 0
M  V30 248 H 24.1737 -0.00511229 -1.43999 0
M  V30 249 H 26.1267 2.38097 -3.47689 0
M  V30 250 H 24.8507 2.38223 -2.23422 0
M  V30 251 H 23.5097 0.737121 -3.59113 0
M  V30 252 H 23.1577 3.19576 -3.88433 0
M  V30 253 H 22.8577 2.31228 -5.40192 0
M  V30 254 H 24.3817 3.21985 -5.18804 0
M  V30 255 H 25.7957 0.995056 -5.64599 0
M  V30 256 H 24.1927 0.284639 -5.99425 0
M  V30 257 H 25.2627 -0.506041 -4.82252 0
M  V30 258 N 26.6058 1.57591 -0.0167156 0
M  V30 259 C 28.0218 1.55946 0.339557 0
M  V30 260 C 28.2218 1.02109 1.73713 0
M  V30 261 O 27.2778 0.662303 2.43659 0
M  V30 262 C 28.5908 3.00037 0.199499 0
M  V30 263 C 30.1388 3.11805 0.273193 0
M  V30 264 C 30.6138 4.57713 0.162068 0
M  V30 265 N 32.1048 4.6268 0.219444 0
M  V30 266 C 32.8398 5.73185 0.157054 0
M  V30 267 N 32.3358 6.92786 0.0442936 0
M  V30 268 N 34.1288 5.61707 0.21014 0
M  V30 269 H 26.2798 1.90921 -0.930758 0
M  V30 270 H 28.5428 0.877674 -0.358319 0
M  V30 271 H 28.2488 3.4333 -0.76273 0
M  V30 272 H 28.1228 3.64387 0.974786 0
M  V30 273 H 30.5098 2.68433 1.22587 0
M  V30 274 H 30.5908 2.50201 -0.532256 0
M  V30 275 H 30.2348 5.01763 -0.78714 0
M  V30 276 H 30.1648 5.17283 0.986222 0
M  V30 277 H 32.6558 3.76649 0.307246 0
M  V30 278 H 32.9688 7.728 0.00304069 0
M  V30 279 H 31.3138 6.94999 0.00968457 0
M  V30 280 H 34.5048 4.6716 0.296546 0
M  V30 281 H 34.6778 6.47807 0.158054 0
M  V30 282 N 28.0839 -0.256276 1.55502 0
M  V30 283 C 29.3609 -1.00789 1.67633 0
M  V30 284 C 29.7409 -2.03706 0.553826 0
M  V30 285 O 29.0889 -2.24145 -0.443969 0
M  V30 286 C 29.2989 -1.64968 3.07549 0
M  V30 287 C 30.6469 -2.15505 3.65845 0
M  V30 288 O 31.6709 -1.74925 3.1029 0
M  V30 289 O 30.5299 -2.89986 4.63217 0
M  V30 290 H 27.6239 -0.468553 0.681459 0
M  V30 291 H 30.1699 -0.250806 1.67836 0
M  V30 292 H 28.9419 -0.904785 3.80696 0
M  V30 293 H 28.5649 -2.47321 3.11317 0
M  V30 294 N 29.562 -1.4872 -0.521534 0
M  V30 295 C 30.973 -1.50607 -1.10337 0
M  V30 296 C 31.324 -0.280612 -1.94183 0
M  V30 297 O 30.449 0.611507 -2.0758 0
M  V30 298 C 31.044 -2.72903 -2.00772 0
M  V30 299 C 29.603 -2.77634 -2.54158 0
M  V30 300 C 28.75 -2.44241 -1.31307 0
M  V30 301 H 31.701 -1.55714 -0.306388 0
M  V30 302 H 31.722 -2.519 -2.85178 0
M  V30 303 H 31.234 -3.62077 -1.39721 0
M  V30 304 H 29.335 -1.92689 -3.18907 0
M  V30 305 H 29.448 -3.79283 -2.92714 0
M  V30 306 H 27.812 -1.95577 -1.63161 0
M  V30 307 H 28.595 -3.35666 -0.719943 0
M  V30 308 N 31.0401 0.771051 -1.3745 0
M  V30 309 C 32.0031 1.86598 -1.33093 0
M  V30 310 C 33.0031 1.59076 -0.234845 0
M  V30 311 O 34.1931 1.67145 -0.490732 0
M  V30 312 C 31.3251 3.23747 -1.06773 0
M  V30 313 H 32.5181 1.91873 -2.30488 0
M  V30 314 H 30.0711 0.970876 -1.2249 0
M  V30 315 H 30.8061 3.24148 -0.099129 0
M  V30 316 H 30.5911 3.45115 -1.86112 0
M  V30 317 H 32.0811 4.03824 -1.06377 0
M  V30 318 N 32.5182 1.22032 0.997298 0
M  V30 319 C 33.7662 1.04016 1.73278 0
M  V30 320 C 34.0872 -0.426255 1.90284 0
M  V30 321 O 33.3572 -1.30694 1.45931 0
M  V30 322 H 31.9372 0.381897 0.642 0
M  V30 323 H 34.5992 1.5347 1.20137 0
M  V30 324 H 33.6952 1.51441 2.72896 0
M  V30 325 N 33.9963 -1.19345 1.0293 0
M  V30 326 C 35.2453 -1.88363 0.721256 0
M  V30 327 C 35.5583 -1.80514 -0.753254 0
M  V30 328 O 36.7643 -2.44788 -1.17436 0
M  V30 329 C 35.2203 -3.37872 1.23978 0
M  V30 330 C 34.8283 -3.54278 2.74211 0
M  V30 331 C 36.5723 -4.12365 1.00775 0
M  V30 332 C 34.4793 -4.97682 3.19479 0
M  V30 333 H 33.4093 -0.705484 0.266098 0
M  V30 334 H 36.0603 -1.34928 1.24365 0
M  V30 335 H 34.4423 -3.90707 0.6453 0
M  V30 336 H 35.6163 -3.11769 3.39318 0
M  V30 337 H 33.9313 -2.93174 2.95699 0
M  V30 338 H 36.5283 -5.18119 1.32123 0
M  V30 339 H 36.8713 -4.16263 -0.0554308 0
M  V30 340 H 37.4043 -3.65668 1.56625 0
M  V30 341 H 34.1433 -4.98945 4.25128 0
M  V30 342 H 33.6633 -5.4095 2.591 0
M  V30 343 H 35.3423 -5.66337 3.12845 0
M  V30 344 N 35.4744 -0.807222 -1.35358 0
M  V30 345 C 36.7214 -0.387888 -1.9875 0
M  V30 346 C 37.0494 1.04509 -1.64037 0
M  V30 347 O 36.3044 1.73986 -0.895946 0
M  V30 348 C 36.6034 -0.519036 -3.53611 0
M  V30 349 C 36.2694 -1.91542 -4.08194 0
M  V30 350 C 34.9314 -2.29745 -4.22813 0
M  V30 351 C 37.2834 -2.82896 -4.37744 0
M  V30 352 C 34.6114 -3.58668 -4.643 0
M  V30 353 C 36.9634 -4.11265 -4.8067 0
M  V30 354 C 35.6274 -4.49466 -4.93494 0
M  V30 355 H 34.8974 -0.141938 -0.727279 0
M  V30 356 H 37.5444 -1.02814 -1.6156 0
M  V30 357 H 35.8494 0.204658 -3.91265 0
M  V30 358 H 37.5464 -0.175345 -4.00616 0
M  V30 359 H 34.1364 -1.60862 -3.97268 0
M  V30 360 H 38.3204 -2.54629 -4.26002 0
M  V30 361 H 33.5764 -3.88113 -4.72418 0
M  V30 362 H 37.7504 -4.82153 -5.02496 0
M  V30 363 H 35.3774 -5.49418 -5.25399 0
M  V30 364 N 36.9525 1.47285 -0.560781 0
M  V30 365 C 37.8625 2.33846 0.187954 0
M  V30 366 C 38.8785 1.48412 0.908293 0
M  V30 367 O 40.0545 1.81332 0.876388 0
M  V30 368 C 37.1195 3.25178 1.2025 0
M  V30 369 C 36.1805 4.26504 0.489208 0
M  V30 370 C 35.4135 5.13472 1.45542 0
M  V30 371 O 35.6365 5.02959 2.6905 0
M  V30 372 O 34.5705 5.93902 0.977963 0
M  V30 373 H 38.3965 2.99177 -0.522177 0
M  V30 374 H 35.9815 1.45903 -0.321364 0
M  V30 375 H 37.8635 3.81584 1.78805 0
M  V30 376 H 36.5385 2.6247 1.89449 0
M  V30 377 H 35.4455 3.73847 -0.137627 0
M  V30 378 H 36.7785 4.91935 -0.161399 0
M  V30 379 N 38.4306 0.297415 1.54768 0
M  V30 380 C 39.3606 -0.573494 2.26348 0
M  V30 381 C 40.3416 -1.14085 1.26169 0
M  V30 382 O 41.5266 -1.17086 1.54934 0
M  V30 383 C 38.6566 -1.74716 3.00153 0
M  V30 384 C 37.6106 -1.31032 4.07449 0
M  V30 385 C 36.9366 -2.56887 4.68949 0
M  V30 386 C 38.2366 -0.444183 5.20408 0
M  V30 387 H 39.9306 0.0235131 2.99391 0
M  V30 388 H 37.4766 0.0127488 1.43994 0
M  V30 389 H 39.4296 -2.3625 3.48947 0
M  V30 390 H 38.1536 -2.37035 2.24682 0
M  V30 391 H 36.8126 -0.718066 3.59499 0
M  V30 392 H 36.4606 -3.17512 3.90122 0
M  V30 393 H 36.1606 -2.2836 5.41411 0
M  V30 394 H 37.6846 -3.19229 5.20505 0
M  V30 395 H 39.0986 -0.9651 5.65118 0
M  V30 396 H 37.4956 -0.252846 5.99567 0
M  V30 397 H 38.5656 0.531609 4.81977 0
M  V30 398 N 39.9087 -1.5758 0.0250728 0
M  V30 399 C 41.1547 -1.91917 -0.655413 0
M  V30 400 C 41.4877 -0.901433 -1.72011 0
M  V30 401 O 40.7627 0.0764069 -1.9435 0
M  V30 402 C 41.0457 -3.36751 -1.27558 0
M  V30 403 C 40.8987 -4.49258 -0.220719 0
M  V30 404 C 42.2177 -3.81469 -2.19475 0
M  V30 405 H 39.3367 -0.697925 -0.23679 0
M  V30 406 H 41.9787 -1.89825 0.0815036 0
M  V30 407 H 40.1287 -3.38664 -1.90365 0
M  V30 408 H 41.8007 -4.59478 0.409601 0
M  V30 409 H 40.0437 -4.31415 0.454264 0
M  V30 410 H 40.7147 -5.47618 -0.694175 0
M  V30 411 H 43.1907 -3.81266 -1.66659 0
M  V30 412 H 42.0667 -4.83512 -2.59822 0
M  V30 413 H 42.3277 -3.16744 -3.08424 0
M  V30 414 N 41.3868 0.248026 -1.55636 0
M  V30 415 C 42.2968 1.32859 -1.93354 0
M  V30 416 C 43.3128 1.52719 -0.833838 0
M  V30 417 O 44.4888 1.66363 -1.13513 0
M  V30 418 C 41.5538 2.66337 -2.21958 0
M  V30 419 C 40.6148 2.55008 -3.45354 0
M  V30 420 C 39.8478 3.82121 -3.72584 0
M  V30 421 O 40.0708 4.83951 -3.01907 0
M  V30 422 O 39.0048 3.80822 -4.6611 0
M  V30 423 H 42.8308 1.03862 -2.85388 0
M  V30 424 H 40.4158 0.448686 -1.42503 0
M  V30 425 H 42.2978 3.45216 -2.4167 0
M  V30 426 H 40.9728 2.95068 -1.33103 0
M  V30 427 H 39.8798 1.7442 -3.30951 0
M  V30 428 H 41.2128 2.31222 -4.34508 0
M  V30 429 N 42.8649 1.48995 0.513639 0
M  V30 430 C 43.7949 1.67636 1.62544 0
M  V30 431 C 44.7759 0.525087 1.61793 0
M  V30 432 O 45.9609 0.759502 1.78732 0
M  V30 433 C 43.0909 1.73114 3.01079 0
M  V30 434 C 42.0449 2.87905 3.16693 0
M  V30 435 C 41.3709 2.78486 4.56453 0
M  V30 436 C 42.6709 4.29005 2.97913 0
M  V30 437 H 44.3649 2.60716 1.47198 0
M  V30 438 H 41.9109 1.25465 0.706714 0
M  V30 439 H 43.8639 1.84742 3.78746 0
M  V30 440 H 42.5879 0.766241 3.17484 0
M  V30 441 H 41.2469 2.75859 2.41448 0
M  V30 442 H 40.8949 1.7993 4.69717 0
M  V30 443 H 40.5949 3.55523 4.67843 0
M  V30 444 H 42.1189 2.92104 5.36197 0
M  V30 445 H 43.5329 4.41798 3.65359 0
M  V30 446 H 41.9299 5.07166 3.20785 0
M  V30 447 H 42.9999 4.44329 1.94165 0
M  V30 448 N 44.343 -0.763751 1.37857 0
M  V30 449 C 45.589 -1.52483 1.33704 0
M  V30 450 C 45.922 -1.94051 -0.0759612 0
M  V30 451 O 45.197 -1.64675 -1.03501 0
M  V30 452 C 45.48 -2.78441 2.28348 0
M  V30 453 C 45.333 -2.43075 3.78463 0
M  V30 454 C 46.652 -3.80415 2.21298 0
M  V30 455 H 43.771 -0.553169 0.487005 0
M  V30 456 H 46.413 -0.875562 1.68624 0
M  V30 457 H 44.563 -3.33842 1.987 0
M  V30 458 H 46.235 -1.93527 4.18742 0
M  V30 459 H 44.478 -1.75666 3.96641 0
M  V30 460 H 45.149 -3.33149 4.40132 0
M  V30 461 H 47.625 -3.34527 2.47449 0
M  V30 462 H 46.501 -4.66257 2.89647 0
M  V30 463 H 46.762 -4.25262 1.20849 0
M  V30 464 N 45.8211 -1.22559 -0.990812 0
M  V30 465 C 47.0691 -1.04933 -1.72724 0
M  V30 466 C 47.3901 0.416158 -1.90508 0
M  V30 467 O 46.6601 1.29918 -1.46622 0
M  V30 468 H 45.2401 -0.385296 -0.639965 0
M  V30 469 H 47.9021 -1.54105 -1.19322 0
M  V30 470 H 46.9981 -1.52886 -2.72089 0
M  V30 471 N 47.2992 1.18797 -1.03562 0
M  V30 472 C 48.2472 2.24297 -0.615905 0
M  V30 473 C 49.2412 1.65643 0.354808 0
M  V30 474 O 50.4472 1.78618 0.22265 0
M  V30 475 H 46.8222 0.729909 -0.180934 0
M  V30 476 H 48.7932 2.5701 -1.5162 0
M  V30 477 C 47.5422 3.47698 0.0104735 0
M  V30 478 H 46.8652 3.93125 -0.727509 0
M  V30 479 H 48.3052 4.23159 0.266995 0
M  V30 480 C 46.7642 3.12489 1.25905 0
M  V30 481 O 47.2942 3.25761 2.35038 0
M  V30 482 N 45.5002 2.6686 1.15039 0
M  V30 483 H 45.0472 2.56261 0.262328 0
M  V30 484 H 45.0052 2.43674 1.98672 0
M  V30 485 N 48.7773 0.814389 1.34928 0
M  V30 486 C 50.0253 0.397636 1.9815 0
M  V30 487 C 50.3463 -1.04069 1.64908 0
M  V30 488 O 49.6163 -1.72121 0.93548 0
M  V30 489 H 48.1963 0.144043 0.732981 0
M  V30 490 H 50.8583 1.04195 1.6471 0
M  V30 491 H 49.9543 0.509688 3.0791 0
M  V30 492 N 50.2554 -1.46986 0.568584 0
M  V30 493 C 51.4834 -2.0683 0.0539956 0
M  V30 494 C 51.8984 -1.41953 -1.24478 0
M  V30 495 O 51.2554 -0.519933 -1.74937 0
M  V30 496 C 51.3064 -3.61254 -0.133362 0
M  V30 497 O 51.0274 -4.237 1.11399 0
M  V30 498 C 52.5284 -4.37992 -0.683927 0
M  V30 499 H 49.7484 -0.669058 0.0510141 0
M  V30 500 H 52.2924 -1.88824 0.785234 0
M  V30 501 H 50.4474 -3.78735 -0.81477 0
M  V30 502 H 50.8614 -5.16388 0.91888 0
M  V30 503 H 52.3354 -5.46684 -0.764263 0
M  V30 504 H 52.8124 -4.05058 -1.69778 0
M  V30 505 H 53.4184 -4.25283 -0.0378494 0
M  V30 506 N 51.7335 -0.305618 -1.54608 0
M  V30 507 C 52.9635 0.304333 -2.04346 0
M  V30 508 C 53.3715 1.47715 -1.18224 0
M  V30 509 O 52.7145 1.82591 -0.201577 0
M  V30 510 C 52.7765 0.819031 -3.50046 0
M  V30 511 C 52.4405 -0.22912 -4.56425 0
M  V30 512 C 53.4375 -1.05914 -5.08997 0
M  V30 513 C 51.1225 -0.372148 -5.0092 0
M  V30 514 C 53.1165 -2.01809 -6.04609 0
M  V30 515 C 50.8035 -1.33454 -5.9635 0
M  V30 516 C 51.8015 -2.15599 -6.48079 0
M  V30 517 O 51.4895 -3.10205 -7.41639 0
M  V30 518 H 51.2215 0.0693996 -0.672428 0
M  V30 519 H 53.7755 -0.444548 -2.00532 0
M  V30 520 H 52.0055 1.61852 -3.51199 0
M  V30 521 H 53.6945 1.34537 -3.82955 0
M  V30 522 H 54.4605 -0.959538 -4.75413 0
M  V30 523 H 50.3395 0.257304 -4.60281 0
M  V30 524 H 53.8835 -2.65966 -6.44909 0
M  V30 525 H 49.7805 -1.43485 -6.29351 0
M  V30 526 H 50.5485 -3.05237 -7.59455 0
M  V30 527 N 53.2116 1.57565 -0.0334293 0
M  V30 528 C 54.4596 1.91598 0.642999 0
M  V30 529 C 54.7806 0.910847 1.7242 0
M  V30 530 O 54.0506 -0.0469931 1.95844 0
M  V30 531 H 52.6306 0.707228 0.240496 0
M  V30 532 H 55.2926 1.94726 -0.0822488 0
M  V30 533 H 54.3886 2.92336 1.09298 0
M  V30 534 N 54.6897 -0.239769 1.55765 0
M  V30 535 C 55.6217 -1.32001 1.87372 0
M  V30 536 C 56.6347 -1.43944 0.760522 0
M  V30 537 O 57.8237 -1.45167 1.0387 0
M  V30 538 C 54.9237 -2.69779 2.05115 0
M  V30 539 C 54.0967 -2.80014 3.36022 0
M  V30 540 C 53.1557 -3.98684 3.4342 0
M  V30 541 O 52.1817 -3.87877 4.16582 0
M  V30 542 N 53.3837 -5.12176 2.73232 0
M  V30 543 H 56.1487 -1.0522 2.80622 0
M  V30 544 H 53.7097 -0.429857 1.56089 0
M  V30 545 H 55.7017 -3.47517 2.07399 0
M  V30 546 H 54.2717 -2.89237 1.18577 0
M  V30 547 H 53.4917 -1.88896 3.45994 0
M  V30 548 H 54.7797 -2.83808 4.22292 0
M  V30 549 H 54.1777 -5.2385 2.13536 0
M  V30 550 H 52.7347 -5.88022 2.81199 0
M  V30 551 N 56.1678 -1.49265 -0.50573 0
M  V30 552 C 57.4138 -1.58748 -1.26202 0
M  V30 553 C 57.7468 -0.271227 -1.92297 0
M  V30 554 O 57.0218 0.724831 -1.80489 0
M  V30 555 C 57.3048 -2.74332 -2.33268 0
M  V30 556 C 57.1578 -4.15737 -1.71705 0
M  V30 557 C 58.4768 -2.85576 -3.34865 0
M  V30 558 H 55.5958 -0.577826 -0.457478 0
M  V30 559 H 58.2378 -1.81532 -0.560897 0
M  V30 560 H 56.3878 -2.55036 -2.93068 0
M  V30 561 H 58.0598 -4.46537 -1.15769 0
M  V30 562 H 56.3028 -4.21605 -1.02135 0
M  V30 563 H 56.9738 -4.92477 -2.49341 0
M  V30 564 H 59.4498 -3.03127 -2.8505 0
M  V30 565 H 58.3258 -3.68135 -4.07146 0
M  V30 566 H 58.5868 -1.94732 -3.96903 0
M  V30 567 N 57.6459 0.756429 -1.3826 0
M  V30 568 C 58.8759 1.54341 -1.3734 0
M  V30 569 C 59.2839 1.89159 0.0393917 0
M  V30 570 O 58.6269 1.5307 1.01565 0
M  V30 571 C 58.6889 2.87238 -2.16182 0
M  V30 572 C 58.3529 2.74973 -3.65019 0
M  V30 573 C 59.3499 2.44962 -4.58574 0
M  V30 574 C 57.0349 2.92515 -4.08338 0
M  V30 575 C 59.0289 2.32642 -5.93428 0
M  V30 576 C 56.7159 2.79815 -5.43274 0
M  V30 577 C 57.7139 2.49921 -6.35632 0
M  V30 578 O 57.4019 2.37275 -7.68086 0
M  V30 579 H 57.1339 0.484281 -0.471643 0
M  V30 580 H 59.6879 0.944152 -1.82414 0
M  V30 581 H 57.9179 3.49342 -1.65822 0
M  V30 582 H 59.6069 3.48731 -2.07705 0
M  V30 583 H 60.3729 2.31081 -4.26412 0
M  V30 584 H 56.2519 3.14781 -3.368 0
M  V30 585 H 59.7959 2.0923 -6.65484 0
M  V30 586 H 55.6929 2.93269 -5.75034 0
M  V30 587 H 56.4609 2.52509 -7.78577 0
M  V30 588 N 59.124 1.23083 0.984299 0
M  V30 589 C 60.071 1.00854 2.07598 0
M  V30 590 C 61.041 -0.0726709 1.65941 0
M  V30 591 O 62.226 0.0786535 1.90638 0
M  V30 592 C 59.366 0.601645 3.39815 0
M  V30 593 C 58.479 1.75456 3.94765 0
M  V30 594 C 57.614 1.29482 5.15177 0
M  V30 595 C 56.653 2.41873 5.62284 0
M  V30 596 N 55.79 1.96885 6.73929 0
M  V30 597 H 60.63 1.943 2.25946 0
M  V30 598 H 58.167 0.968001 1.10762 0
M  V30 599 H 60.125 0.346854 4.15756 0
M  V30 600 H 58.755 -0.295803 3.21442 0
M  V30 601 H 57.807 2.12346 3.15616 0
M  V30 602 H 59.119 2.59965 4.25699 0
M  V30 603 H 58.273 0.997923 5.98437 0
M  V30 604 H 57.012 0.420046 4.85888 0
M  V30 605 H 56.017 2.72342 4.77608 0
M  V30 606 H 57.242 3.29881 5.93595 0
M  V30 607 H 55.188 1.11782 6.46406 0
M  V30 608 H 55.105 2.74956 7.04227 0
M  V30 609 H 56.373 1.70289 7.60672 0
M  V30 610 N 60.6021 -1.18246 1.0419 0
M  V30 611 C 61.8501 -1.87886 0.744543 0
M  V30 612 C 62.1711 -1.8082 -0.730006 0
M  V30 613 O 61.4411 -1.22736 -1.52685 0
M  V30 614 H 60.0211 -0.695556 0.272417 0
M  V30 615 H 62.6831 -1.43494 1.31892 0
M  V30 616 H 61.7791 -2.9389 1.05049 0
M  V30 617 N 62.0802 -0.821533 -1.34494 0
M  V30 618 C 63.4962 -0.507117 -1.51329 0
M  V30 619 C 63.6962 0.968964 -1.76673 0
M  V30 620 O 62.7522 1.75348 -1.81685 0
M  V30 621 C 64.0652 -1.36544 -2.67911 0
M  V30 622 C 65.6132 -1.36242 -2.81793 0
M  V30 623 C 66.0882 -2.2052 -4.01416 0
M  V30 624 N 67.5792 -2.18136 -4.08621 0
M  V30 625 C 68.3142 -2.80095 -5.00334 0
M  V30 626 N 67.8102 -3.51039 -5.9728 0
M  V30 627 N 69.6032 -2.69656 -4.93196 0
M  V30 628 H 61.7542 -1.77729 -1.16302 0
M  V30 629 H 64.0172 -0.757291 -0.570276 0
M  V30 630 H 63.7232 -2.41361 -2.55808 0
M  V30 631 H 63.5972 -1.02917 -3.62888 0
M  V30 632 H 65.9842 -0.322041 -2.93338 0
M  V30 633 H 66.0652 -1.73866 -1.87628 0
M  V30 634 H 65.7092 -3.24607 -3.90631 0
M  V30 635 H 65.6392 -1.80247 -4.94791 0
M  V30 636 H 68.1302 -1.6653 -3.39229 0
M  V30 637 H 68.4432 -3.95565 -6.63889 0
M  V30 638 H 66.7882 -3.55145 -5.97409 0
M  V30 639 H 69.9792 -2.13808 -4.16418 0
M  V30 640 H 70.1522 -3.1823 -5.64476 0
M  V30 641 N 63.5583 1.46682 -0.576371 0
M  V30 642 C 64.5083 2.27278 0.181288 0
M  V30 643 C 65.4923 1.35497 0.867721 0
M  V30 644 O 66.6843 1.59717 0.762863 0
M  V30 645 C 63.8133 3.21703 1.19841 0
M  V30 646 C 62.8993 4.20969 0.51442 0
M  V30 647 N 63.2903 5.03999 -0.426407 0
M  V30 648 C 61.5883 4.39373 0.765963 0
M  V30 649 C 62.2893 5.75812 -0.825565 0
M  V30 650 N 61.2653 5.43315 -0.176116 0
M  V30 651 H 65.0673 2.88863 -0.541785 0
M  V30 652 H 62.5813 1.57455 -0.397697 0
M  V30 653 H 64.5783 3.78145 1.75533 0
M  V30 654 H 63.2383 2.61677 1.92238 0
M  V30 655 H 64.2493 5.11659 -0.8016 0
M  V30 656 H 60.9263 3.90502 1.47698 0
M  V30 657 H 62.3163 6.52577 -1.59976 0
M  V30 658 N 65.0364 0.313813 1.54444 0
M  V30 659 C 66.2824 -0.292108 2.00685 0
M  V30 660 C 66.6154 -1.52548 1.20177 0
M  V30 661 O 65.8904 -1.92452 0.281531 0
M  V30 662 C 66.1734 -0.635968 3.5444 0
M  V30 663 C 66.0264 0.607437 4.4568 0
M  V30 664 C 67.3454 -1.45747 4.15266 0
M  V30 665 H 64.4644 -0.104697 0.729526 0
M  V30 666 H 67.1064 0.428457 1.85106 0
M  V30 667 H 65.2564 -1.24986 3.67846 0
M  V30 668 H 66.9284 1.24581 4.44159 0
M  V30 669 H 65.1714 1.23822 4.15753 0
M  V30 670 H 65.8424 0.322515 5.51057 0
M  V30 671 H 68.3184 -0.938645 4.05375 0
M  V30 672 H 67.1944 -1.66683 5.2298 0
M  V30 673 H 67.4554 -2.45063 3.67963 0
M  V30 674 N 66.5145 -1.57545 0.0417849 0
M  V30 675 C 67.4615 -2.10977 -0.935805 0
M  V30 676 C 68.4315 -1.01486 -1.31491 0
M  V30 677 O 69.6165 -1.2898 -1.40602 0
M  V30 678 C 66.7565 -2.65169 -2.2086 0
M  V30 679 C 65.8695 -3.88714 -1.88482 0
M  V30 680 C 65.0045 -4.31254 -3.1015 0
M  V30 681 C 64.0435 -5.47524 -2.7365 0
M  V30 682 N 63.1805 -5.85162 -3.87982 0
M  V30 683 H 68.0205 -2.94218 -0.473249 0
M  V30 684 H 65.5575 -1.45415 -0.221981 0
M  V30 685 H 67.5155 -2.94685 -2.95325 0
M  V30 686 H 66.1455 -1.8474 -2.64709 0
M  V30 687 H 65.1975 -3.65849 -1.04205 0
M  V30 688 H 66.5095 -4.73245 -1.57608 0
M  V30 689 H 65.6635 -4.62273 -3.92923 0
M  V30 690 H 64.4025 -3.45516 -3.44195 0
M  V30 691 H 63.4075 -5.16187 -1.89291 0
M  V30 692 H 64.6325 -6.34971 -2.40807 0
M  V30 693 H 62.5785 -5.02377 -4.21846 0
M  V30 694 H 62.4955 -6.64362 -3.60775 0
M  V30 695 H 63.7635 -6.20791 -4.71422 0
M  V30 696 N 67.9926 0.231505 -1.5589 0
M  V30 697 C 69.2206 0.974505 -1.82513 0
M  V30 698 C 69.6356 1.78344 -0.619591 0
M  V30 699 O 68.9926 1.77792 0.411848 0
M  V30 700 C 69.0436 1.90007 -3.07538 0
M  V30 701 O 68.7646 1.12385 -4.2344 0
M  V30 702 C 70.2656 2.75779 -3.47075 0
M  V30 703 H 67.4856 0.286065 -0.606966 0
M  V30 704 H 70.0296 0.249739 -2.02969 0
M  V30 705 H 68.1846 2.57891 -2.89086 0
M  V30 706 H 68.5986 1.75125 -4.944 0
M  V30 707 H 70.0726 3.36443 -4.37619 0
M  V30 708 H 70.5496 3.47672 -2.68367 0
M  V30 709 H 71.1556 2.13323 -3.67931 0
M  V30 710 N 69.4707 1.49531 0.497807 0
M  V30 711 C 70.7187 1.58865 1.24926 0
M  V30 712 C 71.0397 0.278721 1.92998 0
M  V30 713 O 70.3097 -0.702144 1.82885 0
M  V30 714 H 68.8897 0.585343 0.464094 0
M  V30 715 H 71.5517 1.86174 0.57666 0
M  V30 716 H 70.6477 2.38633 2.01149 0
M  V30 717 N 70.9488 -0.749086 1.3866 0
M  V30 718 C 71.8808 -1.87273 1.32142 0
M  V30 719 C 72.8938 -1.61127 0.232787 0
M  V30 720 O 74.0828 -1.71623 0.49069 0
M  V30 721 C 71.1828 -3.23005 1.02571 0
M  V30 722 C 70.3558 -3.7662 2.22433 0
M  V30 723 C 69.4148 -4.90879 1.89537 0
M  V30 724 O 68.4408 -5.05276 2.62078 0
M  V30 725 N 69.6428 -5.74198 0.853031 0
M  V30 726 H 72.4078 -1.93373 2.28969 0
M  V30 727 H 69.9688 -0.929216 1.32579 0
M  V30 728 H 71.9608 -3.96992 0.786085 0
M  V30 729 H 70.5308 -3.12262 0.145249 0
M  V30 730 H 69.7508 -2.94147 2.62434 0
M  V30 731 H 71.0388 -4.09173 3.02415 0
M  V30 732 H 70.4368 -5.6514 0.25155 0
M  V30 733 H 68.9938 -6.48313 0.67329 0
M  V30 734 N 72.4269 -1.23603 -0.977757 0
M  V30 735 C 73.3569 -1.04401 -2.0886 0
M  V30 736 C 74.3379 0.0399052 -1.70053 0
M  V30 737 O 75.5229 -0.125246 -1.93796 0
M  V30 738 C 72.6529 -0.637269 -3.41403 0
M  V30 739 C 71.6069 -1.66883 -3.94124 0
M  V30 740 C 70.9329 -1.11745 -5.22893 0
M  V30 741 C 72.2329 -3.06247 -4.23096 0
M  V30 742 H 73.9269 -1.97316 -2.25182 0
M  V30 743 H 71.4729 -0.950096 -1.08209 0
M  V30 744 H 73.4259 -0.48998 -4.18542 0
M  V30 745 H 72.1499 0.327557 -3.24953 0
M  V30 746 H 70.8089 -1.80416 -3.19133 0
M  V30 747 H 70.4569 -0.143527 -5.02795 0
M  V30 748 H 70.1569 -1.80672 -5.59134 0
M  V30 749 H 71.6809 -0.982067 -6.02651 0
M  V30 750 H 73.0949 -2.96001 -4.90975 0
M  V30 751 H 71.4919 -3.72436 -4.70544 0
M  V30 752 H 72.5619 -3.55041 -3.30263 0
M  V30 753 N 73.905 1.17692 -1.04816 0
M  V30 754 C 74.868 2.19787 -0.650117 0
M  V30 755 C 75.868 1.58044 0.296427 0
M  V30 756 O 77.058 1.74012 0.0808097 0
M  V30 757 C 74.19 3.40869 0.0456987 0
M  V30 758 H 75.383 2.56516 -1.5537 0
M  V30 759 H 72.936 1.31708 -0.841594 0
M  V30 760 H 73.671 3.09681 0.962726 0
M  V30 761 H 73.456 3.86928 -0.634727 0
M  V30 762 H 74.946 4.16445 0.310432 0
M  V30 763 N 75.3831 0.828654 1.34056 0
M  V30 764 C 76.3461 0.259927 2.27721 0
M  V30 765 C 77.3461 -0.565478 1.50529 0
M  V30 766 O 78.5361 -0.38075 1.69988 0
M  V30 767 C 75.6681 -0.634944 3.34935 0
M  V30 768 H 76.8611 1.0863 2.79534 0
M  V30 769 H 74.4141 0.600951 1.44285 0
M  V30 770 H 75.1491 -1.48416 2.88346 0
M  V30 771 H 74.9341 -0.0444999 3.92075 0
M  V30 772 H 76.4241 -1.02648 4.04788 0
M  V30 773 N 76.8612 -1.46375 0.584142 0
M  V30 774 C 78.1102 -2.01585 0.0679741 0
M  V30 775 C 78.4232 -1.46109 -1.30045 0
M  V30 776 O 79.6292 -1.93148 -1.90804 0
M  V30 777 C 78.0852 -3.5983 0.0709207 0
M  V30 778 C 77.6932 -4.24303 1.43775 0
M  V30 779 C 79.4372 -4.22693 -0.391228 0
M  V30 780 C 77.3442 -5.74631 1.39834 0
M  V30 781 H 76.2742 -0.753689 0.0216421 0
M  V30 782 H 78.9252 -1.68093 0.736001 0
M  V30 783 H 77.3072 -3.90405 -0.663299 0
M  V30 784 H 78.4812 -4.05335 2.19181 0
M  V30 785 H 76.7962 -3.73539 1.84004 0
M  V30 786 H 79.3932 -5.3289 -0.439524 0
M  V30 787 H 79.7362 -3.91728 -1.40906 0
M  V30 788 H 80.2692 -3.96749 0.288974 0
M  V30 789 H 77.0082 -6.10258 2.39303 0
M  V30 790 H 76.5282 -5.95858 0.686505 0
M  V30 791 H 78.2072 -6.37375 1.11187 0
M  V30 792 N 78.3393 -0.321999 -1.54275 0
M  V30 793 C 79.2863 0.544664 -2.24281 0
M  V30 794 C 80.2563 1.1129 -1.23303 0
M  V30 795 O 81.4413 1.15354 -1.51981 0
M  V30 796 C 78.5813 1.70045 -3.00298 0
M  V30 797 C 77.6943 1.16159 -4.1609 0
M  V30 798 C 76.8293 2.28293 -4.79641 0
M  V30 799 C 75.8683 1.71648 -5.8754 0
M  V30 800 N 75.0053 2.77438 -6.44959 0
M  V30 801 H 79.8453 -0.0588907 -2.97942 0
M  V30 802 H 77.3823 -0.0408345 -1.47043 0
M  V30 803 H 79.3403 2.38054 -3.42616 0
M  V30 804 H 77.9703 2.27531 -2.28975 0
M  V30 805 H 77.0223 0.373092 -3.78566 0
M  V30 806 H 78.3343 0.707087 -4.93763 0
M  V30 807 H 77.4883 3.0421 -5.2492 0
M  V30 808 H 76.2273 2.77079 -4.01346 0
M  V30 809 H 75.2323 0.942282 -5.41665 0
M  V30 810 H 76.4573 1.23741 -6.67731 0
M  V30 811 H 74.4033 3.25519 -5.69538 0
M  V30 812 H 74.3203 2.36547 -7.1804 0
M  V30 813 H 75.5883 3.53189 -6.94894 0
M  V30 814 N 79.8174 1.5752 -0.0501392 0
M  V30 815 C 81.0634 1.92936 0.624798 0
M  V30 816 C 81.3964 0.928685 1.70555 0
M  V30 817 O 80.6714 -0.0454779 1.94447 0
M  V30 818 C 80.9544 3.38737 1.22185 0
M  V30 819 C 80.8074 4.49552 0.149218 0
M  V30 820 C 82.1264 3.84913 2.13378 0
M  V30 821 H 79.2454 0.701604 0.225657 0
M  V30 822 H 81.8874 1.89671 -0.111693 0
M  V30 823 H 80.0374 3.4165 1.84953 0
M  V30 824 H 81.7094 4.58768 -0.482648 0
M  V30 825 H 79.9524 4.30638 -0.522841 0
M  V30 826 H 80.6234 5.48653 0.606966 0
M  V30 827 H 83.0994 3.8387 1.60572 0
M  V30 828 H 81.9754 4.87584 2.52097 0
M  V30 829 H 82.2364 3.21611 3.03346 0
M  V30 830 N 81.2955 -0.223234 1.56011 0
M  V30 831 C 82.2285 -1.30377 1.87289 0
M  V30 832 C 83.2065 -1.45286 0.730112 0
M  V30 833 O 84.3905 -1.61126 0.978302 0
M  V30 834 C 81.5175 -2.67431 2.07843 0
M  V30 835 C 80.5635 -2.69546 3.30526 0
M  V30 836 S 81.3965 -2.23781 4.865 0
M  V30 837 C 82.5525 -3.62714 5.10088 0
M  V30 838 H 82.7855 -1.03652 2.78646 0
M  V30 839 H 80.3185 -0.425393 1.48424 0
M  V30 840 H 82.2765 -3.46336 2.20368 0
M  V30 841 H 80.9375 -2.91381 1.17285 0
M  V30 842 H 80.1305 -3.70255 3.41947 0
M  V30 843 H 79.7325 -1.98703 3.16849 0
M  V30 844 H 82.0245 -4.58391 4.98883 0
M  V30 845 H 82.9675 -3.5621 6.11981 0
M  V30 846 H 83.3755 -3.56323 4.37829 0
M  V30 847 N 82.7736 -1.49793 -0.48987 0
M  V30 848 C 84.0506 -1.50348 -1.25119 0
M  V30 849 C 84.4306 -0.237466 -2.0976 0
M  V30 850 O 83.7786 0.77981 -2.14782 0
M  V30 851 C 83.9886 -2.78872 -2.09837 0
M  V30 852 C 85.3366 -3.288 -2.68655 0
M  V30 853 O 86.3606 -2.80065 -2.20096 0
M  V30 854 O 85.2196 -4.13707 -3.57083 0
M  V30 855 H 82.3136 -0.602242 -0.566775 0
M  V30 856 H 84.8596 -1.62067 -0.503229 0
M  V30 857 H 83.6316 -3.62499 -1.47343 0
M  V30 858 H 83.2546 -2.70066 -2.91805 0
M  V30 859 N 84.2517 0.741722 -1.39055 0
M  V30 860 C 85.4977 1.50336 -1.36113 0
M  V30 861 C 85.8307 1.94148 0.0450796 0
M  V30 862 O 85.1057 1.66301 1.00868 0
M  V30 863 C 85.3887 2.74773 -2.32749 0
M  V30 864 C 85.2417 2.37023 -3.82283 0
M  V30 865 C 86.5607 3.76846 -2.27322 0
M  V30 866 H 83.6797 0.545351 -0.495743 0
M  V30 867 H 86.3217 0.848624 -1.69995 0
M  V30 868 H 84.4717 3.30639 -2.03986 0
M  V30 869 H 86.1437 1.8684 -4.21768 0
M  V30 870 H 84.3867 1.69334 -3.99385 0
M  V30 871 H 85.0577 3.26104 -4.45376 0
M  V30 872 H 87.5337 3.30548 -2.5274 0
M  V30 873 H 86.4097 4.6159 -2.97028 0
M  V30 874 H 86.6707 4.23286 -1.27599 0
M  V30 875 N 85.7298 1.2412 0.971189 0
M  V30 876 C 86.9578 1.10575 1.74874 0
M  V30 877 C 87.3728 -0.342017 1.85676 0
M  V30 878 O 86.7298 -1.23617 1.34258 0
M  V30 879 C 86.7808 1.73579 3.171 0
M  V30 880 O 86.5018 3.12695 3.06844 0
M  V30 881 C 88.0028 1.65598 4.11208 0
M  V30 882 H 85.2228 0.386504 0.548503 0
M  V30 883 H 87.7668 1.64156 1.21955 0
M  V30 884 H 85.9218 1.24009 3.67016 0
M  V30 885 H 86.3358 3.43412 3.96445 0
M  V30 886 H 87.8098 2.1437 5.08674 0
M  V30 887 H 88.2868 0.616532 4.34851 0
M  V30 888 H 88.8928 2.14578 3.67201 0
M  V30 889 N 87.2079 -1.17134 1.05439 0
M  V30 890 C 88.4559 -1.87085 0.764429 0
M  V30 891 C 88.7769 -1.81584 -0.710787 0
M  V30 892 O 88.0469 -1.24349 -1.51374 0
M  V30 893 H 86.6269 -0.692627 0.279779 0
M  V30 894 H 89.2889 -1.42087 1.33406 0
M  V30 895 H 88.3849 -2.92759 1.0816 0
M  V30 896 N 88.686 -0.835752 -1.33615 0
M  V30 897 C 89.963 -0.352017 -1.92406 0
M  V30 898 C 90.343 1.16225 -1.76224 0
M  V30 899 O 89.691 1.97526 -1.14873 0
M  V30 900 C 89.901 -0.795485 -3.39813 0
M  V30 901 C 91.249 -0.801703 -4.16963 0
M  V30 902 O 92.273 -0.738889 -3.48452 0
M  V30 903 O 91.132 -0.886607 -5.3926 0
M  V30 904 H 88.226 -0.0989641 -0.821057 0
M  V30 905 H 90.772 -0.921397 -1.42507 0
M  V30 906 H 89.544 -1.83795 -3.45449 0
M  V30 907 H 89.167 -0.202505 -3.97084 0
M  V30 908 N 90.1641 1.46063 -0.591896 0
M  V30 909 C 91.0741 2.34192 0.13831 0
M  V30 910 C 92.0901 1.50305 0.876608 0
M  V30 911 O 93.2661 1.8315 0.837728 0
M  V30 912 C 90.3311 3.27656 1.13326 0
M  V30 913 C 89.3921 4.27445 0.39863 0
M  V30 914 C 88.6251 5.16443 1.34618 0
M  V30 915 O 88.8481 5.08553 2.58321 0
M  V30 916 O 87.7821 5.95843 0.851768 0
M  V30 917 H 91.6081 2.98002 -0.58552 0
M  V30 918 H 89.1931 1.45188 -0.352239 0
M  V30 919 H 91.0751 3.85291 1.70671 0
M  V30 920 H 89.7501 2.6643 1.83839 0
M  V30 921 H 88.6571 3.73471 -0.216895 0
M  V30 922 H 89.9901 4.91482 -0.265709 0
M  V30 923 N 91.6422 0.330177 1.54103 0
M  V30 924 C 92.5522 -0.541534 2.28264 0
M  V30 925 C 93.5682 -1.12351 1.32866 0
M  V30 926 O 94.7442 -1.14206 1.65888 0
M  V30 927 C 91.8092 -1.68322 3.03098 0
M  V30 928 C 90.8702 -1.13238 4.14096 0
M  V30 929 C 90.1032 -2.21966 4.85352 0
M  V30 930 O 90.3262 -3.42437 4.56172 0
M  V30 931 O 89.2602 -1.87013 5.7211 0
M  V30 932 H 93.0862 0.060938 3.03639 0
M  V30 933 H 90.6712 0.09565 1.49093 0
M  V30 934 H 92.5532 -2.34777 3.49939 0
M  V30 935 H 91.2282 -2.27176 2.30593 0
M  V30 936 H 90.1352 -0.432736 3.71589 0
M  V30 937 H 91.4682 -0.588898 4.88664 0
M  V30 938 N 93.1203 -1.57491 0.0584922 0
M  V30 939 C 94.0303 -2.15448 -0.928414 0
M  V30 940 C 95.0463 -1.11416 -1.3365 0
M  V30 941 O 96.2223 -1.4362 -1.41193 0
M  V30 942 C 93.2873 -2.69393 -2.18239 0
M  V30 943 C 92.3483 -3.88249 -1.83196 0
M  V30 944 C 91.5813 -4.39613 -3.02616 0
M  V30 945 O 91.8043 -3.90023 -4.16219 0
M  V30 946 O 90.7383 -5.31111 -2.83204 0
M  V30 947 H 94.5643 -3.00112 -0.465483 0
M  V30 948 H 92.1493 -1.48499 -0.163826 0
M  V30 949 H 94.0313 -3.04026 -2.91798 0
M  V30 950 H 92.7063 -1.87796 -2.63656 0
M  V30 951 H 91.6133 -3.58492 -1.06931 0
M  V30 952 H 92.9463 -4.71098 -1.42573 0
M  V30 953 N 94.5984 0.214957 -1.56127 0
M  V30 954 C 95.5084 1.28727 -1.96129 0
M  V30 955 C 96.5244 1.50916 -0.866044 0
M  V30 956 O 97.7004 1.63918 -1.17016 0
M  V30 957 C 94.7654 2.61569 -2.27558 0
M  V30 958 C 93.8264 2.47625 -3.50685 0
M  V30 959 C 93.0594 3.74132 -3.80606 0
M  V30 960 O 93.2824 4.77438 -3.12104 0
M  V30 961 O 92.2164 3.70849 -4.74083 0
M  V30 962 H 96.0424 0.977855 -2.87527 0
M  V30 963 H 93.6274 0.418358 -1.43423 0
M  V30 964 H 95.5094 3.40012 -2.48938 0
M  V30 965 H 94.1844 2.92178 -1.39332 0
M  V30 966 H 93.0914 1.67361 -3.34576 0
M  V30 967 H 94.4244 2.21954 -4.39315 0
M  V30 968 N 96.0765 1.50051 0.48192 0
M  V30 969 C 97.3255 1.59741 1.23149 0
M  V30 970 C 97.6385 0.298163 1.93314 0
M  V30 971 O 98.8445 0.273835 2.70116 0
M  V30 972 C 97.3005 2.81926 2.23708 0
M  V30 973 C 96.9085 4.18685 1.59396 0
M  V30 974 C 98.6525 3.00956 2.99375 0
M  V30 975 C 96.5595 5.3207 2.58178 0
M  V30 976 H 95.4895 0.594838 0.46334 0
M  V30 977 H 98.1405 1.76467 0.503169 0
M  V30 978 H 96.5225 2.58736 2.99786 0
M  V30 979 H 97.6965 4.52088 0.891811 0
M  V30 980 H 96.0115 4.05171 0.960503 0
M  V30 981 H 98.6085 3.82836 3.73283 0
M  V30 982 H 98.9515 2.12258 3.58123 0
M  V30 983 H 99.4845 3.24277 2.30411 0
M  V30 984 H 96.2235 6.22888 2.04184 0
M  V30 985 H 95.7435 5.03098 3.26577 0
M  V30 986 H 97.4225 5.62196 3.20225 0
M  V30 987 N 97.5546 -0.734337 1.39446 0
M  V30 988 C 98.5016 -1.84835 1.38219 0
M  V30 989 C 99.4716 -1.64331 0.24179 0
M  V30 990 O 100.657 -1.85728 0.437002 0
M  V30 991 C 97.7966 -3.22355 1.23212 0
M  V30 992 C 96.9096 -3.5456 2.46801 0
M  V30 993 C 96.0446 -4.81485 2.24377 0
M  V30 994 C 95.0836 -5.06536 3.43639 0
M  V30 995 N 94.2206 -6.24665 3.20528 0
M  V30 996 H 99.0606 -1.85219 2.33448 0
M  V30 997 H 96.5976 -0.905039 1.15963 0
M  V30 998 H 98.5556 -4.0174 1.12522 0
M  V30 999 H 97.1856 -3.21248 0.316121 0
M  V30 1000 H 96.2376 -2.69872 2.68092 0
M  V30 1001 H 97.5496 -3.6899 3.3563 0
M  V30 1002 H 96.7036 -5.68852 2.10933 0
M  V30 1003 H 95.4426 -4.6923 1.32944 0
M  V30 1004 H 94.4476 -4.17632 3.5758 0
M  V30 1005 H 95.6726 -5.20676 4.35974 0
M  V30 1006 H 93.6186 -6.13696 2.3176 0
M  V30 1007 H 93.5356 -6.39685 4.02913 0
M  V30 1008 H 94.8036 -7.14868 3.10779 0
M  V30 1009 N 99.0327 -1.24633 -0.964593 0
M  V30 1010 C 99.9647 -0.999302 -2.06268 0
M  V30 1011 C 100.978 0.0323226 -1.62768 0
M  V30 1012 O 102.167 -0.205079 -1.77318 0
M  V30 1013 C 99.2667 -0.486816 -3.35385 0
M  V30 1014 C 98.4397 -1.5823 -4.07777 0
M  V30 1015 C 97.4987 -1.07191 -5.15166 0
M  V30 1016 O 96.5247 -1.76426 -5.41168 0
M  V30 1017 N 97.7267 0.0920373 -5.80427 0
M  V30 1018 H 100.492 -1.94477 -2.28033 0
M  V30 1019 H 98.0527 -1.15704 -1.13244 0
M  V30 1020 H 100.045 -0.130066 -4.04491 0
M  V30 1021 H 98.6147 0.364459 -3.10468 0
M  V30 1022 H 97.8347 -2.11109 -3.32906 0
M  V30 1023 H 99.1227 -2.31854 -4.52903 0
M  V30 1024 H 98.5207 0.670784 -5.61709 0
M  V30 1025 H 97.0777 0.389905 -6.50633 0
M  V30 1026 N 100.511 1.16574 -1.06058 0
M  V30 1027 C 101.421 2.2452 -0.680282 0
M  V30 1028 C 102.437 1.71348 0.302604 0
M  V30 1029 O 103.613 2.00822 0.152513 0
M  V30 1030 C 100.678 3.46629 -0.0700315 0
M  V30 1031 C 99.7388 4.14849 -1.10448 0
M  V30 1032 C 98.9718 5.31129 -0.523256 0
M  V30 1033 O 99.1948 5.66514 0.664709 0
M  V30 1034 O 98.1288 5.88526 -1.26179 0
M  V30 1035 H 101.955 2.59355 -1.58015 0
M  V30 1036 H 99.5398 1.24043 -0.832694 0
M  V30 1037 H 101.422 4.20543 0.268667 0
M  V30 1038 H 100.097 3.13573 0.803353 0
M  V30 1039 H 99.0038 3.42916 -1.49532 0
M  V30 1040 H 100.337 4.51954 -1.94931 0
M  V30 1041 N 101.989 0.842826 1.3317 0
M  V30 1042 C 103.238 0.436738 1.96915 0
M  V30 1043 C 103.551 -1.01025 1.67491 0
M  V30 1044 O 104.757 -1.5212 2.24881 0
M  V30 1045 C 103.213 0.730021 3.52418 0
M  V30 1046 C 102.821 2.19195 3.90714 0
M  V30 1047 C 104.565 0.391076 4.22695 0
M  V30 1048 C 102.472 2.42907 5.39212 0
M  V30 1049 H 101.402 0.15958 0.736919 0
M  V30 1050 H 104.053 1.03196 1.51733 0
M  V30 1051 H 102.435 0.0643755 3.95948 0
M  V30 1052 H 103.609 2.8984 3.58231 0
M  V30 1053 H 101.924 2.49425 3.33431 0
M  V30 1054 H 104.521 0.545817 5.31907 0
M  V30 1055 H 104.864 -0.666294 4.10933 0
M  V30 1056 H 105.397 1.01212 3.84709 0
M  V30 1057 H 102.136 3.47224 5.55982 0
M  V30 1058 H 101.656 1.76827 5.73142 0
M  V30 1059 H 103.335 2.2626 6.06148 0
M  V30 1060 N 103.467 -1.45747 0.599634 0
M  V30 1061 C 104.415 -2.322 -0.136426 0
M  V30 1062 C 105.409 -1.45497 -0.867583 0
M  V30 1063 O 106.615 -1.62027 -0.78405 0
M  V30 1064 H 102.99 -0.749368 -0.0628588 0
M  V30 1065 H 104.961 -2.92072 0.611281 0
M  V30 1066 C 103.71 -3.28974 -1.12567 0
M  V30 1067 H 103.033 -3.9568 -0.572484 0
M  V30 1068 H 104.473 -3.92212 -1.61077 0
M  V30 1069 C 102.932 -2.55561 -2.19523 0
M  V30 1070 O 103.462 -2.33111 -3.27143 0
M  V30 1071 N 101.668 -2.15832 -1.94589 0
M  V30 1072 H 101.215 -2.3429 -1.07078 0
M  V30 1073 H 101.173 -1.67034 -2.66359 0
M  V30 1074 N 104.945 -0.338344 -1.53925 0
M  V30 1075 C 105.878 0.563758 -2.21127 0
M  V30 1076 C 106.856 1.10433 -1.19345 0
M  V30 1077 O 108.04 1.16557 -1.48144 0
M  V30 1078 C 105.167 1.77505 -2.88461 0
M  V30 1079 C 104.213 1.3644 -4.04087 0
M  V30 1080 S 105.046 0.388593 -5.34088 0
M  V30 1081 C 106.202 1.60683 -6.04923 0
M  V30 1082 H 106.435 -0.00704546 -2.97299 0
M  V30 1083 H 103.968 -0.122418 -1.53914 0
M  V30 1084 H 105.926 2.46999 -3.27875 0
M  V30 1085 H 104.587 2.31706 -2.12064 0
M  V30 1086 H 103.78 2.26739 -4.50117 0
M  V30 1087 H 103.382 0.748998 -3.66423 0
M  V30 1088 H 105.674 2.54209 -6.28 0
M  V30 1089 H 106.617 1.18842 -6.98056 0
M  V30 1090 H 107.025 1.80052 -5.35015 0
M  V30 1091 N 106.423 1.57458 -0.0668435 0
M  V30 1092 C 107.353 2.15468 0.899764 0
M  V30 1093 C 108.334 1.08042 1.31381 0
M  V30 1094 O 109.519 1.36054 1.38574 0
M  V30 1095 C 106.649 2.71232 2.16911 0
M  V30 1096 C 105.603 3.83781 1.89463 0
M  V30 1097 C 104.929 4.26127 3.22986 0
M  V30 1098 C 106.229 5.08238 1.20381 0
M  V30 1099 H 107.923 2.96488 0.416529 0
M  V30 1100 H 105.469 1.4262 0.198908 0
M  V30 1101 H 107.422 3.10458 2.84945 0
M  V30 1102 H 106.146 1.87426 2.67468 0
M  V30 1103 H 104.805 3.45051 1.23836 0
M  V30 1104 H 104.453 3.39249 3.71374 0
M  V30 1105 H 104.153 5.01993 3.05413 0
M  V30 1106 H 105.677 4.67966 3.92225 0
M  V30 1107 H 107.091 5.44811 1.78475 0
M  V30 1108 H 105.488 5.89349 1.13083 0
M  V30 1109 H 106.558 4.84558 0.182153 0
M  V30 1110 N 107.901 -0.206675 1.56239 0
M  V30 1111 C 108.848 -1.25617 1.93621 0
M  V30 1112 C 109.818 -1.45824 0.795274 0
M  V30 1113 O 111.003 -1.59148 1.05245 0
M  V30 1114 C 108.143 -2.59839 2.27107 0
M  V30 1115 C 107.256 -2.47308 3.54207 0
M  V30 1116 C 106.391 -3.74155 3.7707 0
M  V30 1117 C 105.43 -3.56407 4.97635 0
M  V30 1118 N 104.567 -4.75238 5.1681 0
M  V30 1119 H 109.407 -0.930383 2.83104 0
M  V30 1120 H 106.944 -0.448065 1.4011 0
M  V30 1121 H 108.902 -3.38021 2.44535 0
M  V30 1122 H 107.532 -2.90485 1.40778 0
M  V30 1123 H 106.584 -1.60483 3.4489 0
M  V30 1124 H 107.896 -2.30122 4.42544 0
M  V30 1125 H 107.05 -4.60778 3.94675 0
M  V30 1126 H 105.789 -3.94282 2.87042 0
M  V30 1127 H 104.794 -2.68168 4.79964 0
M  V30 1128 H 106.019 -3.37736 5.89161 0
M  V30 1129 H 103.965 -4.95651 4.29728 0
M  V30 1130 H 103.882 -4.60835 5.99306 0
M  V30 1131 H 105.15 -5.63246 5.38864 0
M  V30 1132 N 109.379 -1.50304 -0.473955 0
M  V30 1133 C 110.326 -1.68959 -1.57231 0
M  V30 1134 C 111.296 -0.530899 -1.57387 0
M  V30 1135 O 112.481 -0.761133 -1.74961 0
M  V30 1136 C 109.621 -1.7871 -2.95223 0
M  V30 1137 C 108.734 -3.06061 -3.04878 0
M  V30 1138 C 107.869 -3.06626 -4.33767 0
M  V30 1139 C 106.908 -4.28443 -4.37154 0
M  V30 1140 N 106.045 -4.26763 -5.5751 0
M  V30 1141 H 110.885 -2.6273 -1.40631 0
M  V30 1142 H 108.422 -1.30241 -0.683789 0
M  V30 1143 H 110.38 -1.82344 -3.75242 0
M  V30 1144 H 109.01 -0.883806 -3.10465 0
M  V30 1145 H 108.062 -3.11911 -2.17751 0
M  V30 1146 H 109.374 -3.96039 -3.0324 0
M  V30 1147 H 108.528 -3.08973 -5.22131 0
M  V30 1148 H 107.267 -2.14473 -4.3801 0
M  V30 1149 H 106.272 -4.2631 -3.47188 0
M  V30 1150 H 107.497 -5.2182 -4.34605 0
M  V30 1151 H 105.443 -3.37462 -5.62544 0
M  V30 1152 H 105.36 -5.10507 -5.57601 0
M  V30 1153 H 106.628 -4.33253 -6.48006 0
M  V30 1154 N 110.857 0.726932 -1.39834 0
M  V30 1155 C 112.087 1.51393 -1.40583 0
M  V30 1156 C 112.495 1.892 -0.000740625 0
M  V30 1157 O 111.838 1.55189 0.982951 0
M  V30 1158 C 111.9 2.82588 -2.22226 0
M  V30 1159 C 111.564 2.67169 -3.70769 0
M  V30 1160 C 112.561 2.3518 -4.63666 0
M  V30 1161 C 110.246 2.83788 -4.14451 0
M  V30 1162 C 112.24 2.20002 -5.98229 0
M  V30 1163 C 109.927 2.68229 -5.49087 0
M  V30 1164 C 110.925 2.36382 -6.4079 0
M  V30 1165 O 110.613 2.2093 -7.72946 0
M  V30 1166 H 110.345 0.474168 -0.48181 0
M  V30 1167 H 112.899 0.905247 -1.84376 0
M  V30 1168 H 111.129 3.45746 -1.73195 0
M  V30 1169 H 112.818 3.44247 -2.15055 0
M  V30 1170 H 113.584 2.21984 -4.31217 0
M  V30 1171 H 109.463 3.07566 -3.43401 0
M  V30 1172 H 113.007 1.95067 -6.69772 0
M  V30 1173 H 108.904 2.81006 -5.81125 0
M  V30 1174 H 109.672 2.35937 -7.83757 0
M  V30 1175 N 112.336 1.25143 0.95797 0
M  V30 1176 C 113.561 1.12521 1.74223 0
M  V30 1177 C 113.986 -0.317402 1.85403 0
M  V30 1178 O 113.344 -1.2299 1.33204 0
M  V30 1179 C 113.392 1.78062 3.1357 0
M  V30 1180 O 112.496 1.058 3.98598 0
M  V30 1181 H 111.837 0.39304 0.535178 0
M  V30 1182 H 114.367 1.65641 1.201 0
M  V30 1183 H 114.377 1.84213 3.64046 0
M  V30 1184 H 113.052 2.83021 3.04749 0
M  V30 1185 H 111.629 1.07506 3.57067 0
M  V30 1186 N 113.814 -1.1601 1.06675 0
M  V30 1187 C 114.764 -2.18512 0.650888 0
M  V30 1188 C 115.748 -1.57677 -0.320441 0
M  V30 1189 O 116.94 -1.76482 -0.135266 0
M  V30 1190 C 114.069 -3.43273 0.0429255 0
M  V30 1191 C 113.155 -4.11176 1.03898 0
M  V30 1192 N 113.546 -4.54672 2.216 0
M  V30 1193 C 111.844 -4.37417 0.870779 0
M  V30 1194 C 112.545 -5.07248 2.84736 0
M  V30 1195 N 111.521 -5.0037 2.12441 0
M  V30 1196 H 115.323 -2.49863 1.54745 0
M  V30 1197 H 112.837 -1.32503 0.938975 0
M  V30 1198 H 114.834 -4.16006 -0.272857 0
M  V30 1199 H 113.494 -3.13408 -0.84884 0
M  V30 1200 H 114.505 -4.4828 2.59356 0
M  V30 1201 H 111.182 -4.17488 0.0313293 0
M  V30 1202 H 112.572 -5.50912 3.84636 0
M  V30 1203 N 115.292 -0.849877 -1.32721 0
M  V30 1204 C 116.242 -0.262892 -2.26479 0
M  V30 1205 C 117.226 0.588493 -1.49752 0
M  V30 1206 O 118.418 0.438659 -1.71478 0
M  V30 1207 C 115.547 0.551818 -3.38836 0
M  V30 1208 C 114.633 -0.311689 -4.22953 0
M  V30 1209 N 115.024 -1.39567 -4.86163 0
M  V30 1210 C 113.322 -0.100611 -4.45887 0
M  V30 1211 C 114.023 -1.92651 -5.48872 0
M  V30 1212 N 112.999 -1.22637 -5.29586 0
M  V30 1213 H 116.801 -1.09166 -2.72873 0
M  V30 1214 H 114.315 -0.695486 -1.46754 0
M  V30 1215 H 116.312 0.988713 -4.05006 0
M  V30 1216 H 114.972 1.37844 -2.93988 0
M  V30 1217 H 115.983 -1.77859 -4.86402 0
M  V30 1218 H 112.66 0.691681 -4.11731 0
M  V30 1219 H 114.05 -2.83487 -6.09167 0
M  V30 1220 N 116.77 1.45427 -0.607355 0
M  V30 1221 C 118.186 1.57283 -0.270985 0
M  V30 1222 C 118.386 1.59875 1.22647 0
M  V30 1223 O 117.442 1.52893 2.00948 0
M  V30 1224 C 118.755 2.85566 -0.941952 0
M  V30 1225 C 120.303 2.9924 -0.917849 0
M  V30 1226 C 120.778 4.30293 -1.56882 0
M  V30 1227 N 122.269 4.37051 -1.5343 0
M  V30 1228 C 123.004 5.37123 -2.00715 0
M  V30 1229 N 122.5 6.43734 -2.56084 0
M  V30 1230 N 124.293 5.28479 -1.91484 0
M  V30 1231 H 116.444 1.41988 -1.57966 0
M  V30 1232 H 118.707 0.67885 -0.661715 0
M  V30 1233 H 118.413 2.8955 -1.99633 0
M  V30 1234 H 118.287 3.74322 -0.465096 0
M  V30 1235 H 120.674 2.94822 0.127984 0
M  V30 1236 H 120.755 2.11895 -1.43297 0
M  V30 1237 H 120.399 4.35469 -2.61398 0
M  V30 1238 H 120.329 5.16454 -1.02873 0
M  V30 1239 H 122.82 3.60615 -1.12982 0
M  V30 1240 H 123.133 7.16341 -2.89958 0
M  V30 1241 H 121.478 6.44485 -2.60122 0
M  V30 1242 H 124.669 4.44098 -1.47967 0
M  V30 1243 H 124.842 6.0632 -2.28648 0
M  V30 1244 N 118.248 0.346503 1.53744 0
M  V30 1245 C 119.196 -0.52422 2.26616 0
M  V30 1246 C 120.19 -1.09948 1.28871 0
M  V30 1247 O 121.396 -1.04488 1.46568 0
M  V30 1248 H 117.771 -0.187743 0.728187 0
M  V30 1249 H 119.742 0.11239 2.98188 0
M  V30 1250 C 118.491 -1.66186 3.05414 0
M  V30 1251 H 117.814 -1.22848 3.80458 0
M  V30 1252 H 119.254 -2.24622 3.59612 0
M  V30 1253 C 117.713 -2.59302 2.1509 0
M  V30 1254 O 118.243 -3.61628 1.74895 0
M  V30 1255 N 116.449 -2.28055 1.8011 0
M  V30 1256 H 115.996 -1.44883 2.12994 0
M  V30 1257 H 115.954 -2.90615 1.19958 0
M  V30 1258 N 119.726 -1.57421 0.075193 0
M  V30 1259 C 120.975 -1.92794 -0.592731 0
M  V30 1260 C 121.288 -0.957478 -1.70563 0
M  V30 1261 O 122.494 -1.20417 -2.43335 0
M  V30 1262 C 120.95 -3.42495 -1.10569 0
M  V30 1263 C 120.558 -4.47994 -0.0236121 0
M  V30 1264 C 122.302 -3.86864 -1.74748 0
M  V30 1265 C 120.209 -5.88829 -0.550803 0
M  V30 1266 H 119.139 -0.719591 -0.225177 0
M  V30 1267 H 121.79 -1.82902 0.147978 0
M  V30 1268 H 120.172 -3.47471 -1.89947 0
M  V30 1269 H 121.346 -4.54637 0.751099 0
M  V30 1270 H 119.661 -4.13113 0.522159 0
M  V30 1271 H 122.258 -4.8947 -2.15229 0
M  V30 1272 H 122.601 -3.24417 -2.60882 0
M  V30 1273 H 123.134 -3.84504 -1.01986 0
M  V30 1274 H 119.873 -6.54929 0.273457 0
M  V30 1275 H 119.393 -5.85698 -1.29296 0
M  V30 1276 H 121.072 -6.38811 -1.02613 0
M  V30 1277 N 121.204 0.198386 -1.56346 0
M  V30 1278 C 122.167 1.22952 -1.93431 0
M  V30 1279 C 123.167 1.38611 -0.815092 0
M  V30 1280 O 124.357 1.36479 -1.08255 0
M  V30 1281 C 121.489 2.59946 -2.20546 0
M  V30 1282 H 122.682 0.912626 -2.85677 0
M  V30 1283 H 120.235 0.43977 -1.49986 0
M  V30 1284 H 120.97 2.96696 -1.30927 0
M  V30 1285 H 120.755 2.49953 -3.02102 0
M  V30 1286 H 122.245 3.3431 -2.50253 0
M  V30 1287 N 122.682 1.50554 0.465978 0
M  V30 1288 C 123.91 1.65563 1.24083 0
M  V30 1289 C 124.325 0.341051 1.85694 0
M  V30 1290 O 123.682 -0.677543 1.69457 0
M  V30 1291 C 123.733 2.75051 2.34583 0
M  V30 1292 O 123.454 4.01413 1.75497 0
M  V30 1293 C 124.955 3.01078 3.25372 0
M  V30 1294 H 122.175 0.55638 0.375077 0
M  V30 1295 H 124.719 1.96807 0.555624 0
M  V30 1296 H 122.874 2.46486 2.9887 0
M  V30 1297 H 123.288 4.62002 2.48303 0
M  V30 1298 H 124.762 3.81339 3.99105 0
M  V30 1299 H 125.239 2.12349 3.84453 0
M  V30 1300 H 125.845 3.31194 2.66816 0
M  V30 1301 N 124.16 -0.719506 1.40217 0
M  V30 1302 C 125.39 -1.50646 1.41384 0
M  V30 1303 C 125.798 -1.89197 0.0107743 0
M  V30 1304 O 125.141 -1.55709 -0.974708 0
M  V30 1305 C 125.203 -2.81405 2.23722 0
M  V30 1306 C 124.867 -2.65199 3.72181 0
M  V30 1307 C 125.864 -2.32717 4.64907 0
M  V30 1308 C 123.549 -2.81586 4.1595 0
M  V30 1309 C 125.543 -2.16827 5.99387 0
M  V30 1310 C 123.23 -2.65313 5.50502 0
M  V30 1311 C 124.228 -2.32981 6.42035 0
M  V30 1312 O 123.916 -2.16827 7.74107 0
M  V30 1313 H 123.648 -0.471606 0.484318 0
M  V30 1314 H 126.202 -0.895456 1.84853 0
M  V30 1315 H 124.432 -3.44823 1.75026 0
M  V30 1316 H 126.121 -3.43102 2.16878 0
M  V30 1317 H 126.887 -2.19694 4.32388 0
M  V30 1318 H 122.766 -3.0574 3.45027 0
M  V30 1319 H 126.31 -1.91513 6.70797 0
M  V30 1320 H 122.207 -2.7792 5.82607 0
M  V30 1321 H 122.975 -2.31778 7.84998 0
M  V30 1322 N 125.638 -1.25649 -0.95132 0
M  V30 1323 C 126.868 -1.13179 -1.72841 0
M  V30 1324 C 127.276 0.316827 -1.86528 0
M  V30 1325 O 126.619 1.22948 -1.3649 0
M  V30 1326 C 126.681 -1.71644 -3.15878 0
M  V30 1327 C 126.345 -3.20667 -3.25609 0
M  V30 1328 C 127.342 -4.17616 -3.09666 0
M  V30 1329 C 125.027 -3.6094 -3.49324 0
M  V30 1330 C 127.021 -5.52817 -3.17289 0
M  V30 1331 C 124.708 -4.96278 -3.56584 0
M  V30 1332 C 125.706 -5.92025 -3.40581 0
M  V30 1333 O 125.394 -7.24899 -3.47528 0
M  V30 1334 H 125.126 -0.395389 -0.54831 0
M  V30 1335 H 127.68 -1.66566 -1.20187 0
M  V30 1336 H 125.91 -1.12707 -3.69911 0
M  V30 1337 H 127.599 -1.54225 -3.75459 0
M  V30 1338 H 128.365 -3.87842 -2.91211 0
M  V30 1339 H 124.244 -2.86907 -3.6084 0
M  V30 1340 H 127.788 -6.2753 -3.04716 0
M  V30 1341 H 123.685 -5.25716 -3.74556 0
M  V30 1342 H 124.453 -7.33039 -3.64138 0
M  V30 1343 N 127.117 1.15442 -1.07289 0
M  V30 1344 C 128.365 1.85845 -0.794096 0
M  V30 1345 C 128.686 1.82692 0.681809 0
M  V30 1346 O 127.956 1.26741 1.49377 0
M  V30 1347 H 126.536 0.688089 -0.290763 0
M  V30 1348 H 129.198 1.39947 -1.3565 0
M  V30 1349 H 128.294 2.91001 -1.12804 0
M  V30 1350 N 128.595 0.856903 1.32268 0
M  V30 1351 C 129.558 0.308171 2.27119 0
M  V30 1352 C 130.558 -0.533421 1.51695 0
M  V30 1353 O 131.748 -0.344607 1.70757 0
M  V30 1354 C 128.88 -0.563757 3.36206 0
M  V30 1355 H 130.073 1.14535 2.77167 0
M  V30 1356 H 127.626 0.631421 1.42978 0
M  V30 1357 H 128.361 -1.42266 2.91429 0
M  V30 1358 H 128.146 0.0386749 3.92081 0
M  V30 1359 H 129.636 -0.940386 4.06874 0
M  V30 1360 N 130.073 -1.45103 0.615059 0
M  V30 1361 C 131.32 -2.02183 0.113179 0
M  V30 1362 C 131.648 -1.48249 -1.25906 0
M  V30 1363 O 130.903 -0.650265 -1.84581 0
M  V30 1364 C 131.202 -3.57386 0.0318797 0
M  V30 1365 C 130.868 -4.30505 1.34077 0
M  V30 1366 C 129.53 -4.50197 1.69929 0
M  V30 1367 C 131.882 -4.72238 2.20546 0
M  V30 1368 C 129.21 -5.08881 2.91988 0
M  V30 1369 C 131.562 -5.32272 3.41861 0
M  V30 1370 C 130.226 -5.50187 3.77956 0
M  V30 1371 H 129.496 -0.739842 0.0414151 0
M  V30 1372 H 132.143 -1.74073 0.798168 0
M  V30 1373 H 130.448 -3.84817 -0.736409 0
M  V30 1374 H 132.145 -3.99264 -0.372712 0
M  V30 1375 H 128.735 -4.15496 1.05173 0
M  V30 1376 H 132.919 -4.56751 1.94146 0
M  V30 1377 H 128.175 -5.20939 3.2005 0
M  V30 1378 H 132.349 -5.63563 4.09109 0
M  V30 1379 H 129.976 -5.95427 4.72622 0
M  V30 1380 N 131.551 -0.354651 -1.53558 0
M  V30 1381 C 132.8 0.239504 -2.00273 0
M  V30 1382 C 133.113 1.50759 -1.24623 0
M  V30 1383 O 134.319 2.17968 -1.61871 0
M  V30 1384 C 132.775 0.477341 -3.5672 0
M  V30 1385 C 132.383 -0.775488 -4.41237 0
M  V30 1386 C 134.127 1.02975 -4.11821 0
M  V30 1387 C 132.034 -0.507838 -5.89216 0
M  V30 1388 H 130.964 0.0932743 -0.748208 0
M  V30 1389 H 133.615 -0.471701 -1.77334 0
M  V30 1390 H 131.997 1.24953 -3.7577 0
M  V30 1391 H 133.171 -1.54963 -4.33962 0
M  V30 1392 H 131.486 -1.25033 -3.97185 0
M  V30 1393 H 134.083 1.24513 -5.2 0
M  V30 1394 H 134.426 1.98862 -3.65731 0
M  V30 1395 H 134.959 0.317994 -3.96527 0
M  V30 1396 H 131.698 -1.43674 -6.39561 0
M  V30 1397 H 131.218 0.228011 -5.99366 0
M  V30 1398 H 132.897 -0.129238 -6.46871 0
M  V30 1399 N 133.029 1.57378 -0.0835403 0
M  V30 1400 C 133.976 2.13384 0.879539 0
M  V30 1401 C 134.946 1.04936 1.28754 0
M  V30 1402 O 136.131 1.32662 1.37133 0
M  V30 1403 C 133.271 2.70932 2.13752 0
M  V30 1404 C 132.384 3.93575 1.7811 0
M  V30 1405 C 131.519 4.39326 2.98607 0
M  V30 1406 C 130.558 5.54587 2.59037 0
M  V30 1407 N 129.695 5.95243 3.72331 0
M  V30 1408 H 134.535 2.9537 0.395076 0
M  V30 1409 H 132.072 1.45953 0.183349 0
M  V30 1410 H 134.03 3.02411 2.87408 0
M  V30 1411 H 132.66 1.91693 2.59718 0
M  V30 1412 H 131.712 3.68483 0.94469 0
M  V30 1413 H 133.024 4.77258 1.45005 0
M  V30 1414 H 132.178 4.72528 3.80529 0
M  V30 1415 H 130.917 3.5452 3.34913 0
M  V30 1416 H 129.922 5.21024 1.75539 0
M  V30 1417 H 131.147 6.41133 2.23887 0
M  V30 1418 H 129.093 5.13385 4.08378 0
M  V30 1419 H 129.01 6.73694 3.43034 0
M  V30 1420 H 130.278 6.33072 4.54797 0
M  V30 1421 N 134.507 -0.190092 1.56449 0
M  V30 1422 C 135.454 -1.23557 1.94942 0
M  V30 1423 C 136.424 -1.44972 0.810696 0
M  V30 1424 O 137.609 -1.58023 1.06927 0
M  V30 1425 C 134.749 -2.57416 2.2985 0
M  V30 1426 C 133.862 -2.43537 3.5681 0
M  V30 1427 C 132.997 -3.70134 3.81017 0
M  V30 1428 C 132.036 -3.51109 5.01387 0
M  V30 1429 N 131.173 -4.6973 5.21822 0
M  V30 1430 H 136.013 -0.900304 2.84075 0
M  V30 1431 H 133.55 -0.43318 1.40577 0
M  V30 1432 H 135.508 -3.35409 2.48106 0
M  V30 1433 H 134.138 -2.88975 1.43852 0
M  V30 1434 H 133.19 -1.56816 3.46573 0
M  V30 1435 H 134.502 -2.25415 4.4496 0
M  V30 1436 H 133.656 -4.56566 3.9954 0
M  V30 1437 H 132.395 -3.91215 2.91207 0
M  V30 1438 H 131.4 -2.63063 4.82782 0
M  V30 1439 H 132.625 -3.31468 5.9271 0
M  V30 1440 H 130.571 -4.91065 4.34961 0
M  V30 1441 H 130.488 -4.54452 6.0416 0
M  V30 1442 H 131.756 -5.57499 5.44808 0
M  V30 1443 N 135.985 -1.50799 -0.457987 0
M  V30 1444 C 136.933 -1.71162 -1.575 0
M  V30 1445 C 137.927 -0.577592 -1.59249 0
M  V30 1446 O 139.133 -0.758443 -1.63241 0
M  V30 1447 H 135.508 -0.540468 -0.522875 0
M  V30 1448 H 137.479 -2.64837 -1.37492 0
M  V30 1449 C 136.228 -1.83496 -2.95338 0
M  V30 1450 H 135.551 -2.70153 -2.94716 0
M  V30 1451 H 136.991 -2.01765 -3.72917 0
M  V30 1452 C 135.45 -0.589694 -3.31699 0
M  V30 1453 O 135.98 0.265163 -4.00824 0
M  V30 1454 N 134.186 -0.439845 -2.87252 0
M  V30 1455 H 133.733 -1.13655 -2.31172 0
M  V30 1456 H 133.691 0.392159 -3.11945 0
M  V30 1457 N 137.463 0.71206 -1.40597 0
M  V30 1458 C 138.874 1.29135 -1.34837 0
M  V30 1459 C 139.225 1.96186 -0.0235395 0
M  V30 1460 O 138.35 1.97768 0.878444 0
M  V30 1461 C 138.945 2.34827 -2.44217 0
M  V30 1462 C 137.504 2.88371 -2.41907 0
M  V30 1463 C 136.651 1.62202 -2.24913 0
M  V30 1464 H 139.602 0.507944 -1.50352 0
M  V30 1465 H 139.623 3.15749 -2.12327 0
M  V30 1466 H 139.135 1.85996 -3.40627 0
M  V30 1467 H 137.236 3.41422 -1.49204 0
M  V30 1468 H 137.349 3.39925 -3.37621 0
M  V30 1469 H 135.713 1.874 -1.72492 0
M  V30 1470 H 136.496 1.15391 -3.23326 0
M  V30 1471 N 138.941 1.26152 0.944643 0
M  V30 1472 C 140.352 1.10454 1.50522 0
M  V30 1473 C 140.703 -0.31635 1.93633 0
M  V30 1474 O 139.828 -1.20746 1.79581 0
M  V30 1475 C 140.423 1.99891 2.73549 0
M  V30 1476 C 138.982 1.88348 3.25886 0
M  V30 1477 C 138.129 1.93447 1.9868 0
M  V30 1478 H 141.08 1.39292 0.760489 0
M  V30 1479 H 141.101 1.54477 3.47732 0
M  V30 1480 H 140.613 3.03297 2.42141 0
M  V30 1481 H 138.714 0.878636 3.62092 0
M  V30 1482 H 138.827 2.73696 3.93227 0
M  V30 1483 H 137.191 1.37456 2.14425 0
M  V30 1484 H 137.974 2.98476 1.69607 0
M  V30 1485 N 140.419 -1.14872 1.07899 0
M  V30 1486 C 141.667 -1.85422 0.803941 0
M  V30 1487 C 141.988 -1.83051 -0.67211 0
M  V30 1488 O 141.258 -1.27532 -1.48703 0
M  V30 1489 H 139.838 -0.686537 0.294408 0
M  V30 1490 H 142.5 -1.39226 1.3639 0
M  V30 1491 H 141.596 -2.90399 1.14346 0
M  V30 1492 N 141.898 -0.863906 -1.31812 0
M  V30 1493 C 142.831 -0.259963 -2.26714 0
M  V30 1494 C 143.809 0.607392 -1.50829 0
M  V30 1495 O 144.993 0.562155 -1.79922 0
M  V30 1496 C 142.12 0.632456 -3.32743 0
M  V30 1497 C 141.166 -0.162743 -4.26189 0
M  V30 1498 S 141.999 -1.53726 -5.12961 0
M  V30 1499 C 143.155 -0.650803 -6.22507 0
M  V30 1500 H 143.388 -1.06445 -2.77591 0
M  V30 1501 H 140.921 -0.662071 -1.39485 0
M  V30 1502 H 142.879 1.14167 -3.94305 0
M  V30 1503 H 141.54 1.41083 -2.80632 0
M  V30 1504 H 140.733 0.517366 -5.01338 0
M  V30 1505 H 140.335 -0.60385 -3.69093 0
M  V30 1506 H 142.627 0.141134 -6.77353 0
M  V30 1507 H 143.57 -1.37322 -6.94657 0
M  V30 1508 H 143.978 -0.221041 -5.64067 0
M  V30 1509 N 143.376 1.44774 -0.622745 0
M  V30 1510 C 144.653 1.95522 -0.0551974 0
M  V30 1511 C 145.033 1.5649 1.41683 0
M  V30 1512 O 144.381 0.834848 2.12703 0
M  V30 1513 C 144.591 3.4796 -0.269242 0
M  V30 1514 C 145.939 4.24306 -0.158014 0
M  V30 1515 O 146.963 3.55637 -0.200162 0
M  V30 1516 O 145.822 5.46471 -0.0558693 0
M  V30 1517 H 142.916 0.826556 0.0271015 0
M  V30 1518 H 145.462 1.54866 -0.693864 0
M  V30 1519 H 144.234 3.6939 -1.29099 0
M  V30 1520 H 143.857 3.95543 0.403966 0
M  V30 1521 N 144.854 0.36279 1.53368 0
M  V30 1522 C 146.131 -0.284021 1.93527 0
M  V30 1523 C 146.511 -1.66628 1.29608 0
M  V30 1524 O 145.859 -2.23942 0.45413 0
M  V30 1525 C 146.069 -0.337028 3.47369 0
M  V30 1526 C 147.417 -0.578708 4.20638 0
M  V30 1527 O 148.441 -0.418352 3.53735 0
M  V30 1528 O 147.3 -0.89074 5.39192 0
M  V30 1529 H 144.394 -0.169743 0.809393 0
M  V30 1530 H 146.94 0.41537 1.64538 0
M  V30 1531 H 145.712 0.632217 3.86159 0
M  V30 1532 H 145.335 -1.08243 3.82582 0
M  V30 1533 N 146.332 -1.57332 0.0918853 0
M  V30 1534 C 147.264 -2.10869 -0.898168 0
M  V30 1535 C 148.277 -1.04521 -1.24817 0
M  V30 1536 O 149.466 -1.31977 -1.20184 0
M  V30 1537 C 146.566 -2.57083 -2.2082 0
M  V30 1538 C 145.739 -3.87229 -2.03402 0
M  V30 1539 C 144.798 -4.19324 -3.17889 0
M  V30 1540 O 143.824 -4.88598 -2.91994 0
M  V30 1541 N 145.026 -3.74471 -4.43567 0
M  V30 1542 H 147.791 -2.96439 -0.440943 0
M  V30 1543 H 145.352 -1.61631 -0.0933064 0
M  V30 1544 H 147.344 -2.75602 -2.96354 0
M  V30 1545 H 145.914 -1.76541 -2.57977 0
M  V30 1546 H 145.134 -3.7789 -1.12218 0
M  V30 1547 H 146.422 -4.72379 -1.89038 0
M  V30 1548 H 145.82 -3.18546 -4.67488 0
M  V30 1549 H 144.377 -3.98151 -5.16061 0
M  V30 1550 N 147.81 0.181792 -1.56548 0
M  V30 1551 C 148.74 1.22765 -1.98623 0
M  V30 1552 C 149.721 1.46747 -0.860189 0
M  V30 1553 O 150.906 1.58259 -1.12551 0
M  V30 1554 C 148.036 2.56894 -2.33715 0
M  V30 1555 C 146.99 2.475 -3.49182 0
M  V30 1556 C 146.316 3.86023 -3.69986 0
M  V30 1557 C 147.616 1.98866 -4.82959 0
M  V30 1558 H 149.31 0.877942 -2.86239 0
M  V30 1559 H 146.856 0.42088 -1.37712 0
M  V30 1560 H 148.809 3.30253 -2.61746 0
M  V30 1561 H 147.533 2.93632 -1.42997 0
M  V30 1562 H 146.192 1.76596 -3.21262 0
M  V30 1563 H 145.84 4.20136 -2.76576 0
M  V30 1564 H 145.54 3.80609 -4.47672 0
M  V30 1565 H 147.064 4.60984 -4.00407 0
M  V30 1566 H 148.478 2.61992 -5.09934 0
M  V30 1567 H 146.875 2.04424 -5.64208 0
M  V30 1568 H 147.945 0.942465 -4.75653 0
M  V30 1569 N 149.288 1.51039 0.449983 0
M  V30 1570 C 150.534 1.64287 1.19923 0
M  V30 1571 C 150.889 0.348701 1.89214 0
M  V30 1572 O 150.182 -0.654751 1.80065 0
M  V30 1573 C 150.376 2.77556 2.25161 0
M  V30 1574 C 150.205 4.17862 1.66198 0
M  V30 1575 C 148.975 4.83976 1.45243 0
M  V30 1576 C 151.173 5.01388 1.14519 0
M  V30 1577 N 149.155 6.08433 0.817437 0
M  V30 1578 C 150.526 6.16743 0.634705 0
M  V30 1579 C 152.581 4.87008 1.03574 0
M  V30 1580 C 151.284 7.19295 0.0255452 0
M  V30 1581 C 153.31 5.89757 0.440489 0
M  V30 1582 C 152.672 7.04375 -0.0595112 0
M  V30 1583 H 148.771 0.655161 0.426952 0
M  V30 1584 H 151.355 1.88228 0.49781 0
M  V30 1585 H 149.526 2.553 2.92706 0
M  V30 1586 H 151.258 2.80049 2.92155 0
M  V30 1587 H 148.013 4.41627 1.71063 0
M  V30 1588 H 148.437 6.75017 0.517747 0
M  V30 1589 H 153.079 3.9866 1.4082 0
M  V30 1590 H 150.797 8.07302 -0.359071 0
M  V30 1591 H 154.383 5.80698 0.35788 0
M  V30 1592 H 153.263 7.82521 -0.512882 0
M  V30 1593 N 150.766 -0.704594 1.40972 0
M  V30 1594 C 151.696 -1.83124 1.44872 0
M  V30 1595 C 152.677 -1.67281 0.30838 0
M  V30 1596 O 153.862 -1.87149 0.518556 0
M  V30 1597 C 150.992 -3.21181 1.32136 0
M  V30 1598 C 149.946 -3.51714 2.43888 0
M  V30 1599 C 149.272 -4.89032 2.16222 0
M  V30 1600 C 150.572 -3.516 3.86232 0
M  V30 1601 H 152.266 -1.80117 2.39161 0
M  V30 1602 H 149.812 -0.865145 1.15114 0
M  V30 1603 H 151.765 -3.99702 1.33479 0
M  V30 1604 H 150.489 -3.24791 0.343279 0
M  V30 1605 H 149.148 -2.75539 2.41813 0
M  V30 1606 H 148.796 -4.89256 1.16778 0
M  V30 1607 H 148.496 -5.10426 2.911 0
M  V30 1608 H 150.02 -5.69873 2.19265 0
M  V30 1609 H 151.434 -4.2014 3.9007 0
M  V30 1610 H 149.831 -3.84523 4.60719 0
M  V30 1611 H 150.901 -2.50757 4.15029 0
M  V30 1612 N 152.244 -1.26651 -0.937939 0
M  V30 1613 C 153.49 -1.12553 -1.687 0
M  V30 1614 C 153.823 0.329782 -1.91379 0
M  V30 1615 O 153.098 1.24202 -1.4968 0
M  V30 1616 C 153.381 -1.89862 -3.05981 0
M  V30 1617 C 153.234 -3.43318 -2.90607 0
M  V30 1618 C 154.553 -1.69499 -4.0615 0
M  V30 1619 H 151.672 -0.410257 -0.612257 0
M  V30 1620 H 154.314 -1.55685 -1.08913 0
M  V30 1621 H 152.464 -1.53204 -3.57017 0
M  V30 1622 H 154.136 -3.89747 -2.46769 0
M  V30 1623 H 152.379 -3.70179 -2.26164 0
M  V30 1624 H 153.05 -3.92642 -3.8799 0
M  V30 1625 H 155.526 -2.01442 -3.64088 0
M  V30 1626 H 154.402 -2.26002 -5.00214 0
M  V30 1627 H 154.663 -0.640365 -4.37438 0
M  V30 1628 N 153.722 1.14298 -1.08507 0
M  V30 1629 C 154.655 2.18447 -0.660004 0
M  V30 1630 C 155.633 1.59242 0.328749 0
M  V30 1631 O 156.817 1.87062 0.232367 0
M  V30 1632 C 153.944 3.38688 0.0290807 0
M  V30 1633 C 152.99 4.1646 -0.919982 0
M  V30 1634 S 153.823 4.77334 -2.42718 0
M  V30 1635 C 154.979 6.00931 -1.75024 0
M  V30 1636 H 155.212 2.54166 -1.54231 0
M  V30 1637 H 152.745 1.25446 -0.900149 0
M  V30 1638 H 154.703 4.08342 0.420378 0
M  V30 1639 H 153.364 3.01289 0.887895 0
M  V30 1640 H 152.557 5.02529 -0.384751 0
M  V30 1641 H 152.159 3.52414 -1.25223 0
M  V30 1642 H 154.451 6.69017 -1.06877 0
M  V30 1643 H 155.394 6.59044 -2.58971 0
M  V30 1644 H 155.802 5.51089 -1.22317 0
M  V30 1645 N 155.201 0.870884 1.31352 0
M  V30 1646 C 156.111 0.330783 2.32256 0
M  V30 1647 C 157.127 -0.559767 1.6475 0
M  V30 1648 O 158.303 -0.456263 1.96164 0
M  V30 1649 C 155.368 -0.458137 3.4366 0
M  V30 1650 C 154.429 0.460482 4.26823 0
M  V30 1651 C 153.662 -0.290881 5.32907 0
M  V30 1652 O 153.885 -1.51885 5.49806 0
M  V30 1653 O 152.819 0.351732 6.00871 0
M  V30 1654 H 156.645 1.16718 2.80376 0
M  V30 1655 H 154.23 0.634285 1.35267 0
M  V30 1656 H 156.112 -0.905343 4.1156 0
M  V30 1657 H 154.787 -1.27106 2.97701 0
M  V30 1658 H 153.694 0.956207 3.61673 0
M  V30 1659 H 155.027 1.23903 4.7635 0
M  V30 1660 N 156.679 -1.44442 0.630414 0
M  V30 1661 C 157.926 -2.02052 0.134617 0
M  V30 1662 C 158.254 -1.49576 -1.24327 0
M  V30 1663 O 157.509 -0.669806 -1.83881 0
M  V30 1664 C 157.808 -3.57332 0.0697835 0
M  V30 1665 C 157.474 -4.29058 1.38635 0
M  V30 1666 C 156.136 -4.4837 1.74694 0
M  V30 1667 C 158.488 -4.69872 2.25543 0
M  V30 1668 C 155.816 -5.05756 2.97369 0
M  V30 1669 C 158.168 -5.28616 3.47487 0
M  V30 1670 C 156.832 -5.46147 3.8377 0
M  V30 1671 H 156.102 -0.739361 0.0492598 0
M  V30 1672 H 158.749 -1.73217 0.816586 0
M  V30 1673 H 157.054 -3.85577 -0.695553 0
M  V30 1674 H 158.751 -3.99637 -0.330344 0
M  V30 1675 H 155.341 -4.14357 1.09574 0
M  V30 1676 H 159.525 -4.54666 1.98979 0
M  V30 1677 H 154.781 -5.17515 3.25558 0
M  V30 1678 H 158.955 -5.59192 4.15063 0
M  V30 1679 H 156.582 -5.9038 4.7891 0
M  V30 1680 N 158.157 -0.370918 -1.53173 0
M  V30 1681 C 159.397 0.217106 -2.03244 0
M  V30 1682 C 159.761 1.45558 -1.25207 0
M  V30 1683 O 160.962 2.11957 -1.65311 0
M  V30 1684 C 159.233 0.496664 -3.53932 0
M  V30 1685 S 160.792 1.0576 -4.25864 0
M  V30 1686 H 157.61 0.0627827 -0.708223 0
M  V30 1687 H 160.212 -0.515019 -1.88594 0
M  V30 1688 H 158.916 -0.412096 -4.08326 0
M  V30 1689 H 158.447 1.25772 -3.72753 0
M  V30 1690 H 160.462 2.34145 -4.37482 0
M  V30 1691 N 159.635 1.57281 -0.100228 0
M  V30 1692 C 160.883 1.94153 0.561157 0
M  V30 1693 C 161.204 0.983157 1.68401 0
M  V30 1694 O 160.474 0.0361132 1.95867 0
M  V30 1695 H 159.054 0.716791 0.210283 0
M  V30 1696 H 161.716 1.94202 -0.164765 0
M  V30 1697 H 160.812 2.96709 0.968008 0
M  V30 1698 N 161.113 -0.173488 1.56642 0
M  V30 1699 C 162.076 -1.19859 1.95362 0
M  V30 1700 C 163.076 -1.37296 0.83704 0
M  V30 1701 O 164.266 -1.34739 1.10413 0
M  V30 1702 C 161.398 -2.56405 2.24654 0
M  V30 1703 H 162.591 -0.867062 2.87092 0
M  V30 1704 H 160.144 -0.415853 1.50666 0
M  V30 1705 H 160.879 -2.94576 1.35631 0
M  V30 1706 H 160.664 -2.45115 3.06041 0
M  V30 1707 H 162.154 -3.30287 2.5554 0
M  V30 1708 N 162.591 -1.51276 -0.441967 0
M  V30 1709 C 163.839 -1.63392 -1.18943 0
M  V30 1710 C 164.16 -0.350159 -1.9183 0
M  V30 1711 O 163.43 0.633784 -1.85364 0
M  V30 1712 H 162.01 -0.602164 -0.442049 0
M  V30 1713 H 164.672 -1.88186 -0.507165 0
M  V30 1714 H 163.768 -2.45934 -1.92154 0
M  V30 1715 N 164.069 0.697108 -1.41344 0
M  V30 1716 C 165.294 1.49096 -1.44171 0
M  V30 1717 C 165.719 1.88038 -0.0481568 0
M  V30 1718 O 165.077 1.54525 0.948243 0
M  V30 1719 C 165.125 2.73088 -2.3549 0
M  V30 1720 O 164.229 3.70514 -1.81088 0
M  V30 1721 H 163.57 0.448801 -0.489361 0
M  V30 1722 H 166.1 0.856992 -1.85787 0
M  V30 1723 H 166.11 3.21413 -2.51312 0
M  V30 1724 H 164.785 2.44081 -3.36745 0
M  V30 1725 H 163.362 3.29441 -1.74708 0
M  V30 1726 N 165.547 1.27147 0.931209 0
M  V30 1727 C 166.793 1.13446 1.68101 0
M  V30 1728 C 167.126 -0.319628 1.91552 0
M  V30 1729 O 166.401 -1.23407 1.50336 0
M  V30 1730 C 166.684 1.91482 3.0497 0
M  V30 1731 C 166.537 3.44855 2.88782 0
M  V30 1732 C 167.856 1.71651 4.05246 0
M  V30 1733 H 164.975 0.413498 0.610072 0
M  V30 1734 H 167.617 1.56261 1.08086 0
M  V30 1735 H 165.767 1.55095 3.56199 0
M  V30 1736 H 167.439 3.9105 2.44698 0
M  V30 1737 H 165.682 3.71373 2.24198 0
M  V30 1738 H 166.353 3.94694 3.85902 0
M  V30 1739 H 168.829 2.0337 3.63015 0
M  V30 1740 H 167.705 2.28651 4.99009 0
M  V30 1741 H 167.966 0.663555 4.37092 0
M  V30 1742 N 167.025 -1.13721 1.09112 0
M  V30 1743 C 168.253 -1.88773 0.846899 0
M  V30 1744 C 168.668 -1.7896 -0.601572 0
M  V30 1745 O 168.025 -1.15394 -1.41388 0
M  V30 1746 C 168.076 -3.3849 1.26913 0
M  V30 1747 O 167.797 -3.48043 2.66079 0
M  V30 1748 C 169.298 -4.30518 1.05682 0
M  V30 1749 H 166.518 -0.59772 0.304914 0
M  V30 1750 H 169.062 -1.43977 1.45227 0
M  V30 1751 H 167.217 -3.80881 0.707723 0
M  V30 1752 H 167.631 -4.4109 2.83795 0
M  V30 1753 H 169.105 -5.3391 1.40156 0
M  V30 1754 H 169.582 -4.392 -0.00563416 0
M  V30 1755 H 170.188 -3.93893 1.60402 0
M  V30 1756 N 168.503 -0.877838 -1.30888 0
M  V30 1757 C 169.78 -0.413052 -1.91189 0
M  V30 1758 C 170.16 1.1056 -1.79832 0
M  V30 1759 O 169.508 1.93771 -1.21099 0
M  V30 1760 C 169.718 -0.903191 -3.3711 0
M  V30 1761 C 171.066 -0.93395 -4.14201 0
M  V30 1762 O 172.09 -0.849373 -3.45925 0
M  V30 1763 O 170.949 -1.05772 -5.36167 0
M  V30 1764 H 168.043 -0.125035 -0.817493 0
M  V30 1765 H 170.589 -0.966269 -1.39504 0
M  V30 1766 H 169.361 -1.94692 -3.39427 0
M  V30 1767 H 168.984 -0.328732 -3.96239 0
M  V30 1768 N 169.982 1.44106 -0.638065 0
M  V30 1769 C 170.912 2.33448 0.0494287 0
M  V30 1770 C 171.893 1.48606 0.827672 0
M  V30 1771 O 173.078 1.77308 0.792173 0
M  V30 1772 C 170.208 3.31771 1.02691 0
M  V30 1773 C 169.162 4.26485 0.359823 0
M  V30 1774 C 168.488 5.14729 1.44769 0
M  V30 1775 C 169.788 5.17056 -0.738296 0
M  V30 1776 H 171.482 2.91183 -0.696636 0
M  V30 1777 H 169.028 1.40014 -0.336456 0
M  V30 1778 H 170.981 3.93161 1.51666 0
M  V30 1779 H 169.705 2.7226 1.80395 0
M  V30 1780 H 168.364 3.66437 -0.10934 0
M  V30 1781 H 168.012 4.51566 2.21578 0
M  V30 1782 H 167.712 5.78913 1.00668 0
M  V30 1783 H 169.236 5.78991 1.93911 0
M  V30 1784 H 170.65 5.72342 -0.331354 0
M  V30 1785 H 169.047 5.89879 -1.10286 0
M  V30 1786 H 170.117 4.57652 -1.60258 0
M  V30 1787 N 171.46 0.379036 1.52974 0
M  V30 1788 C 172.709 -0.207612 2.00629 0
M  V30 1789 C 173.022 -1.48758 1.27006 0
M  V30 1790 O 174.228 -2.15365 1.65318 0
M  V30 1791 C 172.684 -0.42053 3.57435 0
M  V30 1792 C 172.292 0.845587 4.39948 0
M  V30 1793 C 174.036 -0.964102 4.13407 0
M  V30 1794 C 171.943 0.601513 5.88333 0
M  V30 1795 H 170.873 -0.0813591 0.749598 0
M  V30 1796 H 173.524 0.499853 1.76561 0
M  V30 1797 H 171.906 -1.18959 3.7771 0
M  V30 1798 H 173.08 1.61848 4.31442 0
M  V30 1799 H 171.395 1.31336 3.95145 0
M  V30 1800 H 173.992 -1.16225 5.21916 0
M  V30 1801 H 174.335 -1.93019 3.68849 0
M  V30 1802 H 174.868 -0.25487 3.96983 0
M  V30 1803 H 171.607 1.53831 6.37194 0
M  V30 1804 H 171.127 -0.132628 5.99653 0
M  V30 1805 H 172.806 0.232134 6.46583 0
M  V30 1806 N 172.938 -1.57226 0.108567 0
M  V30 1807 C 173.885 -2.14756 -0.845481 0
M  V30 1808 C 174.855 -1.06971 -1.27068 0
M  V30 1809 O 176.04 -1.34827 -1.35005 0
M  V30 1810 C 173.18 -2.74298 -2.09415 0
M  V30 1811 C 172.293 -3.96358 -1.71826 0
M  V30 1812 C 171.428 -4.44021 -2.9158 0
M  V30 1813 C 170.467 -5.58637 -2.50181 0
M  V30 1814 N 169.604 -6.01091 -3.62814 0
M  V30 1815 H 174.444 -2.95961 -0.348035 0
M  V30 1816 H 171.981 -1.46226 -0.160106 0
M  V30 1817 H 173.939 -3.06945 -2.82561 0
M  V30 1818 H 172.569 -1.95801 -2.56636 0
M  V30 1819 H 171.621 -3.69939 -0.885947 0
M  V30 1820 H 172.933 -4.79504 -1.37394 0
M  V30 1821 H 172.087 -4.78522 -3.72963 0
M  V30 1822 H 170.826 -3.59803 -3.29231 0
M  V30 1823 H 169.831 -5.23751 -1.67228 0
M  V30 1824 H 171.056 -6.44613 -2.13659 0
M  V30 1825 H 169.002 -5.19817 -4.00158 0
M  V30 1826 H 168.919 -6.79066 -3.32273 0
M  V30 1827 H 170.187 -6.40227 -4.44668 0
M  V30 1828 N 174.416 0.165178 -1.56732 0
M  V30 1829 C 175.364 1.22369 -1.97809 0
M  V30 1830 C 176.358 1.45488 -0.867741 0
M  V30 1831 O 177.564 1.45995 -1.05288 0
M  V30 1832 H 173.939 0.411486 -0.629431 0
M  V30 1833 H 175.91 0.850425 -2.86025 0
M  V30 1834 C 174.659 2.55403 -2.35934 0
M  V30 1835 H 173.982 2.38438 -3.20916 0
M  V30 1836 H 175.422 3.2814 -2.68514 0
M  V30 1837 C 173.881 3.14611 -1.20506 0
M  V30 1838 O 174.411 3.98626 -0.496016 0
M  V30 1839 N 172.617 2.7379 -0.97403 0
M  V30 1840 H 172.164 2.0557 -1.55238 0
M  V30 1841 H 172.122 3.1374 -0.203573 0
M  V30 1842 N 175.894 1.51508 0.433938 0
M  V30 1843 C 177.122 1.68157 1.20543 0
M  V30 1844 C 177.537 0.380362 1.84929 0
M  V30 1845 O 176.894 -0.641446 1.70856 0
M  V30 1846 C 176.945 2.79965 2.28696 0
M  V30 1847 O 176.666 4.05045 1.66943 0
M  V30 1848 C 178.167 3.07912 3.18912 0
M  V30 1849 H 175.387 0.56421 0.363191 0
M  V30 1850 H 177.931 1.97941 0.513754 0
M  V30 1851 H 176.086 2.5277 2.93574 0
M  V30 1852 H 176.5 4.67165 2.38448 0
M  V30 1853 H 177.974 3.89719 3.90926 0
M  V30 1854 H 178.451 2.20456 3.79863 0
M  V30 1855 H 179.057 3.36779 2.59731 0
M  V30 1856 N 177.372 -0.689602 1.41712 0
M  V30 1857 C 178.319 -1.80345 1.44029 0
M  V30 1858 C 179.289 -1.63478 0.293948 0
M  V30 1859 O 180.474 -1.84244 0.495869 0
M  V30 1860 C 177.614 -3.18272 1.33405 0
M  V30 1861 C 176.727 -3.46529 2.57956 0
M  V30 1862 C 175.862 -4.74103 2.39582 0
M  V30 1863 C 174.901 -4.95347 3.5958 0
M  V30 1864 N 174.038 -6.14151 3.40239 0
M  V30 1865 H 178.878 -1.77698 2.39222 0
M  V30 1866 H 176.415 -0.867688 1.18784 0
M  V30 1867 H 178.373 -3.97956 1.25246 0
M  V30 1868 H 177.003 -3.2008 0.418164 0
M  V30 1869 H 176.055 -2.61207 2.76542 0
M  V30 1870 H 177.367 -3.58126 3.47199 0
M  V30 1871 H 176.521 -5.61853 2.28924 0
M  V30 1872 H 175.26 -4.64763 1.47805 0
M  V30 1873 H 174.265 -4.06044 3.70686 0
M  V30 1874 H 175.49 -5.06542 4.52318 0
M  V30 1875 H 173.436 -6.06013 2.51167 0
M  V30 1876 H 173.353 -6.26543 4.23061 0
M  V30 1877 H 174.621 -7.04619 3.33365 0
M  V30 1878 N 178.85 -1.27639 -0.924453 0
M  V30 1879 C 180.098 -1.13941 -1.66918 0
M  V30 1880 C 180.419 0.314589 -1.92446 0
M  V30 1881 O 179.689 1.21964 -1.53303 0
M  V30 1882 H 178.269 -0.418678 -0.618642 0
M  V30 1883 H 180.931 -1.60213 -1.10985 0
M  V30 1884 H 180.027 -1.67094 -2.63602 0
M  V30 1885 N 180.328 1.1314 -1.09713 0
M  V30 1886 C 181.276 2.20717 -0.733934 0
M  V30 1887 C 182.27 1.6729 0.266506 0
M  V30 1888 O 183.476 1.79547 0.127656 0
M  V30 1889 H 179.851 0.719292 -0.21937 0
M  V30 1890 H 181.822 2.48611 -1.6503 0
M  V30 1891 C 180.571 3.47265 -0.173849 0
M  V30 1892 H 179.894 3.88716 -0.934873 0
M  V30 1893 H 181.334 4.23979 0.0423126 0
M  V30 1894 C 179.793 3.18724 1.09164 0
M  V30 1895 O 180.323 3.37762 2.17439 0
M  V30 1896 N 178.529 2.72583 1.00732 0
M  V30 1897 H 178.076 2.57291 0.126121 0
M  V30 1898 H 178.034 2.53862 1.85476 0
M  V30 1899 N 181.806 0.884767 1.30421 0
M  V30 1900 C 183.034 0.518044 2.0031 0
M  V30 1901 C 183.449 -0.893408 1.66324 0
M  V30 1902 O 182.806 -1.5875 0.900262 0
M  V30 1903 C 182.857 0.682997 3.54989 0
M  V30 1904 O 182.578 2.03888 3.87764 0
M  V30 1905 C 184.079 0.31924 4.42149 0
M  V30 1906 H 181.299 0.200265 0.640418 0
M  V30 1907 H 183.843 1.19001 1.6631 0
M  V30 1908 H 181.998 0.0584052 3.87356 0
M  V30 1909 H 182.412 2.05735 4.82466 0
M  V30 1910 H 183.886 0.485555 5.4986 0
M  V30 1911 H 184.363 -0.742717 4.32875 0
M  V30 1912 H 184.969 0.920147 4.15227 0
M  V30 1913 N 183.284 -1.43765 0.645699 0
M  V30 1914 C 184.214 -2.33471 -0.0370477 0
M  V30 1915 C 185.195 -1.49042 -0.819779 0
M  V30 1916 O 186.38 -1.77726 -0.782758 0
M  V30 1917 C 183.51 -3.32311 -1.0093 0
M  V30 1918 C 182.464 -4.2667 -0.337201 0
M  V30 1919 C 181.79 -5.1549 -1.42037 0
M  V30 1920 C 183.09 -5.16657 0.765706 0
M  V30 1921 H 184.784 -2.90809 0.712069 0
M  V30 1922 H 182.33 -1.39834 0.343876 0
M  V30 1923 H 184.283 -3.9396 -1.49578 0
M  V30 1924 H 183.007 -2.73213 -1.78948 0
M  V30 1925 H 181.666 -3.66374 0.128771 0
M  V30 1926 H 181.314 -4.52735 -2.1918 0
M  V30 1927 H 181.014 -5.79438 -0.975966 0
M  V30 1928 H 182.538 -5.80012 -1.90838 0
M  V30 1929 H 183.952 -5.72158 0.361702 0
M  V30 1930 H 182.349 -5.89286 1.13413 0
M  V30 1931 H 183.419 -4.56796 1.62683 0
M  V30 1932 N 184.763 -0.387143 -1.52771 0
M  V30 1933 C 185.71 0.449048 -2.26389 0
M  V30 1934 C 186.68 1.05961 -1.27912 0
M  V30 1935 O 187.865 1.08804 -1.56737 0
M  V30 1936 C 185.005 1.57155 -3.0724 0
M  V30 1937 C 184.118 0.984066 -4.20643 0
M  V30 1938 C 183.253 2.07745 -4.88892 0
M  V30 1939 C 182.292 1.46574 -5.94292 0
M  V30 1940 N 181.429 2.49834 -6.56146 0
M  V30 1941 H 186.269 -0.185205 -2.97424 0
M  V30 1942 H 183.806 -0.103164 -1.46738 0
M  V30 1943 H 185.764 2.23309 -3.52405 0
M  V30 1944 H 184.394 2.17615 -2.38419 0
M  V30 1945 H 183.446 0.212193 -3.79808 0
M  V30 1946 H 184.758 0.497029 -4.96318 0
M  V30 1947 H 183.912 2.81673 -5.3735 0
M  V30 1948 H 182.651 2.59807 -4.12737 0
M  V30 1949 H 181.656 0.711696 -5.45174 0
M  V30 1950 H 182.881 0.953088 -6.72379 0
M  V30 1951 H 180.827 3.0107 -5.82832 0
M  V30 1952 H 180.744 2.05879 -7.27427 0
M  V30 1953 H 182.012 3.23399 -7.09249 0
M  V30 1954 N 186.241 1.57166 -0.116904 0
M  V30 1955 C 187.151 2.18745 0.847812 0
M  V30 1956 C 188.167 1.163 1.29423 0
M  V30 1957 O 189.343 1.48761 1.35765 0
M  V30 1958 C 186.408 2.77307 2.0809 0
M  V30 1959 C 185.469 3.94781 1.68661 0
M  V30 1960 C 184.702 4.50541 2.86091 0
M  V30 1961 O 184.925 4.05202 4.01456 0
M  V30 1962 O 183.859 5.41256 2.63298 0
M  V30 1963 H 187.685 3.01632 0.353778 0
M  V30 1964 H 185.27 1.49005 0.108599 0
M  V30 1965 H 187.152 3.14647 2.80313 0
M  V30 1966 H 185.827 1.97452 2.56504 0
M  V30 1967 H 184.734 3.62214 0.935518 0
M  V30 1968 H 186.067 4.76065 1.24991 0
M  V30 1969 N 187.719 -0.156864 1.56817 0
M  V30 1970 C 188.629 -1.2136 2.00771 0
M  V30 1971 C 189.645 -1.47598 0.921459 0
M  V30 1972 O 190.821 -1.59462 1.2302 0
M  V30 1973 C 187.886 -2.52943 2.37109 0
M  V30 1974 C 186.947 -2.34439 3.59634 0
M  V30 1975 C 186.18 -3.59748 3.94229 0
M  V30 1976 O 186.403 -4.65526 3.29609 0
M  V30 1977 O 185.337 -3.52998 4.8752 0
M  V30 1978 H 189.163 -0.870468 2.90958 0
M  V30 1979 H 186.748 -0.36484 1.44877 0
M  V30 1980 H 188.63 -3.30538 2.61386 0
M  V30 1981 H 187.305 -2.86806 1.5008 0
M  V30 1982 H 186.212 -1.54828 3.40557 0
M  V30 1983 H 187.545 -2.05496 4.4725 0
M  V30 1984 N 189.197 -1.51736 -0.425897 0
M  V30 1985 C 190.443 -1.66174 -1.17294 0
M  V30 1986 C 190.798 -0.37876 -1.88635 0
M  V30 1987 O 190.091 0.626021 -1.81084 0
M  V30 1988 C 190.285 -2.81103 -2.20717 0
M  V30 1989 C 190.114 -4.20453 -1.59529 0
M  V30 1990 C 188.884 -4.86225 -1.37525 0
M  V30 1991 C 191.082 -5.03146 -1.06528 0
M  V30 1992 N 189.064 -6.09657 -0.720537 0
M  V30 1993 C 190.435 -6.17674 -0.536506 0
M  V30 1994 C 192.49 -4.88594 -0.958127 0
M  V30 1995 C 191.193 -7.19245 0.0888917 0
M  V30 1996 C 193.219 -5.90383 -0.346608 0
M  V30 1997 C 192.581 -7.04191 0.171564 0
M  V30 1998 H 188.68 -0.661871 -0.416475 0
M  V30 1999 H 191.264 -1.88997 -0.467801 0
M  V30 2000 H 189.435 -2.59924 -2.88607 0
M  V30 2001 H 191.167 -2.84662 -2.87663 0
M  V30 2002 H 187.922 -4.44293 -1.64015 0
M  V30 2003 H 188.346 -6.75756 -0.410292 0
M  V30 2004 H 192.988 -4.0085 -1.34459 0
M  V30 2005 H 190.706 -8.06628 0.48746 0
M  V30 2006 H 194.292 -5.81194 -0.265451 0
M  V30 2007 H 193.172 -7.81606 0.637309 0
M  V30 2008 N 190.675 0.682077 -1.42076 0
M  V30 2009 C 191.924 1.43786 -1.41451 0
M  V30 2010 C 192.237 1.95574 -0.0317074 0
M  V30 2011 O 193.443 2.71326 0.0971462 0
M  V30 2012 C 191.899 2.60071 -2.48779 0
M  V30 2013 C 191.507 2.15013 -3.93031 0
M  V30 2014 C 193.251 3.37626 -2.57311 0
M  V30 2015 C 191.158 3.28336 -4.91883 0
M  V30 2016 H 190.088 0.540143 -0.526082 0
M  V30 2017 H 192.739 0.739157 -1.67955 0
M  V30 2018 H 191.121 3.32275 -2.15429 0
M  V30 2019 H 192.295 1.5001 -4.35699 0
M  V30 2020 H 190.61 1.50416 -3.88284 0
M  V30 2021 H 193.207 4.22012 -3.28345 0
M  V30 2022 H 193.55 3.83727 -1.61429 0
M  V30 2023 H 194.083 2.72488 -2.89819 0
M  V30 2024 H 190.822 2.87234 -5.89217 0
M  V30 2025 H 190.342 3.92145 -4.53853 0
M  V30 2026 H 192.021 3.93913 -5.13265 0
M  V30 2027 N 192.153 1.28127 0.917671 0
M  V30 2028 C 193.116 1.11744 2.00115 0
M  V30 2029 C 194.116 0.0583052 1.60694 0
M  V30 2030 O 195.306 0.303755 1.71531 0
M  V30 2031 C 192.438 0.704862 3.33533 0
M  V30 2032 H 193.631 2.07966 2.16079 0
M  V30 2033 H 191.184 1.11058 1.09981 0
M  V30 2034 H 191.919 -0.258299 3.2327 0
M  V30 2035 H 191.704 1.4699 3.63505 0
M  V30 2036 H 193.194 0.612768 4.1308 0
M  V30 2037 N 193.631 -1.12557 1.10312 0
M  V30 2038 C 194.861 -1.87592 0.865617 0
M  V30 2039 C 195.269 -1.79851 -0.587389 0
M  V30 2040 O 194.612 -1.16949 -1.41664 0
M  V30 2041 C 194.674 -3.37665 1.23381 0
M  V30 2042 C 194.338 -3.69181 2.69359 0
M  V30 2043 C 195.335 -3.67652 3.67597 0
M  V30 2044 C 193.02 -3.98555 3.05711 0
M  V30 2045 C 195.014 -3.95053 5.00212 0
M  V30 2046 C 192.701 -4.25616 4.38514 0
M  V30 2047 C 193.699 -4.23851 5.35574 0
M  V30 2048 O 193.387 -4.50242 6.65986 0
M  V30 2049 H 193.119 -0.600442 0.310557 0
M  V30 2050 H 195.673 -1.4335 1.47105 0
M  V30 2051 H 193.903 -3.82454 0.571467 0
M  V30 2052 H 195.592 -3.94041 0.973994 0
M  V30 2053 H 196.358 -3.45024 3.40857 0
M  V30 2054 H 192.237 -3.99071 2.30789 0
M  V30 2055 H 195.781 -3.93591 5.75962 0
M  V30 2056 H 191.678 -4.47718 4.64994 0
M  V30 2057 H 192.446 -4.67867 6.71597 0
M  V30 2058 N 195.109 -0.891671 -1.2995 0
M  V30 2059 C 196.358 -0.509521 -1.95158 0
M  V30 2060 C 196.671 0.947388 -1.71125 0
M  V30 2061 O 197.877 1.43669 -2.30372 0
M  V30 2062 C 196.333 -0.860315 -3.49466 0
M  V30 2063 C 195.941 -2.33545 -3.8231 0
M  V30 2064 C 197.685 -0.547687 -4.20952 0
M  V30 2065 C 195.592 -2.62752 -5.29826 0
M  V30 2066 H 194.522 -0.18682 -0.730489 0
M  V30 2067 H 197.173 -1.08756 -1.47798 0
M  V30 2068 H 195.555 -0.211285 -3.95436 0
M  V30 2069 H 196.729 -3.02936 -3.47227 0
M  V30 2070 H 195.044 -2.61629 -3.23944 0
M  V30 2071 H 197.641 -0.742854 -5.29515 0
M  V30 2072 H 197.984 0.51332 -4.13123 0
M  V30 2073 H 198.517 -1.1542 -3.80688 0
M  V30 2074 H 195.256 -3.6762 -5.42712 0
M  V30 2075 H 194.776 -1.97977 -5.66185 0
M  V30 2076 H 196.455 -2.48601 -5.97333 0
M  V30 2077 N 196.587 1.43421 -0.653314 0
M  V30 2078 C 197.827 2.03689 -0.170346 0
M  V30 2079 C 198.191 1.50427 1.19314 0
M  V30 2080 O 199.392 2.0234 1.76952 0
M  V30 2081 C 197.663 3.56946 -0.180183 0
M  V30 2082 S 199.222 4.38171 0.234925 0
M  V30 2083 H 196.04 0.707345 -0.0719976 0
M  V30 2084 H 198.642 1.75486 -0.86167 0
M  V30 2085 H 197.346 3.93212 -1.17526 0
M  V30 2086 H 196.877 3.89791 0.531675 0
M  V30 2087 H 198.892 4.73808 1.47378 0
M  V30 2088 N 198.065 0.39524 1.52563 0
M  V30 2089 C 199.481 0.0454682 1.59535 0
M  V30 2090 C 199.681 -1.44056 1.4089 0
M  V30 2091 O 198.737 -2.20579 1.22888 0
M  V30 2092 C 200.05 0.527963 2.96029 0
M  V30 2093 C 201.598 0.484733 3.09224 0
M  V30 2094 C 202.073 0.943512 4.48176 0
M  V30 2095 N 203.564 0.899765 4.54377 0
M  V30 2096 C 204.299 1.22609 5.60138 0
M  V30 2097 N 203.795 1.62319 6.73516 0
M  V30 2098 N 205.588 1.14696 5.50274 0
M  V30 2099 H 197.739 1.36261 1.62931 0
M  V30 2100 H 200.002 0.558887 0.765735 0
M  V30 2101 H 199.708 1.56607 3.14908 0
M  V30 2102 H 199.582 -0.0698056 3.77135 0
M  V30 2103 H 201.969 -0.544298 2.90037 0
M  V30 2104 H 202.05 1.11838 2.30056 0
M  V30 2105 H 201.694 1.9708 4.68104 0
M  V30 2106 H 201.624 0.286817 5.25818 0
M  V30 2107 H 204.115 0.607632 3.72983 0
M  V30 2108 H 204.428 1.85567 7.5019 0
M  V30 2109 H 202.773 1.66211 6.74833 0
M  V30 2110 H 205.964 0.835701 4.6058 0
M  V30 2111 H 206.137 1.40459 6.32594 0
M  V30 2112 N 199.544 -1.57102 0.125237 0
M  V30 2113 C 200.454 -2.19191 -0.8362 0
M  V30 2114 C 201.47 -1.16985 -1.28805 0
M  V30 2115 O 202.646 -1.49479 -1.34974 0
M  V30 2116 C 199.711 -2.78407 -2.06617 0
M  V30 2117 C 198.772 -3.9567 -1.66565 0
M  V30 2118 C 198.005 -4.52052 -2.83698 0
M  V30 2119 O 198.228 -4.07326 -3.99302 0
M  V30 2120 O 197.162 -5.42645 -2.60423 0
M  V30 2121 H 200.988 -3.01816 -0.337776 0
M  V30 2122 H 198.573 -1.4906 -0.100695 0
M  V30 2123 H 200.455 -3.16129 -2.7864 0
M  V30 2124 H 199.13 -1.9881 -2.55453 0
M  V30 2125 H 198.037 -3.62705 -0.916296 0
M  V30 2126 H 199.37 -4.76722 -1.22464 0
M  V30 2127 N 201.022 0.148545 -1.56898 0
M  V30 2128 C 202.271 0.85984 -1.82454 0
M  V30 2129 C 202.584 1.82406 -0.706229 0
M  V30 2130 O 203.79 2.57938 -0.847349 0
M  V30 2131 C 202.246 1.57967 -3.2338 0
M  V30 2132 C 201.854 0.65794 -4.43142 0
M  V30 2133 C 203.598 2.27784 -3.58211 0
M  V30 2134 C 201.505 1.3793 -5.75091 0
M  V30 2135 H 200.435 0.324834 -0.68044 0
M  V30 2136 H 203.086 0.112588 -1.83154 0
M  V30 2137 H 201.468 2.37249 -3.17063 0
M  V30 2138 H 202.642 -0.0995497 -4.60692 0
M  V30 2139 H 200.957 0.0682643 -4.16344 0
M  V30 2140 H 203.554 2.8239 -4.54048 0
M  V30 2141 H 203.897 3.04204 -2.84193 0
M  V30 2142 H 204.43 1.55421 -3.66182 0
M  V30 2143 H 201.169 0.656982 -6.52199 0
M  V30 2144 H 200.689 2.10954 -5.61479 0
M  V30 2145 H 202.368 1.92063 -6.17835 0
M  V30 2146 N 202.5 1.5196 0.417844 0
M  V30 2147 C 203.43 1.77634 1.51554 0
M  V30 2148 C 204.411 0.626918 1.58126 0
M  V30 2149 O 205.596 0.871632 1.7354 0
M  V30 2150 C 202.726 1.91911 2.8946 0
M  V30 2151 C 201.68 3.07463 2.97743 0
M  V30 2152 C 201.006 3.06951 4.37819 0
M  V30 2153 C 202.306 4.47082 2.70027 0
M  V30 2154 H 204 2.6955 1.3032 0
M  V30 2155 H 201.546 1.29706 0.625492 0
M  V30 2156 H 203.499 2.08455 3.6623 0
M  V30 2157 H 202.223 0.966598 3.11969 0
M  V30 2158 H 200.882 2.90656 2.23416 0
M  V30 2159 H 200.53 2.09438 4.57323 0
M  V30 2160 H 200.23 3.84556 4.44286 0
M  V30 2161 H 201.754 3.25613 5.16535 0
M  V30 2162 H 203.168 4.6414 3.36522 0
M  V30 2163 H 201.565 5.2654 2.87881 0
M  V30 2164 H 202.635 4.55777 1.65514 0
M  V30 2165 N 203.978 -0.674533 1.42435 0
M  V30 2166 C 205.394 -0.98769 1.25367 0
M  V30 2167 C 205.594 -2.00879 0.158044 0
M  V30 2168 O 204.65 -2.48075 -0.470633 0
M  V30 2169 C 205.963 -1.49224 2.6106 0
M  V30 2170 C 207.511 -1.61 2.68417 0
M  V30 2171 C 207.986 -2.14852 4.04478 0
M  V30 2172 N 209.477 -2.22185 4.06434 0
M  V30 2173 C 210.212 -2.64928 5.08528 0
M  V30 2174 N 209.708 -3.07121 6.21006 0
M  V30 2175 N 211.501 -2.64679 4.95885 0
M  V30 2176 H 203.652 0.00152503 2.124 0
M  V30 2177 H 205.915 -0.0618434 0.945981 0
M  V30 2178 H 205.621 -0.816453 3.42092 0
M  V30 2179 H 205.495 -2.47094 2.84999 0
M  V30 2180 H 207.882 -2.27686 1.87732 0
M  V30 2181 H 207.963 -0.616195 2.48267 0
M  V30 2182 H 207.607 -1.48775 4.85622 0
M  V30 2183 H 207.537 -3.15024 4.2198 0
M  V30 2184 H 210.028 -1.92435 3.25234 0
M  V30 2185 H 210.341 -3.38423 6.94759 0
M  V30 2186 H 208.686 -3.04978 6.24511 0
M  V30 2187 H 211.877 -2.31078 4.07088 0
M  V30 2188 H 212.05 -2.9767 5.75584 0
M  V30 2189 N 205.456 -1.28612 -0.910864 0
M  V30 2190 C 206.704 -1.15705 -1.65701 0
M  V30 2191 C 207.025 0.29416 -1.92769 0
M  V30 2192 O 206.295 1.20331 -1.54588 0
M  V30 2193 H 204.875 -0.425216 -0.614167 0
M  V30 2194 H 207.537 -1.61381 -1.0928 0
M  V30 2195 H 206.633 -1.6988 -2.61815 0
M  V30 2196 N 206.934 1.1197 -1.10907 0
M  V30 2197 C 207.864 2.19928 -0.784473 0
M  V30 2198 C 208.845 1.6833 0.244726 0
M  V30 2199 O 210.03 1.93892 0.109418 0
M  V30 2200 C 207.16 3.46597 -0.220827 0
M  V30 2201 C 206.114 4.11376 -1.18127 0
M  V30 2202 C 205.44 5.32554 -0.478594 0
M  V30 2203 C 206.74 4.56945 -2.52979 0
M  V30 2204 H 208.434 2.47337 -1.68715 0
M  V30 2205 H 205.98 1.18879 -0.812642 0
M  V30 2206 H 207.933 4.21396 0.0184278 0
M  V30 2207 H 206.657 3.1863 0.717113 0
M  V30 2208 H 205.316 3.38564 -1.40606 0
M  V30 2209 H 204.964 5.00856 0.463976 0
M  V30 2210 H 204.664 5.76844 -1.11912 0
M  V30 2211 H 206.188 6.10096 -0.248 0
M  V30 2212 H 207.602 5.23093 -2.3462 0
M  V30 2213 H 205.999 5.1203 -3.12962 0
M  V30 2214 H 207.069 3.70676 -3.12614 0
M  V30 2215 N 208.412 0.89855 1.29475 0
M  V30 2216 C 209.637 0.538561 2.00285 0
M  V30 2217 C 210.062 -0.869135 1.66816 0
M  V30 2218 O 209.42 -1.57831 0.892145 0
M  V30 2219 C 209.468 0.736475 3.52999 0
M  V30 2220 O 208.572 -0.211537 4.11857 0
M  V30 2221 H 207.913 0.210563 0.62973 0
M  V30 2222 H 210.443 1.20982 1.64998 0
M  V30 2223 H 210.453 0.640685 4.02938 0
M  V30 2224 H 209.128 1.76276 3.76696 0
M  V30 2225 H 207.705 -0.0682991 3.72837 0
M  V30 2226 N 209.89 -1.43072 0.660911 0
M  V30 2227 C 210.84 -2.27948 -0.04847 0
M  V30 2228 C 211.824 -1.40325 -0.787246 0
M  V30 2229 O 213.016 -1.63893 -0.668446 0
M  V30 2230 C 210.145 -3.28143 -1.00881 0
M  V30 2231 C 209.231 -4.23252 -0.268108 0
M  V30 2232 N 209.622 -5.00656 0.719528 0
M  V30 2233 C 207.92 -4.43092 -0.508493 0
M  V30 2234 C 208.621 -5.70019 1.15988 0
M  V30 2235 N 207.597 -5.41364 0.492584 0
M  V30 2236 H 211.399 -2.85213 0.709279 0
M  V30 2237 H 208.913 -1.54869 0.488822 0
M  V30 2238 H 210.91 -3.87736 -1.53188 0
M  V30 2239 H 209.57 -2.7244 -1.76654 0
M  V30 2240 H 210.581 -5.06115 1.09855 0
M  V30 2241 H 207.258 -3.98449 -1.24679 0
M  V30 2242 H 208.648 -6.4214 1.97751 0
M  V30 2243 N 211.368 -0.403325 -1.52352 0
M  V30 2244 C 212.298 0.416205 -2.29761 0
M  V30 2245 C 213.279 1.05123 -1.33728 0
M  V30 2246 O 214.464 1.06134 -1.62632 0
M  V30 2247 C 211.594 1.53624 -3.11475 0
M  V30 2248 C 210.548 1.02653 -4.15507 0
M  V30 2249 C 209.874 2.23971 -4.85532 0
M  V30 2250 C 211.174 0.08463 -5.22231 0
M  V30 2251 H 212.868 -0.229701 -2.98518 0
M  V30 2252 H 210.414 -0.111913 -1.43564 0
M  V30 2253 H 212.367 2.1165 -3.64393 0
M  V30 2254 H 211.091 2.20994 -2.40477 0
M  V30 2255 H 209.75 0.46871 -3.63591 0
M  V30 2256 H 209.398 2.89883 -4.11068 0
M  V30 2257 H 209.098 1.90521 -5.55856 0
M  V30 2258 H 210.622 2.82614 -5.41259 0
M  V30 2259 H 212.036 0.573509 -5.70424 0
M  V30 2260 H 210.433 -0.160783 -5.99885 0
M  V30 2261 H 211.503 -0.86237 -4.7717 0
M  V30 2262 N 212.846 1.57033 -0.133567 0
M  V30 2263 C 213.796 2.12641 0.822671 0
M  V30 2264 C 214.78 1.05081 1.21847 0
M  V30 2265 O 215.972 1.31287 1.18713 0
M  V30 2266 C 213.101 2.74094 2.06706 0
M  V30 2267 C 212.187 3.88757 1.69497 0
M  V30 2268 N 212.578 4.95194 1.03037 0
M  V30 2269 C 210.876 3.99213 1.98859 0
M  V30 2270 C 211.577 5.75414 0.852873 0
M  V30 2271 N 210.553 5.25726 1.3825 0
M  V30 2272 H 214.355 2.92308 0.305537 0
M  V30 2273 H 211.869 1.62256 0.0684276 0
M  V30 2274 H 213.866 3.12285 2.76195 0
M  V30 2275 H 212.526 1.95896 2.5895 0
M  V30 2276 H 213.537 5.13247 0.692669 0
M  V30 2277 H 210.214 3.32075 2.53047 0
M  V30 2278 H 211.604 6.71089 0.330091 0
M  V30 2279 N 214.325 -0.140222 1.56975 0
M  V30 2280 C 215.257 -1.19818 1.95388 0
M  V30 2281 C 216.27 -1.38816 0.850525 0
M  V30 2282 O 217.459 -1.38267 1.12891 0
M  V30 2283 C 214.559 -2.56189 2.21857 0
M  V30 2284 C 213.732 -2.58077 3.5315 0
M  V30 2285 C 212.791 -3.76037 3.6808 0
M  V30 2286 O 211.817 -3.60598 4.40406 0
M  V30 2287 N 213.019 -4.93763 3.05251 0
M  V30 2288 H 215.784 -0.871609 2.86746 0
M  V30 2289 H 213.345 -0.32972 1.58507 0
M  V30 2290 H 215.337 -3.33623 2.2908 0
M  V30 2291 H 213.907 -2.81111 1.36731 0
M  V30 2292 H 213.127 -1.6651 3.57307 0
M  V30 2293 H 214.415 -2.56377 4.39486 0
M  V30 2294 H 213.813 -5.09209 2.46419 0
M  V30 2295 H 212.37 -5.68949 3.18026 0
M  V30 2296 N 215.803 -1.52179 -0.40978 0
M  V30 2297 C 216.753 -1.71857 -1.49831 0
M  V30 2298 C 217.737 -0.572469 -1.50372 0
M  V30 2299 O 218.929 -0.829509 -1.56359 0
M  V30 2300 C 216.058 -1.87206 -2.87765 0
M  V30 2301 C 215.144 -3.07685 -2.91875 0
M  V30 2302 N 215.535 -4.30403 -2.65683 0
M  V30 2303 C 213.833 -3.07505 -3.23043 0
M  V30 2304 C 214.534 -5.11868 -2.76344 0
M  V30 2305 N 213.51 -4.47101 -3.09195 0
M  V30 2306 H 217.312 -2.64381 -1.28375 0
M  V30 2307 H 214.826 -1.50203 -0.617479 0
M  V30 2308 H 216.823 -1.99419 -3.66111 0
M  V30 2309 H 215.483 -0.958814 -3.10221 0
M  V30 2310 H 216.494 -4.58887 -2.4009 0
M  V30 2311 H 213.171 -2.25915 -3.51096 0
M  V30 2312 H 214.561 -6.19634 -2.59814 0
M  V30 2313 N 217.281 0.66697 -1.42791 0
M  V30 2314 C 218.228 1.7803 -1.4688 0
M  V30 2315 C 219.198 1.6299 -0.319919 0
M  V30 2316 O 220.383 1.83432 -0.525118 0
M  V30 2317 C 217.523 3.1611 -1.38451 0
M  V30 2318 C 216.636 3.42381 -2.63437 0
M  V30 2319 C 215.771 4.70232 -2.47094 0
M  V30 2320 C 214.81 4.89564 -3.67415 0
M  V30 2321 N 213.947 6.08661 -3.49966 0
M  V30 2322 H 218.787 1.7387 -2.42019 0
M  V30 2323 H 216.324 0.84868 -1.20149 0
M  V30 2324 H 218.282 3.95914 -1.31561 0
M  V30 2325 H 216.912 3.19374 -0.469033 0
M  V30 2326 H 215.964 2.56774 -2.80662 0
M  V30 2327 H 217.276 3.52557 -3.52853 0
M  V30 2328 H 216.43 5.5814 -2.37834 0
M  V30 2329 H 215.169 4.62353 -1.5518 0
M  V30 2330 H 214.174 4.00096 -3.77099 0
M  V30 2331 H 215.399 4.99282 -4.6032 0
M  V30 2332 H 213.345 6.0194 -2.60776 0
M  V30 2333 H 213.262 6.19733 -4.32975 0
M  V30 2334 H 214.53 6.99226 -3.44532 0
M  V30 2335 N 218.759 1.29093 0.90403 0
M  V30 2336 C 220.005 1.16986 1.65656 0
M  V30 2337 C 220.338 -0.278925 1.92186 0
M  V30 2338 O 219.613 -1.2019 1.5292 0
M  V30 2339 C 219.896 1.97908 3.0084 0
M  V30 2340 C 219.749 3.50903 2.81403 0
M  V30 2341 C 221.068 1.80208 4.01513 0
M  V30 2342 H 218.187 0.426346 0.601164 0
M  V30 2343 H 220.829 1.58518 1.04747 0
M  V30 2344 H 218.979 1.62616 3.52829 0
M  V30 2345 H 220.651 3.96153 2.36348 0
M  V30 2346 H 218.894 3.76045 2.1627 0
M  V30 2347 H 219.565 4.02791 3.77443 0
M  V30 2348 H 222.041 2.11025 3.58619 0
M  V30 2349 H 220.917 2.39184 4.94047 0
M  V30 2350 H 221.178 0.756119 4.35586 0
M  V30 2351 N 220.237 -1.11381 1.11499 0
M  V30 2352 C 221.486 -1.82494 0.858993 0
M  V30 2353 C 221.799 -1.85605 -0.617278 0
M  V30 2354 O 223.005 -2.52824 -0.989552 0
M  V30 2355 C 221.461 -3.27745 1.48699 0
M  V30 2356 C 221.069 -3.32961 2.99735 0
M  V30 2357 C 222.813 -4.03754 1.31085 0
M  V30 2358 C 220.72 -4.72612 3.55516 0
M  V30 2359 H 219.65 -0.683802 0.317696 0
M  V30 2360 H 222.301 -1.25331 1.34031 0
M  V30 2361 H 220.683 -3.84844 0.933339 0
M  V30 2362 H 221.857 -2.85741 3.61509 0
M  V30 2363 H 220.172 -2.70433 3.16631 0
M  V30 2364 H 222.769 -5.06891 1.70192 0
M  V30 2365 H 223.112 -4.15527 0.253496 0
M  V30 2366 H 223.645 -3.53043 1.83318 0
M  V30 2367 H 220.384 -4.66036 4.60967 0
M  V30 2368 H 219.904 -5.2024 2.98513 0
M  V30 2369 H 221.583 -5.4157 3.53992 0
M  V30 2370 N 221.715 -0.905404 -1.28997 0
M  V30 2371 C 222.665 -0.358713 -2.25161 0
M  V30 2372 C 223.649 0.524449 -1.52113 0
M  V30 2373 O 224.841 0.365534 -1.73184 0
M  V30 2374 C 221.97 0.407609 -3.40872 0
M  V30 2375 C 221.056 -0.490797 -4.21251 0
M  V30 2376 N 221.447 -1.60061 -4.79806 0
M  V30 2377 C 219.745 -0.289636 -4.45059 0
M  V30 2378 C 220.446 -2.15757 -5.40207 0
M  V30 2379 N 219.422 -1.44988 -5.23908 0
M  V30 2380 H 223.224 -1.20642 -2.67998 0
M  V30 2381 H 220.738 -0.757103 -1.43672 0
M  V30 2382 H 222.735 0.816046 -4.08835 0
M  V30 2383 H 221.395 1.25251 -2.9957 0
M  V30 2384 H 222.406 -1.98329 -4.7842 0
M  V30 2385 H 219.083 0.51643 -4.14294 0
M  V30 2386 H 220.473 -3.09069 -5.96595 0
M  V30 2387 N 223.193 1.4272 -0.668489 0
M  V30 2388 C 224.609 1.55992 -0.33745 0
M  V30 2389 C 224.809 1.64933 1.15756 0
M  V30 2390 O 223.865 1.61278 1.94282 0
M  V30 2391 C 225.178 2.81314 -1.06222 0
M  V30 2392 C 226.726 2.95078 -1.04394 0
M  V30 2393 C 227.201 4.23252 -1.74991 0
M  V30 2394 N 228.692 4.3015 -1.71829 0
M  V30 2395 C 229.427 5.28127 -2.23315 0
M  V30 2396 N 228.923 6.32293 -2.83156 0
M  V30 2397 N 230.716 5.19882 -2.13726 0
M  V30 2398 H 222.867 1.3516 -1.63846 0
M  V30 2399 H 225.13 0.650174 -0.689912 0
M  V30 2400 H 224.836 2.80823 -2.11734 0
M  V30 2401 H 224.71 3.72012 -0.62344 0
M  V30 2402 H 227.097 2.951 0.0028244 0
M  V30 2403 H 227.178 2.05627 -1.52155 0
M  V30 2404 H 226.822 4.2399 -2.79633 0
M  V30 2405 H 226.752 5.11626 -1.24685 0
M  V30 2406 H 229.243 3.55499 -1.28175 0
M  V30 2407 H 229.556 7.03398 -3.20079 0
M  V30 2408 H 227.901 6.32873 -2.87223 0
M  V30 2409 H 231.092 4.37423 -1.66669 0
M  V30 2410 H 231.265 5.96077 -2.54158 0
M  V30 2411 N 224.671 0.411399 1.52136 0
M  V30 2412 C 225.948 -0.222308 1.94333 0
M  V30 2413 C 226.328 -1.6242 1.34844 0
M  V30 2414 O 225.676 -2.22384 0.525145 0
M  V30 2415 C 225.886 -0.226345 3.48265 0
M  V30 2416 C 227.234 -0.444592 4.22266 0
M  V30 2417 O 228.258 -0.305602 3.54887 0
M  V30 2418 O 227.117 -0.718749 5.41753 0
M  V30 2419 H 224.211 -0.143907 0.814383 0
M  V30 2420 H 226.757 0.467506 1.63133 0
M  V30 2421 H 225.529 0.75475 3.83952 0
M  V30 2422 H 225.152 -0.960163 3.85832 0
M  V30 2423 N 226.149 -1.5696 0.141893 0
M  V30 2424 C 227.398 -1.95135 -0.510427 0
M  V30 2425 C 227.711 -1.02896 -1.66348 0
M  V30 2426 O 228.917 -1.30629 -2.38009 0
M  V30 2427 C 227.373 -3.46876 -0.959427 0
M  V30 2428 C 226.981 -4.47691 0.166419 0
M  V30 2429 C 228.725 -3.93927 -1.58183 0
M  V30 2430 C 226.632 -5.90636 -0.300565 0
M  V30 2431 H 225.562 -0.728494 -0.194454 0
M  V30 2432 H 228.213 -1.8211 0.22542 0
M  V30 2433 H 226.595 -3.55215 -1.75038 0
M  V30 2434 H 227.769 -4.51043 0.94325 0
M  V30 2435 H 226.084 -4.10527 0.696905 0
M  V30 2436 H 228.681 -4.98158 -1.94275 0
M  V30 2437 H 229.024 -3.3519 -2.46888 0
M  V30 2438 H 229.557 -3.88484 -0.855863 0
M  V30 2439 H 226.296 -6.5318 0.550989 0
M  V30 2440 H 225.816 -5.90655 -1.04338 0
M  V30 2441 H 227.495 -6.42588 -0.754265 0
M  V30 2442 N 227.627 0.131896 -1.57047 0
M  V30 2443 C 228.574 1.16236 -1.99393 0
M  V30 2444 C 229.544 1.41863 -0.863943 0
M  V30 2445 O 230.729 1.53946 -1.12718 0
M  V30 2446 C 227.869 2.48708 -2.39245 0
M  V30 2447 C 226.982 2.30127 -3.65603 0
M  V30 2448 C 226.117 3.55738 -3.94492 0
M  V30 2449 C 225.156 3.32259 -5.14073 0
M  V30 2450 N 224.293 4.50039 -5.38896 0
M  V30 2451 H 229.133 0.794251 -2.87221 0
M  V30 2452 H 226.67 0.380707 -1.42088 0
M  V30 2453 H 228.628 3.25969 -2.60384 0
M  V30 2454 H 227.258 2.83437 -1.54478 0
M  V30 2455 H 226.31 1.43845 -3.52154 0
M  V30 2456 H 227.622 2.08746 -4.5302 0
M  V30 2457 H 226.776 4.41423 -4.1621 0
M  V30 2458 H 225.515 3.80138 -3.05526 0
M  V30 2459 H 224.52 2.44963 -4.92212 0
M  V30 2460 H 225.745 3.09242 -6.04604 0
M  V30 2461 H 223.691 4.74584 -4.52886 0
M  V30 2462 H 223.608 4.31716 -6.2061 0
M  V30 2463 H 224.876 5.36895 -5.65123 0
M  V30 2464 N 229.106 1.52395 0.401703 0
M  V30 2465 C 230.354 1.66488 1.14569 0
M  V30 2466 C 230.675 0.400897 1.90835 0
M  V30 2467 O 229.945 -0.584415 1.8698 0
M  V30 2468 H 228.525 0.613672 0.425929 0
M  V30 2469 H 231.187 1.89464 0.457093 0
M  V30 2470 H 230.283 2.50942 1.85566 0
M  V30 2471 N 230.584 -0.659388 1.43143 0
M  V30 2472 C 231.516 -1.7849 1.43784 0
M  V30 2473 C 232.529 -1.5932 0.334787 0
M  V30 2474 O 233.718 -1.68155 0.598842 0
M  V30 2475 C 230.818 -3.15828 1.22906 0
M  V30 2476 C 229.991 -3.61711 2.45934 0
M  V30 2477 C 229.05 -4.77831 2.20371 0
M  V30 2478 O 228.076 -4.87586 2.93681 0
M  V30 2479 N 229.278 -5.67611 1.21647 0
M  V30 2480 H 232.043 -1.7842 2.40803 0
M  V30 2481 H 229.604 -0.84302 1.3822 0
M  V30 2482 H 231.596 -3.91189 1.03697 0
M  V30 2483 H 230.166 -3.10707 0.343542 0
M  V30 2484 H 229.386 -2.76861 2.80609 0
M  V30 2485 H 230.674 -3.89112 3.27825 0
M  V30 2486 H 230.072 -5.62397 0.610449 0
M  V30 2487 H 228.629 -6.42719 1.08423 0
M  V30 2488 N 232.062 -1.29571 -0.897171 0
M  V30 2489 C 233.01 -1.14802 -2.02295 0
M  V30 2490 C 234.004 -0.0629637 -1.69283 0
M  V30 2491 O 235.21 -0.222945 -1.78614 0
M  V30 2492 H 231.585 -0.354692 -0.663097 0
M  V30 2493 H 233.556 -2.10108 -2.11889 0
M  V30 2494 C 232.305 -0.843966 -3.37302 0
M  V30 2495 H 231.628 -1.67093 -3.63208 0
M  V30 2496 H 233.068 -0.780672 -4.16751 0
M  V30 2497 C 231.527 0.452843 -3.33843 0
M  V30 2498 O 232.057 1.47813 -3.73516 0
M  V30 2499 N 230.263 0.459601 -2.86943 0
M  V30 2500 H 229.81 -0.375213 -2.54853 0
M  V30 2501 H 229.768 1.32726 -2.85011 0
M  V30 2502 N 233.54 1.10788 -1.12088 0
M  V30 2503 C 234.786 1.82942 -0.875226 0
M  V30 2504 C 235.119 1.84779 0.597538 0
M  V30 2505 O 234.394 1.30578 1.44152 0
M  V30 2506 C 234.677 3.29789 -1.44606 0
M  V30 2507 C 234.53 3.36307 -2.98693 0
M  V30 2508 C 235.849 4.26064 -1.10261 0
M  V30 2509 H 232.968 0.664195 -0.319397 0
M  V30 2510 H 235.61 1.29867 -1.38689 0
M  V30 2511 H 233.76 3.75118 -1.01089 0
M  V30 2512 H 235.432 2.99487 -3.50864 0
M  V30 2513 H 233.675 2.76318 -3.34411 0
M  V30 2514 H 234.346 4.39694 -3.33726 0
M  V30 2515 H 236.822 3.88951 -1.4784 0
M  V30 2516 H 235.698 5.27183 -1.52869 0
M  V30 2517 H 235.959 4.42098 -0.0142953 0
M  V30 2518 N 235.018 0.912232 1.28515 0
M  V30 2519 C 235.948 0.416403 2.29757 0
M  V30 2520 C 236.929 -0.515194 1.6211 0
M  V30 2521 O 238.114 -0.423253 1.89532 0
M  V30 2522 C 235.244 -0.34572 3.45575 0
M  V30 2523 C 234.198 0.496599 4.25109 0
M  V30 2524 C 233.524 -0.393771 5.33248 0
M  V30 2525 C 234.824 1.75307 4.92001 0
M  V30 2526 H 236.518 1.26249 2.7148 0
M  V30 2527 H 234.064 0.608515 1.30511 0
M  V30 2528 H 236.017 -0.703422 4.15488 0
M  V30 2529 H 234.741 -1.2257 3.02728 0
M  V30 2530 H 233.4 0.8368 3.56922 0
M  V30 2531 H 233.048 -1.27225 4.86644 0
M  V30 2532 H 232.748 0.166209 5.87365 0
M  V30 2533 H 234.272 -0.747389 6.06009 0
M  V30 2534 H 235.686 1.46437 5.54283 0
M  V30 2535 H 234.083 2.25534 5.56106 0
M  V30 2536 H 235.153 2.48176 4.16577 0
M  V30 2537 N 236.496 -1.42363 0.676048 0
M  V30 2538 C 237.426 -2.33497 0.0124832 0
M  V30 2539 C 238.407 -1.50748 -0.787981 0
M  V30 2540 O 239.592 -1.79346 -0.744884 0
M  V30 2541 C 236.722 -3.34377 -0.938582 0
M  V30 2542 C 235.676 -4.27289 -0.246622 0
M  V30 2543 C 235.002 -5.18386 -1.31071 0
M  V30 2544 C 236.302 -5.14916 0.875125 0
M  V30 2545 H 237.996 -2.89233 0.773593 0
M  V30 2546 H 235.542 -1.39073 0.37346 0
M  V30 2547 H 237.495 -3.97044 -1.41188 0
M  V30 2548 H 236.219 -2.76947 -1.73113 0
M  V30 2549 H 234.878 -3.66018 0.206456 0
M  V30 2550 H 234.526 -4.57282 -2.09528 0
M  V30 2551 H 234.226 -5.81378 -0.852839 0
M  V30 2552 H 235.75 -5.83929 -1.78492 0
M  V30 2553 H 237.164 -5.71262 0.482983 0
M  V30 2554 H 235.561 -5.86747 1.25887 0
M  V30 2555 H 236.631 -4.53242 1.72335 0
M  V30 2556 N 237.974 -0.419461 -1.51915 0
M  V30 2557 C 239.202 0.152136 -2.0634 0
M  V30 2558 C 239.617 1.37988 -1.28859 0
M  V30 2559 O 238.974 1.79243 -0.343232 0
M  V30 2560 C 239.025 0.492266 -3.58133 0
M  V30 2561 O 238.746 -0.686736 -4.32684 0
M  V30 2562 C 240.247 1.11648 -4.2901 0
M  V30 2563 H 237.467 0.0158325 -0.670813 0
M  V30 2564 H 240.011 -0.593394 -1.95702 0
M  V30 2565 H 238.166 1.18769 -3.68745 0
M  V30 2566 H 238.58 -0.400341 -5.2297 0
M  V30 2567 H 240.054 1.3046 -5.36362 0
M  V30 2568 H 240.531 2.09251 -3.86148 0
M  V30 2569 H 241.137 0.460958 -4.22795 0
M  V30 2570 N 239.452 1.56882 -0.150215 0
M  V30 2571 C 240.362 2.20494 0.801222 0
M  V30 2572 C 241.378 1.19019 1.26927 0
M  V30 2573 O 242.554 1.51607 1.32579 0
M  V30 2574 C 239.619 2.81659 2.02161 0
M  V30 2575 C 238.68 3.9827 1.60249 0
M  V30 2576 C 237.913 4.56508 2.7647 0
M  V30 2577 O 238.136 4.13627 3.92771 0
M  V30 2578 O 237.07 5.46719 2.51757 0
M  V30 2579 H 240.896 3.02315 0.289717 0
M  V30 2580 H 238.481 1.49202 0.0769684 0
M  V30 2581 H 240.363 3.20522 2.73576 0
M  V30 2582 H 239.038 2.02849 2.52258 0
M  V30 2583 H 237.945 3.64117 0.858477 0
M  V30 2584 H 239.278 4.78609 1.14864 0
M  V30 2585 N 240.93 -0.123565 1.57115 0
M  V30 2586 C 241.878 -1.17082 2.00984 0
M  V30 2587 C 242.872 -1.43136 0.906009 0
M  V30 2588 O 244.078 -1.43152 1.09121 0
M  V30 2589 H 240.453 -0.394653 0.64012 0
M  V30 2590 H 242.424 -0.774292 2.88179 0
M  V30 2591 C 241.173 -2.49057 2.42623 0
M  V30 2592 H 240.496 -2.29846 3.27125 0
M  V30 2593 H 241.936 -3.20906 2.7712 0
M  V30 2594 C 240.395 -3.11305 1.28805 0
M  V30 2595 O 240.925 -3.97171 0.60153 0
M  V30 2596 N 239.131 -2.71111 1.04628 0
M  V30 2597 H 238.678 -2.01382 1.60634 0
M  V30 2598 H 238.636 -3.1309 0.286685 0
M  V30 2599 N 242.408 -1.52605 -0.393616 0
M  V30 2600 C 243.371 -1.76415 -1.46323 0
M  V30 2601 C 244.371 -0.634126 -1.47768 0
M  V30 2602 O 245.561 -0.902142 -1.4902 0
M  V30 2603 C 242.693 -1.8607 -2.85641 0
M  V30 2604 H 243.886 -2.71916 -1.26498 0
M  V30 2605 H 241.439 -1.43257 -0.625073 0
M  V30 2606 H 242.174 -0.925378 -3.10817 0
M  V30 2607 H 241.959 -2.68235 -2.85993 0
M  V30 2608 H 243.449 -2.06179 -3.63153 0
M  V30 2609 N 243.887 0.651787 -1.4349 0
M  V30 2610 C 244.797 1.79368 -1.5121 0
M  V30 2611 C 245.813 1.69361 -0.399093 0
M  V30 2612 O 246.989 1.90505 -0.653431 0
M  V30 2613 C 244.054 3.15653 -1.43401 0
M  V30 2614 C 243.115 3.37446 -2.65384 0
M  V30 2615 C 242.348 4.67229 -2.57939 0
M  V30 2616 O 242.571 5.46676 -1.62792 0
M  V30 2617 O 241.505 4.90773 -3.48462 0
M  V30 2618 H 245.331 1.7581 -2.47638 0
M  V30 2619 H 242.916 0.810447 -1.25507 0
M  V30 2620 H 244.798 3.96935 -1.41494 0
M  V30 2621 H 243.473 3.19798 -0.501085 0
M  V30 2622 H 242.38 2.55923 -2.72863 0
M  V30 2623 H 243.713 3.38148 -3.57654 0
M  V30 2624 N 245.365 1.30045 0.890287 0
M  V30 2625 C 246.611 1.18737 1.64406 0
M  V30 2626 C 246.944 -0.258525 1.92472 0
M  V30 2627 O 246.219 -1.18562 1.54186 0
M  V30 2628 C 246.502 2.01087 2.98724 0
M  V30 2629 C 246.355 3.53867 2.77665 0
M  V30 2630 C 247.674 1.84457 3.9958 0
M  V30 2631 H 244.793 0.432698 0.596608 0
M  V30 2632 H 247.435 1.5962 1.0306 0
M  V30 2633 H 245.585 1.66349 3.51084 0
M  V30 2634 H 247.257 3.98637 2.32133 0
M  V30 2635 H 245.5 3.78318 2.12269 0
M  V30 2636 H 246.171 4.06772 3.7315 0
M  V30 2637 H 248.647 2.14817 3.56361 0
M  V30 2638 H 247.523 2.44411 4.91482 0
M  V30 2639 H 247.784 0.802276 4.3476 0
M  V30 2640 N 246.843 -1.10192 1.12674 0
M  V30 2641 C 247.79 -2.16606 0.796906 0
M  V30 2642 C 248.76 -1.64394 -0.237476 0
M  V30 2643 O 249.945 -1.90474 -0.111484 0
M  V30 2644 C 247.085 -3.44116 0.26043 0
M  V30 2645 C 246.198 -4.10268 1.35293 0
M  V30 2646 C 245.333 -5.25507 0.775621 0
M  V30 2647 C 244.372 -5.83567 1.84706 0
M  V30 2648 N 243.509 -6.90179 1.28829 0
M  V30 2649 H 248.349 -2.44163 1.70846 0
M  V30 2650 H 245.886 -1.19846 0.85295 0
M  V30 2651 H 247.844 -4.17143 -0.0686814 0
M  V30 2652 H 246.474 -3.16901 -0.614274 0
M  V30 2653 H 245.526 -3.35184 1.79877 0
M  V30 2654 H 246.838 -4.4946 2.16303 0
M  V30 2655 H 245.992 -6.05398 0.397327 0
M  V30 2656 H 244.731 -4.87656 -0.0656581 0
M  V30 2657 H 243.736 -5.02344 2.23452 0
M  V30 2658 H 244.961 -6.23482 2.69161 0
M  V30 2659 H 242.907 -6.54322 0.468881 0
M  V30 2660 H 242.824 -7.28097 2.03497 0
M  V30 2661 H 244.092 -7.73844 0.937311 0
M  V30 2662 N 248.321 -0.919034 -1.28029 0
M  V30 2663 C 249.251 -0.428581 -2.29533 0
M  V30 2664 C 250.232 0.50659 -1.62381 0
M  V30 2665 O 251.417 0.413195 -1.89753 0
M  V30 2666 C 248.547 0.327388 -3.45753 0
M  V30 2667 C 247.501 -0.519137 -4.2484 0
M  V30 2668 C 246.827 0.365486 -5.33449 0
M  V30 2669 C 248.127 -1.77914 -4.91064 0
M  V30 2670 H 249.821 -1.27687 -2.70807 0
M  V30 2671 H 247.367 -0.615428 -1.30186 0
M  V30 2672 H 249.32 0.681378 -4.15855 0
M  V30 2673 H 248.044 1.20963 -3.03374 0
M  V30 2674 H 246.703 -0.855717 -3.56473 0
M  V30 2675 H 246.351 1.24642 -4.87312 0
M  V30 2676 H 246.051 -0.197356 -5.87268 0
M  V30 2677 H 247.575 0.715241 -6.06396 0
M  V30 2678 H 248.989 -1.49374 -5.53498 0
M  V30 2679 H 247.386 -2.2848 -5.54903 0
M  V30 2680 H 248.456 -2.50382 -4.15255 0
M  V30 2681 N 249.799 1.42003 -0.683588 0
M  V30 2682 C 251.045 2.01712 -0.209825 0
M  V30 2683 C 251.378 1.53968 1.18353 0
M  V30 2684 O 250.653 0.745661 1.79639 0
M  V30 2685 C 250.936 3.59202 -0.254197 0
M  V30 2686 C 250.789 4.17102 -1.68363 0
M  V30 2687 C 252.108 4.38344 0.392709 0
M  V30 2688 H 249.227 0.732891 -0.0777189 0
M  V30 2689 H 251.869 1.68909 -0.87004 0
M  V30 2690 H 250.019 3.87278 0.307954 0
M  V30 2691 H 251.691 3.99946 -2.29871 0
M  V30 2692 H 249.934 3.72597 -2.22157 0
M  V30 2693 H 250.605 5.26249 -1.6663 0
M  V30 2694 H 253.081 4.16011 -0.0859162 0
M  V30 2695 H 251.957 5.47901 0.331063 0
M  V30 2696 H 252.218 4.16887 1.47164 0
M  V30 2697 N 251.277 0.427512 1.51691 0
M  V30 2698 C 252.554 -0.201684 1.94557 0
M  V30 2699 C 252.934 -1.60981 1.36559 0
M  V30 2700 O 252.282 -2.21814 0.548702 0
M  V30 2701 C 252.492 -0.189394 3.48486 0
M  V30 2702 C 253.84 -0.39978 4.22714 0
M  V30 2703 O 254.864 -0.267945 3.55191 0
M  V30 2704 O 253.723 -0.661249 5.42485 0
M  V30 2705 H 250.817 -0.135261 0.815864 0
M  V30 2706 H 253.363 0.484782 1.62628 0
M  V30 2707 H 252.135 0.795431 3.8313 0
M  V30 2708 H 251.758 -0.919187 3.86829 0
M  V30 2709 N 252.755 -1.56801 0.158532 0
M  V30 2710 C 254.002 -1.9649 -0.489679 0
M  V30 2711 C 254.33 -1.04394 -1.6411 0
M  V30 2712 O 253.585 -0.0754401 -1.95555 0
M  V30 2713 C 253.884 -3.4235 -1.02623 0
M  V30 2714 C 253.55 -4.50899 0.00794526 0
M  V30 2715 C 252.212 -4.80312 0.292207 0
M  V30 2716 C 254.564 -5.16333 0.710584 0
M  V30 2717 C 251.892 -5.72461 1.28472 0
M  V30 2718 C 254.244 -6.09553 1.69199 0
M  V30 2719 C 252.908 -6.37339 1.98383 0
M  V30 2720 H 252.178 -0.719009 -0.179186 0
M  V30 2721 H 254.825 -1.8989 0.247798 0
M  V30 2722 H 253.13 -3.45838 -1.84128 0
M  V30 2723 H 254.827 -3.70393 -1.53656 0
M  V30 2724 H 251.417 -4.28015 -0.22379 0
M  V30 2725 H 255.601 -4.93732 0.504174 0
M  V30 2726 H 250.857 -5.92278 1.51714 0
M  V30 2727 H 255.031 -6.59327 2.24189 0
M  V30 2728 H 252.658 -7.08546 2.7544 0
M  V30 2729 N 254.233 0.115231 -1.57178 0
M  V30 2730 C 255.481 0.820727 -1.84685 0
M  V30 2731 C 255.802 1.80237 -0.744279 0
M  V30 2732 O 255.072 1.94529 0.231375 0
M  V30 2733 H 253.652 0.306084 -0.681411 0
M  V30 2734 H 256.314 0.101656 -1.94635 0
M  V30 2735 H 255.41 1.36366 -2.80733 0
M  V30 2736 N 255.711 1.52812 0.385517 0
M  V30 2737 C 256.957 1.68275 1.13188 0
M  V30 2738 C 257.29 0.423179 1.89533 0
M  V30 2739 O 256.565 -0.579113 1.85679 0
M  V30 2740 C 256.848 2.92001 2.1073 0
M  V30 2741 C 256.701 4.28067 1.38125 0
M  V30 2742 C 258.02 3.11283 3.11113 0
M  V30 2743 H 255.139 0.612352 0.410115 0
M  V30 2744 H 257.781 1.85415 0.414869 0
M  V30 2745 H 255.931 2.77519 2.71874 0
M  V30 2746 H 257.603 4.54324 0.799187 0
M  V30 2747 H 255.846 4.28388 0.683092 0
M  V30 2748 H 256.517 5.10733 2.09417 0
M  V30 2749 H 258.993 3.2482 2.6006 0
M  V30 2750 H 257.869 3.99325 3.76605 0
M  V30 2751 H 258.13 2.25656 3.80173 0
M  V30 2752 N 257.189 -0.644168 1.43834 0
M  V30 2753 C 258.414 -1.43642 1.49605 0
M  V30 2754 C 258.839 -1.8773 0.117913 0
M  V30 2755 O 258.197 -1.57938 -0.890239 0
M  V30 2756 C 258.245 -2.6416 2.45463 0
M  V30 2757 O 257.349 -3.63538 1.94714 0
M  V30 2758 H 256.69 -0.430329 0.50568 0
M  V30 2759 H 259.22 -0.787448 1.8884 0
M  V30 2760 H 259.23 -3.11864 2.63068 0
M  V30 2761 H 257.905 -2.31414 3.45572 0
M  V30 2762 H 256.482 -3.2273 1.86814 0
M  V30 2763 N 258.668 -1.30515 -0.883378 0
M  V30 2764 C 259.631 -1.1701 -1.97082 0
M  V30 2765 C 260.631 -0.10089 -1.60483 0
M  V30 2766 O 261.821 -0.349127 -1.70666 0
M  V30 2767 C 258.953 -0.793045 -3.31547 0
M  V30 2768 H 260.146 -2.13622 -2.10489 0
M  V30 2769 H 257.699 -1.13935 -1.06998 0
M  V30 2770 H 258.434 0.172499 -3.23841 0
M  V30 2771 H 258.219 -1.56576 -3.5948 0
M  V30 2772 H 259.709 -0.722073 -4.1131 0
M  V30 2773 N 260.146 1.09593 -1.13257 0
M  V30 2774 C 261.078 2.16015 -0.766167 0
M  V30 2775 C 262.091 1.61423 0.211303 0
M  V30 2776 O 263.28 1.78498 -0.00863946 0
M  V30 2777 C 260.38 3.38706 -0.114662 0
M  V30 2778 C 259.553 4.22717 -1.12379 0
M  V30 2779 C 258.612 5.23835 -0.498301 0
M  V30 2780 O 257.638 5.573 -1.15781 0
M  V30 2781 N 258.84 5.75886 0.730417 0
M  V30 2782 H 261.605 2.48055 -1.68193 0
M  V30 2783 H 259.166 1.25292 -1.02535 0
M  V30 2784 H 261.158 4.03464 0.315991 0
M  V30 2785 H 259.728 3.04569 0.704011 0
M  V30 2786 H 258.948 3.54122 -1.73179 0
M  V30 2787 H 260.236 4.75673 -1.80589 0
M  V30 2788 H 259.634 5.50911 1.28504 0
M  V30 2789 H 258.191 6.42387 1.10376 0
M  V30 2790 N 261.624 0.925811 1.2754 0
M  V30 2791 C 262.554 0.440748 2.29303 0
M  V30 2792 C 263.535 -0.497971 1.62648 0
M  V30 2793 O 264.72 -0.403126 1.8997 0
M  V30 2794 C 261.85 -0.309048 3.45922 0
M  V30 2795 C 260.804 0.54166 4.24559 0
M  V30 2796 C 260.13 -0.337191 5.33636 0
M  V30 2797 C 261.43 1.80516 4.90114 0
M  V30 2798 H 263.124 1.29121 2.70126 0
M  V30 2799 H 260.67 0.622323 1.29858 0
M  V30 2800 H 262.623 -0.659315 4.1621 0
M  V30 2801 H 261.347 -1.19352 3.04011 0
M  V30 2802 H 260.006 0.874609 3.56014 0
M  V30 2803 H 259.654 -1.22056 4.87966 0
M  V30 2804 H 259.354 0.228497 5.87156 0
M  V30 2805 H 260.878 -0.683072 6.06767 0
M  V30 2806 H 262.292 1.52307 5.52698 0
M  V30 2807 H 260.689 2.3142 5.53683 0
M  V30 2808 H 261.759 2.52581 4.13921 0
M  V30 2809 N 263.102 -1.41638 0.69111 0
M  V30 2810 C 264.379 -1.95036 0.148421 0
M  V30 2811 C 264.759 -1.63072 -1.34055 0
M  V30 2812 O 264.107 -0.93538 -2.08478 0
M  V30 2813 C 264.317 -3.46279 0.434951 0
M  V30 2814 C 265.665 -4.23069 0.360275 0
M  V30 2815 O 266.689 -3.54277 0.369613 0
M  V30 2816 O 265.548 -5.45583 0.316534 0
M  V30 2817 H 262.642 -0.826908 0.0123654 0
M  V30 2818 H 265.188 -1.5138 0.766963 0
M  V30 2819 H 263.96 -3.6281 1.46576 0
M  V30 2820 H 263.583 -3.97019 -0.214787 0
M  V30 2821 N 264.58 -0.43555 -1.51462 0
M  V30 2822 C 265.996 -0.0877501 -1.59359 0
M  V30 2823 C 266.196 1.4027 -1.4466 0
M  V30 2824 O 265.252 2.17243 -1.28693 0
M  V30 2825 C 266.565 -0.606264 -2.94525 0
M  V30 2826 C 268.113 -0.566548 -3.0783 0
M  V30 2827 C 268.588 -1.06201 -4.45517 0
M  V30 2828 N 270.079 -1.01992 -4.51832 0
M  V30 2829 C 270.814 -1.37417 -5.5669 0
M  V30 2830 N 270.31 -1.80119 -6.68976 0
M  V30 2831 N 272.103 -1.29245 -5.47039 0
M  V30 2832 H 264.254 -1.40533 -1.59261 0
M  V30 2833 H 266.517 -0.578992 -0.750648 0
M  V30 2834 H 266.223 -1.64901 -3.10645 0
M  V30 2835 H 266.097 -0.0302097 -3.77188 0
M  V30 2836 H 268.484 0.467208 -2.91378 0
M  V30 2837 H 268.565 -1.17898 -2.2701 0
M  V30 2838 H 268.209 -2.09422 -4.62715 0
M  V30 2839 H 268.139 -0.426127 -5.24873 0
M  V30 2840 H 270.63 -0.706308 -3.71241 0
M  V30 2841 H 270.943 -2.05392 -7.45006 0
M  V30 2842 H 269.288 -1.84044 -6.70189 0
M  V30 2843 H 272.479 -0.957522 -4.58202 0
M  V30 2844 H 272.652 -1.57182 -6.28648 0
M  V30 2845 N 266.058 1.56714 -0.166846 0
M  V30 2846 C 267.286 2.0112 0.485644 0
M  V30 2847 C 267.701 1.04705 1.57106 0
M  V30 2848 O 267.058 0.0471923 1.82439 0
M  V30 2849 C 267.109 3.45361 1.06808 0
M  V30 2850 O 266.83 4.38092 0.0259995 0
M  V30 2851 C 268.331 4.05145 1.79924 0
M  V30 2852 H 265.551 0.65931 0.124704 0
M  V30 2853 H 268.095 2.02746 -0.267262 0
M  V30 2854 H 266.25 3.44524 1.7715 0
M  V30 2855 H 266.664 5.22519 0.455398 0
M  V30 2856 H 268.138 5.08009 2.15942 0
M  V30 2857 H 268.615 3.46982 2.69258 0
M  V30 2858 H 269.221 4.09672 1.14234 0
M  V30 2859 N 267.536 -0.106894 1.57237 0
M  V30 2860 C 268.782 -0.81373 1.85759 0
M  V30 2861 C 269.115 -1.78952 0.754315 0
M  V30 2862 O 268.39 -1.93029 -0.23879 0
M  V30 2863 C 268.673 -1.55293 3.24894 0
M  V30 2864 C 268.526 -0.595929 4.45835 0
M  V30 2865 C 269.845 -2.5063 3.61763 0
M  V30 2866 H 266.964 -0.294369 0.67566 0
M  V30 2867 H 269.606 -0.0776472 1.89841 0
M  V30 2868 H 267.756 -2.1804 3.21544 0
M  V30 2869 H 269.428 0.0236262 4.61294 0
M  V30 2870 H 267.671 0.0916191 4.33703 0
M  V30 2871 H 268.342 -1.15004 5.39887 0
M  V30 2872 H 270.818 -1.97982 3.65981 0
M  V30 2873 H 269.694 -2.99376 4.60071 0
M  V30 2874 H 269.955 -3.3385 2.89821 0
M  V30 2875 N 269.014 -1.53014 -0.377408 0
M  V30 2876 C 270.262 -1.6829 -1.11906 0
M  V30 2877 C 270.583 -0.431206 -1.90173 0
M  V30 2878 O 269.853 0.554595 -1.87886 0
M  V30 2879 H 268.433 -0.620371 -0.416112 0
M  V30 2880 H 271.095 -1.90167 -0.426893 0
M  V30 2881 H 270.191 -2.53862 -1.8155 0
M  V30 2882 N 270.492 0.636531 -1.44174 0
M  V30 2883 C 271.908 0.954104 -1.27941 0
M  V30 2884 C 272.108 2.0039 -0.211248 0
M  V30 2885 O 271.164 2.49236 0.404695 0
M  V30 2886 C 272.477 1.4225 -2.64925 0
M  V30 2887 C 274.025 1.53827 -2.72592 0
M  V30 2888 C 274.5 2.04053 -4.10032 0
M  V30 2889 N 275.991 2.11331 -4.12182 0
M  V30 2890 C 276.726 2.51352 -5.15374 0
M  V30 2891 N 276.222 2.90549 -6.2893 0
M  V30 2892 N 278.015 2.51438 -5.02728 0
M  V30 2893 H 270.166 -0.0578386 -2.12321 0
M  V30 2894 H 272.429 0.0367406 -0.947288 0
M  V30 2895 H 272.135 0.725466 -3.44136 0
M  V30 2896 H 272.009 2.39451 -2.9145 0
M  V30 2897 H 274.396 2.22628 -1.93702 0
M  V30 2898 H 274.477 0.550154 -2.49814 0
M  V30 2899 H 274.121 1.35848 -4.89395 0
M  V30 2900 H 274.051 3.03726 -4.30184 0
M  V30 2901 H 276.542 1.83745 -3.30222 0
M  V30 2902 H 276.855 3.19884 -7.03487 0
M  V30 2903 H 275.2 2.88313 -6.32377 0
M  V30 2904 H 278.391 2.20203 -4.13072 0
M  V30 2905 H 278.564 2.82304 -5.83274 0
M  V30 2906 N 271.97 1.30982 0.876444 0
M  V30 2907 C 273.386 1.09498 1.16113 0
M  V30 2908 C 273.586 -0.13875 2.01022 0
M  V30 2909 O 272.642 -0.829935 2.38471 0
M  V30 2910 C 273.955 2.36308 1.85954 0
M  V30 2911 C 275.503 2.41856 1.98683 0
M  V30 2912 C 275.978 3.6853 2.71937 0
M  V30 2913 N 277.469 3.69387 2.79477 0
M  V30 2914 C 278.204 4.64096 3.36753 0
M  V30 2915 N 277.7 5.69155 3.95012 0
M  V30 2916 N 279.493 4.51626 3.3465 0
M  V30 2917 H 271.644 2.10118 0.310494 0
M  V30 2918 H 273.907 0.926634 0.200131 0
M  V30 2919 H 273.613 3.26388 1.31011 0
M  V30 2920 H 273.487 2.4561 2.86278 0
M  V30 2921 H 275.874 1.52249 2.52793 0
M  V30 2922 H 275.955 2.36523 0.9742 0
M  V30 2923 H 275.599 4.58499 2.18496 0
M  V30 2924 H 275.529 3.71127 3.73593 0
M  V30 2925 H 278.02 2.93438 2.38123 0
M  V30 2926 H 278.333 6.3751 4.36808 0
M  V30 2927 H 276.678 5.72937 3.93406 0
M  V30 2928 H 279.869 3.68728 2.8837 0
M  V30 2929 H 280.042 5.25614 3.7899 0
M  V30 2930 N 273.449 -1.08991 1.13837 0
M  V30 2931 C 274.397 -2.17841 0.815347 0
M  V30 2932 C 275.391 -1.68164 -0.204233 0
M  V30 2933 O 276.597 -1.79897 -0.0609304 0
M  V30 2934 H 272.972 -0.710654 0.245915 0
M  V30 2935 H 274.943 -2.42315 1.74143 0
M  V30 2936 C 273.692 -3.46381 0.302614 0
M  V30 2937 H 273.015 -3.84979 1.0785 0
M  V30 2938 H 274.455 -4.23844 0.115074 0
M  V30 2939 C 272.914 -3.22556 -0.972591 0
M  V30 2940 O 273.444 -3.45599 -2.04754 0
M  V30 2941 N 271.65 -2.76134 -0.905455 0
M  V30 2942 H 271.197 -2.57582 -0.0305421 0
M  V30 2943 H 271.155 -2.60571 -1.75926 0
M  V30 2944 N 274.927 -0.932562 -1.27047 0
M  V30 2945 C 276.155 -0.592031 -1.98249 0
M  V30 2946 C 276.57 0.831062 -1.69525 0
M  V30 2947 O 275.927 1.55299 -0.958561 0
M  V30 2948 C 275.978 -0.814279 -3.5221 0
M  V30 2949 O 275.699 -2.18139 -3.7993 0
M  V30 2950 C 277.2 -0.483121 -4.4066 0
M  V30 2951 H 274.42 -0.223896 -0.632544 0
M  V30 2952 H 276.964 -1.25091 -1.61779 0
M  V30 2953 H 275.119 -0.20213 -3.86872 0
M  V30 2954 H 275.533 -2.235 -4.74498 0
M  V30 2955 H 277.007 -0.689298 -5.47679 0
M  V30 2956 H 277.484 0.581546 -4.35333 0
M  V30 2957 H 278.09 -1.07362 -4.11526 0
M  V30 2958 N 276.405 1.4127 -0.698611 0
M  V30 2959 C 277.652 2.0118 -0.230865 0
M  V30 2960 C 277.98 1.55338 1.17049 0
M  V30 2961 O 277.235 0.756775 1.80475 0
M  V30 2962 C 277.534 3.56592 -0.240192 0
M  V30 2963 C 277.2 4.21955 -1.58948 0
M  V30 2964 C 275.862 4.39524 -1.95887 0
M  V30 2965 C 278.214 4.58576 -2.47704 0
M  V30 2966 C 275.542 4.90992 -3.2116 0
M  V30 2967 C 277.894 5.11435 -3.72313 0
M  V30 2968 C 276.558 5.27215 -4.0939 0
M  V30 2969 H 275.828 0.736169 -0.0844796 0
M  V30 2970 H 278.475 1.69124 -0.8983 0
M  V30 2971 H 276.78 3.88456 0.510797 0
M  V30 2972 H 278.477 4.00758 0.139296 0
M  V30 2973 H 275.067 4.08657 -1.29219 0
M  V30 2974 H 279.251 4.44654 -2.20445 0
M  V30 2975 H 274.507 5.01393 -3.49878 0
M  V30 2976 H 278.681 5.38752 -4.4127 0
M  V30 2977 H 276.308 5.66859 -5.06533 0
M  V30 2978 N 277.883 0.443576 1.51229 0
M  V30 2979 C 279.132 -0.122332 2.01329 0
M  V30 2980 C 279.445 -1.43237 1.33201 0
M  V30 2981 O 280.651 -2.0816 1.74304 0
M  V30 2982 C 279.107 -0.268551 3.58897 0
M  V30 2983 C 278.715 1.03142 4.35965 0
M  V30 2984 C 280.459 -0.787894 4.17124 0
M  V30 2985 C 278.366 0.850504 5.85252 0
M  V30 2986 H 277.296 -0.0494929 0.752374 0
M  V30 2987 H 279.947 0.574289 1.74282 0
M  V30 2988 H 278.329 -1.02832 3.82415 0
M  V30 2989 H 279.503 1.80001 4.24189 0
M  V30 2990 H 277.818 1.47977 3.89219 0
M  V30 2991 H 280.415 -0.939841 5.26375 0
M  V30 2992 H 280.758 -1.77201 3.76703 0
M  V30 2993 H 281.291 -0.0862669 3.97706 0
M  V30 2994 H 278.03 1.80718 6.30096 0
M  V30 2995 H 277.55 0.121825 5.99676 0
M  V30 2996 H 279.229 0.506163 6.45017 0
M  V30 2997 N 279.361 -1.56624 0.175154 0
M  V30 2998 C 280.609 -1.96609 -0.467885 0
M  V30 2999 C 280.93 -1.06238 -1.63519 0
M  V30 3000 O 280.2 -0.129523 -1.95471 0
M  V30 3001 H 278.78 -0.726008 -0.175845 0
M  V30 3002 H 281.442 -1.93195 0.257234 0
M  V30 3003 H 280.538 -3.00989 -0.825342 0
M  V30 3004 N 280.839 0.0985539 -1.57292 0
M  V30 3005 C 282.067 0.816318 -1.90115 0
M  V30 3006 C 282.482 1.72451 -0.768509 0
M  V30 3007 O 281.839 1.80643 0.259687 0
M  V30 3008 C 281.89 1.63259 -3.22535 0
M  V30 3009 O 281.611 0.760934 -4.31441 0
M  V30 3010 C 283.112 2.45372 -3.69199 0
M  V30 3011 H 280.332 0.233595 -0.629027 0
M  V30 3012 H 282.876 0.0768229 -2.04356 0
M  V30 3013 H 281.031 2.32463 -3.09903 0
M  V30 3014 H 281.445 1.32595 -5.07463 0
M  V30 3015 H 282.919 2.98144 -4.64558 0
M  V30 3016 H 283.396 3.23677 -2.96867 0
M  V30 3017 H 284.002 1.81373 -3.84687 0
M  V30 3018 N 282.317 1.53212 0.369288 0
M  V30 3019 C 283.728 1.60943 0.946276 0
M  V30 3020 C 284.079 0.47452 1.90375 0
M  V30 3021 O 283.204 -0.399597 2.12679 0
M  V30 3022 C 283.799 2.91715 1.72302 0
M  V30 3023 C 282.358 3.01792 2.24941 0
M  V30 3024 C 281.505 2.56211 1.06072 0
M  V30 3025 H 284.456 1.58007 0.148198 0
M  V30 3026 H 284.477 2.79309 2.58393 0
M  V30 3027 H 283.989 3.74295 1.0259 0
M  V30 3028 H 282.09 2.23791 2.97906 0
M  V30 3029 H 282.203 4.06803 2.53077 0
M  V30 3030 H 280.567 2.10998 1.4266 0
M  V30 3031 H 281.35 3.41206 0.378639 0
M  V30 3032 N 283.795 -0.628877 1.44509 0
M  V30 3033 C 285.025 -1.41349 1.50678 0
M  V30 3034 C 285.433 -1.88745 0.131075 0
M  V30 3035 O 284.776 -1.61592 -0.87371 0
M  V30 3036 C 284.838 -2.66608 2.41165 0
M  V30 3037 C 284.502 -2.40993 3.88293 0
M  V30 3038 C 285.499 -2.0268 4.78766 0
M  V30 3039 C 283.184 -2.54563 4.33016 0
M  V30 3040 C 285.178 -1.78269 6.11963 0
M  V30 3041 C 282.865 -2.29766 5.6626 0
M  V30 3042 C 283.863 -1.91678 6.55552 0
M  V30 3043 O 283.551 -1.67158 7.86329 0
M  V30 3044 H 283.283 -0.439851 0.51333 0
M  V30 3045 H 285.837 -0.776084 1.90174 0
M  V30 3046 H 284.067 -3.32994 1.96601 0
M  V30 3047 H 285.756 -3.28615 2.38259 0
M  V30 3048 H 286.522 -1.91751 4.45485 0
M  V30 3049 H 282.401 -2.83179 3.63773 0
M  V30 3050 H 285.945 -1.48465 6.81619 0
M  V30 3051 H 281.842 -2.40306 5.99102 0
M  V30 3052 H 282.61 -1.81386 7.98149 0
M  V30 3053 N 285.273 -1.31445 -0.869486 0
M  V30 3054 C 286.519 -1.22347 -1.62489 0
M  V30 3055 C 286.874 0.216204 -1.91181 0
M  V30 3056 O 286.167 1.14977 -1.53268 0
M  V30 3057 C 286.361 -2.00145 -2.96102 0
M  V30 3058 C 286.19 -3.51531 -2.80456 0
M  V30 3059 C 284.96 -4.20882 -2.79618 0
M  V30 3060 C 287.158 -4.46471 -2.5528 0
M  V30 3061 N 285.14 -5.58421 -2.55027 0
M  V30 3062 C 286.511 -5.71682 -2.39957 0
M  V30 3063 C 288.566 -4.35892 -2.40629 0
M  V30 3064 C 287.269 -6.87511 -2.11472 0
M  V30 3065 C 289.295 -5.51505 -2.13532 0
M  V30 3066 C 288.657 -6.75707 -1.98998 0
M  V30 3067 H 284.756 -0.502815 -0.598917 0
M  V30 3068 H 287.34 -1.65639 -1.02332 0
M  V30 3069 H 285.511 -1.59221 -3.54264 0
M  V30 3070 H 287.243 -1.83063 -3.60929 0
M  V30 3071 H 283.998 -3.72857 -2.92018 0
M  V30 3072 H 284.422 -6.30841 -2.45701 0
M  V30 3073 H 289.064 -3.40533 -2.50593 0
M  V30 3074 H 286.782 -7.82897 -2.00245 0
M  V30 3075 H 290.368 -5.45238 -2.02995 0
M  V30 3076 H 289.248 -7.63655 -1.78326 0
M  V30 3077 N 286.751 1.08385 -1.14413 0
M  V30 3078 C 287.684 2.14642 -0.774871 0
M  V30 3079 C 288.662 1.60761 0.243876 0
M  V30 3080 O 289.846 1.88031 0.132883 0
M  V30 3081 C 286.973 3.38366 -0.150491 0
M  V30 3082 C 286.019 4.10997 -1.13945 0
M  V30 3083 S 286.852 4.63797 -2.67679 0
M  V30 3084 C 288.008 5.90808 -2.06631 0
M  V30 3085 H 288.241 2.45633 -1.67487 0
M  V30 3086 H 285.774 1.20498 -0.96538 0
M  V30 3087 H 287.732 4.09996 0.203334 0
M  V30 3088 H 286.393 3.05572 0.72694 0
M  V30 3089 H 285.586 4.99783 -0.65059 0
M  V30 3090 H 285.188 3.4528 -1.43727 0
M  V30 3091 H 287.48 6.62411 -1.4219 0
M  V30 3092 H 288.423 6.4439 -2.93542 0
M  V30 3093 H 288.831 5.4383 -1.51357 0
M  V30 3094 N 288.23 0.939286 1.26551 0
M  V30 3095 C 289.193 0.451987 2.24699 0
M  V30 3096 C 290.193 -0.435869 1.5478 0
M  V30 3097 O 291.383 -0.235314 1.72603 0
M  V30 3098 C 288.515 -0.348801 3.39111 0
M  V30 3099 H 289.708 1.3193 2.69322 0
M  V30 3100 H 287.261 0.721072 1.38673 0
M  V30 3101 H 287.996 -1.23444 2.99887 0
M  V30 3102 H 287.781 0.287945 3.91041 0
M  V30 3103 H 289.271 -0.679726 4.12031 0
M  V30 3104 N 289.708 -1.40897 0.706093 0
M  V30 3105 C 291.119 -1.84023 0.315052 0
M  V30 3106 C 291.47 -1.5906 -1.14866 0
M  V30 3107 O 290.595 -1.06651 -1.88293 0
M  V30 3108 C 291.19 -3.34055 0.565038 0
M  V30 3109 C 289.749 -3.7571 0.227806 0
M  V30 3110 C 288.896 -2.64204 0.842122 0
M  V30 3111 H 291.847 -1.303 0.905963 0
M  V30 3112 H 291.868 -3.80107 -0.172843 0
M  V30 3113 H 291.38 -3.52192 1.63042 0
M  V30 3114 H 289.481 -3.63172 -0.832895 0
M  V30 3115 H 289.594 -4.74103 0.690174 0
M  V30 3116 H 287.958 -2.53255 0.270893 0
M  V30 3117 H 288.741 -2.85155 1.91158 0
M  V30 3118 N 291.186 -0.45159 -1.50991 0
M  V30 3119 C 292.096 0.358431 -2.31846 0
M  V30 3120 C 293.112 1.01438 -1.41373 0
M  V30 3121 O 294.288 1.00663 -1.74439 0
M  V30 3122 C 291.353 1.43704 -3.15515 0
M  V30 3123 C 290.414 0.799742 -4.21785 0
M  V30 3124 C 289.647 1.82696 -5.01456 0
M  V30 3125 O 289.87 3.05105 -4.81941 0
M  V30 3126 O 288.804 1.40958 -5.85162 0
M  V30 3127 H 292.63 -0.302032 -3.02194 0
M  V30 3128 H 290.215 -0.213825 -1.47862 0
M  V30 3129 H 292.097 2.06227 -3.67489 0
M  V30 3130 H 290.772 2.08133 -2.47916 0
M  V30 3131 H 289.679 0.136084 -3.73852 0
M  V30 3132 H 291.012 0.198718 -4.91799 0
M  V30 3133 N 292.664 1.56529 -0.183458 0
M  V30 3134 C 293.91 1.97537 0.459036 0
M  V30 3135 C 294.243 1.06989 1.62071 0
M  V30 3136 O 293.518 0.11948 1.94133 0
M  V30 3137 C 293.801 3.47874 0.930368 0
M  V30 3138 C 293.654 4.492 -0.232317 0
M  V30 3139 C 294.973 4.01612 1.79989 0
M  V30 3140 H 292.092 0.718204 0.165383 0
M  V30 3141 H 294.734 1.88042 -0.272038 0
M  V30 3142 H 292.884 3.56095 1.55333 0
M  V30 3143 H 294.556 4.53027 -0.86972 0
M  V30 3144 H 292.799 4.24657 -0.885928 0
M  V30 3145 H 293.47 5.51823 0.139796 0
M  V30 3146 H 295.946 3.96097 1.27461 0
M  V30 3147 H 294.822 5.07195 2.09867 0
M  V30 3148 H 295.083 3.46163 2.74998 0
M  V30 3149 N 294.142 -0.090211 1.57342 0
M  V30 3150 C 295.391 -0.791531 1.8552 0
M  V30 3151 C 295.704 -1.79659 0.773441 0
M  V30 3152 O 296.91 -2.54616 0.942497 0
M  V30 3153 C 295.366 -1.45856 3.2902 0
M  V30 3154 C 294.974 -0.493017 4.45279 0
M  V30 3155 C 296.718 -2.14332 3.66418 0
M  V30 3156 C 294.625 -1.16491 5.79814 0
M  V30 3157 H 293.555 -0.299356 0.692027 0
M  V30 3158 H 296.206 -0.0445343 1.83446 0
M  V30 3159 H 294.588 -2.25318 3.2565 0
M  V30 3160 H 295.762 0.270464 4.60006 0
M  V30 3161 H 294.077 0.0863061 4.16311 0
M  V30 3162 H 296.674 -2.65344 4.64216 0
M  V30 3163 H 297.017 -2.93447 2.95287 0
M  V30 3164 H 297.55 -1.41724 3.71698 0
M  V30 3165 H 294.289 -0.41447 6.54188 0
M  V30 3166 H 293.809 -1.8997 5.68921 0
M  V30 3167 H 295.488 -1.69001 6.24538 0
M  V30 3168 N 295.62 -1.53406 -0.361157 0
M  V30 3169 C 296.583 -1.79479 -1.42548 0
M  V30 3170 C 297.583 -0.665327 -1.4639 0
M  V30 3171 O 298.773 -0.933549 -1.47073 0
M  V30 3172 C 295.905 -1.92087 -2.8163 0
M  V30 3173 H 297.098 -2.74538 -1.20701 0
M  V30 3174 H 294.651 -1.4455 -0.594546 0
M  V30 3175 H 295.386 -0.991099 -3.08784 0
M  V30 3176 H 295.171 -2.74241 -2.80239 0
M  V30 3177 H 296.661 -2.13836 -3.58697 0
M  V30 3178 N 297.098 0.621204 -1.44841 0
M  V30 3179 C 298.338 1.39201 -1.49674 0
M  V30 3180 C 298.702 1.91561 -0.129764 0
M  V30 3181 O 299.903 2.68748 -0.0527814 0
M  V30 3182 C 298.174 2.519 -2.53537 0
M  V30 3183 S 299.733 3.39916 -2.77494 0
M  V30 3184 H 296.551 0.474758 -0.529269 0
M  V30 3185 H 299.153 0.718171 -1.81831 0
M  V30 3186 H 297.857 2.11761 -3.51547 0
M  V30 3187 H 297.388 3.241 -2.22986 0
M  V30 3188 H 299.403 4.49646 -2.0984 0
M  V30 3189 N 298.576 1.31904 0.862503 0
M  V30 3190 C 299.853 1.12644 1.59908 0
M  V30 3191 C 300.233 -0.316104 2.0872 0
M  V30 3192 O 299.581 -1.31145 1.87118 0
M  V30 3193 C 299.791 2.1472 2.7513 0
M  V30 3194 C 301.139 2.47637 3.44907 0
M  V30 3195 O 302.163 2.13205 2.85346 0
M  V30 3196 O 301.022 3.06632 4.52371 0
M  V30 3197 H 298.116 0.43416 0.703871 0
M  V30 3198 H 300.662 1.43408 0.907314 0
M  V30 3199 H 299.434 3.1172 2.3653 0
M  V30 3200 H 299.057 1.84905 3.51989 0
M  V30 3201 N 300.054 -1.07777 1.14986 0
M  V30 3202 C 300.964 -2.18404 0.856546 0
M  V30 3203 C 301.98 -1.73211 -0.165485 0
M  V30 3204 O 303.156 -2.01399 0.00755219 0
M  V30 3205 C 300.221 -3.44977 0.34526 0
M  V30 3206 C 299.282 -4.0476 1.43065 0
M  V30 3207 C 298.515 -5.25291 0.943663 0
M  V30 3208 O 298.738 -5.70004 -0.212426 0
M  V30 3209 O 297.672 -5.76638 1.72547 0
M  V30 3210 H 301.498 -2.45978 1.78125 0
M  V30 3211 H 299.083 -1.17033 0.928631 0
M  V30 3212 H 300.965 -4.21348 0.0663671 0
M  V30 3213 H 299.64 -3.18965 -0.551631 0
M  V30 3214 H 298.547 -3.29949 1.76309 0
M  V30 3215 H 299.88 -4.35035 2.30229 0
M  V30 3216 N 301.532 -0.945985 -1.26051 0
M  V30 3217 C 302.48 -0.450259 -2.282 0
M  V30 3218 C 303.474 0.47497 -1.62605 0
M  V30 3219 O 304.68 0.352653 -1.76512 0
M  V30 3220 H 301.055 -0.127081 -0.741184 0
M  V30 3221 H 303.026 -1.32422 -2.67408 0
M  V30 3222 C 301.775 0.26467 -3.46691 0
M  V30 3223 H 301.098 -0.438123 -3.97392 0
M  V30 3224 H 302.538 0.575678 -4.20074 0
M  V30 3225 C 300.997 1.48416 -3.02447 0
M  V30 3226 O 301.527 2.58227 -3.07704 0
M  V30 3227 N 299.733 1.34243 -2.57735 0
M  V30 3228 H 299.28 0.448994 -2.53657 0
M  V30 3229 H 299.238 2.15957 -2.28495 0
M  V30 3230 N 303.011 1.40521 -0.713556 0
M  V30 3231 C 304.422 1.83853 -0.324807 0
M  V30 3232 C 304.773 1.59667 1.14021 0
M  V30 3233 O 303.898 1.07649 1.87725 0
M  V30 3234 C 304.493 3.33751 -0.582746 0
M  V30 3235 C 303.052 3.75584 -0.247727 0
M  V30 3236 C 302.199 2.63753 -0.856121 0
M  V30 3237 H 305.15 1.29817 -0.91286 0
M  V30 3238 H 305.171 3.80194 0.152682 0
M  V30 3239 H 304.683 3.51322 -1.64908 0
M  V30 3240 H 302.784 3.63608 0.813624 0
M  V30 3241 H 302.897 4.7373 -0.715307 0
M  V30 3242 H 301.261 2.53108 -0.28432 0
M  V30 3243 H 302.044 2.84137 -1.92668 0
M  V30 3244 N 304.489 0.459591 1.5075 0
M  V30 3245 C 305.766 -0.160371 1.94941 0
M  V30 3246 C 306.146 -1.58048 1.39943 0
M  V30 3247 O 305.494 -2.206 0.595629 0
M  V30 3248 C 305.704 -0.115432 3.48809 0
M  V30 3249 C 307.052 -0.310026 4.23467 0
M  V30 3250 O 308.076 -0.192543 3.55679 0
M  V30 3251 O 306.935 -0.546031 5.43765 0
M  V30 3252 H 304.029 -0.117925 0.818549 0
M  V30 3253 H 306.575 0.519169 1.61563 0
M  V30 3254 H 305.347 0.87652 3.81357 0
M  V30 3255 H 304.97 -0.836928 3.88692 0
M  V30 3256 N 305.967 -1.56429 0.191757 0
M  V30 3257 C 306.93 -2.17707 -0.716688 0
M  V30 3258 C 307.93 -1.13061 -1.14341 0
M  V30 3259 O 309.12 -1.38464 -1.05704 0
M  V30 3260 C 306.252 -2.77644 -1.97804 0
M  V30 3261 H 307.445 -2.99342 -0.1829 0
M  V30 3262 H 304.998 -1.56193 -0.0578566 0
M  V30 3263 H 305.733 -1.99799 -2.55443 0
M  V30 3264 H 305.518 -3.54246 -1.68083 0
M  V30 3265 H 307.008 -3.24708 -2.62592 0
M  V30 3266 N 307.445 0.0818655 -1.57387 0
M  V30 3267 C 308.673 0.796108 -1.9097 0
M  V30 3268 C 309.088 1.71626 -0.786757 0
M  V30 3269 O 308.445 1.80908 0.240513 0
M  V30 3270 C 308.496 1.59829 -3.24248 0
M  V30 3271 O 308.217 0.715131 -4.32224 0
M  V30 3272 C 309.718 2.41442 -3.7178 0
M  V30 3273 H 306.938 0.22691 -0.631469 0
M  V30 3274 H 309.482 0.0551439 -2.04426 0
M  V30 3275 H 307.637 2.29163 -3.12351 0
M  V30 3276 H 308.051 1.27205 -5.08841 0
M  V30 3277 H 309.525 2.932 -4.67694 0
M  V30 3278 H 310.002 3.2051 -3.00283 0
M  V30 3279 H 310.608 1.77283 -3.86589 0
M  V30 3280 N 308.923 1.53595 0.353017 0
M  V30 3281 C 310.153 1.74058 1.11299 0
M  V30 3282 C 310.561 0.475205 1.83135 0
M  V30 3283 O 309.904 -0.562344 1.74881 0
M  V30 3284 C 309.966 2.85994 2.17825 0
M  V30 3285 C 309.63 4.25923 1.65647 0
M  V30 3286 C 310.627 5.07829 1.11383 0
M  V30 3287 C 308.312 4.72377 1.7078 0
M  V30 3288 C 310.306 6.34285 0.629439 0
M  V30 3289 C 307.993 5.98808 1.21953 0
M  V30 3290 C 308.991 6.79594 0.681265 0
M  V30 3291 O 308.679 8.03651 0.200248 0
M  V30 3292 H 308.411 0.585327 0.338183 0
M  V30 3293 H 310.965 2.01186 0.413927 0
M  V30 3294 H 309.195 2.54368 2.91262 0
M  V30 3295 H 310.884 2.94515 2.79313 0
M  V30 3296 H 311.65 4.73107 1.06746 0
M  V30 3297 H 307.529 4.0956 2.11617 0
M  V30 3298 H 311.073 6.97288 0.208636 0
M  V30 3299 H 306.97 6.33026 1.26287 0
M  V30 3300 H 307.738 8.1788 0.318416 0
M  V30 3301 N 310.401 -0.613514 1.45168 0
M  V30 3302 C 311.678 -1.37263 1.39349 0
M  V30 3303 C 312.058 -2.11012 0.0610848 0
M  V30 3304 O 311.406 -2.07502 -0.956825 0
M  V30 3305 C 311.616 -2.3244 2.60332 0
M  V30 3306 C 312.964 -2.9523 3.05163 0
M  V30 3307 O 313.988 -2.42762 2.60663 0
M  V30 3308 O 312.847 -3.90454 3.82372 0
M  V30 3309 H 309.941 -0.615188 0.552696 0
M  V30 3310 H 312.487 -0.637097 1.57287 0
M  V30 3311 H 311.259 -1.77164 3.48896 0
M  V30 3312 H 310.882 -3.13383 2.44698 0
M  V30 3313 N 311.879 -1.3236 -0.855495 0
M  V30 3314 C 313.126 -1.22872 -1.60962 0
M  V30 3315 C 313.454 0.209658 -1.93367 0
M  V30 3316 O 312.709 1.16243 -1.57436 0
M  V30 3317 C 313.008 -2.03275 -2.93963 0
M  V30 3318 C 312.674 -3.5264 -2.80991 0
M  V30 3319 C 311.336 -3.93364 -2.7716 0
M  V30 3320 C 313.688 -4.47626 -2.66983 0
M  V30 3321 C 311.016 -5.27319 -2.572 0
M  V30 3322 C 313.368 -5.81723 -2.48558 0
M  V30 3323 C 312.032 -6.2165 -2.4312 0
M  V30 3324 H 311.302 -0.44962 -0.589001 0
M  V30 3325 H 313.949 -1.63777 -0.992442 0
M  V30 3326 H 312.254 -1.55095 -3.59795 0
M  V30 3327 H 313.951 -1.93303 -3.51333 0
M  V30 3328 H 310.541 -3.20295 -2.84797 0
M  V30 3329 H 314.725 -4.17084 -2.68988 0
M  V30 3330 H 309.981 -5.57311 -2.51424 0
M  V30 3331 H 314.155 -6.5494 -2.36699 0
M  V30 3332 H 311.782 -7.25388 -2.27412 0
M  V30 3333 N 313.357 1.07166 -1.15556 0
M  V30 3334 C 314.304 2.14417 -0.854055 0
M  V30 3335 C 315.274 1.64965 0.193806 0
M  V30 3336 O 316.459 1.90703 0.0609443 0
M  V30 3337 C 313.599 3.43304 -0.351574 0
M  V30 3338 C 312.712 4.06537 -1.46123 0
M  V30 3339 C 311.847 5.23266 -0.914677 0
M  V30 3340 C 310.886 5.78464 -2.00114 0
M  V30 3341 N 310.023 6.86521 -1.47083 0
M  V30 3342 H 314.863 2.39548 -1.77259 0
M  V30 3343 H 312.4 1.17543 -0.884425 0
M  V30 3344 H 314.358 4.17179 -0.0419409 0
M  V30 3345 H 312.988 3.18419 0.530037 0
M  V30 3346 H 312.04 3.30297 -1.88701 0
M  V30 3347 H 313.352 4.43567 -2.28144 0
M  V30 3348 H 312.506 6.04131 -0.557698 0
M  V30 3349 H 311.245 4.87658 -0.0636583 0
M  V30 3350 H 310.25 4.96243 -2.36692 0
M  V30 3351 H 311.475 6.16126 -2.85597 0
M  V30 3352 H 309.421 6.52849 -0.642198 0
M  V30 3353 H 309.338 7.22446 -2.22729 0
M  V30 3354 H 310.606 7.71087 -1.14215 0
M  V30 3355 N 314.835 0.952656 1.25548 0
M  V30 3356 C 316.06 0.623025 1.97821 0
M  V30 3357 C 316.485 -0.7976 1.70352 0
M  V30 3358 O 315.843 -1.53905 0.958283 0
M  V30 3359 C 315.891 0.885532 3.49558 0
M  V30 3360 O 314.995 -0.0366641 4.12384 0
M  V30 3361 H 314.336 0.237082 0.620232 0
M  V30 3362 H 316.866 1.27871 1.59719 0
M  V30 3363 H 316.876 0.811009 3.99858 0
M  V30 3364 H 315.551 1.92094 3.6888 0
M  V30 3365 H 314.128 0.0898954 3.72792 0
M  V30 3366 N 316.313 -1.40141 0.720998 0
M  V30 3367 C 317.59 -1.94677 0.189757 0
M  V30 3368 C 317.97 -1.65879 -1.30566 0
M  V30 3369 O 317.318 -0.979391 -2.06447 0
M  V30 3370 C 317.528 -3.45279 0.508304 0
M  V30 3371 C 318.876 -4.22209 0.449934 0
M  V30 3372 O 319.9 -3.53413 0.444677 0
M  V30 3373 O 318.759 -5.44788 0.432189 0
M  V30 3374 H 315.853 -0.826459 0.0299026 0
M  V30 3375 H 318.399 -1.49719 0.7989 0
M  V30 3376 H 317.171 -3.59619 1.54239 0
M  V30 3377 H 316.794 -3.97386 -0.130525 0
M  V30 3378 N 317.792 -0.46758 -1.50504 0
M  V30 3379 C 318.722 0.318381 -2.31319 0
M  V30 3380 C 319.703 0.993564 -1.38066 0
M  V30 3381 O 320.888 0.991411 -1.66987 0
M  V30 3382 C 318.018 1.40275 -3.17711 0
M  V30 3383 C 316.972 0.849373 -4.19487 0
M  V30 3384 C 316.298 2.03177 -4.94594 0
M  V30 3385 C 317.598 -0.136942 -5.2212 0
M  V30 3386 H 319.292 -0.356106 -2.97275 0
M  V30 3387 H 316.838 -0.172703 -1.42961 0
M  V30 3388 H 318.791 1.96004 -3.73042 0
M  V30 3389 H 317.515 2.10596 -2.49634 0
M  V30 3390 H 316.174 0.314076 -3.65252 0
M  V30 3391 H 315.822 2.72187 -4.22993 0
M  V30 3392 H 315.522 1.66774 -5.63436 0
M  V30 3393 H 317.046 2.59403 -5.52759 0
M  V30 3394 H 318.46 0.331056 -5.72343 0
M  V30 3395 H 316.857 -0.41507 -5.98663 0
M  V30 3396 H 317.927 -1.06398 -4.73083 0
M  V30 3397 N 319.27 1.56325 -0.20005 0
M  V30 3398 C 320.516 1.98772 0.431408 0
M  V30 3399 C 320.871 1.0849 1.58895 0
M  V30 3400 O 320.164 0.130331 1.91156 0
M  V30 3401 C 320.358 3.4495 0.935103 0
M  V30 3402 C 320.187 4.49371 -0.172096 0
M  V30 3403 C 318.957 5.0134 -0.631377 0
M  V30 3404 C 321.155 5.04822 -0.982806 0
M  V30 3405 N 319.137 5.89433 -1.71588 0
M  V30 3406 C 320.508 5.89632 -1.91661 0
M  V30 3407 C 322.563 4.87242 -1.02467 0
M  V30 3408 C 321.266 6.58741 -2.88881 0
M  V30 3409 C 323.292 5.57094 -1.98494 0
M  V30 3410 C 322.654 6.41655 -2.90617 0
M  V30 3411 H 318.753 0.771922 0.125144 0
M  V30 3412 H 321.337 1.92266 -0.306883 0
M  V30 3413 H 319.508 3.51946 1.64282 0
M  V30 3414 H 321.24 3.74354 1.53758 0
M  V30 3415 H 317.995 4.73071 -0.223827 0
M  V30 3416 H 318.419 6.38182 -2.25948 0
M  V30 3417 H 323.061 4.21538 -0.326408 0
M  V30 3418 H 320.779 7.23641 -3.5968 0
M  V30 3419 H 324.365 5.45466 -2.0238 0
M  V30 3420 H 323.245 6.94755 -3.63711 0
M  V30 3421 N 320.748 -0.0735177 1.57428 0
M  V30 3422 C 321.973 -0.789787 1.91774 0
M  V30 3423 C 322.398 -1.70413 0.796306 0
M  V30 3424 O 321.756 -1.79555 -0.250961 0
M  V30 3425 C 321.804 -1.5609 3.25067 0
M  V30 3426 O 320.908 -2.67144 3.14178 0
M  V30 3427 H 320.249 -0.215582 0.628029 0
M  V30 3428 H 322.779 -0.0422781 2.04556 0
M  V30 3429 H 322.789 -1.94052 3.58898 0
M  V30 3430 H 321.464 -0.890015 4.06265 0
M  V30 3431 H 320.041 -2.32052 2.91901 0
M  V30 3432 N 322.226 -1.5378 -0.344866 0
M  V30 3433 C 323.156 -1.84662 -1.42906 0
M  V30 3434 C 324.137 -0.701648 -1.54955 0
M  V30 3435 O 325.322 -0.953438 -1.69184 0
M  V30 3436 C 322.452 -2.05503 -2.79974 0
M  V30 3437 C 321.406 -3.21318 -2.82734 0
M  V30 3438 C 320.732 -3.2749 -4.22675 0
M  V30 3439 C 322.032 -4.59456 -2.48389 0
M  V30 3440 H 323.726 -2.75461 -1.17311 0
M  V30 3441 H 321.272 -1.32542 -0.562896 0
M  V30 3442 H 323.225 -2.25691 -3.55867 0
M  V30 3443 H 321.949 -1.11434 -3.07002 0
M  V30 3444 H 320.608 -3.00984 -2.09294 0
M  V30 3445 H 320.256 -2.31019 -4.4681 0
M  V30 3446 H 319.956 -4.05316 -4.25433 0
M  V30 3447 H 321.48 -3.49887 -5.00412 0
M  V30 3448 H 322.894 -4.79667 -3.13995 0
M  V30 3449 H 321.291 -5.39675 -2.62432 0
M  V30 3450 H 322.361 -4.63155 -1.4358 0
M  V30 3451 N 323.704 0.605807 -1.45491 0
M  V30 3452 C 324.952 1.36207 -1.49305 0
M  V30 3453 C 325.273 1.94519 -0.136863 0
M  V30 3454 O 324.543 1.77261 0.833983 0
M  V30 3455 H 323.123 0.50565 -0.549843 0
M  V30 3456 H 325.785 0.711239 -1.81459 0
M  V30 3457 H 324.881 2.18058 -2.23287 0
M  V30 3458 N 325.182 1.32811 0.848464 0
M  V30 3459 C 326.431 1.23075 1.59798 0
M  V30 3460 C 326.744 -0.204419 1.94529 0
M  V30 3461 O 327.95 -0.423701 2.68173 0
M  V30 3462 C 326.406 2.15594 2.88179 0
M  V30 3463 C 326.014 3.64228 2.60849 0
M  V30 3464 C 327.758 2.14709 3.66197 0
M  V30 3465 C 325.665 4.48689 3.85269 0
M  V30 3466 H 324.595 0.457091 0.599653 0
M  V30 3467 H 327.246 1.57813 0.936342 0
M  V30 3468 H 325.628 1.73778 3.55833 0
M  V30 3469 H 326.802 4.14424 2.01467 0
M  V30 3470 H 325.117 3.67306 1.96151 0
M  V30 3471 H 327.714 2.75046 4.58534 0
M  V30 3472 H 328.057 1.13966 4.00397 0
M  V30 3473 H 328.59 2.54837 3.05455 0
M  V30 3474 H 325.329 5.5027 3.56207 0
M  V30 3475 H 324.849 4.03241 4.44024 0
M  V30 3476 H 326.528 4.62006 4.52946 0
M  V30 3477 N 326.66 -1.06551 1.16123 0
M  V30 3478 C 327.888 -1.83005 0.965237 0
M  V30 3479 C 328.303 -1.82423 -0.486542 0
M  V30 3480 O 327.66 -1.24152 -1.33763 0
M  V30 3481 C 327.711 -3.29733 1.48183 0
M  V30 3482 O 327.432 -3.30416 2.87674 0
M  V30 3483 C 328.933 -4.22926 1.32848 0
M  V30 3484 H 326.153 -0.577118 0.342309 0
M  V30 3485 H 328.697 -1.3445 1.54089 0
M  V30 3486 H 326.852 -3.75609 0.948517 0
M  V30 3487 H 327.266 -4.22149 3.11272 0
M  V30 3488 H 328.74 -5.23916 1.73827 0
M  V30 3489 H 329.217 -4.38346 0.273692 0
M  V30 3490 H 329.823 -3.82894 1.85127 0
M  V30 3491 N 328.138 -0.959301 -1.25041 0
M  V30 3492 C 329.101 -0.487677 -2.23952 0
M  V30 3493 C 330.101 0.41119 -1.55454 0
M  V30 3494 O 331.291 0.207825 -1.72956 0
M  V30 3495 C 328.423 0.294807 -3.39623 0
M  V30 3496 H 329.616 -1.36198 -2.67189 0
M  V30 3497 H 327.169 -0.743042 -1.37508 0
M  V30 3498 H 327.904 1.18658 -3.01813 0
M  V30 3499 H 327.689 -0.35012 -3.90534 0
M  V30 3500 H 329.179 0.614089 -4.1306 0
M  V30 3501 N 329.616 1.39756 -0.72842 0
M  V30 3502 C 330.865 1.99879 -0.270407 0
M  V30 3503 C 331.178 1.58449 1.14688 0
M  V30 3504 O 332.384 2.11362 1.70407 0
M  V30 3505 C 330.84 3.57292 -0.43252 0
M  V30 3506 C 330.448 4.07688 -1.85727 0
M  V30 3507 C 332.192 4.24485 -0.0359507 0
M  V30 3508 C 330.099 5.5765 -1.96928 0
M  V30 3509 H 329.029 0.747689 -0.0973472 0
M  V30 3510 H 331.68 1.59837 -0.901355 0
M  V30 3511 H 330.062 3.95097 0.267219 0
M  V30 3512 H 331.236 3.81231 -2.58843 0
M  V30 3513 H 329.551 3.53135 -2.20646 0
M  V30 3514 H 332.148 5.34609 -0.0987484 0
M  V30 3515 H 332.491 4.03915 1.00787 0
M  V30 3516 H 333.024 3.9183 -0.686604 0
M  V30 3517 H 329.763 5.8309 -2.99476 0
M  V30 3518 H 329.283 5.8593 -1.28241 0
M  V30 3519 H 330.962 6.22957 -1.74737 0
M  V30 3520 N 331.094 0.475555 1.50254 0
M  V30 3521 C 332.004 -0.321501 2.32387 0
M  V30 3522 C 333.02 -0.991755 1.42969 0
M  V30 3523 O 334.196 -0.978747 1.76018 0
M  V30 3524 C 331.261 -1.38667 3.17762 0
M  V30 3525 C 330.322 -0.732538 4.23004 0
M  V30 3526 C 329.555 -1.74695 5.04299 0
M  V30 3527 O 329.778 -2.97399 4.86734 0
M  V30 3528 O 328.712 -1.31631 5.8733 0
M  V30 3529 H 332.538 0.350071 3.01676 0
M  V30 3530 H 330.123 0.237321 1.47503 0
M  V30 3531 H 332.005 -2.00354 3.70724 0
M  V30 3532 H 330.68 -2.04163 2.51196 0
M  V30 3533 H 329.587 -0.0765902 3.74022 0
M  V30 3534 H 330.92 -0.120452 4.92053 0
M  V30 3535 N 332.573 -1.56217 0.208337 0
M  V30 3536 C 333.506 -2.15633 -0.746842 0
M  V30 3537 C 334.484 -1.09685 -1.20034 0
M  V30 3538 O 335.668 -1.3787 -1.28547 0
M  V30 3539 C 332.795 -2.72594 -2.01023 0
M  V30 3540 C 331.841 -3.91251 -1.69779 0
M  V30 3541 S 332.674 -5.28962 -0.834209 0
M  V30 3542 C 333.83 -5.89353 -2.10745 0
M  V30 3543 H 334.063 -2.96315 -0.241789 0
M  V30 3544 H 331.596 -1.54398 -0.00682183 0
M  V30 3545 H 333.554 -3.06053 -2.73572 0
M  V30 3546 H 332.215 -1.91929 -2.48641 0
M  V30 3547 H 331.408 -4.29562 -2.63614 0
M  V30 3548 H 331.01 -3.58869 -1.05303 0
M  V30 3549 H 333.302 -6.04522 -3.05875 0
M  V30 3550 H 334.245 -6.85661 -1.76845 0
M  V30 3551 H 334.653 -5.1807 -2.24196 0
M  V30 3552 N 334.051 0.0651679 -1.57465 0
M  V30 3553 C 335.014 1.06117 -2.03155 0
M  V30 3554 C 336.014 1.31204 -0.929632 0
M  V30 3555 O 337.204 1.26813 -1.19432 0
M  V30 3556 C 334.336 2.4032 -2.41783 0
M  V30 3557 H 335.529 0.667231 -2.92383 0
M  V30 3558 H 333.082 0.311075 -1.53173 0
M  V30 3559 H 333.817 2.84532 -1.55601 0
M  V30 3560 H 333.602 2.23451 -3.22199 0
M  V30 3561 H 335.092 3.11898 -2.77685 0
M  V30 3562 N 335.529 1.53961 0.336706 0
M  V30 3563 C 336.439 1.85432 1.43708 0
M  V30 3564 C 337.455 0.745053 1.57242 0
M  V30 3565 O 338.631 1.03804 1.72588 0
M  V30 3566 C 335.696 2.06349 2.78605 0
M  V30 3567 C 334.757 3.30191 2.74358 0
M  V30 3568 C 333.99 3.50101 4.02822 0
M  V30 3569 O 334.213 2.7371 5.00439 0
M  V30 3570 O 333.147 4.43547 4.06878 0
M  V30 3571 H 336.973 2.78975 1.20028 0
M  V30 3572 H 334.558 1.39701 0.52952 0
M  V30 3573 H 336.44 2.21513 3.58483 0
M  V30 3574 H 335.115 1.15995 3.02203 0
M  V30 3575 H 334.022 3.20425 1.93078 0
M  V30 3576 H 335.355 4.2056 2.55715 0
M  V30 3577 N 337.007 -0.598083 1.45811 0
M  V30 3578 C 338.255 -1.35413 1.50026 0
M  V30 3579 C 338.576 -1.94444 0.147177 0
M  V30 3580 O 337.846 -1.77701 -0.824571 0
M  V30 3581 H 336.426 -0.502727 0.552517 0
M  V30 3582 H 339.088 -0.701606 1.81834 0
M  V30 3583 H 338.184 -2.16871 2.2444 0
M  V30 3584 N 338.485 -1.33259 -0.841409 0
M  V30 3585 C 339.448 -1.23221 -1.9326 0
M  V30 3586 C 340.448 -0.151895 -1.60081 0
M  V30 3587 O 341.638 -0.403246 -1.69468 0
M  V30 3588 C 338.77 -0.898123 -3.28856 0
M  V30 3589 H 339.963 -2.2021 -2.03587 0
M  V30 3590 H 337.516 -1.17281 -1.03319 0
M  V30 3591 H 338.251 0.0693841 -3.24226 0
M  V30 3592 H 338.036 -1.67934 -3.54317 0
M  V30 3593 H 339.526 -0.852563 -4.08805 0
M  V30 3594 N 339.963 1.05934 -1.16686 0
M  V30 3595 C 341.374 1.60263 -0.957745 0
M  V30 3596 C 341.725 1.89789 0.49745 0
M  V30 3597 O 340.85 1.67401 1.37135 0
M  V30 3598 C 341.445 2.91172 -1.73218 0
M  V30 3599 C 340.004 3.42188 -1.56794 0
M  V30 3600 C 339.151 2.16028 -1.73859 0
M  V30 3601 H 342.102 0.888392 -1.31504 0
M  V30 3602 H 342.123 3.60744 -1.21014 0
M  V30 3603 H 341.635 2.6965 -2.79124 0
M  V30 3604 H 339.736 3.68762 -0.533437 0
M  V30 3605 H 339.849 4.17273 -2.35414 0
M  V30 3606 H 338.213 2.26426 -1.16633 0
M  V30 3607 H 338.996 1.96985 -2.81161 0
M  V30 3608 N 341.441 0.965919 1.2453 0
M  V30 3609 C 342.852 0.665929 1.7442 0
M  V30 3610 C 343.203 -0.818407 1.78316 0
M  V30 3611 O 342.328 -1.64037 1.41141 0
M  V30 3612 C 342.923 1.20211 3.16757 0
M  V30 3613 C 341.482 0.952059 3.6416 0
M  V30 3614 C 340.629 1.33848 2.42858 0
M  V30 3615 H 343.58 1.14144 1.10258 0
M  V30 3616 H 343.601 0.567544 3.76244 0
M  V30 3617 H 343.113 2.28244 3.13889 0
M  V30 3618 H 341.214 -0.112821 3.72429 0
M  V30 3619 H 341.327 1.59645 4.51719 0
M  V30 3620 H 339.691 0.756864 2.43195 0
M  V30 3621 H 340.474 2.42827 2.42673 0
M  V30 3622 N 342.919 -1.39368 0.735821 0
M  V30 3623 C 343.849 -2.33234 0.111506 0
M  V30 3624 C 344.83 -1.53954 -0.723334 0
M  V30 3625 O 346.015 -1.82344 -0.668147 0
M  V30 3626 C 343.145 -3.38057 -0.795917 0
M  V30 3627 C 342.099 -4.2795 -0.065172 0
M  V30 3628 C 341.425 -5.23479 -1.08967 0
M  V30 3629 C 342.725 -5.10741 1.09273 0
M  V30 3630 H 344.419 -2.85692 0.895571 0
M  V30 3631 H 341.965 -1.37364 0.432109 0
M  V30 3632 H 343.918 -4.02675 -1.24221 0
M  V30 3633 H 342.642 -2.8404 -1.61211 0
M  V30 3634 H 341.301 -3.64813 0.361511 0
M  V30 3635 H 340.949 -4.65758 -1.89944 0
M  V30 3636 H 340.649 -5.84472 -0.605489 0
M  V30 3637 H 342.173 -5.90974 -1.53565 0
M  V30 3638 H 343.587 -5.68699 0.724841 0
M  V30 3639 H 341.984 -5.8088 1.50659 0
M  V30 3640 H 343.054 -4.45525 1.91404 0
M  V30 3641 N 344.397 -0.483516 -1.5 0
M  V30 3642 C 345.637 0.0657469 -2.04294 0
M  V30 3643 C 346.001 1.35869 -1.35659 0
M  V30 3644 O 347.202 1.99111 -1.80578 0
M  V30 3645 C 345.473 0.232758 -3.56641 0
M  V30 3646 S 347.032 0.738788 -4.32536 0
M  V30 3647 H 343.85 0.0100755 -0.710929 0
M  V30 3648 H 346.452 -0.653494 -1.84254 0
M  V30 3649 H 345.156 -0.713847 -4.04144 0
M  V30 3650 H 344.687 0.977751 -3.81056 0
M  V30 3651 H 346.702 2.01048 -4.53645 0
M  V30 3652 N 345.875 1.56104 -0.216619 0
M  V30 3653 C 347.152 1.89988 0.465165 0
M  V30 3654 C 347.532 1.13326 1.78102 0
M  V30 3655 O 346.88 0.241033 2.27225 0
M  V30 3656 C 347.09 3.42646 0.662939 0
M  V30 3657 C 348.438 4.13311 0.972602 0
M  V30 3658 O 349.462 3.48217 0.749901 0
M  V30 3659 O 348.321 5.28396 1.39499 0
M  V30 3660 H 345.415 0.78979 0.245276 0
M  V30 3661 H 347.961 1.67721 -0.258436 0
M  V30 3662 H 346.733 3.90399 -0.26543 0
M  V30 3663 H 346.356 3.70677 1.43821 0
M  V30 3664 N 347.353 -0.0568162 1.57498 0
M  V30 3665 C 348.286 -1.09817 2.00039 0
M  V30 3666 C 349.264 -1.3674 0.879819 0
M  V30 3667 O 350.448 -1.49863 1.14338 0
M  V30 3668 C 347.575 -2.43924 2.34986 0
M  V30 3669 C 346.621 -2.33039 3.57204 0
M  V30 3670 S 347.454 -1.7102 5.07457 0
M  V30 3671 C 348.61 -3.06674 5.45621 0
M  V30 3672 H 348.843 -0.735701 2.88053 0
M  V30 3673 H 346.376 -0.265871 1.52094 0
M  V30 3674 H 348.334 -3.2106 2.55795 0
M  V30 3675 H 346.995 -2.77327 1.47474 0
M  V30 3676 H 346.188 -3.31973 3.79223 0
M  V30 3677 H 345.79 -1.64043 3.36104 0
M  V30 3678 H 348.082 -4.03 5.44608 0
M  V30 3679 H 349.025 -2.8942 6.46252 0
M  V30 3680 H 349.433 -3.07969 4.73091 0
M  V30 3681 N 348.832 -1.54138 -0.328536 0
M  V30 3682 C 349.782 -1.79557 -1.4051 0
M  V30 3683 C 350.766 -0.651373 -1.47126 0
M  V30 3684 O 351.958 -0.911226 -1.51742 0
M  V30 3685 C 349.087 -2.02196 -2.77438 0
M  V30 3686 C 348.173 -3.22724 -2.75155 0
M  V30 3687 N 348.564 -4.43881 -2.42494 0
M  V30 3688 C 346.862 -3.24196 -3.06289 0
M  V30 3689 C 347.563 -5.25797 -2.48822 0
M  V30 3690 N 346.539 -4.62862 -2.8506 0
M  V30 3691 H 350.341 -2.70814 -1.1418 0
M  V30 3692 H 347.855 -1.53265 -0.536991 0
M  V30 3693 H 349.852 -2.18546 -3.55026 0
M  V30 3694 H 348.512 -1.12191 -3.04702 0
M  V30 3695 H 349.523 -4.70969 -2.15428 0
M  V30 3696 H 346.2 -2.44208 -3.38627 0
M  V30 3697 H 347.59 -6.32535 -2.26603 0
M  V30 3698 N 350.31 0.590341 -1.46126 0
M  V30 3699 C 351.721 1.17243 -1.45296 0
M  V30 3700 C 352.072 1.95281 -0.189723 0
M  V30 3701 O 351.197 2.04502 0.707674 0
M  V30 3702 C 351.792 2.13284 -2.6324 0
M  V30 3703 C 350.351 2.66832 -2.65476 0
M  V30 3704 C 349.498 1.42557 -2.3785 0
M  V30 3705 H 352.449 0.378692 -1.54116 0
M  V30 3706 H 352.47 2.96619 -2.38323 0
M  V30 3707 H 351.982 1.56459 -3.55165 0
M  V30 3708 H 350.083 3.27548 -1.77603 0
M  V30 3709 H 350.196 3.10088 -3.65215 0
M  V30 3710 H 348.56 1.72107 -1.87753 0
M  V30 3711 H 349.343 0.875741 -3.31942 0
M  V30 3712 N 351.788 1.33704 0.83433 0
M  V30 3713 C 352.721 1.18675 1.94914 0
M  V30 3714 C 353.699 0.0811145 1.62398 0
M  V30 3715 O 354.883 0.244186 1.86912 0
M  V30 3716 C 352.01 0.821231 3.28593 0
M  V30 3717 C 351.056 1.93501 3.80079 0
M  V30 3718 S 351.889 3.54671 4.01209 0
M  V30 3719 C 353.045 3.20136 5.37833 0
M  V30 3720 H 353.278 2.13043 2.07364 0
M  V30 3721 H 350.811 1.18598 0.988624 0
M  V30 3722 H 352.769 0.617123 4.05835 0
M  V30 3723 H 351.43 -0.103927 3.13928 0
M  V30 3724 H 350.623 1.63273 4.76821 0
M  V30 3725 H 350.225 2.09601 3.09747 0
M  V30 3726 H 352.517 2.71242 6.20833 0
M  V30 3727 H 353.46 4.15975 5.73036 0
M  V30 3728 H 353.868 2.56613 5.02802 0
M  V30 3729 N 353.266 -1.05314 1.17247 0
M  V30 3730 C 354.682 -1.30452 0.919473 0
M  V30 3731 C 354.882 -1.9703 -0.42209 0
M  V30 3732 O 353.938 -2.24311 -1.15935 0
M  V30 3733 C 355.251 -2.17551 2.07586 0
M  V30 3734 C 356.799 -2.30937 2.11275 0
M  V30 3735 C 357.274 -3.21396 3.26296 0
M  V30 3736 N 358.765 -3.28981 3.26076 0
M  V30 3737 C 359.5 -3.99095 4.11716 0
M  V30 3738 N 358.996 -4.71648 5.07465 0
M  V30 3739 N 360.789 -3.95247 3.9967 0
M  V30 3740 H 352.94 -0.604988 2.03602 0
M  V30 3741 H 355.203 -0.329368 0.888944 0
M  V30 3742 H 354.909 -1.75921 3.0454 0
M  V30 3743 H 354.783 -3.18182 2.02584 0
M  V30 3744 H 357.17 -2.71809 1.14907 0
M  V30 3745 H 357.251 -1.2994 2.20339 0
M  V30 3746 H 356.895 -2.81238 4.22927 0
M  V30 3747 H 356.825 -4.22395 3.14467 0
M  V30 3748 H 359.316 -2.77286 2.5675 0
M  V30 3749 H 359.629 -5.22705 5.6921 0
M  V30 3750 H 357.974 -4.70594 5.11435 0
M  V30 3751 H 361.165 -3.37691 3.24164 0
M  V30 3752 H 361.338 -4.4962 4.66632 0
M  V30 3753 N 354.744 -0.972509 -1.24016 0
M  V30 3754 C 355.707 -0.511403 -2.23422 0
M  V30 3755 C 356.707 0.394679 -1.55881 0
M  V30 3756 O 357.897 0.189469 -1.73167 0
M  V30 3757 C 355.029 0.258769 -3.39916 0
M  V30 3758 H 356.222 -1.39024 -2.6573 0
M  V30 3759 H 353.775 -0.757585 -1.36713 0
M  V30 3760 H 354.51 1.1545 -3.03054 0
M  V30 3761 H 354.295 -0.391522 -3.9014 0
M  V30 3762 H 355.785 0.570244 -4.13688 0
M  V30 3763 N 356.222 1.38976 -0.743202 0
M  V30 3764 C 357.152 2.33171 -0.123873 0
M  V30 3765 C 358.133 1.54336 0.71516 0
M  V30 3766 O 359.318 1.82696 0.658467 0
M  V30 3767 C 356.448 3.38474 0.777978 0
M  V30 3768 C 355.402 4.27979 0.0424758 0
M  V30 3769 C 354.728 5.2405 1.06189 0
M  V30 3770 C 356.028 5.10155 -1.1198 0
M  V30 3771 H 357.722 2.85213 -0.910709 0
M  V30 3772 H 355.268 1.37133 -0.439388 0
M  V30 3773 H 357.221 4.03328 1.22084 0
M  V30 3774 H 355.945 2.84891 1.59702 0
M  V30 3775 H 354.604 3.64616 -0.380853 0
M  V30 3776 H 354.252 4.66758 1.87472 0
M  V30 3777 H 353.952 5.84785 0.574485 0
M  V30 3778 H 355.476 5.9178 1.50428 0
M  V30 3779 H 356.89 5.68307 -0.75499 0
M  V30 3780 H 355.287 5.80073 -1.53738 0
M  V30 3781 H 356.357 4.44504 -1.93764 0
M  V30 3782 N 357.7 0.491464 1.49741 0
M  V30 3783 C 358.947 -0.0564256 2.02421 0
M  V30 3784 C 359.275 -1.37872 1.37192 0
M  V30 3785 O 358.53 -1.89375 0.493508 0
M  V30 3786 C 358.829 -0.267329 3.56399 0
M  V30 3787 C 358.495 0.975775 4.40215 0
M  V30 3788 C 357.157 1.31655 4.62839 0
M  V30 3789 C 359.509 1.80251 4.89039 0
M  V30 3790 C 356.837 2.48375 5.31532 0
M  V30 3791 C 359.189 2.96116 5.59015 0
M  V30 3792 C 357.853 3.30585 5.79888 0
M  V30 3793 H 357.123 -0.0206476 0.740712 0
M  V30 3794 H 359.77 0.649686 1.80143 0
M  V30 3795 H 358.075 -1.05588 3.77304 0
M  V30 3796 H 359.772 -0.705549 3.94744 0
M  V30 3797 H 356.362 0.700315 4.2284 0
M  V30 3798 H 360.546 1.55239 4.71396 0
M  V30 3799 H 355.802 2.7533 5.45897 0
M  V30 3800 H 359.976 3.60509 5.95824 0
M  V30 3801 H 357.603 4.21132 6.32892 0
M  V30 3802 N 359.178 -1.55987 0.224894 0
M  V30 3803 C 360.108 -2.23426 -0.678457 0
M  V30 3804 C 361.089 -1.20709 -1.19847 0
M  V30 3805 O 362.274 -1.49304 -1.24186 0
M  V30 3806 C 359.404 -2.91676 -1.88527 0
M  V30 3807 C 358.358 -4.00893 -1.49896 0
M  V30 3808 C 357.684 -4.56455 -2.78483 0
M  V30 3809 C 358.984 -5.17769 -0.686461 0
M  V30 3810 H 360.678 -2.99175 -0.116173 0
M  V30 3811 H 358.224 -1.43897 -0.054436 0
M  V30 3812 H 360.177 -3.37547 -2.5227 0
M  V30 3813 H 358.901 -2.1338 -2.47258 0
M  V30 3814 H 357.56 -3.55758 -0.884985 0
M  V30 3815 H 357.208 -3.74886 -3.35365 0
M  V30 3816 H 356.908 -5.30169 -2.53368 0
M  V30 3817 H 358.432 -5.05047 -3.43162 0
M  V30 3818 H 359.846 -5.60001 -1.22767 0
M  V30 3819 H 358.243 -5.97735 -0.532259 0
M  V30 3820 H 359.313 -4.83932 0.306196 0
M  V30 3821 N 360.656 0.0484629 -1.57525 0
M  V30 3822 C 361.905 0.742065 -1.87553 0
M  V30 3823 C 362.218 1.77545 -0.820802 0
M  V30 3824 O 363.424 2.52027 -1.00967 0
M  V30 3825 C 361.88 1.37081 -3.32771 0
M  V30 3826 C 361.488 0.374786 -4.4643 0
M  V30 3827 C 363.232 2.04542 -3.71972 0
M  V30 3828 C 361.139 1.01077 -5.82698 0
M  V30 3829 H 360.069 0.280903 -0.699721 0
M  V30 3830 H 362.72 -0.00411877 -1.835 0
M  V30 3831 H 361.102 2.16605 -3.31509 0
M  V30 3832 H 362.276 -0.392331 -4.59127 0
M  V30 3833 H 360.591 -0.196653 -4.15935 0
M  V30 3834 H 363.188 2.52943 -4.71088 0
M  V30 3835 H 363.531 2.85515 -3.02964 0
M  V30 3836 H 364.064 1.31819 -3.75325 0
M  V30 3837 H 360.803 0.240878 -6.55057 0
M  V30 3838 H 360.323 1.74819 -5.73758 0
M  V30 3839 H 362.002 1.52383 -6.28799 0
M  V30 3840 N 362.134 1.5431 0.320358 0
M  V30 3841 C 363.545 1.63872 0.894594 0
M  V30 3842 C 363.896 0.534847 1.88769 0
M  V30 3843 O 363.021 -0.331732 2.13842 0
M  V30 3844 C 363.616 2.97049 1.62934 0
M  V30 3845 C 362.175 3.08796 2.15226 0
M  V30 3846 C 361.322 2.59456 0.978671 0
M  V30 3847 H 364.273 1.58398 0.0978544 0
M  V30 3848 H 364.294 2.87388 2.49376 0
M  V30 3849 H 363.806 3.7737 0.906302 0
M  V30 3850 H 361.907 2.33156 2.90636 0
M  V30 3851 H 362.02 4.14649 2.40006 0
M  V30 3852 H 360.384 2.1543 1.35875 0
M  V30 3853 H 361.167 3.42237 0.269895 0
M  V30 3854 N 363.613 -0.582584 1.46437 0
M  V30 3855 C 365.029 -0.905962 1.31394 0
M  V30 3856 C 365.229 -1.99468 0.285476 0
M  V30 3857 O 364.285 -2.50566 -0.311914 0
M  V30 3858 C 365.598 -1.3232 2.70022 0
M  V30 3859 C 367.146 -1.43604 2.78113 0
M  V30 3860 C 367.621 -1.88694 4.17323 0
M  V30 3861 N 369.112 -1.95887 4.19741 0
M  V30 3862 C 369.847 -2.32051 5.24347 0
M  V30 3863 N 369.343 -2.67006 6.39281 0
M  V30 3864 N 371.136 -2.32606 5.11713 0
M  V30 3865 H 363.287 0.1366 2.1196 0
M  V30 3866 H 365.55 -0.00155736 0.947999 0
M  V30 3867 H 365.256 -0.597242 3.46592 0
M  V30 3868 H 365.13 -2.28469 3.00136 0
M  V30 3869 H 367.517 -2.15286 2.01832 0
M  V30 3870 H 367.598 -0.457059 2.51684 0
M  V30 3871 H 367.242 -1.1759 4.941 0
M  V30 3872 H 367.172 -2.8755 4.4116 0
M  V30 3873 H 369.663 -1.71362 3.36814 0
M  V30 3874 H 369.976 -2.93554 7.14875 0
M  V30 3875 H 368.321 -2.64644 6.42642 0
M  V30 3876 H 371.512 -2.04721 4.2096 0
M  V30 3877 H 371.685 -2.60462 5.93349 0
M  V30 3878 N 365.091 -1.34144 -0.827227 0
M  V30 3879 C 366.039 -1.25364 -1.95925 0
M  V30 3880 C 367.033 -0.152608 -1.68711 0
M  V30 3881 O 368.239 -0.317311 -1.77181 0
M  V30 3882 H 364.614 -0.389342 -0.643364 0
M  V30 3883 H 366.585 -2.21045 -2.00454 0
M  V30 3884 C 365.334 -1.02158 -3.32354 0
M  V30 3885 H 364.657 -1.86111 -3.5384 0
M  V30 3886 H 366.097 -1.00048 -4.12027 0
M  V30 3887 C 364.556 0.275244 -3.35774 0
M  V30 3888 O 365.086 1.27806 -3.80826 0
M  V30 3889 N 363.292 0.306853 -2.88975 0
M  V30 3890 H 362.839 -0.509777 -2.52506 0
M  V30 3891 H 362.797 1.17432 -2.91646 0
M  V30 3892 N 366.569 1.04691 -1.17803 0
M  V30 3893 C 367.98 1.59238 -0.974689 0
M  V30 3894 C 368.331 1.90306 0.477292 0
M  V30 3895 O 367.456 1.68846 1.35352 0
M  V30 3896 C 368.051 2.89318 -1.76296 0
M  V30 3897 C 366.61 3.40506 -1.60414 0
M  V30 3898 C 365.757 2.14172 -1.76141 0
M  V30 3899 H 368.708 0.874395 -1.32439 0
M  V30 3900 H 368.729 3.5944 -1.24833 0
M  V30 3901 H 368.241 2.66675 -2.81968 0
M  V30 3902 H 366.342 3.68175 -0.572519 0
M  V30 3903 H 366.455 4.14753 -2.39827 0
M  V30 3904 H 364.819 2.25176 -1.19028 0
M  V30 3905 H 365.602 1.93992 -2.83235 0
M  V30 3906 N 368.047 0.979072 1.23499 0
M  V30 3907 C 369.01 0.523244 2.23147 0
M  V30 3908 C 370.01 -0.386406 1.56088 0
M  V30 3909 O 371.2 -0.180283 1.73265 0
M  V30 3910 C 368.332 -0.240739 3.40049 0
M  V30 3911 H 369.525 1.40432 2.64989 0
M  V30 3912 H 367.078 0.764824 1.36309 0
M  V30 3913 H 367.813 -1.13841 3.03662 0
M  V30 3914 H 367.598 0.412207 3.89927 0
M  V30 3915 H 369.088 -0.548297 4.13985 0
M  V30 3916 N 369.525 -1.3858 0.750561 0
M  V30 3917 C 370.936 -1.82927 0.373438 0
M  V30 3918 C 371.287 -1.62634 -1.09748 0
M  V30 3919 O 370.412 -1.12588 -1.84805 0
M  V30 3920 C 371.007 -3.32088 0.671029 0
M  V30 3921 C 369.566 -3.74795 0.34722 0
M  V30 3922 C 368.713 -2.61391 0.92575 0
M  V30 3923 H 371.664 -1.27351 0.946958 0
M  V30 3924 H 371.685 -3.80465 -0.0518269 0
M  V30 3925 H 371.197 -3.46826 1.74164 0
M  V30 3926 H 369.298 -3.65638 -0.716933 0
M  V30 3927 H 369.411 -4.71667 0.840656 0
M  V30 3928 H 367.775 -2.52265 0.351327 0
M  V30 3929 H 368.558 -2.78929 2.00133 0
M  V30 3930 N 371.003 -0.499398 -1.49478 0
M  V30 3931 C 372.419 -0.155261 -1.58843 0
M  V30 3932 C 372.619 1.34008 -1.50479 0
M  V30 3933 O 371.675 2.11589 -1.37791 0
M  V30 3934 C 372.988 -0.730636 -2.91689 0
M  V30 3935 C 374.536 -0.696599 -3.0515 0
M  V30 3936 C 375.011 -1.25001 -4.40612 0
M  V30 3937 N 376.502 -1.21064 -4.47099 0
M  V30 3938 C 377.237 -1.60905 -5.50361 0
M  V30 3939 N 376.733 -2.08331 -6.60735 0
M  V30 3940 N 378.526 -1.52331 -5.41065 0
M  V30 3941 H 370.677 -1.47162 -1.53158 0
M  V30 3942 H 372.94 -0.610309 -0.725415 0
M  V30 3943 H 372.646 -1.77928 -3.03372 0
M  V30 3944 H 372.52 -0.190161 -3.7672 0
M  V30 3945 H 374.907 0.343204 -2.93097 0
M  V30 3946 H 374.988 -1.2742 -2.21806 0
M  V30 3947 H 374.632 -2.28859 -4.53416 0
M  V30 3948 H 374.562 -0.64836 -5.22593 0
M  V30 3949 H 377.053 -0.863128 -3.67911 0
M  V30 3950 H 377.366 -2.36805 -7.35624 0
M  V30 3951 H 375.711 -2.12304 -6.6178 0
M  V30 3952 H 378.902 -1.151 -4.53729 0
M  V30 3953 H 379.075 -1.83704 -6.21415 0
M  V30 3954 N 372.481 1.55866 -0.233164 0
M  V30 3955 C 373.411 2.23783 0.666599 0
M  V30 3956 C 374.392 1.21343 1.19205 0
M  V30 3957 O 375.577 1.4996 1.23392 0
M  V30 3958 C 372.707 2.92671 1.86978 0
M  V30 3959 C 371.661 4.01682 1.47768 0
M  V30 3960 C 370.987 4.57926 2.76058 0
M  V30 3961 C 372.287 5.18126 0.658993 0
M  V30 3962 H 373.981 2.99232 0.100306 0
M  V30 3963 H 371.527 1.43924 0.046804 0
M  V30 3964 H 373.48 3.3888 2.50476 0
M  V30 3965 H 372.204 2.14688 2.46123 0
M  V30 3966 H 370.863 3.56222 0.866106 0
M  V30 3967 H 370.511 3.76659 3.33372 0
M  V30 3968 H 370.211 5.31505 2.50552 0
M  V30 3969 H 371.735 5.06859 3.40479 0
M  V30 3970 H 373.149 5.60644 1.19795 0
M  V30 3971 H 371.546 5.98009 0.500552 0
M  V30 3972 H 372.616 4.83763 -0.331856 0
M  V30 3973 N 373.959 -0.0401083 1.57549 0
M  V30 3974 C 374.906 -1.04413 2.05831 0
M  V30 3975 C 375.876 -1.36585 0.945184 0
M  V30 3976 O 377.061 -1.47112 1.21502 0
M  V30 3977 C 374.201 -2.34336 2.53339 0
M  V30 3978 C 373.314 -2.08419 3.78398 0
M  V30 3979 C 372.449 -3.32133 4.14561 0
M  V30 3980 C 371.488 -3.01721 5.3257 0
M  V30 3981 N 370.625 -4.17855 5.64218 0
M  V30 3982 H 375.465 -0.625442 2.91363 0
M  V30 3983 H 373.002 -0.297218 1.44066 0
M  V30 3984 H 374.96 -3.10234 2.78946 0
M  V30 3985 H 373.59 -2.73948 1.7074 0
M  V30 3986 H 372.642 -1.23069 3.59942 0
M  V30 3987 H 373.954 -1.81978 4.64419 0
M  V30 3988 H 373.108 -4.16406 4.41238 0
M  V30 3989 H 371.847 -3.61678 3.2717 0
M  V30 3990 H 370.852 -2.15849 5.05657 0
M  V30 3991 H 372.077 -2.73466 6.21605 0
M  V30 3992 H 370.023 -4.47372 4.79786 0
M  V30 3993 H 369.94 -3.94798 6.44725 0
M  V30 3994 H 371.208 -5.03033 5.95465 0
M  V30 3995 N 375.437 -1.54477 -0.31217 0
M  V30 3996 C 376.662 -1.77526 -1.07235 0
M  V30 3997 C 377.087 -0.527775 -1.80544 0
M  V30 3998 O 376.445 0.52121 -1.73646 0
M  V30 3999 C 376.493 -2.97535 -2.03728 0
M  V30 4000 O 375.597 -2.69878 -3.11833 0
M  V30 4001 H 374.938 -0.58792 -0.30862 0
M  V30 4002 H 377.468 -2.01532 -0.352993 0
M  V30 4003 H 377.478 -3.25198 -2.46395 0
M  V30 4004 H 376.153 -3.87996 -1.49774 0
M  V30 4005 H 374.73 -2.53199 -2.7376 0
M  V30 4006 N 376.915 0.57481 -1.46744 0
M  V30 4007 C 377.862 1.68329 -1.57905 0
M  V30 4008 C 378.832 1.60625 -0.422927 0
M  V30 4009 O 380.017 1.79721 -0.640711 0
M  V30 4010 C 377.157 3.06665 -1.58274 0
M  V30 4011 C 376.27 3.24935 -2.84678 0
M  V30 4012 C 375.405 4.53566 -2.76499 0
M  V30 4013 C 374.444 4.65207 -3.97806 0
M  V30 4014 N 373.581 5.85172 -3.87967 0
M  V30 4015 H 378.421 1.58127 -2.52587 0
M  V30 4016 H 375.958 0.770552 -1.25303 0
M  V30 4017 H 377.916 3.86745 -1.56473 0
M  V30 4018 H 376.546 3.15745 -0.671194 0
M  V30 4019 H 375.598 2.38405 -2.96424 0
M  V30 4020 H 376.91 3.29403 -3.7456 0
M  V30 4021 H 376.064 5.41885 -2.72848 0
M  V30 4022 H 374.803 4.51548 -1.8427 0
M  V30 4023 H 373.808 3.75304 -4.0178 0
M  V30 4024 H 375.033 4.68997 -4.9114 0
M  V30 4025 H 372.979 5.84137 -2.98529 0
M  V30 4026 H 372.896 5.90943 -4.71511 0
M  V30 4027 H 374.164 6.759 -3.88303 0
M  V30 4028 N 378.394 1.34581 0.820102 0
M  V30 4029 C 379.341 1.2639 1.93117 0
M  V30 4030 C 380.311 0.138554 1.65521 0
M  V30 4031 O 381.496 0.320004 1.88097 0
M  V30 4032 C 378.636 1.02812 3.29429 0
M  V30 4033 C 377.749 2.24146 3.693 0
M  V30 4034 C 376.884 1.93829 4.94574 0
M  V30 4035 C 375.923 3.1129 5.27034 0
M  V30 4036 N 375.06 2.80838 6.43486 0
M  V30 4037 H 379.9 2.21408 1.99455 0
M  V30 4038 H 377.437 1.10077 0.975784 0
M  V30 4039 H 379.395 0.871788 4.0799 0
M  V30 4040 H 378.025 0.114612 3.22596 0
M  V30 4041 H 377.077 2.50691 2.86109 0
M  V30 4042 H 378.389 3.11899 3.89257 0
M  V30 4043 H 377.543 1.74948 5.80929 0
M  V30 4044 H 376.282 1.03341 4.76626 0
M  V30 4045 H 375.287 3.30764 4.39175 0
M  V30 4046 H 376.512 4.02561 5.4692 0
M  V30 4047 H 374.458 1.92929 6.26988 0
M  V30 4048 H 374.375 3.62123 6.63629 0
M  V30 4049 H 375.643 2.65467 7.32903 0
M  V30 4050 N 379.872 -1.04064 1.18357 0
M  V30 4051 C 381.118 -1.77658 0.990412 0
M  V30 4052 C 381.473 -1.86446 -0.474944 0
M  V30 4053 O 380.766 -1.36153 -1.34807 0
M  V30 4054 C 380.96 -3.20634 1.57888 0
M  V30 4055 C 380.789 -3.25782 3.09994 0
M  V30 4056 C 379.559 -3.34411 3.7881 0
M  V30 4057 C 381.757 -3.13791 4.0748 0
M  V30 4058 N 379.739 -3.28809 5.18418 0
M  V30 4059 C 381.11 -3.15689 5.33611 0
M  V30 4060 C 383.165 -2.97833 3.98998 0
M  V30 4061 C 381.868 -3.03268 6.52243 0
M  V30 4062 C 383.894 -2.86759 5.17227 0
M  V30 4063 C 383.256 -2.893 6.4225 0
M  V30 4064 H 379.355 -0.661901 0.416427 0
M  V30 4065 H 381.939 -1.23968 1.50133 0
M  V30 4066 H 380.11 -3.7267 1.09414 0
M  V30 4067 H 381.842 -3.82525 1.32124 0
M  V30 4068 H 378.597 -3.40144 3.29543 0
M  V30 4069 H 379.021 -3.29448 5.91433 0
M  V30 4070 H 383.663 -2.94698 3.03171 0
M  V30 4071 H 381.381 -3.05156 7.48268 0
M  V30 4072 H 384.967 -2.75465 5.12455 0
M  V30 4073 H 383.847 -2.80818 7.32196 0
M  V30 4074 N 381.35 -0.985608 -1.22978 0
M  V30 4075 C 382.575 -0.675254 -1.961 0
M  V30 4076 C 383 0.752154 -1.72407 0
M  V30 4077 O 382.358 1.5131 -0.998751 0
M  V30 4078 C 382.406 -0.977899 -3.47087 0
M  V30 4079 O 381.51 -0.072685 -4.12336 0
M  V30 4080 H 380.851 -0.253443 -0.613728 0
M  V30 4081 H 383.381 -1.32061 -1.56272 0
M  V30 4082 H 383.391 -0.916739 -3.97567 0
M  V30 4083 H 382.066 -2.01807 -3.63657 0
M  V30 4084 H 380.643 -0.188703 -3.72422 0
M  V30 4085 N 382.828 1.3818 -0.7579 0
M  V30 4086 C 383.775 2.30416 -0.133057 0
M  V30 4087 C 384.745 1.50398 0.704957 0
M  V30 4088 O 385.93 1.79014 0.660192 0
M  V30 4089 C 383.07 3.36834 0.750813 0
M  V30 4090 C 382.183 4.31879 -0.102297 0
M  V30 4091 C 381.318 5.25368 0.784979 0
M  V30 4092 C 380.357 6.12058 -0.0715046 0
M  V30 4093 N 379.494 6.97832 0.772972 0
M  V30 4094 H 384.334 2.83274 -0.925186 0
M  V30 4095 H 381.871 1.39461 -0.467866 0
M  V30 4096 H 383.829 3.97145 1.27794 0
M  V30 4097 H 382.459 2.85374 1.50868 0
M  V30 4098 H 381.511 3.72991 -0.747095 0
M  V30 4099 H 382.823 4.92921 -0.763552 0
M  V30 4100 H 381.977 5.90818 1.37911 0
M  V30 4101 H 380.716 4.64703 1.47996 0
M  V30 4102 H 379.721 5.456 -0.678272 0
M  V30 4103 H 380.946 6.74793 -0.763606 0
M  V30 4104 H 378.892 6.3971 1.45282 0
M  V30 4105 H 378.809 7.55812 0.168709 0
M  V30 4106 H 380.077 7.67687 1.35194 0
M  V30 4107 N 384.306 0.507319 1.49211 0
M  V30 4108 C 385.253 -0.267728 2.29242 0
M  V30 4109 C 386.223 -0.954609 1.35928 0
M  V30 4110 O 387.408 -0.960046 1.64887 0
M  V30 4111 C 384.548 -1.32243 3.18756 0
M  V30 4112 C 383.661 -0.64669 4.27132 0
M  V30 4113 C 382.796 -1.68238 5.03855 0
M  V30 4114 C 381.835 -0.98885 6.0406 0
M  V30 4115 N 380.972 -1.96903 6.73924 0
M  V30 4116 H 385.812 0.420968 2.95012 0
M  V30 4117 H 383.349 0.219443 1.45454 0
M  V30 4118 H 385.307 -1.94599 3.69036 0
M  V30 4119 H 383.937 -1.97981 2.54958 0
M  V30 4120 H 382.989 0.0902926 3.80293 0
M  V30 4121 H 384.301 -0.101058 4.98698 0
M  V30 4122 H 383.455 -2.38081 5.58034 0
M  V30 4123 H 382.194 -2.26187 4.32077 0
M  V30 4124 H 381.199 -0.276222 5.49106 0
M  V30 4125 H 382.424 -0.415767 6.77826 0
M  V30 4126 H 380.37 -2.53803 6.04913 0
M  V30 4127 H 380.287 -1.47423 7.41487 0
M  V30 4128 H 381.555 -2.66015 7.32705 0
M  V30 4129 N 385.784 -1.5574 0.241426 0
M  V30 4130 C 387.031 -1.9881 -0.384836 0
M  V30 4131 C 387.359 -1.12947 -1.58346 0
M  V30 4132 O 386.614 -0.178993 -1.9488 0
M  V30 4133 C 386.913 -3.47308 -0.843317 0
M  V30 4134 C 386.579 -4.50223 0.246946 0
M  V30 4135 C 385.241 -4.78088 0.546399 0
M  V30 4136 C 387.593 -5.11841 0.983282 0
M  V30 4137 C 384.921 -5.64846 1.58636 0
M  V30 4138 C 387.273 -5.99727 2.01272 0
M  V30 4139 C 385.937 -6.25927 2.31888 0
M  V30 4140 H 385.207 -0.727496 -0.140821 0
M  V30 4141 H 387.854 -1.8831 0.348106 0
M  V30 4142 H 386.159 -3.55112 -1.65537 0
M  V30 4143 H 387.856 -3.78017 -1.33806 0
M  V30 4144 H 384.446 -4.286 0.00340639 0
M  V30 4145 H 388.63 -4.90366 0.765182 0
M  V30 4146 H 383.886 -5.83403 1.82896 0
M  V30 4147 H 388.06 -6.46517 2.58823 0
M  V30 4148 H 385.687 -6.92949 3.12611 0
M  V30 4149 N 387.262 0.0317525 -1.57568 0
M  V30 4150 C 388.194 1.06073 -2.03178 0
M  V30 4151 C 389.207 1.32627 -0.944132 0
M  V30 4152 O 390.396 1.30162 -1.22148 0
M  V30 4153 C 387.496 2.40297 -2.38978 0
M  V30 4154 C 386.669 2.33137 -3.70089 0
M  V30 4155 C 385.728 3.49787 -3.9311 0
M  V30 4156 O 384.754 3.29403 -4.64201 0
M  V30 4157 N 385.956 4.71562 -3.38541 0
M  V30 4158 H 388.721 0.672006 -2.92069 0
M  V30 4159 H 386.282 0.219745 -1.60402 0
M  V30 4160 H 388.274 3.1705 -2.51518 0
M  V30 4161 H 386.844 2.71024 -1.55771 0
M  V30 4162 H 386.064 1.415 -3.67928 0
M  V30 4163 H 387.352 2.25493 -4.56104 0
M  V30 4164 H 386.75 4.91024 -2.80912 0
M  V30 4165 H 385.307 5.45689 -3.56464 0
M  V30 4166 N 388.74 1.54641 0.303973 0
M  V30 4167 C 389.965 1.78092 1.06292 0
M  V30 4168 C 390.39 0.537342 1.80262 0
M  V30 4169 O 389.748 -0.511993 1.7392 0
M  V30 4170 C 389.796 2.98612 2.02147 0
M  V30 4171 O 388.9 2.71528 3.10397 0
M  V30 4172 H 388.241 0.589548 0.305497 0
M  V30 4173 H 390.771 2.01716 0.3423 0
M  V30 4174 H 390.781 3.265 2.44667 0
M  V30 4175 H 389.456 3.88785 1.47714 0
M  V30 4176 H 388.033 2.54648 2.72413 0
M  V30 4177 N 390.218 -0.567019 1.47046 0
M  V30 4178 C 391.465 -1.32462 1.53167 0
M  V30 4179 C 391.793 -1.93571 0.189841 0
M  V30 4180 O 391.048 -1.77865 -0.816243 0
M  V30 4181 C 391.347 -2.4623 2.59047 0
M  V30 4182 C 391.013 -2.03014 4.02612 0
M  V30 4183 C 389.675 -1.90944 4.41694 0
M  V30 4184 C 392.027 -1.69895 4.92732 0
M  V30 4185 C 389.355 -1.44035 5.68745 0
M  V30 4186 C 391.707 -1.2446 6.20236 0
M  V30 4187 C 390.371 -1.10979 6.5821 0
M  V30 4188 H 389.641 -0.484713 0.560477 0
M  V30 4189 H 392.288 -0.636888 1.80599 0
M  V30 4190 H 390.593 -3.20517 2.25335 0
M  V30 4191 H 392.29 -3.04427 2.61008 0
M  V30 4192 H 388.88 -2.13348 3.71726 0
M  V30 4193 H 393.064 -1.78098 4.63244 0
M  V30 4194 H 388.32 -1.32254 5.96925 0
M  V30 4195 H 392.494 -0.978924 6.89485 0
M  V30 4196 H 390.121 -0.744078 7.5655 0
M  V30 4197 N 391.696 -1.35014 -0.812953 0
M  V30 4198 C 392.945 -1.27269 -1.56479 0
M  V30 4199 C 393.258 0.152771 -1.95002 0
M  V30 4200 O 394.464 0.352451 -2.69203 0
M  V30 4201 C 392.92 -2.23159 -2.82362 0
M  V30 4202 C 392.528 -3.71016 -2.511 0
M  V30 4203 C 394.272 -2.24342 -3.60376 0
M  V30 4204 C 392.179 -4.58746 -3.73237 0
M  V30 4205 H 391.109 -0.472829 -0.587324 0
M  V30 4206 H 393.76 -1.6024 -0.894171 0
M  V30 4207 H 392.142 -1.83151 -3.51101 0
M  V30 4208 H 393.316 -4.1962 -1.90409 0
M  V30 4209 H 391.631 -3.72378 -1.86343 0
M  V30 4210 H 394.228 -2.87107 -4.51081 0
M  V30 4211 H 394.571 -1.24542 -3.97234 0
M  V30 4212 H 395.104 -2.62846 -2.98591 0
M  V30 4213 H 391.843 -5.59521 -3.41492 0
M  V30 4214 H 391.363 -4.14871 -4.33176 0
M  V30 4215 H 393.042 -4.73852 -4.40537 0
M  V30 4216 N 393.175 1.03435 -1.18907 0
M  V30 4217 C 394.085 2.15075 -0.937015 0
M  V30 4218 C 395.101 1.73706 0.101085 0
M  V30 4219 O 396.277 2.01232 -0.0822948 0
M  V30 4220 C 393.342 3.43458 -0.473057 0
M  V30 4221 C 392.403 3.99172 -1.57989 0
M  V30 4222 C 391.636 5.21427 -1.13797 0
M  V30 4223 O 391.859 5.704 0.000725941 0
M  V30 4224 O 390.793 5.69837 -1.9383 0
M  V30 4225 H 394.619 2.39198 -1.87131 0
M  V30 4226 H 392.204 1.13506 -0.971427 0
M  V30 4227 H 394.086 4.20811 -0.222702 0
M  V30 4228 H 392.761 3.20793 0.432869 0
M  V30 4229 H 391.668 3.23178 -1.88433 0
M  V30 4230 H 393.001 4.2619 -2.46217 0
M  V30 4231 N 394.653 0.992116 1.22453 0
M  V30 4232 C 395.878 0.685644 1.95739 0
M  V30 4233 C 396.303 -0.743 1.72804 0
M  V30 4234 O 395.661 -1.50778 1.00676 0
M  V30 4235 C 395.709 0.996293 3.46564 0
M  V30 4236 O 394.813 0.0945512 4.12292 0
M  V30 4237 H 394.154 0.256694 0.612376 0
M  V30 4238 H 396.684 1.32888 1.5557 0
M  V30 4239 H 396.694 0.93781 3.97076 0
M  V30 4240 H 395.369 2.03733 3.62582 0
M  V30 4241 H 393.946 0.208451 3.72317 0
M  V30 4242 N 396.131 -1.37776 0.765217 0
M  V30 4243 C 397.371 -2.01691 0.331669 0
M  V30 4244 C 397.735 -1.59432 -1.06983 0
M  V30 4245 O 398.936 -2.15761 -1.60314 0
M  V30 4246 C 397.207 -3.54385 0.463261 0
M  V30 4247 S 398.766 -4.38652 0.114011 0
M  V30 4248 H 395.584 -0.699387 0.127979 0
M  V30 4249 H 398.186 -1.68084 0.998396 0
M  V30 4250 H 396.89 -3.82629 1.48401 0
M  V30 4251 H 396.421 -3.92783 -0.220246 0
M  V30 4252 H 398.436 -4.84021 -1.09261 0
M  V30 4253 N 397.609 -0.515225 -1.4894 0
M  V30 4254 C 398.539 0.244628 -2.32215 0
M  V30 4255 C 399.52 0.949136 -1.41157 0
M  V30 4256 O 400.705 0.937783 -1.70057 0
M  V30 4257 C 397.835 1.30096 -3.22013 0
M  V30 4258 C 396.789 0.715486 -4.21977 0
M  V30 4259 C 396.115 1.87339 -5.00808 0
M  V30 4260 C 397.415 -0.302982 -5.2142 0
M  V30 4261 H 399.109 -0.450501 -2.95991 0
M  V30 4262 H 396.655 -0.218098 -1.42339 0
M  V30 4263 H 398.608 1.84037 -3.79089 0
M  V30 4264 H 397.332 2.02547 -2.56207 0
M  V30 4265 H 395.991 0.197715 -3.66066 0
M  V30 4266 H 395.639 2.58592 -4.31438 0
M  V30 4267 H 395.339 1.48764 -5.68457 0
M  V30 4268 H 396.863 2.41686 -5.60732 0
M  V30 4269 H 398.277 0.148802 -5.73107 0
M  V30 4270 H 396.674 -0.60532 -5.97039 0
M  V30 4271 H 397.744 -1.21395 -4.69459 0
M  V30 4272 N 399.087 1.5561 -0.249682 0
M  V30 4273 C 400.333 1.99306 0.374841 0
M  V30 4274 C 400.666 1.13767 1.57387 0
M  V30 4275 O 399.941 0.201711 1.93451 0
M  V30 4276 C 400.224 3.51507 0.781986 0
M  V30 4277 C 400.077 4.4781 -0.422629 0
M  V30 4278 C 401.396 4.08884 1.62793 0
M  V30 4279 H 398.515 0.724572 0.134773 0
M  V30 4280 H 401.157 1.86719 -0.351549 0
M  V30 4281 H 399.307 3.62363 1.4009 0
M  V30 4282 H 400.979 4.48931 -1.06108 0
M  V30 4283 H 399.222 4.20518 -1.06524 0
M  V30 4284 H 399.893 5.51919 -0.0943766 0
M  V30 4285 H 402.369 4.01147 1.10547 0
M  V30 4286 H 401.245 5.1564 1.88166 0
M  V30 4287 H 401.506 3.57515 2.60068 0
M  V30 4288 N 400.565 -0.0233959 1.57583 0
M  V30 4289 C 401.512 -1.02224 2.06927 0
M  V30 4290 C 402.482 -1.35575 0.959617 0
M  V30 4291 O 403.667 -1.45815 1.23055 0
M  V30 4292 C 400.807 -2.31636 2.5581 0
M  V30 4293 C 399.92 -2.04394 3.80588 0
M  V30 4294 C 399.055 -3.27717 4.18061 0
M  V30 4295 C 398.094 -2.96056 5.3574 0
M  V30 4296 N 397.231 -4.11847 5.68618 0
M  V30 4297 H 402.071 -0.594504 2.9201 0
M  V30 4298 H 399.608 -0.281921 1.44373 0
M  V30 4299 H 401.566 -3.07258 2.82221 0
M  V30 4300 H 400.196 -2.72122 1.73636 0
M  V30 4301 H 399.248 -1.19244 3.61227 0
M  V30 4302 H 400.56 -1.77042 4.66323 0
M  V30 4303 H 399.714 -4.11702 4.4563 0
M  V30 4304 H 398.453 -3.58188 3.30988 0
M  V30 4305 H 397.458 -2.10474 5.07918 0
M  V30 4306 H 398.683 -2.66857 6.24471 0
M  V30 4307 H 396.629 -4.42258 4.84504 0
M  V30 4308 H 396.546 -3.87938 6.48876 0
M  V30 4309 H 397.814 -4.96689 6.00766 0
M  V30 4310 N 402.043 -1.548 -0.295768 0
M  V30 4311 C 402.991 -1.86874 -1.38495 0
M  V30 4312 C 403.985 -0.742938 -1.52239 0
M  V30 4313 O 405.191 -0.926999 -1.54294 0
M  V30 4314 H 401.566 -0.592786 -0.462719 0
M  V30 4315 H 403.537 -2.77904 -1.08682 0
M  V30 4316 C 402.286 -2.13732 -2.74252 0
M  V30 4317 H 401.609 -2.99835 -2.64459 0
M  V30 4318 H 403.049 -2.4011 -3.49461 0
M  V30 4319 C 401.508 -0.937539 -3.23592 0
M  V30 4320 O 402.038 -0.160665 -4.01379 0
M  V30 4321 N 400.244 -0.741478 -2.80981 0
M  V30 4322 H 399.791 -1.37489 -2.1784 0
M  V30 4323 H 399.749 0.0597103 -3.14343 0
M  V30 4324 N 403.521 0.559213 -1.47345 0
M  V30 4325 C 404.471 1.66192 -1.5609 0
M  V30 4326 C 405.455 1.55323 -0.419957 0
M  V30 4327 O 406.647 1.63839 -0.669762 0
M  V30 4328 C 403.776 3.0497 -1.57634 0
M  V30 4329 C 402.862 3.2105 -2.77106 0
M  V30 4330 N 403.253 3.07203 -4.01821 0
M  V30 4331 C 401.551 3.52046 -2.73825 0
M  V30 4332 C 402.252 3.25919 -4.81821 0
M  V30 4333 N 401.228 3.52161 -4.14106 0
M  V30 4334 H 405.03 1.54052 -2.5029 0
M  V30 4335 H 402.544 0.763914 -1.43311 0
M  V30 4336 H 404.541 3.84142 -1.61989 0
M  V30 4337 H 403.201 3.18224 -0.645281 0
M  V30 4338 H 404.212 2.84572 -4.32711 0
M  V30 4339 H 400.889 3.71839 -1.89848 0
M  V30 4340 H 402.279 3.20198 -5.90697 0
M  V30 4341 N 404.999 1.35443 0.805782 0
M  V30 4342 C 406.224 1.32037 1.59941 0
M  V30 4343 C 406.649 -0.0994215 1.87837 0
M  V30 4344 O 406.007 -1.06648 1.46615 0
M  V30 4345 C 406.055 2.13354 2.90711 0
M  V30 4346 O 405.159 1.5148 3.83572 0
M  V30 4347 H 404.5 0.452666 0.485787 0
M  V30 4348 H 407.03 1.78496 1.00002 0
M  V30 4349 H 407.04 2.25338 3.40128 0
M  V30 4350 H 405.715 3.16572 2.69732 0
M  V30 4351 H 404.292 1.4834 3.42125 0
M  V30 4352 N 406.477 -1.02803 1.19454 0
M  V30 4353 C 407.409 -2.11181 0.890807 0
M  V30 4354 C 408.422 -1.6238 -0.116829 0
M  V30 4355 O 409.611 -1.78144 0.112694 0
M  V30 4356 C 406.711 -3.37461 0.311942 0
M  V30 4357 C 405.884 -4.15446 1.36834 0
M  V30 4358 C 404.943 -5.20039 0.802864 0
M  V30 4359 O 403.969 -5.49602 1.48077 0
M  V30 4360 N 405.171 -5.79165 -0.393417 0
M  V30 4361 H 407.936 -2.37827 1.82369 0
M  V30 4362 H 405.497 -1.19101 1.09666 0
M  V30 4363 H 407.489 -4.0462 -0.0802225 0
M  V30 4364 H 406.059 -3.08156 -0.52524 0
M  V30 4365 H 405.279 -3.43423 1.93531 0
M  V30 4366 H 406.567 -4.64335 2.08015 0
M  V30 4367 H 405.965 -5.57466 -0.961658 0
M  V30 4368 H 404.522 -6.47729 -0.727351 0
M  V30 4369 N 407.956 -0.998596 -1.21925 0
M  V30 4370 C 409.372 -0.710303 -1.42923 0
M  V30 4371 C 409.572 0.716933 -1.88314 0
M  V30 4372 O 408.628 1.48712 -2.04062 0
M  V30 4373 C 409.941 -1.72072 -2.466 0
M  V30 4374 C 411.489 -1.73681 -2.60392 0
M  V30 4375 C 411.964 -2.73601 -3.67296 0
M  V30 4376 N 413.455 -2.7223 -3.7476 0
M  V30 4377 C 414.19 -3.46206 -4.57087 0
M  V30 4378 N 413.686 -4.29802 -5.43362 0
M  V30 4379 N 415.479 -3.34886 -4.51451 0
M  V30 4380 H 407.63 -1.92028 -0.9077 0
M  V30 4381 H 409.893 -0.828487 -0.460775 0
M  V30 4382 H 409.599 -2.74231 -2.20206 0
M  V30 4383 H 409.473 -1.51818 -3.45299 0
M  V30 4384 H 411.86 -0.722173 -2.86127 0
M  V30 4385 H 411.941 -1.98005 -1.61949 0
M  V30 4386 H 411.585 -3.75217 -3.42307 0
M  V30 4387 H 411.515 -2.46545 -4.65321 0
M  V30 4388 H 414.006 -2.11576 -3.1312 0
M  V30 4389 H 414.319 -4.83061 -6.03218 0
M  V30 4390 H 412.664 -4.33887 -5.42925 0
M  V30 4391 H 415.855 -2.69015 -3.83078 0
M  V30 4392 H 416.028 -3.92796 -5.15379 0
M  V30 4393 N 409.434 1.37368 -0.772513 0
M  V30 4394 C 410.845 1.8231 -0.402493 0
M  V30 4395 C 411.196 1.6436 1.07146 0
M  V30 4396 O 410.321 1.15514 1.82991 0
M  V30 4397 C 410.916 3.30979 -0.723776 0
M  V30 4398 C 409.475 3.74195 -0.406802 0
M  V30 4399 C 408.622 2.59885 -0.967218 0
M  V30 4400 H 411.573 1.25829 -0.967099 0
M  V30 4401 H 411.594 3.80499 -0.00870832 0
M  V30 4402 H 411.106 3.44011 -1.7966 0
M  V30 4403 H 409.207 3.66732 0.658673 0
M  V30 4404 H 409.32 4.7027 -0.915588 0
M  V30 4405 H 407.684 2.51674 -0.391416 0
M  V30 4406 H 408.467 2.7571 -2.04546 0
M  V30 4407 N 410.912 0.523116 1.48665 0
M  V30 4408 C 411.875 -0.232592 2.28017 0
M  V30 4409 C 412.875 -0.874021 1.34972 0
M  V30 4410 O 414.065 -0.735132 1.57929 0
M  V30 4411 C 411.197 -1.33586 3.13636 0
M  V30 4412 H 412.39 0.464008 2.96289 0
M  V30 4413 H 409.943 0.278816 1.53793 0
M  V30 4414 H 410.678 -2.06593 2.4998 0
M  V30 4415 H 410.463 -0.881125 3.82071 0
M  V30 4416 H 411.953 -1.86759 3.73511 0
M  V30 4417 N 412.39 -1.55475 0.257931 0
M  V30 4418 C 413.618 -2.03609 -0.367559 0
M  V30 4419 C 414.033 -1.13687 -1.50734 0
M  V30 4420 O 413.39 -0.153479 -1.81853 0
M  V30 4421 C 413.441 -3.51001 -0.864908 0
M  V30 4422 O 413.162 -4.37499 0.229465 0
M  V30 4423 C 414.663 -4.14946 -1.55997 0
M  V30 4424 H 411.883 -0.665459 -0.0860521 0
M  V30 4425 H 414.427 -2.00843 0.385014 0
M  V30 4426 H 412.582 -3.54266 -1.56762 0
M  V30 4427 H 412.996 -5.24286 -0.14998 0
M  V30 4428 H 414.47 -5.19735 -1.85956 0
M  V30 4429 H 414.947 -3.6209 -2.4857 0
M  V30 4430 H 415.553 -4.15635 -0.901543 0
M  V30 4431 N 413.868 0.0150385 -1.57593 0
M  V30 4432 C 414.778 1.02791 -2.10882 0
M  V30 4433 C 415.794 1.38702 -1.0506 0
M  V30 4434 O 416.97 1.47739 -1.36877 0
M  V30 4435 C 414.035 2.30568 -2.58919 0
M  V30 4436 C 413.096 2.01108 -3.79281 0
M  V30 4437 C 412.329 3.22794 -4.25018 0
M  V30 4438 O 412.552 4.33959 -3.70183 0
M  V30 4439 O 411.486 3.07672 -5.17322 0
M  V30 4440 H 415.312 0.604973 -2.97613 0
M  V30 4441 H 412.897 0.23292 -1.47573 0
M  V30 4442 H 414.779 3.05662 -2.90084 0
M  V30 4443 H 413.454 2.72129 -1.75293 0
M  V30 4444 H 412.361 1.23537 -3.53114 0
M  V30 4445 H 413.694 1.64394 -4.63935 0
M  V30 4446 N 415.346 1.54954 0.287554 0
M  V30 4447 C 416.278 1.83224 1.37701 0
M  V30 4448 C 417.291 0.715898 1.46215 0
M  V30 4449 O 418.48 0.993565 1.48292 0
M  V30 4450 C 415.58 1.96723 2.75959 0
M  V30 4451 C 414.753 3.27253 2.90215 0
M  V30 4452 C 413.812 3.30998 4.09056 0
M  V30 4453 O 412.838 4.04457 4.00503 0
M  V30 4454 N 414.04 2.57353 5.20336 0
M  V30 4455 H 416.805 2.77254 1.138 0
M  V30 4456 H 414.366 1.54694 0.477652 0
M  V30 4457 H 416.358 1.96615 3.5373 0
M  V30 4458 H 414.928 1.09626 2.92747 0
M  V30 4459 H 414.148 3.40022 1.99447 0
M  V30 4460 H 415.436 4.13365 2.96659 0
M  V30 4461 H 414.834 1.97327 5.30169 0
M  V30 4462 H 413.391 2.62984 5.96391 0
M  V30 4463 N 416.824 -0.551391 1.4764 0
M  V30 4464 C 417.754 -1.66757 1.63445 0
M  V30 4465 C 418.735 -1.63077 0.483742 0
M  V30 4466 O 419.92 -1.80607 0.71377 0
M  V30 4467 C 417.05 -3.05387 1.65396 0
M  V30 4468 C 416.004 -3.23918 2.79752 0
M  V30 4469 C 415.33 -4.63393 2.66779 0
M  V30 4470 C 416.63 -3.08735 4.21284 0
M  V30 4471 H 418.324 -1.53786 2.56886 0
M  V30 4472 H 415.87 -0.738415 1.23626 0
M  V30 4473 H 417.823 -3.83325 1.75043 0
M  V30 4474 H 416.547 -3.19332 0.685195 0
M  V30 4475 H 415.206 -2.48391 2.69625 0
M  V30 4476 H 414.854 -4.74144 1.67918 0
M  V30 4477 H 414.554 -4.7674 3.43501 0
M  V30 4478 H 416.078 -5.43458 2.78364 0
M  V30 4479 H 417.492 -3.76484 4.32357 0
M  V30 4480 H 415.889 -3.33588 4.98838 0
M  V30 4481 H 416.959 -2.0541 4.39243 0
M  V30 4482 N 418.302 -1.35869 -0.798587 0
M  V30 4483 C 419.235 -1.23801 -1.91699 0
M  V30 4484 C 420.213 -0.124143 -1.62125 0
M  V30 4485 O 421.397 -0.293656 -1.86199 0
M  V30 4486 C 418.524 -0.908063 -3.263 0
M  V30 4487 C 417.57 -2.0351 -3.74815 0
M  V30 4488 S 418.403 -3.65183 -3.91665 0
M  V30 4489 C 419.559 -3.34283 -5.29156 0
M  V30 4490 H 419.792 -2.18466 -2.01643 0
M  V30 4491 H 417.325 -1.21178 -0.956833 0
M  V30 4492 H 419.283 -0.724506 -4.04056 0
M  V30 4493 H 417.944 0.0206584 -3.14093 0
M  V30 4494 H 417.137 -1.75858 -4.72324 0
M  V30 4495 H 416.739 -2.1774 -3.04081 0
M  V30 4496 H 419.031 -2.87607 -6.13424 0
M  V30 4497 H 419.974 -4.31022 -5.61806 0
M  V30 4498 H 420.382 -2.69854 -4.95822 0
M  V30 4499 N 419.78 1.02168 -1.19998 0
M  V30 4500 C 420.727 2.10601 -0.944228 0
M  V30 4501 C 421.697 1.65639 0.123664 0
M  V30 4502 O 422.882 1.9079 -0.0199941 0
M  V30 4503 C 420.022 3.41504 -0.496865 0
M  V30 4504 C 419.135 3.99973 -1.63234 0
M  V30 4505 C 418.27 5.18915 -1.13579 0
M  V30 4506 C 417.309 5.69456 -2.24468 0
M  V30 4507 N 416.446 6.79665 -1.76068 0
M  V30 4508 H 421.286 2.31814 -1.8726 0
M  V30 4509 H 418.823 1.13686 -0.933483 0
M  V30 4510 H 420.781 4.16626 -0.218843 0
M  V30 4511 H 419.411 3.2038 0.394508 0
M  V30 4512 H 418.463 3.21997 -2.0254 0
M  V30 4513 H 419.775 4.33492 -2.46752 0
M  V30 4514 H 418.929 6.01222 -0.813429 0
M  V30 4515 H 417.668 4.8695 -0.270434 0
M  V30 4516 H 416.673 4.85757 -2.57526 0
M  V30 4517 H 417.898 6.03459 -3.11472 0
M  V30 4518 H 415.844 6.49538 -0.918516 0
M  V30 4519 H 415.761 7.12349 -2.5317 0
M  V30 4520 H 417.029 7.65549 -1.46817 0
M  V30 4521 N 421.258 1.00505 1.21394 0
M  V30 4522 C 422.208 0.536503 2.21598 0
M  V30 4523 C 423.192 -0.401914 1.55799 0
M  V30 4524 O 424.384 -0.226757 1.75541 0
M  V30 4525 C 421.513 -0.135446 3.43033 0
M  V30 4526 C 420.599 0.823992 4.16018 0
M  V30 4527 N 420.99 1.97683 4.6557 0
M  V30 4528 C 419.288 0.642387 4.4135 0
M  V30 4529 C 419.989 2.58003 5.21354 0
M  V30 4530 N 418.965 1.86162 5.1073 0
M  V30 4531 H 422.767 1.41557 2.57563 0
M  V30 4532 H 420.281 0.868878 1.37202 0
M  V30 4533 H 422.278 -0.488584 4.14027 0
M  V30 4534 H 420.938 -1.01049 3.08576 0
M  V30 4535 H 421.949 2.3572 4.61147 0
M  V30 4536 H 418.626 -0.185578 4.17087 0
M  V30 4537 H 420.016 3.555 5.70149 0
M  V30 4538 N 422.737 -1.36956 0.779787 0
M  V30 4539 C 424.148 -1.82094 0.412156 0
M  V30 4540 C 424.499 -1.64926 -1.06273 0
M  V30 4541 O 423.624 -1.16483 -1.82375 0
M  V30 4542 C 424.219 -3.3059 0.741319 0
M  V30 4543 C 422.778 -3.73974 0.426641 0
M  V30 4544 C 421.925 -2.59368 0.980987 0
M  V30 4545 H 424.876 -1.25314 0.973758 0
M  V30 4546 H 424.897 -3.80489 0.028887 0
M  V30 4547 H 424.409 -3.43054 1.81482 0
M  V30 4548 H 422.51 -3.67076 -0.639215 0
M  V30 4549 H 422.623 -4.69778 0.940515 0
M  V30 4550 H 420.987 -2.51463 0.404757 0
M  V30 4551 H 421.77 -2.74621 2.06005 0
M  V30 4552 N 424.215 -0.530993 -1.48385 0
M  V30 4553 C 425.462 0.0027373 -2.025 0
M  V30 4554 C 425.79 1.34186 -1.40799 0
M  V30 4555 O 425.045 1.88 -0.543544 0
M  V30 4556 C 425.344 0.172742 -3.56982 0
M  V30 4557 C 425.01 -1.09215 -4.37473 0
M  V30 4558 C 423.672 -1.43881 -4.59186 0
M  V30 4559 C 426.024 -1.93153 -4.84088 0
M  V30 4560 C 423.352 -2.62381 -5.2476 0
M  V30 4561 C 425.704 -3.10833 -5.50968 0
M  V30 4562 C 424.368 -3.45843 -5.70919 0
M  V30 4563 H 423.638 0.00100165 -0.740999 0
M  V30 4564 H 426.285 -0.697219 -1.78357 0
M  V30 4565 H 424.59 0.955473 -3.79971 0
M  V30 4566 H 426.287 0.600642 -3.96476 0
M  V30 4567 H 422.877 -0.812177 -4.20834 0
M  V30 4568 H 427.061 -1.67683 -4.67115 0
M  V30 4569 H 422.317 -2.89707 -5.38405 0
M  V30 4570 H 426.491 -3.7618 -5.86056 0
M  V30 4571 H 424.118 -4.37764 -6.21503 0
M  V30 4572 N 425.693 1.55336 -0.266172 0
M  V30 4573 C 426.942 1.98574 0.353749 0
M  V30 4574 C 427.255 1.15789 1.57646 0
M  V30 4575 O 428.461 1.49129 2.26876 0
M  V30 4576 C 426.917 3.53403 0.680747 0
M  V30 4577 C 426.525 4.44953 -0.52165 0
M  V30 4578 C 428.269 4.05251 1.26379 0
M  V30 4579 C 426.176 5.91156 -0.169736 0
M  V30 4580 H 425.106 0.741643 0.135949 0
M  V30 4581 H 427.757 1.79743 -0.369421 0
M  V30 4582 H 426.139 3.68001 1.46257 0
M  V30 4583 H 427.313 4.42121 -1.29869 0
M  V30 4584 H 425.628 4.03691 -1.02093 0
M  V30 4585 H 428.225 5.12021 1.54074 0
M  V30 4586 H 428.568 3.53749 2.19471 0
M  V30 4587 H 429.101 3.94057 0.544447 0
M  V30 4588 H 425.84 6.46736 -1.0683 0
M  V30 4589 H 425.36 5.97079 0.570717 0
M  V30 4590 H 427.039 6.4655 0.241245 0
M  V30 4591 N 427.171 -0.0066808 1.57599 0
M  V30 4592 C 428.587 -0.36267 1.55425 0
M  V30 4593 C 428.787 -1.75209 0.995187 0
M  V30 4594 O 427.843 -2.44616 0.626058 0
M  V30 4595 C 429.156 -0.244017 2.99708 0
M  V30 4596 C 430.704 -0.319451 3.11366 0
M  V30 4597 C 431.179 -0.229998 4.57422 0
M  V30 4598 N 432.67 -0.288105 4.62303 0
M  V30 4599 C 433.405 -0.242127 5.72889 0
M  V30 4600 N 432.901 -0.147133 6.92644 0
M  V30 4601 N 434.694 -0.293502 5.61333 0
M  V30 4602 H 426.845 0.902314 1.92281 0
M  V30 4603 H 429.108 0.34525 0.882896 0
M  V30 4604 H 428.814 0.711678 3.44424 0
M  V30 4605 H 428.688 -1.02877 3.629 0
M  V30 4606 H 431.075 -1.26559 2.66584 0
M  V30 4607 H 431.156 0.495055 2.50964 0
M  V30 4608 H 430.8 0.712566 5.02877 0
M  V30 4609 H 430.73 -1.0629 5.15761 0
M  V30 4610 H 433.221 -0.363126 3.76151 0
M  V30 4611 H 433.534 -0.117763 7.7271 0
M  V30 4612 H 431.879 -0.112857 6.94908 0
M  V30 4613 H 435.07 -0.365864 4.66668 0
M  V30 4614 H 435.243 -0.254204 6.47501 0
M  V30 4615 N 428.649 -1.55105 -0.279332 0
M  V30 4616 C 429.926 -1.66119 -1.03267 0
M  V30 4617 C 430.306 -0.523525 -2.04505 0
M  V30 4618 O 429.654 0.477194 -2.23462 0
M  V30 4619 C 429.864 -3.05067 -1.69515 0
M  V30 4620 C 431.212 -3.62606 -2.20912 0
M  V30 4621 O 432.236 -3.07659 -1.79512 0
M  V30 4622 O 431.095 -4.58861 -2.96831 0
M  V30 4623 H 428.189 -0.674429 -0.478618 0
M  V30 4624 H 430.735 -1.67446 -0.275694 0
M  V30 4625 H 429.507 -3.79311 -0.9612 0
M  V30 4626 H 429.13 -3.07611 -2.51915 0
M  V30 4627 N 430.127 0.543554 -1.4793 0
M  V30 4628 C 431.059 1.665 -1.57513 0
M  V30 4629 C 432.072 1.56156 -0.460333 0
M  V30 4630 O 433.261 1.62865 -0.730573 0
M  V30 4631 C 430.361 3.05063 -1.47614 0
M  V30 4632 C 429.534 3.41024 -2.739 0
M  V30 4633 C 428.593 4.58809 -2.57645 0
M  V30 4634 O 427.619 4.62707 -3.31498 0
M  V30 4635 N 428.821 5.56149 -1.66368 0
M  V30 4636 H 431.586 1.5872 -2.5422 0
M  V30 4637 H 429.147 0.730517 -1.44482 0
M  V30 4638 H 431.139 3.81712 -1.34455 0
M  V30 4639 H 429.709 3.06994 -0.589359 0
M  V30 4640 H 428.929 2.53687 -3.01723 0
M  V30 4641 H 430.217 3.61831 -3.57709 0
M  V30 4642 H 429.615 5.55767 -1.05543 0
M  V30 4643 H 428.172 6.32071 -1.59154 0
M  V30 4644 N 431.605 1.3629 0.791371 0
M  V30 4645 C 433.016 1.27225 1.36641 0
M  V30 4646 C 433.367 -0.0887968 1.95999 0
M  V30 4647 O 432.492 -0.990207 1.92416 0
M  V30 4648 C 433.087 2.30375 2.48421 0
M  V30 4649 C 431.646 2.25004 3.01746 0
M  V30 4650 C 430.793 2.15259 1.7481 0
M  V30 4651 H 433.744 1.47198 0.593173 0
M  V30 4652 H 433.765 1.93905 3.27385 0
M  V30 4653 H 433.277 3.29422 2.05189 0
M  V30 4654 H 431.378 1.29417 3.49403 0
M  V30 4655 H 431.491 3.1761 3.58693 0
M  V30 4656 H 429.855 1.61482 1.96966 0
M  V30 4657 H 430.638 3.16191 1.33709 0
M  V30 4658 N 433.083 -1.0153 1.20538 0
M  V30 4659 C 434.031 -2.12215 0.952235 0
M  V30 4660 C 435.025 -1.69123 -0.0968735 0
M  V30 4661 O 436.231 -1.7992 0.0536006 0
M  V30 4662 H 432.606 -0.693576 0.290613 0
M  V30 4663 H 434.577 -2.3075 1.89201 0
M  V30 4664 C 433.326 -3.43755 0.522287 0
M  V30 4665 H 432.649 -3.7734 1.32115 0
M  V30 4666 H 434.089 -4.22254 0.384389 0
M  V30 4667 C 432.548 -3.28088 -0.765489 0
M  V30 4668 O 433.078 -3.57921 -1.8236 0
M  V30 4669 N 431.284 -2.81333 -0.728011 0
M  V30 4670 H 430.831 -2.57255 0.133332 0
M  V30 4671 H 430.789 -2.71232 -1.58999 0
M  V30 4672 N 434.561 -1.01147 -1.20859 0
M  V30 4673 C 435.471 -0.58686 -2.27141 0
M  V30 4674 C 436.487 0.373198 -1.69951 0
M  V30 4675 O 437.663 0.235423 -2.00019 0
M  V30 4676 C 434.728 0.0733602 -3.46622 0
M  V30 4677 C 433.789 -0.931995 -4.19061 0
M  V30 4678 C 433.022 -0.303186 -5.32838 0
M  V30 4679 O 433.245 0.898395 -5.63281 0
M  V30 4680 O 432.179 -1.01735 -5.9324 0
M  V30 4681 H 436.005 -1.47155 -2.65667 0
M  V30 4682 H 433.59 -0.780689 -1.2738 0
M  V30 4683 H 435.472 0.442333 -4.19072 0
M  V30 4684 H 434.147 0.932329 -3.09983 0
M  V30 4685 H 433.054 -1.35224 -3.48805 0
M  V30 4686 H 434.387 -1.76076 -4.59628 0
M  V30 4687 N 436.039 1.36541 -0.78704 0
M  V30 4688 C 437.455 1.52571 -0.46844 0
M  V30 4689 C 437.655 1.7415 1.01361 0
M  V30 4690 O 436.711 1.77163 1.79915 0
M  V30 4691 C 438.024 2.71299 -1.29682 0
M  V30 4692 C 439.572 2.85169 -1.29027 0
M  V30 4693 C 440.047 4.06898 -2.10233 0
M  V30 4694 N 441.538 4.1404 -2.07666 0
M  V30 4695 C 442.273 5.07301 -2.67271 0
M  V30 4696 N 441.769 6.06021 -3.35724 0
M  V30 4697 N 443.562 4.99898 -2.57018 0
M  V30 4698 H 435.713 1.20788 -1.74711 0
M  V30 4699 H 437.976 0.589364 -0.742532 0
M  V30 4700 H 437.682 2.61868 -2.34773 0
M  V30 4701 H 437.556 3.6539 -0.936479 0
M  V30 4702 H 439.943 2.94062 -0.247284 0
M  V30 4703 H 440.024 1.91992 -1.69035 0
M  V30 4704 H 439.668 3.98766 -3.1456 0
M  V30 4705 H 439.598 4.99218 -1.67597 0
M  V30 4706 H 442.089 3.43357 -1.57843 0
M  V30 4707 H 442.402 6.73741 -3.78541 0
M  V30 4708 H 440.747 6.06253 -3.39826 0
M  V30 4709 H 443.938 4.21724 -2.03142 0
M  V30 4710 H 444.111 5.72392 -3.03761 0
M  V30 4711 N 437.518 0.538854 1.48102 0
M  V30 4712 C 438.45 -0.256278 2.27763 0
M  V30 4713 C 439.463 -0.89633 1.35904 0
M  V30 4714 O 440.652 -0.773275 1.60881 0
M  V30 4715 C 437.752 -1.37896 3.09577 0
M  V30 4716 C 436.925 -0.839159 4.29275 0
M  V30 4717 C 435.984 -1.84405 4.9283 0
M  V30 4718 O 435.01 -1.39746 5.51779 0
M  V30 4719 N 436.212 -3.17666 4.85869 0
M  V30 4720 H 438.977 0.426968 2.96643 0
M  V30 4721 H 436.538 0.373747 1.57527 0
M  V30 4722 H 438.53 -2.04955 3.48963 0
M  V30 4723 H 437.1 -1.96572 2.4306 0
M  V30 4724 H 436.32 0.00769287 3.94199 0
M  V30 4725 H 437.608 -0.457548 5.06739 0
M  V30 4726 H 437.006 -3.56609 4.39143 0
M  V30 4727 H 435.563 -3.80334 5.29329 0
M  V30 4728 N 438.996 -1.55193 0.274407 0
M  V30 4729 C 440.242 -1.99877 -0.343086 0
M  V30 4730 C 440.575 -1.16256 -1.55558 0
M  V30 4731 O 439.85 -0.232462 -1.93106 0
M  V30 4732 C 440.133 -3.52706 -0.725965 0
M  V30 4733 C 439.986 -4.47081 0.493818 0
M  V30 4734 C 441.305 -4.11422 -1.56268 0
M  V30 4735 H 438.424 -0.726625 -0.123229 0
M  V30 4736 H 441.066 -1.86136 0.38121 0
M  V30 4737 H 439.216 -3.64546 -1.34307 0
M  V30 4738 H 440.888 -4.47186 1.13237 0
M  V30 4739 H 439.131 -4.1877 1.13201 0
M  V30 4740 H 439.802 -5.51699 0.18217 0
M  V30 4741 H 442.278 -4.02855 -1.04151 0
M  V30 4742 H 441.154 -5.18568 -1.79939 0
M  V30 4743 H 441.415 -3.61607 -2.54348 0
M  V30 4744 N 440.474 -0.00167713 -1.576 0
M  V30 4745 C 441.89 0.354422 -1.55615 0
M  V30 4746 C 442.09 1.74679 -1.00447 0
M  V30 4747 O 441.146 2.4428 -0.639022 0
M  V30 4748 C 442.459 0.22812 -2.99833 0
M  V30 4749 C 444.007 0.302934 -3.11531 0
M  V30 4750 C 444.482 0.205737 -4.57538 0
M  V30 4751 N 445.973 0.263584 -4.62449 0
M  V30 4752 C 446.708 0.211742 -5.73009 0
M  V30 4753 N 446.204 0.110399 -6.92712 0
M  V30 4754 N 447.997 0.263729 -5.61481 0
M  V30 4755 H 440.148 -0.912498 -1.918 0
M  V30 4756 H 442.411 -0.349928 -0.881053 0
M  V30 4757 H 442.117 -0.729934 -3.44042 0
M  V30 4758 H 441.991 1.00951 -3.6344 0
M  V30 4759 H 444.378 1.25143 -2.67251 0
M  V30 4760 H 444.459 -0.508357 -2.50698 0
M  V30 4761 H 444.103 -0.739225 -5.02492 0
M  V30 4762 H 444.033 1.03554 -5.16318 0
M  V30 4763 H 446.524 0.343173 -3.76339 0
M  V30 4764 H 446.837 0.0767828 -7.72762 0
M  V30 4765 H 445.182 0.0760025 -6.94958 0
M  V30 4766 H 448.373 0.34111 -4.66855 0
M  V30 4767 H 448.546 0.219862 -6.47627 0
M  V30 4768 N 441.952 1.55251 0.271103 0
M  V30 4769 C 443.201 1.75151 1.00025 0
M  V30 4770 C 443.514 0.561041 1.87381 0
M  V30 4771 O 444.72 0.642506 2.63788 0
M  V30 4772 C 443.176 3.09999 1.82835 0
M  V30 4773 C 442.784 4.3662 1.00336 0
M  V30 4774 C 444.528 3.39249 2.55168 0
M  V30 4775 C 442.435 5.62506 1.82595 0
M  V30 4776 H 441.365 0.652877 0.377183 0
M  V30 4777 H 444.016 1.81708 0.255843 0
M  V30 4778 H 442.398 2.97485 2.61378 0
M  V30 4779 H 443.572 4.60055 0.261959 0
M  V30 4780 H 441.887 4.14527 0.394486 0
M  V30 4781 H 444.484 4.3051 3.1712 0
M  V30 4782 H 444.827 2.59467 3.2555 0
M  V30 4783 H 445.36 3.52869 1.83653 0
M  V30 4784 H 442.099 6.45041 1.16631 0
M  V30 4785 H 441.619 5.43211 2.54327 0
M  V30 4786 H 443.298 6.00875 2.39913 0
M  V30 4787 N 443.43 -0.535701 1.48216 0
M  V30 4788 C 444.362 -1.65662 1.58394 0
M  V30 4789 C 445.375 -1.5591 0.468607 0
M  V30 4790 O 446.564 -1.62475 0.7392 0
M  V30 4791 C 443.664 -3.04276 1.4923 0
M  V30 4792 C 442.837 -3.39567 2.75705 0
M  V30 4793 C 441.896 -4.57436 2.60075 0
M  V30 4794 O 440.922 -4.60942 3.33948 0
M  V30 4795 N 442.124 -5.55259 1.69315 0
M  V30 4796 H 444.889 -1.5737 2.55058 0
M  V30 4797 H 442.45 -0.722845 1.44867 0
M  V30 4798 H 444.442 -3.80994 1.36477 0
M  V30 4799 H 443.012 -3.06677 0.605632 0
M  V30 4800 H 442.232 -2.52083 3.03064 0
M  V30 4801 H 443.52 -3.59929 3.59623 0
M  V30 4802 H 442.918 -5.552 1.08489 0
M  V30 4803 H 441.475 -6.31218 1.62504 0
M  V30 4804 N 444.908 -1.36708 -0.784132 0
M  V30 4805 C 445.838 -1.34153 -1.91116 0
M  V30 4806 C 446.819 -0.212121 -1.68772 0
M  V30 4807 O 448.004 -0.410581 -1.8981 0
M  V30 4808 C 445.134 -1.13535 -3.28218 0
M  V30 4809 C 444.088 -2.23356 -3.65097 0
M  V30 4810 C 443.414 -1.87875 -5.00607 0
M  V30 4811 C 444.714 -3.65473 -3.73131 0
M  V30 4812 H 446.408 -2.28459 -1.93512 0
M  V30 4813 H 443.954 -1.09973 -0.929618 0
M  V30 4814 H 445.907 -1.10381 -4.06687 0
M  V30 4815 H 444.631 -0.156804 -3.26223 0
M  V30 4816 H 443.29 -2.25645 -2.88929 0
M  V30 4817 H 442.938 -0.885814 -4.95139 0
M  V30 4818 H 442.638 -2.61406 -5.26252 0
M  V30 4819 H 444.162 -1.86286 -5.81489 0
M  V30 4820 H 445.576 -3.65382 -4.41779 0
M  V30 4821 H 443.973 -4.37953 -4.10265 0
M  V30 4822 H 445.043 -3.99995 -2.74102 0
M  V30 4823 N 446.386 1.0089 -1.21074 0
M  V30 4824 C 447.333 2.09588 -0.966512 0
M  V30 4825 C 448.303 1.65761 0.106089 0
M  V30 4826 O 449.488 1.90758 -0.0402287 0
M  V30 4827 C 446.628 3.40958 -0.533058 0
M  V30 4828 C 445.741 3.9822 -1.67467 0
M  V30 4829 C 444.876 5.17682 -1.19076 0
M  V30 4830 C 443.915 5.67043 -2.30496 0
M  V30 4831 N 443.052 6.77759 -1.83267 0
M  V30 4832 H 447.892 2.29815 -1.89708 0
M  V30 4833 H 445.429 1.12689 -0.945489 0
M  V30 4834 H 447.387 4.1637 -0.263019 0
M  V30 4835 H 446.017 3.20781 0.360505 0
M  V30 4836 H 445.069 3.1983 -2.05944 0
M  V30 4837 H 446.381 4.3085 -2.51336 0
M  V30 4838 H 445.535 6.00326 -0.877151 0
M  V30 4839 H 444.274 4.86635 -0.322066 0
M  V30 4840 H 443.279 4.82999 -2.62664 0
M  V30 4841 H 444.504 6.00121 -3.17855 0
M  V30 4842 H 442.45 6.48527 -0.987356 0
M  V30 4843 H 442.367 7.09624 -2.60711 0
M  V30 4844 H 443.635 7.63949 -1.54928 0
M  V30 4845 N 447.864 1.01787 1.20321 0
M  V30 4846 C 449.141 0.622978 1.85414 0
M  V30 4847 C 449.521 -0.898887 1.91006 0
M  V30 4848 O 448.869 -1.79112 1.41884 0
M  V30 4849 C 449.079 1.27226 3.24984 0
M  V30 4850 C 450.427 1.3885 4.01255 0
M  V30 4851 O 451.451 1.22857 3.34342 0
M  V30 4852 O 450.31 1.64705 5.2109 0
M  V30 4853 H 447.404 0.215116 0.798533 0
M  V30 4854 H 449.95 1.11533 1.27901 0
M  V30 4855 H 448.722 2.31209 3.15687 0
M  V30 4856 H 448.345 0.767069 3.90131 0
M  V30 4857 N 449.342 -1.36122 0.79427 0
M  V30 4858 C 450.292 -2.27373 0.169017 0
M  V30 4859 C 451.276 -1.4719 -0.649913 0
M  V30 4860 O 452.468 -1.69518 -0.50919 0
M  V30 4861 C 449.597 -3.36264 -0.691455 0
M  V30 4862 C 448.683 -4.2388 0.13653 0
M  V30 4863 N 449.074 -4.91519 1.19345 0
M  V30 4864 C 447.372 -4.45921 -0.0838499 0
M  V30 4865 C 448.073 -5.56369 1.6979 0
M  V30 4866 N 447.049 -5.34204 1.00634 0
M  V30 4867 H 450.851 -2.77154 0.977897 0
M  V30 4868 H 448.365 -1.49504 0.634208 0
M  V30 4869 H 450.362 -4.00572 -1.15534 0
M  V30 4870 H 449.022 -2.88037 -1.49883 0
M  V30 4871 H 450.033 -4.9334 1.57594 0
M  V30 4872 H 446.71 -4.08518 -0.861341 0
M  V30 4873 H 448.1 -6.20368 2.58055 0
M  V30 4874 N 450.82 -0.546701 -1.47814 0
M  V30 4875 C 452.069 -0.0166497 -2.01693 0
M  V30 4876 C 452.382 1.33721 -1.42752 0
M  V30 4877 O 453.588 1.95658 -1.8823 0
M  V30 4878 C 452.044 0.0206769 -3.59894 0
M  V30 4879 C 451.652 -1.3293 -4.27824 0
M  V30 4880 C 453.396 0.498674 -4.21561 0
M  V30 4881 C 451.303 -1.25165 -5.78003 0
M  V30 4882 H 450.233 -0.0024541 -0.753996 0
M  V30 4883 H 452.884 -0.692984 -1.69912 0
M  V30 4884 H 451.266 0.76244 -3.88591 0
M  V30 4885 H 452.44 -2.08795 -4.10781 0
M  V30 4886 H 450.755 -1.74438 -3.78101 0
M  V30 4887 H 453.352 0.575 -5.31599 0
M  V30 4888 H 453.695 1.5083 -3.88016 0
M  V30 4889 H 454.228 -0.18791 -3.97356 0
M  V30 4890 H 450.967 -2.23695 -6.1615 0
M  V30 4891 H 450.487 -0.53464 -5.97412 0
M  V30 4892 H 452.166 -0.949299 -6.39998 0
M  V30 4893 N 452.299 1.55045 -0.282633 0
M  V30 4894 C 453.576 1.9179 0.384166 0
M  V30 4895 C 453.956 1.20778 1.73136 0
M  V30 4896 O 453.304 0.33719 2.25998 0
M  V30 4897 C 453.514 3.45149 0.517014 0
M  V30 4898 C 454.862 4.17064 0.796427 0
M  V30 4899 O 455.886 3.51084 0.601535 0
M  V30 4900 O 454.745 5.33837 1.16962 0
M  V30 4901 H 451.839 0.799483 0.211558 0
M  V30 4902 H 454.385 1.66474 -0.32934 0
M  V30 4903 H 453.157 3.88922 -0.430772 0
M  V30 4904 H 452.78 3.76443 1.2797 0
M  V30 4905 N 453.777 0.010035 1.57597 0
M  V30 4906 C 455.193 -0.346164 1.55801 0
M  V30 4907 C 455.393 -1.74144 1.01371 0
M  V30 4908 O 454.449 -2.43938 0.651968 0
M  V30 4909 C 455.762 -0.212216 2.9995 0
M  V30 4910 C 457.31 -0.286409 3.11687 0
M  V30 4911 C 457.785 -0.18147 4.5764 0
M  V30 4912 N 459.276 -0.239056 4.62583 0
M  V30 4913 C 460.011 -0.181351 5.73113 0
M  V30 4914 N 459.507 -0.073661 6.92761 0
M  V30 4915 N 461.3 -0.233949 5.61613 0
M  V30 4916 H 453.451 0.922657 1.91313 0
M  V30 4917 H 455.714 0.354595 0.879185 0
M  V30 4918 H 455.42 0.748169 3.4365 0
M  V30 4919 H 455.294 -0.990224 3.6397 0
M  V30 4920 H 457.681 -1.23724 2.67911 0
M  V30 4921 H 457.762 0.521645 2.50425 0
M  V30 4922 H 457.406 0.765863 5.02093 0
M  V30 4923 H 457.336 -1.00814 5.1686 0
M  V30 4924 H 459.827 -0.32321 3.76515 0
M  V30 4925 H 460.14 -0.0358003 7.72792 0
M  V30 4926 H 458.485 -0.0391461 6.94989 0
M  V30 4927 H 461.676 -0.316347 4.6703 0
M  V30 4928 H 461.849 -0.185514 6.47734 0
M  V30 4929 N 455.255 -1.55392 -0.262866 0
M  V30 4930 C 456.483 -1.80513 -1.01108 0
M  V30 4931 C 456.898 -0.583533 -1.79556 0
M  V30 4932 O 456.255 0.447585 -1.76926 0
M  V30 4933 C 456.306 -3.03648 -1.96164 0
M  V30 4934 O 456.027 -4.2109 -1.20893 0
M  V30 4935 C 457.528 -3.41448 -2.82715 0
M  V30 4936 H 454.748 -0.601079 -0.298236 0
M  V30 4937 H 457.292 -2.02425 -0.290582 0
M  V30 4938 H 455.447 -2.83832 -2.63663 0
M  V30 4939 H 455.861 -4.90771 -1.85051 0
M  V30 4940 H 457.335 -4.30751 -3.45192 0
M  V30 4941 H 457.812 -2.61308 -3.53008 0
M  V30 4942 H 458.418 -3.63559 -2.20693 0
M  V30 4943 N 456.733 0.527833 -1.48498 0
M  V30 4944 C 457.68 1.6322 -1.6318 0
M  V30 4945 C 458.65 1.59199 -0.473815 0
M  V30 4946 O 459.835 1.77591 -0.697563 0
M  V30 4947 C 456.975 3.01474 -1.67951 0
M  V30 4948 C 456.088 3.15713 -2.94871 0
M  V30 4949 C 455.223 4.44539 -2.90789 0
M  V30 4950 C 454.262 4.52315 -4.12404 0
M  V30 4951 N 453.399 5.72533 -4.06387 0
M  V30 4952 H 458.239 1.50011 -2.57489 0
M  V30 4953 H 455.776 0.730298 -1.27691 0
M  V30 4954 H 457.734 3.81572 -1.68698 0
M  V30 4955 H 456.364 3.1345 -0.771306 0
M  V30 4956 H 455.416 2.28854 -3.03859 0
M  V30 4957 H 456.728 3.1732 -3.8485 0
M  V30 4958 H 455.882 5.3293 -2.89949 0
M  V30 4959 H 454.621 4.45457 -1.98542 0
M  V30 4960 H 453.626 3.62331 -4.13517 0
M  V30 4961 H 454.851 4.53134 -5.05812 0
M  V30 4962 H 452.797 5.74344 -3.16962 0
M  V30 4963 H 452.714 5.75643 -4.90073 0
M  V30 4964 H 453.982 6.63204 -4.0961 0
M  V30 4965 N 458.211 1.37122 0.776871 0
M  V30 4966 C 459.158 1.3247 1.88998 0
M  V30 4967 C 460.128 0.191143 1.64997 0
M  V30 4968 O 461.313 0.379683 1.86984 0
M  V30 4969 C 458.453 1.13241 3.25992 0
M  V30 4970 C 457.566 2.35782 3.61982 0
M  V30 4971 C 456.701 2.09465 4.88158 0
M  V30 4972 C 455.74 3.279 5.16864 0
M  V30 4973 N 454.877 3.01167 6.34226 0
M  V30 4974 H 459.717 2.27642 1.9231 0
M  V30 4975 H 457.254 1.13125 0.94027 0
M  V30 4976 H 459.212 1.00115 4.0501 0
M  V30 4977 H 457.842 0.217186 3.22069 0
M  V30 4978 H 456.894 2.59666 2.77989 0
M  V30 4979 H 458.206 3.24125 3.79137 0
M  V30 4980 H 457.36 1.93341 5.75069 0
M  V30 4981 H 456.099 1.18452 4.73097 0
M  V30 4982 H 455.104 3.44569 4.2843 0
M  V30 4983 H 456.329 4.19757 5.33836 0
M  V30 4984 H 454.275 2.12779 6.20533 0
M  V30 4985 H 454.192 3.83052 6.51772 0
M  V30 4986 H 455.46 2.88649 7.24087 0
M  V30 4987 N 459.689 -1.00246 1.21608 0
M  V30 4988 C 460.636 -2.09073 0.977613 0
M  V30 4989 C 461.606 -1.65815 -0.097297 0
M  V30 4990 O 462.791 -1.90734 0.0503445 0
M  V30 4991 C 459.931 -3.40671 0.551133 0
M  V30 4992 C 459.044 -3.97326 1.69576 0
M  V30 4993 C 458.179 -5.17043 1.2182 0
M  V30 4994 C 457.218 -5.65813 2.335 0
M  V30 4995 N 456.355 -6.76778 1.86859 0
M  V30 4996 H 461.195 -2.28806 1.90924 0
M  V30 4997 H 458.732 -1.12186 0.951452 0
M  V30 4998 H 460.69 -4.16225 0.285097 0
M  V30 4999 H 459.32 -3.20967 -0.343489 0
M  V30 5000 H 458.372 -3.18734 2.07637 0
M  V30 5001 H 459.684 -4.29511 2.53617 0
M  V30 5002 H 458.838 -5.99852 0.908975 0
M  V30 5003 H 457.577 -4.86458 0.347869 0
M  V30 5004 H 456.582 -4.81599 2.65222 0
M  V30 5005 H 457.807 -5.98427 3.21033 0
M  V30 5006 H 455.753 -6.47994 1.02174 0
M  V30 5007 H 455.67 -7.08231 2.64471 0
M  V30 5008 H 456.938 -7.63116 1.58978 0
M  V30 5009 N 461.167 -1.02423 -1.1978 0
M  V30 5010 C 462.583 -0.740459 -1.41384 0
M  V30 5011 C 462.783 0.676827 -1.89793 0
M  V30 5012 O 461.839 1.4435 -2.0717 0
M  V30 5013 C 463.152 -1.77264 -2.42895 0
M  V30 5014 C 464.7 -1.79165 -2.56649 0
M  V30 5015 C 465.175 -2.8133 -3.6141 0
M  V30 5016 N 466.666 -2.80118 -3.68901 0
M  V30 5017 C 467.401 -3.55824 -4.49641 0
M  V30 5018 N 466.897 -4.41231 -5.34123 0
M  V30 5019 N 468.69 -3.44387 -4.44246 0
M  V30 5020 H 460.841 -1.9391 -0.866764 0
M  V30 5021 H 463.104 -0.838074 -0.443098 0
M  V30 5022 H 462.81 -2.7884 -2.14339 0
M  V30 5023 H 462.684 -1.59108 -3.42001 0
M  V30 5024 H 465.071 -0.782702 -2.84531 0
M  V30 5025 H 465.152 -2.01396 -1.57713 0
M  V30 5026 H 464.796 -3.82394 -3.34271 0
M  V30 5027 H 464.726 -2.56359 -4.59986 0
M  V30 5028 H 467.217 -2.1817 -3.08562 0
M  V30 5029 H 467.53 -4.95747 -5.92836 0
M  V30 5030 H 465.875 -4.45306 -5.33599 0
M  V30 5031 H 469.066 -2.7708 -3.77285 0
M  V30 5032 H 469.239 -4.0364 -5.06931 0
M  V30 5033 N 462.645 1.35699 -0.801477 0
M  V30 5034 C 463.893 1.9852 -0.37871 0
M  V30 5035 C 464.214 1.63907 1.05638 0
M  V30 5036 O 463.484 0.919013 1.73006 0
M  V30 5037 H 462.064 0.734322 -0.137042 0
M  V30 5038 H 464.726 1.65697 -1.02619 0
M  V30 5039 H 463.822 3.08382 -0.480284 0
M  V30 5040 N 464.123 0.554532 1.47522 0
M  V30 5041 C 465.033 -0.197865 2.33764 0
M  V30 5042 C 466.049 -0.914576 1.48025 0
M  V30 5043 O 467.225 -0.884067 1.80959 0
M  V30 5044 C 464.29 -1.21628 3.24665 0
M  V30 5045 C 463.351 -0.507283 4.26292 0
M  V30 5046 C 462.584 -1.47718 5.1285 0
M  V30 5047 O 462.807 -2.7118 5.01814 0
M  V30 5048 O 461.741 -1.00313 5.93482 0
M  V30 5049 H 465.567 0.50949 2.99396 0
M  V30 5050 H 463.152 0.315176 1.46038 0
M  V30 5051 H 465.034 -1.80421 3.80823 0
M  V30 5052 H 463.709 -1.9056 2.61665 0
M  V30 5053 H 462.616 0.121778 3.73902 0
M  V30 5054 H 463.949 0.140544 4.91999 0
M  V30 5055 N 465.601 -1.54893 0.290851 0
M  V30 5056 C 466.548 -2.23138 -0.58974 0
M  V30 5057 C 467.518 -1.21036 -1.13752 0
M  V30 5058 O 468.703 -1.49626 -1.18392 0
M  V30 5059 C 465.843 -2.96811 -1.76061 0
M  V30 5060 C 464.956 -4.13665 -1.24519 0
M  V30 5061 C 464.091 -4.74944 -2.3791 0
M  V30 5062 C 463.13 -5.83963 -1.83451 0
M  V30 5063 N 462.267 -6.39239 -2.90376 0
M  V30 5064 H 467.107 -2.98 -0.00114915 0
M  V30 5065 H 464.644 -1.47096 0.0112006 0
M  V30 5066 H 466.602 -3.37751 -2.44909 0
M  V30 5067 H 465.232 -2.24344 -2.32098 0
M  V30 5068 H 464.284 -3.77737 -0.449288 0
M  V30 5069 H 465.596 -4.92238 -0.806424 0
M  V30 5070 H 464.75 -5.18684 -3.14724 0
M  V30 5071 H 463.489 -3.95682 -2.85109 0
M  V30 5072 H 462.494 -5.39657 -1.05122 0
M  V30 5073 H 463.719 -6.65103 -1.37169 0
M  V30 5074 H 461.665 -5.62864 -3.36927 0
M  V30 5075 H 461.582 -7.13129 -2.50965 0
M  V30 5076 H 462.85 -6.87637 -3.67118 0
M  V30 5077 N 467.08 -0.0183926 -1.57589 0
M  V30 5078 C 468.357 0.700621 -1.82622 0
M  V30 5079 C 468.737 1.90951 -0.90005 0
M  V30 5080 O 468.085 2.28452 0.0469145 0
M  V30 5081 C 468.295 1.08899 -3.31575 0
M  V30 5082 C 469.643 1.48514 -3.9778 0
M  V30 5083 O 470.667 1.18227 -3.36007 0
M  V30 5084 O 469.526 2.04903 -5.06633 0
M  V30 5085 H 466.62 0.342743 -0.752633 0
M  V30 5086 H 469.166 -0.0452548 -1.6964 0
M  V30 5087 H 467.938 0.228113 -3.90635 0
M  V30 5088 H 467.561 1.89338 -3.49624 0
M  V30 5089 N 468.558 1.5553 0.254621 0
M  V30 5090 C 469.468 1.92789 1.33677 0
M  V30 5091 C 470.484 0.827356 1.53071 0
M  V30 5092 O 471.66 1.12807 1.66843 0
M  V30 5093 C 468.725 2.20827 2.67275 0
M  V30 5094 C 467.786 3.4427 2.5647 0
M  V30 5095 C 467.019 3.70961 3.83697 0
M  V30 5096 O 467.242 2.99852 4.85227 0
M  V30 5097 O 466.176 4.64491 3.82794 0
M  V30 5098 H 470.002 2.84945 1.05071 0
M  V30 5099 H 467.587 1.42312 0.454723 0
M  V30 5100 H 469.469 2.40204 3.46237 0
M  V30 5101 H 468.144 1.31851 2.9563 0
M  V30 5102 H 467.051 3.30209 1.75821 0
M  V30 5103 H 468.384 4.33524 2.33062 0
M  V30 5104 N 470.036 -0.519951 1.48776 0
M  V30 5105 C 471.264 -1.29971 1.60982 0
M  V30 5106 C 471.679 -1.86803 0.273885 0
M  V30 5107 O 471.036 -1.66904 -0.738193 0
M  V30 5108 C 471.087 -2.44346 2.66415 0
M  V30 5109 O 470.808 -1.89855 3.94825 0
M  V30 5110 C 472.309 -3.36014 2.89153 0
M  V30 5111 H 469.529 -0.394891 0.542496 0
M  V30 5112 H 472.073 -0.626214 1.94676 0
M  V30 5113 H 470.228 -3.07562 2.35552 0
M  V30 5114 H 470.642 -2.64798 4.5275 0
M  V30 5115 H 472.116 -4.12593 3.66703 0
M  V30 5116 H 472.593 -3.91859 1.98351 0
M  V30 5117 H 473.199 -2.78582 3.21359 0
M  V30 5118 N 471.514 -1.37532 -0.769588 0
M  V30 5119 C 472.424 -1.35668 -1.91393 0
M  V30 5120 C 473.44 -0.255954 -1.72107 0
M  V30 5121 O 474.616 -0.491704 -1.95305 0
M  V30 5122 C 471.681 -1.16481 -3.26547 0
M  V30 5123 C 470.742 -2.36212 -3.58472 0
M  V30 5124 C 469.975 -2.17932 -4.87177 0
M  V30 5125 O 470.198 -1.1647 -5.58382 0
M  V30 5126 O 469.132 -3.06167 -5.18214 0
M  V30 5127 H 472.958 -2.32055 -1.95918 0
M  V30 5128 H 470.543 -1.18284 -0.912641 0
M  V30 5129 H 472.425 -1.07778 -4.07384 0
M  V30 5130 H 471.1 -0.231687 -3.2287 0
M  V30 5131 H 470.007 -2.50488 -2.77861 0
M  V30 5132 H 471.34 -3.281 -3.66894 0
M  V30 5133 N 472.992 0.995999 -1.22138 0
M  V30 5134 C 474.222 1.76809 -1.06874 0
M  V30 5135 C 474.63 1.85265 0.383866 0
M  V30 5136 O 473.973 1.31969 1.27789 0
M  V30 5137 C 474.035 3.2186 -1.60144 0
M  V30 5138 C 473.699 3.36958 -3.0872 0
M  V30 5139 C 474.696 3.2452 -4.0618 0
M  V30 5140 C 472.381 3.62109 -3.48112 0
M  V30 5141 C 474.375 3.37013 -5.41019 0
M  V30 5142 C 472.062 3.74243 -4.831 0
M  V30 5143 C 473.06 3.61702 -5.79362 0
M  V30 5144 O 472.748 3.73436 -7.119 0
M  V30 5145 H 472.48 0.562207 -0.375365 0
M  V30 5146 H 475.034 1.26113 -1.62125 0
M  V30 5147 H 473.264 3.73734 -0.992981 0
M  V30 5148 H 474.953 3.80775 -1.40589 0
M  V30 5149 H 475.719 3.05004 -3.77091 0
M  V30 5150 H 471.598 3.70949 -2.73712 0
M  V30 5151 H 475.142 3.27141 -6.16137 0
M  V30 5152 H 471.039 3.93266 -5.11872 0
M  V30 5153 H 471.807 3.90328 -7.19435 0
M  V30 5154 N 474.47 1.03057 1.19235 0
M  V30 5155 C 475.38 0.622922 2.26179 0
M  V30 5156 C 476.396 -0.346113 1.70523 0
M  V30 5157 O 477.572 -0.203572 2.00369 0
M  V30 5158 C 474.637 -0.0182063 3.46695 0
M  V30 5159 C 473.698 0.998546 4.17526 0
M  V30 5160 C 472.931 0.387917 5.32288 0
M  V30 5161 O 473.154 -0.808668 5.64639 0
M  V30 5162 O 472.088 1.1116 5.91546 0
M  V30 5163 H 475.914 1.51363 2.63292 0
M  V30 5164 H 473.499 0.800856 1.26122 0
M  V30 5165 H 475.381 -0.375606 4.19723 0
M  V30 5166 H 474.056 -0.882895 3.11427 0
M  V30 5167 H 472.963 1.40756 3.4661 0
M  V30 5168 H 474.296 1.83366 4.56769 0
M  V30 5169 N 475.948 -1.35272 0.808662 0
M  V30 5170 C 477.178 -2.02652 0.401953 0
M  V30 5171 C 477.586 -1.6108 -0.992462 0
M  V30 5172 O 476.929 -0.804984 -1.65123 0
M  V30 5173 C 476.991 -3.57174 0.408246 0
M  V30 5174 C 476.655 -4.22019 1.75353 0
M  V30 5175 C 477.652 -4.43552 2.71215 0
M  V30 5176 C 475.337 -4.59093 2.03811 0
M  V30 5177 C 477.331 -5.01264 3.93717 0
M  V30 5178 C 475.018 -5.16519 3.26576 0
M  V30 5179 C 476.016 -5.37546 4.21347 0
M  V30 5180 O 475.704 -5.93761 5.41944 0
M  V30 5181 H 475.436 -0.656495 0.161216 0
M  V30 5182 H 477.99 -1.73829 1.0942 0
M  V30 5183 H 476.22 -3.85197 -0.340608 0
M  V30 5184 H 477.909 -4.05893 0.0235623 0
M  V30 5185 H 478.675 -4.15288 2.50522 0
M  V30 5186 H 474.554 -4.42039 1.30854 0
M  V30 5187 H 478.098 -5.17592 4.67701 0
M  V30 5188 H 473.995 -5.4421 3.47139 0
M  V30 5189 H 474.763 -6.1221 5.43269 0
M  V30 5190 N 477.426 -0.562348 -1.47226 0
M  V30 5191 C 478.651 -0.0432632 -2.07355 0
M  V30 5192 C 479.076 1.24332 -1.41149 0
M  V30 5193 O 478.434 1.74603 -0.488226 0
M  V30 5194 C 478.482 0.130288 -3.60365 0
M  V30 5195 O 477.586 1.19166 -3.94808 0
M  V30 5196 H 476.927 -0.0536334 -0.66183 0
M  V30 5197 H 479.457 -0.779495 -1.89169 0
M  V30 5198 H 479.467 0.342881 -4.06557 0
M  V30 5199 H 478.142 -0.809389 -4.07948 0
M  V30 5200 H 476.719 0.959153 -3.60354 0
M  V30 5201 N 478.904 1.54736 -0.299062 0
M  V30 5202 C 480.152 1.99706 0.31017 0
M  V30 5203 C 480.473 1.18896 1.54559 0
M  V30 5204 O 479.743 0.284445 1.93824 0
M  V30 5205 H 478.323 0.737686 0.117596 0
M  V30 5206 H 480.985 1.9054 -0.409943 0
M  V30 5207 H 480.081 3.06596 0.58355 0
M  V30 5208 N 480.382 0.0267497 1.57577 0
M  V30 5209 C 481.607 -0.666227 1.96408 0
M  V30 5210 C 482.032 -1.65004 0.903071 0
M  V30 5211 O 481.39 -1.80787 -0.136263 0
M  V30 5212 C 481.438 -1.35101 3.34335 0
M  V30 5213 O 480.542 -2.46623 3.30531 0
M  V30 5214 H 479.883 -0.175206 0.640468 0
M  V30 5215 H 482.413 0.0878977 2.04411 0
M  V30 5216 H 482.423 -1.70834 3.70513 0
M  V30 5217 H 481.098 -0.629844 4.11103 0
M  V30 5218 H 479.675 -2.13019 3.06068 0
M  V30 5219 N 481.861 -1.55662 -0.24637 0
M  V30 5220 C 482.771 -1.93495 -1.32653 0
M  V30 5221 C 483.787 -0.835462 -1.5263 0
M  V30 5222 O 484.963 -1.1369 -1.66242 0
M  V30 5223 C 482.028 -2.22242 -2.66101 0
M  V30 5224 C 481.089 -3.45625 -2.54641 0
M  V30 5225 C 480.322 -3.72991 -3.81724 0
M  V30 5226 O 480.545 -3.02421 -4.8363 0
M  V30 5227 O 479.479 -4.66515 -3.80325 0
M  V30 5228 H 483.305 -2.85498 -1.03559 0
M  V30 5229 H 480.89 -1.42551 -0.44717 0
M  V30 5230 H 482.772 -2.42037 -3.44958 0
M  V30 5231 H 481.447 -1.33417 -2.94926 0
M  V30 5232 H 480.354 -3.31136 -1.74067 0
M  V30 5233 H 481.687 -4.34754 -2.3076 0
M  V30 5234 N 483.339 0.512053 -1.4905 0
M  V30 5235 C 484.249 1.64139 -1.67617 0
M  V30 5236 C 485.265 1.64786 -0.558701 0
M  V30 5237 O 486.441 1.8341 -0.832034 0
M  V30 5238 C 483.506 3.00548 -1.72835 0
M  V30 5239 C 482.567 3.10615 -2.96339 0
M  V30 5240 C 481.8 4.40517 -3.01298 0
M  V30 5241 O 482.023 5.28671 -2.14157 0
M  V30 5242 O 480.957 4.55325 -3.93653 0
M  V30 5243 H 484.783 1.51407 -2.63267 0
M  V30 5244 H 482.368 0.687131 -1.32661 0
M  V30 5245 H 484.25 3.81641 -1.78683 0
M  V30 5246 H 482.925 3.13566 -0.803616 0
M  V30 5247 H 481.832 2.2875 -2.96014 0
M  V30 5248 H 483.165 3.0252 -3.88256 0
M  V30 5249 N 484.817 1.37938 0.762283 0
M  V30 5250 C 485.727 1.36681 1.90671 0
M  V30 5251 C 486.743 0.265078 1.71969 0
M  V30 5252 O 487.919 0.502055 1.95042 0
M  V30 5253 C 484.984 1.18211 3.25925 0
M  V30 5254 C 484.045 2.3811 3.57214 0
M  V30 5255 C 483.278 2.20512 4.86014 0
M  V30 5256 O 483.501 1.19429 5.57757 0
M  V30 5257 O 482.435 3.08911 5.16583 0
M  V30 5258 H 486.261 2.33091 1.94685 0
M  V30 5259 H 483.846 1.18767 0.906356 0
M  V30 5260 H 485.728 1.09937 4.06807 0
M  V30 5261 H 484.403 0.248807 3.22742 0
M  V30 5262 H 483.31 2.51958 2.76529 0
M  V30 5263 H 484.643 3.30041 3.65149 0
M  V30 5264 N 486.295 -0.989507 1.22664 0
M  V30 5265 C 487.205 -2.11449 1.01619 0
M  V30 5266 C 488.221 -1.73962 -0.036545 0
M  V30 5267 O 489.397 -2.00788 0.156924 0
M  V30 5268 C 486.462 -3.41465 0.600204 0
M  V30 5269 C 485.523 -3.93033 1.72695 0
M  V30 5270 C 484.756 -5.16844 1.33071 0
M  V30 5271 O 484.979 -5.7001 0.210975 0
M  V30 5272 O 483.913 -5.6225 2.14845 0
M  V30 5273 H 487.739 -2.32088 1.9588 0
M  V30 5274 H 485.324 -1.09823 1.01289 0
M  V30 5275 H 487.206 -4.19695 0.37873 0
M  V30 5276 H 485.881 -3.22178 -0.313511 0
M  V30 5277 H 484.788 -3.15961 2.00298 0
M  V30 5278 H 486.121 -4.16758 2.61865 0
M  V30 5279 N 487.773 -1.03688 -1.18687 0
M  V30 5280 C 488.683 -0.634908 -2.25845 0
M  V30 5281 C 489.699 0.337065 -1.70704 0
M  V30 5282 O 490.875 0.192943 -2.00474 0
M  V30 5283 C 487.94 -0.000180054 -3.467 0
M  V30 5284 C 487.001 -1.02067 -4.1699 0
M  V30 5285 C 486.234 -0.41614 -5.32075 0
M  V30 5286 O 486.457 0.778712 -5.65059 0
M  V30 5287 O 485.391 -1.14296 -5.90948 0
M  V30 5288 H 489.217 -1.52757 -2.62486 0
M  V30 5289 H 486.802 -0.807533 -1.25695 0
M  V30 5290 H 488.684 0.353342 -4.19916 0
M  V30 5291 H 487.359 0.866367 -3.11891 0
M  V30 5292 H 486.266 -1.42592 -3.45859 0
M  V30 5293 H 487.599 -1.85786 -4.5579 0
M  V30 5294 N 489.251 1.34841 -0.815825 0
M  V30 5295 C 490.161 2.33425 -0.234462 0
M  V30 5296 C 491.177 1.62295 0.627413 0
M  V30 5297 O 492.353 1.94109 0.536987 0
M  V30 5298 C 489.418 3.41471 0.599849 0
M  V30 5299 C 488.479 4.28362 -0.283596 0
M  V30 5300 C 487.712 5.31248 0.51099 0
M  V30 5301 O 487.935 5.43056 1.7449 0
M  V30 5302 O 486.869 6.01812 -0.10297 0
M  V30 5303 H 490.695 2.84962 -1.05024 0
M  V30 5304 H 488.28 1.37774 -0.577809 0
M  V30 5305 H 490.162 4.07464 1.07475 0
M  V30 5306 H 488.837 2.9219 1.39308 0
M  V30 5307 H 487.744 3.65318 -0.805836 0
M  V30 5308 H 489.077 4.81066 -1.041 0
M  V30 5309 N 490.729 0.570148 1.46925 0
M  V30 5310 C 491.677 -0.183181 2.31878 0
M  V30 5311 C 492.671 -0.896721 1.43719 0
M  V30 5312 O 493.877 -0.816536 1.60414 0
M  V30 5313 H 490.252 -0.077944 0.74795 0
M  V30 5314 H 492.223 0.552312 2.93244 0
M  V30 5315 C 490.972 -1.19172 3.2664 0
M  V30 5316 H 490.295 -0.652088 3.94446 0
M  V30 5317 H 491.735 -1.68946 3.88887 0
M  V30 5318 C 490.194 -2.24627 2.51086 0
M  V30 5319 O 490.724 -3.31773 2.26472 0
M  V30 5320 N 488.93 -1.98898 2.11867 0
M  V30 5321 H 488.477 -1.11777 2.32086 0
M  V30 5322 H 488.435 -2.6967 1.61634 0
M  V30 5323 N 492.207 -1.54576 0.307264 0
M  V30 5324 C 493.484 -1.92377 -0.353605 0
M  V30 5325 C 493.864 -1.23517 -1.71192 0
M  V30 5326 O 493.212 -0.373101 -2.25433 0
M  V30 5327 C 493.422 -3.45928 -0.462039 0
M  V30 5328 C 494.77 -4.18278 -0.729975 0
M  V30 5329 O 495.794 -3.51997 -0.545605 0
M  V30 5330 O 494.653 -5.3563 -1.08454 0
M  V30 5331 H 491.747 -0.802747 -0.198812 0
M  V30 5332 H 494.293 -1.65929 0.355783 0
M  V30 5333 H 493.065 -3.88187 0.492592 0
M  V30 5334 H 492.688 -3.78431 -1.21965 0
M  V30 5335 N 493.685 -0.035106 -1.57561 0
M  V30 5336 C 494.91 0.655802 -1.96759 0
M  V30 5337 C 495.335 1.64523 -0.911809 0
M  V30 5338 O 494.693 1.80857 0.126673 0
M  V30 5339 C 494.741 1.33326 -3.35047 0
M  V30 5340 O 493.845 2.44866 -3.31835 0
M  V30 5341 H 493.186 0.171807 -0.641388 0
M  V30 5342 H 495.716 -0.0987369 -2.04362 0
M  V30 5343 H 495.726 1.68867 -3.71413 0
M  V30 5344 H 494.401 0.608033 -4.11431 0
M  V30 5345 H 492.978 2.11392 -3.07193 0
M  V30 5346 N 495.163 1.55791 0.238111 0
M  V30 5347 C 496.411 1.77681 0.963001 0
M  V30 5348 C 496.732 0.600674 1.85518 0
M  V30 5349 O 496.002 -0.383182 1.92116 0
M  V30 5350 H 494.582 0.655315 0.358568 0
M  V30 5351 H 497.244 1.93239 0.253945 0
M  V30 5352 H 496.34 2.69177 1.57956 0
M  V30 5353 N 496.642 -0.504142 1.49319 0
M  V30 5354 C 497.552 -1.63248 1.68486 0
M  V30 5355 C 498.568 -1.64488 0.567432 0
M  V30 5356 O 499.744 -1.82966 0.841749 0
M  V30 5357 C 496.809 -2.99627 1.74426 0
M  V30 5358 C 495.87 -3.09039 2.97982 0
M  V30 5359 C 495.103 -4.38913 3.0363 0
M  V30 5360 O 495.326 -5.27528 2.16958 0
M  V30 5361 O 494.26 -4.53231 3.96062 0
M  V30 5362 H 498.086 -1.50008 2.64067 0
M  V30 5363 H 495.671 -0.680086 1.33023 0
M  V30 5364 H 497.553 -3.80689 1.80705 0
M  V30 5365 H 496.228 -3.13136 0.820233 0
M  V30 5366 H 495.135 -2.27177 2.97223 0
M  V30 5367 H 496.468 -3.00456 3.89855 0
M  V30 5368 N 498.12 -1.38341 -0.754957 0
M  V30 5369 C 499.531 -1.30803 -1.3322 0
M  V30 5370 C 499.882 0.0368 -1.96165 0
M  V30 5371 O 499.007 0.938844 -1.94974 0
M  V30 5372 C 499.602 -2.3688 -2.42225 0
M  V30 5373 C 498.161 -2.32925 -2.95674 0
M  V30 5374 C 497.308 -2.19819 -1.69042 0
M  V30 5375 H 500.259 -1.48719 -0.553937 0
M  V30 5376 H 500.28 -2.02517 -3.22129 0
M  V30 5377 H 499.792 -3.34747 -1.96383 0
M  V30 5378 H 497.893 -1.38635 -3.45848 0
M  V30 5379 H 498.006 -3.27008 -3.50146 0
M  V30 5380 H 496.37 -1.66648 -1.92615 0
M  V30 5381 H 497.153 -3.19625 -1.25279 0
M  V30 5382 N 499.598 0.982988 -1.23187 0
M  V30 5383 C 500.823 1.76455 -1.08988 0
M  V30 5384 C 501.248 1.84726 0.354691 0
M  V30 5385 O 500.606 1.30699 1.25649 0
M  V30 5386 C 500.654 3.17094 -1.71708 0
M  V30 5387 O 499.758 4.00648 -0.977477 0
M  V30 5388 H 499.099 0.542988 -0.382177 0
M  V30 5389 H 501.629 1.23413 -1.63188 0
M  V30 5390 H 501.639 3.67684 -1.76841 0
M  V30 5391 H 500.314 3.10389 -2.76823 0
M  V30 5392 H 498.891 3.59161 -1.0029 0
M  V30 5393 N 501.076 1.04316 1.18135 0
M  V30 5394 C 502.301 0.768047 1.92655 0
M  V30 5395 C 502.726 -0.66904 1.758 0
M  V30 5396 O 502.084 -1.46372 1.06981 0
M  V30 5397 C 502.132 1.14239 3.42026 0
M  V30 5398 O 501.236 0.269333 4.1152 0
M  V30 5399 H 500.577 0.282436 0.600937 0
M  V30 5400 H 503.107 1.39367 1.49793 0
M  V30 5401 H 503.117 1.10538 3.92741 0
M  V30 5402 H 501.792 2.18928 3.53615 0
M  V30 5403 H 500.369 0.366175 3.71098 0
M  V30 5404 N 502.554 -1.34406 0.822964 0
M  V30 5405 C 503.803 -1.97542 0.407458 0
M  V30 5406 C 504.116 -1.65973 -1.035 0
M  V30 5407 O 505.322 -2.22598 -1.55442 0
M  V30 5408 C 503.778 -3.53463 0.677623 0
M  V30 5409 C 503.386 -3.93925 2.1337 0
M  V30 5410 C 505.13 -4.23229 0.328284 0
M  V30 5411 C 503.037 -5.42759 2.34876 0
M  V30 5412 H 501.967 -0.739207 0.148623 0
M  V30 5413 H 504.618 -1.53248 1.00932 0
M  V30 5414 H 503 -3.96 0.00558965 0
M  V30 5415 H 504.174 -3.62494 2.8449 0
M  V30 5416 H 502.489 -3.37097 2.44448 0
M  V30 5417 H 505.086 -5.32659 0.466794 0
M  V30 5418 H 505.429 -4.09899 -0.727224 0
M  V30 5419 H 505.962 -3.86169 0.954896 0
M  V30 5420 H 502.701 -5.61075 3.38932 0
M  V30 5421 H 502.221 -5.75704 1.68299 0
M  V30 5422 H 503.9 -6.0944 2.17236 0
M  V30 5423 N 504.032 -0.577932 -1.46621 0
M  V30 5424 C 504.962 0.145917 -2.33044 0
M  V30 5425 C 505.943 0.888412 -1.45056 0
M  V30 5426 O 507.128 0.864812 -1.73881 0
M  V30 5427 C 504.258 1.16322 -3.27241 0
M  V30 5428 C 503.212 0.535868 -4.24632 0
M  V30 5429 C 502.538 1.65929 -5.08303 0
M  V30 5430 C 503.838 -0.523861 -5.19666 0
M  V30 5431 H 505.532 -0.575636 -2.93814 0
M  V30 5432 H 503.078 -0.278272 -1.41286 0
M  V30 5433 H 505.031 1.67793 -3.86553 0
M  V30 5434 H 503.755 1.91498 -2.64567 0
M  V30 5435 H 502.414 0.0422759 -3.66576 0
M  V30 5436 H 502.062 2.40061 -4.42018 0
M  V30 5437 H 501.762 1.2452 -5.74255 0
M  V30 5438 H 503.286 2.17686 -5.70478 0
M  V30 5439 H 504.7 -0.0944059 -5.73222 0
M  V30 5440 H 503.097 -0.858 -5.93935 0
M  V30 5441 H 504.167 -1.41197 -4.63887 0
M  V30 5442 N 505.51 1.54411 -0.315457 0
M  V30 5443 C 506.458 2.25514 0.569771 0
M  V30 5444 C 507.452 1.2663 1.12522 0
M  V30 5445 O 508.658 1.44434 1.07419 0
M  V30 5446 H 505.033 0.724257 0.202376 0
M  V30 5447 H 507.004 2.98354 -0.0522895 0
M  V30 5448 C 505.753 3.02004 1.72305 0
M  V30 5449 H 505.076 3.77906 1.30488 0
M  V30 5450 H 506.516 3.55014 2.31821 0
M  V30 5451 C 504.975 2.09822 2.63583 0
M  V30 5452 O 505.505 1.67574 3.65078 0
M  V30 5453 N 503.711 1.75478 2.31637 0
M  V30 5454 H 503.258 2.10032 1.49145 0
M  V30 5455 H 503.216 1.14079 2.92973 0
M  V30 5456 N 506.988 0.0434614 1.5754 0
M  V30 5457 C 507.918 -0.931651 2.14109 0
M  V30 5458 C 508.899 -1.32971 1.06079 0
M  V30 5459 O 510.084 -1.40579 1.33982 0
M  V30 5460 C 507.214 -2.20914 2.67982 0
M  V30 5461 C 506.168 -1.95139 3.80926 0
M  V30 5462 C 505.494 -3.29276 4.21285 0
M  V30 5463 C 506.794 -1.27913 5.06395 0
M  V30 5464 H 508.488 -0.460497 2.95837 0
M  V30 5465 H 506.034 -0.220058 1.42309 0
M  V30 5466 H 507.987 -2.89522 3.06194 0
M  V30 5467 H 506.711 -2.70221 1.83434 0
M  V30 5468 H 505.37 -1.28945 3.43175 0
M  V30 5469 H 505.018 -3.76369 3.33699 0
M  V30 5470 H 504.718 -3.12831 4.97404 0
M  V30 5471 H 506.242 -3.99129 4.62091 0
M  V30 5472 H 507.656 -1.86544 5.42102 0
M  V30 5473 H 506.053 -1.2182 5.87605 0
M  V30 5474 H 507.123 -0.254066 4.84234 0
M  V30 5475 N 508.466 -1.55915 -0.229846 0
M  V30 5476 C 509.877 -1.68809 -0.797531 0
M  V30 5477 C 510.228 -0.643995 -1.8533 0
M  V30 5478 O 509.353 0.206492 -2.15413 0
M  V30 5479 C 509.948 -3.06043 -1.45338 0
M  V30 5480 C 508.507 -3.20819 -1.96856 0
M  V30 5481 C 507.654 -2.6472 -0.825736 0
M  V30 5482 H 510.605 -1.58699 -0.00533733 0
M  V30 5483 H 510.626 -3.01438 -2.32196 0
M  V30 5484 H 510.138 -3.82012 -0.684743 0
M  V30 5485 H 508.239 -2.49704 -2.76548 0
M  V30 5486 H 508.352 -4.27937 -2.15423 0
M  V30 5487 H 506.716 -2.22985 -1.23084 0
M  V30 5488 H 507.499 -3.43229 -0.0699019 0
M  V30 5489 N 509.944 0.496216 -1.49584 0
M  V30 5490 C 511.192 1.24756 -1.58998 0
M  V30 5491 C 511.513 1.92968 -0.280775 0
M  V30 5492 O 510.783 1.82959 0.700198 0
M  V30 5493 H 509.363 0.463471 -0.585836 0
M  V30 5494 H 512.025 0.574678 -1.86235 0
M  V30 5495 H 511.121 2.00895 -2.38847 0
M  V30 5496 N 511.423 1.38739 0.74761 0
M  V30 5497 C 512.333 1.38696 1.89211 0
M  V30 5498 C 513.349 0.283303 1.71678 0
M  V30 5499 O 514.525 0.522713 1.94498 0
M  V30 5500 C 511.59 1.21662 3.24653 0
M  V30 5501 C 510.651 2.41886 3.54669 0
M  V30 5502 C 509.884 2.25655 4.83648 0
M  V30 5503 O 510.107 1.25339 5.56459 0
M  V30 5504 O 509.041 3.14372 5.13277 0
M  V30 5505 H 512.867 2.35143 1.92202 0
M  V30 5506 H 510.452 1.19721 0.893708 0
M  V30 5507 H 512.334 1.14246 4.05618 0
M  V30 5508 H 511.009 0.283024 3.2246 0
M  V30 5509 H 509.916 2.54877 2.73841 0
M  V30 5510 H 511.249 3.33895 3.61628 0
M  V30 5511 N 512.901 -0.976442 1.23707 0
M  V30 5512 C 514.126 -1.75875 1.09922 0
M  V30 5513 C 514.551 -1.84911 -0.34489 0
M  V30 5514 O 513.909 -1.31363 -1.24954 0
M  V30 5515 C 513.957 -3.16179 1.73388 0
M  V30 5516 O 513.061 -4.00124 0.99871 0
M  V30 5517 H 512.402 -0.540954 0.385052 0
M  V30 5518 H 514.932 -1.22546 1.6384 0
M  V30 5519 H 514.942 -3.66741 1.78788 0
M  V30 5520 H 513.617 -3.08917 2.78466 0
M  V30 5521 H 512.194 -3.58624 1.02193 0
M  V30 5522 N 514.379 -1.04941 -1.1758 0
M  V30 5523 C 515.607 -0.778294 -1.91703 0
M  V30 5524 C 516.022 0.665697 -1.76675 0
M  V30 5525 O 515.379 1.45456 -1.10222 0
M  V30 5526 C 515.43 -1.14628 -3.42845 0
M  V30 5527 O 515.151 -2.53359 -3.57409 0
M  V30 5528 C 516.652 -0.900931 -4.34049 0
M  V30 5529 H 513.872 -0.283167 -0.608323 0
M  V30 5530 H 516.416 -1.39942 -1.49119 0
M  V30 5531 H 514.571 -0.569953 -3.83184 0
M  V30 5532 H 514.985 -2.67709 -4.51035 0
M  V30 5533 H 516.459 -1.20817 -5.38616 0
M  V30 5534 H 516.936 0.163966 -4.38894 0
M  V30 5535 H 517.542 -1.46097 -3.99419 0
M  V30 5536 N 515.857 1.33968 -0.830081 0
M  V30 5537 C 516.787 2.31911 -0.271911 0
M  V30 5538 C 517.768 1.58571 0.61556 0
M  V30 5539 O 518.953 1.86514 0.540946 0
M  V30 5540 C 516.083 3.42737 0.561146 0
M  V30 5541 C 515.037 4.27383 -0.229789 0
M  V30 5542 C 514.363 5.29742 0.726463 0
M  V30 5543 C 515.663 5.02 -1.44197 0
M  V30 5544 H 517.357 2.78844 -1.09025 0
M  V30 5545 H 514.903 1.34061 -0.52571 0
M  V30 5546 H 516.856 4.10276 0.961867 0
M  V30 5547 H 515.58 2.94471 1.41261 0
M  V30 5548 H 514.239 3.61456 -0.611964 0
M  V30 5549 H 513.887 4.77736 1.57408 0
M  V30 5550 H 513.587 5.87255 0.20142 0
M  V30 5551 H 515.111 6.00149 1.12489 0
M  V30 5552 H 516.525 5.62355 -1.11488 0
M  V30 5553 H 514.922 5.69122 -1.90317 0
M  V30 5554 H 515.992 4.31281 -2.2164 0
M  V30 5555 N 517.335 0.585699 1.46312 0
M  V30 5556 C 518.751 0.247607 1.57668 0
M  V30 5557 C 518.951 -1.25007 1.58037 0
M  V30 5558 O 518.007 -2.03196 1.49893 0
M  V30 5559 C 519.32 0.899456 2.86933 0
M  V30 5560 C 520.868 0.873326 3.00569 0
M  V30 5561 C 521.343 1.50477 4.32574 0
M  V30 5562 N 522.834 1.46925 4.3928 0
M  V30 5563 C 523.569 1.92719 5.40044 0
M  V30 5564 N 523.065 2.46499 6.47464 0
M  V30 5565 N 524.858 1.83617 5.31264 0
M  V30 5566 H 517.009 1.55841 1.44317 0
M  V30 5567 H 519.272 0.651564 0.688599 0
M  V30 5568 H 518.978 1.95313 2.92482 0
M  V30 5569 H 518.852 0.409476 3.74971 0
M  V30 5570 H 521.239 -0.171736 2.946 0
M  V30 5571 H 521.32 1.40136 2.13999 0
M  V30 5572 H 520.964 2.54905 4.39302 0
M  V30 5573 H 520.894 0.951944 5.17924 0
M  V30 5574 H 523.385 1.07616 3.62253 0
M  V30 5575 H 523.698 2.79291 7.20567 0
M  V30 5576 H 522.043 2.50526 6.48276 0
M  V30 5577 H 525.234 1.41358 4.46246 0
M  V30 5578 H 525.407 2.19622 6.09648 0
M  V30 5579 N 518.813 -1.54241 0.323641 0
M  V30 5580 C 520.229 -1.59574 -0.0290018 0
M  V30 5581 C 520.429 -1.34017 -1.50472 0
M  V30 5582 O 519.485 -1.12464 -2.26071 0
M  V30 5583 C 520.798 -2.98169 0.389295 0
M  V30 5584 C 522.346 -3.11148 0.339958 0
M  V30 5585 C 522.821 -4.5209 0.733418 0
M  V30 5586 N 524.312 -4.5808 0.686827 0
M  V30 5587 C 525.047 -5.65248 0.963464 0
M  V30 5588 N 524.543 -6.80355 1.30724 0
M  V30 5589 N 526.336 -5.55025 0.88902 0
M  V30 5590 H 518.487 -1.6911 1.28512 0
M  V30 5591 H 520.75 -0.790972 0.522558 0
M  V30 5592 H 520.456 -3.21871 1.41746 0
M  V30 5593 H 520.33 -3.76399 -0.245657 0
M  V30 5594 H 522.717 -2.87182 -0.679002 0
M  V30 5595 H 522.798 -2.35023 1.00985 0
M  V30 5596 H 522.442 -4.76788 1.75029 0
M  V30 5597 H 522.372 -5.26584 0.0412189 0
M  V30 5598 H 524.863 -3.75411 0.43298 0
M  V30 5599 H 525.176 -7.58029 1.5037 0
M  V30 5600 H 523.521 -6.81851 1.3455 0
M  V30 5601 H 526.712 -4.63977 0.619939 0
M  V30 5602 H 526.885 -6.38458 1.10797 0
M  V30 5603 N 520.291 -0.0518155 -1.57515 0
M  V30 5604 C 521.568 0.661727 -1.84067 0
M  V30 5605 C 521.948 1.88999 -0.940351 0
M  V30 5606 O 521.296 2.285 -0.00155404 0
M  V30 5607 C 521.506 1.01841 -3.3381 0
M  V30 5608 C 522.854 1.40043 -4.00841 0
M  V30 5609 O 523.878 1.11073 -3.38439 0
M  V30 5610 O 522.737 1.94111 -5.10865 0
M  V30 5611 H 519.831 0.326702 -0.759733 0
M  V30 5612 H 522.377 -0.0812277 -1.69505 0
M  V30 5613 H 521.149 0.145202 -3.91031 0
M  V30 5614 H 520.772 1.81879 -3.53562 0
M  V30 5615 N 521.769 1.56035 0.221574 0
M  V30 5616 C 523.016 1.79047 0.94597 0
M  V30 5617 C 523.344 0.62057 1.84334 0
M  V30 5618 O 522.599 -0.395053 1.91671 0
M  V30 5619 C 522.898 3.07813 1.8162 0
M  V30 5620 C 522.564 4.3797 1.07206 0
M  V30 5621 C 521.226 4.73334 0.866508 0
M  V30 5622 C 523.578 5.18326 0.546565 0
M  V30 5623 C 520.906 5.8657 0.123549 0
M  V30 5624 C 523.258 6.32335 -0.18305 0
M  V30 5625 C 521.922 6.66301 -0.399861 0
M  V30 5626 H 521.192 0.655178 0.346155 0
M  V30 5627 H 523.839 1.90299 0.214146 0
M  V30 5628 H 522.144 2.91682 2.61589 0
M  V30 5629 H 523.841 3.2282 2.37884 0
M  V30 5630 H 520.431 4.10202 1.24226 0
M  V30 5631 H 524.615 4.9144 0.692847 0
M  V30 5632 H 519.871 6.11376 -0.0546591 0
M  V30 5633 H 524.045 6.9383 -0.59775 0
M  V30 5634 H 521.672 7.53889 -0.977489 0
M  V30 5635 N 523.247 -0.488276 1.49845 0
M  V30 5636 C 524.177 -1.59675 1.70371 0
M  V30 5637 C 525.158 -1.60878 0.552473 0
M  V30 5638 O 526.343 -1.77417 0.78973 0
M  V30 5639 C 523.473 -2.98098 1.782 0
M  V30 5640 C 522.427 -3.11761 2.93239 0
M  V30 5641 C 521.753 -4.51661 2.86193 0
M  V30 5642 C 523.053 -2.90589 4.33999 0
M  V30 5643 H 524.747 -1.42752 2.63177 0
M  V30 5644 H 522.293 -0.685317 1.26647 0
M  V30 5645 H 524.246 -3.75555 1.91144 0
M  V30 5646 H 522.97 -3.16138 0.820018 0
M  V30 5647 H 521.629 -2.36732 2.79917 0
M  V30 5648 H 521.277 -4.66595 1.87877 0
M  V30 5649 H 520.977 -4.61742 3.63412 0
M  V30 5650 H 522.501 -5.31162 3.01163 0
M  V30 5651 H 523.915 -3.57807 4.47936 0
M  V30 5652 H 522.312 -3.1213 5.12538 0
M  V30 5653 H 523.382 -1.86595 4.4756 0
M  V30 5654 N 524.725 -1.39134 -0.740242 0
M  V30 5655 C 526.141 -1.20623 -1.0451 0
M  V30 5656 C 526.341 -0.0641651 -2.01398 0
M  V30 5657 O 525.397 0.585843 -2.4561 0
M  V30 5658 C 526.71 -2.53815 -1.6124 0
M  V30 5659 C 528.258 -2.60615 -1.73346 0
M  V30 5660 C 528.733 -3.94015 -2.33486 0
M  V30 5661 N 530.224 -3.95627 -2.40902 0
M  V30 5662 C 530.959 -4.95616 -2.88361 0
M  V30 5663 N 530.455 -6.06003 -3.35756 0
M  V30 5664 N 532.248 -4.82998 -2.87523 0
M  V30 5665 H 524.399 -2.12176 -0.0975576 0
M  V30 5666 H 526.662 -0.942066 -0.105904 0
M  V30 5667 H 526.368 -3.37911 -0.975144 0
M  V30 5668 H 526.242 -2.73162 -2.6012 0
M  V30 5669 H 528.629 -1.76906 -2.36195 0
M  V30 5670 H 528.71 -2.45123 -0.731336 0
M  V30 5671 H 528.354 -4.78153 -1.71267 0
M  V30 5672 H 528.284 -4.06825 -3.34366 0
M  V30 5673 H 530.775 -3.15903 -2.07398 0
M  V30 5674 H 531.088 -6.78215 -3.70464 0
M  V30 5675 H 529.433 -6.09604 -3.33778 0
M  V30 5676 H 532.624 -3.95866 -2.49816 0
M  V30 5677 H 532.797 -5.61072 -3.24196 0
M  V30 5678 N 526.204 0.969867 -1.24223 0
M  V30 5679 C 527.134 2.08191 -1.05729 0
M  V30 5680 C 528.115 1.70075 0.0290765 0
M  V30 5681 O 529.3 1.93712 -0.137583 0
M  V30 5682 C 526.43 3.40991 -0.658995 0
M  V30 5683 C 525.384 3.93054 -1.69389 0
M  V30 5684 C 524.71 5.22171 -1.15072 0
M  V30 5685 C 526.01 4.21137 -3.08935 0
M  V30 5686 H 527.704 2.23921 -1.98746 0
M  V30 5687 H 525.25 1.07602 -0.956967 0
M  V30 5688 H 527.203 4.18221 -0.51662 0
M  V30 5689 H 525.927 3.25155 0.30686 0
M  V30 5690 H 524.586 3.17977 -1.82444 0
M  V30 5691 H 524.234 5.02694 -0.175539 0
M  V30 5692 H 523.934 5.57973 -1.84229 0
M  V30 5693 H 525.458 6.02013 -1.02042 0
M  V30 5694 H 526.872 4.8908 -2.99121 0
M  V30 5695 H 525.269 4.68163 -3.75425 0
M  V30 5696 H 526.339 3.27996 -3.57137 0
M  V30 5697 N 527.682 1.05563 1.17022 0
M  V30 5698 C 528.614 0.617888 2.20714 0
M  V30 5699 C 529.627 -0.320303 1.59618 0
M  V30 5700 O 530.816 -0.112449 1.78145 0
M  V30 5701 C 527.916 -0.115333 3.38704 0
M  V30 5702 C 527.089 0.834493 4.29366 0
M  V30 5703 C 526.148 0.141855 5.26009 0
M  V30 5704 O 525.174 0.777151 5.6387 0
M  V30 5705 N 526.376 -1.11934 5.69606 0
M  V30 5706 H 529.141 1.50981 2.58892 0
M  V30 5707 H 526.702 0.938008 1.31958 0
M  V30 5708 H 528.694 -0.588918 4.00392 0
M  V30 5709 H 527.264 -0.908967 2.99093 0
M  V30 5710 H 526.484 1.48762 3.65053 0
M  V30 5711 H 527.772 1.4791 4.86827 0
M  V30 5712 H 527.17 -1.65574 5.40927 0
M  V30 5713 H 525.727 -1.53692 6.33421 0
M  V30 5714 N 529.16 -1.33526 0.837174 0
M  V30 5715 C 530.09 -2.31764 0.284206 0
M  V30 5716 C 531.071 -1.58896 -0.607142 0
M  V30 5717 O 532.256 -1.86798 -0.531047 0
M  V30 5718 C 529.386 -3.43029 -0.542962 0
M  V30 5719 C 528.34 -4.27255 0.252451 0
M  V30 5720 C 527.666 -5.3012 -0.69836 0
M  V30 5721 C 528.966 -5.01229 1.46858 0
M  V30 5722 H 530.66 -2.78262 1.10502 0
M  V30 5723 H 528.206 -1.3378 0.532812 0
M  V30 5724 H 530.159 -4.1078 -0.940096 0
M  V30 5725 H 528.883 -2.95216 -1.39697 0
M  V30 5726 H 527.542 -3.61127 0.631124 0
M  V30 5727 H 527.19 -4.78564 -1.54872 0
M  V30 5728 H 526.89 -5.87353 -0.170274 0
M  V30 5729 H 528.414 -6.00737 -1.09305 0
M  V30 5730 H 529.828 -5.61756 1.14469 0
M  V30 5731 H 528.225 -5.68104 1.93333 0
M  V30 5732 H 529.295 -4.301 2.23924 0
M  V30 5733 N 530.638 -0.59345 -1.46 0
M  V30 5734 C 531.601 0.123538 -2.28867 0
M  V30 5735 C 532.601 0.808628 -1.38989 0
M  V30 5736 O 533.791 0.658945 -1.61256 0
M  V30 5737 C 530.923 1.1847 -3.19653 0
M  V30 5738 H 532.116 -0.604843 -2.93737 0
M  V30 5739 H 529.669 -0.351875 -1.52288 0
M  V30 5740 H 530.404 1.94431 -2.59552 0
M  V30 5741 H 530.189 0.69783 -3.8584 0
M  V30 5742 H 531.679 1.68726 -3.81997 0
M  V30 5743 N 532.116 1.54067 -0.331816 0
M  V30 5744 C 533.064 2.26105 0.54582 0
M  V30 5745 C 534.058 1.27816 1.11173 0
M  V30 5746 O 535.264 1.45565 1.05882 0
M  V30 5747 H 531.639 0.726363 0.194683 0
M  V30 5748 H 533.61 2.98282 -0.083931 0
M  V30 5749 C 532.359 3.03814 1.69092 0
M  V30 5750 H 531.682 3.79269 1.26473 0
M  V30 5751 H 533.122 3.57453 2.28043 0
M  V30 5752 C 531.581 2.12606 2.61343 0
M  V30 5753 O 532.111 1.71437 3.6328 0
M  V30 5754 N 530.317 1.77925 2.29763 0
M  V30 5755 H 529.864 2.11602 1.46909 0
M  V30 5756 H 529.822 1.1718 2.91747 0
M  V30 5757 N 533.594 0.0601682 1.57485 0
M  V30 5758 C 534.541 -0.91112 2.12055 0
M  V30 5759 C 535.511 -1.30298 1.03013 0
M  V30 5760 O 536.696 -1.39087 1.30612 0
M  V30 5761 C 533.836 -2.1775 2.67729 0
M  V30 5762 C 532.949 -1.83933 3.90887 0
M  V30 5763 C 532.084 -3.05096 4.34845 0
M  V30 5764 C 531.123 -2.67241 5.5068 0
M  V30 5765 N 530.26 -3.81127 5.8965 0
M  V30 5766 H 535.1 -0.43888 2.9475 0
M  V30 5767 H 532.637 -0.204995 1.45665 0
M  V30 5768 H 534.595 -2.91866 2.98111 0
M  V30 5769 H 533.225 -2.62535 1.87816 0
M  V30 5770 H 532.277 -0.999287 3.6704 0
M  V30 5771 H 533.589 -1.52074 4.75052 0
M  V30 5772 H 532.743 -3.87502 4.66827 0
M  V30 5773 H 531.482 -3.40139 3.49509 0
M  V30 5774 H 530.487 -1.83254 5.18361 0
M  V30 5775 H 531.712 -2.3338 6.37738 0
M  V30 5776 H 529.658 -4.15954 5.07266 0
M  V30 5777 H 529.575 -3.52997 6.68528 0
M  V30 5778 H 530.843 -4.64145 6.2625 0
M  V30 5779 N 535.072 -1.5615 -0.213296 0
M  V30 5780 C 535.982 -1.96265 -1.28519 0
M  V30 5781 C 536.998 -0.86765 -1.50824 0
M  V30 5782 O 538.174 -1.17191 -1.63793 0
M  V30 5783 C 535.239 -2.27836 -2.61327 0
M  V30 5784 C 534.3 -3.50949 -2.47252 0
M  V30 5785 C 533.533 -3.81004 -3.73727 0
M  V30 5786 O 533.756 -3.12612 -4.77106 0
M  V30 5787 O 532.69 -4.74477 -3.70344 0
M  V30 5788 H 536.516 -2.87631 -0.974795 0
M  V30 5789 H 534.101 -1.43467 -0.416832 0
M  V30 5790 H 535.983 -2.49299 -3.39747 0
M  V30 5791 H 534.658 -1.39643 -2.9203 0
M  V30 5792 H 533.565 -3.34754 -1.67004 0
M  V30 5793 H 534.898 -4.39551 -2.21486 0
M  V30 5794 N 536.55 0.480323 -1.50102 0
M  V30 5795 C 537.966 0.813295 -1.37323 0
M  V30 5796 C 538.166 1.97027 -0.422206 0
M  V30 5797 O 537.222 2.5212 0.138563 0
M  V30 5798 C 538.535 1.13404 -2.78496 0
M  V30 5799 C 540.083 1.24104 -2.87345 0
M  V30 5800 C 540.558 1.59497 -4.29331 0
M  V30 5801 N 542.049 1.66507 -4.32238 0
M  V30 5802 C 542.784 1.95378 -5.39087 0
M  V30 5803 N 542.28 2.22333 -6.56155 0
M  V30 5804 N 544.073 1.96803 -5.26522 0
M  V30 5805 H 536.224 -0.282291 -2.10516 0
M  V30 5806 H 538.487 -0.063752 -0.945854 0
M  V30 5807 H 538.193 0.357064 -3.49883 0
M  V30 5808 H 538.067 2.07251 -3.15162 0
M  V30 5809 H 540.454 2.00871 -2.16183 0
M  V30 5810 H 540.535 0.282593 -2.54234 0
M  V30 5811 H 540.179 0.832736 -5.01027 0
M  V30 5812 H 540.109 2.56477 -4.59921 0
M  V30 5813 H 542.6 1.47753 -3.47818 0
M  V30 5814 H 542.913 2.43611 -7.33399 0
M  V30 5815 H 541.258 2.19745 -6.59346 0
M  V30 5816 H 544.449 1.75235 -4.34062 0
M  V30 5817 H 544.622 2.18969 -6.09883 0
M  V30 5818 N 538.028 1.39524 0.732853 0
M  V30 5819 C 539.253 1.40329 1.52717 0
M  V30 5820 C 539.678 0.000286574 1.881 0
M  V30 5821 O 539.036 -0.987262 1.52062 0
M  V30 5822 C 539.084 2.28464 2.78992 0
M  V30 5823 O 538.188 1.716 3.75003 0
M  V30 5824 H 537.529 0.47778 0.461109 0
M  V30 5825 H 540.059 1.83546 0.903996 0
M  V30 5826 H 540.069 2.43051 3.27705 0
M  V30 5827 H 538.744 3.30425 2.52572 0
M  V30 5828 H 537.321 1.66267 3.33781 0
M  V30 5829 N 539.506 -0.963266 1.24736 0
M  V30 5830 C 540.416 -2.09246 1.06082 0
M  V30 5831 C 541.432 -1.74 0.000363101 0
M  V30 5832 O 542.608 -2.0041 0.199479 0
M  V30 5833 C 539.673 -3.40115 0.672498 0
M  V30 5834 C 538.734 -3.89282 1.80993 0
M  V30 5835 C 537.967 -5.13905 1.44004 0
M  V30 5836 O 538.19 -5.69434 0.331835 0
M  V30 5837 O 537.124 -5.57566 2.26723 0
M  V30 5838 H 540.95 -2.27881 2.00759 0
M  V30 5839 H 538.535 -1.07649 1.03595 0
M  V30 5840 H 540.417 -4.18797 0.467668 0
M  V30 5841 H 539.092 -3.22771 -0.245102 0
M  V30 5842 H 537.999 -3.11642 2.06955 0
M  V30 5843 H 539.332 -4.1111 2.70646 0
M  V30 5844 N 540.985 -1.06182 -1.16461 0
M  V30 5845 C 541.948 -0.675723 -2.19013 0
M  V30 5846 C 542.948 0.277963 -1.58379 0
M  V30 5847 O 544.138 0.0604962 -1.74095 0
M  V30 5848 C 541.27 0.00591459 -3.40899 0
M  V30 5849 H 542.463 -1.58353 -2.54685 0
M  V30 5850 H 540.016 -0.856908 -1.30716 0
M  V30 5851 H 540.751 0.92652 -3.10783 0
M  V30 5852 H 540.536 -0.67984 -3.86161 0
M  V30 5853 H 542.026 0.26181 -4.16778 0
M  V30 5854 N 542.463 1.3308 -0.844243 0
M  V30 5855 C 543.393 2.3161 -0.296493 0
M  V30 5856 C 544.374 1.59215 0.598707 0
M  V30 5857 O 545.559 1.87077 0.521134 0
M  V30 5858 C 542.689 3.43313 0.524762 0
M  V30 5859 C 541.643 4.27115 -0.275106 0
M  V30 5860 C 540.969 5.30483 0.670236 0
M  V30 5861 C 542.269 5.00443 -1.49514 0
M  V30 5862 H 543.963 2.77672 -1.11976 0
M  V30 5863 H 541.509 1.33496 -0.539899 0
M  V30 5864 H 543.462 4.11273 0.918298 0
M  V30 5865 H 542.186 2.95952 1.3813 0
M  V30 5866 H 540.845 3.60787 -0.650267 0
M  V30 5867 H 540.493 4.79379 1.52332 0
M  V30 5868 H 540.193 5.87435 0.139123 0
M  V30 5869 H 541.717 6.01308 1.06117 0
M  V30 5870 H 543.131 5.61141 -1.17447 0
M  V30 5871 H 541.528 5.67071 -1.96343 0
M  V30 5872 H 542.598 4.28906 -2.26202 0
M  V30 5873 N 543.941 0.601185 1.45683 0
M  V30 5874 C 545.357 0.264315 1.57396 0
M  V30 5875 C 545.557 -1.23324 1.59353 0
M  V30 5876 O 544.613 -2.01594 1.52039 0
M  V30 5877 C 545.926 0.929839 2.85962 0
M  V30 5878 C 547.474 0.905156 2.99626 0
M  V30 5879 C 547.949 1.55057 4.30954 0
M  V30 5880 N 549.44 1.51576 4.37697 0
M  V30 5881 C 550.175 1.98436 5.37969 0
M  V30 5882 N 549.671 2.53352 6.44813 0
M  V30 5883 N 551.464 1.89242 5.29286 0
M  V30 5884 H 543.615 1.57363 1.42656 0
M  V30 5885 H 545.878 0.658831 0.681649 0
M  V30 5886 H 545.584 1.98404 2.90394 0
M  V30 5887 H 545.458 0.449224 3.74515 0
M  V30 5888 H 547.845 -0.14048 2.94765 0
M  V30 5889 H 547.926 1.42397 2.12501 0
M  V30 5890 H 547.57 2.5955 4.36573 0
M  V30 5891 H 547.5 1.00682 5.16886 0
M  V30 5892 H 549.991 1.11452 3.61091 0
M  V30 5893 H 550.304 2.86918 7.17564 0
M  V30 5894 H 548.649 2.57388 6.45582 0
M  V30 5895 H 551.84 1.46083 4.44722 0
M  V30 5896 H 552.013 2.26075 6.07284 0
M  V30 5897 N 545.419 -1.53889 0.339982 0
M  V30 5898 C 546.835 -1.59595 -0.0120752 0
M  V30 5899 C 547.035 -1.35605 -1.49042 0
M  V30 5900 O 546.091 -1.14856 -2.24865 0
M  V30 5901 C 547.404 -2.9774 0.420898 0
M  V30 5902 C 548.952 -3.1077 0.37294 0
M  V30 5903 C 549.427 -4.51286 0.781327 0
M  V30 5904 N 550.918 -4.57325 0.735374 0
M  V30 5905 C 551.653 -5.64194 1.02336 0
M  V30 5906 N 551.149 -6.7893 1.37933 0
M  V30 5907 N 552.942 -5.54051 0.947838 0
M  V30 5908 H 545.093 -1.67738 1.30299 0
M  V30 5909 H 547.356 -0.785385 0.530918 0
M  V30 5910 H 547.062 -3.20349 1.45152 0
M  V30 5911 H 546.936 -3.76639 -0.205721 0
M  V30 5912 H 549.323 -2.87886 -0.648505 0
M  V30 5913 H 549.404 -2.33939 1.03472 0
M  V30 5914 H 549.048 -4.74905 1.80077 0
M  V30 5915 H 548.978 -5.26511 0.0970679 0
M  V30 5916 H 551.469 -3.74931 0.472773 0
M  V30 5917 H 551.782 -7.56392 1.58402 0
M  V30 5918 H 550.127 -6.80386 1.41774 0
M  V30 5919 H 553.318 -4.63293 0.669115 0
M  V30 5920 H 553.491 -6.37246 1.17563 0
M  V30 5921 N 546.897 -0.0685191 -1.57451 0
M  V30 5922 C 547.829 0.929372 -2.09512 0
M  V30 5923 C 548.842 1.26354 -1.02657 0
M  V30 5924 O 550.031 1.2213 -1.30179 0
M  V30 5925 C 547.131 2.24612 -2.53777 0
M  V30 5926 C 546.304 2.09128 -3.84167 0
M  V30 5927 C 545.363 3.24079 -4.14559 0
M  V30 5928 O 544.389 2.99215 -4.8421 0
M  V30 5929 N 545.591 4.49077 -3.67845 0
M  V30 5930 H 548.356 0.484901 -2.95751 0
M  V30 5931 H 545.917 0.11729 -1.61475 0
M  V30 5932 H 547.909 3.00412 -2.71172 0
M  V30 5933 H 546.479 2.60569 -1.72692 0
M  V30 5934 H 545.699 1.17815 -3.76182 0
M  V30 5935 H 546.987 1.9603 -4.69521 0
M  V30 5936 H 546.385 4.72165 -3.11571 0
M  V30 5937 H 544.942 5.21915 -3.90446 0
M  V30 5938 N 548.375 1.56261 0.205012 0
M  V30 5939 C 549.307 1.90266 1.27795 0
M  V30 5940 C 550.32 0.792397 1.42214 0
M  V30 5941 O 551.509 1.07077 1.42817 0
M  V30 5942 C 548.609 2.11074 2.65143 0
M  V30 5943 C 547.782 3.42176 2.7246 0
M  V30 5944 C 546.841 3.52216 3.90936 0
M  V30 5945 O 545.867 4.25119 3.78501 0
M  V30 5946 N 547.069 2.84573 5.05963 0
M  V30 5947 H 549.834 2.82896 0.989434 0
M  V30 5948 H 547.395 1.57008 0.394981 0
M  V30 5949 H 549.387 2.15089 3.4281 0
M  V30 5950 H 547.957 1.2499 2.86524 0
M  V30 5951 H 547.177 3.50116 1.81142 0
M  V30 5952 H 548.465 4.28509 2.74331 0
M  V30 5953 H 547.863 2.25152 5.18963 0
M  V30 5954 H 546.42 2.94228 5.81613 0
M  V30 5955 N 549.853 -0.472356 1.50355 0
M  V30 5956 C 550.783 -1.57859 1.72055 0
M  V30 5957 C 551.764 -1.60283 0.569505 0
M  V30 5958 O 552.949 -1.7657 0.808503 0
M  V30 5959 C 550.079 -2.96191 1.81351 0
M  V30 5960 C 549.033 -3.08633 2.96529 0
M  V30 5961 C 548.359 -4.486 2.90968 0
M  V30 5962 C 549.659 -2.85969 4.37057 0
M  V30 5963 H 551.353 -1.39953 2.64676 0
M  V30 5964 H 548.899 -0.671846 1.27367 0
M  V30 5965 H 550.852 -3.73507 1.95117 0
M  V30 5966 H 549.576 -3.15251 0.853502 0
M  V30 5967 H 548.235 -2.33749 2.82413 0
M  V30 5968 H 547.883 -4.64577 1.92815 0
M  V30 5969 H 547.583 -4.57861 3.68289 0
M  V30 5970 H 549.107 -5.27938 3.0678 0
M  V30 5971 H 550.521 -3.53036 4.51706 0
M  V30 5972 H 548.918 -3.06677 5.15819 0
M  V30 5973 H 549.988 -1.81838 4.49514 0
M  V30 5974 N 551.331 -1.39911 -0.725443 0
M  V30 5975 C 552.241 -1.41688 -1.8698 0
M  V30 5976 C 553.257 -0.310579 -1.71206 0
M  V30 5977 O 554.433 -0.55359 -1.93642 0
M  V30 5978 C 551.498 -1.26811 -3.22676 0
M  V30 5979 C 550.559 -2.47497 -3.50776 0
M  V30 5980 C 549.792 -2.3332 -4.79997 0
M  V30 5981 O 550.015 -1.34175 -5.54394 0
M  V30 5982 O 548.949 -3.22498 -5.08211 0
M  V30 5983 H 552.775 -2.38171 -1.88436 0
M  V30 5984 H 550.36 -1.21128 -0.874548 0
M  V30 5985 H 552.242 -1.20684 -4.03749 0
M  V30 5986 H 550.917 -0.334289 -3.21969 0
M  V30 5987 H 549.824 -2.59201 -2.69751 0
M  V30 5988 H 551.157 -3.39606 -3.5627 0
M  V30 5989 N 552.809 0.956637 -1.25245 0
M  V30 5990 C 553.741 2.05628 -1.01242 0
M  V30 5991 C 554.754 1.62785 0.0219579 0
M  V30 5992 O 555.943 1.77184 -0.216365 0
M  V30 5993 C 553.043 3.35069 -0.508161 0
M  V30 5994 C 552.216 4.06761 -1.60823 0
M  V30 5995 C 551.275 5.14473 -1.1047 0
M  V30 5996 O 550.301 5.40033 -1.79868 0
M  V30 5997 N 551.503 5.80474 0.0550773 0
M  V30 5998 H 554.268 2.2679 -1.95925 0
M  V30 5999 H 551.829 1.12505 -1.16423 0
M  V30 6000 H 553.821 4.044 -0.155819 0
M  V30 6001 H 552.391 3.10694 0.344683 0
M  V30 6002 H 551.611 3.31555 -2.13224 0
M  V30 6003 H 552.899 4.51418 -2.34733 0
M  V30 6004 H 552.297 5.62125 0.635004 0
M  V30 6005 H 550.854 6.50868 0.348469 0
M  V30 6006 N 554.287 1.06798 1.15896 0
M  V30 6007 C 555.219 0.641263 2.20046 0
M  V30 6008 C 556.232 -0.303355 1.59949 0
M  V30 6009 O 557.421 -0.0935478 1.78255 0
M  V30 6010 C 554.521 -0.0794029 3.38807 0
M  V30 6011 C 553.694 0.879986 4.28457 0
M  V30 6012 C 552.753 0.197638 5.25829 0
M  V30 6013 O 551.779 0.836913 5.63014 0
M  V30 6014 N 552.981 -1.05886 5.70761 0
M  V30 6015 H 555.746 1.53718 2.57276 0
M  V30 6016 H 553.307 0.951951 1.30956 0
M  V30 6017 H 555.299 -0.546418 4.00994 0
M  V30 6018 H 553.869 -0.877193 3.0004 0
M  V30 6019 H 553.089 1.52625 3.63454 0
M  V30 6020 H 554.377 1.53065 4.8523 0
M  V30 6021 H 553.775 -1.59828 5.42652 0
M  V30 6022 H 552.332 -1.46965 6.35015 0
M  V30 6023 N 555.766 -1.3263 0.851289 0
M  V30 6024 C 556.698 -2.27824 0.250757 0
M  V30 6025 C 557.711 -1.52285 -0.575598 0
M  V30 6026 O 558.9 -1.73946 -0.400638 0
M  V30 6027 C 556 -3.3232 -0.664571 0
M  V30 6028 C 555.173 -4.37221 0.125187 0
M  V30 6029 C 554.232 -5.21314 -0.715385 0
M  V30 6030 O 553.258 -5.69002 -0.150111 0
M  V30 6031 N 554.46 -5.43823 -2.03069 0
M  V30 6032 H 557.225 -2.79997 1.06873 0
M  V30 6033 H 554.786 -1.45455 0.710943 0
M  V30 6034 H 556.778 -3.85486 -1.23216 0
M  V30 6035 H 555.348 -2.80331 -1.38323 0
M  V30 6036 H 554.568 -3.84384 0.874199 0
M  V30 6037 H 555.856 -5.04399 0.667774 0
M  V30 6038 H 555.254 -5.06803 -2.51332 0
M  V30 6039 H 553.811 -5.99998 -2.54648 0
M  V30 6040 N 557.244 -0.608902 -1.45362 0
M  V30 6041 C 558.66 -0.272659 -1.57254 0
M  V30 6042 C 558.86 1.22477 -1.60005 0
M  V30 6043 O 557.916 2.00785 -1.53106 0
M  V30 6044 C 559.229 -0.944991 -2.85465 0
M  V30 6045 C 560.777 -0.921033 -2.99142 0
M  V30 6046 C 561.252 -1.5734 -4.30126 0
M  V30 6047 N 562.743 -1.53895 -4.36887 0
M  V30 6048 C 563.478 -2.01286 -5.36909 0
M  V30 6049 N 562.974 -2.56768 -6.43461 0
M  V30 6050 N 564.767 -1.92046 -5.28275 0
M  V30 6051 H 556.918 -1.58117 -1.4182 0
M  V30 6052 H 559.181 -0.662437 -0.678146 0
M  V30 6053 H 558.887 -1.99941 -2.89338 0
M  V30 6054 H 558.761 -0.469079 -3.74272 0
M  V30 6055 H 561.148 0.124846 -2.94836 0
M  V30 6056 H 561.229 -1.43522 -2.11743 0
M  V30 6057 H 560.873 -2.61862 -4.35191 0
M  V30 6058 H 560.803 -1.03422 -5.16344 0
M  V30 6059 H 563.294 -1.13366 -3.60495 0
M  V30 6060 H 563.607 -2.9072 -7.16032 0
M  V30 6061 H 561.952 -2.60808 -6.44208 0
M  V30 6062 H 565.143 -1.48439 -4.43941 0
M  V30 6063 H 565.316 -2.29293 -6.06077 0
M  V30 6064 N 558.722 1.53707 -0.348139 0
M  V30 6065 C 559.632 2.28881 0.514857 0
M  V30 6066 C 560.648 1.34168 1.10793 0
M  V30 6067 O 561.824 1.6721 1.12262 0
M  V30 6068 C 558.889 3.05042 1.64774 0
M  V30 6069 C 557.95 4.15389 1.08398 0
M  V30 6070 C 557.183 4.87909 2.16287 0
M  V30 6071 O 557.406 4.60137 3.3709 0
M  V30 6072 O 556.34 5.74254 1.80323 0
M  V30 6073 H 560.166 3.03547 -0.0963699 0
M  V30 6074 H 557.751 1.48972 -0.113043 0
M  V30 6075 H 559.633 3.52656 2.30677 0
M  V30 6076 H 558.308 2.33228 2.24469 0
M  V30 6077 H 557.215 3.72068 0.389341 0
M  V30 6078 H 558.548 4.89318 0.531829 0
M  V30 6079 N 560.2 0.0768682 1.57412 0
M  V30 6080 C 561.148 -0.906229 2.1422 0
M  V30 6081 C 562.142 -1.30477 1.08037 0
M  V30 6082 O 563.348 -1.28143 1.2641 0
M  V30 6083 H 559.723 -0.310207 0.685037 0
M  V30 6084 H 561.694 -0.402228 2.95677 0
M  V30 6085 C 560.443 -2.16245 2.72274 0
M  V30 6086 H 559.766 -1.86463 3.53655 0
M  V30 6087 H 561.206 -2.83134 3.15613 0
M  V30 6088 C 559.665 -2.92437 1.67279 0
M  V30 6089 O 560.195 -3.86322 1.10081 0
M  V30 6090 N 558.401 -2.55637 1.38195 0
M  V30 6091 H 557.948 -1.79363 1.84897 0
M  V30 6092 H 557.906 -3.06919 0.681787 0
M  V30 6093 N 561.678 -1.56367 -0.196722 0
M  V30 6094 C 562.588 -1.97617 -1.2643 0
M  V30 6095 C 563.604 -0.883598 -1.49895 0
M  V30 6096 O 564.78 -1.18921 -1.62541 0
M  V30 6097 C 561.845 -2.30595 -2.58895 0
M  V30 6098 C 560.906 -3.53551 -2.43516 0
M  V30 6099 C 560.139 -3.84946 -3.69665 0
M  V30 6100 O 560.362 -3.17655 -4.73763 0
M  V30 6101 O 559.296 -4.78379 -3.65291 0
M  V30 6102 H 563.122 -2.88648 -0.944233 0
M  V30 6103 H 560.707 -1.43901 -0.401592 0
M  V30 6104 H 562.589 -2.52889 -3.37083 0
M  V30 6105 H 561.264 -1.42732 -2.90533 0
M  V30 6106 H 560.171 -3.36507 -1.63445 0
M  V30 6107 H 561.504 -4.41875 -2.16812 0
M  V30 6108 N 563.156 0.464375 -1.50603 0
M  V30 6109 C 564.066 1.58723 -1.72754 0
M  V30 6110 C 565.082 1.62925 -0.610844 0
M  V30 6111 O 566.258 1.8067 -0.889963 0
M  V30 6112 C 563.323 2.94897 -1.82309 0
M  V30 6113 C 562.384 3.0103 -3.06071 0
M  V30 6114 C 561.617 4.30708 -3.1516 0
M  V30 6115 O 561.84 5.2159 -2.30868 0
M  V30 6116 O 560.774 4.42571 -4.0794 0
M  V30 6117 H 564.6 1.42954 -2.67951 0
M  V30 6118 H 562.185 0.644579 -1.3478 0
M  V30 6119 H 564.067 3.75764 -1.90735 0
M  V30 6120 H 562.742 3.10851 -0.902967 0
M  V30 6121 H 561.649 2.19217 -3.03142 0
M  V30 6122 H 562.982 2.90014 -3.97684 0
M  V30 6123 N 564.634 1.40294 0.718013 0
M  V30 6124 C 565.584 1.36847 1.82365 0
M  V30 6125 C 566.568 0.246424 1.59002 0
M  V30 6126 O 567.76 0.485336 1.70216 0
M  V30 6127 C 564.889 1.23105 3.20469 0
M  V30 6128 C 563.975 2.4008 3.49603 0
M  V30 6129 N 564.366 3.65562 3.49568 0
M  V30 6130 C 562.664 2.33407 3.80049 0
M  V30 6131 C 563.365 4.43015 3.76978 0
M  V30 6132 N 562.341 3.72823 3.95606 0
M  V30 6133 H 566.143 2.31811 1.80668 0
M  V30 6134 H 563.657 1.34031 0.91703 0
M  V30 6135 H 565.654 1.18718 3.9964 0
M  V30 6136 H 564.314 0.291056 3.23393 0
M  V30 6137 H 565.325 3.98756 3.30476 0
M  V30 6138 H 562.002 1.47762 3.90478 0
M  V30 6139 H 563.392 5.51859 3.83276 0
M  V30 6140 N 566.112 -0.949982 1.2575 0
M  V30 6141 C 567.059 -2.04738 1.06541 0
M  V30 6142 C 568.029 -1.66078 -0.0268818 0
M  V30 6143 O 569.214 -1.90348 0.131196 0
M  V30 6144 C 566.354 -3.38027 0.695127 0
M  V30 6145 C 565.467 -3.89776 1.86276 0
M  V30 6146 C 564.602 -5.11411 1.4364 0
M  V30 6147 C 563.641 -5.554 2.57287 0
M  V30 6148 N 562.778 -6.68244 2.15395 0
M  V30 6149 H 567.618 -2.20502 2.00457 0
M  V30 6150 H 565.155 -1.0805 0.998178 0
M  V30 6151 H 567.113 -4.14641 0.461375 0
M  V30 6152 H 565.743 -3.22135 -0.207046 0
M  V30 6153 H 564.795 -3.0964 2.20969 0
M  V30 6154 H 566.107 -4.18368 2.71606 0
M  V30 6155 H 565.261 -5.95457 1.16257 0
M  V30 6156 H 564 -4.84545 0.553879 0
M  V30 6157 H 563.005 -4.69916 2.85409 0
M  V30 6158 H 564.23 -5.84272 3.46125 0
M  V30 6159 H 562.176 -6.43078 1.29565 0
M  V30 6160 H 562.093 -6.96377 2.94272 0
M  V30 6161 H 563.361 -7.55687 1.91201 0
M  V30 6162 N 567.59 -1.07411 -1.15328 0
M  V30 6163 C 569.006 -0.799759 -1.38116 0
M  V30 6164 C 569.206 0.59572 -1.92493 0
M  V30 6165 O 568.262 1.35433 -2.13106 0
M  V30 6166 C 569.575 -1.87407 -2.35158 0
M  V30 6167 C 571.123 -1.89889 -2.48819 0
M  V30 6168 C 571.598 -2.96406 -3.49153 0
M  V30 6169 N 573.089 -2.95512 -3.56689 0
M  V30 6170 C 573.824 -3.74575 -4.34144 0
M  V30 6171 N 573.32 -4.63488 -5.14928 0
M  V30 6172 N 575.113 -3.62919 -4.29239 0
M  V30 6173 H 567.264 -1.97411 -0.78374 0
M  V30 6174 H 569.527 -0.856113 -0.407154 0
M  V30 6175 H 569.233 -2.8768 -2.0232 0
M  V30 6176 H 569.107 -1.73471 -3.34944 0
M  V30 6177 H 571.494 -0.902677 -2.80955 0
M  V30 6178 H 571.575 -2.07904 -1.49029 0
M  V30 6179 H 571.219 -3.96227 -3.17752 0
M  V30 6180 H 571.149 -2.75638 -4.48699 0
M  V30 6181 H 573.64 -2.31061 -2.99031 0
M  V30 6182 H 573.953 -5.20445 -5.71276 0
M  V30 6183 H 572.298 -4.67537 -5.14232 0
M  V30 6184 H 575.489 -2.92833 -3.65194 0
M  V30 6185 H 575.662 -4.24777 -4.89355 0
M  V30 6186 N 569.068 1.32177 -0.85831 0
M  V30 6187 C 570 2.27688 -0.262835 0
M  V30 6188 C 571.013 1.52588 0.567513 0
M  V30 6189 O 572.202 1.74156 0.391407 0
M  V30 6190 C 569.302 3.32668 0.646937 0
M  V30 6191 C 568.475 4.37148 -0.148372 0
M  V30 6192 C 567.534 5.21686 0.687728 0
M  V30 6193 O 566.56 5.69074 0.119934 0
M  V30 6194 N 567.762 5.44892 2.00182 0
M  V30 6195 H 570.527 2.79426 -1.08356 0
M  V30 6196 H 568.088 1.45076 -0.718647 0
M  V30 6197 H 570.08 3.86134 1.2117 0
M  V30 6198 H 568.65 2.81061 1.36834 0
M  V30 6199 H 567.87 3.83915 -0.894572 0
M  V30 6200 H 569.158 5.04038 -0.694514 0
M  V30 6201 H 568.556 5.08128 2.4864 0
M  V30 6202 H 567.113 6.0134 2.51463 0
M  V30 6203 N 570.547 0.616602 1.45037 0
M  V30 6204 C 571.477 -0.0840787 2.33349 0
M  V30 6205 C 572.458 -0.849641 1.4736 0
M  V30 6206 O 573.643 -0.818407 1.76113 0
M  V30 6207 C 570.773 -1.07604 3.3021 0
M  V30 6208 C 569.727 -0.423096 4.25904 0
M  V30 6209 C 569.053 -1.52394 5.12523 0
M  V30 6210 C 570.353 0.661457 5.18095 0
M  V30 6211 H 572.047 0.653333 2.92185 0
M  V30 6212 H 569.593 0.315634 1.40498 0
M  V30 6213 H 571.546 -1.57485 3.90866 0
M  V30 6214 H 570.27 -1.84416 2.69552 0
M  V30 6215 H 568.929 0.05493 3.66559 0
M  V30 6216 H 568.577 -2.28257 4.48227 0
M  V30 6217 H 568.277 -1.09251 5.77354 0
M  V30 6218 H 569.801 -2.02485 5.76049 0
M  V30 6219 H 571.215 0.246353 5.7277 0
M  V30 6220 H 569.612 1.01517 5.91451 0
M  V30 6221 H 570.682 1.53446 4.59981 0
M  V30 6222 N 572.025 -1.5352 0.356285 0
M  V30 6223 C 572.955 -2.28372 -0.486661 0
M  V30 6224 C 573.936 -1.30432 -1.09185 0
M  V30 6225 O 575.121 -1.59291 -1.11085 0
M  V30 6226 C 572.251 -3.06604 -1.63129 0
M  V30 6227 C 571.205 -4.12154 -1.15381 0
M  V30 6228 C 570.531 -4.78415 -2.38796 0
M  V30 6229 C 571.831 -5.21724 -0.245179 0
M  V30 6230 H 573.525 -2.99083 0.137797 0
M  V30 6231 H 571.071 -1.43841 0.0677134 0
M  V30 6232 H 573.024 -3.57712 -2.22755 0
M  V30 6233 H 571.748 -2.33568 -2.28284 0
M  V30 6234 H 570.407 -3.61978 -0.580294 0
M  V30 6235 H 570.055 -4.01959 -3.02387 0
M  V30 6236 H 569.755 -5.49734 -2.07524 0
M  V30 6237 H 571.279 -5.32313 -2.99125 0
M  V30 6238 H 572.693 -5.68391 -0.748646 0
M  V30 6239 H 571.09 -6.00095 -0.0237608 0
M  V30 6240 H 572.16 -4.79596 0.715229 0
M  V30 6241 N 573.503 -0.0852151 -1.57369 0
M  V30 6242 C 574.466 0.8627 -2.12344 0
M  V30 6243 C 575.466 1.21746 -1.05046 0
M  V30 6244 O 576.656 1.14852 -1.30976 0
M  V30 6245 C 573.788 2.1618 -2.63589 0
M  V30 6246 H 574.981 0.385511 -2.97412 0
M  V30 6247 H 572.534 0.163663 -1.55441 0
M  V30 6248 H 573.269 2.68406 -1.82013 0
M  V30 6249 H 573.054 1.91723 -3.4203 0
M  V30 6250 H 574.544 2.84011 -3.06149 0
M  V30 6251 N 574.981 1.5647 0.188427 0
M  V30 6252 C 575.891 1.98285 1.2538 0
M  V30 6253 C 576.907 0.891535 1.49424 0
M  V30 6254 O 578.083 1.19782 1.61908 0
M  V30 6255 C 575.148 2.31965 2.57669 0
M  V30 6256 C 574.209 3.54838 2.41638 0
M  V30 6257 C 573.442 3.86901 3.67618 0
M  V30 6258 O 573.665 3.20163 4.72072 0
M  V30 6259 O 572.599 4.80309 3.62749 0
M  V30 6260 H 576.425 2.89145 0.928912 0
M  V30 6261 H 574.01 1.44112 0.393955 0
M  V30 6262 H 575.892 2.54673 3.35737 0
M  V30 6263 H 574.567 1.44271 2.89771 0
M  V30 6264 H 573.474 3.37369 1.61658 0
M  V30 6265 H 574.807 4.43019 2.14465 0
M  V30 6266 N 576.459 -0.456382 1.50847 0
M  V30 6267 C 577.875 -0.791345 1.386 0
M  V30 6268 C 578.075 -1.9633 0.453498 0
M  V30 6269 O 577.131 -2.52308 -0.0984353 0
M  V30 6270 C 578.444 -1.08959 2.80265 0
M  V30 6271 C 579.992 -1.19517 2.89283 0
M  V30 6272 C 580.467 -1.52647 4.31814 0
M  V30 6273 N 581.958 -1.59609 4.34832 0
M  V30 6274 C 582.693 -1.86777 5.42127 0
M  V30 6275 N 582.189 -2.11866 6.59609 0
M  V30 6276 N 583.982 -1.88402 5.29586 0
M  V30 6277 H 576.133 0.315746 2.1004 0
M  V30 6278 H 578.396 0.0787916 0.94472 0
M  V30 6279 H 578.102 -0.301355 3.50407 0
M  V30 6280 H 577.976 -2.02211 3.18419 0
M  V30 6281 H 580.363 -1.97406 2.19351 0
M  V30 6282 H 580.444 -0.242111 2.54652 0
M  V30 6283 H 580.088 -0.752922 5.02288 0
M  V30 6284 H 580.018 -2.49127 4.63943 0
M  V30 6285 H 582.509 -1.42201 3.50125 0
M  V30 6286 H 582.822 -2.31912 7.37182 0
M  V30 6287 H 581.167 -2.09228 6.62758 0
M  V30 6288 H 584.358 -1.68307 4.36795 0
M  V30 6289 H 584.531 -2.09238 6.13289 0
M  V30 6290 N 577.937 -1.40673 -0.710563 0
M  V30 6291 C 578.869 -1.37256 -1.83558 0
M  V30 6292 C 579.882 -0.277133 -1.60424 0
M  V30 6293 O 581.071 -0.537831 -1.70205 0
M  V30 6294 C 578.171 -1.1144 -3.20054 0
M  V30 6295 C 577.344 -2.32734 -3.70342 0
M  V30 6296 C 576.403 -2.03002 -4.85465 0
M  V30 6297 O 575.429 -2.75912 -4.97857 0
M  V30 6298 N 576.631 -1.01105 -5.71627 0
M  V30 6299 H 579.396 -2.34215 -1.86985 0
M  V30 6300 H 576.957 -1.35091 -0.892301 0
M  V30 6301 H 578.949 -0.895265 -3.94673 0
M  V30 6302 H 577.519 -0.231307 -3.11743 0
M  V30 6303 H 576.739 -2.70446 -2.86798 0
M  V30 6304 H 578.027 -3.13584 -4.00678 0
M  V30 6305 H 577.425 -0.407303 -5.64232 0
M  V30 6306 H 575.982 -0.85182 -6.4621 0
M  V30 6307 N 579.415 0.9433 -1.26252 0
M  V30 6308 C 580.362 2.0417 -1.07625 0
M  V30 6309 C 581.332 1.6609 0.0180738 0
M  V30 6310 O 582.517 1.90276 -0.141289 0
M  V30 6311 C 579.657 3.37653 -0.713043 0
M  V30 6312 C 578.77 3.88783 -1.8834 0
M  V30 6313 C 577.905 5.10642 -1.4635 0
M  V30 6314 C 576.944 5.54028 -2.60229 0
M  V30 6315 N 576.081 6.67092 -2.18936 0
M  V30 6316 H 580.921 2.19436 -2.01623 0
M  V30 6317 H 578.458 1.07519 -1.00389 0
M  V30 6318 H 580.416 4.14391 -0.483358 0
M  V30 6319 H 579.046 3.22241 0.18996 0
M  V30 6320 H 578.098 3.08464 -2.22608 0
M  V30 6321 H 579.41 4.16922 -2.73821 0
M  V30 6322 H 578.564 5.94832 -1.19414 0
M  V30 6323 H 577.303 4.84244 -0.579568 0
M  V30 6324 H 576.308 4.68396 -2.87898 0
M  V30 6325 H 577.533 5.82429 -3.49219 0
M  V30 6326 H 575.479 6.42381 -1.32974 0
M  V30 6327 H 575.396 6.94806 -2.97961 0
M  V30 6328 H 576.664 7.54662 -1.95206 0
M  V30 6329 N 580.893 1.08022 1.14757 0
M  V30 6330 C 582.309 0.807072 1.3769 0
M  V30 6331 C 582.509 -0.585504 1.92806 0
M  V30 6332 O 581.565 -1.34301 2.13821 0
M  V30 6333 C 582.878 1.88651 2.34161 0
M  V30 6334 C 584.426 1.91206 2.47809 0
M  V30 6335 C 584.901 2.98253 3.47576 0
M  V30 6336 N 586.392 2.974 3.55117 0
M  V30 6337 C 587.127 3.76872 4.32152 0
M  V30 6338 N 586.623 4.66212 5.12463 0
M  V30 6339 N 588.416 3.6519 4.27309 0
M  V30 6340 H 580.567 1.97824 0.77326 0
M  V30 6341 H 582.83 0.85826 0.402608 0
M  V30 6342 H 582.536 2.88749 2.00791 0
M  V30 6343 H 582.41 1.75244 3.3402 0
M  V30 6344 H 584.797 0.917564 2.80472 0
M  V30 6345 H 584.878 2.08691 1.47925 0
M  V30 6346 H 584.522 3.97907 3.15646 0
M  V30 6347 H 584.452 2.78014 4.47231 0
M  V30 6348 H 586.943 2.32643 2.97801 0
M  V30 6349 H 587.256 5.23468 5.68508 0
M  V30 6350 H 585.601 4.70257 5.11745 0
M  V30 6351 H 588.792 2.94765 3.63636 0
M  V30 6352 H 588.965 4.27366 4.87095 0
M  V30 6353 N 582.371 -1.3172 0.865308 0
M  V30 6354 C 583.62 -1.96145 0.470098 0
M  V30 6355 C 583.933 -1.69182 -0.981674 0
M  V30 6356 O 585.139 -2.27431 -1.48281 0
M  V30 6357 C 583.595 -3.51129 0.789732 0
M  V30 6358 C 583.203 -3.86938 2.25795 0
M  V30 6359 C 584.947 -4.2197 0.462765 0
M  V30 6360 C 582.854 -5.35012 2.52024 0
M  V30 6361 H 581.784 -0.734105 0.172065 0
M  V30 6362 H 584.435 -1.49959 1.05757 0
M  V30 6363 H 582.817 -3.95781 0.131571 0
M  V30 6364 H 583.991 -3.5326 2.95879 0
M  V30 6365 H 582.306 -3.29149 2.55049 0
M  V30 6366 H 584.903 -5.30904 0.636019 0
M  V30 6367 H 585.246 -4.12005 -0.59645 0
M  V30 6368 H 585.779 -3.82936 1.07727 0
M  V30 6369 H 582.518 -5.50008 3.56611 0
M  V30 6370 H 582.038 -5.70058 1.8653 0
M  V30 6371 H 583.717 -6.0222 2.36515 0
M  V30 6372 N 583.85 -0.624285 -1.44708 0
M  V30 6373 C 584.76 0.0861083 -2.34442 0
M  V30 6374 C 585.776 0.84291 -1.5222 0
M  V30 6375 O 586.952 0.796723 -1.84971 0
M  V30 6376 C 584.017 1.05999 -3.30099 0
M  V30 6377 C 583.077 0.303316 -4.28227 0
M  V30 6378 C 582.311 1.23081 -5.19314 0
M  V30 6379 O 582.534 2.46929 -5.14181 0
M  V30 6380 O 581.468 0.71883 -5.97592 0
M  V30 6381 H 585.293 -0.651756 -2.96624 0
M  V30 6382 H 582.879 -0.384493 -1.44368 0
M  V30 6383 H 584.76 1.62046 -3.88997 0
M  V30 6384 H 583.436 1.77859 -2.70459 0
M  V30 6385 H 582.343 -0.300033 -3.72895 0
M  V30 6386 H 583.676 -0.375123 -4.90768 0
M  V30 6387 N 585.328 1.53329 -0.364422 0
M  V30 6388 C 586.238 2.29414 0.490552 0
M  V30 6389 C 587.254 1.35335 1.09363 0
M  V30 6390 O 588.43 1.68391 1.10483 0
M  V30 6391 C 585.495 3.06772 1.61529 0
M  V30 6392 C 584.556 4.16516 1.03986 0
M  V30 6393 C 583.789 4.90176 2.111 0
M  V30 6394 O 584.012 4.63687 3.32191 0
M  V30 6395 O 582.946 5.76134 1.74222 0
M  V30 6396 H 586.772 3.03428 -0.12856 0
M  V30 6397 H 584.357 1.48843 -0.128837 0
M  V30 6398 H 586.239 3.55082 2.26924 0
M  V30 6399 H 584.914 2.35596 2.21983 0
M  V30 6400 H 583.821 3.7246 0.349856 0
M  V30 6401 H 585.154 4.89855 0.4799 0
M  V30 6402 N 586.806 0.0935595 1.57322 0
M  V30 6403 C 587.738 -0.895923 2.10964 0
M  V30 6404 C 588.751 -1.24705 1.04654 0
M  V30 6405 O 589.94 -1.20044 1.32105 0
M  V30 6406 C 587.04 -2.20546 2.57318 0
M  V30 6407 C 586.213 -2.0299 3.87445 0
M  V30 6408 C 585.272 -3.17443 4.19662 0
M  V30 6409 O 584.298 -2.91474 4.88909 0
M  V30 6410 N 585.5 -4.43168 3.74943 0
M  V30 6411 H 588.265 -0.437788 2.96485 0
M  V30 6412 H 585.826 -0.0915863 1.61641 0
M  V30 6413 H 587.818 -2.9606 2.75917 0
M  V30 6414 H 586.388 -2.57789 1.76816 0
M  V30 6415 H 585.608 -1.11815 3.78009 0
M  V30 6416 H 586.896 -1.88535 4.7258 0
M  V30 6417 H 586.294 -4.67149 3.19043 0
M  V30 6418 H 584.851 -5.15637 3.987 0
M  V30 6419 N 588.284 -1.56567 -0.180126 0
M  V30 6420 C 589.231 -1.95725 -1.22313 0
M  V30 6421 C 590.201 -0.819911 -1.44453 0
M  V30 6422 O 591.386 -1.07931 -1.57339 0
M  V30 6423 C 588.526 -2.31484 -2.55947 0
M  V30 6424 C 587.639 -3.58354 -2.4126 0
M  V30 6425 C 586.774 -3.83366 -3.67701 0
M  V30 6426 C 585.813 -5.03612 -3.47909 0
M  V30 6427 N 584.95 -5.24802 -4.66398 0
M  V30 6428 H 589.79 -2.84642 -0.882198 0
M  V30 6429 H 587.327 -1.4085 -0.42422 0
M  V30 6430 H 589.285 -2.50237 -3.33822 0
M  V30 6431 H 587.915 -1.45689 -2.88053 0
M  V30 6432 H 586.967 -3.47565 -1.54606 0
M  V30 6433 H 588.279 -4.46386 -2.22577 0
M  V30 6434 H 587.433 -4.02439 -4.54013 0
M  V30 6435 H 586.172 -2.93692 -3.89353 0
M  V30 6436 H 585.177 -4.84447 -2.59983 0
M  V30 6437 H 586.402 -5.94809 -3.27688 0
M  V30 6438 H 584.348 -4.38079 -4.88286 0
M  V30 6439 H 584.265 -6.07041 -4.50596 0
M  V30 6440 H 585.533 -5.48346 -5.54019 0
M  V30 6441 N 589.762 0.448376 -1.51087 0
M  V30 6442 C 590.672 1.56882 -1.74428 0
M  V30 6443 C 591.688 1.62268 -0.62809 0
M  V30 6444 O 592.864 1.79716 -0.909075 0
M  V30 6445 C 589.929 2.92947 -1.85426 0
M  V30 6446 C 588.99 2.97766 -3.09247 0
M  V30 6447 C 588.223 4.27341 -3.19711 0
M  V30 6448 O 588.446 5.19112 -2.36387 0
M  V30 6449 O 587.38 4.38219 -4.12611 0
M  V30 6450 H 591.206 1.40104 -2.69452 0
M  V30 6451 H 588.791 0.630247 -1.35456 0
M  V30 6452 H 590.673 3.73719 -1.94709 0
M  V30 6453 H 589.348 3.09876 -0.935887 0
M  V30 6454 H 588.255 2.15989 -3.0545 0
M  V30 6455 H 589.588 2.8578 -4.00738 0
M  V30 6456 N 591.24 1.41047 0.703093 0
M  V30 6457 C 592.172 1.38228 1.82827 0
M  V30 6458 C 593.185 0.285637 1.60275 0
M  V30 6459 O 594.374 0.54685 1.69917 0
M  V30 6460 C 591.474 1.13136 3.19458 0
M  V30 6461 C 590.647 2.34695 3.69103 0
M  V30 6462 C 589.706 2.05574 4.84382 0
M  V30 6463 O 588.732 2.78549 4.96386 0
M  V30 6464 N 589.934 1.04135 5.71083 0
M  V30 6465 H 592.699 2.35203 1.85741 0
M  V30 6466 H 590.26 1.35562 0.885125 0
M  V30 6467 H 592.252 0.916183 3.94193 0
M  V30 6468 H 590.822 0.247836 3.11616 0
M  V30 6469 H 590.042 2.71963 2.85359 0
M  V30 6470 H 591.33 3.15705 3.99009 0
M  V30 6471 H 590.728 0.43722 5.64008 0
M  V30 6472 H 589.285 0.886078 6.45749 0
M  V30 6473 N 592.718 -0.936591 1.26751 0
M  V30 6474 C 594.134 -1.21095 1.03963 0
M  V30 6475 C 594.334 -2.00156 -0.232372 0
M  V30 6476 O 593.39 -2.3434 -0.940274 0
M  V30 6477 C 594.703 -1.96775 2.27377 0
M  V30 6478 C 596.251 -2.09749 2.32324 0
M  V30 6479 C 596.726 -2.88832 3.55443 0
M  V30 6480 N 598.217 -2.96404 3.55948 0
M  V30 6481 C 598.952 -3.58036 4.47881 0
M  V30 6482 N 598.448 -4.21132 5.50109 0
M  V30 6483 N 600.241 -3.55353 4.35523 0
M  V30 6484 H 592.392 -0.408173 2.08441 0
M  V30 6485 H 594.655 -0.243139 0.91629 0
M  V30 6486 H 594.361 -1.46094 3.19921 0
M  V30 6487 H 594.235 -2.97424 2.31989 0
M  V30 6488 H 596.622 -2.5962 1.40291 0
M  V30 6489 H 596.703 -1.08347 2.31721 0
M  V30 6490 H 596.347 -2.39647 4.47808 0
M  V30 6491 H 596.277 -3.90499 3.53296 0
M  V30 6492 H 598.768 -2.51552 2.82011 0
M  V30 6493 H 599.081 -4.66071 6.16439 0
M  V30 6494 H 597.426 -4.19705 5.53961 0
M  V30 6495 H 600.617 -3.05256 3.54875 0
M  V30 6496 H 600.79 -4.03097 5.07363 0
M  V30 6497 N 594.196 -1.08629 -1.14182 0
M  V30 6498 C 595.612 -0.814363 -1.3726 0
M  V30 6499 C 595.812 0.575271 -1.93114 0
M  V30 6500 O 594.868 1.33165 -2.1453 0
M  V30 6501 C 596.181 -1.8989 -2.33157 0
M  V30 6502 C 597.729 -1.92518 -2.46791 0
M  V30 6503 C 598.204 -3.00092 -3.45989 0
M  V30 6504 N 599.695 -2.99279 -3.53534 0
M  V30 6505 C 600.43 -3.79158 -4.30147 0
M  V30 6506 N 599.926 -4.68923 -5.09983 0
M  V30 6507 N 601.719 -3.67451 -4.25366 0
M  V30 6508 H 593.87 -1.98232 -0.762758 0
M  V30 6509 H 596.133 -0.860383 -0.398051 0
M  V30 6510 H 595.839 -2.89809 -1.99257 0
M  V30 6511 H 595.713 -1.77013 -3.33086 0
M  V30 6512 H 598.1 -0.932425 -2.79982 0
M  V30 6513 H 598.181 -2.09473 -1.46816 0
M  V30 6514 H 597.825 -3.99575 -3.13532 0
M  V30 6515 H 597.755 -2.80382 -4.45751 0
M  V30 6516 H 600.246 -2.3422 -2.96563 0
M  V30 6517 H 600.559 -5.26475 -5.65724 0
M  V30 6518 H 598.904 -4.72964 -5.09244 0
M  V30 6519 H 602.095 -2.9669 -3.62067 0
M  V30 6520 H 602.268 -4.29944 -4.84822 0
M  V30 6521 N 595.674 1.31259 -0.872281 0
M  V30 6522 C 597.09 1.49283 -0.564521 0
M  V30 6523 C 597.29 1.80243 0.900807 0
M  V30 6524 O 596.346 1.88246 1.68284 0
M  V30 6525 C 597.659 2.62503 -1.46673 0
M  V30 6526 C 599.207 2.76386 -1.46901 0
M  V30 6527 C 599.682 3.92705 -2.35684 0
M  V30 6528 N 601.173 3.99995 -2.33577 0
M  V30 6529 C 601.908 4.89276 -2.98992 0
M  V30 6530 N 601.404 5.83443 -3.73585 0
M  V30 6531 N 603.197 4.82541 -2.88289 0
M  V30 6532 H 595.348 1.09432 -1.82039 0
M  V30 6533 H 597.611 0.540949 -0.77851 0
M  V30 6534 H 597.317 2.46407 -2.50951 0
M  V30 6535 H 597.191 3.58695 -1.16696 0
M  V30 6536 H 599.578 2.91894 -0.433796 0
M  V30 6537 H 599.659 1.80853 -1.80903 0
M  V30 6538 H 599.303 3.77954 -3.39283 0
M  V30 6539 H 599.233 4.87549 -1.99006 0
M  V30 6540 H 601.724 3.32624 -1.7936 0
M  V30 6541 H 602.037 6.48303 -4.20622 0
M  V30 6542 H 600.382 5.83415 -3.77694 0
M  V30 6543 H 603.573 4.07951 -2.2955 0
M  V30 6544 H 603.746 5.51916 -3.39549 0
M  V30 6545 N 597.152 0.631951 1.44375 0
M  V30 6546 C 598.082 -0.0593243 2.33425 0
M  V30 6547 C 599.063 -0.833964 1.48253 0
M  V30 6548 O 600.248 -0.799682 1.76971 0
M  V30 6549 C 597.378 -1.04096 3.31333 0
M  V30 6550 C 596.332 -0.377899 4.26328 0
M  V30 6551 C 595.658 -1.4695 5.14111 0
M  V30 6552 C 596.958 0.716371 5.17364 0
M  V30 6553 H 598.652 0.684287 2.91475 0
M  V30 6554 H 596.198 0.330518 1.40156 0
M  V30 6555 H 598.151 -1.53331 3.92514 0
M  V30 6556 H 596.875 -1.81547 2.71493 0
M  V30 6557 H 595.534 0.0938054 3.6648 0
M  V30 6558 H 595.182 -2.2349 4.50623 0
M  V30 6559 H 594.882 -1.03121 5.78481 0
M  V30 6560 H 596.406 -1.96363 5.78164 0
M  V30 6561 H 597.82 0.307089 5.72477 0
M  V30 6562 H 596.217 1.07784 5.90341 0
M  V30 6563 H 597.287 1.58316 4.58327 0
M  V30 6564 N 598.631 -1.53133 0.372548 0
M  V30 6565 C 599.541 -2.29671 -0.478379 0
M  V30 6566 C 600.557 -1.35913 -1.08644 0
M  V30 6567 O 601.733 -1.68975 -1.09588 0
M  V30 6568 C 598.798 -3.07625 -1.599 0
M  V30 6569 C 597.859 -4.17061 -1.01776 0
M  V30 6570 C 597.092 -4.91289 -2.08497 0
M  V30 6571 O 597.315 -4.65442 -3.29727 0
M  V30 6572 O 596.249 -5.7705 -1.71164 0
M  V30 6573 H 600.075 -3.03355 0.144649 0
M  V30 6574 H 597.66 -1.48773 0.136729 0
M  V30 6575 H 599.542 -3.56281 -2.25038 0
M  V30 6576 H 598.217 -2.3677 -2.2073 0
M  V30 6577 H 597.124 -3.72641 -0.330098 0
M  V30 6578 H 598.457 -4.90102 -0.453915 0
M  V30 6579 N 600.109 -0.101901 -1.5727 0
M  V30 6580 C 601.019 0.868647 -2.17926 0
M  V30 6581 C 602.035 1.30527 -1.1506 0
M  V30 6582 O 603.211 1.37178 -1.47459 0
M  V30 6583 C 600.276 2.10727 -2.75309 0
M  V30 6584 C 599.337 1.7242 -3.93154 0
M  V30 6585 C 598.57 2.90377 -4.47791 0
M  V30 6586 O 598.793 4.05305 -4.01353 0
M  V30 6587 O 597.727 2.6845 -5.38719 0
M  V30 6588 H 601.553 0.382544 -3.01281 0
M  V30 6589 H 599.138 0.122812 -1.48894 0
M  V30 6590 H 601.02 2.83303 -3.11958 0
M  V30 6591 H 599.695 2.58376 -1.94996 0
M  V30 6592 H 598.602 0.970039 -3.61305 0
M  V30 6593 H 599.935 1.29528 -4.74851 0
M  V30 6594 N 601.587 1.56661 0.17182 0
M  V30 6595 C 602.519 1.92934 1.2373 0
M  V30 6596 C 603.532 0.822385 1.40502 0
M  V30 6597 O 604.721 1.10083 1.40514 0
M  V30 6598 C 601.821 2.16651 2.60607 0
M  V30 6599 C 600.994 3.47878 2.6514 0
M  V30 6600 C 600.053 3.60429 3.83377 0
M  V30 6601 O 599.079 4.33051 3.69398 0
M  V30 6602 N 600.281 2.95241 4.99813 0
M  V30 6603 H 603.046 2.84931 0.929205 0
M  V30 6604 H 600.607 1.5781 0.361588 0
M  V30 6605 H 602.599 2.22312 3.38171 0
M  V30 6606 H 601.169 1.3104 2.83809 0
M  V30 6607 H 600.389 3.53879 1.73675 0
M  V30 6608 H 601.677 4.34232 2.6518 0
M  V30 6609 H 601.075 2.3611 5.14071 0
M  V30 6610 H 599.632 3.06499 5.75241 0
M  V30 6611 N 603.065 -0.440357 1.51323 0
M  V30 6612 C 603.997 -1.55254 1.68609 0
M  V30 6613 C 605.01 -1.52614 0.566812 0
M  V30 6614 O 606.199 -1.57445 0.841032 0
M  V30 6615 C 603.299 -2.94169 1.68279 0
M  V30 6616 C 602.472 -3.21346 2.96742 0
M  V30 6617 C 601.531 -4.3997 2.8864 0
M  V30 6618 O 600.557 -4.38771 3.62586 0
M  V30 6619 N 601.759 -5.43367 2.04285 0
M  V30 6620 H 604.524 -1.40831 2.6455 0
M  V30 6621 H 602.085 -0.629251 1.49171 0
M  V30 6622 H 604.077 -3.71543 1.60431 0
M  V30 6623 H 602.647 -3.02205 0.799441 0
M  V30 6624 H 601.867 -2.32299 3.18482 0
M  V30 6625 H 603.155 -3.3633 3.81785 0
M  V30 6626 H 602.553 -5.47176 1.43578 0
M  V30 6627 H 601.11 -6.19605 2.02318 0
M  V30 6628 N 604.543 -1.41418 -0.695603 0
M  V30 6629 C 605.959 -1.23887 -1.00619 0
M  V30 6630 C 606.159 -0.128206 -2.01092 0
M  V30 6631 O 605.215 0.507408 -2.47349 0
M  V30 6632 C 606.528 -2.58816 -1.53083 0
M  V30 6633 C 608.076 -2.65998 -1.64967 0
M  V30 6634 C 608.551 -4.01244 -2.20833 0
M  V30 6635 N 610.042 -4.0309 -2.28194 0
M  V30 6636 C 610.777 -5.04539 -2.72448 0
M  V30 6637 N 610.273 -6.16378 -3.16306 0
M  V30 6638 N 612.066 -4.91901 -2.72011 0
M  V30 6639 H 604.217 -2.12379 -0.0300061 0
M  V30 6640 H 606.48 -0.944958 -0.0758797 0
M  V30 6641 H 606.186 -3.40842 -0.867147 0
M  V30 6642 H 606.06 -2.81299 -2.51298 0
M  V30 6643 H 608.447 -1.84331 -2.30448 0
M  V30 6644 H 608.528 -2.47325 -0.652982 0
M  V30 6645 H 608.172 -4.83359 -1.55968 0
M  V30 6646 H 608.102 -4.17257 -3.21254 0
M  V30 6647 H 610.593 -3.22341 -1.97242 0
M  V30 6648 H 610.906 -6.89658 -3.487 0
M  V30 6649 H 609.251 -6.19914 -3.14215 0
M  V30 6650 H 612.442 -4.03613 -2.37095 0
M  V30 6651 H 612.615 -5.71102 -3.06181 0
M  V30 6652 N 606.021 0.929856 -1.27246 0
M  V30 6653 C 607.437 1.20542 -1.04603 0
M  V30 6654 C 607.637 2.00276 0.221754 0
M  V30 6655 O 606.693 2.34835 0.927833 0
M  V30 6656 C 608.006 1.95566 -2.28417 0
M  V30 6657 C 609.554 2.08513 -2.33433 0
M  V30 6658 C 610.029 2.86943 -3.5697 0
M  V30 6659 N 611.52 2.94512 -3.57515 0
M  V30 6660 C 612.255 3.55656 -4.49774 0
M  V30 6661 N 611.751 4.18209 -5.52334 0
M  V30 6662 N 613.544 3.53038 -4.37402 0
M  V30 6663 H 605.695 0.397113 -2.08655 0
M  V30 6664 H 607.958 0.238277 -0.917566 0
M  V30 6665 H 607.664 1.44395 -3.20691 0
M  V30 6666 H 607.538 2.9619 -2.33563 0
M  V30 6667 H 609.925 2.58872 -1.41666 0
M  V30 6668 H 610.006 1.07117 -2.32292 0
M  V30 6669 H 609.65 2.37268 -4.49072 0
M  V30 6670 H 609.58 3.8862 -3.55362 0
M  V30 6671 H 612.071 2.50053 -2.83341 0
M  V30 6672 H 612.384 4.62796 -6.18902 0
M  V30 6673 H 610.729 4.16761 -5.56179 0
M  V30 6674 H 613.92 3.0337 -3.56489 0
M  V30 6675 H 614.093 4.004 -5.09493 0
M  V30 6676 N 607.499 1.09233 1.13605 0
M  V30 6677 C 608.409 0.741939 2.22559 0
M  V30 6678 C 609.425 -0.255236 1.72118 0
M  V30 6679 O 610.601 -0.0970747 2.01166 0
M  V30 6680 C 607.666 0.165595 3.46304 0
M  V30 6681 C 606.727 1.21846 4.11645 0
M  V30 6682 C 605.96 0.669526 5.29484 0
M  V30 6683 O 606.183 -0.508228 5.68131 0
M  V30 6684 O 605.117 1.42361 5.84822 0
M  V30 6685 H 608.943 1.65107 2.54899 0
M  V30 6686 H 606.528 0.866584 1.21699 0
M  V30 6687 H 608.41 -0.152592 4.21124 0
M  V30 6688 H 607.085 -0.716573 3.15669 0
M  V30 6689 H 605.992 1.58931 3.38662 0
M  V30 6690 H 607.325 2.07321 4.46407 0
M  V30 6691 N 608.977 -1.30795 0.87923 0
M  V30 6692 C 609.924 -2.28282 0.339968 0
M  V30 6693 C 610.894 -1.56134 -0.566685 0
M  V30 6694 O 612.079 -1.84231 -0.496338 0
M  V30 6695 C 609.219 -3.42225 -0.444501 0
M  V30 6696 C 608.332 -4.29204 0.490717 0
M  V30 6697 C 607.467 -5.30302 -0.308784 0
M  V30 6698 C 606.506 -6.08929 0.622272 0
M  V30 6699 N 605.643 -7.01957 -0.14155 0
M  V30 6700 H 610.483 -2.73794 1.17647 0
M  V30 6701 H 608.02 -1.34682 0.591527 0
M  V30 6702 H 609.978 -4.07038 -0.915186 0
M  V30 6703 H 608.608 -2.97799 -1.24562 0
M  V30 6704 H 607.66 -3.6475 1.07988 0
M  V30 6705 H 608.972 -4.84045 1.20425 0
M  V30 6706 H 608.126 -6.00835 -0.841575 0
M  V30 6707 H 606.865 -4.7614 -1.05556 0
M  V30 6708 H 605.87 -5.37278 1.16674 0
M  V30 6709 H 607.095 -6.65178 1.36804 0
M  V30 6710 H 605.041 -6.50192 -0.870966 0
M  V30 6711 H 604.958 -7.54261 0.51246 0
M  V30 6712 H 606.226 -7.76741 -0.655271 0
M  V30 6713 N 610.455 -0.639598 -1.44038 0
M  V30 6714 C 611.365 0.0612377 -2.3452 0
M  V30 6715 C 612.381 0.826717 -1.53106 0
M  V30 6716 O 613.557 0.777059 -1.85806 0
M  V30 6717 C 610.622 1.02492 -3.31204 0
M  V30 6718 C 609.683 0.25788 -4.28525 0
M  V30 6719 C 608.916 1.17566 -5.2059 0
M  V30 6720 O 609.139 2.41461 -5.16771 0
M  V30 6721 O 608.073 0.655407 -5.98321 0
M  V30 6722 H 611.899 -0.68318 -2.95916 0
M  V30 6723 H 609.484 -0.399784 -1.43952 0
M  V30 6724 H 611.366 1.57911 -3.90694 0
M  V30 6725 H 610.041 1.7498 -2.7233 0
M  V30 6726 H 608.948 -0.339566 -3.72556 0
M  V30 6727 H 610.281 -0.427154 -4.90343 0
M  V30 6728 N 611.933 1.52934 -0.380664 0
M  V30 6729 C 612.863 2.29118 0.450268 0
M  V30 6730 C 613.844 1.32153 1.07096 0
M  V30 6731 O 615.029 1.61038 1.08537 0
M  V30 6732 C 612.159 3.09161 1.58231 0
M  V30 6733 C 611.113 4.13938 1.0881 0
M  V30 6734 C 610.439 4.82153 2.31155 0
M  V30 6735 C 611.739 5.22048 0.162146 0
M  V30 6736 H 613.433 2.98826 -0.185361 0
M  V30 6737 H 610.979 1.43715 -0.0905886 0
M  V30 6738 H 612.932 3.61211 2.17036 0
M  V30 6739 H 611.656 2.3717 2.2454 0
M  V30 6740 H 610.315 3.62855 0.522633 0
M  V30 6741 H 609.963 4.06719 2.95953 0
M  V30 6742 H 609.663 5.52966 1.98752 0
M  V30 6743 H 611.187 5.37004 2.90618 0
M  V30 6744 H 612.601 5.6951 0.658126 0
M  V30 6745 H 610.998 6.00057 -0.0717122 0
M  V30 6746 H 612.068 4.78398 -0.791438 0
M  V30 6747 N 613.412 0.11024 1.57214 0
M  V30 6748 C 614.828 -0.24638 1.57687 0
M  V30 6749 C 615.028 -1.67344 1.12241 0
M  V30 6750 O 614.084 -2.39298 0.805783 0
M  V30 6751 C 615.397 -0.0210288 3.00693 0
M  V30 6752 C 616.945 -0.0876077 3.12877 0
M  V30 6753 C 617.42 0.10994 4.57868 0
M  V30 6754 N 618.911 0.0556135 4.63167 0
M  V30 6755 C 619.646 0.183495 5.73106 0
M  V30 6756 N 619.142 0.367058 6.91827 0
M  V30 6757 N 620.935 0.123689 5.61964 0
M  V30 6758 H 613.086 1.04246 1.85058 0
M  V30 6759 H 615.349 0.40979 0.854854 0
M  V30 6760 H 615.055 0.965203 3.38196 0
M  V30 6761 H 614.929 -0.756748 3.69531 0
M  V30 6762 H 617.316 -1.06436 2.75237 0
M  V30 6763 H 617.397 0.67985 2.466 0
M  V30 6764 H 617.041 1.08362 4.96206 0
M  V30 6765 H 616.971 -0.677397 5.22225 0
M  V30 6766 H 619.462 -0.0831062 3.77809 0
M  V30 6767 H 619.775 0.455739 7.71455 0
M  V30 6768 H 618.12 0.40292 6.93831 0
M  V30 6769 H 621.311 -0.0186928 4.68096 0
M  V30 6770 H 621.484 0.226797 6.47603 0
M  V30 6771 N 614.89 -1.56749 -0.16351 0
M  V30 6772 C 615.837 -1.97011 -1.2023 0
M  V30 6773 C 616.807 -0.835186 -1.43575 0
M  V30 6774 O 617.992 -1.09594 -1.56185 0
M  V30 6775 C 615.132 -2.34186 -2.53478 0
M  V30 6776 C 614.245 -3.60893 -2.37446 0
M  V30 6777 C 613.38 -3.87245 -3.63614 0
M  V30 6778 C 612.419 -5.07274 -3.42548 0
M  V30 6779 N 611.556 -5.29719 -4.60806 0
M  V30 6780 H 616.396 -2.85562 -0.851958 0
M  V30 6781 H 613.933 -1.41292 -0.409257 0
M  V30 6782 H 615.891 -2.53764 -3.31149 0
M  V30 6783 H 614.521 -1.48736 -2.86492 0
M  V30 6784 H 613.573 -3.49185 -1.50911 0
M  V30 6785 H 614.885 -4.48722 -2.1783 0
M  V30 6786 H 614.039 -4.07232 -4.49719 0
M  V30 6787 H 612.778 -2.97806 -3.86216 0
M  V30 6788 H 611.783 -4.87177 -2.5483 0
M  V30 6789 H 613.008 -5.98251 -3.2136 0
M  V30 6790 H 610.954 -4.43233 -4.83612 0
M  V30 6791 H 610.871 -6.11786 -4.44132 0
M  V30 6792 H 612.139 -5.54192 -5.48171 0
M  V30 6793 N 616.368 0.432326 -1.51554 0
M  V30 6794 C 617.3 1.54357 -1.6943 0
M  V30 6795 C 618.313 1.52311 -0.574897 0
M  V30 6796 O 619.502 1.56997 -0.849369 0
M  V30 6797 C 616.602 2.93273 -1.69836 0
M  V30 6798 C 615.775 3.19768 -2.98442 0
M  V30 6799 C 614.834 4.38433 -2.90969 0
M  V30 6800 O 613.86 4.36842 -3.64908 0
M  V30 6801 N 615.062 5.42276 -2.07163 0
M  V30 6802 H 617.827 1.39426 -2.65293 0
M  V30 6803 H 615.388 0.621331 -1.49503 0
M  V30 6804 H 617.38 3.70687 -1.62399 0
M  V30 6805 H 615.95 3.01777 -0.815456 0
M  V30 6806 H 615.17 2.30607 -3.19709 0
M  V30 6807 H 616.458 3.343 -3.83563 0
M  V30 6808 H 615.856 5.46407 -1.46477 0
M  V30 6809 H 614.413 6.18524 -2.05601 0
M  V30 6810 N 617.846 1.41785 0.688094 0
M  V30 6811 C 618.778 1.40159 1.81351 0
M  V30 6812 C 619.791 0.30262 1.59963 0
M  V30 6813 O 620.98 0.564841 1.69327 0
M  V30 6814 C 618.08 1.16517 3.1824 0
M  V30 6815 C 617.253 2.38597 3.66593 0
M  V30 6816 C 616.312 2.10699 4.82174 0
M  V30 6817 O 615.338 2.83798 4.93404 0
M  V30 6818 N 616.54 1.10187 5.69947 0
M  V30 6819 H 619.305 2.3716 1.83236 0
M  V30 6820 H 616.866 1.36494 0.870697 0
M  V30 6821 H 618.858 0.957941 3.93199 0
M  V30 6822 H 617.428 0.280873 3.11336 0
M  V30 6823 H 616.648 2.74974 2.82459 0
M  V30 6824 H 617.936 3.19919 3.95638 0
M  V30 6825 H 617.334 0.497016 5.63512 0
M  V30 6826 H 615.891 0.954518 6.44773 0
M  V30 6827 N 619.324 -0.923095 1.27737 0
M  V30 6828 C 620.234 -2.05765 1.12685 0
M  V30 6829 C 621.25 -1.73911 0.0557197 0
M  V30 6830 O 622.426 -1.99674 0.263137 0
M  V30 6831 C 619.491 -3.37804 0.780363 0
M  V30 6832 C 618.552 -3.83326 1.93286 0
M  V30 6833 C 617.785 -5.09064 1.60281 0
M  V30 6834 O 618.008 -5.6809 0.512828 0
M  V30 6835 O 616.942 -5.50071 2.44347 0
M  V30 6836 H 620.768 -2.21378 2.07907 0
M  V30 6837 H 618.353 -1.04299 1.06968 0
M  V30 6838 H 620.235 -4.17097 0.600668 0
M  V30 6839 H 618.91 -3.23387 -0.142291 0
M  V30 6840 H 617.817 -3.049 2.16764 0
M  V30 6841 H 619.15 -4.02292 2.83588 0
M  V30 6842 N 620.802 -1.09834 -1.13024 0
M  V30 6843 C 622.218 -0.828875 -1.36388 0
M  V30 6844 C 622.418 0.554756 -1.93713 0
M  V30 6845 O 621.474 1.30882 -2.15931 0
M  V30 6846 C 622.787 -1.92352 -2.3113 0
M  V30 6847 C 624.335 -1.95124 -2.44735 0
M  V30 6848 C 624.81 -3.03745 -3.42787 0
M  V30 6849 N 626.301 -3.03012 -3.5034 0
M  V30 6850 C 627.036 -3.83699 -4.26101 0
M  V30 6851 N 626.532 -4.74306 -5.04981 0
M  V30 6852 N 628.325 -3.71942 -4.21445 0
M  V30 6853 H 620.476 -1.99029 -0.74169 0
M  V30 6854 H 622.739 -0.864557 -0.388903 0
M  V30 6855 H 622.445 -2.91906 -1.96172 0
M  V30 6856 H 622.319 -1.80536 -3.3119 0
M  V30 6857 H 624.706 -0.962069 -2.78977 0
M  V30 6858 H 624.787 -2.11018 -1.44586 0
M  V30 6859 H 624.431 -4.02878 -3.09276 0
M  V30 6860 H 624.361 -2.85094 -4.42752 0
M  V30 6861 H 626.852 -2.37352 -2.94062 0
M  V30 6862 H 627.165 -5.32446 -5.60108 0
M  V30 6863 H 625.51 -4.78339 -5.04199 0
M  V30 6864 H 628.701 -3.00513 -3.589 0
M  V30 6865 H 628.874 -4.35062 -4.80235 0
M  V30 6866 N 622.28 1.30327 -0.886154 0
M  V30 6867 C 623.19 2.31854 -0.357866 0
M  V30 6868 C 624.206 1.65392 0.540502 0
M  V30 6869 O 625.382 1.96683 0.433339 0
M  V30 6870 C 622.447 3.44171 0.417999 0
M  V30 6871 C 621.508 4.26257 -0.510263 0
M  V30 6872 C 620.741 5.3321 0.228669 0
M  V30 6873 O 620.964 5.51542 1.45458 0
M  V30 6874 O 619.898 6.0042 -0.421832 0
M  V30 6875 H 623.724 2.78995 -1.19982 0
M  V30 6876 H 621.309 1.34518 -0.650028 0
M  V30 6877 H 623.191 4.12588 0.857251 0
M  V30 6878 H 621.866 2.99164 1.23623 0
M  V30 6879 H 620.773 3.60533 -0.99835 0
M  V30 6880 H 622.106 4.74871 -1.29454 0
M  V30 6881 N 623.758 0.647228 1.43697 0
M  V30 6882 C 624.69 -0.0866232 2.29036 0
M  V30 6883 C 625.703 -0.793051 1.42178 0
M  V30 6884 O 626.892 -0.651807 1.66174 0
M  V30 6885 C 623.992 -1.14552 3.18953 0
M  V30 6886 C 623.165 -0.518422 4.34317 0
M  V30 6887 C 622.224 -1.4734 5.05151 0
M  V30 6888 O 621.25 -0.984312 5.60625 0
M  V30 6889 N 622.452 -2.8075 5.08094 0
M  V30 6890 H 625.217 0.645834 2.92659 0
M  V30 6891 H 622.778 0.489567 1.54321 0
M  V30 6892 H 624.77 -1.78505 3.63205 0
M  V30 6893 H 623.34 -1.78001 2.56971 0
M  V30 6894 H 622.56 0.300079 3.93056 0
M  V30 6895 H 623.848 -0.080401 5.08736 0
M  V30 6896 H 623.246 -3.23052 4.64386 0
M  V30 6897 H 621.803 -3.40022 5.56083 0
M  V30 6898 N 625.236 -1.5273 0.388769 0
M  V30 6899 C 626.652 -1.59553 0.0387049 0
M  V30 6900 C 626.852 -1.40278 -1.44652 0
M  V30 6901 O 625.908 -1.21951 -2.21098 0
M  V30 6902 C 627.221 -2.9625 0.515409 0
M  V30 6903 C 628.769 -3.09426 0.471621 0
M  V30 6904 C 629.244 -4.48572 0.924505 0
M  V30 6905 N 630.735 -4.54754 0.880496 0
M  V30 6906 C 631.47 -5.60653 1.20234 0
M  V30 6907 N 630.966 -6.74198 1.59463 0
M  V30 6908 N 632.759 -5.50755 1.12363 0
M  V30 6909 H 624.91 -1.63508 1.35569 0
M  V30 6910 H 627.173 -0.768097 0.555636 0
M  V30 6911 H 626.879 -3.15569 1.5527 0
M  V30 6912 H 626.753 -3.77102 -0.085792 0
M  V30 6913 H 629.14 -2.89804 -0.556588 0
M  V30 6914 H 629.221 -2.30528 1.10862 0
M  V30 6915 H 628.865 -4.68936 1.95094 0
M  V30 6916 H 628.795 -5.25935 0.264524 0
M  V30 6917 H 631.286 -3.73237 0.591815 0
M  V30 6918 H 631.599 -7.5097 1.82385 0
M  V30 6919 H 629.944 -6.75531 1.63349 0
M  V30 6920 H 633.135 -4.6093 0.816169 0
M  V30 6921 H 633.308 -6.33184 1.37777 0
M  V30 6922 N 626.714 -0.118576 -1.57153 0
M  V30 6923 C 628.13 0.238014 -1.57815 0
M  V30 6924 C 628.33 1.66747 -1.13127 0
M  V30 6925 O 627.386 2.38867 -0.818462 0
M  V30 6926 C 628.699 0.00508207 -3.007 0
M  V30 6927 C 630.247 0.0710139 -3.12919 0
M  V30 6928 C 630.722 -0.13422 -4.57803 0
M  V30 6929 N 632.213 -0.0801755 -4.63131 0
M  V30 6930 C 632.948 -0.213885 -5.73001 0
M  V30 6931 N 632.444 -0.403742 -6.91623 0
M  V30 6932 N 634.237 -0.15349 -5.6189 0
M  V30 6933 H 626.388 -1.05226 -1.84503 0
M  V30 6934 H 628.651 -0.414318 -0.852669 0
M  V30 6935 H 628.357 -0.983125 -3.3768 0
M  V30 6936 H 628.231 0.73714 -3.69927 0
M  V30 6937 H 630.618 1.04975 -2.75798 0
M  V30 6938 H 630.699 -0.692918 -2.46236 0
M  V30 6939 H 630.343 -1.10992 -4.95624 0
M  V30 6940 H 630.273 0.649692 -5.22577 0
M  V30 6941 H 632.764 0.0630689 -3.77847 0
M  V30 6942 H 633.077 -0.496645 -7.71202 0
M  V30 6943 H 631.422 -0.43971 -6.93608 0
M  V30 6944 H 634.613 -0.00613174 -4.681 0
M  V30 6945 H 634.786 -0.261138 -6.47474 0
M  V30 6946 N 628.193 1.56834 0.155195 0
M  V30 6947 C 629.143 1.94061 1.19684 0
M  V30 6948 C 630.127 0.810851 1.38975 0
M  V30 6949 O 631.319 1.07422 1.40675 0
M  V30 6950 C 628.448 2.31778 2.53247 0
M  V30 6951 C 627.534 3.51305 2.37583 0
M  V30 6952 N 627.925 4.68081 1.9166 0
M  V30 6953 C 626.223 3.56228 2.6836 0
M  V30 6954 C 626.924 5.50193 1.88845 0
M  V30 6955 N 625.9 4.91676 2.31852 0
M  V30 6956 H 629.702 2.81826 0.833747 0
M  V30 6957 H 627.216 1.58284 0.363328 0
M  V30 6958 H 629.213 2.56649 3.28538 0
M  V30 6959 H 627.873 1.4536 2.90346 0
M  V30 6960 H 628.884 4.91993 1.6175 0
M  V30 6961 H 625.561 2.8033 3.09389 0
M  V30 6962 H 626.951 6.53801 1.54901 0
M  V30 6963 N 629.671 -0.424282 1.51781 0
M  V30 6964 C 630.901 -1.19297 1.68677 0
M  V30 6965 C 631.309 -1.85152 0.389258 0
M  V30 6966 O 630.652 -1.72067 -0.643311 0
M  V30 6967 C 630.714 -2.30929 2.75521 0
M  V30 6968 C 630.378 -1.85335 4.17732 0
M  V30 6969 C 631.375 -1.34951 5.0208 0
M  V30 6970 C 629.06 -1.92629 4.63896 0
M  V30 6971 C 631.054 -0.924636 6.30658 0
M  V30 6972 C 628.741 -1.49754 5.92467 0
M  V30 6973 C 629.739 -0.997543 6.75676 0
M  V30 6974 O 629.427 -0.57492 8.01842 0
M  V30 6975 H 629.159 -0.36512 0.568914 0
M  V30 6976 H 631.713 -0.507327 1.99036 0
M  V30 6977 H 629.943 -3.02811 2.40505 0
M  V30 6978 H 631.632 -2.92748 2.81165 0
M  V30 6979 H 632.398 -1.287 4.67612 0
M  V30 6980 H 628.277 -2.30491 3.99243 0
M  V30 6981 H 631.821 -0.533682 6.95556 0
M  V30 6982 H 627.718 -1.55679 6.26446 0
M  V30 6983 H 628.486 -0.699597 8.15505 0
M  V30 6984 N 631.149 -1.42148 -0.680565 0
M  V30 6985 C 632.059 -1.47565 -1.82378 0
M  V30 6986 C 633.075 -0.36489 -1.70131 0
M  V30 6987 O 634.251 -0.614916 -1.91783 0
M  V30 6988 C 631.316 -1.37013 -3.18478 0
M  V30 6989 C 630.377 -2.58532 -3.42724 0
M  V30 6990 C 629.61 -2.48473 -4.72331 0
M  V30 6991 O 629.833 -1.51745 -5.49845 0
M  V30 6992 O 628.767 -3.38503 -4.97694 0
M  V30 6993 H 632.593 -2.44045 -1.80764 0
M  V30 6994 H 630.178 -1.23849 -0.835569 0
M  V30 6995 H 632.06 -1.33468 -3.99705 0
M  V30 6996 H 630.735 -0.436552 -3.20743 0
M  V30 6997 H 629.642 -2.67652 -2.61368 0
M  V30 6998 H 630.975 -3.50769 -3.45286 0
M  V30 6999 N 632.627 0.916307 -1.28225 0
M  V30 7000 C 633.537 2.05165 -1.13775 0
M  V30 7001 C 634.553 1.73879 -0.0649418 0
M  V30 7002 O 635.729 1.99531 -0.273722 0
M  V30 7003 C 632.794 3.37385 -0.798267 0
M  V30 7004 C 631.855 3.82296 -1.95316 0
M  V30 7005 C 631.088 5.08206 -1.62978 0
M  V30 7006 O 631.311 5.6781 -0.542948 0
M  V30 7007 O 630.245 5.48768 -2.47261 0
M  V30 7008 H 634.071 2.20273 -2.09078 0
M  V30 7009 H 631.656 1.0373 -1.07519 0
M  V30 7010 H 633.538 4.16773 -0.62278 0
M  V30 7011 H 632.213 3.23458 0.125139 0
M  V30 7012 H 631.12 3.03746 -2.18378 0
M  V30 7013 H 632.453 4.00782 -2.85718 0
M  V30 7014 N 634.105 1.10431 1.1244 0
M  V30 7015 C 635.037 0.710945 2.17895 0
M  V30 7016 C 636.05 -0.252315 1.60833 0
M  V30 7017 O 637.239 -0.03679 1.78462 0
M  V30 7018 C 634.339 0.0284262 3.38888 0
M  V30 7019 C 633.512 1.01585 4.2544 0
M  V30 7020 C 632.571 0.364826 5.24934 0
M  V30 7021 O 631.597 1.01561 5.60066 0
M  V30 7022 N 632.799 -0.87674 5.73841 0
M  V30 7023 H 635.564 1.61826 2.52255 0
M  V30 7024 H 633.125 0.993132 1.27861 0
M  V30 7025 H 635.117 -0.418568 4.0253 0
M  V30 7026 H 633.687 -0.781294 3.02679 0
M  V30 7027 H 632.907 1.64111 3.58415 0
M  V30 7028 H 634.195 1.68425 4.80115 0
M  V30 7029 H 633.593 -1.42483 5.47462 0
M  V30 7030 H 632.15 -1.26688 6.39369 0
M  V30 7031 N 635.583 -1.29855 0.893053 0
M  V30 7032 C 636.516 -2.26079 0.3104 0
M  V30 7033 C 637.494 -1.52145 -0.573644 0
M  V30 7034 O 638.678 -1.8113 -0.521937 0
M  V30 7035 C 635.805 -3.34069 -0.558179 0
M  V30 7036 C 634.851 -4.25721 0.257638 0
M  V30 7037 S 635.684 -5.09409 1.65114 0
M  V30 7038 C 636.84 -6.20903 0.789307 0
M  V30 7039 H 637.073 -2.75151 1.12602 0
M  V30 7040 H 634.606 -1.37975 0.692978 0
M  V30 7041 H 636.564 -3.9675 -1.05355 0
M  V30 7042 H 635.225 -2.83705 -1.34797 0
M  V30 7043 H 634.418 -5.02366 -0.405562 0
M  V30 7044 H 634.02 -3.67656 0.685917 0
M  V30 7045 H 636.312 -6.77499 0.00978451 0
M  V30 7046 H 637.255 -6.91426 1.52762 0
M  V30 7047 H 637.663 -5.63435 0.346634 0
M  V30 7048 N 637.061 -0.65484 -1.43351 0
M  V30 7049 C 638.477 -0.32255 -1.56307 0
M  V30 7050 C 638.677 1.17324 -1.63821 0
M  V30 7051 O 637.733 1.95813 -1.59417 0
M  V30 7052 C 639.046 -1.03533 -2.82314 0
M  V30 7053 C 640.594 -1.01574 -2.9606 0
M  V30 7054 C 641.069 -1.70945 -4.24902 0
M  V30 7055 N 642.56 -1.67716 -4.3177 0
M  V30 7056 C 643.295 -2.18265 -5.30234 0
M  V30 7057 N 642.791 -2.7711 -6.34966 0
M  V30 7058 N 644.584 -2.08756 -5.21898 0
M  V30 7059 H 636.735 -1.62549 -1.36717 0
M  V30 7060 H 638.998 -0.683676 -0.656727 0
M  V30 7061 H 638.704 -2.09045 -2.8283 0
M  V30 7062 H 638.578 -0.587913 -3.7259 0
M  V30 7063 H 640.965 0.0309834 -2.95084 0
M  V30 7064 H 641.046 -1.50186 -2.07069 0
M  V30 7065 H 640.69 -2.75574 -4.26639 0
M  V30 7066 H 640.62 -1.19797 -5.12793 0
M  V30 7067 H 643.111 -1.24777 -3.56706 0
M  V30 7068 H 643.424 -3.13353 -7.06421 0
M  V30 7069 H 641.769 -2.81171 -6.35585 0
M  V30 7070 H 644.96 -1.62488 -4.38994 0
M  V30 7071 H 645.133 -2.48459 -5.98475 0
M  V30 7072 N 638.539 1.52521 -0.396863 0
M  V30 7073 C 639.955 1.5953 -0.0471659 0
M  V30 7074 C 640.155 1.41044 1.43906 0
M  V30 7075 O 639.211 1.23122 2.20448 0
M  V30 7076 C 640.524 2.95972 -0.531113 0
M  V30 7077 C 642.072 3.09172 -0.488024 0
M  V30 7078 C 642.547 4.48075 -0.948281 0
M  V30 7079 N 644.038 4.54281 -0.9046 0
M  V30 7080 C 644.773 5.60007 -1.23205 0
M  V30 7081 N 644.269 6.73343 -1.63036 0
M  V30 7082 N 646.062 5.50151 -1.15282 0
M  V30 7083 H 638.213 1.62786 -1.36435 0
M  V30 7084 H 640.476 0.76514 -0.559701 0
M  V30 7085 H 640.182 3.14741 -1.56942 0
M  V30 7086 H 640.056 3.77143 0.0657922 0
M  V30 7087 H 642.443 2.90095 0.541211 0
M  V30 7088 H 642.524 2.29937 -1.12083 0
M  V30 7089 H 642.168 4.67894 -1.97578 0
M  V30 7090 H 642.098 5.25788 -0.292412 0
M  V30 7091 H 644.589 3.72918 -0.6116 0
M  V30 7092 H 644.902 7.49992 -1.86365 0
M  V30 7093 H 643.247 6.74655 -1.66929 0
M  V30 7094 H 646.438 4.6049 -0.840602 0
M  V30 7095 H 646.611 6.32444 -1.41133 0
M  V30 7096 N 640.017 0.126909 1.57088 0
M  V30 7097 C 640.927 -0.833867 2.1928 0
M  V30 7098 C 641.943 -1.2868 1.17122 0
M  V30 7099 O 643.119 -1.34815 1.49622 0
M  V30 7100 C 640.184 -2.0632 2.78627 0
M  V30 7101 C 639.245 -1.66143 3.95847 0
M  V30 7102 C 638.478 -2.83217 4.52354 0
M  V30 7103 O 638.701 -3.98868 4.0775 0
M  V30 7104 O 637.635 -2.59846 5.42922 0
M  V30 7105 H 641.461 -0.334564 3.01852 0
M  V30 7106 H 639.046 -0.0991091 1.49071 0
M  V30 7107 H 640.928 -2.78304 3.16425 0
M  V30 7108 H 639.603 -2.55242 1.99082 0
M  V30 7109 H 638.51 -0.912435 3.62802 0
M  V30 7110 H 639.843 -1.21957 4.76852 0
M  V30 7111 N 641.495 -1.56914 -0.146875 0
M  V30 7112 C 642.405 -2.0154 -1.20079 0
M  V30 7113 C 643.421 -0.930838 -1.47008 0
M  V30 7114 O 644.597 -1.24032 -1.58676 0
M  V30 7115 C 641.662 -2.38715 -2.51428 0
M  V30 7116 C 640.723 -3.6112 -2.32145 0
M  V30 7117 C 639.956 -3.96512 -3.57231 0
M  V30 7118 O 640.179 -3.32566 -4.63418 0
M  V30 7119 O 639.113 -4.89758 -3.49887 0
M  V30 7120 H 642.939 -2.91506 -0.851924 0
M  V30 7121 H 640.524 -1.45106 -0.355607 0
M  V30 7122 H 642.406 -2.63485 -3.28867 0
M  V30 7123 H 641.081 -1.51903 -2.85845 0
M  V30 7124 H 639.988 -3.41536 -1.52656 0
M  V30 7125 H 641.321 -4.48549 -2.02644 0
M  V30 7126 N 642.974 0.416227 -1.52004 0
M  V30 7127 C 643.884 1.53147 -1.77717 0
M  V30 7128 C 644.9 1.609 -0.662368 0
M  V30 7129 O 646.076 1.77747 -0.946991 0
M  V30 7130 C 643.141 2.88948 -1.91598 0
M  V30 7131 C 642.202 2.9114 -3.15493 0
M  V30 7132 C 641.435 4.20464 -3.28703 0
M  V30 7133 O 641.658 5.13981 -2.47345 0
M  V30 7134 O 640.592 4.29368 -4.21813 0
M  V30 7135 H 644.418 1.34357 -2.72363 0
M  V30 7136 H 642.003 0.601373 -1.36762 0
M  V30 7137 H 643.885 3.69505 -2.02593 0
M  V30 7138 H 642.56 3.07821 -1.00141 0
M  V30 7139 H 641.467 2.09461 -3.09962 0
M  V30 7140 H 642.8 2.77216 -4.06709 0
M  V30 7141 N 644.452 1.42507 0.673017 0
M  V30 7142 C 645.868 1.25472 0.986355 0
M  V30 7143 C 646.068 0.160181 2.00862 0
M  V30 7144 O 645.124 -0.467993 2.48125 0
M  V30 7145 C 646.437 2.61219 1.48947 0
M  V30 7146 C 647.985 2.68589 1.60715 0
M  V30 7147 C 648.46 4.04707 2.14422 0
M  V30 7148 N 649.951 4.0667 2.21752 0
M  V30 7149 C 650.686 5.0881 2.64386 0
M  V30 7150 N 650.182 6.21332 3.0646 0
M  V30 7151 N 651.975 4.96166 2.64151 0
M  V30 7152 H 644.126 2.124 -0.00378532 0
M  V30 7153 H 646.389 0.946046 0.0608367 0
M  V30 7154 H 646.095 3.42179 0.812812 0
M  V30 7155 H 645.969 2.85261 2.46791 0
M  V30 7156 H 648.356 1.87974 2.27486 0
M  V30 7157 H 648.437 2.48333 0.613552 0
M  V30 7158 H 648.081 4.8578 1.48258 0
M  V30 7159 H 648.011 4.22315 3.14575 0
M  V30 7160 H 650.502 3.25438 1.92089 0
M  V30 7161 H 650.815 6.95118 3.37684 0
M  V30 7162 H 649.16 6.24835 3.04313 0
M  V30 7163 H 652.351 4.07334 2.30644 0
M  V30 7164 H 652.524 5.759 2.97057 0
M  V30 7165 N 645.93 -0.909495 1.28709 0
M  V30 7166 C 647.346 -1.18862 1.06508 0
M  V30 7167 C 647.546 -2.00604 -0.189864 0
M  V30 7168 O 646.602 -2.36281 -0.890355 0
M  V30 7169 C 647.915 -1.91908 2.31499 0
M  V30 7170 C 649.463 -2.04773 2.36721 0
M  V30 7171 C 649.938 -2.81228 3.6149 0
M  V30 7172 N 651.429 -2.88787 3.62155 0
M  V30 7173 C 652.164 -3.48455 4.55375 0
M  V30 7174 N 651.66 -4.09369 5.58918 0
M  V30 7175 N 653.453 -3.46035 4.42963 0
M  V30 7176 H 645.604 -0.363867 2.0926 0
M  V30 7177 H 647.867 -0.223649 0.921241 0
M  V30 7178 H 647.573 -1.39275 3.22948 0
M  V30 7179 H 647.447 -2.92436 2.38245 0
M  V30 7180 H 649.834 -2.56585 1.45767 0
M  V30 7181 H 649.915 -1.03408 2.33967 0
M  V30 7182 H 649.559 -2.30094 4.5279 0
M  V30 7183 H 649.489 -3.82917 3.61499 0
M  V30 7184 H 651.98 -2.45514 2.87283 0
M  V30 7185 H 652.293 -4.52891 6.26187 0
M  V30 7186 H 650.638 -4.0786 5.62739 0
M  V30 7187 H 653.829 -2.9766 3.6127 0
M  V30 7188 H 654.002 -3.92244 5.15799 0
M  V30 7189 N 647.408 -1.11026 -1.11852 0
M  V30 7190 C 648.824 -0.843294 -1.35502 0
M  V30 7191 C 649.024 0.534179 -1.9429 0
M  V30 7192 O 648.08 1.28585 -2.17307 0
M  V30 7193 C 649.393 -1.94793 -2.29077 0
M  V30 7194 C 650.941 -1.97709 -2.42652 0
M  V30 7195 C 651.416 -3.07364 -3.39546 0
M  V30 7196 N 652.907 -3.0671 -3.47107 0
M  V30 7197 C 653.642 -3.88197 -4.22008 0
M  V30 7198 N 653.138 -4.79635 -4.99922 0
M  V30 7199 N 654.931 -3.76391 -4.17476 0
M  V30 7200 H 647.082 -1.99805 -0.720538 0
M  V30 7201 H 649.345 -0.868633 -0.379711 0
M  V30 7202 H 649.051 -2.93971 -1.93065 0
M  V30 7203 H 648.925 -1.84039 -3.29256 0
M  V30 7204 H 651.312 -0.991604 -2.77941 0
M  V30 7205 H 651.393 -2.1254 -1.4234 0
M  V30 7206 H 651.037 -4.06136 -3.04985 0
M  V30 7207 H 650.967 -2.89774 -4.39703 0
M  V30 7208 H 653.458 -2.40457 -2.91528 0
M  V30 7209 H 653.771 -5.38357 -5.54429 0
M  V30 7210 H 652.116 -4.8366 -4.99097 0
M  V30 7211 H 655.307 -3.04303 -3.55693 0
M  V30 7212 H 655.48 -4.40131 -4.75593 0
M  V30 7213 N 648.886 1.2938 -0.899927 0
M  V30 7214 C 649.849 2.25983 -0.382677 0
M  V30 7215 C 650.849 1.53366 0.483259 0
M  V30 7216 O 652.039 1.71798 0.28828 0
M  V30 7217 C 649.171 3.37878 0.452915 0
M  V30 7218 H 650.364 2.73252 -1.23586 0
M  V30 7219 H 647.917 1.40825 -0.678088 0
M  V30 7220 H 648.652 2.95949 1.32608 0
M  V30 7221 H 648.437 3.91742 -0.167562 0
M  V30 7222 H 649.927 4.09746 0.806107 0
M  V30 7223 N 650.364 0.662433 1.43002 0
M  V30 7224 C 651.274 -0.0239199 2.34588 0
M  V30 7225 C 652.29 -0.802255 1.54402 0
M  V30 7226 O 653.466 -0.747401 1.87018 0
M  V30 7227 C 650.531 -0.972098 3.32793 0
M  V30 7228 C 649.592 -0.189673 4.28881 0
M  V30 7229 C 648.825 -1.09269 5.22395 0
M  V30 7230 O 649.048 -2.33209 5.20547 0
M  V30 7231 O 647.982 -0.560136 5.99288 0
M  V30 7232 H 651.808 0.730171 2.94792 0
M  V30 7233 H 649.393 0.422635 1.43297 0
M  V30 7234 H 651.275 -1.51676 3.93157 0
M  V30 7235 H 649.95 -1.70626 2.75079 0
M  V30 7236 H 648.857 0.398794 3.71968 0
M  V30 7237 H 650.19 0.50511 4.89601 0
M  V30 7238 N 651.842 -1.52309 0.404946 0
M  V30 7239 C 652.792 -2.23717 -0.439864 0
M  V30 7240 C 653.776 -1.24692 -1.0169 0
M  V30 7241 O 654.968 -1.49951 -0.940409 0
M  V30 7242 C 652.097 -3.05898 -1.55825 0
M  V30 7243 C 651.183 -4.12331 -0.992188 0
M  V30 7244 N 651.574 -5.0557 -0.152424 0
M  V30 7245 C 649.872 -4.2774 -1.26312 0
M  V30 7246 C 650.573 -5.81474 0.162041 0
M  V30 7247 N 649.549 -5.41767 -0.44601 0
M  V30 7248 H 653.351 -2.93162 0.208084 0
M  V30 7249 H 650.865 -1.60969 0.215131 0
M  V30 7250 H 652.862 -3.55605 -2.17603 0
M  V30 7251 H 651.522 -2.37991 -2.20886 0
M  V30 7252 H 652.533 -5.17468 0.211556 0
M  V30 7253 H 649.21 -3.71062 -1.91362 0
M  V30 7254 H 650.6 -6.66585 0.843423 0
M  V30 7255 N 653.32 -0.135238 -1.57019 0
M  V30 7256 C 654.23 0.822226 -2.19719 0
M  V30 7257 C 655.246 1.28057 -1.17802 0
M  V30 7258 O 656.422 1.3402 -1.50335 0
M  V30 7259 C 653.487 2.0484 -2.79717 0
M  V30 7260 C 652.548 1.64042 -3.96723 0
M  V30 7261 C 651.781 2.80814 -4.53849 0
M  V30 7262 O 652.004 3.967 -4.0986 0
M  V30 7263 O 650.938 2.56963 -5.44292 0
M  V30 7264 H 654.764 0.318552 -3.02025 0
M  V30 7265 H 652.349 0.0912021 -1.49121 0
M  V30 7266 H 654.231 2.76622 -3.17897 0
M  V30 7267 H 652.906 2.54182 -2.00432 0
M  V30 7268 H 651.813 0.893182 -3.63281 0
M  V30 7269 H 653.146 1.19426 -4.77492 0
M  V30 7270 N 654.798 1.5699 0.138552 0
M  V30 7271 C 655.73 1.95515 1.1961 0
M  V30 7272 C 656.743 0.852002 1.38726 0
M  V30 7273 O 657.932 1.13038 1.38147 0
M  V30 7274 C 655.032 2.2213 2.55952 0
M  V30 7275 C 654.205 3.53424 2.57702 0
M  V30 7276 C 653.264 3.6848 3.75645 0
M  V30 7277 O 652.29 4.4079 3.60129 0
M  V30 7278 N 653.492 3.05777 4.93438 0
M  V30 7279 H 656.257 2.86838 0.868557 0
M  V30 7280 H 653.818 1.58542 0.328033 0
M  V30 7281 H 655.81 2.29435 3.33379 0
M  V30 7282 H 654.38 1.3703 2.80965 0
M  V30 7283 H 653.6 3.57484 1.6613 0
M  V30 7284 H 654.888 4.39759 2.55909 0
M  V30 7285 H 654.286 2.46961 5.08947 0
M  V30 7286 H 652.843 3.18631 5.6861 0
M  V30 7287 N 656.276 -0.40816 1.52223 0
M  V30 7288 C 657.186 -1.52202 1.78526 0
M  V30 7289 C 658.202 -1.60546 0.670892 0
M  V30 7290 O 659.378 -1.77242 0.956404 0
M  V30 7291 C 656.443 -2.87928 1.93128 0
M  V30 7292 C 655.504 -2.89463 3.17033 0
M  V30 7293 C 654.737 -4.18715 3.30929 0
M  V30 7294 O 654.96 -5.12662 2.50067 0
M  V30 7295 O 653.894 -4.27125 4.24084 0
M  V30 7296 H 657.72 -1.32911 2.73072 0
M  V30 7297 H 655.305 -0.594112 1.37079 0
M  V30 7298 H 657.187 -3.68426 2.04549 0
M  V30 7299 H 655.862 -3.07285 1.01772 0
M  V30 7300 H 654.769 -2.07815 3.11069 0
M  V30 7301 H 656.102 -2.75055 4.08174 0
M  V30 7302 N 657.755 -1.42862 -0.66545 0
M  V30 7303 C 658.985 -1.47032 -1.45138 0
M  V30 7304 C 659.393 -0.0829977 -1.89018 0
M  V30 7305 O 658.736 0.914551 -1.59316 0
M  V30 7306 C 658.798 -2.34302 -2.72659 0
M  V30 7307 C 658.462 -3.82034 -2.50796 0
M  V30 7308 C 659.459 -4.73453 -2.14799 0
M  V30 7309 C 657.144 -4.26397 -2.655 0
M  V30 7310 C 659.138 -6.07228 -1.93785 0
M  V30 7311 C 656.825 -5.6023 -2.44103 0
M  V30 7312 C 657.823 -6.50462 -2.08299 0
M  V30 7313 O 657.511 -7.8182 -1.87116 0
M  V30 7314 H 657.243 -0.501969 -0.452772 0
M  V30 7315 H 659.797 -1.88137 -0.82423 0
M  V30 7316 H 658.027 -1.88063 -3.37889 0
M  V30 7317 H 659.716 -2.29818 -3.34572 0
M  V30 7318 H 660.482 -4.4046 -2.03026 0
M  V30 7319 H 656.361 -3.56448 -2.92345 0
M  V30 7320 H 659.905 -6.7762 -1.65763 0
M  V30 7321 H 655.802 -5.92793 -2.55475 0
M  V30 7322 H 656.57 -7.93274 -2.01639 0
M  V30 7323 N 659.233 0.902656 -1.29189 0
M  V30 7324 C 660.482 1.6475 -1.16362 0
M  V30 7325 C 660.795 1.93517 0.284682 0
M  V30 7326 O 662.001 2.66192 0.534229 0
M  V30 7327 C 660.457 2.96848 -2.03493 0
M  V30 7328 C 660.065 2.75687 -3.5313 0
M  V30 7329 C 661.809 3.74762 -1.99383 0
M  V30 7330 C 659.716 4.03492 -4.32375 0
M  V30 7331 H 658.646 0.618041 -0.431904 0
M  V30 7332 H 661.297 1.0008 -1.53806 0
M  V30 7333 H 659.679 3.62715 -1.58916 0
M  V30 7334 H 660.853 2.18431 -4.05739 0
M  V30 7335 H 659.168 2.11171 -3.58881 0
M  V30 7336 H 661.765 4.69515 -2.5585 0
M  V30 7337 H 662.108 4.04767 -0.973123 0
M  V30 7338 H 662.641 3.15732 -2.41988 0
M  V30 7339 H 659.38 3.78656 -5.3507 0
M  V30 7340 H 658.9 4.60318 -3.84535 0
M  V30 7341 H 660.579 4.71662 -4.42881 0
M  V30 7342 N 660.711 1.11618 1.11262 0
M  V30 7343 C 662.127 0.850468 1.35053 0
M  V30 7344 C 662.327 -0.523868 1.94571 0
M  V30 7345 O 661.383 -1.2743 2.17986 0
M  V30 7346 C 662.696 1.96005 2.28041 0
M  V30 7347 C 664.244 1.98993 2.416 0
M  V30 7348 C 664.719 3.0916 3.37911 0
M  V30 7349 N 666.21 3.08547 3.45475 0
M  V30 7350 C 666.945 3.9043 4.19943 0
M  V30 7351 N 666.441 4.8228 4.97371 0
M  V30 7352 N 668.234 3.786 4.15474 0
M  V30 7353 H 660.385 2.00184 0.709932 0
M  V30 7354 H 662.648 0.870635 0.375099 0
M  V30 7355 H 662.354 2.9499 1.91503 0
M  V30 7356 H 662.228 1.85782 3.28275 0
M  V30 7357 H 664.615 1.00633 2.77411 0
M  V30 7358 H 664.696 2.13292 1.4121 0
M  V30 7359 H 664.34 4.07748 3.02827 0
M  V30 7360 H 664.27 2.92102 4.3816 0
M  V30 7361 H 666.761 2.42 2.90249 0
M  V30 7362 H 667.074 5.41289 5.51567 0
M  V30 7363 H 665.419 4.863 4.96525 0
M  V30 7364 H 668.61 3.06185 3.54074 0
M  V30 7365 H 668.783 4.42647 4.73253 0
M  V30 7366 N 662.189 -1.289 0.906776 0
M  V30 7367 C 663.605 -1.47733 0.603902 0
M  V30 7368 C 663.805 -1.82568 -0.852702 0
M  V30 7369 O 662.861 -1.92642 -1.63234 0
M  V30 7370 C 664.174 -2.58522 1.53581 0
M  V30 7371 C 665.722 -2.72394 1.54177 0
M  V30 7372 C 666.197 -3.86318 2.46013 0
M  V30 7373 N 667.688 -3.93661 2.441 0
M  V30 7374 C 668.423 -4.81177 3.11859 0
M  V30 7375 N 667.919 -5.73333 3.88923 0
M  V30 7376 N 669.712 -4.74728 3.00981 0
M  V30 7377 H 661.863 -1.04567 1.84877 0
M  V30 7378 H 664.126 -0.520118 0.792579 0
M  V30 7379 H 663.832 -2.39667 2.57396 0
M  V30 7380 H 663.706 -3.55475 1.26165 0
M  V30 7381 H 666.093 -2.90641 0.511034 0
M  V30 7382 H 666.174 -1.75993 1.85634 0
M  V30 7383 H 665.818 -3.68826 3.49185 0
M  V30 7384 H 665.748 -4.82102 2.11862 0
M  V30 7385 H 668.239 -3.27751 1.88115 0
M  V30 7386 H 668.552 -6.36923 4.37663 0
M  V30 7387 H 666.897 -5.73196 3.93029 0
M  V30 7388 H 670.088 -4.01722 2.40286 0
M  V30 7389 H 670.261 -5.42719 3.54062 0
M  V30 7390 N 663.667 -0.670007 -1.42649 0
M  V30 7391 C 664.599 0.0501746 -2.29145 0
M  V30 7392 C 665.612 0.770331 -1.43422 0
M  V30 7393 O 666.801 0.625288 -1.6719 0
M  V30 7394 C 663.901 1.09463 -3.20735 0
M  V30 7395 C 663.074 0.44926 -4.35087 0
M  V30 7396 C 662.133 1.39285 -5.07431 0
M  V30 7397 O 661.159 0.894997 -5.6212 0
M  V30 7398 N 662.361 2.72631 -5.12496 0
M  V30 7399 H 665.126 -0.692312 -2.91594 0
M  V30 7400 H 662.687 -0.514056 -1.53522 0
M  V30 7401 H 664.679 1.72705 -3.65999 0
M  V30 7402 H 663.249 1.73891 -2.59771 0
M  V30 7403 H 662.469 -0.362573 -3.92529 0
M  V30 7404 H 663.757 -0.000544776 -5.088 0
M  V30 7405 H 663.155 3.15623 -4.69467 0
M  V30 7406 H 661.712 3.31132 -5.61422 0
M  V30 7407 N 665.145 1.52092 -0.413018 0
M  V30 7408 C 666.075 2.30021 0.401567 0
M  V30 7409 C 667.056 1.34395 1.04269 0
M  V30 7410 O 668.241 1.63304 1.05097 0
M  V30 7411 C 665.371 3.12447 1.51638 0
M  V30 7412 C 664.325 4.16153 1.00005 0
M  V30 7413 C 663.651 4.86948 2.20875 0
M  V30 7414 C 664.951 5.22275 0.0513757 0
M  V30 7415 H 666.645 2.98365 -0.248704 0
M  V30 7416 H 664.191 1.4349 -0.121052 0
M  V30 7417 H 666.144 3.65733 2.09326 0
M  V30 7418 H 664.868 2.41879 2.19458 0
M  V30 7419 H 663.527 3.63882 0.445549 0
M  V30 7420 H 663.175 4.12905 2.8726 0
M  V30 7421 H 662.875 5.57057 1.86978 0
M  V30 7422 H 664.399 5.43048 2.79162 0
M  V30 7423 H 665.813 5.70778 0.537176 0
M  V30 7424 H 664.21 5.9977 -0.198977 0
M  V30 7425 H 665.28 4.76611 -0.892736 0
M  V30 7426 N 666.623 0.143563 1.56945 0
M  V30 7427 C 667.533 -0.810562 2.20152 0
M  V30 7428 C 668.549 -1.27431 1.1848 0
M  V30 7429 O 669.725 -1.33221 1.51044 0
M  V30 7430 C 666.79 -2.03353 2.80799 0
M  V30 7431 C 665.851 -1.61936 3.97587 0
M  V30 7432 C 665.084 -2.78403 4.55332 0
M  V30 7433 O 665.307 -3.94521 4.11958 0
M  V30 7434 O 664.241 -2.54073 5.45647 0
M  V30 7435 H 668.067 -0.30253 3.02189 0
M  V30 7436 H 665.652 -0.0832925 1.49168 0
M  V30 7437 H 667.534 -2.74932 3.19359 0
M  V30 7438 H 666.209 -2.53116 2.01777 0
M  V30 7439 H 665.116 -0.873904 3.6375 0
M  V30 7440 H 666.449 -1.16892 4.78118 0
M  V30 7441 N 668.101 -1.57061 -0.130224 0
M  V30 7442 C 669.011 -2.02802 -1.17934 0
M  V30 7443 C 670.027 -0.946378 -1.46013 0
M  V30 7444 O 671.203 -1.25708 -1.57351 0
M  V30 7445 C 668.268 -2.41368 -2.48882 0
M  V30 7446 C 667.329 -3.63561 -2.28301 0
M  V30 7447 C 666.562 -4.00279 -3.53005 0
M  V30 7448 O 666.785 -3.37463 -4.59864 0
M  V30 7449 O 665.719 -4.93441 -3.44673 0
M  V30 7450 H 669.545 -2.92394 -0.820958 0
M  V30 7451 H 667.13 -1.45475 -0.340197 0
M  V30 7452 H 669.012 -2.66958 -3.26054 0
M  V30 7453 H 667.687 -1.54926 -2.84217 0
M  V30 7454 H 666.594 -3.43136 -1.49025 0
M  V30 7455 H 667.927 -4.50673 -1.97875 0
M  V30 7456 N 669.579 0.400081 -1.52437 0
M  V30 7457 C 670.489 1.51253 -1.79331 0
M  V30 7458 C 671.505 1.60188 -0.679396 0
M  V30 7459 O 672.681 1.76733 -0.965791 0
M  V30 7460 C 669.746 2.869 -1.94652 0
M  V30 7461 C 668.807 2.87777 -3.18564 0
M  V30 7462 C 668.04 4.16954 -3.33145 0
M  V30 7463 O 668.263 5.11329 -2.52783 0
M  V30 7464 O 667.197 4.2487 -4.26343 0
M  V30 7465 H 671.023 1.31461 -2.73773 0
M  V30 7466 H 668.608 0.586834 -1.37392 0
M  V30 7467 H 670.49 3.67336 -2.065 0
M  V30 7468 H 669.165 3.06741 -1.034 0
M  V30 7469 H 668.072 2.06162 -3.12167 0
M  V30 7470 H 669.405 2.72886 -4.09627 0
M  V30 7471 N 671.057 1.43213 0.657864 0
M  V30 7472 C 671.989 1.43974 1.78337 0
M  V30 7473 C 673.002 0.336482 1.59285 0
M  V30 7474 O 674.191 0.600631 1.68091 0
M  V30 7475 C 671.291 1.23242 3.15697 0
M  V30 7476 C 670.464 2.46319 3.61449 0
M  V30 7477 C 669.523 2.2088 4.77597 0
M  V30 7478 O 668.549 2.942 4.87273 0
M  V30 7479 N 669.751 1.22251 5.67481 0
M  V30 7480 H 672.516 2.40993 1.78164 0
M  V30 7481 H 670.077 1.3831 0.841549 0
M  V30 7482 H 672.069 1.04113 3.91079 0
M  V30 7483 H 670.639 0.346849 3.1067 0
M  V30 7484 H 669.859 2.80904 2.76563 0
M  V30 7485 H 671.147 3.28239 3.88763 0
M  V30 7486 H 670.545 0.616433 5.62331 0
M  V30 7487 H 669.102 1.09107 6.42603 0
M  V30 7488 N 672.536 -0.895792 1.29666 0
M  V30 7489 C 673.952 -1.17726 1.07763 0
M  V30 7490 C 674.152 -2.00794 -0.168576 0
M  V30 7491 O 673.208 -2.37213 -0.865244 0
M  V30 7492 C 674.521 -1.89441 2.33522 0
M  V30 7493 C 676.069 -2.02251 2.3888 0
M  V30 7494 C 676.544 -2.77378 3.64452 0
M  V30 7495 N 678.035 -2.8493 3.65198 0
M  V30 7496 C 678.77 -3.43606 4.59045 0
M  V30 7497 N 678.266 -4.03417 5.63228 0
M  V30 7498 N 680.059 -3.41317 4.46608 0
M  V30 7499 H 672.21 -0.341652 2.09634 0
M  V30 7500 H 674.473 -0.213865 0.923561 0
M  V30 7501 H 674.179 -1.35842 3.24407 0
M  V30 7502 H 674.053 -2.89893 2.41334 0
M  V30 7503 H 676.44 -2.55025 1.4848 0
M  V30 7504 H 676.521 -1.0092 2.3505 0
M  V30 7505 H 676.165 -2.25279 4.55205 0
M  V30 7506 H 676.095 -3.79062 3.65541 0
M  V30 7507 H 678.586 -2.42453 2.89871 0
M  V30 7508 H 678.899 -4.46224 6.30955 0
M  V30 7509 H 677.244 -4.01868 5.67033 0
M  V30 7510 H 680.435 -2.93812 3.64407 0
M  V30 7511 H 680.608 -3.86751 5.1993 0
M  V30 7512 N 674.014 -1.12206 -1.10668 0
M  V30 7513 C 674.946 -0.74552 -2.16736 0
M  V30 7514 C 675.959 0.226696 -1.61214 0
M  V30 7515 O 677.148 0.0083936 -1.78498 0
M  V30 7516 C 674.248 -0.0823368 -3.388 0
M  V30 7517 C 673.421 -1.08341 -4.2377 0
M  V30 7518 C 672.48 -0.448292 -5.24287 0
M  V30 7519 O 671.506 -1.10458 -5.58379 0
M  V30 7520 N 672.708 0.785336 -5.75163 0
M  V30 7521 H 675.473 -1.65818 -2.49649 0
M  V30 7522 H 673.034 -1.01335 -1.26265 0
M  V30 7523 H 675.026 0.354476 -4.03145 0
M  V30 7524 H 673.596 0.733041 -3.03884 0
M  V30 7525 H 672.816 -1.69792 -3.55759 0
M  V30 7526 H 674.104 -1.76042 -4.77375 0
M  V30 7527 H 673.502 1.33755 -5.4966 0
M  V30 7528 H 672.059 1.16501 -6.41304 0
M  V30 7529 N 675.492 1.28418 -0.913599 0
M  V30 7530 C 676.422 2.29713 -0.418847 0
M  V30 7531 C 677.403 1.62165 0.513469 0
M  V30 7532 O 678.588 1.89576 0.421235 0
M  V30 7533 C 675.718 3.45612 0.342042 0
M  V30 7534 C 674.672 4.25056 -0.501123 0
M  V30 7535 C 673.998 5.3329 0.388097 0
M  V30 7536 C 675.298 4.91814 -1.75831 0
M  V30 7537 H 676.992 2.71346 -1.26538 0
M  V30 7538 H 674.538 1.30446 -0.609903 0
M  V30 7539 H 676.491 4.15562 0.699 0
M  V30 7540 H 675.215 3.02858 1.22248 0
M  V30 7541 H 673.874 3.56833 -0.840598 0
M  V30 7542 H 673.522 4.8678 1.26707 0
M  V30 7543 H 673.222 5.87347 -0.172459 0
M  V30 7544 H 674.746 6.06088 0.74094 0
M  V30 7545 H 676.16 5.54126 -1.47026 0
M  V30 7546 H 674.557 5.55866 -2.26126 0
M  V30 7547 H 675.627 4.16313 -2.4862 0
M  V30 7548 N 676.97 0.677563 1.42291 0
M  V30 7549 C 677.88 0.000962654 2.346 0
M  V30 7550 C 678.896 -0.785833 1.55244 0
M  V30 7551 O 680.072 -0.727523 1.87801 0
M  V30 7552 C 677.137 -0.936746 3.33805 0
M  V30 7553 C 676.198 -0.144173 4.29058 0
M  V30 7554 C 675.431 -1.03722 5.23524 0
M  V30 7555 O 675.654 -2.27675 5.22992 0
M  V30 7556 O 674.588 -0.496542 5.99848 0
M  V30 7557 H 678.414 0.761397 2.94001 0
M  V30 7558 H 675.999 0.43781 1.42841 0
M  V30 7559 H 677.881 -1.47497 3.94744 0
M  V30 7560 H 676.556 -1.67698 2.76874 0
M  V30 7561 H 675.463 0.438224 3.71524 0
M  V30 7562 H 676.796 0.55701 4.89038 0
M  V30 7563 N 678.448 -1.51871 0.421078 0
M  V30 7564 C 679.697 -2.01125 -0.152206 0
M  V30 7565 C 680.01 -1.3106 -1.45199 0
M  V30 7566 O 681.216 -1.71195 -2.10724 0
M  V30 7567 C 679.672 -3.58458 -0.3218 0
M  V30 7568 C 679.28 -4.37448 0.96659 0
M  V30 7569 C 681.024 -4.15908 -0.84973 0
M  V30 7570 C 678.931 -5.86451 0.763529 0
M  V30 7571 H 677.861 -0.751556 -0.0606565 0
M  V30 7572 H 680.512 -1.75115 0.548354 0
M  V30 7573 H 678.894 -3.80847 -1.08498 0
M  V30 7574 H 680.068 -4.26814 1.73684 0
M  V30 7575 H 678.383 -3.91373 1.42183 0
M  V30 7576 H 680.98 -5.24922 -1.01788 0
M  V30 7577 H 681.323 -3.74031 -1.82774 0
M  V30 7578 H 681.856 -3.97535 -0.145297 0
M  V30 7579 H 678.595 -6.3271 1.71344 0
M  V30 7580 H 678.115 -5.99791 0.0327889 0
M  V30 7581 H 679.794 -6.45697 0.410354 0
M  V30 7582 N 679.926 -0.151884 -1.56866 0
M  V30 7583 C 680.856 0.781943 -2.20018 0
M  V30 7584 C 681.837 1.25347 -1.14987 0
M  V30 7585 O 683.022 1.31015 -1.43348 0
M  V30 7586 C 680.152 2.01928 -2.82564 0
M  V30 7587 C 679.106 1.68434 -3.93464 0
M  V30 7588 C 678.432 2.99472 -4.42968 0
M  V30 7589 C 679.732 0.927244 -5.14003 0
M  V30 7590 H 681.426 0.255607 -2.98307 0
M  V30 7591 H 678.972 0.121502 -1.43486 0
M  V30 7592 H 680.925 2.67741 -3.25411 0
M  V30 7593 H 679.649 2.56943 -2.01614 0
M  V30 7594 H 678.308 1.04998 -3.51242 0
M  V30 7595 H 677.956 3.52488 -3.58834 0
M  V30 7596 H 677.656 2.77823 -5.17772 0
M  V30 7597 H 679.18 3.66348 -4.88489 0
M  V30 7598 H 680.594 1.48756 -5.53665 0
M  V30 7599 H 678.991 0.810513 -5.94601 0
M  V30 7600 H 680.061 -0.0801163 -4.84834 0
M  V30 7601 N 681.404 1.57128 0.121893 0
M  V30 7602 C 682.336 1.96773 1.17529 0
M  V30 7603 C 683.349 0.866668 1.37814 0
M  V30 7604 O 684.538 1.14497 1.3694 0
M  V30 7605 C 681.638 2.24832 2.53582 0
M  V30 7606 C 680.811 3.56138 2.53939 0
M  V30 7607 C 679.87 3.72443 3.71716 0
M  V30 7608 O 678.896 4.44584 3.55434 0
M  V30 7609 N 680.098 3.10993 4.90167 0
M  V30 7610 H 682.863 2.87743 0.838086 0
M  V30 7611 H 680.424 1.58881 0.311199 0
M  V30 7612 H 682.416 2.32958 3.30927 0
M  V30 7613 H 680.986 1.40002 2.79496 0
M  V30 7614 H 680.206 3.59226 1.62329 0
M  V30 7615 H 681.494 4.42448 2.51231 0
M  V30 7616 H 680.892 2.52345 5.06299 0
M  V30 7617 H 679.449 3.24644 5.65198 0
M  V30 7618 N 682.882 -0.391992 1.52647 0
M  V30 7619 C 683.814 -1.49811 1.73463 0
M  V30 7620 C 684.827 -1.50734 0.615078 0
M  V30 7621 O 686.016 -1.5469 0.890696 0
M  V30 7622 C 683.116 -2.88667 1.77552 0
M  V30 7623 C 682.289 -3.11743 3.06815 0
M  V30 7624 C 681.348 -4.30564 3.02491 0
M  V30 7625 O 680.374 -4.27014 3.76361 0
M  V30 7626 N 681.576 -5.36593 2.21468 0
M  V30 7627 H 684.341 -1.32343 2.68897 0
M  V30 7628 H 681.902 -0.581475 1.51098 0
M  V30 7629 H 683.894 -3.66251 1.7217 0
M  V30 7630 H 682.464 -2.99508 0.895181 0
M  V30 7631 H 681.684 -2.2205 3.25711 0
M  V30 7632 H 682.972 -3.24013 3.92292 0
M  V30 7633 H 682.37 -5.42332 1.60913 0
M  V30 7634 H 680.927 -6.12855 2.21928 0
M  V30 7635 N 684.36 -1.4356 -0.65026 0
M  V30 7636 C 685.292 -1.44918 -1.77571 0
M  V30 7637 C 686.305 -0.344925 -1.59104 0
M  V30 7638 O 687.494 -0.609537 -1.6777 0
M  V30 7639 C 684.594 -1.24914 -3.15039 0
M  V30 7640 C 683.767 -2.48232 -3.60138 0
M  V30 7641 C 682.826 -2.23409 -4.76419 0
M  V30 7642 O 681.852 -2.9678 -4.85706 0
M  V30 7643 N 683.054 -1.25259 -5.66825 0
M  V30 7644 H 685.819 -2.41935 -1.76883 0
M  V30 7645 H 683.38 -1.38754 -0.834202 0
M  V30 7646 H 685.372 -1.06185 -3.90521 0
M  V30 7647 H 683.942 -0.363319 -3.10481 0
M  V30 7648 H 683.162 -2.82366 -2.75069 0
M  V30 7649 H 684.45 -3.30296 -3.87017 0
M  V30 7650 H 683.848 -0.646246 -5.61997 0
M  V30 7651 H 682.405 -1.12513 -6.42016 0
M  V30 7652 N 685.838 0.888903 -1.30139 0
M  V30 7653 C 686.768 2.01046 -1.18755 0
M  V30 7654 C 687.749 1.69916 -0.0791438 0
M  V30 7655 O 688.934 1.92445 -0.260498 0
M  V30 7656 C 686.064 3.36109 -0.874518 0
M  V30 7657 C 685.018 3.81486 -1.94043 0
M  V30 7658 C 684.344 5.13796 -1.48047 0
M  V30 7659 C 685.644 4.00637 -3.35093 0
M  V30 7660 H 687.338 2.10828 -2.12584 0
M  V30 7661 H 684.884 1.01298 -1.02346 0
M  V30 7662 H 686.837 4.14089 -0.781548 0
M  V30 7663 H 685.561 3.26449 0.0994519 0
M  V30 7664 H 684.22 3.05731 -2.02297 0
M  V30 7665 H 683.868 5.0056 -0.494878 0
M  V30 7666 H 683.568 5.45127 -2.19341 0
M  V30 7667 H 685.092 5.94305 -1.40121 0
M  V30 7668 H 686.506 4.69067 -3.2962 0
M  V30 7669 H 684.903 4.43339 -4.04438 0
M  V30 7670 H 685.973 3.0462 -3.77273 0
M  V30 7671 N 687.317 1.12792 1.10072 0
M  V30 7672 C 688.247 0.821688 2.18565 0
M  V30 7673 C 689.228 -0.21612 1.68721 0
M  V30 7674 O 690.413 -0.0764932 1.94049 0
M  V30 7675 C 687.543 0.279624 3.46172 0
M  V30 7676 C 686.497 1.25092 4.09312 0
M  V30 7677 C 685.823 0.568916 5.31665 0
M  V30 7678 C 687.123 2.60699 4.52585 0
M  V30 7679 H 688.817 1.72888 2.44438 0
M  V30 7680 H 686.363 0.832702 1.17482 0
M  V30 7681 H 688.316 0.053099 4.21367 0
M  V30 7682 H 687.04 -0.662929 3.19801 0
M  V30 7683 H 685.699 1.46332 3.36129 0
M  V30 7684 H 685.347 -0.378898 5.01571 0
M  V30 7685 H 685.047 1.21687 5.74862 0
M  V30 7686 H 686.571 0.351517 6.09587 0
M  V30 7687 H 687.985 2.43465 5.19035 0
M  V30 7688 H 686.382 3.21608 5.06644 0
M  V30 7689 H 687.452 3.1886 3.65317 0
M  V30 7690 N 688.795 -1.27931 0.920396 0
M  V30 7691 C 689.745 -2.24727 0.384966 0
M  V30 7692 C 690.729 -1.52715 -0.506661 0
M  V30 7693 O 691.921 -1.73599 -0.345298 0
M  V30 7694 C 689.05 -3.41324 -0.3678 0
M  V30 7695 C 688.136 -4.20649 0.539925 0
M  V30 7696 N 688.527 -4.77906 1.6565 0
M  V30 7697 C 686.825 -4.4469 0.341557 0
M  V30 7698 C 687.526 -5.37652 2.22047 0
M  V30 7699 N 686.502 -5.2218 1.51093 0
M  V30 7700 H 690.304 -2.66572 1.23761 0
M  V30 7701 H 687.818 -1.42779 0.773819 0
M  V30 7702 H 689.815 -4.0976 -0.768277 0
M  V30 7703 H 688.475 -3.01012 -1.21746 0
M  V30 7704 H 689.486 -4.76073 2.03899 0
M  V30 7705 H 686.163 -4.14868 -0.468045 0
M  V30 7706 H 687.553 -5.92948 3.1601 0
M  V30 7707 N 690.273 -0.685099 -1.4193 0
M  V30 7708 C 691.183 -0.013404 -2.34596 0
M  V30 7709 C 692.199 0.777589 -1.55658 0
M  V30 7710 O 693.375 0.717553 -1.88184 0
M  V30 7711 C 690.44 0.919031 -3.34297 0
M  V30 7712 C 689.501 0.121417 -4.29128 0
M  V30 7713 C 688.734 1.00944 -5.24067 0
M  V30 7714 O 688.957 2.24898 -5.24192 0
M  V30 7715 O 687.891 0.464724 -6.00103 0
M  V30 7716 H 691.717 -0.776978 -2.93593 0
M  V30 7717 H 689.302 -0.445379 -1.42607 0
M  V30 7718 H 691.184 1.45402 -3.9552 0
M  V30 7719 H 689.859 1.66228 -2.77759 0
M  V30 7720 H 688.766 -0.45792 -3.71287 0
M  V30 7721 H 690.099 -0.582937 -4.88736 0
M  V30 7722 N 691.751 1.51645 -0.429126 0
M  V30 7723 C 692.683 2.25279 0.422124 0
M  V30 7724 C 693.696 1.28986 0.993299 0
M  V30 7725 O 694.885 1.54797 0.888836 0
M  V30 7726 C 691.985 2.98666 1.60162 0
M  V30 7727 C 691.158 4.2199 1.15078 0
M  V30 7728 C 690.217 4.78028 2.19946 0
M  V30 7729 O 689.243 5.40084 1.79716 0
M  V30 7730 N 690.445 4.61342 3.5234 0
M  V30 7731 H 693.21 2.98971 -0.208931 0
M  V30 7732 H 690.771 1.59838 -0.257568 0
M  V30 7733 H 692.763 3.33044 2.29922 0
M  V30 7734 H 691.333 2.28036 2.13818 0
M  V30 7735 H 690.553 3.932 0.280552 0
M  V30 7736 H 691.841 5.02037 0.826831 0
M  V30 7737 H 691.239 4.11894 3.87763 0
M  V30 7738 H 689.796 5.00104 4.18019 0
M  V30 7739 N 693.229 0.160201 1.56784 0
M  V30 7740 C 694.192 -0.760405 2.16219 0
M  V30 7741 C 695.192 -1.16595 1.10735 0
M  V30 7742 O 696.382 -1.08472 1.36306 0
M  V30 7743 C 693.514 -2.03358 2.73603 0
M  V30 7744 H 694.707 -0.243173 2.98912 0
M  V30 7745 H 692.26 -0.0893139 1.56045 0
M  V30 7746 H 692.995 -2.59416 1.94612 0
M  V30 7747 H 692.78 -1.75186 3.50788 0
M  V30 7748 H 694.27 -2.69081 3.19351 0
M  V30 7749 N 694.707 -1.5719 -0.113559 0
M  V30 7750 C 695.637 -2.03772 -1.14013 0
M  V30 7751 C 696.618 -0.923176 -1.42869 0
M  V30 7752 O 697.803 -1.19325 -1.53216 0
M  V30 7753 C 694.933 -2.44663 -2.4649 0
M  V30 7754 C 693.887 -3.59612 -2.32085 0
M  V30 7755 C 693.213 -3.8642 -3.69573 0
M  V30 7756 C 694.513 -4.91149 -1.7768 0
M  V30 7757 H 696.207 -2.89785 -0.752665 0
M  V30 7758 H 693.753 -1.39412 -0.360609 0
M  V30 7759 H 695.706 -2.75857 -3.18561 0
M  V30 7760 H 694.43 -1.55628 -2.87137 0
M  V30 7761 H 693.089 -3.28636 -1.62461 0
M  V30 7762 H 692.737 -2.94581 -4.07715 0
M  V30 7763 H 692.437 -4.63797 -3.60786 0
M  V30 7764 H 693.961 -4.2007 -4.4314 0
M  V30 7765 H 695.375 -5.20843 -2.39574 0
M  V30 7766 H 693.772 -5.72562 -1.79701 0
M  V30 7767 H 694.842 -4.79301 -0.734776 0
M  V30 7768 N 696.185 0.383891 -1.52853 0
M  V30 7769 C 697.115 1.47559 -1.80965 0
M  V30 7770 C 698.096 1.5669 -0.661986 0
M  V30 7771 O 699.281 1.71556 -0.910072 0
M  V30 7772 C 696.411 2.85114 -1.98312 0
M  V30 7773 C 695.365 2.9082 -3.14019 0
M  V30 7774 C 694.691 4.30873 -3.16627 0
M  V30 7775 C 695.991 2.60001 -4.52986 0
M  V30 7776 H 697.685 1.24283 -2.72386 0
M  V30 7777 H 695.231 0.596445 -1.31067 0
M  V30 7778 H 697.184 3.61496 -2.16561 0
M  V30 7779 H 695.908 3.09738 -1.03585 0
M  V30 7780 H 694.567 2.16886 -2.9556 0
M  V30 7781 H 694.215 4.52545 -2.19573 0
M  V30 7782 H 693.915 4.3561 -3.94357 0
M  V30 7783 H 695.439 5.09154 -3.37038 0
M  V30 7784 H 696.853 3.261 -4.71521 0
M  V30 7785 H 695.25 2.76081 -5.32822 0
M  V30 7786 H 696.32 1.5532 -4.59351 0
M  V30 7787 N 697.663 1.43903 0.642637 0
M  V30 7788 C 698.593 1.52697 1.76652 0
M  V30 7789 C 699.574 0.380816 1.65782 0
M  V30 7790 O 700.759 0.599432 1.84717 0
M  V30 7791 C 697.889 1.45975 3.15133 0
M  V30 7792 C 696.843 2.58949 3.40778 0
M  V30 7793 C 696.169 2.37279 4.79169 0
M  V30 7794 C 697.469 4.01153 3.34475 0
M  V30 7795 H 699.163 2.46766 1.69549 0
M  V30 7796 H 696.709 1.18767 0.814279 0
M  V30 7797 H 698.662 1.5073 3.93521 0
M  V30 7798 H 697.386 0.484162 3.22991 0
M  V30 7799 H 696.045 2.53564 2.64765 0
M  V30 7800 H 695.693 1.37939 4.83717 0
M  V30 7801 H 695.393 3.13016 4.97287 0
M  V30 7802 H 696.917 2.43834 5.59801 0
M  V30 7803 H 698.331 4.07968 4.02784 0
M  V30 7804 H 696.728 4.77001 3.64129 0
M  V30 7805 H 697.798 4.25539 2.32475 0
M  V30 7806 N 699.141 -0.881989 1.30609 0
M  V30 7807 C 700.051 -2.02076 1.19174 0
M  V30 7808 C 701.067 -1.73645 0.11102 0
M  V30 7809 O 702.243 -1.98735 0.326528 0
M  V30 7810 C 699.308 -3.3515 0.887438 0
M  V30 7811 C 698.369 -3.76983 2.05383 0
M  V30 7812 C 697.602 -5.03707 1.76395 0
M  V30 7813 O 697.825 -5.66171 0.693302 0
M  V30 7814 O 696.759 -5.42019 2.61723 0
M  V30 7815 H 700.585 -2.14652 2.14845 0
M  V30 7816 H 698.17 -1.00843 1.10232 0
M  V30 7817 H 700.052 -4.14975 0.73306 0
M  V30 7818 H 698.727 -3.23676 -0.0393354 0
M  V30 7819 H 697.634 -2.97849 2.26355 0
M  V30 7820 H 698.967 -3.93066 2.96243 0
M  V30 7821 N 700.619 -1.13374 -1.09472 0
M  V30 7822 C 701.849 -0.917019 -1.85133 0
M  V30 7823 C 702.257 0.537568 -1.81402 0
M  V30 7824 O 701.6 1.38385 -1.20811 0
M  V30 7825 C 701.662 -1.32646 -3.34134 0
M  V30 7826 C 701.326 -2.79437 -3.61613 0
M  V30 7827 C 702.323 -3.77596 -3.57375 0
M  V30 7828 C 700.008 -3.16586 -3.89973 0
M  V30 7829 C 702.002 -5.10916 -3.81108 0
M  V30 7830 C 699.689 -4.50085 -4.13361 0
M  V30 7831 C 700.687 -5.47059 -4.0892 0
M  V30 7832 O 700.375 -6.78149 -4.31705 0
M  V30 7833 H 700.107 -0.326997 -0.591649 0
M  V30 7834 H 702.661 -1.51002 -1.39239 0
M  V30 7835 H 700.891 -0.676719 -3.80733 0
M  V30 7836 H 702.58 -1.08229 -3.91205 0
M  V30 7837 H 703.346 -3.50242 -3.35493 0
M  V30 7838 H 699.225 -2.41707 -3.92554 0
M  V30 7839 H 702.769 -5.86597 -3.77558 0
M  V30 7840 H 698.666 -4.77163 -4.34724 0
M  V30 7841 H 699.434 -6.84244 -4.49168 0
M  V30 7842 N 702.098 1.27442 -0.927168 0
M  V30 7843 C 703.045 2.26863 -0.424459 0
M  V30 7844 C 704.015 1.5813 0.508346 0
M  V30 7845 O 705.2 1.85946 0.42762 0
M  V30 7846 C 702.34 3.43639 0.31718 0
M  V30 7847 C 701.453 4.27087 -0.649675 0
M  V30 7848 C 700.588 5.31082 0.111753 0
M  V30 7849 C 699.627 6.062 -0.847843 0
M  V30 7850 N 698.764 7.01999 -0.119074 0
M  V30 7851 H 703.604 2.69239 -1.27728 0
M  V30 7852 H 701.141 1.32394 -0.641106 0
M  V30 7853 H 703.099 4.10155 0.763486 0
M  V30 7854 H 701.729 3.02217 1.13424 0
M  V30 7855 H 700.781 3.60491 -1.21451 0
M  V30 7856 H 702.093 4.79242 -1.38307 0
M  V30 7857 H 701.247 6.03544 0.618 0
M  V30 7858 H 699.986 4.7973 0.878114 0
M  V30 7859 H 698.991 5.32577 -1.36534 0
M  V30 7860 H 700.216 6.59642 -1.61398 0
M  V30 7861 H 698.162 6.52977 0.629051 0
M  V30 7862 H 698.079 7.5184 -0.792046 0
M  V30 7863 H 699.347 7.78638 0.366537 0
M  V30 7864 N 703.576 0.692616 1.41565 0
M  V30 7865 C 704.992 0.363878 1.55397 0
M  V30 7866 C 705.192 -1.1294 1.66874 0
M  V30 7867 O 704.248 -1.91517 1.64552 0
M  V30 7868 C 705.561 1.10982 2.7947 0
M  V30 7869 C 707.109 1.09387 2.93263 0
M  V30 7870 C 707.584 1.8215 4.20221 0
M  V30 7871 N 709.075 1.79105 4.27172 0
M  V30 7872 C 709.81 2.32247 5.2426 0
M  V30 7873 N 709.306 2.93847 6.27396 0
M  V30 7874 N 711.099 2.22519 5.1618 0
M  V30 7875 H 703.25 1.66116 1.3236 0
M  V30 7876 H 705.513 0.700848 0.63837 0
M  V30 7877 H 705.219 2.1647 2.77188 0
M  V30 7878 H 705.093 0.686492 3.709 0
M  V30 7879 H 707.48 0.0472638 2.95062 0
M  V30 7880 H 707.561 1.55623 2.03015 0
M  V30 7881 H 707.205 2.86789 4.19183 0
M  V30 7882 H 707.135 1.33351 5.09436 0
M  V30 7883 H 709.626 1.34191 3.53272 0
M  V30 7884 H 709.939 3.31972 6.97864 0
M  V30 7885 H 708.284 2.97924 6.27906 0
M  V30 7886 H 711.475 1.7407 4.34531 0
M  V30 7887 H 711.648 2.64239 5.91677 0
M  V30 7888 N 705.054 -1.51416 0.437162 0
M  V30 7889 C 706.001 -2.27743 -0.374374 0
M  V30 7890 C 706.971 -1.31327 -1.01698 0
M  V30 7891 O 708.156 -1.60229 -1.03592 0
M  V30 7892 C 705.296 -3.12241 -1.46969 0
M  V30 7893 C 704.409 -4.23651 -0.845236 0
M  V30 7894 C 703.544 -4.95458 -1.91559 0
M  V30 7895 C 702.583 -5.98789 -1.26956 0
M  V30 7896 N 701.72 -6.64005 -2.28126 0
M  V30 7897 H 706.56 -2.96654 0.282892 0
M  V30 7898 H 704.097 -1.46319 0.151352 0
M  V30 7899 H 706.055 -3.59556 -2.11602 0
M  V30 7900 H 704.685 -2.45445 -2.09659 0
M  V30 7901 H 703.737 -3.803 -0.0872059 0
M  V30 7902 H 705.049 -4.97683 -0.333582 0
M  V30 7903 H 704.203 -5.46321 -2.63854 0
M  V30 7904 H 702.942 -4.21055 -2.46097 0
M  V30 7905 H 701.947 -5.47219 -0.53207 0
M  V30 7906 H 703.172 -6.75149 -0.731509 0
M  V30 7907 H 701.118 -5.92415 -2.81745 0
M  V30 7908 H 701.035 -7.33802 -1.81852 0
M  V30 7909 H 702.303 -7.19498 -2.99905 0
M  V30 7910 N 706.532 -0.168513 -1.56696 0
M  V30 7911 C 707.464 0.794249 -2.14998 0
M  V30 7912 C 708.477 1.1957 -1.10485 0
M  V30 7913 O 709.666 1.13604 -1.37682 0
M  V30 7914 C 706.766 2.08018 -2.67547 0
M  V30 7915 C 705.939 1.84274 -3.96689 0
M  V30 7916 C 704.998 2.97059 -4.3433 0
M  V30 7917 O 704.024 2.67815 -5.02259 0
M  V30 7918 N 705.226 4.24775 -3.9566 0
M  V30 7919 H 707.991 0.295832 -2.98236 0
M  V30 7920 H 705.552 0.0143611 -1.61894 0
M  V30 7921 H 707.544 2.82559 -2.89729 0
M  V30 7922 H 706.114 2.49059 -1.88914 0
M  V30 7923 H 705.334 0.936528 -3.82914 0
M  V30 7924 H 706.622 1.65773 -4.81037 0
M  V30 7925 H 706.02 4.51395 -3.40968 0
M  V30 7926 H 704.577 4.96027 -4.22848 0
M  V30 7927 N 708.01 1.57248 0.105221 0
M  V30 7928 C 708.94 2.04374 1.12931 0
M  V30 7929 C 709.921 0.93074 1.42377 0
M  V30 7930 O 711.106 1.20136 1.52581 0
M  V30 7931 C 708.236 2.45967 2.45189 0
M  V30 7932 C 707.19 3.60838 2.30174 0
M  V30 7933 C 706.516 3.88374 3.67518 0
M  V30 7934 C 707.816 4.92084 1.75073 0
M  V30 7935 H 709.51 2.9018 0.737287 0
M  V30 7936 H 707.056 1.39601 0.353211 0
M  V30 7937 H 709.009 2.77542 3.17094 0
M  V30 7938 H 707.733 1.57148 2.86308 0
M  V30 7939 H 706.392 3.29493 1.60716 0
M  V30 7940 H 706.04 2.96739 4.06147 0
M  V30 7941 H 705.74 4.65703 3.58321 0
M  V30 7942 H 707.264 4.22415 4.40906 0
M  V30 7943 H 708.678 5.22106 2.36809 0
M  V30 7944 H 707.075 5.73507 1.76662 0
M  V30 7945 H 708.145 4.79684 0.709347 0
M  V30 7946 N 709.488 -0.375779 1.53054 0
M  V30 7947 C 710.398 -1.48381 1.81715 0
M  V30 7948 C 711.414 -1.59087 0.704795 0
M  V30 7949 O 712.59 -1.75174 0.993785 0
M  V30 7950 C 709.655 -2.83767 1.99192 0
M  V30 7951 C 708.716 -2.82673 3.23102 0
M  V30 7952 C 707.949 -4.11601 3.39736 0
M  V30 7953 O 708.172 -5.07243 2.60885 0
M  V30 7954 O 707.106 -4.18034 4.33049 0
M  V30 7955 H 710.932 -1.27089 2.7583 0
M  V30 7956 H 708.517 -0.564902 1.38308 0
M  V30 7957 H 710.399 -3.64004 2.12318 0
M  V30 7958 H 709.074 -3.05057 1.08267 0
M  V30 7959 H 707.981 -2.0117 3.15407 0
M  V30 7960 H 709.314 -2.66335 4.13916 0
M  V30 7961 N 710.966 -1.44241 -0.634997 0
M  V30 7962 C 711.876 -1.53293 -1.77591 0
M  V30 7963 C 712.892 -0.418831 -1.68884 0
M  V30 7964 O 714.068 -0.675619 -1.8973 0
M  V30 7965 C 711.133 -1.47075 -3.13958 0
M  V30 7966 C 710.194 -2.69304 -3.34326 0
M  V30 7967 C 709.427 -2.63374 -4.64187 0
M  V30 7968 O 709.65 -1.69161 -5.44739 0
M  V30 7969 O 708.584 -3.54166 -4.86673 0
M  V30 7970 H 712.41 -2.49673 -1.72908 0
M  V30 7971 H 709.995 -1.26445 -0.795745 0
M  V30 7972 H 711.877 -1.46117 -3.95257 0
M  V30 7973 H 710.552 -0.538373 -3.19192 0
M  V30 7974 H 709.459 -2.75831 -2.52721 0
M  V30 7975 H 710.792 -3.61576 -3.33951 0
M  V30 7976 N 712.444 0.87505 -1.31075 0
M  V30 7977 C 713.376 1.98773 -1.14114 0
M  V30 7978 C 714.389 1.62595 -0.0816119 0
M  V30 7979 O 715.578 1.75449 -0.32861 0
M  V30 7980 C 712.678 3.31159 -0.720224 0
M  V30 7981 C 711.851 3.9571 -1.86366 0
M  V30 7982 C 710.91 5.06407 -1.42965 0
M  V30 7983 O 709.936 5.27501 -2.13848 0
M  V30 7984 N 711.138 5.79649 -0.314194 0
M  V30 7985 H 713.903 2.1387 -2.09951 0
M  V30 7986 H 711.464 1.04873 -1.23342 0
M  V30 7987 H 713.456 4.0259 -0.412687 0
M  V30 7988 H 712.026 3.12257 0.146396 0
M  V30 7989 H 711.246 3.17324 -2.33879 0
M  V30 7990 H 712.534 4.35576 -2.62966 0
M  V30 7991 H 711.932 5.65025 0.276228 0
M  V30 7992 H 710.489 6.51766 -0.0661641 0
M  V30 7993 N 713.922 1.13953 1.08869 0
M  V30 7994 C 715.338 0.878924 1.33218 0
M  V30 7995 C 715.538 -0.482478 1.95638 0
M  V30 7996 O 714.594 -1.22778 2.2064 0
M  V30 7997 C 715.907 2.00798 2.23832 0
M  V30 7998 C 717.455 2.04073 2.37325 0
M  V30 7999 C 717.93 3.16258 3.31278 0
M  V30 8000 N 719.421 3.15805 3.38853 0
M  V30 8001 C 720.156 3.99249 4.11567 0
M  V30 8002 N 719.652 4.92721 4.87029 0
M  V30 8003 N 721.445 3.87327 4.0735 0
M  V30 8004 H 713.596 2.01645 0.66731 0
M  V30 8005 H 715.859 0.878395 0.356547 0
M  V30 8006 H 715.565 2.98986 1.85203 0
M  V30 8007 H 715.439 1.92704 3.24261 0
M  V30 8008 H 717.826 1.06495 2.75214 0
M  V30 8009 H 717.907 2.16239 1.36654 0
M  V30 8010 H 717.551 4.14079 2.9411 0
M  V30 8011 H 717.481 3.0133 4.31866 0
M  V30 8012 H 719.972 2.48102 2.8505 0
M  V30 8013 H 720.285 5.52867 5.39961 0
M  V30 8014 H 718.63 4.96723 4.86098 0
M  V30 8015 H 721.821 3.13627 3.475 0
M  V30 8016 H 721.994 4.52585 4.63757 0
M  V30 8017 N 715.4 -1.26948 0.933913 0
M  V30 8018 C 716.332 -2.25768 0.395137 0
M  V30 8019 C 717.345 -1.55637 -0.477585 0
M  V30 8020 O 718.534 -1.76142 -0.289204 0
M  V30 8021 C 715.634 -3.35874 -0.451882 0
M  V30 8022 C 714.807 -4.3554 0.40299 0
M  V30 8023 C 713.866 -5.24809 -0.3824 0
M  V30 8024 O 712.892 -5.68805 0.212057 0
M  V30 8025 N 714.094 -5.55636 -1.68072 0
M  V30 8026 H 716.859 -2.72634 1.24463 0
M  V30 8027 H 714.42 -1.40639 0.802008 0
M  V30 8028 H 716.412 -3.92542 -0.984516 0
M  V30 8029 H 714.982 -2.8856 -1.20215 0
M  V30 8030 H 714.202 -3.78047 1.11688 0
M  V30 8031 H 715.49 -4.99131 0.987201 0
M  V30 8032 H 714.888 -5.2176 -2.18592 0
M  V30 8033 H 713.445 -6.14978 -2.15975 0
M  V30 8034 N 716.879 -0.700114 -1.41195 0
M  V30 8035 C 717.842 -0.0465706 -2.29153 0
M  V30 8036 C 718.842 0.703302 -1.44604 0
M  V30 8037 O 720.032 0.537513 -1.657 0
M  V30 8038 C 717.164 0.944324 -3.2756 0
M  V30 8039 H 718.357 -0.821064 -2.88442 0
M  V30 8040 H 715.91 -0.463869 -1.49258 0
M  V30 8041 H 716.645 1.74642 -2.73259 0
M  V30 8042 H 716.43 0.409701 -3.89954 0
M  V30 8043 H 717.92 1.39925 -3.9346 0
M  V30 8044 N 718.357 1.51182 -0.445186 0
M  V30 8045 C 719.267 2.31692 0.368255 0
M  V30 8046 C 720.283 1.40942 1.02036 0
M  V30 8047 O 721.459 1.74011 1.01401 0
M  V30 8048 C 718.524 3.14903 1.45041 0
M  V30 8049 C 717.585 4.21442 0.817615 0
M  V30 8050 C 716.818 5.00677 1.8482 0
M  V30 8051 O 717.041 4.80644 3.07145 0
M  V30 8052 O 715.975 5.84559 1.43438 0
M  V30 8053 H 719.801 3.0232 -0.289219 0
M  V30 8054 H 717.386 1.47951 -0.207555 0
M  V30 8055 H 719.268 3.66612 2.07783 0
M  V30 8056 H 717.943 2.47031 2.09182 0
M  V30 8057 H 716.85 3.73791 0.151931 0
M  V30 8058 H 718.183 4.9171 0.219564 0
M  V30 8059 N 719.835 0.176821 1.56605 0
M  V30 8060 C 721.251 -0.179278 1.5859 0
M  V30 8061 C 721.451 -1.62433 1.19238 0
M  V30 8062 O 720.507 -2.35665 0.906552 0
M  V30 8063 C 721.82 0.106524 3.00511 0
M  V30 8064 C 723.368 0.0451731 3.12967 0
M  V30 8065 C 723.843 0.304038 4.5699 0
M  V30 8066 N 725.334 0.252008 4.62514 0
M  V30 8067 C 726.069 0.426404 5.71812 0
M  V30 8068 N 725.565 0.660155 6.89648 0
M  V30 8069 N 727.358 0.361926 5.60934 0
M  V30 8070 H 719.509 1.12001 1.8047 0
M  V30 8071 H 721.772 0.445679 0.836704 0
M  V30 8072 H 721.478 1.10778 3.33798 0
M  V30 8073 H 721.352 -0.599337 3.72408 0
M  V30 8074 H 723.739 -0.946662 2.79504 0
M  V30 8075 H 723.82 0.78383 2.43495 0
M  V30 8076 H 723.464 1.29311 4.91163 0
M  V30 8077 H 723.394 -0.455294 5.24628 0
M  V30 8078 H 725.885 0.0772102 3.77821 0
M  V30 8079 H 726.198 0.782529 7.68828 0
M  V30 8080 H 724.543 0.696835 6.91498 0
M  V30 8081 H 727.734 0.17986 4.67754 0
M  V30 8082 H 727.907 0.501263 6.46058 0
M  V30 8083 N 721.313 -1.57302 -0.09688 0
M  V30 8084 C 722.243 -2.0497 -1.11846 0
M  V30 8085 C 723.224 -0.938278 -1.41882 0
M  V30 8086 O 724.409 -1.20943 -1.51942 0
M  V30 8087 C 721.539 -2.47264 -2.43881 0
M  V30 8088 C 720.493 -3.62053 -2.28257 0
M  V30 8089 C 719.819 -3.90318 -3.65453 0
M  V30 8090 C 721.119 -4.93005 -1.72461 0
M  V30 8091 H 722.813 -2.90567 -0.721888 0
M  V30 8092 H 720.359 -1.39786 -0.345803 0
M  V30 8093 H 722.312 -2.7922 -3.15617 0
M  V30 8094 H 721.036 -1.58664 -2.8547 0
M  V30 8095 H 719.695 -3.30341 -1.58967 0
M  V30 8096 H 719.343 -2.98889 -4.04567 0
M  V30 8097 H 719.043 -4.67597 -3.55846 0
M  V30 8098 H 720.567 -4.24747 -4.3866 0
M  V30 8099 H 721.981 -5.23354 -2.34036 0
M  V30 8100 H 720.378 -5.74436 -1.73618 0
M  V30 8101 H 721.448 -4.80053 -0.683898 0
M  V30 8102 N 722.791 0.367657 -1.53252 0
M  V30 8103 C 723.723 1.47032 -1.75824 0
M  V30 8104 C 724.736 1.49736 -0.63898 0
M  V30 8105 O 725.925 1.53253 -0.915193 0
M  V30 8106 C 723.025 2.85805 -1.82122 0
M  V30 8107 C 722.198 3.06822 -3.11736 0
M  V30 8108 C 721.257 4.25698 -3.09302 0
M  V30 8109 O 720.283 4.20972 -3.83107 0
M  V30 8110 N 721.485 5.33002 -2.29977 0
M  V30 8111 H 724.25 1.28048 -2.70968 0
M  V30 8112 H 721.811 0.557363 -1.52004 0
M  V30 8113 H 723.803 3.63465 -1.77975 0
M  V30 8114 H 722.373 2.98046 -0.942716 0
M  V30 8115 H 721.593 2.1684 -3.29202 0
M  V30 8116 H 722.881 3.17731 -3.97397 0
M  V30 8117 H 722.279 5.39703 -1.69521 0
M  V30 8118 H 720.836 6.09247 -2.3165 0
M  V30 8119 N 724.269 1.44576 0.627338 0
M  V30 8120 C 725.685 1.28546 0.945938 0
M  V30 8121 C 725.885 0.224003 2.00251 0
M  V30 8122 O 724.941 -0.388817 2.49488 0
M  V30 8123 C 726.254 2.65825 1.40561 0
M  V30 8124 C 727.802 2.73566 1.52088 0
M  V30 8125 C 728.277 4.11323 2.01438 0
M  V30 8126 N 729.768 4.13519 2.08702 0
M  V30 8127 C 730.503 5.16964 2.48065 0
M  V30 8128 N 729.999 6.30768 2.86538 0
M  V30 8129 N 731.792 5.04319 2.48232 0
M  V30 8130 H 723.943 2.1228 -0.0713567 0
M  V30 8131 H 726.206 0.947503 0.0307081 0
M  V30 8132 H 725.912 3.44591 0.703539 0
M  V30 8133 H 725.786 2.92969 2.37591 0
M  V30 8134 H 728.173 1.95116 2.21391 0
M  V30 8135 H 728.254 2.50159 0.534237 0
M  V30 8136 H 727.898 4.9025 1.32729 0
M  V30 8137 H 727.828 4.32109 3.0098 0
M  V30 8138 H 730.319 3.31385 1.81638 0
M  V30 8139 H 730.632 7.0551 3.15398 0
M  V30 8140 H 728.977 6.342 2.84281 0
M  V30 8141 H 732.168 4.14465 2.17569 0
M  V30 8142 H 732.341 5.85059 2.78585 0
M  V30 8143 N 725.747 -0.868086 1.31537 0
M  V30 8144 C 726.679 -1.98165 1.15166 0
M  V30 8145 C 727.692 -1.6255 0.0902335 0
M  V30 8146 O 728.881 -1.75272 0.33791 0
M  V30 8147 C 725.981 -3.30772 0.737776 0
M  V30 8148 C 725.154 -3.94716 1.88462 0
M  V30 8149 C 724.213 -5.05641 1.45648 0
M  V30 8150 O 723.239 -5.2636 2.16642 0
M  V30 8151 N 724.441 -5.79474 0.34493 0
M  V30 8152 H 727.206 -2.12754 2.11083 0
M  V30 8153 H 724.767 -1.04217 1.23897 0
M  V30 8154 H 726.759 -4.02366 0.434032 0
M  V30 8155 H 725.329 -3.1233 -0.129834 0
M  V30 8156 H 724.549 -3.16079 2.35558 0
M  V30 8157 H 725.837 -4.34175 2.65273 0
M  V30 8158 H 725.235 -5.65164 -0.246259 0
M  V30 8159 H 723.792 -6.51722 0.100728 0
M  V30 8160 N 727.225 -1.14528 -1.08264 0
M  V30 8161 C 728.155 -0.856356 -2.1723 0
M  V30 8162 C 729.136 0.189251 -1.69044 0
M  V30 8163 O 730.321 0.0456119 -1.94146 0
M  V30 8164 C 727.451 -0.334662 -3.45684 0
M  V30 8165 C 726.405 -1.31588 -4.0727 0
M  V30 8166 C 725.731 -0.653428 -5.30692 0
M  V30 8167 C 727.031 -2.67866 -4.48381 0
M  V30 8168 H 728.725 -1.76755 -2.41657 0
M  V30 8169 H 726.271 -0.851287 -1.16143 0
M  V30 8170 H 728.224 -0.120128 -4.21229 0
M  V30 8171 H 726.948 0.611967 -3.20815 0
M  V30 8172 H 725.607 -1.51661 -3.33758 0
M  V30 8173 H 725.255 0.299054 -5.0211 0
M  V30 8174 H 724.955 -1.30817 -5.72853 0
M  V30 8175 H 726.479 -0.448453 -6.08951 0
M  V30 8176 H 727.893 -2.51692 -5.15096 0
M  V30 8177 H 726.29 -3.29627 -5.01464 0
M  V30 8178 H 727.36 -3.24632 -3.60198 0
M  V30 8179 N 728.703 1.26451 -0.940633 0
M  V30 8180 C 729.65 2.264 -0.448497 0
M  V30 8181 C 730.62 1.5866 0.491546 0
M  V30 8182 O 731.805 1.86389 0.407874 0
M  V30 8183 C 728.945 3.43956 0.280715 0
M  V30 8184 C 728.058 4.26374 -0.694937 0
M  V30 8185 C 727.193 5.31171 0.0554186 0
M  V30 8186 C 726.232 6.05266 -0.912091 0
M  V30 8187 N 725.369 7.01833 -0.193524 0
M  V30 8188 H 730.209 2.67869 -1.30576 0
M  V30 8189 H 727.746 1.31707 -0.655112 0
M  V30 8190 H 729.704 4.10941 0.71994 0
M  V30 8191 H 728.334 3.03403 1.10212 0
M  V30 8192 H 727.386 3.59183 -1.25267 0
M  V30 8193 H 728.698 4.77748 -1.43382 0
M  V30 8194 H 727.852 6.04166 0.553951 0
M  V30 8195 H 726.591 4.80634 0.827183 0
M  V30 8196 H 725.596 5.31099 -1.42175 0
M  V30 8197 H 726.821 6.57893 -1.68385 0
M  V30 8198 H 724.767 6.53607 0.559758 0
M  V30 8199 H 724.684 7.50957 -0.871744 0
M  V30 8200 H 725.952 7.78983 0.283932 0
M  V30 8201 N 730.181 0.707592 1.40822 0
M  V30 8202 C 731.113 0.0105968 2.29198 0
M  V30 8203 C 732.126 -0.732035 1.45414 0
M  V30 8204 O 733.315 -0.580741 1.68789 0
M  V30 8205 C 730.415 -1.00921 3.23525 0
M  V30 8206 C 729.588 -0.333747 4.36125 0
M  V30 8207 C 728.647 -1.25783 5.10945 0
M  V30 8208 O 727.673 -0.745646 5.64295 0
M  V30 8209 N 728.875 -2.58947 5.19545 0
M  V30 8210 H 731.64 0.76938 2.89656 0
M  V30 8211 H 729.201 0.554579 1.52105 0
M  V30 8212 H 731.193 -1.6294 3.70449 0
M  V30 8213 H 729.763 -1.66942 2.6429 0
M  V30 8214 H 728.983 0.466518 3.9143 0
M  V30 8215 H 730.271 0.135444 5.0862 0
M  V30 8216 H 729.669 -3.03065 4.7767 0
M  V30 8217 H 728.226 -3.16131 5.70004 0
M  V30 8218 N 731.66 -1.50943 0.453197 0
M  V30 8219 C 732.57 -2.31884 -0.355963 0
M  V30 8220 C 733.586 -1.41481 -1.01287 0
M  V30 8221 O 734.762 -1.74546 -1.00477 0
M  V30 8222 C 731.827 -3.15668 -1.43369 0
M  V30 8223 C 730.888 -4.2187 -0.795253 0
M  V30 8224 C 730.121 -5.0165 -1.82162 0
M  V30 8225 O 730.344 -4.82266 -3.04592 0
M  V30 8226 O 729.278 -5.85311 -1.40336 0
M  V30 8227 H 733.104 -3.02162 0.305248 0
M  V30 8228 H 730.689 -1.47839 0.215398 0
M  V30 8229 H 732.571 -3.67709 -2.05836 0
M  V30 8230 H 731.246 -2.48137 -2.07869 0
M  V30 8231 H 730.153 -3.73867 -0.132106 0
M  V30 8232 H 731.486 -4.9182 -0.193484 0
M  V30 8233 N 733.138 -0.185124 -1.56509 0
M  V30 8234 C 734.554 0.170865 -1.58683 0
M  V30 8235 C 734.754 1.61799 -1.20098 0
M  V30 8236 O 733.81 2.35181 -0.919038 0
M  V30 8237 C 735.123 -0.122459 -3.00451 0
M  V30 8238 C 736.671 -0.0617699 -3.12939 0
M  V30 8239 C 737.146 -0.328269 -4.56822 0
M  V30 8240 N 738.637 -0.276533 -4.62374 0
M  V30 8241 C 739.372 -0.456722 -5.71578 0
M  V30 8242 N 738.868 -0.69672 -6.89288 0
M  V30 8243 N 740.661 -0.391669 -5.60734 0
M  V30 8244 H 732.812 -1.12956 -1.79874 0
M  V30 8245 H 735.075 -0.45011 -0.834329 0
M  V30 8246 H 734.781 -1.12546 -3.33206 0
M  V30 8247 H 734.655 0.579578 -3.72721 0
M  V30 8248 H 737.042 0.931826 -2.80002 0
M  V30 8249 H 737.123 -0.796732 -2.43076 0
M  V30 8250 H 736.767 -1.31914 -4.9047 0
M  V30 8251 H 736.697 0.427465 -5.24862 0
M  V30 8252 H 739.188 -0.0972458 -3.77775 0
M  V30 8253 H 739.501 -0.823291 -7.68402 0
M  V30 8254 H 737.846 -0.733497 -6.91119 0
M  V30 8255 H 741.037 -0.204663 -4.67652 0
M  V30 8256 H 741.21 -0.535518 -6.45783 0
M  V30 8257 N 734.616 1.57351 0.0885366 0
M  V30 8258 C 735.893 1.77449 0.822873 0
M  V30 8259 C 736.273 0.768463 1.96616 0
M  V30 8260 O 735.621 -0.201757 2.27608 0
M  V30 8261 C 735.831 3.23425 1.31137 0
M  V30 8262 C 737.179 3.86791 1.75152 0
M  V30 8263 O 738.203 3.27215 1.40745 0
M  V30 8264 O 737.062 4.91568 2.38794 0
M  V30 8265 H 734.156 0.727653 0.393002 0
M  V30 8266 H 736.702 1.69556 0.0699095 0
M  V30 8267 H 735.474 3.88188 0.49254 0
M  V30 8268 H 735.097 3.35977 2.12615 0
M  V30 8269 N 736.094 -0.359525 1.53444 0
M  V30 8270 C 737.324 -1.12036 1.73585 0
M  V30 8271 C 737.732 -1.83335 0.467438 0
M  V30 8272 O 737.075 -1.74641 -0.569753 0
M  V30 8273 C 737.137 -2.19036 2.85068 0
M  V30 8274 C 736.801 -1.67451 4.25217 0
M  V30 8275 C 737.798 -1.13534 5.07352 0
M  V30 8276 C 735.483 -1.72781 4.71648 0
M  V30 8277 C 737.477 -0.656321 6.34012 0
M  V30 8278 C 735.164 -1.2449 5.98285 0
M  V30 8279 C 736.162 -0.710068 6.79299 0
M  V30 8280 O 735.85 -0.234314 8.03558 0
M  V30 8281 H 735.582 -0.340662 0.583888 0
M  V30 8282 H 738.136 -0.422452 2.01009 0
M  V30 8283 H 736.366 -2.92338 2.53131 0
M  V30 8284 H 738.055 -2.80559 2.93328 0
M  V30 8285 H 738.821 -1.08751 4.7265 0
M  V30 8286 H 734.7 -2.13351 4.08659 0
M  V30 8287 H 738.244 -0.238193 6.97193 0
M  V30 8288 H 734.141 -1.28969 6.32485 0
M  V30 8289 H 734.909 -0.353084 8.17738 0
M  V30 8290 N 737.572 -1.44907 -0.619662 0
M  V30 8291 C 738.502 -1.55488 -1.742 0
M  V30 8292 C 739.483 -0.407143 -1.65156 0
M  V30 8293 O 740.668 -0.628743 -1.8374 0
M  V30 8294 C 737.798 -1.5097 -3.1277 0
M  V30 8295 C 736.752 -2.64337 -3.36615 0
M  V30 8296 C 736.078 -2.44872 -4.75333 0
M  V30 8297 C 737.378 -4.06423 -3.28051 0
M  V30 8298 H 739.072 -2.49432 -1.65602 0
M  V30 8299 H 736.618 -1.20047 -0.795281 0
M  V30 8300 H 738.571 -1.56971 -3.91073 0
M  V30 8301 H 737.295 -0.535486 -3.2218 0
M  V30 8302 H 735.954 -2.57744 -2.60698 0
M  V30 8303 H 735.602 -1.45617 -4.81461 0
M  V30 8304 H 735.302 -3.20888 -4.92244 0
M  V30 8305 H 736.826 -2.52709 -5.55851 0
M  V30 8306 H 738.24 -4.14324 -3.96243 0
M  V30 8307 H 736.637 -4.82733 -3.56495 0
M  V30 8308 H 737.707 -4.29183 -2.25676 0
M  V30 8309 N 739.05 0.861098 -1.31996 0
M  V30 8310 C 740.296 1.61721 -1.22369 0
M  V30 8311 C 740.629 1.93 0.215587 0
M  V30 8312 O 739.904 1.56789 1.15098 0
M  V30 8313 C 740.187 2.9417 -2.07691 0
M  V30 8314 C 740.04 2.69714 -3.59965 0
M  V30 8315 C 741.359 3.95372 -1.93312 0
M  V30 8316 H 738.478 0.586822 -0.44588 0
M  V30 8317 H 741.12 0.994788 -1.61876 0
M  V30 8318 H 739.27 3.47292 -1.74128 0
M  V30 8319 H 740.942 2.23196 -4.03709 0
M  V30 8320 H 739.185 2.03789 -3.82952 0
M  V30 8321 H 739.856 3.63996 -4.14983 0
M  V30 8322 H 742.332 3.51487 -2.22701 0
M  V30 8323 H 741.208 4.85916 -2.55298 0
M  V30 8324 H 741.469 4.32865 -0.898922 0
M  V30 8325 N 740.528 1.15101 1.07655 0
M  V30 8326 C 741.753 0.948177 1.84457 0
M  V30 8327 C 742.178 -0.498432 1.81376 0
M  V30 8328 O 741.536 -1.35509 1.20445 0
M  V30 8329 C 741.584 1.46318 3.29581 0
M  V30 8330 O 740.688 0.660342 4.07079 0
M  V30 8331 H 740.029 0.338428 0.571281 0
M  V30 8332 H 742.559 1.5301 1.35828 0
M  V30 8333 H 742.569 1.47468 3.80417 0
M  V30 8334 H 741.244 2.51635 3.31138 0
M  V30 8335 H 739.821 0.718216 3.65918 0
M  V30 8336 N 742.006 -1.2595 0.947325 0
M  V30 8337 C 742.936 -2.28521 0.479604 0
M  V30 8338 C 743.917 -1.63469 -0.470293 0
M  V30 8339 O 745.102 -1.90627 -0.370824 0
M  V30 8340 C 742.232 -3.46397 -0.250289 0
M  V30 8341 C 741.186 -4.23578 0.613643 0
M  V30 8342 C 740.512 -5.34131 -0.246568 0
M  V30 8343 C 741.812 -4.86979 1.88809 0
M  V30 8344 H 743.506 -2.67895 1.33688 0
M  V30 8345 H 741.052 -1.28783 0.644274 0
M  V30 8346 H 743.005 -4.17269 -0.588576 0
M  V30 8347 H 741.729 -3.05993 -1.14175 0
M  V30 8348 H 740.388 -3.54478 0.93491 0
M  V30 8349 H 740.036 -4.89968 -1.13756 0
M  V30 8350 H 739.736 -5.86683 0.328123 0
M  V30 8351 H 741.26 -6.07839 -0.579986 0
M  V30 8352 H 742.674 -5.50034 1.61666 0
M  V30 8353 H 741.071 -5.49675 2.40784 0
M  V30 8354 H 742.141 -4.09575 2.5957 0
M  V30 8355 N 743.484 -0.715051 -1.40445 0
M  V30 8356 C 744.416 -0.0227516 -2.29189 0
M  V30 8357 C 745.429 0.724313 -1.458 0
M  V30 8358 O 746.618 0.571781 -1.69094 0
M  V30 8359 C 743.718 0.992038 -3.24055 0
M  V30 8360 C 742.891 0.310613 -4.36296 0
M  V30 8361 C 741.95 1.23071 -5.11605 0
M  V30 8362 O 740.976 0.71571 -5.64682 0
M  V30 8363 N 742.178 2.56188 -5.2091 0
M  V30 8364 H 744.943 -0.78473 -2.89244 0
M  V30 8365 H 742.504 -0.562637 -1.51809 0
M  V30 8366 H 744.496 1.60973 -3.71308 0
M  V30 8367 H 743.066 1.65538 -2.65171 0
M  V30 8368 H 742.286 -0.487269 -3.91177 0
M  V30 8369 H 743.574 -0.162415 -5.08541 0
M  V30 8370 H 742.972 3.00527 -4.7927 0
M  V30 8371 H 741.529 3.13103 -5.71673 0
M  V30 8372 N 744.962 1.50701 -0.461195 0
M  V30 8373 C 745.912 2.25195 0.35653 0
M  V30 8374 C 746.896 1.2838 0.96992 0
M  V30 8375 O 748.088 1.53338 0.884108 0
M  V30 8376 C 745.217 3.11471 1.44364 0
M  V30 8377 C 744.303 4.15729 0.83847 0
M  V30 8378 N 744.694 5.05788 -0.0353198 0
M  V30 8379 C 742.992 4.32133 1.1035 0
M  V30 8380 C 743.693 5.80472 -0.37774 0
M  V30 8381 N 742.669 5.43049 0.24463 0
M  V30 8382 H 746.471 2.92188 -0.316746 0
M  V30 8383 H 743.985 1.60059 -0.274725 0
M  V30 8384 H 745.982 3.63436 2.04255 0
M  V30 8385 H 744.642 2.46025 2.11901 0
M  V30 8386 H 745.653 5.16326 -0.403465 0
M  V30 8387 H 742.33 3.77908 1.77458 0
M  V30 8388 H 743.72 6.62996 -1.09024 0
M  V30 8389 N 746.441 0.193421 1.56409 0
M  V30 8390 C 747.373 -0.759944 2.16235 0
M  V30 8391 C 748.386 -1.17797 1.12373 0
M  V30 8392 O 749.575 -1.11399 1.39472 0
M  V30 8393 C 746.675 -2.03735 2.70823 0
M  V30 8394 C 745.848 -1.77939 3.9957 0
M  V30 8395 C 744.907 -2.90111 4.39001 0
M  V30 8396 O 743.933 -2.59791 5.06456 0
M  V30 8397 N 745.135 -4.18426 4.02368 0
M  V30 8398 H 747.9 -0.248348 2.98669 0
M  V30 8399 H 745.461 0.0113966 1.61896 0
M  V30 8400 H 747.453 -2.77914 2.94187 0
M  V30 8401 H 746.023 -2.46022 1.92852 0
M  V30 8402 H 745.243 -0.875491 3.84355 0
M  V30 8403 H 746.531 -1.58099 4.83614 0
M  V30 8404 H 745.929 -4.45913 3.48106 0
M  V30 8405 H 744.486 -4.89237 4.30686 0
M  V30 8406 N 747.919 -1.57396 -0.0801906 0
M  V30 8407 C 749.335 -1.53564 -0.434778 0
M  V30 8408 C 749.535 -0.912372 -1.79661 0
M  V30 8409 O 748.591 -0.511268 -2.4727 0
M  V30 8410 C 749.904 -2.98244 -0.383561 0
M  V30 8411 C 751.452 -3.09536 -0.46435 0
M  V30 8412 C 751.927 -4.55851 -0.443128 0
M  V30 8413 N 753.418 -4.60456 -0.503448 0
M  V30 8414 C 754.153 -5.71135 -0.509106 0
M  V30 8415 N 753.649 -6.91203 -0.47008 0
M  V30 8416 N 755.442 -5.59353 -0.555035 0
M  V30 8417 H 747.593 -1.96281 0.811635 0
M  V30 8418 H 749.856 -0.898041 0.303689 0
M  V30 8419 H 749.562 -3.47369 0.550236 0
M  V30 8420 H 749.436 -3.57705 -1.19694 0
M  V30 8421 H 751.823 -2.6039 -1.38857 0
M  V30 8422 H 751.904 -2.53 0.377445 0
M  V30 8423 H 751.548 -5.05653 0.477207 0
M  V30 8424 H 751.478 -5.10242 -1.30234 0
M  V30 8425 H 753.969 -3.74048 -0.538199 0
M  V30 8426 H 754.282 -7.7132 -0.478091 0
M  V30 8427 H 752.627 -6.93625 -0.436897 0
M  V30 8428 H 755.818 -4.64453 -0.583158 0
M  V30 8429 H 755.991 -6.4561 -0.555976 0
M  V30 8430 N 749.397 0.351382 -1.53633 0
M  V30 8431 C 750.329 1.45159 -1.77374 0
M  V30 8432 C 751.342 1.4905 -0.654826 0
M  V30 8433 O 752.531 1.52274 -0.931396 0
M  V30 8434 C 749.631 2.83858 -1.85143 0
M  V30 8435 C 748.804 3.03498 -3.14972 0
M  V30 8436 C 747.863 4.22393 -3.138 0
M  V30 8437 O 746.889 4.16885 -3.87551 0
M  V30 8438 N 748.091 5.30533 -2.35617 0
M  V30 8439 H 750.856 1.25167 -2.72311 0
M  V30 8440 H 748.417 0.54121 -1.52586 0
M  V30 8441 H 750.409 3.61557 -1.8182 0
M  V30 8442 H 748.979 2.9703 -0.974275 0
M  V30 8443 H 748.199 2.13336 -3.31484 0
M  V30 8444 H 749.487 3.13498 -4.00745 0
M  V30 8445 H 748.885 5.37875 -1.75235 0
M  V30 8446 H 747.442 6.06756 -2.38098 0
M  V30 8447 N 750.875 1.45233 0.611969 0
M  V30 8448 C 751.785 1.56098 1.7513 0
M  V30 8449 C 752.801 0.445646 1.68196 0
M  V30 8450 O 753.977 0.705718 1.88631 0
M  V30 8451 C 751.042 1.52052 3.11579 0
M  V30 8452 C 750.103 2.74589 3.29999 0
M  V30 8453 C 749.336 2.70726 4.59938 0
M  V30 8454 O 749.559 1.77806 5.41979 0
M  V30 8455 O 748.493 3.61864 4.80976 0
M  V30 8456 H 752.319 2.52392 1.68914 0
M  V30 8457 H 749.904 1.27695 0.775528 0
M  V30 8458 H 751.786 1.52387 3.92882 0
M  V30 8459 H 750.461 0.589085 3.18295 0
M  V30 8460 H 749.368 2.79817 2.48301 0
M  V30 8461 H 750.701 3.66843 3.28157 0
M  V30 8462 N 752.353 -0.854086 1.3245 0
M  V30 8463 C 753.285 -1.96932 1.17262 0
M  V30 8464 C 754.298 -1.62445 0.107469 0
M  V30 8465 O 755.487 -1.74904 0.356481 0
M  V30 8466 C 752.587 -3.29971 0.772817 0
M  V30 8467 C 751.76 -3.92695 1.92638 0
M  V30 8468 C 750.819 -5.04068 1.51003 0
M  V30 8469 O 749.845 -5.24032 2.22213 0
M  V30 8470 N 751.047 -5.79076 0.406371 0
M  V30 8471 H 753.812 -2.10503 2.13327 0
M  V30 8472 H 751.373 -1.02897 1.24995 0
M  V30 8473 H 753.365 -4.01883 0.476684 0
M  V30 8474 H 751.935 -3.1245 -0.0967 0
M  V30 8475 H 751.155 -3.13563 2.38897 0
M  V30 8476 H 752.443 -4.31337 2.69863 0
M  V30 8477 H 751.841 -5.65393 -0.186302 0
M  V30 8478 H 750.398 -6.51579 0.169846 0
M  V30 8479 N 753.831 -1.1567 -1.07043 0
M  V30 8480 C 755.247 -0.900006 -1.31803 0
M  V30 8481 C 755.447 0.451293 -1.96381 0
M  V30 8482 O 754.503 1.19252 -2.22565 0
M  V30 8483 C 755.816 -2.04334 -2.20609 0
M  V30 8484 C 757.364 -2.07823 -2.34048 0
M  V30 8485 C 757.839 -3.21488 -3.26204 0
M  V30 8486 N 759.33 -3.21156 -3.33786 0
M  V30 8487 C 760.065 -4.05746 -4.05163 0
M  V30 8488 N 759.561 -5.00407 -4.79129 0
M  V30 8489 N 761.354 -3.93759 -4.01136 0
M  V30 8490 H 753.505 -2.02681 -0.635146 0
M  V30 8491 H 755.768 -0.883956 -0.342528 0
M  V30 8492 H 755.474 -3.01895 -1.80423 0
M  V30 8493 H 755.348 -1.97838 -3.21154 0
M  V30 8494 H 757.735 -1.1086 -2.73485 0
M  V30 8495 H 757.816 -2.18386 -1.33197 0
M  V30 8496 H 757.46 -4.18706 -2.87485 0
M  V30 8497 H 757.39 -3.08162 -4.27017 0
M  V30 8498 H 759.881 -2.52606 -2.81067 0
M  V30 8499 H 760.194 -5.61387 -5.31097 0
M  V30 8500 H 758.539 -5.04393 -4.78135 0
M  V30 8501 H 761.73 -3.19115 -3.42466 0
M  V30 8502 H 761.903 -4.59906 -4.56498 0
M  V30 8503 N 755.309 1.25446 -0.953992 0
M  V30 8504 C 756.72 1.75047 -0.649255 0
M  V30 8505 C 757.071 1.77527 0.835385 0
M  V30 8506 O 756.196 1.39569 1.65377 0
M  V30 8507 C 756.791 3.17889 -1.17183 0
M  V30 8508 C 755.35 3.65052 -0.917267 0
M  V30 8509 C 754.497 2.44124 -1.31525 0
M  V30 8510 H 757.448 1.11342 -1.13087 0
M  V30 8511 H 757.469 3.76768 -0.531616 0
M  V30 8512 H 756.981 3.16052 -2.25239 0
M  V30 8513 H 755.082 3.72305 0.148354 0
M  V30 8514 H 755.195 4.53222 -1.55328 0
M  V30 8515 H 753.559 2.43906 -0.733624 0
M  V30 8516 H 754.342 2.44979 -2.405 0
M  V30 8517 N 756.787 0.722489 1.40064 0
M  V30 8518 C 758.033 0.265371 2.01056 0
M  V30 8519 C 758.366 -1.14062 1.57174 0
M  V30 8520 O 757.641 -1.77514 0.794916 0
M  V30 8521 C 757.924 0.353157 3.58364 0
M  V30 8522 C 757.777 1.79802 4.123 0
M  V30 8523 C 759.096 -0.271677 4.39261 0
M  V30 8524 H 756.215 0.0979002 0.730469 0
M  V30 8525 H 758.857 0.916289 1.66446 0
M  V30 8526 H 757.007 -0.201037 3.87979 0
M  V30 8527 H 758.679 2.40813 3.93455 0
M  V30 8528 H 756.922 2.32348 3.66329 0
M  V30 8529 H 757.593 1.81079 5.21454 0
M  V30 8530 H 760.069 0.200607 4.15616 0
M  V30 8531 H 758.945 -0.179843 5.48605 0
M  V30 8532 H 759.206 -1.35611 4.20787 0
M  V30 8533 N 758.265 -1.50454 0.469181 0
M  V30 8534 C 759.175 -2.32248 -0.331349 0
M  V30 8535 C 760.191 -1.42548 -0.997807 0
M  V30 8536 O 761.367 -1.75602 -0.9862 0
M  V30 8537 C 758.432 -3.17171 -1.40012 0
M  V30 8538 C 757.493 -4.2269 -0.750463 0
M  V30 8539 C 756.726 -5.03554 -1.76831 0
M  V30 8540 O 756.949 -4.85469 -2.99459 0
M  V30 8541 O 755.883 -5.86767 -1.3412 0
M  V30 8542 H 759.709 -3.01821 0.337279 0
M  V30 8543 H 757.294 -1.47602 0.231066 0
M  V30 8544 H 759.176 -3.69871 -2.01924 0
M  V30 8545 H 757.851 -2.50328 -2.05226 0
M  V30 8546 H 756.758 -3.73986 -0.0924446 0
M  V30 8547 H 758.091 -4.91997 -0.14131 0
M  V30 8548 N 759.743 -0.201713 -1.56304 0
M  V30 8549 C 760.69 0.716499 -2.19397 0
M  V30 8550 C 761.66 1.20494 -1.14326 0
M  V30 8551 O 762.845 1.26763 -1.42604 0
M  V30 8552 C 759.985 1.92762 -2.86246 0
M  V30 8553 C 759.098 1.47993 -4.0586 0
M  V30 8554 C 758.233 2.64706 -4.60547 0
M  V30 8555 C 757.272 2.16576 -5.72504 0
M  V30 8556 N 756.409 3.26491 -6.21569 0
M  V30 8557 H 761.249 0.171724 -2.97505 0
M  V30 8558 H 758.786 0.073016 -1.46919 0
M  V30 8559 H 760.744 2.6384 -3.23178 0
M  V30 8560 H 759.374 2.44559 -2.10691 0
M  V30 8561 H 758.426 0.66477 -3.74546 0
M  V30 8562 H 759.738 1.08686 -4.86815 0
M  V30 8563 H 758.892 3.43898 -4.99819 0
M  V30 8564 H 757.631 3.0729 -3.78713 0
M  V30 8565 H 756.636 1.3584 -5.32755 0
M  V30 8566 H 757.861 1.75015 -6.56161 0
M  V30 8567 H 755.807 3.68594 -5.42655 0
M  V30 8568 H 755.724 2.91374 -6.97594 0
M  V30 8569 H 756.992 4.05877 -6.65495 0
M  V30 8570 N 761.222 1.57436 0.0718424 0
M  V30 8571 C 762.169 2.03686 1.08539 0
M  V30 8572 C 763.139 0.917474 1.38462 0
M  V30 8573 O 764.324 1.18513 1.4953 0
M  V30 8574 C 761.464 2.48566 2.39393 0
M  V30 8575 C 760.577 3.74122 2.16001 0
M  V30 8576 C 759.712 4.07786 3.40418 0
M  V30 8577 C 758.751 5.26383 3.1239 0
M  V30 8578 N 757.888 5.55685 4.29138 0
M  V30 8579 H 762.728 2.90043 0.684018 0
M  V30 8580 H 760.265 1.43438 0.326183 0
M  V30 8581 H 762.223 2.72639 3.15791 0
M  V30 8582 H 760.853 1.65186 2.77333 0
M  V30 8583 H 759.905 3.57389 1.30296 0
M  V30 8584 H 761.217 4.60659 1.91298 0
M  V30 8585 H 760.371 4.32759 4.25211 0
M  V30 8586 H 759.11 3.19817 3.68197 0
M  V30 8587 H 758.115 5.01206 2.25993 0
M  V30 8588 H 759.34 6.1597 2.85934 0
M  V30 8589 H 757.286 4.70675 4.56948 0
M  V30 8590 H 757.203 6.3664 4.07708 0
M  V30 8591 H 758.471 5.85209 5.14928 0
M  V30 8592 N 762.7 -0.34323 1.53817 0
M  V30 8593 C 764.111 -0.918823 1.62525 0
M  V30 8594 C 764.462 -1.89542 0.506765 0
M  V30 8595 O 763.587 -2.13326 -0.363441 0
M  V30 8596 C 764.182 -1.67326 2.94597 0
M  V30 8597 C 762.741 -2.19786 3.05567 0
M  V30 8598 C 761.888 -1.01708 2.57974 0
M  V30 8599 H 764.839 -0.121358 1.58235 0
M  V30 8600 H 764.86 -2.53615 2.83654 0
M  V30 8601 H 764.372 -0.962223 3.75983 0
M  V30 8602 H 762.473 -2.94065 2.28816 0
M  V30 8603 H 762.586 -2.46135 4.1104 0
M  V30 8604 H 760.95 -1.39058 2.13389 0
M  V30 8605 H 761.733 -0.320671 3.41799 0
M  V30 8606 N 764.178 -1.45556 -0.604258 0
M  V30 8607 C 765.108 -1.57327 -1.72541 0
M  V30 8608 C 766.089 -0.424637 -1.64714 0
M  V30 8609 O 767.274 -0.648196 -1.83063 0
M  V30 8610 C 764.404 -1.54279 -3.11152 0
M  V30 8611 C 763.358 -2.67893 -3.33792 0
M  V30 8612 C 762.684 -2.499 -4.72709 0
M  V30 8613 C 763.984 -4.0988 -3.23722 0
M  V30 8614 H 765.678 -2.51175 -1.62947 0
M  V30 8615 H 763.224 -1.20884 -0.782504 0
M  V30 8616 H 765.177 -1.6111 -3.89386 0
M  V30 8617 H 763.901 -0.569627 -3.21594 0
M  V30 8618 H 762.56 -2.60495 -2.57949 0
M  V30 8619 H 762.208 -1.50715 -4.79889 0
M  V30 8620 H 761.908 -3.26091 -4.88813 0
M  V30 8621 H 763.432 -2.5859 -5.5314 0
M  V30 8622 H 764.846 -4.18503 -3.91826 0
M  V30 8623 H 763.243 -4.86487 -3.51355 0
M  V30 8624 H 764.313 -4.31553 -2.21111 0
M  V30 8625 N 765.656 0.84705 -1.32902 0
M  V30 8626 C 766.886 1.63166 -1.26729 0
M  V30 8627 C 767.294 1.88474 0.165595 0
M  V30 8628 O 766.637 1.45947 1.11558 0
M  V30 8629 C 766.699 3.0103 -1.96522 0
M  V30 8630 C 766.363 2.9873 -3.45846 0
M  V30 8631 C 767.36 2.75032 -4.41196 0
M  V30 8632 C 765.045 3.19125 -3.87898 0
M  V30 8633 C 767.039 2.71743 -5.76571 0
M  V30 8634 C 764.726 3.15462 -5.2338 0
M  V30 8635 C 765.724 2.91801 -6.17528 0
M  V30 8636 O 765.412 2.88027 -7.5053 0
M  V30 8637 H 765.144 0.51469 -0.438258 0
M  V30 8638 H 767.698 1.06383 -1.75704 0
M  V30 8639 H 765.928 3.59634 -1.42128 0
M  V30 8640 H 767.617 3.61821 -1.83958 0
M  V30 8641 H 768.383 2.59034 -4.10032 0
M  V30 8642 H 764.262 3.36565 -3.15032 0
M  V30 8643 H 767.806 2.53194 -6.5003 0
M  V30 8644 H 763.703 3.31006 -5.54171 0
M  V30 8645 H 764.471 3.03927 -7.59981 0
M  V30 8646 N 767.134 1.16236 1.06428 0
M  V30 8647 C 768.084 0.835994 2.12121 0
M  V30 8648 C 769.068 -0.183955 1.59845 0
M  V30 8649 O 770.26 0.0166741 1.76992 0
M  V30 8650 C 767.389 0.337333 3.41639 0
M  V30 8651 C 766.475 1.38798 4.00744 0
M  V30 8652 N 766.866 2.59799 4.3398 0
M  V30 8653 C 765.164 1.24292 4.28331 0
M  V30 8654 C 765.865 3.27213 4.80943 0
M  V30 8655 N 764.841 2.54594 4.80294 0
M  V30 8656 H 768.643 1.75615 2.35662 0
M  V30 8657 H 766.157 1.04921 1.23957 0
M  V30 8658 H 768.154 0.0851274 4.16813 0
M  V30 8659 H 766.814 -0.57677 3.19536 0
M  V30 8660 H 767.825 2.96867 4.24371 0
M  V30 8661 H 764.502 0.389464 4.15679 0
M  V30 8662 H 765.892 4.30492 5.15874 0
M  V30 8663 N 768.612 -1.24939 0.960631 0
M  V30 8664 C 769.842 -1.96595 0.635123 0
M  V30 8665 C 770.25 -1.71538 -0.798206 0
M  V30 8666 O 769.593 -0.991727 -1.5463 0
M  V30 8667 C 769.655 -3.49994 0.821248 0
M  V30 8668 C 769.319 -3.98738 2.23287 0
M  V30 8669 C 770.316 -4.08965 3.21004 0
M  V30 8670 C 768.001 -4.32247 2.55867 0
M  V30 8671 C 769.995 -4.52025 4.49391 0
M  V30 8672 C 767.682 -4.74991 3.84482 0
M  V30 8673 C 768.68 -4.84844 4.81056 0
M  V30 8674 O 768.368 -5.26638 6.07378 0
M  V30 8675 H 768.1 -0.633265 0.23654 0
M  V30 8676 H 770.654 -1.5991 1.28911 0
M  V30 8677 H 768.884 -3.86543 0.110105 0
M  V30 8678 H 770.573 -4.02859 0.495892 0
M  V30 8679 H 771.339 -3.83302 2.97161 0
M  V30 8680 H 767.218 -4.23801 1.81421 0
M  V30 8681 H 770.762 -4.5963 5.24773 0
M  V30 8682 H 766.659 -5.00101 4.08129 0
M  V30 8683 H 767.427 -5.44807 6.10842 0
M  V30 8684 N 770.09 -0.729906 -1.39679 0
M  V30 8685 C 771.037 -0.0866063 -2.30637 0
M  V30 8686 C 772.007 0.735115 -1.48947 0
M  V30 8687 O 773.192 0.696125 -1.77648 0
M  V30 8688 C 770.332 0.818524 -3.35252 0
M  V30 8689 C 769.445 -0.0152635 -4.31997 0
M  V30 8690 C 768.58 0.890669 -5.2368 0
M  V30 8691 C 767.619 0.0518246 -6.12078 0
M  V30 8692 N 766.756 0.913411 -6.96133 0
M  V30 8693 H 771.596 -0.867925 -2.85081 0
M  V30 8694 H 769.133 -0.439673 -1.40376 0
M  V30 8695 H 771.091 1.3577 -3.9449 0
M  V30 8696 H 769.721 1.56587 -2.82277 0
M  V30 8697 H 768.773 -0.671794 -3.74421 0
M  V30 8698 H 770.085 -0.664086 -4.9436 0
M  V30 8699 H 769.239 1.49787 -5.87919 0
M  V30 8700 H 767.978 1.57328 -4.61627 0
M  V30 8701 H 766.983 -0.568209 -5.46856 0
M  V30 8702 H 768.208 -0.627497 -6.76195 0
M  V30 8703 H 766.154 1.58141 -6.36653 0
M  V30 8704 H 766.071 0.320952 -7.55318 0
M  V30 8705 H 767.339 1.50633 -7.64807 0
M  V30 8706 N 771.568 1.50203 -0.477153 0
M  V30 8707 C 772.478 2.32421 0.319027 0
M  V30 8708 C 773.494 1.43075 0.990233 0
M  V30 8709 O 774.67 1.76123 0.976873 0
M  V30 8710 C 771.735 3.17909 1.38328 0
M  V30 8711 C 770.796 4.23082 0.728036 0
M  V30 8712 C 770.029 5.04484 1.74158 0
M  V30 8713 O 770.252 4.8705 2.96881 0
M  V30 8714 O 769.186 5.8747 1.31006 0
M  V30 8715 H 773.012 3.01638 -0.353281 0
M  V30 8716 H 770.597 1.47478 -0.238891 0
M  V30 8717 H 772.479 3.70937 1.9996 0
M  V30 8718 H 771.154 2.51413 2.03895 0
M  V30 8719 H 770.061 3.7403 0.07261 0
M  V30 8720 H 771.394 4.92065 0.115216 0
M  V30 8721 N 773.046 0.209999 1.56195 0
M  V30 8722 C 774.294 -0.423974 1.97603 0
M  V30 8723 C 774.615 -1.61112 1.09854 0
M  V30 8724 O 773.885 -1.95134 0.173032 0
M  V30 8725 H 772.465 -0.159629 0.729745 0
M  V30 8726 H 775.127 0.300205 1.92574 0
M  V30 8727 H 774.223 -0.75809 3.02753 0
M  V30 8728 N 774.524 -1.57472 -0.0634922 0
M  V30 8729 C 775.457 -1.99571 -1.10664 0
M  V30 8730 C 776.435 -0.874015 -1.37112 0
M  V30 8731 O 777.619 -1.13702 -1.50347 0
M  V30 8732 C 774.746 -2.3395 -2.44918 0
M  V30 8733 C 773.792 -3.56213 -2.34551 0
M  V30 8734 S 774.625 -5.06727 -1.73169 0
M  V30 8735 C 775.781 -5.44316 -3.08984 0
M  V30 8736 H 776.014 -2.87739 -0.747905 0
M  V30 8737 H 773.547 -1.5198 -0.272316 0
M  V30 8738 H 775.505 -2.54431 -3.22141 0
M  V30 8739 H 774.166 -1.46297 -2.7795 0
M  V30 8740 H 773.359 -3.77812 -3.33578 0
M  V30 8741 H 772.961 -3.35406 -1.65466 0
M  V30 8742 H 775.253 -5.42894 -4.05305 0
M  V30 8743 H 776.196 -6.4502 -2.92156 0
M  V30 8744 H 776.604 -4.71781 -3.09972 0
M  V30 8745 N 776.003 0.335068 -1.53997 0
M  V30 8746 C 777.228 1.09859 -1.75914 0
M  V30 8747 C 777.653 1.81308 -0.500915 0
M  V30 8748 O 777.011 1.72854 0.54693 0
M  V30 8749 C 777.059 2.08122 -2.94478 0
M  V30 8750 O 776.163 3.15805 -2.65219 0
M  V30 8751 H 775.504 0.317313 -0.583274 0
M  V30 8752 H 778.034 0.382872 -2.00986 0
M  V30 8753 H 778.044 2.51195 -3.21504 0
M  V30 8754 H 776.719 1.55517 -3.8573 0
M  V30 8755 H 775.296 2.77489 -2.49107 0
M  V30 8756 N 777.481 1.45874 0.596531 0
M  V30 8757 C 778.892 1.44798 1.17857 0
M  V30 8758 C 779.243 0.181443 1.95359 0
M  V30 8759 O 778.368 -0.716336 2.042 0
M  V30 8760 C 778.963 2.62333 2.14398 0
M  V30 8761 C 777.522 2.64342 2.67955 0
M  V30 8762 C 776.669 2.37244 1.43564 0
M  V30 8763 H 779.62 1.53954 0.385222 0
M  V30 8764 H 779.641 2.37063 2.97626 0
M  V30 8765 H 779.153 3.54499 1.57963 0
M  V30 8766 H 777.254 1.76213 3.28298 0
M  V30 8767 H 777.367 3.63897 3.11634 0
M  V30 8768 H 775.731 1.87022 1.72901 0
M  V30 8769 H 776.514 3.31568 0.889805 0
M  V30 8770 N 778.959 -0.83999 1.33349 0
M  V30 8771 C 780.184 -1.63249 1.27924 0
M  V30 8772 C 780.609 -1.87523 -0.147193 0
M  V30 8773 O 779.967 -1.43853 -1.10345 0
M  V30 8774 C 780.015 -2.96046 2.05886 0
M  V30 8775 O 779.119 -3.87303 1.4167 0
M  V30 8776 H 778.46 -0.49715 0.440157 0
M  V30 8777 H 780.99 -1.04512 1.75893 0
M  V30 8778 H 781 -3.45752 2.16609 0
M  V30 8779 H 779.675 -2.77701 3.09605 0
M  V30 8780 H 778.252 -3.45789 1.39585 0
M  V30 8781 N 780.437 -1.16799 -1.0581 0
M  V30 8782 C 781.347 -0.893492 -2.16919 0
M  V30 8783 C 782.363 0.136061 -1.73467 0
M  V30 8784 O 783.539 -0.0417348 -2.01357 0
M  V30 8785 C 780.604 -0.403763 -3.44341 0
M  V30 8786 C 779.665 -1.49914 -4.02274 0
M  V30 8787 C 778.898 -1.03269 -5.23614 0
M  V30 8788 O 779.121 0.115647 -5.70283 0
M  V30 8789 O 778.055 -1.8231 -5.73626 0
M  V30 8790 H 781.881 -1.82274 -2.42919 0
M  V30 8791 H 779.466 -0.948361 -1.1544 0
M  V30 8792 H 781.348 -0.137874 -4.21174 0
M  V30 8793 H 780.023 0.497413 -3.19855 0
M  V30 8794 H 778.93 -1.81883 -3.26909 0
M  V30 8795 H 780.263 -2.3758 -4.31064 0
M  V30 8796 N 781.915 1.24427 -0.967243 0
M  V30 8797 C 782.862 2.25398 -0.496419 0
M  V30 8798 C 783.832 1.59667 0.457781 0
M  V30 8799 O 785.017 1.87213 0.368246 0
M  V30 8800 C 782.157 3.44474 0.207693 0
M  V30 8801 C 781.27 4.24804 -0.785221 0
M  V30 8802 C 780.405 5.31169 -0.0572631 0
M  V30 8803 C 779.444 6.03195 -1.04027 0
M  V30 8804 N 778.581 7.01265 -0.34235 0
M  V30 8805 H 783.421 2.65039 -1.36229 0
M  V30 8806 H 780.958 1.30288 -0.682902 0
M  V30 8807 H 782.916 4.12376 0.632612 0
M  V30 8808 H 781.546 3.05672 1.03752 0
M  V30 8809 H 780.598 3.56445 -1.32858 0
M  V30 8810 H 781.91 4.74599 -1.53483 0
M  V30 8811 H 781.064 6.05205 0.425674 0
M  V30 8812 H 779.803 4.8228 0.725047 0
M  V30 8813 H 778.808 5.27964 -1.53409 0
M  V30 8814 H 780.033 6.54173 -1.82302 0
M  V30 8815 H 777.979 6.54648 0.420993 0
M  V30 8816 H 777.896 7.48939 -1.03084 0
M  V30 8817 H 779.164 7.7941 0.118634 0
M  V30 8818 N 783.393 0.737304 1.3929 0
M  V30 8819 C 784.804 0.355966 1.83275 0
M  V30 8820 C 785.155 -1.11295 1.6158 0
M  V30 8821 O 784.28 -1.85871 1.10819 0
M  V30 8822 C 784.875 0.63931 3.32713 0
M  V30 8823 C 783.434 0.31144 3.75109 0
M  V30 8824 C 782.581 0.900765 2.62262 0
M  V30 8825 H 785.532 0.934763 1.28249 0
M  V30 8826 H 785.553 -0.0881293 3.80398 0
M  V30 8827 H 785.065 1.70847 3.48472 0
M  V30 8828 H 783.166 -0.751791 3.64937 0
M  V30 8829 H 783.279 0.795611 4.72448 0
M  V30 8830 H 781.643 0.327239 2.52589 0
M  V30 8831 H 782.426 1.97463 2.80826 0
M  V30 8832 N 784.871 -1.49948 0.485112 0
M  V30 8833 C 785.834 -2.27351 -0.290546 0
M  V30 8834 C 786.834 -1.32704 -0.908087 0
M  V30 8835 O 788.024 -1.56007 -0.775085 0
M  V30 8836 C 785.156 -3.10135 -1.41524 0
M  V30 8837 H 786.349 -2.97374 0.388454 0
M  V30 8838 H 783.902 -1.54453 0.239586 0
M  V30 8839 H 784.637 -2.44641 -2.12888 0
M  V30 8840 H 784.422 -3.79705 -0.978074 0
M  V30 8841 H 785.912 -3.68638 -1.96204 0
M  V30 8842 N 786.349 -0.21828 -1.56081 0
M  V30 8843 C 787.595 0.408181 -1.99262 0
M  V30 8844 C 787.95 1.57618 -1.10337 0
M  V30 8845 O 787.243 1.90991 -0.15263 0
M  V30 8846 C 787.437 0.894782 -3.46018 0
M  V30 8847 C 787.266 -0.224528 -4.49139 0
M  V30 8848 C 786.036 -0.689843 -5.00569 0
M  V30 8849 C 788.234 -1.04165 -5.03641 0
M  V30 8850 N 786.216 -1.78455 -5.8739 0
M  V30 8851 C 787.587 -1.98529 -5.87355 0
M  V30 8852 C 789.642 -1.08146 -4.86013 0
M  V30 8853 C 788.345 -2.96549 -6.55325 0
M  V30 8854 C 790.371 -2.04982 -5.5474 0
M  V30 8855 C 789.733 -2.98086 -6.38219 0
M  V30 8856 H 785.832 0.116127 -0.77333 0
M  V30 8857 H 788.416 -0.3293 -1.91895 0
M  V30 8858 H 786.587 1.60163 -3.53839 0
M  V30 8859 H 788.319 1.49379 -3.76122 0
M  V30 8860 H 785.074 -0.279021 -4.72777 0
M  V30 8861 H 785.498 -2.33381 -6.35502 0
M  V30 8862 H 790.14 -0.375581 -4.21129 0
M  V30 8863 H 787.858 -3.68101 -7.19394 0
M  V30 8864 H 791.444 -2.08732 -5.43067 0
M  V30 8865 H 790.324 -3.71794 -6.90463 0
M  V30 8866 N 787.827 1.57504 0.0551401 0
M  V30 8867 C 788.79 2.03826 1.04821 0
M  V30 8868 C 789.79 0.937968 1.30609 0
M  V30 8869 O 790.98 1.20237 1.2605 0
M  V30 8870 C 788.112 2.43309 2.38775 0
M  V30 8871 H 789.305 2.92802 0.6486 0
M  V30 8872 H 786.858 1.53368 0.301315 0
M  V30 8873 H 787.593 1.5741 2.83536 0
M  V30 8874 H 787.378 3.23615 2.21395 0
M  V30 8875 H 788.868 2.79666 3.10124 0
M  V30 8876 N 789.305 -0.326896 1.54172 0
M  V30 8877 C 790.252 -1.40216 1.83325 0
M  V30 8878 C 791.222 -1.51538 0.680107 0
M  V30 8879 O 792.407 -1.66811 0.926206 0
M  V30 8880 C 789.547 -2.76626 2.0633 0
M  V30 8881 C 788.66 -2.73963 3.34019 0
M  V30 8882 C 787.795 -4.02198 3.47002 0
M  V30 8883 C 786.834 -3.93828 4.68578 0
M  V30 8884 N 785.971 -5.13787 4.78506 0
M  V30 8885 H 790.811 -1.14656 2.7506 0
M  V30 8886 H 788.348 -0.555089 1.36225 0
M  V30 8887 H 790.306 -3.55922 2.17659 0
M  V30 8888 H 788.936 -3.00503 1.1789 0
M  V30 8889 H 787.988 -1.86677 3.31445 0
M  V30 8890 H 789.3 -2.6366 4.2342 0
M  V30 8891 H 788.454 -4.89923 3.57855 0
M  V30 8892 H 787.193 -4.15302 2.55687 0
M  V30 8893 H 786.198 -3.04487 4.57786 0
M  V30 8894 H 787.423 -3.82292 5.61275 0
M  V30 8895 H 785.369 -5.27403 3.90105 0
M  V30 8896 H 785.286 -5.05807 5.61868 0
M  V30 8897 H 786.554 -6.03236 4.93686 0
M  V30 8898 N 790.784 -1.46188 -0.588786 0
M  V30 8899 C 791.694 -1.58865 -1.72624 0
M  V30 8900 C 792.71 -0.472348 -1.67466 0
M  V30 8901 O 793.886 -0.735638 -1.87484 0
M  V30 8902 C 790.951 -1.56989 -3.0912 0
M  V30 8903 C 790.012 -2.79804 -3.25589 0
M  V30 8904 C 789.245 -2.78009 -4.55573 0
M  V30 8905 O 789.468 -1.86406 -5.39082 0
M  V30 8906 O 788.402 -3.6947 -4.75159 0
M  V30 8907 H 792.228 -2.55047 -1.64878 0
M  V30 8908 H 789.813 -1.28912 -0.755115 0
M  V30 8909 H 791.695 -1.58618 -3.90408 0
M  V30 8910 H 790.37 -0.639648 -3.17317 0
M  V30 8911 H 789.277 -2.83732 -2.43818 0
M  V30 8912 H 790.61 -3.72017 -3.22279 0
M  V30 8913 N 792.262 0.832906 -1.33792 0
M  V30 8914 C 793.508 1.59089 -1.25772 0
M  V30 8915 C 793.841 1.93414 0.174601 0
M  V30 8916 O 793.116 1.59195 1.11746 0
M  V30 8917 C 793.399 2.89699 -2.13885 0
M  V30 8918 C 793.252 2.62017 -3.65605 0
M  V30 8919 C 794.571 3.91182 -2.01654 0
M  V30 8920 H 791.69 0.577232 -0.458227 0
M  V30 8921 H 794.332 0.960227 -1.6395 0
M  V30 8922 H 792.482 3.4352 -1.81456 0
M  V30 8923 H 794.154 2.14582 -4.08353 0
M  V30 8924 H 792.397 1.95621 -3.87189 0
M  V30 8925 H 793.068 3.55112 -4.2261 0
M  V30 8926 H 795.544 3.46684 -2.30107 0
M  V30 8927 H 794.42 4.80391 -2.65548 0
M  V30 8928 H 794.681 4.30861 -0.990536 0
M  V30 8929 N 793.74 1.17359 1.05189 0
M  V30 8930 C 794.65 0.904984 2.16442 0
M  V30 8931 C 795.666 -0.12686 1.73537 0
M  V30 8932 O 796.842 0.0524127 2.01332 0
M  V30 8933 C 793.907 0.422019 3.44122 0
M  V30 8934 C 792.968 1.52045 4.01473 0
M  V30 8935 C 792.201 1.06044 5.23059 0
M  V30 8936 O 792.424 -0.0854023 5.70336 0
M  V30 8937 O 791.358 1.85349 5.72651 0
M  V30 8938 H 795.184 1.8356 2.41949 0
M  V30 8939 H 792.769 0.95447 1.14936 0
M  V30 8940 H 794.651 0.160208 4.21095 0
M  V30 8941 H 793.326 -0.480444 3.20115 0
M  V30 8942 H 792.233 1.83615 3.25939 0
M  V30 8943 H 793.566 2.39863 4.29798 0
M  V30 8944 N 795.218 -1.23913 0.973828 0
M  V30 8945 C 796.128 -2.28838 0.516735 0
M  V30 8946 C 797.144 -1.68723 -0.425282 0
M  V30 8947 O 798.32 -1.99201 -0.296819 0
M  V30 8948 C 795.385 -3.46233 -0.179914 0
M  V30 8949 C 794.446 -4.21729 0.80269 0
M  V30 8950 C 793.679 -5.33518 0.139191 0
M  V30 8951 O 793.902 -5.60252 -1.07118 0
M  V30 8952 O 792.836 -5.96088 0.834447 0
M  V30 8953 H 796.662 -2.70067 1.38916 0
M  V30 8954 H 794.247 -1.2972 0.74115 0
M  V30 8955 H 796.129 -4.17514 -0.570991 0
M  V30 8956 H 794.804 -3.06969 -1.02721 0
M  V30 8957 H 793.711 -3.52799 1.24434 0
M  V30 8958 H 795.044 -4.64825 1.61859 0
M  V30 8959 N 796.696 -0.74468 -1.38897 0
M  V30 8960 C 798.112 -0.421302 -1.53939 0
M  V30 8961 C 798.312 1.06668 -1.70951 0
M  V30 8962 O 797.368 1.85278 -1.71547 0
M  V30 8963 C 798.681 -1.21278 -2.75159 0
M  V30 8964 C 800.229 -1.20196 -2.89001 0
M  V30 8965 C 800.704 -1.97621 -4.13171 0
M  V30 8966 N 802.195 -1.94836 -4.2023 0
M  V30 8967 C 802.93 -2.51545 -5.15279 0
M  V30 8968 N 802.426 -3.1693 -6.16058 0
M  V30 8969 N 804.219 -2.41524 -5.07565 0
M  V30 8970 H 796.37 -1.70914 -1.26103 0
M  V30 8971 H 798.633 -0.724058 -0.611919 0
M  V30 8972 H 798.339 -2.26609 -2.68963 0
M  V30 8973 H 798.213 -0.823677 -3.68097 0
M  V30 8974 H 800.6 -0.156742 -2.94683 0
M  V30 8975 H 800.681 -1.63051 -1.97099 0
M  V30 8976 H 800.325 -3.02149 -4.0825 0
M  V30 8977 H 800.255 -1.52166 -5.04136 0
M  V30 8978 H 802.746 -1.4721 -3.48048 0
M  V30 8979 H 803.059 -3.57644 -6.85062 0
M  V30 8980 H 801.404 -3.21023 -6.16417 0
M  V30 8981 H 804.595 -1.90077 -4.27771 0
M  V30 8982 H 804.768 -2.86016 -5.81462 0
M  V30 8983 N 798.174 1.49689 -0.493057 0
M  V30 8984 C 799.399 2.07331 0.0535114 0
M  V30 8985 C 799.824 1.35196 1.30781 0
M  V30 8986 O 799.182 0.406246 1.7669 0
M  V30 8987 C 799.23 3.59364 0.29825 0
M  V30 8988 O 798.334 3.88819 1.37454 0
M  V30 8989 H 797.675 0.663612 -0.0227018 0
M  V30 8990 H 800.205 1.926 -0.690402 0
M  V30 8991 H 800.215 4.04515 0.532159 0
M  V30 8992 H 798.89 4.1128 -0.618207 0
M  V30 8993 H 797.467 3.55487 1.12621 0
M  V30 8994 N 799.652 0.226554 1.55963 0
M  V30 8995 C 801.068 -0.128733 1.5908 0
M  V30 8996 C 801.268 -1.58558 1.24345 0
M  V30 8997 O 800.324 -2.32661 0.981069 0
M  V30 8998 C 801.637 0.202076 3.0002 0
M  V30 8999 C 803.185 0.144718 3.12665 0
M  V30 9000 C 803.66 0.449272 4.55791 0
M  V30 9001 N 805.151 0.399026 4.61478 0
M  V30 9002 C 805.886 0.608106 5.70166 0
M  V30 9003 N 805.382 0.879227 6.87198 0
M  V30 9004 N 807.175 0.5402 5.59498 0
M  V30 9005 H 799.326 1.17686 1.76816 0
M  V30 9006 H 801.589 0.472072 0.822102 0
M  V30 9007 H 801.295 1.21341 3.30105 0
M  V30 9008 H 801.169 -0.480554 3.74126 0
M  V30 9009 H 803.556 -0.857261 2.82374 0
M  V30 9010 H 803.637 0.860899 2.40878 0
M  V30 9011 H 803.281 1.44871 4.86801 0
M  V30 9012 H 803.211 -0.288157 5.25811 0
M  V30 9013 H 805.702 0.197372 3.77384 0
M  V30 9014 H 806.015 1.02673 7.65949 0
M  V30 9015 H 804.36 0.916477 6.88931 0
M  V30 9016 H 807.551 0.328581 4.66945 0
M  V30 9017 H 807.724 0.706548 6.44137 0
M  V30 9018 N 801.13 -1.57531 -0.0467866 0
M  V30 9019 C 802.06 -2.08425 -1.05268 0
M  V30 9020 C 803.041 -0.982941 -1.38825 0
M  V30 9021 O 804.226 -1.25716 -1.48018 0
M  V30 9022 C 801.356 -2.54897 -2.35891 0
M  V30 9023 C 800.31 -3.69132 -2.16623 0
M  V30 9024 C 799.636 -4.01747 -3.52851 0
M  V30 9025 C 800.936 -4.98243 -1.56689 0
M  V30 9026 H 802.63 -2.92716 -0.62908 0
M  V30 9027 H 800.176 -1.40816 -0.301156 0
M  V30 9028 H 802.129 -2.8912 -3.06574 0
M  V30 9029 H 800.853 -1.67666 -2.80278 0
M  V30 9030 H 799.512 -3.35231 -1.48377 0
M  V30 9031 H 799.16 -3.11608 -3.94853 0
M  V30 9032 H 798.86 -4.78681 -3.4079 0
M  V30 9033 H 800.384 -4.38487 -4.24925 0
M  V30 9034 H 801.798 -5.30535 -2.17268 0
M  V30 9035 H 800.195 -5.79669 -1.55255 0
M  V30 9036 H 801.265 -4.81986 -0.530827 0
M  V30 9037 N 802.608 0.318715 -1.54344 0
M  V30 9038 C 803.556 1.41254 -1.84798 0
M  V30 9039 C 804.55 1.53325 -0.720256 0
M  V30 9040 O 805.756 1.55653 -0.903992 0
M  V30 9041 H 802.131 0.471468 -0.585851 0
M  V30 9042 H 804.102 1.12795 -2.7626 0
M  V30 9043 C 802.851 2.77395 -2.09637 0
M  V30 9044 H 802.174 2.68881 -2.95876 0
M  V30 9045 H 803.614 3.52987 -2.34896 0
M  V30 9046 C 802.073 3.24948 -0.889398 0
M  V30 9047 O 802.603 4.01573 -0.101063 0
M  V30 9048 N 800.809 2.82051 -0.699684 0
M  V30 9049 H 800.356 2.19858 -1.3424 0
M  V30 9050 H 800.314 3.1422 0.106368 0
M  V30 9051 N 804.086 1.46499 0.581025 0
M  V30 9052 C 805.502 1.31491 0.904563 0
M  V30 9053 C 805.702 0.287598 1.99437 0
M  V30 9054 O 804.758 -0.309247 2.50599 0
M  V30 9055 C 806.071 2.70163 1.32032 0
M  V30 9056 C 807.619 2.78266 1.43308 0
M  V30 9057 C 808.094 4.17524 1.8825 0
M  V30 9058 N 809.585 4.19949 1.9544 0
M  V30 9059 C 810.32 5.24594 2.31493 0
M  V30 9060 N 809.816 6.39564 2.66326 0
M  V30 9061 N 811.609 5.11961 2.32062 0
M  V30 9062 H 803.76 2.11946 -0.138856 0
M  V30 9063 H 806.023 0.948 0.000548528 0
M  V30 9064 H 805.729 3.46655 0.593554 0
M  V30 9065 H 805.603 3.00379 2.2815 0
M  V30 9066 H 807.99 2.02061 2.15071 0
M  V30 9067 H 808.071 2.51732 0.45438 0
M  V30 9068 H 807.715 4.94225 1.17065 0
M  V30 9069 H 807.645 4.41466 2.87081 0
M  V30 9070 H 810.136 3.36996 1.71004 0
M  V30 9071 H 810.449 7.15187 2.92793 0
M  V30 9072 H 808.794 6.42923 2.6396 0
M  V30 9073 H 811.985 4.21177 2.04272 0
M  V30 9074 H 812.158 5.93626 2.5983 0
M  V30 9075 N 805.565 -0.825799 1.34232 0
M  V30 9076 C 806.497 -1.94401 1.21413 0
M  V30 9077 C 807.51 -1.6218 0.141902 0
M  V30 9078 O 808.699 -1.74109 0.3935 0
M  V30 9079 C 805.799 -3.28257 0.842635 0
M  V30 9080 C 804.972 -3.88521 2.00924 0
M  V30 9081 C 804.031 -5.00752 1.61661 0
M  V30 9082 O 803.057 -5.19201 2.33279 0
M  V30 9083 N 804.259 -5.78084 0.52911 0
M  V30 9084 H 807.024 -2.05931 2.17744 0
M  V30 9085 H 804.585 -1.00223 1.27149 0
M  V30 9086 H 806.577 -4.00781 0.561822 0
M  V30 9087 H 805.147 -3.12585 -0.0304029 0
M  V30 9088 H 804.367 -3.08425 2.45495 0
M  V30 9089 H 805.655 -4.25516 2.78951 0
M  V30 9090 H 805.053 -5.65661 -0.0663322 0
M  V30 9091 H 803.61 -6.51072 0.308017 0
M  V30 9092 N 807.043 -1.17915 -1.04565 0
M  V30 9093 C 808.268 -0.996749 -1.81878 0
M  V30 9094 C 808.693 0.450169 -1.82634 0
M  V30 9095 O 808.051 1.32268 -1.23995 0
M  V30 9096 C 808.099 -1.55005 -3.25585 0
M  V30 9097 O 807.203 -0.76804 -4.05185 0
M  V30 9098 H 806.544 -0.353456 -0.562108 0
M  V30 9099 H 809.074 -1.56557 -1.31723 0
M  V30 9100 H 809.084 -1.57503 -3.76373 0
M  V30 9101 H 807.759 -2.60327 -3.2435 0
M  V30 9102 H 806.336 -0.81498 -3.63885 0
M  V30 9103 N 808.521 1.23394 -0.980386 0
M  V30 9104 C 809.746 1.96384 -0.666935 0
M  V30 9105 C 810.171 1.72087 0.759456 0
M  V30 9106 O 809.529 0.992328 1.51732 0
M  V30 9107 C 809.577 3.47499 -0.963177 0
M  V30 9108 O 808.681 4.12363 -0.0552051 0
M  V30 9109 H 808.022 0.614797 -0.250839 0
M  V30 9110 H 810.552 1.56831 -1.31398 0
M  V30 9111 H 810.562 3.97953 -0.899877 0
M  V30 9112 H 809.237 3.6451 -2.00264 0
M  V30 9113 H 807.814 3.72499 -0.172914 0
M  V30 9114 N 809.999 0.752036 1.385 0
M  V30 9115 C 811.41 0.375385 1.82887 0
M  V30 9116 C 811.761 -1.09575 1.62751 0
M  V30 9117 O 810.886 -1.84685 1.12785 0
M  V30 9118 C 811.481 0.674563 3.32017 0
M  V30 9119 C 810.04 0.351208 3.74758 0
M  V30 9120 C 809.187 0.928531 2.61292 0
M  V30 9121 H 812.138 0.948313 1.27251 0
M  V30 9122 H 812.159 -0.0477781 3.8047 0
M  V30 9123 H 811.671 1.74533 3.46641 0
M  V30 9124 H 809.772 -0.713042 3.65714 0
M  V30 9125 H 809.885 0.845675 4.71577 0
M  V30 9126 H 808.249 0.354012 2.52228 0
M  V30 9127 H 809.032 2.0043 2.78716 0
M  V30 9128 N 811.477 -1.49425 0.500989 0
M  V30 9129 C 812.44 -2.27646 -0.266416 0
M  V30 9130 C 813.44 -1.3366 -0.893961 0
M  V30 9131 O 814.63 -1.5682 -0.758495 0
M  V30 9132 C 811.762 -3.11618 -1.38227 0
M  V30 9133 H 812.955 -2.96945 0.419973 0
M  V30 9134 H 810.508 -1.5419 0.255954 0
M  V30 9135 H 811.243 -2.46885 -2.10281 0
M  V30 9136 H 811.028 -3.80721 -0.937746 0
M  V30 9137 H 812.518 -3.70698 -1.92283 0
M  V30 9138 N 812.955 -0.234822 -1.55841 0
M  V30 9139 C 813.888 0.710134 -2.16869 0
M  V30 9140 C 814.866 1.18155 -1.11706 0
M  V30 9141 O 816.05 1.26188 -1.40032 0
M  V30 9142 C 813.177 1.96368 -2.75966 0
M  V30 9143 C 812.223 1.63114 -3.94076 0
M  V30 9144 S 813.056 0.744307 -5.30302 0
M  V30 9145 C 814.212 2.00712 -5.92845 0
M  V30 9146 H 814.445 0.19146 -2.96683 0
M  V30 9147 H 811.978 -0.0193854 -1.54388 0
M  V30 9148 H 813.936 2.68338 -3.10653 0
M  V30 9149 H 812.597 2.45347 -1.96121 0
M  V30 9150 H 811.79 2.56285 -4.33975 0
M  V30 9151 H 811.392 0.991967 -3.60605 0
M  V30 9152 H 813.684 2.9557 -6.09627 0
M  V30 9153 H 814.627 1.65182 -6.88564 0
M  V30 9154 H 815.035 2.1537 -5.21801 0
M  V30 9155 N 814.433 1.57553 0.0384317 0
M  V30 9156 C 815.844 1.77258 0.586211 0
M  V30 9157 C 816.195 0.864706 1.76117 0
M  V30 9158 O 815.32 0.057141 2.16325 0
M  V30 9159 C 815.915 3.21453 1.07021 0
M  V30 9160 C 814.474 3.42387 1.56358 0
M  V30 9161 C 813.621 2.72801 0.497508 0
M  V30 9162 H 816.572 1.57585 -0.187796 0
M  V30 9163 H 816.593 3.27451 1.93794 0
M  V30 9164 H 816.105 3.87505 0.214851 0
M  V30 9165 H 814.206 2.81497 2.44111 0
M  V30 9166 H 814.319 4.50968 1.61754 0
M  V30 9167 H 812.683 2.36305 0.95038 0
M  V30 9168 H 813.466 3.41529 -0.348234 0
M  V30 9169 N 815.911 -0.310526 1.54511 0
M  V30 9170 C 816.861 -1.38405 1.81185 0
M  V30 9171 C 817.845 -1.46355 0.668499 0
M  V30 9172 O 819.037 -1.50668 0.928873 0
M  V30 9173 C 816.166 -2.75059 2.0542 0
M  V30 9174 C 815.252 -2.7137 3.25913 0
M  V30 9175 N 815.643 -2.37298 4.4668 0
M  V30 9176 C 813.941 -3.02484 3.27749 0
M  V30 9177 C 814.642 -2.42669 5.28665 0
M  V30 9178 N 813.618 -2.79639 4.66158 0
M  V30 9179 H 817.42 -1.11012 2.72128 0
M  V30 9180 H 814.934 -0.519068 1.53881 0
M  V30 9181 H 816.931 -3.52451 2.22674 0
M  V30 9182 H 815.591 -3.03372 1.15739 0
M  V30 9183 H 816.602 -2.09917 4.73451 0
M  V30 9184 H 813.279 -3.35754 2.48144 0
M  V30 9185 H 814.669 -2.19206 6.35136 0
M  V30 9186 N 817.389 -1.46805 -0.573248 0
M  V30 9187 C 818.336 -1.58084 -1.68161 0
M  V30 9188 C 819.306 -0.424636 -1.6058 0
M  V30 9189 O 820.491 -0.642623 -1.79652 0
M  V30 9190 C 817.631 -1.58601 -3.06496 0
M  V30 9191 C 816.744 -2.85023 -3.24632 0
M  V30 9192 C 815.879 -2.76981 -4.53271 0
M  V30 9193 C 814.918 -3.983 -4.64783 0
M  V30 9194 N 814.055 -3.88589 -5.84759 0
M  V30 9195 H 818.895 -2.52755 -1.57858 0
M  V30 9196 H 816.432 -1.25385 -0.769218 0
M  V30 9197 H 818.39 -1.56885 -3.86579 0
M  V30 9198 H 817.02 -0.674553 -3.15673 0
M  V30 9199 H 816.072 -2.96678 -2.38089 0
M  V30 9200 H 817.384 -3.7491 -3.29004 0
M  V30 9201 H 816.538 -2.73424 -5.41594 0
M  V30 9202 H 815.277 -1.84751 -4.51352 0
M  V30 9203 H 814.282 -4.02179 -3.74876 0
M  V30 9204 H 815.507 -4.91639 -4.68474 0
M  V30 9205 H 813.453 -2.99151 -5.83819 0
M  V30 9206 H 813.37 -4.7214 -5.90441 0
M  V30 9207 H 814.638 -3.89022 -6.75486 0
M  V30 9208 N 818.867 0.818669 -1.34668 0
M  V30 9209 C 820.113 1.57746 -1.27453 0
M  V30 9210 C 820.446 1.93588 0.154077 0
M  V30 9211 O 819.721 1.60371 1.10051 0
M  V30 9212 C 820.004 2.87414 -2.16945 0
M  V30 9213 C 819.857 2.58125 -3.68363 0
M  V30 9214 C 821.176 3.89021 -2.05792 0
M  V30 9215 H 818.295 0.572339 -0.464324 0
M  V30 9216 H 820.937 0.942784 -1.64959 0
M  V30 9217 H 819.087 3.41576 -1.85089 0
M  V30 9218 H 820.759 2.10239 -4.10606 0
M  V30 9219 H 819.002 1.91503 -3.89242 0
M  V30 9220 H 819.673 3.5061 -4.26353 0
M  V30 9221 H 822.149 3.44224 -2.33771 0
M  V30 9222 H 821.025 4.77548 -2.70628 0
M  V30 9223 H 821.286 4.29786 -1.03618 0
M  V30 9224 N 820.346 1.18468 1.03938 0
M  V30 9225 C 821.309 0.914944 2.10146 0
M  V30 9226 C 822.309 -0.10022 1.60487 0
M  V30 9227 O 823.499 0.133365 1.73689 0
M  V30 9228 C 820.631 0.372993 3.38853 0
M  V30 9229 H 821.824 1.85677 2.35508 0
M  V30 9230 H 819.377 0.996876 1.20383 0
M  V30 9231 H 820.112 -0.57538 3.19155 0
M  V30 9232 H 819.897 1.1048 3.76213 0
M  V30 9233 H 821.387 0.203014 4.17106 0
M  V30 9234 N 821.824 -1.22873 0.986916 0
M  V30 9235 C 822.772 -2.26597 0.525043 0
M  V30 9236 C 823.766 -1.64079 -0.421252 0
M  V30 9237 O 824.972 -1.77576 -0.294429 0
M  V30 9238 H 821.347 -0.736606 0.151381 0
M  V30 9239 H 823.318 -2.62909 1.41142 0
M  V30 9240 C 822.067 -3.47374 -0.150542 0
M  V30 9241 H 821.39 -3.95737 0.568541 0
M  V30 9242 H 822.83 -4.21739 -0.437256 0
M  V30 9243 C 821.289 -3.07163 -1.38392 0
M  V30 9244 O 821.819 -3.16028 -2.47971 0
M  V30 9245 N 820.025 -2.62009 -1.25697 0
M  V30 9246 H 819.572 -2.54996 -0.365355 0
M  V30 9247 H 819.53 -2.35472 -2.08327 0
M  V30 9248 N 823.302 -0.75937 -1.38099 0
M  V30 9249 C 824.718 -0.437606 -1.53483 0
M  V30 9250 C 824.918 1.04849 -1.72072 0
M  V30 9251 O 823.974 1.83448 -1.73502 0
M  V30 9252 C 825.287 -1.24189 -2.73857 0
M  V30 9253 C 826.835 -1.23255 -2.8771 0
M  V30 9254 C 827.31 -2.01992 -4.11051 0
M  V30 9255 N 828.801 -1.99282 -4.1814 0
M  V30 9256 C 829.536 -2.56996 -5.12583 0
M  V30 9257 N 829.032 -3.23446 -6.12662 0
M  V30 9258 N 830.825 -2.46894 -5.04975 0
M  V30 9259 H 822.976 -1.72242 -1.24283 0
M  V30 9260 H 825.239 -0.730507 -0.604205 0
M  V30 9261 H 824.945 -2.29449 -2.66545 0
M  V30 9262 H 824.819 -0.862672 -3.67203 0
M  V30 9263 H 827.206 -0.187988 -2.94501 0
M  V30 9264 H 827.287 -1.65132 -1.95359 0
M  V30 9265 H 826.931 -3.06462 -4.05023 0
M  V30 9266 H 826.861 -1.57505 -5.02494 0
M  V30 9267 H 829.352 -1.50893 -3.46467 0
M  V30 9268 H 829.665 -3.6489 -6.81231 0
M  V30 9269 H 828.01 -3.27543 -6.12977 0
M  V30 9270 H 831.201 -1.94604 -4.25731 0
M  V30 9271 H 831.374 -2.92168 -5.78396 0
M  V30 9272 N 824.78 1.49157 -0.508906 0
M  V30 9273 C 826.029 2.0167 0.0346854 0
M  V30 9274 C 826.342 1.39302 1.37311 0
M  V30 9275 O 827.548 1.83189 2.00385 0
M  V30 9276 C 826.004 3.59725 0.112261 0
M  V30 9277 C 825.612 4.31069 -1.21999 0
M  V30 9278 C 827.356 4.20155 0.605798 0
M  V30 9279 C 825.263 5.81001 -1.10415 0
M  V30 9280 H 824.193 0.753814 0.0167355 0
M  V30 9281 H 826.844 1.7162 -0.649518 0
M  V30 9282 H 825.226 3.86525 0.861087 0
M  V30 9283 H 826.4 4.15962 -1.98273 0
M  V30 9284 H 824.715 3.82418 -1.64759 0
M  V30 9285 H 827.312 5.29964 0.710102 0
M  V30 9286 H 827.655 3.84051 1.60656 0
M  V30 9287 H 828.188 3.97705 -0.0867239 0
M  V30 9288 H 824.927 6.21643 -2.07941 0
M  V30 9289 H 824.447 5.9858 -0.382428 0
M  V30 9290 H 826.126 6.42207 -0.786116 0
M  V30 9291 N 826.258 0.243083 1.55714 0
M  V30 9292 C 827.483 -0.389944 2.03701 0
M  V30 9293 C 827.908 -1.51025 1.12129 0
M  V30 9294 O 827.266 -1.80944 0.11352 0
M  V30 9295 C 827.314 -0.878649 3.49731 0
M  V30 9296 O 826.418 -1.98851 3.61292 0
M  V30 9297 H 825.759 -0.0855115 0.658471 0
M  V30 9298 H 828.289 0.368023 2.01263 0
M  V30 9299 H 828.299 -1.18287 3.90477 0
M  V30 9300 H 826.974 -0.0588107 4.15858 0
M  V30 9301 H 825.551 -1.68928 3.32442 0
M  V30 9302 N 827.736 -1.57571 -0.0300757 0
M  V30 9303 C 829.013 -1.80381 -0.756447 0
M  V30 9304 C 829.393 -0.840906 -1.93628 0
M  V30 9305 O 828.741 0.117143 -2.282 0
M  V30 9306 C 828.951 -3.2807 -1.19043 0
M  V30 9307 C 830.299 -3.93025 -1.60676 0
M  V30 9308 O 831.323 -3.32213 -1.28503 0
M  V30 9309 O 830.182 -5.00092 -2.20386 0
M  V30 9310 H 827.276 -0.741737 -0.365725 0
M  V30 9311 H 829.822 -1.69699 -0.00693177 0
M  V30 9312 H 828.594 -3.89748 -0.348128 0
M  V30 9313 H 828.217 -3.43637 -1.99999 0
M  V30 9314 N 829.214 0.302327 -1.54673 0
M  V30 9315 C 830.625 0.875409 -1.64904 0
M  V30 9316 C 830.976 1.88132 -0.55684 0
M  V30 9317 O 830.101 2.14215 0.306754 0
M  V30 9318 C 830.696 1.59457 -2.9893 0
M  V30 9319 C 829.255 2.11607 -3.11287 0
M  V30 9320 C 828.402 0.948324 -2.6058 0
M  V30 9321 H 831.353 0.079362 -1.58501 0
M  V30 9322 H 831.374 2.46005 -2.90279 0
M  V30 9323 H 830.886 0.8622 -3.78402 0
M  V30 9324 H 828.987 2.87895 -2.36532 0
M  V30 9325 H 829.1 2.35151 -4.17422 0
M  V30 9326 H 827.464 1.33352 -2.17001 0
M  V30 9327 H 828.247 0.229936 -3.42529 0
M  V30 9328 N 830.692 1.47107 0.565454 0
M  V30 9329 C 831.64 1.59368 1.69424 0
M  V30 9330 C 832.634 0.461344 1.62997 0
M  V30 9331 O 833.84 0.638849 1.68282 0
M  V30 9332 H 830.215 0.501387 0.560459 0
M  V30 9333 H 832.186 2.54242 1.56217 0
M  V30 9334 C 830.935 1.61739 3.07792 0
M  V30 9335 H 830.258 2.48215 3.13416 0
M  V30 9336 H 831.698 1.7437 3.86486 0
M  V30 9337 C 830.157 0.349156 3.35086 0
M  V30 9338 O 830.687 -0.553287 3.97871 0
M  V30 9339 N 828.893 0.231723 2.89675 0
M  V30 9340 H 828.44 0.967021 2.3876 0
M  V30 9341 H 828.398 -0.615911 3.08308 0
M  V30 9342 N 832.17 -0.811516 1.35101 0
M  V30 9343 C 833.1 -1.9378 1.30275 0
M  V30 9344 C 834.081 -1.69165 0.178075 0
M  V30 9345 O 835.266 -1.90599 0.372256 0
M  V30 9346 C 832.396 -3.30439 1.06899 0
M  V30 9347 C 831.35 -3.69523 2.15955 0
M  V30 9348 C 830.676 -5.0429 1.77751 0
M  V30 9349 C 831.976 -3.80419 3.57881 0
M  V30 9350 H 833.67 -1.98075 2.24514 0
M  V30 9351 H 831.216 -0.951586 1.08078 0
M  V30 9352 H 833.169 -4.08828 1.02164 0
M  V30 9353 H 831.893 -3.26473 0.0910462 0
M  V30 9354 H 830.552 -2.93416 2.19778 0
M  V30 9355 H 830.2 -4.96823 0.785876 0
M  V30 9356 H 829.9 -5.31411 2.5075 0
M  V30 9357 H 831.424 -5.85125 1.74533 0
M  V30 9358 H 832.838 -4.49051 3.56407 0
M  V30 9359 H 831.235 -4.19005 4.29598 0
M  V30 9360 H 832.305 -2.82105 3.94391 0
M  V30 9361 N 833.648 -1.19017 -1.03309 0
M  V30 9362 C 835.059 -0.993206 -1.5809 0
M  V30 9363 C 835.41 0.45505 -1.9085 0
M  V30 9364 O 834.535 1.33372 -1.70414 0
M  V30 9365 C 835.13 -1.79661 -2.87241 0
M  V30 9366 C 833.689 -1.64377 -3.38611 0
M  V30 9367 C 832.836 -1.78628 -2.12102 0
M  V30 9368 H 835.787 -1.3345 -0.858879 0
M  V30 9369 H 835.808 -1.29019 -3.57958 0
M  V30 9370 H 835.32 -2.85061 -2.63366 0
M  V30 9371 H 833.421 -0.615447 -3.67482 0
M  V30 9372 H 833.534 -2.44651 -4.11926 0
M  V30 9373 H 831.898 -1.21648 -2.23772 0
M  V30 9374 H 832.681 -2.8548 -1.90673 0
M  V30 9375 N 835.127 1.22348 -0.993418 0
M  V30 9376 C 836.538 1.72893 -0.704616 0
M  V30 9377 C 836.889 1.80095 0.778483 0
M  V30 9378 O 836.014 1.4476 1.60853 0
M  V30 9379 C 836.609 3.14 -1.27237 0
M  V30 9380 C 835.168 3.61949 -1.03294 0
M  V30 9381 C 834.315 2.39816 -1.39225 0
M  V30 9382 H 837.266 1.07688 -1.16572 0
M  V30 9383 H 837.287 3.74886 -0.651212 0
M  V30 9384 H 836.799 3.08727 -2.3518 0
M  V30 9385 H 834.9 3.72588 0.0298329 0
M  V30 9386 H 835.013 4.48051 -1.69668 0
M  V30 9387 H 833.377 2.41448 -0.810849 0
M  V30 9388 H 834.16 2.37203 -2.48172 0
M  V30 9389 N 836.605 0.766683 1.37694 0
M  V30 9390 C 838.021 0.445739 1.53249 0
M  V30 9391 C 838.221 -1.03935 1.72626 0
M  V30 9392 O 837.277 -1.82525 1.74473 0
M  V30 9393 C 838.59 1.2564 2.73194 0
M  V30 9394 C 840.138 1.24779 2.87053 0
M  V30 9395 C 840.613 2.04169 4.09974 0
M  V30 9396 N 842.104 2.01497 4.17077 0
M  V30 9397 C 842.839 2.5971 5.11212 0
M  V30 9398 N 842.335 3.26691 6.10938 0
M  V30 9399 N 844.128 2.49568 5.03659 0
M  V30 9400 H 836.279 1.72899 1.23368 0
M  V30 9401 H 838.542 0.733701 0.600322 0
M  V30 9402 H 838.248 2.30859 2.65324 0
M  V30 9403 H 838.122 0.882133 3.6674 0
M  V30 9404 H 840.509 0.203603 2.94397 0
M  V30 9405 H 840.59 1.66166 1.9448 0
M  V30 9406 H 840.234 3.08606 4.03392 0
M  V30 9407 H 840.164 1.60167 5.01651 0
M  V30 9408 H 842.655 1.52728 3.45662 0
M  V30 9409 H 842.968 3.68497 6.79286 0
M  V30 9410 H 841.313 3.30789 6.11231 0
M  V30 9411 H 844.504 1.96859 4.24693 0
M  V30 9412 H 844.677 2.95231 5.76839 0
M  V30 9413 N 838.083 -1.48885 0.516809 0
M  V30 9414 C 839.308 -2.0739 -0.0205201 0
M  V30 9415 C 839.733 -1.37259 -1.28614 0
M  V30 9416 O 839.091 -0.434304 -1.76021 0
M  V30 9417 C 839.139 -3.59793 -0.24104 0
M  V30 9418 O 838.243 -3.90957 -1.31251 0
M  V30 9419 H 837.584 -0.663167 0.0332564 0
M  V30 9420 H 840.114 -1.91477 0.720956 0
M  V30 9421 H 840.124 -4.0531 -0.467737 0
M  V30 9422 H 838.799 -4.10244 0.68356 0
M  V30 9423 H 837.376 -3.57234 -1.06951 0
M  V30 9424 N 839.561 -0.251338 -1.55583 0
M  V30 9425 C 840.471 0.656978 -2.25213 0
M  V30 9426 C 841.487 1.18966 -1.26977 0
M  V30 9427 O 842.663 1.22499 -1.59862 0
M  V30 9428 C 839.728 1.83527 -2.94141 0
M  V30 9429 C 838.789 1.34162 -4.07798 0
M  V30 9430 C 838.022 2.46375 -4.73429 0
M  V30 9431 O 838.245 3.65205 -4.38157 0
M  V30 9432 O 837.179 2.15881 -5.61853 0
M  V30 9433 H 841.005 0.0936395 -3.03556 0
M  V30 9434 H 838.59 -0.0196638 -1.49387 0
M  V30 9435 H 840.472 2.52279 -3.3754 0
M  V30 9436 H 839.147 2.38614 -2.18735 0
M  V30 9437 H 838.054 0.621249 -3.68906 0
M  V30 9438 H 839.387 0.836779 -4.85035 0
M  V30 9439 N 841.039 1.57585 0.0217189 0
M  V30 9440 C 842.264 1.94267 0.726309 0
M  V30 9441 C 842.689 0.851904 1.67703 0
M  V30 9442 O 842.047 -0.191792 1.80283 0
M  V30 9443 C 842.095 3.30023 1.45318 0
M  V30 9444 O 841.199 3.22791 2.5667 0
M  V30 9445 H 840.54 0.634777 0.194818 0
M  V30 9446 H 843.07 2.04585 -0.0249985 0
M  V30 9447 H 843.08 3.65084 1.82147 0
M  V30 9448 H 841.755 4.08972 0.755962 0
M  V30 9449 H 840.332 2.99373 2.2233 0
M  V30 9450 N 842.517 -0.29412 1.54831 0
M  V30 9451 C 843.764 -1.02846 1.74439 0
M  V30 9452 C 844.092 -1.87029 0.533905 0
M  V30 9453 O 843.347 -1.8962 -0.484035 0
M  V30 9454 C 843.646 -1.95782 2.99006 0
M  V30 9455 C 843.312 -1.2752 4.32492 0
M  V30 9456 C 841.974 -1.08637 4.68777 0
M  V30 9457 C 844.326 -0.787761 5.15212 0
M  V30 9458 C 841.654 -0.39704 5.85355 0
M  V30 9459 C 844.006 -0.112123 6.32501 0
M  V30 9460 C 842.67 0.0886071 6.67441 0
M  V30 9461 H 841.94 -0.376341 0.638317 0
M  V30 9462 H 844.587 -0.302684 1.89093 0
M  V30 9463 H 842.892 -2.74911 2.79162 0
M  V30 9464 H 844.589 -2.52684 3.11371 0
M  V30 9465 H 841.179 -1.43226 4.03961 0
M  V30 9466 H 845.363 -0.921341 4.87673 0
M  V30 9467 H 840.619 -0.230597 6.10965 0
M  V30 9468 H 844.793 0.27344 6.95863 0
M  V30 9469 H 842.42 0.624748 7.57628 0
M  V30 9470 N 843.995 -1.47404 -0.557645 0
M  V30 9471 C 845.22 -1.57868 -1.34508 0
M  V30 9472 C 845.645 -0.229151 -1.86699 0
M  V30 9473 O 845.003 0.794908 -1.62944 0
M  V30 9474 C 845.051 -2.60712 -2.49122 0
M  V30 9475 O 844.155 -2.15952 -3.51338 0
M  V30 9476 H 843.496 -0.530335 -0.399551 0
M  V30 9477 H 846.026 -1.93181 -0.673954 0
M  V30 9478 H 846.036 -2.81118 -2.95697 0
M  V30 9479 H 844.711 -3.58701 -2.10491 0
M  V30 9480 H 843.288 -2.05644 -3.11071 0
M  V30 9481 N 845.473 0.80434 -1.35529 0
M  V30 9482 C 846.722 1.55665 -1.28263 0
M  V30 9483 C 847.035 1.95096 0.140352 0
M  V30 9484 O 848.241 2.69422 0.335303 0
M  V30 9485 C 846.697 2.80935 -2.24952 0
M  V30 9486 C 846.305 2.48733 -3.72607 0
M  V30 9487 C 848.049 3.5894 -2.26632 0
M  V30 9488 C 845.956 3.70308 -4.61114 0
M  V30 9489 H 844.886 0.584301 -0.476559 0
M  V30 9490 H 847.537 0.88395 -1.60806 0
M  V30 9491 H 845.919 3.49927 -1.85383 0
M  V30 9492 H 847.093 1.87733 -4.20824 0
M  V30 9493 H 845.408 1.83969 -3.73557 0
M  V30 9494 H 848.005 4.49244 -2.89973 0
M  V30 9495 H 848.348 3.96433 -1.27069 0
M  V30 9496 H 848.881 2.96912 -2.64742 0
M  V30 9497 H 845.62 3.37922 -5.61684 0
M  V30 9498 H 845.14 4.30526 -4.17621 0
M  V30 9499 H 846.819 4.37511 -4.76648 0
M  V30 9500 N 846.951 1.19563 1.02676 0
M  V30 9501 C 848.176 1.02556 1.80269 0
M  V30 9502 C 848.601 -0.421056 1.83327 0
M  V30 9503 O 847.959 -1.30279 1.26084 0
M  V30 9504 C 848.007 1.60165 3.23078 0
M  V30 9505 O 847.111 0.832404 4.03912 0
M  V30 9506 H 846.452 0.362354 0.556413 0
M  V30 9507 H 848.982 1.58633 1.29216 0
M  V30 9508 H 848.992 1.6347 3.7382 0
M  V30 9509 H 847.667 2.65454 3.20167 0
M  V30 9510 H 846.244 0.872768 3.62543 0
M  V30 9511 N 848.429 -1.21819 0.999893 0
M  V30 9512 C 849.677 -1.90375 0.678351 0
M  V30 9513 C 849.998 -1.78155 -0.792824 0
M  V30 9514 O 849.268 -1.17319 -1.56885 0
M  V30 9515 H 847.848 -0.704661 0.247915 0
M  V30 9516 H 850.51 -1.48021 1.2679 0
M  V30 9517 H 849.606 -2.97385 0.947023 0
M  V30 9518 N 849.908 -0.773975 -1.37286 0
M  V30 9519 C 851.154 -0.339809 -1.99933 0
M  V30 9520 C 851.487 1.0815 -1.61299 0
M  V30 9521 O 850.762 1.74442 -0.860252 0
M  V30 9522 C 851.045 -0.485919 -3.56806 0
M  V30 9523 C 850.898 -1.9498 -4.05343 0
M  V30 9524 C 852.217 0.108461 -4.39966 0
M  V30 9525 H 849.336 -0.124944 -0.726332 0
M  V30 9526 H 851.978 -0.977433 -1.6293 0
M  V30 9527 H 850.128 0.0569023 -3.88458 0
M  V30 9528 H 851.8 -2.5525 -3.84246 0
M  V30 9529 H 850.043 -2.45784 -3.57453 0
M  V30 9530 H 850.714 -2.00308 -5.14374 0
M  V30 9531 H 853.19 -0.354722 -4.14585 0
M  V30 9532 H 852.066 -0.0238926 -5.48895 0
M  V30 9533 H 852.327 1.19901 -4.25531 0
M  V30 9534 N 851.386 1.48609 -0.524698 0
M  V30 9535 C 852.318 2.27508 0.278 0
M  V30 9536 C 853.331 1.35042 0.909258 0
M  V30 9537 O 854.52 1.60136 0.788592 0
M  V30 9538 C 851.62 3.08247 1.40843 0
M  V30 9539 C 850.793 4.28455 0.880083 0
M  V30 9540 C 849.852 4.91048 1.891 0
M  V30 9541 O 848.878 5.5042 1.45005 0
M  V30 9542 N 850.08 4.82816 3.22288 0
M  V30 9543 H 852.845 2.97037 -0.398642 0
M  V30 9544 H 850.406 1.57876 -0.358698 0
M  V30 9545 H 852.398 3.46992 2.08276 0
M  V30 9546 H 850.968 2.41173 1.98883 0
M  V30 9547 H 850.188 3.94189 0.0299228 0
M  V30 9548 H 851.476 5.06279 0.505881 0
M  V30 9549 H 850.874 4.3572 3.60783 0
M  V30 9550 H 849.431 5.25676 3.85368 0
M  V30 9551 N 852.864 0.259585 1.55447 0
M  V30 9552 C 854.275 -0.241165 1.85136 0
M  V30 9553 C 854.626 -1.56634 1.18153 0
M  V30 9554 O 853.751 -2.11359 0.464351 0
M  V30 9555 C 854.346 -0.444355 3.35873 0
M  V30 9556 C 852.905 -0.889354 3.65742 0
M  V30 9557 C 852.052 0.0262474 2.77288 0
M  V30 9558 H 855.003 0.481808 1.51209 0
M  V30 9559 H 855.024 -1.28517 3.58139 0
M  V30 9560 H 854.536 0.520289 3.84597 0
M  V30 9561 H 852.637 -1.86602 3.22507 0
M  V30 9562 H 852.75 -0.737432 4.73391 0
M  V30 9563 H 851.114 -0.487361 2.49994 0
M  V30 9564 H 851.897 0.986494 3.28821 0
M  V30 9565 N 854.342 -1.57594 -0.0133615 0
M  V30 9566 C 855.305 -2.06534 -0.993799 0
M  V30 9567 C 856.305 -0.972267 -1.28077 0
M  V30 9568 O 857.495 -1.23537 -1.22818 0
M  V30 9569 C 854.627 -2.49554 -2.3224 0
M  V30 9570 H 855.82 -2.94419 -0.570741 0
M  V30 9571 H 853.373 -1.54113 -0.260546 0
M  V30 9572 H 854.108 -1.64872 -2.79263 0
M  V30 9573 H 853.893 -3.29371 -2.12737 0
M  V30 9574 H 855.383 -2.8779 -3.026 0
M  V30 9575 N 855.82 0.285905 -1.54985 0
M  V30 9576 C 857.236 0.632405 -1.46536 0
M  V30 9577 C 857.436 1.90074 -0.668888 0
M  V30 9578 O 856.492 2.51839 -0.182586 0
M  V30 9579 C 857.805 0.771361 -2.90638 0
M  V30 9580 C 859.353 0.866262 -3.00774 0
M  V30 9581 C 859.828 1.0371 -4.46103 0
M  V30 9582 N 861.319 1.10294 -4.49877 0
M  V30 9583 C 862.054 1.25369 -5.59527 0
M  V30 9584 N 861.55 1.37246 -6.7907 0
M  V30 9585 N 863.343 1.28377 -5.47244 0
M  V30 9586 H 855.494 -0.547226 -2.0523 0
M  V30 9587 H 857.757 -0.183298 -0.930111 0
M  V30 9588 H 857.463 -0.0899485 -3.51585 0
M  V30 9589 H 857.337 1.65569 -3.3892 0
M  V30 9590 H 859.724 1.71805 -2.39931 0
M  V30 9591 H 859.805 -0.0424049 -2.55765 0
M  V30 9592 H 859.449 0.190021 -5.07544 0
M  V30 9593 H 859.379 1.96022 -4.88757 0
M  V30 9594 H 861.87 1.02407 -3.6376 0
M  V30 9595 H 862.183 1.48546 -7.58389 0
M  V30 9596 H 860.528 1.34274 -6.81906 0
M  V30 9597 H 863.719 1.1872 -4.52795 0
M  V30 9598 H 863.892 1.39782 -6.32744 0
M  V30 9599 N 857.298 1.47698 0.54982 0
M  V30 9600 C 858.526 1.5833 1.33188 0
M  V30 9601 C 858.941 0.236193 1.87317 0
M  V30 9602 O 858.298 -0.77167 1.65383 0
M  V30 9603 C 858.349 2.61438 2.49664 0
M  V30 9604 O 858.07 3.9092 1.97771 0
M  V30 9605 C 859.571 2.82324 3.41772 0
M  V30 9606 H 856.791 0.53443 0.405741 0
M  V30 9607 H 859.335 1.93375 0.665309 0
M  V30 9608 H 857.49 2.29307 3.12245 0
M  V30 9609 H 857.904 4.47323 2.73866 0
M  V30 9610 H 859.378 3.58316 4.19897 0
M  V30 9611 H 859.855 1.90416 3.95776 0
M  V30 9612 H 860.461 3.15682 2.85 0
M  V30 9613 N 858.776 -0.797141 1.35954 0
M  V30 9614 C 860.187 -1.37179 1.26644 0
M  V30 9615 C 860.538 -1.9596 -0.0971046 0
M  V30 9616 O 859.663 -1.91994 -0.998355 0
M  V30 9617 C 860.258 -2.49395 2.2932 0
M  V30 9618 C 858.817 -3.02697 2.23722 0
M  V30 9619 C 857.964 -1.75721 2.14517 0
M  V30 9620 H 860.915 -0.599407 1.46945 0
M  V30 9621 H 860.936 -3.28204 1.92515 0
M  V30 9622 H 860.448 -2.06584 3.2855 0
M  V30 9623 H 858.549 -3.49948 1.27934 0
M  V30 9624 H 858.662 -3.60036 3.16087 0
M  V30 9625 H 857.026 -1.97649 1.60646 0
M  V30 9626 H 857.809 -1.35049 3.15621 0
M  V30 9627 N 860.254 -1.20106 -1.0204 0
M  V30 9628 C 861.665 -1.00992 -1.57027 0
M  V30 9629 C 862.016 0.434782 -1.91322 0
M  V30 9630 O 861.141 1.31557 -1.71819 0
M  V30 9631 C 861.736 -1.82697 -2.85319 0
M  V30 9632 C 860.295 -1.67959 -3.36848 0
M  V30 9633 C 859.442 -1.80868 -2.10195 0
M  V30 9634 H 862.393 -1.34354 -0.844676 0
M  V30 9635 H 862.414 -1.32809 -3.5657 0
M  V30 9636 H 861.926 -2.87839 -2.60328 0
M  V30 9637 H 860.027 -0.654389 -3.66809 0
M  V30 9638 H 860.14 -2.49006 -4.09308 0
M  V30 9639 H 858.504 -1.24015 -2.22469 0
M  V30 9640 H 859.287 -2.87486 -1.87635 0
M  V30 9641 N 861.732 1.21287 -1.00634 0
M  V30 9642 C 862.665 2.22366 -0.512687 0
M  V30 9643 C 863.643 1.56692 0.434332 0
M  V30 9644 O 864.827 1.85094 0.35674 0
M  V30 9645 C 861.954 3.37738 0.255139 0
M  V30 9646 C 861 4.21673 -0.639883 0
M  V30 9647 S 861.833 4.92474 -2.10308 0
M  V30 9648 C 862.989 6.11275 -1.34512 0
M  V30 9649 H 863.222 2.63896 -1.36918 0
M  V30 9650 H 860.755 1.31176 -0.814387 0
M  V30 9651 H 862.713 4.04624 0.692067 0
M  V30 9652 H 861.374 2.94689 1.08707 0
M  V30 9653 H 860.567 5.03977 -0.0483821 0
M  V30 9654 H 860.169 3.59988 -1.01414 0
M  V30 9655 H 862.461 6.7466 -0.619721 0
M  V30 9656 H 863.404 6.74864 -2.14393 0
M  V30 9657 H 863.812 5.58026 -0.852506 0
M  V30 9658 N 863.21 0.781244 1.36873 0
M  V30 9659 C 864.14 0.188128 2.32741 0
M  V30 9660 C 865.121 -0.672326 1.56249 0
M  V30 9661 O 866.306 -0.607835 1.84442 0
M  V30 9662 C 863.436 -0.684341 3.40491 0
M  V30 9663 C 862.39 0.0755641 4.27933 0
M  V30 9664 C 861.716 -0.916968 5.26779 0
M  V30 9665 C 863.016 1.26006 5.06873 0
M  V30 9666 H 864.71 0.989016 2.82593 0
M  V30 9667 H 862.256 0.477038 1.35869 0
M  V30 9668 H 864.209 -1.10915 4.06541 0
M  V30 9669 H 862.933 -1.51785 2.89187 0
M  V30 9670 H 861.592 0.481258 3.63427 0
M  V30 9671 H 861.24 -1.74528 4.71751 0
M  V30 9672 H 860.94 -0.413 5.86147 0
M  V30 9673 H 862.464 -1.34052 5.95703 0
M  V30 9674 H 863.878 0.911425 5.66009 0
M  V30 9675 H 862.275 1.69676 5.75613 0
M  V30 9676 H 863.345 2.05948 4.38991 0
M  V30 9677 N 864.689 -1.48329 0.532571 0
M  V30 9678 C 866.105 -1.58458 0.190605 0
M  V30 9679 C 866.305 -1.53427 -1.30623 0
M  V30 9680 O 865.361 -1.4247 -2.08467 0
M  V30 9681 C 866.674 -2.89989 0.79543 0
M  V30 9682 C 868.222 -3.03523 0.7644 0
M  V30 9683 C 868.697 -4.37718 1.34785 0
M  V30 9684 N 870.188 -4.44292 1.30993 0
M  V30 9685 C 870.923 -5.4664 1.73124 0
M  V30 9686 N 870.419 -6.5593 2.22997 0
M  V30 9687 N 872.212 -5.37538 1.64346 0
M  V30 9688 H 864.363 -1.49842 1.50537 0
M  V30 9689 H 866.626 -0.71164 0.626316 0
M  V30 9690 H 866.332 -2.99333 1.84642 0
M  V30 9691 H 866.206 -3.76203 0.27403 0
M  V30 9692 H 868.593 -2.93789 -0.277831 0
M  V30 9693 H 868.674 -2.18912 1.3233 0
M  V30 9694 H 868.318 -4.48206 2.38902 0
M  V30 9695 H 868.248 -5.21019 0.764609 0
M  V30 9696 H 870.739 -3.65897 0.944868 0
M  V30 9697 H 871.052 -7.30167 2.53133 0
M  V30 9698 H 869.397 -6.56886 2.26992 0
M  V30 9699 H 872.588 -4.51052 1.25178 0
M  V30 9700 H 872.761 -6.17169 1.97501 0
M  V30 9701 N 866.167 -0.267825 -1.55308 0
M  V30 9702 C 867.578 0.231344 -1.85261 0
M  V30 9703 C 867.929 1.56006 -1.18982 0
M  V30 9704 O 867.054 2.1111 -0.475554 0
M  V30 9705 C 867.649 0.426537 -3.36104 0
M  V30 9706 C 866.208 0.869945 -3.66209 0
M  V30 9707 C 865.355 -0.0409522 -2.7727 0
M  V30 9708 H 868.306 -0.489821 -1.50952 0
M  V30 9709 H 868.327 1.26616 -3.58816 0
M  V30 9710 H 867.839 -0.540678 -3.84315 0
M  V30 9711 H 865.94 1.84889 -3.23492 0
M  V30 9712 H 866.053 0.712316 -4.73775 0
M  V30 9713 H 864.417 0.474097 -2.50249 0
M  V30 9714 H 865.2 -1.00392 -3.28293 0
M  V30 9715 N 867.645 1.57599 0.00500368 0
M  V30 9716 C 868.891 1.90631 0.691919 0
M  V30 9717 C 869.224 0.868443 1.737 0
M  V30 9718 O 868.499 -0.113482 1.94169 0
M  V30 9719 C 868.782 3.34255 1.33961 0
M  V30 9720 C 868.635 4.48755 0.306413 0
M  V30 9721 C 869.954 3.77211 2.26715 0
M  V30 9722 H 867.073 0.693279 0.250066 0
M  V30 9723 H 869.715 1.89946 -0.0452634 0
M  V30 9724 H 867.865 3.3497 1.96793 0
M  V30 9725 H 869.537 4.60176 -0.321841 0
M  V30 9726 H 867.78 4.32203 -0.371852 0
M  V30 9727 H 868.451 5.46193 0.798554 0
M  V30 9728 H 870.927 3.78017 1.73904 0
M  V30 9729 H 869.803 4.78466 2.69002 0
M  V30 9730 H 870.064 3.10801 3.14413 0
M  V30 9731 N 869.123 -0.277682 1.55134 0
M  V30 9732 C 870.4 -1.0309 1.66228 0
M  V30 9733 C 870.78 -2.0445 0.525701 0
M  V30 9734 O 870.128 -2.23512 -0.474816 0
M  V30 9735 C 870.338 -1.6919 3.05247 0
M  V30 9736 C 871.686 -2.20526 3.62841 0
M  V30 9737 O 872.71 -1.79185 3.07849 0
M  V30 9738 O 871.569 -2.96342 4.59177 0
M  V30 9739 H 868.663 -0.4779 0.674937 0
M  V30 9740 H 871.209 -0.273912 1.67475 0
M  V30 9741 H 869.981 -0.957163 3.79413 0
M  V30 9742 H 869.604 -2.51587 3.07879 0
M  V30 9743 N 870.601 -1.47988 -0.541979 0
M  V30 9744 C 872.012 -1.49073 -1.12402 0
M  V30 9745 C 872.363 -0.253825 -1.94551 0
M  V30 9746 O 871.488 0.640056 -2.06718 0
M  V30 9747 C 872.083 -2.7011 -2.04514 0
M  V30 9748 C 870.642 -2.74105 -2.5796 0
M  V30 9749 C 869.789 -2.42409 -1.3466 0
M  V30 9750 H 872.74 -1.55277 -0.327818 0
M  V30 9751 H 872.761 -2.47946 -2.88623 0
M  V30 9752 H 872.273 -3.60117 -1.44697 0
M  V30 9753 H 870.374 -1.88276 -3.21532 0
M  V30 9754 H 870.487 -3.75213 -2.97913 0
M  V30 9755 H 868.851 -1.9331 -1.65841 0
M  V30 9756 H 869.634 -3.34642 -0.766133 0
M  V30 9757 N 872.079 0.78992 -1.36375 0
M  V30 9758 C 873.011 1.91113 -1.26524 0
M  V30 9759 C 874.024 1.61747 -0.184851 0
M  V30 9760 O 875.213 1.73004 -0.439524 0
M  V30 9761 C 872.313 3.25908 -0.92937 0
M  V30 9762 C 871.486 3.83057 -2.11154 0
M  V30 9763 C 870.545 4.96289 -1.74881 0
M  V30 9764 O 869.571 5.12834 -2.46962 0
M  V30 9765 N 870.773 5.76478 -0.682193 0
M  V30 9766 H 873.538 2.00085 -2.23128 0
M  V30 9767 H 871.099 0.968165 -1.29762 0
M  V30 9768 H 873.091 3.99151 -0.667884 0
M  V30 9769 H 871.661 3.12556 -0.0524843 0
M  V30 9770 H 870.881 3.01808 -2.53586 0
M  V30 9771 H 872.169 4.1797 -2.90135 0
M  V30 9772 H 871.567 5.65638 -0.0836661 0
M  V30 9773 H 870.124 6.50026 -0.480529 0
M  V30 9774 N 873.557 1.20646 1.01402 0
M  V30 9775 C 874.806 1.01242 1.7445 0
M  V30 9776 C 875.119 -0.455732 1.90217 0
M  V30 9777 O 876.325 -0.768951 2.60383 0
M  V30 9778 C 874.781 1.76275 3.13776 0
M  V30 9779 C 874.389 3.27201 3.06013 0
M  V30 9780 C 876.133 1.65248 3.91016 0
M  V30 9781 C 874.04 3.9476 4.40362 0
M  V30 9782 H 872.97 0.375202 0.654018 0
M  V30 9783 H 875.621 1.44292 1.13367 0
M  V30 9784 H 874.003 1.26013 3.75415 0
M  V30 9785 H 875.177 3.84695 2.53665 0
M  V30 9786 H 873.492 3.38669 2.42265 0
M  V30 9787 H 876.089 2.13061 4.90417 0
M  V30 9788 H 876.432 0.609128 4.1182 0
M  V30 9789 H 876.965 2.12937 3.3601 0
M  V30 9790 H 873.704 4.99258 4.24761 0
M  V30 9791 H 873.224 3.42054 4.92706 0
M  V30 9792 H 874.903 3.99159 5.09196 0
M  V30 9793 N 875.035 -1.20752 1.01276 0
M  V30 9794 C 876.446 -1.7175 0.732033 0
M  V30 9795 C 876.797 -1.8131 -0.749733 0
M  V30 9796 O 875.922 -1.47301 -1.58529 0
M  V30 9797 C 876.517 -3.11936 1.32217 0
M  V30 9798 C 875.076 -3.6026 1.09039 0
M  V30 9799 C 874.223 -2.37571 1.43022 0
M  V30 9800 H 877.174 -1.0582 1.1827 0
M  V30 9801 H 877.195 -3.73802 0.710771 0
M  V30 9802 H 876.707 -3.04946 2.40061 0
M  V30 9803 H 874.808 -3.72588 0.0294464 0
M  V30 9804 H 874.921 -4.45295 1.76775 0
M  V30 9805 H 873.285 -2.40128 0.849159 0
M  V30 9806 H 874.068 -2.33225 2.51915 0
M  V30 9807 N 876.513 -0.788492 -1.36457 0
M  V30 9808 C 877.463 -0.159377 -2.27442 0
M  V30 9809 C 878.447 0.656146 -1.46913 0
M  V30 9810 O 879.639 0.516372 -1.693 0
M  V30 9811 C 876.768 0.705703 -3.35968 0
M  V30 9812 C 875.854 -0.11856 -4.23934 0
M  V30 9813 N 876.245 -1.1726 -4.9202 0
M  V30 9814 C 874.543 0.102752 -4.45882 0
M  V30 9815 C 875.244 -1.6743 -5.57083 0
M  V30 9816 N 874.22 -0.983682 -5.34626 0
M  V30 9817 H 878.022 -0.96614 -2.77566 0
M  V30 9818 H 875.536 -0.627864 -1.49772 0
M  V30 9819 H 877.533 1.17231 -4.00078 0
M  V30 9820 H 876.193 1.51102 -2.87399 0
M  V30 9821 H 877.204 -1.55502 -4.94004 0
M  V30 9822 H 873.881 0.878651 -4.08149 0
M  V30 9823 H 875.271 -2.55423 -6.21457 0
M  V30 9824 N 877.991 1.48044 -0.54043 0
M  V30 9825 C 878.921 2.32597 0.205178 0
M  V30 9826 C 879.902 1.42748 0.925041 0
M  V30 9827 O 881.087 1.71624 0.908784 0
M  V30 9828 C 878.217 3.24175 1.24612 0
M  V30 9829 C 877.171 4.23131 0.64376 0
M  V30 9830 C 876.497 5.03915 1.78812 0
M  V30 9831 C 877.797 5.20831 -0.39144 0
M  V30 9832 H 879.491 2.95184 -0.500676 0
M  V30 9833 H 877.037 1.41948 -0.242225 0
M  V30 9834 H 878.99 3.82158 1.77576 0
M  V30 9835 H 877.714 2.59608 1.98169 0
M  V30 9836 H 876.373 3.66349 0.135554 0
M  V30 9837 H 876.021 4.35765 2.51232 0
M  V30 9838 H 875.721 5.709 1.39094 0
M  V30 9839 H 877.245 5.64753 2.32134 0
M  V30 9840 H 878.659 5.73277 0.0515064 0
M  V30 9841 H 877.056 5.95926 -0.706569 0
M  V30 9842 H 878.126 4.6733 -1.29345 0
M  V30 9843 N 879.47 0.276058 1.55163 0
M  V30 9844 C 880.716 -0.340959 1.99913 0
M  V30 9845 C 881.049 -1.55434 1.16422 0
M  V30 9846 O 880.324 -1.93081 0.234517 0
M  V30 9847 C 880.607 -0.722211 3.52783 0
M  V30 9848 C 880.46 0.498575 4.47028 0
M  V30 9849 C 881.779 -1.5583 4.11589 0
M  V30 9850 H 878.898 -0.122455 0.726756 0
M  V30 9851 H 881.54 0.38319 1.86096 0
M  V30 9852 H 879.69 -1.33919 3.64689 0
M  V30 9853 H 881.362 1.13713 4.47065 0
M  V30 9854 H 879.605 1.13646 4.18649 0
M  V30 9855 H 880.276 0.188041 5.5168 0
M  V30 9856 H 882.752 -1.03722 4.02965 0
M  V30 9857 H 881.628 -1.79387 5.1876 0
M  V30 9858 H 881.889 -2.53963 3.61877 0
M  V30 9859 N 880.948 -1.576 0.00335426 0
M  V30 9860 C 881.911 -2.07576 -0.971838 0
M  V30 9861 C 882.911 -0.985796 -1.27038 0
M  V30 9862 O 884.101 -1.24833 -1.21501 0
M  V30 9863 C 881.233 -2.52003 -2.29581 0
M  V30 9864 H 882.426 -2.95008 -0.539481 0
M  V30 9865 H 879.979 -1.54381 -0.244186 0
M  V30 9866 H 880.714 -1.67825 -2.77498 0
M  V30 9867 H 880.499 -3.31609 -2.09231 0
M  V30 9868 H 881.989 -2.90983 -2.99531 0
M  V30 9869 N 882.426 0.269451 -1.5528 0
M  V30 9870 C 883.672 1.00206 -1.76314 0
M  V30 9871 C 884.005 1.85812 -0.564581 0
M  V30 9872 O 883.28 1.89509 0.437769 0
M  V30 9873 C 883.563 1.88163 -3.07029 0
M  V30 9874 C 883.416 1.05527 -4.37246 0
M  V30 9875 C 884.735 2.8681 -3.33808 0
M  V30 9876 H 881.854 0.36288 -0.641473 0
M  V30 9877 H 884.496 0.274188 -1.88011 0
M  V30 9878 H 882.646 2.50224 -2.97187 0
M  V30 9879 H 884.318 0.455094 -4.5905 0
M  V30 9880 H 882.561 0.358842 -4.32313 0
M  V30 9881 H 883.232 1.70397 -5.25042 0
M  V30 9882 H 885.708 2.34884 -3.43466 0
M  V30 9883 H 884.584 3.45492 -4.26528 0
M  V30 9884 H 884.845 3.62118 -2.5362 0
M  V30 9885 N 883.904 1.48273 0.534124 0
M  V30 9886 C 884.851 1.62487 1.6391 0
M  V30 9887 C 885.821 0.467062 1.59398 0
M  V30 9888 O 887.006 0.690029 1.77885 0
M  V30 9889 C 884.146 1.66671 3.02183 0
M  V30 9890 C 883.259 2.9353 3.16961 0
M  V30 9891 C 882.394 2.88902 4.45768 0
M  V30 9892 C 881.433 4.10483 4.54059 0
M  V30 9893 N 880.57 4.03956 5.74251 0
M  V30 9894 H 885.41 2.56851 1.51101 0
M  V30 9895 H 882.947 1.27381 0.735704 0
M  V30 9896 H 884.905 1.67079 3.82283 0
M  V30 9897 H 883.535 0.758011 3.13774 0
M  V30 9898 H 882.587 3.02886 2.3014 0
M  V30 9899 H 883.899 3.83501 3.18949 0
M  V30 9900 H 883.053 2.87688 5.34154 0
M  V30 9901 H 881.792 1.96652 4.46295 0
M  V30 9902 H 880.797 4.11977 3.64081 0
M  V30 9903 H 882.022 5.03887 4.55274 0
M  V30 9904 H 879.968 3.14525 5.75682 0
M  V30 9905 H 879.885 4.87628 5.77715 0
M  V30 9906 H 881.153 4.06795 6.64935 0
M  V30 9907 N 885.382 -0.782676 1.36792 0
M  V30 9908 C 886.607 -1.57676 1.34733 0
M  V30 9909 C 887.032 -1.87979 -0.0675253 0
M  V30 9910 O 886.39 -1.48404 -1.04144 0
M  V30 9911 C 886.438 -2.87047 2.18257 0
M  V30 9912 O 885.542 -3.80946 1.57969 0
M  V30 9913 H 884.883 -0.478034 0.460846 0
M  V30 9914 H 887.413 -0.969578 1.80168 0
M  V30 9915 H 887.423 -3.36254 2.31079 0
M  V30 9916 H 886.098 -2.64319 3.21104 0
M  V30 9917 H 884.675 -3.39558 1.54126 0
M  V30 9918 N 886.86 -1.21182 -1.00761 0
M  V30 9919 C 887.792 -0.926523 -2.09638 0
M  V30 9920 C 888.805 0.0892511 -1.62555 0
M  V30 9921 O 889.994 -0.142915 -1.77927 0
M  V30 9922 C 887.094 -0.369175 -3.36883 0
M  V30 9923 C 886.267 -1.43866 -4.13063 0
M  V30 9924 C 885.326 -0.891015 -5.18601 0
M  V30 9925 O 884.352 -1.57384 -5.47009 0
M  V30 9926 N 885.554 0.295057 -5.7975 0
M  V30 9927 H 888.319 -1.8638 -2.34697 0
M  V30 9928 H 885.88 -1.11671 -1.17223 0
M  V30 9929 H 887.872 0.011534 -4.04698 0
M  V30 9930 H 886.442 0.472861 -3.09003 0
M  V30 9931 H 885.662 -1.99332 -3.40089 0
M  V30 9932 H 886.95 -2.15866 -4.60738 0
M  V30 9933 H 886.348 0.8669 -5.59018 0
M  V30 9934 H 884.905 0.617306 -6.4887 0
M  V30 9935 N 888.338 1.20213 -1.01915 0
M  V30 9936 C 889.586 1.89272 -0.708552 0
M  V30 9937 C 889.907 1.79394 0.76438 0
M  V30 9938 O 889.177 1.198 1.54999 0
M  V30 9939 H 887.757 0.700628 -0.259094 0
M  V30 9940 H 890.419 1.45985 -1.29129 0
M  V30 9941 H 889.515 2.95841 -0.994215 0
M  V30 9942 N 889.816 0.795718 1.36037 0
M  V30 9943 C 891.227 0.433379 1.816 0
M  V30 9944 C 891.578 -1.04341 1.66155 0
M  V30 9945 O 890.703 -1.81004 1.18603 0
M  V30 9946 C 891.298 0.77985 3.29703 0
M  V30 9947 C 889.857 0.470256 3.73451 0
M  V30 9948 C 889.004 1.01119 2.58206 0
M  V30 9949 H 891.955 0.988317 1.24169 0
M  V30 9950 H 891.976 0.0732898 3.80429 0
M  V30 9951 H 891.488 1.85473 3.40913 0
M  V30 9952 H 889.589 -0.596332 3.67797 0
M  V30 9953 H 889.702 0.995276 4.68648 0
M  V30 9954 H 888.066 0.434077 2.50974 0
M  V30 9955 H 888.849 2.09196 2.72198 0
M  V30 9956 N 891.294 -1.47756 0.548274 0
M  V30 9957 C 892.257 -2.28379 -0.193857 0
M  V30 9958 C 893.257 -1.36436 -0.850986 0
M  V30 9959 O 894.447 -1.59154 -0.70822 0
M  V30 9960 C 891.579 -3.15858 -1.28243 0
M  V30 9961 H 892.772 -2.95458 0.514231 0
M  V30 9962 H 890.325 -1.53298 0.304879 0
M  V30 9963 H 891.06 -2.5345 -2.0232 0
M  V30 9964 H 890.845 -3.83512 -0.816148 0
M  V30 9965 H 892.335 -3.76627 -1.80393 0
M  V30 9966 N 892.772 -0.284283 -1.55015 0
M  V30 9967 C 893.702 0.592663 -2.25853 0
M  V30 9968 C 894.683 1.15151 -1.25197 0
M  V30 9969 O 895.868 1.18395 -1.53936 0
M  V30 9970 C 892.998 1.77254 -2.98661 0
M  V30 9971 C 891.952 1.34482 -4.06323 0
M  V30 9972 C 891.278 2.60853 -4.66754 0
M  V30 9973 C 892.578 0.488288 -5.20013 0
M  V30 9974 H 894.272 0.00187041 -2.994 0
M  V30 9975 H 891.818 -0.000540402 -1.44 0
M  V30 9976 H 893.771 2.39199 -3.46932 0
M  V30 9977 H 892.495 2.38931 -2.22664 0
M  V30 9978 H 891.154 0.748519 -3.58877 0
M  V30 9979 H 890.802 3.20808 -3.87416 0
M  V30 9980 H 890.502 2.32942 -5.39455 0
M  V30 9981 H 892.026 3.23631 -5.1778 0
M  V30 9982 H 893.44 1.01298 -5.6428 0
M  V30 9983 H 891.837 0.303669 -5.99331 0
M  V30 9984 H 892.907 -0.490727 -4.8241 0
M  V30 9985 N 894.251 1.57596 -0.0117121 0
M  V30 9986 C 895.479 1.9536 0.681334 0
M  V30 9987 C 895.894 0.887255 1.66653 0
M  V30 9988 O 895.251 -0.132692 1.82017 0
M  V30 9989 C 895.302 3.33165 1.40298 0
M  V30 9990 O 895.023 4.35707 0.45728 0
M  V30 9991 C 896.524 3.85458 2.18946 0
M  V30 9992 H 893.744 0.643826 0.189023 0
M  V30 9993 H 896.288 2.04392 -0.066311 0
M  V30 9994 H 894.443 3.25404 2.10216 0
M  V30 9995 H 894.857 5.15495 0.96773 0
M  V30 9996 H 896.331 4.84275 2.64918 0
M  V30 9997 H 896.808 3.18781 3.02118 0
M  V30 9998 H 897.414 3.96431 1.5402 0
M  V30 9999 N 895.729 -0.261212 1.5542 0
M  V30 10000 C 896.692 -1.30645 1.8832 0
M  V30 10001 C 897.692 -1.41782 0.758588 0
M  V30 10002 O 898.882 -1.40729 1.02669 0
M  V30 10003 C 896.014 -2.6862 2.09895 0
M  V30 10004 H 897.207 -1.02698 2.81768 0
M  V30 10005 H 894.76 -0.499838 1.48092 0
M  V30 10006 H 895.495 -3.0173 1.18868 0
M  V30 10007 H 895.28 -2.61921 2.91787 0
M  V30 10008 H 896.77 -3.44121 2.36581 0
M  V30 10009 N 897.207 -1.48554 -0.526253 0
M  V30 10010 C 898.432 -1.60686 -1.31129 0
M  V30 10011 C 898.857 -0.268701 -1.86171 0
M  V30 10012 O 898.215 0.760167 -1.64594 0
M  V30 10013 C 898.263 -2.65938 -2.43536 0
M  V30 10014 O 897.367 -2.23356 -3.46678 0
M  V30 10015 H 896.708 -0.538691 -0.388211 0
M  V30 10016 H 899.238 -1.94567 -0.632826 0
M  V30 10017 H 899.248 -2.87327 -2.89668 0
M  V30 10018 H 897.923 -3.63085 -2.02835 0
M  V30 10019 H 896.5 -2.12196 -3.06639 0
M  V30 10020 N 898.685 0.775411 -1.37205 0
M  V30 10021 C 899.617 1.89761 -1.28544 0
M  V30 10022 C 900.63 1.61542 -0.201996 0
M  V30 10023 O 901.819 1.72528 -0.457848 0
M  V30 10024 C 898.919 3.24904 -0.963885 0
M  V30 10025 C 898.092 3.80796 -2.15205 0
M  V30 10026 C 897.151 4.94407 -1.80135 0
M  V30 10027 O 896.177 5.10185 -2.52388 0
M  V30 10028 N 897.379 5.75722 -0.743298 0
M  V30 10029 H 900.144 1.97708 -2.25237 0
M  V30 10030 H 897.705 0.954348 -1.30782 0
M  V30 10031 H 899.697 3.9842 -0.710182 0
M  V30 10032 H 898.267 3.12483 -0.085632 0
M  V30 10033 H 897.487 2.99101 -2.56773 0
M  V30 10034 H 898.775 4.1487 -2.94552 0
M  V30 10035 H 898.173 5.65518 -0.143655 0
M  V30 10036 H 896.73 6.4948 -0.549446 0
M  V30 10037 N 900.163 1.21714 1.00117 0
M  V30 10038 C 901.388 1.06357 1.78054 0
M  V30 10039 C 901.813 -0.382075 1.84179 0
M  V30 10040 O 901.171 -1.27575 1.28819 0
M  V30 10041 C 901.219 1.66982 3.19608 0
M  V30 10042 O 900.323 0.917892 4.02055 0
M  V30 10043 H 899.664 0.374074 0.548602 0
M  V30 10044 H 902.194 1.61338 1.25822 0
M  V30 10045 H 902.204 1.71363 3.70268 0
M  V30 10046 H 900.879 2.72185 3.14465 0
M  V30 10047 H 899.456 0.949473 3.6061 0
M  V30 10048 N 901.641 -1.19671 1.02551 0
M  V30 10049 C 902.887 -1.89548 0.721069 0
M  V30 10050 C 903.22 -1.79209 -0.748176 0
M  V30 10051 O 902.495 -1.1822 -1.54448 0
M  V30 10052 C 902.778 -3.4061 1.16861 0
M  V30 10053 C 902.631 -3.59838 2.69883 0
M  V30 10054 C 903.95 -4.33718 0.746782 0
M  V30 10055 H 901.069 -0.688315 0.263422 0
M  V30 10056 H 903.711 -1.40883 1.27483 0
M  V30 10057 H 901.861 -3.82188 0.697477 0
M  V30 10058 H 903.533 -3.27454 3.24917 0
M  V30 10059 H 901.776 -3.03005 3.10435 0
M  V30 10060 H 902.447 -4.65766 2.96253 0
M  V30 10061 H 904.923 -3.99837 1.15195 0
M  V30 10062 H 903.799 -5.38012 1.08786 0
M  V30 10063 H 904.06 -4.40704 -0.351057 0
M  V30 10064 N 903.119 -0.802921 -1.35613 0
M  V30 10065 C 904.069 -0.183492 -2.2726 0
M  V30 10066 C 905.053 0.640527 -1.47601 0
M  V30 10067 O 906.245 0.498386 -1.69838 0
M  V30 10068 C 903.374 0.67003 -3.36698 0
M  V30 10069 C 902.46 -0.163517 -4.23785 0
M  V30 10070 N 902.851 -1.22472 -4.90749 0
M  V30 10071 C 901.149 0.0554547 -4.45966 0
M  V30 10072 C 901.85 -1.73329 -5.55276 0
M  V30 10073 N 900.826 -1.04033 -5.33552 0
M  V30 10074 H 904.628 -0.995525 -2.76526 0
M  V30 10075 H 902.142 -0.643714 -1.49098 0
M  V30 10076 H 904.139 1.12981 -4.01299 0
M  V30 10077 H 902.799 1.48045 -2.88986 0
M  V30 10078 H 903.81 -1.60733 -4.92327 0
M  V30 10079 H 900.487 0.835312 -4.09058 0
M  V30 10080 H 901.877 -2.62 -6.18713 0
M  V30 10081 N 904.597 1.47463 -0.556102 0
M  V30 10082 C 905.507 2.33785 0.195378 0
M  V30 10083 C 906.523 1.48123 0.913 0
M  V30 10084 O 907.699 1.81053 0.882141 0
M  V30 10085 C 904.764 3.24795 1.21282 0
M  V30 10086 C 903.825 4.26346 0.502747 0
M  V30 10087 C 903.058 5.13007 1.47172 0
M  V30 10088 O 903.281 5.02103 2.70646 0
M  V30 10089 O 902.215 5.93588 0.996814 0
M  V30 10090 H 906.041 2.99341 -0.512676 0
M  V30 10091 H 903.626 1.46004 -0.31673 0
M  V30 10092 H 905.508 3.81015 1.80016 0
M  V30 10093 H 904.183 2.61868 1.90282 0
M  V30 10094 H 903.09 3.73889 -0.125757 0
M  V30 10095 H 904.423 4.91984 -0.145779 0
M  V30 10096 N 906.075 0.2925 1.54862 0
M  V30 10097 C 907.007 -0.620889 2.2063 0
M  V30 10098 C 908.02 -1.10412 1.19637 0
M  V30 10099 O 909.209 -1.02304 1.46274 0
M  V30 10100 C 906.309 -1.861 2.83232 0
M  V30 10101 C 905.482 -1.52168 4.10078 0
M  V30 10102 C 904.541 -2.61605 4.56562 0
M  V30 10103 O 903.567 -2.27056 5.21952 0
M  V30 10104 N 904.769 -3.9199 4.28163 0
M  V30 10105 H 907.534 -0.0579028 2.99644 0
M  V30 10106 H 905.095 0.114333 1.61496 0
M  V30 10107 H 907.087 -2.58642 3.11266 0
M  V30 10108 H 905.657 -2.33259 2.08108 0
M  V30 10109 H 904.877 -0.629283 3.89145 0
M  V30 10110 H 906.165 -1.27023 4.92689 0
M  V30 10111 H 905.563 -4.22872 3.7576 0
M  V30 10112 H 904.12 -4.60857 4.60928 0
M  V30 10113 N 907.553 -1.57587 0.0200696 0
M  V30 10114 C 908.964 -1.79312 -0.520019 0
M  V30 10115 C 909.315 -0.929475 -1.72787 0
M  V30 10116 O 908.44 -0.137389 -2.15963 0
M  V30 10117 C 909.035 -3.25203 -0.950172 0
M  V30 10118 C 907.594 -3.47954 -1.43543 0
M  V30 10119 C 906.741 -2.74459 -0.395917 0
M  V30 10120 H 909.692 -1.56779 0.246153 0
M  V30 10121 H 909.713 -3.34418 -1.81508 0
M  V30 10122 H 909.225 -3.88035 -0.070883 0
M  V30 10123 H 907.326 -2.90363 -2.33495 0
M  V30 10124 H 907.439 -4.56661 -1.44905 0
M  V30 10125 H 905.803 -2.39669 -0.862022 0
M  V30 10126 H 906.586 -3.40001 0.47475 0
M  V30 10127 N 909.032 0.252966 -1.55557 0
M  V30 10128 C 910.26 0.999565 -1.81153 0
M  V30 10129 C 910.675 1.79181 -0.594955 0
M  V30 10130 O 910.032 1.77208 0.436311 0
M  V30 10131 C 910.083 1.94227 -3.04891 0
M  V30 10132 O 909.804 1.18209 -4.21851 0
M  V30 10133 C 911.305 2.80536 -3.43241 0
M  V30 10134 H 908.525 0.294402 -0.602966 0
M  V30 10135 H 911.069 0.277686 -2.02606 0
M  V30 10136 H 909.224 2.6185 -2.85505 0
M  V30 10137 H 909.638 1.81922 -4.9194 0
M  V30 10138 H 911.112 3.42442 -4.32941 0
M  V30 10139 H 911.589 3.51337 -2.6355 0
M  V30 10140 H 912.195 2.18373 -3.64956 0
M  V30 10141 N 910.51 1.48831 0.518367 0
M  V30 10142 C 911.457 1.64216 1.62178 0
M  V30 10143 C 912.427 0.483942 1.58894 0
M  V30 10144 O 913.612 0.708857 1.77144 0
M  V30 10145 C 910.752 1.69867 3.00399 0
M  V30 10146 C 909.865 2.96875 3.1383 0
M  V30 10147 C 909 2.93613 4.42679 0
M  V30 10148 C 908.039 4.15276 4.4968 0
M  V30 10149 N 907.176 4.10024 5.69934 0
M  V30 10150 H 912.016 2.58439 1.48368 0
M  V30 10151 H 909.553 1.28154 0.722152 0
M  V30 10152 H 911.511 1.71124 3.8049 0
M  V30 10153 H 910.141 0.791249 3.12952 0
M  V30 10154 H 909.193 3.0531 2.26914 0
M  V30 10155 H 910.505 3.86863 3.14863 0
M  V30 10156 H 909.659 2.93337 5.31073 0
M  V30 10157 H 908.398 2.01375 4.44184 0
M  V30 10158 H 907.403 4.15816 3.59691 0
M  V30 10159 H 908.628 5.08687 4.49904 0
M  V30 10160 H 906.574 3.20613 5.72314 0
M  V30 10161 H 906.491 4.93728 5.72511 0
M  V30 10162 H 907.759 4.13824 6.60583 0
M  V30 10163 N 911.988 -0.768124 1.37614 0
M  V30 10164 C 913.236 -1.52379 1.3276 0
M  V30 10165 C 913.557 -1.94809 -0.0863564 0
M  V30 10166 O 912.827 -1.66568 -1.03112 0
M  V30 10167 H 911.407 -0.565179 0.488448 0
M  V30 10168 H 914.069 -0.913974 1.72141 0
M  V30 10169 H 913.165 -2.4215 1.96901 0
M  V30 10170 N 913.466 -1.22244 -0.994698 0
M  V30 10171 C 914.396 -1.01513 -2.10279 0
M  V30 10172 C 915.377 0.0633365 -1.69982 0
M  V30 10173 O 916.562 -0.0985268 -1.9395 0
M  V30 10174 C 913.692 -0.59016 -3.42249 0
M  V30 10175 C 912.646 -1.61436 -3.96387 0
M  V30 10176 C 911.972 -1.04528 -5.24383 0
M  V30 10177 C 913.272 -3.00388 -4.27276 0
M  V30 10178 H 914.966 -1.94194 -2.2788 0
M  V30 10179 H 912.512 -0.935094 -1.09508 0
M  V30 10180 H 914.465 -0.432254 -4.19177 0
M  V30 10181 H 913.189 0.372308 -3.24471 0
M  V30 10182 H 911.848 -1.76001 -3.21589 0
M  V30 10183 H 911.496 -0.0742225 -5.02945 0
M  V30 10184 H 911.196 -1.72949 -5.61571 0
M  V30 10185 H 912.72 -0.898922 -6.03947 0
M  V30 10186 H 914.134 -2.89207 -4.95007 0
M  V30 10187 H 912.531 -3.65916 -4.75631 0
M  V30 10188 H 913.601 -3.50456 -3.35125 0
M  V30 10189 N 914.944 1.19125 -1.03184 0
M  V30 10190 C 916.169 1.93379 -0.749628 0
M  V30 10191 C 916.594 1.75153 0.685785 0
M  V30 10192 O 915.952 1.05579 1.47386 0
M  V30 10193 C 916 3.43101 -1.1097 0
M  V30 10194 O 915.104 4.11758 -0.230053 0
M  V30 10195 H 914.445 0.603605 -0.276689 0
M  V30 10196 H 916.975 1.51116 -1.37931 0
M  V30 10197 H 916.985 3.93778 -1.06785 0
M  V30 10198 H 915.66 3.55688 -2.15544 0
M  V30 10199 H 914.237 3.7143 -0.330748 0
M  V30 10200 N 916.422 0.810101 1.35185 0
M  V30 10201 C 917.67 0.391343 1.98275 0
M  V30 10202 C 917.991 -1.04592 1.64577 0
M  V30 10203 O 917.261 -1.72417 0.93001 0
M  V30 10204 H 915.841 0.141715 0.733434 0
M  V30 10205 H 918.503 1.03672 1.6504 0
M  V30 10206 H 917.599 0.49991 3.0807 0
M  V30 10207 N 917.9 -1.47166 0.563914 0
M  V30 10208 C 919.147 -2.02456 0.042371 0
M  V30 10209 C 919.475 -1.43753 -1.31016 0
M  V30 10210 O 918.73 -0.585287 -1.86743 0
M  V30 10211 C 919.029 -3.57279 -0.0931797 0
M  V30 10212 C 918.695 -4.34932 1.18933 0
M  V30 10213 C 917.357 -4.55867 1.54073 0
M  V30 10214 C 919.709 -4.79665 2.03889 0
M  V30 10215 C 917.037 -5.18785 2.74005 0
M  V30 10216 C 919.389 -5.43907 3.23029 0
M  V30 10217 C 918.053 -5.63074 3.58475 0
M  V30 10218 H 917.323 -0.740838 0.0155047 0
M  V30 10219 H 919.97 -1.76759 0.736776 0
M  V30 10220 H 918.275 -3.82005 -0.870596 0
M  V30 10221 H 919.972 -3.97716 -0.512176 0
M  V30 10222 H 916.562 -4.18921 0.905718 0
M  V30 10223 H 920.746 -4.63264 1.78046 0
M  V30 10224 H 916.002 -5.31818 3.01628 0
M  V30 10225 H 920.176 -5.77531 3.89141 0
M  V30 10226 H 917.803 -6.11598 4.515 0
M  V30 10227 N 919.378 -0.300708 -1.54705 0
M  V30 10228 C 920.31 0.609179 -2.20956 0
M  V30 10229 C 921.323 1.09776 -1.20221 0
M  V30 10230 O 922.512 1.01527 -1.46815 0
M  V30 10231 C 919.612 1.84595 -2.84214 0
M  V30 10232 C 918.785 1.49991 -4.10879 0
M  V30 10233 C 917.844 2.5918 -4.57943 0
M  V30 10234 O 916.87 2.24285 -5.23149 0
M  V30 10235 N 918.072 3.89714 -4.30236 0
M  V30 10236 H 920.837 0.0420111 -2.99671 0
M  V30 10237 H 918.398 -0.122896 -1.61433 0
M  V30 10238 H 920.39 2.56988 -3.12633 0
M  V30 10239 H 918.96 2.32152 -2.09342 0
M  V30 10240 H 918.18 0.608637 -3.89473 0
M  V30 10241 H 919.468 1.24409 -4.93356 0
M  V30 10242 H 918.866 4.20874 -3.77997 0
M  V30 10243 H 917.423 4.58406 -4.63365 0
M  V30 10244 N 920.856 1.57574 -0.0284266 0
M  V30 10245 C 921.766 2.13637 0.96936 0
M  V30 10246 C 922.782 1.08845 1.35752 0
M  V30 10247 O 923.958 1.40899 1.43908 0
M  V30 10248 C 921.023 2.65179 2.2334 0
M  V30 10249 C 920.084 3.84683 1.90572 0
M  V30 10250 C 919.317 4.33758 3.1095 0
M  V30 10251 O 919.54 3.82009 4.23586 0
M  V30 10252 O 918.474 5.2561 2.93288 0
M  V30 10253 H 922.3 2.99169 0.52267 0
M  V30 10254 H 919.885 1.48159 0.192135 0
M  V30 10255 H 921.767 2.98402 2.97547 0
M  V30 10256 H 920.442 1.82731 2.67191 0
M  V30 10257 H 919.349 3.56386 1.13753 0
M  V30 10258 H 920.682 4.68292 1.51538 0
M  V30 10259 N 922.334 -0.244713 1.55689 0
M  V30 10260 C 923.297 -1.2864 1.89695 0
M  V30 10261 C 924.297 -1.40969 0.773583 0
M  V30 10262 O 925.487 -1.39632 1.04156 0
M  V30 10263 C 922.619 -2.66379 2.12732 0
M  V30 10264 H 923.812 -0.997033 2.82841 0
M  V30 10265 H 921.365 -0.484103 1.48614 0
M  V30 10266 H 922.1 -3.00452 1.22062 0
M  V30 10267 H 921.885 -2.58812 2.94549 0
M  V30 10268 H 923.375 -3.41592 2.40218 0
M  V30 10269 N 923.813 -1.49104 -0.510467 0
M  V30 10270 C 924.743 -1.67981 -1.62187 0
M  V30 10271 C 925.724 -0.528529 -1.6168 0
M  V30 10272 O 926.909 -0.763305 -1.7857 0
M  V30 10273 C 924.039 -1.73755 -3.0071 0
M  V30 10274 C 922.993 -2.88579 -3.1608 0
M  V30 10275 C 922.319 -2.79457 -4.5586 0
M  V30 10276 C 923.619 -4.29638 -2.97 0
M  V30 10277 H 925.313 -2.61029 -1.46643 0
M  V30 10278 H 922.859 -1.25615 -0.704042 0
M  V30 10279 H 924.812 -1.85548 -3.78352 0
M  V30 10280 H 923.536 -0.772996 -3.17321 0
M  V30 10281 H 922.195 -2.76372 -2.40861 0
M  V30 10282 H 921.843 -1.80929 -4.69333 0
M  V30 10283 H 921.543 -3.56518 -4.67086 0
M  V30 10284 H 923.067 -2.93245 -5.35574 0
M  V30 10285 H 924.481 -4.42575 -3.64418 0
M  V30 10286 H 922.878 -5.07847 -3.19704 0
M  V30 10287 H 923.948 -4.44741 -1.93219 0
M  V30 10288 N 925.291 0.760815 -1.38019 0
M  V30 10289 C 926.239 1.89578 -1.34771 0
M  V30 10290 C 927.233 1.67766 -0.234714 0
M  V30 10291 O 928.439 1.75423 -0.403352 0
M  V30 10292 H 924.814 0.623608 -0.420258 0
M  V30 10293 H 926.785 1.89434 -2.30558 0
M  V30 10294 C 925.534 3.26976 -1.18246 0
M  V30 10295 H 924.857 3.44342 -2.03147 0
M  V30 10296 H 926.297 4.06657 -1.20026 0
M  V30 10297 C 924.756 3.36717 0.111145 0
M  V30 10298 O 925.286 3.86607 1.09079 0
M  V30 10299 N 923.492 2.90128 0.165542 0
M  V30 10300 H 923.039 2.49719 -0.632328 0
M  V30 10301 H 922.997 2.97026 1.03067 0
M  V30 10302 N 926.769 1.22769 0.988202 0
M  V30 10303 C 928.015 1.05665 1.73097 0
M  V30 10304 C 928.348 -0.406615 1.89895 0
M  V30 10305 O 927.623 -1.30132 1.44554 0
M  V30 10306 C 927.906 1.77381 3.13382 0
M  V30 10307 C 927.759 3.31332 3.04203 0
M  V30 10308 C 929.078 1.52999 4.12649 0
M  V30 10309 H 926.197 0.385258 0.628288 0
M  V30 10310 H 928.839 1.51171 1.15097 0
M  V30 10311 H 926.989 1.38696 3.62899 0
M  V30 10312 H 928.661 3.79489 2.6227 0
M  V30 10313 H 926.904 3.60767 2.40894 0
M  V30 10314 H 927.575 3.76692 4.03493 0
M  V30 10315 H 930.051 1.86611 3.71908 0
M  V30 10316 H 928.927 2.05666 5.08913 0
M  V30 10317 H 929.188 0.463615 4.39662 0
M  V30 10318 N 928.247 -1.18576 1.03814 0
M  V30 10319 C 929.475 -1.92437 0.759966 0
M  V30 10320 C 929.89 -1.76031 -0.682526 0
M  V30 10321 O 929.247 -1.08829 -1.46501 0
M  V30 10322 C 929.298 -3.43923 1.11351 0
M  V30 10323 O 929.019 -3.5981 2.49937 0
M  V30 10324 C 930.52 -4.34888 0.859472 0
M  V30 10325 H 927.74 -0.610998 0.277349 0
M  V30 10326 H 930.284 -1.50448 1.38512 0
M  V30 10327 H 928.439 -3.83711 0.533362 0
M  V30 10328 H 928.853 -4.53569 2.63393 0
M  V30 10329 H 930.327 -5.39744 1.15672 0
M  V30 10330 H 930.804 -4.38717 -0.205839 0
M  V30 10331 H 931.41 -4.00795 1.42279 0
M  V30 10332 N 929.725 -0.817259 -1.34754 0
M  V30 10333 C 930.95 -0.414423 -2.03217 0
M  V30 10334 C 931.375 0.970037 -1.61158 0
M  V30 10335 O 930.733 1.63016 -0.793436 0
M  V30 10336 C 930.781 -0.518087 -3.56859 0
M  V30 10337 O 929.885 0.464314 -4.09778 0
M  V30 10338 H 929.226 -0.171454 -0.641482 0
M  V30 10339 H 931.756 -1.10611 -1.72123 0
M  V30 10340 H 931.766 -0.391779 -4.06115 0
M  V30 10341 H 930.441 -1.52786 -3.86819 0
M  V30 10342 H 929.018 0.297361 -3.71712 0
M  V30 10343 N 931.203 1.46865 -0.571711 0
M  V30 10344 C 932.153 2.27219 0.188503 0
M  V30 10345 C 933.137 1.35221 0.872019 0
M  V30 10346 O 934.329 1.59474 0.76793 0
M  V30 10347 C 931.458 3.21321 1.20862 0
M  V30 10348 C 930.544 4.20803 0.527783 0
M  V30 10349 N 930.935 5.04132 -0.410403 0
M  V30 10350 C 929.233 4.39128 0.779909 0
M  V30 10351 C 929.934 5.76071 -0.80728 0
M  V30 10352 N 928.91 5.43368 -0.158865 0
M  V30 10353 H 932.712 2.89034 -0.532611 0
M  V30 10354 H 930.226 1.57581 -0.392696 0
M  V30 10355 H 932.223 3.77586 1.76733 0
M  V30 10356 H 930.883 2.61065 1.93067 0
M  V30 10357 H 931.894 5.11911 -0.785351 0
M  V30 10358 H 928.571 3.90031 1.48937 0
M  V30 10359 H 929.961 6.53082 -1.57903 0
M  V30 10360 N 932.681 0.308908 1.54543 0
M  V30 10361 C 934.097 -0.0442273 1.59539 0
M  V30 10362 C 934.297 -1.51743 1.32575 0
M  V30 10363 O 933.353 -2.27134 1.10302 0
M  V30 10364 C 934.666 0.360826 2.98527 0
M  V30 10365 C 936.214 0.310252 3.11459 0
M  V30 10366 C 936.689 0.690246 4.52769 0
M  V30 10367 N 938.18 0.643084 4.58714 0
M  V30 10368 C 938.915 0.909483 5.66141 0
M  V30 10369 N 938.411 1.24226 6.81572 0
M  V30 10370 N 940.204 0.836018 5.55848 0
M  V30 10371 H 932.355 1.26893 1.70329 0
M  V30 10372 H 934.618 0.514986 0.795923 0
M  V30 10373 H 934.324 1.38669 3.23209 0
M  V30 10374 H 934.198 -0.281563 3.76148 0
M  V30 10375 H 936.585 -0.706375 2.86521 0
M  V30 10376 H 936.666 0.987373 2.35976 0
M  V30 10377 H 936.31 1.70472 4.78437 0
M  V30 10378 H 936.24 -0.00903075 5.26599 0
M  V30 10379 H 938.731 0.397138 3.75807 0
M  V30 10380 H 939.044 1.4313 7.5943 0
M  V30 10381 H 937.389 1.28038 6.83104 0
M  V30 10382 H 940.58 0.575637 4.64547 0
M  V30 10383 H 940.753 1.047 6.39486 0
M  V30 10384 N 934.159 -1.57557 0.0367827 0
M  V30 10385 C 935.405 -1.92399 -0.641133 0
M  V30 10386 C 935.738 -0.914191 -1.71336 0
M  V30 10387 O 935.013 0.0619616 -1.94401 0
M  V30 10388 C 935.296 -3.37689 -1.25052 0
M  V30 10389 C 935.149 -4.4941 -0.187326 0
M  V30 10390 C 936.468 -3.8309 -2.16634 0
M  V30 10391 H 933.587 -0.699666 -0.231597 0
M  V30 10392 H 936.229 -1.89759 0.0956083 0
M  V30 10393 H 934.379 -3.40069 -1.87843 0
M  V30 10394 H 936.051 -4.59161 0.443736 0
M  V30 10395 H 934.294 -4.31065 0.486313 0
M  V30 10396 H 934.965 -5.48119 -0.653459 0
M  V30 10397 H 937.441 -3.82494 -1.63821 0
M  V30 10398 H 936.317 -4.85429 -2.56222 0
M  V30 10399 H 936.578 -3.19028 -3.06062 0
M  V30 10400 N 935.637 0.236453 -1.55816 0
M  V30 10401 C 936.547 1.31418 -1.94336 0
M  V30 10402 C 937.563 1.52095 -0.845164 0
M  V30 10403 O 938.739 1.65515 -1.14746 0
M  V30 10404 C 935.804 2.6468 -2.23932 0
M  V30 10405 C 934.865 2.52435 -3.47239 0
M  V30 10406 C 934.098 3.79342 -3.75414 0
M  V30 10407 O 934.321 4.81694 -3.05495 0
M  V30 10408 O 933.255 3.77347 -4.68927 0
M  V30 10409 H 937.081 1.01739 -2.86152 0
M  V30 10410 H 934.666 0.438084 -1.42833 0
M  V30 10411 H 936.548 3.4341 -2.44228 0
M  V30 10412 H 935.223 2.94071 -1.35292 0
M  V30 10413 H 934.13 1.71955 -3.32238 0
M  V30 10414 H 935.463 2.27987 -4.36214 0
M  V30 10415 N 937.115 1.49373 0.502552 0
M  V30 10416 C 938.048 1.60529 1.6219 0
M  V30 10417 C 939.026 0.454431 1.56121 0
M  V30 10418 O 940.21 0.669768 1.762 0
M  V30 10419 C 937.337 1.55879 3.00698 0
M  V30 10420 C 936.383 2.76143 3.25034 0
M  V30 10421 S 937.216 4.37831 3.08325 0
M  V30 10422 C 938.372 4.35824 4.49231 0
M  V30 10423 H 938.605 2.55219 1.52482 0
M  V30 10424 H 936.138 1.38244 0.687594 0
M  V30 10425 H 938.096 1.53882 3.80566 0
M  V30 10426 H 936.757 0.624791 3.07823 0
M  V30 10427 H 935.95 2.69104 4.26144 0
M  V30 10428 H 935.552 2.75544 2.52886 0
M  V30 10429 H 937.844 4.07447 5.41288 0
M  V30 10430 H 938.787 5.37206 4.6132 0
M  V30 10431 H 939.195 3.65923 4.29838 0
M  V30 10432 N 938.594 -0.753485 1.38421 0
M  V30 10433 C 940.005 -1.33081 1.30944 0
M  V30 10434 C 940.356 -1.96169 -0.0347124 0
M  V30 10435 O 939.481 -1.95073 -0.936768 0
M  V30 10436 C 940.076 -2.41973 2.37138 0
M  V30 10437 C 938.635 -2.95426 2.33239 0
M  V30 10438 C 937.782 -1.68808 2.19998 0
M  V30 10439 H 940.733 -0.552354 1.48777 0
M  V30 10440 H 940.754 -3.21913 2.02859 0
M  V30 10441 H 940.266 -1.96027 3.34956 0
M  V30 10442 H 938.367 -3.45701 1.39003 0
M  V30 10443 H 938.48 -3.49798 3.27381 0
M  V30 10444 H 936.844 -1.92438 1.66852 0
M  V30 10445 H 937.627 -1.24939 3.19758 0
M  V30 10446 N 940.072 -1.23292 -0.981677 0
M  V30 10447 C 941.488 -0.995295 -1.24764 0
M  V30 10448 C 941.688 0.304379 -1.99188 0
M  V30 10449 O 940.744 1.02414 -2.30798 0
M  V30 10450 C 942.057 -2.20135 -2.04844 0
M  V30 10451 C 943.605 -2.24612 -2.17988 0
M  V30 10452 C 944.08 -3.448 -3.01458 0
M  V30 10453 N 945.571 -3.45031 -3.09044 0
M  V30 10454 C 946.306 -4.34683 -3.7395 0
M  V30 10455 N 945.802 -5.34569 -4.4069 0
M  V30 10456 N 947.595 -4.22429 -3.70823 0
M  V30 10457 H 939.746 -2.06834 -0.483052 0
M  V30 10458 H 942.009 -0.906929 -0.276014 0
M  V30 10459 H 941.715 -3.14446 -1.57532 0
M  V30 10460 H 941.589 -2.21115 -3.05594 0
M  V30 10461 H 943.976 -1.30841 -2.64508 0
M  V30 10462 H 944.057 -2.27664 -1.16631 0
M  V30 10463 H 943.701 -4.38877 -2.55635 0
M  V30 10464 H 943.631 -3.38988 -4.02982 0
M  V30 10465 H 946.122 -2.72759 -2.61555 0
M  V30 10466 H 946.435 -5.99236 -4.87991 0
M  V30 10467 H 944.78 -5.3847 -4.39403 0
M  V30 10468 H 947.971 -3.43639 -3.17851 0
M  V30 10469 H 948.144 -4.92501 -4.21126 0
M  V30 10470 N 941.55 1.18024 -1.04442 0
M  V30 10471 C 942.482 2.21294 -0.596799 0
M  V30 10472 C 943.495 1.59305 0.33552 0
M  V30 10473 O 944.684 1.7803 0.129443 0
M  V30 10474 C 941.784 3.38578 0.147648 0
M  V30 10475 C 940.957 4.30143 -0.793484 0
M  V30 10476 C 940.016 5.2612 -0.0916561 0
M  V30 10477 O 939.042 5.64586 -0.72331 0
M  V30 10478 N 940.244 5.68512 1.17364 0
M  V30 10479 H 943.009 2.6032 -1.48504 0
M  V30 10480 H 940.57 1.32847 -0.925374 0
M  V30 10481 H 942.562 3.99812 0.627098 0
M  V30 10482 H 941.132 2.98212 0.937466 0
M  V30 10483 H 940.352 3.66456 -1.45272 0
M  V30 10484 H 941.64 4.88216 -1.43258 0
M  V30 10485 H 941.038 5.39322 1.70729 0
M  V30 10486 H 939.595 6.31925 1.5973 0
M  V30 10487 N 943.028 0.824394 1.34319 0
M  V30 10488 C 943.976 0.235628 2.31403 0
M  V30 10489 C 944.97 -0.624443 1.57471 0
M  V30 10490 O 946.176 -0.515618 1.72457 0
M  V30 10491 H 942.551 0.0574537 0.749802 0
M  V30 10492 H 944.522 1.06925 2.78585 0
M  V30 10493 C 943.271 -0.586617 3.42716 0
M  V30 10494 H 942.594 0.0658669 3.99746 0
M  V30 10495 H 944.034 -0.964661 4.1288 0
M  V30 10496 C 942.493 -1.75957 2.87299 0
M  V30 10497 O 943.023 -2.8578 2.82299 0
M  V30 10498 N 941.229 -1.57678 2.44102 0
M  V30 10499 H 940.776 -0.683436 2.48369 0
M  V30 10500 H 940.734 -2.36311 2.07375 0
M  V30 10501 N 944.506 -1.46559 0.579492 0
M  V30 10502 C 945.731 -2.0729 0.0674595 0
M  V30 10503 C 946.156 -1.4259 -1.22677 0
M  V30 10504 O 945.514 -0.50857 -1.74021 0
M  V30 10505 C 945.562 -3.60492 -0.0882227 0
M  V30 10506 O 944.666 -3.96172 -1.14551 0
M  V30 10507 H 944.007 -0.661159 0.0613536 0
M  V30 10508 H 946.537 -1.88247 0.801519 0
M  V30 10509 H 946.547 -4.06929 -0.295411 0
M  V30 10510 H 945.222 -4.06976 0.856943 0
M  V30 10511 H 943.799 -3.61448 -0.917033 0
M  V30 10512 N 945.984 -0.3171 -1.54377 0
M  V30 10513 C 947.261 0.341348 -1.92598 0
M  V30 10514 C 947.641 1.70402 -1.24605 0
M  V30 10515 O 946.989 2.25191 -0.387448 0
M  V30 10516 C 947.199 0.440003 -3.46215 0
M  V30 10517 C 948.547 0.703327 -4.18734 0
M  V30 10518 O 949.571 0.523181 -3.52337 0
M  V30 10519 O 948.43 1.05042 -5.3631 0
M  V30 10520 H 945.524 0.193696 -0.803997 0
M  V30 10521 H 948.07 -0.366341 -1.65699 0
M  V30 10522 H 946.842 -0.517299 -3.87866 0
M  V30 10523 H 946.465 1.19553 -3.792 0
M  V30 10524 N 947.462 1.57535 -0.0451378 0
M  V30 10525 C 948.873 1.80116 0.491426 0
M  V30 10526 C 949.224 0.956846 1.71286 0
M  V30 10527 O 948.349 0.17173 2.15718 0
M  V30 10528 C 948.944 3.26674 0.898315 0
M  V30 10529 C 947.503 3.50194 1.37989 0
M  V30 10530 C 946.65 2.75054 0.352202 0
M  V30 10531 H 949.601 1.56368 -0.271065 0
M  V30 10532 H 949.622 3.37263 1.76164 0
M  V30 10533 H 949.134 3.88099 0.009141 0
M  V30 10534 H 947.235 2.94041 2.28846 0
M  V30 10535 H 947.348 4.58909 1.37622 0
M  V30 10536 H 945.712 2.4101 0.823784 0
M  V30 10537 H 946.495 3.39203 -0.528782 0
M  V30 10538 N 948.94 -0.228186 1.55939 0
M  V30 10539 C 950.168 -0.970618 1.8272 0
M  V30 10540 C 950.583 -1.78212 0.623385 0
M  V30 10541 O 949.94 -1.77879 -0.408063 0
M  V30 10542 C 949.991 -1.89352 3.07942 0
M  V30 10543 O 949.712 -1.11483 4.23678 0
M  V30 10544 C 951.213 -2.75039 3.47661 0
M  V30 10545 H 948.433 -0.284772 0.607574 0
M  V30 10546 H 950.977 -0.245419 2.03022 0
M  V30 10547 H 949.132 -2.57275 2.89635 0
M  V30 10548 H 949.546 -1.74073 4.94772 0
M  V30 10549 H 951.02 -3.35511 4.38334 0
M  V30 10550 H 951.497 -3.471 2.69106 0
M  V30 10551 H 952.103 -2.1254 3.68384 0
M  V30 10552 N 950.418 -1.49637 -0.494624 0
M  V30 10553 C 951.643 -1.63431 -1.27691 0
M  V30 10554 C 952.068 -0.30813 -1.85559 0
M  V30 10555 O 951.426 0.725083 -1.66169 0
M  V30 10556 C 951.474 -2.71043 -2.3784 0
M  V30 10557 O 950.578 -2.3066 -3.41862 0
M  V30 10558 H 949.919 -0.546804 -0.376698 0
M  V30 10559 H 952.449 -1.95866 -0.591413 0
M  V30 10560 H 952.459 -2.93406 -2.83508 0
M  V30 10561 H 951.134 -3.67306 -1.95088 0
M  V30 10562 H 949.711 -2.18652 -3.02069 0
M  V30 10563 N 951.896 0.746133 -1.38819 0
M  V30 10564 C 952.806 1.89063 -1.38897 0
M  V30 10565 C 953.822 1.71648 -0.28513 0
M  V30 10566 O 954.998 1.94443 -0.524783 0
M  V30 10567 C 952.063 3.24523 -1.22007 0
M  V30 10568 C 951.124 3.54411 -2.42263 0
M  V30 10569 C 950.357 4.83408 -2.26169 0
M  V30 10570 O 950.58 5.56325 -1.25931 0
M  V30 10571 O 949.514 5.12943 -3.14918 0
M  V30 10572 H 953.34 1.91951 -2.35347 0
M  V30 10573 H 950.925 0.892433 -1.19816 0
M  V30 10574 H 952.807 4.05496 -1.14677 0
M  V30 10575 H 951.482 3.2243 -0.286455 0
M  V30 10576 H 950.389 2.73569 -2.55168 0
M  V30 10577 H 951.722 3.61273 -3.3428 0
M  V30 10578 N 953.375 1.23811 0.975125 0
M  V30 10579 C 954.323 1.02149 2.0897 0
M  V30 10580 C 955.317 -0.0412172 1.6935 0
M  V30 10581 O 956.523 0.112726 1.79647 0
M  V30 10582 H 952.898 0.313259 0.683647 0
M  V30 10583 H 954.869 1.96686 2.24404 0
M  V30 10584 C 953.618 0.635023 3.41852 0
M  V30 10585 H 952.941 1.44449 3.72793 0
M  V30 10586 H 954.381 0.52301 4.20762 0
M  V30 10587 C 952.84 -0.657207 3.30428 0
M  V30 10588 O 953.37 -1.70494 3.63723 0
M  V30 10589 N 951.576 -0.635122 2.83575 0
M  V30 10590 H 951.123 0.21784 2.56677 0
M  V30 10591 H 951.081 -1.49995 2.76313 0
M  V30 10592 N 954.853 -1.17469 1.05066 0
M  V30 10593 C 956.264 -1.69334 0.786304 0
M  V30 10594 C 956.615 -1.83604 -0.691671 0
M  V30 10595 O 955.74 -1.52269 -1.53763 0
M  V30 10596 C 956.335 -3.07572 1.42074 0
M  V30 10597 C 954.894 -3.56609 1.20446 0
M  V30 10598 C 954.041 -2.329 1.50508 0
M  V30 10599 H 956.992 -1.02003 1.21577 0
M  V30 10600 H 957.013 -3.71352 0.829334 0
M  V30 10601 H 956.525 -2.97154 2.49642 0
M  V30 10602 H 954.626 -3.72306 0.147968 0
M  V30 10603 H 954.739 -4.39446 1.90852 0
M  V30 10604 H 953.103 -2.37305 0.925124 0
M  V30 10605 H 953.886 -2.25093 2.59207 0
M  V30 10606 N 956.331 -0.831506 -1.3388 0
M  V30 10607 C 957.742 -0.481375 -1.80388 0
M  V30 10608 C 958.093 0.998993 -1.68863 0
M  V30 10609 O 957.218 1.77795 -1.2336 0
M  V30 10610 C 957.813 -0.86699 -3.27519 0
M  V30 10611 C 956.372 -0.569105 -3.72073 0
M  V30 10612 C 955.519 -1.07929 -2.55434 0
M  V30 10613 H 958.47 -1.02089 -1.21505 0
M  V30 10614 H 958.491 -0.174128 -3.80101 0
M  V30 10615 H 958.003 -1.94447 -3.35875 0
M  V30 10616 H 956.104 0.498607 -3.69249 0
M  V30 10617 H 956.217 -1.11918 -4.65845 0
M  V30 10618 H 954.581 -0.500465 -2.49735 0
M  V30 10619 H 955.364 -2.16339 -2.66556 0
M  V30 10620 N 957.809 1.4625 -0.587256 0
M  V30 10621 C 958.739 2.33132 0.131076 0
M  V30 10622 C 959.72 1.45619 0.879158 0
M  V30 10623 O 960.905 1.74428 0.853723 0
M  V30 10624 C 958.035 3.27975 1.14236 0
M  V30 10625 C 956.989 4.24965 0.508819 0
M  V30 10626 C 956.315 5.09349 1.62689 0
M  V30 10627 C 957.615 5.19322 -0.55694 0
M  V30 10628 H 959.309 2.93442 -0.594333 0
M  V30 10629 H 956.855 1.41106 -0.287263 0
M  V30 10630 H 958.808 3.87614 1.65328 0
M  V30 10631 H 957.532 2.65781 1.8981 0
M  V30 10632 H 956.191 3.66595 0.0189337 0
M  V30 10633 H 955.839 4.43537 2.37242 0
M  V30 10634 H 955.539 5.75036 1.20861 0
M  V30 10635 H 957.063 5.71852 2.14049 0
M  V30 10636 H 958.477 5.73151 -0.130903 0
M  V30 10637 H 956.874 5.93376 -0.895801 0
M  V30 10638 H 957.944 4.62979 -1.44148 0
M  V30 10639 N 959.287 0.325282 1.54207 0
M  V30 10640 C 960.698 -0.162426 1.85992 0
M  V30 10641 C 961.049 -1.51482 1.2469 0
M  V30 10642 O 960.174 -2.092 0.553578 0
M  V30 10643 C 960.769 -0.3015 3.37456 0
M  V30 10644 C 959.328 -0.73343 3.69185 0
M  V30 10645 C 958.475 0.143831 2.76927 0
M  V30 10646 H 961.426 0.545508 1.4903 0
M  V30 10647 H 961.447 -1.13212 3.63268 0
M  V30 10648 H 960.959 0.682942 3.82044 0
M  V30 10649 H 959.06 -1.72755 3.30131 0
M  V30 10650 H 959.173 -0.535987 4.76092 0
M  V30 10651 H 957.537 -0.380892 2.51836 0
M  V30 10652 H 958.32 1.12507 3.24341 0
M  V30 10653 N 960.765 -1.57509 0.0534917 0
M  V30 10654 C 961.993 -1.97098 -0.629298 0
M  V30 10655 C 962.408 -0.931128 -1.64242 0
M  V30 10656 O 961.765 0.0843866 -1.82305 0
M  V30 10657 C 961.816 -3.36767 -1.31415 0
M  V30 10658 O 961.537 -4.36766 -0.341599 0
M  V30 10659 C 963.038 -3.91127 -2.08649 0
M  V30 10660 H 960.258 -0.648611 -0.171886 0
M  V30 10661 H 962.802 -2.04145 0.120479 0
M  V30 10662 H 960.957 -3.30863 -2.01515 0
M  V30 10663 H 961.371 -5.1788 -0.830715 0
M  V30 10664 H 962.845 -4.91129 -2.51985 0
M  V30 10665 H 963.322 -3.26679 -2.9356 0
M  V30 10666 H 963.928 -4.00376 -1.43456 0
M  V30 10667 N 962.243 0.219913 -1.56058 0
M  V30 10668 C 963.659 0.569685 -1.49086 0
M  V30 10669 C 963.859 1.87066 -0.748903 0
M  V30 10670 O 962.915 2.50838 -0.289235 0
M  V30 10671 C 964.228 0.647397 -2.93648 0
M  V30 10672 C 965.776 0.737914 -3.04177 0
M  V30 10673 C 966.251 0.846957 -4.50101 0
M  V30 10674 N 967.742 0.911136 -4.5415 0
M  V30 10675 C 968.477 1.01525 -5.64341 0
M  V30 10676 N 967.973 1.0832 -6.8428 0
M  V30 10677 N 969.766 1.05051 -5.52196 0
M  V30 10678 H 961.917 -0.633778 -2.02724 0
M  V30 10679 H 964.18 -0.222583 -0.921499 0
M  V30 10680 H 963.886 -0.238987 -3.50887 0
M  V30 10681 H 963.76 1.51046 -3.45637 0
M  V30 10682 H 966.147 1.61474 -2.47002 0
M  V30 10683 H 966.228 -0.150845 -2.55355 0
M  V30 10684 H 965.872 -0.0254166 -5.07894 0
M  V30 10685 H 965.802 1.75116 -4.96631 0
M  V30 10686 H 968.293 0.868869 -3.67776 0
M  V30 10687 H 968.606 1.16247 -7.64007 0
M  V30 10688 H 966.951 1.05231 -6.86987 0
M  V30 10689 H 970.142 0.994086 -4.57423 0
M  V30 10690 H 970.315 1.12819 -6.38103 0
M  V30 10691 N 963.721 1.49897 0.486681 0
M  V30 10692 C 964.97 1.59349 1.23656 0
M  V30 10693 C 965.283 0.292024 1.93408 0
M  V30 10694 O 966.489 0.265258 2.70201 0
M  V30 10695 C 964.945 2.81215 2.24602 0
M  V30 10696 C 964.553 4.18177 1.60725 0
M  V30 10697 C 966.297 3.00004 3.00329 0
M  V30 10698 C 964.204 5.31247 2.59866 0
M  V30 10699 H 963.134 0.593363 0.465227 0
M  V30 10700 H 965.785 1.76306 0.508769 0
M  V30 10701 H 964.167 2.57783 3.00606 0
M  V30 10702 H 965.341 4.51802 0.90616 0
M  V30 10703 H 963.656 4.04864 0.973362 0
M  V30 10704 H 966.253 3.81649 3.74497 0
M  V30 10705 H 966.596 2.1112 3.58795 0
M  V30 10706 H 967.129 3.23544 2.3144 0
M  V30 10707 H 963.868 6.22236 2.06161 0
M  V30 10708 H 963.388 5.02059 3.28172 0
M  V30 10709 H 965.067 5.61177 3.22009 0
M  V30 10710 N 965.199 -0.738761 1.39212 0
M  V30 10711 C 966.109 -1.88324 1.39897 0
M  V30 10712 C 967.125 -1.71494 0.294229 0
M  V30 10713 O 968.301 -1.94162 0.535087 0
M  V30 10714 C 965.366 -3.23871 1.23726 0
M  V30 10715 C 964.427 -3.53121 2.44139 0
M  V30 10716 C 963.66 -4.82202 2.2873 0
M  V30 10717 O 963.883 -5.55649 1.28879 0
M  V30 10718 O 962.817 -5.11265 3.17634 0
M  V30 10719 H 966.643 -1.90701 2.36362 0
M  V30 10720 H 964.228 -0.886067 1.20288 0
M  V30 10721 H 966.11 -4.04882 1.16826 0
M  V30 10722 H 964.785 -3.22274 0.303551 0
M  V30 10723 H 963.692 -2.72212 2.56615 0
M  V30 10724 H 965.025 -3.59495 3.36191 0
M  V30 10725 N 966.677 -1.24326 -0.968545 0
M  V30 10726 C 967.624 -1.0349 -2.06297 0
M  V30 10727 C 968.594 0.0515333 -1.6602 0
M  V30 10728 O 969.779 -0.102924 -1.90522 0
M  V30 10729 C 966.919 -0.64487 -3.39021 0
M  V30 10730 C 966.032 -1.80469 -3.92498 0
M  V30 10731 C 965.167 -1.36032 -5.13487 0
M  V30 10732 C 964.206 -2.49014 -5.59159 0
M  V30 10733 N 963.343 -2.05451 -6.71367 0
M  V30 10734 H 968.183 -1.97161 -2.23454 0
M  V30 10735 H 965.72 -0.982028 -1.0952 0
M  V30 10736 H 967.678 -0.399771 -4.1528 0
M  V30 10737 H 966.308 0.254845 -3.21792 0
M  V30 10738 H 965.36 -2.16348 -3.12886 0
M  V30 10739 H 966.672 -2.65365 -4.22354 0
M  V30 10740 H 965.826 -1.07405 -5.97117 0
M  V30 10741 H 964.565 -0.481887 -4.85313 0
M  V30 10742 H 963.57 -2.78402 -4.74102 0
M  V30 10743 H 964.795 -3.37413 -5.89346 0
M  V30 10744 H 962.741 -1.20004 -6.4493 0
M  V30 10745 H 962.658 -2.83901 -7.00668 0
M  V30 10746 H 963.926 -1.79962 -7.58442 0
M  V30 10747 N 968.156 1.1691 -1.05688 0
M  V30 10748 C 969.403 1.87292 -0.76993 0
M  V30 10749 C 969.731 1.81339 0.703295 0
M  V30 10750 O 968.986 1.21959 1.5305 0
M  V30 10751 C 969.285 3.36578 -1.20207 0
M  V30 10752 C 968.951 3.62732 -2.67836 0
M  V30 10753 C 967.613 3.69579 -3.08163 0
M  V30 10754 C 969.965 3.73803 -3.63209 0
M  V30 10755 C 967.293 3.84992 -4.42717 0
M  V30 10756 C 969.645 3.90735 -4.97503 0
M  V30 10757 C 968.309 3.95823 -5.37476 0
M  V30 10758 H 967.579 0.68535 -0.281737 0
M  V30 10759 H 970.226 1.38274 -1.32486 0
M  V30 10760 H 968.531 3.87687 -0.566222 0
M  V30 10761 H 970.228 3.89409 -0.957183 0
M  V30 10762 H 966.818 3.58031 -2.35609 0
M  V30 10763 H 971.002 3.67829 -3.3319 0
M  V30 10764 H 966.258 3.87181 -4.73182 0
M  V30 10765 H 970.432 3.98243 -5.71293 0
M  V30 10766 H 968.059 4.07518 -6.41742 0
M  V30 10767 N 969.634 0.838594 1.33437 0
M  V30 10768 C 970.911 0.356112 1.92331 0
M  V30 10769 C 971.291 -1.1585 1.76471 0
M  V30 10770 O 970.639 -1.97281 1.15293 0
M  V30 10771 C 970.849 0.802715 3.39643 0
M  V30 10772 C 972.197 0.810575 4.16791 0
M  V30 10773 O 973.221 0.746304 3.48294 0
M  V30 10774 O 972.08 0.898082 5.3907 0
M  V30 10775 H 969.174 0.100711 0.820845 0
M  V30 10776 H 971.72 0.924428 1.42311 0
M  V30 10777 H 970.492 1.84529 3.45057 0
M  V30 10778 H 970.115 0.210956 3.9704 0
M  V30 10779 N 971.112 -1.45937 0.595003 0
M  V30 10780 C 972.528 -1.57507 0.257641 0
M  V30 10781 C 972.728 -1.58829 -1.23998 0
M  V30 10782 O 971.784 -1.51183 -2.02237 0
M  V30 10783 C 973.097 -2.86354 0.917708 0
M  V30 10784 C 974.645 -3.00007 0.892446 0
M  V30 10785 C 975.12 -4.31607 1.53229 0
M  V30 10786 N 976.611 -4.38336 1.49719 0
M  V30 10787 C 977.346 -5.38805 1.96154 0
M  V30 10788 N 976.842 -6.45882 2.50617 0
M  V30 10789 N 978.635 -5.30084 1.86997 0
M  V30 10790 H 970.786 -1.43322 1.56756 0
M  V30 10791 H 973.049 -0.684436 0.655936 0
M  V30 10792 H 972.755 -2.91233 1.97171 0
M  V30 10793 H 972.629 -3.74703 0.433344 0
M  V30 10794 H 975.016 -2.94703 -0.152975 0
M  V30 10795 H 975.097 -2.13103 1.41495 0
M  V30 10796 H 974.741 -4.3767 2.57697 0
M  V30 10797 H 974.671 -5.17308 0.984903 0
M  V30 10798 H 977.162 -3.6156 1.09921 0
M  V30 10799 H 977.475 -7.18774 2.83874 0
M  V30 10800 H 975.82 -6.46668 2.54649 0
M  V30 10801 H 979.011 -4.45337 1.44196 0
M  V30 10802 H 979.184 -6.08237 2.23499 0
M  V30 10803 N 972.59 -0.333456 -1.54032 0
M  V30 10804 C 973.815 0.270517 -2.05628 0
M  V30 10805 C 974.24 1.44231 -1.20744 0
M  V30 10806 O 973.598 1.79975 -0.218822 0
M  V30 10807 C 973.646 0.673251 -3.54259 0
M  V30 10808 O 972.75 1.77448 -3.72271 0
M  V30 10809 H 972.091 0.0469753 -0.662336 0
M  V30 10810 H 974.621 -0.484739 -1.98775 0
M  V30 10811 H 974.631 0.953194 -3.96709 0
M  V30 10812 H 973.306 -0.183747 -4.15494 0
M  V30 10813 H 971.883 1.49259 -3.41725 0
M  V30 10814 N 974.068 1.57479 -0.061844 0
M  V30 10815 C 975.293 1.97843 0.622311 0
M  V30 10816 C 975.718 0.939602 1.62951 0
M  V30 10817 O 975.076 -0.095958 1.81046 0
M  V30 10818 C 975.124 3.37262 1.2762 0
M  V30 10819 O 974.228 3.35943 2.39199 0
M  V30 10820 H 973.569 0.644212 0.160896 0
M  V30 10821 H 976.099 2.04165 -0.133409 0
M  V30 10822 H 976.109 3.74226 1.62539 0
M  V30 10823 H 974.784 4.12404 0.538112 0
M  V30 10824 H 973.361 3.10737 2.06148 0
M  V30 10825 N 975.546 -0.211634 1.56173 0
M  V30 10826 C 976.792 -0.931479 1.80818 0
M  V30 10827 C 977.147 -1.81571 0.636373 0
M  V30 10828 O 976.44 -1.8801 -0.369182 0
M  V30 10829 C 976.634 -1.79657 3.08963 0
M  V30 10830 C 976.463 -0.997577 4.38496 0
M  V30 10831 C 975.233 -0.688558 5.00587 0
M  V30 10832 C 977.431 -0.358138 5.13052 0
M  V30 10833 N 975.413 0.130797 6.13761 0
M  V30 10834 C 976.784 0.324159 6.19152 0
M  V30 10835 C 978.839 -0.272178 4.97156 0
M  V30 10836 C 977.542 1.08421 7.11082 0
M  V30 10837 C 979.568 0.474428 5.89494 0
M  V30 10838 C 978.93 1.14523 6.95028 0
M  V30 10839 H 975.029 -0.32079 0.713174 0
M  V30 10840 H 977.613 -0.201528 1.93654 0
M  V30 10841 H 975.784 -2.49826 2.97392 0
M  V30 10842 H 977.516 -2.45464 3.2176 0
M  V30 10843 H 974.271 -1.00899 4.62727 0
M  V30 10844 H 974.695 0.5296 6.74925 0
M  V30 10845 H 979.337 -0.776448 4.15609 0
M  V30 10846 H 977.055 1.59996 7.92103 0
M  V30 10847 H 980.641 0.542076 5.79269 0
M  V30 10848 H 979.521 1.71371 7.65246 0
M  V30 10849 N 977.024 -1.50153 -0.478725 0
M  V30 10850 C 977.954 -1.71384 -1.58587 0
M  V30 10851 C 978.935 -0.562705 -1.60523 0
M  V30 10852 O 980.12 -0.80101 -1.76911 0
M  V30 10853 C 977.25 -1.80094 -2.96957 0
M  V30 10854 C 976.204 -2.95218 -3.09888 0
M  V30 10855 C 975.53 -2.89063 -4.49829 0
M  V30 10856 C 976.83 -4.35841 -2.8782 0
M  V30 10857 H 978.524 -2.64081 -1.41073 0
M  V30 10858 H 976.07 -1.27081 -0.677239 0
M  V30 10859 H 978.023 -1.93531 -3.74331 0
M  V30 10860 H 976.747 -0.840131 -3.1561 0
M  V30 10861 H 975.406 -2.81419 -2.34944 0
M  V30 10862 H 975.054 -1.90844 -4.6539 0
M  V30 10863 H 974.754 -3.66345 -4.59418 0
M  V30 10864 H 976.278 -3.04539 -5.29234 0
M  V30 10865 H 977.692 -4.50205 -3.54948 0
M  V30 10866 H 976.089 -5.14515 -3.0886 0
M  V30 10867 H 977.159 -4.48739 -1.83742 0
M  V30 10868 N 978.502 0.731368 -1.39602 0
M  V30 10869 C 979.918 1.03739 -1.21286 0
M  V30 10870 C 980.118 2.01353 -0.0769875 0
M  V30 10871 O 979.174 2.45978 0.570193 0
M  V30 10872 C 980.487 1.59621 -2.54837 0
M  V30 10873 C 982.035 1.71683 -2.61713 0
M  V30 10874 C 982.51 2.30973 -3.95494 0
M  V30 10875 N 984.001 2.38378 -3.97153 0
M  V30 10876 C 984.736 2.852 -4.97442 0
M  V30 10877 N 984.232 3.31891 -6.08129 0
M  V30 10878 N 986.025 2.84441 -4.84819 0
M  V30 10879 H 978.176 0.0840456 -2.12234 0
M  V30 10880 H 980.439 0.0999038 -0.942721 0
M  V30 10881 H 980.145 0.953608 -3.38525 0
M  V30 10882 H 980.019 2.58375 -2.74813 0
M  V30 10883 H 982.406 2.35064 -1.78406 0
M  V30 10884 H 982.487 0.715714 -2.45583 0
M  V30 10885 H 982.131 1.68219 -4.79234 0
M  V30 10886 H 982.061 3.31769 -4.08946 0
M  V30 10887 H 984.552 2.05382 -3.17217 0
M  V30 10888 H 984.865 3.66138 -6.8056 0
M  V30 10889 H 983.21 3.2989 -6.11717 0
M  V30 10890 H 986.401 2.4729 -3.97448 0
M  V30 10891 H 986.574 3.20616 -5.63124 0
M  V30 10892 N 979.98 1.24838 0.961938 0
M  V30 10893 C 980.912 1.00369 2.06055 0
M  V30 10894 C 981.925 -0.0288583 1.62774 0
M  V30 10895 O 983.114 0.208853 1.77274 0
M  V30 10896 C 980.214 0.493953 3.35281 0
M  V30 10897 C 979.387 1.59097 4.07439 0
M  V30 10898 C 978.446 1.08288 5.14937 0
M  V30 10899 O 977.472 1.77577 5.40791 0
M  V30 10900 N 978.674 -0.0796836 5.80445 0
M  V30 10901 H 981.439 1.94962 2.27618 0
M  V30 10902 H 979 1.15945 1.12997 0
M  V30 10903 H 980.992 0.138675 4.04462 0
M  V30 10904 H 979.562 -0.357851 3.10545 0
M  V30 10905 H 978.782 2.11817 3.32456 0
M  V30 10906 H 980.07 2.32817 4.52409 0
M  V30 10907 H 979.468 -0.658827 5.6185 0
M  V30 10908 H 978.025 -0.376057 6.50714 0
M  V30 10909 N 981.458 -1.16348 1.06306 0
M  V30 10910 C 982.368 -2.24375 0.685059 0
M  V30 10911 C 983.384 -1.71413 -0.298956 0
M  V30 10912 O 984.56 -2.00854 -0.148239 0
M  V30 10913 C 981.625 -3.46614 0.0774088 0
M  V30 10914 C 980.686 -4.14613 1.11331 0
M  V30 10915 C 979.919 -5.31016 0.534559 0
M  V30 10916 O 980.142 -5.66654 -0.65265 0
M  V30 10917 O 979.076 -5.88256 1.27431 0
M  V30 10918 H 982.902 -2.59018 1.58566 0
M  V30 10919 H 980.487 -1.23865 0.835332 0
M  V30 10920 H 982.369 -4.20599 -0.259716 0
M  V30 10921 H 981.044 -3.13743 -0.796677 0
M  V30 10922 H 979.951 -3.42597 1.50261 0
M  V30 10923 H 981.284 -4.51538 1.95893 0
M  V30 10924 N 982.937 -0.845659 -1.3299 0
M  V30 10925 C 983.847 -0.2864 -2.32845 0
M  V30 10926 C 984.863 0.591105 -1.63652 0
M  V30 10927 O 986.039 0.493615 -1.95257 0
M  V30 10928 C 983.104 0.523636 -3.42723 0
M  V30 10929 C 982.165 -0.378945 -4.27624 0
M  V30 10930 C 981.398 0.392526 -5.32255 0
M  V30 10931 O 981.621 1.6235 -5.46808 0
M  V30 10932 O 980.555 -0.237 -6.01433 0
M  V30 10933 H 984.381 -1.11346 -2.82552 0
M  V30 10934 H 981.966 -0.608356 -1.36453 0
M  V30 10935 H 983.848 0.983718 -4.09757 0
M  V30 10936 H 982.523 1.32764 -2.95221 0
M  V30 10937 H 981.43 -0.887012 -3.63432 0
M  V30 10938 H 982.763 -1.1479 -4.78627 0
M  V30 10939 N 984.415 1.45619 -0.602734 0
M  V30 10940 C 985.692 1.9558 -0.0282472 0
M  V30 10941 C 986.072 1.54523 1.43826 0
M  V30 10942 O 985.42 0.805456 2.13833 0
M  V30 10943 C 985.63 3.48298 -0.221263 0
M  V30 10944 C 986.978 4.24483 -0.0995249 0
M  V30 10945 O 988.002 3.55879 -0.151132 0
M  V30 10946 O 986.861 5.46497 0.0194454 0
M  V30 10947 H 983.955 0.826104 0.0384897 0
M  V30 10948 H 986.501 1.55808 -0.672456 0
M  V30 10949 H 985.273 3.71134 -1.23997 0
M  V30 10950 H 984.896 3.94948 0.458437 0
M  V30 10951 N 985.893 0.34162 1.53853 0
M  V30 10952 C 987.142 -0.256475 2.00063 0
M  V30 10953 C 987.455 -1.51811 1.23341 0
M  V30 10954 O 988.661 -2.19332 1.60017 0
M  V30 10955 C 987.117 -0.507567 3.56303 0
M  V30 10956 C 986.725 0.738052 4.41879 0
M  V30 10957 C 988.469 -1.06463 4.10933 0
M  V30 10958 C 986.376 0.457865 5.89625 0
M  V30 10959 H 985.306 -0.0996143 0.747391 0
M  V30 10960 H 987.957 0.456649 1.77727 0
M  V30 10961 H 986.339 -1.28134 3.74697 0
M  V30 10962 H 987.513 1.51278 4.3526 0
M  V30 10963 H 985.828 1.21661 3.98231 0
M  V30 10964 H 988.425 -1.28918 5.18926 0
M  V30 10965 H 988.768 -2.01956 3.64032 0
M  V30 10966 H 989.301 -0.351601 3.96243 0
M  V30 10967 H 986.04 1.38247 6.40756 0
M  V30 10968 H 985.56 -0.278818 5.99152 0
M  V30 10969 H 987.239 0.0743914 6.46957 0
M  V30 10970 N 987.371 -1.57444 0.0701946 0
M  V30 10971 C 988.782 -1.80875 -0.462709 0
M  V30 10972 C 989.133 -0.983975 -1.69742 0
M  V30 10973 O 988.258 -0.206027 -2.15417 0
M  V30 10974 C 988.853 -3.28062 -0.84623 0
M  V30 10975 C 987.412 -3.52345 -1.32401 0
M  V30 10976 C 986.559 -2.7558 -0.308399 0
M  V30 10977 H 989.51 -1.55917 0.295907 0
M  V30 10978 H 989.531 -3.40023 -1.70776 0
M  V30 10979 H 989.043 -3.88064 0.0526033 0
M  V30 10980 H 987.144 -2.97645 -2.24139 0
M  V30 10981 H 987.257 -4.6104 -1.30304 0
M  V30 10982 H 985.621 -2.4229 -0.785337 0
M  V30 10983 H 986.404 -3.38319 0.582679 0
M  V30 10984 N 988.849 0.203349 -1.56283 0
M  V30 10985 C 990.26 0.768764 -1.70138 0
M  V30 10986 C 990.611 1.8421 -0.675358 0
M  V30 10987 O 989.736 2.15732 0.1699 0
M  V30 10988 C 990.331 1.40123 -3.08466 0
M  V30 10989 C 988.89 1.91382 -3.24114 0
M  V30 10990 C 988.037 0.780685 -2.66084 0
M  V30 10991 H 990.988 -0.0215997 -1.58685 0
M  V30 10992 H 991.009 2.27046 -3.05336 0
M  V30 10993 H 990.521 0.619805 -3.83119 0
M  V30 10994 H 988.622 2.7227 -2.54362 0
M  V30 10995 H 988.735 2.08128 -4.31531 0
M  V30 10996 H 987.099 1.19281 -2.25042 0
M  V30 10997 H 987.882 0.0116351 -3.43298 0
M  V30 10998 N 990.327 1.50405 0.470755 0
M  V30 10999 C 991.274 1.69293 1.56871 0
M  V30 11000 C 992.244 0.534248 1.57274 0
M  V30 11001 O 993.429 0.764855 1.74799 0
M  V30 11002 C 990.569 1.79338 2.94842 0
M  V30 11003 C 989.682 3.06709 3.04226 0
M  V30 11004 C 988.817 3.07548 4.33114 0
M  V30 11005 C 987.856 4.29372 4.36241 0
M  V30 11006 N 986.993 4.27949 5.56601 0
M  V30 11007 H 991.833 2.63029 1.40071 0
M  V30 11008 H 989.37 1.30386 0.681016 0
M  V30 11009 H 991.328 1.83143 3.74853 0
M  V30 11010 H 989.958 0.890411 3.10277 0
M  V30 11011 H 989.01 3.12374 2.17086 0
M  V30 11012 H 990.322 3.96684 3.02396 0
M  V30 11013 H 989.476 3.10084 5.21472 0
M  V30 11014 H 988.215 2.15404 4.37553 0
M  V30 11015 H 987.22 4.27048 3.4628 0
M  V30 11016 H 988.445 5.22743 4.33493 0
M  V30 11017 H 986.391 3.38658 5.61824 0
M  V30 11018 H 986.308 5.11692 5.56513 0
M  V30 11019 H 987.576 4.34631 6.47083 0
M  V30 11020 N 991.805 -0.723954 1.39988 0
M  V30 11021 C 993.051 -1.48591 1.38017 0
M  V30 11022 C 993.384 -1.94189 -0.0203522 0
M  V30 11023 O 992.659 -1.67572 -0.987422 0
M  V30 11024 C 992.942 -2.71786 2.36229 0
M  V30 11025 C 992.795 -2.32136 3.8527 0
M  V30 11026 C 994.114 -3.73921 2.32102 0
M  V30 11027 H 991.233 -0.538993 0.502648 0
M  V30 11028 H 993.875 -0.826908 1.71062 0
M  V30 11029 H 992.025 -3.28015 2.0818 0
M  V30 11030 H 993.697 -1.81454 4.24113 0
M  V30 11031 H 991.94 -1.64234 4.01509 0
M  V30 11032 H 992.611 -3.20406 4.49493 0
M  V30 11033 H 995.087 -3.27303 2.56928 0
M  V30 11034 H 993.963 -4.5777 3.02882 0
M  V30 11035 H 994.224 -4.21627 1.32979 0
M  V30 11036 N 993.283 -1.25346 -0.955304 0
M  V30 11037 C 994.694 -1.09173 -1.51453 0
M  V30 11038 C 995.045 0.332755 -1.93358 0
M  V30 11039 O 994.17 1.22264 -1.78551 0
M  V30 11040 C 994.765 -1.97564 -2.75234 0
M  V30 11041 C 993.324 -1.85579 -3.27471 0
M  V30 11042 C 992.471 -1.91755 -2.00313 0
M  V30 11043 H 995.422 -1.38642 -0.772271 0
M  V30 11044 H 995.443 -1.51523 -3.49029 0
M  V30 11045 H 994.955 -3.01233 -2.44704 0
M  V30 11046 H 993.056 -0.847906 -3.62824 0
M  V30 11047 H 993.169 -2.70353 -3.95533 0
M  V30 11048 H 991.533 -1.35633 -2.15582 0
M  V30 11049 H 992.316 -2.97028 -1.72132 0
M  V30 11050 N 994.761 1.15782 -1.06922 0
M  V30 11051 C 995.693 2.19978 -0.643604 0
M  V30 11052 C 996.706 1.59981 0.301653 0
M  V30 11053 O 997.895 1.78265 0.0916508 0
M  V30 11054 C 994.995 3.38815 0.0757973 0
M  V30 11055 C 994.168 4.28363 -0.884545 0
M  V30 11056 C 993.227 5.25807 -0.203233 0
M  V30 11057 O 992.253 5.62924 -0.842904 0
M  V30 11058 N 993.455 5.70874 1.05279 0
M  V30 11059 H 996.22 2.57112 -1.53992 0
M  V30 11060 H 993.781 1.30855 -0.953344 0
M  V30 11061 H 995.773 4.01052 0.542151 0
M  V30 11062 H 994.343 3.00133 0.874 0
M  V30 11063 H 993.563 3.63292 -1.53012 0
M  V30 11064 H 994.851 4.85067 -1.53581 0
M  V30 11065 H 994.249 5.42822 1.5925 0
M  V30 11066 H 992.806 6.35171 1.46289 0
M  V30 11067 N 996.239 0.8527 1.3254 0
M  V30 11068 C 997.655 0.542298 1.50104 0
M  V30 11069 C 997.855 -0.927465 1.78886 0
M  V30 11070 O 996.911 -1.7106 1.85728 0
M  V30 11071 C 998.224 1.4276 2.64651 0
M  V30 11072 C 999.772 1.42782 2.78536 0
M  V30 11073 C 1000.25 2.29828 3.9616 0
M  V30 11074 N 1001.74 2.27613 4.03418 0
M  V30 11075 C 1002.47 2.91696 4.93661 0
M  V30 11076 N 1001.97 3.64883 5.88925 0
M  V30 11077 N 1003.76 2.81094 4.86768 0
M  V30 11078 H 995.913 1.80395 1.12123 0
M  V30 11079 H 998.176 0.770394 0.552446 0
M  V30 11080 H 997.882 2.47266 2.50105 0
M  V30 11081 H 997.756 1.11358 3.60388 0
M  V30 11082 H 1000.14 0.390417 2.92506 0
M  V30 11083 H 1000.22 1.78198 1.83519 0
M  V30 11084 H 999.868 3.33635 3.82949 0
M  V30 11085 H 999.798 1.91746 4.9045 0
M  V30 11086 H 1002.29 1.74402 3.3525 0
M  V30 11087 H 1002.6 4.10952 6.54476 0
M  V30 11088 H 1000.95 3.68991 5.88957 0
M  V30 11089 H 1004.14 2.23469 4.11314 0
M  V30 11090 H 1004.31 3.31318 5.56895 0
M  V30 11091 N 997.718 -1.45297 0.610449 0
M  V30 11092 C 998.946 -2.0659 0.113211 0
M  V30 11093 C 999.361 -1.4546 -1.20361 0
M  V30 11094 O 998.718 -0.569823 -1.73376 0
M  V30 11095 C 998.769 -3.61488 -0.0298411 0
M  V30 11096 O 998.49 -4.20336 1.23488 0
M  V30 11097 C 999.991 -4.39772 -0.558202 0
M  V30 11098 H 997.211 -0.667322 0.0701555 0
M  V30 11099 H 999.755 -1.86497 0.838993 0
M  V30 11100 H 997.91 -3.80913 -0.705963 0
M  V30 11101 H 998.324 -5.13545 1.0664 0
M  V30 11102 H 999.798 -5.48648 -0.607375 0
M  V30 11103 H 1000.27 -4.09755 -1.58107 0
M  V30 11104 H 1000.88 -4.25217 0.0839704 0
M  V30 11105 N 999.196 -0.349774 -1.5367 0
M  V30 11106 C 1000.42 0.246038 -2.05432 0
M  V30 11107 C 1000.84 1.43719 -1.22435 0
M  V30 11108 O 1000.2 1.80622 -0.261166 0
M  V30 11109 C 1000.25 0.65501 -3.55516 0
M  V30 11110 O 999.968 -0.488782 -4.35365 0
M  V30 11111 C 1001.47 1.31088 -4.23475 0
M  V30 11112 H 998.689 0.0463952 -0.669394 0
M  V30 11113 H 1001.23 -0.503566 -1.98203 0
M  V30 11114 H 999.388 1.35455 -3.62947 0
M  V30 11115 H 999.802 -0.161528 -5.24251 0
M  V30 11116 H 1001.28 1.54774 -5.29857 0
M  V30 11117 H 1001.75 2.26636 -3.76208 0
M  V30 11118 H 1002.36 0.653211 -4.20254 0
M  V30 11119 N 1000.67 1.57404 -0.0785433 0
M  V30 11120 C 1001.9 1.98492 0.601292 0
M  V30 11121 C 1002.32 0.956832 1.61945 0
M  V30 11122 O 1001.68 -0.0767502 1.81137 0
M  V30 11123 C 1001.73 3.38596 1.24036 0
M  V30 11124 O 1000.83 3.38461 2.35622 0
M  V30 11125 H 1000.17 0.645882 0.154054 0
M  V30 11126 H 1002.7 2.04012 -0.155056 0
M  V30 11127 H 1002.71 3.75929 1.5856 0
M  V30 11128 H 1001.39 4.12952 0.494341 0
M  V30 11129 H 999.967 3.12906 2.02841 0
M  V30 11130 N 1002.15 -0.195058 1.56388 0
M  V30 11131 C 1003.4 -0.913626 1.79821 0
M  V30 11132 C 1003.71 -1.84422 0.651767 0
M  V30 11133 O 1004.92 -2.6034 0.770402 0
M  V30 11134 C 1003.38 -1.67497 3.18548 0
M  V30 11135 C 1002.98 -0.789205 4.40994 0
M  V30 11136 C 1004.73 -2.38318 3.5129 0
M  V30 11137 C 1002.63 -1.54942 5.70742 0
M  V30 11138 H 1001.56 -0.344891 0.670497 0
M  V30 11139 H 1004.22 -0.166912 1.82739 0
M  V30 11140 H 1002.6 -2.46557 3.0988 0
M  V30 11141 H 1003.77 -0.0372595 4.60785 0
M  V30 11142 H 1002.09 -0.191834 4.15958 0
M  V30 11143 H 1004.68 -2.95745 4.45465 0
M  V30 11144 H 1005.03 -3.12507 2.75037 0
M  V30 11145 H 1005.56 -1.66224 3.61406 0
M  V30 11146 H 1002.3 -0.85031 6.49962 0
M  V30 11147 H 1001.82 -2.2753 5.54969 0
M  V30 11148 H 1003.5 -2.1032 6.11861 0
M  V30 11149 N 1003.63 -1.50653 -0.462772 0
M  V30 11150 C 1004.85 -1.66103 -1.24196 0
M  V30 11151 C 1005.28 -0.347421 -1.84864 0
M  V30 11152 O 1004.64 0.689673 -1.6767 0
M  V30 11153 C 1004.69 -2.76027 -2.32037 0
M  V30 11154 O 1003.79 -2.37859 -3.36893 0
M  V30 11155 H 1003.13 -0.554672 -0.365014 0
M  V30 11156 H 1005.66 -1.97076 -0.549734 0
M  V30 11157 H 1005.67 -2.99354 -2.77221 0
M  V30 11158 H 1004.35 -3.71361 -1.87253 0
M  V30 11159 H 1002.92 -2.2501 -2.97363 0
M  V30 11160 N 1005.11 0.71652 -1.4037 0
M  V30 11161 C 1006.52 1.29562 -1.34427 0
M  V30 11162 C 1006.87 1.96192 -0.0173106 0
M  V30 11163 O 1006 1.97488 0.884719 0
M  V30 11164 C 1006.59 2.35601 -2.4347 0
M  V30 11165 C 1005.15 2.89138 -2.4099 0
M  V30 11166 C 1004.3 1.62915 -2.24397 0
M  V30 11167 H 1007.25 0.512715 -1.5019 0
M  V30 11168 H 1007.27 3.16422 -2.11323 0
M  V30 11169 H 1006.78 1.87077 -3.40035 0
M  V30 11170 H 1004.88 3.41894 -1.4812 0
M  V30 11171 H 1004.99 3.40995 -3.3654 0
M  V30 11172 H 1003.36 1.87947 -1.71896 0
M  V30 11173 H 1004.14 1.16417 -3.22958 0
M  V30 11174 N 1006.59 1.25851 0.948643 0
M  V30 11175 C 1007.55 1.0683 2.0278 0
M  V30 11176 C 1008.55 0.0191016 1.60789 0
M  V30 11177 O 1009.74 0.261836 1.72221 0
M  V30 11178 C 1006.87 0.623318 3.35153 0
M  V30 11179 H 1008.06 2.02635 2.21086 0
M  V30 11180 H 1005.62 1.08343 1.12657 0
M  V30 11181 H 1006.35 -0.337053 3.22544 0
M  V30 11182 H 1006.14 1.38082 3.66982 0
M  V30 11183 H 1007.63 0.511854 4.14451 0
M  V30 11184 N 1008.06 -1.15214 1.07534 0
M  V30 11185 C 1008.99 -2.2216 0.718837 0
M  V30 11186 C 1009.98 -1.6753 -0.29459 0
M  V30 11187 O 1011.16 -1.93481 -0.166931 0
M  V30 11188 C 1008.29 -3.471 0.117836 0
M  V30 11189 C 1007.24 -4.14701 1.05862 0
M  V30 11190 C 1006.57 -5.3374 0.320284 0
M  V30 11191 C 1007.87 -4.64254 2.39302 0
M  V30 11192 H 1009.56 -2.52237 1.61297 0
M  V30 11193 H 1007.11 -1.21239 0.776992 0
M  V30 11194 H 1009.06 -4.21156 -0.143519 0
M  V30 11195 H 1007.79 -3.16361 -0.811389 0
M  V30 11196 H 1006.45 -3.42589 1.30493 0
M  V30 11197 H 1006.09 -4.99257 -0.61246 0
M  V30 11198 H 1005.79 -5.79912 0.947381 0
M  V30 11199 H 1007.32 -6.10563 0.0667721 0
M  V30 11200 H 1008.73 -5.29827 2.18988 0
M  V30 11201 H 1007.13 -5.21095 2.97623 0
M  V30 11202 H 1008.2 -3.79793 3.01472 0
M  V30 11203 N 1009.54 -0.859717 -1.32086 0
M  V30 11204 C 1010.51 -0.313005 -2.27053 0
M  V30 11205 C 1011.51 0.530191 -1.51808 0
M  V30 11206 O 1012.7 0.340972 -1.7083 0
M  V30 11207 C 1009.83 0.5566 -3.36325 0
M  V30 11208 H 1011.02 -1.15125 -2.76923 0
M  V30 11209 H 1008.57 -0.634463 -1.42843 0
M  V30 11210 H 1009.31 1.41645 -2.91731 0
M  V30 11211 H 1009.09 -0.0470197 -3.92072 0
M  V30 11212 H 1010.58 0.931725 -4.07073 0
M  V30 11213 N 1011.02 1.44971 -0.618145 0
M  V30 11214 C 1012.44 1.57077 -0.282666 0
M  V30 11215 C 1012.64 1.60782 1.21456 0
M  V30 11216 O 1011.69 1.54382 1.99806 0
M  V30 11217 C 1013.01 2.84858 -0.963148 0
M  V30 11218 C 1014.55 2.9855 -0.940062 0
M  V30 11219 C 1015.03 4.29115 -1.60076 0
M  V30 11220 N 1016.52 4.35899 -1.56674 0
M  V30 11221 C 1017.25 5.35617 -2.04701 0
M  V30 11222 N 1016.75 6.41813 -2.6086 0
M  V30 11223 N 1018.54 5.27042 -1.95406 0
M  V30 11224 H 1010.69 1.4081 -1.59017 0
M  V30 11225 H 1012.96 0.673914 -0.666741 0
M  V30 11226 H 1012.66 2.88059 -2.0178 0
M  V30 11227 H 1012.54 3.73966 -0.492901 0
M  V30 11228 H 1014.92 2.94909 0.10607 0
M  V30 11229 H 1015.01 2.10825 -1.44868 0
M  V30 11230 H 1014.65 4.33514 -2.64627 0
M  V30 11231 H 1014.58 5.15675 -1.06708 0
M  V30 11232 H 1017.07 3.59766 -1.15659 0
M  V30 11233 H 1017.38 7.14166 -2.95273 0
M  V30 11234 H 1015.73 6.42534 -2.64905 0
M  V30 11235 H 1018.92 4.42987 -1.51263 0
M  V30 11236 H 1019.09 6.04604 -2.33147 0
M  V30 11237 N 1012.5 0.357919 1.53482 0
M  V30 11238 C 1013.45 -0.49217 2.25491 0
M  V30 11239 C 1014.42 -1.08382 1.25867 0
M  V30 11240 O 1015.6 -1.11775 1.54632 0
M  V30 11241 C 1012.74 -1.6299 3.04185 0
M  V30 11242 C 1011.85 -1.06416 4.18688 0
M  V30 11243 C 1010.99 -2.17037 4.84839 0
M  V30 11244 C 1010.03 -1.57889 5.91386 0
M  V30 11245 N 1009.16 -2.6231 6.51259 0
M  V30 11246 H 1014 0.128412 2.97723 0
M  V30 11247 H 1011.54 0.0751423 1.46908 0
M  V30 11248 H 1013.5 -2.29993 3.48079 0
M  V30 11249 H 1012.13 -2.22125 2.34223 0
M  V30 11250 H 1011.18 -0.284635 3.79334 0
M  V30 11251 H 1012.49 -0.591654 4.95279 0
M  V30 11252 H 1011.65 -2.91876 5.31877 0
M  V30 11253 H 1010.39 -2.67636 4.07703 0
M  V30 11254 H 1009.39 -0.815605 5.43717 0
M  V30 11255 H 1010.62 -1.08123 6.70437 0
M  V30 11256 H 1008.56 -3.12137 5.7698 0
M  V30 11257 H 1008.48 -2.19724 7.23365 0
M  V30 11258 H 1009.75 -3.36875 7.02948 0
M  V30 11259 N 1013.98 -1.5736 0.0868897 0
M  V30 11260 C 1014.92 -2.14793 -0.892571 0
M  V30 11261 C 1015.92 -1.08866 -1.29787 0
M  V30 11262 O 1017.12 -1.27223 -1.27335 0
M  V30 11263 H 1013.5 -0.686998 -0.305838 0
M  V30 11264 H 1015.47 -2.95927 -0.383393 0
M  V30 11265 C 1014.22 -2.73646 -2.14507 0
M  V30 11266 H 1013.54 -3.54835 -1.84207 0
M  V30 11267 H 1014.98 -3.17409 -2.81118 0
M  V30 11268 C 1013.44 -1.69138 -2.91366 0
M  V30 11269 O 1013.97 -1.12539 -3.85614 0
M  V30 11270 N 1012.18 -1.3982 -2.54752 0
M  V30 11271 H 1011.72 -1.86035 -1.78182 0
M  V30 11272 H 1011.68 -0.701316 -3.06478 0
M  V30 11273 N 1015.45 0.186762 -1.56489 0
M  V30 11274 C 1016.68 0.925916 -1.85584 0
M  V30 11275 C 1017.1 1.75708 -0.671446 0
M  V30 11276 O 1016.46 1.7728 0.379687 0
M  V30 11277 C 1016.51 1.79107 -3.12975 0
M  V30 11278 O 1015.61 2.89088 -2.94112 0
M  V30 11279 H 1014.96 0.260275 -0.610863 0
M  V30 11280 H 1017.49 0.189561 -2.0372 0
M  V30 11281 H 1017.5 2.19408 -3.43983 0
M  V30 11282 H 1016.17 1.18044 -3.98796 0
M  V30 11283 H 1014.75 2.52482 -2.74422 0
M  V30 11284 N 1016.93 1.50896 0.454776 0
M  V30 11285 C 1018.34 1.55372 1.0352 0
M  V30 11286 C 1018.69 0.366822 1.9274 0
M  V30 11287 O 1017.82 -0.518444 2.10098 0
M  V30 11288 C 1018.41 2.81574 1.88418 0
M  V30 11289 C 1016.97 2.88679 2.4154 0
M  V30 11290 C 1016.12 2.49847 1.20298 0
M  V30 11291 H 1019.07 1.56924 0.236729 0
M  V30 11292 H 1019.09 2.64352 2.73676 0
M  V30 11293 H 1018.6 3.67941 1.23455 0
M  V30 11294 H 1016.71 2.06702 3.10008 0
M  V30 11295 H 1016.82 3.91944 2.7553 0
M  V30 11296 H 1015.18 2.02651 1.54288 0
M  V30 11297 H 1015.97 3.3854 0.569723 0
M  V30 11298 N 1018.41 -0.709066 1.40748 0
M  V30 11299 C 1019.66 -1.46611 1.39103 0
M  V30 11300 C 1019.98 -1.95 -0.00365366 0
M  V30 11301 O 1019.25 -1.70791 -0.959541 0
M  V30 11302 H 1017.83 -0.543954 0.511979 0
M  V30 11303 H 1020.49 -0.840141 1.75863 0
M  V30 11304 H 1019.59 -2.33581 2.06994 0
M  V30 11305 N 1019.89 -1.26353 -0.941956 0
M  V30 11306 C 1020.84 -1.07654 -2.06188 0
M  V30 11307 C 1021.83 -0.00369741 -1.694 0
M  V30 11308 O 1023.04 -0.160316 -1.79285 0
M  V30 11309 H 1019.41 -0.331274 -0.675101 0
M  V30 11310 H 1021.38 -2.02566 -2.19111 0
M  V30 11311 C 1020.13 -0.725436 -3.40048 0
M  V30 11312 H 1019.46 -1.54283 -3.68832 0
M  V30 11313 H 1020.9 -0.634383 -4.19227 0
M  V30 11314 C 1019.35 0.569369 -3.32054 0
M  V30 11315 O 1019.88 1.60791 -3.68116 0
M  V30 11316 N 1018.09 0.559714 -2.85159 0
M  V30 11317 H 1017.64 -0.285817 -2.56009 0
M  V30 11318 H 1017.6 1.42617 -2.80193 0
M  V30 11319 N 1021.37 1.14642 -1.08144 0
M  V30 11320 C 1022.62 1.8525 -0.807885 0
M  V30 11321 C 1022.94 1.83194 0.668213 0
M  V30 11322 O 1022.21 1.27848 1.48431 0
M  V30 11323 H 1020.79 0.685909 -0.295868 0
M  V30 11324 H 1023.45 1.38935 -1.36686 0
M  V30 11325 H 1022.54 2.90155 -1.14964 0
M  V30 11326 N 1022.85 0.866709 1.31628 0
M  V30 11327 C 1024.07 0.48956 2.01539 0
M  V30 11328 C 1024.5 -0.909556 1.64647 0
M  V30 11329 O 1023.85 -1.59959 0.853391 0
M  V30 11330 C 1023.9 0.650176 3.5469 0
M  V30 11331 O 1023.01 -0.311908 4.11219 0
M  V30 11332 H 1022.35 0.195144 0.634677 0
M  V30 11333 H 1024.88 1.16923 1.679 0
M  V30 11334 H 1024.89 0.542236 4.04381 0
M  V30 11335 H 1023.56 1.67038 3.80882 0
M  V30 11336 H 1022.14 -0.159197 3.7256 0
M  V30 11337 N 1024.32 -1.44642 0.625825 0
M  V30 11338 C 1025.29 -2.29085 -0.072526 0
M  V30 11339 C 1026.29 -1.40755 -0.777467 0
M  V30 11340 O 1027.48 -1.62684 -0.622861 0
M  V30 11341 C 1024.61 -3.22212 -1.1132 0
M  V30 11342 H 1025.8 -2.92317 0.670124 0
M  V30 11343 H 1023.35 -1.51466 0.38571 0
M  V30 11344 H 1024.09 -2.63819 -1.88601 0
M  V30 11345 H 1023.87 -3.87299 -0.611709 0
M  V30 11346 H 1025.36 -3.8566 -1.60175 0
M  V30 11347 N 1025.8 -0.366053 -1.5329 0
M  V30 11348 C 1026.73 0.47211 -2.28677 0
M  V30 11349 C 1027.71 1.08353 -1.31125 0
M  V30 11350 O 1028.9 1.10069 -1.59995 0
M  V30 11351 C 1026.03 1.61174 -3.07637 0
M  V30 11352 C 1024.98 1.12755 -4.12881 0
M  V30 11353 C 1024.31 2.35745 -4.79925 0
M  V30 11354 C 1025.61 0.211954 -5.2187 0
M  V30 11355 H 1027.3 -0.156838 -2.98989 0
M  V30 11356 H 1024.85 -0.0768709 -1.43795 0
M  V30 11357 H 1026.8 2.20473 -3.59123 0
M  V30 11358 H 1025.52 2.26793 -2.35016 0
M  V30 11359 H 1024.18 0.557234 -3.6234 0
M  V30 11360 H 1023.83 2.99821 -4.03877 0
M  V30 11361 H 1023.53 2.04019 -5.51044 0
M  V30 11362 H 1025.06 2.95729 -5.34207 0
M  V30 11363 H 1026.47 0.71244 -5.68856 0
M  V30 11364 H 1024.87 -0.0144501 -6.00098 0
M  V30 11365 H 1025.94 -0.745753 -4.79131 0
M  V30 11366 N 1027.28 1.57312 -0.0952337 0
M  V30 11367 C 1028.53 1.93974 0.567319 0
M  V30 11368 C 1028.85 0.977805 1.68713 0
M  V30 11369 O 1028.12 0.0298944 1.95877 0
M  V30 11370 H 1026.7 0.71612 0.212558 0
M  V30 11371 H 1029.36 1.94254 -0.158598 0
M  V30 11372 H 1028.46 2.964 0.977423 0
M  V30 11373 N 1028.76 -0.17846 1.56586 0
M  V30 11374 C 1030.17 -0.741599 1.71339 0
M  V30 11375 C 1030.52 -1.83112 0.704579 0
M  V30 11376 O 1029.64 -2.15975 -0.135557 0
M  V30 11377 C 1030.24 -1.35198 3.10656 0
M  V30 11378 C 1028.8 -1.86202 3.27118 0
M  V30 11379 C 1027.95 -0.738255 2.67292 0
M  V30 11380 H 1030.9 0.0468424 1.58631 0
M  V30 11381 H 1030.92 -2.2216 3.0891 0
M  V30 11382 H 1030.43 -0.558776 3.84056 0
M  V30 11383 H 1028.53 -2.68188 2.58661 0
M  V30 11384 H 1028.64 -2.01237 4.34788 0
M  V30 11385 H 1027.01 -1.15686 2.26912 0
M  V30 11386 H 1027.79 0.0429821 3.43273 0
M  V30 11387 N 1030.24 -1.51135 -0.446768 0
M  V30 11388 C 1031.65 -1.39101 -0.782504 0
M  V30 11389 C 1031.85 -0.46599 -1.96038 0
M  V30 11390 O 1030.91 0.0823679 -2.52366 0
M  V30 11391 C 1032.22 -2.80953 -1.07173 0
M  V30 11392 C 1033.77 -2.90038 -1.17673 0
M  V30 11393 C 1034.24 -4.32777 -1.49894 0
M  V30 11394 N 1035.73 -4.3584 -1.56837 0
M  V30 11395 C 1036.47 -5.43305 -1.83322 0
M  V30 11396 N 1035.97 -6.60945 -2.07662 0
M  V30 11397 N 1037.76 -5.30775 -1.85026 0
M  V30 11398 H 1029.91 -2.09835 0.329114 0
M  V30 11399 H 1032.17 -0.944199 0.0848054 0
M  V30 11400 H 1031.88 -3.50591 -0.279037 0
M  V30 11401 H 1031.75 -3.197 -2.00179 0
M  V30 11402 H 1034.14 -2.20603 -1.96005 0
M  V30 11403 H 1034.22 -2.54801 -0.225892 0
M  V30 11404 H 1033.86 -5.02757 -0.720924 0
M  V30 11405 H 1033.79 -4.6552 -2.46168 0
M  V30 11406 H 1036.29 -3.51023 -1.39968 0
M  V30 11407 H 1036.6 -7.38643 -2.27214 0
M  V30 11408 H 1034.94 -6.64077 -2.05003 0
M  V30 11409 H 1038.13 -4.37858 -1.65523 0
M  V30 11410 H 1038.31 -6.14609 -2.05329 0
M  V30 11411 N 1031.71 0.701592 -1.41122 0
M  V30 11412 C 1032.64 1.82815 -1.45262 0
M  V30 11413 C 1033.62 1.67215 -0.311939 0
M  V30 11414 O 1034.81 1.87038 -0.522538 0
M  V30 11415 C 1031.94 3.20899 -1.32819 0
M  V30 11416 C 1030.89 3.51194 -2.44636 0
M  V30 11417 C 1030.22 4.8857 -2.17263 0
M  V30 11418 C 1031.52 3.50777 -3.86979 0
M  V30 11419 H 1033.21 1.79608 -2.39544 0
M  V30 11420 H 1030.76 0.862693 -1.15298 0
M  V30 11421 H 1032.71 3.99417 -1.34329 0
M  V30 11422 H 1031.44 3.24717 -0.350191 0
M  V30 11423 H 1030.1 2.75024 -2.42399 0
M  V30 11424 H 1029.74 4.89007 -1.17819 0
M  V30 11425 H 1029.44 5.09805 -2.92186 0
M  V30 11426 H 1030.97 5.69405 -2.20478 0
M  V30 11427 H 1032.38 4.19309 -3.90964 0
M  V30 11428 H 1030.78 3.83542 -4.61536 0
M  V30 11429 H 1031.85 2.49873 -4.15562 0
M  V30 11430 N 1033.19 1.2685 0.935242 0
M  V30 11431 C 1034.44 1.12522 1.67878 0
M  V30 11432 C 1034.76 -0.330894 1.92172 0
M  V30 11433 O 1034.03 -1.23259 1.52263 0
M  V30 11434 H 1032.61 0.413418 0.622169 0
M  V30 11435 H 1035.27 1.59267 1.12339 0
M  V30 11436 H 1034.37 1.64853 2.65009 0
M  V30 11437 N 1034.67 -1.14067 1.0875 0
M  V30 11438 C 1035.9 -1.89582 0.841038 0
M  V30 11439 C 1036.32 -1.78226 -0.601436 0
M  V30 11440 O 1035.68 -1.12491 -1.42181 0
M  V30 11441 C 1035.73 -3.37415 1.27213 0
M  V30 11442 O 1034.83 -4.10191 0.426246 0
M  V30 11443 H 1034.17 -0.589716 0.305173 0
M  V30 11444 H 1036.7 -1.44364 1.44984 0
M  V30 11445 H 1036.71 -3.88234 1.25451 0
M  V30 11446 H 1035.39 -3.44999 2.32268 0
M  V30 11447 H 1033.96 -3.69429 0.507585 0
M  V30 11448 N 1036.15 -0.873678 -1.31166 0
M  V30 11449 C 1037.08 -0.289389 -2.27366 0
M  V30 11450 C 1038.09 0.549667 -1.5324 0
M  V30 11451 O 1039.28 0.371056 -1.74601 0
M  V30 11452 C 1036.38 0.60807 -3.334 0
M  V30 11453 C 1035.56 -0.199379 -4.36945 0
M  V30 11454 C 1034.61 0.626798 -5.22454 0
M  V30 11455 O 1033.64 0.0535121 -5.69175 0
M  V30 11456 N 1034.84 1.93809 -5.47191 0
M  V30 11457 H 1037.61 -1.1161 -2.78143 0
M  V30 11458 H 1035.17 -0.735529 -1.44228 0
M  V30 11459 H 1037.16 1.16656 -3.87522 0
M  V30 11460 H 1035.73 1.33545 -2.82638 0
M  V30 11461 H 1034.95 -0.939316 -3.82845 0
M  V30 11462 H 1036.24 -0.75329 -5.03193 0
M  V30 11463 H 1035.64 2.42693 -5.10995 0
M  V30 11464 H 1034.19 2.44428 -6.04234 0
M  V30 11465 N 1037.63 1.44308 -0.633487 0
M  V30 11466 C 1039.04 1.85387 -0.221009 0
M  V30 11467 C 1039.39 1.5301 1.22811 0
M  V30 11468 O 1038.51 0.969325 1.93476 0
M  V30 11469 C 1039.11 3.36497 -0.394331 0
M  V30 11470 C 1037.67 3.76382 -0.0363405 0
M  V30 11471 C 1036.81 2.68146 -0.706598 0
M  V30 11472 H 1039.77 1.34741 -0.83849 0
M  V30 11473 H 1039.79 3.78735 0.366026 0
M  V30 11474 H 1039.3 3.60031 -1.44911 0
M  V30 11475 H 1037.4 3.58463 1.01661 0
M  V30 11476 H 1037.51 4.77 -0.448045 0
M  V30 11477 H 1035.88 2.54306 -0.14168 0
M  V30 11478 H 1036.66 2.94512 -1.76401 0
M  V30 11479 N 1039.1 0.374177 1.53094 0
M  V30 11480 C 1040.35 -0.213981 2.00562 0
M  V30 11481 C 1040.67 -1.4916 1.26533 0
M  V30 11482 O 1041.87 -2.15889 1.64634 0
M  V30 11483 C 1040.33 -0.431876 3.57299 0
M  V30 11484 C 1039.94 0.831615 4.40214 0
M  V30 11485 C 1041.68 -0.977222 4.13099 0
M  V30 11486 C 1039.59 0.582831 5.88521 0
M  V30 11487 H 1038.52 -0.0837386 0.749336 0
M  V30 11488 H 1041.17 0.494245 1.76719 0
M  V30 11489 H 1039.55 -1.20158 3.7733 0
M  V30 11490 H 1040.72 1.60477 4.31953 0
M  V30 11491 H 1039.04 1.30081 3.9556 0
M  V30 11492 H 1041.64 -1.17881 5.21544 0
M  V30 11493 H 1041.98 -1.94189 3.68234 0
M  V30 11494 H 1042.51 -0.267473 3.969 0
M  V30 11495 H 1039.25 1.51807 6.37679 0
M  V30 11496 H 1038.77 -0.151666 5.99608 0
M  V30 11497 H 1040.45 0.211604 6.46654 0
M  V30 11498 N 1040.58 -1.57259 0.103575 0
M  V30 11499 C 1042 -1.57581 -0.253062 0
M  V30 11500 C 1042.2 -1.11531 -1.67819 0
M  V30 11501 O 1041.25 -0.795632 -2.39637 0
M  V30 11502 C 1042.57 -3.00681 -0.0337753 0
M  V30 11503 C 1044.12 -3.12837 -0.10087 0
M  V30 11504 C 1044.59 -4.57911 0.0905295 0
M  V30 11505 N 1046.08 -4.63186 0.0359789 0
M  V30 11506 C 1046.82 -5.73179 0.159199 0
M  V30 11507 N 1046.31 -6.91976 0.337728 0
M  V30 11508 N 1048.11 -5.62011 0.0998662 0
M  V30 11509 H 1040.26 -1.85499 1.0346 0
M  V30 11510 H 1042.52 -0.856584 0.406163 0
M  V30 11511 H 1042.23 -3.38602 0.950858 0
M  V30 11512 H 1042.1 -3.69207 -0.772406 0
M  V30 11513 H 1044.49 -2.74783 -1.07601 0
M  V30 11514 H 1044.57 -2.46886 0.66939 0
M  V30 11515 H 1044.21 -4.9666 1.06258 0
M  V30 11516 H 1044.14 -5.21933 -0.699528 0
M  V30 11517 H 1046.63 -3.7777 -0.099121 0
M  V30 11518 H 1046.95 -7.71641 0.423032 0
M  V30 11519 H 1045.29 -6.93996 0.373504 0
M  V30 11520 H 1048.48 -4.68084 -0.0385356 0
M  V30 11521 H 1048.65 -6.47693 0.199342 0
M  V30 11522 N 1042.06 0.170153 -1.56679 0
M  V30 11523 C 1043.02 1.19443 -1.95617 0
M  V30 11524 C 1044.02 1.37118 -0.83996 0
M  V30 11525 O 1045.21 1.34504 -1.10699 0
M  V30 11526 C 1042.35 2.55926 -2.25199 0
M  V30 11527 H 1043.54 0.86095 -2.87276 0
M  V30 11528 H 1041.09 0.412646 -1.50755 0
M  V30 11529 H 1041.83 2.94286 -1.36257 0
M  V30 11530 H 1041.61 2.44464 -3.06562 0
M  V30 11531 H 1043.1 3.29742 -2.56242 0
M  V30 11532 N 1043.54 1.5137 0.438746 0
M  V30 11533 C 1044.76 1.68058 1.21537 0
M  V30 11534 C 1045.19 0.376787 1.84288 0
M  V30 11535 O 1044.55 -0.662911 1.68746 0
M  V30 11536 C 1044.59 2.79684 2.27616 0
M  V30 11537 O 1043.7 2.43189 3.33066 0
M  V30 11538 H 1043.04 0.560408 0.356144 0
M  V30 11539 H 1045.57 1.97926 0.518311 0
M  V30 11540 H 1045.58 3.03726 2.72423 0
M  V30 11541 H 1044.25 3.74293 1.81321 0
M  V30 11542 H 1042.83 2.29713 2.93746 0
M  V30 11543 N 1045.02 -0.694098 1.41492 0
M  V30 11544 C 1045.96 -1.82932 1.43662 0
M  V30 11545 C 1046.96 -1.66455 0.31449 0
M  V30 11546 O 1048.16 -1.73298 0.486589 0
M  V30 11547 H 1044.54 -0.602847 0.449533 0
M  V30 11548 H 1046.51 -1.78218 2.39334 0
M  V30 11549 C 1045.26 -3.20962 1.33712 0
M  V30 11550 H 1044.58 -3.34257 2.19345 0
M  V30 11551 H 1046.02 -4.00467 1.39291 0
M  V30 11552 C 1044.48 -3.36863 0.0496332 0
M  V30 11553 O 1045.01 -3.91371 -0.905093 0
M  V30 11554 N 1043.22 -2.90588 -0.0269299 0
M  V30 11555 H 1042.76 -2.46417 0.750752 0
M  V30 11556 H 1042.72 -3.01605 -0.887781 0
M  V30 11557 N 1046.49 -1.27344 -0.928501 0
M  V30 11558 C 1047.91 -1.12361 -1.49103 0
M  V30 11559 C 1048.26 0.291667 -1.9402 0
M  V30 11560 O 1047.38 1.18449 -1.81104 0
M  V30 11561 C 1047.98 -2.03358 -2.70981 0
M  V30 11562 C 1046.54 -1.92483 -3.23461 0
M  V30 11563 C 1045.68 -1.95961 -1.962 0
M  V30 11564 H 1048.63 -1.40249 -0.742689 0
M  V30 11565 H 1048.65 -1.58892 -3.45736 0
M  V30 11566 H 1048.17 -3.06356 -2.38259 0
M  V30 11567 H 1046.27 -0.924676 -3.60944 0
M  V30 11568 H 1046.38 -2.78682 -3.89709 0
M  V30 11569 H 1044.74 -1.40175 -2.12657 0
M  V30 11570 H 1045.53 -3.00612 -1.65793 0
M  V30 11571 N 1047.97 1.13488 -1.09353 0
M  V30 11572 C 1049.25 1.80998 -0.741559 0
M  V30 11573 C 1049.63 1.96418 0.773505 0
M  V30 11574 O 1048.98 1.53168 1.69563 0
M  V30 11575 C 1049.19 3.16078 -1.47972 0
M  V30 11576 C 1050.54 3.91438 -1.64504 0
M  V30 11577 O 1051.56 3.25699 -1.44218 0
M  V30 11578 O 1050.42 5.0935 -1.98054 0
M  V30 11579 H 1047.51 0.782953 -0.266297 0
M  V30 11580 H 1050.06 1.20422 -1.19569 0
M  V30 11581 H 1048.83 3.00076 -2.51137 0
M  V30 11582 H 1048.45 3.84354 -1.01772 0
M  V30 11583 N 1049.45 0.880621 1.30701 0
M  V30 11584 C 1050.38 0.360251 2.30704 0
M  V30 11585 C 1051.36 -0.554572 1.60806 0
M  V30 11586 O 1052.55 -0.469345 1.88443 0
M  V30 11587 C 1049.68 -0.429888 3.44629 0
M  V30 11588 C 1048.63 0.392786 4.26194 0
M  V30 11589 C 1047.96 -0.52369 5.32129 0
M  V30 11590 C 1049.26 1.63258 4.96129 0
M  V30 11591 H 1050.95 1.19591 2.74478 0
M  V30 11592 H 1048.5 0.576508 1.31956 0
M  V30 11593 H 1050.45 -0.804532 4.13649 0
M  V30 11594 H 1049.17 -1.29916 2.99649 0
M  V30 11595 H 1047.83 0.749514 3.58856 0
M  V30 11596 H 1047.48 -1.39054 4.83397 0
M  V30 11597 H 1047.18 0.0229272 5.87596 0
M  V30 11598 H 1048.71 -0.894946 6.04006 0
M  V30 11599 H 1050.12 1.32877 5.57689 0
M  V30 11600 H 1048.52 2.11906 5.61441 0
M  V30 11601 H 1049.59 2.37944 4.22505 0
M  V30 11602 N 1050.93 -1.4397 0.641131 0
M  V30 11603 C 1052.35 -1.56607 0.30762 0
M  V30 11604 C 1052.55 -1.62694 -1.18882 0
M  V30 11605 O 1051.6 -1.57541 -1.97325 0
M  V30 11606 C 1052.91 -2.83289 1.00834 0
M  V30 11607 C 1054.46 -2.97016 0.98744 0
M  V30 11608 C 1054.94 -4.26514 1.66882 0
M  V30 11609 N 1056.43 -4.33351 1.63589 0
M  V30 11610 C 1057.16 -5.32292 2.13196 0
M  V30 11611 N 1056.66 -6.37582 2.71038 0
M  V30 11612 N 1058.45 -5.23866 2.03766 0
M  V30 11613 H 1050.6 -1.38262 1.61237 0
M  V30 11614 H 1052.87 -0.663221 0.677378 0
M  V30 11615 H 1052.57 -2.84812 2.06337 0
M  V30 11616 H 1052.45 -3.73134 0.552333 0
M  V30 11617 H 1054.83 -2.95041 -0.0591395 0
M  V30 11618 H 1054.91 -2.08493 1.48203 0
M  V30 11619 H 1054.56 -4.2925 2.71491 0
M  V30 11620 H 1054.49 -5.13912 1.14898 0
M  V30 11621 H 1056.98 -3.5788 1.21368 0
M  V30 11622 H 1057.29 -7.09378 3.06597 0
M  V30 11623 H 1055.64 -6.38239 2.75093 0
M  V30 11624 H 1058.83 -4.40524 1.58291 0
M  V30 11625 H 1059 -6.00819 2.42737 0
M  V30 11626 N 1052.41 -0.382291 -1.52893 0
M  V30 11627 C 1053.82 -0.031941 -1.59568 0
M  V30 11628 C 1054.02 1.45245 -1.39664 0
M  V30 11629 O 1053.08 2.21612 -1.21013 0
M  V30 11630 C 1054.39 -0.502846 -2.96466 0
M  V30 11631 C 1055.94 -0.4585 -3.09624 0
M  V30 11632 C 1056.42 -0.905481 -4.4896 0
M  V30 11633 N 1057.91 -0.861211 -4.55124 0
M  V30 11634 C 1058.64 -1.17856 -5.61157 0
M  V30 11635 N 1058.14 -1.56603 -6.74868 0
M  V30 11636 N 1059.93 -1.10027 -5.51226 0
M  V30 11637 H 1052.08 -1.34875 -1.64081 0
M  V30 11638 H 1054.34 -0.552375 -0.770446 0
M  V30 11639 H 1054.05 -1.53931 -3.16225 0
M  V30 11640 H 1053.92 0.101777 -3.77063 0
M  V30 11641 H 1056.31 0.568868 -2.89565 0
M  V30 11642 H 1056.39 -1.09884 -2.30996 0
M  V30 11643 H 1056.04 -1.93105 -4.69759 0
M  V30 11644 H 1055.97 -0.242227 -5.26043 0
M  V30 11645 H 1058.46 -0.575988 -3.73485 0
M  V30 11646 H 1058.77 -1.792 -7.51736 0
M  V30 11647 H 1057.12 -1.60484 -6.76217 0
M  V30 11648 H 1060.31 -0.796623 -4.61272 0
M  V30 11649 H 1060.48 -1.35091 -6.33762 0
M  V30 11650 N 1053.89 1.57202 -0.111913 0
M  V30 11651 C 1055.11 1.99297 0.555713 0
M  V30 11652 C 1055.53 0.991444 1.60673 0
M  V30 11653 O 1054.89 -0.0166672 1.82492 0
M  V30 11654 C 1054.94 3.41413 1.18826 0
M  V30 11655 O 1054.66 4.37733 0.179261 0
M  V30 11656 C 1056.16 3.98602 1.93989 0
M  V30 11657 H 1053.38 0.654543 0.147695 0
M  V30 11658 H 1055.92 2.03557 -0.196163 0
M  V30 11659 H 1054.08 3.38115 1.89096 0
M  V30 11660 H 1054.49 5.20606 0.637935 0
M  V30 11661 H 1055.97 5.00143 2.33584 0
M  V30 11662 H 1056.44 3.37349 2.81233 0
M  V30 11663 H 1057.05 4.05424 1.28497 0
M  V30 11664 N 1055.36 -0.161842 1.56767 0
M  V30 11665 C 1056.27 -1.21996 2.00385 0
M  V30 11666 C 1057.29 -1.4789 0.916768 0
M  V30 11667 O 1058.47 -1.59852 1.22513 0
M  V30 11668 C 1055.53 -2.53695 2.36305 0
M  V30 11669 C 1054.59 -2.3558 3.58888 0
M  V30 11670 C 1053.82 -3.60998 3.93085 0
M  V30 11671 O 1054.05 -4.6657 3.28129 0
M  V30 11672 O 1052.98 -3.54544 4.86397 0
M  V30 11673 H 1056.81 -0.879701 2.9068 0
M  V30 11674 H 1054.39 -0.369437 1.4476 0
M  V30 11675 H 1056.27 -3.31366 2.60335 0
M  V30 11676 H 1054.95 -2.87281 1.49169 0
M  V30 11677 H 1053.86 -1.55908 3.40064 0
M  V30 11678 H 1055.19 -2.06915 4.46595 0
M  V30 11679 N 1056.84 -1.516 -0.430713 0
M  V30 11680 C 1058.25 -1.57 -1.01035 0
M  V30 11681 C 1058.6 -0.397439 -1.92132 0
M  V30 11682 O 1057.73 0.484954 -2.10896 0
M  V30 11683 C 1058.32 -2.84536 -1.83915 0
M  V30 11684 C 1056.88 -2.92485 -2.36917 0
M  V30 11685 C 1056.03 -2.5173 -1.16308 0
M  V30 11686 H 1058.98 -1.57281 -0.211734 0
M  V30 11687 H 1059 -2.68672 -2.69435 0
M  V30 11688 H 1058.51 -3.69858 -1.17586 0
M  V30 11689 H 1056.61 -2.11608 -3.0668 0
M  V30 11690 H 1056.73 -3.96277 -2.6926 0
M  V30 11691 H 1055.09 -2.05079 -1.51045 0
M  V30 11692 H 1055.87 -3.39403 -0.515793 0
M  V30 11693 N 1058.32 0.686584 -1.41858 0
M  V30 11694 C 1059.57 1.44235 -1.40994 0
M  V30 11695 C 1059.88 1.95583 -0.0254979 0
M  V30 11696 O 1061.09 2.71294 0.10576 0
M  V30 11697 C 1059.54 2.6086 -2.47952 0
M  V30 11698 C 1059.15 2.16259 -3.92347 0
M  V30 11699 C 1060.9 3.38441 -2.56237 0
M  V30 11700 C 1058.8 3.29896 -4.90838 0
M  V30 11701 H 1057.73 0.54181 -0.524364 0
M  V30 11702 H 1060.38 0.744486 -1.67719 0
M  V30 11703 H 1058.77 3.32957 -2.14373 0
M  V30 11704 H 1059.94 1.51392 -4.35221 0
M  V30 11705 H 1058.25 1.51648 -3.87804 0
M  V30 11706 H 1060.85 4.23052 -3.27003 0
M  V30 11707 H 1061.19 3.84238 -1.6021 0
M  V30 11708 H 1061.73 2.73406 -2.88953 0
M  V30 11709 H 1058.47 2.89104 -5.88302 0
M  V30 11710 H 1057.99 3.93584 -4.52606 0
M  V30 11711 H 1059.67 3.95541 -5.12012 0
M  V30 11712 N 1059.8 1.27835 0.921735 0
M  V30 11713 C 1060.73 1.136 2.04003 0
M  V30 11714 C 1061.71 0.0358756 1.70062 0
M  V30 11715 O 1062.89 0.211438 1.93046 0
M  V30 11716 C 1060.02 0.788697 3.38226 0
M  V30 11717 C 1058.98 1.84272 3.863 0
M  V30 11718 C 1058.3 1.34923 5.17397 0
M  V30 11719 C 1059.6 3.24788 4.09035 0
M  V30 11720 H 1061.3 2.07149 2.1617 0
M  V30 11721 H 1058.84 0.997349 1.0387 0
M  V30 11722 H 1060.8 0.675911 4.15944 0
M  V30 11723 H 1059.52 -0.182499 3.2609 0
M  V30 11724 H 1058.18 1.94451 3.1078 0
M  V30 11725 H 1057.83 0.367328 5.01657 0
M  V30 11726 H 1057.53 2.05397 5.50532 0
M  V30 11727 H 1059.05 1.24951 5.97678 0
M  V30 11728 H 1060.47 3.17575 4.77304 0
M  V30 11729 H 1058.86 3.93025 4.53488 0
M  V30 11730 H 1059.93 3.69398 3.14122 0
M  V30 11731 N 1061.28 -1.12907 1.09954 0
M  V30 11732 C 1062.19 -2.22082 0.756095 0
M  V30 11733 C 1063.2 -1.72277 -0.244272 0
M  V30 11734 O 1064.38 -2.01224 -0.0842637 0
M  V30 11735 C 1061.44 -3.46192 0.187642 0
M  V30 11736 C 1060.5 -4.10861 1.24465 0
M  V30 11737 C 1059.74 -5.29047 0.703227 0
M  V30 11738 O 1059.96 -5.68443 -0.472043 0
M  V30 11739 O 1058.89 -5.83904 1.46082 0
M  V30 11740 H 1062.72 -2.53842 1.66727 0
M  V30 11741 H 1060.3 -1.21145 0.874316 0
M  V30 11742 H 1062.19 -4.21212 -0.125774 0
M  V30 11743 H 1060.86 -3.16119 -0.696459 0
M  V30 11744 H 1059.77 -3.37643 1.61085 0
M  V30 11745 H 1061.1 -4.45078 2.10159 0
M  V30 11746 N 1062.75 -0.88754 -1.30232 0
M  V30 11747 C 1063.98 -0.521562 -2.00735 0
M  V30 11748 C 1064.4 0.883247 -1.66073 0
M  V30 11749 O 1063.76 1.58581 -0.878731 0
M  V30 11750 C 1063.81 -0.706521 -3.53611 0
M  V30 11751 O 1062.91 0.246447 -4.11663 0
M  V30 11752 H 1062.25 -0.205216 -0.631492 0
M  V30 11753 H 1064.78 -1.19579 -1.66018 0
M  V30 11754 H 1064.79 -0.606501 -4.03467 0
M  V30 11755 H 1063.47 -1.73076 -3.78177 0
M  V30 11756 H 1062.05 0.0999062 -3.72766 0
M  V30 11757 N 1064.23 1.43628 -0.648757 0
M  V30 11758 C 1065.64 1.85142 -0.24066 0
M  V30 11759 C 1065.99 1.54304 1.21181 0
M  V30 11760 O 1065.12 0.989792 1.92437 0
M  V30 11761 C 1065.71 3.3606 -0.429999 0
M  V30 11762 C 1064.27 3.76323 -0.0762588 0
M  V30 11763 C 1063.42 2.67382 -0.734999 0
M  V30 11764 H 1066.37 1.33844 -0.852734 0
M  V30 11765 H 1066.39 3.79102 0.325836 0
M  V30 11766 H 1065.9 3.58474 -1.48721 0
M  V30 11767 H 1064.01 3.59521 0.978529 0
M  V30 11768 H 1064.12 4.76498 -0.498612 0
M  V30 11769 H 1062.48 2.54141 -0.168644 0
M  V30 11770 H 1063.27 2.92625 -1.79515 0
M  V30 11771 N 1065.71 0.390394 1.52688 0
M  V30 11772 C 1066.64 -0.43567 2.294 0
M  V30 11773 C 1067.62 -1.06253 1.32832 0
M  V30 11774 O 1068.81 -1.07509 1.61726 0
M  V30 11775 C 1065.94 -1.56259 3.10162 0
M  V30 11776 C 1064.89 -1.06172 4.14622 0
M  V30 11777 C 1064.22 -2.2808 4.83615 0
M  V30 11778 C 1065.52 -0.128902 5.22141 0
M  V30 11779 H 1067.21 0.204384 2.98702 0
M  V30 11780 H 1064.76 0.0997377 1.43654 0
M  V30 11781 H 1066.71 -2.14732 3.62585 0
M  V30 11782 H 1065.43 -2.23025 2.38595 0
M  V30 11783 H 1064.09 -0.499518 3.63181 0
M  V30 11784 H 1063.74 -2.93358 4.08595 0
M  V30 11785 H 1063.44 -1.95227 5.5422 0
M  V30 11786 H 1064.96 -2.87193 5.38844 0
M  V30 11787 H 1066.38 -0.621849 5.69917 0
M  V30 11788 H 1064.78 0.109919 5.99999 0
M  V30 11789 H 1065.85 0.821884 4.77884 0
M  V30 11790 N 1067.19 -1.57141 0.120249 0
M  V30 11791 C 1068.12 -2.12454 -0.859987 0
M  V30 11792 C 1069.13 -1.06755 -1.22911 0
M  V30 11793 O 1070.32 -1.34124 -1.17784 0
M  V30 11794 C 1067.42 -2.61024 -2.16147 0
M  V30 11795 C 1066.6 -3.90835 -1.96385 0
M  V30 11796 C 1065.65 -4.2499 -3.10274 0
M  V30 11797 O 1064.68 -4.93786 -2.83133 0
M  V30 11798 N 1065.88 -3.82411 -4.36741 0
M  V30 11799 H 1068.65 -2.97186 -0.387402 0
M  V30 11800 H 1066.21 -1.61773 -0.0641376 0
M  V30 11801 H 1068.2 -2.80903 -2.91334 0
M  V30 11802 H 1066.77 -1.81166 -2.5475 0
M  V30 11803 H 1065.99 -3.79853 -1.05383 0
M  V30 11804 H 1067.28 -4.75712 -1.80487 0
M  V30 11805 H 1066.68 -3.26926 -4.61666 0
M  V30 11806 H 1065.23 -4.07395 -5.08795 0
M  V30 11807 N 1068.67 0.153526 -1.5685 0
M  V30 11808 C 1070.08 0.505939 -1.51368 0
M  V30 11809 C 1070.28 1.83721 -0.82757 0
M  V30 11810 O 1069.34 2.49385 -0.395364 0
M  V30 11811 C 1070.65 0.522269 -2.9613 0
M  V30 11812 C 1072.2 0.608238 -3.07033 0
M  V30 11813 C 1072.67 0.655292 -4.53288 0
M  V30 11814 N 1074.17 0.717695 -4.57606 0
M  V30 11815 C 1074.9 0.774977 -5.68139 0
M  V30 11816 N 1074.4 0.792003 -6.88258 0
M  V30 11817 N 1076.19 0.81536 -5.56155 0
M  V30 11818 H 1068.34 -0.71919 -1.99853 0
M  V30 11819 H 1070.6 -0.261466 -0.91123 0
M  V30 11820 H 1070.31 -0.387595 -3.49558 0
M  V30 11821 H 1070.18 1.3625 -3.51733 0
M  V30 11822 H 1072.57 1.50852 -2.53629 0
M  V30 11823 H 1072.65 -0.259014 -2.54485 0
M  V30 11824 H 1072.3 -0.240809 -5.07329 0
M  V30 11825 H 1072.23 1.53894 -5.03611 0
M  V30 11826 H 1074.72 0.7121 -3.7113 0
M  V30 11827 H 1075.03 0.837378 -7.6825 0
M  V30 11828 H 1073.37 0.759986 -6.90832 0
M  V30 11829 H 1076.57 0.799183 -4.61227 0
M  V30 11830 H 1076.74 0.856537 -6.42314 0
M  V30 11831 N 1070.14 1.51827 0.422667 0
M  V30 11832 C 1071.37 1.69049 1.1929 0
M  V30 11833 C 1071.79 0.394095 1.84641 0
M  V30 11834 O 1071.14 -0.628731 1.71328 0
M  V30 11835 C 1071.2 2.81657 2.26609 0
M  V30 11836 O 1070.92 4.06275 1.63929 0
M  V30 11837 C 1072.42 3.10274 3.16615 0
M  V30 11838 H 1069.64 0.566894 0.358988 0
M  V30 11839 H 1072.18 1.98318 0.499029 0
M  V30 11840 H 1070.34 2.54945 2.91688 0
M  V30 11841 H 1070.75 4.68924 2.3497 0
M  V30 11842 H 1072.22 3.92613 3.88019 0
M  V30 11843 H 1072.7 2.23273 3.78214 0
M  V30 11844 H 1073.31 3.387 2.57221 0
M  V30 11845 N 1071.62 -0.679052 1.4222 0
M  V30 11846 C 1072.85 -1.47248 1.46058 0
M  V30 11847 C 1073.27 -1.87962 0.0720987 0
M  V30 11848 O 1072.63 -1.5572 -0.928488 0
M  V30 11849 C 1072.68 -2.70067 2.38948 0
M  V30 11850 O 1071.78 -3.68178 1.85791 0
M  V30 11851 H 1071.12 -0.442533 0.495036 0
M  V30 11852 H 1073.65 -0.833263 1.86863 0
M  V30 11853 H 1073.66 -3.18187 2.55385 0
M  V30 11854 H 1072.34 -2.39773 3.39826 0
M  V30 11855 H 1070.92 -3.2719 1.78889 0
M  V30 11856 N 1073.1 -1.28322 -0.914942 0
M  V30 11857 C 1074.33 -1.1837 -1.70304 0
M  V30 11858 C 1074.75 0.254291 -1.86373 0
M  V30 11859 O 1074.11 1.18398 -1.37301 0
M  V30 11860 C 1074.16 -1.88603 -3.07346 0
M  V30 11861 O 1073.26 -1.19268 -3.94777 0
M  V30 11862 H 1072.6 -0.410978 -0.52153 0
M  V30 11863 H 1075.13 -1.69622 -1.14409 0
M  V30 11864 H 1075.14 -1.96463 -3.57584 0
M  V30 11865 H 1073.82 -2.93201 -2.94967 0
M  V30 11866 H 1072.39 -1.19563 -3.53212 0
M  V30 11867 N 1074.58 1.12322 -1.10551 0
M  V30 11868 C 1075.83 1.83495 -0.846998 0
M  V30 11869 C 1076.15 1.8457 0.629205 0
M  V30 11870 O 1075.42 1.30968 1.45686 0
M  V30 11871 H 1074 0.679479 -0.310351 0
M  V30 11872 H 1076.66 1.36004 -1.39602 0
M  V30 11873 H 1075.76 2.87651 -1.21092 0
M  V30 11874 N 1076.06 0.894434 1.2976 0
M  V30 11875 C 1077.28 0.5322 2.00455 0
M  V30 11876 C 1077.71 -0.874427 1.66539 0
M  V30 11877 O 1077.06 -1.58113 0.887129 0
M  V30 11878 C 1077.11 0.725264 3.53231 0
M  V30 11879 O 1076.22 -0.224612 4.11788 0
M  V30 11880 H 1075.56 0.208562 0.630395 0
M  V30 11881 H 1078.09 1.20458 1.65382 0
M  V30 11882 H 1078.1 0.627889 4.0314 0
M  V30 11883 H 1076.77 1.75079 3.77253 0
M  V30 11884 H 1075.35 -0.0801361 3.72814 0
M  V30 11885 N 1077.53 -1.43282 0.656365 0
M  V30 11886 C 1078.76 -2.06641 0.177245 0
M  V30 11887 C 1079.18 -1.48893 -1.14946 0
M  V30 11888 O 1078.54 -0.600099 -1.7108 0
M  V30 11889 C 1078.59 -3.60453 0.10299 0
M  V30 11890 O 1077.69 -4.01687 -0.933895 0
M  V30 11891 H 1077.04 -0.656978 0.096314 0
M  V30 11892 H 1079.57 -1.83733 0.900178 0
M  V30 11893 H 1079.58 -4.07923 -0.079291 0
M  V30 11894 H 1078.25 -4.01861 1.07147 0
M  V30 11895 H 1076.83 -3.65801 -0.724148 0
M  V30 11896 N 1079.01 -0.398486 -1.52479 0
M  V30 11897 C 1080.24 0.183059 -2.06591 0
M  V30 11898 C 1080.66 1.3898 -1.26753 0
M  V30 11899 O 1080.02 1.78885 -0.294959 0
M  V30 11900 C 1080.07 0.522392 -3.56796 0
M  V30 11901 O 1079.17 1.61499 -3.79462 0
M  V30 11902 H 1078.51 0.0188411 -0.663733 0
M  V30 11903 H 1081.04 -0.56861 -1.9654 0
M  V30 11904 H 1081.05 0.784078 -4.00395 0
M  V30 11905 H 1079.73 -0.359807 -4.14341 0
M  V30 11906 H 1078.31 1.3463 -3.47749 0
M  V30 11907 N 1080.49 1.57075 -0.12858 0
M  V30 11908 C 1081.72 2.00305 0.537839 0
M  V30 11909 C 1082.14 1.00787 1.58819 0
M  V30 11910 O 1081.5 -0.0190839 1.8129 0
M  V30 11911 C 1081.55 3.42371 1.13201 0
M  V30 11912 O 1080.65 3.45786 2.24735 0
M  V30 11913 H 1079.99 0.650456 0.133428 0
M  V30 11914 H 1082.52 2.03415 -0.219882 0
M  V30 11915 H 1082.53 3.80783 1.4652 0
M  V30 11916 H 1081.21 4.14315 0.362713 0
M  V30 11917 H 1079.78 3.19201 1.92783 0
M  V30 11918 N 1081.97 -0.145205 1.5693 0
M  V30 11919 C 1083.19 -0.876386 1.87974 0
M  V30 11920 C 1083.62 -1.73866 0.717795 0
M  V30 11921 O 1082.98 -1.78224 -0.332551 0
M  V30 11922 C 1083.03 -1.70746 3.17613 0
M  V30 11923 O 1082.13 -2.81188 3.01674 0
M  V30 11924 H 1081.47 -0.243987 0.617549 0
M  V30 11925 H 1084 -0.135482 2.04151 0
M  V30 11926 H 1084.01 -2.1021 3.49679 0
M  V30 11927 H 1082.69 -1.07429 4.01786 0
M  V30 11928 H 1081.26 -2.45117 2.81019 0
M  V30 11929 N 1083.45 -1.52049 -0.414609 0
M  V30 11930 C 1084.67 -1.6997 -1.18848 0
M  V30 11931 C 1085.1 -0.406058 -1.83665 0
M  V30 11932 O 1084.46 0.635981 -1.69779 0
M  V30 11933 C 1084.5 -2.8327 -2.23138 0
M  V30 11934 O 1083.61 -2.48457 -3.29155 0
M  V30 11935 H 1082.95 -0.566003 -0.347183 0
M  V30 11936 H 1085.48 -1.98726 -0.486757 0
M  V30 11937 H 1085.49 -3.08022 -2.67557 0
M  V30 11938 H 1084.16 -3.7713 -1.75344 0
M  V30 11939 H 1082.74 -2.34357 -2.90054 0
M  V30 11940 N 1084.93 0.6715 -1.42579 0
M  V30 11941 C 1086.15 1.45972 -1.46628 0
M  V30 11942 C 1086.57 1.88636 -0.0785986 0
M  V30 11943 O 1085.93 1.58345 0.907372 0
M  V30 11944 C 1085.98 2.70668 -2.39627 0
M  V30 11945 O 1085.7 2.29793 -3.72997 0
M  V30 11946 C 1087.2 3.64201 -2.52731 0
M  V30 11947 H 1084.42 0.449044 -0.498598 0
M  V30 11948 H 1086.96 0.824811 -1.87129 0
M  V30 11949 H 1085.12 3.3034 -2.02371 0
M  V30 11950 H 1085.53 3.10341 -4.22834 0
M  V30 11951 H 1087.01 4.48412 -3.21918 0
M  V30 11952 H 1087.48 4.10323 -1.56626 0
M  V30 11953 H 1088.09 3.1042 -2.90722 0
M  V30 11954 N 1086.4 1.28806 0.908124 0
M  V30 11955 C 1087.81 1.14719 1.47297 0
M  V30 11956 C 1088.17 -0.260763 1.94459 0
M  V30 11957 O 1087.29 -1.15553 1.82966 0
M  V30 11958 C 1087.89 2.07643 2.67712 0
M  V30 11959 C 1086.44 1.97605 3.20358 0
M  V30 11960 C 1085.59 1.99058 1.93058 0
M  V30 11961 H 1088.54 1.41413 0.720283 0
M  V30 11962 H 1088.56 1.64372 3.43165 0
M  V30 11963 H 1088.08 3.10108 2.33355 0
M  V30 11964 H 1086.18 0.981982 3.59427 0
M  V30 11965 H 1086.29 2.84846 3.85226 0
M  V30 11966 H 1084.65 1.43541 2.104 0
M  V30 11967 H 1085.44 3.03212 1.60989 0
M  V30 11968 N 1087.88 -1.11734 1.11145 0
M  V30 11969 C 1089.11 -1.87755 0.881062 0
M  V30 11970 C 1089.53 -1.79461 -0.563496 0
M  V30 11971 O 1088.89 -1.15481 -1.39763 0
M  V30 11972 C 1088.94 -3.34641 1.34342 0
M  V30 11973 O 1088.04 -4.09195 0.513157 0
M  V30 11974 H 1087.38 -0.583111 0.317613 0
M  V30 11975 H 1089.91 -1.41256 1.48013 0
M  V30 11976 H 1089.92 -3.85486 1.33658 0
M  V30 11977 H 1088.6 -3.39994 2.39534 0
M  V30 11978 H 1087.17 -3.68269 0.585833 0
M  V30 11979 N 1089.36 -0.901303 -1.29284 0
M  V30 11980 C 1090.58 -0.542823 -2.0017 0
M  V30 11981 C 1091.01 0.865583 -1.67001 0
M  V30 11982 O 1090.37 1.5764 -0.895502 0
M  V30 11983 C 1090.42 -0.743987 -3.52842 0
M  V30 11984 O 1089.52 0.202771 -4.11901 0
M  V30 11985 H 1088.86 -0.211903 -0.62928 0
M  V30 11986 H 1091.39 -1.21333 -1.64741 0
M  V30 11987 H 1091.4 -0.64926 -4.02801 0
M  V30 11988 H 1090.08 -1.77077 -3.7632 0
M  V30 11989 H 1088.65 0.0603637 -3.72851 0
M  V30 11990 N 1090.84 1.42931 -0.663954 0
M  V30 11991 C 1091.77 2.29122 0.0598878 0
M  V30 11992 C 1092.78 1.43094 0.776404 0
M  V30 11993 O 1093.97 1.66923 0.63237 0
M  V30 11994 C 1091.07 3.20268 1.10822 0
M  V30 11995 C 1090.24 4.34892 0.4677 0
M  V30 11996 C 1089.3 5.06836 1.41435 0
M  V30 11997 O 1088.33 5.61735 0.918818 0
M  V30 11998 N 1089.53 5.11336 2.74801 0
M  V30 11999 H 1092.3 2.91885 -0.679945 0
M  V30 12000 H 1089.86 1.53739 -0.507543 0
M  V30 12001 H 1091.85 3.65264 1.74255 0
M  V30 12002 H 1090.42 2.59031 1.7499 0
M  V30 12003 H 1089.64 3.92679 -0.34593 0
M  V30 12004 H 1090.93 5.08796 0.0210237 0
M  V30 12005 H 1090.33 4.68124 3.1761 0
M  V30 12006 H 1088.88 5.60013 3.33509 0
M  V30 12007 N 1092.32 0.406567 1.52266 0
M  V30 12008 C 1093.73 -0.063607 1.86592 0
M  V30 12009 C 1094.08 -1.4466 1.32544 0
M  V30 12010 O 1093.2 -2.05971 0.663692 0
M  V30 12011 C 1093.8 -0.122198 3.3858 0
M  V30 12012 C 1092.36 -0.536701 3.72554 0
M  V30 12013 C 1091.5 0.290422 2.75775 0
M  V30 12014 H 1094.45 0.623738 1.45929 0
M  V30 12015 H 1094.48 -0.937964 3.68758 0
M  V30 12016 H 1093.99 0.884495 3.77887 0
M  V30 12017 H 1092.09 -1.55013 3.38824 0
M  V30 12018 H 1092.2 -0.282867 4.78264 0
M  V30 12019 H 1090.57 -0.246864 2.53501 0
M  V30 12020 H 1091.35 1.29541 3.17921 0
M  V30 12021 N 1093.79 -1.57004 0.136909 0
M  V30 12022 C 1095.02 -2.00587 -0.527209 0
M  V30 12023 C 1095.44 -1.01628 -1.58283 0
M  V30 12024 O 1094.8 0.00946934 -1.81298 0
M  V30 12025 C 1094.85 -3.42967 -1.11384 0
M  V30 12026 O 1093.95 -3.46973 -2.22898 0
M  V30 12027 H 1093.3 -0.651155 -0.129976 0
M  V30 12028 H 1095.83 -2.03296 0.230667 0
M  V30 12029 H 1095.84 -3.81555 -1.44499 0
M  V30 12030 H 1094.51 -4.14502 -0.340736 0
M  V30 12031 H 1093.09 -3.20219 -1.91087 0
M  V30 12032 N 1095.27 0.136881 -1.57004 0
M  V30 12033 C 1096.5 0.866405 -1.88436 0
M  V30 12034 C 1096.92 1.73483 -0.727006 0
M  V30 12035 O 1096.28 1.78398 0.323094 0
M  V30 12036 C 1096.33 1.69059 -3.18514 0
M  V30 12037 O 1095.43 2.79584 -3.03161 0
M  V30 12038 H 1094.77 0.240709 -0.618834 0
M  V30 12039 H 1097.3 0.124653 -2.0422 0
M  V30 12040 H 1097.31 2.08353 -3.50789 0
M  V30 12041 H 1095.99 1.05296 -4.0235 0
M  V30 12042 H 1094.57 2.43623 -2.82315 0
M  V30 12043 N 1096.75 1.52266 0.40654 0
M  V30 12044 C 1097.68 1.72025 1.51459 0
M  V30 12045 C 1098.7 0.600667 1.51314 0
M  V30 12046 O 1099.88 0.875894 1.55532 0
M  V30 12047 C 1096.98 1.7479 2.90348 0
M  V30 12048 C 1096.16 3.03826 3.14656 0
M  V30 12049 C 1095.22 2.98369 4.33431 0
M  V30 12050 O 1094.24 3.7227 4.30586 0
M  V30 12051 N 1095.44 2.16338 5.38682 0
M  V30 12052 H 1098.21 2.67622 1.34903 0
M  V30 12053 H 1095.77 1.50536 0.595867 0
M  V30 12054 H 1097.76 1.68667 3.67877 0
M  V30 12055 H 1096.33 0.86656 3.00349 0
M  V30 12056 H 1095.55 3.23577 2.25148 0
M  V30 12057 H 1096.84 3.89182 3.27742 0
M  V30 12058 H 1096.24 1.55731 5.43842 0
M  V30 12059 H 1094.8 2.1607 6.14945 0
M  V30 12060 N 1098.23 -0.663929 1.42933 0
M  V30 12061 C 1099.48 -1.42111 1.43697 0
M  V30 12062 C 1099.8 -1.94913 0.0583858 0
M  V30 12063 O 1099.07 -1.73757 -0.904719 0
M  V30 12064 H 1097.65 -0.527391 0.529026 0
M  V30 12065 H 1100.31 -0.783766 1.78446 0
M  V30 12066 H 1099.41 -2.26877 2.1432 0
M  V30 12067 N 1099.71 -1.29285 -0.901281 0
M  V30 12068 C 1100.95 -1.16934 -1.64836 0
M  V30 12069 C 1101.28 0.279826 -1.92982 0
M  V30 12070 O 1100.55 1.19179 -1.55478 0
M  V30 12071 H 1099.13 -0.429768 -0.61099 0
M  V30 12072 H 1101.79 -1.62189 -1.08077 0
M  V30 12073 H 1100.88 -1.71821 -2.60545 0
M  V30 12074 N 1101.18 1.11143 -1.11736 0
M  V30 12075 C 1102.41 1.87285 -0.891007 0
M  V30 12076 C 1102.83 1.79758 0.553971 0
M  V30 12077 O 1102.19 1.16221 1.39149 0
M  V30 12078 C 1102.24 3.33924 -1.36114 0
M  V30 12079 O 1101.34 4.08917 -0.534851 0
M  V30 12080 H 1100.69 0.581418 -0.320701 0
M  V30 12081 H 1103.22 1.40469 -1.4876 0
M  V30 12082 H 1103.23 3.84772 -1.35701 0
M  V30 12083 H 1101.9 3.38719 -2.41334 0
M  V30 12084 H 1100.48 3.67954 -0.605355 0
M  V30 12085 N 1102.66 0.908147 1.28804 0
M  V30 12086 C 1103.59 0.34957 2.26519 0
M  V30 12087 C 1104.61 -0.508845 1.54643 0
M  V30 12088 O 1105.8 -0.324633 1.75523 0
M  V30 12089 C 1102.9 -0.519461 3.34895 0
M  V30 12090 C 1102.07 0.315157 4.36263 0
M  V30 12091 C 1101.13 -0.488059 5.23932 0
M  V30 12092 O 1100.15 0.0974133 5.69117 0
M  V30 12093 N 1101.36 -1.79233 5.52137 0
M  V30 12094 H 1104.12 1.18945 2.75086 0
M  V30 12095 H 1101.68 0.77351 1.42227 0
M  V30 12096 H 1103.67 -1.0634 3.90479 0
M  V30 12097 H 1102.24 -1.26004 2.8608 0
M  V30 12098 H 1101.46 1.04049 3.8022 0
M  V30 12099 H 1102.75 0.886438 5.01019 0
M  V30 12100 H 1102.15 -2.2906 5.1725 0
M  V30 12101 H 1100.71 -2.28322 6.10502 0
M  V30 12102 N 1104.14 -1.42577 0.671525 0
M  V30 12103 C 1105.55 -1.84736 0.270084 0
M  V30 12104 C 1105.9 -1.56212 -1.18711 0
M  V30 12105 O 1105.03 -1.02028 -1.90838 0
M  V30 12106 C 1105.62 -3.35334 0.483409 0
M  V30 12107 C 1104.18 -3.76154 0.136119 0
M  V30 12108 C 1103.33 -2.66179 0.777444 0
M  V30 12109 H 1106.28 -1.3247 0.873919 0
M  V30 12110 H 1106.3 -3.79573 -0.265483 0
M  V30 12111 H 1105.81 -3.56063 1.54405 0
M  V30 12112 H 1103.91 -3.61033 -0.921209 0
M  V30 12113 H 1104.03 -4.75645 0.574356 0
M  V30 12114 H 1102.39 -2.53841 0.209055 0
M  V30 12115 H 1103.17 -2.89732 1.84148 0
M  V30 12116 N 1105.62 -0.414636 -1.52048 0
M  V30 12117 C 1106.87 0.159034 -2.01473 0
M  V30 12118 C 1107.19 1.45176 -1.30188 0
M  V30 12119 O 1106.46 1.91134 -0.429469 0
M  V30 12120 H 1105.04 0.0617604 -0.744443 0
M  V30 12121 H 1107.7 -0.552141 -1.86916 0
M  V30 12122 H 1106.8 0.351217 -3.10118 0
M  V30 12123 N 1107.1 1.56929 -0.145233 0
M  V30 12124 C 1108.32 2.00864 0.516564 0
M  V30 12125 C 1108.75 1.02466 1.57741 0
M  V30 12126 O 1108.1 0.000145439 1.813 0
M  V30 12127 C 1108.15 3.43552 1.09563 0
M  V30 12128 O 1107.26 3.4815 2.21055 0
M  V30 12129 H 1106.6 0.651835 0.126521 0
M  V30 12130 H 1109.13 2.0317 -0.241445 0
M  V30 12131 H 1109.14 3.82316 1.42473 0
M  V30 12132 H 1107.81 4.14677 0.318749 0
M  V30 12133 H 1106.39 3.21228 1.89387 0
M  V30 12134 N 1108.58 -0.128553 1.57075 0
M  V30 12135 C 1109.51 -1.18362 1.96273 0
M  V30 12136 C 1110.52 -1.3818 0.860818 0
M  V30 12137 O 1111.71 -1.37424 1.13916 0
M  V30 12138 C 1108.81 -2.54533 2.23755 0
M  V30 12139 C 1107.98 -2.55446 3.55058 0
M  V30 12140 C 1107.04 -3.73291 3.70864 0
M  V30 12141 O 1106.07 -3.57315 4.43074 0
M  V30 12142 N 1107.27 -4.91481 3.08912 0
M  V30 12143 H 1110.03 -0.850276 2.87385 0
M  V30 12144 H 1107.6 -0.317931 1.58748 0
M  V30 12145 H 1109.59 -3.31912 2.31553 0
M  V30 12146 H 1108.16 -2.80087 1.38816 0
M  V30 12147 H 1107.38 -1.6385 3.58534 0
M  V30 12148 H 1108.67 -2.53104 4.4138 0
M  V30 12149 H 1108.06 -5.07364 2.50196 0
M  V30 12150 H 1106.62 -5.6657 3.22245 0
M  V30 12151 N 1110.05 -1.5248 -0.398459 0
M  V30 12152 C 1111.02 -1.75949 -1.46883 0
M  V30 12153 C 1112.02 -0.629431 -1.47969 0
M  V30 12154 O 1113.21 -0.897407 -1.49306 0
M  V30 12155 C 1110.34 -1.85162 -2.8623 0
M  V30 12156 H 1111.53 -2.71513 -1.2736 0
M  V30 12157 H 1109.08 -1.43058 -0.629619 0
M  V30 12158 H 1109.82 -0.915505 -3.11109 0
M  V30 12159 H 1109.6 -2.67326 -2.86844 0
M  V30 12160 H 1111.09 -2.05025 -3.63805 0
M  V30 12161 N 1111.53 0.65634 -1.43283 0
M  V30 12162 C 1112.78 1.41347 -1.44449 0
M  V30 12163 C 1113.1 1.94879 -0.0687217 0
M  V30 12164 O 1112.37 1.74235 0.895492 0
M  V30 12165 H 1110.95 0.524578 -0.531815 0
M  V30 12166 H 1113.61 0.774292 -1.7886 0
M  V30 12167 H 1112.71 2.25737 -2.15521 0
M  V30 12168 N 1113.01 1.29761 0.894412 0
M  V30 12169 C 1114.23 1.21064 1.68399 0
M  V30 12170 C 1114.66 -0.224608 1.86754 0
M  V30 12171 O 1114.02 -1.16199 1.39167 0
M  V30 12172 C 1114.07 1.93468 3.04306 0
M  V30 12173 O 1113.17 1.25533 3.9283 0
M  V30 12174 H 1112.51 0.419223 0.514925 0
M  V30 12175 H 1115.04 1.71421 1.11696 0
M  V30 12176 H 1115.05 2.02127 3.54413 0
M  V30 12177 H 1113.73 2.97857 2.90265 0
M  V30 12178 H 1112.3 1.25168 3.51266 0
M  V30 12179 N 1114.49 -1.10549 1.12324 0
M  V30 12180 C 1115.71 -1.8681 0.900927 0
M  V30 12181 C 1116.14 -1.80049 -0.54443 0
M  V30 12182 O 1115.5 -1.16957 -1.38531 0
M  V30 12183 C 1115.54 -3.33197 1.37883 0
M  V30 12184 O 1114.65 -4.08628 0.556529 0
M  V30 12185 H 1113.99 -0.579709 0.32378 0
M  V30 12186 H 1116.52 -1.39678 1.49503 0
M  V30 12187 H 1116.53 -3.84047 1.37739 0
M  V30 12188 H 1115.2 -3.37435 2.43127 0
M  V30 12189 H 1113.78 -3.67627 0.62486 0
M  V30 12190 N 1115.97 -0.914965 -1.28321 0
M  V30 12191 C 1116.88 -0.409424 -2.31 0
M  V30 12192 C 1117.89 0.503526 -1.66555 0
M  V30 12193 O 1119.07 0.38942 -1.97599 0
M  V30 12194 C 1116.13 0.34123 -3.45017 0
M  V30 12195 C 1115.19 -0.605087 -4.25014 0
M  V30 12196 C 1114.43 0.109837 -5.33587 0
M  V30 12197 O 1114.65 1.33136 -5.54645 0
M  V30 12198 O 1113.58 -0.555474 -5.99331 0
M  V30 12199 H 1117.41 -1.26167 -2.76253 0
M  V30 12200 H 1114.99 -0.679831 -1.33036 0
M  V30 12201 H 1116.88 0.765132 -4.14396 0
M  V30 12202 H 1115.55 1.16929 -3.01843 0
M  V30 12203 H 1114.46 -1.07841 -3.58219 0
M  V30 12204 H 1115.79 -1.39999 -4.7187 0
M  V30 12205 N 1117.44 1.42219 -0.679077 0
M  V30 12206 C 1118.86 1.55737 -0.349034 0
M  V30 12207 C 1119.06 1.65789 1.14527 0
M  V30 12208 O 1118.12 1.62717 1.93079 0
M  V30 12209 C 1119.43 2.80516 -1.0831 0
M  V30 12210 C 1120.98 2.94294 -1.06584 0
M  V30 12211 C 1121.45 4.2194 -1.78132 0
M  V30 12212 N 1122.94 4.28861 -1.75021 0
M  V30 12213 C 1123.68 5.26453 -2.27234 0
M  V30 12214 N 1123.17 6.30171 -2.87847 0
M  V30 12215 N 1124.97 5.1828 -2.17584 0
M  V30 12216 H 1117.12 1.33939 -1.64846 0
M  V30 12217 H 1119.38 0.645029 -0.694725 0
M  V30 12218 H 1119.09 2.79241 -2.13816 0
M  V30 12219 H 1118.96 3.71539 -0.651069 0
M  V30 12220 H 1121.35 2.95094 -0.0191061 0
M  V30 12221 H 1121.43 2.04491 -1.53679 0
M  V30 12222 H 1121.07 4.21901 -2.82776 0
M  V30 12223 H 1121 5.10685 -1.28483 0
M  V30 12224 H 1123.49 3.54537 -1.30814 0
M  V30 12225 H 1123.81 7.01 -3.25298 0
M  V30 12226 H 1122.15 6.30721 -2.91918 0
M  V30 12227 H 1125.34 4.36172 -1.69916 0
M  V30 12228 H 1125.52 5.94172 -2.58581 0
M  V30 12229 N 1118.92 0.422693 1.51826 0
M  V30 12230 C 1120.15 -0.147744 2.06372 0
M  V30 12231 C 1120.56 -1.37714 1.29152 0
M  V30 12232 O 1119.92 -1.7917 0.347046 0
M  V30 12233 C 1119.97 -0.484642 3.58237 0
M  V30 12234 O 1119.69 0.695944 4.32537 0
M  V30 12235 C 1121.19 -1.10734 4.29247 0
M  V30 12236 H 1118.41 -0.0144047 0.670845 0
M  V30 12237 H 1120.96 0.597558 1.95575 0
M  V30 12238 H 1119.11 -1.17984 3.68997 0
M  V30 12239 H 1119.53 0.411471 5.22884 0
M  V30 12240 H 1121 -1.29318 5.36639 0
M  V30 12241 H 1121.48 -2.08429 3.86593 0
M  V30 12242 H 1122.08 -0.451958 4.22892 0
M  V30 12243 N 1120.4 -1.5685 0.153553 0
M  V30 12244 C 1121.82 -1.58306 -0.202801 0
M  V30 12245 C 1122.02 -1.16813 -1.64186 0
M  V30 12246 O 1121.07 -0.871468 -2.36985 0
M  V30 12247 C 1122.38 -3.00636 0.0619012 0
M  V30 12248 C 1123.93 -3.13 -0.00129219 0
M  V30 12249 C 1124.41 -4.57391 0.236164 0
M  V30 12250 N 1125.9 -4.62837 0.18332 0
M  V30 12251 C 1126.63 -5.72382 0.341471 0
M  V30 12252 N 1126.13 -6.90552 0.557704 0
M  V30 12253 N 1127.92 -5.61409 0.278615 0
M  V30 12254 H 1120.07 -1.82113 1.09309 0
M  V30 12255 H 1122.34 -0.843228 0.433209 0
M  V30 12256 H 1122.04 -3.35406 1.0581 0
M  V30 12257 H 1121.92 -3.71477 -0.654555 0
M  V30 12258 H 1124.3 -2.78068 -0.98805 0
M  V30 12259 H 1124.38 -2.44632 0.747596 0
M  V30 12260 H 1124.03 -4.93029 1.22005 0
M  V30 12261 H 1123.96 -5.23894 -0.533125 0
M  V30 12262 H 1126.45 -3.77894 0.0211138 0
M  V30 12263 H 1126.76 -7.69905 0.66831 0
M  V30 12264 H 1125.11 -6.92456 0.594105 0
M  V30 12265 H 1128.3 -4.6797 0.110401 0
M  V30 12266 H 1128.47 -6.46731 0.4053 0
M  V30 12267 N 1121.88 0.120221 -1.57141 0
M  V30 12268 C 1123.12 0.829449 -1.85062 0
M  V30 12269 C 1123.46 1.79585 -0.739116 0
M  V30 12270 O 1122.73 1.92819 0.255147 0
M  V30 12271 C 1123.01 1.58042 -3.23566 0
M  V30 12272 C 1122.87 0.633706 -4.45314 0
M  V30 12273 C 1124.19 2.53688 -3.59625 0
M  V30 12274 H 1121.31 0.300086 -0.67314 0
M  V30 12275 H 1123.95 0.0937393 -1.89769 0
M  V30 12276 H 1122.1 2.20758 -3.19684 0
M  V30 12277 H 1123.77 0.0154836 -4.61297 0
M  V30 12278 H 1122.01 -0.054846 -4.33765 0
M  V30 12279 H 1122.68 1.19577 -5.38893 0
M  V30 12280 H 1125.16 2.01078 -3.6429 0
M  V30 12281 H 1124.04 3.03265 -4.57516 0
M  V30 12282 H 1124.3 3.36296 -2.8698 0
M  V30 12283 N 1123.36 1.52689 0.390367 0
M  V30 12284 C 1124.77 1.41909 0.730338 0
M  V30 12285 C 1124.97 0.538427 1.94173 0
M  V30 12286 O 1124.03 0.0113527 2.52497 0
M  V30 12287 C 1125.34 2.84737 0.966714 0
M  V30 12288 C 1126.89 2.94206 1.06827 0
M  V30 12289 C 1127.36 4.38042 1.33728 0
M  V30 12290 N 1128.86 4.4136 1.40553 0
M  V30 12291 C 1129.59 5.49735 1.63031 0
M  V30 12292 N 1129.09 6.68197 1.82988 0
M  V30 12293 N 1130.88 5.37276 1.65199 0
M  V30 12294 H 1123.03 2.08469 -0.406766 0
M  V30 12295 H 1125.29 0.940401 -0.11979 0
M  V30 12296 H 1125 3.51385 0.148725 0
M  V30 12297 H 1124.87 3.26909 1.88176 0
M  V30 12298 H 1127.26 2.27726 1.87683 0
M  V30 12299 H 1127.34 2.55463 0.131168 0
M  V30 12300 H 1126.99 5.05087 0.533832 0
M  V30 12301 H 1126.92 4.74336 2.28721 0
M  V30 12302 H 1129.41 3.55976 1.26844 0
M  V30 12303 H 1129.72 7.46567 1.99643 0
M  V30 12304 H 1128.06 6.71228 1.80215 0
M  V30 12305 H 1131.26 4.437 1.49158 0
M  V30 12306 H 1131.43 6.21806 1.82377 0
M  V30 12307 N 1124.83 -0.648732 1.43629 0
M  V30 12308 C 1125.8 -1.74331 1.488 0
M  V30 12309 C 1126.8 -1.56434 0.372147 0
M  V30 12310 O 1127.99 -1.6225 0.634078 0
M  V30 12311 C 1125.12 -3.13248 1.34494 0
M  V30 12312 H 1126.31 -1.71125 2.46285 0
M  V30 12313 H 1123.87 -0.860798 1.30461 0
M  V30 12314 H 1124.6 -3.22062 0.380345 0
M  V30 12315 H 1124.39 -3.27643 2.15389 0
M  V30 12316 H 1125.88 -3.93056 1.41055 0
M  V30 12317 N 1126.31 -1.30234 -0.887518 0
M  V30 12318 C 1127.26 -1.16302 -2.01436 0
M  V30 12319 C 1128.25 -0.0755422 -1.69231 0
M  V30 12320 O 1129.46 -0.236213 -1.78443 0
M  V30 12321 H 1125.84 -0.35961 -0.660443 0
M  V30 12322 H 1127.81 -2.11677 -2.10322 0
M  V30 12323 C 1126.56 -0.869009 -3.36665 0
M  V30 12324 H 1125.88 -1.69787 -3.61956 0
M  V30 12325 H 1127.32 -0.811621 -4.16159 0
M  V30 12326 C 1125.78 0.428021 -3.3417 0
M  V30 12327 O 1126.31 1.45033 -3.74604 0
M  V30 12328 N 1124.51 0.438264 -2.87276 0
M  V30 12329 H 1124.06 -0.394142 -2.54567 0
M  V30 12330 H 1124.02 1.30604 -2.85989 0
M  V30 12331 N 1127.79 1.09952 -1.12909 0
M  V30 12332 C 1129.02 1.8633 -0.910821 0
M  V30 12333 C 1129.44 1.80335 0.534874 0
M  V30 12334 O 1128.8 1.1769 1.37908 0
M  V30 12335 C 1128.85 3.32462 -1.39648 0
M  V30 12336 O 1127.95 4.08327 -0.578192 0
M  V30 12337 H 1127.29 0.577984 -0.32685 0
M  V30 12338 H 1129.82 1.38883 -1.50242 0
M  V30 12339 H 1129.83 3.83311 -1.39774 0
M  V30 12340 H 1128.51 3.36141 -2.44913 0
M  V30 12341 H 1127.08 3.67291 -0.644347 0
M  V30 12342 N 1129.27 0.921757 1.27833 0
M  V30 12343 C 1130.22 0.414838 2.27041 0
M  V30 12344 C 1131.19 -0.515045 1.57913 0
M  V30 12345 O 1132.37 -0.435499 1.85763 0
M  V30 12346 C 1129.51 -0.331744 3.43502 0
M  V30 12347 C 1128.62 0.631565 4.27358 0
M  V30 12348 C 1127.76 -0.134265 5.3103 0
M  V30 12349 C 1126.8 0.822138 6.06554 0
M  V30 12350 N 1125.93 0.0893149 7.02043 0
M  V30 12351 H 1130.77 1.26585 2.69778 0
M  V30 12352 H 1128.31 0.635488 1.32665 0
M  V30 12353 H 1130.27 -0.780866 4.09827 0
M  V30 12354 H 1128.9 -1.14704 3.01733 0
M  V30 12355 H 1127.95 1.19922 3.61003 0
M  V30 12356 H 1129.26 1.36274 4.79824 0
M  V30 12357 H 1128.42 -0.643579 6.03277 0
M  V30 12358 H 1127.16 -0.898443 4.79353 0
M  V30 12359 H 1126.16 1.34275 5.33151 0
M  V30 12360 H 1127.39 1.586 6.6032 0
M  V30 12361 H 1125.33 -0.656725 6.52704 0
M  V30 12362 H 1125.25 0.760167 7.52169 0
M  V30 12363 H 1126.52 -0.399541 7.78475 0
M  V30 12364 N 1130.75 -1.41857 0.686609 0
M  V30 12365 C 1131.97 -2.06219 0.221037 0
M  V30 12366 C 1132.4 -1.51298 -1.11762 0
M  V30 12367 O 1131.75 -0.636253 -1.69769 0
M  V30 12368 C 1131.8 -3.60153 0.179425 0
M  V30 12369 O 1130.91 -4.03577 -0.848481 0
M  V30 12370 H 1130.25 -0.654787 0.110228 0
M  V30 12371 H 1132.78 -1.81783 0.938948 0
M  V30 12372 H 1132.79 -4.07999 0.00725332 0
M  V30 12373 H 1131.46 -3.99498 1.15647 0
M  V30 12374 H 1130.04 -3.67255 -0.646393 0
M  V30 12375 N 1132.22 -0.430739 -1.51599 0
M  V30 12376 C 1133.13 0.390347 -2.3133 0
M  V30 12377 C 1134.15 1.03376 -1.39962 0
M  V30 12378 O 1135.33 1.03057 -1.73035 0
M  V30 12379 C 1132.39 1.48039 -3.13505 0
M  V30 12380 C 1131.45 0.857792 -4.20643 0
M  V30 12381 C 1130.69 1.89589 -4.9889 0
M  V30 12382 O 1130.91 3.11717 -4.77691 0
M  V30 12383 O 1129.84 1.49009 -5.83164 0
M  V30 12384 H 1133.67 -0.260358 -3.02582 0
M  V30 12385 H 1131.25 -0.193428 -1.48143 0
M  V30 12386 H 1133.14 2.11272 -3.64612 0
M  V30 12387 H 1131.81 2.1153 -2.45024 0
M  V30 12388 H 1130.72 0.187592 -3.73629 0
M  V30 12389 H 1132.05 0.266474 -4.91478 0
M  V30 12390 N 1133.7 1.56767 -0.161869 0
M  V30 12391 C 1134.95 1.96206 0.484537 0
M  V30 12392 C 1135.27 1.04848 1.64414 0
M  V30 12393 O 1134.54 0.112946 1.95574 0
M  V30 12394 H 1133.12 0.724491 0.181994 0
M  V30 12395 H 1135.78 1.93406 -0.240845 0
M  V30 12396 H 1134.88 3.00279 0.85083 0
M  V30 12397 N 1135.18 -0.111886 1.57202 0
M  V30 12398 C 1136.41 -0.836317 1.89791 0
M  V30 12399 C 1136.83 -1.72304 0.754513 0
M  V30 12400 O 1136.19 -1.78889 -0.294672 0
M  V30 12401 C 1136.24 -1.63971 3.21164 0
M  V30 12402 O 1135.34 -2.74726 3.0757 0
M  V30 12403 H 1134.68 -0.230833 0.622585 0
M  V30 12404 H 1137.21 -0.0921478 2.04392 0
M  V30 12405 H 1137.22 -2.02746 3.54059 0
M  V30 12406 H 1135.9 -0.98882 4.03974 0
M  V30 12407 H 1134.47 -2.39101 2.86156 0
M  V30 12408 N 1136.66 -1.52894 -0.382264 0
M  V30 12409 C 1138.07 -1.60135 -0.959887 0
M  V30 12410 C 1138.42 -0.458363 -1.90771 0
M  V30 12411 O 1137.55 0.417614 -2.12332 0
M  V30 12412 C 1138.14 -2.90243 -1.74769 0
M  V30 12413 C 1136.7 -2.99874 -2.27491 0
M  V30 12414 C 1135.85 -2.55302 -1.0824 0
M  V30 12415 H 1138.8 -1.57875 -0.161589 0
M  V30 12416 H 1138.82 -2.77108 -2.60751 0
M  V30 12417 H 1138.33 -3.73412 -1.0576 0
M  V30 12418 H 1136.43 -2.21258 -2.99793 0
M  V30 12419 H 1136.54 -4.04643 -2.56516 0
M  V30 12420 H 1134.91 -2.09781 -1.44444 0
M  V30 12421 H 1135.69 -3.40872 -0.407553 0
M  V30 12422 N 1138.14 0.641106 -1.43971 0
M  V30 12423 C 1139.38 1.40291 -1.46445 0
M  V30 12424 C 1139.72 1.93978 -0.0929004 0
M  V30 12425 O 1138.99 1.73043 0.888043 0
M  V30 12426 C 1139.27 2.57551 -2.51673 0
M  V30 12427 C 1139.13 2.09279 -3.98149 0
M  V30 12428 C 1140.45 3.59752 -2.53508 0
M  V30 12429 H 1137.57 0.508771 -0.533218 0
M  V30 12430 H 1140.21 0.725767 -1.75592 0
M  V30 12431 H 1138.36 3.15319 -2.2695 0
M  V30 12432 H 1140.03 1.56418 -4.33971 0
M  V30 12433 H 1138.27 1.40545 -4.10402 0
M  V30 12434 H 1138.94 2.93655 -4.67409 0
M  V30 12435 H 1141.42 3.11766 -2.75574 0
M  V30 12436 H 1140.3 4.39332 -3.29057 0
M  V30 12437 H 1140.56 4.13156 -1.57335 0
M  V30 12438 N 1139.62 1.30703 0.880598 0
M  V30 12439 C 1140.55 1.20033 2.00286 0
M  V30 12440 C 1141.53 0.0899614 1.69862 0
M  V30 12441 O 1142.71 0.272747 1.92275 0
M  V30 12442 C 1139.84 0.895902 3.35546 0
M  V30 12443 C 1138.8 1.96468 3.80242 0
M  V30 12444 C 1138.12 1.51316 5.12843 0
M  V30 12445 C 1139.42 3.37637 3.98496 0
M  V30 12446 H 1141.12 2.13922 2.0947 0
M  V30 12447 H 1138.66 1.02989 1.00644 0
M  V30 12448 H 1140.61 0.807899 4.13583 0
M  V30 12449 H 1139.34 -0.0786636 3.26505 0
M  V30 12450 H 1138 2.0424 3.04437 0
M  V30 12451 H 1137.65 0.52674 5.00234 0
M  V30 12452 H 1137.35 2.22807 5.43719 0
M  V30 12453 H 1138.87 1.43903 5.93401 0
M  V30 12454 H 1140.28 3.326 4.66959 0
M  V30 12455 H 1138.68 4.07253 4.40755 0
M  V30 12456 H 1139.75 3.79205 3.02211 0
M  V30 12457 N 1141.09 -1.09351 1.1349 0
M  V30 12458 C 1142.5 -1.63035 0.909746 0
M  V30 12459 C 1142.86 -1.88229 -0.553573 0
M  V30 12460 O 1141.98 -1.63256 -1.42044 0
M  V30 12461 C 1142.58 -2.96186 1.64497 0
M  V30 12462 C 1141.13 -3.46692 1.46566 0
M  V30 12463 C 1140.28 -2.21095 1.67369 0
M  V30 12464 H 1143.23 -0.92704 1.28809 0
M  V30 12465 H 1143.25 -3.64177 1.10251 0
M  V30 12466 H 1142.77 -2.77818 2.70996 0
M  V30 12467 H 1140.87 -3.70183 0.423728 0
M  V30 12468 H 1140.98 -4.24078 2.22923 0
M  V30 12469 H 1139.34 -2.29789 1.0986 0
M  V30 12470 H 1140.13 -2.05245 2.7519 0
M  V30 12471 N 1142.57 -0.928524 -1.27343 0
M  V30 12472 C 1143.52 -0.399267 -2.24477 0
M  V30 12473 C 1144.51 0.496927 -1.53034 0
M  V30 12474 O 1145.7 0.334237 -1.73816 0
M  V30 12475 C 1142.83 0.346059 -3.41551 0
M  V30 12476 C 1141.91 -0.566699 -4.20297 0
M  V30 12477 N 1142.3 -1.6869 -4.76841 0
M  V30 12478 C 1140.6 -0.369865 -4.44464 0
M  V30 12479 C 1141.3 -2.25466 -5.36228 0
M  V30 12480 N 1140.28 -1.54414 -5.21207 0
M  V30 12481 H 1144.08 -1.25456 -2.65778 0
M  V30 12482 H 1141.59 -0.782894 -1.42283 0
M  V30 12483 H 1143.59 0.742171 -4.10241 0
M  V30 12484 H 1142.25 1.19827 -3.01781 0
M  V30 12485 H 1143.26 -2.06926 -4.74765 0
M  V30 12486 H 1139.94 0.441619 -4.15158 0
M  V30 12487 H 1141.33 -3.19779 -5.90924 0
M  V30 12488 N 1144.05 1.41491 -0.694123 0
M  V30 12489 C 1144.96 2.34583 -0.0283414 0
M  V30 12490 C 1145.98 1.5615 0.767662 0
M  V30 12491 O 1147.15 1.88637 0.705556 0
M  V30 12492 C 1144.22 3.34876 0.897726 0
M  V30 12493 C 1143.28 4.29197 0.0940905 0
M  V30 12494 C 1142.51 5.24699 0.976051 0
M  V30 12495 O 1142.73 5.25613 2.21556 0
M  V30 12496 O 1141.67 6.00387 0.426503 0
M  V30 12497 H 1145.49 2.93092 -0.795656 0
M  V30 12498 H 1143.08 1.4232 -0.45445 0
M  V30 12499 H 1144.96 3.96438 1.4288 0
M  V30 12500 H 1143.64 2.78812 1.64456 0
M  V30 12501 H 1142.54 3.70988 -0.481552 0
M  V30 12502 H 1143.88 4.88355 -0.614045 0
M  V30 12503 N 1145.53 0.438773 1.51369 0
M  V30 12504 C 1146.94 -0.0240139 1.86685 0
M  V30 12505 C 1147.29 -1.41816 1.35583 0
M  V30 12506 O 1146.41 -2.04517 0.707232 0
M  V30 12507 C 1147.01 -0.0503527 3.38763 0
M  V30 12508 C 1145.57 -0.457556 3.73609 0
M  V30 12509 C 1144.72 0.348852 2.75097 0
M  V30 12510 H 1147.67 0.654552 1.44573 0
M  V30 12511 H 1147.69 -0.859534 3.70665 0
M  V30 12512 H 1147.2 0.964451 3.75925 0
M  V30 12513 H 1145.3 -1.47791 3.42036 0
M  V30 12514 H 1145.41 -0.181357 4.78757 0
M  V30 12515 H 1143.78 -0.193037 2.53967 0
M  V30 12516 H 1144.56 1.36256 3.15102 0
M  V30 12517 N 1147.01 -1.56678 0.170181 0
M  V30 12518 C 1147.97 -2.16698 -0.746622 0
M  V30 12519 C 1148.97 -1.11475 -1.15888 0
M  V30 12520 O 1150.16 -1.36994 -1.07602 0
M  V30 12521 C 1147.29 -2.74892 -2.01612 0
M  V30 12522 H 1148.48 -2.99061 -0.224135 0
M  V30 12523 H 1146.04 -1.56098 -0.0793761 0
M  V30 12524 H 1146.77 -1.96259 -2.58172 0
M  V30 12525 H 1146.56 -3.51896 -1.72949 0
M  V30 12526 H 1148.05 -3.21058 -2.67042 0
M  V30 12527 N 1148.48 0.103547 -1.57259 0
M  V30 12528 C 1149.43 1.12621 -2.01458 0
M  V30 12529 C 1150.4 1.40282 -0.889391 0
M  V30 12530 O 1151.59 1.51887 -1.15477 0
M  V30 12531 C 1148.73 2.44352 -2.43692 0
M  V30 12532 C 1147.84 2.23495 -3.69695 0
M  V30 12533 C 1146.97 3.48565 -4.00844 0
M  V30 12534 C 1146.01 3.22932 -5.19982 0
M  V30 12535 N 1145.15 4.40246 -5.46926 0
M  V30 12536 H 1149.99 0.742315 -2.88606 0
M  V30 12537 H 1147.53 0.355016 -1.42752 0
M  V30 12538 H 1149.48 3.2122 -2.66221 0
M  V30 12539 H 1148.11 2.80605 -1.59565 0
M  V30 12540 H 1147.17 1.3747 -3.54692 0
M  V30 12541 H 1148.48 2.0054 -4.56711 0
M  V30 12542 H 1147.63 4.33844 -4.24104 0
M  V30 12543 H 1146.37 3.74565 -3.12333 0
M  V30 12544 H 1145.38 2.36045 -4.96551 0
M  V30 12545 H 1146.6 2.98286 -6.10084 0
M  V30 12546 H 1144.55 4.66338 -4.61373 0
M  V30 12547 H 1144.46 4.20452 -6.28296 0
M  V30 12548 H 1145.73 5.26614 -5.74716 0
M  V30 12549 N 1149.96 1.53094 0.37415 0
M  V30 12550 C 1151.21 1.69111 1.11934 0
M  V30 12551 C 1151.54 0.437252 1.89213 0
M  V30 12552 O 1150.82 -0.565298 1.86104 0
M  V30 12553 C 1151.1 2.93559 2.08554 0
M  V30 12554 C 1150.95 4.29082 1.3494 0
M  V30 12555 C 1152.27 3.13586 3.08791 0
M  V30 12556 H 1149.39 0.615383 0.405553 0
M  V30 12557 H 1152.03 1.85719 0.401078 0
M  V30 12558 H 1150.18 2.79531 2.69805 0
M  V30 12559 H 1151.85 4.54906 0.765402 0
M  V30 12560 H 1150.1 4.28884 0.651238 0
M  V30 12561 H 1150.77 5.12275 2.05616 0
M  V30 12562 H 1153.24 3.26743 2.57639 0
M  V30 12563 H 1152.12 4.02112 3.73627 0
M  V30 12564 H 1152.38 2.28475 3.78486 0
M  V30 12565 N 1151.44 -0.633461 1.44309 0
M  V30 12566 C 1152.39 -1.74554 1.50995 0
M  V30 12567 C 1153.36 -1.62199 0.357873 0
M  V30 12568 O 1154.54 -1.82156 0.567787 0
M  V30 12569 C 1151.68 -3.12792 1.45791 0
M  V30 12570 C 1150.79 -3.3614 2.71356 0
M  V30 12571 C 1149.93 -4.64337 2.58002 0
M  V30 12572 C 1148.97 -4.80855 3.78741 0
M  V30 12573 N 1148.11 -6.00327 3.64077 0
M  V30 12574 H 1152.95 -1.68174 2.46011 0
M  V30 12575 H 1150.48 -0.820407 1.22097 0
M  V30 12576 H 1152.44 -3.92735 1.40765 0
M  V30 12577 H 1151.07 -3.18193 0.543445 0
M  V30 12578 H 1150.12 -2.50154 2.86579 0
M  V30 12579 H 1151.43 -3.44226 3.60985 0
M  V30 12580 H 1150.59 -5.52437 2.50795 0
M  V30 12581 H 1149.33 -4.58605 1.65929 0
M  V30 12582 H 1148.33 -3.91185 3.86334 0
M  V30 12583 H 1149.56 -4.88403 4.71847 0
M  V30 12584 H 1147.5 -5.9569 2.74754 0
M  V30 12585 H 1147.42 -6.09459 4.47321 0
M  V30 12586 H 1148.69 -6.90995 3.60758 0
M  V30 12587 N 1152.92 -1.31168 -0.873655 0
M  V30 12588 C 1154.33 -1.18584 -1.44203 0
M  V30 12589 C 1154.68 0.209114 -1.95082 0
M  V30 12590 O 1153.81 1.10662 -1.85965 0
M  V30 12591 C 1154.4 -2.14668 -2.62112 0
M  V30 12592 C 1152.96 -2.06029 -3.15006 0
M  V30 12593 C 1152.11 -2.04106 -1.87712 0
M  V30 12594 H 1155.06 -1.43273 -0.682536 0
M  V30 12595 H 1155.08 -1.73413 -3.38686 0
M  V30 12596 H 1154.59 -3.16186 -2.25051 0
M  V30 12597 H 1152.69 -1.07693 -3.56697 0
M  V30 12598 H 1152.8 -2.9496 -3.77539 0
M  V30 12599 H 1151.17 -1.49069 -2.0652 0
M  V30 12600 H 1151.95 -3.07373 -1.52894 0
M  V30 12601 N 1154.4 1.08748 -1.14068 0
M  V30 12602 C 1155.31 2.19123 -0.837998 0
M  V30 12603 C 1156.32 1.73065 0.180164 0
M  V30 12604 O 1157.5 2.01398 0.00952285 0
M  V30 12605 C 1154.56 3.45257 -0.316 0
M  V30 12606 C 1153.62 4.05959 -1.39628 0
M  V30 12607 C 1152.86 5.26072 -0.899095 0
M  V30 12608 O 1153.08 5.69804 0.260744 0
M  V30 12609 O 1152.01 5.7808 -1.67652 0
M  V30 12610 H 1155.84 2.4748 -1.76033 0
M  V30 12611 H 1153.43 1.17816 -0.918675 0
M  V30 12612 H 1155.31 4.21389 -0.0306425 0
M  V30 12613 H 1153.98 3.18486 0.578654 0
M  V30 12614 H 1152.89 3.31432 -1.73505 0
M  V30 12615 H 1154.22 4.36971 -2.26533 0
M  V30 12616 N 1155.87 0.935264 1.26849 0
M  V30 12617 C 1156.78 0.446122 2.30319 0
M  V30 12618 C 1157.8 -0.476965 1.67335 0
M  V30 12619 O 1158.98 -0.357934 1.98194 0
M  V30 12620 C 1156.04 -0.286297 3.45516 0
M  V30 12621 C 1155.1 0.672626 4.23998 0
M  V30 12622 C 1154.34 -0.0249345 5.33694 0
M  V30 12623 O 1154.56 -1.24296 5.56693 0
M  V30 12624 O 1153.49 0.650752 5.98372 0
M  V30 12625 H 1157.32 1.30546 2.74211 0
M  V30 12626 H 1154.9 0.70091 1.31938 0
M  V30 12627 H 1156.79 -0.699109 4.1556 0
M  V30 12628 H 1155.46 -1.12112 3.03665 0
M  V30 12629 H 1154.37 1.13527 3.56458 0
M  V30 12630 H 1155.7 1.47489 4.69583 0
M  V30 12631 N 1157.35 -1.41121 0.701616 0
M  V30 12632 C 1158.58 -2.05973 0.242896 0
M  V30 12633 C 1159 -1.52474 -1.10151 0
M  V30 12634 O 1158.36 -0.654224 -1.69085 0
M  V30 12635 C 1158.41 -3.59943 0.217614 0
M  V30 12636 O 1157.51 -4.04454 -0.805629 0
M  V30 12637 H 1156.85 -0.653581 0.117166 0
M  V30 12638 H 1159.38 -1.80777 0.958175 0
M  V30 12639 H 1159.39 -4.07969 0.0505267 0
M  V30 12640 H 1158.07 -3.98249 1.19877 0
M  V30 12641 H 1156.65 -3.6792 -0.607404 0
M  V30 12642 N 1158.83 -0.446794 -1.51134 0
M  V30 12643 C 1160.25 -0.0995905 -1.59289 0
M  V30 12644 C 1160.45 1.39191 -1.45699 0
M  V30 12645 O 1159.5 2.1628 -1.30303 0
M  V30 12646 C 1160.82 -0.628135 -2.94066 0
M  V30 12647 C 1162.36 -0.589409 -3.074 0
M  V30 12648 C 1162.84 -1.09509 -4.44715 0
M  V30 12649 N 1164.33 -1.05347 -4.51061 0
M  V30 12650 C 1165.06 -1.41551 -5.55654 0
M  V30 12651 N 1164.56 -1.85086 -6.67619 0
M  V30 12652 N 1166.35 -1.33307 -5.46064 0
M  V30 12653 H 1158.5 -1.41713 -1.58213 0
M  V30 12654 H 1160.77 -0.584555 -0.746324 0
M  V30 12655 H 1160.47 -1.67205 -3.09411 0
M  V30 12656 H 1160.35 -0.0582398 -3.77155 0
M  V30 12657 H 1162.73 0.445541 -2.91717 0
M  V30 12658 H 1162.82 -1.19582 -2.26128 0
M  V30 12659 H 1162.46 -2.12855 -4.61146 0
M  V30 12660 H 1162.39 -0.465122 -5.24542 0
M  V30 12661 H 1164.88 -0.733877 -3.70706 0
M  V30 12662 H 1165.19 -2.10923 -7.43459 0
M  V30 12663 H 1163.54 -1.8902 -6.68802 0
M  V30 12664 H 1166.73 -0.991547 -4.57478 0
M  V30 12665 H 1166.9 -1.6185 -6.27462 0
M  V30 12666 N 1160.31 1.56586 -0.178487 0
M  V30 12667 C 1161.59 1.88798 0.511356 0
M  V30 12668 C 1161.97 1.08949 1.80813 0
M  V30 12669 O 1161.31 0.185551 2.27745 0
M  V30 12670 C 1161.52 3.40927 0.746298 0
M  V30 12671 C 1162.87 4.10816 1.0731 0
M  V30 12672 O 1163.9 3.46285 0.834592 0
M  V30 12673 O 1162.75 5.24837 1.52343 0
M  V30 12674 H 1159.85 0.783574 0.264463 0
M  V30 12675 H 1162.39 1.68301 -0.21746 0
M  V30 12676 H 1161.17 3.9093 -0.17015 0
M  V30 12677 H 1160.79 3.67059 1.52817 0
M  V30 12678 N 1161.79 -0.095206 1.57312 0
M  V30 12679 C 1163.04 -0.797417 1.85268 0
M  V30 12680 C 1163.35 -1.79903 0.767733 0
M  V30 12681 O 1164.55 -2.54914 0.934409 0
M  V30 12682 C 1163.01 -1.469 3.28555 0
M  V30 12683 C 1162.62 -0.507152 4.4512 0
M  V30 12684 C 1164.36 -2.15494 3.65735 0
M  V30 12685 C 1162.27 -1.18331 5.79441 0
M  V30 12686 H 1161.2 -0.301552 0.691074 0
M  V30 12687 H 1163.85 -0.0503584 1.83431 0
M  V30 12688 H 1162.23 -2.26351 3.24933 0
M  V30 12689 H 1163.41 0.255858 4.60089 0
M  V30 12690 H 1161.72 0.0730882 4.16336 0
M  V30 12691 H 1164.32 -2.66816 4.63371 0
M  V30 12692 H 1164.66 -2.94383 2.94354 0
M  V30 12693 H 1165.19 -1.42903 3.71246 0
M  V30 12694 H 1161.93 -0.435238 6.54053 0
M  V30 12695 H 1161.45 -1.91775 5.68315 0
M  V30 12696 H 1163.13 -1.70983 6.23998 0
M  V30 12697 N 1163.26 -1.53291 -0.366026 0
M  V30 12698 C 1164.49 -1.73359 -1.12934 0
M  V30 12699 C 1164.91 -0.462352 -1.83051 0
M  V30 12700 O 1164.26 0.564711 -1.73543 0
M  V30 12701 C 1164.32 -2.89873 -2.15999 0
M  V30 12702 O 1164.04 -4.12079 -1.48737 0
M  V30 12703 C 1165.54 -3.21811 -3.04881 0
M  V30 12704 H 1162.76 -0.579827 -0.337701 0
M  V30 12705 H 1165.3 -2.00033 -0.425081 0
M  V30 12706 H 1163.46 -2.65595 -2.82025 0
M  V30 12707 H 1163.87 -4.77322 -2.17404 0
M  V30 12708 H 1165.34 -4.06744 -3.7318 0
M  V30 12709 H 1165.82 -2.37156 -3.69667 0
M  V30 12710 H 1166.43 -3.48013 -2.44473 0
M  V30 12711 N 1164.74 0.6258 -1.44643 0
M  V30 12712 C 1166.16 0.944569 -1.28647 0
M  V30 12713 C 1166.36 2.00227 -0.226134 0
M  V30 12714 O 1165.41 2.4953 0.386161 0
M  V30 12715 C 1166.73 1.40278 -2.65975 0
M  V30 12716 C 1168.28 1.51797 -2.73727 0
M  V30 12717 C 1168.75 2.01 -4.11537 0
M  V30 12718 N 1170.24 2.08262 -4.13741 0
M  V30 12719 C 1170.98 2.47515 -5.17227 0
M  V30 12720 N 1170.47 2.85867 -6.31072 0
M  V30 12721 N 1172.27 2.47695 -5.04583 0
M  V30 12722 H 1164.42 -0.0736157 -2.12272 0
M  V30 12723 H 1166.68 0.0296998 -0.947535 0
M  V30 12724 H 1166.39 0.699871 -3.44666 0
M  V30 12725 H 1166.26 2.37279 -2.93221 0
M  V30 12726 H 1168.65 2.21183 -1.95351 0
M  V30 12727 H 1168.73 0.531574 -2.50216 0
M  V30 12728 H 1168.37 1.32207 -4.90391 0
M  V30 12729 H 1168.3 3.0052 -4.32429 0
M  V30 12730 H 1170.79 1.81286 -3.31578 0
M  V30 12731 H 1171.11 3.14647 -7.05845 0
M  V30 12732 H 1169.45 2.83605 -6.34502 0
M  V30 12733 H 1172.64 2.17127 -4.14697 0
M  V30 12734 H 1172.81 2.77962 -5.85356 0
M  V30 12735 N 1166.22 1.31629 0.866686 0
M  V30 12736 C 1167.63 1.19347 1.43573 0
M  V30 12737 C 1167.98 -0.198765 1.95191 0
M  V30 12738 O 1167.11 -1.09674 1.86549 0
M  V30 12739 C 1167.7 2.16055 2.6097 0
M  V30 12740 C 1166.26 2.07697 3.13909 0
M  V30 12741 C 1165.41 2.05099 1.86627 0
M  V30 12742 H 1168.36 1.43633 0.674929 0
M  V30 12743 H 1168.38 1.75207 3.37761 0
M  V30 12744 H 1167.89 3.17375 2.23371 0
M  V30 12745 H 1165.99 1.09583 3.56121 0
M  V30 12746 H 1166.11 2.96958 3.75969 0
M  V30 12747 H 1164.47 1.50162 2.05727 0
M  V30 12748 H 1165.25 3.0818 1.51261 0
M  V30 12749 N 1167.7 -1.08142 1.14644 0
M  V30 12750 C 1168.92 -1.84857 0.940349 0
M  V30 12751 C 1169.35 -1.81163 -0.506117 0
M  V30 12752 O 1168.71 -1.19869 -1.36019 0
M  V30 12753 C 1168.76 -3.30198 1.4492 0
M  V30 12754 O 1167.86 -4.07355 0.64308 0
M  V30 12755 H 1167.2 -0.572711 0.336003 0
M  V30 12756 H 1169.73 -1.36475 1.52432 0
M  V30 12757 H 1169.74 -3.81039 1.45854 0
M  V30 12758 H 1168.42 -3.32202 2.50229 0
M  V30 12759 H 1166.99 -3.66219 0.702698 0
M  V30 12760 N 1169.18 -0.941978 -1.26351 0
M  V30 12761 C 1170.59 -0.644413 -1.46012 0
M  V30 12762 C 1170.79 0.802031 -1.84851 0
M  V30 12763 O 1169.85 1.57859 -1.9707 0
M  V30 12764 C 1171.16 -1.60652 -2.54188 0
M  V30 12765 C 1172.71 -1.6163 -2.68038 0
M  V30 12766 C 1173.19 -2.56573 -3.79387 0
M  V30 12767 N 1174.68 -2.54863 -3.8678 0
M  V30 12768 C 1175.41 -3.2501 -4.72394 0
M  V30 12769 N 1174.91 -4.04586 -5.6239 0
M  V30 12770 N 1176.7 -3.13958 -4.66247 0
M  V30 12771 H 1168.85 -1.8769 -0.994293 0
M  V30 12772 H 1171.11 -0.806621 -0.498063 0
M  V30 12773 H 1170.82 -2.63907 -2.32478 0
M  V30 12774 H 1170.69 -1.3592 -3.5186 0
M  V30 12775 H 1173.08 -0.59099 -2.89122 0
M  V30 12776 H 1173.16 -1.90417 -1.70807 0
M  V30 12777 H 1172.81 -3.59223 -3.59056 0
M  V30 12778 H 1172.74 -2.25077 -4.76076 0
M  V30 12779 H 1175.23 -1.97082 -3.22439 0
M  V30 12780 H 1175.54 -4.55061 -6.24612 0
M  V30 12781 H 1173.89 -4.08687 -5.62139 0
M  V30 12782 H 1177.08 -2.51273 -3.94943 0
M  V30 12783 H 1177.25 -3.68894 -5.32749 0
M  V30 12784 N 1170.66 1.40747 -0.709091 0
M  V30 12785 C 1172.07 1.83955 -0.318968 0
M  V30 12786 C 1172.42 1.59304 1.14527 0
M  V30 12787 O 1171.54 1.07052 1.88066 0
M  V30 12788 C 1172.14 3.33934 -0.572147 0
M  V30 12789 C 1170.7 3.75661 -0.235802 0
M  V30 12790 C 1169.84 2.64024 -0.847743 0
M  V30 12791 H 1172.79 1.30107 -0.908734 0
M  V30 12792 H 1172.82 3.80143 0.164752 0
M  V30 12793 H 1172.33 3.51844 -1.63791 0
M  V30 12794 H 1170.43 3.63348 0.825164 0
M  V30 12795 H 1170.54 4.73955 -0.700263 0
M  V30 12796 H 1168.91 2.53197 -0.276283 0
M  V30 12797 H 1169.69 2.84748 -1.91765 0
M  V30 12798 N 1172.13 0.454803 1.50895 0
M  V30 12799 C 1173.1 -0.336293 2.26719 0
M  V30 12800 C 1174.1 -0.93464 1.30848 0
M  V30 12801 O 1175.29 -0.80636 1.54413 0
M  V30 12802 C 1172.42 -1.47744 3.07221 0
M  V30 12803 H 1173.61 0.328462 2.98096 0
M  V30 12804 H 1171.16 0.208419 1.54904 0
M  V30 12805 H 1171.9 -2.17773 2.40302 0
M  V30 12806 H 1171.68 -1.05438 3.77658 0
M  V30 12807 H 1173.17 -2.03592 3.6461 0
M  V30 12808 N 1173.61 -1.56489 0.186789 0
M  V30 12809 C 1174.84 -2.02163 -0.463126 0
M  V30 12810 C 1175.26 -1.06612 -1.54969 0
M  V30 12811 O 1174.62 -0.0482139 -1.81236 0
M  V30 12812 C 1174.67 -3.46337 -1.00416 0
M  V30 12813 O 1173.77 -3.53889 -2.11747 0
M  V30 12814 H 1173.11 -0.65496 -0.109194 0
M  V30 12815 H 1175.64 -2.02459 0.295227 0
M  V30 12816 H 1175.65 -3.85959 -1.32287 0
M  V30 12817 H 1174.33 -4.15376 -0.208693 0
M  V30 12818 H 1172.9 -3.26136 -1.80803 0
M  V30 12819 N 1175.09 0.086862 -1.5736 0
M  V30 12820 C 1176.32 0.801004 -1.9044 0
M  V30 12821 C 1176.73 1.72396 -0.779513 0
M  V30 12822 O 1176.07 1.81894 0.256972 0
M  V30 12823 C 1176.13 1.66055 -3.18851 0
M  V30 12824 C 1175.8 0.908561 -4.47877 0
M  V30 12825 C 1176.79 0.234621 -5.1937 0
M  V30 12826 C 1174.48 0.8802 -4.94528 0
M  V30 12827 C 1176.47 -0.45762 -6.35755 0
M  V30 12828 C 1174.16 0.184179 -6.10822 0
M  V30 12829 C 1175.16 -0.483545 -6.81286 0
M  V30 12830 O 1174.85 -1.16839 -7.95364 0
M  V30 12831 H 1174.58 0.233794 -0.634284 0
M  V30 12832 H 1177.13 0.0660113 -2.05294 0
M  V30 12833 H 1175.36 2.43798 -3.00165 0
M  V30 12834 H 1177.05 2.252 -3.37698 0
M  V30 12835 H 1177.82 0.247938 -4.84366 0
M  V30 12836 H 1173.7 1.38938 -4.39565 0
M  V30 12837 H 1177.24 -0.979369 -6.90691 0
M  V30 12838 H 1173.14 0.168737 -6.45279 0
M  V30 12839 H 1173.9 -1.07612 -8.11395 0
M  V30 12840 N 1176.57 1.53483 0.357892 0
M  V30 12841 C 1177.51 1.80463 1.43881 0
M  V30 12842 C 1178.48 0.649438 1.52877 0
M  V30 12843 O 1179.67 0.892409 1.68644 0
M  V30 12844 C 1176.81 2.00714 2.80727 0
M  V30 12845 C 1175.92 3.28431 2.80637 0
M  V30 12846 C 1175.06 3.38828 4.09107 0
M  V30 12847 C 1174.1 4.60549 4.03189 0
M  V30 12848 N 1173.23 4.68057 5.23323 0
M  V30 12849 H 1178.07 2.72694 1.20174 0
M  V30 12850 H 1175.61 1.35079 0.582422 0
M  V30 12851 H 1177.57 2.10444 3.60235 0
M  V30 12852 H 1176.2 1.11811 3.02817 0
M  V30 12853 H 1175.25 3.27617 1.93317 0
M  V30 12854 H 1176.56 4.18022 2.72138 0
M  V30 12855 H 1175.72 3.47911 4.97034 0
M  V30 12856 H 1174.46 2.47267 4.20369 0
M  V30 12857 H 1173.46 4.51558 3.13649 0
M  V30 12858 H 1174.69 5.53459 3.93523 0
M  V30 12859 H 1172.63 3.794 5.35156 0
M  V30 12860 H 1172.55 5.51563 5.17024 0
M  V30 12861 H 1173.82 4.81433 6.1306 0
M  V30 12862 N 1178.05 -0.61812 1.44973 0
M  V30 12863 C 1178.99 -1.72942 1.52838 0
M  V30 12864 C 1179.96 -1.6181 0.375056 0
M  V30 12865 O 1181.15 -1.81544 0.587075 0
M  V30 12866 C 1178.29 -3.11228 1.49101 0
M  V30 12867 C 1177.4 -3.33243 2.74906 0
M  V30 12868 C 1176.54 -4.61574 2.62912 0
M  V30 12869 C 1175.57 -4.76811 3.8382 0
M  V30 12870 N 1174.71 -5.96432 3.70424 0
M  V30 12871 H 1179.55 -1.65556 2.47781 0
M  V30 12872 H 1177.09 -0.807411 1.2296 0
M  V30 12873 H 1179.05 -3.9122 1.44923 0
M  V30 12874 H 1177.68 -3.17598 0.577163 0
M  V30 12875 H 1176.73 -2.471 2.89216 0
M  V30 12876 H 1178.04 -3.40377 3.64616 0
M  V30 12877 H 1177.19 -5.49746 2.56641 0
M  V30 12878 H 1175.93 -4.5682 1.70784 0
M  V30 12879 H 1174.94 -3.87066 3.90461 0
M  V30 12880 H 1176.16 -4.83371 4.77001 0
M  V30 12881 H 1174.11 -5.92742 2.81057 0
M  V30 12882 H 1174.03 -6.0468 4.5376 0
M  V30 12883 H 1175.29 -6.8713 3.68067 0
M  V30 12884 N 1179.52 -1.32087 -0.859693 0
M  V30 12885 C 1180.49 -1.20546 -1.94939 0
M  V30 12886 C 1181.49 -0.12982 -1.60275 0
M  V30 12887 O 1182.68 -0.379853 -1.70008 0
M  V30 12888 C 1179.81 -0.852717 -3.30063 0
M  V30 12889 H 1181 -2.17384 -2.06602 0
M  V30 12890 H 1178.55 -1.15846 -1.04926 0
M  V30 12891 H 1179.29 0.114059 -3.24099 0
M  V30 12892 H 1179.07 -1.63035 -3.56598 0
M  V30 12893 H 1180.56 -0.796145 -4.09941 0
M  V30 12894 N 1181 1.07532 -1.15215 0
M  V30 12895 C 1182.25 1.79474 -0.920439 0
M  V30 12896 C 1182.56 1.87593 0.553926 0
M  V30 12897 O 1183.77 2.56037 0.903169 0
M  V30 12898 C 1182.23 3.22509 -1.59738 0
M  V30 12899 C 1181.83 3.22596 -3.10863 0
M  V30 12900 C 1183.58 3.99072 -1.44714 0
M  V30 12901 C 1181.48 4.60273 -3.71352 0
M  V30 12902 H 1180.41 0.672625 -0.340722 0
M  V30 12903 H 1183.07 1.2071 -1.38208 0
M  V30 12904 H 1181.45 3.81454 -1.06342 0
M  V30 12905 H 1182.62 2.73306 -3.70999 0
M  V30 12906 H 1180.94 2.5953 -3.25627 0
M  V30 12907 H 1183.53 5.00823 -1.87299 0
M  V30 12908 H 1183.88 4.14428 -0.394386 0
M  V30 12909 H 1184.41 3.46617 -1.95195 0
M  V30 12910 H 1181.15 4.50122 -4.76519 0
M  V30 12911 H 1180.67 5.09809 -3.15998 0
M  V30 12912 H 1182.35 5.29243 -3.7217 0
M  V30 12913 N 1182.48 0.948665 1.2585 0
M  V30 12914 C 1183.76 0.517832 1.88621 0
M  V30 12915 C 1184.14 -1.00477 1.85654 0
M  V30 12916 O 1183.49 -1.868 1.31598 0
M  V30 12917 C 1183.7 1.08768 3.31618 0
M  V30 12918 C 1185.04 1.16089 4.08422 0
M  V30 12919 O 1186.07 1.0388 3.40716 0
M  V30 12920 O 1184.93 1.35172 5.29519 0
M  V30 12921 H 1182.02 0.169916 0.809356 0
M  V30 12922 H 1184.57 1.04171 1.33964 0
M  V30 12923 H 1183.34 2.13109 3.28177 0
M  V30 12924 H 1182.96 0.54669 3.93824 0
M  V30 12925 N 1183.96 -1.40369 0.716545 0
M  V30 12926 C 1184.87 -2.34508 0.065658 0
M  V30 12927 C 1185.88 -1.57352 -0.742723 0
M  V30 12928 O 1187.06 -1.89735 -0.675456 0
M  V30 12929 C 1184.13 -3.36262 -0.844337 0
M  V30 12930 C 1183.19 -4.29292 -0.0257971 0
M  V30 12931 C 1182.42 -5.26185 -0.892452 0
M  V30 12932 O 1182.64 -5.29071 -2.13166 0
M  V30 12933 O 1181.58 -6.0099 -0.330933 0
M  V30 12934 H 1185.4 -2.91789 0.842184 0
M  V30 12935 H 1182.99 -1.41579 0.477034 0
M  V30 12936 H 1184.87 -3.98661 -1.36555 0
M  V30 12937 H 1183.54 -2.81393 -1.59999 0
M  V30 12938 H 1182.45 -3.70175 0.540512 0
M  V30 12939 H 1183.78 -4.87316 0.69166 0
M  V30 12940 N 1185.44 -0.462799 -1.50652 0
M  V30 12941 C 1186.71 0.156221 -1.94975 0
M  V30 12942 C 1187.09 1.5775 -1.40279 0
M  V30 12943 O 1186.44 2.20473 -0.600323 0
M  V30 12944 C 1186.65 0.108008 -3.48833 0
M  V30 12945 C 1188 0.301013 -4.23532 0
M  V30 12946 O 1189.02 0.184973 -3.55719 0
M  V30 12947 O 1187.88 0.534457 -5.4388 0
M  V30 12948 H 1184.98 0.116182 -0.818798 0
M  V30 12949 H 1187.52 -0.522607 -1.61453 0
M  V30 12950 H 1186.29 -0.884634 -3.81169 0
M  V30 12951 H 1185.92 0.828653 -3.88869 0
M  V30 12952 N 1186.91 1.56388 -0.195085 0
M  V30 12953 C 1187.84 2.22091 0.720971 0
M  V30 12954 C 1188.83 1.184 1.22128 0
M  V30 12955 O 1190.01 1.46907 1.27012 0
M  V30 12956 C 1187.14 2.88025 1.94059 0
M  V30 12957 C 1186.09 3.97959 1.5752 0
M  V30 12958 C 1185.42 4.51058 2.87143 0
M  V30 12959 C 1186.72 5.16365 0.785145 0
M  V30 12960 H 1188.41 2.98898 0.173245 0
M  V30 12961 H 1185.96 1.43767 0.0818868 0
M  V30 12962 H 1187.91 3.32671 2.58666 0
M  V30 12963 H 1186.64 2.08623 2.51285 0
M  V30 12964 H 1185.3 3.54004 0.952715 0
M  V30 12965 H 1184.94 3.68418 3.42458 0
M  V30 12966 H 1184.64 5.25237 2.63439 0
M  V30 12967 H 1186.17 4.98406 3.52738 0
M  V30 12968 H 1187.58 5.57556 1.33431 0
M  V30 12969 H 1185.98 5.9661 0.646231 0
M  V30 12970 H 1187.05 4.84428 -0.213789 0
M  V30 12971 N 1188.39 -0.0785156 1.57404 0
M  V30 12972 C 1189.62 -0.792042 1.9114 0
M  V30 12973 C 1190.04 -1.71458 0.790408 0
M  V30 12974 O 1189.39 -1.80959 -0.236662 0
M  V30 12975 C 1189.44 -1.59138 3.24588 0
M  V30 12976 O 1189.16 -0.705931 4.32375 0
M  V30 12977 C 1190.67 -2.4065 3.72293 0
M  V30 12978 H 1187.89 -0.225566 0.63195 0
M  V30 12979 H 1190.43 -0.0507929 2.04437 0
M  V30 12980 H 1188.58 -2.28498 3.12838 0
M  V30 12981 H 1189 -1.26121 5.09111 0
M  V30 12982 H 1190.47 -2.92204 4.68317 0
M  V30 12983 H 1190.95 -3.1987 3.00965 0
M  V30 12984 H 1191.56 -1.7646 3.86965 0
M  V30 12985 N 1189.87 -1.5367 -0.349747 0
M  V30 12986 C 1190.83 -1.80533 -1.41211 0
M  V30 12987 C 1191.83 -0.676188 -1.45892 0
M  V30 12988 O 1193.02 -0.944453 -1.46375 0
M  V30 12989 C 1190.16 -1.94175 -2.80195 0
M  V30 12990 H 1191.35 -2.75428 -1.18658 0
M  V30 12991 H 1188.9 -1.44988 -0.583787 0
M  V30 12992 H 1189.64 -1.01402 -3.08039 0
M  V30 12993 H 1189.42 -2.76316 -2.78194 0
M  V30 12994 H 1190.91 -2.16496 -3.57098 0
M  V30 12995 N 1191.35 0.610423 -1.45298 0
M  V30 12996 C 1192.28 1.73207 -1.56594 0
M  V30 12997 C 1193.26 1.64893 -0.417651 0
M  V30 12998 O 1194.44 1.83336 -0.64043 0
M  V30 12999 C 1191.57 3.11803 -1.52959 0
M  V30 13000 C 1190.53 3.34925 -2.66475 0
M  V30 13001 C 1189.85 4.73764 -2.47894 0
M  V30 13002 C 1191.15 3.25456 -4.08504 0
M  V30 13003 H 1192.85 1.6401 -2.50482 0
M  V30 13004 H 1190.39 0.787621 -1.20551 0
M  V30 13005 H 1192.35 3.90065 -1.59458 0
M  V30 13006 H 1191.07 3.21833 -0.55599 0
M  V30 13007 H 1189.73 2.59051 -2.59399 0
M  V30 13008 H 1189.38 4.80524 -1.4868 0
M  V30 13009 H 1189.08 4.90191 -3.24016 0
M  V30 13010 H 1190.6 5.54231 -2.56243 0
M  V30 13011 H 1192.02 3.93597 -4.16839 0
M  V30 13012 H 1190.41 3.53414 -4.84994 0
M  V30 13013 H 1191.48 2.22939 -4.30612 0
M  V30 13014 N 1192.83 1.32541 0.852676 0
M  V30 13015 C 1193.79 1.21578 1.94297 0
M  V30 13016 C 1194.79 0.138318 1.60204 0
M  V30 13017 O 1195.98 0.388864 1.69804 0
M  V30 13018 C 1193.11 0.870209 3.29606 0
M  V30 13019 H 1194.3 2.18476 2.05446 0
M  V30 13020 H 1191.86 1.16401 1.0431 0
M  V30 13021 H 1192.59 -0.0968698 3.24155 0
M  V30 13022 H 1192.38 1.64924 3.55728 0
M  V30 13023 H 1193.87 0.817874 4.09513 0
M  V30 13024 N 1194.3 -1.0692 1.15784 0
M  V30 13025 C 1195.25 -2.14235 0.858616 0
M  V30 13026 C 1196.22 -1.65006 -0.190295 0
M  V30 13027 O 1197.41 -1.90715 -0.0568853 0
M  V30 13028 C 1194.55 -3.43229 0.35888 0
M  V30 13029 C 1193.66 -4.06225 1.46987 0
M  V30 13030 C 1192.79 -5.2307 0.925812 0
M  V30 13031 C 1191.83 -5.78037 2.01345 0
M  V30 13032 N 1190.97 -6.86206 1.48544 0
M  V30 13033 H 1195.81 -2.3917 1.77769 0
M  V30 13034 H 1193.35 -1.17354 0.886925 0
M  V30 13035 H 1195.31 -4.17169 0.0508198 0
M  V30 13036 H 1193.94 -3.18531 -0.523259 0
M  V30 13037 H 1192.99 -3.29895 1.89403 0
M  V30 13038 H 1194.3 -4.43081 2.29088 0
M  V30 13039 H 1193.45 -6.04011 0.570555 0
M  V30 13040 H 1192.19 -4.87644 0.0740371 0
M  V30 13041 H 1191.2 -4.95738 2.37748 0
M  V30 13042 H 1192.42 -6.15517 2.86907 0
M  V30 13043 H 1190.37 -6.52711 0.656092 0
M  V30 13044 H 1190.29 -7.2197 2.24266 0
M  V30 13045 H 1191.55 -7.70842 1.15856 0
M  V30 13046 N 1195.78 -0.955326 -1.25345 0
M  V30 13047 C 1196.69 -0.482707 -2.2958 0
M  V30 13048 C 1197.71 0.450283 -1.68073 0
M  V30 13049 O 1198.88 0.326358 -1.98738 0
M  V30 13050 C 1195.95 0.231293 -3.45928 0
M  V30 13051 C 1195.01 -0.739995 -4.22874 0
M  V30 13052 C 1194.24 -0.0599748 -5.33666 0
M  V30 13053 O 1194.47 1.15423 -5.586 0
M  V30 13054 O 1193.4 -0.745865 -5.97261 0
M  V30 13055 H 1197.23 -1.34892 -2.72099 0
M  V30 13056 H 1194.81 -0.721812 -1.30806 0
M  V30 13057 H 1196.69 0.632908 -4.1662 0
M  V30 13058 H 1195.37 1.07267 -3.0541 0
M  V30 13059 H 1194.28 -1.19183 -3.54607 0
M  V30 13060 H 1195.61 -1.54941 -4.67177 0
M  V30 13061 N 1197.26 1.39987 -0.723979 0
M  V30 13062 C 1198.19 2.3332 -0.0917282 0
M  V30 13063 C 1199.17 1.53335 0.736361 0
M  V30 13064 O 1200.36 1.81771 0.683582 0
M  V30 13065 C 1197.49 3.3737 0.824549 0
M  V30 13066 C 1196.44 4.2788 0.101452 0
M  V30 13067 C 1195.77 5.22536 1.13401 0
M  V30 13068 C 1197.07 5.11649 -1.04939 0
M  V30 13069 H 1198.76 2.86441 -0.871318 0
M  V30 13070 H 1196.31 1.37725 -0.420448 0
M  V30 13071 H 1198.26 4.01607 1.27631 0
M  V30 13072 H 1196.98 2.82663 1.63613 0
M  V30 13073 H 1195.64 3.65107 -0.330569 0
M  V30 13074 H 1195.29 4.64131 1.93886 0
M  V30 13075 H 1194.99 5.83938 0.65502 0
M  V30 13076 H 1196.52 5.89651 1.58569 0
M  V30 13077 H 1197.93 5.69293 -0.6766 0
M  V30 13078 H 1196.33 5.82137 -1.45729 0
M  V30 13079 H 1197.4 4.47132 -1.8762 0
M  V30 13080 N 1198.74 0.470782 1.50404 0
M  V30 13081 C 1200.16 0.124919 1.5911 0
M  V30 13082 C 1200.36 -1.36855 1.47895 0
M  V30 13083 O 1199.41 -2.1418 1.33728 0
M  V30 13084 C 1200.72 0.674839 2.9303 0
M  V30 13085 C 1202.27 0.638239 3.06424 0
M  V30 13086 C 1202.75 1.1657 4.42917 0
M  V30 13087 N 1204.24 1.1251 4.49328 0
M  V30 13088 C 1204.97 1.50373 5.53331 0
M  V30 13089 N 1204.47 1.95684 6.6459 0
M  V30 13090 N 1206.26 1.41978 5.43874 0
M  V30 13091 H 1198.41 1.44212 1.55938 0
M  V30 13092 H 1200.68 0.596354 0.73693 0
M  V30 13093 H 1200.38 1.72106 3.06712 0
M  V30 13094 H 1200.26 0.118234 3.77015 0
M  V30 13095 H 1202.64 -0.399075 2.92389 0
M  V30 13096 H 1202.72 1.23164 2.24197 0
M  V30 13097 H 1202.37 2.20164 4.57701 0
M  V30 13098 H 1202.3 0.548513 5.23736 0
M  V30 13099 H 1204.79 0.79276 3.69491 0
M  V30 13100 H 1205.1 2.22724 7.40009 0
M  V30 13101 H 1203.45 1.99636 6.65711 0
M  V30 13102 H 1206.64 1.0642 4.55842 0
M  V30 13103 H 1206.81 1.71812 6.24808 0
M  V30 13104 N 1200.22 -1.56282 0.203376 0
M  V30 13105 C 1201.13 -2.23086 -0.725922 0
M  V30 13106 C 1202.14 -1.23258 -1.22814 0
M  V30 13107 O 1203.32 -1.5602 -1.27357 0
M  V30 13108 C 1200.38 -2.88358 -1.92485 0
M  V30 13109 C 1199.45 -4.03479 -1.46639 0
M  V30 13110 C 1198.68 -4.65629 -2.60816 0
M  V30 13111 O 1198.9 -4.2672 -3.78506 0
M  V30 13112 O 1197.84 -5.54949 -2.33056 0
M  V30 13113 H 1201.66 -3.03124 -0.18694 0
M  V30 13114 H 1199.25 -1.49377 -0.0262829 0
M  V30 13115 H 1201.13 -3.29623 -2.62539 0
M  V30 13116 H 1199.8 -2.11294 -2.45228 0
M  V30 13117 H 1198.71 -3.66821 -0.734396 0
M  V30 13118 H 1200.04 -4.82232 -0.985535 0
M  V30 13119 N 1201.7 0.070167 -1.57444 0
M  V30 13120 C 1202.63 1.08351 -2.06839 0
M  V30 13121 C 1203.61 1.40269 -0.962224 0
M  V30 13122 O 1204.79 1.49867 -1.23505 0
M  V30 13123 C 1201.92 2.39649 -2.51368 0
M  V30 13124 C 1200.88 2.22079 -3.65875 0
M  V30 13125 C 1200.2 3.58776 -3.96464 0
M  V30 13126 C 1201.5 1.64069 -4.95862 0
M  V30 13127 H 1203.2 0.672465 -2.9175 0
M  V30 13128 H 1200.74 0.322027 -1.40353 0
M  V30 13129 H 1202.69 3.10833 -2.84537 0
M  V30 13130 H 1201.42 2.82736 -1.63487 0
M  V30 13131 H 1200.08 1.53337 -3.32992 0
M  V30 13132 H 1199.73 3.99436 -3.05712 0
M  V30 13133 H 1199.43 3.47859 -4.7357 0
M  V30 13134 H 1200.95 4.31387 -4.32131 0
M  V30 13135 H 1202.36 2.2512 -5.27251 0
M  V30 13136 H 1200.76 1.63843 -5.773 0
M  V30 13137 H 1201.83 0.60232 -4.81145 0
M  V30 13138 N 1203.17 1.53854 0.341593 0
M  V30 13139 C 1204.59 1.44161 0.684821 0
M  V30 13140 C 1204.79 0.599929 1.92362 0
M  V30 13141 O 1203.85 0.0916771 2.52334 0
M  V30 13142 C 1205.16 2.87668 0.875637 0
M  V30 13143 C 1206.71 2.97455 0.974131 0
M  V30 13144 C 1207.18 4.42075 1.19725 0
M  V30 13145 N 1208.67 4.45609 1.2644 0
M  V30 13146 C 1209.41 5.54643 1.45459 0
M  V30 13147 N 1208.9 6.7368 1.61637 0
M  V30 13148 N 1210.7 5.4226 1.48022 0
M  V30 13149 H 1202.85 2.07069 -0.472883 0
M  V30 13150 H 1205.11 0.936114 -0.149648 0
M  V30 13151 H 1204.82 3.51681 0.0368595 0
M  V30 13152 H 1204.69 3.32731 1.7768 0
M  V30 13153 H 1207.08 2.33582 1.80343 0
M  V30 13154 H 1207.16 2.55751 0.0498282 0
M  V30 13155 H 1206.8 5.06529 0.372872 0
M  V30 13156 H 1206.73 4.81372 2.13515 0
M  V30 13157 H 1209.22 3.59831 1.15455 0
M  V30 13158 H 1209.54 7.52541 1.7579 0
M  V30 13159 H 1207.88 6.76622 1.5877 0
M  V30 13160 H 1211.07 4.48221 1.34966 0
M  V30 13161 H 1211.25 6.27293 1.62502 0
M  V30 13162 N 1204.65 -0.602709 1.4562 0
M  V30 13163 C 1205.9 -1.35769 1.49163 0
M  V30 13164 C 1206.21 -1.95102 0.139485 0
M  V30 13165 O 1207.42 -2.71449 0.0525919 0
M  V30 13166 C 1205.88 -2.45959 2.62739 0
M  V30 13167 C 1205.48 -1.93017 4.04288 0
M  V30 13168 C 1207.23 -3.22926 2.75534 0
M  V30 13169 C 1205.13 -3.00718 5.09237 0
M  V30 13170 H 1204.06 -0.510317 0.555061 0
M  V30 13171 H 1206.72 -0.645434 1.71774 0
M  V30 13172 H 1205.1 -3.19892 2.3342 0
M  V30 13173 H 1206.27 -1.2576 4.43307 0
M  V30 13174 H 1204.59 -1.2878 3.95986 0
M  V30 13175 H 1207.18 -4.03267 3.51112 0
M  V30 13176 H 1207.53 -3.74243 1.82339 0
M  V30 13177 H 1208.06 -2.56095 3.04402 0
M  V30 13178 H 1204.8 -2.54312 6.04157 0
M  V30 13179 H 1204.32 -3.66526 4.74783 0
M  V30 13180 H 1206 -3.65016 5.34202 0
M  V30 13181 N 1206.13 -1.32992 -0.845635 0
M  V30 13182 C 1207.04 -1.24701 -1.98713 0
M  V30 13183 C 1208.06 -0.158864 -1.73273 0
M  V30 13184 O 1209.23 -0.381209 -1.97759 0
M  V30 13185 C 1206.3 -0.979524 -3.32575 0
M  V30 13186 C 1205.36 -2.15701 -3.71176 0
M  V30 13187 C 1204.59 -1.90219 -4.98651 0
M  V30 13188 O 1204.81 -0.849171 -5.64044 0
M  V30 13189 O 1203.75 -2.76571 -5.34595 0
M  V30 13190 H 1207.57 -2.20683 -2.08645 0
M  V30 13191 H 1205.16 -1.12971 -0.97765 0
M  V30 13192 H 1207.04 -0.847219 -4.12796 0
M  V30 13193 H 1205.72 -0.0499398 -3.23661 0
M  V30 13194 H 1204.62 -2.34483 -2.91494 0
M  V30 13195 H 1205.96 -3.0697 -3.84747 0
M  V30 13196 N 1207.61 1.06304 -1.1635 0
M  V30 13197 C 1208.52 2.17296 -0.884289 0
M  V30 13198 C 1209.53 1.73408 0.143414 0
M  V30 13199 O 1210.71 2.01373 -0.0331987 0
M  V30 13200 C 1207.77 3.44509 -0.389163 0
M  V30 13201 C 1206.84 4.02906 -1.48208 0
M  V30 13202 C 1206.07 5.24047 -1.01048 0
M  V30 13203 O 1206.29 5.70229 0.139821 0
M  V30 13204 O 1205.23 5.74394 -1.79876 0
M  V30 13205 H 1209.05 2.4369 -1.81243 0
M  V30 13206 H 1206.64 1.15841 -0.943459 0
M  V30 13207 H 1208.52 4.21229 -0.120018 0
M  V30 13208 H 1207.19 3.19642 0.510968 0
M  V30 13209 H 1206.1 3.27677 -1.80496 0
M  V30 13210 H 1207.43 4.32068 -2.35751 0
M  V30 13211 N 1209.09 0.96196 1.24836 0
M  V30 13212 C 1210.31 0.63814 1.96813 0
M  V30 13213 C 1210.73 -0.79127 1.71419 0
M  V30 13214 O 1210.09 -1.5302 0.994546 0
M  V30 13215 C 1210.14 0.89626 3.50213 0
M  V30 13216 O 1209.86 2.26947 3.74735 0
M  V30 13217 C 1211.36 0.585836 4.39412 0
M  V30 13218 H 1208.58 0.238598 0.627146 0
M  V30 13219 H 1211.12 1.28833 1.58815 0
M  V30 13220 H 1209.28 0.292368 3.86295 0
M  V30 13221 H 1209.69 2.34514 4.69152 0
M  V30 13222 H 1211.17 0.816935 5.45921 0
M  V30 13223 H 1211.64 -0.479784 4.36572 0
M  V30 13224 H 1212.25 1.16938 4.08908 0
M  V30 13225 N 1210.56 -1.39601 0.731392 0
M  V30 13226 C 1211.51 -2.32469 0.0781328 0
M  V30 13227 C 1212.51 -1.52873 -0.729811 0
M  V30 13228 O 1213.71 -1.68563 -0.631402 0
M  V30 13229 H 1210.09 -0.751972 0.00646515 0
M  V30 13230 H 1212.06 -2.85196 0.877833 0
M  V30 13231 C 1210.81 -3.37948 -0.817717 0
M  V30 13232 H 1210.13 -3.99272 -0.205417 0
M  V30 13233 H 1211.57 -4.05387 -1.24248 0
M  V30 13234 C 1210.03 -2.74703 -1.95038 0
M  V30 13235 O 1210.56 -2.62266 -3.04269 0
M  V30 13236 N 1208.76 -2.32845 -1.73872 0
M  V30 13237 H 1208.31 -2.43161 -0.850321 0
M  V30 13238 H 1208.27 -1.90869 -2.49833 0
M  V30 13239 N 1212.04 -0.478751 -1.50152 0
M  V30 13240 C 1213.46 -0.133356 -1.59042 0
M  V30 13241 C 1213.66 1.36069 -1.48618 0
M  V30 13242 O 1212.71 2.13468 -1.34862 0
M  V30 13243 C 1214.03 -0.690369 -2.92668 0
M  V30 13244 C 1215.58 -0.654481 -3.06081 0
M  V30 13245 C 1216.05 -1.18917 -4.42293 0
M  V30 13246 N 1217.54 -1.14891 -4.48725 0
M  V30 13247 C 1218.28 -1.53305 -5.52526 0
M  V30 13248 N 1217.77 -1.99205 -6.63543 0
M  V30 13249 N 1219.57 -1.4486 -5.43113 0
M  V30 13250 H 1211.72 -1.45037 -1.55171 0
M  V30 13251 H 1213.98 -0.600254 -0.733757 0
M  V30 13252 H 1213.69 -1.7373 -3.05795 0
M  V30 13253 H 1213.56 -0.138227 -3.76947 0
M  V30 13254 H 1215.95 0.383564 -2.92597 0
M  V30 13255 H 1216.03 -1.24352 -2.2354 0
M  V30 13256 H 1215.67 -2.22588 -4.56527 0
M  V30 13257 H 1215.6 -0.57628 -5.23437 0
M  V30 13258 H 1218.09 -0.812344 -3.69066 0
M  V30 13259 H 1218.41 -2.26645 -7.38818 0
M  V30 13260 H 1216.75 -2.03164 -6.64642 0
M  V30 13261 H 1219.94 -1.08836 -4.55272 0
M  V30 13262 H 1220.11 -1.75123 -6.23888 0
M  V30 13263 N 1213.52 1.56172 -0.211661 0
M  V30 13264 C 1214.93 1.84307 0.297982 0
M  V30 13265 C 1215.28 1.1328 1.60194 0
M  V30 13266 O 1214.41 0.399137 2.12687 0
M  V30 13267 C 1215 3.34348 0.547428 0
M  V30 13268 C 1213.56 3.62835 1.0014 0
M  V30 13269 C 1212.71 2.77237 0.0590326 0
M  V30 13270 H 1215.66 1.5262 -0.435083 0
M  V30 13271 H 1215.68 3.54018 1.39469 0
M  V30 13272 H 1215.19 3.86015 -0.401778 0
M  V30 13273 H 1213.29 3.16616 1.96431 0
M  V30 13274 H 1213.41 4.70899 0.882653 0
M  V30 13275 H 1211.77 2.48377 0.564005 0
M  V30 13276 H 1212.55 3.31699 -0.884913 0
M  V30 13277 N 1215 -0.0618163 1.57479 0
M  V30 13278 C 1215.93 -1.10452 1.99689 0
M  V30 13279 C 1216.91 -1.37019 0.875473 0
M  V30 13280 O 1218.09 -1.50226 1.13862 0
M  V30 13281 C 1215.22 -2.44669 2.34211 0
M  V30 13282 C 1214.27 -2.34172 3.56463 0
M  V30 13283 S 1215.1 -1.7263 5.06911 0
M  V30 13284 C 1216.26 -3.08405 5.44644 0
M  V30 13285 H 1216.49 -0.744843 2.87818 0
M  V30 13286 H 1214.02 -0.270698 1.52008 0
M  V30 13287 H 1215.98 -3.2187 2.54774 0
M  V30 13288 H 1214.64 -2.77794 1.46592 0
M  V30 13289 H 1213.83 -3.33175 3.78167 0
M  V30 13290 H 1213.44 -1.65109 3.35582 0
M  V30 13291 H 1215.73 -4.04727 5.43325 0
M  V30 13292 H 1216.67 -2.9147 6.4533 0
M  V30 13293 H 1217.08 -3.0947 4.72111 0
M  V30 13294 N 1216.48 -1.54033 -0.333429 0
M  V30 13295 C 1217.42 -1.82729 -1.40992 0
M  V30 13296 C 1218.39 -0.673677 -1.51825 0
M  V30 13297 O 1219.58 -0.919126 -1.67203 0
M  V30 13298 C 1216.72 -2.05155 -2.77498 0
M  V30 13299 C 1215.83 -3.32854 -2.75376 0
M  V30 13300 C 1214.97 -3.45294 -4.03665 0
M  V30 13301 C 1214.01 -4.66905 -3.95811 0
M  V30 13302 N 1213.14 -4.76323 -5.1581 0
M  V30 13303 H 1217.98 -2.74572 -1.15821 0
M  V30 13304 H 1215.52 -1.35988 -0.560859 0
M  V30 13305 H 1217.48 -2.16148 -3.56841 0
M  V30 13306 H 1216.11 -1.16615 -3.01 0
M  V30 13307 H 1215.16 -3.30651 -1.88081 0
M  V30 13308 H 1216.47 -4.22299 -2.65453 0
M  V30 13309 H 1215.63 -3.55775 -4.91436 0
M  V30 13310 H 1214.36 -2.53924 -4.16382 0
M  V30 13311 H 1213.37 -4.56491 -3.06425 0
M  V30 13312 H 1214.59 -5.59649 -3.84668 0
M  V30 13313 H 1212.54 -3.87866 -5.29052 0
M  V30 13314 H 1212.46 -5.59719 -5.08184 0
M  V30 13315 H 1213.73 -4.91125 -6.05324 0
M  V30 13316 N 1217.95 0.594978 -1.45938 0
M  V30 13317 C 1218.9 1.70489 -1.5557 0
M  V30 13318 C 1219.87 1.61193 -0.400751 0
M  V30 13319 O 1221.06 1.80587 -0.615882 0
M  V30 13320 C 1218.2 3.08817 -1.54033 0
M  V30 13321 C 1217.31 3.28827 -2.80173 0
M  V30 13322 C 1216.44 4.57333 -2.70222 0
M  V30 13323 C 1215.48 4.70644 -3.91357 0
M  V30 13324 N 1214.62 5.90463 -3.79865 0
M  V30 13325 H 1219.46 1.61593 -2.50383 0
M  V30 13326 H 1217 0.787747 -1.24229 0
M  V30 13327 H 1218.96 3.88865 -1.51129 0
M  V30 13328 H 1217.59 3.1664 -0.627617 0
M  V30 13329 H 1216.64 2.42467 -2.9311 0
M  V30 13330 H 1217.95 3.34534 -3.69985 0
M  V30 13331 H 1217.1 5.45593 -2.65354 0
M  V30 13332 H 1215.84 4.54045 -1.7803 0
M  V30 13333 H 1214.85 3.80805 -3.9657 0
M  V30 13334 H 1216.07 4.75721 -4.8463 0
M  V30 13335 H 1214.02 5.88196 -2.90451 0
M  V30 13336 H 1213.94 5.97385 -4.63322 0
M  V30 13337 H 1215.2 6.81187 -3.78952 0
M  V30 13338 N 1219.43 1.33438 0.838571 0
M  V30 13339 C 1220.68 1.25097 1.5962 0
M  V30 13340 C 1221.01 -0.182798 1.93338 0
M  V30 13341 O 1220.29 -1.1242 1.5872 0
M  V30 13342 C 1220.57 2.12655 2.90603 0
M  V30 13343 C 1220.42 3.64491 2.63565 0
M  V30 13344 C 1221.74 1.99994 3.92033 0
M  V30 13345 H 1218.86 0.455776 0.579169 0
M  V30 13346 H 1221.5 1.63542 0.967169 0
M  V30 13347 H 1219.65 1.79998 3.44286 0
M  V30 13348 H 1221.32 4.0744 2.16312 0
M  V30 13349 H 1219.57 3.86356 1.9726 0
M  V30 13350 H 1220.24 4.21101 3.569 0
M  V30 13351 H 1222.71 2.28635 3.47657 0
M  V30 13352 H 1221.59 2.63509 4.81512 0
M  V30 13353 H 1221.85 0.972263 4.31277 0
M  V30 13354 N 1220.91 -1.05686 1.16912 0
M  V30 13355 C 1222.14 -1.82282 0.978811 0
M  V30 13356 C 1222.55 -1.8278 -0.472972 0
M  V30 13357 O 1221.91 -1.25143 -1.32836 0
M  V30 13358 C 1221.96 -3.28623 1.50629 0
M  V30 13359 O 1221.68 -3.28269 2.90122 0
M  V30 13360 C 1223.18 -4.21927 1.35987 0
M  V30 13361 H 1220.4 -0.574558 0.346588 0
M  V30 13362 H 1222.95 -1.33301 1.55084 0
M  V30 13363 H 1221.1 -3.74893 0.976404 0
M  V30 13364 H 1221.52 -4.19824 3.14401 0
M  V30 13365 H 1222.99 -5.2261 1.77716 0
M  V30 13366 H 1223.47 -4.38131 0.30626 0
M  V30 13367 H 1224.07 -3.81508 1.87968 0
M  V30 13368 N 1222.39 -0.968567 -1.24324 0
M  V30 13369 C 1223.67 -0.547774 -1.87773 0
M  V30 13370 C 1224.05 0.975107 -1.87229 0
M  V30 13371 O 1223.39 1.84683 -1.34553 0
M  V30 13372 C 1223.6 -1.1403 -3.29846 0
M  V30 13373 C 1224.95 -1.22572 -4.06523 0
M  V30 13374 O 1225.98 -1.09287 -3.3902 0
M  V30 13375 O 1224.83 -1.43579 -5.27302 0
M  V30 13376 H 1221.93 -0.182771 -0.806551 0
M  V30 13377 H 1224.47 -1.06289 -1.3229 0
M  V30 13378 H 1223.25 -2.18303 -3.24745 0
M  V30 13379 H 1222.87 -0.609275 -3.92904 0
M  V30 13380 N 1223.87 1.39211 -0.738786 0
M  V30 13381 C 1225.1 2.04435 -0.298318 0
M  V30 13382 C 1225.5 1.55822 1.07314 0
M  V30 13383 O 1224.85 0.719922 1.69005 0
M  V30 13384 C 1224.91 3.58789 -0.225979 0
M  V30 13385 C 1224.57 4.30395 -1.53653 0
M  V30 13386 C 1225.57 4.56777 -2.48295 0
M  V30 13387 C 1223.26 4.68869 -1.80187 0
M  V30 13388 C 1225.25 5.20648 -3.67702 0
M  V30 13389 C 1222.94 5.32467 -2.99871 0
M  V30 13390 C 1223.93 5.58289 -3.93449 0
M  V30 13391 O 1223.62 6.20567 -5.1103 0
M  V30 13392 H 1223.35 0.663848 -0.127603 0
M  V30 13393 H 1225.91 1.79171 -1.00433 0
M  V30 13394 H 1224.14 3.82965 0.536164 0
M  V30 13395 H 1225.83 4.05487 0.182996 0
M  V30 13396 H 1226.59 4.27497 -2.29066 0
M  V30 13397 H 1222.47 4.48124 -1.08193 0
M  V30 13398 H 1226.02 5.4072 -4.40759 0
M  V30 13399 H 1221.91 5.61169 -3.18998 0
M  V30 13400 H 1222.68 6.39059 -5.11415 0
M  V30 13401 N 1225.34 0.486708 1.49896 0
M  V30 13402 C 1226.57 -0.0622999 2.07306 0
M  V30 13403 C 1226.99 -1.31353 1.3464 0
M  V30 13404 O 1226.35 -1.76861 0.398752 0
M  V30 13405 C 1226.4 -0.313481 3.59235 0
M  V30 13406 O 1225.5 -1.39101 3.88233 0
M  V30 13407 H 1224.85 0.0198885 0.663702 0
M  V30 13408 H 1227.38 0.682232 1.92891 0
M  V30 13409 H 1227.39 -0.549302 4.04285 0
M  V30 13410 H 1226.06 0.600767 4.11538 0
M  V30 13411 H 1224.64 -1.14127 3.55006 0
M  V30 13412 N 1226.82 -1.56058 0.219941 0
M  V30 13413 C 1228.05 -2.031 -0.42014 0
M  V30 13414 C 1228.47 -1.09875 -1.52673 0
M  V30 13415 O 1227.83 -0.0866458 -1.81093 0
M  V30 13416 C 1227.88 -3.48389 -0.93047 0
M  V30 13417 O 1226.98 -3.583 -2.04192 0
M  V30 13418 H 1226.32 -0.657129 -0.0952772 0
M  V30 13419 H 1228.85 -2.01787 0.338105 0
M  V30 13420 H 1228.86 -3.88678 -1.2407 0
M  V30 13421 H 1227.54 -4.15725 -0.120539 0
M  V30 13422 H 1226.12 -3.29898 -1.73845 0
M  V30 13423 N 1228.3 0.053464 -1.57509 0
M  V30 13424 C 1229.53 0.765301 -1.92764 0
M  V30 13425 C 1229.95 1.69385 -0.817943 0
M  V30 13426 O 1229.31 1.7986 0.228075 0
M  V30 13427 C 1229.36 1.51938 -3.27028 0
M  V30 13428 O 1228.46 2.63121 -3.17555 0
M  V30 13429 H 1227.8 0.207567 -0.630723 0
M  V30 13430 H 1230.33 0.0162254 -2.04594 0
M  V30 13431 H 1230.34 1.89466 -3.6134 0
M  V30 13432 H 1229.02 0.838207 -4.07366 0
M  V30 13433 H 1227.59 2.28316 -2.94832 0
M  V30 13434 N 1229.78 1.54207 0.325255 0
M  V30 13435 C 1231 1.7661 1.08736 0
M  V30 13436 C 1231.43 0.512449 1.80985 0
M  V30 13437 O 1230.79 -0.535913 1.73198 0
M  V30 13438 C 1230.84 2.95797 2.06243 0
M  V30 13439 O 1229.94 2.67225 3.14109 0
M  V30 13440 H 1229.28 0.585282 0.313593 0
M  V30 13441 H 1231.81 2.01225 0.370066 0
M  V30 13442 H 1231.82 3.23097 2.49143 0
M  V30 13443 H 1230.5 3.86712 1.53058 0
M  V30 13444 H 1229.07 2.50869 2.75897 0
M  V30 13445 N 1231.26 -0.58723 1.46251 0
M  V30 13446 C 1232.17 -1.72455 1.59048 0
M  V30 13447 C 1233.18 -1.67416 0.47413 0
M  V30 13448 O 1234.36 -1.87406 0.737633 0
M  V30 13449 C 1231.42 -3.08953 1.57318 0
M  V30 13450 C 1230.49 -3.25291 2.80151 0
M  V30 13451 C 1229.72 -4.55277 2.78493 0
M  V30 13452 O 1229.94 -5.38883 1.8698 0
M  V30 13453 O 1228.88 -4.74765 3.69975 0
M  V30 13454 H 1232.7 -1.64606 2.55223 0
M  V30 13455 H 1230.29 -0.753742 1.28993 0
M  V30 13456 H 1232.17 -3.90239 1.59033 0
M  V30 13457 H 1230.84 -3.17249 0.643025 0
M  V30 13458 H 1229.75 -2.43515 2.83991 0
M  V30 13459 H 1231.08 -3.21883 3.7236 0
M  V30 13460 N 1232.74 -1.33881 -0.831482 0
M  V30 13461 C 1233.65 -1.26802 -1.97379 0
M  V30 13462 C 1234.66 -0.177233 -1.73095 0
M  V30 13463 O 1235.84 -0.402163 -1.97344 0
M  V30 13464 C 1232.9 -1.01474 -3.31517 0
M  V30 13465 C 1231.96 -2.19626 -3.68867 0
M  V30 13466 C 1231.2 -1.95497 -4.96605 0
M  V30 13467 O 1231.42 -0.908948 -5.63111 0
M  V30 13468 O 1230.35 -2.82226 -5.31632 0
M  V30 13469 H 1234.18 -2.22883 -2.06293 0
M  V30 13470 H 1231.76 -1.14001 -0.965613 0
M  V30 13471 H 1233.65 -0.890954 -4.11874 0
M  V30 13472 H 1232.32 -0.0842656 -3.2359 0
M  V30 13473 H 1231.23 -2.37561 -2.88991 0
M  V30 13474 H 1232.56 -3.11034 -3.81469 0
M  V30 13475 N 1234.21 1.05064 -1.1747 0
M  V30 13476 C 1235.44 1.82299 -0.98903 0
M  V30 13477 C 1235.86 1.82441 0.457907 0
M  V30 13478 O 1235.22 1.23433 1.32793 0
M  V30 13479 C 1235.27 3.26239 -1.53624 0
M  V30 13480 O 1234.37 4.05507 -0.750857 0
M  V30 13481 H 1233.71 0.563601 -0.35107 0
M  V30 13482 H 1236.24 1.32386 -1.55997 0
M  V30 13483 H 1236.25 3.77038 -1.55906 0
M  V30 13484 H 1234.93 3.25451 -2.58949 0
M  V30 13485 H 1233.51 3.64227 -0.799548 0
M  V30 13486 N 1235.69 0.975146 1.23809 0
M  V30 13487 C 1236.6 0.51917 2.28783 0
M  V30 13488 C 1237.62 -0.423487 1.68768 0
M  V30 13489 O 1238.79 -0.294699 1.99232 0
M  V30 13490 C 1235.86 -0.176229 3.46252 0
M  V30 13491 C 1234.92 0.807177 4.21643 0
M  V30 13492 C 1234.15 0.144869 5.33503 0
M  V30 13493 O 1234.38 -1.06522 5.60365 0
M  V30 13494 O 1233.31 0.84079 5.95999 0
M  V30 13495 H 1237.14 1.39204 2.69919 0
M  V30 13496 H 1234.72 0.74253 1.29641 0
M  V30 13497 H 1236.6 -0.566547 4.17574 0
M  V30 13498 H 1235.28 -1.02394 3.07078 0
M  V30 13499 H 1234.18 1.2481 3.52666 0
M  V30 13500 H 1235.52 1.62354 4.64653 0
M  V30 13501 N 1237.17 -1.38817 0.746158 0
M  V30 13502 C 1238.39 -2.05096 0.308302 0
M  V30 13503 C 1238.82 -1.55902 -1.05244 0
M  V30 13504 O 1238.18 -0.707685 -1.66918 0
M  V30 13505 C 1238.23 -3.59068 0.332016 0
M  V30 13506 O 1237.33 -4.06813 -0.676547 0
M  V30 13507 H 1236.67 -0.649523 0.1379 0
M  V30 13508 H 1239.2 -1.77637 1.0152 0
M  V30 13509 H 1239.21 -4.07601 0.180293 0
M  V30 13510 H 1237.89 -3.94234 1.32487 0
M  V30 13511 H 1236.46 -3.69666 -0.490046 0
M  V30 13512 N 1238.65 -0.49465 -1.49636 0
M  V30 13513 C 1239.87 0.051305 -2.07337 0
M  V30 13514 C 1240.3 1.30637 -1.35335 0
M  V30 13515 O 1239.66 1.76647 -0.408126 0
M  V30 13516 C 1239.7 0.294425 -3.59396 0
M  V30 13517 O 1238.81 1.3704 -3.88965 0
M  V30 13518 H 1238.15 -0.023408 -0.663587 0
M  V30 13519 H 1240.68 -0.692451 -1.92526 0
M  V30 13520 H 1240.69 0.527854 -4.04571 0
M  V30 13521 H 1239.36 -0.622583 -4.11214 0
M  V30 13522 H 1237.94 1.12242 -3.55607 0
M  V30 13523 N 1240.13 1.55939 -0.228214 0
M  V30 13524 C 1241.04 2.24213 0.690339 0
M  V30 13525 C 1242.05 1.25197 1.20838 0
M  V30 13526 O 1243.23 1.58026 1.24859 0
M  V30 13527 C 1240.29 2.91384 1.87873 0
M  V30 13528 C 1239.35 4.05761 1.40201 0
M  V30 13529 C 1238.59 4.6972 2.53376 0
M  V30 13530 O 1238.81 4.32687 3.71669 0
M  V30 13531 O 1237.74 5.58587 2.24198 0
M  V30 13532 H 1241.57 3.03383 0.138692 0
M  V30 13533 H 1239.15 1.494 0.00251504 0
M  V30 13534 H 1241.04 3.33758 2.57262 0
M  V30 13535 H 1239.71 2.15168 2.41835 0
M  V30 13536 H 1238.62 3.67943 0.675945 0
M  V30 13537 H 1239.95 4.83739 0.908691 0
M  V30 13538 N 1241.6 -0.0451101 1.57535 0
M  V30 13539 C 1242.51 -1.06796 2.08882 0
M  V30 13540 C 1243.53 -1.40682 1.02394 0
M  V30 13541 O 1244.71 -1.50324 1.34033 0
M  V30 13542 C 1241.77 -2.35467 2.54472 0
M  V30 13543 C 1240.83 -2.0831 3.75374 0
M  V30 13544 C 1240.07 -3.30846 4.1878 0
M  V30 13545 O 1240.29 -4.40945 3.61834 0
M  V30 13546 O 1239.22 -3.17488 5.11356 0
M  V30 13547 H 1243.05 -0.661658 2.96405 0
M  V30 13548 H 1240.63 -0.26104 1.47102 0
M  V30 13549 H 1242.52 -3.11143 2.84198 0
M  V30 13550 H 1241.19 -2.75425 1.70068 0
M  V30 13551 H 1240.1 -1.30254 3.50692 0
M  V30 13552 H 1241.43 -1.73218 4.60713 0
M  V30 13553 N 1243.08 -1.54377 -0.317073 0
M  V30 13554 C 1243.99 -1.87247 -1.41335 0
M  V30 13555 C 1245.01 -0.765017 -1.5628 0
M  V30 13556 O 1246.18 -1.05994 -1.71252 0
M  V30 13557 C 1243.25 -2.0988 -2.75955 0
M  V30 13558 C 1242.31 -3.33658 -2.70131 0
M  V30 13559 C 1241.54 -3.55202 -3.9833 0
M  V30 13560 O 1241.77 -2.80061 -4.96913 0
M  V30 13561 O 1240.7 -4.48693 -4.01196 0
M  V30 13562 H 1244.53 -2.80481 -1.16465 0
M  V30 13563 H 1242.11 -1.40364 -0.511687 0
M  V30 13564 H 1243.99 -2.2606 -3.55633 0
M  V30 13565 H 1242.67 -1.19834 -3.00702 0
M  V30 13566 H 1241.58 -3.22857 -1.88981 0
M  V30 13567 H 1242.91 -4.23782 -2.50338 0
M  V30 13568 N 1244.56 0.579466 -1.4656 0
M  V30 13569 C 1245.47 1.71609 -1.59961 0
M  V30 13570 C 1246.49 1.67162 -0.483002 0
M  V30 13571 O 1247.66 1.87012 -0.747561 0
M  V30 13572 C 1244.73 3.08114 -1.58954 0
M  V30 13573 C 1243.79 3.238 -2.81872 0
M  V30 13574 C 1243.02 4.53794 -2.80904 0
M  V30 13575 O 1243.24 5.37884 -1.89835 0
M  V30 13576 O 1242.18 4.72796 -3.72488 0
M  V30 13577 H 1246 1.6325 -2.56092 0
M  V30 13578 H 1243.59 0.746891 -1.2939 0
M  V30 13579 H 1245.47 3.8939 -1.611 0
M  V30 13580 H 1244.15 3.16903 -0.65984 0
M  V30 13581 H 1243.05 2.42006 -2.85279 0
M  V30 13582 H 1244.39 3.19904 -3.74062 0
M  V30 13583 N 1246.04 1.3432 0.824371 0
M  V30 13584 C 1246.95 1.27847 1.96704 0
M  V30 13585 C 1247.96 0.18641 1.72999 0
M  V30 13586 O 1249.14 0.412623 1.97128 0
M  V30 13587 C 1246.21 1.03231 3.30975 0
M  V30 13588 C 1245.27 2.21579 3.67697 0
M  V30 13589 C 1244.5 1.98128 4.95561 0
M  V30 13590 O 1244.72 0.938798 5.62621 0
M  V30 13591 O 1243.66 2.85041 5.30128 0
M  V30 13592 H 1247.48 2.23974 2.05108 0
M  V30 13593 H 1245.07 1.14512 0.959554 0
M  V30 13594 H 1246.95 0.912784 4.11395 0
M  V30 13595 H 1245.62 0.101425 3.23541 0
M  V30 13596 H 1244.53 2.3909 2.87727 0
M  V30 13597 H 1245.86 3.13052 3.79815 0
M  V30 13598 N 1247.52 -1.0444 1.18026 0
M  V30 13599 C 1248.79 -1.74533 0.883045 0
M  V30 13600 C 1249.17 -2.01944 -0.614975 0
M  V30 13601 O 1248.52 -1.66158 -1.56855 0
M  V30 13602 C 1248.73 -3.0332 1.72621 0
M  V30 13603 C 1250.08 -3.77128 1.9509 0
M  V30 13604 O 1251.1 -3.13209 1.69643 0
M  V30 13605 O 1249.96 -4.92001 2.37903 0
M  V30 13606 H 1247.06 -0.759315 0.327673 0
M  V30 13607 H 1249.6 -1.10539 1.2876 0
M  V30 13608 H 1248.37 -2.79171 2.74188 0
M  V30 13609 H 1248 -3.75052 1.31993 0
M  V30 13610 N 1248.99 -0.981699 -1.2329 0
M  V30 13611 C 1250.24 -0.650015 -1.91361 0
M  V30 13612 C 1250.56 0.819184 -1.76959 0
M  V30 13613 O 1249.83 1.5861 -1.14977 0
M  V30 13614 H 1248.41 -0.237427 -0.708264 0
M  V30 13615 H 1251.08 -1.24579 -1.49887 0
M  V30 13616 H 1250.17 -0.902772 -2.98758 0
M  V30 13617 N 1250.47 1.3842 -0.753509 0
M  V30 13618 C 1251.38 2.34252 -0.127811 0
M  V30 13619 C 1252.4 1.59266 0.700743 0
M  V30 13620 O 1253.57 1.9146 0.624914 0
M  V30 13621 C 1250.64 3.38382 0.754886 0
M  V30 13622 C 1249.7 4.2921 -0.0880312 0
M  V30 13623 C 1248.93 5.28367 0.75263 0
M  V30 13624 O 1249.16 5.34537 1.99064 0
M  V30 13625 O 1248.09 6.01656 0.171475 0
M  V30 13626 H 1251.92 2.89454 -0.91925 0
M  V30 13627 H 1249.5 1.40265 -0.514404 0
M  V30 13628 H 1251.38 4.02141 1.25938 0
M  V30 13629 H 1250.06 2.85536 1.52482 0
M  V30 13630 H 1248.97 3.68611 -0.638468 0
M  V30 13631 H 1250.3 4.85311 -0.82062 0
M  V30 13632 N 1251.95 0.502579 1.49372 0
M  V30 13633 C 1253.18 -0.0403087 2.07361 0
M  V30 13634 C 1253.6 -1.29918 1.36026 0
M  V30 13635 O 1252.96 -1.76428 0.417488 0
M  V30 13636 C 1253.01 -0.275362 3.59547 0
M  V30 13637 O 1252.11 -1.34975 3.89686 0
M  V30 13638 H 1251.45 0.0269268 0.663454 0
M  V30 13639 H 1253.98 0.702652 1.92156 0
M  V30 13640 H 1253.99 -0.506392 4.04845 0
M  V30 13641 H 1252.67 0.644382 4.10878 0
M  V30 13642 H 1251.24 -1.10355 3.56197 0
M  V30 13643 N 1253.43 -1.55816 0.23648 0
M  V30 13644 C 1254.34 -2.24576 -0.678439 0
M  V30 13645 C 1255.35 -1.25836 -1.20172 0
M  V30 13646 O 1256.53 -1.58686 -1.24019 0
M  V30 13647 C 1253.6 -2.92376 -1.86325 0
M  V30 13648 C 1252.66 -4.06499 -1.38047 0
M  V30 13649 C 1251.89 -4.71057 -2.50881 0
M  V30 13650 O 1252.11 -4.34652 -3.69369 0
M  V30 13651 O 1251.05 -5.59768 -2.21232 0
M  V30 13652 H 1254.87 -3.03452 -0.122601 0
M  V30 13653 H 1252.46 -1.49399 0.00540803 0
M  V30 13654 H 1254.34 -3.35117 -2.55488 0
M  V30 13655 H 1253.01 -2.16448 -2.40691 0
M  V30 13656 H 1251.92 -3.68296 -0.656422 0
M  V30 13657 H 1253.25 -4.84214 -0.883024 0
M  V30 13658 N 1254.91 0.036755 -1.57557 0
M  V30 13659 C 1256.13 0.741086 -1.93172 0
M  V30 13660 C 1256.55 1.69303 -0.835589 0
M  V30 13661 O 1255.91 1.81523 0.1886 0
M  V30 13662 C 1255.96 1.50477 -3.28693 0
M  V30 13663 O 1255.68 0.591046 -4.34095 0
M  V30 13664 C 1257.18 2.30695 -3.78543 0
M  V30 13665 H 1254.4 0.208731 -0.637709 0
M  V30 13666 H 1256.94 -0.00342776 -2.045 0
M  V30 13667 H 1255.1 2.20123 -3.18786 0
M  V30 13668 H 1255.51 1.12579 -5.12276 0
M  V30 13669 H 1256.99 2.79685 -4.759 0
M  V30 13670 H 1257.46 3.11778 -3.0934 0
M  V30 13671 H 1258.07 1.66138 -3.91508 0
M  V30 13672 N 1256.39 1.54543 0.308881 0
M  V30 13673 C 1257.34 1.81332 1.38212 0
M  V30 13674 C 1258.32 0.670056 1.46284 0
M  V30 13675 O 1259.51 0.930476 1.50569 0
M  V30 13676 C 1256.64 2.05713 2.7484 0
M  V30 13677 C 1255.73 3.26202 2.71023 0
M  V30 13678 N 1256.12 4.46933 2.36822 0
M  V30 13679 C 1254.42 3.28071 3.02135 0
M  V30 13680 C 1255.12 5.28923 2.42106 0
M  V30 13681 N 1254.09 4.66455 2.79143 0
M  V30 13682 H 1257.89 2.72246 1.10722 0
M  V30 13683 H 1255.41 1.53936 0.51743 0
M  V30 13684 H 1257.41 2.23049 3.52214 0
M  V30 13685 H 1256.07 1.16062 3.03249 0
M  V30 13686 H 1257.08 4.73674 2.09413 0
M  V30 13687 H 1253.75 2.48501 3.3549 0
M  V30 13688 H 1255.14 6.35369 2.1853 0
M  V30 13689 N 1257.86 -0.571685 1.46866 0
M  V30 13690 C 1259.14 -1.33216 1.43223 0
M  V30 13691 C 1259.52 -2.1075 0.121495 0
M  V30 13692 O 1258.87 -2.10157 -0.897003 0
M  V30 13693 C 1259.08 -2.24888 2.66882 0
M  V30 13694 C 1260.43 -2.86369 3.13493 0
M  V30 13695 O 1261.45 -2.35197 2.67509 0
M  V30 13696 O 1260.31 -3.79342 3.93398 0
M  V30 13697 H 1257.4 -0.599106 0.570089 0
M  V30 13698 H 1259.95 -0.591788 1.59047 0
M  V30 13699 H 1258.72 -1.67099 3.53827 0
M  V30 13700 H 1258.34 -3.06246 2.53573 0
M  V30 13701 N 1259.34 -1.34755 -0.817236 0
M  V30 13702 C 1260.59 -1.2718 -1.57066 0
M  V30 13703 C 1260.91 0.156531 -1.94371 0
M  V30 13704 O 1260.18 1.09049 -1.62742 0
M  V30 13705 H 1258.76 -0.467755 -0.582421 0
M  V30 13706 H 1261.42 -1.68734 -0.975438 0
M  V30 13707 H 1260.52 -1.88043 -2.49091 0
M  V30 13708 N 1260.82 1.03812 -1.18578 0
M  V30 13709 C 1262.05 1.80702 -1.00769 0
M  V30 13710 C 1262.46 1.83509 0.443833 0
M  V30 13711 O 1261.82 1.2724 1.30829 0
M  V30 13712 C 1261.87 3.26185 -1.55838 0
M  V30 13713 O 1261.59 3.23612 -2.95308 0
M  V30 13714 C 1263.09 4.1971 -1.42682 0
M  V30 13715 H 1260.31 0.568972 -0.355685 0
M  V30 13716 H 1262.86 1.30817 -1.57185 0
M  V30 13717 H 1261.01 3.73293 -1.03592 0
M  V30 13718 H 1261.43 4.14769 -3.2104 0
M  V30 13719 H 1262.9 5.19716 -1.86008 0
M  V30 13720 H 1263.38 4.37588 -0.375924 0
M  V30 13721 H 1263.98 3.78469 -1.94013 0
M  V30 13722 N 1262.3 0.988223 1.22768 0
M  V30 13723 C 1263.54 0.662441 1.91676 0
M  V30 13724 C 1263.88 -0.802931 1.76824 0
M  V30 13725 O 1263.15 -1.58011 1.13415 0
M  V30 13726 C 1263.43 1.06332 3.44043 0
M  V30 13727 C 1263.29 2.5869 3.67967 0
M  V30 13728 C 1264.61 0.613058 4.35809 0
M  V30 13729 H 1261.73 0.242132 0.69609 0
M  V30 13730 H 1264.37 1.23091 1.44736 0
M  V30 13731 H 1262.52 0.579623 3.84152 0
M  V30 13732 H 1264.19 3.14694 3.37291 0
M  V30 13733 H 1262.43 3.00971 3.12408 0
M  V30 13734 H 1263.1 2.8179 4.74656 0
M  V30 13735 H 1265.58 1.02846 4.0319 0
M  V30 13736 H 1264.46 0.921901 5.41103 0
M  V30 13737 H 1264.72 -0.48641 4.39416 0
M  V30 13738 N 1263.78 -1.38018 0.760839 0
M  V30 13739 C 1264.74 -2.28734 0.146154 0
M  V30 13740 C 1265.74 -1.47525 -0.639768 0
M  V30 13741 O 1266.93 -1.6788 -0.464964 0
M  V30 13742 C 1264.06 -3.31356 -0.801019 0
M  V30 13743 H 1265.25 -2.84599 0.945692 0
M  V30 13744 H 1262.81 -1.471 0.528323 0
M  V30 13745 H 1263.54 -2.80594 -1.62597 0
M  V30 13746 H 1263.33 -3.91366 -0.239775 0
M  V30 13747 H 1264.82 -3.99171 -1.22687 0
M  V30 13748 N 1265.25 -0.510493 -1.49103 0
M  V30 13749 C 1266.5 0.030689 -2.02777 0
M  V30 13750 C 1266.83 1.35765 -1.38858 0
M  V30 13751 O 1266.11 1.87209 -0.527528 0
M  V30 13752 C 1266.39 0.173261 -3.59683 0
M  V30 13753 C 1266.24 -1.17749 -4.34114 0
M  V30 13754 C 1267.56 0.909395 -4.30602 0
M  V30 13755 H 1264.68 0.0096789 -0.736936 0
M  V30 13756 H 1267.32 -0.663746 -1.78029 0
M  V30 13757 H 1265.47 0.764721 -3.80899 0
M  V30 13758 H 1267.15 -1.80856 -4.24369 0
M  V30 13759 H 1265.39 -1.76438 -3.96298 0
M  V30 13760 H 1266.06 -1.03094 -5.42287 0
M  V30 13761 H 1268.54 0.407677 -4.14098 0
M  V30 13762 H 1267.41 0.978012 -5.40117 0
M  V30 13763 H 1267.67 1.9553 -3.96511 0
M  V30 13764 N 1266.73 1.55688 -0.24474 0
M  V30 13765 C 1267.96 2.03743 0.387776 0
M  V30 13766 C 1268.38 1.1229 1.50906 0
M  V30 13767 O 1267.74 0.115445 1.80932 0
M  V30 13768 C 1267.79 3.49825 0.874927 0
M  V30 13769 O 1266.89 3.61504 1.98466 0
M  V30 13770 H 1266.23 0.658561 0.0848107 0
M  V30 13771 H 1268.76 2.01224 -0.370165 0
M  V30 13772 H 1268.77 3.90603 1.17871 0
M  V30 13773 H 1267.45 4.15864 0.0543852 0
M  V30 13774 H 1266.02 3.32622 1.68574 0
M  V30 13775 N 1268.21 -0.0283989 1.57574 0
M  V30 13776 C 1269.49 -0.754527 1.80461 0
M  V30 13777 C 1269.87 -1.93539 0.842966 0
M  V30 13778 O 1269.21 -2.28212 -0.114714 0
M  V30 13779 C 1269.42 -1.18694 3.28196 0
M  V30 13780 C 1270.77 -1.60257 3.93196 0
M  V30 13781 O 1271.8 -1.2815 3.32349 0
M  V30 13782 O 1270.66 -2.19853 5.00327 0
M  V30 13783 H 1267.75 -0.364936 0.742126 0
M  V30 13784 H 1270.3 -0.00512589 1.69699 0
M  V30 13785 H 1269.07 -0.34398 3.89785 0
M  V30 13786 H 1268.69 -1.99633 3.43849 0
M  V30 13787 N 1269.69 -1.54705 -0.300681 0
M  V30 13788 C 1270.94 -1.73211 -1.03349 0
M  V30 13789 C 1271.25 -0.52518 -1.88418 0
M  V30 13790 O 1272.46 -0.592049 -2.64966 0
M  V30 13791 C 1270.91 -3.06453 -1.88717 0
M  V30 13792 C 1270.52 -4.34625 -1.0865 0
M  V30 13793 C 1272.26 -3.34317 -2.61595 0
M  V30 13794 C 1270.17 -5.58919 -1.93297 0
M  V30 13795 H 1269.1 -0.64556 -0.389574 0
M  V30 13796 H 1271.75 -1.81186 -0.290472 0
M  V30 13797 H 1270.13 -2.92443 -2.67008 0
M  V30 13798 H 1271.31 -4.59471 -0.349707 0
M  V30 13799 H 1269.62 -4.13699 -0.473521 0
M  V30 13800 H 1272.22 -4.2438 -3.25278 0
M  V30 13801 H 1272.56 -2.53207 -3.30442 0
M  V30 13802 H 1273.1 -3.493 -1.90354 0
M  V30 13803 H 1269.83 -6.42697 -1.2892 0
M  V30 13804 H 1269.35 -5.38258 -2.64647 0
M  V30 13805 H 1271.03 -5.96187 -2.51336 0
M  V30 13806 N 1271.17 0.563888 -1.47167 0
M  V30 13807 C 1272.58 1.14603 -1.47388 0
M  V30 13808 C 1272.93 1.94907 -0.224916 0
M  V30 13809 O 1272.05 2.05745 0.670672 0
M  V30 13810 C 1272.65 2.08501 -2.67044 0
M  V30 13811 C 1271.21 2.62 -2.70246 0
M  V30 13812 C 1270.35 1.38244 -2.40383 0
M  V30 13813 H 1273.31 0.350833 -1.54774 0
M  V30 13814 H 1273.33 2.92272 -2.43634 0
M  V30 13815 H 1272.84 1.50027 -3.57929 0
M  V30 13816 H 1270.94 3.24292 -1.83482 0
M  V30 13817 H 1271.05 3.0345 -3.70749 0
M  V30 13818 H 1269.42 1.68692 -1.90827 0
M  V30 13819 H 1270.2 0.815726 -3.33468 0
M  V30 13820 N 1272.64 1.35187 0.810078 0
M  V30 13821 C 1274.06 1.15149 1.10512 0
M  V30 13822 C 1274.26 -0.038394 2.01463 0
M  V30 13823 O 1273.32 -0.710056 2.42311 0
M  V30 13824 C 1274.63 2.45282 1.73946 0
M  V30 13825 C 1276.18 2.51457 1.86382 0
M  V30 13826 C 1276.65 3.81625 2.53232 0
M  V30 13827 N 1278.14 3.82856 2.6072 0
M  V30 13828 C 1278.88 4.80302 3.13206 0
M  V30 13829 N 1278.37 5.88134 3.66156 0
M  V30 13830 N 1280.17 4.67743 3.11726 0
M  V30 13831 H 1272.32 2.11405 0.205391 0
M  V30 13832 H 1274.58 0.935457 0.153702 0
M  V30 13833 H 1274.29 3.32512 1.14582 0
M  V30 13834 H 1274.16 2.59573 2.73682 0
M  V30 13835 H 1276.55 1.64659 2.44891 0
M  V30 13836 H 1276.63 2.41084 0.855113 0
M  V30 13837 H 1276.27 4.68819 1.95375 0
M  V30 13838 H 1276.2 3.89285 3.54633 0
M  V30 13839 H 1278.69 3.04941 2.23203 0
M  V30 13840 H 1279.01 6.58487 4.04494 0
M  V30 13841 H 1277.35 5.91831 3.64364 0
M  V30 13842 H 1280.54 3.82642 2.69635 0
M  V30 13843 H 1280.72 5.43849 3.52324 0
M  V30 13844 N 1274.12 -1.03182 1.19127 0
M  V30 13845 C 1275.05 -2.13301 0.94999 0
M  V30 13846 C 1276.03 -1.69707 -0.115577 0
M  V30 13847 O 1277.22 -1.94161 0.0388395 0
M  V30 13848 C 1274.35 -3.43902 0.484637 0
M  V30 13849 C 1273.3 -4.01164 1.4917 0
M  V30 13850 C 1272.63 -5.2735 0.883537 0
M  V30 13851 C 1273.93 -4.36311 2.87107 0
M  V30 13852 H 1275.62 -2.33743 1.87095 0
M  V30 13853 H 1273.17 -1.12332 0.900977 0
M  V30 13854 H 1275.12 -4.20308 0.30315 0
M  V30 13855 H 1273.85 -3.23173 -0.471909 0
M  V30 13856 H 1272.5 -3.26849 1.66028 0
M  V30 13857 H 1272.15 -5.02936 -0.0804712 0
M  V30 13858 H 1271.85 -5.66624 1.55599 0
M  V30 13859 H 1273.38 -6.06425 0.71278 0
M  V30 13860 H 1274.79 -5.03666 2.73848 0
M  V30 13861 H 1273.19 -4.86659 3.51117 0
M  V30 13862 H 1274.26 -3.45743 3.39985 0
M  V30 13863 N 1275.6 -0.99472 -1.22242 0
M  V30 13864 C 1276.85 -0.667045 -1.90351 0
M  V30 13865 C 1277.16 0.804615 -1.78284 0
M  V30 13866 O 1278.37 1.24395 -2.41326 0
M  V30 13867 C 1276.82 -1.14256 -3.41282 0
M  V30 13868 C 1276.43 -2.63958 -3.61981 0
M  V30 13869 C 1278.18 -0.889302 -4.1508 0
M  V30 13870 C 1276.08 -3.05103 -5.06622 0
M  V30 13871 H 1275.01 -0.245795 -0.712812 0
M  V30 13872 H 1277.66 -1.20452 -1.38432 0
M  V30 13873 H 1276.05 -0.533203 -3.92394 0
M  V30 13874 H 1277.22 -3.30255 -3.21354 0
M  V30 13875 H 1275.54 -2.87186 -3.01518 0
M  V30 13876 H 1278.13 -1.17239 -5.21689 0
M  V30 13877 H 1278.48 0.174556 -4.15934 0
M  V30 13878 H 1279.01 -1.46095 -3.70002 0
M  V30 13879 H 1275.75 -4.10672 -5.1091 0
M  V30 13880 H 1275.27 -2.4351 -5.48145 0
M  V30 13881 H 1276.95 -2.96506 -5.75059 0
M  V30 13882 N 1277.08 1.37613 -0.768148 0
M  V30 13883 C 1278.49 1.82437 -0.396703 0
M  V30 13884 C 1278.84 1.64019 1.07668 0
M  V30 13885 O 1277.97 1.14932 1.83356 0
M  V30 13886 C 1278.56 3.31207 -0.713265 0
M  V30 13887 C 1277.12 3.74323 -0.39492 0
M  V30 13888 C 1276.27 2.60191 -0.958962 0
M  V30 13889 H 1279.22 1.26135 -0.963099 0
M  V30 13890 H 1279.24 3.805 0.00337228 0
M  V30 13891 H 1278.75 3.4458 -1.78567 0
M  V30 13892 H 1276.85 3.66521 0.670313 0
M  V30 13893 H 1276.96 4.70558 -0.900653 0
M  V30 13894 H 1275.33 2.51797 -0.383423 0
M  V30 13895 H 1276.11 2.76358 -2.03669 0
M  V30 13896 N 1278.56 0.518393 1.4883 0
M  V30 13897 C 1279.78 -0.0162 2.06894 0
M  V30 13898 C 1280.2 -1.29222 1.37649 0
M  V30 13899 O 1279.56 -1.766 0.460288 0
M  V30 13900 C 1279.61 -0.255836 3.60594 0
M  V30 13901 O 1279.33 0.969612 4.27235 0
M  V30 13902 C 1280.83 -0.832117 4.3542 0
M  V30 13903 H 1278.05 0.0282877 0.670403 0
M  V30 13904 H 1280.59 0.720726 1.91379 0
M  V30 13905 H 1278.75 -0.942782 3.75753 0
M  V30 13906 H 1279.16 0.743172 5.19208 0
M  V30 13907 H 1280.64 -0.949279 5.43776 0
M  V30 13908 H 1281.11 -1.83421 3.99066 0
M  V30 13909 H 1281.72 -0.1821 4.2491 0
M  V30 13910 N 1280.03 -1.55556 0.252993 0
M  V30 13911 C 1281.28 -1.98697 -0.369319 0
M  V30 13912 C 1281.6 -1.14256 -1.58021 0
M  V30 13913 O 1280.87 -0.226779 -1.94583 0
M  V30 13914 H 1279.45 -0.733869 -0.139444 0
M  V30 13915 H 1282.12 -1.91673 0.353197 0
M  V30 13916 H 1281.21 -3.04728 -0.674312 0
M  V30 13917 N 1281.51 0.0200419 -1.57587 0
M  V30 13918 C 1282.48 1.00255 -2.06111 0
M  V30 13919 C 1283.48 1.28488 -0.966829 0
M  V30 13920 O 1284.67 1.2334 -1.23015 0
M  V30 13921 C 1281.8 2.33296 -2.48567 0
M  V30 13922 H 1282.99 0.583216 -2.94174 0
M  V30 13923 H 1280.54 0.267077 -1.54001 0
M  V30 13924 H 1281.28 2.79959 -1.63687 0
M  V30 13925 H 1281.06 2.14131 -3.28467 0
M  V30 13926 H 1282.55 3.03817 -2.86505 0
M  V30 13927 N 1282.99 1.54862 0.292472 0
M  V30 13928 C 1284.4 1.65459 0.864891 0
M  V30 13929 C 1284.75 0.568808 1.87774 0
M  V30 13930 O 1283.88 -0.293107 2.14406 0
M  V30 13931 C 1284.47 2.99939 1.5755 0
M  V30 13932 C 1283.03 3.12628 2.09621 0
M  V30 13933 C 1282.18 2.61179 0.931713 0
M  V30 13934 H 1285.13 1.58549 0.0692679 0
M  V30 13935 H 1285.15 2.91839 2.44152 0
M  V30 13936 H 1284.66 3.78943 0.838088 0
M  V30 13937 H 1282.76 2.3836 2.86383 0
M  V30 13938 H 1282.88 4.18911 2.32488 0
M  V30 13939 H 1281.24 2.17846 1.31967 0
M  V30 13940 H 1282.02 3.42669 0.208121 0
M  V30 13941 N 1284.47 -0.556076 1.47464 0
M  V30 13942 C 1285.72 -1.31061 1.53842 0
M  V30 13943 C 1286.04 -1.93943 0.202806 0
M  V30 13944 O 1285.31 -1.7999 -0.773338 0
M  V30 13945 H 1283.89 -0.486696 0.566689 0
M  V30 13946 H 1286.55 -0.64924 1.83769 0
M  V30 13947 H 1285.65 -2.10354 2.30559 0
M  V30 13948 N 1285.95 -1.35615 -0.802897 0
M  V30 13949 C 1287.17 -1.32377 -1.59659 0
M  V30 13950 C 1287.6 0.0954235 -1.87858 0
M  V30 13951 O 1286.96 1.06336 -1.46842 0
M  V30 13952 C 1287 -2.13972 -2.90256 0
M  V30 13953 O 1286.11 -1.52296 -3.83249 0
M  V30 13954 H 1285.45 -0.453699 -0.484823 0
M  V30 13955 H 1287.98 -1.78708 -0.996217 0
M  V30 13956 H 1287.99 -2.26061 -3.39647 0
M  V30 13957 H 1286.66 -3.17145 -2.69057 0
M  V30 13958 H 1285.24 -1.49068 -3.41809 0
M  V30 13959 N 1287.43 1.02549 -1.19673 0
M  V30 13960 C 1288.37 2.13015 -0.934209 0
M  V30 13961 C 1289.37 1.69035 0.111208 0
M  V30 13962 O 1290.57 1.79959 -0.0383449 0
M  V30 13963 H 1286.95 0.696015 -0.284722 0
M  V30 13964 H 1288.92 2.32346 -1.87238 0
M  V30 13965 C 1287.67 3.44185 -0.493124 0
M  V30 13966 H 1286.99 3.78447 -1.28911 0
M  V30 13967 H 1288.43 4.22565 -0.348577 0
M  V30 13968 C 1286.89 3.27427 0.793277 0
M  V30 13969 O 1287.42 3.56362 1.85388 0
M  V30 13970 N 1285.63 2.80706 0.751837 0
M  V30 13971 H 1285.17 2.57359 -0.111517 0
M  V30 13972 H 1285.13 2.69874 1.61292 0
M  V30 13973 N 1288.9 1.00119 1.21713 0
M  V30 13974 C 1289.81 0.567582 2.27631 0
M  V30 13975 C 1290.83 -0.387593 1.69628 0
M  V30 13976 O 1292.01 -0.252372 1.99813 0
M  V30 13977 C 1289.07 -0.102745 3.46548 0
M  V30 13978 C 1288.13 0.896433 4.19836 0
M  V30 13979 C 1287.36 0.258 5.33076 0
M  V30 13980 O 1287.59 -0.946118 5.62499 0
M  V30 13981 O 1286.52 0.967021 5.94081 0
M  V30 13982 H 1290.35 1.44898 2.66905 0
M  V30 13983 H 1287.93 0.769862 1.28037 0
M  V30 13984 H 1289.81 -0.477846 4.18682 0
M  V30 13985 H 1288.49 -0.958576 3.09181 0
M  V30 13986 H 1287.4 1.32262 3.49939 0
M  V30 13987 H 1288.73 1.72173 4.61104 0
M  V30 13988 N 1290.38 -1.37203 0.775435 0
M  V30 13989 C 1291.31 -2.28873 0.122374 0
M  V30 13990 C 1292.33 -1.48811 -0.660239 0
M  V30 13991 O 1293.52 -1.7142 -0.497724 0
M  V30 13992 C 1290.62 -3.28062 -0.850212 0
M  V30 13993 C 1289.79 -4.37234 -0.120633 0
M  V30 13994 C 1288.85 -5.16472 -1.00712 0
M  V30 13995 O 1287.87 -5.6726 -0.469528 0
M  V30 13996 N 1289.08 -5.31556 -2.33299 0
M  V30 13997 H 1291.84 -2.85559 0.909741 0
M  V30 13998 H 1289.4 -1.49219 0.628107 0
M  V30 13999 H 1291.39 -3.77956 -1.44678 0
M  V30 14000 H 1289.96 -2.72118 -1.53853 0
M  V30 14001 H 1289.18 -3.88688 0.656879 0
M  V30 14002 H 1290.47 -5.07354 0.383358 0
M  V30 14003 H 1289.87 -4.91883 -2.79406 0
M  V30 14004 H 1288.43 -5.84745 -2.87953 0
M  V30 14005 N 1291.86 -0.526279 -1.48553 0
M  V30 14006 C 1293.09 0.00522012 -2.06599 0
M  V30 14007 C 1293.5 1.29039 -1.38368 0
M  V30 14008 O 1292.84 1.77747 -0.463854 0
M  V30 14009 C 1292.9 0.303512 -3.58216 0
M  V30 14010 C 1292.57 -0.887635 -4.48297 0
M  V30 14011 C 1293.56 -1.78504 -4.88295 0
M  V30 14012 C 1291.25 -1.09359 -4.90251 0
M  V30 14013 C 1293.24 -2.87233 -5.69013 0
M  V30 14014 C 1290.93 -2.18402 -5.7074 0
M  V30 14015 C 1291.93 -3.07172 -6.10028 0
M  V30 14016 O 1291.62 -4.14329 -6.88902 0
M  V30 14017 H 1291.35 -0.0287033 -0.67539 0
M  V30 14018 H 1293.9 -0.730244 -1.91981 0
M  V30 14019 H 1292.13 1.0929 -3.70935 0
M  V30 14020 H 1293.82 0.776647 -3.98401 0
M  V30 14021 H 1294.59 -1.63785 -4.56508 0
M  V30 14022 H 1290.47 -0.411922 -4.59156 0
M  V30 14023 H 1294.01 -3.56549 -5.99599 0
M  V30 14024 H 1289.91 -2.33106 -6.0194 0
M  V30 14025 H 1290.67 -4.11993 -7.07251 0
M  V30 14026 N 1293.34 1.5542 -0.261239 0
M  V30 14027 C 1294.29 2.23382 0.648324 0
M  V30 14028 C 1295.28 1.22615 1.16884 0
M  V30 14029 O 1296.49 1.40587 1.12407 0
M  V30 14030 H 1292.86 0.716733 0.227592 0
M  V30 14031 H 1294.83 2.98354 0.0521289 0
M  V30 14032 C 1293.58 2.9579 1.82766 0
M  V30 14033 H 1292.9 3.73109 1.4363 0
M  V30 14034 H 1294.34 3.46686 2.441 0
M  V30 14035 C 1292.8 2.00472 2.70763 0
M  V30 14036 O 1293.33 1.54698 3.70717 0
M  V30 14037 N 1291.54 1.67267 2.37635 0
M  V30 14038 H 1291.09 2.04685 1.56402 0
M  V30 14039 H 1291.04 1.03759 2.96785 0
M  V30 14040 N 1294.82 -0.0116844 1.57596 0
M  V30 14041 C 1296.06 -0.699994 1.90336 0
M  V30 14042 C 1296.39 -1.74067 0.861072 0
M  V30 14043 O 1295.67 -1.94119 -0.121712 0
M  V30 14044 C 1295.95 -1.35377 3.33684 0
M  V30 14045 C 1295.81 -0.325434 4.48621 0
M  V30 14046 C 1297.12 -2.28312 3.76247 0
M  V30 14047 H 1294.24 -0.253002 0.692213 0
M  V30 14048 H 1296.89 0.037211 1.89964 0
M  V30 14049 H 1295.04 -1.98212 3.34132 0
M  V30 14050 H 1296.71 0.302331 4.60308 0
M  V30 14051 H 1294.95 0.353527 4.32357 0
M  V30 14052 H 1295.62 -0.8217 5.4585 0
M  V30 14053 H 1298.1 -1.75505 3.77276 0
M  V30 14054 H 1296.97 -2.71028 4.77321 0
M  V30 14055 H 1297.23 -3.15727 3.09465 0
M  V30 14056 N 1296.29 -1.55015 -0.284256 0
M  V30 14057 C 1297.54 -1.74744 -1.01532 0
M  V30 14058 C 1297.86 -0.545334 -1.87219 0
M  V30 14059 O 1297.13 0.440046 -1.90894 0
M  V30 14060 H 1295.71 -0.644382 -0.377864 0
M  V30 14061 H 1298.37 -1.92399 -0.311199 0
M  V30 14062 H 1297.47 -2.64369 -1.65878 0
M  V30 14063 N 1297.77 0.548248 -1.47757 0
M  V30 14064 C 1298.7 1.6705 -1.55466 0
M  V30 14065 C 1299.68 1.57444 -0.406208 0
M  V30 14066 O 1300.87 1.78176 -0.615268 0
M  V30 14067 C 1297.99 3.0535 -1.46558 0
M  V30 14068 C 1297.04 3.33372 -2.66017 0
M  V30 14069 S 1297.87 3.21643 -4.28143 0
M  V30 14070 C 1299.03 4.62421 -4.21803 0
M  V30 14071 H 1299.26 1.60258 -2.50409 0
M  V30 14072 H 1296.79 0.72978 -1.36065 0
M  V30 14073 H 1298.75 3.85118 -1.42106 0
M  V30 14074 H 1297.41 3.09599 -0.529838 0
M  V30 14075 H 1296.61 4.34218 -2.55873 0
M  V30 14076 H 1296.21 2.6124 -2.67638 0
M  V30 14077 H 1298.5 5.53561 -3.9061 0
M  V30 14078 H 1299.44 4.77621 -5.22766 0
M  V30 14079 H 1299.85 4.40887 -3.52532 0
M  V30 14080 N 1299.25 1.36039 0.795694 0
M  V30 14081 C 1300.5 1.30112 1.5556 0
M  V30 14082 C 1300.83 -0.121197 1.93821 0
M  V30 14083 O 1300.1 -1.07313 1.62216 0
M  V30 14084 C 1300.39 2.21792 2.8369 0
M  V30 14085 C 1300.24 3.72691 2.51836 0
M  V30 14086 C 1301.56 2.12365 3.85472 0
M  V30 14087 H 1298.68 0.473971 0.564376 0
M  V30 14088 H 1301.32 1.66536 0.91465 0
M  V30 14089 H 1299.47 1.9086 3.38386 0
M  V30 14090 H 1301.14 4.14115 2.0324 0
M  V30 14091 H 1299.38 3.92436 1.84869 0
M  V30 14092 H 1300.06 4.32242 3.43323 0
M  V30 14093 H 1302.53 2.3958 3.40207 0
M  V30 14094 H 1301.41 2.78695 4.72885 0
M  V30 14095 H 1301.67 1.10898 4.27965 0
M  V30 14096 N 1300.73 -1.01913 1.20215 0
M  V30 14097 C 1301.98 -1.75124 1.00876 0
M  V30 14098 C 1302.3 -1.89485 -0.460475 0
M  V30 14099 O 1301.57 -1.43552 -1.33302 0
M  V30 14100 H 1300.15 -0.648777 0.370266 0
M  V30 14101 H 1302.81 -1.22883 1.5128 0
M  V30 14102 H 1301.91 -2.7558 1.46499 0
M  V30 14103 N 1302.21 -1.00763 -1.2118 0
M  V30 14104 C 1303.43 -0.710746 -1.94309 0
M  V30 14105 C 1303.85 0.727103 -1.74237 0
M  V30 14106 O 1303.21 1.49223 -1.05065 0
M  V30 14107 C 1303.26 -1.02562 -3.46646 0
M  V30 14108 O 1302.98 -2.40699 -3.66054 0
M  V30 14109 C 1304.48 -0.748517 -4.36935 0
M  V30 14110 H 1301.7 -0.26171 -0.617858 0
M  V30 14111 H 1304.24 -1.34639 -1.53924 0
M  V30 14112 H 1302.4 -0.435537 -3.84944 0
M  V30 14113 H 1302.81 -2.51764 -4.60125 0
M  V30 14114 H 1304.29 -1.01899 -5.42513 0
M  V30 14115 H 1304.76 0.317423 -4.38051 0
M  V30 14116 H 1305.37 -1.32033 -4.04286 0
M  V30 14117 N 1303.68 1.3679 -0.7827 0
M  V30 14118 C 1304.63 2.27508 -0.149734 0
M  V30 14119 C 1305.62 1.46634 0.662368 0
M  V30 14120 O 1306.81 1.6908 0.523544 0
M  V30 14121 C 1303.94 3.35666 0.719939 0
M  V30 14122 C 1303.03 4.23981 -0.100588 0
M  V30 14123 N 1303.42 4.92513 -1.15173 0
M  V30 14124 C 1301.71 4.45834 0.121653 0
M  V30 14125 C 1302.42 5.57788 -1.65067 0
M  V30 14126 N 1301.39 5.35038 -0.96101 0
M  V30 14127 H 1305.19 2.77973 -0.954365 0
M  V30 14128 H 1302.71 1.50037 -0.62151 0
M  V30 14129 H 1304.7 3.99578 1.18926 0
M  V30 14130 H 1303.36 2.86756 1.52319 0
M  V30 14131 H 1304.38 4.94658 -1.53406 0
M  V30 14132 H 1301.05 4.07773 0.895945 0
M  V30 14133 H 1302.44 6.22534 -2.52787 0
M  V30 14134 N 1305.16 0.53415 1.48272 0
M  V30 14135 C 1306.41 0.00156948 2.021 0
M  V30 14136 C 1306.73 -1.34371 1.41313 0
M  V30 14137 O 1306 -1.87117 0.579996 0
M  V30 14138 H 1304.58 -0.00240789 0.746996 0
M  V30 14139 H 1307.24 0.698928 1.81937 0
M  V30 14140 H 1306.34 -0.103671 3.11928 0
M  V30 14141 N 1306.64 -1.55279 0.269478 0
M  V30 14142 C 1307.57 -2.25278 -0.614188 0
M  V30 14143 C 1308.55 -1.24092 -1.1634 0
M  V30 14144 O 1309.74 -1.52799 -1.19858 0
M  V30 14145 C 1306.87 -2.96956 -1.80096 0
M  V30 14146 C 1305.82 -4.05021 -1.38353 0
M  V30 14147 C 1305.15 -4.64244 -2.65295 0
M  V30 14148 C 1306.45 -5.19523 -0.537886 0
M  V30 14149 H 1308.14 -2.99385 -0.0304397 0
M  V30 14150 H 1305.69 -1.43994 -0.0132004 0
M  V30 14151 H 1307.64 -3.44633 -2.42499 0
M  V30 14152 H 1306.36 -2.20374 -2.41045 0
M  V30 14153 H 1305.02 -3.58146 -0.78273 0
M  V30 14154 H 1304.67 -3.84337 -3.2449 0
M  V30 14155 H 1304.37 -5.37208 -2.38079 0
M  V30 14156 H 1305.89 -5.14668 -3.28557 0
M  V30 14157 H 1307.31 -5.63287 -1.06677 0
M  V30 14158 H 1305.71 -5.99014 -0.360845 0
M  V30 14159 H 1306.78 -4.82857 0.444672 0
M  V30 14160 N 1308.12 0.00332656 -1.576 0
M  V30 14161 C 1309.03 1.01221 -2.1164 0
M  V30 14162 C 1310.04 1.37918 -1.06088 0
M  V30 14163 O 1311.22 1.46717 -1.37971 0
M  V30 14164 C 1308.29 2.28638 -2.60626 0
M  V30 14165 C 1307.35 1.98284 -3.80765 0
M  V30 14166 C 1306.58 3.19626 -4.27405 0
M  V30 14167 O 1306.8 4.31196 -3.73398 0
M  V30 14168 O 1305.74 3.03819 -5.19594 0
M  V30 14169 H 1309.56 0.582839 -2.98055 0
M  V30 14170 H 1307.15 0.221947 -1.47742 0
M  V30 14171 H 1309.03 3.03498 -2.92347 0
M  V30 14172 H 1307.7 2.70819 -1.7731 0
M  V30 14173 H 1306.61 1.2091 -3.54022 0
M  V30 14174 H 1307.94 1.60942 -4.65144 0
M  V30 14175 N 1309.6 1.55164 0.276031 0
M  V30 14176 C 1310.82 1.79649 1.02635 0
M  V30 14177 C 1311.24 0.568289 1.80044 0
M  V30 14178 O 1310.6 -0.462569 1.7654 0
M  V30 14179 C 1310.65 3.01974 1.98731 0
M  V30 14180 O 1310.37 4.2005 1.24459 0
M  V30 14181 C 1311.87 3.39039 2.856 0
M  V30 14182 H 1309.09 0.598529 0.303321 0
M  V30 14183 H 1311.63 2.02171 0.307733 0
M  V30 14184 H 1309.79 2.81586 2.6606 0
M  V30 14185 H 1310.2 4.89185 1.89205 0
M  V30 14186 H 1311.68 4.27809 3.48831 0
M  V30 14187 H 1312.15 2.58306 3.55211 0
M  V30 14188 H 1312.76 3.61674 2.23767 0
M  V30 14189 N 1311.07 -0.540404 1.48045 0
M  V30 14190 C 1312.3 -1.32656 1.59427 0
M  V30 14191 C 1312.72 -1.86419 0.250924 0
M  V30 14192 O 1312.08 -1.63861 -0.775838 0
M  V30 14193 C 1312.13 -2.46062 2.63602 0
M  V30 14194 O 1311.23 -3.48794 2.20038 0
M  V30 14195 H 1310.58 -0.393334 0.534962 0
M  V30 14196 H 1313.11 -0.651363 1.93955 0
M  V30 14197 H 1313.12 -2.92396 2.84549 0
M  V30 14198 H 1311.79 -2.06291 3.61133 0
M  V30 14199 H 1310.37 -3.0865 2.0926 0
M  V30 14200 N 1312.55 -1.36459 -0.788468 0
M  V30 14201 C 1313.5 -1.27391 -1.89092 0
M  V30 14202 C 1314.49 -0.165201 -1.6005 0
M  V30 14203 O 1315.68 -0.398097 -1.72465 0
M  V30 14204 C 1312.81 -1.06639 -3.26317 0
M  V30 14205 C 1311.89 -2.21981 -3.61366 0
M  V30 14206 N 1312.28 -3.47302 -3.67716 0
M  V30 14207 C 1310.58 -2.13767 -3.91433 0
M  V30 14208 C 1311.28 -4.2326 -3.99031 0
M  V30 14209 N 1310.26 -3.52211 -4.14063 0
M  V30 14210 H 1314.06 -2.22318 -1.92229 0
M  V30 14211 H 1311.58 -1.29191 -0.98404 0
M  V30 14212 H 1313.57 -0.982292 -4.05162 0
M  V30 14213 H 1312.23 -0.126129 -3.24455 0
M  V30 14214 H 1313.24 -3.81424 -3.50337 0
M  V30 14215 H 1309.92 -1.27702 -3.9749 0
M  V30 14216 H 1311.31 -5.31643 -4.1086 0
M  V30 14217 N 1314.03 1.01274 -1.20754 0
M  V30 14218 C 1314.99 2.08056 -0.961528 0
M  V30 14219 C 1315.99 1.60671 0.0644461 0
M  V30 14220 O 1317.18 1.73349 -0.172022 0
M  V30 14221 C 1314.32 3.37938 -0.448381 0
M  V30 14222 H 1315.51 2.31314 -1.90877 0
M  V30 14223 H 1313.06 1.18133 -1.02344 0
M  V30 14224 H 1313.8 3.20357 0.504144 0
M  V30 14225 H 1313.58 3.73659 -1.18833 0
M  V30 14226 H 1315.07 4.16551 -0.295876 0
M  V30 14227 N 1315.51 1.01404 1.20644 0
M  V30 14228 C 1316.79 0.617088 1.85611 0
M  V30 14229 C 1317.17 -0.904947 1.9072 0
M  V30 14230 O 1316.51 -1.79562 1.41315 0
M  V30 14231 C 1316.72 1.26193 3.25386 0
M  V30 14232 C 1318.07 1.37575 4.01694 0
M  V30 14233 O 1319.1 1.21795 3.34731 0
M  V30 14234 O 1317.96 1.6305 5.2161 0
M  V30 14235 H 1315.05 0.212579 0.799211 0
M  V30 14236 H 1317.6 1.11126 1.28254 0
M  V30 14237 H 1316.37 2.30206 3.16419 0
M  V30 14238 H 1315.99 0.754679 3.90372 0
M  V30 14239 N 1316.99 -1.36373 0.789944 0
M  V30 14240 C 1318.21 -2.04011 0.373396 0
M  V30 14241 C 1318.64 -1.59171 -1.00231 0
M  V30 14242 O 1318 -0.760431 -1.64582 0
M  V30 14243 C 1318.04 -3.5783 0.446083 0
M  V30 14244 O 1317.15 -4.08759 -0.54678 0
M  V30 14245 H 1316.49 -0.644807 0.158495 0
M  V30 14246 H 1319.02 -1.74317 1.0712 0
M  V30 14247 H 1319.03 -4.06822 0.309877 0
M  V30 14248 H 1317.7 -3.89819 1.44962 0
M  V30 14249 H 1316.28 -3.71038 -0.372192 0
M  V30 14250 N 1318.47 -0.542005 -1.47987 0
M  V30 14251 C 1319.71 -0.0123116 -2.02496 0
M  V30 14252 C 1320.04 1.33136 -1.41793 0
M  V30 14253 O 1319.3 1.87591 -0.557501 0
M  V30 14254 C 1319.59 0.146208 -3.57101 0
M  V30 14255 C 1319.26 -1.12463 -4.3665 0
M  V30 14256 C 1317.92 -1.47289 -4.58104 0
M  V30 14257 C 1320.27 -1.96746 -4.82639 0
M  V30 14258 C 1317.6 -2.66273 -5.22796 0
M  V30 14259 C 1319.95 -3.14919 -5.48643 0
M  V30 14260 C 1318.62 -3.50077 -5.68333 0
M  V30 14261 H 1317.89 -0.00450514 -0.740986 0
M  V30 14262 H 1320.54 -0.710455 -1.77834 0
M  V30 14263 H 1318.84 0.927209 -3.80671 0
M  V30 14264 H 1320.54 0.571161 -3.96912 0
M  V30 14265 H 1317.13 -0.843429 -4.20219 0
M  V30 14266 H 1321.31 -1.71149 -4.65856 0
M  V30 14267 H 1316.57 -2.937 -5.36237 0
M  V30 14268 H 1320.74 -3.80525 -5.83244 0
M  V30 14269 H 1318.37 -4.42371 -6.18233 0
M  V30 14270 N 1319.94 1.55134 -0.277709 0
M  V30 14271 C 1321.17 2.04519 0.344472 0
M  V30 14272 C 1321.59 1.15466 1.4849 0
M  V30 14273 O 1320.95 0.153798 1.80646 0
M  V30 14274 C 1321 3.51602 0.800527 0
M  V30 14275 O 1320.1 3.65632 1.90754 0
M  V30 14276 H 1319.44 0.660212 0.0708226 0
M  V30 14277 H 1321.97 2.00393 -0.412764 0
M  V30 14278 H 1321.98 3.93015 1.09559 0
M  V30 14279 H 1320.66 4.15886 -0.033838 0
M  V30 14280 H 1319.24 3.36122 1.61481 0
M  V30 14281 N 1321.42 0.00503138 1.57599 0
M  V30 14282 C 1322.67 -0.67742 1.90409 0
M  V30 14283 C 1322.99 -1.74033 0.87963 0
M  V30 14284 O 1322.26 -1.95727 -0.0822757 0
M  V30 14285 H 1320.84 -0.2532 0.702779 0
M  V30 14286 H 1323.5 0.0471466 1.94843 0
M  V30 14287 H 1322.6 -1.14548 2.90319 0
M  V30 14288 N 1322.9 -1.55308 -0.267798 0
M  V30 14289 C 1324.12 -1.80524 -1.02107 0
M  V30 14290 C 1324.55 -0.579268 -1.78958 0
M  V30 14291 O 1323.91 0.471262 -1.75068 0
M  V30 14292 C 1323.96 -3.03248 -1.95123 0
M  V30 14293 O 1323.06 -2.78699 -3.03975 0
M  V30 14294 H 1322.4 -0.596518 -0.291655 0
M  V30 14295 H 1324.93 -2.0246 -0.295128 0
M  V30 14296 H 1324.94 -3.32121 -2.3698 0
M  V30 14297 H 1323.62 -3.92126 -1.386 0
M  V30 14298 H 1322.19 -2.60936 -2.66396 0
M  V30 14299 N 1324.38 0.532545 -1.4833 0
M  V30 14300 C 1325.63 1.28498 -1.55471 0
M  V30 14301 C 1325.94 1.94214 -0.232412 0
M  V30 14302 O 1327.15 2.70889 -0.182044 0
M  V30 14303 C 1325.6 2.33144 -2.74175 0
M  V30 14304 C 1325.21 1.73508 -4.13036 0
M  V30 14305 C 1326.95 3.09413 -2.90627 0
M  V30 14306 C 1324.86 2.76079 -5.23005 0
M  V30 14307 H 1323.79 0.483253 -0.578777 0
M  V30 14308 H 1326.44 0.562744 -1.74658 0
M  V30 14309 H 1324.82 3.08391 -2.48417 0
M  V30 14310 H 1326 1.04466 -4.48802 0
M  V30 14311 H 1324.31 1.0974 -4.01679 0
M  V30 14312 H 1326.91 3.86056 -3.69953 0
M  V30 14313 H 1327.25 3.65118 -1.99987 0
M  V30 14314 H 1327.79 2.4128 -3.16274 0
M  V30 14315 H 1324.52 2.25197 -6.15602 0
M  V30 14316 H 1324.04 3.43456 -4.9173 0
M  V30 14317 H 1325.72 3.39113 -5.51009 0
M  V30 14318 N 1325.86 1.36875 0.78122 0
M  V30 14319 C 1327.08 1.349 1.57533 0
M  V30 14320 C 1327.51 -0.0655249 1.87986 0
M  V30 14321 O 1326.86 -1.03986 1.48515 0
M  V30 14322 C 1326.91 2.18562 2.86815 0
M  V30 14323 O 1326.02 1.58374 3.80777 0
M  V30 14324 H 1325.36 0.461355 0.477543 0
M  V30 14325 H 1327.89 1.80271 0.96766 0
M  V30 14326 H 1327.9 2.31436 3.36008 0
M  V30 14327 H 1326.57 3.21385 2.63978 0
M  V30 14328 H 1325.15 1.54487 3.39394 0
M  V30 14329 N 1327.33 -1.00632 1.21289 0
M  V30 14330 C 1328.75 -1.26744 0.969956 0
M  V30 14331 C 1328.95 -1.98534 -0.344449 0
M  V30 14332 O 1328.01 -2.28687 -1.07044 0
M  V30 14333 C 1329.32 -2.09238 2.15963 0
M  V30 14334 C 1330.87 -2.22469 2.20174 0
M  V30 14335 C 1331.34 -3.08344 3.38656 0
M  V30 14336 N 1332.83 -3.15932 3.38734 0
M  V30 14337 C 1333.57 -3.82632 4.2706 0
M  V30 14338 N 1333.06 -4.51371 5.25582 0
M  V30 14339 N 1334.86 -3.79259 4.14872 0
M  V30 14340 H 1327.01 -0.524626 2.05819 0
M  V30 14341 H 1329.27 -0.294231 0.901184 0
M  V30 14342 H 1328.98 -1.63835 3.11209 0
M  V30 14343 H 1328.85 -3.09987 2.14914 0
M  V30 14344 H 1331.24 -2.67091 1.25485 0
M  V30 14345 H 1331.32 -1.21194 2.25268 0
M  V30 14346 H 1330.96 -2.64425 4.33638 0
M  V30 14347 H 1330.89 -4.0973 3.30801 0
M  V30 14348 H 1333.38 -2.66998 2.67434 0
M  V30 14349 H 1333.7 -4.99966 5.89283 0
M  V30 14350 H 1332.04 -4.50162 5.29508 0
M  V30 14351 H 1335.23 -3.2471 3.37166 0
M  V30 14352 H 1335.41 -4.30963 4.83916 0
M  V30 14353 N 1328.81 -1.02043 -1.20104 0
M  V30 14354 C 1329.72 -0.603724 -2.26699 0
M  V30 14355 C 1330.74 0.360558 -1.70223 0
M  V30 14356 O 1331.91 0.220552 -2.00189 0
M  V30 14357 C 1328.98 0.0475988 -3.46667 0
M  V30 14358 C 1328.04 -0.963111 -4.18357 0
M  V30 14359 C 1327.27 -0.342775 -5.32598 0
M  V30 14360 O 1327.5 0.856509 -5.63933 0
M  V30 14361 O 1326.43 -1.06141 -5.92467 0
M  V30 14362 H 1330.26 -1.49125 -2.64566 0
M  V30 14363 H 1327.84 -0.790134 -1.26796 0
M  V30 14364 H 1329.72 0.411177 -4.19389 0
M  V30 14365 H 1328.4 0.909266 -3.10667 0
M  V30 14366 H 1327.3 -1.37813 -3.47791 0
M  V30 14367 H 1328.64 -1.79487 -4.58307 0
M  V30 14368 N 1330.29 1.35952 -0.797165 0
M  V30 14369 C 1331.54 1.98639 -0.372405 0
M  V30 14370 C 1331.86 1.63571 1.06158 0
M  V30 14371 O 1331.13 0.913516 1.73297 0
M  V30 14372 H 1329.71 0.734753 -0.13471 0
M  V30 14373 H 1332.37 1.66022 -1.02092 0
M  V30 14374 H 1331.47 3.08533 -0.47049 0
M  V30 14375 N 1331.77 0.549846 1.47697 0
M  V30 14376 C 1333 0.0276889 2.06881 0
M  V30 14377 C 1333.41 -1.26273 1.40359 0
M  V30 14378 O 1332.77 -1.75584 0.497644 0
M  V30 14379 C 1332.82 -0.179291 3.61055 0
M  V30 14380 O 1332.54 1.06002 4.25083 0
M  V30 14381 C 1334.04 -0.739571 4.37087 0
M  V30 14382 H 1331.26 0.0425016 0.669653 0
M  V30 14383 H 1333.81 0.761158 1.89807 0
M  V30 14384 H 1331.96 -0.862867 3.77668 0
M  V30 14385 H 1332.37 0.853137 5.17515 0
M  V30 14386 H 1333.85 -0.833722 5.45668 0
M  V30 14387 H 1334.33 -1.74915 4.02867 0
M  V30 14388 H 1334.93 -0.0919294 4.25201 0
M  V30 14389 N 1333.25 -1.54984 0.285932 0
M  V30 14390 C 1334.18 -2.25916 -0.590259 0
M  V30 14391 C 1335.16 -1.25319 -1.15018 0
M  V30 14392 O 1336.34 -1.54062 -1.18231 0
M  V30 14393 C 1333.47 -2.98849 -1.76936 0
M  V30 14394 C 1332.43 -4.06466 -1.3405 0
M  V30 14395 C 1331.75 -4.67032 -2.60356 0
M  V30 14396 C 1333.05 -5.20064 -0.482754 0
M  V30 14397 H 1334.75 -2.994 0.00131571 0
M  V30 14398 H 1332.29 -1.44 0.00207281 0
M  V30 14399 H 1334.25 -3.47186 -2.3883 0
M  V30 14400 H 1332.97 -2.22918 -2.38694 0
M  V30 14401 H 1331.63 -3.58957 -0.7447 0
M  V30 14402 H 1331.28 -3.87757 -3.20396 0
M  V30 14403 H 1330.98 -5.39703 -2.32368 0
M  V30 14404 H 1332.5 -5.18124 -3.23079 0
M  V30 14405 H 1333.91 -5.64387 -1.00697 0
M  V30 14406 H 1332.31 -5.99363 -0.297291 0
M  V30 14407 H 1333.38 -4.82358 0.495861 0
M  V30 14408 N 1334.72 -0.0133892 -1.57594 0
M  V30 14409 C 1335.66 1.00798 -2.04731 0
M  V30 14410 C 1336.64 1.32686 -0.93985 0
M  V30 14411 O 1337.82 1.44622 -1.209 0
M  V30 14412 C 1334.95 2.33216 -2.45618 0
M  V30 14413 C 1333.99 2.16898 -3.67229 0
M  V30 14414 S 1334.83 1.48248 -5.14571 0
M  V30 14415 C 1335.98 2.82068 -5.58738 0
M  V30 14416 H 1336.21 0.606673 -2.91044 0
M  V30 14417 H 1333.75 0.197865 -1.53127 0
M  V30 14418 H 1335.71 3.09348 -2.69841 0
M  V30 14419 H 1334.37 2.70483 -1.59679 0
M  V30 14420 H 1333.56 3.14753 -3.93632 0
M  V30 14421 H 1333.16 1.4891 -3.43077 0
M  V30 14422 H 1335.45 3.78343 -5.62017 0
M  V30 14423 H 1336.4 2.60348 -6.58502 0
M  V30 14424 H 1336.8 2.86592 -4.86338 0
M  V30 14425 N 1336.2 1.55448 0.259558 0
M  V30 14426 C 1337.45 1.7589 0.987201 0
M  V30 14427 C 1337.76 0.574951 1.86959 0
M  V30 14428 O 1338.97 0.662091 2.63303 0
M  V30 14429 C 1337.43 3.11349 1.80526 0
M  V30 14430 C 1337.03 4.37353 0.970882 0
M  V30 14431 C 1338.78 3.41136 2.5264 0
M  V30 14432 C 1336.69 5.63847 1.7841 0
M  V30 14433 H 1335.62 0.655662 0.372321 0
M  V30 14434 H 1338.27 1.81893 0.242332 0
M  V30 14435 H 1336.65 2.9942 2.5916 0
M  V30 14436 H 1337.82 4.60237 0.227763 0
M  V30 14437 H 1336.14 4.14809 0.363669 0
M  V30 14438 H 1338.73 4.32855 3.13912 0
M  V30 14439 H 1339.08 2.61879 3.23612 0
M  V30 14440 H 1339.61 3.54224 1.81026 0
M  V30 14441 H 1336.35 6.4589 1.11834 0
M  V30 14442 H 1335.87 5.45086 2.50283 0
M  V30 14443 H 1337.55 6.02641 2.35441 0
M  V30 14444 N 1337.68 -0.524672 1.4861 0
M  V30 14445 C 1339.1 -0.853703 1.34848 0
M  V30 14446 C 1339.3 -1.98194 0.363529 0
M  V30 14447 O 1338.35 -2.51597 -0.213348 0
M  V30 14448 C 1339.67 -1.21622 2.75006 0
M  V30 14449 C 1341.21 -1.3258 2.83534 0
M  V30 14450 C 1341.69 -1.72172 4.24406 0
M  V30 14451 N 1343.18 -1.79265 4.27105 0
M  V30 14452 C 1343.91 -2.11296 5.33049 0
M  V30 14453 N 1343.41 -2.41714 6.49266 0
M  V30 14454 N 1345.2 -2.12347 5.20447 0
M  V30 14455 H 1337.35 0.219671 2.11261 0
M  V30 14456 H 1339.62 0.0356444 0.94733 0
M  V30 14457 H 1339.32 -0.460776 3.48669 0
M  V30 14458 H 1339.2 -2.16516 3.0887 0
M  V30 14459 H 1341.58 -2.072 2.10124 0
M  V30 14460 H 1341.67 -0.357943 2.53283 0
M  V30 14461 H 1341.31 -0.981108 4.98334 0
M  V30 14462 H 1341.24 -2.70017 4.52104 0
M  V30 14463 H 1343.73 -1.58013 3.43279 0
M  V30 14464 H 1344.04 -2.65276 7.25843 0
M  V30 14465 H 1342.39 -2.39222 6.52532 0
M  V30 14466 H 1345.58 -1.88044 4.28669 0
M  V30 14467 H 1345.75 -2.36978 6.03113 0
M  V30 14468 N 1339.16 -1.37287 -0.77395 0
M  V30 14469 C 1340.07 -1.35059 -1.91823 0
M  V30 14470 C 1341.08 -0.250489 -1.72188 0
M  V30 14471 O 1342.26 -0.485501 -1.95461 0
M  V30 14472 C 1339.33 -1.15444 -3.26915 0
M  V30 14473 C 1338.39 -2.35073 -3.5922 0
M  V30 14474 C 1337.62 -2.16384 -4.87867 0
M  V30 14475 O 1337.84 -1.14696 -5.58749 0
M  V30 14476 O 1336.78 -3.0452 -5.19183 0
M  V30 14477 H 1340.6 -2.31432 -1.96654 0
M  V30 14478 H 1338.19 -1.17994 -0.916392 0
M  V30 14479 H 1340.07 -1.06484 -4.07724 0
M  V30 14480 H 1338.74 -0.221435 -3.22942 0
M  V30 14481 H 1337.65 -2.49604 -2.78655 0
M  V30 14482 H 1338.98 -3.26933 -3.67934 0
M  V30 14483 N 1340.64 0.999871 -1.21821 0
M  V30 14484 C 1341.86 1.77405 -1.06467 0
M  V30 14485 C 1342.28 1.84828 0.385227 0
M  V30 14486 O 1341.64 1.31338 1.26714 0
M  V30 14487 C 1341.69 3.21062 -1.66137 0
M  V30 14488 O 1341.41 3.14054 -3.05454 0
M  V30 14489 C 1342.91 4.14958 -1.55963 0
M  V30 14490 H 1340.13 0.557368 -0.373607 0
M  V30 14491 H 1342.67 1.2575 -1.61267 0
M  V30 14492 H 1340.83 3.69808 -1.15416 0
M  V30 14493 H 1341.24 4.04346 -3.34073 0
M  V30 14494 H 1342.72 5.13536 -2.02448 0
M  V30 14495 H 1343.19 4.36171 -0.514949 0
M  V30 14496 H 1343.8 3.72105 -2.05956 0
M  V30 14497 N 1342.11 1.02678 1.19562 0
M  V30 14498 C 1343.34 0.741424 1.93695 0
M  V30 14499 C 1343.76 -0.693203 1.74861 0
M  V30 14500 O 1343.12 -1.47833 1.04953 0
M  V30 14501 C 1343.17 1.09514 3.43568 0
M  V30 14502 O 1342.27 0.212596 4.11852 0
M  V30 14503 H 1341.62 0.274128 0.604773 0
M  V30 14504 H 1344.15 1.37289 1.517 0
M  V30 14505 H 1344.16 1.05115 3.94227 0
M  V30 14506 H 1342.83 2.14034 3.56598 0
M  V30 14507 H 1341.41 0.315 3.71567 0
M  V30 14508 N 1343.59 -1.35528 0.804364 0
M  V30 14509 C 1344.84 -1.98439 0.382934 0
M  V30 14510 C 1345.16 -1.64132 -1.05289 0
M  V30 14511 O 1344.43 -0.922693 -1.7281 0
M  V30 14512 H 1343.01 -0.734028 0.138605 0
M  V30 14513 H 1345.67 -1.65478 1.02971 0
M  V30 14514 H 1344.77 -3.08279 0.486846 0
M  V30 14515 N 1345.07 -0.557671 -1.47404 0
M  V30 14516 C 1345.98 0.19289 -2.33806 0
M  V30 14517 C 1347 0.911424 -1.4822 0
M  V30 14518 O 1348.17 0.880214 -1.81147 0
M  V30 14519 C 1345.24 1.20937 -3.24923 0
M  V30 14520 C 1344.3 0.498209 -4.26399 0
M  V30 14521 C 1343.53 1.46626 -5.13163 0
M  V30 14522 O 1343.76 2.70111 -5.0239 0
M  V30 14523 O 1342.69 0.990497 -5.93694 0
M  V30 14524 H 1346.52 -0.515861 -2.99287 0
M  V30 14525 H 1344.1 -0.318283 -1.4597 0
M  V30 14526 H 1345.98 1.7961 -3.81206 0
M  V30 14527 H 1344.66 1.90003 -2.6207 0
M  V30 14528 H 1343.56 -0.129736 -3.73875 0
M  V30 14529 H 1344.9 -0.151015 -4.91968 0
M  V30 14530 N 1346.55 1.54831 -0.294147 0
M  V30 14531 C 1347.5 2.23263 0.58499 0
M  V30 14532 C 1348.47 1.21278 1.13494 0
M  V30 14533 O 1349.65 1.49878 1.18073 0
M  V30 14534 C 1346.79 2.97185 1.75429 0
M  V30 14535 C 1345.9 4.1393 1.23638 0
M  V30 14536 C 1345.04 4.7545 2.36899 0
M  V30 14537 C 1344.08 5.84352 1.82207 0
M  V30 14538 N 1343.22 6.39855 2.89015 0
M  V30 14539 H 1348.06 2.98 -0.00519329 0
M  V30 14540 H 1345.59 1.47093 -0.0143313 0
M  V30 14541 H 1347.55 3.38271 2.4419 0
M  V30 14542 H 1346.18 2.24837 2.3162 0
M  V30 14543 H 1345.23 3.77832 0.441247 0
M  V30 14544 H 1346.54 4.92409 0.795946 0
M  V30 14545 H 1345.7 5.19353 3.1362 0
M  V30 14546 H 1344.44 3.96288 2.84266 0
M  V30 14547 H 1343.44 5.39879 1.03974 0
M  V30 14548 H 1344.67 6.65393 1.35753 0
M  V30 14549 H 1342.61 5.6358 3.35729 0
M  V30 14550 H 1342.53 7.13661 2.49447 0
M  V30 14551 H 1343.8 6.88417 3.65654 0
M  V30 14552 N 1348.03 0.0217466 1.57585 0
M  V30 14553 C 1348.97 -0.962559 2.0977 0
M  V30 14554 C 1349.94 -1.32771 0.998053 0
M  V30 14555 O 1351.13 -1.42231 1.27181 0
M  V30 14556 C 1348.27 -2.24214 2.62339 0
M  V30 14557 C 1347.38 -1.9341 3.86286 0
M  V30 14558 C 1346.52 -3.15609 4.27275 0
M  V30 14559 C 1345.56 -2.8059 5.43999 0
M  V30 14560 N 1344.69 -3.95392 5.8018 0
M  V30 14561 H 1349.53 -0.510626 2.93593 0
M  V30 14562 H 1347.07 -0.240456 1.45121 0
M  V30 14563 H 1349.03 -2.99049 2.90905 0
M  V30 14564 H 1347.66 -2.67037 1.81358 0
M  V30 14565 H 1346.71 -1.08849 3.64494 0
M  V30 14566 H 1348.02 -1.63614 4.71203 0
M  V30 14567 H 1347.18 -3.9877 4.57239 0
M  V30 14568 H 1345.92 -3.48561 3.41111 0
M  V30 14569 H 1344.92 -1.9584 5.13738 0
M  V30 14570 H 1346.15 -2.48863 6.31858 0
M  V30 14571 H 1344.09 -4.282 4.96971 0
M  V30 14572 H 1344.01 -3.69195 6.59721 0
M  V30 14573 H 1345.28 -4.79279 6.14746 0
M  V30 14574 N 1349.51 -1.55583 -0.251311 0
M  V30 14575 C 1350.92 -1.47908 -0.599606 0
M  V30 14576 C 1351.12 -0.711061 -1.88537 0
M  V30 14577 O 1350.18 -0.238639 -2.5137 0
M  V30 14578 C 1351.49 -2.92284 -0.706429 0
M  V30 14579 C 1353.04 -3.02629 -0.799049 0
M  V30 14580 C 1353.51 -4.48303 -0.93747 0
M  V30 14581 N 1355 -4.52222 -1.00245 0
M  V30 14582 C 1355.74 -5.62181 -1.12874 0
M  V30 14583 N 1355.24 -6.81958 -1.22085 0
M  V30 14584 N 1357.03 -5.49968 -1.16155 0
M  V30 14585 H 1349.18 -2.0396 0.592806 0
M  V30 14586 H 1351.44 -0.925797 0.203971 0
M  V30 14587 H 1351.15 -3.51297 0.168243 0
M  V30 14588 H 1351.02 -3.42524 -1.57979 0
M  V30 14589 H 1353.41 -2.43699 -1.66418 0
M  V30 14590 H 1353.49 -2.55607 0.099367 0
M  V30 14591 H 1353.13 -5.07842 -0.0769166 0
M  V30 14592 H 1353.06 -4.93002 -1.85086 0
M  V30 14593 H 1355.56 -3.65951 -0.94279 0
M  V30 14594 H 1355.87 -7.6151 -1.31616 0
M  V30 14595 H 1354.21 -6.84728 -1.1905 0
M  V30 14596 H 1357.4 -4.55327 -1.08604 0
M  V30 14597 H 1357.58 -6.35701 -1.25653 0
M  V30 14598 N 1350.98 0.516783 -1.48886 0
M  V30 14599 C 1352.21 1.30103 -1.61518 0
M  V30 14600 C 1352.63 1.85996 -0.28055 0
M  V30 14601 O 1351.99 1.65075 0.749671 0
M  V30 14602 C 1352.04 2.41837 -2.67483 0
M  V30 14603 O 1351.14 3.45249 -2.25559 0
M  V30 14604 H 1350.48 0.384774 -0.541152 0
M  V30 14605 H 1353.01 0.620424 -1.94966 0
M  V30 14606 H 1353.02 2.87832 -2.89165 0
M  V30 14607 H 1351.7 2.00519 -3.64369 0
M  V30 14608 H 1350.28 3.05281 -2.14144 0
M  V30 14609 N 1352.46 1.37696 0.766659 0
M  V30 14610 C 1353.71 1.32922 1.52237 0
M  V30 14611 C 1354.03 -0.0842833 1.94818 0
M  V30 14612 O 1353.3 -1.02934 1.66677 0
M  V30 14613 H 1351.88 0.489049 0.564659 0
M  V30 14614 H 1354.54 1.72238 0.912142 0
M  V30 14615 H 1353.64 1.97158 2.4194 0
M  V30 14616 N 1353.94 -0.993397 1.22349 0
M  V30 14617 C 1354.89 -2.06784 0.960445 0
M  V30 14618 C 1355.87 -1.60655 -0.0887385 0
M  V30 14619 O 1357.07 -1.76581 0.121716 0
M  V30 14620 C 1354.19 -3.39034 0.539552 0
M  V30 14621 C 1353.28 -3.91798 1.62344 0
M  V30 14622 N 1353.67 -4.17791 2.85104 0
M  V30 14623 C 1351.97 -4.20197 1.49501 0
M  V30 14624 C 1352.67 -4.6067 3.55187 0
M  V30 14625 N 1351.65 -4.64333 2.82658 0
M  V30 14626 H 1355.45 -2.24821 1.89295 0
M  V30 14627 H 1352.96 -1.17509 1.12095 0
M  V30 14628 H 1354.96 -4.15573 0.332419 0
M  V30 14629 H 1353.62 -3.22397 -0.38606 0
M  V30 14630 H 1354.63 -4.05999 3.21536 0
M  V30 14631 H 1351.31 -4.12634 0.635546 0
M  V30 14632 H 1352.7 -4.89408 4.60358 0
M  V30 14633 N 1355.42 -1.03311 -1.19015 0
M  V30 14634 C 1356.64 -0.751686 -1.93299 0
M  V30 14635 C 1357.07 0.68392 -1.75226 0
M  V30 14636 O 1356.43 1.47274 -1.05736 0
M  V30 14637 C 1356.47 -1.11335 -3.42982 0
M  V30 14638 O 1355.58 -0.234434 -4.11733 0
M  V30 14639 H 1354.92 -0.277331 -0.60331 0
M  V30 14640 H 1357.45 -1.38092 -1.5097 0
M  V30 14641 H 1357.46 -1.07204 -3.93664 0
M  V30 14642 H 1356.13 -2.15922 -3.55458 0
M  V30 14643 H 1354.71 -0.3347 -3.71395 0
M  V30 14644 N 1356.9 1.35099 -0.81154 0
M  V30 14645 C 1358.17 1.93009 -0.317289 0
M  V30 14646 C 1358.55 1.74101 1.19382 0
M  V30 14647 O 1357.9 1.11295 1.99564 0
M  V30 14648 C 1358.11 3.41191 -0.734123 0
M  V30 14649 C 1359.46 4.1834 -0.726437 0
M  V30 14650 O 1360.48 3.49727 -0.67598 0
M  V30 14651 O 1359.34 5.4077 -0.789291 0
M  V30 14652 H 1356.44 0.822707 -0.084153 0
M  V30 14653 H 1358.98 1.44145 -0.895569 0
M  V30 14654 H 1357.75 3.48705 -1.7754 0
M  V30 14655 H 1357.38 3.97384 -0.130919 0
M  V30 14656 N 1358.37 0.56548 1.47106 0
M  V30 14657 C 1359.6 0.0476763 2.07345 0
M  V30 14658 C 1360.02 -1.24032 1.41413 0
M  V30 14659 O 1359.38 -1.74498 0.491941 0
M  V30 14660 C 1359.43 -0.122618 3.60391 0
M  V30 14661 O 1358.53 -1.18326 3.9506 0
M  V30 14662 H 1357.87 0.0550419 0.661715 0
M  V30 14663 H 1360.4 0.78352 1.89003 0
M  V30 14664 H 1360.41 -0.334227 4.06629 0
M  V30 14665 H 1359.09 0.81807 4.07775 0
M  V30 14666 H 1357.67 -0.951481 3.60557 0
M  V30 14667 N 1359.85 -1.54672 0.302354 0
M  V30 14668 C 1360.8 -2.25022 -0.58887 0
M  V30 14669 C 1361.79 -1.25671 -1.13592 0
M  V30 14670 O 1363 -1.43518 -1.0864 0
M  V30 14671 H 1359.38 -0.722515 -0.208509 0
M  V30 14672 H 1361.35 -2.98388 0.0269928 0
M  V30 14673 C 1360.1 -3.00532 -1.74859 0
M  V30 14674 H 1359.42 -3.76786 -1.33688 0
M  V30 14675 H 1360.86 -3.53036 -2.34823 0
M  V30 14676 C 1359.32 -2.0758 -2.65353 0
M  V30 14677 O 1359.85 -1.64473 -3.66485 0
M  V30 14678 N 1358.05 -1.73508 -2.33116 0
M  V30 14679 H 1357.6 -2.0876 -1.5092 0
M  V30 14680 H 1357.56 -1.11591 -2.9393 0
M  V30 14681 N 1361.33 -0.0301034 -1.57571 0
M  V30 14682 C 1362.58 0.647042 -1.91462 0
M  V30 14683 C 1362.9 1.72612 -0.907206 0
M  V30 14684 O 1362.17 1.95833 0.0511268 0
M  V30 14685 H 1360.75 0.241988 -0.706718 0
M  V30 14686 H 1363.41 -0.0781385 -1.94743 0
M  V30 14687 H 1362.51 1.09915 -2.92105 0
M  V30 14688 N 1362.81 1.55714 0.243056 0
M  V30 14689 C 1364.06 1.77726 0.970555 0
M  V30 14690 C 1364.38 0.595108 1.85172 0
M  V30 14691 O 1363.64 -0.42143 1.91108 0
M  V30 14692 C 1363.94 3.05281 1.85845 0
M  V30 14693 C 1363.6 4.36451 1.13232 0
M  V30 14694 C 1362.27 4.72095 0.931656 0
M  V30 14695 C 1364.62 5.17524 0.617944 0
M  V30 14696 C 1361.95 5.86344 0.204373 0
M  V30 14697 C 1364.3 6.32527 -0.0958899 0
M  V30 14698 C 1362.96 6.66789 -0.308 0
M  V30 14699 H 1362.23 0.650345 0.355151 0
M  V30 14700 H 1364.88 1.89986 0.240351 0
M  V30 14701 H 1363.18 2.8805 2.65584 0
M  V30 14702 H 1364.88 3.19511 2.4231 0
M  V30 14703 H 1361.47 4.08451 1.29867 0
M  V30 14704 H 1365.65 4.90439 0.760507 0
M  V30 14705 H 1360.91 6.11393 0.0296 0
M  V30 14706 H 1365.08 6.94588 -0.502077 0
M  V30 14707 H 1362.71 7.55165 -0.873502 0
M  V30 14708 N 1364.29 -0.50888 1.49158 0
M  V30 14709 C 1365.25 -1.59354 1.64739 0
M  V30 14710 C 1366.25 -1.52175 0.519557 0
M  V30 14711 O 1367.44 -1.55468 0.785838 0
M  V30 14712 C 1364.57 -2.99002 1.63739 0
M  V30 14713 H 1365.76 -1.46871 2.61474 0
M  V30 14714 H 1363.32 -0.732532 1.38071 0
M  V30 14715 H 1364.05 -3.1697 0.685583 0
M  V30 14716 H 1363.84 -3.05622 2.45637 0
M  V30 14717 H 1365.33 -3.77822 1.77877 0
M  V30 14718 N 1365.76 -1.381 -0.759346 0
M  V30 14719 C 1367.01 -1.33727 -1.5153 0
M  V30 14720 C 1367.33 0.0739504 -1.9486 0
M  V30 14721 O 1366.6 1.02049 -1.67221 0
M  V30 14722 H 1365.18 -0.492037 -0.562058 0
M  V30 14723 H 1367.85 -1.72719 -0.902995 0
M  V30 14724 H 1366.94 -1.98439 -2.40891 0
M  V30 14725 N 1367.24 0.986894 -1.22875 0
M  V30 14726 C 1368.19 2.06271 -0.971398 0
M  V30 14727 C 1369.18 1.607 0.0802173 0
M  V30 14728 O 1370.37 1.76514 -0.131079 0
M  V30 14729 C 1367.5 3.38743 -0.557524 0
M  V30 14730 C 1366.58 3.90931 -1.64419 0
M  V30 14731 N 1366.97 4.16273 -2.87315 0
M  V30 14732 C 1365.27 4.19398 -1.51727 0
M  V30 14733 C 1365.97 4.5878 -3.57625 0
M  V30 14734 N 1364.95 4.62828 -2.85116 0
M  V30 14735 H 1368.75 2.23814 -1.90485 0
M  V30 14736 H 1366.27 1.16913 -1.12717 0
M  V30 14737 H 1368.26 4.1539 -0.354453 0
M  V30 14738 H 1366.92 3.22597 0.368957 0
M  V30 14739 H 1367.93 4.04288 -3.23684 0
M  V30 14740 H 1364.61 4.12291 -0.65742 0
M  V30 14741 H 1366 4.8696 -4.62947 0
M  V30 14742 N 1368.72 1.0394 1.18466 0
M  V30 14743 C 1369.97 0.737233 1.87744 0
M  V30 14744 C 1370.28 -0.737891 1.81148 0
M  V30 14745 O 1371.49 -1.15353 2.45776 0
M  V30 14746 C 1369.94 1.26844 3.36806 0
M  V30 14747 C 1369.55 2.7721 3.51935 0
M  V30 14748 C 1371.3 1.04274 4.11494 0
M  V30 14749 C 1369.2 3.23696 4.9495 0
M  V30 14750 H 1368.13 0.272082 0.703198 0
M  V30 14751 H 1370.78 1.25507 1.33866 0
M  V30 14752 H 1369.17 0.67847 3.90145 0
M  V30 14753 H 1370.34 3.41954 3.08875 0
M  V30 14754 H 1368.66 2.98179 2.90652 0
M  V30 14755 H 1371.25 1.3652 5.16978 0
M  V30 14756 H 1371.6 -0.0200645 4.16295 0
M  V30 14757 H 1372.13 1.59726 3.64325 0
M  V30 14758 H 1368.87 4.29351 4.95316 0
M  V30 14759 H 1368.39 2.63687 5.38729 0
M  V30 14760 H 1370.07 3.17645 5.63658 0
M  V30 14761 N 1370.2 -1.34667 0.818693 0
M  V30 14762 C 1371.15 -2.31501 0.225816 0
M  V30 14763 C 1372.14 -1.57205 -0.631112 0
M  V30 14764 O 1373.35 -1.72237 -0.522924 0
M  V30 14765 H 1369.72 -0.750039 0.0542747 0
M  V30 14766 H 1371.69 -2.79036 1.05743 0
M  V30 14767 C 1370.44 -3.42464 -0.60114 0
M  V30 14768 H 1369.76 -3.9977 0.0489207 0
M  V30 14769 H 1371.2 -4.12468 -0.982154 0
M  V30 14770 C 1369.66 -2.86551 -1.77173 0
M  V30 14771 O 1370.19 -2.81085 -2.86974 0
M  V30 14772 N 1368.4 -2.43432 -1.58712 0
M  V30 14773 H 1367.95 -2.48077 -0.693958 0
M  V30 14774 H 1367.9 -2.06371 -2.37188 0
M  V30 14775 N 1371.68 -0.573274 -1.46804 0
M  V30 14776 C 1372.61 0.153316 -2.32996 0
M  V30 14777 C 1373.59 0.893013 -1.44773 0
M  V30 14778 O 1374.77 0.870329 -1.73606 0
M  V30 14779 C 1371.9 1.1736 -3.2687 0
M  V30 14780 C 1370.86 0.549347 -4.2446 0
M  V30 14781 C 1370.18 1.67542 -5.07773 0
M  V30 14782 C 1371.48 -0.50736 -5.1983 0
M  V30 14783 H 1373.18 -0.566305 -2.93995 0
M  V30 14784 H 1370.72 -0.273785 -1.41373 0
M  V30 14785 H 1372.68 1.6902 -3.86019 0
M  V30 14786 H 1371.4 1.92337 -2.63958 0
M  V30 14787 H 1370.06 0.0539142 -3.6656 0
M  V30 14788 H 1369.71 2.41463 -4.41253 0
M  V30 14789 H 1369.41 1.26343 -5.73856 0
M  V30 14790 H 1370.93 2.19496 -5.69784 0
M  V30 14791 H 1372.34 -0.0762061 -5.73249 0
M  V30 14792 H 1370.74 -0.839139 -5.94204 0
M  V30 14793 H 1371.81 -1.39723 -4.64333 0
M  V30 14794 N 1373.15 1.5451 -0.310553 0
M  V30 14795 C 1374.57 1.85829 0.180166 0
M  V30 14796 C 1374.92 1.23239 1.52665 0
M  V30 14797 O 1374.04 0.53359 2.09718 0
M  V30 14798 C 1374.64 3.37153 0.333687 0
M  V30 14799 C 1373.2 3.68469 0.768625 0
M  V30 14800 C 1372.34 2.77051 -0.117399 0
M  V30 14801 H 1375.29 1.49544 -0.531262 0
M  V30 14802 H 1375.31 3.62171 1.16673 0
M  V30 14803 H 1374.83 3.82678 -0.646455 0
M  V30 14804 H 1372.93 3.28467 1.75898 0
M  V30 14805 H 1373.04 4.75559 0.581392 0
M  V30 14806 H 1371.4 2.51461 0.404905 0
M  V30 14807 H 1372.19 3.254 -1.09407 0
M  V30 14808 N 1374.63 0.0384594 1.57553 0
M  V30 14809 C 1375.91 -0.677308 1.83499 0
M  V30 14810 C 1376.29 -1.89789 0.924294 0
M  V30 14811 O 1375.64 -2.28493 -0.0178185 0
M  V30 14812 C 1375.85 -1.04667 3.32935 0
M  V30 14813 C 1377.2 -1.43436 3.99639 0
M  V30 14814 O 1378.22 -1.13938 3.37486 0
M  V30 14815 O 1377.08 -1.98435 5.09201 0
M  V30 14816 H 1374.17 -0.333131 0.756936 0
M  V30 14817 H 1376.72 0.066854 1.69568 0
M  V30 14818 H 1375.49 -0.178349 3.90893 0
M  V30 14819 H 1375.11 -1.8487 3.52007 0
M  V30 14820 N 1376.11 -1.55841 -0.234795 0
M  V30 14821 C 1377.04 -1.94344 -1.29432 0
M  V30 14822 C 1378.02 -0.809912 -1.49581 0
M  V30 14823 O 1379.21 -1.07117 -1.61986 0
M  V30 14824 C 1376.34 -2.24866 -2.64675 0
M  V30 14825 C 1375.29 -3.40584 -2.59203 0
M  V30 14826 C 1374.62 -3.56678 -3.98353 0
M  V30 14827 C 1375.92 -4.75935 -2.15135 0
M  V30 14828 H 1377.61 -2.83096 -0.97454 0
M  V30 14829 H 1375.16 -1.36205 -0.467355 0
M  V30 14830 H 1377.11 -2.50392 -3.38942 0
M  V30 14831 H 1375.83 -1.32953 -2.98314 0
M  V30 14832 H 1374.49 -3.15087 -1.87393 0
M  V30 14833 H 1374.14 -2.62164 -4.29277 0
M  V30 14834 H 1373.84 -4.34503 -3.95577 0
M  V30 14835 H 1375.37 -3.84538 -4.74302 0
M  V30 14836 H 1376.78 -5.00753 -2.7914 0
M  V30 14837 H 1375.18 -5.56949 -2.23446 0
M  V30 14838 H 1376.25 -4.72182 -1.10328 0
M  V30 14839 N 1377.59 0.500963 -1.49426 0
M  V30 14840 C 1378.84 1.25694 -1.5915 0
M  V30 14841 C 1379.17 1.92209 -0.277365 0
M  V30 14842 O 1378.44 1.8072 0.719065 0
M  V30 14843 C 1378.73 2.32391 -2.75076 0
M  V30 14844 C 1378.58 1.70377 -4.16283 0
M  V30 14845 C 1379.9 3.33952 -2.86643 0
M  V30 14846 H 1377.02 0.455631 -0.579283 0
M  V30 14847 H 1379.66 0.555099 -1.8171 0
M  V30 14848 H 1377.81 2.92252 -2.55971 0
M  V30 14849 H 1379.48 1.14343 -4.46904 0
M  V30 14850 H 1377.72 1.00789 -4.21929 0
M  V30 14851 H 1378.4 2.47767 -4.9327 0
M  V30 14852 H 1380.87 2.84081 -3.04035 0
M  V30 14853 H 1379.75 4.05969 -3.69433 0
M  V30 14854 H 1380.01 3.96279 -1.95998 0
M  V30 14855 N 1379.07 1.38501 0.752011 0
M  V30 14856 C 1380 1.31746 1.87551 0
M  V30 14857 C 1381.01 0.229386 1.61176 0
M  V30 14858 O 1382.2 0.487066 1.71726 0
M  V30 14859 C 1379.3 1.01889 3.23221 0
M  V30 14860 C 1378.47 2.21637 3.77088 0
M  V30 14861 C 1377.53 1.885 4.91278 0
M  V30 14862 O 1376.56 2.61011 5.05828 0
M  V30 14863 N 1377.76 0.840909 5.74377 0
M  V30 14864 H 1380.53 2.28561 1.93856 0
M  V30 14865 H 1378.09 1.32383 0.932013 0
M  V30 14866 H 1380.08 0.777704 3.97157 0
M  V30 14867 H 1378.65 0.138658 3.12292 0
M  V30 14868 H 1377.87 2.61812 2.947 0
M  V30 14869 H 1379.16 3.01551 4.0981 0
M  V30 14870 H 1378.56 0.23962 5.65192 0
M  V30 14871 H 1377.11 0.659604 6.48454 0
M  V30 14872 N 1380.55 -0.980364 1.23396 0
M  V30 14873 C 1381.48 -2.07522 0.972991 0
M  V30 14874 C 1382.49 -1.62714 -0.0530191 0
M  V30 14875 O 1383.68 -1.77564 0.182513 0
M  V30 14876 C 1380.78 -3.35977 0.444126 0
M  V30 14877 C 1379.95 -4.09756 1.53031 0
M  V30 14878 C 1379.01 -5.16488 1.00631 0
M  V30 14879 O 1378.04 -5.43368 1.69529 0
M  V30 14880 N 1379.24 -5.80263 -0.165842 0
M  V30 14881 H 1382 -2.30487 1.91561 0
M  V30 14882 H 1379.57 -1.14706 1.14255 0
M  V30 14883 H 1381.56 -4.04624 0.078617 0
M  V30 14884 H 1380.13 -3.0998 -0.403912 0
M  V30 14885 H 1379.35 -3.35564 2.06858 0
M  V30 14886 H 1380.64 -4.55815 2.26076 0
M  V30 14887 H 1380.03 -5.60811 -0.742162 0
M  V30 14888 H 1378.59 -6.50084 -0.472614 0
M  V30 14889 N 1382.02 -1.04567 -1.17913 0
M  V30 14890 C 1383.25 -0.772146 -1.92491 0
M  V30 14891 C 1383.67 0.665297 -1.75942 0
M  V30 14892 O 1383.03 1.46144 -1.07292 0
M  V30 14893 C 1383.08 -1.14966 -3.41782 0
M  V30 14894 O 1382.18 -0.278091 -4.11461 0
M  V30 14895 H 1381.52 -0.283715 -0.600335 0
M  V30 14896 H 1384.05 -1.39685 -1.49496 0
M  V30 14897 H 1384.06 -1.11374 -3.92505 0
M  V30 14898 H 1382.74 -2.1968 -3.53148 0
M  V30 14899 H 1381.32 -0.374073 -3.71019 0
M  V30 14900 N 1383.5 1.34231 -0.825823 0
M  V30 14901 C 1384.45 2.26916 -0.222038 0
M  V30 14902 C 1385.44 1.48667 0.615382 0
M  V30 14903 O 1386.63 1.7066 0.469487 0
M  V30 14904 C 1383.76 3.37787 0.612785 0
M  V30 14905 C 1382.84 4.23446 -0.235423 0
M  V30 14906 N 1383.23 4.88599 -1.30784 0
M  V30 14907 C 1381.53 4.45995 -0.0202477 0
M  V30 14908 C 1382.23 5.52254 -1.82729 0
M  V30 14909 N 1381.21 5.3171 -1.13074 0
M  V30 14910 H 1385.01 2.74796 -1.04232 0
M  V30 14911 H 1382.52 1.47983 -0.668928 0
M  V30 14912 H 1384.52 4.03159 1.06153 0
M  V30 14913 H 1383.18 2.91457 1.43119 0
M  V30 14914 H 1384.19 4.89528 -1.69066 0
M  V30 14915 H 1380.87 4.10417 0.765761 0
M  V30 14916 H 1382.26 6.14177 -2.72464 0
M  V30 14917 N 1384.98 0.581051 1.46498 0
M  V30 14918 C 1386.2 0.0696654 2.07283 0
M  V30 14919 C 1386.63 -1.22525 1.42721 0
M  V30 14920 O 1385.99 -1.73967 0.510421 0
M  V30 14921 C 1386.04 -0.0843864 3.60501 0
M  V30 14922 O 1385.14 -1.14129 3.96293 0
M  V30 14923 H 1384.48 0.0620572 0.661094 0
M  V30 14924 H 1387.01 0.803522 1.88161 0
M  V30 14925 H 1387.02 -0.29108 4.0696 0
M  V30 14926 H 1385.7 0.861274 4.06884 0
M  V30 14927 H 1384.27 -0.913186 3.61546 0
M  V30 14928 N 1386.46 -1.54343 0.318742 0
M  V30 14929 C 1387.87 -1.85922 -0.170309 0
M  V30 14930 C 1388.22 -1.24047 -1.52009 0
M  V30 14931 O 1387.34 -0.544705 -2.09432 0
M  V30 14932 C 1387.94 -3.37325 -0.315802 0
M  V30 14933 C 1386.5 -3.68871 -0.749073 0
M  V30 14934 C 1385.65 -2.76985 0.13209 0
M  V30 14935 H 1388.6 -1.4926 0.539185 0
M  V30 14936 H 1388.62 -3.62784 -1.14751 0
M  V30 14937 H 1388.13 -3.8233 0.66674 0
M  V30 14938 H 1386.23 -3.29396 -1.74153 0
M  V30 14939 H 1386.34 -4.75861 -0.556164 0
M  V30 14940 H 1384.71 -2.51672 -0.391564 0
M  V30 14941 H 1385.49 -3.24815 1.11131 0
M  V30 14942 N 1387.94 -0.0468143 -1.5753 0
M  V30 14943 C 1388.9 0.914225 -2.10177 0
M  V30 14944 C 1389.9 1.24271 -1.02045 0
M  V30 14945 O 1391.09 1.18012 -1.28136 0
M  V30 14946 C 1388.22 2.22544 -2.58238 0
M  V30 14947 H 1389.41 0.457922 -2.96383 0
M  V30 14948 H 1386.97 0.20152 -1.54995 0
M  V30 14949 H 1387.7 2.72765 -1.75413 0
M  V30 14950 H 1387.49 2.00007 -3.37253 0
M  V30 14951 H 1388.98 2.91392 -2.99133 0
M  V30 14952 N 1389.41 1.55964 0.226527 0
M  V30 14953 C 1390.66 1.78392 0.94977 0
M  V30 14954 C 1390.98 0.614444 1.85066 0
M  V30 14955 O 1390.25 -0.368894 1.92395 0
M  V30 14956 H 1388.83 0.657962 0.353688 0
M  V30 14957 H 1391.5 1.93422 0.239577 0
M  V30 14958 H 1390.59 2.70343 1.55952 0
M  V30 14959 N 1390.89 -0.493031 1.4969 0
M  V30 14960 C 1392.12 -1.27046 1.633 0
M  V30 14961 C 1392.54 -1.86278 0.307534 0
M  V30 14962 O 1391.89 -1.68208 -0.707968 0
M  V30 14963 C 1391.94 -2.39501 2.70779 0
M  V30 14964 O 1391.66 -1.82702 3.98185 0
M  V30 14965 C 1393.17 -3.30744 2.95166 0
M  V30 14966 H 1390.39 -0.385042 0.54953 0
M  V30 14967 H 1392.93 -0.590998 1.95774 0
M  V30 14968 H 1391.08 -3.03263 2.41061 0
M  V30 14969 H 1391.5 -2.56588 4.57452 0
M  V30 14970 H 1392.97 -4.05912 3.74085 0
M  V30 14971 H 1393.45 -3.88217 2.05387 0
M  V30 14972 H 1394.06 -2.72741 3.26332 0
M  V30 14973 N 1392.37 -1.38898 -0.744656 0
M  V30 14974 C 1393.78 -1.31789 -1.32244 0
M  V30 14975 C 1394.13 0.0222208 -1.96187 0
M  V30 14976 O 1393.26 0.924328 -1.95666 0
M  V30 14977 C 1393.85 -2.38674 -2.40458 0
M  V30 14978 C 1392.41 -2.35116 -2.93935 0
M  V30 14979 C 1391.56 -2.21069 -1.67403 0
M  V30 14980 H 1394.51 -1.49126 -0.54287 0
M  V30 14981 H 1394.53 -2.04905 -3.20615 0
M  V30 14982 H 1394.04 -3.36197 -1.9389 0
M  V30 14983 H 1392.14 -1.41201 -3.44809 0
M  V30 14984 H 1392.26 -3.29602 -3.47706 0
M  V30 14985 H 1390.62 -1.68074 -1.91372 0
M  V30 14986 H 1391.4 -3.20547 -1.229 0
M  V30 14987 N 1393.85 0.973806 -1.23914 0
M  V30 14988 C 1395.08 1.75107 -1.10206 0
M  V30 14989 C 1395.49 1.85604 0.345935 0
M  V30 14990 O 1394.85 1.33996 1.239 0
M  V30 14991 C 1394.9 3.17466 -1.72909 0
M  V30 14992 O 1394.62 3.07504 -3.12047 0
M  V30 14993 C 1396.12 4.11557 -1.6473 0
M  V30 14994 H 1393.34 0.549318 -0.385345 0
M  V30 14995 H 1395.89 1.22301 -1.63898 0
M  V30 14996 H 1394.04 3.67277 -1.23234 0
M  V30 14997 H 1394.45 3.97169 -3.42575 0
M  V30 14998 H 1395.93 5.09126 -2.13295 0
M  V30 14999 H 1396.41 4.3498 -0.607352 0
M  V30 15000 H 1397.01 3.67653 -2.13802 0
M  V30 15001 N 1395.33 1.05191 1.17357 0
M  V30 15002 C 1396.24 0.663617 2.25018 0
M  V30 15003 C 1397.25 -0.315299 1.71119 0
M  V30 15004 O 1398.43 -0.167398 2.00703 0
M  V30 15005 C 1395.49 0.0443307 3.46672 0
M  V30 15006 C 1394.55 1.07369 4.15656 0
M  V30 15007 C 1393.79 0.483864 5.31502 0
M  V30 15008 O 1394.01 -0.706692 5.66005 0
M  V30 15009 O 1392.94 1.21812 5.89445 0
M  V30 15010 H 1396.77 1.56088 2.60519 0
M  V30 15011 H 1394.36 0.823474 1.24657 0
M  V30 15012 H 1396.24 -0.299839 4.20332 0
M  V30 15013 H 1394.91 -0.826579 3.12969 0
M  V30 15014 H 1393.82 1.46985 3.44015 0
M  V30 15015 H 1395.15 1.91575 4.53387 0
M  V30 15016 N 1396.8 -1.33791 0.83293 0
M  V30 15017 C 1398.05 -1.97582 0.42494 0
M  V30 15018 C 1398.37 -1.66328 -1.01784 0
M  V30 15019 O 1397.64 -0.959141 -1.70814 0
M  V30 15020 H 1396.22 -0.730923 0.154143 0
M  V30 15021 H 1398.89 -1.63257 1.06458 0
M  V30 15022 H 1397.98 -3.07177 0.552127 0
M  V30 15023 N 1398.28 -0.588812 -1.46187 0
M  V30 15024 C 1399.21 0.128595 -2.33146 0
M  V30 15025 C 1400.19 0.877608 -1.45712 0
M  V30 15026 O 1401.38 0.851866 -1.74519 0
M  V30 15027 C 1398.51 1.13886 -3.28096 0
M  V30 15028 C 1397.46 0.504296 -4.25019 0
M  V30 15029 C 1396.79 1.62147 -5.09522 0
M  V30 15030 C 1398.09 -0.562466 -5.19263 0
M  V30 15031 H 1399.78 -0.597455 -2.93378 0
M  V30 15032 H 1397.33 -0.288764 -1.41075 0
M  V30 15033 H 1399.28 1.64916 -3.8779 0
M  V30 15034 H 1398.01 1.89527 -2.65983 0
M  V30 15035 H 1396.66 0.0150325 -3.66597 0
M  V30 15036 H 1396.31 2.36769 -4.4379 0
M  V30 15037 H 1396.01 1.20249 -5.75164 0
M  V30 15038 H 1397.54 2.13441 -5.7208 0
M  V30 15039 H 1398.95 -0.137003 -5.73136 0
M  V30 15040 H 1397.35 -0.902115 -5.93281 0
M  V30 15041 H 1398.42 -1.4464 -4.62825 0
M  V30 15042 N 1399.76 1.54172 -0.326923 0
M  V30 15043 C 1401.01 2.00233 0.274098 0
M  V30 15044 C 1401.33 1.21665 1.5239 0
M  V30 15045 O 1400.6 0.319359 1.93279 0
M  V30 15046 H 1399.18 0.739687 0.104271 0
M  V30 15047 H 1401.84 1.8977 -0.444244 0
M  V30 15048 H 1400.94 3.07599 0.528154 0
M  V30 15049 N 1401.24 0.0551678 1.57503 0
M  V30 15050 C 1402.65 -0.3014 1.56728 0
M  V30 15051 C 1402.85 -1.71169 1.06317 0
M  V30 15052 O 1401.91 -2.4197 0.721566 0
M  V30 15053 C 1403.22 -0.12622 3.00435 0
M  V30 15054 C 1404.77 -0.197022 3.12379 0
M  V30 15055 C 1405.25 -0.0503235 4.57972 0
M  V30 15056 N 1406.74 -0.106471 4.63078 0
M  V30 15057 C 1407.47 -0.0171325 5.73397 0
M  V30 15058 N 1406.97 0.124781 6.92688 0
M  V30 15059 N 1408.76 -0.0730028 5.62053 0
M  V30 15060 H 1400.91 0.977072 1.88592 0
M  V30 15061 H 1403.18 0.37963 0.868668 0
M  V30 15062 H 1402.88 0.846286 3.41366 0
M  V30 15063 H 1402.76 -0.885574 3.66657 0
M  V30 15064 H 1405.14 -1.16 2.71345 0
M  V30 15065 H 1405.22 0.593155 2.48828 0
M  V30 15066 H 1404.87 0.909352 4.99693 0
M  V30 15067 H 1404.8 -0.859695 5.19535 0
M  V30 15068 H 1407.29 -0.215241 3.77287 0
M  V30 15069 H 1407.6 0.185548 7.72577 0
M  V30 15070 H 1405.95 0.15992 6.94816 0
M  V30 15071 H 1409.14 -0.182456 4.67744 0
M  V30 15072 H 1409.31 7.85052e-05 6.48 0
M  V30 15073 N 1402.72 -1.56081 -0.218252 0
M  V30 15074 C 1403.96 -1.79513 -0.943553 0
M  V30 15075 C 1404.3 -0.625367 -1.83855 0
M  V30 15076 O 1403.57 0.375226 -1.90846 0
M  V30 15077 C 1403.85 -3.13049 -1.77967 0
M  V30 15078 C 1403.71 -4.40479 -0.910939 0
M  V30 15079 C 1405.03 -3.43057 -2.7568 0
M  V30 15080 H 1402.14 -0.653057 -0.341593 0
M  V30 15081 H 1404.79 -1.88811 -0.212226 0
M  V30 15082 H 1402.94 -3.05254 -2.40318 0
M  V30 15083 H 1404.61 -4.60298 -0.303922 0
M  V30 15084 H 1402.85 -4.33259 -0.216513 0
M  V30 15085 H 1403.52 -5.3036 -1.53042 0
M  V30 15086 H 1406 -3.51002 -2.23465 0
M  V30 15087 H 1404.87 -4.37657 -3.31282 0
M  V30 15088 H 1405.14 -2.65389 -3.53584 0
M  V30 15089 N 1404.2 0.485086 -1.49949 0
M  V30 15090 C 1405.42 1.26648 -1.64241 0
M  V30 15091 C 1405.85 1.85359 -0.319939 0
M  V30 15092 O 1405.2 1.66628 0.714487 0
M  V30 15093 C 1405.25 2.36109 -2.72552 0
M  V30 15094 O 1404.36 3.40387 -2.32832 0
M  V30 15095 H 1403.7 0.373208 -0.549192 0
M  V30 15096 H 1406.23 0.578929 -1.96239 0
M  V30 15097 H 1406.24 2.81634 -2.95205 0
M  V30 15098 H 1404.91 1.92745 -3.6854 0
M  V30 15099 H 1403.49 3.0067 -2.20571 0
M  V30 15100 N 1405.67 1.39291 0.737279 0
M  V30 15101 C 1406.9 1.39659 1.52653 0
M  V30 15102 C 1407.32 -0.00948259 1.88798 0
M  V30 15103 O 1406.67 -0.980249 1.53939 0
M  V30 15104 C 1406.72 2.2674 2.81552 0
M  V30 15105 O 1406.45 3.61871 2.46943 0
M  V30 15106 C 1407.95 2.35466 3.75594 0
M  V30 15107 H 1405.17 0.477108 0.471814 0
M  V30 15108 H 1407.71 1.83077 0.911205 0
M  V30 15109 H 1405.87 1.86741 3.39421 0
M  V30 15110 H 1406.28 4.07897 3.29728 0
M  V30 15111 H 1407.75 3.00649 4.62941 0
M  V30 15112 H 1408.23 1.37314 4.17183 0
M  V30 15113 H 1408.84 2.75925 3.23644 0
M  V30 15114 N 1407.15 -0.967221 1.24429 0
M  V30 15115 C 1408.1 -2.047 1.00409 0
M  V30 15116 C 1409.09 -1.60807 -0.0546412 0
M  V30 15117 O 1410.28 -1.76283 0.159145 0
M  V30 15118 C 1407.41 -3.37813 0.611345 0
M  V30 15119 C 1406.49 -3.88266 1.70618 0
M  V30 15120 N 1406.88 -4.1165 2.93901 0
M  V30 15121 C 1405.18 -4.16931 1.5838 0
M  V30 15122 C 1405.88 -4.53032 3.64879 0
M  V30 15123 N 1404.86 -4.58233 2.92444 0
M  V30 15124 H 1408.66 -2.20755 1.94021 0
M  V30 15125 H 1406.17 -1.15105 1.14562 0
M  V30 15126 H 1408.17 -4.14774 0.420493 0
M  V30 15127 H 1406.83 -3.23143 -0.317588 0
M  V30 15128 H 1407.84 -3.99087 3.30075 0
M  V30 15129 H 1404.52 -4.11193 0.722929 0
M  V30 15130 H 1405.91 -4.79533 4.70635 0
M  V30 15131 N 1408.63 -1.05812 -1.16797 0
M  V30 15132 C 1409.85 -0.792518 -1.91661 0
M  V30 15133 C 1410.28 0.646598 -1.76637 0
M  V30 15134 O 1409.64 1.44998 -1.08836 0
M  V30 15135 C 1409.69 -1.18585 -3.40544 0
M  V30 15136 O 1408.79 -0.321716 -4.11143 0
M  V30 15137 H 1408.13 -0.290066 -0.597292 0
M  V30 15138 H 1410.66 -1.41263 -1.48007 0
M  V30 15139 H 1410.67 -1.1553 -3.91301 0
M  V30 15140 H 1409.35 -2.23413 -3.50798 0
M  V30 15141 H 1407.92 -0.413403 -3.70601 0
M  V30 15142 N 1410.11 1.33347 -0.840014 0
M  V30 15143 C 1411.04 2.28029 -0.231432 0
M  V30 15144 C 1412.05 1.51792 0.588488 0
M  V30 15145 O 1413.24 1.736 0.415371 0
M  V30 15146 C 1410.34 3.31745 0.692721 0
M  V30 15147 C 1409.51 4.37311 -0.0881144 0
M  V30 15148 C 1408.57 5.20689 0.759557 0
M  V30 15149 O 1407.6 5.68854 0.198347 0
M  V30 15150 N 1408.8 5.42082 2.07672 0
M  V30 15151 H 1411.57 2.80893 -1.04495 0
M  V30 15152 H 1409.13 1.46053 -0.698586 0
M  V30 15153 H 1411.12 3.84428 1.2648 0
M  V30 15154 H 1409.69 2.79148 1.40695 0
M  V30 15155 H 1408.91 3.85112 -0.841579 0
M  V30 15156 H 1410.2 5.04947 -0.624986 0
M  V30 15157 H 1409.6 5.04654 2.55619 0
M  V30 15158 H 1408.15 5.97817 2.59726 0
M  V30 15159 N 1411.59 0.596556 1.45873 0
M  V30 15160 C 1412.5 -0.130832 2.34235 0
M  V30 15161 C 1413.51 -0.871805 1.50584 0
M  V30 15162 O 1414.69 -0.831877 1.83417 0
M  V30 15163 C 1411.75 -1.12279 3.28016 0
M  V30 15164 C 1410.81 -0.384982 4.2757 0
M  V30 15165 C 1410.05 -1.32969 5.1687 0
M  V30 15166 O 1410.27 -2.56696 5.09375 0
M  V30 15167 O 1409.2 -0.832741 5.96112 0
M  V30 15168 H 1413.03 0.59503 2.97814 0
M  V30 15169 H 1410.61 0.356873 1.45075 0
M  V30 15170 H 1412.5 -1.6944 3.85834 0
M  V30 15171 H 1411.17 -1.82988 2.67015 0
M  V30 15172 H 1410.08 0.228816 3.734 0
M  V30 15173 H 1411.41 0.281398 4.91395 0
M  V30 15174 N 1413.06 -1.53996 0.335095 0
M  V30 15175 C 1414 -2.21007 -0.568424 0
M  V30 15176 C 1414.97 -1.19112 -1.10685 0
M  V30 15177 O 1416.16 -1.47898 -1.1687 0
M  V30 15178 C 1413.29 -2.88086 -1.78113 0
M  V30 15179 C 1412.33 -4.03798 -1.37292 0
M  V30 15180 S 1413.16 -5.34005 -0.399865 0
M  V30 15181 C 1414.32 -6.04582 -1.6196 0
M  V30 15182 H 1414.55 -2.973 0.000770174 0
M  V30 15183 H 1412.09 -1.53939 0.119169 0
M  V30 15184 H 1414.04 -3.27353 -2.4769 0
M  V30 15185 H 1412.71 -2.11575 -2.32153 0
M  V30 15186 H 1411.9 -4.49637 -2.27689 0
M  V30 15187 H 1411.5 -3.66264 -0.75673 0
M  V30 15188 H 1413.79 -6.27462 -2.55534 0
M  V30 15189 H 1414.74 -6.97804 -1.20315 0
M  V30 15190 H 1415.14 -5.34634 -1.81181 0
M  V30 15191 N 1414.54 -0.0635198 -1.57472 0
M  V30 15192 C 1415.82 0.648029 -1.84553 0
M  V30 15193 C 1416.2 1.88295 -0.954371 0
M  V30 15194 O 1415.55 2.28492 -0.0185351 0
M  V30 15195 C 1415.76 0.993573 -3.34558 0
M  V30 15196 C 1417.1 1.3706 -4.0187 0
M  V30 15197 O 1418.13 1.08555 -3.39255 0
M  V30 15198 O 1416.99 1.90309 -5.12294 0
M  V30 15199 H 1414.08 0.321047 -0.76214 0
M  V30 15200 H 1416.63 -0.0938223 -1.6944 0
M  V30 15201 H 1415.4 0.116139 -3.91128 0
M  V30 15202 H 1415.02 1.79246 -3.54904 0
M  V30 15203 N 1416.02 1.56195 0.209972 0
M  V30 15204 C 1417.24 1.84189 0.953364 0
M  V30 15205 C 1417.67 0.645288 1.76685 0
M  V30 15206 O 1417.03 -0.405962 1.76696 0
M  V30 15207 C 1417.08 3.10281 1.83733 0
M  V30 15208 O 1416.18 2.89788 2.93422 0
M  V30 15209 H 1415.52 0.606931 0.269314 0
M  V30 15210 H 1418.05 2.03416 0.219783 0
M  V30 15211 H 1418.06 3.40688 2.2449 0
M  V30 15212 H 1416.74 3.97 1.23951 0
M  V30 15213 H 1415.31 2.70643 2.56528 0
M  V30 15214 N 1417.5 -0.477127 1.50204 0
M  V30 15215 C 1418.75 -1.22722 1.60573 0
M  V30 15216 C 1419.07 -1.92595 0.305326 0
M  V30 15217 O 1418.34 -1.83836 -0.676842 0
M  V30 15218 H 1416.92 -0.455973 0.591691 0
M  V30 15219 H 1419.58 -0.550915 1.86952 0
M  V30 15220 H 1418.67 -1.97837 2.41385 0
M  V30 15221 N 1418.98 -1.3968 -0.729882 0
M  V30 15222 C 1420.2 -1.40467 -1.5191 0
M  V30 15223 C 1420.62 -0.000529943 -1.888 0
M  V30 15224 O 1419.98 0.972072 -1.54457 0
M  V30 15225 C 1420.03 -2.2823 -2.80345 0
M  V30 15226 O 1419.75 -3.63176 -2.4502 0
M  V30 15227 C 1421.25 -2.37455 -3.74339 0
M  V30 15228 H 1418.47 -0.479604 -0.469277 0
M  V30 15229 H 1421.01 -1.83558 -0.901484 0
M  V30 15230 H 1419.17 -1.88538 -3.38426 0
M  V30 15231 H 1419.58 -4.0964 -3.2756 0
M  V30 15232 H 1421.06 -3.031 -4.6134 0
M  V30 15233 H 1421.53 -1.39525 -4.16449 0
M  V30 15234 H 1422.14 -2.77638 -3.22176 0
M  V30 15235 N 1420.45 0.960609 -1.2494 0
M  V30 15236 C 1421.36 2.0902 -1.06527 0
M  V30 15237 C 1422.38 1.74 -0.00406641 0
M  V30 15238 O 1423.56 2.00367 -0.203744 0
M  V30 15239 C 1420.62 3.39971 -0.679736 0
M  V30 15240 C 1419.68 3.88895 -1.81821 0
M  V30 15241 C 1418.92 5.13597 -1.45098 0
M  V30 15242 O 1419.14 5.69362 -0.343954 0
M  V30 15243 O 1418.07 5.57083 -2.27909 0
M  V30 15244 H 1421.9 2.27453 -2.01243 0
M  V30 15245 H 1419.48 1.07429 -1.03824 0
M  V30 15246 H 1421.37 4.18696 -0.47658 0
M  V30 15247 H 1420.04 3.22822 0.238231 0
M  V30 15248 H 1418.95 3.11201 -2.07617 0
M  V30 15249 H 1420.28 4.10533 -2.7152 0
M  V30 15250 N 1421.93 1.0643 1.16234 0
M  V30 15251 C 1423.16 0.80148 1.9042 0
M  V30 15252 C 1423.57 -0.648064 1.77755 0
M  V30 15253 O 1422.91 -1.4555 1.12076 0
M  V30 15254 C 1422.98 1.11855 3.41656 0
M  V30 15255 C 1422.64 2.5668 3.78107 0
M  V30 15256 C 1423.64 3.54914 3.79911 0
M  V30 15257 C 1421.32 2.92015 4.08696 0
M  V30 15258 C 1423.32 4.86522 4.11795 0
M  V30 15259 C 1421 4.23823 4.40247 0
M  V30 15260 C 1422 5.20887 4.41776 0
M  V30 15261 O 1421.69 6.50329 4.72575 0
M  V30 15262 H 1421.42 0.290009 0.610632 0
M  V30 15263 H 1423.97 1.42157 1.48258 0
M  V30 15264 H 1422.2 0.441395 3.84173 0
M  V30 15265 H 1423.89 0.839759 3.97118 0
M  V30 15266 H 1424.66 3.28957 3.56388 0
M  V30 15267 H 1420.54 2.17119 4.0667 0
M  V30 15268 H 1424.08 5.62278 4.12903 0
M  V30 15269 H 1419.98 4.49538 4.63235 0
M  V30 15270 H 1420.75 6.55339 4.90381 0
M  V30 15271 N 1423.41 -1.329 0.847073 0
M  V30 15272 C 1424.66 -1.9712 0.445872 0
M  V30 15273 C 1424.98 -1.67398 -1.00014 0
M  V30 15274 O 1424.25 -0.977204 -1.69787 0
M  V30 15275 H 1422.83 -0.729247 0.161887 0
M  V30 15276 H 1425.49 -1.62118 1.08184 0
M  V30 15277 H 1424.59 -3.06575 0.584676 0
M  V30 15278 N 1424.89 -0.604284 -1.45555 0
M  V30 15279 C 1425.82 0.165286 -2.27601 0
M  V30 15280 C 1426.8 0.876749 -1.36937 0
M  V30 15281 O 1427.98 0.886288 -1.66365 0
M  V30 15282 C 1425.11 1.23897 -3.15226 0
M  V30 15283 C 1424.16 0.631002 -4.21806 0
M  V30 15284 S 1424.99 -0.558612 -5.32578 0
M  V30 15285 C 1426.15 0.515745 -6.23772 0
M  V30 15286 H 1426.38 -0.53081 -2.92523 0
M  V30 15287 H 1423.91 -0.391717 -1.49348 0
M  V30 15288 H 1425.87 1.85358 -3.66268 0
M  V30 15289 H 1424.53 1.90712 -2.49575 0
M  V30 15290 H 1423.72 1.43876 -4.83028 0
M  V30 15291 H 1423.33 0.0915984 -3.73888 0
M  V30 15292 H 1425.62 1.39571 -6.62968 0
M  V30 15293 H 1426.56 -0.0602302 -7.08074 0
M  V30 15294 H 1426.97 0.829588 -5.58371 0
M  V30 15295 N 1426.37 1.53816 -0.343257 0
M  V30 15296 C 1427.61 2.00512 0.252845 0
M  V30 15297 C 1427.94 1.23274 1.51091 0
M  V30 15298 O 1427.21 0.339841 1.9293 0
M  V30 15299 H 1425.79 0.740751 0.0964202 0
M  V30 15300 H 1428.45 1.89288 -0.464347 0
M  V30 15301 H 1427.54 3.08142 0.495499 0
M  V30 15302 N 1427.84 0.0718701 1.57436 0
M  V30 15303 C 1429.07 -0.609701 1.98236 0
M  V30 15304 C 1429.49 -1.6235 0.949959 0
M  V30 15305 O 1428.85 -1.81103 -0.0844281 0
M  V30 15306 C 1428.9 -1.2547 3.38068 0
M  V30 15307 O 1428 -2.37055 3.37459 0
M  V30 15308 H 1427.35 -0.15679 0.645223 0
M  V30 15309 H 1429.88 0.146407 2.04076 0
M  V30 15310 H 1429.89 -1.60152 3.75254 0
M  V30 15311 H 1428.56 -0.511842 4.12738 0
M  V30 15312 H 1427.14 -2.04165 3.12043 0
M  V30 15313 N 1429.32 -1.56304 -0.201686 0
M  V30 15314 C 1430.55 -1.84692 -0.943583 0
M  V30 15315 C 1430.97 -0.654649 -1.7634 0
M  V30 15316 O 1430.33 0.396586 -1.76909 0
M  V30 15317 C 1430.38 -3.11251 -1.82085 0
M  V30 15318 O 1429.48 -2.9134 -2.91881 0
M  V30 15319 H 1428.82 -0.608351 -0.266092 0
M  V30 15320 H 1431.35 -2.0353 -0.208992 0
M  V30 15321 H 1431.36 -3.41874 -2.2268 0
M  V30 15322 H 1430.04 -3.97652 -1.21844 0
M  V30 15323 H 1428.62 -2.72 -2.55089 0
M  V30 15324 N 1430.8 0.469154 -1.50455 0
M  V30 15325 C 1432.03 1.24432 -1.653 0
M  V30 15326 C 1432.44 1.85766 -0.33713 0
M  V30 15327 O 1431.8 1.69313 0.681118 0
M  V30 15328 C 1431.85 2.35163 -2.74555 0
M  V30 15329 O 1431.57 1.76344 -4.01042 0
M  V30 15330 C 1433.07 3.26006 -3.00391 0
M  V30 15331 H 1430.29 0.376251 -0.555587 0
M  V30 15332 H 1432.84 0.559777 -1.96689 0
M  V30 15333 H 1430.99 2.99389 -2.45855 0
M  V30 15334 H 1431.41 2.49278 -4.61477 0
M  V30 15335 H 1432.88 3.99909 -3.80496 0
M  V30 15336 H 1433.36 3.84901 -2.11537 0
M  V30 15337 H 1433.96 2.67515 -3.3063 0
M  V30 15338 N 1432.28 1.40065 0.722464 0
M  V30 15339 C 1433.23 1.39784 1.83655 0
M  V30 15340 C 1434.2 0.255743 1.64119 0
M  V30 15341 O 1435.38 0.452766 1.8535 0
M  V30 15342 C 1432.52 1.25946 3.21297 0
M  V30 15343 C 1431.63 2.49805 3.52451 0
M  V30 15344 C 1430.77 2.2846 4.79562 0
M  V30 15345 C 1429.81 3.4793 5.03598 0
M  V30 15346 N 1428.94 3.25823 6.21919 0
M  V30 15347 H 1433.78 2.35013 1.83229 0
M  V30 15348 H 1431.32 1.16728 0.895154 0
M  V30 15349 H 1433.28 1.15931 4.00769 0
M  V30 15350 H 1431.91 0.343402 3.20968 0
M  V30 15351 H 1430.96 2.70375 2.67585 0
M  V30 15352 H 1432.27 3.38753 3.66126 0
M  V30 15353 H 1431.43 2.15758 5.67039 0
M  V30 15354 H 1430.17 1.36926 4.68084 0
M  V30 15355 H 1429.17 3.61116 4.14579 0
M  V30 15356 H 1430.4 4.40382 5.16953 0
M  V30 15357 H 1428.34 2.36965 6.11705 0
M  V30 15358 H 1428.26 4.08333 6.36239 0
M  V30 15359 H 1429.53 3.16841 7.12202 0
M  V30 15360 N 1433.76 -0.95397 1.25448 0
M  V30 15361 C 1434.72 -2.03231 1.0597 0
M  V30 15362 C 1435.72 -1.60795 0.0122855 0
M  V30 15363 O 1436.91 -1.7233 0.254533 0
M  V30 15364 C 1434.04 -3.35414 0.609105 0
M  V30 15365 H 1435.24 -2.21943 2.01696 0
M  V30 15366 H 1432.79 -1.13115 1.07864 0
M  V30 15367 H 1433.52 -3.22398 -0.350723 0
M  V30 15368 H 1433.31 -3.67564 1.36526 0
M  V30 15369 H 1434.8 -4.14664 0.49428 0
M  V30 15370 N 1435.24 -1.07045 -1.15668 0
M  V30 15371 C 1436.46 -0.812802 -1.9081 0
M  V30 15372 C 1436.89 0.627827 -1.77313 0
M  V30 15373 O 1436.24 1.43836 -1.10368 0
M  V30 15374 C 1436.29 -1.2219 -3.39267 0
M  V30 15375 O 1435.4 -0.365305 -4.10779 0
M  V30 15376 H 1434.74 -0.296385 -0.594182 0
M  V30 15377 H 1437.27 -1.42825 -1.465 0
M  V30 15378 H 1437.28 -1.19674 -3.90054 0
M  V30 15379 H 1435.95 -2.27121 -3.48409 0
M  V30 15380 H 1434.53 -0.452687 -3.70142 0
M  V30 15381 N 1436.71 1.32449 -0.85411 0
M  V30 15382 C 1437.96 1.97271 -0.457223 0
M  V30 15383 C 1438.29 1.67595 0.987031 0
M  V30 15384 O 1437.54 0.956301 1.70744 0
M  V30 15385 C 1437.84 3.51577 -0.642499 0
M  V30 15386 C 1437.51 4.01239 -2.05714 0
M  V30 15387 C 1436.17 4.14512 -2.44405 0
M  V30 15388 C 1438.52 4.27573 -2.98046 0
M  V30 15389 C 1435.85 4.5146 -3.74701 0
M  V30 15390 C 1438.2 4.65979 -4.27839 0
M  V30 15391 C 1436.87 4.77458 -4.66465 0
M  V30 15392 H 1436.14 0.721865 -0.16731 0
M  V30 15393 H 1438.78 1.57862 -1.08406 0
M  V30 15394 H 1437.09 3.91742 0.0675706 0
M  V30 15395 H 1438.79 3.99757 -0.315473 0
M  V30 15396 H 1435.38 3.91393 -1.74669 0
M  V30 15397 H 1439.56 4.16827 -2.69386 0
M  V30 15398 H 1434.82 4.58542 -4.04412 0
M  V30 15399 H 1438.99 4.8531 -4.99447 0
M  V30 15400 H 1436.62 5.05845 -5.67472 0
M  V30 15401 N 1438.19 0.611994 1.45232 0
M  V30 15402 C 1439.42 0.115409 2.06578 0
M  V30 15403 C 1439.83 -1.20206 1.45588 0
M  V30 15404 O 1439.19 -1.73315 0.571668 0
M  V30 15405 C 1439.24 -0.0259943 3.61491 0
M  V30 15406 O 1438.96 1.23936 4.20204 0
M  V30 15407 C 1440.46 -0.553522 4.39831 0
M  V30 15408 H 1437.68 0.0708656 0.667247 0
M  V30 15409 H 1440.23 0.840977 1.86408 0
M  V30 15410 H 1438.38 -0.701909 3.80988 0
M  V30 15411 H 1438.8 1.07187 5.13431 0
M  V30 15412 H 1440.27 -0.601536 5.48713 0
M  V30 15413 H 1440.75 -1.57671 4.09923 0
M  V30 15414 H 1441.35 0.0884954 4.25208 0
M  V30 15415 N 1439.67 -1.53632 0.351409 0
M  V30 15416 C 1441.08 -1.86241 -0.130834 0
M  V30 15417 C 1441.43 -1.27243 -1.49344 0
M  V30 15418 O 1440.56 -0.589006 -2.0823 0
M  V30 15419 C 1441.15 -3.37919 -0.244179 0
M  V30 15420 C 1439.71 -3.70377 -0.670662 0
M  V30 15421 C 1438.86 -2.76643 0.190813 0
M  V30 15422 H 1441.81 -1.48083 0.570724 0
M  V30 15423 H 1441.83 -3.65137 -1.07029 0
M  V30 15424 H 1441.34 -3.8083 0.747688 0
M  V30 15425 H 1439.44 -3.33015 -1.67127 0
M  V30 15426 H 1439.56 -4.76934 -0.455102 0
M  V30 15427 H 1437.92 -2.52446 -0.338092 0
M  V30 15428 H 1438.7 -3.22385 1.17996 0
M  V30 15429 N 1441.15 -0.0802183 -1.57396 0
M  V30 15430 C 1442.39 0.586962 -1.93807 0
M  V30 15431 C 1442.72 1.69107 -0.960887 0
M  V30 15432 O 1441.98 1.95688 0.0220779 0
M  V30 15433 C 1442.28 1.19551 -3.36812 0
M  V30 15434 C 1441.94 0.216701 -4.50379 0
M  V30 15435 C 1440.6 -0.0525552 -4.81171 0
M  V30 15436 C 1442.96 -0.452467 -5.19232 0
M  V30 15437 C 1440.28 -0.997923 -5.78151 0
M  V30 15438 C 1442.64 -1.38621 -6.17225 0
M  V30 15439 C 1441.3 -1.66385 -6.4643 0
M  V30 15440 H 1440.57 0.214785 -0.709189 0
M  V30 15441 H 1443.22 -0.152888 -1.90889 0
M  V30 15442 H 1441.52 2.01129 -3.36236 0
M  V30 15443 H 1443.22 1.71918 -3.62278 0
M  V30 15444 H 1439.81 0.436747 -4.26369 0
M  V30 15445 H 1443.99 -0.257573 -4.95631 0
M  V30 15446 H 1439.25 -1.22019 -5.991 0
M  V30 15447 H 1443.42 -1.91063 -6.69677 0
M  V30 15448 H 1441.05 -2.39799 -7.21388 0
M  V30 15449 N 1442.63 1.56409 0.193394 0
M  V30 15450 C 1443.87 1.80991 0.914875 0
M  V30 15451 C 1444.2 0.654538 1.82837 0
M  V30 15452 O 1443.48 -0.344816 1.91419 0
M  V30 15453 C 1443.76 3.15841 1.72964 0
M  V30 15454 C 1443.62 4.41873 0.840748 0
M  V30 15455 C 1444.93 3.474 2.70188 0
M  V30 15456 H 1442.05 0.658408 0.331161 0
M  V30 15457 H 1444.7 1.89125 0.182161 0
M  V30 15458 H 1442.85 3.09038 2.35431 0
M  V30 15459 H 1444.52 4.60723 0.230654 0
M  V30 15460 H 1442.76 4.33549 0.147558 0
M  V30 15461 H 1443.43 5.32728 1.44586 0
M  V30 15462 H 1445.91 3.54513 2.17852 0
M  V30 15463 H 1444.78 4.42872 3.24278 0
M  V30 15464 H 1445.04 2.7098 3.49317 0
M  V30 15465 N 1444.1 -0.461169 1.50702 0
M  V30 15466 C 1445.38 -1.22225 1.52711 0
M  V30 15467 C 1445.76 -2.09268 0.27749 0
M  V30 15468 O 1445.11 -2.16232 -0.738642 0
M  V30 15469 C 1445.32 -2.04472 2.82829 0
M  V30 15470 C 1446.67 -2.62326 3.33872 0
M  V30 15471 O 1447.69 -2.14706 2.84218 0
M  V30 15472 O 1446.55 -3.49116 4.20453 0
M  V30 15473 H 1443.64 -0.555168 0.612958 0
M  V30 15474 H 1446.19 -0.47218 1.62999 0
M  V30 15475 H 1444.96 -1.40392 3.65247 0
M  V30 15476 H 1444.58 -2.86593 2.75591 0
M  V30 15477 N 1445.58 -1.40446 -0.715026 0
M  V30 15478 C 1446.99 -1.34564 -1.29419 0
M  V30 15479 C 1447.34 -0.0193984 -1.9619 0
M  V30 15480 O 1446.47 0.882616 -1.97582 0
M  V30 15481 C 1447.06 -2.43721 -2.35342 0
M  V30 15482 C 1445.62 -2.41297 -2.88881 0
M  V30 15483 C 1444.77 -2.2457 -1.62676 0
M  V30 15484 H 1447.72 -1.50244 -0.511116 0
M  V30 15485 H 1447.74 -2.1166 -3.16197 0
M  V30 15486 H 1447.25 -3.40234 -1.86715 0
M  V30 15487 H 1445.35 -1.48483 -3.41736 0
M  V30 15488 H 1445.47 -3.36903 -3.40637 0
M  V30 15489 H 1443.83 -1.72096 -1.87763 0
M  V30 15490 H 1444.61 -3.23082 -1.16074 0
M  V30 15491 N 1447.06 0.947303 -1.25952 0
M  V30 15492 C 1448.48 1.21972 -1.02932 0
M  V30 15493 C 1448.68 1.99951 0.249333 0
M  V30 15494 O 1447.73 2.33534 0.960108 0
M  V30 15495 C 1449.04 1.98695 -2.257 0
M  V30 15496 C 1450.59 2.11711 -2.30538 0
M  V30 15497 C 1451.07 2.91835 -3.52982 0
M  V30 15498 N 1452.56 2.99411 -3.53422 0
M  V30 15499 C 1453.29 3.6182 -4.4483 0
M  V30 15500 N 1452.79 4.25781 -5.46519 0
M  V30 15501 N 1454.58 3.59033 -4.32495 0
M  V30 15502 H 1446.73 0.42583 -2.08088 0
M  V30 15503 H 1449 0.250899 -0.914196 0
M  V30 15504 H 1448.7 1.48801 -3.18671 0
M  V30 15505 H 1448.58 2.9938 -2.29459 0
M  V30 15506 H 1450.96 2.608 -1.38085 0
M  V30 15507 H 1451.04 1.10308 -2.30794 0
M  V30 15508 H 1450.69 2.43435 -4.4576 0
M  V30 15509 H 1450.62 3.9348 -3.49973 0
M  V30 15510 H 1453.11 2.53934 -2.79868 0
M  V30 15511 H 1453.42 4.71281 -6.12466 0
M  V30 15512 H 1451.77 4.24386 -5.50383 0
M  V30 15513 H 1454.96 3.08254 -3.52274 0
M  V30 15514 H 1455.13 4.07384 -5.03927 0
M  V30 15515 N 1448.54 1.07657 1.15099 0
M  V30 15516 C 1449.78 0.802796 1.86234 0
M  V30 15517 C 1450.12 -0.669555 1.82293 0
M  V30 15518 O 1449.39 -1.49162 1.24823 0
M  V30 15519 C 1449.68 1.3156 3.35208 0
M  V30 15520 C 1449.53 2.85272 3.47764 0
M  V30 15521 C 1450.85 0.934641 4.30061 0
M  V30 15522 H 1447.97 0.293099 0.676212 0
M  V30 15523 H 1450.61 1.33488 1.35207 0
M  V30 15524 H 1448.76 0.86298 3.78794 0
M  V30 15525 H 1450.43 3.38847 3.13018 0
M  V30 15526 H 1448.67 3.23316 2.89222 0
M  V30 15527 H 1449.34 3.16223 4.52446 0
M  V30 15528 H 1451.82 1.3247 3.9445 0
M  V30 15529 H 1450.7 1.32074 5.32774 0
M  V30 15530 H 1450.96 -0.159122 4.41814 0
M  V30 15531 N 1450.02 -1.31994 0.861122 0
M  V30 15532 C 1451.25 -2.00919 0.481167 0
M  V30 15533 C 1451.65 -1.64851 -0.928488 0
M  V30 15534 O 1451 -0.86916 -1.61837 0
M  V30 15535 C 1451.06 -3.55297 0.548091 0
M  V30 15536 C 1450.72 -4.14813 1.91779 0
M  V30 15537 C 1451.72 -4.32567 2.88412 0
M  V30 15538 C 1449.41 -4.50742 2.21669 0
M  V30 15539 C 1451.4 -4.85428 4.13084 0
M  V30 15540 C 1449.09 -5.03306 3.46593 0
M  V30 15541 C 1450.08 -5.20598 4.42116 0
M  V30 15542 O 1449.77 -5.72037 5.64827 0
M  V30 15543 H 1449.5 -0.649663 0.186853 0
M  V30 15544 H 1452.06 -1.69401 1.16157 0
M  V30 15545 H 1450.29 -3.86237 -0.18919 0
M  V30 15546 H 1451.98 -4.05488 0.182821 0
M  V30 15547 H 1452.74 -4.05137 2.66625 0
M  V30 15548 H 1448.62 -4.36563 1.48099 0
M  V30 15549 H 1452.17 -4.98841 4.87651 0
M  V30 15550 H 1448.06 -5.30169 3.68227 0
M  V30 15551 H 1448.83 -5.9042 5.66875 0
M  V30 15552 N 1451.49 -0.619688 -1.44906 0
M  V30 15553 C 1452.43 0.130316 -2.28829 0
M  V30 15554 C 1453.44 0.820039 -1.40639 0
M  V30 15555 O 1454.63 0.683401 -1.649 0
M  V30 15556 C 1451.73 1.20618 -3.16709 0
M  V30 15557 C 1450.9 0.60121 -4.33248 0
M  V30 15558 C 1449.96 1.56954 -5.02247 0
M  V30 15559 O 1448.99 1.09112 -5.58644 0
M  V30 15560 N 1450.19 2.90395 -5.02644 0
M  V30 15561 H 1452.95 -0.589867 -2.93838 0
M  V30 15562 H 1450.51 -0.460028 -1.55227 0
M  V30 15563 H 1452.51 1.85404 -3.59732 0
M  V30 15564 H 1451.08 1.82873 -2.53528 0
M  V30 15565 H 1450.3 -0.225015 -3.93557 0
M  V30 15566 H 1451.58 0.177471 -5.0849 0
M  V30 15567 H 1450.98 3.31855 -4.58136 0
M  V30 15568 H 1449.54 3.50572 -5.49493 0
M  V30 15569 N 1452.97 1.53444 -0.359552 0
M  V30 15570 C 1454.2 2.05584 0.232953 0
M  V30 15571 C 1454.62 1.23347 1.42937 0
M  V30 15572 O 1453.97 0.272662 1.80452 0
M  V30 15573 C 1454.02 3.55926 0.632359 0
M  V30 15574 O 1453.74 4.35045 -0.516494 0
M  V30 15575 C 1455.25 4.24301 1.28389 0
M  V30 15576 H 1452.47 0.669676 0.042132 0
M  V30 15577 H 1455.01 1.97878 -0.516176 0
M  V30 15578 H 1453.16 3.63802 1.33141 0
M  V30 15579 H 1453.58 5.24138 -0.194906 0
M  V30 15580 H 1455.05 5.30832 1.51397 0
M  V30 15581 H 1455.53 3.77644 2.24236 0
M  V30 15582 H 1456.14 4.20661 0.626438 0
M  V30 15583 N 1454.45 0.0885642 1.57351 0
M  V30 15584 C 1455.68 -0.588641 1.98871 0
M  V30 15585 C 1456.1 -1.61333 0.967125 0
M  V30 15586 O 1455.46 -1.81183 -0.0652149 0
M  V30 15587 C 1455.51 -1.21877 3.39379 0
M  V30 15588 O 1454.61 -2.33462 3.39955 0
M  V30 15589 H 1453.95 -0.149938 0.64685 0
M  V30 15590 H 1456.48 0.168043 2.03909 0
M  V30 15591 H 1456.49 -1.56163 3.76931 0
M  V30 15592 H 1455.17 -0.468037 4.13258 0
M  V30 15593 H 1453.74 -2.00844 3.14191 0
M  V30 15594 N 1455.93 -1.56509 -0.185096 0
M  V30 15595 C 1457.34 -1.71024 -0.748856 0
M  V30 15596 C 1457.69 -0.69681 -1.83409 0
M  V30 15597 O 1456.82 0.144711 -2.15916 0
M  V30 15598 C 1457.41 -3.1008 -1.36513 0
M  V30 15599 C 1455.97 -3.26325 -1.87587 0
M  V30 15600 C 1455.12 -2.66977 -0.749579 0
M  V30 15601 H 1458.07 -1.58649 0.0401175 0
M  V30 15602 H 1458.09 -3.07965 -2.23468 0
M  V30 15603 H 1457.6 -3.83816 -0.575051 0
M  V30 15604 H 1455.7 -2.57522 -2.69283 0
M  V30 15605 H 1455.81 -4.33931 -2.03078 0
M  V30 15606 H 1454.18 -2.26419 -1.16647 0
M  V30 15607 H 1454.96 -3.43288 0.0284301 0
M  V30 15608 N 1457.41 0.45317 -1.50944 0
M  V30 15609 C 1458.63 1.22672 -1.66611 0
M  V30 15610 C 1459.05 1.85398 -0.356814 0
M  V30 15611 O 1458.41 1.70026 0.663122 0
M  V30 15612 C 1458.46 2.32238 -2.77034 0
M  V30 15613 O 1458.18 1.72081 -4.02889 0
M  V30 15614 C 1459.68 3.22802 -3.03832 0
M  V30 15615 H 1456.9 0.370337 -0.559546 0
M  V30 15616 H 1459.44 0.538884 -1.97272 0
M  V30 15617 H 1457.6 2.96765 -2.49017 0
M  V30 15618 H 1458.01 2.4437 -4.64095 0
M  V30 15619 H 1459.49 3.95851 -3.84716 0
M  V30 15620 H 1459.96 3.82636 -2.15608 0
M  V30 15621 H 1460.57 2.63993 -3.33449 0
M  V30 15622 N 1458.88 1.40823 0.707568 0
M  V30 15623 C 1460.16 1.3003 1.46122 0
M  V30 15624 C 1460.54 -0.0776873 2.10957 0
M  V30 15625 O 1459.89 -1.09109 2.00767 0
M  V30 15626 C 1460.1 2.44498 2.49042 0
M  V30 15627 C 1461.45 2.85106 3.14642 0
M  V30 15628 O 1462.47 2.44149 2.59364 0
M  V30 15629 O 1461.33 3.55892 4.14733 0
M  V30 15630 H 1458.42 0.511082 0.650172 0
M  V30 15631 H 1460.97 1.52761 0.739062 0
M  V30 15632 H 1459.74 3.36502 1.99705 0
M  V30 15633 H 1459.37 2.23579 3.28783 0
M  V30 15634 N 1460.36 -0.94061 1.26453 0
M  V30 15635 C 1461.27 -2.07298 1.09839 0
M  V30 15636 C 1462.29 -1.73971 0.0317477 0
M  V30 15637 O 1463.46 -2.00017 0.235594 0
M  V30 15638 C 1460.53 -3.38847 0.733736 0
M  V30 15639 C 1459.59 -3.85954 1.87985 0
M  V30 15640 C 1458.82 -5.11224 1.5325 0
M  V30 15641 O 1459.05 -5.68743 0.434491 0
M  V30 15642 O 1457.98 -5.53386 2.36743 0
M  V30 15643 H 1461.81 -2.24222 2.04837 0
M  V30 15644 H 1459.39 -1.05763 1.0552 0
M  V30 15645 H 1461.27 -4.17885 0.543131 0
M  V30 15646 H 1459.95 -3.2316 -0.186843 0
M  V30 15647 H 1458.86 -3.07858 2.12542 0
M  V30 15648 H 1460.19 -4.06162 2.78017 0
M  V30 15649 N 1461.84 -1.08266 -1.14527 0
M  V30 15650 C 1463.12 -0.724254 -1.81697 0
M  V30 15651 C 1463.5 0.792212 -1.95671 0
M  V30 15652 O 1462.85 1.71017 -1.51543 0
M  V30 15653 C 1463.06 -1.44949 -3.17475 0
M  V30 15654 C 1464.4 -1.60761 -3.9299 0
M  V30 15655 O 1465.43 -1.41103 -3.2706 0
M  V30 15656 O 1464.29 -1.93184 -5.11216 0
M  V30 15657 H 1461.38 -0.258814 -0.785458 0
M  V30 15658 H 1463.93 -1.18414 -1.21557 0
M  V30 15659 H 1462.7 -2.48262 -3.02459 0
M  V30 15660 H 1462.32 -0.980993 -3.85308 0
M  V30 15661 N 1463.32 1.31536 -0.86811 0
M  V30 15662 C 1464.23 2.32326 -0.32588 0
M  V30 15663 C 1465.25 1.64632 0.563243 0
M  V30 15664 O 1466.42 1.96067 0.460403 0
M  V30 15665 C 1463.49 3.43562 0.46539 0
M  V30 15666 C 1462.55 4.26919 -0.451472 0
M  V30 15667 C 1461.78 5.32844 0.302129 0
M  V30 15668 O 1462 5.49485 1.53045 0
M  V30 15669 O 1460.94 6.00944 -0.339048 0
M  V30 15670 H 1464.76 2.80622 -1.16126 0
M  V30 15671 H 1462.35 1.35401 -0.631428 0
M  V30 15672 H 1464.23 4.11368 0.914028 0
M  V30 15673 H 1462.91 2.97432 1.27734 0
M  V30 15674 H 1461.81 3.61874 -0.948571 0
M  V30 15675 H 1463.15 4.7661 -1.22897 0
M  V30 15676 N 1464.8 0.627364 1.44575 0
M  V30 15677 C 1465.71 -0.0811184 2.3446 0
M  V30 15678 C 1466.72 -0.839668 1.52399 0
M  V30 15679 O 1467.9 -0.792784 1.8514 0
M  V30 15680 C 1464.96 -1.05296 3.30323 0
M  V30 15681 C 1464.03 -0.294201 4.28291 0
M  V30 15682 C 1463.26 -1.21975 5.19575 0
M  V30 15683 O 1463.48 -2.45834 5.14706 0
M  V30 15684 O 1462.42 -0.70611 5.97744 0
M  V30 15685 H 1466.24 0.658067 2.96485 0
M  V30 15686 H 1463.83 0.387565 1.44285 0
M  V30 15687 H 1465.71 -1.61218 3.89341 0
M  V30 15688 H 1464.38 -1.77283 2.70837 0
M  V30 15689 H 1463.29 0.307969 3.7283 0
M  V30 15690 H 1464.62 0.385567 4.90687 0
M  V30 15691 N 1466.28 -1.53251 0.367684 0
M  V30 15692 C 1467.55 -1.93617 -0.277842 0
M  V30 15693 C 1467.93 -1.3014 -1.66213 0
M  V30 15694 O 1467.28 -0.461277 -2.23796 0
M  V30 15695 C 1467.49 -3.47475 -0.325937 0
M  V30 15696 C 1468.84 -4.2082 -0.565276 0
M  V30 15697 O 1469.86 -3.53866 -0.407057 0
M  V30 15698 O 1468.72 -5.39474 -0.873522 0
M  V30 15699 H 1465.82 -0.80993 -0.167158 0
M  V30 15700 H 1468.36 -1.64405 0.420621 0
M  V30 15701 H 1467.13 -3.85955 0.644542 0
M  V30 15702 H 1466.76 -3.82926 -1.07021 0
M  V30 15703 N 1467.75 -0.0969077 -1.57302 0
M  V30 15704 C 1468.66 0.875561 -2.17649 0
M  V30 15705 C 1469.68 1.30892 -1.14645 0
M  V30 15706 O 1470.86 1.37646 -1.47022 0
M  V30 15707 C 1467.92 2.116 -2.74639 0
M  V30 15708 C 1466.98 1.73667 -3.92604 0
M  V30 15709 C 1466.21 2.91798 -4.46867 0
M  V30 15710 O 1466.44 4.06577 -4.00064 0
M  V30 15711 O 1465.37 2.70159 -5.37864 0
M  V30 15712 H 1469.2 0.392107 -3.01158 0
M  V30 15713 H 1466.78 0.127539 -1.48855 0
M  V30 15714 H 1468.66 2.84292 -3.11057 0
M  V30 15715 H 1467.34 2.58994 -1.94174 0
M  V30 15716 H 1466.25 0.981505 -3.60995 0
M  V30 15717 H 1467.58 1.31035 -4.74437 0
M  V30 15718 N 1469.23 1.56605 0.176793 0
M  V30 15719 C 1470.14 1.99211 1.23903 0
M  V30 15720 C 1471.16 0.902614 1.48758 0
M  V30 15721 O 1472.33 1.20982 1.61014 0
M  V30 15722 C 1469.4 2.33873 2.55938 0
M  V30 15723 C 1468.46 3.56624 2.38994 0
M  V30 15724 C 1467.69 3.89623 3.64733 0
M  V30 15725 O 1467.92 3.23662 4.6968 0
M  V30 15726 O 1466.85 4.82992 3.5917 0
M  V30 15727 H 1470.68 2.89827 0.907398 0
M  V30 15728 H 1468.26 1.44401 0.383234 0
M  V30 15729 H 1470.14 2.57161 3.33836 0
M  V30 15730 H 1468.82 1.46421 2.88691 0
M  V30 15731 H 1467.72 3.38561 1.59146 0
M  V30 15732 H 1469.06 4.446 2.11167 0
M  V30 15733 N 1470.71 -0.445159 1.51182 0
M  V30 15734 C 1471.93 -1.22249 1.67541 0
M  V30 15735 C 1472.36 -1.84446 0.368972 0
M  V30 15736 O 1471.72 -1.68463 -0.670058 0
M  V30 15737 C 1471.77 -2.288 2.78717 0
M  V30 15738 O 1470.87 -3.34094 2.41775 0
M  V30 15739 H 1470.21 -0.358516 0.558894 0
M  V30 15740 H 1472.74 -0.526696 1.97704 0
M  V30 15741 H 1472.75 -2.73708 3.02569 0
M  V30 15742 H 1471.43 -1.82906 3.73521 0
M  V30 15743 H 1470 -2.94717 2.28466 0
M  V30 15744 N 1472.19 -1.41197 -0.700089 0
M  V30 15745 C 1473.41 -1.43856 -1.494 0
M  V30 15746 C 1473.84 -0.0441877 -1.88048 0
M  V30 15747 O 1473.2 0.951503 -1.54325 0
M  V30 15748 C 1473.24 -2.34913 -2.73584 0
M  V30 15749 O 1472.35 -1.80305 -3.70896 0
M  V30 15750 H 1471.69 -0.488412 -0.449833 0
M  V30 15751 H 1474.22 -1.85606 -0.860911 0
M  V30 15752 H 1474.23 -2.50633 -3.21943 0
M  V30 15753 H 1472.9 -3.36229 -2.44791 0
M  V30 15754 H 1471.48 -1.74012 -3.29809 0
M  V30 15755 N 1473.67 0.933891 -1.2695 0
M  V30 15756 C 1474.63 2.0152 -1.0919 0
M  V30 15757 C 1475.63 1.60755 -0.037865 0
M  V30 15758 O 1476.82 1.71904 -0.281917 0
M  V30 15759 C 1473.95 3.34403 -0.66239 0
M  V30 15760 H 1475.14 2.18706 -2.05201 0
M  V30 15761 H 1472.7 1.11385 -1.0965 0
M  V30 15762 H 1473.43 3.22915 0.299388 0
M  V30 15763 H 1473.22 3.65345 -1.42356 0
M  V30 15764 H 1474.71 4.13826 -0.560187 0
M  V30 15765 N 1475.14 1.08871 1.13951 0
M  V30 15766 C 1476.11 0.726655 2.17376 0
M  V30 15767 C 1477.11 -0.240922 1.58985 0
M  V30 15768 O 1478.3 -0.0198472 1.74189 0
M  V30 15769 C 1475.43 0.0736505 3.4082 0
M  V30 15770 H 1476.62 1.64254 2.5092 0
M  V30 15771 H 1474.17 0.887183 1.28681 0
M  V30 15772 H 1474.91 -0.853733 3.12861 0
M  V30 15773 H 1474.69 0.769782 3.84469 0
M  V30 15774 H 1476.18 -0.164465 4.17276 0
M  V30 15775 N 1476.62 -1.31073 0.875073 0
M  V30 15776 C 1477.58 -2.26672 0.339481 0
M  V30 15777 C 1478.58 -1.52416 -0.512439 0
M  V30 15778 O 1479.77 -1.71217 -0.321012 0
M  V30 15779 C 1476.91 -3.36952 -0.517311 0
M  V30 15780 H 1478.1 -2.7556 1.18349 0
M  V30 15781 H 1475.65 -1.42093 0.65109 0
M  V30 15782 H 1476.39 -2.93364 -1.38231 0
M  V30 15783 H 1476.17 -3.9199 0.092773 0
M  V30 15784 H 1477.66 -4.08133 -0.884154 0
M  V30 15785 N 1478.1 -0.635022 -1.4424 0
M  V30 15786 C 1479.03 0.0543561 -2.33437 0
M  V30 15787 C 1480.01 0.830807 -1.48431 0
M  V30 15788 O 1481.2 0.795913 -1.77141 0
M  V30 15789 C 1478.33 1.03391 -3.31553 0
M  V30 15790 C 1477.28 0.368824 -4.26408 0
M  V30 15791 C 1476.61 1.45855 -5.14422 0
M  V30 15792 C 1477.91 -0.727381 -5.1721 0
M  V30 15793 H 1479.6 -0.690489 -2.91329 0
M  V30 15794 H 1477.15 -0.3335 -1.40085 0
M  V30 15795 H 1479.1 1.52495 -3.9284 0
M  V30 15796 H 1477.82 1.80969 -2.71878 0
M  V30 15797 H 1476.48 -0.101605 -3.66459 0
M  V30 15798 H 1476.13 2.22531 -4.51098 0
M  V30 15799 H 1475.83 1.0189 -5.78699 0
M  V30 15800 H 1477.35 1.95132 -5.78581 0
M  V30 15801 H 1478.77 -0.319272 -5.7241 0
M  V30 15802 H 1477.17 -1.09041 -5.9011 0
M  V30 15803 H 1478.24 -1.59292 -4.57989 0
M  V30 15804 N 1479.58 1.53054 -0.375806 0
M  V30 15805 C 1480.83 2.01401 0.210673 0
M  V30 15806 C 1481.15 1.26275 1.47935 0
M  V30 15807 O 1480.41 0.347611 1.92588 0
M  V30 15808 C 1480.71 3.53321 0.538419 0
M  V30 15809 C 1480.37 4.46376 -0.637126 0
M  V30 15810 C 1479.04 4.71534 -0.959653 0
M  V30 15811 C 1481.39 5.01364 -1.42421 0
M  V30 15812 C 1478.72 5.4893 -2.07105 0
M  V30 15813 C 1481.07 5.79975 -2.5261 0
M  V30 15814 C 1479.73 6.03416 -2.85386 0
M  V30 15815 H 1479 0.736979 0.0770907 0
M  V30 15816 H 1481.65 1.84574 -0.510376 0
M  V30 15817 H 1479.95 3.6815 1.34062 0
M  V30 15818 H 1481.65 3.88212 1.00461 0
M  V30 15819 H 1478.24 4.2695 -0.375722 0
M  V30 15820 H 1482.42 4.81865 -1.18828 0
M  V30 15821 H 1477.68 5.65309 -2.32886 0
M  V30 15822 H 1481.85 6.21588 -3.14008 0
M  V30 15823 H 1479.48 6.63172 -3.71627 0
M  V30 15824 N 1481.06 0.105248 1.57248 0
M  V30 15825 C 1482.28 -0.564157 1.9906 0
M  V30 15826 C 1482.7 -1.61092 0.984624 0
M  V30 15827 O 1482.06 -1.82484 -0.0244031 0
M  V30 15828 C 1482.11 -1.20272 3.40906 0
M  V30 15829 O 1481.83 -0.197815 4.37653 0
M  V30 15830 C 1483.33 -1.95677 3.97776 0
M  V30 15831 H 1480.55 -0.150468 0.653912 0
M  V30 15832 H 1483.09 0.187532 2.03638 0
M  V30 15833 H 1481.25 -1.90528 3.3731 0
M  V30 15834 H 1481.66 -0.659998 5.20331 0
M  V30 15835 H 1483.14 -2.35702 4.99148 0
M  V30 15836 H 1483.61 -2.82661 3.36154 0
M  V30 15837 H 1484.22 -1.30215 4.04876 0
M  V30 15838 N 1482.53 -1.56697 -0.168486 0
M  V30 15839 C 1483.76 -1.86652 -0.904195 0
M  V30 15840 C 1484.18 -0.691906 -1.74912 0
M  V30 15841 O 1483.54 0.358971 -1.77711 0
M  V30 15842 C 1483.59 -3.15043 -1.75442 0
M  V30 15843 O 1482.69 -2.97466 -2.85636 0
M  V30 15844 H 1482.04 -0.613859 -0.253128 0
M  V30 15845 H 1484.57 -2.03927 -0.165773 0
M  V30 15846 H 1484.58 -3.4652 -2.15378 0
M  V30 15847 H 1483.25 -4.00147 -1.13381 0
M  V30 15848 H 1481.83 -2.7735 -2.49262 0
M  V30 15849 N 1484.01 0.437135 -1.51416 0
M  V30 15850 C 1484.92 1.55581 -1.75589 0
M  V30 15851 C 1485.94 1.61797 -0.640132 0
M  V30 15852 O 1487.11 1.79035 -0.922406 0
M  V30 15853 C 1484.18 2.91561 -1.87598 0
M  V30 15854 C 1483.24 2.9546 -3.11451 0
M  V30 15855 C 1482.47 4.24954 -3.22878 0
M  V30 15856 O 1482.7 5.17341 -2.40238 0
M  V30 15857 O 1481.63 4.35141 -4.15856 0
M  V30 15858 H 1485.46 1.38098 -2.70486 0
M  V30 15859 H 1483.04 0.620163 -1.3592 0
M  V30 15860 H 1484.92 3.72262 -1.97481 0
M  V30 15861 H 1483.6 3.09171 -0.958889 0
M  V30 15862 H 1482.51 2.13713 -3.07046 0
M  V30 15863 H 1483.84 2.82794 -4.0285 0
M  V30 15864 N 1485.49 1.41566 0.692592 0
M  V30 15865 C 1486.42 1.46423 1.81886 0
M  V30 15866 C 1487.4 0.32258 1.67013 0
M  V30 15867 O 1488.59 0.534437 1.86701 0
M  V30 15868 C 1485.72 1.3486 3.20047 0
M  V30 15869 C 1484.67 2.46867 3.49629 0
M  V30 15870 C 1484 2.20369 4.87177 0
M  V30 15871 C 1485.3 3.89205 3.48306 0
M  V30 15872 H 1486.99 2.40683 1.78079 0
M  V30 15873 H 1484.54 1.15845 0.855334 0
M  V30 15874 H 1486.49 1.36869 3.98553 0
M  V30 15875 H 1485.21 0.370859 3.24488 0
M  V30 15876 H 1483.87 2.44146 2.73475 0
M  V30 15877 H 1483.52 1.20931 4.88247 0
M  V30 15878 H 1483.22 2.95426 5.07934 0
M  V30 15879 H 1484.74 2.24099 5.6799 0
M  V30 15880 H 1486.16 3.93626 4.16811 0
M  V30 15881 H 1484.56 4.63969 3.80595 0
M  V30 15882 H 1485.63 4.17144 2.47222 0
M  V30 15883 N 1486.97 -0.927146 1.27443 0
M  V30 15884 C 1487.9 -2.04483 1.12735 0
M  V30 15885 C 1488.88 -1.70076 0.0286662 0
M  V30 15886 O 1490.06 -1.93133 0.203252 0
M  V30 15887 C 1487.19 -3.38557 0.774352 0
M  V30 15888 C 1486.15 -3.87078 1.82632 0
M  V30 15889 C 1485.47 -5.17964 1.32729 0
M  V30 15890 C 1486.77 -4.10409 3.23051 0
M  V30 15891 H 1488.47 -2.17046 2.06231 0
M  V30 15892 H 1486.01 -1.04292 0.992937 0
M  V30 15893 H 1487.97 -4.16227 0.658273 0
M  V30 15894 H 1486.69 -3.26009 -0.196321 0
M  V30 15895 H 1485.35 -3.11602 1.93132 0
M  V30 15896 H 1485 -5.01808 0.346059 0
M  V30 15897 H 1484.7 -5.51398 2.03061 0
M  V30 15898 H 1486.22 -5.98203 1.22416 0
M  V30 15899 H 1487.64 -4.78646 3.15549 0
M  V30 15900 H 1486.03 -4.5515 3.91099 0
M  V30 15901 H 1487.1 -3.15685 3.68064 0
M  V30 15902 N 1488.45 -1.09474 -1.13372 0
M  V30 15903 C 1489.86 -0.824541 -1.36651 0
M  V30 15904 C 1490.06 0.560903 -1.93536 0
M  V30 15905 O 1489.12 1.31567 -2.15514 0
M  V30 15906 C 1490.43 -1.91618 -2.31739 0
M  V30 15907 C 1491.98 -1.94346 -2.45354 0
M  V30 15908 C 1492.45 -3.02655 -3.4375 0
M  V30 15909 N 1493.95 -3.01898 -3.513 0
M  V30 15910 C 1494.68 -3.82344 -4.27318 0
M  V30 15911 N 1494.18 -4.727 -5.06484 0
M  V30 15912 N 1495.97 -3.70602 -4.22623 0
M  V30 15913 H 1488.12 -1.98793 -0.748005 0
M  V30 15914 H 1490.38 -0.863318 -0.391646 0
M  V30 15915 H 1490.09 -2.91282 -1.97098 0
M  V30 15916 H 1489.96 -1.79484 -3.31761 0
M  V30 15917 H 1492.35 -0.953206 -2.79281 0
M  V30 15918 H 1492.43 -2.10558 -1.45255 0
M  V30 15919 H 1492.08 -4.01894 -3.10553 0
M  V30 15920 H 1492.01 -2.83687 -4.43655 0
M  V30 15921 H 1494.5 -2.36417 -2.94814 0
M  V30 15922 H 1494.81 -5.30665 -5.61796 0
M  V30 15923 H 1493.15 -4.76736 -5.05715 0
M  V30 15924 H 1496.35 -2.99372 -3.59853 0
M  V30 15925 H 1496.52 -4.33535 -4.81614 0
M  V30 15926 N 1489.92 1.30607 -0.882012 0
M  V30 15927 C 1490.86 2.27177 -0.303861 0
M  V30 15928 C 1491.87 1.53587 0.539898 0
M  V30 15929 O 1493.06 1.74833 0.359931 0
M  V30 15930 C 1490.16 3.33781 0.586828 0
M  V30 15931 C 1489.33 4.3681 -0.227197 0
M  V30 15932 C 1488.39 5.22842 0.593519 0
M  V30 15933 O 1487.42 5.69197 0.0172694 0
M  V30 15934 N 1488.62 5.48414 1.90321 0
M  V30 15935 H 1491.38 2.77426 -1.13378 0
M  V30 15936 H 1488.94 1.43756 -0.744698 0
M  V30 15937 H 1490.94 3.88257 1.14186 0
M  V30 15938 H 1489.51 2.83483 1.31743 0
M  V30 15939 H 1488.73 3.82239 -0.963674 0
M  V30 15940 H 1490.01 5.02703 -0.785315 0
M  V30 15941 H 1489.41 5.1253 2.39435 0
M  V30 15942 H 1487.97 6.05778 2.40575 0
M  V30 15943 N 1491.4 0.642663 1.43901 0
M  V30 15944 C 1492.31 -0.0562462 2.34533 0
M  V30 15945 C 1493.33 -0.823457 1.53281 0
M  V30 15946 O 1494.5 -0.773103 1.85971 0
M  V30 15947 C 1491.57 -1.01787 3.31422 0
M  V30 15948 C 1490.63 -0.248759 4.28579 0
M  V30 15949 C 1489.86 -1.16458 5.20839 0
M  V30 15950 O 1490.09 -2.40361 5.17284 0
M  V30 15951 O 1489.02 -0.642671 5.98459 0
M  V30 15952 H 1492.85 0.689476 2.9577 0
M  V30 15953 H 1490.43 0.402847 1.43866 0
M  V30 15954 H 1492.31 -1.5708 3.91029 0
M  V30 15955 H 1490.99 -1.744 2.72702 0
M  V30 15956 H 1489.9 0.347495 3.72483 0
M  V30 15957 H 1491.23 0.437589 4.90251 0
M  V30 15958 N 1492.88 -1.52852 0.383918 0
M  V30 15959 C 1493.81 -2.23927 -0.488816 0
M  V30 15960 C 1494.83 -1.2598 -1.03115 0
M  V30 15961 O 1496.02 -1.5209 -0.934398 0
M  V30 15962 C 1493.12 -2.9378 -1.68957 0
M  V30 15963 C 1492.29 -4.18388 -1.27555 0
M  V30 15964 C 1491.35 -4.71287 -2.3404 0
M  V30 15965 O 1490.37 -5.34511 -1.9567 0
M  V30 15966 N 1491.58 -4.50679 -3.65881 0
M  V30 15967 H 1494.34 -2.99459 0.120084 0
M  V30 15968 H 1491.9 -1.60532 0.210004 0
M  V30 15969 H 1493.89 -3.26071 -2.39707 0
M  V30 15970 H 1492.46 -2.21588 -2.20493 0
M  V30 15971 H 1491.68 -3.92194 -0.397157 0
M  V30 15972 H 1492.97 -4.99361 -0.975506 0
M  V30 15973 H 1492.37 -4.00201 -3.9982 0
M  V30 15974 H 1490.93 -4.87473 -4.32681 0
M  V30 15975 N 1494.36 -0.113586 -1.5719 0
M  V30 15976 C 1495.32 0.824258 -2.13866 0
M  V30 15977 C 1496.32 1.19831 -1.07224 0
M  V30 15978 O 1497.51 1.12471 -1.33026 0
M  V30 15979 C 1494.64 2.11391 -2.67445 0
M  V30 15980 H 1495.84 0.331803 -2.98059 0
M  V30 15981 H 1493.39 0.135599 -1.55711 0
M  V30 15982 H 1494.13 2.65079 -1.86824 0
M  V30 15983 H 1493.91 1.85523 -3.45433 0
M  V30 15984 H 1495.4 2.78443 -3.11222 0
M  V30 15985 N 1495.84 1.56784 0.160173 0
M  V30 15986 C 1496.78 1.97267 1.1981 0
M  V30 15987 C 1497.75 0.83824 1.43397 0
M  V30 15988 O 1498.94 1.09926 1.55952 0
M  V30 15989 C 1496.08 2.34725 2.52979 0
M  V30 15990 C 1495.19 3.61397 2.36677 0
M  V30 15991 C 1494.33 3.88018 3.62789 0
M  V30 15992 C 1493.37 5.08002 3.41468 0
M  V30 15993 N 1492.5 5.30699 4.59677 0
M  V30 15994 H 1497.34 2.85743 0.845878 0
M  V30 15995 H 1494.88 1.41379 0.406249 0
M  V30 15996 H 1496.84 2.54468 3.30608 0
M  V30 15997 H 1495.47 1.49345 2.86175 0
M  V30 15998 H 1494.52 3.49505 1.50167 0
M  V30 15999 H 1495.83 4.49185 2.16875 0
M  V30 16000 H 1494.99 4.08188 4.48851 0
M  V30 16001 H 1493.73 2.98627 3.85582 0
M  V30 16002 H 1492.73 4.87718 2.53793 0
M  V30 16003 H 1493.96 5.98934 3.20086 0
M  V30 16004 H 1491.9 4.44261 4.82668 0
M  V30 16005 H 1491.82 6.1273 4.42829 0
M  V30 16006 H 1493.09 5.55357 5.46991 0
M  V30 16007 N 1497.32 -0.429099 1.51646 0
M  V30 16008 C 1498.25 -1.52867 1.76505 0
M  V30 16009 C 1499.23 -1.58586 0.615178 0
M  V30 16010 O 1500.41 -1.74182 0.858742 0
M  V30 16011 C 1497.54 -2.90875 1.8976 0
M  V30 16012 C 1496.5 -3.00014 3.05247 0
M  V30 16013 C 1495.82 -4.40082 3.03696 0
M  V30 16014 C 1497.12 -2.73334 4.45068 0
M  V30 16015 H 1498.82 -1.32315 2.68576 0
M  V30 16016 H 1496.36 -0.635091 1.29238 0
M  V30 16017 H 1498.31 -3.67765 2.05734 0
M  V30 16018 H 1497.04 -3.12677 0.943442 0
M  V30 16019 H 1495.7 -2.25565 2.88991 0
M  V30 16020 H 1495.35 -4.58864 2.06042 0
M  V30 16021 H 1495.05 -4.47125 3.81252 0
M  V30 16022 H 1496.57 -5.18935 3.21774 0
M  V30 16023 H 1497.98 -3.39954 4.61632 0
M  V30 16024 H 1496.38 -2.91777 5.24391 0
M  V30 16025 H 1497.45 -1.68889 4.54538 0
M  V30 16026 N 1498.79 -1.41931 -0.685074 0
M  V30 16027 C 1499.74 -1.44824 -1.82013 0
M  V30 16028 C 1500.74 -0.325083 -1.66252 0
M  V30 16029 O 1501.94 -0.497614 -1.72985 0
M  V30 16030 H 1498.32 -0.453362 -0.599972 0
M  V30 16031 H 1500.29 -2.40464 -1.76691 0
M  V30 16032 C 1499.04 -1.35753 -3.20104 0
M  V30 16033 H 1498.36 -2.21469 -3.32854 0
M  V30 16034 H 1499.8 -1.41838 -3.99572 0
M  V30 16035 C 1498.26 -0.0710816 -3.36825 0
M  V30 16036 O 1498.79 0.880155 -3.91939 0
M  V30 16037 N 1496.99 0.00842652 -2.90599 0
M  V30 16038 H 1496.54 -0.766427 -2.45934 0
M  V30 16039 H 1496.5 0.868559 -3.02165 0
M  V30 16040 N 1500.27 0.920374 -1.27933 0
M  V30 16041 C 1501.18 2.05525 -1.13123 0
M  V30 16042 C 1502.2 1.73899 -0.059421 0
M  V30 16043 O 1503.37 1.99617 -0.267386 0
M  V30 16044 C 1500.44 3.37637 -0.787551 0
M  V30 16045 C 1499.5 3.82914 -1.94101 0
M  V30 16046 C 1498.73 5.08721 -1.61364 0
M  V30 16047 O 1498.96 5.6798 -0.524918 0
M  V30 16048 O 1497.89 5.4955 -2.45517 0
M  V30 16049 H 1501.72 2.20935 -2.08378 0
M  V30 16050 H 1499.3 1.04071 -1.07189 0
M  V30 16051 H 1501.18 4.16968 -0.609544 0
M  V30 16052 H 1499.86 3.23417 0.135407 0
M  V30 16053 H 1498.76 3.04438 -2.17413 0
M  V30 16054 H 1500.1 4.01687 -2.84444 0
M  V30 16055 N 1501.75 1.10074 1.1279 0
M  V30 16056 C 1502.71 0.74967 2.16593 0
M  V30 16057 C 1503.71 -0.224046 1.59232 0
M  V30 16058 O 1504.9 -0.00137104 1.742 0
M  V30 16059 C 1502.03 0.109795 3.40723 0
M  V30 16060 H 1503.23 1.66906 2.49164 0
M  V30 16061 H 1500.78 0.900781 1.27733 0
M  V30 16062 H 1501.52 -0.820501 3.13749 0
M  V30 16063 H 1501.3 0.810517 3.83631 0
M  V30 16064 H 1502.79 -0.120198 4.17427 0
M  V30 16065 N 1503.23 -1.30138 0.888926 0
M  V30 16066 C 1504.64 -1.48552 0.583486 0
M  V30 16067 C 1504.84 -1.81376 -0.877781 0
M  V30 16068 O 1503.9 -1.90374 -1.65873 0
M  V30 16069 C 1505.21 -2.60613 1.50004 0
M  V30 16070 C 1506.76 -2.74493 1.50409 0
M  V30 16071 C 1507.24 -3.89672 2.40666 0
M  V30 16072 N 1508.73 -3.96988 2.38652 0
M  V30 16073 C 1509.46 -4.85429 3.05199 0
M  V30 16074 N 1508.96 -5.78638 3.80985 0
M  V30 16075 N 1510.75 -4.78831 2.9441 0
M  V30 16076 H 1502.9 -1.07105 1.83418 0
M  V30 16077 H 1505.16 -0.530991 0.785336 0
M  V30 16078 H 1504.87 -2.43191 2.54069 0
M  V30 16079 H 1504.74 -3.5718 1.21254 0
M  V30 16080 H 1507.13 -2.91318 0.470933 0
M  V30 16081 H 1507.21 -1.78535 1.83191 0
M  V30 16082 H 1506.86 -3.73603 3.44069 0
M  V30 16083 H 1506.79 -4.84975 2.05198 0
M  V30 16084 H 1509.28 -3.30313 1.83581 0
M  V30 16085 H 1509.59 -6.42894 4.28844 0
M  V30 16086 H 1507.94 -5.78558 3.85092 0
M  V30 16087 H 1511.13 -4.04995 2.34727 0
M  V30 16088 H 1511.3 -5.47547 3.46549 0
M  V30 16089 N 1504.71 -0.650285 -1.43559 0
M  V30 16090 C 1505.65 0.043098 -2.3076 0
M  V30 16091 C 1506.62 0.81763 -1.44582 0
M  V30 16092 O 1507.81 0.794825 -1.73457 0
M  V30 16093 C 1504.95 1.00557 -3.30125 0
M  V30 16094 C 1504.06 0.227448 -4.31401 0
M  V30 16095 C 1503.2 1.18345 -5.17849 0
M  V30 16096 C 1502.23 0.395596 -6.1082 0
M  V30 16097 N 1501.37 1.30304 -6.89902 0
M  V30 16098 H 1506.21 -0.706402 -2.89506 0
M  V30 16099 H 1503.75 -0.360118 -1.42624 0
M  V30 16100 H 1505.71 1.57717 -3.8624 0
M  V30 16101 H 1504.34 1.72198 -2.73034 0
M  V30 16102 H 1503.39 -0.460391 -3.77604 0
M  V30 16103 H 1504.7 -0.385316 -4.9731 0
M  V30 16104 H 1503.85 1.82578 -5.78576 0
M  V30 16105 H 1502.59 1.83013 -4.52059 0
M  V30 16106 H 1501.6 -0.260099 -5.49184 0
M  V30 16107 H 1502.82 -0.246633 -6.78652 0
M  V30 16108 H 1500.77 1.93657 -6.26764 0
M  V30 16109 H 1500.69 0.744768 -7.52323 0
M  V30 16110 H 1501.95 1.93361 -7.55137 0
M  V30 16111 N 1506.18 1.52647 -0.392018 0
M  V30 16112 C 1507.43 2.00798 0.19056 0
M  V30 16113 C 1507.75 1.28265 1.47673 0
M  V30 16114 O 1508.95 1.67142 2.13953 0
M  V30 16115 C 1507.41 3.57779 0.390148 0
M  V30 16116 C 1507.02 4.39213 -0.882933 0
M  V30 16117 C 1508.76 4.14211 0.928945 0
M  V30 16118 C 1506.67 5.87801 -0.651474 0
M  V30 16119 H 1505.6 0.750262 0.0749879 0
M  V30 16120 H 1508.25 1.7613 -0.514835 0
M  V30 16121 H 1506.63 3.78707 1.15746 0
M  V30 16122 H 1507.8 4.30051 -1.65507 0
M  V30 16123 H 1506.12 3.94015 -1.34688 0
M  V30 16124 H 1508.72 5.22884 1.11787 0
M  V30 16125 H 1509.06 3.70475 1.89878 0
M  V30 16126 H 1509.59 3.97185 0.221135 0
M  V30 16127 H 1506.33 6.35864 -1.59239 0
M  V30 16128 H 1505.85 5.99744 0.0816786 0
M  V30 16129 H 1507.53 6.46363 -0.287057 0
M  V30 16130 N 1507.66 0.121921 1.57128 0
M  V30 16131 C 1508.89 -0.546325 2.00075 0
M  V30 16132 C 1509.31 -1.59245 1.00113 0
M  V30 16133 O 1508.67 -1.8128 -0.0267687 0
M  V30 16134 C 1508.72 -1.14651 3.41888 0
M  V30 16135 O 1507.82 -2.26199 3.4483 0
M  V30 16136 H 1507.16 -0.136184 0.649885 0
M  V30 16137 H 1509.69 0.211257 2.03506 0
M  V30 16138 H 1509.7 -1.48133 3.80159 0
M  V30 16139 H 1508.38 -0.380273 4.14158 0
M  V30 16140 H 1506.96 -1.94134 3.18381 0
M  V30 16141 N 1509.14 -1.56867 -0.151857 0
M  V30 16142 C 1510.39 -1.83353 -0.866566 0
M  V30 16143 C 1510.72 -0.702784 -1.81038 0
M  V30 16144 O 1509.99 0.293944 -1.92266 0
M  V30 16145 C 1510.28 -3.20316 -1.64529 0
M  V30 16146 C 1510.13 -4.43946 -0.723297 0
M  V30 16147 C 1511.45 -3.54441 -2.60882 0
M  V30 16148 H 1508.57 -0.666957 -0.313588 0
M  V30 16149 H 1511.21 -1.89541 -0.131954 0
M  V30 16150 H 1509.36 -3.15172 -2.27154 0
M  V30 16151 H 1511.03 -4.61173 -0.10842 0
M  V30 16152 H 1509.28 -4.33788 -0.0325582 0
M  V30 16153 H 1509.95 -5.36374 -1.3041 0
M  V30 16154 H 1512.42 -3.60164 -2.08377 0
M  V30 16155 H 1511.3 -4.51314 -3.12422 0
M  V30 16156 H 1511.56 -2.80146 -3.42009 0
M  V30 16157 N 1510.62 0.421051 -1.51871 0
M  V30 16158 C 1511.86 1.17082 -1.65589 0
M  V30 16159 C 1512.2 1.90469 -0.378861 0
M  V30 16160 O 1511.47 1.84277 0.622259 0
M  V30 16161 C 1511.76 2.17483 -2.87007 0
M  V30 16162 C 1511.61 1.48071 -4.24729 0
M  V30 16163 C 1512.93 3.18288 -3.03942 0
M  V30 16164 H 1510.05 0.424284 -0.602621 0
M  V30 16165 H 1512.69 0.457998 -1.84397 0
M  V30 16166 H 1510.84 2.78273 -2.71102 0
M  V30 16167 H 1512.51 0.904926 -4.52337 0
M  V30 16168 H 1510.75 0.782814 -4.26678 0
M  V30 16169 H 1511.42 2.21272 -5.0571 0
M  V30 16170 H 1513.9 2.67565 -3.18666 0
M  V30 16171 H 1512.78 3.85815 -3.90433 0
M  V30 16172 H 1513.04 3.85333 -2.16728 0
M  V30 16173 N 1512.1 1.42293 0.677538 0
M  V30 16174 C 1513.04 1.45787 1.81243 0
M  V30 16175 C 1514.04 0.333895 1.66077 0
M  V30 16176 O 1515.24 0.50678 1.72719 0
M  V30 16177 H 1511.62 0.456538 0.597559 0
M  V30 16178 H 1513.59 2.41398 1.75413 0
M  V30 16179 C 1512.34 1.37449 3.19379 0
M  V30 16180 H 1511.66 2.23231 3.31674 0
M  V30 16181 H 1513.1 1.43955 3.98814 0
M  V30 16182 C 1511.56 0.0889433 3.36783 0
M  V30 16183 O 1512.09 -0.859357 3.924 0
M  V30 16184 N 1510.3 0.00698476 2.90599 0
M  V30 16185 H 1509.84 0.779459 2.45524 0
M  V30 16186 H 1509.8 -0.852522 3.02621 0
M  V30 16187 N 1513.57 -0.913576 1.28419 0
M  V30 16188 C 1514.82 -1.66519 1.15755 0
M  V30 16189 C 1515.15 -1.91974 -0.293166 0
M  V30 16190 O 1514.43 -1.52025 -1.21321 0
M  V30 16191 C 1514.71 -3.02299 1.95672 0
M  V30 16192 C 1514.56 -2.83996 3.48807 0
M  V30 16193 C 1515.88 -4.02838 1.77226 0
M  V30 16194 H 1513 -0.604309 0.421877 0
M  V30 16195 H 1515.64 -1.05919 1.57737 0
M  V30 16196 H 1513.79 -3.54025 1.59995 0
M  V30 16197 H 1515.47 -2.39279 3.9439 0
M  V30 16198 H 1513.71 -2.19052 3.74431 0
M  V30 16199 H 1514.38 -3.80419 3.99982 0
M  V30 16200 H 1516.86 -3.60174 2.0836 0
M  V30 16201 H 1515.73 -4.95806 2.35515 0
M  V30 16202 H 1515.99 -4.36135 0.723804 0
M  V30 16203 N 1515.05 -1.1067 -1.12204 0
M  V30 16204 C 1516 -0.752659 -2.20086 0
M  V30 16205 C 1516.99 0.252284 -1.67511 0
M  V30 16206 O 1518.2 0.112398 -1.79649 0
M  V30 16207 H 1514.58 -0.225473 -0.717402 0
M  V30 16208 H 1516.55 -1.67136 -2.472 0
M  V30 16209 C 1515.3 -0.203345 -3.47105 0
M  V30 16210 H 1514.62 -0.967864 -3.87908 0
M  V30 16211 H 1516.06 0.00629123 -4.24 0
M  V30 16212 C 1514.52 1.06452 -3.1964 0
M  V30 16213 O 1515.05 2.14562 -3.39597 0
M  V30 16214 N 1513.25 0.984122 -2.73429 0
M  V30 16215 H 1512.8 0.104258 -2.57389 0
M  V30 16216 H 1512.76 1.83312 -2.55429 0
M  V30 16217 N 1516.53 1.29665 -0.895815 0
M  V30 16218 C 1517.94 1.77825 -0.568784 0
M  V30 16219 C 1518.29 1.73534 0.915443 0
M  V30 16220 O 1517.42 1.31885 1.71567 0
M  V30 16221 C 1518.01 3.22901 -1.0257 0
M  V30 16222 C 1516.57 3.68854 -0.749903 0
M  V30 16223 C 1515.72 2.49866 -1.20259 0
M  V30 16224 H 1518.67 1.16381 -1.07894 0
M  V30 16225 H 1518.69 3.788 -0.359312 0
M  V30 16226 H 1518.2 3.25991 -2.10597 0
M  V30 16227 H 1516.3 3.71241 0.317916 0
M  V30 16228 H 1516.42 4.59831 -1.34506 0
M  V30 16229 H 1514.78 2.46997 -0.621676 0
M  V30 16230 H 1515.56 2.55687 -2.29083 0
M  V30 16231 N 1518.01 0.657889 1.43212 0
M  V30 16232 C 1519.24 0.181072 2.06106 0
M  V30 16233 C 1519.65 -1.15513 1.49339 0
M  V30 16234 O 1519.01 -1.71409 0.626517 0
M  V30 16235 C 1519.06 0.0890244 3.6139 0
M  V30 16236 O 1518.78 1.37241 4.16049 0
M  V30 16237 C 1520.28 -0.413313 4.41369 0
M  V30 16238 H 1517.5 0.0920577 0.664655 0
M  V30 16239 H 1520.05 0.899855 1.83638 0
M  V30 16240 H 1518.2 -0.580345 3.83028 0
M  V30 16241 H 1518.61 1.23467 5.09761 0
M  V30 16242 H 1520.09 -0.426663 5.50349 0
M  V30 16243 H 1520.57 -1.44549 4.14731 0
M  V30 16244 H 1521.17 0.223727 4.24711 0
M  V30 16245 N 1519.49 -1.52437 0.400108 0
M  V30 16246 C 1520.43 -2.28312 -0.444572 0
M  V30 16247 C 1521.43 -1.32641 -1.0537 0
M  V30 16248 O 1522.63 -1.50136 -0.99293 0
M  V30 16249 H 1519.01 -0.734313 -0.162137 0
M  V30 16250 H 1520.98 -2.97612 0.216702 0
M  V30 16251 C 1519.73 -3.11044 -1.55393 0
M  V30 16252 H 1519.05 -3.84525 -1.09455 0
M  V30 16253 H 1520.49 -3.67255 -2.11896 0
M  V30 16254 C 1518.95 -2.24035 -2.51614 0
M  V30 16255 O 1519.48 -1.87447 -3.55284 0
M  V30 16256 N 1517.69 -1.87982 -2.2161 0
M  V30 16257 H 1517.23 -2.17936 -1.37338 0
M  V30 16258 H 1517.19 -1.30058 -2.86238 0
M  V30 16259 N 1520.96 -0.130252 -1.57061 0
M  V30 16260 C 1522.21 0.52488 -1.94751 0
M  V30 16261 C 1522.53 1.67107 -1.0166 0
M  V30 16262 O 1523.73 2.38971 -1.28861 0
M  V30 16263 C 1522.19 0.985118 -3.46155 0
M  V30 16264 C 1521.8 -0.133222 -4.47802 0
M  V30 16265 C 1523.54 1.61099 -3.92743 0
M  V30 16266 C 1521.45 0.344346 -5.90397 0
M  V30 16267 H 1520.38 0.19985 -0.727032 0
M  V30 16268 H 1523.03 -0.211912 -1.82272 0
M  V30 16269 H 1521.41 1.77667 -3.53907 0
M  V30 16270 H 1522.58 -0.909784 -4.5173 0
M  V30 16271 H 1520.9 -0.666449 -4.11032 0
M  V30 16272 H 1523.5 1.97963 -4.96704 0
M  V30 16273 H 1523.84 2.49366 -3.3335 0
M  V30 16274 H 1524.37 0.884641 -3.87839 0
M  V30 16275 H 1521.11 -0.502547 -6.53571 0
M  V30 16276 H 1520.63 1.08714 -5.89865 0
M  V30 16277 H 1522.31 0.801885 -6.42012 0
M  V30 16278 N 1522.44 1.56945 0.143535 0
M  V30 16279 C 1523.86 1.51688 0.496291 0
M  V30 16280 C 1524.06 0.839251 1.83191 0
M  V30 16281 O 1523.12 0.411235 2.49129 0
M  V30 16282 C 1524.43 2.96456 0.503402 0
M  V30 16283 C 1525.98 3.07414 0.588676 0
M  V30 16284 C 1526.45 4.53696 0.626416 0
M  V30 16285 N 1527.94 4.58054 0.688543 0
M  V30 16286 C 1528.68 5.68621 0.738786 0
M  V30 16287 N 1528.17 6.88748 0.748163 0
M  V30 16288 N 1529.97 5.56663 0.779931 0
M  V30 16289 H 1522.12 1.99392 -0.731901 0
M  V30 16290 H 1524.38 0.909546 -0.267263 0
M  V30 16291 H 1524.09 3.49304 -0.409845 0
M  V30 16292 H 1523.96 3.52593 1.34008 0
M  V30 16293 H 1526.35 2.54584 1.49234 0
M  V30 16294 H 1526.43 2.54315 -0.275213 0
M  V30 16295 H 1526.07 5.07165 -0.273108 0
M  V30 16296 H 1526 5.04581 1.50684 0
M  V30 16297 H 1528.49 3.71576 0.688455 0
M  V30 16298 H 1528.81 7.68767 0.788444 0
M  V30 16299 H 1527.15 6.91302 0.715982 0
M  V30 16300 H 1530.34 4.61727 0.769799 0
M  V30 16301 H 1530.52 6.42847 0.815621 0
M  V30 16302 N 1523.92 -0.412991 1.52093 0
M  V30 16303 C 1525.33 -0.991955 1.58168 0
M  V30 16304 C 1525.68 -1.91655 0.419834 0
M  V30 16305 O 1524.81 -2.11448 -0.460308 0
M  V30 16306 C 1525.4 -1.80581 2.86663 0
M  V30 16307 C 1523.96 -2.33487 2.9523 0
M  V30 16308 C 1523.11 -1.13362 2.5307 0
M  V30 16309 H 1526.06 -0.193364 1.57518 0
M  V30 16310 H 1526.08 -2.66282 2.71798 0
M  V30 16311 H 1525.59 -1.13262 3.71205 0
M  V30 16312 H 1523.69 -3.0419 2.15173 0
M  V30 16313 H 1523.81 -2.64617 3.99393 0
M  V30 16314 H 1522.17 -1.48641 2.06828 0
M  V30 16315 H 1522.95 -0.476148 3.39982 0
M  V30 16316 N 1525.4 -1.4265 -0.669982 0
M  V30 16317 C 1526.35 -1.42958 -1.77615 0
M  V30 16318 C 1527.33 -0.30025 -1.58074 0
M  V30 16319 O 1528.53 -0.54283 -1.68471 0
M  V30 16320 C 1525.65 -1.33911 -3.16106 0
M  V30 16321 C 1524.74 -2.51808 -3.41253 0
M  V30 16322 N 1525.13 -3.77216 -3.36959 0
M  V30 16323 C 1523.43 -2.46172 -3.71908 0
M  V30 16324 C 1524.13 -4.55555 -3.61724 0
M  V30 16325 N 1523.11 -3.86036 -3.82724 0
M  V30 16326 H 1526.91 -2.3781 -1.72696 0
M  V30 16327 H 1524.42 -1.37066 -0.871009 0
M  V30 16328 H 1526.42 -1.32214 -3.9538 0
M  V30 16329 H 1525.08 -0.400652 -3.22219 0
M  V30 16330 H 1526.09 -4.09743 -3.16751 0
M  V30 16331 H 1522.77 -1.6093 -3.85237 0
M  V30 16332 H 1524.16 -5.6455 -3.64325 0
M  V30 16333 N 1526.88 0.906753 -1.28902 0
M  V30 16334 C 1528.1 1.69547 -1.19452 0
M  V30 16335 C 1528.53 1.86531 0.242418 0
M  V30 16336 O 1527.89 1.38052 1.17521 0
M  V30 16337 C 1527.93 3.06139 -1.90556 0
M  V30 16338 O 1527.04 3.9401 -1.21779 0
M  V30 16339 H 1526.38 0.518902 -0.41429 0
M  V30 16340 H 1528.91 1.13327 -1.70347 0
M  V30 16341 H 1528.92 3.56326 -1.98736 0
M  V30 16342 H 1527.59 2.93094 -2.95074 0
M  V30 16343 H 1526.17 3.52444 -1.2181 0
M  V30 16344 N 1528.36 1.11264 1.11616 0
M  V30 16345 C 1529.63 0.772174 1.79713 0
M  V30 16346 C 1530.01 -0.740055 1.97703 0
M  V30 16347 O 1529.36 -1.66939 1.56024 0
M  V30 16348 C 1529.57 1.53316 3.13521 0
M  V30 16349 C 1530.92 1.71124 3.88589 0
M  V30 16350 O 1531.94 1.49725 3.23204 0
M  V30 16351 O 1530.8 2.0667 5.05915 0
M  V30 16352 H 1527.9 0.279548 0.77832 0
M  V30 16353 H 1530.44 1.21596 1.18375 0
M  V30 16354 H 1529.21 2.56194 2.95771 0
M  V30 16355 H 1528.84 1.08281 3.82572 0
M  V30 16356 N 1529.83 -1.29188 0.902679 0
M  V30 16357 C 1531.06 -1.99576 0.545635 0
M  V30 16358 C 1531.48 -1.67541 -0.870372 0
M  V30 16359 O 1530.83 -0.922082 -1.57493 0
M  V30 16360 C 1530.88 -3.54013 0.731916 0
M  V30 16361 O 1530.61 -3.84914 2.09219 0
M  V30 16362 C 1532.11 -4.41666 0.38022 0
M  V30 16363 H 1529.33 -0.637593 0.209083 0
M  V30 16364 H 1531.87 -1.64652 1.21284 0
M  V30 16365 H 1530.03 -3.87239 0.111849 0
M  V30 16366 H 1530.44 -4.79581 2.12373 0
M  V30 16367 H 1531.91 -5.49138 0.561382 0
M  V30 16368 H 1532.39 -4.33858 -0.682915 0
M  V30 16369 H 1533 -4.13918 0.977354 0
M  V30 16370 N 1531.31 -0.665475 -1.42861 0
M  V30 16371 C 1532.72 -0.26225 -1.84849 0
M  V30 16372 C 1533.07 1.19372 -1.55707 0
M  V30 16373 O 1532.2 1.91269 -1.01218 0
M  V30 16374 C 1532.79 -0.469189 -3.35535 0
M  V30 16375 C 1531.35 -0.120172 -3.76208 0
M  V30 16376 C 1530.5 -0.766153 -2.66506 0
M  V30 16377 H 1533.45 -0.868296 -1.32839 0
M  V30 16378 H 1533.47 0.281571 -3.79457 0
M  V30 16379 H 1532.98 -1.52894 -3.56714 0
M  V30 16380 H 1531.08 0.936505 -3.60639 0
M  V30 16381 H 1531.2 -0.554188 -4.75884 0
M  V30 16382 H 1529.56 -0.198292 -2.53927 0
M  V30 16383 H 1530.34 -1.82918 -2.9051 0
M  V30 16384 N 1532.79 1.52222 -0.408187 0
M  V30 16385 C 1533.7 2.30725 0.424645 0
M  V30 16386 C 1534.72 1.38412 1.05442 0
M  V30 16387 O 1535.89 1.71486 1.05614 0
M  V30 16388 C 1532.96 3.11273 1.52677 0
M  V30 16389 C 1532.02 4.19323 0.920143 0
M  V30 16390 C 1531.25 4.96021 1.96974 0
M  V30 16391 O 1531.47 4.73011 3.18774 0
M  V30 16392 O 1530.41 5.80887 1.5765 0
M  V30 16393 H 1534.23 3.02935 -0.215411 0
M  V30 16394 H 1531.82 1.48413 -0.171414 0
M  V30 16395 H 1533.7 3.61436 2.16661 0
M  V30 16396 H 1532.38 2.41857 2.15144 0
M  V30 16397 H 1531.28 3.7331 0.243037 0
M  V30 16398 H 1532.62 4.91028 0.339405 0
M  V30 16399 N 1534.27 0.138579 1.5699 0
M  V30 16400 C 1535.52 -0.514545 1.95026 0
M  V30 16401 C 1535.83 -1.66565 1.02544 0
M  V30 16402 O 1537.04 -2.38284 1.30126 0
M  V30 16403 C 1535.49 -0.966746 3.46673 0
M  V30 16404 C 1535.1 0.156969 4.47725 0
M  V30 16405 C 1536.84 -1.59014 3.93592 0
M  V30 16406 C 1534.75 -0.313031 5.90571 0
M  V30 16407 H 1533.68 -0.195991 0.728082 0
M  V30 16408 H 1536.33 0.221575 1.82157 0
M  V30 16409 H 1534.71 -1.75788 3.54845 0
M  V30 16410 H 1535.89 0.933728 4.51241 0
M  V30 16411 H 1534.2 0.688238 4.10673 0
M  V30 16412 H 1536.8 -1.95326 4.97747 0
M  V30 16413 H 1537.14 -2.47595 3.34668 0
M  V30 16414 H 1537.68 -0.864061 3.88302 0
M  V30 16415 H 1534.41 0.5372 6.53295 0
M  V30 16416 H 1533.93 -1.05585 5.90434 0
M  V30 16417 H 1535.61 -0.767826 6.42428 0
M  V30 16418 N 1535.75 -1.57019 -0.13521 0
M  V30 16419 C 1537.16 -1.51949 -0.48824 0
M  V30 16420 C 1537.36 -0.848955 -1.82743 0
M  V30 16421 O 1536.42 -0.424441 -2.48907 0
M  V30 16422 C 1537.73 -2.96719 -0.487673 0
M  V30 16423 C 1539.28 -3.07722 -0.572365 0
M  V30 16424 C 1539.75 -4.54022 -0.602347 0
M  V30 16425 N 1541.24 -4.58413 -0.664242 0
M  V30 16426 C 1541.98 -5.69005 -0.70862 0
M  V30 16427 N 1541.48 -6.89135 -0.711626 0
M  V30 16428 N 1543.27 -5.57069 -0.750399 0
M  V30 16429 H 1535.42 -1.99001 0.742465 0
M  V30 16430 H 1537.68 -0.908116 0.272083 0
M  V30 16431 H 1537.39 -3.49082 0.428363 0
M  V30 16432 H 1537.26 -3.53299 -1.32136 0
M  V30 16433 H 1539.65 -2.55372 -1.47882 0
M  V30 16434 H 1539.73 -2.54166 0.288696 0
M  V30 16435 H 1539.37 -5.07013 0.3 0
M  V30 16436 H 1539.3 -5.05373 -1.48006 0
M  V30 16437 H 1541.8 -3.71936 -0.668739 0
M  V30 16438 H 1542.11 -7.69175 -0.747663 0
M  V30 16439 H 1540.45 -6.91672 -0.679311 0
M  V30 16440 H 1543.64 -4.62129 -0.745301 0
M  V30 16441 H 1543.82 -6.4327 -0.781518 0
M  V30 16442 N 1537.22 0.404919 -1.52309 0
M  V30 16443 C 1538.17 1.49363 -1.75953 0
M  V30 16444 C 1539.14 1.54802 -0.60212 0
M  V30 16445 O 1540.33 1.71308 -0.840128 0
M  V30 16446 C 1537.47 2.86767 -1.91987 0
M  V30 16447 C 1536.58 2.90603 -3.19646 0
M  V30 16448 C 1535.71 4.19333 -3.26088 0
M  V30 16449 C 1534.75 4.17161 -4.47932 0
M  V30 16450 N 1533.89 5.37469 -4.51743 0
M  V30 16451 H 1538.73 1.28503 -2.6887 0
M  V30 16452 H 1536.27 0.623684 -1.33224 0
M  V30 16453 H 1538.23 3.66536 -1.99267 0
M  V30 16454 H 1536.86 3.06112 -1.02447 0
M  V30 16455 H 1535.91 2.033 -3.21517 0
M  V30 16456 H 1537.22 2.84864 -4.09456 0
M  V30 16457 H 1536.37 5.07497 -3.32463 0
M  V30 16458 H 1535.11 4.27774 -2.34224 0
M  V30 16459 H 1534.12 3.27386 -4.417 0
M  V30 16460 H 1535.34 4.10356 -5.41096 0
M  V30 16461 H 1533.29 5.46569 -3.62764 0
M  V30 16462 H 1533.21 5.3374 -5.35404 0
M  V30 16463 H 1534.47 6.27575 -4.62353 0
M  V30 16464 N 1538.7 1.43003 0.662408 0
M  V30 16465 C 1539.93 1.47341 1.44825 0
M  V30 16466 C 1540.34 0.0870204 1.89 0
M  V30 16467 O 1539.68 -0.911158 1.59511 0
M  V30 16468 C 1539.75 2.34882 2.7216 0
M  V30 16469 C 1539.41 3.82567 2.49983 0
M  V30 16470 C 1540.41 4.73909 2.13791 0
M  V30 16471 C 1538.09 4.26962 2.64592 0
M  V30 16472 C 1540.09 6.07639 1.92493 0
M  V30 16473 C 1537.77 5.60748 2.4291 0
M  V30 16474 C 1538.77 6.50903 2.06915 0
M  V30 16475 O 1538.46 7.82217 1.85451 0
M  V30 16476 H 1538.19 0.502932 0.451703 0
M  V30 16477 H 1540.74 1.88312 0.820224 0
M  V30 16478 H 1538.97 1.88782 3.37488 0
M  V30 16479 H 1540.66 2.3053 3.34082 0
M  V30 16480 H 1541.43 4.40892 2.02088 0
M  V30 16481 H 1537.31 3.5707 2.91586 0
M  V30 16482 H 1540.85 6.77971 1.64321 0
M  V30 16483 H 1536.75 5.93335 2.54212 0
M  V30 16484 H 1537.52 7.93702 1.9995 0
M  V30 16485 N 1540.18 -0.899904 1.29381 0
M  V30 16486 C 1541.13 -2.004 1.14493 0
M  V30 16487 C 1542.1 -1.66056 0.0383099 0
M  V30 16488 O 1543.28 -1.89687 0.20579 0
M  V30 16489 C 1540.42 -3.35039 0.827237 0
M  V30 16490 C 1539.54 -3.82166 2.01427 0
M  V30 16491 C 1538.67 -5.0538 1.63598 0
M  V30 16492 C 1537.71 -5.44876 2.78884 0
M  V30 16493 N 1536.85 -6.59276 2.41452 0
M  V30 16494 H 1541.69 -2.12466 2.08955 0
M  V30 16495 H 1539.22 -1.0405 1.03981 0
M  V30 16496 H 1541.18 -4.12511 0.62373 0
M  V30 16497 H 1539.81 -3.227 -0.0804772 0
M  V30 16498 H 1538.86 -3.00731 2.32949 0
M  V30 16499 H 1540.18 -4.07387 2.87814 0
M  V30 16500 H 1539.33 -5.90436 1.39534 0
M  V30 16501 H 1538.07 -4.81998 0.743593 0
M  V30 16502 H 1537.07 -4.58355 3.0363 0
M  V30 16503 H 1538.3 -5.7024 3.68786 0
M  V30 16504 H 1536.24 -6.37498 1.54701 0
M  V30 16505 H 1536.16 -6.84293 3.21372 0
M  V30 16506 H 1537.43 -7.47602 2.20708 0
M  V30 16507 N 1541.66 -1.11854 -1.11024 0
M  V30 16508 C 1542.61 -0.780825 -2.17191 0
M  V30 16509 C 1543.58 0.249657 -1.64213 0
M  V30 16510 O 1544.76 0.125603 -1.90386 0
M  V30 16511 C 1541.9 -0.23491 -3.443 0
M  V30 16512 C 1541.01 -1.32247 -4.1126 0
M  V30 16513 C 1540.15 -0.736638 -5.26068 0
M  V30 16514 C 1539.19 -1.80375 -5.8492 0
M  V30 16515 N 1538.32 -1.23709 -6.91115 0
M  V30 16516 H 1543.16 -1.69031 -2.45423 0
M  V30 16517 H 1540.7 -0.844041 -1.20476 0
M  V30 16518 H 1542.66 0.0996064 -4.17081 0
M  V30 16519 H 1541.29 0.637752 -3.16437 0
M  V30 16520 H 1540.34 -1.77387 -3.36509 0
M  V30 16521 H 1541.65 -2.12965 -4.51051 0
M  V30 16522 H 1540.81 -0.352432 -6.05675 0
M  V30 16523 H 1539.55 0.101811 -4.87594 0
M  V30 16524 H 1538.55 -2.19721 -5.03987 0
M  V30 16525 H 1539.78 -2.64531 -6.2546 0
M  V30 16526 H 1537.72 -0.420357 -6.54652 0
M  V30 16527 H 1537.64 -1.98093 -7.29586 0
M  V30 16528 H 1538.91 -0.879912 -7.74518 0
M  V30 16529 N 1543.14 1.28707 -0.909517 0
M  V30 16530 C 1544.55 1.47605 -0.607045 0
M  V30 16531 C 1544.75 1.8275 0.848815 0
M  V30 16532 O 1543.81 1.92989 1.62823 0
M  V30 16533 C 1545.12 2.58194 -1.54131 0
M  V30 16534 C 1546.67 2.72065 -1.54757 0
M  V30 16535 C 1547.14 3.85793 -2.46835 0
M  V30 16536 N 1548.64 3.93141 -2.44937 0
M  V30 16537 C 1549.37 4.80512 -3.12883 0
M  V30 16538 N 1548.87 5.72504 -3.90142 0
M  V30 16539 N 1550.66 4.74086 -3.01991 0
M  V30 16540 H 1542.81 1.04174 -1.85099 0
M  V30 16541 H 1545.07 0.51843 -0.793684 0
M  V30 16542 H 1544.78 2.39119 -2.57905 0
M  V30 16543 H 1544.65 3.55205 -1.26921 0
M  V30 16544 H 1547.04 2.90532 -0.517219 0
M  V30 16545 H 1547.12 1.75598 -1.86008 0
M  V30 16546 H 1546.77 3.68082 -3.49969 0
M  V30 16547 H 1546.7 4.8165 -2.12888 0
M  V30 16548 H 1549.19 3.2735 -1.88813 0
M  V30 16549 H 1549.5 6.3599 -4.39017 0
M  V30 16550 H 1547.84 5.72358 -3.94248 0
M  V30 16551 H 1551.04 4.01209 -2.4114 0
M  V30 16552 H 1551.21 5.41964 -3.55217 0
M  V30 16553 N 1544.61 0.673042 1.42506 0
M  V30 16554 C 1545.86 0.194576 2.01563 0
M  V30 16555 C 1546.19 -1.19829 1.53203 0
M  V30 16556 O 1545.44 -1.8181 0.724131 0
M  V30 16557 C 1545.74 0.175896 3.56967 0
M  V30 16558 C 1545.41 1.51319 4.24751 0
M  V30 16559 C 1544.07 1.87936 4.42983 0
M  V30 16560 C 1546.42 2.394 4.62965 0
M  V30 16561 C 1543.75 3.12261 4.96699 0
M  V30 16562 C 1546.1 3.63036 5.18061 0
M  V30 16563 C 1544.77 3.99824 5.34506 0
M  V30 16564 H 1544.04 0.0712004 0.737571 0
M  V30 16565 H 1546.68 0.867679 1.70715 0
M  V30 16566 H 1544.99 -0.580712 3.87473 0
M  V30 16567 H 1546.69 -0.211488 4.00442 0
M  V30 16568 H 1543.28 1.21834 4.10919 0
M  V30 16569 H 1547.46 2.12397 4.48555 0
M  V30 16570 H 1542.72 3.40787 5.07617 0
M  V30 16571 H 1546.89 4.31491 5.46616 0
M  V30 16572 H 1544.52 4.96236 5.75894 0
M  V30 16573 N 1546.09 -1.52004 0.416254 0
M  V30 16574 C 1547.04 -2.28771 -0.420331 0
M  V30 16575 C 1548.03 -1.33751 -1.03957 0
M  V30 16576 O 1549.24 -1.51181 -0.976951 0
M  V30 16577 H 1545.62 -0.735991 -0.15434 0
M  V30 16578 H 1547.59 -2.97366 0.248255 0
M  V30 16579 C 1546.34 -3.12675 -1.52085 0
M  V30 16580 H 1545.66 -3.85665 -1.0537 0
M  V30 16581 H 1547.1 -3.69482 -2.07989 0
M  V30 16582 C 1545.56 -2.26692 -2.49224 0
M  V30 16583 O 1546.09 -1.91205 -3.53276 0
M  V30 16584 N 1544.29 -1.90322 -2.19604 0
M  V30 16585 H 1543.84 -2.1938 -1.35019 0
M  V30 16586 H 1543.8 -1.33086 -2.84843 0
M  V30 16587 N 1547.57 -0.146903 -1.56914 0
M  V30 16588 C 1548.8 0.514426 -2.00919 0
M  V30 16589 C 1549.22 1.57632 -1.02634 0
M  V30 16590 O 1548.58 1.813 -0.00207478 0
M  V30 16591 C 1548.63 1.09197 -3.43669 0
M  V30 16592 O 1547.73 2.20684 -3.48385 0
M  V30 16593 H 1547.07 0.125827 -0.651969 0
M  V30 16594 H 1549.6 -0.243607 -2.03145 0
M  V30 16595 H 1549.61 1.42066 -3.82467 0
M  V30 16596 H 1548.29 0.314336 -4.1471 0
M  V30 16597 H 1546.86 1.89045 -3.21429 0
M  V30 16598 N 1549.05 1.57088 0.126881 0
M  V30 16599 C 1549.96 2.03053 1.17502 0
M  V30 16600 C 1550.97 0.949484 1.45811 0
M  V30 16601 O 1552.15 1.26043 1.57083 0
M  V30 16602 C 1549.22 2.41897 2.48368 0
M  V30 16603 C 1548.28 3.64047 2.27527 0
M  V30 16604 C 1547.51 4.01029 3.52153 0
M  V30 16605 O 1547.73 3.38441 4.59145 0
M  V30 16606 O 1546.67 4.94174 3.43622 0
M  V30 16607 H 1550.49 2.92568 0.814733 0
M  V30 16608 H 1548.08 1.45547 0.3371 0
M  V30 16609 H 1549.96 2.67652 3.25485 0
M  V30 16610 H 1548.63 1.55531 2.83887 0
M  V30 16611 H 1547.54 3.43452 1.48294 0
M  V30 16612 H 1548.87 4.51093 1.96916 0
M  V30 16613 N 1550.53 -0.396836 1.52522 0
M  V30 16614 C 1551.78 -1.13978 1.66409 0
M  V30 16615 C 1552.09 -1.91333 0.406326 0
M  V30 16616 O 1553.29 -2.6815 0.425195 0
M  V30 16617 C 1551.75 -2.07512 2.94052 0
M  V30 16618 C 1551.36 -1.35616 4.2698 0
M  V30 16619 C 1553.1 -2.8199 3.17304 0
M  V30 16620 C 1551.01 -2.2787 5.45737 0
M  V30 16621 H 1549.94 -0.429181 0.619935 0
M  V30 16622 H 1552.59 -0.403207 1.79015 0
M  V30 16623 H 1550.97 -2.84773 2.75174 0
M  V30 16624 H 1552.15 -0.636349 4.56385 0
M  V30 16625 H 1550.46 -0.731297 4.09928 0
M  V30 16626 H 1553.06 -3.5118 4.03208 0
M  V30 16627 H 1553.4 -3.45629 2.32048 0
M  V30 16628 H 1553.93 -2.11824 3.36712 0
M  V30 16629 H 1550.67 -1.68858 6.33378 0
M  V30 16630 H 1550.19 -2.97789 5.20655 0
M  V30 16631 H 1551.87 -2.88126 5.79303 0
M  V30 16632 N 1552.01 -1.43353 -0.654814 0
M  V30 16633 C 1552.94 -1.51194 -1.7794 0
M  V30 16634 C 1553.92 -0.366747 -1.66099 0
M  V30 16635 O 1555.1 -0.58375 -1.85219 0
M  V30 16636 C 1552.23 -1.43298 -3.16359 0
M  V30 16637 C 1551.19 -2.5605 -3.42961 0
M  V30 16638 C 1550.51 -2.33208 -4.81163 0
M  V30 16639 C 1551.81 -3.98303 -3.37864 0
M  V30 16640 H 1553.51 -2.4532 -1.71635 0
M  V30 16641 H 1551.05 -1.18072 -0.824319 0
M  V30 16642 H 1553 -1.47388 -3.94784 0
M  V30 16643 H 1551.73 -0.456761 -3.2339 0
M  V30 16644 H 1550.39 -2.5131 -2.66906 0
M  V30 16645 H 1550.04 -1.33833 -4.84869 0
M  V30 16646 H 1549.74 -3.08789 -4.99923 0
M  V30 16647 H 1551.26 -2.39079 -5.61848 0
M  V30 16648 H 1552.67 -4.04538 -4.06229 0
M  V30 16649 H 1551.07 -4.73897 -3.6816 0
M  V30 16650 H 1552.14 -4.23552 -2.36075 0
M  V30 16651 N 1553.48 0.89303 -1.29857 0
M  V30 16652 C 1554.72 1.65836 -1.19489 0
M  V30 16653 C 1555.09 1.90389 0.248194 0
M  V30 16654 O 1556.29 2.6457 0.474963 0
M  V30 16655 C 1554.56 2.96706 -1.9925 0
M  V30 16656 S 1556.12 3.8771 -2.05492 0
M  V30 16657 H 1552.94 0.569282 -0.425956 0
M  V30 16658 H 1555.54 1.06061 -1.64229 0
M  V30 16659 H 1554.24 2.76554 -3.03226 0
M  V30 16660 H 1553.77 3.61518 -1.55141 0
M  V30 16661 H 1555.79 4.82052 -1.17644 0
M  V30 16662 N 1554.96 1.12442 1.10429 0
M  V30 16663 C 1555.92 0.795443 2.14954 0
M  V30 16664 C 1556.92 -0.19022 1.59671 0
M  V30 16665 O 1558.11 0.0355797 1.74164 0
M  V30 16666 C 1555.25 0.182043 3.40414 0
M  V30 16667 H 1556.44 1.72153 2.45567 0
M  V30 16668 H 1553.99 0.927672 1.25793 0
M  V30 16669 H 1554.73 -0.753766 3.15419 0
M  V30 16670 H 1554.51 0.891708 3.81826 0
M  V30 16671 H 1556 -0.0316286 4.17588 0
M  V30 16672 N 1556.44 -1.28223 0.91633 0
M  V30 16673 C 1557.4 -2.25477 0.411423 0
M  V30 16674 C 1558.4 -1.53969 -0.463689 0
M  V30 16675 O 1559.59 -1.72151 -0.266379 0
M  V30 16676 C 1556.72 -3.38427 -0.409851 0
M  V30 16677 H 1557.92 -2.71656 1.27056 0
M  V30 16678 H 1555.47 -1.3995 0.695966 0
M  V30 16679 H 1556.21 -2.97614 -1.28828 0
M  V30 16680 H 1555.99 -3.91497 0.217435 0
M  V30 16681 H 1557.48 -4.10739 -0.753862 0
M  V30 16682 N 1557.92 -0.68059 -1.42147 0
M  V30 16683 C 1558.85 -0.0199376 -2.33491 0
M  V30 16684 C 1559.83 0.783164 -1.50999 0
M  V30 16685 O 1561.01 0.739154 -1.79583 0
M  V30 16686 C 1558.14 0.927902 -3.34675 0
M  V30 16687 C 1557.1 0.232979 -4.27365 0
M  V30 16688 C 1556.42 1.29415 -5.18802 0
M  V30 16689 C 1557.72 -0.891559 -5.14634 0
M  V30 16690 H 1559.42 -0.782823 -2.88985 0
M  V30 16691 H 1556.96 -0.377898 -1.38953 0
M  V30 16692 H 1558.92 1.3992 -3.97493 0
M  V30 16693 H 1557.64 1.72228 -2.77498 0
M  V30 16694 H 1556.3 -0.21814 -3.6595 0
M  V30 16695 H 1555.95 2.08067 -4.57949 0
M  V30 16696 H 1555.65 0.834274 -5.81647 0
M  V30 16697 H 1557.17 1.76627 -5.84496 0
M  V30 16698 H 1558.59 -0.501219 -5.71105 0
M  V30 16699 H 1556.98 -1.27759 -5.86343 0
M  V30 16700 H 1558.05 -1.73781 -4.5269 0
M  V30 16701 N 1559.4 1.51781 -0.424309 0
M  V30 16702 C 1560.64 2.02924 0.139027 0
M  V30 16703 C 1561 1.30356 1.4151 0
M  V30 16704 O 1560.29 0.405762 1.87254 0
M  V30 16705 C 1560.48 3.54855 0.42574 0
M  V30 16706 C 1560.31 4.42142 -0.820996 0
M  V30 16707 C 1559.08 4.86913 -1.35069 0
M  V30 16708 C 1561.28 4.8527 -1.70346 0
M  V30 16709 N 1559.26 5.58373 -2.55133 0
M  V30 16710 C 1560.63 5.55664 -2.75023 0
M  V30 16711 C 1562.69 4.67269 -1.71942 0
M  V30 16712 C 1561.39 6.09967 -3.81226 0
M  V30 16713 C 1563.42 5.2248 -2.77072 0
M  V30 16714 C 1562.78 5.92809 -3.8047 0
M  V30 16715 H 1558.88 0.781907 0.0120462 0
M  V30 16716 H 1561.46 1.85796 -0.582061 0
M  V30 16717 H 1559.63 3.72026 1.11587 0
M  V30 16718 H 1561.37 3.92673 0.979289 0
M  V30 16719 H 1558.12 4.64844 -0.906501 0
M  V30 16720 H 1558.54 5.98737 -3.15979 0
M  V30 16721 H 1563.19 4.12369 -0.933379 0
M  V30 16722 H 1560.9 6.6393 -4.60676 0
M  V30 16723 H 1564.49 5.10411 -2.79234 0
M  V30 16724 H 1563.37 6.34764 -4.60482 0
M  V30 16725 N 1560.87 0.155222 1.56834 0
M  V30 16726 C 1562.12 -0.49285 1.95998 0
M  V30 16727 C 1562.44 -1.64857 1.0415 0
M  V30 16728 O 1561.71 -1.9562 0.104654 0
M  V30 16729 H 1560.29 -0.185063 0.723713 0
M  V30 16730 H 1562.95 0.232644 1.93507 0
M  V30 16731 H 1562.05 -0.863552 2.99915 0
M  V30 16732 N 1562.35 -1.57153 -0.118549 0
M  V30 16733 C 1563.6 -1.8515 -0.82748 0
M  V30 16734 C 1563.93 -0.741026 -1.79506 0
M  V30 16735 O 1563.21 0.253095 -1.92846 0
M  V30 16736 C 1563.49 -3.23734 -1.57698 0
M  V30 16737 C 1563.34 -4.45381 -0.628967 0
M  V30 16738 C 1564.66 -3.59895 -2.53305 0
M  V30 16739 H 1561.78 -0.673459 -0.29937 0
M  V30 16740 H 1564.42 -1.89778 -0.0917198 0
M  V30 16741 H 1562.57 -3.19919 -2.20418 0
M  V30 16742 H 1564.24 -4.61299 -0.0105746 0
M  V30 16743 H 1562.49 -4.33759 0.059462 0
M  V30 16744 H 1563.16 -5.3902 -1.19004 0
M  V30 16745 H 1565.63 -3.64503 -2.0069 0
M  V30 16746 H 1564.51 -4.57839 -3.02778 0
M  V30 16747 H 1564.77 -2.87338 -3.3599 0
M  V30 16748 N 1563.83 0.388742 -1.5273 0
M  V30 16749 C 1564.78 1.49531 -1.78166 0
M  V30 16750 C 1565.77 1.56449 -0.649613 0
M  V30 16751 O 1566.98 1.59612 -0.832097 0
M  V30 16752 H 1563.35 0.497684 -0.56375 0
M  V30 16753 H 1565.32 1.25271 -2.70831 0
M  V30 16754 C 1564.07 2.86663 -1.96774 0
M  V30 16755 H 1563.4 2.82089 -2.83312 0
M  V30 16756 H 1564.84 3.63328 -2.18561 0
M  V30 16757 C 1563.29 3.28665 -0.740345 0
M  V30 16758 O 1563.82 4.01616 0.0821005 0
M  V30 16759 N 1562.03 2.84947 -0.570383 0
M  V30 16760 H 1561.58 2.25748 -1.24078 0
M  V30 16761 H 1561.54 3.13408 0.249496 0
M  V30 16762 N 1565.31 1.43698 0.647203 0
M  V30 16763 C 1566.24 1.52135 1.77136 0
M  V30 16764 C 1567.22 0.375551 1.65902 0
M  V30 16765 O 1568.4 0.593564 1.84907 0
M  V30 16766 C 1565.53 1.44974 3.15594 0
M  V30 16767 C 1564.49 2.57866 3.41598 0
M  V30 16768 C 1563.81 2.35757 4.7992 0
M  V30 16769 C 1565.11 4.00089 3.35747 0
M  V30 16770 H 1566.81 2.46227 1.70332 0
M  V30 16771 H 1564.35 1.18507 0.818046 0
M  V30 16772 H 1566.31 1.4948 3.93997 0
M  V30 16773 H 1565.03 0.473905 3.23143 0
M  V30 16774 H 1563.69 2.52722 2.65569 0
M  V30 16775 H 1563.34 1.36403 4.84152 0
M  V30 16776 H 1563.04 3.11436 4.98278 0
M  V30 16777 H 1564.56 2.42055 5.60572 0
M  V30 16778 H 1565.98 4.06687 4.04078 0
M  V30 16779 H 1564.37 4.75842 3.65642 0
M  V30 16780 H 1565.44 4.24798 2.33825 0
M  V30 16781 N 1566.79 -0.886131 1.30328 0
M  V30 16782 C 1567.72 -2.00793 1.19183 0
M  V30 16783 C 1568.7 -1.69899 0.08276 0
M  V30 16784 O 1569.88 -1.92389 0.264593 0
M  V30 16785 C 1567.01 -3.35922 0.881669 0
M  V30 16786 C 1565.97 -3.81072 1.94855 0
M  V30 16787 C 1565.29 -5.1348 1.4914 0
M  V30 16788 C 1566.59 -3.99923 3.35944 0
M  V30 16789 H 1568.29 -2.10375 2.13032 0
M  V30 16790 H 1565.83 -1.0108 1.02561 0
M  V30 16791 H 1567.79 -4.13922 0.790359 0
M  V30 16792 H 1566.51 -3.26469 -0.0925037 0
M  V30 16793 H 1565.17 -3.053 2.02947 0
M  V30 16794 H 1564.82 -5.00453 0.50553 0
M  V30 16795 H 1564.52 -5.44659 2.205 0
M  V30 16796 H 1566.04 -5.94005 1.41386 0
M  V30 16797 H 1567.45 -4.68364 3.30617 0
M  V30 16798 H 1565.85 -4.42477 4.05381 0
M  V30 16799 H 1566.92 -3.03816 3.77921 0
M  V30 16800 N 1568.26 -1.13026 -1.09832 0
M  V30 16801 C 1569.51 -0.890736 -1.82191 0
M  V30 16802 C 1569.84 0.581818 -1.8528 0
M  V30 16803 O 1569.12 1.43037 -1.31798 0
M  V30 16804 C 1569.4 -1.47403 -3.28549 0
M  V30 16805 C 1569.25 -3.0154 -3.33757 0
M  V30 16806 C 1570.57 -1.13876 -4.25112 0
M  V30 16807 H 1567.69 -0.325028 -0.661457 0
M  V30 16808 H 1570.33 -1.39787 -1.28684 0
M  V30 16809 H 1568.48 -1.04272 -3.74245 0
M  V30 16810 H 1570.16 -3.53395 -2.96495 0
M  V30 16811 H 1568.4 -3.36746 -2.73467 0
M  V30 16812 H 1569.07 -3.37449 -4.36843 0
M  V30 16813 H 1571.55 -1.51139 -3.87681 0
M  V30 16814 H 1570.42 -1.57343 -5.25865 0
M  V30 16815 H 1570.68 -0.051854 -4.4207 0
M  V30 16816 N 1569.74 1.27735 -0.923117 0
M  V30 16817 C 1570.99 1.94185 -0.56004 0
M  V30 16818 C 1571.31 1.72945 0.90084 0
M  V30 16819 O 1570.58 1.07453 1.63801 0
M  V30 16820 H 1569.16 0.718568 -0.204129 0
M  V30 16821 H 1571.82 1.55535 -1.17451 0
M  V30 16822 H 1570.92 3.02644 -0.762424 0
M  V30 16823 N 1571.22 0.688118 1.41784 0
M  V30 16824 C 1572.45 0.22475 2.05676 0
M  V30 16825 C 1572.86 -1.1232 1.51755 0
M  V30 16826 O 1572.22 -1.70041 0.662735 0
M  V30 16827 C 1572.27 0.165661 3.6112 0
M  V30 16828 O 1571.99 1.46035 4.13044 0
M  V30 16829 C 1573.49 -0.319599 4.42146 0
M  V30 16830 H 1570.71 0.106135 0.662553 0
M  V30 16831 H 1573.26 0.938605 1.81688 0
M  V30 16832 H 1571.41 -0.498968 3.84173 0
M  V30 16833 H 1571.83 1.34252 5.07027 0
M  V30 16834 H 1573.3 -0.30983 5.5113 0
M  V30 16835 H 1573.78 -1.3572 4.17704 0
M  V30 16836 H 1574.38 0.313764 4.24141 0
M  V30 16837 N 1572.7 -1.51554 0.432352 0
M  V30 16838 C 1573.61 -2.31371 -0.387885 0
M  V30 16839 C 1574.62 -1.40072 -1.03227 0
M  V30 16840 O 1575.8 -1.73145 -1.02873 0
M  V30 16841 C 1572.87 -3.13662 -1.47705 0
M  V30 16842 C 1571.93 -4.20734 -0.853315 0
M  V30 16843 C 1571.16 -4.99092 -1.89058 0
M  V30 16844 O 1571.38 -4.78022 -3.11209 0
M  V30 16845 O 1570.32 -5.83322 -1.48389 0
M  V30 16846 H 1574.14 -3.02554 0.263578 0
M  V30 16847 H 1571.73 -1.48122 0.195004 0
M  V30 16848 H 1573.61 -3.64837 -2.10884 0
M  V30 16849 H 1572.28 -2.45249 -2.11269 0
M  V30 16850 H 1571.19 -3.73649 -0.183616 0
M  V30 16851 H 1572.52 -4.91506 -0.261244 0
M  V30 16852 N 1574.18 -0.163538 -1.56749 0
M  V30 16853 C 1575.12 0.786745 -2.18891 0
M  V30 16854 C 1576.12 1.24323 -1.15066 0
M  V30 16855 O 1577.32 1.20979 -1.33282 0
M  V30 16856 H 1573.7 0.271967 -0.701098 0
M  V30 16857 H 1575.67 0.2386 -2.97445 0
M  V30 16858 C 1574.42 2.00905 -2.83782 0
M  V30 16859 H 1573.74 1.66681 -3.63397 0
M  V30 16860 H 1575.18 2.65302 -3.30743 0
M  V30 16861 C 1573.64 2.8277 -1.83148 0
M  V30 16862 O 1574.17 3.79666 -1.31213 0
M  V30 16863 N 1572.38 2.47629 -1.52079 0
M  V30 16864 H 1571.92 1.68896 -1.94504 0
M  V30 16865 H 1571.88 3.02693 -0.849963 0
M  V30 16866 N 1575.65 1.57214 0.110213 0
M  V30 16867 C 1576.9 1.84946 0.814827 0
M  V30 16868 C 1577.22 0.750029 1.79999 0
M  V30 16869 O 1576.49 -0.225164 1.94602 0
M  V30 16870 H 1575.07 0.682385 0.303907 0
M  V30 16871 H 1577.74 1.94666 0.0954415 0
M  V30 16872 H 1576.83 2.81167 1.35469 0
M  V30 16873 N 1577.13 -0.380637 1.52934 0
M  V30 16874 C 1578.06 -1.47174 1.81279 0
M  V30 16875 C 1579.04 -1.56549 0.665319 0
M  V30 16876 O 1580.23 -1.71362 0.913722 0
M  V30 16877 C 1577.36 -2.84691 1.98918 0
M  V30 16878 C 1576.31 -2.90151 3.14637 0
M  V30 16879 C 1575.64 -4.30198 3.17544 0
M  V30 16880 C 1576.94 -2.59037 4.53539 0
M  V30 16881 H 1578.63 -1.23703 2.7265 0
M  V30 16882 H 1576.18 -0.593654 1.31194 0
M  V30 16883 H 1578.13 -3.61034 2.1733 0
M  V30 16884 H 1576.86 -3.09517 1.04244 0
M  V30 16885 H 1575.51 -2.16257 2.96021 0
M  V30 16886 H 1575.16 -4.52076 2.20536 0
M  V30 16887 H 1574.86 -4.3477 3.95284 0
M  V30 16888 H 1576.39 -5.08435 3.38121 0
M  V30 16889 H 1577.8 -3.25096 4.72214 0
M  V30 16890 H 1576.2 -2.74946 5.33408 0
M  V30 16891 H 1577.27 -1.54342 4.59681 0
M  V30 16892 N 1578.61 -1.44039 -0.639573 0
M  V30 16893 C 1579.54 -1.44715 -1.76445 0
M  V30 16894 C 1580.52 -0.306957 -1.59676 0
M  V30 16895 O 1581.71 -0.502643 -1.81675 0
M  V30 16896 C 1578.83 -1.27177 -3.13917 0
M  V30 16897 C 1577.88 -2.44649 -3.49355 0
M  V30 16898 S 1578.71 -4.07191 -3.47787 0
M  V30 16899 C 1579.87 -3.92061 -4.87893 0
M  V30 16900 H 1580.1 -2.39897 -1.75603 0
M  V30 16901 H 1577.63 -1.31235 -0.813438 0
M  V30 16902 H 1579.59 -1.17745 -3.93251 0
M  V30 16903 H 1578.25 -0.335196 -3.12306 0
M  V30 16904 H 1577.45 -2.28219 -4.49369 0
M  V30 16905 H 1577.05 -2.50777 -2.77465 0
M  V30 16906 H 1579.34 -3.55229 -5.76904 0
M  V30 16907 H 1580.28 -4.91875 -5.09377 0
M  V30 16908 H 1580.69 -3.24271 -4.6207 0
M  V30 16909 N 1580.09 0.879207 -1.30796 0
M  V30 16910 C 1581.02 2.00158 -1.20246 0
M  V30 16911 C 1582 1.69852 -0.091769 0
M  V30 16912 O 1583.18 1.92246 -0.274792 0
M  V30 16913 C 1580.31 3.3545 -0.899472 0
M  V30 16914 C 1579.27 3.80033 -1.96873 0
M  V30 16915 C 1578.59 5.12681 -1.51861 0
M  V30 16916 C 1579.89 3.98136 -3.38061 0
M  V30 16917 H 1581.59 2.09242 -2.14145 0
M  V30 16918 H 1579.13 1.00535 -1.03096 0
M  V30 16919 H 1581.09 4.13497 -0.812299 0
M  V30 16920 H 1579.81 3.26513 0.075189 0
M  V30 16921 H 1578.47 3.04219 -2.04564 0
M  V30 16922 H 1578.12 5.00178 -0.532063 0
M  V30 16923 H 1577.82 5.43482 -2.23386 0
M  V30 16924 H 1579.34 5.93247 -1.44534 0
M  V30 16925 H 1580.76 4.66604 -3.33096 0
M  V30 16926 H 1579.15 4.40321 -4.07722 0
M  V30 16927 H 1580.22 3.01807 -3.79526 0
M  V30 16928 N 1581.57 1.13606 1.09231 0
M  V30 16929 C 1582.5 0.837908 2.17948 0
M  V30 16930 C 1583.48 -0.203575 1.68877 0
M  V30 16931 O 1584.66 -0.0620702 1.94101 0
M  V30 16932 C 1581.79 0.305342 3.45955 0
M  V30 16933 C 1580.75 1.2813 4.08371 0
M  V30 16934 C 1580.07 0.608412 5.31227 0
M  V30 16935 C 1581.37 2.64055 4.50636 0
M  V30 16936 H 1583.07 1.747 2.43147 0
M  V30 16937 H 1580.61 0.84141 1.1686 0
M  V30 16938 H 1582.57 0.0844116 4.21315 0
M  V30 16939 H 1581.29 -0.639144 3.20285 0
M  V30 16940 H 1579.95 1.48826 3.35032 0
M  V30 16941 H 1579.6 -0.341613 5.01839 0
M  V30 16942 H 1579.3 1.25956 5.73942 0
M  V30 16943 H 1580.82 0.396809 6.09309 0
M  V30 16944 H 1582.24 2.47316 5.17212 0
M  V30 16945 H 1580.63 3.25364 5.0424 0
M  V30 16946 H 1581.7 3.21566 3.62937 0
M  V30 16947 N 1583.05 -1.27244 0.929878 0
M  V30 16948 C 1584.32 -1.89369 0.489774 0
M  V30 16949 C 1584.7 -1.84142 -1.03222 0
M  V30 16950 O 1584.05 -1.2881 -1.88733 0
M  V30 16951 C 1584.26 -3.33196 1.03833 0
M  V30 16952 C 1585.61 -4.101 1.10013 0
M  V30 16953 O 1586.63 -3.42221 0.988106 0
M  V30 16954 O 1585.49 -5.31468 1.27296 0
M  V30 16955 H 1582.59 -0.811789 0.157882 0
M  V30 16956 H 1585.13 -1.35496 1.02171 0
M  V30 16957 H 1583.9 -3.31304 2.08214 0
M  V30 16958 H 1583.53 -3.94592 0.488167 0
M  V30 16959 N 1584.52 -0.695628 -1.41417 0
M  V30 16960 C 1585.94 -0.367185 -1.55319 0
M  V30 16961 C 1586.14 1.12584 -1.67114 0
M  V30 16962 O 1585.2 1.91166 -1.64959 0
M  V30 16963 C 1586.51 -1.11576 -2.79233 0
M  V30 16964 C 1588.06 -1.10011 -2.9303 0
M  V30 16965 C 1588.53 -1.83044 -4.19832 0
M  V30 16966 N 1590.02 -1.80014 -4.26789 0
M  V30 16967 C 1590.76 -2.33362 -5.23765 0
M  V30 16968 N 1590.25 -2.95182 -6.26769 0
M  V30 16969 N 1592.05 -2.23618 -5.15705 0
M  V30 16970 H 1584.2 -1.66398 -1.32006 0
M  V30 16971 H 1586.46 -0.702205 -0.636877 0
M  V30 16972 H 1586.17 -2.1706 -2.76727 0
M  V30 16973 H 1586.04 -0.694385 -3.70753 0
M  V30 16974 H 1588.43 -0.0535436 -2.95051 0
M  V30 16975 H 1588.51 -1.56055 -2.02683 0
M  V30 16976 H 1588.15 -2.8768 -4.18572 0
M  V30 16977 H 1588.08 -1.34434 -5.09151 0
M  V30 16978 H 1590.57 -1.34942 -3.52986 0
M  V30 16979 H 1590.89 -3.33456 -6.97156 0
M  V30 16980 H 1589.23 -2.99259 -6.27271 0
M  V30 16981 H 1592.42 -1.74994 -4.3416 0
M  V30 16982 H 1592.6 -2.65497 -5.91113 0
M  V30 16983 N 1586 1.51322 -0.440383 0
M  V30 16984 C 1587.23 2.07017 0.126018 0
M  V30 16985 C 1587.65 1.30537 1.35431 0
M  V30 16986 O 1587.01 0.344178 1.78003 0
M  V30 16987 C 1587.06 3.58101 0.4238 0
M  V30 16988 O 1586.16 3.83772 1.50973 0
M  V30 16989 H 1585.5 0.664 0.000530178 0
M  V30 16990 H 1588.03 1.94897 -0.622594 0
M  V30 16991 H 1588.04 4.02405 0.673363 0
M  V30 16992 H 1586.72 4.13191 -0.473932 0
M  V30 16993 H 1585.29 3.51329 1.24989 0
M  V30 16994 N 1587.48 0.171848 1.5666 0
M  V30 16995 C 1588.73 -0.472034 1.9651 0
M  V30 16996 C 1589.05 -1.63743 1.05893 0
M  V30 16997 O 1588.32 -1.95498 0.125396 0
M  V30 16998 H 1586.9 -0.177377 0.725635 0
M  V30 16999 H 1589.56 0.253155 1.93249 0
M  V30 17000 H 1588.66 -0.831693 3.00814 0
M  V30 17001 N 1588.96 -1.5727 -0.101874 0
M  V30 17002 C 1589.89 -1.98253 -1.15014 0
M  V30 17003 C 1590.9 -0.884147 -1.36699 0
M  V30 17004 O 1592.09 -1.16232 -1.35471 0
M  V30 17005 C 1589.19 -2.28043 -2.50698 0
M  V30 17006 C 1588.36 -3.59343 -2.49383 0
M  V30 17007 C 1587.42 -3.77147 -3.66943 0
M  V30 17008 O 1586.45 -4.49075 -3.49744 0
M  V30 17009 N 1587.65 -3.1721 -4.86167 0
M  V30 17010 H 1590.42 -2.88787 -0.801375 0
M  V30 17011 H 1587.98 -1.59264 -0.290941 0
M  V30 17012 H 1589.97 -2.37153 -3.27934 0
M  V30 17013 H 1588.54 -1.4355 -2.77691 0
M  V30 17014 H 1587.76 -3.61264 -1.57741 0
M  V30 17015 H 1589.05 -4.45612 -2.45576 0
M  V30 17016 H 1588.45 -2.58772 -5.03044 0
M  V30 17017 H 1587 -3.31816 -5.61018 0
M  V30 17018 N 1590.44 0.372521 -1.53134 0
M  V30 17019 C 1591.68 1.11368 -1.68646 0
M  V30 17020 C 1592 1.90034 -0.437275 0
M  V30 17021 O 1591.27 1.88062 0.548593 0
M  V30 17022 H 1589.85 0.414129 -0.621696 0
M  V30 17023 H 1592.52 0.42082 -1.90303 0
M  V30 17024 H 1591.61 1.80738 -2.54441 0
M  V30 17025 N 1591.91 1.44376 0.631925 0
M  V30 17026 C 1592.86 1.51181 1.74393 0
M  V30 17027 C 1593.83 0.359599 1.62161 0
M  V30 17028 O 1595.02 0.569725 1.82096 0
M  V30 17029 C 1592.16 1.46124 3.12637 0
M  V30 17030 C 1591.27 2.71714 3.35851 0
M  V30 17031 C 1590.4 2.58496 4.64062 0
M  V30 17032 C 1589.44 3.79252 4.80452 0
M  V30 17033 N 1588.58 3.64715 5.99939 0
M  V30 17034 H 1593.42 2.4619 1.67912 0
M  V30 17035 H 1590.96 1.22184 0.819108 0
M  V30 17036 H 1592.91 1.41183 3.92585 0
M  V30 17037 H 1591.54 0.546831 3.18135 0
M  V30 17038 H 1590.6 2.86845 2.49848 0
M  V30 17039 H 1591.91 3.61351 3.43841 0
M  V30 17040 H 1591.06 2.51383 5.5217 0
M  V30 17041 H 1589.8 1.66417 4.58428 0
M  V30 17042 H 1588.81 3.8675 3.90774 0
M  V30 17043 H 1590.03 4.72367 4.879 0
M  V30 17044 H 1587.98 2.75388 5.95397 0
M  V30 17045 H 1587.89 4.47969 6.08982 0
M  V30 17046 H 1589.16 3.61493 6.90611 0
M  V30 17047 N 1593.39 -0.872258 1.31261 0
M  V30 17048 C 1594.64 -1.62752 1.20994 0
M  V30 17049 C 1594.97 -1.9281 -0.231942 0
M  V30 17050 O 1594.25 -1.55808 -1.16423 0
M  V30 17051 C 1594.53 -2.95921 2.0519 0
M  V30 17052 C 1594.38 -2.72756 3.57665 0
M  V30 17053 C 1595.7 -3.96996 1.89953 0
M  V30 17054 H 1592.82 -0.590581 0.440889 0
M  V30 17055 H 1595.46 -1.00848 1.61027 0
M  V30 17056 H 1593.61 -3.48756 1.71177 0
M  V30 17057 H 1595.28 -2.26611 4.01803 0
M  V30 17058 H 1593.53 -2.07029 3.81211 0
M  V30 17059 H 1594.2 -3.67502 4.11882 0
M  V30 17060 H 1596.67 -3.53363 2.19713 0
M  V30 17061 H 1595.55 -4.88063 2.51169 0
M  V30 17062 H 1595.81 -4.33611 0.862191 0
M  V30 17063 N 1594.87 -1.14184 -1.08627 0
M  V30 17064 C 1596.1 -0.930752 -1.84447 0
M  V30 17065 C 1596.51 0.524072 -1.81797 0
M  V30 17066 O 1595.85 1.37483 -1.21836 0
M  V30 17067 C 1595.91 -1.35125 -3.33139 0
M  V30 17068 C 1595.58 -2.82117 -3.59526 0
M  V30 17069 C 1596.57 -3.80242 -3.54559 0
M  V30 17070 C 1594.26 -3.19475 -3.87609 0
M  V30 17071 C 1596.25 -5.13734 -3.77301 0
M  V30 17072 C 1593.94 -4.53144 -4.10005 0
M  V30 17073 C 1594.94 -5.50082 -4.04844 0
M  V30 17074 O 1594.63 -6.81339 -4.26653 0
M  V30 17075 H 1594.36 -0.331385 -0.589203 0
M  V30 17076 H 1596.91 -1.52033 -1.38113 0
M  V30 17077 H 1595.14 -0.704995 -3.80219 0
M  V30 17078 H 1596.83 -1.11133 -3.9039 0
M  V30 17079 H 1597.6 -3.52726 -3.32881 0
M  V30 17080 H 1593.48 -2.44617 -3.90747 0
M  V30 17081 H 1597.02 -5.89386 -3.73188 0
M  V30 17082 H 1592.92 -4.80381 -4.31166 0
M  V30 17083 H 1593.68 -6.87563 -4.44071 0
M  V30 17084 N 1596.35 1.26749 -0.936613 0
M  V30 17085 C 1597.3 2.28528 -0.433328 0
M  V30 17086 C 1598.29 1.62248 0.487012 0
M  V30 17087 O 1599.5 1.76245 0.36573 0
M  V30 17088 H 1595.87 0.742106 -0.121583 0
M  V30 17089 H 1597.84 2.68382 -1.30436 0
M  V30 17090 C 1596.59 3.46485 0.290366 0
M  V30 17091 H 1595.91 3.97706 -0.408649 0
M  V30 17092 H 1597.35 4.19635 0.606807 0
M  V30 17093 C 1595.81 3.01339 1.50654 0
M  V30 17094 O 1596.34 3.05781 2.60501 0
M  V30 17095 N 1594.55 2.56732 1.3615 0
M  V30 17096 H 1594.1 2.53317 0.467788 0
M  V30 17097 H 1594.05 2.26888 2.17645 0
M  V30 17098 N 1597.83 0.703118 1.41046 0
M  V30 17099 C 1598.76 0.0570815 2.3343 0
M  V30 17100 C 1599.74 -0.759042 1.52225 0
M  V30 17101 O 1600.92 -0.710491 1.80736 0
M  V30 17102 C 1598.05 -0.874541 3.36109 0
M  V30 17103 C 1597.01 -0.16496 4.27682 0
M  V30 17104 C 1596.33 -1.21145 5.20795 0
M  V30 17105 C 1597.63 0.97332 5.13151 0
M  V30 17106 H 1599.33 0.828699 2.87703 0
M  V30 17107 H 1596.87 0.399956 1.38334 0
M  V30 17108 H 1598.83 -1.33579 3.99668 0
M  V30 17109 H 1597.55 -1.67791 2.80203 0
M  V30 17110 H 1596.21 0.276332 3.65557 0
M  V30 17111 H 1595.86 -2.00755 4.61201 0
M  V30 17112 H 1595.56 -0.741633 5.82901 0
M  V30 17113 H 1597.08 -1.67305 5.87232 0
M  V30 17114 H 1598.49 0.592013 5.70235 0
M  V30 17115 H 1596.89 1.37071 5.84236 0
M  V30 17116 H 1597.96 1.80961 4.49868 0
M  V30 17117 N 1599.3 -1.51086 0.448402 0
M  V30 17118 C 1600.55 -2.01367 -0.115904 0
M  V30 17119 C 1600.87 -1.33658 -1.42811 0
M  V30 17120 O 1602.07 -1.74968 -2.07602 0
M  V30 17121 C 1600.53 -3.58981 -0.257092 0
M  V30 17122 C 1600.14 -4.35634 1.04534 0
M  V30 17123 C 1601.88 -4.17373 -0.774573 0
M  V30 17124 C 1599.79 -5.84978 0.869184 0
M  V30 17125 H 1598.72 -0.752528 -0.0470907 0
M  V30 17126 H 1601.37 -1.74098 0.57985 0
M  V30 17127 H 1599.75 -3.82742 -1.01611 0
M  V30 17128 H 1600.92 -4.23612 1.81354 0
M  V30 17129 H 1599.24 -3.88745 1.49219 0
M  V30 17130 H 1601.84 -5.26673 -0.923032 0
M  V30 17131 H 1602.18 -3.77267 -1.75997 0
M  V30 17132 H 1602.71 -3.97732 -0.0735697 0
M  V30 17133 H 1599.45 -6.29516 1.82729 0
M  V30 17134 H 1598.97 -5.99634 0.140969 0
M  V30 17135 H 1600.65 -6.44852 0.526752 0
M  V30 17136 N 1600.78 -0.180154 -1.56567 0
M  V30 17137 C 1601.73 0.763484 -2.19713 0
M  V30 17138 C 1602.72 1.23095 -1.16378 0
M  V30 17139 O 1603.93 1.19558 -1.34558 0
M  V30 17140 H 1600.31 0.264515 -0.703943 0
M  V30 17141 H 1602.28 0.207039 -2.97681 0
M  V30 17142 C 1601.03 1.97884 -2.85897 0
M  V30 17143 H 1600.35 1.62818 -3.65144 0
M  V30 17144 H 1601.79 2.61779 -3.33538 0
M  V30 17145 C 1600.25 2.80811 -1.86136 0
M  V30 17146 O 1600.78 3.78253 -1.35232 0
M  V30 17147 N 1598.98 2.46003 -1.54697 0
M  V30 17148 H 1598.53 1.66823 -1.96285 0
M  V30 17149 H 1598.49 3.01774 -0.88202 0
M  V30 17150 N 1602.26 1.57322 0.0935319 0
M  V30 17151 C 1603.68 1.5319 0.447781 0
M  V30 17152 C 1603.88 0.897107 1.80428 0
M  V30 17153 O 1602.93 0.490285 2.47694 0
M  V30 17154 C 1604.25 2.97908 0.408832 0
M  V30 17155 C 1605.79 3.09132 0.490576 0
M  V30 17156 C 1606.27 4.55459 0.481759 0
M  V30 17157 N 1607.76 4.60013 0.542468 0
M  V30 17158 C 1608.49 5.70683 0.557509 0
M  V30 17159 N 1607.99 6.9078 0.528664 0
M  V30 17160 N 1609.78 5.58862 0.602438 0
M  V30 17161 H 1601.93 1.96962 -0.794965 0
M  V30 17162 H 1604.2 0.900583 -0.296064 0
M  V30 17163 H 1603.9 3.47823 -0.520766 0
M  V30 17164 H 1603.78 3.56678 1.22722 0
M  V30 17165 H 1606.16 2.59203 1.41059 0
M  V30 17166 H 1606.25 2.53311 -0.355982 0
M  V30 17167 H 1605.89 5.0604 -0.43432 0
M  V30 17168 H 1605.82 5.09119 1.34555 0
M  V30 17169 H 1608.31 3.73578 0.569892 0
M  V30 17170 H 1608.62 7.70887 0.543467 0
M  V30 17171 H 1606.97 6.9323 0.495687 0
M  V30 17172 H 1610.16 4.63942 0.622514 0
M  V30 17173 H 1610.33 6.45116 0.610691 0
M  V30 17174 N 1603.74 -0.364395 1.53329 0
M  V30 17175 C 1605.15 -0.706147 1.43128 0
M  V30 17176 C 1605.35 -1.93231 0.571307 0
M  V30 17177 O 1604.41 -2.52442 0.0542079 0
M  V30 17178 C 1605.72 -0.918245 2.86337 0
M  V30 17179 C 1607.27 -1.01818 2.95976 0
M  V30 17180 C 1607.75 -1.26274 4.40249 0
M  V30 17181 N 1609.24 -1.33042 4.43683 0
M  V30 17182 C 1609.97 -1.53677 5.52423 0
M  V30 17183 N 1609.47 -1.7162 6.71207 0
M  V30 17184 N 1611.26 -1.56056 5.40003 0
M  V30 17185 H 1603.41 0.442091 2.07748 0
M  V30 17186 H 1605.68 0.135735 0.938232 0
M  V30 17187 H 1605.38 -0.0890628 3.51587 0
M  V30 17188 H 1605.26 -1.826 3.30056 0
M  V30 17189 H 1607.64 -1.83791 2.30879 0
M  V30 17190 H 1607.72 -0.0877892 2.55649 0
M  V30 17191 H 1607.37 -0.448026 5.0592 0
M  V30 17192 H 1607.3 -2.20637 4.78149 0
M  V30 17193 H 1609.79 -1.20784 3.58078 0
M  V30 17194 H 1610.1 -1.86942 7.49848 0
M  V30 17195 H 1608.45 -1.68797 6.7419 0
M  V30 17196 H 1611.64 -1.41605 4.46168 0
M  V30 17197 H 1611.81 -1.71796 6.24812 0
M  V30 17198 N 1605.22 -1.44709 -0.62426 0
M  V30 17199 C 1606.63 -1.28747 -0.9432 0
M  V30 17200 C 1606.83 -0.228265 -2.00203 0
M  V30 17201 O 1605.89 0.383506 -2.49571 0
M  V30 17202 C 1607.2 -2.66124 -1.39995 0
M  V30 17203 C 1608.75 -2.73889 -1.51506 0
M  V30 17204 C 1609.22 -4.11751 -2.00562 0
M  V30 17205 N 1610.72 -4.13962 -2.07821 0
M  V30 17206 C 1611.45 -5.1749 -2.46964 0
M  V30 17207 N 1610.95 -6.31376 -2.85195 0
M  V30 17208 N 1612.74 -5.04846 -2.47158 0
M  V30 17209 H 1604.89 -2.12264 0.0758746 0
M  V30 17210 H 1607.15 -0.947566 -0.0286915 0
M  V30 17211 H 1606.86 -3.4474 -0.696203 0
M  V30 17212 H 1606.73 -2.93474 -2.36967 0
M  V30 17213 H 1609.12 -1.95587 -2.20975 0
M  V30 17214 H 1609.2 -2.50272 -0.528911 0
M  V30 17215 H 1608.85 -4.90532 -1.31685 0
M  V30 17216 H 1608.78 -4.32749 -3.0006 0
M  V30 17217 H 1611.27 -3.31771 -1.80933 0
M  V30 17218 H 1611.58 -7.06179 -3.13896 0
M  V30 17219 H 1609.92 -6.34804 -2.8293 0
M  V30 17220 H 1613.12 -4.14927 -2.16686 0
M  V30 17221 H 1613.29 -5.85651 -2.77339 0
M  V30 17222 N 1606.69 0.865285 -1.31722 0
M  V30 17223 C 1607.94 1.61868 -1.21675 0
M  V30 17224 C 1608.27 1.93206 0.223988 0
M  V30 17225 O 1607.52 1.5657 1.17407 0
M  V30 17226 C 1607.82 2.95462 -2.0109 0
M  V30 17227 C 1607.49 2.83598 -3.50547 0
M  V30 17228 C 1606.15 2.80069 -3.91299 0
M  V30 17229 C 1608.5 2.70295 -4.45635 0
M  V30 17230 C 1605.83 2.61102 -5.25398 0
M  V30 17231 C 1608.18 2.52864 -5.79864 0
M  V30 17232 C 1606.85 2.47722 -6.19831 0
M  V30 17233 H 1606.12 0.592319 -0.445241 0
M  V30 17234 H 1608.76 1.00456 -1.63036 0
M  V30 17235 H 1607.07 3.60935 -1.52424 0
M  V30 17236 H 1608.77 3.52756 -1.90693 0
M  V30 17237 H 1605.36 2.87164 -3.18175 0
M  V30 17238 H 1609.54 2.72073 -4.15078 0
M  V30 17239 H 1604.8 2.55549 -5.55432 0
M  V30 17240 H 1608.97 2.41548 -6.53167 0
M  V30 17241 H 1606.6 2.32784 -7.23682 0
M  V30 17242 N 1608.17 1.14759 1.0802 0
M  V30 17243 C 1609.1 0.795901 2.14937 0
M  V30 17244 C 1610.12 -0.189008 1.61699 0
M  V30 17245 O 1611.31 0.0332689 1.78469 0
M  V30 17246 C 1608.41 0.161388 3.38516 0
M  V30 17247 C 1607.58 1.18202 4.21126 0
M  V30 17248 C 1606.64 0.570535 5.23098 0
M  V30 17249 O 1605.66 1.2346 5.55649 0
M  V30 17250 N 1606.87 -0.650883 5.76839 0
M  V30 17251 H 1609.63 1.716 2.4571 0
M  V30 17252 H 1607.19 1.04254 1.23866 0
M  V30 17253 H 1609.18 -0.260289 4.03862 0
M  V30 17254 H 1607.75 -0.661917 3.05512 0
M  V30 17255 H 1606.97 1.78049 3.51699 0
M  V30 17256 H 1608.26 1.87135 4.73136 0
M  V30 17257 H 1607.66 -1.2089 5.52632 0
M  V30 17258 H 1606.22 -1.01501 6.43848 0
M  V30 17259 N 1609.65 -1.26251 0.943322 0
M  V30 17260 C 1610.58 -2.25468 0.411904 0
M  V30 17261 C 1611.6 -1.55988 -0.466005 0
M  V30 17262 O 1612.78 -1.76352 -0.276106 0
M  V30 17263 C 1609.88 -3.362 -0.426909 0
M  V30 17264 C 1609.06 -4.35228 0.435346 0
M  V30 17265 C 1608.12 -5.25078 -0.343388 0
M  V30 17266 O 1607.14 -5.68632 0.254322 0
M  V30 17267 N 1608.34 -5.5687 -1.63939 0
M  V30 17268 H 1611.11 -2.71701 1.26486 0
M  V30 17269 H 1608.67 -1.40039 0.812438 0
M  V30 17270 H 1610.66 -3.93263 -0.955316 0
M  V30 17271 H 1609.23 -2.89446 -1.18067 0
M  V30 17272 H 1608.45 -3.77206 1.14495 0
M  V30 17273 H 1609.74 -4.98384 1.02427 0
M  V30 17274 H 1609.14 -5.2337 -2.14709 0
M  V30 17275 H 1607.7 -6.16566 -2.11399 0
M  V30 17276 N 1611.13 -0.710588 -1.40671 0
M  V30 17277 C 1612.06 -0.00399749 -2.282 0
M  V30 17278 C 1613.04 0.772757 -1.43064 0
M  V30 17279 O 1614.22 0.760441 -1.72481 0
M  V30 17280 C 1611.35 1.00173 -3.23548 0
M  V30 17281 C 1610.4 0.316378 -4.25325 0
M  V30 17282 S 1611.23 -0.952126 -5.26968 0
M  V30 17283 C 1612.39 0.0516252 -6.25879 0
M  V30 17284 H 1612.62 -0.746334 -2.8778 0
M  V30 17285 H 1610.15 -0.50142 -1.46031 0
M  V30 17286 H 1612.11 1.57679 -3.79009 0
M  V30 17287 H 1610.77 1.71674 -2.63034 0
M  V30 17288 H 1609.96 1.07649 -4.92369 0
M  V30 17289 H 1609.57 -0.185995 -3.73537 0
M  V30 17290 H 1611.86 0.900088 -6.71494 0
M  V30 17291 H 1612.8 -0.585297 -7.05677 0
M  V30 17292 H 1613.21 0.413117 -5.62986 0
M  V30 17293 N 1612.61 1.50847 -0.456408 0
M  V30 17294 C 1613.88 1.94907 0.164485 0
M  V30 17295 C 1614.26 1.39609 1.58343 0
M  V30 17296 O 1613.61 0.590971 2.20726 0
M  V30 17297 C 1613.82 3.48784 0.122794 0
M  V30 17298 C 1615.17 4.234 0.318964 0
M  V30 17299 O 1616.19 3.55638 0.20005 0
M  V30 17300 O 1615.05 5.43649 0.557507 0
M  V30 17301 H 1612.15 0.818298 0.119652 0
M  V30 17302 H 1614.69 1.61673 -0.515758 0
M  V30 17303 H 1613.47 3.81541 -0.868468 0
M  V30 17304 H 1613.09 3.88514 0.84513 0
M  V30 17305 N 1614.09 0.188454 1.56469 0
M  V30 17306 C 1615.33 -0.452728 1.97682 0
M  V30 17307 C 1615.66 -1.61729 1.07506 0
M  V30 17308 O 1614.94 -1.94094 0.125677 0
M  V30 17309 C 1615.22 -0.919257 3.48169 0
M  V30 17310 C 1615.08 0.246656 4.49123 0
M  V30 17311 C 1616.39 -1.78706 4.02184 0
M  V30 17312 H 1613.51 -0.16309 0.718729 0
M  V30 17313 H 1616.16 0.27804 1.87955 0
M  V30 17314 H 1614.31 -1.54195 3.5659 0
M  V30 17315 H 1615.98 0.884178 4.52747 0
M  V30 17316 H 1614.22 0.89948 4.24372 0
M  V30 17317 H 1614.89 -0.122179 5.51865 0
M  V30 17318 H 1617.37 -1.26196 3.96502 0
M  V30 17319 H 1616.24 -2.08247 5.07863 0
M  V30 17320 H 1616.5 -2.73891 3.47039 0
M  V30 17321 N 1615.56 -1.5737 -0.0851874 0
M  V30 17322 C 1616.49 -2.05796 -1.10319 0
M  V30 17323 C 1617.47 -0.948796 -1.4118 0
M  V30 17324 O 1618.66 -1.22069 -1.51039 0
M  V30 17325 C 1615.79 -2.49069 -2.42037 0
M  V30 17326 C 1614.74 -3.6374 -2.25561 0
M  V30 17327 C 1614.07 -3.93023 -3.62543 0
M  V30 17328 C 1615.37 -4.94274 -1.68793 0
M  V30 17329 H 1617.06 -2.91095 -0.700274 0
M  V30 17330 H 1614.61 -1.40039 -0.335405 0
M  V30 17331 H 1616.56 -2.81558 -3.13534 0
M  V30 17332 H 1615.29 -1.60781 -2.84283 0
M  V30 17333 H 1613.95 -3.31513 -1.56507 0
M  V30 17334 H 1613.59 -3.01887 -4.02335 0
M  V30 17335 H 1613.29 -4.70229 -3.52362 0
M  V30 17336 H 1614.82 -4.27995 -4.35491 0
M  V30 17337 H 1616.23 -5.25079 -2.30141 0
M  V30 17338 H 1614.63 -5.75711 -1.69344 0
M  V30 17339 H 1615.7 -4.80548 -0.648204 0
M  V30 17340 N 1617.04 0.356258 -1.53521 0
M  V30 17341 C 1617.95 1.46055 -1.83589 0
M  V30 17342 C 1618.97 1.58176 -0.724997 0
M  V30 17343 O 1620.14 1.73894 -1.01601 0
M  V30 17344 C 1617.21 2.81207 -2.0279 0
M  V30 17345 C 1616.27 2.78535 -3.26675 0
M  V30 17346 C 1615.5 4.07241 -3.4495 0
M  V30 17347 O 1615.73 5.03879 -2.67324 0
M  V30 17348 O 1614.66 4.12485 -4.38337 0
M  V30 17349 H 1618.49 1.23566 -2.77426 0
M  V30 17350 H 1616.07 0.547243 -1.39017 0
M  V30 17351 H 1617.95 3.61271 -2.16936 0
M  V30 17352 H 1616.63 3.03654 -1.12143 0
M  V30 17353 H 1615.53 1.97137 -3.17943 0
M  V30 17354 H 1616.87 2.61042 -4.17274 0
M  V30 17355 N 1618.52 1.45038 0.616577 0
M  V30 17356 C 1619.77 1.48292 1.3731 0
M  V30 17357 C 1620.09 0.122437 1.94615 0
M  V30 17358 O 1619.36 -0.847103 1.76638 0
M  V30 17359 H 1617.94 0.546079 0.509712 0
M  V30 17360 H 1620.6 1.80927 0.724673 0
M  V30 17361 H 1619.7 2.21664 2.19708 0
M  V30 17362 N 1620 -0.858287 1.32179 0
M  V30 17363 C 1620.93 -1.98219 1.23415 0
M  V30 17364 C 1621.91 -1.69685 0.118779 0
M  V30 17365 O 1623.09 -1.91785 0.305342 0
M  V30 17366 C 1620.22 -3.33977 0.952725 0
M  V30 17367 C 1619.18 -3.76853 2.02894 0
M  V30 17368 C 1618.5 -5.10201 1.59999 0
M  V30 17369 C 1619.8 -3.92707 3.44352 0
M  V30 17370 H 1621.5 -2.05809 2.17446 0
M  V30 17371 H 1619.04 -0.988817 1.04682 0
M  V30 17372 H 1621 -4.12152 0.87798 0
M  V30 17373 H 1619.72 -3.26592 -0.023234 0
M  V30 17374 H 1618.38 -3.00926 2.09378 0
M  V30 17375 H 1618.03 -4.99268 0.61157 0
M  V30 17376 H 1617.73 -5.39859 2.32004 0
M  V30 17377 H 1619.25 -5.90873 1.53954 0
M  V30 17378 H 1620.67 -4.61246 3.40477 0
M  V30 17379 H 1619.06 -4.33779 4.14675 0
M  V30 17380 H 1620.13 -2.95731 3.8428 0
M  V30 17381 N 1621.48 -1.1533 -1.07409 0
M  V30 17382 C 1622.42 -0.845328 -2.16696 0
M  V30 17383 C 1623.42 0.181009 -1.6843 0
M  V30 17384 O 1624.62 0.0361013 -1.79964 0
M  V30 17385 H 1621 -0.255698 -0.707193 0
M  V30 17386 H 1622.97 -1.7747 -2.39889 0
M  V30 17387 C 1621.72 -0.350381 -3.4593 0
M  V30 17388 H 1621.04 -1.13152 -3.83454 0
M  V30 17389 H 1622.48 -0.173547 -4.23645 0
M  V30 17390 C 1620.94 0.927991 -3.23867 0
M  V30 17391 O 1621.47 1.99965 -3.48392 0
M  V30 17392 N 1619.68 0.867266 -2.77357 0
M  V30 17393 H 1619.22 -0.00500352 -2.576 0
M  V30 17394 H 1619.18 1.72314 -2.62974 0
M  V30 17395 N 1622.95 1.25748 -0.950004 0
M  V30 17396 C 1624.2 1.93622 -0.603186 0
M  V30 17397 C 1624.53 1.74271 0.856925 0
M  V30 17398 O 1623.81 1.08502 1.61423 0
M  V30 17399 C 1624.09 3.4715 -0.957024 0
M  V30 17400 C 1623.94 3.75747 -2.47253 0
M  V30 17401 C 1625.26 4.37488 -0.478754 0
M  V30 17402 H 1622.38 0.703206 -0.220612 0
M  V30 17403 H 1625.02 1.48453 -1.18582 0
M  V30 17404 H 1623.17 3.85753 -0.46122 0
M  V30 17405 H 1624.85 3.46808 -3.04174 0
M  V30 17406 H 1623.09 3.21516 -2.91222 0
M  V30 17407 H 1623.76 4.83097 -2.67061 0
M  V30 17408 H 1626.24 4.06162 -0.903987 0
M  V30 17409 H 1625.11 5.43682 -0.755073 0
M  V30 17410 H 1625.37 4.37712 0.621303 0
M  V30 17411 N 1624.43 0.718038 1.40292 0
M  V30 17412 C 1625.36 0.0818367 2.33357 0
M  V30 17413 C 1626.34 -0.742854 1.53022 0
M  V30 17414 O 1627.53 -0.691281 1.8148 0
M  V30 17415 C 1624.66 -0.838843 3.37017 0
M  V30 17416 C 1623.61 -0.119589 4.27833 0
M  V30 17417 C 1622.94 -1.15615 5.22051 0
M  V30 17418 C 1624.24 1.02769 5.1209 0
M  V30 17419 H 1625.93 0.859167 2.86808 0
M  V30 17420 H 1623.48 0.414606 1.37902 0
M  V30 17421 H 1625.43 -1.29332 4.01063 0
M  V30 17422 H 1624.15 -1.6481 2.81967 0
M  V30 17423 H 1622.81 0.315088 3.65243 0
M  V30 17424 H 1622.46 -1.95852 4.63304 0
M  V30 17425 H 1622.16 -0.679767 5.83655 0
M  V30 17426 H 1623.69 -1.61068 5.88973 0
M  V30 17427 H 1625.1 0.652461 5.69575 0
M  V30 17428 H 1623.5 1.4326 5.82749 0
M  V30 17429 H 1624.57 1.85723 4.47923 0
M  V30 17430 N 1625.91 -1.50602 0.464402 0
M  V30 17431 C 1627.16 -2.02587 -0.0930295 0
M  V30 17432 C 1627.49 -1.34618 -1.3997 0
M  V30 17433 O 1626.76 -0.469711 -1.88743 0
M  V30 17434 C 1627.05 -3.5898 -0.283783 0
M  V30 17435 C 1626.9 -4.3753 1.04344 0
M  V30 17436 C 1628.22 -4.27602 -1.04138 0
M  V30 17437 H 1625.34 -0.73629 -0.0323356 0
M  V30 17438 H 1627.98 -1.79986 0.608687 0
M  V30 17439 H 1626.13 -3.78368 -0.881488 0
M  V30 17440 H 1627.8 -4.29729 1.67721 0
M  V30 17441 H 1626.05 -4.01536 1.64168 0
M  V30 17442 H 1626.72 -5.45201 0.863691 0
M  V30 17443 H 1629.19 -4.12649 -0.534822 0
M  V30 17444 H 1628.07 -5.36854 -1.14364 0
M  V30 17445 H 1628.33 -3.9031 -2.0763 0
M  V30 17446 N 1627.39 -0.19675 -1.56367 0
M  V30 17447 C 1628.62 0.447139 -2.02011 0
M  V30 17448 C 1629.03 1.55077 -1.07687 0
M  V30 17449 O 1628.39 1.82316 -0.0820316 0
M  V30 17450 C 1628.44 1.00192 -3.47338 0
M  V30 17451 O 1628.16 -0.0576859 -4.38062 0
M  V30 17452 C 1629.66 1.72152 -4.08508 0
M  V30 17453 H 1626.88 0.112088 -0.661572 0
M  V30 17454 H 1629.43 -0.30594 -2.02199 0
M  V30 17455 H 1627.58 1.70537 -3.47844 0
M  V30 17456 H 1627.99 0.355508 -5.23294 0
M  V30 17457 H 1629.47 2.06199 -5.12041 0
M  V30 17458 H 1629.95 2.62581 -3.52062 0
M  V30 17459 H 1630.55 1.06388 -4.11779 0
M  V30 17460 N 1628.87 1.57413 0.0768405 0
M  V30 17461 C 1630.12 1.86186 0.775741 0
M  V30 17462 C 1630.43 0.788676 1.78995 0
M  V30 17463 O 1631.63 0.964095 2.53806 0
M  V30 17464 C 1630.09 3.30247 1.43055 0
M  V30 17465 C 1629.7 4.45682 0.45517 0
M  V30 17466 C 1631.44 3.68225 2.11211 0
M  V30 17467 C 1629.35 5.80782 1.11561 0
M  V30 17468 H 1628.28 0.694546 0.293466 0
M  V30 17469 H 1630.93 1.83477 0.0289478 0
M  V30 17470 H 1629.31 3.27552 2.22544 0
M  V30 17471 H 1630.49 4.59759 -0.309535 0
M  V30 17472 H 1628.8 4.16222 -0.121671 0
M  V30 17473 H 1631.4 4.66454 2.6139 0
M  V30 17474 H 1631.74 2.9777 2.90928 0
M  V30 17475 H 1632.27 3.72888 1.38561 0
M  V30 17476 H 1629.01 6.54517 0.358877 0
M  V30 17477 H 1628.53 5.70515 1.8513 0
M  V30 17478 H 1630.21 6.25951 1.63689 0
M  V30 17479 N 1630.34 -0.348112 1.53707 0
M  V30 17480 C 1631.57 -1.11346 1.74976 0
M  V30 17481 C 1631.99 -1.81726 0.485525 0
M  V30 17482 O 1631.35 -1.72384 -0.561565 0
M  V30 17483 C 1631.4 -2.10611 2.92703 0
M  V30 17484 O 1630.5 -3.18042 2.62532 0
M  V30 17485 H 1629.85 -0.322247 0.580563 0
M  V30 17486 H 1632.38 -0.399898 2.00654 0
M  V30 17487 H 1632.39 -2.53912 3.19363 0
M  V30 17488 H 1631.06 -1.58782 3.84397 0
M  V30 17489 H 1629.64 -2.79591 2.46746 0
M  V30 17490 N 1631.82 -1.45363 -0.608876 0
M  V30 17491 C 1633.07 -1.49018 -1.36522 0
M  V30 17492 C 1633.39 -0.132757 -1.94548 0
M  V30 17493 O 1632.66 0.837723 -1.77085 0
M  V30 17494 H 1631.24 -0.548775 -0.506809 0
M  V30 17495 H 1633.9 -1.81309 -0.715068 0
M  V30 17496 H 1633 -2.22826 -2.18529 0
M  V30 17497 N 1633.3 0.851265 -1.32632 0
M  V30 17498 C 1634.25 1.96012 -1.21852 0
M  V30 17499 C 1635.22 1.65799 -0.0999141 0
M  V30 17500 O 1636.4 1.88793 -0.276049 0
M  V30 17501 C 1633.54 3.31737 -0.951014 0
M  V30 17502 C 1632.66 3.74427 -2.15472 0
M  V30 17503 C 1631.79 4.9896 -1.82242 0
M  V30 17504 C 1630.83 5.3415 -2.98914 0
M  V30 17505 N 1629.97 6.49861 -2.65754 0
M  V30 17506 H 1634.81 2.04565 -2.16696 0
M  V30 17507 H 1632.34 1.00119 -1.07771 0
M  V30 17508 H 1634.3 4.09912 -0.776401 0
M  V30 17509 H 1632.93 3.22776 -0.0393461 0
M  V30 17510 H 1631.98 2.91878 -2.4395 0
M  V30 17511 H 1633.3 3.96425 -3.02736 0
M  V30 17512 H 1632.45 5.84851 -1.61352 0
M  V30 17513 H 1631.19 4.78906 -0.921971 0
M  V30 17514 H 1630.19 4.4677 -3.20432 0
M  V30 17515 H 1631.42 5.5616 -3.89696 0
M  V30 17516 H 1629.36 6.31317 -1.78254 0
M  V30 17517 H 1629.28 6.71894 -3.46547 0
M  V30 17518 H 1630.55 7.38895 -2.48302 0
M  V30 17519 N 1634.78 1.15898 1.06796 0
M  V30 17520 C 1635.73 0.860895 2.14143 0
M  V30 17521 C 1636.7 -0.188539 1.65026 0
M  V30 17522 O 1637.88 -0.0548558 1.90721 0
M  V30 17523 C 1635.02 0.362533 3.4319 0
M  V30 17524 C 1634.13 1.4742 4.06068 0
M  V30 17525 C 1633.27 0.931377 5.22971 0
M  V30 17526 C 1632.31 2.0196 5.77822 0
M  V30 17527 N 1631.44 1.49274 6.86048 0
M  V30 17528 H 1636.28 1.78023 2.38981 0
M  V30 17529 H 1633.82 0.888173 1.1726 0
M  V30 17530 H 1635.78 0.0552592 4.17163 0
M  V30 17531 H 1634.41 -0.519869 3.18586 0
M  V30 17532 H 1633.46 1.89754 3.29693 0
M  V30 17533 H 1634.77 2.29559 4.42836 0
M  V30 17534 H 1633.93 0.576982 6.0395 0
M  V30 17535 H 1632.67 0.0792265 4.87636 0
M  V30 17536 H 1631.67 2.38275 4.95485 0
M  V30 17537 H 1632.9 2.87562 6.15211 0
M  V30 17538 H 1630.84 0.663037 6.52641 0
M  V30 17539 H 1630.76 2.25035 7.21731 0
M  V30 17540 H 1632.03 1.16676 7.70718 0
M  V30 17541 N 1636.26 -1.25243 0.956659 0
M  V30 17542 C 1637.2 -2.2781 0.46963 0
M  V30 17543 C 1638.2 -1.63003 -0.461138 0
M  V30 17544 O 1639.4 -1.76805 -0.337644 0
M  V30 17545 H 1635.78 -0.740078 0.133374 0
M  V30 17546 H 1637.75 -2.66273 1.34689 0
M  V30 17547 C 1636.5 -3.46904 -0.235206 0
M  V30 17548 H 1635.82 -3.97006 0.471869 0
M  V30 17549 H 1637.26 -4.20548 -0.539969 0
M  V30 17550 C 1635.72 -3.03697 -1.45841 0
M  V30 17551 O 1636.25 -3.09887 -2.55603 0
M  V30 17552 N 1634.46 -2.58866 -1.32049 0
M  V30 17553 H 1634 -2.54029 -0.427428 0
M  V30 17554 H 1633.96 -2.30322 -2.14008 0
M  V30 17555 N 1637.73 -0.725468 -1.3991 0
M  V30 17556 C 1638.68 -0.0792833 -2.30664 0
M  V30 17557 C 1639.65 0.73984 -1.48713 0
M  V30 17558 O 1640.84 0.701762 -1.77426 0
M  V30 17559 C 1637.98 0.829164 -3.34991 0
M  V30 17560 C 1637.09 -0.00154779 -4.32 0
M  V30 17561 C 1636.22 0.907291 -5.23394 0
M  V30 17562 C 1635.26 0.0712573 -6.12059 0
M  V30 17563 N 1634.4 0.935508 -6.9584 0
M  V30 17564 H 1639.24 -0.858869 -2.85355 0
M  V30 17565 H 1636.78 -0.435214 -1.40514 0
M  V30 17566 H 1638.74 1.37021 -3.94057 0
M  V30 17567 H 1637.37 1.57483 -2.81778 0
M  V30 17568 H 1636.42 -0.659903 -3.74632 0
M  V30 17569 H 1637.73 -0.648387 -4.94568 0
M  V30 17570 H 1636.88 1.51652 -5.87441 0
M  V30 17571 H 1635.62 1.58793 -4.61125 0
M  V30 17572 H 1634.63 -0.550844 -5.47034 0
M  V30 17573 H 1635.85 -0.606025 -6.76391 0
M  V30 17574 H 1633.8 1.60162 -6.36148 0
M  V30 17575 H 1633.72 0.344932 -7.55213 0
M  V30 17576 H 1634.98 1.53061 -7.64325 0
M  V30 17577 N 1639.21 1.50354 -0.472382 0
M  V30 17578 C 1640.14 2.3142 0.310995 0
M  V30 17579 C 1641.12 1.38383 0.989151 0
M  V30 17580 O 1642.31 1.67303 0.986074 0
M  V30 17581 C 1639.44 3.18157 1.3926 0
M  V30 17582 C 1638.39 4.19756 0.835977 0
M  V30 17583 C 1637.72 4.9524 2.01597 0
M  V30 17584 C 1639.02 5.22074 -0.15361 0
M  V30 17585 H 1640.71 2.97159 -0.365595 0
M  V30 17586 H 1638.26 1.42905 -0.177266 0
M  V30 17587 H 1640.21 3.73666 1.94813 0
M  V30 17588 H 1638.94 2.50305 2.09798 0
M  V30 17589 H 1637.59 3.65351 0.302414 0
M  V30 17590 H 1637.24 4.2386 2.70836 0
M  V30 17591 H 1636.94 5.63966 1.64974 0
M  V30 17592 H 1638.47 5.53584 2.57637 0
M  V30 17593 H 1639.88 5.72446 0.312783 0
M  V30 17594 H 1638.28 5.98527 -0.43418 0
M  V30 17595 H 1639.35 4.72741 -1.07908 0
M  V30 17596 N 1640.69 0.205039 1.56261 0
M  V30 17597 C 1642.11 -0.150644 1.58887 0
M  V30 17598 C 1642.31 -1.60256 1.22148 0
M  V30 17599 O 1641.36 -2.33991 0.948912 0
M  V30 17600 C 1642.68 0.160711 3.0027 0
M  V30 17601 C 1644.22 0.101616 3.12835 0
M  V30 17602 C 1644.7 0.386417 4.56367 0
M  V30 17603 N 1646.19 0.335392 4.61984 0
M  V30 17604 C 1646.93 0.529473 5.7095 0
M  V30 17605 N 1646.42 0.784441 6.88345 0
M  V30 17606 N 1648.21 0.463044 5.6019 0
M  V30 17607 H 1640.37 1.15238 1.78421 0
M  V30 17608 H 1642.63 0.460698 0.82853 0
M  V30 17609 H 1642.33 1.1678 3.31746 0
M  V30 17610 H 1642.21 -0.532067 3.73429 0
M  V30 17611 H 1644.6 -0.896093 2.81166 0
M  V30 17612 H 1644.68 0.827622 2.42041 0
M  V30 17613 H 1644.32 1.38149 4.88751 0
M  V30 17614 H 1644.25 -0.360592 5.25364 0
M  V30 17615 H 1646.74 0.145346 3.7762 0
M  V30 17616 H 1647.05 0.921077 7.67291 0
M  V30 17617 H 1645.4 0.821448 6.90128 0
M  V30 17618 H 1648.59 0.2642 4.67354 0
M  V30 17619 H 1648.76 0.617712 6.45049 0
M  V30 17620 N 1642.17 -1.57451 -0.0684915 0
M  V30 17621 C 1643.42 -1.87689 -0.768156 0
M  V30 17622 C 1643.75 -0.79776 -1.77058 0
M  V30 17623 O 1643.02 0.191614 -1.93554 0
M  V30 17624 C 1643.31 -3.28587 -1.47319 0
M  V30 17625 C 1643.16 -4.47156 -0.486954 0
M  V30 17626 C 1644.48 -3.67772 -2.41727 0
M  V30 17627 H 1641.6 -0.682642 -0.277793 0
M  V30 17628 H 1644.24 -1.89974 -0.0312968 0
M  V30 17629 H 1642.39 -3.26769 -2.10129 0
M  V30 17630 H 1644.06 -4.61099 0.136189 0
M  V30 17631 H 1642.3 -4.33351 0.197429 0
M  V30 17632 H 1642.98 -5.42533 -1.01795 0
M  V30 17633 H 1645.45 -3.70704 -1.88992 0
M  V30 17634 H 1644.33 -4.6724 -2.88059 0
M  V30 17635 H 1644.59 -2.97882 -3.26679 0
M  V30 17636 N 1643.65 0.339955 -1.5389 0
M  V30 17637 C 1644.88 1.09816 -1.74997 0
M  V30 17638 C 1645.29 1.82725 -0.490746 0
M  V30 17639 O 1644.63 1.75352 0.547467 0
M  V30 17640 C 1644.69 2.15388 -2.87834 0
M  V30 17641 C 1644.35 1.62022 -4.27315 0
M  V30 17642 C 1645.35 1.07064 -5.08757 0
M  V30 17643 C 1643.04 1.6676 -4.7381 0
M  V30 17644 C 1645.03 0.575529 -6.34796 0
M  V30 17645 C 1642.72 1.16861 -5.99822 0
M  V30 17646 C 1643.72 0.623505 -6.80148 0
M  V30 17647 O 1643.4 0.131966 -8.03792 0
M  V30 17648 H 1643.14 0.333199 -0.588179 0
M  V30 17649 H 1645.69 0.39682 -2.0153 0
M  V30 17650 H 1643.92 2.89091 -2.56834 0
M  V30 17651 H 1645.61 2.76801 -2.96877 0
M  V30 17652 H 1646.37 1.02723 -4.73997 0
M  V30 17653 H 1642.25 2.08129 -4.11343 0
M  V30 17654 H 1645.8 0.149389 -6.9744 0
M  V30 17655 H 1641.69 1.20904 -6.34076 0
M  V30 17656 H 1642.46 0.24892 -8.18121 0
M  V30 17657 N 1645.13 1.45684 0.601159 0
M  V30 17658 C 1646.36 1.53351 1.38445 0
M  V30 17659 C 1646.76 0.167103 1.88461 0
M  V30 17660 O 1646.11 -0.842684 1.63231 0
M  V30 17661 C 1646.17 2.46214 2.61952 0
M  V30 17662 C 1645.83 3.92826 2.33532 0
M  V30 17663 C 1646.83 4.8255 1.93498 0
M  V30 17664 C 1644.51 4.378 2.46245 0
M  V30 17665 C 1646.51 6.15257 1.66547 0
M  V30 17666 C 1644.2 5.70546 2.18908 0
M  V30 17667 C 1645.19 6.59094 1.79121 0
M  V30 17668 O 1644.88 7.89378 1.52108 0
M  V30 17669 H 1644.61 0.521638 0.429965 0
M  V30 17670 H 1647.17 1.91622 0.739617 0
M  V30 17671 H 1645.4 2.02926 3.29178 0
M  V30 17672 H 1647.09 2.44492 3.24004 0
M  V30 17673 H 1647.85 4.49066 1.83207 0
M  V30 17674 H 1643.73 3.69115 2.76179 0
M  V30 17675 H 1647.28 6.8433 1.35418 0
M  V30 17676 H 1643.17 6.03583 2.28818 0
M  V30 17677 H 1643.94 8.01468 1.66107 0
M  V30 17678 N 1646.6 -0.84422 1.33082 0
M  V30 17679 C 1647.53 -1.96899 1.25511 0
M  V30 17680 C 1648.51 -1.69549 0.13677 0
M  V30 17681 O 1649.7 -1.9145 0.325667 0
M  V30 17682 C 1646.83 -3.32947 0.988094 0
M  V30 17683 C 1645.78 -3.7468 2.06879 0
M  V30 17684 C 1645.11 -5.08475 1.65401 0
M  V30 17685 C 1646.41 -3.89033 3.48498 0
M  V30 17686 H 1648.1 -2.03491 2.19617 0
M  V30 17687 H 1645.65 -0.977659 1.05725 0
M  V30 17688 H 1647.6 -4.11198 0.921645 0
M  V30 17689 H 1646.33 -3.26598 0.0114067 0
M  V30 17690 H 1644.99 -2.98689 2.12557 0
M  V30 17691 H 1644.63 -4.98592 0.66449 0
M  V30 17692 H 1644.33 -5.37368 2.37717 0
M  V30 17693 H 1645.86 -5.89207 1.60212 0
M  V30 17694 H 1647.27 -4.57609 3.4535 0
M  V30 17695 H 1645.67 -4.29357 4.19253 0
M  V30 17696 H 1646.74 -2.91639 3.87395 0
M  V30 17697 N 1648.08 -1.16463 -1.0618 0
M  V30 17698 C 1649.31 -0.97159 -1.83235 0
M  V30 17699 C 1649.73 0.475295 -1.81996 0
M  V30 17700 O 1649.09 1.33964 -1.22161 0
M  V30 17701 C 1649.14 -1.50504 -3.2769 0
M  V30 17702 O 1648.24 -0.712128 -4.06205 0
M  V30 17703 H 1647.58 -0.345676 -0.566925 0
M  V30 17704 H 1650.11 -1.54727 -1.33868 0
M  V30 17705 H 1650.12 -1.52301 -3.78508 0
M  V30 17706 H 1648.8 -2.55832 -3.27907 0
M  V30 17707 H 1647.37 -0.764756 -3.64974 0
M  V30 17708 N 1649.56 1.24734 -0.963288 0
M  V30 17709 C 1650.81 1.93291 -0.63327 0
M  V30 17710 C 1651.16 1.7396 0.821935 0
M  V30 17711 O 1650.45 1.07933 1.58307 0
M  V30 17712 C 1650.65 3.44867 -0.938151 0
M  V30 17713 C 1650.48 3.78941 -2.42144 0
M  V30 17714 C 1649.25 4.00541 -3.08051 0
M  V30 17715 C 1651.44 3.85769 -3.40128 0
M  V30 17716 N 1649.43 4.21677 -4.46163 0
M  V30 17717 C 1650.8 4.11696 -4.6358 0
M  V30 17718 C 1652.85 3.68486 -3.34846 0
M  V30 17719 C 1651.56 4.22138 -5.82402 0
M  V30 17720 C 1653.58 3.80172 -4.53016 0
M  V30 17721 C 1652.94 4.0652 -5.75258 0
M  V30 17722 H 1649.04 0.729192 -0.282495 0
M  V30 17723 H 1651.63 1.50334 -1.23724 0
M  V30 17724 H 1649.8 3.867 -0.363032 0
M  V30 17725 H 1651.53 4.00706 -0.567156 0
M  V30 17726 H 1648.28 3.96769 -2.58595 0
M  V30 17727 H 1648.71 4.36234 -5.17715 0
M  V30 17728 H 1653.35 3.47126 -2.41378 0
M  V30 17729 H 1651.07 4.42311 -6.76303 0
M  V30 17730 H 1654.65 3.68175 -4.50487 0
M  V30 17731 H 1653.53 4.15354 -6.6517 0
M  V30 17732 N 1651.04 0.732878 1.39523 0
M  V30 17733 C 1651.97 0.106583 2.33257 0
M  V30 17734 C 1652.95 -0.726582 1.53801 0
M  V30 17735 O 1654.13 -0.671994 1.82203 0
M  V30 17736 C 1651.26 -0.803051 3.37888 0
M  V30 17737 C 1650.22 -0.0742048 4.27936 0
M  V30 17738 C 1649.54 -1.10071 5.23248 0
M  V30 17739 C 1650.84 1.08195 5.10971 0
M  V30 17740 H 1652.54 0.889539 2.8588 0
M  V30 17741 H 1650.08 0.429209 1.37455 0
M  V30 17742 H 1652.04 -1.25071 4.02412 0
M  V30 17743 H 1650.76 -1.6181 2.83699 0
M  V30 17744 H 1649.42 0.35381 3.64889 0
M  V30 17745 H 1649.07 -1.90927 4.65356 0
M  V30 17746 H 1648.77 -0.617825 5.84343 0
M  V30 17747 H 1650.29 -1.54812 5.90649 0
M  V30 17748 H 1651.71 0.712835 5.68851 0
M  V30 17749 H 1650.1 1.49433 5.81197 0
M  V30 17750 H 1651.17 1.90463 4.45928 0
M  V30 17751 N 1652.52 -1.50101 0.480349 0
M  V30 17752 C 1653.93 -1.59028 0.135048 0
M  V30 17753 C 1654.13 -1.48763 -1.35911 0
M  V30 17754 O 1653.19 -1.35089 -2.13324 0
M  V30 17755 C 1654.5 -2.92594 0.693483 0
M  V30 17756 C 1656.05 -3.06011 0.657737 0
M  V30 17757 C 1656.52 -4.42166 1.19388 0
M  V30 17758 N 1658.01 -4.48603 1.15368 0
M  V30 17759 C 1658.75 -5.52363 1.53893 0
M  V30 17760 N 1658.25 -6.6333 1.99911 0
M  V30 17761 N 1660.04 -5.42959 1.45438 0
M  V30 17762 H 1652.19 -1.55017 1.45202 0
M  V30 17763 H 1654.45 -0.733118 0.601034 0
M  V30 17764 H 1654.16 -3.0561 1.74056 0
M  V30 17765 H 1654.03 -3.76932 0.142238 0
M  V30 17766 H 1656.42 -2.92637 -0.38045 0
M  V30 17767 H 1656.5 -2.23408 1.24589 0
M  V30 17768 H 1656.14 -4.5629 2.23074 0
M  V30 17769 H 1656.07 -5.23376 0.58185 0
M  V30 17770 H 1658.57 -3.68979 0.816271 0
M  V30 17771 H 1658.88 -7.38576 2.27431 0
M  V30 17772 H 1657.22 -6.64426 2.03871 0
M  V30 17773 H 1660.41 -4.55156 1.09321 0
M  V30 17774 H 1660.59 -6.23701 1.75786 0
M  V30 17775 N 1653.99 -0.213323 -1.5615 0
M  V30 17776 C 1654.94 0.716708 -2.21283 0
M  V30 17777 C 1655.94 1.20599 -1.18963 0
M  V30 17778 O 1657.14 1.16677 -1.37064 0
M  V30 17779 H 1653.52 0.249524 -0.709395 0
M  V30 17780 H 1655.49 0.14385 -2.98053 0
M  V30 17781 C 1654.24 1.91775 -2.9003 0
M  V30 17782 H 1653.56 1.55036 -3.68516 0
M  V30 17783 H 1655 2.54646 -3.39016 0
M  V30 17784 C 1653.46 2.768 -1.92051 0
M  V30 17785 O 1653.99 3.75299 -1.43225 0
M  V30 17786 N 1652.19 2.42666 -1.5988 0
M  V30 17787 H 1651.74 1.62622 -1.99779 0
M  V30 17788 H 1651.7 2.99836 -0.945833 0
M  V30 17789 N 1655.47 1.57485 0.0601405 0
M  V30 17790 C 1656.89 1.54105 0.415187 0
M  V30 17791 C 1657.09 0.935177 1.78484 0
M  V30 17792 O 1656.14 0.542715 2.46599 0
M  V30 17793 C 1657.46 2.98708 0.34555 0
M  V30 17794 C 1659.01 3.10103 0.424895 0
M  V30 17795 C 1659.48 4.56379 0.385041 0
M  V30 17796 N 1660.97 4.6106 0.444771 0
M  V30 17797 C 1661.71 5.71737 0.436334 0
M  V30 17798 N 1661.2 6.91746 0.38202 0
M  V30 17799 N 1663 5.60014 0.483759 0
M  V30 17800 H 1655.15 1.95232 -0.836565 0
M  V30 17801 H 1657.41 0.894101 -0.3151 0
M  V30 17802 H 1657.12 3.4664 -0.594427 0
M  V30 17803 H 1656.99 3.59201 1.15129 0
M  V30 17804 H 1659.38 2.62137 1.3553 0
M  V30 17805 H 1659.46 2.52499 -0.409633 0
M  V30 17806 H 1659.1 5.05004 -0.541561 0
M  V30 17807 H 1659.03 5.11859 1.23726 0
M  V30 17808 H 1661.52 3.74703 0.490522 0
M  V30 17809 H 1661.84 7.71866 0.379829 0
M  V30 17810 H 1660.18 6.94126 0.348532 0
M  V30 17811 H 1663.37 4.65158 0.523965 0
M  V30 17812 H 1663.54 6.46266 0.473715 0
M  V30 17813 N 1656.95 -0.331789 1.54068 0
M  V30 17814 C 1658.2 -1.06818 1.71093 0
M  V30 17815 C 1658.51 -1.89438 0.487111 0
M  V30 17816 O 1659.72 -2.66105 0.538544 0
M  V30 17817 C 1658.17 -1.94853 3.02589 0
M  V30 17818 C 1657.78 -1.17384 4.32348 0
M  V30 17819 C 1659.53 -2.68278 3.28979 0
M  V30 17820 C 1657.43 -2.04518 5.54911 0
M  V30 17821 H 1656.36 -0.402501 0.63758 0
M  V30 17822 H 1659.01 -0.326918 1.80564 0
M  V30 17823 H 1657.4 -2.72845 2.87004 0
M  V30 17824 H 1658.57 -0.442208 4.58673 0
M  V30 17825 H 1656.89 -0.556775 4.12661 0
M  V30 17826 H 1659.48 -3.33762 4.1774 0
M  V30 17827 H 1659.83 -3.35476 2.46498 0
M  V30 17828 H 1660.36 -1.97353 3.45394 0
M  V30 17829 H 1657.1 -1.41842 6.3997 0
M  V30 17830 H 1656.62 -2.75438 5.32817 0
M  V30 17831 H 1658.3 -2.63297 5.91002 0
M  V30 17832 N 1658.43 -1.46001 -0.593424 0
M  V30 17833 C 1659.36 -1.58605 -1.71367 0
M  V30 17834 C 1660.34 -0.436866 -1.64394 0
M  V30 17835 O 1661.52 -0.661782 -1.82576 0
M  V30 17836 C 1658.65 -1.56587 -3.09996 0
M  V30 17837 C 1657.61 -2.70366 -3.31792 0
M  V30 17838 C 1656.93 -2.53406 -4.70839 0
M  V30 17839 C 1658.23 -4.12274 -3.20667 0
M  V30 17840 H 1659.93 -2.52379 -1.61076 0
M  V30 17841 H 1657.47 -1.21462 -0.773499 0
M  V30 17842 H 1659.43 -1.64 -3.88178 0
M  V30 17843 H 1658.15 -0.593511 -3.21162 0
M  V30 17844 H 1656.81 -2.62405 -2.56006 0
M  V30 17845 H 1656.46 -1.54278 -4.78756 0
M  V30 17846 H 1656.16 -3.29715 -4.86376 0
M  V30 17847 H 1657.68 -2.62694 -5.51203 0
M  V30 17848 H 1659.1 -4.21404 -3.88705 0
M  V30 17849 H 1657.49 -4.89085 -3.47729 0
M  V30 17850 H 1658.56 -4.33184 -2.17898 0
M  V30 17851 N 1659.91 0.83715 -1.33527 0
M  V30 17852 C 1660.86 1.93561 -1.20491 0
M  V30 17853 C 1661.84 1.60541 -0.107395 0
M  V30 17854 O 1663.03 1.73788 -0.335663 0
M  V30 17855 C 1660.16 3.2995 -0.948055 0
M  V30 17856 C 1659.25 3.69134 -2.08809 0
M  V30 17857 N 1659.64 3.79998 -3.33819 0
M  V30 17858 C 1657.94 3.98885 -1.99516 0
M  V30 17859 C 1658.64 4.14031 -4.08599 0
M  V30 17860 N 1657.61 4.26492 -3.37055 0
M  V30 17861 H 1661.42 2.00119 -2.15243 0
M  V30 17862 H 1658.93 1.02997 -1.2556 0
M  V30 17863 H 1660.93 4.0844 -0.835589 0
M  V30 17864 H 1659.59 3.24699 -0.00907808 0
M  V30 17865 H 1660.6 3.6386 -3.68546 0
M  V30 17866 H 1657.27 4.01836 -1.13289 0
M  V30 17867 H 1658.66 4.29759 -5.16485 0
M  V30 17868 N 1661.38 1.17024 1.05561 0
M  V30 17869 C 1662.33 0.879696 2.15323 0
M  V30 17870 C 1663.33 -0.154191 1.68697 0
M  V30 17871 O 1664.53 -0.00746608 1.79998 0
M  V30 17872 H 1660.91 0.266916 0.703036 0
M  V30 17873 H 1662.88 1.81264 2.37035 0
M  V30 17874 C 1661.63 0.405371 3.45329 0
M  V30 17875 H 1660.95 1.19238 3.81605 0
M  V30 17876 H 1662.39 0.240923 4.23315 0
M  V30 17877 C 1660.85 -0.876349 3.25303 0
M  V30 17878 O 1661.38 -1.94397 3.51529 0
M  V30 17879 N 1659.59 -0.823031 2.78702 0
M  V30 17880 H 1659.13 0.0459847 2.57559 0
M  V30 17881 H 1659.09 -1.68108 2.65682 0
M  V30 17882 N 1662.86 -1.24221 0.969889 0
M  V30 17883 C 1664.14 -1.87715 0.549772 0
M  V30 17884 C 1664.52 -1.87333 -0.973114 0
M  V30 17885 O 1663.87 -1.3475 -1.84539 0
M  V30 17886 C 1664.08 -3.29724 1.14381 0
M  V30 17887 C 1665.43 -4.06393 1.23005 0
M  V30 17888 O 1666.45 -3.38904 1.09648 0
M  V30 17889 O 1665.31 -5.27149 1.4414 0
M  V30 17890 H 1662.4 -0.806356 0.183629 0
M  V30 17891 H 1664.95 -1.32177 1.0643 0
M  V30 17892 H 1663.72 -3.24513 2.18649 0
M  V30 17893 H 1663.34 -3.92839 0.613456 0
M  V30 17894 N 1664.34 -0.740267 -1.39132 0
M  V30 17895 C 1665.75 -0.359866 -1.83199 0
M  V30 17896 C 1666.1 1.1095 -1.61816 0
M  V30 17897 O 1665.23 1.85635 -1.11215 0
M  V30 17898 C 1665.82 -0.64639 -3.32577 0
M  V30 17899 C 1664.38 -0.319423 -3.75042 0
M  V30 17900 C 1663.53 -0.906345 -2.6207 0
M  V30 17901 H 1666.48 -0.93749 -1.2805 0
M  V30 17902 H 1666.5 0.080033 -3.80416 0
M  V30 17903 H 1666.01 -1.71588 -3.48108 0
M  V30 17904 H 1664.11 0.744022 -3.65096 0
M  V30 17905 H 1664.23 -0.805664 -4.72277 0
M  V30 17906 H 1662.59 -0.332615 -2.52519 0
M  V30 17907 H 1663.37 -1.9806 -2.80405 0
M  V30 17908 N 1665.82 1.49844 -0.488302 0
M  V30 17909 C 1666.73 2.32651 0.301746 0
M  V30 17910 C 1667.74 1.43807 0.979573 0
M  V30 17911 O 1668.92 1.76844 0.963758 0
M  V30 17912 C 1665.99 3.18928 1.35962 0
M  V30 17913 C 1665.05 4.23611 0.696575 0
M  V30 17914 C 1664.28 5.05765 1.70404 0
M  V30 17915 O 1664.5 4.89243 2.93253 0
M  V30 17916 O 1663.44 5.88427 1.26637 0
M  V30 17917 H 1667.26 3.01367 -0.375687 0
M  V30 17918 H 1664.85 1.47296 -0.249844 0
M  V30 17919 H 1666.73 3.72413 1.97198 0
M  V30 17920 H 1665.4 2.52921 2.02021 0
M  V30 17921 H 1664.31 3.74073 0.0448118 0
M  V30 17922 H 1665.64 4.92137 0.0786446 0
M  V30 17923 N 1667.3 0.221601 1.56034 0
M  V30 17924 C 1668.54 -0.410695 1.98598 0
M  V30 17925 C 1668.88 -1.59412 1.10912 0
M  V30 17926 O 1668.15 -1.93783 0.166819 0
M  V30 17927 C 1668.43 -0.845199 3.50041 0
M  V30 17928 C 1668.29 0.341866 4.48499 0
M  V30 17929 C 1669.61 -1.70135 4.05884 0
M  V30 17930 H 1666.72 -0.147808 0.722026 0
M  V30 17931 H 1669.37 0.317846 1.87323 0
M  V30 17932 H 1667.52 -1.46597 3.5978 0
M  V30 17933 H 1669.19 0.980014 4.5077 0
M  V30 17934 H 1667.43 0.989294 4.22369 0
M  V30 17935 H 1668.1 -0.00509234 5.52 0
M  V30 17936 H 1670.58 -1.17757 3.9909 0
M  V30 17937 H 1669.45 -1.97427 5.12166 0
M  V30 17938 H 1669.72 -2.66469 3.5277 0
M  V30 17939 N 1668.77 -1.57515 -0.0517878 0
M  V30 17940 C 1669.68 -2.08427 -1.07681 0
M  V30 17941 C 1670.7 -1.01797 -1.41115 0
M  V30 17942 O 1671.88 -1.33394 -1.50891 0
M  V30 17943 C 1668.94 -2.53472 -2.36544 0
M  V30 17944 C 1668 -3.74488 -2.09899 0
M  V30 17945 C 1667.24 -4.17374 -3.32618 0
M  V30 17946 O 1667.46 -3.59962 -4.42475 0
M  V30 17947 O 1666.39 -5.10006 -3.19653 0
M  V30 17948 H 1670.22 -2.96122 -0.674217 0
M  V30 17949 H 1667.8 -1.4699 -0.267274 0
M  V30 17950 H 1669.69 -2.82876 -3.12345 0
M  V30 17951 H 1668.36 -1.68899 -2.76143 0
M  V30 17952 H 1667.27 -3.50137 -1.31739 0
M  V30 17953 H 1668.6 -4.59975 -1.75169 0
M  V30 17954 N 1670.25 0.323614 -1.54242 0
M  V30 17955 C 1671.2 1.39826 -1.83623 0
M  V30 17956 C 1672.17 1.51393 -0.683331 0
M  V30 17957 O 1673.36 1.66614 -0.929754 0
M  V30 17958 C 1670.5 2.76187 -2.06918 0
M  V30 17959 C 1669.61 2.73251 -3.34601 0
M  V30 17960 C 1668.74 4.01458 -3.47857 0
M  V30 17961 C 1667.78 3.9283 -4.69415 0
M  V30 17962 N 1666.92 5.12767 -4.79598 0
M  V30 17963 H 1671.76 1.1407 -2.75303 0
M  V30 17964 H 1669.3 0.552188 -1.36343 0
M  V30 17965 H 1671.25 3.55458 -2.18416 0
M  V30 17966 H 1669.88 3.00251 -1.18529 0
M  V30 17967 H 1668.94 1.85971 -3.31842 0
M  V30 17968 H 1670.25 2.62759 -4.2398 0
M  V30 17969 H 1669.4 4.89161 -3.58897 0
M  V30 17970 H 1668.14 4.14757 -2.5657 0
M  V30 17971 H 1667.15 3.03512 -4.58433 0
M  V30 17972 H 1668.37 3.81097 -5.62087 0
M  V30 17973 H 1666.32 5.26572 -3.91227 0
M  V30 17974 H 1666.23 5.0461 -5.62943 0
M  V30 17975 H 1667.5 6.02184 -4.94969 0
M  V30 17976 N 1671.73 1.46313 0.585673 0
M  V30 17977 C 1672.68 1.56653 1.69495 0
M  V30 17978 C 1673.65 0.411007 1.60935 0
M  V30 17979 O 1674.83 0.627369 1.80191 0
M  V30 17980 C 1671.97 1.55996 3.0783 0
M  V30 17981 C 1671.09 2.82261 3.27036 0
M  V30 17982 C 1670.22 2.73129 4.55603 0
M  V30 17983 C 1669.26 3.94346 4.68143 0
M  V30 17984 N 1668.4 3.83617 5.88032 0
M  V30 17985 H 1673.24 2.51407 1.59995 0
M  V30 17986 H 1670.77 1.24729 0.779821 0
M  V30 17987 H 1672.73 1.53602 3.87895 0
M  V30 17988 H 1671.36 0.647766 3.16234 0
M  V30 17989 H 1670.41 2.94648 2.40596 0
M  V30 17990 H 1671.73 3.72107 3.32171 0
M  V30 17991 H 1670.88 2.68823 5.43893 0
M  V30 17992 H 1669.62 1.80917 4.52902 0
M  V30 17993 H 1668.62 3.98987 3.78272 0
M  V30 17994 H 1669.85 4.8765 4.72625 0
M  V30 17995 H 1667.8 2.9419 5.86334 0
M  V30 17996 H 1667.71 4.67117 5.94422 0
M  V30 17997 H 1668.98 3.83281 6.7876 0
M  V30 17998 N 1673.21 -0.830057 1.33969 0
M  V30 17999 C 1674.14 -1.94785 1.20795 0
M  V30 18000 C 1675.15 -1.62225 0.136752 0
M  V30 18001 O 1676.34 -1.74233 0.38797 0
M  V30 18002 C 1673.44 -3.28523 0.832209 0
M  V30 18003 C 1672.62 -3.89157 1.99689 0
M  V30 18004 C 1671.68 -5.01262 1.6007 0
M  V30 18005 O 1670.7 -5.19939 2.31629 0
M  V30 18006 N 1671.9 -5.78249 0.510754 0
M  V30 18007 H 1674.67 -2.06621 2.17089 0
M  V30 18008 H 1672.23 -1.00626 1.26831 0
M  V30 18009 H 1674.22 -4.00958 0.549094 0
M  V30 18010 H 1672.79 -3.12574 -0.0403271 0
M  V30 18011 H 1672.01 -3.09203 2.44514 0
M  V30 18012 H 1673.3 -4.26399 2.77599 0
M  V30 18013 H 1672.7 -5.65637 -0.0842912 0
M  V30 18014 H 1671.25 -6.51166 0.287345 0
M  V30 18015 N 1674.69 -1.17582 -1.04939 0
M  V30 18016 C 1675.94 -0.96387 -1.77634 0
M  V30 18017 C 1676.26 0.508548 -1.88252 0
M  V30 18018 O 1675.53 1.36913 -1.40113 0
M  V30 18019 H 1674.11 -0.353636 -0.65799 0
M  V30 18020 H 1676.77 -1.48104 -1.26693 0
M  V30 18021 H 1675.86 -1.39438 -2.79219 0
M  V30 18022 N 1676.17 1.23705 -0.976463 0
M  V30 18023 C 1677.41 1.92608 -0.653736 0
M  V30 18024 C 1677.77 1.74822 0.803438 0
M  V30 18025 O 1677.06 1.09606 1.57153 0
M  V30 18026 C 1677.25 3.43853 -0.974676 0
M  V30 18027 C 1677.08 3.76351 -2.4615 0
M  V30 18028 C 1675.85 3.97251 -3.12282 0
M  V30 18029 C 1678.05 3.8214 -3.442 0
M  V30 18030 N 1676.03 4.16921 -4.5061 0
M  V30 18031 C 1677.4 4.06756 -4.6792 0
M  V30 18032 C 1679.46 3.64914 -3.38736 0
M  V30 18033 C 1678.16 4.15937 -5.86847 0
M  V30 18034 C 1680.19 3.75345 -4.57023 0
M  V30 18035 C 1679.55 4.00395 -5.79537 0
M  V30 18036 H 1675.65 0.726154 -0.290214 0
M  V30 18037 H 1678.23 1.49014 -1.25312 0
M  V30 18038 H 1676.4 3.86293 -0.404026 0
M  V30 18039 H 1678.14 4.00082 -0.609625 0
M  V30 18040 H 1674.89 3.94004 -2.62788 0
M  V30 18041 H 1675.31 4.30719 -5.22313 0
M  V30 18042 H 1679.96 3.44547 -2.45046 0
M  V30 18043 H 1677.67 4.35113 -6.80957 0
M  V30 18044 H 1681.26 3.63377 -4.54366 0
M  V30 18045 H 1680.14 4.08275 -6.69538 0
M  V30 18046 N 1677.64 0.747635 1.38738 0
M  V30 18047 C 1678.89 0.297962 1.99487 0
M  V30 18048 C 1679.21 -1.1249 1.60016 0
M  V30 18049 O 1680.41 -1.67474 2.13693 0
M  V30 18050 C 1678.87 0.48178 3.56661 0
M  V30 18051 C 1678.48 1.91335 4.05086 0
M  V30 18052 C 1680.22 0.0945202 4.24395 0
M  V30 18053 C 1678.13 2.04604 5.54879 0
M  V30 18054 H 1677.06 0.107655 0.746275 0
M  V30 18055 H 1679.71 0.923325 1.58578 0
M  V30 18056 H 1678.09 -0.212676 3.95428 0
M  V30 18057 H 1679.26 2.64079 3.77623 0
M  V30 18058 H 1677.58 2.25497 3.50057 0
M  V30 18059 H 1680.18 0.172508 5.34422 0
M  V30 18060 H 1680.52 -0.952037 4.05268 0
M  V30 18061 H 1681.05 0.740606 3.90845 0
M  V30 18062 H 1677.79 3.07493 5.78903 0
M  V30 18063 H 1677.31 1.36313 5.84105 0
M  V30 18064 H 1678.99 1.83317 6.20487 0
M  V30 18065 N 1679.12 -1.49583 0.496242 0
M  V30 18066 C 1680.35 -2.06847 -0.0469118 0
M  V30 18067 C 1680.76 -1.35715 -1.31251 0
M  V30 18068 O 1680.12 -0.434021 -1.77264 0
M  V30 18069 C 1680.17 -3.60174 -0.309338 0
M  V30 18070 O 1679.89 -4.28628 0.906082 0
M  V30 18071 C 1681.39 -4.34137 -0.896664 0
M  V30 18072 H 1678.61 -0.67075 0.0183324 0
M  V30 18073 H 1681.16 -1.92427 0.692237 0
M  V30 18074 H 1679.31 -3.74312 -0.998459 0
M  V30 18075 H 1679.73 -5.20254 0.666014 0
M  V30 18076 H 1681.2 -5.42307 -1.0299 0
M  V30 18077 H 1681.68 -3.96299 -1.89325 0
M  V30 18078 H 1682.28 -4.24593 -0.245158 0
M  V30 18079 N 1680.6 -0.229873 -1.55915 0
M  V30 18080 C 1681.85 0.400157 -1.98813 0
M  V30 18081 C 1682.18 1.58821 -1.11756 0
M  V30 18082 O 1681.45 1.93692 -0.177094 0
M  V30 18083 C 1681.74 0.826623 -3.50484 0
M  V30 18084 C 1681.59 -0.365647 -4.48311 0
M  V30 18085 C 1682.91 1.6798 -4.06781 0
M  V30 18086 H 1680.03 0.143977 -0.7228 0
M  V30 18087 H 1682.67 -0.327775 -1.87151 0
M  V30 18088 H 1680.82 1.44687 -3.60552 0
M  V30 18089 H 1682.49 -1.00391 -4.50244 0
M  V30 18090 H 1680.73 -1.01168 -4.21838 0
M  V30 18091 H 1681.41 -0.0241816 -5.51995 0
M  V30 18092 H 1683.88 1.15639 -3.99708 0
M  V30 18093 H 1682.76 1.94708 -5.13206 0
M  V30 18094 H 1683.02 2.64594 -3.54179 0
M  V30 18095 N 1682.08 1.5754 0.0434337 0
M  V30 18096 C 1683.33 1.88235 0.735652 0
M  V30 18097 C 1683.65 0.825698 1.76656 0
M  V30 18098 O 1682.92 -0.142424 1.95382 0
M  V30 18099 H 1681.5 0.694661 0.274692 0
M  V30 18100 H 1684.16 1.94896 0.0127911 0
M  V30 18101 H 1683.25 2.86659 1.23421 0
M  V30 18102 N 1683.56 -0.31543 1.54411 0
M  V30 18103 C 1684.83 -1.07113 1.63665 0
M  V30 18104 C 1685.21 -2.05671 0.475688 0
M  V30 18105 O 1684.56 -2.22288 -0.52918 0
M  V30 18106 C 1684.77 -1.76584 3.0103 0
M  V30 18107 C 1686.12 -2.29309 3.57355 0
M  V30 18108 O 1687.14 -1.86638 3.03388 0
M  V30 18109 O 1686 -3.07452 4.51814 0
M  V30 18110 H 1683.1 -0.494217 0.663083 0
M  V30 18111 H 1685.64 -0.31467 1.66757 0
M  V30 18112 H 1684.41 -1.0494 3.76966 0
M  V30 18113 H 1684.04 -2.5902 3.01653 0
M  V30 18114 N 1685.03 -1.46622 -0.577906 0
M  V30 18115 C 1685.96 -1.60413 -1.69676 0
M  V30 18116 C 1686.95 -0.454277 -1.63922 0
M  V30 18117 O 1688.13 -0.68111 -1.81864 0
M  V30 18118 C 1685.26 -1.59866 -3.08318 0
M  V30 18119 C 1684.21 -2.7387 -3.28906 0
M  V30 18120 C 1683.54 -2.58386 -4.68125 0
M  V30 18121 C 1684.84 -4.15652 -3.16276 0
M  V30 18122 H 1686.53 -2.54073 -1.5839 0
M  V30 18123 H 1684.08 -1.22275 -0.760572 0
M  V30 18124 H 1686.03 -1.68108 -3.86417 0
M  V30 18125 H 1684.76 -0.627541 -3.20514 0
M  V30 18126 H 1683.42 -2.65105 -2.53209 0
M  V30 18127 H 1683.06 -1.59347 -4.77093 0
M  V30 18128 H 1682.76 -3.34855 -4.82852 0
M  V30 18129 H 1684.29 -2.68525 -5.48385 0
M  V30 18130 H 1685.7 -4.25503 -3.84214 0
M  V30 18131 H 1684.1 -4.92746 -3.42523 0
M  V30 18132 H 1685.17 -4.35471 -2.13291 0
M  V30 18133 N 1686.51 0.822941 -1.34408 0
M  V30 18134 C 1687.42 1.96567 -1.28056 0
M  V30 18135 C 1688.44 1.72979 -0.188251 0
M  V30 18136 O 1689.61 1.97084 -0.41472 0
M  V30 18137 C 1686.68 3.30865 -1.03583 0
M  V30 18138 C 1685.74 3.67461 -2.2197 0
M  V30 18139 C 1684.97 4.9535 -1.98655 0
M  V30 18140 O 1685.2 5.62521 -0.944785 0
M  V30 18141 O 1684.13 5.29824 -2.85605 0
M  V30 18142 H 1687.96 2.0487 -2.24192 0
M  V30 18143 H 1685.54 0.958334 -1.14614 0
M  V30 18144 H 1687.42 4.11298 -0.917162 0
M  V30 18145 H 1686.1 3.2353 -0.104868 0
M  V30 18146 H 1685.01 2.87472 -2.39396 0
M  V30 18147 H 1686.34 3.79481 -3.13456 0
M  V30 18148 N 1687.99 1.18137 1.04314 0
M  V30 18149 C 1689.24 0.973277 1.77121 0
M  V30 18150 C 1689.56 -0.498558 1.88519 0
M  V30 18151 O 1688.83 -1.36168 1.40837 0
M  V30 18152 H 1687.41 0.35712 0.656105 0
M  V30 18153 H 1690.07 1.48774 1.25906 0
M  V30 18154 H 1689.17 1.40917 2.78476 0
M  V30 18155 N 1689.47 -1.23186 0.98301 0
M  V30 18156 C 1690.71 -1.93403 0.661406 0
M  V30 18157 C 1691.07 -1.7496 -0.790755 0
M  V30 18158 O 1692.27 -2.3935 -1.22331 0
M  V30 18159 C 1690.54 -3.41803 1.04428 0
M  V30 18160 S 1692.1 -4.30694 0.839548 0
M  V30 18161 H 1688.92 -0.668498 0.24214 0
M  V30 18162 H 1691.52 -1.49209 1.2632 0
M  V30 18163 H 1690.23 -3.52737 2.09773 0
M  V30 18164 H 1689.76 -3.91 0.433882 0
M  V30 18165 H 1691.77 -4.95436 -0.275175 0
M  V30 18166 N 1690.95 -0.754982 -1.38339 0
M  V30 18167 C 1692.2 -0.308537 -1.99326 0
M  V30 18168 C 1692.51 1.1164 -1.60611 0
M  V30 18169 O 1693.71 1.66339 -2.14578 0
M  V30 18170 C 1692.17 -0.500688 -3.564 0
M  V30 18171 C 1691.78 -1.9348 -4.04066 0
M  V30 18172 C 1693.52 -0.117026 -4.24339 0
M  V30 18173 C 1691.43 -2.07544 -5.53786 0
M  V30 18174 H 1690.36 -0.111611 -0.745694 0
M  V30 18175 H 1693.01 -0.931722 -1.58086 0
M  V30 18176 H 1691.39 0.191702 -3.95536 0
M  V30 18177 H 1692.57 -2.66077 -3.76217 0
M  V30 18178 H 1690.88 -2.27351 -3.48856 0
M  V30 18179 H 1693.48 -0.200847 -5.34323 0
M  V30 18180 H 1693.82 0.930531 -4.05767 0
M  V30 18181 H 1694.35 -0.761323 -3.90447 0
M  V30 18182 H 1691.09 -3.10559 -5.77264 0
M  V30 18183 H 1690.61 -1.39409 -5.83374 0
M  V30 18184 H 1692.29 -1.86605 -6.19506 0
M  V30 18185 N 1692.42 1.49318 -0.504168 0
M  V30 18186 C 1693.37 2.26124 0.291886 0
M  V30 18187 C 1694.36 1.31105 0.932753 0
M  V30 18188 O 1695.55 1.55807 0.839828 0
M  V30 18189 C 1692.68 3.15477 1.35384 0
M  V30 18190 C 1691.77 4.1796 0.719059 0
M  V30 18191 N 1692.16 5.05479 -0.180167 0
M  V30 18192 C 1690.45 4.35116 0.979276 0
M  V30 18193 C 1691.16 5.79152 -0.543837 0
M  V30 18194 N 1690.13 5.43527 0.0889959 0
M  V30 18195 H 1693.93 2.91161 -0.400301 0
M  V30 18196 H 1691.45 1.59207 -0.320454 0
M  V30 18197 H 1693.44 3.69137 1.93762 0
M  V30 18198 H 1692.1 2.51993 2.04767 0
M  V30 18199 H 1693.12 5.14959 -0.551179 0
M  V30 18200 H 1689.79 3.82836 1.66562 0
M  V30 18201 H 1691.18 6.59601 -1.27968 0
M  V30 18202 N 1693.9 0.238138 1.5579 0
M  V30 18203 C 1695.13 -0.392852 2.02831 0
M  V30 18204 C 1695.54 -1.52714 1.11692 0
M  V30 18205 O 1694.88 -1.83294 0.122034 0
M  V30 18206 C 1694.95 -0.970383 3.46156 0
M  V30 18207 C 1694.61 0.0305457 4.5699 0
M  V30 18208 C 1695.61 0.836938 5.13119 0
M  V30 18209 C 1693.29 0.154102 5.02064 0
M  V30 18210 C 1695.29 1.75343 6.12808 0
M  V30 18211 C 1692.97 1.07411 6.01586 0
M  V30 18212 C 1693.97 1.8723 6.56836 0
M  V30 18213 O 1693.66 2.77681 7.54419 0
M  V30 18214 H 1693.39 -0.0985571 0.668777 0
M  V30 18215 H 1695.94 0.356979 2.02274 0
M  V30 18216 H 1694.17 -1.76961 3.43834 0
M  V30 18217 H 1695.86 -1.51053 3.76747 0
M  V30 18218 H 1696.63 0.752021 4.79134 0
M  V30 18219 H 1692.51 -0.457094 4.58728 0
M  V30 18220 H 1696.05 2.37687 6.55859 0
M  V30 18221 H 1691.95 1.15998 6.34992 0
M  V30 18222 H 1692.72 2.71943 7.72003 0
M  V30 18223 N 1695.38 -1.57561 -0.0350783 0
M  V30 18224 C 1696.33 -2.06163 -1.03756 0
M  V30 18225 C 1697.3 -0.94954 -1.36283 0
M  V30 18226 O 1698.48 -1.21971 -1.46723 0
M  V30 18227 C 1695.62 -2.54086 -2.33526 0
M  V30 18228 C 1694.74 -3.79062 -2.0721 0
M  V30 18229 C 1693.87 -4.1562 -3.30808 0
M  V30 18230 C 1692.91 -5.3353 -3.0002 0
M  V30 18231 N 1692.05 -5.65549 -4.16051 0
M  V30 18232 H 1696.89 -2.91561 -0.616137 0
M  V30 18233 H 1694.42 -1.4416 -0.292617 0
M  V30 18234 H 1696.38 -2.79935 -3.09342 0
M  V30 18235 H 1695.01 -1.71614 -2.73402 0
M  V30 18236 H 1694.06 -3.60333 -1.21919 0
M  V30 18237 H 1695.38 -4.64998 -1.80495 0
M  V30 18238 H 1694.53 -4.42565 -4.14995 0
M  V30 18239 H 1693.27 -3.28323 -3.60632 0
M  V30 18240 H 1692.27 -5.06344 -2.14234 0
M  V30 18241 H 1693.5 -6.22475 -2.7148 0
M  V30 18242 H 1691.44 -4.81211 -4.45838 0
M  V30 18243 H 1691.36 -6.45982 -3.92738 0
M  V30 18244 H 1692.63 -5.97068 -5.01129 0
M  V30 18245 N 1696.86 0.307236 -1.54576 0
M  V30 18246 C 1698.1 1.04476 -1.73818 0
M  V30 18247 C 1698.44 1.87134 -0.519102 0
M  V30 18248 O 1697.71 1.88386 0.483852 0
M  V30 18249 C 1698 1.95594 -3.02349 0
M  V30 18250 C 1697.85 1.16158 -4.34543 0
M  V30 18251 C 1699.17 2.94865 -3.26715 0
M  V30 18252 H 1696.29 0.378415 -0.632433 0
M  V30 18253 H 1698.93 0.319955 -1.87287 0
M  V30 18254 H 1697.08 2.57396 -2.90997 0
M  V30 18255 H 1698.75 0.5669 -4.57803 0
M  V30 18256 H 1696.99 0.464158 -4.3131 0
M  V30 18257 H 1697.66 1.8315 -5.2073 0
M  V30 18258 H 1700.14 2.4319 -3.37636 0
M  V30 18259 H 1699.02 3.55791 -4.17976 0
M  V30 18260 H 1699.28 3.68195 -2.44714 0
M  V30 18261 N 1698.34 1.46926 0.570122 0
M  V30 18262 C 1699.58 1.53113 1.32982 0
M  V30 18263 C 1699.92 0.187401 1.93294 0
M  V30 18264 O 1699.19 -0.802585 1.77169 0
M  V30 18265 C 1699.47 2.63936 2.44969 0
M  V30 18266 C 1699.33 4.07882 1.8961 0
M  V30 18267 C 1700.65 2.70753 3.46959 0
M  V30 18268 H 1697.76 0.557398 0.482158 0
M  V30 18269 H 1700.41 1.78923 0.639259 0
M  V30 18270 H 1698.56 2.42059 3.03874 0
M  V30 18271 H 1700.23 4.41084 1.35066 0
M  V30 18272 H 1698.47 4.16768 1.20361 0
M  V30 18273 H 1699.14 4.81175 2.70508 0
M  V30 18274 H 1701.62 2.90452 2.97954 0
M  V30 18275 H 1700.49 3.50093 4.2276 0
M  V30 18276 H 1700.76 1.77299 4.04991 0
M  V30 18277 N 1699.82 -0.815801 1.34842 0
M  V30 18278 C 1700.76 -1.92713 1.27006 0
M  V30 18279 C 1701.73 -1.65476 0.143838 0
M  V30 18280 O 1702.92 -1.87994 0.326007 0
M  V30 18281 C 1700.06 -3.29099 1.03863 0
M  V30 18282 C 1699.17 -3.68583 2.25324 0
M  V30 18283 C 1698.31 -4.93953 1.95407 0
M  V30 18284 C 1697.34 -5.26037 3.12971 0
M  V30 18285 N 1696.48 -6.42586 2.82891 0
M  V30 18286 H 1701.32 -1.98747 2.22044 0
M  V30 18287 H 1698.86 -0.972265 1.10388 0
M  V30 18288 H 1700.82 -4.07709 0.884809 0
M  V30 18289 H 1699.45 -3.22558 0.124911 0
M  V30 18290 H 1698.5 -2.85307 2.51603 0
M  V30 18291 H 1699.81 -3.88259 3.1314 0
M  V30 18292 H 1698.96 -5.80367 1.76801 0
M  V30 18293 H 1697.7 -4.76293 1.04862 0
M  V30 18294 H 1696.71 -4.38117 3.32165 0
M  V30 18295 H 1697.93 -5.45632 4.04305 0
M  V30 18296 H 1695.88 -6.26369 1.9493 0
M  V30 18297 H 1695.8 -6.62469 3.64239 0
M  V30 18298 H 1697.06 -7.32052 2.67805 0
M  V30 18299 N 1701.29 -1.18689 -1.03686 0
M  V30 18300 C 1702.52 -1.00814 -1.80333 0
M  V30 18301 C 1702.93 0.446495 -1.83856 0
M  V30 18302 O 1702.27 1.32192 -1.27558 0
M  V30 18303 C 1702.34 -1.49133 -3.27108 0
M  V30 18304 C 1702 -2.97112 -3.47237 0
M  V30 18305 C 1703 -3.94938 -3.38113 0
M  V30 18306 C 1700.68 -3.35628 -3.7371 0
M  V30 18307 C 1702.68 -5.29274 -3.55172 0
M  V30 18308 C 1700.36 -4.70126 -3.90416 0
M  V30 18309 C 1701.36 -5.66758 -3.81148 0
M  V30 18310 O 1701.05 -6.98821 -3.97371 0
M  V30 18311 H 1700.78 -0.356077 -0.574617 0
M  V30 18312 H 1703.34 -1.57754 -1.31541 0
M  V30 18313 H 1701.57 -0.865624 -3.76887 0
M  V30 18314 H 1703.25 -1.27591 -3.85325 0
M  V30 18315 H 1704.02 -3.66527 -3.17621 0
M  V30 18316 H 1699.9 -2.6097 -3.8002 0
M  V30 18317 H 1703.44 -6.04684 -3.47854 0
M  V30 18318 H 1699.34 -4.98236 -4.10404 0
M  V30 18319 H 1700.11 -7.05779 -4.14509 0
M  V30 18320 N 1702.77 1.22662 -0.989529 0
M  V30 18321 C 1703.68 2.28162 -0.545835 0
M  V30 18322 C 1704.7 1.69251 0.403762 0
M  V30 18323 O 1705.87 1.99563 0.271428 0
M  V30 18324 C 1702.94 3.46434 0.135808 0
M  V30 18325 C 1702 4.20673 -0.85633 0
M  V30 18326 C 1701.23 5.33298 -0.207121 0
M  V30 18327 O 1701.46 5.6157 0.99975 0
M  V30 18328 O 1700.39 5.94977 -0.910288 0
M  V30 18329 H 1704.22 2.68276 -1.42344 0
M  V30 18330 H 1701.8 1.28766 -0.757609 0
M  V30 18331 H 1703.68 4.18207 0.517776 0
M  V30 18332 H 1702.36 3.08252 0.988035 0
M  V30 18333 H 1701.26 3.51186 -1.28917 0
M  V30 18334 H 1702.6 4.62726 -1.67765 0
M  V30 18335 N 1704.25 0.762308 1.37937 0
M  V30 18336 C 1705.67 0.440871 1.5339 0
M  V30 18337 C 1705.87 -1.04483 1.72295 0
M  V30 18338 O 1704.92 -1.83078 1.73892 0
M  V30 18339 C 1706.23 1.24772 2.73592 0
M  V30 18340 C 1707.78 1.23867 2.87447 0
M  V30 18341 C 1708.26 2.02866 4.10621 0
M  V30 18342 N 1709.75 2.00171 4.17715 0
M  V30 18343 C 1710.48 2.58086 5.12034 0
M  V30 18344 N 1709.98 3.2475 6.11972 0
M  V30 18345 N 1711.77 2.47968 5.04449 0
M  V30 18346 H 1703.92 1.72506 1.23916 0
M  V30 18347 H 1706.19 0.731791 0.602649 0
M  V30 18348 H 1705.89 2.30016 2.66056 0
M  V30 18349 H 1705.77 0.870485 3.67018 0
M  V30 18350 H 1708.15 0.194255 2.9446 0
M  V30 18351 H 1708.23 1.65548 1.95007 0
M  V30 18352 H 1707.88 3.07323 4.04369 0
M  V30 18353 H 1707.81 1.58574 5.02157 0
M  V30 18354 H 1710.3 1.5163 3.46146 0
M  V30 18355 H 1710.61 3.66339 6.80453 0
M  V30 18356 H 1708.96 3.28846 6.12279 0
M  V30 18357 H 1712.15 1.95509 4.25316 0
M  V30 18358 H 1712.32 2.93398 5.77773 0
M  V30 18359 N 1705.73 -1.49049 0.51208 0
M  V30 18360 C 1706.98 -2.01677 -0.0303931 0
M  V30 18361 C 1707.29 -1.39594 -1.37014 0
M  V30 18362 O 1708.5 -1.83615 -1.99994 0
M  V30 18363 C 1706.95 -3.59748 -0.104605 0
M  V30 18364 C 1706.56 -4.30808 1.22916 0
M  V30 18365 C 1708.3 -4.20283 -0.596854 0
M  V30 18366 C 1706.21 -5.80765 1.11651 0
M  V30 18367 H 1705.14 -0.753848 -0.015131 0
M  V30 18368 H 1707.79 -1.71482 0.653169 0
M  V30 18369 H 1706.17 -3.86707 -0.852859 0
M  V30 18370 H 1707.35 -4.15539 1.99158 0
M  V30 18371 H 1705.66 -3.82066 1.65573 0
M  V30 18372 H 1708.26 -5.30114 -0.698821 0
M  V30 18373 H 1708.6 -3.84392 -1.59838 0
M  V30 18374 H 1709.14 -3.97686 0.0951882 0
M  V30 18375 H 1705.87 -6.212 2.09264 0
M  V30 18376 H 1705.39 -5.98497 0.395167 0
M  V30 18377 H 1707.07 -6.42038 0.799782 0
M  V30 18378 N 1707.21 -0.246397 -1.55662 0
M  V30 18379 C 1708.15 0.653368 -2.21359 0
M  V30 18380 C 1709.12 1.1717 -1.1773 0
M  V30 18381 O 1710.31 1.22626 -1.46176 0
M  V30 18382 C 1707.45 1.84484 -2.9165 0
M  V30 18383 C 1706.56 1.36308 -4.09932 0
M  V30 18384 C 1705.7 2.51407 -4.6794 0
M  V30 18385 C 1704.73 2.0009 -5.78472 0
M  V30 18386 N 1703.87 3.08555 -6.30665 0
M  V30 18387 H 1708.71 0.0864458 -2.97875 0
M  V30 18388 H 1706.25 0.0309074 -1.47068 0
M  V30 18389 H 1708.21 2.54476 -3.30602 0
M  V30 18390 H 1706.84 2.38425 -2.17609 0
M  V30 18391 H 1705.89 0.557224 -3.76297 0
M  V30 18392 H 1707.2 0.946988 -4.89728 0
M  V30 18393 H 1706.35 3.29442 -5.09463 0
M  V30 18394 H 1705.09 2.96318 -3.87359 0
M  V30 18395 H 1704.1 1.20526 -5.36427 0
M  V30 18396 H 1705.32 1.5615 -6.60904 0
M  V30 18397 H 1703.27 3.529 -5.52989 0
M  V30 18398 H 1703.19 2.71274 -7.05653 0
M  V30 18399 H 1704.45 3.8665 -6.76847 0
M  V30 18400 N 1708.68 1.57577 0.026722 0
M  V30 18401 C 1709.93 1.89379 0.717062 0
M  V30 18402 C 1710.26 0.843976 1.75235 0
M  V30 18403 O 1709.51 -0.154755 1.95087 0
M  V30 18404 C 1709.81 3.27927 1.42121 0
M  V30 18405 C 1709.48 4.47872 0.521676 0
M  V30 18406 C 1708.14 4.8042 0.273926 0
M  V30 18407 C 1710.49 5.21105 -0.0992493 0
M  V30 18408 C 1707.82 5.83588 -0.603488 0
M  V30 18409 C 1710.17 6.25206 -0.964379 0
M  V30 18410 C 1708.84 6.56227 -1.22157 0
M  V30 18411 H 1708.11 0.692988 0.262391 0
M  V30 18412 H 1710.75 1.91486 -0.0230629 0
M  V30 18413 H 1709.06 3.2182 2.23471 0
M  V30 18414 H 1710.76 3.49783 1.96094 0
M  V30 18415 H 1707.35 4.22425 0.724931 0
M  V30 18416 H 1711.53 4.96237 0.0791882 0
M  V30 18417 H 1706.79 6.05997 -0.811031 0
M  V30 18418 H 1710.96 6.81094 -1.45201 0
M  V30 18419 H 1708.59 7.35991 -1.90317 0
M  V30 18420 N 1710.16 -0.299034 1.54737 0
M  V30 18421 C 1711.09 -1.37358 1.88826 0
M  V30 18422 C 1712.07 -1.52802 0.747367 0
M  V30 18423 O 1713.26 -1.66277 1.00327 0
M  V30 18424 C 1710.39 -2.73746 2.13729 0
M  V30 18425 C 1709.34 -2.73065 3.29575 0
M  V30 18426 C 1708.67 -4.12761 3.39901 0
M  V30 18427 C 1709.97 -2.34631 4.66632 0
M  V30 18428 H 1711.66 -1.09077 2.78824 0
M  V30 18429 H 1709.21 -0.523276 1.34156 0
M  V30 18430 H 1711.16 -3.49006 2.36162 0
M  V30 18431 H 1709.88 -3.03556 1.20504 0
M  V30 18432 H 1708.54 -2.00261 3.07068 0
M  V30 18433 H 1708.19 -4.39751 2.44189 0
M  V30 18434 H 1707.89 -4.13205 4.17774 0
M  V30 18435 H 1709.42 -4.89797 3.64597 0
M  V30 18436 H 1710.83 -2.99608 4.88782 0
M  V30 18437 H 1709.23 -2.46285 5.47233 0
M  V30 18438 H 1710.3 -1.29759 4.67216 0
M  V30 18439 N 1711.64 -1.47227 -0.562322 0
M  V30 18440 C 1712.89 -1.53816 -1.32168 0
M  V30 18441 C 1713.22 -0.197649 -1.93192 0
M  V30 18442 O 1712.49 0.793178 -1.77592 0
M  V30 18443 C 1712.78 -2.65231 -2.43566 0
M  V30 18444 C 1712.63 -4.08882 -1.87445 0
M  V30 18445 C 1713.95 -2.72589 -3.45519 0
M  V30 18446 H 1711.07 -0.559947 -0.479195 0
M  V30 18447 H 1713.71 -1.7926 -0.629762 0
M  V30 18448 H 1711.86 -2.43667 -3.02587 0
M  V30 18449 H 1713.53 -4.41794 -1.32725 0
M  V30 18450 H 1711.77 -4.17401 -1.18149 0
M  V30 18451 H 1712.45 -4.82603 -2.67952 0
M  V30 18452 H 1714.92 -2.92028 -2.9641 0
M  V30 18453 H 1713.8 -3.5233 -4.20898 0
M  V30 18454 H 1714.06 -1.79444 -4.04045 0
M  V30 18455 N 1713.12 0.808639 -1.35273 0
M  V30 18456 C 1714.37 1.56071 -1.27768 0
M  V30 18457 C 1714.68 1.9505 0.146545 0
M  V30 18458 O 1715.89 2.69314 0.343855 0
M  V30 18459 C 1714.34 2.81648 -2.24059 0
M  V30 18460 C 1713.95 2.49915 -3.71815 0
M  V30 18461 C 1715.69 3.59658 -2.25492 0
M  V30 18462 C 1713.6 3.7177 -4.59936 0
M  V30 18463 H 1712.53 0.585811 -0.474701 0
M  V30 18464 H 1715.18 0.889051 -1.60525 0
M  V30 18465 H 1713.56 3.50514 -1.84271 0
M  V30 18466 H 1714.74 1.89068 -4.20226 0
M  V30 18467 H 1713.05 1.85154 -3.72971 0
M  V30 18468 H 1715.65 4.50162 -2.88545 0
M  V30 18469 H 1715.99 3.96835 -1.2581 0
M  V30 18470 H 1716.53 2.97751 -2.63798 0
M  V30 18471 H 1713.26 3.39704 -5.60608 0
M  V30 18472 H 1712.78 4.3185 -4.16252 0
M  V30 18473 H 1714.46 4.39022 -4.75256 0
M  V30 18474 N 1714.6 1.19237 1.03055 0
M  V30 18475 C 1715.56 0.930536 2.0946 0
M  V30 18476 C 1716.56 -0.0882907 1.60557 0
M  V30 18477 O 1717.75 0.146269 1.73585 0
M  V30 18478 C 1714.88 0.398165 3.38567 0
M  V30 18479 H 1716.07 1.87422 2.34122 0
M  V30 18480 H 1713.63 1.00579 1.19639 0
M  V30 18481 H 1714.36 -0.551646 3.19574 0
M  V30 18482 H 1714.15 1.13273 3.75382 0
M  V30 18483 H 1715.64 0.234006 4.16944 0
M  V30 18484 N 1716.07 -1.22136 0.99602 0
M  V30 18485 C 1717 -2.26463 0.568909 0
M  V30 18486 C 1717.99 -1.65189 -0.405783 0
M  V30 18487 O 1719.17 -1.91935 -0.295735 0
M  V30 18488 C 1716.3 -3.47112 -0.114166 0
M  V30 18489 C 1715.25 -4.20844 0.779387 0
M  V30 18490 C 1714.58 -5.34687 -0.0367787 0
M  V30 18491 C 1715.88 -4.79195 2.07773 0
M  V30 18492 H 1717.57 -2.62443 1.44097 0
M  V30 18493 H 1715.12 -1.26156 0.694314 0
M  V30 18494 H 1717.07 -4.19258 -0.424381 0
M  V30 18495 H 1715.8 -3.10238 -1.02079 0
M  V30 18496 H 1714.46 -3.50537 1.07329 0
M  V30 18497 H 1714.1 -4.94054 -0.94442 0
M  V30 18498 H 1713.8 -5.84944 0.558092 0
M  V30 18499 H 1715.33 -6.09647 -0.341016 0
M  V30 18500 H 1716.74 -5.43266 1.83126 0
M  V30 18501 H 1715.14 -5.39803 2.62169 0
M  V30 18502 H 1716.21 -3.99073 2.75442 0
M  V30 18503 N 1717.55 -0.769612 -1.37531 0
M  V30 18504 C 1718.5 -0.152627 -2.30295 0
M  V30 18505 C 1719.47 0.692154 -1.50992 0
M  V30 18506 O 1720.65 0.64496 -1.79569 0
M  V30 18507 C 1717.79 0.72217 -3.37459 0
M  V30 18508 C 1716.91 -0.138985 -4.31776 0
M  V30 18509 C 1716.04 0.740317 -5.26016 0
M  V30 18510 C 1715.08 -0.1235 -6.11975 0
M  V30 18511 N 1714.22 0.713658 -6.98464 0
M  V30 18512 H 1719.06 -0.949218 -2.82478 0
M  V30 18513 H 1716.6 -0.479697 -1.39059 0
M  V30 18514 H 1718.55 1.24415 -3.98217 0
M  V30 18515 H 1717.18 1.48438 -2.86646 0
M  V30 18516 H 1716.24 -0.778756 -3.72343 0
M  V30 18517 H 1717.55 -0.805402 -4.92255 0
M  V30 18518 H 1716.7 1.32887 -5.91968 0
M  V30 18519 H 1715.44 1.44042 -4.65943 0
M  V30 18520 H 1714.45 -0.7246 -5.45004 0
M  V30 18521 H 1715.67 -0.820907 -6.7412 0
M  V30 18522 H 1713.62 1.39842 -6.40921 0
M  V30 18523 H 1713.53 0.104492 -7.55928 0
M  V30 18524 H 1714.8 1.28667 -7.68808 0
M  V30 18525 N 1719.03 1.48775 -0.519977 0
M  V30 18526 C 1719.98 2.31123 0.261738 0
M  V30 18527 C 1720.97 1.40595 0.94496 0
M  V30 18528 O 1722.18 1.57552 0.870484 0
M  V30 18529 H 1718.55 0.744875 0.103272 0
M  V30 18530 H 1720.52 2.94949 -0.452514 0
M  V30 18531 C 1719.27 3.22409 1.30184 0
M  V30 18532 H 1718.6 3.92007 0.785524 0
M  V30 18533 H 1720.04 3.82932 1.82042 0
M  V30 18534 C 1718.5 2.43321 2.33016 0
M  V30 18535 O 1719.03 2.15087 3.39265 0
M  V30 18536 N 1717.23 2.04998 2.05971 0
M  V30 18537 H 1716.78 2.2816 1.19586 0
M  V30 18538 H 1716.74 1.52393 2.74998 0
M  V30 18539 N 1720.51 0.254649 1.55529 0
M  V30 18540 C 1721.47 -0.62836 2.20418 0
M  V30 18541 C 1722.47 -1.09691 1.17578 0
M  V30 18542 O 1723.66 -1.00037 1.42612 0
M  V30 18543 C 1720.79 -1.86453 2.85391 0
M  V30 18544 H 1721.99 -0.0621032 2.99836 0
M  V30 18545 H 1719.54 0.00514311 1.56299 0
M  V30 18546 H 1720.27 -2.47182 2.09932 0
M  V30 18547 H 1720.06 -1.53669 3.60733 0
M  V30 18548 H 1721.55 -2.49291 3.35028 0
M  V30 18549 N 1721.99 -1.57589 -0.0183649 0
M  V30 18550 C 1723.23 -1.90038 -0.708056 0
M  V30 18551 C 1723.57 -0.853686 -1.7443 0
M  V30 18552 O 1722.84 0.12994 -1.94065 0
M  V30 18553 C 1723.12 -3.33107 -1.3679 0
M  V30 18554 C 1722.98 -4.48479 -0.344448 0
M  V30 18555 C 1724.3 -3.75276 -2.29904 0
M  V30 18556 H 1721.41 -0.691134 -0.255934 0
M  V30 18557 H 1724.06 -1.89978 0.0291579 0
M  V30 18558 H 1722.21 -3.33289 -1.99626 0
M  V30 18559 H 1723.88 -4.60432 0.282816 0
M  V30 18560 H 1722.12 -4.32503 0.335196 0
M  V30 18561 H 1722.79 -5.45497 -0.844832 0
M  V30 18562 H 1725.27 -3.76529 -1.77103 0
M  V30 18563 H 1724.14 -4.76168 -2.73049 0
M  V30 18564 H 1724.41 -3.08124 -3.17036 0
M  V30 18565 N 1723.46 0.290824 -1.54893 0
M  V30 18566 C 1724.37 1.38137 -1.89619 0
M  V30 18567 C 1725.39 1.54959 -0.791432 0
M  V30 18568 O 1726.57 1.69428 -1.08885 0
M  V30 18569 C 1723.63 2.72353 -2.14534 0
M  V30 18570 C 1722.69 2.64429 -3.38195 0
M  V30 18571 C 1721.93 3.92244 -3.61912 0
M  V30 18572 O 1722.15 4.92088 -2.88454 0
M  V30 18573 O 1721.08 3.93523 -4.55438 0
M  V30 18574 H 1724.91 1.11688 -2.82417 0
M  V30 18575 H 1722.49 0.487789 -1.41213 0
M  V30 18576 H 1724.38 3.51745 -2.32064 0
M  V30 18577 H 1723.05 2.98624 -1.24921 0
M  V30 18578 H 1721.96 1.83474 -3.26018 0
M  V30 18579 H 1723.29 2.43109 -4.2797 0
M  V30 18580 N 1724.94 1.47523 0.554506 0
M  V30 18581 C 1726.19 1.53546 1.30791 0
M  V30 18582 C 1726.5 0.203555 1.94538 0
M  V30 18583 O 1727.71 0.14181 2.71129 0
M  V30 18584 C 1726.17 2.70684 2.37188 0
M  V30 18585 C 1725.77 4.10415 1.7962 0
M  V30 18586 C 1727.52 2.86002 3.13693 0
M  V30 18587 C 1725.43 5.18849 2.83813 0
M  V30 18588 H 1724.36 0.571539 0.491792 0
M  V30 18589 H 1727.01 1.73803 0.58861 0
M  V30 18590 H 1725.39 2.43812 3.12045 0
M  V30 18591 H 1726.56 4.47202 1.11117 0
M  V30 18592 H 1724.88 4.00006 1.15691 0
M  V30 18593 H 1727.47 3.64181 3.91505 0
M  V30 18594 H 1727.82 1.94545 3.68046 0
M  V30 18595 H 1728.35 3.12657 2.45948 0
M  V30 18596 H 1725.09 6.12192 2.34311 0
M  V30 18597 H 1724.61 4.86577 3.50718 0
M  V30 18598 H 1726.29 5.45915 3.47255 0
M  V30 18599 N 1726.42 -0.801453 1.357 0
M  V30 18600 C 1727.65 -1.58771 1.32194 0
M  V30 18601 C 1728.06 -1.88927 -0.101529 0
M  V30 18602 O 1727.4 -1.49649 -1.0654 0
M  V30 18603 C 1727.46 -2.94186 2.06627 0
M  V30 18604 C 1727.13 -2.86819 3.55786 0
M  V30 18605 C 1728.12 -2.59898 4.50276 0
M  V30 18606 C 1725.81 -3.05775 3.98506 0
M  V30 18607 C 1727.8 -2.52017 5.85462 0
M  V30 18608 C 1725.49 -2.97516 5.33786 0
M  V30 18609 C 1726.49 -2.70673 6.27076 0
M  V30 18610 O 1726.18 -2.62387 7.59874 0
M  V30 18611 H 1725.91 -0.499518 0.455475 0
M  V30 18612 H 1728.46 -1.00358 1.79213 0
M  V30 18613 H 1726.69 -3.54602 1.54253 0
M  V30 18614 H 1728.38 -3.55368 1.96133 0
M  V30 18615 H 1729.15 -2.44968 4.18588 0
M  V30 18616 H 1725.03 -3.25678 3.26274 0
M  V30 18617 H 1728.57 -2.30985 6.58249 0
M  V30 18618 H 1724.47 -3.12006 5.65086 0
M  V30 18619 H 1725.24 -2.77957 7.69859 0
M  V30 18620 N 1727.9 -1.19782 -1.02421 0
M  V30 18621 C 1728.86 -0.941631 -2.08964 0
M  V30 18622 C 1729.86 0.0797747 -1.60602 0
M  V30 18623 O 1731.05 -0.155473 -1.73505 0
M  V30 18624 C 1728.18 -0.416114 -3.38351 0
M  V30 18625 H 1729.38 -1.88661 -2.33125 0
M  V30 18626 H 1726.93 -1.01212 -1.19104 0
M  V30 18627 H 1727.66 0.53469 -3.19862 0
M  V30 18628 H 1727.45 -1.15262 -3.74776 0
M  V30 18629 H 1728.94 -0.256114 -4.16814 0
M  V30 18630 N 1729.38 1.21606 -1.00248 0
M  V30 18631 C 1730.62 1.91178 -0.694444 0
M  V30 18632 C 1730.98 1.76487 0.766175 0
M  V30 18633 O 1730.27 1.12914 1.54793 0
M  V30 18634 C 1730.47 3.41708 -1.04739 0
M  V30 18635 C 1730.29 3.71046 -2.54077 0
M  V30 18636 C 1729.06 3.90538 -3.20638 0
M  V30 18637 C 1731.26 3.74753 -3.52228 0
M  V30 18638 N 1729.24 4.0727 -4.59353 0
M  V30 18639 C 1730.62 3.9674 -4.76443 0
M  V30 18640 C 1732.67 3.57647 -3.464 0
M  V30 18641 C 1731.37 4.03395 -5.95537 0
M  V30 18642 C 1733.4 3.65567 -4.64882 0
M  V30 18643 C 1732.76 3.88012 -5.87899 0
M  V30 18644 H 1728.86 0.719835 -0.305551 0
M  V30 18645 H 1731.44 1.46322 -1.28444 0
M  V30 18646 H 1729.62 3.85349 -0.485874 0
M  V30 18647 H 1731.35 3.98699 -0.694351 0
M  V30 18648 H 1728.1 3.88341 -2.71087 0
M  V30 18649 H 1728.53 4.19543 -5.31331 0
M  V30 18650 H 1733.17 3.39271 -2.52299 0
M  V30 18651 H 1730.89 4.20571 -6.90033 0
M  V30 18652 H 1734.47 3.53657 -4.61972 0
M  V30 18653 H 1733.35 3.93982 -6.78047 0
M  V30 18654 N 1730.86 0.776895 1.37121 0
M  V30 18655 C 1731.82 0.172839 2.28547 0
M  V30 18656 C 1732.82 -0.622508 1.48262 0
M  V30 18657 O 1734.01 -0.44534 1.68411 0
M  V30 18658 C 1731.14 -0.762294 3.32268 0
M  V30 18659 H 1732.33 0.978842 2.83476 0
M  V30 18660 H 1729.89 0.545454 1.46474 0
M  V30 18661 H 1730.62 -1.59311 2.82472 0
M  V30 18662 H 1730.41 -0.194084 3.91619 0
M  V30 18663 H 1731.9 -1.1802 4.00576 0
M  V30 18664 N 1732.33 -1.48497 0.527859 0
M  V30 18665 C 1733.74 -1.86498 0.0868541 0
M  V30 18666 C 1734.1 -1.43763 -1.33517 0
M  V30 18667 O 1733.22 -0.827397 -1.99958 0
M  V30 18668 C 1733.82 -3.38464 0.150843 0
M  V30 18669 C 1732.37 -3.75666 -0.234956 0
M  V30 18670 C 1731.52 -2.72541 0.511549 0
M  V30 18671 H 1734.47 -1.40432 0.739223 0
M  V30 18672 H 1734.49 -3.75114 -0.637972 0
M  V30 18673 H 1734.01 -3.69537 1.18592 0
M  V30 18674 H 1732.11 -3.50206 -1.27225 0
M  V30 18675 H 1732.22 -4.78989 0.103178 0
M  V30 18676 H 1730.58 -2.54665 -0.0419281 0
M  V30 18677 H 1731.37 -3.06457 1.54722 0
M  V30 18678 N 1733.81 -0.262893 -1.55392 0
M  V30 18679 C 1734.76 0.629853 -2.22039 0
M  V30 18680 C 1735.73 1.15915 -1.18966 0
M  V30 18681 O 1736.91 1.21069 -1.47468 0
M  V30 18682 C 1734.05 1.8138 -2.9359 0
M  V30 18683 C 1733.17 1.31952 -4.11355 0
M  V30 18684 C 1732.3 2.4643 -4.7058 0
M  V30 18685 C 1731.34 1.93944 -5.80562 0
M  V30 18686 N 1730.48 3.01848 -6.33902 0
M  V30 18687 H 1735.32 0.0548473 -2.9795 0
M  V30 18688 H 1732.85 0.0153072 -1.47092 0
M  V30 18689 H 1734.81 2.50955 -3.33283 0
M  V30 18690 H 1733.44 2.36103 -2.20125 0
M  V30 18691 H 1732.49 0.517281 -3.76866 0
M  V30 18692 H 1733.81 0.894993 -4.90705 0
M  V30 18693 H 1732.96 3.2402 -5.12929 0
M  V30 18694 H 1731.7 2.92193 -3.9048 0
M  V30 18695 H 1730.7 1.1483 -5.37675 0
M  V30 18696 H 1731.93 1.49132 -6.62523 0
M  V30 18697 H 1729.88 3.47015 -5.56701 0
M  V30 18698 H 1729.79 2.63775 -7.08491 0
M  V30 18699 H 1731.06 3.79449 -6.8091 0
M  V30 18700 N 1735.29 1.57597 0.0100073 0
M  V30 18701 C 1736.7 1.78287 0.554143 0
M  V30 18702 C 1737.05 0.896332 1.74529 0
M  V30 18703 O 1736.18 0.0961505 2.16186 0
M  V30 18704 C 1736.77 3.23331 1.01206 0
M  V30 18705 C 1735.33 3.45152 1.50157 0
M  V30 18706 C 1734.48 2.73654 0.448221 0
M  V30 18707 H 1737.43 1.57221 -0.216189 0
M  V30 18708 H 1737.45 3.30893 1.87856 0
M  V30 18709 H 1736.96 3.87829 0.144921 0
M  V30 18710 H 1735.06 2.85854 2.38994 0
M  V30 18711 H 1735.18 4.53813 1.53594 0
M  V30 18712 H 1733.54 2.3798 0.907603 0
M  V30 18713 H 1734.32 3.40846 -0.40978 0
M  V30 18714 N 1736.77 -0.282606 1.55045 0
M  V30 18715 C 1738 -1.03245 1.78952 0
M  V30 18716 C 1738.41 -1.80777 0.558225 0
M  V30 18717 O 1737.75 -1.77264 -0.482009 0
M  V30 18718 C 1737.81 -2.04557 2.95629 0
M  V30 18719 C 1737.47 -1.46051 4.33034 0
M  V30 18720 C 1738.47 -0.881083 5.1238 0
M  V30 18721 C 1736.16 -1.4906 4.79673 0
M  V30 18722 C 1738.15 -0.339532 6.36495 0
M  V30 18723 C 1735.84 -0.945189 6.03746 0
M  V30 18724 C 1736.84 -0.370643 6.81994 0
M  V30 18725 O 1736.52 0.166447 8.03728 0
M  V30 18726 H 1736.26 -0.311139 0.60014 0
M  V30 18727 H 1738.81 -0.32175 2.02864 0
M  V30 18728 H 1737.04 -2.79359 2.67386 0
M  V30 18729 H 1738.73 -2.65592 3.06946 0
M  V30 18730 H 1739.49 -0.850602 4.77483 0
M  V30 18731 H 1735.37 -1.92719 4.18784 0
M  V30 18732 H 1738.92 0.109564 6.97514 0
M  V30 18733 H 1734.81 -0.972878 6.38126 0
M  V30 18734 H 1735.58 0.054892 8.18482 0
M  V30 18735 N 1738.25 -1.47815 -0.546675 0
M  V30 18736 C 1739.2 -1.57497 -1.6486 0
M  V30 18737 C 1740.18 -0.433138 -1.5496 0
M  V30 18738 O 1741.37 -0.683657 -1.63264 0
M  V30 18739 C 1738.5 -1.60219 -3.03619 0
M  V30 18740 C 1737.59 -2.79823 -3.18684 0
M  V30 18741 N 1737.98 -4.04416 -3.03778 0
M  V30 18742 C 1736.28 -2.76806 -3.49707 0
M  V30 18743 C 1736.98 -4.84573 -3.21814 0
M  V30 18744 N 1735.95 -4.17083 -3.4863 0
M  V30 18745 H 1739.75 -2.5159 -1.5192 0
M  V30 18746 H 1737.27 -1.43955 -0.751711 0
M  V30 18747 H 1739.27 -1.65246 -3.82752 0
M  V30 18748 H 1737.93 -0.672293 -3.17664 0
M  V30 18749 H 1738.94 -4.35114 -2.80885 0
M  V30 18750 H 1735.61 -1.93 -3.70213 0
M  V30 18751 H 1737 -5.93396 -3.15168 0
M  V30 18752 N 1739.72 0.794246 -1.36123 0
M  V30 18753 C 1740.67 1.90668 -1.30056 0
M  V30 18754 C 1741.64 1.65226 -0.170145 0
M  V30 18755 O 1742.83 1.87452 -0.355874 0
M  V30 18756 C 1739.97 3.27405 -1.09086 0
M  V30 18757 C 1739.08 3.64951 -2.31159 0
M  V30 18758 C 1738.21 4.90782 -2.0324 0
M  V30 18759 C 1737.25 5.20992 -3.21301 0
M  V30 18760 N 1736.39 6.38005 -2.93078 0
M  V30 18761 H 1741.23 1.9519 -2.25178 0
M  V30 18762 H 1738.77 0.95458 -1.1192 0
M  V30 18763 H 1740.72 4.0625 -0.94956 0
M  V30 18764 H 1739.35 3.22319 -0.176211 0
M  V30 18765 H 1738.41 2.81268 -2.5611 0
M  V30 18766 H 1739.72 3.83228 -3.19277 0
M  V30 18767 H 1738.87 5.77481 -1.86012 0
M  V30 18768 H 1737.61 4.74565 -1.12426 0
M  V30 18769 H 1736.62 4.32777 -3.39093 0
M  V30 18770 H 1737.84 5.39131 -4.12934 0
M  V30 18771 H 1735.79 6.23189 -2.0487 0
M  V30 18772 H 1735.7 6.56591 -3.74733 0
M  V30 18773 H 1736.97 7.27699 -2.79418 0
M  V30 18774 N 1741.2 1.20323 1.01785 0
M  V30 18775 C 1742.45 1.01263 1.75363 0
M  V30 18776 C 1742.78 -0.455392 1.89094 0
M  V30 18777 O 1742.03 -1.35435 1.41266 0
M  V30 18778 C 1742.33 1.63984 3.1756 0
M  V30 18779 C 1742 3.13781 3.23809 0
M  V30 18780 C 1740.66 3.54661 3.25222 0
M  V30 18781 C 1743.01 4.09779 3.22072 0
M  V30 18782 C 1740.34 4.90068 3.22568 0
M  V30 18783 C 1742.69 5.45131 3.20959 0
M  V30 18784 C 1741.35 5.85426 3.20675 0
M  V30 18785 H 1740.62 0.370547 0.641698 0
M  V30 18786 H 1743.27 1.4973 1.19387 0
M  V30 18787 H 1741.58 1.07776 3.76685 0
M  V30 18788 H 1743.27 1.46753 3.73182 0
M  V30 18789 H 1739.86 2.81215 3.23444 0
M  V30 18790 H 1744.05 3.79231 3.20152 0
M  V30 18791 H 1739.3 5.20553 3.20678 0
M  V30 18792 H 1743.48 6.19264 3.18568 0
M  V30 18793 H 1741.1 6.90321 3.18373 0
M  V30 18794 N 1742.68 -1.21073 1.00892 0
M  V30 18795 C 1743.61 -2.22257 0.517418 0
M  V30 18796 C 1744.59 -1.56784 -0.430997 0
M  V30 18797 O 1745.77 -1.85169 -0.3528 0
M  V30 18798 C 1742.9 -3.37791 -0.24795 0
M  V30 18799 C 1741.95 -4.21535 0.648856 0
M  V30 18800 S 1742.78 -4.92026 2.11355 0
M  V30 18801 C 1743.94 -6.10987 1.35813 0
M  V30 18802 H 1744.17 -2.63604 1.37479 0
M  V30 18803 H 1741.7 -1.31002 0.817177 0
M  V30 18804 H 1743.66 -4.04771 -0.683454 0
M  V30 18805 H 1742.32 -2.9492 -1.08079 0
M  V30 18806 H 1741.51 -5.03965 0.0591083 0
M  V30 18807 H 1741.12 -3.59771 1.0218 0
M  V30 18808 H 1743.41 -6.74526 0.634079 0
M  V30 18809 H 1744.35 -6.74406 2.15829 0
M  V30 18810 H 1744.76 -5.57843 0.864381 0
M  V30 18811 N 1744.16 -0.784156 -1.36707 0
M  V30 18812 C 1745.12 -0.184957 -2.28453 0
M  V30 18813 C 1746.12 0.614637 -1.4859 0
M  V30 18814 O 1747.31 0.436403 -1.68645 0
M  V30 18815 C 1744.44 0.744662 -3.32667 0
M  V30 18816 H 1745.64 -0.993861 -2.82953 0
M  V30 18817 H 1743.19 -0.553214 -1.46182 0
M  V30 18818 H 1743.92 1.57811 -2.83313 0
M  V30 18819 H 1743.71 0.173313 -3.91717 0
M  V30 18820 H 1745.2 1.15894 -4.01196 0
M  V30 18821 N 1745.64 1.48215 -0.535727 0
M  V30 18822 C 1746.88 2.025 -0.00372753 0
M  V30 18823 C 1747.21 1.41227 1.33735 0
M  V30 18824 O 1746.47 0.549544 1.87826 0
M  V30 18825 C 1746.77 3.57036 0.161344 0
M  V30 18826 C 1746.43 4.37122 -1.10611 0
M  V30 18827 C 1745.09 4.58724 -1.45346 0
M  V30 18828 C 1747.45 4.83469 -1.94698 0
M  V30 18829 C 1744.77 5.2392 -2.64055 0
M  V30 18830 C 1747.13 5.49973 -3.1259 0
M  V30 18831 C 1745.79 5.69812 -3.47664 0
M  V30 18832 H 1745.06 0.740999 -0.001364 0
M  V30 18833 H 1747.71 1.78133 -0.70291 0
M  V30 18834 H 1746.01 3.80274 0.943337 0
M  V30 18835 H 1747.71 3.96666 0.587981 0
M  V30 18836 H 1744.3 4.20573 -0.825608 0
M  V30 18837 H 1748.48 4.66577 -1.69173 0
M  V30 18838 H 1743.74 5.37477 -2.91424 0
M  V30 18839 H 1747.91 5.84852 -3.78049 0
M  V30 18840 H 1745.54 6.20103 -4.39746 0
M  V30 18841 N 1747.11 0.27113 1.5525 0
M  V30 18842 C 1748.06 -0.618069 2.2237 0
M  V30 18843 C 1749.03 -1.15282 1.19579 0
M  V30 18844 O 1750.22 -1.20285 1.48108 0
M  V30 18845 C 1747.36 -1.79821 2.94548 0
M  V30 18846 C 1746.47 -1.29769 4.12049 0
M  V30 18847 C 1745.6 -2.43931 4.7188 0
M  V30 18848 C 1744.64 -1.90862 5.81582 0
M  V30 18849 N 1743.78 -2.98482 6.35494 0
M  V30 18850 H 1748.62 -0.0390456 2.97974 0
M  V30 18851 H 1746.16 -0.00750636 1.47098 0
M  V30 18852 H 1748.12 -2.49184 3.34609 0
M  V30 18853 H 1746.75 -2.34933 2.21374 0
M  V30 18854 H 1745.8 -0.497288 3.77136 0
M  V30 18855 H 1747.11 -0.868957 4.91173 0
M  V30 18856 H 1746.26 -3.21295 5.1464 0
M  V30 18857 H 1745 -2.90118 3.92024 0
M  V30 18858 H 1744.01 -1.11977 5.38276 0
M  V30 18859 H 1745.23 -1.45616 6.63304 0
M  V30 18860 H 1743.18 -3.44058 5.58534 0
M  V30 18861 H 1743.1 -2.60014 7.09879 0
M  V30 18862 H 1744.36 -3.75833 6.82913 0
M  V30 18863 N 1748.59 -1.576 -0.00164943 0
M  V30 18864 C 1749.82 -1.95176 -0.701511 0
M  V30 18865 C 1750.24 -0.873191 -1.66604 0
M  V30 18866 O 1749.6 0.168818 -1.80512 0
M  V30 18867 C 1749.65 -3.31847 -1.41104 0
M  V30 18868 O 1748.75 -3.26034 -2.52539 0
M  V30 18869 H 1748.09 -0.637207 -0.186718 0
M  V30 18870 H 1750.62 -2.04536 0.0510494 0
M  V30 18871 H 1750.63 -3.67374 -1.77483 0
M  V30 18872 H 1749.31 -4.09901 -0.70382 0
M  V30 18873 H 1747.89 -3.0218 -2.18499 0
M  V30 18874 N 1750.07 0.274379 -1.55193 0
M  V30 18875 C 1751.32 1.00617 -1.75734 0
M  V30 18876 C 1751.65 1.86334 -0.557679 0
M  V30 18877 O 1750.9 1.90221 0.459848 0
M  V30 18878 C 1751.2 1.91958 -3.01475 0
M  V30 18879 C 1750.87 1.22002 -4.34081 0
M  V30 18880 C 1749.53 1.02658 -4.70122 0
M  V30 18881 C 1751.88 0.722087 -5.16174 0
M  V30 18882 C 1749.21 0.322465 -5.85813 0
M  V30 18883 C 1751.56 0.0315683 -6.32592 0
M  V30 18884 C 1750.22 -0.173595 -6.67274 0
M  V30 18885 H 1749.49 0.368182 -0.643058 0
M  V30 18886 H 1752.14 0.278579 -1.89463 0
M  V30 18887 H 1750.45 2.71333 -2.8264 0
M  V30 18888 H 1752.14 2.48698 -3.14564 0
M  V30 18889 H 1748.73 1.3807 -4.05752 0
M  V30 18890 H 1752.92 0.859163 -4.88807 0
M  V30 18891 H 1748.17 0.152775 -6.11209 0
M  V30 18892 H 1752.35 -0.362033 -6.95458 0
M  V30 18893 H 1749.97 -0.721178 -7.56771 0
M  V30 18894 N 1751.55 1.48103 0.538828 0
M  V30 18895 C 1752.51 1.61495 1.62641 0
M  V30 18896 C 1753.51 0.488792 1.53191 0
M  V30 18897 O 1754.7 0.754355 1.57019 0
M  V30 18898 C 1751.83 1.57681 3.02241 0
M  V30 18899 H 1753.03 2.58462 1.5211 0
M  V30 18900 H 1750.58 1.36567 0.760201 0
M  V30 18901 H 1751.31 0.621583 3.18287 0
M  V30 18902 H 1751.1 2.3943 3.10509 0
M  V30 18903 H 1752.59 1.70228 3.81329 0
M  V30 18904 N 1753.03 -0.787016 1.36542 0
M  V30 18905 C 1754.3 -1.53325 1.21452 0
M  V30 18906 C 1754.68 -2.10166 -0.198313 0
M  V30 18907 O 1754.03 -1.94192 -1.20422 0
M  V30 18908 C 1754.24 -2.62629 2.29841 0
M  V30 18909 C 1755.59 -3.30446 2.66628 0
M  V30 18910 O 1756.61 -2.72914 2.28903 0
M  V30 18911 O 1755.47 -4.34424 3.31569 0
M  V30 18912 H 1752.57 -0.678361 0.473028 0
M  V30 18913 H 1755.11 -0.825292 1.4828 0
M  V30 18914 H 1753.88 -2.18639 3.24519 0
M  V30 18915 H 1753.51 -3.41042 2.04393 0
M  V30 18916 N 1754.5 -1.20861 -1.01145 0
M  V30 18917 C 1755.43 -0.986058 -2.11658 0
M  V30 18918 C 1756.42 0.0867558 -1.69879 0
M  V30 18919 O 1757.6 -0.0717892 -1.94067 0
M  V30 18920 C 1754.73 -0.542938 -3.4303 0
M  V30 18921 C 1753.68 -1.55958 -3.98574 0
M  V30 18922 C 1753.01 -0.972917 -5.25774 0
M  V30 18923 C 1754.31 -2.94471 -4.31375 0
M  V30 18924 H 1756 -1.91035 -2.30534 0
M  V30 18925 H 1753.55 -0.919914 -1.10786 0
M  V30 18926 H 1755.5 -0.374446 -4.19733 0
M  V30 18927 H 1754.23 0.416988 -3.23927 0
M  V30 18928 H 1752.89 -1.71552 -3.23984 0
M  V30 18929 H 1752.53 -0.00490446 -5.03 0
M  V30 18930 H 1752.23 -1.65194 -5.63901 0
M  V30 18931 H 1753.76 -0.815607 -6.05128 0
M  V30 18932 H 1755.17 -2.82358 -4.98946 0
M  V30 18933 H 1753.57 -3.59327 -4.80629 0
M  V30 18934 H 1754.64 -3.45804 -3.39923 0
M  V30 18935 N 1755.98 1.20536 -1.01532 0
M  V30 18936 C 1756.91 2.22683 -0.542658 0
M  V30 18937 C 1757.93 1.5844 0.374267 0
M  V30 18938 O 1759.12 1.77661 0.172818 0
M  V30 18939 C 1756.22 3.38117 0.230168 0
M  V30 18940 C 1755.39 4.3195 -0.688356 0
M  V30 18941 C 1754.45 5.26187 0.0366686 0
M  V30 18942 O 1753.47 5.66182 -0.585418 0
M  V30 18943 N 1754.68 5.65481 1.31193 0
M  V30 18944 H 1757.44 2.63864 -1.42111 0
M  V30 18945 H 1755 1.35065 -0.892703 0
M  V30 18946 H 1756.99 3.98164 0.724408 0
M  V30 18947 H 1755.56 2.95837 1.00991 0
M  V30 18948 H 1754.78 3.69889 -1.36292 0
M  V30 18949 H 1756.07 4.91564 -1.3131 0
M  V30 18950 H 1755.47 5.34998 1.83829 0
M  V30 18951 H 1754.03 6.27842 1.75092 0
M  V30 18952 N 1757.46 0.791395 1.36289 0
M  V30 18953 C 1758.41 0.164218 2.27408 0
M  V30 18954 C 1759.39 -0.653018 1.47053 0
M  V30 18955 O 1760.59 -0.512767 1.6941 0
M  V30 18956 C 1757.72 -0.698551 3.36118 0
M  V30 18957 C 1756.8 0.127583 4.23908 0
M  V30 18958 N 1757.19 1.18307 4.91769 0
M  V30 18959 C 1755.49 -0.0932621 4.45902 0
M  V30 18960 C 1756.19 1.68616 5.56726 0
M  V30 18961 N 1755.17 0.995058 5.34415 0
M  V30 18962 H 1758.97 0.972045 2.7736 0
M  V30 18963 H 1756.48 0.63105 1.49638 0
M  V30 18964 H 1758.48 -1.16379 4.00327 0
M  V30 18965 H 1757.14 -1.5049 2.8772 0
M  V30 18966 H 1758.15 1.56553 4.93672 0
M  V30 18967 H 1754.83 -0.869962 4.08336 0
M  V30 18968 H 1756.22 2.56745 6.20912 0
M  V30 18969 N 1758.94 -1.47929 0.54358 0
M  V30 18970 C 1759.89 -2.29827 -0.211706 0
M  V30 18971 C 1760.86 -1.38217 -0.921154 0
M  V30 18972 O 1762.04 -1.67181 -0.919522 0
M  V30 18973 C 1759.18 -3.21889 -1.24425 0
M  V30 18974 C 1758.29 -4.28583 -0.542264 0
M  V30 18975 C 1757.43 -5.0781 -1.55892 0
M  V30 18976 C 1756.47 -6.06293 -0.841146 0
M  V30 18977 N 1755.61 -6.78528 -1.80399 0
M  V30 18978 H 1760.45 -2.93896 0.492835 0
M  V30 18979 H 1757.98 -1.44875 0.254873 0
M  V30 18980 H 1759.94 -3.73674 -1.85535 0
M  V30 18981 H 1758.57 -2.59713 -1.917 0
M  V30 18982 H 1757.62 -3.79959 0.183069 0
M  V30 18983 H 1758.93 -4.98796 0.0206703 0
M  V30 18984 H 1758.09 -5.63678 -2.24393 0
M  V30 18985 H 1756.83 -4.37468 -2.15576 0
M  V30 18986 H 1755.83 -5.49616 -0.14214 0
M  V30 18987 H 1757.06 -6.78639 -0.250232 0
M  V30 18988 H 1755 -6.10927 -2.38965 0
M  V30 18989 H 1754.92 -7.44863 -1.29285 0
M  V30 18990 H 1756.19 -7.38978 -2.48056 0
M  V30 18991 N 1760.42 -0.27936 -1.55104 0
M  V30 18992 C 1761.83 0.217569 -1.85428 0
M  V30 18993 C 1762.18 1.55117 -1.20138 0
M  V30 18994 O 1761.3 2.10751 -0.491229 0
M  V30 18995 C 1761.9 0.401547 -3.36412 0
M  V30 18996 C 1760.46 0.842706 -3.66845 0
M  V30 18997 C 1759.61 -0.0615565 -2.77232 0
M  V30 18998 H 1762.56 -0.501025 -1.50584 0
M  V30 18999 H 1762.58 1.23946 -3.59747 0
M  V30 19000 H 1762.09 -0.569224 -3.83903 0
M  V30 19001 H 1760.19 1.8248 -3.24857 0
M  V30 19002 H 1760.3 0.677088 -4.74291 0
M  V30 19003 H 1758.67 0.455486 -2.50594 0
M  V30 19004 H 1759.45 -1.02829 -3.27538 0
M  V30 19005 N 1761.9 1.57599 -0.0067085 0
M  V30 19006 C 1762.83 2.11878 0.981331 0
M  V30 19007 C 1763.81 1.02949 1.35408 0
M  V30 19008 O 1764.99 1.30667 1.43665 0
M  V30 19009 C 1762.12 2.62757 2.27104 0
M  V30 19010 C 1761.08 3.76272 2.0397 0
M  V30 19011 C 1760.4 4.13491 3.39012 0
M  V30 19012 C 1761.7 5.03274 1.39688 0
M  V30 19013 H 1763.4 2.94683 0.529366 0
M  V30 19014 H 1760.94 1.41757 0.253187 0
M  V30 19015 H 1762.89 2.99359 2.96585 0
M  V30 19016 H 1761.62 1.77082 2.74426 0
M  V30 19017 H 1760.28 3.40074 1.36913 0
M  V30 19018 H 1759.93 3.24831 3.8405 0
M  V30 19019 H 1759.63 4.89972 3.24347 0
M  V30 19020 H 1761.15 4.52657 4.09797 0
M  V30 19021 H 1762.56 5.37604 1.99136 0
M  V30 19022 H 1760.96 5.84604 1.3549 0
M  V30 19023 H 1762.03 4.8351 0.366928 0
M  V30 19024 N 1763.37 -0.266145 1.55336 0
M  V30 19025 C 1764.3 -1.33322 1.91697 0
M  V30 19026 C 1765.28 -1.51182 0.77961 0
M  V30 19027 O 1766.47 -1.64112 1.03832 0
M  V30 19028 C 1763.6 -2.69151 2.19488 0
M  V30 19029 C 1762.55 -2.66012 3.35293 0
M  V30 19030 C 1761.88 -4.05458 3.4858 0
M  V30 19031 C 1763.18 -2.24681 4.71504 0
M  V30 19032 H 1764.87 -1.03138 2.81075 0
M  V30 19033 H 1762.42 -0.494702 1.35236 0
M  V30 19034 H 1764.37 -3.43918 2.43512 0
M  V30 19035 H 1763.1 -3.00932 1.26916 0
M  V30 19036 H 1761.76 -1.93703 3.11247 0
M  V30 19037 H 1761.4 -4.34472 2.53462 0
M  V30 19038 H 1761.1 -4.04251 4.26445 0
M  V30 19039 H 1762.63 -4.81954 3.74904 0
M  V30 19040 H 1764.04 -2.89173 4.95027 0
M  V30 19041 H 1762.44 -2.34622 5.52334 0
M  V30 19042 H 1763.51 -1.19819 4.69863 0
M  V30 19043 N 1764.85 -1.48386 -0.530967 0
M  V30 19044 C 1766.1 -1.56585 -1.28875 0
M  V30 19045 C 1766.43 -0.238583 -1.92729 0
M  V30 19046 O 1765.71 0.75533 -1.79235 0
M  V30 19047 C 1765.99 -2.70338 -2.37886 0
M  V30 19048 C 1765.84 -4.12766 -1.78729 0
M  V30 19049 C 1767.16 -2.79857 -3.39659 0
M  V30 19050 H 1764.28 -0.569986 -0.46721 0
M  V30 19051 H 1766.92 -1.80555 -0.591596 0
M  V30 19052 H 1765.07 -2.50031 -2.9735 0
M  V30 19053 H 1766.74 -4.4451 -1.23324 0
M  V30 19054 H 1764.99 -4.19813 -1.09269 0
M  V30 19055 H 1765.66 -4.88178 -2.57655 0
M  V30 19056 H 1768.13 -2.9825 -2.90149 0
M  V30 19057 H 1767.01 -3.61179 -4.13329 0
M  V30 19058 H 1767.27 -1.87974 -4.00148 0
M  V30 19059 N 1766.33 0.779763 -1.36958 0
M  V30 19060 C 1767.61 1.52679 -1.22264 0
M  V30 19061 C 1767.99 2.10269 0.187164 0
M  V30 19062 O 1767.33 1.94828 1.19391 0
M  V30 19063 C 1767.54 2.61406 -2.31231 0
M  V30 19064 C 1768.89 3.29027 -2.68377 0
M  V30 19065 O 1769.92 2.71696 -2.30347 0
M  V30 19066 O 1768.78 4.3266 -3.33868 0
M  V30 19067 H 1765.87 0.675843 -0.476619 0
M  V30 19068 H 1768.42 0.817416 -1.48716 0
M  V30 19069 H 1767.19 2.16915 -3.25674 0
M  V30 19070 H 1766.81 3.39953 -2.06199 0
M  V30 19071 N 1767.81 1.21396 1.00503 0
M  V30 19072 C 1768.74 0.997268 2.11132 0
M  V30 19073 C 1769.72 -0.0777455 1.69922 0
M  V30 19074 O 1770.9 0.08208 1.94026 0
M  V30 19075 C 1768.03 0.561122 3.42737 0
M  V30 19076 C 1766.99 1.58069 3.97741 0
M  V30 19077 C 1766.31 1.00079 5.25251 0
M  V30 19078 C 1767.61 2.96754 4.29807 0
M  V30 19079 H 1769.31 1.92255 2.29518 0
M  V30 19080 H 1766.85 0.925776 1.10297 0
M  V30 19081 H 1768.81 0.396701 4.19529 0
M  V30 19082 H 1767.53 -0.399804 3.24144 0
M  V30 19083 H 1766.19 1.73268 3.23069 0
M  V30 19084 H 1765.84 0.0315797 5.0299 0
M  V30 19085 H 1765.54 1.68182 5.63017 0
M  V30 19086 H 1767.06 0.847687 6.04687 0
M  V30 19087 H 1768.48 2.85 4.97441 0
M  V30 19088 H 1766.87 3.61871 4.78717 0
M  V30 19089 H 1767.94 3.47602 3.38084 0
M  V30 19090 N 1769.29 -1.19996 1.0217 0
M  V30 19091 C 1770.51 -1.93466 0.733374 0
M  V30 19092 C 1770.93 -1.75074 -0.70672 0
M  V30 19093 O 1770.29 -1.068 -1.47987 0
M  V30 19094 C 1770.34 -3.45425 1.06601 0
M  V30 19095 O 1770.06 -3.6322 2.44954 0
M  V30 19096 C 1771.56 -4.36032 0.799458 0
M  V30 19097 H 1768.78 -0.614762 0.268903 0
M  V30 19098 H 1771.32 -1.52343 1.36426 0
M  V30 19099 H 1769.48 -3.84409 0.480432 0
M  V30 19100 H 1769.89 -4.57155 2.57117 0
M  V30 19101 H 1771.37 -5.41287 1.08223 0
M  V30 19102 H 1771.84 -4.38392 -0.266279 0
M  V30 19103 H 1772.45 -4.02718 1.36743 0
M  V30 19104 N 1770.76 -0.798611 -1.35867 0
M  V30 19105 C 1772.01 -0.375816 -1.99287 0
M  V30 19106 C 1772.34 1.05223 -1.63223 0
M  V30 19107 O 1771.62 1.72862 -0.891576 0
M  V30 19108 C 1771.9 -0.550197 -3.55872 0
M  V30 19109 C 1771.75 -2.0226 -4.0176 0
M  V30 19110 C 1773.07 0.0290862 -4.4009 0
M  V30 19111 H 1770.19 -0.138024 -0.72396 0
M  V30 19112 H 1772.83 -1.00666 -1.61141 0
M  V30 19113 H 1770.98 -0.0131739 -3.88498 0
M  V30 19114 H 1772.66 -2.62139 -3.7958 0
M  V30 19115 H 1770.9 -2.52191 -3.52962 0
M  V30 19116 H 1771.57 -2.09553 -5.10678 0
M  V30 19117 H 1774.05 -0.429444 -4.13878 0
M  V30 19118 H 1772.92 -0.122894 -5.48762 0
M  V30 19119 H 1773.18 1.12206 -4.27624 0
M  V30 19120 N 1772.24 1.47639 -0.551417 0
M  V30 19121 C 1773.15 2.33722 0.202799 0
M  V30 19122 C 1774.17 1.47832 0.917699 0
M  V30 19123 O 1775.34 1.80772 0.887885 0
M  V30 19124 C 1772.41 3.24408 1.22313 0
M  V30 19125 C 1771.47 4.26184 0.51628 0
M  V30 19126 C 1770.7 5.12537 1.488 0
M  V30 19127 O 1770.93 5.01241 2.72238 0
M  V30 19128 O 1769.86 5.93269 1.01566 0
M  V30 19129 H 1773.69 2.99503 -0.50317 0
M  V30 19130 H 1771.27 1.46104 -0.312093 0
M  V30 19131 H 1773.15 3.80441 1.81225 0
M  V30 19132 H 1771.83 2.61262 1.91112 0
M  V30 19133 H 1770.73 3.73927 -0.113886 0
M  V30 19134 H 1772.07 4.92028 -0.130158 0
M  V30 19135 N 1773.72 0.287581 1.54954 0
M  V30 19136 C 1774.63 -0.604236 2.26685 0
M  V30 19137 C 1775.65 -1.1597 1.29719 0
M  V30 19138 O 1776.82 -1.18735 1.62678 0
M  V30 19139 C 1773.89 -1.76612 2.98344 0
M  V30 19140 C 1772.95 -1.24608 4.10818 0
M  V30 19141 C 1772.18 -2.35258 4.7905 0
M  V30 19142 O 1772.4 -3.54879 4.46561 0
M  V30 19143 O 1771.34 -2.02709 5.66739 0
M  V30 19144 H 1775.16 -0.0227663 3.03691 0
M  V30 19145 H 1772.75 0.0545243 1.493 0
M  V30 19146 H 1774.63 -2.44332 3.43336 0
M  V30 19147 H 1773.31 -2.33444 2.24244 0
M  V30 19148 H 1772.21 -0.53498 3.70255 0
M  V30 19149 H 1773.55 -0.723348 4.86856 0
M  V30 19150 N 1775.2 -1.57593 0.0150662 0
M  V30 19151 C 1776.45 -1.90836 -0.665282 0
M  V30 19152 C 1776.77 -0.890693 -1.73469 0
M  V30 19153 O 1776.04 0.0698113 -1.95776 0
M  V30 19154 H 1774.62 -0.704377 -0.24872 0
M  V30 19155 H 1777.28 -1.94809 0.0595521 0
M  V30 19156 H 1776.38 -2.91043 -1.12697 0
M  V30 19157 N 1776.68 0.257904 -1.55475 0
M  V30 19158 C 1777.61 1.34176 -1.85821 0
M  V30 19159 C 1778.62 1.44821 -0.743696 0
M  V30 19160 O 1779.81 1.46367 -1.02171 0
M  V30 19161 C 1776.91 2.72151 -2.01958 0
M  V30 19162 C 1776.08 2.83911 -3.32736 0
M  V30 19163 C 1775.14 4.02659 -3.38751 0
M  V30 19164 O 1774.17 3.92705 -4.12034 0
M  V30 19165 N 1775.37 5.15325 -2.67245 0
M  V30 19166 H 1778.14 1.08483 -2.79377 0
M  V30 19167 H 1775.7 0.448017 -1.55578 0
M  V30 19168 H 1777.69 3.4991 -2.03335 0
M  V30 19169 H 1776.26 2.906 -1.15198 0
M  V30 19170 H 1775.48 1.92915 -3.43769 0
M  V30 19171 H 1776.77 2.88709 -4.18956 0
M  V30 19172 H 1776.16 5.26303 -2.07418 0
M  V30 19173 H 1774.72 5.91259 -2.74328 0
M  V30 19174 N 1778.15 1.48666 0.52309 0
M  V30 19175 C 1779.57 1.34939 0.852268 0
M  V30 19176 C 1779.77 0.365638 1.98155 0
M  V30 19177 O 1778.83 -0.210671 2.5162 0
M  V30 19178 C 1780.14 2.75136 1.21329 0
M  V30 19179 C 1781.69 2.83675 1.32278 0
M  V30 19180 C 1782.16 4.24589 1.71721 0
M  V30 19181 N 1783.65 4.27295 1.78811 0
M  V30 19182 C 1784.39 5.33274 2.10729 0
M  V30 19183 N 1783.88 6.49523 2.41023 0
M  V30 19184 N 1785.68 5.20673 2.11793 0
M  V30 19185 H 1777.83 2.11237 -0.221919 0
M  V30 19186 H 1780.09 0.947291 -0.0366525 0
M  V30 19187 H 1779.8 3.48717 0.457065 0
M  V30 19188 H 1779.67 3.091 2.16187 0
M  V30 19189 H 1782.06 2.10345 2.06976 0
M  V30 19190 H 1782.14 2.53321 0.355248 0
M  V30 19191 H 1781.78 4.98438 0.975805 0
M  V30 19192 H 1781.71 4.52391 2.69536 0
M  V30 19193 H 1784.2 3.43447 1.57648 0
M  V30 19194 H 1784.52 7.26125 2.64503 0
M  V30 19195 H 1782.86 6.52786 2.38528 0
M  V30 19196 H 1786.05 4.28869 1.87588 0
M  V30 19197 H 1786.23 6.03365 2.36336 0
M  V30 19198 N 1779.63 -0.772489 1.37369 0
M  V30 19199 C 1780.56 -1.89969 1.35772 0
M  V30 19200 C 1781.54 -1.68586 0.226452 0
M  V30 19201 O 1782.73 -1.89454 0.426692 0
M  V30 19202 C 1779.86 -3.27242 1.16319 0
M  V30 19203 C 1778.81 -3.63187 2.2645 0
M  V30 19204 C 1778.14 -4.98992 1.92121 0
M  V30 19205 C 1779.44 -3.70013 3.6863 0
M  V30 19206 H 1781.13 -1.91564 2.30095 0
M  V30 19207 H 1778.68 -0.920241 1.10759 0
M  V30 19208 H 1780.63 -4.05734 1.13832 0
M  V30 19209 H 1779.36 -3.26078 0.184513 0
M  V30 19210 H 1778.01 -2.87001 2.28091 0
M  V30 19211 H 1777.66 -4.94368 0.927848 0
M  V30 19212 H 1777.36 -5.24012 2.65867 0
M  V30 19213 H 1778.89 -5.79886 1.91219 0
M  V30 19214 H 1780.3 -4.38659 3.69122 0
M  V30 19215 H 1778.7 -4.06529 4.41423 0
M  V30 19216 H 1779.77 -2.70694 4.02309 0
M  V30 19217 N 1781.11 -1.21927 -0.998575 0
M  V30 19218 C 1782.06 -0.984283 -2.08759 0
M  V30 19219 C 1783.03 0.0920029 -1.65845 0
M  V30 19220 O 1784.21 -0.0564334 -1.90717 0
M  V30 19221 C 1781.35 -0.562006 -3.40493 0
M  V30 19222 C 1780.47 -1.70844 -3.96783 0
M  V30 19223 C 1779.6 -1.2347 -5.16651 0
M  V30 19224 C 1778.64 -2.35305 -5.65065 0
M  V30 19225 N 1777.78 -1.89018 -6.76178 0
M  V30 19226 H 1782.62 -1.91653 -2.28195 0
M  V30 19227 H 1780.15 -0.955028 -1.11882 0
M  V30 19228 H 1782.11 -0.298383 -4.16132 0
M  V30 19229 H 1780.74 0.33324 -3.21075 0
M  V30 19230 H 1779.79 -2.08653 -3.18069 0
M  V30 19231 H 1781.11 -2.54987 -4.28699 0
M  V30 19232 H 1780.26 -0.928121 -5.99559 0
M  V30 19233 H 1779 -0.363397 -4.86344 0
M  V30 19234 H 1778 -2.66758 -4.8075 0
M  V30 19235 H 1779.23 -3.22941 -5.97399 0
M  V30 19236 H 1777.17 -1.04242 -6.47665 0
M  V30 19237 H 1777.09 -2.66731 -7.07383 0
M  V30 19238 H 1778.36 -1.61413 -7.62605 0
M  V30 19239 N 1782.59 1.19452 -1.02805 0
M  V30 19240 C 1783.83 1.89394 -0.725101 0
M  V30 19241 C 1784.17 1.79368 0.744361 0
M  V30 19242 O 1783.44 1.18548 1.54196 0
M  V30 19243 C 1783.73 3.40361 -1.17586 0
M  V30 19244 C 1783.58 3.59263 -2.70648 0
M  V30 19245 C 1784.9 4.33558 -0.756011 0
M  V30 19246 H 1782.02 0.687753 -0.264887 0
M  V30 19247 H 1784.66 1.40611 -1.27783 0
M  V30 19248 H 1782.81 3.82038 -0.70561 0
M  V30 19249 H 1784.48 3.26762 -3.25614 0
M  V30 19250 H 1782.72 3.02344 -3.1108 0
M  V30 19251 H 1783.39 4.65135 -2.97244 0
M  V30 19252 H 1785.87 3.9959 -1.16046 0
M  V30 19253 H 1784.75 5.37779 -1.09931 0
M  V30 19254 H 1785.01 4.40778 0.341677 0
M  V30 19255 N 1784.07 0.805805 1.35442 0
M  V30 19256 C 1785.32 0.382303 1.98044 0
M  V30 19257 C 1785.63 -1.05602 1.64644 0
M  V30 19258 O 1786.83 -1.5826 2.20604 0
M  V30 19259 C 1785.29 0.632619 3.54296 0
M  V30 19260 C 1784.9 2.08344 3.96607 0
M  V30 19261 C 1786.64 0.274435 4.23612 0
M  V30 19262 C 1784.55 2.27954 5.45702 0
M  V30 19263 H 1783.48 0.13921 0.741037 0
M  V30 19264 H 1786.13 0.989752 1.54519 0
M  V30 19265 H 1784.51 -0.0447699 3.95975 0
M  V30 19266 H 1785.69 2.79857 3.66083 0
M  V30 19267 H 1784 2.40142 3.40178 0
M  V30 19268 H 1786.6 0.399019 5.33209 0
M  V30 19269 H 1786.94 -0.779292 4.08941 0
M  V30 19270 H 1787.47 0.90571 3.87352 0
M  V30 19271 H 1784.21 3.3177 5.6534 0
M  V30 19272 H 1783.73 1.60965 5.77798 0
M  V30 19273 H 1785.41 2.09469 6.12153 0
M  V30 19274 N 1785.54 -1.47344 0.559239 0
M  V30 19275 C 1786.79 -2.02468 0.035943 0
M  V30 19276 C 1787.12 -1.43337 -1.31472 0
M  V30 19277 O 1786.37 -0.579355 -1.86928 0
M  V30 19278 C 1786.67 -3.57247 -0.104523 0
M  V30 19279 C 1786.34 -4.35307 1.17551 0
M  V30 19280 C 1785 -4.56354 1.52625 0
M  V30 19281 C 1787.35 -4.8031 2.02365 0
M  V30 19282 C 1784.68 -5.19653 2.72356 0
M  V30 19283 C 1787.03 -5.4493 3.213 0
M  V30 19284 C 1785.7 -5.64209 3.56685 0
M  V30 19285 H 1784.97 -0.740883 0.0131525 0
M  V30 19286 H 1787.61 -1.76992 0.73116 0
M  V30 19287 H 1785.92 -3.81727 -0.88272 0
M  V30 19288 H 1787.62 -3.97551 -0.5248 0
M  V30 19289 H 1784.21 -4.19206 0.892413 0
M  V30 19290 H 1788.39 -4.63827 1.76575 0
M  V30 19291 H 1783.65 -5.32773 2.99938 0
M  V30 19292 H 1787.82 -5.78764 3.87305 0
M  V30 19293 H 1785.45 -6.13028 4.49556 0
M  V30 19294 N 1787.02 -0.295795 -1.54799 0
M  V30 19295 C 1788.27 0.314384 -1.9964 0
M  V30 19296 C 1788.59 1.5481 -1.1857 0
M  V30 19297 O 1787.86 1.93884 -0.280353 0
M  V30 19298 H 1786.44 0.119153 -0.737436 0
M  V30 19299 H 1789.1 -0.40592 -1.90626 0
M  V30 19300 H 1788.2 0.59002 -3.06472 0
M  V30 19301 N 1788.5 1.57583 -0.0234236 0
M  V30 19302 C 1789.73 1.96267 0.670371 0
M  V30 19303 C 1790.15 0.899586 1.65194 0
M  V30 19304 O 1789.51 -0.140079 1.80758 0
M  V30 19305 C 1789.56 3.34049 1.35806 0
M  V30 19306 O 1788.66 3.3001 2.4732 0
M  V30 19307 H 1788 0.640097 0.176557 0
M  V30 19308 H 1790.53 2.04429 -0.0835829 0
M  V30 19309 H 1790.54 3.70151 1.71616 0
M  V30 19310 H 1789.22 4.10969 0.63852 0
M  V30 19311 H 1787.79 3.05618 2.13664 0
M  V30 19312 N 1789.98 -0.249655 1.5561 0
M  V30 19313 C 1790.93 -1.31189 1.86477 0
M  V30 19314 C 1791.91 -1.43619 0.725415 0
M  V30 19315 O 1793.11 -1.46907 0.987281 0
M  V30 19316 C 1790.23 -2.66786 2.16056 0
M  V30 19317 C 1789.32 -2.58371 3.36311 0
M  V30 19318 N 1789.71 -2.19587 4.55648 0
M  V30 19319 C 1788.01 -2.8939 3.39366 0
M  V30 19320 C 1788.71 -2.21737 5.3778 0
M  V30 19321 N 1787.69 -2.61131 4.76772 0
M  V30 19322 H 1791.49 -1.00248 2.76275 0
M  V30 19323 H 1789 -0.458283 1.558 0
M  V30 19324 H 1791 -3.43442 2.36333 0
M  V30 19325 H 1789.66 -2.98597 1.27555 0
M  V30 19326 H 1790.67 -1.91176 4.81323 0
M  V30 19327 H 1787.35 -3.25758 2.61128 0
M  V30 19328 H 1788.74 -1.94114 6.43249 0
M  V30 19329 N 1791.46 -1.48941 -0.515198 0
M  V30 19330 C 1792.69 -1.61396 -1.29457 0
M  V30 19331 C 1793.1 -0.279847 -1.86714 0
M  V30 19332 O 1792.46 0.732861 -1.67139 0
M  V30 19333 C 1792.51 -2.67194 -2.43494 0
M  V30 19334 O 1792.23 -3.95429 -1.88593 0
M  V30 19335 C 1793.73 -2.90224 -3.35089 0
M  V30 19336 H 1790.95 -0.543754 -0.393157 0
M  V30 19337 H 1793.49 -1.94875 -0.619996 0
M  V30 19338 H 1791.65 -2.36532 -3.06808 0
M  V30 19339 H 1792.06 -4.53593 -2.63351 0
M  V30 19340 H 1793.54 -3.68018 -4.1142 0
M  V30 19341 H 1794.01 -1.99601 -3.91224 0
M  V30 19342 H 1794.62 -3.22247 -2.77555 0
M  V30 19343 N 1792.94 0.765193 -1.37777 0
M  V30 19344 C 1794.18 1.52096 -1.33084 0
M  V30 19345 C 1794.5 1.94827 0.08221 0
M  V30 19346 O 1793.77 1.66787 1.02757 0
M  V30 19347 H 1792.35 0.564139 -0.489649 0
M  V30 19348 H 1795.02 0.910308 -1.72335 0
M  V30 19349 H 1794.11 2.4173 -1.97416 0
M  V30 19350 N 1794.41 1.22455 0.992094 0
M  V30 19351 C 1795.66 1.0496 1.73175 0
M  V30 19352 C 1795.99 -0.41518 1.90017 0
M  V30 19353 O 1795.24 -1.32408 1.44107 0
M  V30 19354 C 1795.54 1.70683 3.1401 0
M  V30 19355 C 1795.21 3.20579 3.1708 0
M  V30 19356 C 1793.87 3.6148 3.17626 0
M  V30 19357 C 1796.22 4.16519 3.13308 0
M  V30 19358 C 1793.55 4.968 3.121 0
M  V30 19359 C 1795.9 5.51816 3.09324 0
M  V30 19360 C 1794.57 5.92096 3.08185 0
M  V30 19361 H 1793.84 0.384075 0.633694 0
M  V30 19362 H 1796.48 1.52228 1.16184 0
M  V30 19363 H 1794.79 1.15742 3.74314 0
M  V30 19364 H 1796.49 1.54636 3.69985 0
M  V30 19365 H 1793.08 2.88012 3.17406 0
M  V30 19366 H 1797.26 3.85937 3.12036 0
M  V30 19367 H 1792.52 5.27238 3.09564 0
M  V30 19368 H 1796.69 6.25882 3.0536 0
M  V30 19369 H 1794.32 6.96919 3.03658 0
M  V30 19370 N 1795.89 -1.18905 1.03437 0
M  V30 19371 C 1796.84 -2.20223 0.59042 0
M  V30 19372 C 1797.83 -1.56734 -0.363774 0
M  V30 19373 O 1799.02 -1.76043 -0.183852 0
M  V30 19374 C 1796.15 -3.43261 -0.051695 0
M  V30 19375 C 1795.23 -4.13884 0.925268 0
M  V30 19376 N 1795.62 -4.60607 2.08985 0
M  V30 19377 C 1793.92 -4.3965 0.749899 0
M  V30 19378 C 1794.62 -5.14902 2.70648 0
M  V30 19379 N 1793.6 -5.06034 1.9857 0
M  V30 19380 H 1797.4 -2.54032 1.478 0
M  V30 19381 H 1794.91 -1.3504 0.902101 0
M  V30 19382 H 1796.91 -4.15096 -0.387403 0
M  V30 19383 H 1795.57 -3.1095 -0.934891 0
M  V30 19384 H 1796.58 -4.55257 2.46903 0
M  V30 19385 H 1793.26 -4.17416 -0.08374 0
M  V30 19386 H 1794.65 -5.61303 3.69308 0
M  V30 19387 N 1797.37 -0.812977 -1.35013 0
M  V30 19388 C 1798.62 -0.396932 -1.98878 0
M  V30 19389 C 1798.95 1.03486 -1.6433 0
M  V30 19390 O 1798.22 1.71906 -0.90986 0
M  V30 19391 C 1798.51 -0.587911 -3.55268 0
M  V30 19392 C 1798.36 -2.06509 -3.99592 0
M  V30 19393 C 1799.68 -0.017593 -4.40096 0
M  V30 19394 H 1796.8 -0.145695 -0.722455 0
M  V30 19395 H 1799.44 -1.0237 -1.60064 0
M  V30 19396 H 1797.59 -0.0543785 -3.88462 0
M  V30 19397 H 1799.26 -2.6615 -3.76778 0
M  V30 19398 H 1797.5 -2.55921 -3.50267 0
M  V30 19399 H 1798.18 -2.14958 -5.08426 0
M  V30 19400 H 1800.65 -0.473317 -4.13399 0
M  V30 19401 H 1799.53 -0.18109 -5.48601 0
M  V30 19402 H 1799.79 1.07664 -4.2879 0
M  V30 19403 N 1798.85 1.47045 -0.567045 0
M  V30 19404 C 1800.1 2.01651 -0.044479 0
M  V30 19405 C 1800.41 1.44583 1.31738 0
M  V30 19406 O 1801.62 1.90911 1.93042 0
M  V30 19407 C 1800.07 3.59888 -0.0289854 0
M  V30 19408 C 1799.68 4.25949 -1.38821 0
M  V30 19409 C 1801.42 4.22209 0.440457 0
M  V30 19410 C 1799.33 5.76221 -1.33129 0
M  V30 19411 H 1798.26 0.75389 -0.012858 0
M  V30 19412 H 1800.91 1.68939 -0.716363 0
M  V30 19413 H 1799.29 3.89606 0.708747 0
M  V30 19414 H 1800.47 4.07861 -2.14443 0
M  V30 19415 H 1798.78 3.75658 -1.79639 0
M  V30 19416 H 1801.38 5.32342 0.501592 0
M  V30 19417 H 1801.72 3.9006 1.45461 0
M  V30 19418 H 1802.26 3.97059 -0.242721 0
M  V30 19419 H 1798.99 6.13005 -2.32175 0
M  V30 19420 H 1798.51 5.96618 -0.617023 0
M  V30 19421 H 1800.19 6.38627 -1.03752 0
M  V30 19422 N 1800.33 0.304 1.5464 0
M  V30 19423 C 1801.6 -0.357665 1.92302 0
M  V30 19424 C 1801.98 -1.71453 1.23155 0
M  V30 19425 O 1801.33 -2.25512 0.368342 0
M  V30 19426 C 1801.54 -0.469339 3.4583 0
M  V30 19427 C 1802.89 -0.738803 4.18123 0
M  V30 19428 O 1803.91 -0.553033 3.51881 0
M  V30 19429 O 1802.77 -1.09585 5.354 0
M  V30 19430 H 1799.87 -0.200506 0.802326 0
M  V30 19431 H 1802.41 0.352279 1.66003 0
M  V30 19432 H 1801.18 0.484397 3.8829 0
M  V30 19433 H 1800.81 -1.22763 3.78173 0
M  V30 19434 N 1801.8 -1.57568 0.0317802 0
M  V30 19435 C 1803.05 -1.92194 -0.647238 0
M  V30 19436 C 1803.38 -0.908747 -1.71626 0
M  V30 19437 O 1802.66 0.0681334 -1.94381 0
M  V30 19438 C 1802.94 -3.3729 -1.26124 0
M  V30 19439 C 1802.79 -4.49348 -0.201594 0
M  V30 19440 C 1804.11 -3.824 -2.17849 0
M  V30 19441 H 1801.23 -0.698927 -0.233817 0
M  V30 19442 H 1803.87 -1.89789 0.0895831 0
M  V30 19443 H 1802.02 -3.39471 -1.88922 0
M  V30 19444 H 1803.7 -4.59299 0.429155 0
M  V30 19445 H 1801.94 -4.31218 0.472624 0
M  V30 19446 H 1802.61 -5.47908 -0.670859 0
M  V30 19447 H 1805.09 -3.81972 -1.65034 0
M  V30 19448 H 1803.96 -4.84614 -2.57761 0
M  V30 19449 H 1804.22 -3.18054 -3.07073 0
M  V30 19450 N 1803.28 0.241399 -1.5574 0
M  V30 19451 C 1804.56 0.991821 -1.68589 0
M  V30 19452 C 1804.94 2.03167 -0.573274 0
M  V30 19453 O 1804.29 2.2456 0.422521 0
M  V30 19454 C 1804.5 1.6202 -3.09112 0
M  V30 19455 C 1805.85 2.11998 -3.67889 0
M  V30 19456 O 1806.87 1.71951 -3.11948 0
M  V30 19457 O 1805.73 2.85545 -4.65968 0
M  V30 19458 H 1802.82 0.462017 -0.685907 0
M  V30 19459 H 1805.37 0.23475 -1.68068 0
M  V30 19460 H 1804.14 0.86835 -3.81543 0
M  V30 19461 H 1803.76 2.44333 -3.13667 0
M  V30 19462 N 1804.76 1.49212 0.507292 0
M  V30 19463 C 1805.99 1.62343 1.29072 0
M  V30 19464 C 1806.41 0.292387 1.85814 0
M  V30 19465 O 1805.77 -0.739145 1.65549 0
M  V30 19466 C 1805.82 2.69017 2.40129 0
M  V30 19467 O 1804.92 2.27753 3.43806 0
M  V30 19468 H 1804.26 0.543591 0.38132 0
M  V30 19469 H 1806.79 1.95358 0.607997 0
M  V30 19470 H 1806.8 2.90992 2.85985 0
M  V30 19471 H 1805.48 3.65638 1.98195 0
M  V30 19472 H 1804.05 2.16084 3.03912 0
M  V30 19473 N 1806.24 -0.757876 1.38181 0
M  V30 19474 C 1807.49 -1.51388 1.33888 0
M  V30 19475 C 1807.81 -1.94867 -0.0718767 0
M  V30 19476 O 1807.08 -1.67329 -1.01871 0
M  V30 19477 H 1805.66 -0.561534 0.492634 0
M  V30 19478 H 1808.32 -0.901156 1.72815 0
M  V30 19479 H 1807.42 -2.4068 1.98695 0
M  V30 19480 N 1807.72 -1.22979 -0.985586 0
M  V30 19481 C 1808.66 -1.00374 -2.09828 0
M  V30 19482 C 1809.66 0.0555734 -1.69309 0
M  V30 19483 O 1810.86 -0.0974909 -1.79736 0
M  V30 19484 H 1807.24 -0.307451 -0.686278 0
M  V30 19485 H 1809.21 -1.94776 -2.26064 0
M  V30 19486 C 1807.96 -0.606018 -3.42378 0
M  V30 19487 H 1807.28 -1.41284 -3.74004 0
M  V30 19488 H 1808.72 -0.487318 -4.2119 0
M  V30 19489 C 1807.18 0.685197 -3.29859 0
M  V30 19490 O 1807.71 1.73572 -3.62265 0
M  V30 19491 N 1805.92 0.65914 -2.83026 0
M  V30 19492 H 1805.46 -0.196071 -2.56853 0
M  V30 19493 H 1805.42 1.52332 -2.75031 0
M  V30 19494 N 1809.19 1.18355 -1.04066 0
M  V30 19495 C 1810.42 1.92816 -0.763979 0
M  V30 19496 C 1810.84 1.75658 0.672749 0
M  V30 19497 O 1810.2 1.06671 1.46598 0
M  V30 19498 C 1810.25 3.42267 -1.13516 0
M  V30 19499 O 1809.35 4.11576 -0.260646 0
M  V30 19500 H 1808.7 0.601532 -0.281167 0
M  V30 19501 H 1811.23 1.50087 -1.3905 0
M  V30 19502 H 1811.24 3.92973 -1.09709 0
M  V30 19503 H 1809.91 3.54076 -2.18181 0
M  V30 19504 H 1808.49 3.71174 -0.358342 0
M  V30 19505 N 1810.67 0.820125 1.3458 0
M  V30 19506 C 1811.9 0.419155 2.02303 0
M  V30 19507 C 1812.31 -0.978742 1.61918 0
M  V30 19508 O 1811.65 -1.64433 0.818983 0
M  V30 19509 C 1811.72 0.438576 3.56815 0
M  V30 19510 C 1811.38 1.78932 4.20514 0
M  V30 19511 C 1812.38 2.74974 4.41232 0
M  V30 19512 C 1810.06 2.07704 4.57345 0
M  V30 19513 C 1812.06 3.97961 4.97901 0
M  V30 19514 C 1809.74 3.30952 5.13726 0
M  V30 19515 C 1810.74 4.25898 5.33947 0
M  V30 19516 O 1810.43 5.46969 5.89135 0
M  V30 19517 H 1810.16 0.166787 0.655102 0
M  V30 19518 H 1812.71 1.10892 1.72893 0
M  V30 19519 H 1810.94 -0.307871 3.85472 0
M  V30 19520 H 1812.63 0.0580448 4.05858 0
M  V30 19521 H 1813.4 2.54041 4.13144 0
M  V30 19522 H 1809.28 1.34605 4.40911 0
M  V30 19523 H 1812.82 4.72081 5.136 0
M  V30 19524 H 1808.72 3.5175 5.41242 0
M  V30 19525 H 1809.49 5.48451 6.07572 0
M  V30 19526 N 1812.15 -1.46743 0.574835 0
M  V30 19527 C 1813.43 -1.95598 -0.00908149 0
M  V30 19528 C 1813.81 -1.5175 -1.46748 0
M  V30 19529 O 1813.16 -0.764502 -2.15331 0
M  V30 19530 C 1813.37 -3.48657 0.154756 0
M  V30 19531 C 1814.71 -4.24596 0.0185002 0
M  V30 19532 O 1815.74 -3.56103 0.0831904 0
M  V30 19533 O 1814.6 -5.4636 -0.123733 0
M  V30 19534 H 1811.69 -0.825219 -0.0542477 0
M  V30 19535 H 1814.24 -1.57063 0.6426 0
M  V30 19536 H 1813.01 -3.73433 1.16891 0
M  V30 19537 H 1812.63 -3.94001 -0.533724 0
M  V30 19538 N 1813.63 -0.312197 -1.54477 0
M  V30 19539 C 1814.88 0.294607 -1.99537 0
M  V30 19540 C 1815.19 1.54137 -1.20421 0
M  V30 19541 O 1816.4 2.22346 -1.55803 0
M  V30 19542 C 1814.85 0.57547 -3.55269 0
M  V30 19543 C 1814.46 -0.653591 -4.43207 0
M  V30 19544 C 1816.2 1.14285 -4.08827 0
M  V30 19545 C 1814.11 -0.345261 -5.90391 0
M  V30 19546 H 1813.04 0.113859 -0.745354 0
M  V30 19547 H 1815.69 -0.42265 -1.78566 0
M  V30 19548 H 1814.07 1.35262 -3.72183 0
M  V30 19549 H 1815.25 -1.42945 -4.38068 0
M  V30 19550 H 1813.56 -1.14039 -4.0048 0
M  V30 19551 H 1816.16 1.38797 -5.16371 0
M  V30 19552 H 1816.5 2.08866 -3.60112 0
M  V30 19553 H 1817.04 0.427154 -3.955 0
M  V30 19554 H 1813.78 -1.25994 -6.43277 0
M  V30 19555 H 1813.3 0.393106 -5.9851 0
M  V30 19556 H 1814.97 0.0490847 -6.46981 0
M  V30 19557 N 1815.11 1.57549 -0.040136 0
M  V30 19558 C 1816.34 1.96272 0.645049 0
M  V30 19559 C 1816.74 0.915804 1.65559 0
M  V30 19560 O 1816.09 -0.109666 1.83372 0
M  V30 19561 C 1816.15 3.31187 1.3984 0
M  V30 19562 C 1815.81 4.53739 0.544953 0
M  V30 19563 C 1816.81 5.19573 -0.184369 0
M  V30 19564 C 1814.5 5.0001 0.479119 0
M  V30 19565 C 1816.49 6.30006 -0.968081 0
M  V30 19566 C 1814.18 6.10322 -0.30829 0
M  V30 19567 C 1815.17 6.7518 -1.03059 0
M  V30 19568 O 1814.86 7.83373 -1.80507 0
M  V30 19569 H 1814.59 0.651051 0.181958 0
M  V30 19570 H 1817.15 2.05159 -0.0995179 0
M  V30 19571 H 1815.38 3.18823 2.18835 0
M  V30 19572 H 1817.07 3.54735 1.97276 0
M  V30 19573 H 1817.83 4.84789 -0.142908 0
M  V30 19574 H 1813.71 4.49325 1.0309 0
M  V30 19575 H 1817.26 6.80562 -1.53237 0
M  V30 19576 H 1813.15 6.44543 -0.351428 0
M  V30 19577 H 1813.92 8.00094 -1.72601 0
M  V30 19578 N 1816.58 -0.233136 1.55866 0
M  V30 19579 C 1817.83 -0.957205 1.7754 0
M  V30 19580 C 1818.15 -1.85956 0.606601 0
M  V30 19581 O 1819.35 -2.62142 0.706687 0
M  V30 19582 C 1817.81 -1.75215 3.14369 0
M  V30 19583 C 1817.42 -0.896509 4.38938 0
M  V30 19584 C 1819.16 -2.46813 3.45374 0
M  V30 19585 C 1817.07 -1.68814 5.66794 0
M  V30 19586 H 1816 -0.361139 0.661887 0
M  V30 19587 H 1818.65 -0.211424 1.82278 0
M  V30 19588 H 1817.03 -2.54041 3.03775 0
M  V30 19589 H 1818.2 -0.149614 4.60557 0
M  V30 19590 H 1816.52 -0.293211 4.15366 0
M  V30 19591 H 1819.12 -3.0652 4.38121 0
M  V30 19592 H 1819.46 -3.19121 2.67334 0
M  V30 19593 H 1819.99 -1.74987 3.57245 0
M  V30 19594 H 1816.73 -1.00855 6.47695 0
M  V30 19595 H 1816.25 -2.40995 5.49255 0
M  V30 19596 H 1817.93 -2.25178 6.06551 0
M  V30 19597 N 1818.06 -1.49479 -0.499372 0
M  V30 19598 C 1819.47 -1.52231 -1.08087 0
M  V30 19599 C 1819.83 -0.309442 -1.93744 0
M  V30 19600 O 1818.95 0.580587 -2.08466 0
M  V30 19601 C 1819.55 -2.75857 -1.96694 0
M  V30 19602 C 1818.1 -2.81381 -2.50003 0
M  V30 19603 C 1817.25 -2.46166 -1.27662 0
M  V30 19604 H 1820.2 -1.56153 -0.283211 0
M  V30 19605 H 1820.22 -2.56111 -2.81403 0
M  V30 19606 H 1819.74 -3.64114 -1.34324 0
M  V30 19607 H 1817.84 -1.97408 -3.16008 0
M  V30 19608 H 1817.95 -3.83591 -2.87045 0
M  V30 19609 H 1816.31 -1.97981 -1.60236 0
M  V30 19610 H 1817.1 -3.36699 -0.669974 0
M  V30 19611 N 1819.54 0.750537 -1.38581 0
M  V30 19612 C 1820.77 1.54489 -1.38376 0
M  V30 19613 C 1821.19 1.88085 0.023634 0
M  V30 19614 O 1820.55 1.50794 1.00652 0
M  V30 19615 C 1820.6 2.81875 -2.24897 0
M  V30 19616 O 1819.7 3.77155 -1.66817 0
M  V30 19617 H 1819.04 0.467148 -0.471878 0
M  V30 19618 H 1821.57 0.927264 -1.82381 0
M  V30 19619 H 1821.58 3.30769 -2.38864 0
M  V30 19620 H 1820.26 2.56753 -3.27186 0
M  V30 19621 H 1818.83 3.35868 -1.62009 0
M  V30 19622 N 1821.02 1.235 0.979051 0
M  V30 19623 C 1821.97 0.984512 2.05649 0
M  V30 19624 C 1822.95 -0.0699833 1.60748 0
M  V30 19625 O 1824.15 0.142316 1.76427 0
M  V30 19626 C 1821.27 0.579082 3.38381 0
M  V30 19627 C 1820.36 1.66905 3.89876 0
M  V30 19628 N 1820.75 2.8996 4.14436 0
M  V30 19629 C 1819.05 1.54394 4.18424 0
M  V30 19630 C 1819.75 3.60539 4.56493 0
M  V30 19631 N 1818.73 2.88058 4.61003 0
M  V30 19632 H 1822.53 1.91906 2.22597 0
M  V30 19633 H 1820.04 1.13459 1.16193 0
M  V30 19634 H 1822.04 0.380896 4.15156 0
M  V30 19635 H 1820.7 -0.348408 3.22825 0
M  V30 19636 H 1821.71 3.26252 4.02219 0
M  V30 19637 H 1818.39 0.683659 4.11864 0
M  V30 19638 H 1819.78 4.66038 4.84002 0
M  V30 19639 N 1822.5 -1.17802 1.04693 0
M  V30 19640 C 1823.75 -1.87271 0.749172 0
M  V30 19641 C 1824.06 -1.81614 -0.726342 0
M  V30 19642 O 1825.27 -2.46506 -1.13785 0
M  V30 19643 C 1823.72 -3.35992 1.28986 0
M  V30 19644 C 1823.33 -3.50163 2.79446 0
M  V30 19645 C 1825.07 -4.10821 1.06892 0
M  V30 19646 C 1822.98 -4.92878 3.26841 0
M  V30 19647 H 1821.91 -0.701451 0.276554 0
M  V30 19648 H 1824.56 -1.33065 1.26357 0
M  V30 19649 H 1822.94 -3.89705 0.703298 0
M  V30 19650 H 1824.12 -3.06692 3.43914 0
M  V30 19651 H 1822.43 -2.88747 3.00023 0
M  V30 19652 H 1825.03 -5.16098 1.39809 0
M  V30 19653 H 1825.37 -4.163 0.00644311 0
M  V30 19654 H 1825.91 -3.633 1.62043 0
M  V30 19655 H 1822.64 -4.92572 4.32497 0
M  V30 19656 H 1822.16 -5.3704 2.67112 0
M  V30 19657 H 1823.84 -5.61624 3.21227 0
M  V30 19658 N 1823.98 -0.827251 -1.34143 0
M  V30 19659 C 1824.91 -0.209663 -2.28239 0
M  V30 19660 C 1825.92 0.602945 -1.51223 0
M  V30 19661 O 1827.11 0.431917 -1.73196 0
M  V30 19662 C 1824.21 0.724345 -3.31069 0
M  V30 19663 C 1823.38 -0.0463812 -4.37375 0
M  V30 19664 C 1822.44 0.809208 -5.19941 0
M  V30 19665 O 1821.47 0.252619 -5.68639 0
M  V30 19666 N 1822.67 2.12835 -5.40075 0
M  V30 19667 H 1825.43 -1.0181 -2.81877 0
M  V30 19668 H 1823 -0.684618 -1.46713 0
M  V30 19669 H 1824.99 1.30143 -3.83204 0
M  V30 19670 H 1823.56 1.43352 -2.77793 0
M  V30 19671 H 1822.78 -0.804793 -3.85897 0
M  V30 19672 H 1824.07 -0.576775 -5.0552 0
M  V30 19673 H 1823.46 2.60423 -5.02191 0
M  V30 19674 H 1822.02 2.65419 -5.95312 0
M  V30 19675 N 1825.45 1.46436 -0.582609 0
M  V30 19676 C 1826.7 2.01986 -0.0680147 0
M  V30 19677 C 1827.02 1.45654 1.29653 0
M  V30 19678 O 1826.29 0.641203 1.85109 0
M  V30 19679 H 1824.87 0.746671 -0.022153 0
M  V30 19680 H 1827.53 1.79541 -0.758367 0
M  V30 19681 H 1826.63 3.121 0.00106001 0
M  V30 19682 N 1826.93 0.320385 1.54309 0
M  V30 19683 C 1827.88 -0.562569 2.25694 0
M  V30 19684 C 1828.87 -1.12117 1.26988 0
M  V30 19685 O 1830.08 -1.06958 1.44776 0
M  V30 19686 H 1826.45 -0.200063 0.724899 0
M  V30 19687 H 1828.43 0.0618142 2.98336 0
M  V30 19688 C 1827.17 -1.7134 3.02552 0
M  V30 19689 H 1826.5 -1.29281 3.7832 0
M  V30 19690 H 1827.94 -2.30687 3.55752 0
M  V30 19691 C 1826.4 -2.62912 2.10663 0
M  V30 19692 O 1826.93 -3.64541 1.68739 0
M  V30 19693 N 1825.13 -2.31076 1.76217 0
M  V30 19694 H 1824.68 -1.48474 2.10507 0
M  V30 19695 H 1824.64 -2.92608 1.15014 0
M  V30 19696 N 1828.41 -1.57525 0.0484906 0
M  V30 19697 C 1829.66 -1.91761 -0.625335 0
M  V30 19698 C 1829.97 -0.928421 -1.72162 0
M  V30 19699 O 1831.18 -1.16273 -2.45342 0
M  V30 19700 C 1829.63 -3.40571 -1.1636 0
M  V30 19701 C 1829.24 -4.47889 -0.0995687 0
M  V30 19702 C 1830.99 -3.83845 -1.81282 0
M  V30 19703 C 1828.89 -5.87811 -0.650563 0
M  V30 19704 H 1827.82 -0.71567 -0.237346 0
M  V30 19705 H 1830.47 -1.83127 0.116944 0
M  V30 19706 H 1828.86 -3.44201 -1.95811 0
M  V30 19707 H 1830.03 -4.55846 0.673904 0
M  V30 19708 H 1828.34 -4.13939 0.452038 0
M  V30 19709 H 1830.94 -4.8575 -2.23497 0
M  V30 19710 H 1831.28 -3.19947 -2.66345 0
M  V30 19711 H 1831.82 -3.8272 -1.08491 0
M  V30 19712 H 1828.56 -6.55299 0.162371 0
M  V30 19713 H 1828.08 -5.83422 -1.39208 0
M  V30 19714 H 1829.76 -6.36979 -1.1343 0
M  V30 19715 N 1829.89 0.224867 -1.55988 0
M  V30 19716 C 1831.12 0.966727 -1.82926 0
M  V30 19717 C 1831.53 1.78078 -0.627177 0
M  V30 19718 O 1830.89 1.77966 0.404277 0
M  V30 19719 C 1830.94 1.88696 -3.08344 0
M  V30 19720 O 1830.66 1.10581 -4.23914 0
M  V30 19721 C 1832.16 2.74299 -3.48246 0
M  V30 19722 H 1829.38 0.283479 -0.608178 0
M  V30 19723 H 1831.92 0.241097 -2.03074 0
M  V30 19724 H 1830.08 2.56658 -2.90182 0
M  V30 19725 H 1830.49 1.73019 -4.95141 0
M  V30 19726 H 1831.97 3.34577 -4.39047 0
M  V30 19727 H 1832.44 3.46526 -2.69845 0
M  V30 19728 H 1833.05 2.11755 -3.68836 0
M  V30 19729 N 1831.37 1.49742 0.491438 0
M  V30 19730 C 1832.78 1.52802 1.07278 0
M  V30 19731 C 1833.13 0.319712 1.93578 0
M  V30 19732 O 1832.25 -0.569524 2.08771 0
M  V30 19733 C 1832.85 2.76896 1.95228 0
M  V30 19734 C 1831.41 2.82703 2.48508 0
M  V30 19735 C 1830.55 2.4684 1.26355 0
M  V30 19736 H 1833.5 1.56301 0.274925 0
M  V30 19737 H 1833.53 2.57599 2.80041 0
M  V30 19738 H 1833.04 3.64821 1.32391 0
M  V30 19739 H 1831.14 1.99081 3.14956 0
M  V30 19740 H 1831.25 3.85108 2.85006 0
M  V30 19741 H 1829.62 1.98828 1.59184 0
M  V30 19742 H 1830.4 3.3705 0.652109 0
M  V30 19743 N 1832.84 -0.743177 1.38977 0
M  V30 19744 C 1833.79 -1.84801 1.33539 0
M  V30 19745 C 1834.78 -1.5942 0.217733 0
M  V30 19746 O 1835.97 -1.71063 0.454585 0
M  V30 19747 C 1833.1 -3.22635 1.1731 0
M  V30 19748 C 1832.19 -3.53872 2.33741 0
M  V30 19749 N 1832.58 -3.56099 3.59204 0
M  V30 19750 C 1830.87 -3.84193 2.26521 0
M  V30 19751 C 1831.58 -3.849 4.3615 0
M  V30 19752 N 1830.55 -4.02259 3.65634 0
M  V30 19753 H 1834.35 -1.84816 2.28518 0
M  V30 19754 H 1831.87 -0.941033 1.32357 0
M  V30 19755 H 1833.86 -4.01714 1.11497 0
M  V30 19756 H 1832.52 -3.23865 0.232735 0
M  V30 19757 H 1833.54 -3.37607 3.92736 0
M  V30 19758 H 1830.21 -3.93077 1.40701 0
M  V30 19759 H 1831.6 -3.93158 5.44863 0
M  V30 19760 N 1834.32 -1.24018 -0.972487 0
M  V30 19761 C 1835.29 -1.02941 -2.04782 0
M  V30 19762 C 1836.29 0.0115861 -1.60796 0
M  V30 19763 O 1837.48 -0.228922 -1.72689 0
M  V30 19764 C 1834.61 -0.559246 -3.36282 0
M  V30 19765 H 1835.8 -1.98379 -2.24913 0
M  V30 19766 H 1833.35 -1.06173 -1.14704 0
M  V30 19767 H 1834.09 0.398545 -3.21842 0
M  V30 19768 H 1833.87 -1.31054 -3.6955 0
M  V30 19769 H 1835.36 -0.432669 -4.15353 0
M  V30 19770 N 1835.8 1.17245 -1.05316 0
M  V30 19771 C 1837.05 1.86871 -0.759093 0
M  V30 19772 C 1837.36 1.81997 0.7167 0
M  V30 19773 O 1838.57 2.47106 1.12476 0
M  V30 19774 C 1837.02 3.35303 -1.30766 0
M  V30 19775 C 1836.63 3.48676 -2.81299 0
M  V30 19776 C 1838.38 4.10249 -1.0907 0
M  V30 19777 C 1836.28 4.91138 -3.2945 0
M  V30 19778 H 1835.21 0.699975 -0.28027 0
M  V30 19779 H 1837.86 1.32393 -1.27061 0
M  V30 19780 H 1836.25 3.89326 -0.723955 0
M  V30 19781 H 1837.42 3.04864 -3.45536 0
M  V30 19782 H 1835.74 2.87152 -3.0155 0
M  V30 19783 H 1838.33 5.1535 -1.42545 0
M  V30 19784 H 1838.68 4.1629 -0.0285204 0
M  V30 19785 H 1839.21 3.62436 -1.63967 0
M  V30 19786 H 1835.95 4.90271 -4.35103 0
M  V30 19787 H 1835.47 5.35615 -2.69956 0
M  V30 19788 H 1837.15 5.59913 -3.24201 0
M  V30 19789 N 1837.28 0.834353 1.33702 0
M  V30 19790 C 1838.52 0.428521 1.98221 0
M  V30 19791 C 1838.86 -1.00858 1.65956 0
M  V30 19792 O 1838.13 -1.70437 0.937094 0
M  V30 19793 C 1838.42 0.644357 3.54288 0
M  V30 19794 C 1838.27 2.1284 3.96256 0
M  V30 19795 C 1839.59 0.0876063 4.40013 0
M  V30 19796 H 1836.71 0.15717 0.720046 0
M  V30 19797 H 1839.35 1.04903 1.58415 0
M  V30 19798 H 1837.5 0.116173 3.88326 0
M  V30 19799 H 1839.17 2.72111 3.72496 0
M  V30 19800 H 1837.41 2.61461 3.46151 0
M  V30 19801 H 1838.08 2.23019 5.04942 0
M  V30 19802 H 1840.56 0.539025 4.12594 0
M  V30 19803 H 1839.44 0.268345 5.48244 0
M  V30 19804 H 1839.7 -1.00829 4.30449 0
M  V30 19805 N 1838.76 -1.46125 0.590367 0
M  V30 19806 C 1840.01 -2.01555 0.0765543 0
M  V30 19807 C 1840.32 -1.46661 -1.29422 0
M  V30 19808 O 1841.52 -1.93958 -1.8998 0
M  V30 19809 C 1839.98 -3.59797 0.0862369 0
M  V30 19810 C 1839.59 -4.23687 1.4558 0
M  V30 19811 C 1841.33 -4.22856 -0.373232 0
M  V30 19812 C 1839.24 -5.7403 1.42279 0
M  V30 19813 H 1838.17 -0.75359 0.0248501 0
M  V30 19814 H 1840.82 -1.67778 0.743149 0
M  V30 19815 H 1839.2 -3.90684 -0.646675 0
M  V30 19816 H 1840.38 -4.04398 2.20905 0
M  V30 19817 H 1838.69 -3.72753 1.85592 0
M  V30 19818 H 1841.29 -5.33073 -0.416837 0
M  V30 19819 H 1841.63 -3.92325 -1.39237 0
M  V30 19820 H 1842.16 -3.96622 0.305859 0
M  V30 19821 H 1838.9 -6.09234 2.41898 0
M  V30 19822 H 1838.42 -5.95561 0.711862 0
M  V30 19823 H 1840.1 -6.36896 1.13899 0
M  V30 19824 N 1840.23 -0.328564 -1.54137 0
M  V30 19825 C 1841.16 0.527734 -2.27458 0
M  V30 19826 C 1842.15 1.11518 -1.28444 0
M  V30 19827 O 1843.33 1.13938 -1.57264 0
M  V30 19828 C 1840.46 1.68628 -3.03615 0
M  V30 19829 C 1839.41 1.22789 -4.10008 0
M  V30 19830 C 1838.74 2.47378 -4.74034 0
M  V30 19831 C 1840.04 0.339152 -5.21198 0
M  V30 19832 H 1841.73 -0.0838808 -2.99282 0
M  V30 19833 H 1839.28 -0.0417829 -1.43939 0
M  V30 19834 H 1841.23 2.29165 -3.5364 0
M  V30 19835 H 1839.96 2.32456 -2.29416 0
M  V30 19836 H 1838.62 0.645427 -3.60874 0
M  V30 19837 H 1838.26 3.09581 -3.96445 0
M  V30 19838 H 1837.96 2.17396 -5.45905 0
M  V30 19839 H 1839.49 3.08668 -5.26836 0
M  V30 19840 H 1840.9 0.850947 -5.6695 0
M  V30 19841 H 1839.3 0.131892 -5.99955 0
M  V30 19842 H 1840.37 -0.628692 -4.80807 0
M  V30 19843 N 1841.71 1.57497 -0.0568439 0
M  V30 19844 C 1843.12 1.80477 0.478027 0
M  V30 19845 C 1843.47 0.969549 1.7057 0
M  V30 19846 O 1842.6 0.187756 2.15584 0
M  V30 19847 C 1843.19 3.27332 0.874013 0
M  V30 19848 C 1841.75 3.5121 1.35383 0
M  V30 19849 C 1840.9 2.75308 0.331752 0
M  V30 19850 H 1843.85 1.56162 -0.282678 0
M  V30 19851 H 1843.87 3.38563 1.73653 0
M  V30 19852 H 1843.38 3.88095 -0.019701 0
M  V30 19853 H 1841.49 2.95734 2.26655 0
M  V30 19854 H 1841.6 4.59919 1.34208 0
M  V30 19855 H 1839.96 2.41616 0.805851 0
M  V30 19856 H 1840.75 3.38801 -0.553975 0
M  V30 19857 N 1843.19 -0.216591 1.56105 0
M  V30 19858 C 1844.14 -1.26844 1.92819 0
M  V30 19859 C 1845.11 -1.46326 0.785999 0
M  V30 19860 O 1846.29 -1.59813 1.04232 0
M  V30 19861 C 1843.43 -2.61276 2.25452 0
M  V30 19862 C 1842.55 -2.49552 3.5263 0
M  V30 19863 C 1841.68 -3.76541 3.74686 0
M  V30 19864 C 1840.72 -3.5956 4.95362 0
M  V30 19865 N 1839.86 -4.7851 5.13782 0
M  V30 19866 H 1844.7 -0.948341 2.82508 0
M  V30 19867 H 1842.23 -0.456953 1.39823 0
M  V30 19868 H 1844.19 -3.39567 2.42384 0
M  V30 19869 H 1842.82 -2.91373 1.38931 0
M  V30 19870 H 1841.87 -1.6267 3.43864 0
M  V30 19871 H 1843.19 -2.32927 4.41074 0
M  V30 19872 H 1842.34 -4.63275 3.91741 0
M  V30 19873 H 1841.08 -3.96097 2.84532 0
M  V30 19874 H 1840.08 -2.71211 4.78252 0
M  V30 19875 H 1841.31 -3.41471 5.87005 0
M  V30 19876 H 1839.25 -4.9837 4.26572 0
M  V30 19877 H 1839.17 -4.64631 5.96368 0
M  V30 19878 H 1840.44 -5.66656 5.35277 0
M  V30 19879 N 1844.67 -1.5 -0.48349 0
M  V30 19880 C 1845.9 -1.64105 -1.26004 0
M  V30 19881 C 1846.31 -0.319389 -1.86079 0
M  V30 19882 O 1845.67 0.697243 -1.68656 0
M  V30 19883 C 1845.72 -2.72299 -2.37772 0
M  V30 19884 O 1845.44 -3.99341 -1.80163 0
M  V30 19885 C 1846.94 -2.97266 -3.28858 0
M  V30 19886 H 1844.16 -0.551971 -0.381535 0
M  V30 19887 H 1846.71 -1.96146 -0.57852 0
M  V30 19888 H 1844.86 -2.42987 -3.01722 0
M  V30 19889 H 1845.27 -4.59077 -2.5367 0
M  V30 19890 H 1846.75 -3.76662 -4.03521 0
M  V30 19891 H 1847.23 -2.07855 -3.86902 0
M  V30 19892 H 1847.83 -3.28062 -2.70657 0
M  V30 19893 N 1846.15 0.735796 -1.39369 0
M  V30 19894 C 1847.42 1.48712 -1.27059 0
M  V30 19895 C 1847.8 2.10758 0.120174 0
M  V30 19896 O 1847.15 1.98528 1.13132 0
M  V30 19897 C 1847.36 2.53918 -2.3943 0
M  V30 19898 C 1848.71 3.20322 -2.78709 0
M  V30 19899 O 1849.73 2.6423 -2.38874 0
M  V30 19900 O 1848.59 4.21819 -3.47463 0
M  V30 19901 H 1845.69 0.660337 -0.497879 0
M  V30 19902 H 1848.23 0.76969 -1.51241 0
M  V30 19903 H 1847 2.06444 -3.3241 0
M  V30 19904 H 1846.63 3.33221 -2.16909 0
M  V30 19905 N 1847.63 1.24532 0.965897 0
M  V30 19906 C 1848.87 1.08395 1.70572 0
M  V30 19907 C 1849.19 -0.377657 1.91308 0
M  V30 19908 O 1848.46 -1.26935 1.49212 0
M  V30 19909 H 1847.04 0.398123 0.632066 0
M  V30 19910 H 1849.71 1.5648 1.1619 0
M  V30 19911 H 1848.8 1.58342 2.6895 0
M  V30 19912 N 1849.1 -1.16685 1.05936 0
M  V30 19913 C 1850.04 -2.19862 0.611219 0
M  V30 19914 C 1851.01 -1.58471 -0.364111 0
M  V30 19915 O 1852.2 -1.86499 -0.273946 0
M  V30 19916 C 1849.33 -3.38539 -0.104458 0
M  V30 19917 C 1848.37 -4.18404 0.82706 0
M  V30 19918 S 1849.2 -4.82619 2.32034 0
M  V30 19919 C 1850.36 -6.04677 1.61605 0
M  V30 19920 H 1850.59 -2.57535 1.48536 0
M  V30 19921 H 1848.13 -1.27418 0.872005 0
M  V30 19922 H 1850.08 -4.07305 -0.511162 0
M  V30 19923 H 1848.75 -2.99238 -0.954736 0
M  V30 19924 H 1847.94 -5.03261 0.272804 0
M  V30 19925 H 1847.54 -3.55113 1.17348 0
M  V30 19926 H 1849.83 -6.7123 0.919598 0
M  V30 19927 H 1850.78 -6.64645 2.44238 0
M  V30 19928 H 1851.18 -5.53675 1.1002 0
M  V30 19929 N 1850.58 -0.841432 -1.33258 0
M  V30 19930 C 1851.49 -0.279006 -2.32935 0
M  V30 19931 C 1852.51 0.596298 -1.63463 0
M  V30 19932 O 1853.68 0.499812 -1.951 0
M  V30 19933 C 1850.75 0.534514 -3.42555 0
M  V30 19934 C 1849.81 -0.365366 -4.27742 0
M  V30 19935 C 1849.04 0.409423 -5.32127 0
M  V30 19936 O 1849.27 1.64085 -5.4629 0
M  V30 19937 O 1848.2 -0.217904 -6.01505 0
M  V30 19938 H 1852.03 -1.10448 -2.82904 0
M  V30 19939 H 1849.61 -0.60402 -1.36645 0
M  V30 19940 H 1851.49 0.996723 -4.09443 0
M  V30 19941 H 1850.17 1.33701 -2.94798 0
M  V30 19942 H 1849.07 -0.875469 -3.63712 0
M  V30 19943 H 1850.41 -1.1327 -4.78989 0
M  V30 19944 N 1852.06 1.4581 -0.598108 0
M  V30 19945 C 1852.99 2.27529 0.174933 0
M  V30 19946 C 1853.97 1.36565 0.882546 0
M  V30 19947 O 1855.15 1.65987 0.893332 0
M  V30 19948 C 1852.28 3.14698 1.25232 0
M  V30 19949 C 1851.33 4.21535 0.648877 0
M  V30 19950 S 1852.16 5.3281 -0.53603 0
M  V30 19951 C 1853.32 6.23547 0.542182 0
M  V30 19952 H 1853.55 2.92745 -0.518405 0
M  V30 19953 H 1851.08 1.49513 -0.385382 0
M  V30 19954 H 1853.04 3.65479 1.86909 0
M  V30 19955 H 1851.7 2.48764 1.91768 0
M  V30 19956 H 1850.89 4.82414 1.45922 0
M  V30 19957 H 1850.5 3.73846 0.107447 0
M  V30 19958 H 1852.79 6.6237 1.4238 0
M  V30 19959 H 1853.73 7.08094 -0.0302138 0
M  V30 19960 H 1854.14 5.58014 0.85325 0
M  V30 19961 N 1853.54 0.336733 1.53961 0
M  V30 19962 C 1854.47 -0.515664 2.27735 0
M  V30 19963 C 1855.45 -1.10835 1.29033 0
M  V30 19964 O 1856.63 -1.13102 1.57866 0
M  V30 19965 C 1853.76 -1.67015 3.04505 0
M  V30 19966 C 1852.72 -1.20613 4.10654 0
M  V30 19967 C 1852.04 -2.44861 4.75339 0
M  V30 19968 C 1853.34 -0.311507 5.2137 0
M  V30 19969 H 1855.04 0.0997513 2.99234 0
M  V30 19970 H 1852.58 0.0494157 1.43915 0
M  V30 19971 H 1854.54 -2.27286 3.54851 0
M  V30 19972 H 1853.26 -2.31236 2.30646 0
M  V30 19973 H 1851.92 -0.62628 3.61211 0
M  V30 19974 H 1851.57 -3.07474 3.98081 0
M  V30 19975 H 1851.27 -2.14498 5.47051 0
M  V30 19976 H 1852.79 -3.0587 5.28466 0
M  V30 19977 H 1854.21 -0.820868 5.67393 0
M  V30 19978 H 1852.6 -0.100073 6.00017 0
M  V30 19979 H 1853.67 0.654181 4.80467 0
M  V30 19980 N 1855.02 -1.57465 0.0651956 0
M  V30 19981 C 1856.26 -1.93524 -0.606325 0
M  V30 19982 C 1856.59 -0.944947 -1.6966 0
M  V30 19983 O 1855.87 0.0268871 -1.94481 0
M  V30 19984 C 1856.15 -3.3989 -1.18941 0
M  V30 19985 C 1856.01 -4.49675 -0.106235 0
M  V30 19986 C 1857.32 -3.86935 -2.09689 0
M  V30 19987 H 1854.44 -0.703729 -0.218939 0
M  V30 19988 H 1857.09 -1.89556 0.12982 0
M  V30 19989 H 1855.24 -3.43402 -1.81679 0
M  V30 19990 H 1856.91 -4.58286 0.526483 0
M  V30 19991 H 1855.15 -4.30118 0.563985 0
M  V30 19992 H 1855.82 -5.49208 -0.554488 0
M  V30 19993 H 1858.3 -3.85387 -1.56895 0
M  V30 19994 H 1857.17 -4.89972 -2.47424 0
M  V30 19995 H 1857.43 -3.24496 -3.00258 0
M  V30 19996 N 1856.49 0.20831 -1.56217 0
M  V30 19997 C 1857.73 0.937642 -1.81625 0
M  V30 19998 C 1858.1 1.80994 -0.640716 0
M  V30 19999 O 1859.3 2.57404 -0.774387 0
M  V30 20000 C 1857.57 1.74339 -3.11995 0
M  V30 20001 S 1859.13 2.52655 -3.58763 0
M  V30 20002 H 1855.95 0.314732 -0.637546 0
M  V30 20003 H 1858.55 0.202106 -1.94453 0
M  V30 20004 H 1857.25 1.09294 -3.95579 0
M  V30 20005 H 1856.78 2.52098 -3.0201 0
M  V30 20006 H 1858.8 3.76547 -3.23151 0
M  V30 20007 N 1857.97 1.50255 0.475528 0
M  V30 20008 C 1859.2 1.64532 1.24951 0
M  V30 20009 C 1859.61 0.326223 1.86366 0
M  V30 20010 O 1858.95 -0.701313 1.69786 0
M  V30 20011 C 1859.01 2.67528 2.40143 0
M  V30 20012 C 1858.68 4.11204 1.99399 0
M  V30 20013 C 1859.68 4.97213 1.51906 0
M  V30 20014 C 1857.36 4.57094 2.08256 0
M  V30 20015 C 1859.35 6.27158 1.13805 0
M  V30 20016 C 1857.04 5.87046 1.69766 0
M  V30 20017 C 1858.04 6.71903 1.22618 0
M  V30 20018 O 1857.73 7.9943 0.846604 0
M  V30 20019 H 1857.46 0.556201 0.384209 0
M  V30 20020 H 1860.01 1.972 0.574555 0
M  V30 20021 H 1858.24 2.30094 3.10795 0
M  V30 20022 H 1859.93 2.71072 3.02117 0
M  V30 20023 H 1860.7 4.62977 1.44489 0
M  V30 20024 H 1856.58 3.91194 2.43903 0
M  V30 20025 H 1860.12 6.93345 0.769334 0
M  V30 20026 H 1856.02 6.20804 1.76841 0
M  V30 20027 H 1856.79 8.12662 0.975845 0
M  V30 20028 N 1859.45 -0.728395 1.39758 0
M  V30 20029 C 1860.36 -1.87279 1.41293 0
M  V30 20030 C 1861.38 -1.71271 0.306965 0
M  V30 20031 O 1862.55 -1.93759 0.549502 0
M  V30 20032 C 1859.62 -3.22943 1.2613 0
M  V30 20033 C 1858.68 -3.51297 2.46756 0
M  V30 20034 C 1857.91 -4.80489 2.32307 0
M  V30 20035 O 1858.13 -5.54676 1.33005 0
M  V30 20036 O 1857.07 -5.08891 3.21425 0
M  V30 20037 H 1860.89 -1.88939 2.37773 0
M  V30 20038 H 1858.48 -0.877103 1.20943 0
M  V30 20039 H 1860.36 -4.04003 1.19832 0
M  V30 20040 H 1859.04 -3.22039 0.327492 0
M  V30 20041 H 1857.94 -2.70298 2.58631 0
M  V30 20042 H 1859.28 -3.56986 3.38853 0
M  V30 20043 N 1860.93 -1.25042 -0.959279 0
M  V30 20044 C 1862.2 -1.00297 -1.67928 0
M  V30 20045 C 1862.58 0.47221 -2.05751 0
M  V30 20046 O 1861.93 1.44849 -1.76723 0
M  V30 20047 C 1862.14 -1.93416 -2.90502 0
M  V30 20048 C 1863.49 -2.20992 -3.62557 0
M  V30 20049 O 1864.51 -1.91136 -3.00575 0
M  V30 20050 O 1863.37 -2.71735 -4.74154 0
M  V30 20051 H 1860.47 -0.379984 -0.734535 0
M  V30 20052 H 1863.01 -1.36177 -1.01262 0
M  V30 20053 H 1861.79 -2.93045 -2.59308 0
M  V30 20054 H 1861.41 -1.57904 -3.649 0
M  V30 20055 N 1862.41 1.16121 -1.06553 0
M  V30 20056 C 1863.32 2.24229 -0.689833 0
M  V30 20057 C 1864.33 1.71476 0.295308 0
M  V30 20058 O 1865.51 2.00885 0.143964 0
M  V30 20059 C 1862.57 3.46596 -0.0847857 0
M  V30 20060 C 1861.63 4.14375 -1.12213 0
M  V30 20061 C 1860.87 5.30901 -0.54586 0
M  V30 20062 O 1861.09 5.66792 0.640588 0
M  V30 20063 O 1860.02 5.87983 -1.28683 0
M  V30 20064 H 1863.85 2.5868 -1.59117 0
M  V30 20065 H 1861.44 1.23687 -0.837966 0
M  V30 20066 H 1863.32 4.20653 0.250764 0
M  V30 20067 H 1861.99 3.13912 0.789998 0
M  V30 20068 H 1860.9 3.42276 -1.5099 0
M  V30 20069 H 1862.23 4.5112 -1.96853 0
M  V30 20070 N 1863.88 0.848487 1.3281 0
M  V30 20071 C 1865.13 0.44797 1.97073 0
M  V30 20072 C 1865.45 -0.998358 1.67505 0
M  V30 20073 O 1864.72 -1.69683 0.97901 0
M  V30 20074 H 1863.3 0.162663 0.729075 0
M  V30 20075 H 1865.97 1.08356 1.62003 0
M  V30 20076 H 1865.06 0.587939 3.06512 0
M  V30 20077 N 1865.36 -1.4549 0.605832 0
M  V30 20078 C 1866.61 -2.02551 0.100487 0
M  V30 20079 C 1866.94 -1.47346 -1.26502 0
M  V30 20080 O 1866.22 -0.647471 -1.83407 0
M  V30 20081 C 1866.5 -3.60051 0.0596664 0
M  V30 20082 C 1866.35 -4.25592 1.45572 0
M  V30 20083 C 1867.67 -4.35581 -0.629073 0
M  V30 20084 H 1864.79 -0.73602 0.0379904 0
M  V30 20085 H 1867.43 -1.73365 0.777468 0
M  V30 20086 H 1865.58 -3.85047 -0.516838 0
M  V30 20087 H 1867.25 -4.11787 2.07916 0
M  V30 20088 H 1865.5 -3.84061 2.01692 0
M  V30 20089 H 1866.17 -5.34487 1.37941 0
M  V30 20090 H 1868.64 -4.15868 -0.139076 0
M  V30 20091 H 1867.52 -5.4531 -0.626735 0
M  V30 20092 H 1867.78 -4.08323 -1.69483 0
M  V30 20093 N 1866.84 -0.344893 -1.5378 0
M  V30 20094 C 1868.07 0.252193 -2.05055 0
M  V30 20095 C 1868.48 1.44657 -1.21947 0
M  V30 20096 O 1867.82 1.82018 -0.248012 0
M  V30 20097 C 1867.88 0.729619 -3.52018 0
M  V30 20098 C 1867.55 -0.345284 -4.55694 0
M  V30 20099 C 1868.54 -1.18843 -5.06135 0
M  V30 20100 C 1866.23 -0.499596 -4.99809 0
M  V30 20101 C 1868.22 -2.17141 -5.99273 0
M  V30 20102 C 1865.91 -1.48598 -5.92758 0
M  V30 20103 C 1866.91 -2.32033 -6.42378 0
M  V30 20104 O 1866.6 -3.28992 -7.33498 0
M  V30 20105 H 1866.33 0.0522523 -0.673978 0
M  V30 20106 H 1868.88 -0.495473 -1.99334 0
M  V30 20107 H 1867.11 1.52855 -3.55207 0
M  V30 20108 H 1868.8 1.2474 -3.86257 0
M  V30 20109 H 1869.57 -1.0803 -4.72816 0
M  V30 20110 H 1865.45 0.14 -4.60787 0
M  V30 20111 H 1868.99 -2.82303 -6.37927 0
M  V30 20112 H 1864.89 -1.59466 -6.25493 0
M  V30 20113 H 1865.66 -3.24479 -7.51436 0
M  V30 20114 N 1868.32 1.57428 -0.0735454 0
M  V30 20115 C 1869.56 1.93843 0.596054 0
M  V30 20116 C 1869.9 0.953931 1.69156 0
M  V30 20117 O 1869.17 -0.0165729 1.94493 0
M  V30 20118 C 1869.46 3.40516 1.17137 0
M  V30 20119 C 1869.31 4.49725 0.0823861 0
M  V30 20120 C 1870.63 3.88042 2.07634 0
M  V30 20121 H 1867.75 0.70488 0.215204 0
M  V30 20122 H 1870.39 1.89484 -0.139871 0
M  V30 20123 H 1868.54 3.44361 1.79855 0
M  V30 20124 H 1870.21 4.58 -0.55078 0
M  V30 20125 H 1868.45 4.29813 -0.586788 0
M  V30 20126 H 1869.12 5.49494 0.525354 0
M  V30 20127 H 1871.6 3.86214 1.54849 0
M  V30 20128 H 1870.48 4.91277 2.44822 0
M  V30 20129 H 1870.74 3.26084 2.98532 0
M  V30 20130 N 1869.8 -0.200022 1.56326 0
M  V30 20131 C 1870.74 -1.26742 1.95036 0
M  V30 20132 C 1871.74 -1.47383 0.835143 0
M  V30 20133 O 1872.94 -1.48302 1.02012 0
M  V30 20134 H 1869.32 -0.425393 0.620117 0
M  V30 20135 H 1871.29 -0.913877 2.84061 0
M  V30 20136 C 1870.04 -2.60591 2.30191 0
M  V30 20137 H 1869.36 -2.45522 3.1553 0
M  V30 20138 H 1870.8 -3.34036 2.61144 0
M  V30 20139 C 1869.26 -3.17215 1.13474 0
M  V30 20140 O 1869.79 -3.99631 0.407168 0
M  V30 20141 N 1868 -2.7589 0.912849 0
M  V30 20142 H 1867.54 -2.08974 1.50624 0
M  V30 20143 H 1867.5 -3.14116 0.133691 0
M  V30 20144 N 1871.27 -1.50505 -0.467553 0
M  V30 20145 C 1872.5 -1.65433 -1.24256 0
M  V30 20146 C 1872.92 -0.339107 -1.8573 0
M  V30 20147 O 1872.27 0.679316 -1.69386 0
M  V30 20148 C 1872.33 -2.74805 -2.34871 0
M  V30 20149 O 1872.05 -4.01229 -1.75917 0
M  V30 20150 C 1873.55 -3.00738 -3.25687 0
M  V30 20151 H 1870.77 -0.555987 -0.375659 0
M  V30 20152 H 1873.31 -1.96749 -0.557684 0
M  V30 20153 H 1871.47 -2.46174 -2.99128 0
M  V30 20154 H 1871.88 -4.61742 -2.48787 0
M  V30 20155 H 1873.35 -3.80921 -3.99504 0
M  V30 20156 H 1873.83 -2.11947 -3.84675 0
M  V30 20157 H 1874.44 -3.30914 -2.67163 0
M  V30 20158 N 1872.75 0.720973 -1.40142 0
M  V30 20159 C 1873.98 1.50793 -1.41226 0
M  V30 20160 C 1874.39 1.89198 -0.00879422 0
M  V30 20161 O 1873.73 1.55606 0.976337 0
M  V30 20162 C 1873.8 2.81639 -2.23427 0
M  V30 20163 C 1873.46 2.65588 -3.71903 0
M  V30 20164 C 1874.46 2.33204 -4.64663 0
M  V30 20165 C 1872.14 2.82021 -4.15655 0
M  V30 20166 C 1874.14 2.17454 -5.9916 0
M  V30 20167 C 1871.82 2.65889 -5.50224 0
M  V30 20168 C 1872.82 2.33653 -6.41791 0
M  V30 20169 O 1872.51 2.17637 -7.73879 0
M  V30 20170 H 1872.24 0.472113 -0.483824 0
M  V30 20171 H 1874.79 0.89739 -1.84759 0
M  V30 20172 H 1873.02 3.45006 -1.74665 0
M  V30 20173 H 1874.71 3.43329 -2.16518 0
M  V30 20174 H 1875.48 2.20146 -4.32158 0
M  V30 20175 H 1871.36 3.06101 -3.44707 0
M  V30 20176 H 1874.9 1.92215 -6.70596 0
M  V30 20177 H 1870.8 2.78529 -5.82316 0
M  V30 20178 H 1871.57 2.32599 -7.84755 0
M  V30 20179 N 1874.23 1.25549 0.952634 0
M  V30 20180 C 1875.48 1.10198 1.69413 0
M  V30 20181 C 1875.8 -0.357345 1.91698 0
M  V30 20182 O 1875.07 -1.25345 1.5055 0
M  V30 20183 H 1873.65 0.404804 0.627808 0
M  V30 20184 H 1876.31 1.57703 1.14524 0
M  V30 20185 H 1875.41 1.61185 2.67256 0
M  V30 20186 N 1875.71 -1.15554 1.07168 0
M  V30 20187 C 1877.12 -1.38284 0.796841 0
M  V30 20188 C 1877.32 -1.92366 -0.599782 0
M  V30 20189 O 1876.38 -2.1282 -1.35883 0
M  V30 20190 C 1877.69 -2.35553 1.8691 0
M  V30 20191 C 1879.24 -2.4922 1.89364 0
M  V30 20192 C 1879.72 -3.49778 2.95668 0
M  V30 20193 N 1881.21 -3.57312 2.94759 0
M  V30 20194 C 1881.94 -4.34934 3.73657 0
M  V30 20195 N 1881.44 -5.15905 4.624 0
M  V30 20196 N 1883.23 -4.30004 3.62012 0
M  V30 20197 H 1875.38 -0.787905 1.97246 0
M  V30 20198 H 1877.65 -0.40896 0.855252 0
M  V30 20199 H 1877.35 -2.02927 2.87252 0
M  V30 20200 H 1877.23 -3.3531 1.72763 0
M  V30 20201 H 1879.61 -2.81145 0.896745 0
M  V30 20202 H 1879.69 -1.49468 2.07589 0
M  V30 20203 H 1879.34 -3.18588 3.95556 0
M  V30 20204 H 1879.27 -4.4928 2.74691 0
M  V30 20205 H 1881.76 -2.99518 2.30429 0
M  V30 20206 H 1882.07 -5.72373 5.19238 0
M  V30 20207 H 1880.42 -5.15218 4.6645 0
M  V30 20208 H 1883.61 -3.65811 2.92061 0
M  V30 20209 H 1883.78 -4.90251 4.23743 0
M  V30 20210 N 1877.19 -0.855519 -1.32358 0
M  V30 20211 C 1878.44 -0.455543 -1.96488 0
M  V30 20212 C 1878.75 0.99419 -1.68449 0
M  V30 20213 O 1879.96 1.49964 -2.26325 0
M  V30 20214 C 1878.41 -0.763678 -3.51704 0
M  V30 20215 C 1878.02 -2.2292 -3.88601 0
M  V30 20216 C 1879.76 -0.431467 -4.22302 0
M  V30 20217 C 1877.67 -2.48051 -5.36866 0
M  V30 20218 H 1876.6 -0.166617 -0.73536 0
M  V30 20219 H 1879.25 -1.04642 -1.50739 0
M  V30 20220 H 1877.63 -0.102224 -3.95868 0
M  V30 20221 H 1878.81 -2.93251 -3.55444 0
M  V30 20222 H 1877.12 -2.52602 -3.31031 0
M  V30 20223 H 1879.72 -0.596641 -5.31361 0
M  V30 20224 H 1880.06 0.62698 -4.11552 0
M  V30 20225 H 1880.6 -1.04885 -3.83724 0
M  V30 20226 H 1877.33 -3.52523 -5.52637 0
M  V30 20227 H 1876.85 -1.82298 -5.71426 0
M  V30 20228 H 1878.53 -2.32044 -6.03957 0
M  V30 20229 N 1878.67 1.45167 -0.61354 0
M  V30 20230 C 1879.89 2.06565 -0.117608 0
M  V30 20231 C 1880.31 1.45716 1.20051 0
M  V30 20232 O 1879.67 0.573512 1.73254 0
M  V30 20233 C 1879.72 3.61493 0.0221474 0
M  V30 20234 O 1879.44 4.20072 -1.24383 0
M  V30 20235 C 1880.94 4.39889 0.548841 0
M  V30 20236 H 1878.16 0.667172 -0.0715756 0
M  V30 20237 H 1880.7 1.86318 -0.84296 0
M  V30 20238 H 1878.86 3.81063 0.697854 0
M  V30 20239 H 1879.27 5.13317 -1.07733 0
M  V30 20240 H 1880.75 5.48776 0.595696 0
M  V30 20241 H 1881.22 4.1009 1.57234 0
M  V30 20242 H 1881.83 4.25198 -0.0930203 0
M  V30 20243 N 1880.14 0.353044 1.53595 0
M  V30 20244 C 1881.09 -0.499326 2.25334 0
M  V30 20245 C 1882.06 -1.08781 1.25522 0
M  V30 20246 O 1883.25 -1.12265 1.54276 0
M  V30 20247 C 1880.39 -1.63955 3.03666 0
M  V30 20248 C 1879.5 -1.07745 4.18348 0
M  V30 20249 C 1878.63 -2.18575 4.84147 0
M  V30 20250 C 1877.67 -1.59765 5.90882 0
M  V30 20251 N 1876.81 -2.64376 6.50423 0
M  V30 20252 H 1881.65 0.118959 2.97762 0
M  V30 20253 H 1879.19 0.0704777 1.46931 0
M  V30 20254 H 1881.14 -2.31097 3.47347 0
M  V30 20255 H 1879.77 -2.22868 2.33516 0
M  V30 20256 H 1878.83 -0.296678 3.79241 0
M  V30 20257 H 1880.14 -0.607375 4.95088 0
M  V30 20258 H 1879.29 -2.93563 5.30948 0
M  V30 20259 H 1878.03 -2.68929 4.06852 0
M  V30 20260 H 1877.04 -0.832863 5.43455 0
M  V30 20261 H 1878.26 -1.10251 6.70091 0
M  V30 20262 H 1876.21 -3.13968 5.75986 0
M  V30 20263 H 1876.12 -2.22019 7.22664 0
M  V30 20264 H 1877.39 -3.39105 7.01875 0
M  V30 20265 N 1881.62 -1.57387 0.0818932 0
M  V30 20266 C 1882.9 -1.85297 -0.626447 0
M  V30 20267 C 1883.28 -0.976281 -1.87168 0
M  V30 20268 O 1882.63 -0.0451999 -2.28455 0
M  V30 20269 C 1882.84 -3.35695 -0.954461 0
M  V30 20270 C 1884.18 -4.03442 -1.32361 0
M  V30 20271 O 1885.21 -3.40499 -1.04588 0
M  V30 20272 O 1884.07 -5.1448 -1.84317 0
M  V30 20273 H 1881.16 -0.765835 -0.31213 0
M  V30 20274 H 1883.71 -1.69319 0.11359 0
M  V30 20275 H 1882.48 -3.91237 -0.0704846 0
M  V30 20276 H 1882.1 -3.56971 -1.75092 0
M  V30 20277 N 1883.1 0.191729 -1.56429 0
M  V30 20278 C 1884.35 0.912948 -1.81089 0
M  V30 20279 C 1884.68 1.82767 -0.656483 0
M  V30 20280 O 1883.95 1.91456 0.342779 0
M  V30 20281 C 1884.24 1.72628 -3.16025 0
M  V30 20282 C 1884.09 0.836045 -4.41962 0
M  V30 20283 C 1885.41 2.69818 -3.47687 0
M  V30 20284 H 1882.53 0.33046 -0.658761 0
M  V30 20285 H 1885.17 0.180148 -1.89144 0
M  V30 20286 H 1883.32 2.35102 -3.09289 0
M  V30 20287 H 1884.99 0.225751 -4.60747 0
M  V30 20288 H 1883.23 0.142944 -4.33564 0
M  V30 20289 H 1883.91 1.44019 -5.32881 0
M  V30 20290 H 1886.38 2.17475 -3.54745 0
M  V30 20291 H 1885.26 3.23806 -4.43216 0
M  V30 20292 H 1885.52 3.49028 -2.71352 0
M  V30 20293 N 1884.58 1.50751 0.459565 0
M  V30 20294 C 1885.82 1.62556 1.21258 0
M  V30 20295 C 1886.16 0.330265 1.91371 0
M  V30 20296 O 1885.43 -0.668955 1.82634 0
M  V30 20297 C 1885.71 2.8138 2.24716 0
M  V30 20298 C 1885.57 4.20823 1.58832 0
M  V30 20299 C 1886.89 2.95744 3.2592 0
M  V30 20300 H 1884.01 0.591628 0.439483 0
M  V30 20301 H 1886.65 1.83172 0.504777 0
M  V30 20302 H 1884.8 2.63933 2.85082 0
M  V30 20303 H 1886.47 4.49888 1.01975 0
M  V30 20304 H 1884.71 4.24548 0.891148 0
M  V30 20305 H 1885.38 4.99915 2.3407 0
M  V30 20306 H 1887.86 3.11754 2.75588 0
M  V30 20307 H 1886.74 3.80488 3.95626 0
M  V30 20308 H 1887 2.06852 3.90723 0
M  V30 20309 N 1886.06 -0.713531 1.40522 0
M  V30 20310 C 1886.99 -1.8404 1.43707 0
M  V30 20311 C 1887.97 -1.67474 0.297751 0
M  V30 20312 O 1889.15 -1.87474 0.506662 0
M  V30 20313 C 1886.28 -3.22014 1.30094 0
M  V30 20314 C 1885.24 -3.53255 2.4165 0
M  V30 20315 C 1884.56 -4.90395 2.13113 0
M  V30 20316 C 1885.86 -3.54045 3.83991 0
M  V30 20317 H 1887.56 -1.81632 2.38013 0
M  V30 20318 H 1885.1 -0.872437 1.14562 0
M  V30 20319 H 1887.05 -4.00541 1.30938 0
M  V30 20320 H 1885.78 -3.25002 0.322648 0
M  V30 20321 H 1884.44 -2.77069 2.40059 0
M  V30 20322 H 1884.09 -4.89988 1.13669 0
M  V30 20323 H 1883.79 -5.12264 2.87853 0
M  V30 20324 H 1885.31 -5.71254 2.15642 0
M  V30 20325 H 1886.72 -4.22609 3.87395 0
M  V30 20326 H 1885.12 -3.87441 4.58268 0
M  V30 20327 H 1886.19 -2.53387 4.13428 0
M  V30 20328 N 1887.53 -1.26053 -0.945962 0
M  V30 20329 C 1888.47 -1.02985 -2.0476 0
M  V30 20330 C 1889.48 0.00812739 -1.62798 0
M  V30 20331 O 1890.67 -0.231411 -1.76994 0
M  V30 20332 C 1887.77 -0.536609 -3.34625 0
M  V30 20333 C 1886.94 -1.64273 -4.0538 0
M  V30 20334 C 1886 -1.14836 -5.13516 0
M  V30 20335 O 1885.03 -1.84449 -5.38486 0
M  V30 20336 N 1886.23 0.00576017 -5.805 0
M  V30 20337 H 1888.99 -1.97845 -2.25117 0
M  V30 20338 H 1886.55 -1.17375 -1.11512 0
M  V30 20339 H 1888.55 -0.19017 -4.04253 0
M  V30 20340 H 1887.12 0.318275 -3.10976 0
M  V30 20341 H 1886.34 -2.16034 -3.29732 0
M  V30 20342 H 1887.62 -2.3856 -4.49407 0
M  V30 20343 H 1887.02 0.587225 -5.62644 0
M  V30 20344 H 1885.58 0.293161 -6.5114 0
M  V30 20345 N 1889.01 1.14984 -1.07779 0
M  V30 20346 C 1890.26 1.86375 -0.81462 0
M  V30 20347 C 1890.61 1.81002 0.652385 0
M  V30 20348 O 1889.91 1.2253 1.47299 0
M  V30 20349 C 1890.1 3.34355 -1.26259 0
M  V30 20350 C 1889.93 3.54136 -2.7716 0
M  V30 20351 C 1888.7 3.69356 -3.44825 0
M  V30 20352 C 1890.9 3.51594 -3.75348 0
M  V30 20353 N 1888.88 3.77232 -4.84323 0
M  V30 20354 C 1890.25 3.65637 -5.00709 0
M  V30 20355 C 1892.3 3.34893 -3.68444 0
M  V30 20356 C 1891.01 3.64705 -6.19986 0
M  V30 20357 C 1893.03 3.35262 -4.87189 0
M  V30 20358 C 1892.4 3.49839 -6.11386 0
M  V30 20359 H 1888.49 0.698946 -0.350711 0
M  V30 20360 H 1891.08 1.37857 -1.3749 0
M  V30 20361 H 1889.25 3.81479 -0.729958 0
M  V30 20362 H 1890.98 3.93476 -0.946503 0
M  V30 20363 H 1887.74 3.70315 -2.95235 0
M  V30 20364 H 1888.16 3.84903 -5.56937 0
M  V30 20365 H 1892.8 3.22539 -2.73365 0
M  V30 20366 H 1890.52 3.75836 -7.15383 0
M  V30 20367 H 1894.11 3.23561 -4.83528 0
M  V30 20368 H 1892.99 3.50063 -7.01731 0
M  V30 20369 N 1890.49 0.862526 1.31902 0
M  V30 20370 C 1891.74 0.468847 1.96586 0
M  V30 20371 C 1892.06 -0.980535 1.68554 0
M  V30 20372 O 1891.33 -1.68635 0.996952 0
M  V30 20373 H 1889.91 0.170387 0.727308 0
M  V30 20374 H 1892.57 1.10068 1.60845 0
M  V30 20375 H 1891.67 0.620415 3.05871 0
M  V30 20376 N 1891.97 -1.4484 0.62123 0
M  V30 20377 C 1892.88 -2.34423 -0.0910566 0
M  V30 20378 C 1893.89 -1.52042 -0.846121 0
M  V30 20379 O 1895.07 -1.84802 -0.800625 0
M  V30 20380 C 1892.14 -3.29874 -1.06696 0
M  V30 20381 C 1891.2 -4.28162 -0.312354 0
M  V30 20382 C 1890.43 -5.19053 -1.24177 0
M  V30 20383 O 1890.65 -5.13659 -2.48014 0
M  V30 20384 O 1889.59 -5.97439 -0.731442 0
M  V30 20385 H 1893.41 -2.96761 0.645493 0
M  V30 20386 H 1891 -1.44448 0.381445 0
M  V30 20387 H 1892.88 -3.88654 -1.62867 0
M  V30 20388 H 1891.55 -2.70083 -1.78429 0
M  V30 20389 H 1890.46 -3.72957 0.292161 0
M  V30 20390 H 1891.79 -4.90847 0.364763 0
M  V30 20391 N 1893.45 -0.361184 -1.53405 0
M  V30 20392 C 1894.38 0.530831 -2.2194 0
M  V30 20393 C 1895.36 1.08647 -1.20974 0
M  V30 20394 O 1896.54 1.14343 -1.4986 0
M  V30 20395 C 1893.67 1.73198 -2.91067 0
M  V30 20396 C 1892.71 1.30419 -4.0607 0
M  V30 20397 S 1893.55 0.30917 -5.34607 0
M  V30 20398 C 1894.7 1.51675 -6.07244 0
M  V30 20399 H 1894.94 -0.0512313 -2.97256 0
M  V30 20400 H 1892.47 -0.145281 -1.53715 0
M  V30 20401 H 1894.43 2.42098 -3.3151 0
M  V30 20402 H 1893.09 2.28528 -2.15485 0
M  V30 20403 H 1892.28 2.20024 -4.53437 0
M  V30 20404 H 1891.88 0.694455 -3.67496 0
M  V30 20405 H 1894.18 2.44847 -6.31709 0
M  V30 20406 H 1895.12 1.08454 -6.99745 0
M  V30 20407 H 1895.53 1.7208 -5.37632 0
M  V30 20408 N 1894.92 1.57341 -0.0902386 0
M  V30 20409 C 1896.34 1.8145 0.439638 0
M  V30 20410 C 1896.69 1.00551 1.68475 0
M  V30 20411 O 1895.81 0.233442 2.15137 0
M  V30 20412 C 1896.41 3.29113 0.804384 0
M  V30 20413 C 1894.97 3.54003 1.27903 0
M  V30 20414 C 1894.11 2.7595 0.27328 0
M  V30 20415 H 1897.06 1.55527 -0.315738 0
M  V30 20416 H 1897.08 3.4217 1.66432 0
M  V30 20417 H 1896.6 3.87966 -0.102017 0
M  V30 20418 H 1894.7 3.00475 2.20331 0
M  V30 20419 H 1894.81 4.62662 1.24422 0
M  V30 20420 H 1893.17 2.43271 0.754419 0
M  V30 20421 H 1893.96 3.3755 -0.625715 0
M  V30 20422 N 1896.4 -0.183431 1.56529 0
M  V30 20423 C 1897.63 -0.917888 1.85425 0
M  V30 20424 C 1898.05 -1.76353 0.674171 0
M  V30 20425 O 1897.4 -1.78975 -0.35695 0
M  V30 20426 C 1897.45 -1.80454 3.13239 0
M  V30 20427 O 1897.17 -0.993028 4.26697 0
M  V30 20428 C 1898.68 -2.64969 3.55396 0
M  V30 20429 H 1895.9 -0.267254 0.61548 0
M  V30 20430 H 1898.44 -0.187171 2.03642 0
M  V30 20431 H 1896.59 -2.48874 2.96884 0
M  V30 20432 H 1897.01 -1.59831 4.99554 0
M  V30 20433 H 1898.48 -3.22819 4.47763 0
M  V30 20434 H 1898.96 -3.3925 2.78937 0
M  V30 20435 H 1899.57 -2.01902 3.74321 0
M  V30 20436 N 1897.88 -1.50992 -0.451564 0
M  V30 20437 C 1899.11 -1.67021 -1.22958 0
M  V30 20438 C 1899.53 -0.36115 -1.846 0
M  V30 20439 O 1898.89 0.677193 -1.68178 0
M  V30 20440 C 1898.94 -2.77744 -2.29979 0
M  V30 20441 O 1898.04 -2.40356 -3.35116 0
M  V30 20442 H 1897.38 -0.557369 -0.360882 0
M  V30 20443 H 1899.91 -1.97479 -0.535073 0
M  V30 20444 H 1899.92 -3.01406 -2.74988 0
M  V30 20445 H 1898.6 -3.72742 -1.84488 0
M  V30 20446 H 1897.17 -2.27214 -2.95683 0
M  V30 20447 N 1899.36 0.706069 -1.40899 0
M  V30 20448 C 1900.6 1.46821 -1.39898 0
M  V30 20449 C 1900.94 1.942 -0.00437855 0
M  V30 20450 O 1900.21 1.68815 0.966002 0
M  V30 20451 C 1900.5 2.68756 -2.39671 0
M  V30 20452 C 1900.35 2.27211 -3.88195 0
M  V30 20453 C 1901.67 3.70935 -2.36845 0
M  V30 20454 H 1898.79 0.532549 -0.509471 0
M  V30 20455 H 1901.43 0.805057 -1.72101 0
M  V30 20456 H 1899.58 3.25337 -2.1234 0
M  V30 20457 H 1901.25 1.76038 -4.2639 0
M  V30 20458 H 1899.49 1.59108 -4.03568 0
M  V30 20459 H 1900.16 3.14656 -4.53537 0
M  V30 20460 H 1902.64 3.24004 -2.61076 0
M  V30 20461 H 1901.52 4.53876 -3.08687 0
M  V30 20462 H 1901.78 4.19899 -1.38337 0
M  V30 20463 N 1900.84 1.26553 0.939264 0
M  V30 20464 C 1901.8 1.08335 2.01981 0
M  V30 20465 C 1902.8 0.0310501 1.6077 0
M  V30 20466 O 1903.99 0.274627 1.72022 0
M  V30 20467 C 1901.12 0.648208 3.34681 0
M  V30 20468 H 1902.31 2.04272 2.19574 0
M  V30 20469 H 1899.87 1.09177 1.11849 0
M  V30 20470 H 1900.6 -0.313074 3.22785 0
M  V30 20471 H 1900.39 1.40806 3.65946 0
M  V30 20472 H 1901.88 0.54264 4.14059 0
M  V30 20473 N 1902.31 -1.14411 1.08387 0
M  V30 20474 C 1903.54 -1.89032 0.833685 0
M  V30 20475 C 1903.95 -1.78829 -0.6178 0
M  V30 20476 O 1903.3 -1.1453 -1.43626 0
M  V30 20477 C 1903.36 -3.39708 1.17638 0
M  V30 20478 C 1903.02 -3.73695 2.6306 0
M  V30 20479 C 1904.02 -3.73832 3.61311 0
M  V30 20480 C 1901.7 -4.03681 2.9891 0
M  V30 20481 C 1903.7 -4.03478 4.93442 0
M  V30 20482 C 1901.38 -4.3299 4.31235 0
M  V30 20483 C 1902.38 -4.32871 5.2831 0
M  V30 20484 O 1902.07 -4.61469 6.58256 0
M  V30 20485 H 1901.8 -0.605621 0.300331 0
M  V30 20486 H 1904.36 -1.45824 1.44653 0
M  V30 20487 H 1902.59 -3.83368 0.506538 0
M  V30 20488 H 1904.28 -3.95636 0.907042 0
M  V30 20489 H 1905.04 -3.50753 3.34958 0
M  V30 20490 H 1900.92 -4.02926 2.2399 0
M  V30 20491 H 1904.46 -4.033 5.69205 0
M  V30 20492 H 1900.36 -4.55538 4.57335 0
M  V30 20493 H 1901.13 -4.79187 6.63568 0
M  V30 20494 N 1903.79 -0.869509 -1.31443 0
M  V30 20495 C 1905.04 -0.476357 -1.95994 0
M  V30 20496 C 1905.35 0.976268 -1.69494 0
M  V30 20497 O 1906.56 1.47555 -2.27903 0
M  V30 20498 C 1905.02 -0.800938 -3.50875 0
M  V30 20499 C 1904.62 -2.27029 -3.86215 0
M  V30 20500 C 1906.37 -0.476234 -4.2182 0
M  V30 20501 C 1904.28 -2.53731 -5.34205 0
M  V30 20502 H 1903.21 -0.174407 -0.733552 0
M  V30 20503 H 1905.86 -1.06235 -1.49621 0
M  V30 20504 H 1904.24 -0.144206 -3.95737 0
M  V30 20505 H 1905.41 -2.97005 -3.52313 0
M  V30 20506 H 1903.73 -2.56098 -3.28333 0
M  V30 20507 H 1906.32 -0.652965 -5.30698 0
M  V30 20508 H 1906.67 0.583294 -4.12193 0
M  V30 20509 H 1907.2 -1.08949 -3.8259 0
M  V30 20510 H 1903.94 -3.58365 -5.48867 0
M  V30 20511 H 1903.46 -1.88349 -5.6946 0
M  V30 20512 H 1905.14 -2.38437 -6.01462 0
M  V30 20513 N 1905.27 1.44508 -0.628902 0
M  V30 20514 C 1906.22 2.27784 0.0991943 0
M  V30 20515 C 1907.2 1.38538 0.818285 0
M  V30 20516 O 1908.4 1.62364 0.704759 0
M  V30 20517 C 1905.53 3.25816 1.0816 0
M  V30 20518 C 1904.61 4.2255 0.362249 0
M  V30 20519 N 1905 5.02133 -0.607915 0
M  V30 20520 C 1903.3 4.4185 0.60699 0
M  V30 20521 C 1904 5.7246 -1.03271 0
M  V30 20522 N 1902.98 5.42326 -0.371966 0
M  V30 20523 H 1906.78 2.86721 -0.645621 0
M  V30 20524 H 1904.29 1.55918 -0.45423 0
M  V30 20525 H 1906.29 3.8423 1.6178 0
M  V30 20526 H 1904.95 2.6844 1.82674 0
M  V30 20527 H 1905.96 5.08435 -0.985626 0
M  V30 20528 H 1902.64 3.95575 1.33517 0
M  V30 20529 H 1904.03 6.46383 -1.83409 0
M  V30 20530 N 1906.75 0.369315 1.53212 0
M  V30 20531 C 1907.97 -0.222451 2.06204 0
M  V30 20532 C 1908.4 -1.41373 1.24077 0
M  V30 20533 O 1907.76 -1.79415 0.260767 0
M  V30 20534 C 1907.81 -0.590386 3.55734 0
M  V30 20535 O 1906.91 -1.68711 3.76311 0
M  V30 20536 H 1906.25 -0.0315041 0.663252 0
M  V30 20537 H 1908.78 0.531 1.97589 0
M  V30 20538 H 1908.79 -0.860345 3.98826 0
M  V30 20539 H 1907.47 0.28067 4.14952 0
M  V30 20540 H 1906.04 -1.41242 3.45116 0
M  V30 20541 N 1908.23 -1.57291 0.0985816 0
M  V30 20542 C 1909.18 -2.1545 -0.876584 0
M  V30 20543 C 1910.17 -1.09827 -1.28974 0
M  V30 20544 O 1911.38 -1.28166 -1.26386 0
M  V30 20545 H 1907.75 -0.689252 -0.300725 0
M  V30 20546 H 1909.72 -2.96204 -0.36139 0
M  V30 20547 C 1908.47 -2.75232 -2.12468 0
M  V30 20548 H 1907.79 -3.56194 -1.81565 0
M  V30 20549 H 1909.23 -3.19489 -2.78752 0
M  V30 20550 C 1907.69 -1.71298 -2.90101 0
M  V30 20551 O 1908.22 -1.15402 -3.84767 0
M  V30 20552 N 1906.43 -1.41709 -2.53706 0
M  V30 20553 H 1905.98 -1.87354 -1.76794 0
M  V30 20554 H 1905.93 -0.724072 -3.05949 0
M  V30 20555 N 1909.71 0.175127 -1.56624 0
M  V30 20556 C 1910.64 1.24137 -1.92672 0
M  V30 20557 C 1911.65 1.40675 -0.819417 0
M  V30 20558 O 1912.84 1.40746 -1.09786 0
M  V30 20559 C 1909.94 2.61063 -2.161 0
M  V30 20560 C 1909.11 2.65874 -3.47318 0
M  V30 20561 C 1908.17 3.84136 -3.59619 0
M  V30 20562 O 1907.2 3.70311 -4.32271 0
M  V30 20563 N 1908.4 5.00435 -2.94186 0
M  V30 20564 H 1911.16 0.935217 -2.84735 0
M  V30 20565 H 1908.73 0.364919 -1.57734 0
M  V30 20566 H 1910.72 3.38639 -2.21597 0
M  V30 20567 H 1909.29 2.84085 -1.3044 0
M  V30 20568 H 1908.51 1.74422 -3.53512 0
M  V30 20569 H 1909.8 2.66096 -4.33671 0
M  V30 20570 H 1909.19 5.14568 -2.35024 0
M  V30 20571 H 1907.75 5.75886 -3.05284 0
M  V30 20572 N 1911.18 1.5123 0.44355 0
M  V30 20573 C 1912.43 1.62825 1.19041 0
M  V30 20574 C 1912.75 0.347298 1.92492 0
M  V30 20575 O 1913.95 0.342537 2.69331 0
M  V30 20576 C 1912.41 2.87532 2.16456 0
M  V30 20577 C 1912.02 4.22608 1.48682 0
M  V30 20578 C 1913.76 3.08483 2.91614 0
M  V30 20579 C 1911.67 5.38472 2.44544 0
M  V30 20580 H 1910.6 0.606444 0.448041 0
M  V30 20581 H 1913.25 1.77691 0.458065 0
M  V30 20582 H 1911.63 2.66287 2.931 0
M  V30 20583 H 1912.8 4.54212 0.776389 0
M  V30 20584 H 1911.12 4.07485 0.857007 0
M  V30 20585 H 1913.72 3.92219 3.63413 0
M  V30 20586 H 1914.06 2.2131 3.52601 0
M  V30 20587 H 1914.59 3.30039 2.22078 0
M  V30 20588 H 1911.33 6.27886 1.88255 0
M  V30 20589 H 1910.85 5.11252 3.13658 0
M  V30 20590 H 1912.53 5.70169 3.05804 0
M  V30 20591 N 1912.66 -0.698586 1.41271 0
M  V30 20592 C 1913.59 -1.82278 1.37295 0
M  V30 20593 C 1914.57 -1.60809 0.240668 0
M  V30 20594 O 1915.76 -1.83598 0.42709 0
M  V30 20595 C 1912.88 -3.18907 1.14087 0
M  V30 20596 C 1911.93 -3.59172 2.29994 0
M  V30 20597 S 1912.76 -3.64327 3.92462 0
M  V30 20598 C 1913.92 -5.03687 3.71551 0
M  V30 20599 H 1914.15 -1.85373 2.32431 0
M  V30 20600 H 1911.68 -0.867008 1.27759 0
M  V30 20601 H 1913.64 -3.97783 1.01383 0
M  V30 20602 H 1912.3 -3.13425 0.20577 0
M  V30 20603 H 1911.5 -4.58421 2.09442 0
M  V30 20604 H 1911.1 -2.87597 2.3909 0
M  V30 20605 H 1913.39 -5.911 3.3107 0
M  V30 20606 H 1914.33 -5.2928 4.70391 0
M  V30 20607 H 1914.74 -4.75083 3.04887 0
M  V30 20608 N 1914.14 -1.27049 -0.93254 0
M  V30 20609 C 1915.39 -1.12879 -1.67639 0
M  V30 20610 C 1915.71 0.326803 -1.92242 0
M  V30 20611 O 1914.98 1.22934 -1.52525 0
M  V30 20612 H 1913.56 -0.414741 -0.621288 0
M  V30 20613 H 1916.22 -1.59505 -1.12 0
M  V30 20614 H 1915.32 -1.65417 -2.64658 0
M  V30 20615 N 1915.62 1.13835 -1.08993 0
M  V30 20616 C 1916.86 1.855 -0.834342 0
M  V30 20617 C 1917.22 1.81684 0.63315 0
M  V30 20618 O 1916.51 1.24085 1.45991 0
M  V30 20619 C 1916.71 3.32997 -1.29798 0
M  V30 20620 C 1916.53 3.51176 -2.80901 0
M  V30 20621 C 1915.3 3.65678 -3.48723 0
M  V30 20622 C 1917.5 3.47593 -3.79056 0
M  V30 20623 N 1915.48 3.72074 -4.88297 0
M  V30 20624 C 1916.86 3.60305 -5.04559 0
M  V30 20625 C 1918.91 3.30967 -3.71975 0
M  V30 20626 C 1917.61 3.58108 -6.2382 0
M  V30 20627 C 1919.64 3.30076 -4.90718 0
M  V30 20628 C 1919 3.43334 -6.15062 0
M  V30 20629 H 1915.1 0.695187 -0.358105 0
M  V30 20630 H 1917.68 1.36391 -1.38944 0
M  V30 20631 H 1915.86 3.80683 -0.770378 0
M  V30 20632 H 1917.59 3.9245 -0.988183 0
M  V30 20633 H 1914.34 3.67163 -2.99146 0
M  V30 20634 H 1914.77 3.78974 -5.60988 0
M  V30 20635 H 1919.41 3.19622 -2.7677 0
M  V30 20636 H 1917.13 3.68228 -7.19329 0
M  V30 20637 H 1920.71 3.18415 -4.86933 0
M  V30 20638 H 1919.59 3.426 -7.05404 0
M  V30 20639 N 1917.1 0.876467 1.3098 0
M  V30 20640 C 1918.34 0.489671 1.96078 0
M  V30 20641 C 1918.66 -0.962603 1.69585 0
M  V30 20642 O 1917.93 -1.67568 1.01478 0
M  V30 20643 H 1916.51 0.178091 0.72546 0
M  V30 20644 H 1919.18 1.11768 1.59668 0
M  V30 20645 H 1918.27 0.652822 3.05196 0
M  V30 20646 N 1918.57 -1.44173 0.636557 0
M  V30 20647 C 1919.48 -2.34507 -0.0661877 0
M  V30 20648 C 1920.5 -1.52931 -0.829947 0
M  V30 20649 O 1921.68 -1.85641 -0.780979 0
M  V30 20650 C 1918.74 -3.30987 -1.03191 0
M  V30 20651 C 1917.8 -4.28469 -0.266924 0
M  V30 20652 C 1917.03 -5.20341 -1.18664 0
M  V30 20653 O 1917.26 -5.1626 -2.42552 0
M  V30 20654 O 1916.19 -5.98181 -0.668035 0
M  V30 20655 H 1920.02 -2.9606 0.676932 0
M  V30 20656 H 1917.6 -1.44036 0.396744 0
M  V30 20657 H 1919.48 -3.9036 -1.58736 0
M  V30 20658 H 1918.16 -2.7196 -1.75555 0
M  V30 20659 H 1917.07 -3.72627 0.331702 0
M  V30 20660 H 1918.4 -4.90432 0.416803 0
M  V30 20661 N 1920.05 -0.377435 -1.53014 0
M  V30 20662 C 1921 0.463415 -2.261 0
M  V30 20663 C 1921.97 1.06771 -1.27237 0
M  V30 20664 O 1923.15 1.09797 -1.56043 0
M  V30 20665 C 1920.29 1.59103 -3.06236 0
M  V30 20666 C 1919.41 1.01076 -4.20009 0
M  V30 20667 C 1918.54 2.10845 -4.87563 0
M  V30 20668 C 1917.58 1.50345 -5.93349 0
M  V30 20669 N 1916.72 2.53995 -6.54546 0
M  V30 20670 H 1921.56 -0.166315 -2.97536 0
M  V30 20671 H 1919.09 -0.0938442 -1.468 0
M  V30 20672 H 1921.05 2.25542 -3.5098 0
M  V30 20673 H 1919.68 2.19125 -2.37032 0
M  V30 20674 H 1918.73 0.236306 -3.79665 0
M  V30 20675 H 1920.05 0.528534 -4.95992 0
M  V30 20676 H 1919.2 2.85079 -5.35551 0
M  V30 20677 H 1917.94 2.62423 -4.11079 0
M  V30 20678 H 1916.94 0.746299 -5.44711 0
M  V30 20679 H 1918.17 0.995763 -6.7176 0
M  V30 20680 H 1916.12 3.04765 -5.80908 0
M  V30 20681 H 1916.03 2.10494 -7.26105 0
M  V30 20682 H 1917.3 3.27896 -7.07181 0
M  V30 20683 N 1921.53 1.57237 -0.106922 0
M  V30 20684 C 1922.49 2.13515 0.833317 0
M  V30 20685 C 1923.49 1.06715 1.20285 0
M  V30 20686 O 1924.68 1.32548 1.13034 0
M  V30 20687 C 1921.82 2.66546 2.12523 0
M  V30 20688 H 1923.01 2.97916 0.344435 0
M  V30 20689 H 1920.56 1.55652 0.142199 0
M  V30 20690 H 1921.3 1.85699 2.65869 0
M  V30 20691 H 1921.08 3.44643 1.86985 0
M  V30 20692 H 1922.57 3.10039 2.7976 0
M  V30 20693 N 1923.01 -0.166818 1.56715 0
M  V30 20694 C 1924.26 -0.881043 1.8144 0
M  V30 20695 C 1924.57 -1.83216 0.684925 0
M  V30 20696 O 1925.78 -2.58908 0.817234 0
M  V30 20697 C 1924.23 -1.61724 3.21517 0
M  V30 20698 C 1923.84 -0.709534 4.42346 0
M  V30 20699 C 1925.58 -2.31943 3.55532 0
M  V30 20700 C 1923.49 -1.44622 5.73444 0
M  V30 20701 H 1922.42 -0.332741 0.676609 0
M  V30 20702 H 1925.07 -0.133924 1.83011 0
M  V30 20703 H 1923.45 -2.40928 3.14277 0
M  V30 20704 H 1924.63 0.0458591 4.60777 0
M  V30 20705 H 1922.94 -0.116776 4.16236 0
M  V30 20706 H 1925.54 -2.87662 4.50727 0
M  V30 20707 H 1925.88 -3.07495 2.80629 0
M  V30 20708 H 1926.42 -1.59678 3.64346 0
M  V30 20709 H 1923.16 -0.732937 6.51389 0
M  V30 20710 H 1922.68 -2.17483 5.58982 0
M  V30 20711 H 1924.35 -1.9925 6.15555 0
M  V30 20712 N 1924.49 -1.51463 -0.435524 0
M  V30 20713 C 1925.4 -1.75755 -1.55394 0
M  V30 20714 C 1926.41 -0.641853 -1.61729 0
M  V30 20715 O 1927.59 -0.924311 -1.78937 0
M  V30 20716 C 1924.65 -1.87908 -2.91361 0
M  V30 20717 C 1923.71 -3.11766 -2.95128 0
M  V30 20718 C 1922.95 -3.2333 -4.2461 0
M  V30 20719 O 1923.17 -2.40789 -5.17085 0
M  V30 20720 O 1922.1 -4.16319 -4.34698 0
M  V30 20721 H 1925.93 -2.70633 -1.3781 0
M  V30 20722 H 1923.52 -1.35986 -0.618717 0
M  V30 20723 H 1925.4 -1.97877 -3.72052 0
M  V30 20724 H 1924.07 -0.962179 -3.09069 0
M  V30 20725 H 1922.98 -3.07274 -2.13386 0
M  V30 20726 H 1924.31 -4.03151 -2.82365 0
M  V30 20727 N 1925.96 0.691085 -1.4164 0
M  V30 20728 C 1927.21 1.44682 -1.40535 0
M  V30 20729 C 1927.53 1.9559 -0.0192882 0
M  V30 20730 O 1928.73 2.71259 0.114373 0
M  V30 20731 C 1927.19 2.61645 -2.47123 0
M  V30 20732 C 1926.8 2.17504 -3.91658 0
M  V30 20733 C 1928.54 3.39253 -2.55162 0
M  V30 20734 C 1926.45 3.31453 -4.89789 0
M  V30 20735 H 1925.38 0.543472 -0.522641 0
M  V30 20736 H 1928.03 0.749807 -1.67482 0
M  V30 20737 H 1926.41 3.33636 -2.13314 0
M  V30 20738 H 1927.58 1.52774 -4.34738 0
M  V30 20739 H 1925.9 1.52878 -3.87321 0
M  V30 20740 H 1928.5 4.24088 -3.25659 0
M  V30 20741 H 1928.84 3.84744 -1.58989 0
M  V30 20742 H 1929.37 2.74322 -2.88083 0
M  V30 20743 H 1926.11 2.9097 -5.87381 0
M  V30 20744 H 1925.63 3.95019 -4.51354 0
M  V30 20745 H 1927.31 3.97164 -5.10754 0
M  V30 20746 N 1927.44 1.27542 0.925789 0
M  V30 20747 C 1928.86 1.04988 1.20207 0
M  V30 20748 C 1929.06 -0.215359 2.00346 0
M  V30 20749 O 1928.11 -0.920331 2.3513 0
M  V30 20750 C 1929.43 2.2904 1.94836 0
M  V30 20751 C 1930.98 2.34098 2.07767 0
M  V30 20752 C 1931.45 3.57884 2.85802 0
M  V30 20753 N 1932.94 3.58453 2.93369 0
M  V30 20754 C 1933.68 4.50907 3.54218 0
M  V30 20755 N 1933.17 5.53667 4.16443 0
M  V30 20756 N 1934.97 4.38527 3.5164 0
M  V30 20757 H 1927.12 2.0878 0.390449 0
M  V30 20758 H 1929.38 0.918323 0.235346 0
M  V30 20759 H 1929.09 3.21151 1.4337 0
M  V30 20760 H 1928.96 2.34507 2.95442 0
M  V30 20761 H 1931.35 1.42492 2.58418 0
M  V30 20762 H 1931.43 2.32633 1.06375 0
M  V30 20763 H 1931.07 4.49828 2.35834 0
M  V30 20764 H 1931 3.56601 3.87484 0
M  V30 20765 H 1933.49 2.84138 2.49147 0
M  V30 20766 H 1933.81 6.20377 4.60817 0
M  V30 20767 H 1932.15 5.57507 4.14983 0
M  V30 20768 H 1935.34 3.57455 3.0223 0
M  V30 20769 H 1935.51 5.10769 3.98772 0
M  V30 20770 N 1928.92 -1.13255 1.09595 0
M  V30 20771 C 1930.15 -1.88952 0.855104 0
M  V30 20772 C 1930.57 -1.78668 -0.588174 0
M  V30 20773 O 1929.93 -1.13544 -1.41341 0
M  V30 20774 C 1929.98 -3.36461 1.29717 0
M  V30 20775 O 1929.08 -4.09863 0.456717 0
M  V30 20776 H 1928.42 -0.587432 0.309547 0
M  V30 20777 H 1930.95 -1.43282 1.46053 0
M  V30 20778 H 1930.96 -3.87291 1.28333 0
M  V30 20779 H 1929.64 -3.43263 2.34826 0
M  V30 20780 H 1928.21 -3.69042 0.535026 0
M  V30 20781 N 1930.4 -0.883401 -1.30514 0
M  V30 20782 C 1931.64 -0.501795 -1.96494 0
M  V30 20783 C 1931.98 0.946294 -1.69585 0
M  V30 20784 O 1931.25 1.66842 -0.999705 0
M  V30 20785 C 1931.54 -0.775405 -3.51653 0
M  V30 20786 C 1931.39 -2.27401 -3.88084 0
M  V30 20787 C 1932.71 -0.250854 -4.39384 0
M  V30 20788 H 1929.83 -0.183786 -0.713717 0
M  V30 20789 H 1932.47 -1.1071 -1.54412 0
M  V30 20790 H 1930.62 -0.260217 -3.87628 0
M  V30 20791 H 1932.29 -2.85748 -3.62141 0
M  V30 20792 H 1930.53 -2.74128 -3.36209 0
M  V30 20793 H 1931.2 -2.41606 -4.96317 0
M  V30 20794 H 1933.68 -0.691785 -4.10309 0
M  V30 20795 H 1932.56 -0.471637 -5.4687 0
M  V30 20796 H 1932.82 0.847835 -4.33894 0
M  V30 20797 N 1931.88 1.43833 -0.644194 0
M  V30 20798 C 1932.79 2.34538 0.0537504 0
M  V30 20799 C 1933.8 1.53369 0.821825 0
M  V30 20800 O 1934.98 1.86053 0.771123 0
M  V30 20801 C 1932.04 3.3153 1.01434 0
M  V30 20802 C 1931.1 4.28605 0.244198 0
M  V30 20803 C 1930.34 5.20963 1.15903 0
M  V30 20804 O 1930.56 5.1754 2.3981 0
M  V30 20805 O 1929.49 5.98527 0.636302 0
M  V30 20806 H 1933.32 2.95696 -0.692624 0
M  V30 20807 H 1930.91 1.43823 -0.404377 0
M  V30 20808 H 1932.79 3.91196 1.56663 0
M  V30 20809 H 1931.46 2.72887 1.7411 0
M  V30 20810 H 1930.37 3.72445 -0.351459 0
M  V30 20811 H 1931.7 4.90204 -0.442806 0
M  V30 20812 N 1933.35 0.385544 1.52811 0
M  V30 20813 C 1934.58 -0.198025 2.0595 0
M  V30 20814 C 1935 -1.40822 1.25756 0
M  V30 20815 O 1934.35 -1.79963 0.303251 0
M  V30 20816 C 1934.41 -0.571856 3.56948 0
M  V30 20817 O 1934.13 0.59026 4.34105 0
M  V30 20818 C 1935.63 -1.21169 4.26419 0
M  V30 20819 H 1932.85 -0.0307594 0.670295 0
M  V30 20820 H 1935.39 0.549688 1.96974 0
M  V30 20821 H 1933.55 -1.26947 3.6601 0
M  V30 20822 H 1933.96 0.28384 5.23731 0
M  V30 20823 H 1935.43 -1.42366 5.33325 0
M  V30 20824 H 1935.91 -2.17794 3.81395 0
M  V30 20825 H 1936.52 -0.554949 4.21664 0
M  V30 20826 N 1934.83 -1.57178 0.115259 0
M  V30 20827 C 1936.08 -1.94681 -0.542571 0
M  V30 20828 C 1936.4 -0.999211 -1.67454 0
M  V30 20829 O 1935.67 -0.054836 -1.95823 0
M  V30 20830 H 1934.25 -0.718769 -0.203421 0
M  V30 20831 H 1936.91 -1.94036 0.183323 0
M  V30 20832 H 1936.01 -2.9762 -0.939599 0
M  V30 20833 N 1936.31 0.158505 -1.56801 0
M  V30 20834 C 1937.26 1.20094 -1.93808 0
M  V30 20835 C 1938.25 1.39146 -0.807916 0
M  V30 20836 O 1939.44 1.40901 -1.07125 0
M  V30 20837 C 1936.57 2.53736 -2.31243 0
M  V30 20838 C 1935.65 2.38324 -3.50803 0
M  V30 20839 N 1936.04 1.92648 -4.67676 0
M  V30 20840 C 1934.34 2.69112 -3.55661 0
M  V30 20841 C 1935.04 1.90005 -5.49793 0
M  V30 20842 N 1934.02 2.3289 -4.91186 0
M  V30 20843 H 1937.82 0.839694 -2.81649 0
M  V30 20844 H 1935.33 0.366668 -1.58207 0
M  V30 20845 H 1937.33 3.29079 -2.55955 0
M  V30 20846 H 1935.99 2.90652 -1.44747 0
M  V30 20847 H 1937 1.62788 -4.91651 0
M  V30 20848 H 1933.68 3.0998 -2.79676 0
M  V30 20849 H 1935.07 1.5628 -6.53472 0
M  V30 20850 N 1937.79 1.51692 0.427485 0
M  V30 20851 C 1938.72 1.76668 1.52679 0
M  V30 20852 C 1939.7 0.616865 1.58521 0
M  V30 20853 O 1940.89 0.860595 1.7409 0
M  V30 20854 C 1938.02 1.9007 2.90673 0
M  V30 20855 C 1936.97 3.05566 2.99689 0
M  V30 20856 C 1936.3 3.04165 4.39759 0
M  V30 20857 C 1937.6 4.45359 2.72861 0
M  V30 20858 H 1939.29 2.68717 1.32029 0
M  V30 20859 H 1936.84 1.29306 0.633716 0
M  V30 20860 H 1938.79 2.06125 3.67546 0
M  V30 20861 H 1937.51 0.946769 3.12576 0
M  V30 20862 H 1936.17 2.89231 2.25257 0
M  V30 20863 H 1935.82 2.0653 4.58644 0
M  V30 20864 H 1935.52 3.81727 4.46719 0
M  V30 20865 H 1937.04 3.22326 5.18592 0
M  V30 20866 H 1938.46 4.61993 3.39463 0
M  V30 20867 H 1936.85 5.24701 2.91219 0
M  V30 20868 H 1937.92 4.54717 1.68405 0
M  V30 20869 N 1939.27 -0.683564 1.42004 0
M  V30 20870 C 1940.54 -1.43894 1.32491 0
M  V30 20871 C 1940.92 -2.11058 -0.0418701 0
M  V30 20872 O 1940.27 -2.0259 -1.05686 0
M  V30 20873 C 1940.48 -2.44856 2.48689 0
M  V30 20874 C 1941.83 -3.09758 2.90405 0
M  V30 20875 O 1942.85 -2.55182 2.48516 0
M  V30 20876 O 1941.71 -4.08633 3.6288 0
M  V30 20877 H 1938.81 -0.641404 0.522044 0
M  V30 20878 H 1941.35 -0.713027 1.53994 0
M  V30 20879 H 1940.13 -1.93964 3.39843 0
M  V30 20880 H 1939.75 -3.24941 2.29127 0
M  V30 20881 N 1940.75 -1.28031 -0.919012 0
M  V30 20882 C 1941.99 -1.14651 -1.66432 0
M  V30 20883 C 1942.31 0.306395 -1.92578 0
M  V30 20884 O 1941.58 1.2131 -1.5382 0
M  V30 20885 H 1940.16 -0.421307 -0.616854 0
M  V30 20886 H 1942.83 -1.60684 -1.10302 0
M  V30 20887 H 1941.92 -1.68214 -2.62888 0
M  V30 20888 N 1942.22 1.12672 -1.10194 0
M  V30 20889 C 1943.47 1.84399 -0.844081 0
M  V30 20890 C 1943.8 1.83739 0.628782 0
M  V30 20891 O 1943.08 1.28115 1.46345 0
M  V30 20892 C 1943.36 3.32194 -1.38994 0
M  V30 20893 C 1943.21 3.41323 -2.92948 0
M  V30 20894 C 1944.53 4.27872 -1.03021 0
M  V30 20895 H 1941.65 0.669515 -0.308089 0
M  V30 20896 H 1944.29 1.322 -1.36467 0
M  V30 20897 H 1942.44 3.76778 -0.947144 0
M  V30 20898 H 1944.12 3.05393 -3.45735 0
M  V30 20899 H 1942.36 2.81948 -3.29678 0
M  V30 20900 H 1943.03 4.45289 -3.26223 0
M  V30 20901 H 1945.51 3.91401 -1.41224 0
M  V30 20902 H 1944.38 5.29699 -1.43909 0
M  V30 20903 H 1944.64 4.42058 0.0606669 0
M  V30 20904 N 1943.7 0.89031 1.30043 0
M  V30 20905 C 1944.95 0.51145 1.95935 0
M  V30 20906 C 1945.28 -0.940438 1.70253 0
M  V30 20907 O 1944.53 -1.68041 1.00302 0
M  V30 20908 C 1944.83 0.739209 3.49672 0
M  V30 20909 C 1944.5 2.167 3.95413 0
M  V30 20910 C 1943.16 2.55743 4.07614 0
M  V30 20911 C 1945.51 3.09723 4.19191 0
M  V30 20912 C 1942.84 3.87008 4.40955 0
M  V30 20913 C 1945.19 4.40527 4.54003 0
M  V30 20914 C 1943.85 4.79455 4.64413 0
M  V30 20915 H 1943.12 0.187153 0.716976 0
M  V30 20916 H 1945.77 1.12718 1.54812 0
M  V30 20917 H 1944.08 0.0404857 3.91779 0
M  V30 20918 H 1945.77 0.425594 3.98735 0
M  V30 20919 H 1942.36 1.85396 3.86427 0
M  V30 20920 H 1946.55 2.80778 4.0924 0
M  V30 20921 H 1941.8 4.16903 4.47216 0
M  V30 20922 H 1945.98 5.1264 4.71352 0
M  V30 20923 H 1943.6 5.81206 4.90003 0
M  V30 20924 N 1945.18 -1.43489 0.651812 0
M  V30 20925 C 1946.11 -2.28021 -0.0903669 0
M  V30 20926 C 1947.09 -1.39746 -0.831253 0
M  V30 20927 O 1948.27 -1.69189 -0.831112 0
M  V30 20928 C 1945.4 -3.19129 -1.13466 0
M  V30 20929 C 1944.45 -4.23653 -0.49198 0
M  V30 20930 S 1945.28 -5.30454 0.73341 0
M  V30 20931 C 1946.44 -6.2513 -0.310383 0
M  V30 20932 H 1946.67 -2.9062 0.626698 0
M  V30 20933 H 1944.2 -1.4798 0.440607 0
M  V30 20934 H 1946.16 -3.72165 -1.73216 0
M  V30 20935 H 1944.82 -2.5571 -1.82403 0
M  V30 20936 H 1944.01 -4.87497 -1.27917 0
M  V30 20937 H 1943.62 -3.73987 0.0313774 0
M  V30 20938 H 1945.91 -6.67198 -1.17698 0
M  V30 20939 H 1946.85 -7.07494 0.292997 0
M  V30 20940 H 1947.26 -5.60797 -0.645559 0
M  V30 20941 N 1946.66 -0.393643 -1.52605 0
M  V30 20942 C 1947.61 0.456438 -2.23385 0
M  V30 20943 C 1948.59 1.02612 -1.23934 0
M  V30 20944 O 1949.78 0.951501 -1.4925 0
M  V30 20945 C 1946.91 1.58088 -3.04734 0
M  V30 20946 C 1946 1.02273 -4.11584 0
M  V30 20947 N 1946.39 0.189903 -5.05443 0
M  V30 20948 C 1944.69 1.2948 -4.26792 0
M  V30 20949 C 1945.39 -0.118927 -5.81578 0
M  V30 20950 N 1944.36 0.486165 -5.41422 0
M  V30 20951 H 1948.17 -0.186343 -2.93309 0
M  V30 20952 H 1945.68 -0.203191 -1.61124 0
M  V30 20953 H 1947.68 2.20233 -3.53982 0
M  V30 20954 H 1946.34 2.22644 -2.36346 0
M  V30 20955 H 1947.35 -0.173185 -5.1761 0
M  V30 20956 H 1944.03 1.94108 -3.69633 0
M  V30 20957 H 1945.42 -0.79398 -6.67192 0
M  V30 20958 N 1948.14 1.57115 -0.123593 0
M  V30 20959 C 1949.08 2.15555 0.824912 0
M  V30 20960 C 1950.05 1.08181 1.2604 0
M  V30 20961 O 1951.24 1.36111 1.3371 0
M  V30 20962 C 1948.38 2.76288 2.06783 0
M  V30 20963 C 1947.49 3.97983 1.68029 0
M  V30 20964 C 1946.63 4.46788 2.87322 0
M  V30 20965 C 1945.66 5.61004 2.44829 0
M  V30 20966 N 1944.8 6.04532 3.57052 0
M  V30 20967 H 1949.64 2.9628 0.319726 0
M  V30 20968 H 1947.18 1.46372 0.14612 0
M  V30 20969 H 1949.14 3.09632 2.79613 0
M  V30 20970 H 1947.77 1.98245 2.54752 0
M  V30 20971 H 1946.82 3.70769 0.850542 0
M  V30 20972 H 1948.13 4.80796 1.32804 0
M  V30 20973 H 1947.28 4.82066 3.68372 0
M  V30 20974 H 1946.02 3.62934 3.25776 0
M  V30 20975 H 1945.03 5.25326 1.62213 0
M  V30 20976 H 1946.25 6.46627 2.07487 0
M  V30 20977 H 1944.2 5.23618 3.95171 0
M  V30 20978 H 1944.12 6.82212 3.25766 0
M  V30 20979 H 1945.38 6.44449 4.38527 0
M  V30 20980 N 1949.61 -0.150187 1.56883 0
M  V30 20981 C 1951.03 -0.502717 1.51476 0
M  V30 20982 C 1951.23 -1.83545 0.831478 0
M  V30 20983 O 1950.29 -2.49301 0.400671 0
M  V30 20984 C 1951.6 -0.515965 2.9624 0
M  V30 20985 C 1953.15 -0.601702 3.07162 0
M  V30 20986 C 1953.62 -0.645643 4.53426 0
M  V30 20987 N 1955.11 -0.707954 4.57758 0
M  V30 20988 C 1955.85 -0.762883 5.68302 0
M  V30 20989 N 1955.34 -0.777353 6.88425 0
M  V30 20990 N 1957.14 -0.803521 5.56327 0
M  V30 20991 H 1949.29 0.723442 1.997 0
M  V30 20992 H 1951.55 0.263405 0.910671 0
M  V30 20993 H 1951.26 0.395034 3.49474 0
M  V30 20994 H 1951.13 -1.35501 3.52022 0
M  V30 20995 H 1953.52 -1.50312 2.53949 0
M  V30 20996 H 1953.6 0.26443 2.5443 0
M  V30 20997 H 1953.24 0.251606 5.07276 0
M  V30 20998 H 1953.17 -1.52822 5.03937 0
M  V30 20999 H 1955.66 -0.7042 3.71281 0
M  V30 21000 H 1955.98 -0.821026 7.68426 0
M  V30 21001 H 1954.32 -0.745281 6.90992 0
M  V30 21002 H 1957.51 -0.789365 4.61396 0
M  V30 21003 H 1957.69 -0.842864 6.42495 0
M  V30 21004 N 1951.09 -1.51916 -0.419434 0
M  V30 21005 C 1952.06 -1.73908 -1.49293 0
M  V30 21006 C 1953.06 -0.60898 -1.48822 0
M  V30 21007 O 1954.25 -0.876745 -1.50528 0
M  V30 21008 C 1951.38 -1.812 -2.88755 0
M  V30 21009 H 1952.57 -2.69732 -1.3109 0
M  V30 21010 H 1950.12 -1.42176 -0.649274 0
M  V30 21011 H 1950.86 -0.872544 -3.12341 0
M  V30 21012 H 1950.64 -2.63348 -2.905 0
M  V30 21013 H 1952.13 -1.99992 -3.66596 0
M  V30 21014 N 1952.57 0.676023 -1.42365 0
M  V30 21015 C 1953.5 1.80154 -1.41695 0
M  V30 21016 C 1954.52 1.597 -0.316199 0
M  V30 21017 O 1955.7 1.68841 -0.579207 0
M  V30 21018 C 1952.8 3.17239 -1.19217 0
M  V30 21019 C 1951.98 3.64553 -2.41703 0
M  V30 21020 C 1951.04 4.80367 -2.14788 0
M  V30 21021 O 1950.06 4.90975 -2.87979 0
M  V30 21022 N 1951.26 5.6899 -1.15025 0
M  V30 21023 H 1954.03 1.81214 -2.38708 0
M  V30 21024 H 1951.59 0.859069 -1.37228 0
M  V30 21025 H 1953.58 3.92371 -0.991311 0
M  V30 21026 H 1952.15 3.11086 -0.307313 0
M  V30 21027 H 1951.37 2.80112 -2.77364 0
M  V30 21028 H 1952.66 3.92906 -3.23268 0
M  V30 21029 H 1952.06 5.6307 -0.544872 0
M  V30 21030 H 1950.62 6.43939 -1.00926 0
M  V30 21031 N 1954.05 1.28517 0.912209 0
M  V30 21032 C 1955.46 1.06257 1.19087 0
M  V30 21033 C 1955.66 -0.194098 2.00563 0
M  V30 21034 O 1954.72 -0.895341 2.36093 0
M  V30 21035 C 1956.03 2.31094 1.92396 0
M  V30 21036 C 1957.58 2.36288 2.05273 0
M  V30 21037 C 1958.06 3.60896 2.8199 0
M  V30 21038 N 1959.55 3.61545 2.89551 0
M  V30 21039 C 1960.28 4.54639 3.49416 0
M  V30 21040 N 1959.78 5.58053 4.10547 0
M  V30 21041 N 1961.57 4.42231 3.46969 0
M  V30 21042 H 1953.72 2.09183 0.368283 0
M  V30 21043 H 1955.99 0.920767 0.225593 0
M  V30 21044 H 1955.69 3.22653 1.39956 0
M  V30 21045 H 1955.57 2.37627 2.92939 0
M  V30 21046 H 1957.95 1.45225 2.56893 0
M  V30 21047 H 1958.03 2.33748 1.03901 0
M  V30 21048 H 1957.68 4.52304 2.31049 0
M  V30 21049 H 1957.61 3.6069 3.8368 0
M  V30 21050 H 1960.1 2.86764 2.46119 0
M  V30 21051 H 1960.41 6.25229 4.54212 0
M  V30 21052 H 1958.76 5.61877 4.09047 0
M  V30 21053 H 1961.95 3.60641 2.98422 0
M  V30 21054 H 1962.12 5.1497 3.93332 0
M  V30 21055 N 1955.53 -1.12086 1.1079 0
M  V30 21056 C 1956.46 -2.2001 0.78217 0
M  V30 21057 C 1957.44 -1.68305 -0.246488 0
M  V30 21058 O 1958.62 -1.9388 -0.111448 0
M  V30 21059 C 1955.75 -3.4662 0.2172 0
M  V30 21060 C 1954.71 -4.11499 1.17696 0
M  V30 21061 C 1954.03 -5.32604 0.47302 0
M  V30 21062 C 1955.33 -4.5721 2.52501 0
M  V30 21063 H 1957.03 -2.47514 1.68456 0
M  V30 21064 H 1954.57 -1.18964 0.811397 0
M  V30 21065 H 1956.53 -4.21394 -0.0228381 0
M  V30 21066 H 1955.25 -3.18555 -0.720448 0
M  V30 21067 H 1953.91 -3.38711 1.40252 0
M  V30 21068 H 1953.56 -5.00807 -0.469217 0
M  V30 21069 H 1953.26 -5.76961 1.11308 0
M  V30 21070 H 1954.78 -6.10122 0.241615 0
M  V30 21071 H 1956.19 -5.23338 2.34073 0
M  V30 21072 H 1954.59 -5.12357 3.12426 0
M  V30 21073 H 1955.66 -3.71003 3.12226 0
M  V30 21074 N 1957 -0.897194 -1.29569 0
M  V30 21075 C 1957.95 -0.371435 -2.27792 0
M  V30 21076 C 1958.92 0.545087 -1.56901 0
M  V30 21077 O 1960.11 0.47087 -1.84899 0
M  V30 21078 C 1957.25 0.397236 -3.42806 0
M  V30 21079 C 1956.36 -0.549895 -4.28486 0
M  V30 21080 C 1955.49 0.23558 -5.30677 0
M  V30 21081 C 1954.53 -0.706236 -6.08012 0
M  V30 21082 N 1953.67 0.0446763 -7.02086 0
M  V30 21083 H 1958.51 -1.21414 -2.72145 0
M  V30 21084 H 1956.05 -0.610055 -1.33853 0
M  V30 21085 H 1958.01 0.858933 -4.08262 0
M  V30 21086 H 1956.64 1.20441 -2.99489 0
M  V30 21087 H 1955.69 -1.13011 -3.63226 0
M  V30 21088 H 1957 -1.27092 -4.82337 0
M  V30 21089 H 1956.15 0.758588 -6.01939 0
M  V30 21090 H 1954.89 0.989757 -4.77551 0
M  V30 21091 H 1953.9 -1.24077 -5.35617 0
M  V30 21092 H 1955.12 -1.4597 -6.63227 0
M  V30 21093 H 1953.07 0.781165 -6.51332 0
M  V30 21094 H 1952.99 -0.616488 -7.53482 0
M  V30 21095 H 1954.25 0.548029 -7.77571 0
M  V30 21096 N 1958.48 1.43142 -0.659413 0
M  V30 21097 C 1959.73 2.0174 -0.175334 0
M  V30 21098 C 1960.06 1.52053 1.21285 0
M  V30 21099 O 1959.31 0.70675 1.82493 0
M  V30 21100 C 1959.61 3.57118 -0.141826 0
M  V30 21101 C 1959.28 4.26175 -1.47259 0
M  V30 21102 C 1957.94 4.44756 -1.837 0
M  V30 21103 C 1960.29 4.65229 -2.34972 0
M  V30 21104 C 1957.62 4.99656 -3.07507 0
M  V30 21105 C 1959.97 5.21502 -3.58076 0
M  V30 21106 C 1958.64 5.38297 -3.94705 0
M  V30 21107 H 1957.91 0.738217 -0.0641591 0
M  V30 21108 H 1960.55 1.71535 -0.85135 0
M  V30 21109 H 1958.86 3.86901 0.617659 0
M  V30 21110 H 1960.55 4.00222 0.249689 0
M  V30 21111 H 1957.14 4.12063 -1.17908 0
M  V30 21112 H 1961.33 4.50561 -2.08107 0
M  V30 21113 H 1956.58 5.10845 -3.35927 0
M  V30 21114 H 1960.76 5.50708 -4.26255 0
M  V30 21115 H 1958.39 5.80603 -4.90718 0
M  V30 21116 N 1959.96 0.40173 1.52394 0
M  V30 21117 C 1960.89 -0.41861 2.29717 0
M  V30 21118 C 1961.87 -1.05263 1.33618 0
M  V30 21119 O 1963.06 -1.06304 1.62521 0
M  V30 21120 C 1960.19 -1.5395 3.11314 0
M  V30 21121 C 1959.14 -1.03088 4.154 0
M  V30 21122 C 1958.47 -2.2448 4.85297 0
M  V30 21123 C 1959.77 -0.0900956 5.22222 0
M  V30 21124 H 1961.46 0.226577 2.98541 0
M  V30 21125 H 1959.01 0.110411 1.43576 0
M  V30 21126 H 1960.96 -2.12031 3.64171 0
M  V30 21127 H 1959.68 -2.21246 2.40246 0
M  V30 21128 H 1958.34 -0.472515 3.63542 0
M  V30 21129 H 1957.99 -2.90313 4.10764 0
M  V30 21130 H 1957.69 -1.91103 5.55656 0
M  V30 21131 H 1959.21 -2.83181 5.40963 0
M  V30 21132 H 1960.63 -0.579479 5.70364 0
M  V30 21133 H 1959.03 0.154505 5.99901 0
M  V30 21134 H 1960.1 0.857375 4.7726 0
M  V30 21135 N 1961.44 -1.57047 0.131923 0
M  V30 21136 C 1962.68 -1.9752 -0.525856 0
M  V30 21137 C 1963.04 -1.01434 -1.63019 0
M  V30 21138 O 1964.24 -1.30894 -2.34777 0
M  V30 21139 C 1962.51 -3.42148 -1.03293 0
M  V30 21140 S 1964.07 -4.04639 -1.69742 0
M  V30 21141 H 1960.89 -0.690249 -0.170522 0
M  V30 21142 H 1963.49 -1.94257 0.220068 0
M  V30 21143 H 1962.2 -4.09819 -0.218206 0
M  V30 21144 H 1961.73 -3.4909 -1.81383 0
M  V30 21145 H 1963.74 -3.96455 -2.98392 0
M  V30 21146 N 1962.92 0.141865 -1.5696 0
M  V30 21147 C 1963.83 1.19435 -2.01922 0
M  V30 21148 C 1964.84 1.4671 -0.935527 0
M  V30 21149 O 1966.02 1.58279 -1.24538 0
M  V30 21150 C 1963.08 2.50665 -2.39516 0
M  V30 21151 C 1962.14 2.30991 -3.61859 0
M  V30 21152 C 1961.38 3.55963 -3.9765 0
M  V30 21153 O 1961.6 4.62354 -3.34044 0
M  V30 21154 O 1960.53 3.48322 -4.90872 0
M  V30 21155 H 1964.36 0.842613 -2.91777 0
M  V30 21156 H 1961.95 0.350973 -1.45219 0
M  V30 21157 H 1963.83 3.28024 -2.64534 0
M  V30 21158 H 1962.5 2.85358 -1.52815 0
M  V30 21159 H 1961.41 1.51565 -3.42022 0
M  V30 21160 H 1962.74 2.01211 -4.49194 0
M  V30 21161 N 1964.39 1.52136 0.411372 0
M  V30 21162 C 1965.81 1.40889 0.749825 0
M  V30 21163 C 1966.01 0.511617 1.94897 0
M  V30 21164 O 1965.07 -0.0234451 2.52489 0
M  V30 21165 C 1966.38 2.83378 1.00586 0
M  V30 21166 C 1967.93 2.92706 1.10871 0
M  V30 21167 C 1968.4 4.36157 1.39752 0
M  V30 21168 N 1969.89 4.39382 1.46622 0
M  V30 21169 C 1970.63 5.47436 1.70591 0
M  V30 21170 N 1970.12 6.65612 1.92179 0
M  V30 21171 N 1971.92 5.34949 1.72587 0
M  V30 21172 H 1964.07 2.09009 -0.377998 0
M  V30 21173 H 1966.33 0.941963 -0.106819 0
M  V30 21174 H 1966.04 3.51147 0.197136 0
M  V30 21175 H 1965.91 3.24285 1.92663 0
M  V30 21176 H 1968.3 2.25118 1.90803 0
M  V30 21177 H 1968.38 2.55258 0.166361 0
M  V30 21178 H 1968.02 5.04303 0.603387 0
M  V30 21179 H 1967.95 4.71139 2.35236 0
M  V30 21180 H 1970.44 3.54194 1.31738 0
M  V30 21181 H 1970.76 7.43745 2.09912 0
M  V30 21182 H 1969.1 6.68681 1.89449 0
M  V30 21183 H 1972.29 4.41602 1.55258 0
M  V30 21184 H 1972.47 6.19234 1.90929 0
M  V30 21185 N 1965.87 -0.668464 1.42721 0
M  V30 21186 C 1966.82 -1.80311 1.46938 0
M  V30 21187 C 1967.82 -1.65861 0.344463 0
M  V30 21188 O 1969.02 -1.72392 0.517768 0
M  V30 21189 H 1965.4 -0.59464 0.460333 0
M  V30 21190 H 1967.37 -1.73872 2.4251 0
M  V30 21191 C 1966.12 -3.18498 1.3948 0
M  V30 21192 H 1965.44 -3.30246 2.25338 0
M  V30 21193 H 1966.88 -3.9789 1.46492 0
M  V30 21194 C 1965.34 -3.36719 0.110386 0
M  V30 21195 O 1965.87 -3.92939 -0.834354 0
M  V30 21196 N 1964.07 -2.90589 0.0254882 0
M  V30 21197 H 1963.62 -2.45023 0.795077 0
M  V30 21198 H 1963.58 -3.03158 -0.833236 0
M  V30 21199 N 1967.35 -1.28999 -0.905381 0
M  V30 21200 C 1968.63 -1.07329 -1.63523 0
M  V30 21201 C 1969.01 0.384519 -2.07568 0
M  V30 21202 O 1968.36 1.37223 -1.82708 0
M  V30 21203 C 1968.57 -2.05563 -2.82037 0
M  V30 21204 C 1969.91 -2.3617 -3.52858 0
M  V30 21205 O 1970.94 -2.03713 -2.92198 0
M  V30 21206 O 1969.8 -2.91601 -4.62202 0
M  V30 21207 H 1966.89 -0.410796 -0.717757 0
M  V30 21208 H 1969.44 -1.40349 -0.953949 0
M  V30 21209 H 1968.21 -3.03779 -2.46645 0
M  V30 21210 H 1967.83 -1.73238 -3.57875 0
M  V30 21211 N 1968.83 1.11497 -1.11383 0
M  V30 21212 C 1969.78 2.1752 -0.771611 0
M  V30 21213 C 1970.75 1.64106 0.256616 0
M  V30 21214 O 1971.93 1.90331 0.133672 0
M  V30 21215 C 1969.07 3.44396 -0.220313 0
M  V30 21216 C 1968.18 4.11817 -1.30503 0
M  V30 21217 C 1967.32 5.26375 -0.714331 0
M  V30 21218 C 1966.36 5.85679 -1.77894 0
M  V30 21219 N 1965.5 6.91634 -1.20778 0
M  V30 21220 H 1970.34 2.46138 -1.67989 0
M  V30 21221 H 1967.87 1.20832 -0.838927 0
M  V30 21222 H 1969.83 4.17035 0.117286 0
M  V30 21223 H 1968.46 3.16164 0.651161 0
M  V30 21224 H 1967.51 3.37258 -1.75959 0
M  V30 21225 H 1968.82 4.5195 -2.11051 0
M  V30 21226 H 1967.98 6.05819 -0.326754 0
M  V30 21227 H 1966.72 4.87546 0.12248 0
M  V30 21228 H 1965.72 5.04914 -2.17583 0
M  V30 21229 H 1966.95 6.26576 -2.61877 0
M  V30 21230 H 1964.89 6.54824 -0.392602 0
M  V30 21231 H 1964.81 7.30419 -1.94998 0
M  V30 21232 H 1966.08 7.74884 -0.847072 0
M  V30 21233 N 1970.31 0.904053 1.29092 0
M  V30 21234 C 1971.55 0.532992 1.95671 0
M  V30 21235 C 1971.89 -0.919194 1.71069 0
M  V30 21236 O 1971.16 -1.6523 1.02612 0
M  V30 21237 C 1971.44 0.831252 3.50374 0
M  V30 21238 C 1971.3 2.33546 3.84417 0
M  V30 21239 C 1972.62 0.320724 4.3893 0
M  V30 21240 H 1969.74 0.195117 0.710703 0
M  V30 21241 H 1972.38 1.13153 1.52632 0
M  V30 21242 H 1970.53 0.321853 3.87165 0
M  V30 21243 H 1972.2 2.91473 3.57549 0
M  V30 21244 H 1970.44 2.79442 3.31805 0
M  V30 21245 H 1971.11 2.49471 4.9241 0
M  V30 21246 H 1973.59 0.756974 4.09157 0
M  V30 21247 H 1972.47 0.55858 5.4605 0
M  V30 21248 H 1972.73 -0.778699 4.35188 0
M  V30 21249 N 1971.79 -1.4279 0.666995 0
M  V30 21250 C 1973.03 -2.01644 0.18603 0
M  V30 21251 C 1973.36 -1.52694 -1.20477 0
M  V30 21252 O 1972.62 -0.716418 -1.82115 0
M  V30 21253 C 1972.91 -3.57038 0.160763 0
M  V30 21254 C 1972.58 -4.25389 1.49517 0
M  V30 21255 C 1971.24 -4.43775 1.86056 0
M  V30 21256 C 1973.59 -4.63976 2.37436 0
M  V30 21257 C 1970.92 -4.98018 3.10152 0
M  V30 21258 C 1973.27 -5.19596 3.60837 0
M  V30 21259 C 1971.94 -5.36197 3.97554 0
M  V30 21260 H 1971.21 -0.737867 0.0680731 0
M  V30 21261 H 1973.86 -1.71081 0.860435 0
M  V30 21262 H 1972.16 -3.87223 -0.597132 0
M  V30 21263 H 1973.86 -4.00349 -0.228461 0
M  V30 21264 H 1970.45 -4.11432 1.20091 0
M  V30 21265 H 1974.63 -4.49451 2.10494 0
M  V30 21266 H 1969.89 -5.09057 3.38632 0
M  V30 21267 H 1974.06 -5.4844 4.2917 0
M  V30 21268 H 1971.69 -5.77992 4.9379 0
M  V30 21269 N 1973.26 -0.409806 -1.52179 0
M  V30 21270 C 1974.51 0.165758 -2.0182 0
M  V30 21271 C 1974.84 1.45086 -1.29539 0
M  V30 21272 O 1974.09 1.91766 -0.390424 0
M  V30 21273 C 1974.39 0.459582 -3.54433 0
M  V30 21274 C 1974.06 -0.7364 -4.44846 0
M  V30 21275 C 1972.72 -1.06445 -4.69279 0
M  V30 21276 C 1975.07 -1.53553 -4.98067 0
M  V30 21277 C 1972.4 -2.19281 -5.44181 0
M  V30 21278 C 1974.75 -2.65467 -5.74204 0
M  V30 21279 C 1973.42 -2.98757 -5.96909 0
M  V30 21280 H 1972.69 0.0606551 -0.738513 0
M  V30 21281 H 1975.33 -0.551364 -1.83391 0
M  V30 21282 H 1973.64 1.25828 -3.71045 0
M  V30 21283 H 1975.34 0.917888 -3.90353 0
M  V30 21284 H 1971.93 -0.470734 -4.26007 0
M  V30 21285 H 1976.11 -1.29532 -4.79098 0
M  V30 21286 H 1971.37 -2.4542 -5.59981 0
M  V30 21287 H 1975.54 -3.27776 -6.14439 0
M  V30 21288 H 1973.17 -3.86307 -6.5473 0
M  V30 21289 N 1974.74 1.56975 -0.14025 0
M  V30 21290 C 1975.7 2.15234 0.78784 0
M  V30 21291 C 1976.7 1.09243 1.17994 0
M  V30 21292 O 1977.89 1.34916 1.10197 0
M  V30 21293 C 1975.03 2.70994 2.06821 0
M  V30 21294 H 1976.22 2.98579 0.281166 0
M  V30 21295 H 1973.77 1.55918 0.109151 0
M  V30 21296 H 1974.51 1.91297 2.6187 0
M  V30 21297 H 1974.29 3.48532 1.79633 0
M  V30 21298 H 1975.78 3.15904 2.7312 0
M  V30 21299 N 1976.22 -0.133539 1.57033 0
M  V30 21300 C 1977.44 -0.862393 1.8862 0
M  V30 21301 C 1977.87 -1.73328 0.730696 0
M  V30 21302 O 1977.23 -1.78466 -0.319297 0
M  V30 21303 C 1977.28 -1.68381 3.18873 0
M  V30 21304 O 1976.38 -2.78939 3.03755 0
M  V30 21305 H 1975.72 -0.239391 0.619345 0
M  V30 21306 H 1978.25 -0.120306 2.04246 0
M  V30 21307 H 1978.26 -2.07606 3.51232 0
M  V30 21308 H 1976.94 -1.0444 4.02573 0
M  V30 21309 H 1975.51 -2.43022 2.82833 0
M  V30 21310 N 1977.7 -1.52352 -0.403298 0
M  V30 21311 C 1978.94 -1.66944 -1.15141 0
M  V30 21312 C 1979.28 -0.401064 -1.90013 0
M  V30 21313 O 1978.55 0.60071 -1.84991 0
M  V30 21314 C 1978.83 -2.89526 -2.14118 0
M  V30 21315 C 1978.69 -4.26428 -1.43104 0
M  V30 21316 C 1980.01 -3.07636 -3.14719 0
M  V30 21317 H 1977.13 -0.607531 -0.417223 0
M  V30 21318 H 1979.77 -1.84919 -0.436447 0
M  V30 21319 H 1977.92 -2.74332 -2.7509 0
M  V30 21320 H 1979.59 -4.53362 -0.852075 0
M  V30 21321 H 1977.83 -4.27563 -0.732965 0
M  V30 21322 H 1978.5 -5.08258 -2.15355 0
M  V30 21323 H 1980.98 -3.21767 -2.63828 0
M  V30 21324 H 1979.86 -3.94909 -3.81232 0
M  V30 21325 H 1980.12 -2.2121 -3.82777 0
M  V30 21326 N 1979.18 0.660885 -1.43074 0
M  V30 21327 C 1980.59 0.97566 -1.26305 0
M  V30 21328 C 1980.79 2.00719 -0.17724 0
M  V30 21329 O 1979.85 2.48514 0.446896 0
M  V30 21330 C 1981.16 1.46722 -2.62475 0
M  V30 21331 C 1982.71 1.58427 -2.69944 0
M  V30 21332 C 1983.18 2.10976 -4.06514 0
M  V30 21333 N 1984.67 2.18289 -4.08539 0
M  V30 21334 C 1985.41 2.60054 -5.11038 0
M  V30 21335 N 1984.91 3.01171 -6.23913 0
M  V30 21336 N 1986.7 2.59926 -4.98392 0
M  V30 21337 H 1978.85 -0.02183 -2.12389 0
M  V30 21338 H 1981.11 0.0527972 -0.946529 0
M  V30 21339 H 1980.82 0.783712 -3.42857 0
M  V30 21340 H 1980.69 2.44359 -2.87348 0
M  V30 21341 H 1983.08 2.25881 -1.899 0
M  V30 21342 H 1983.16 0.592433 -2.48845 0
M  V30 21343 H 1982.8 1.44126 -4.87022 0
M  V30 21344 H 1982.73 3.10976 -4.24972 0
M  V30 21345 H 1985.23 1.89317 -3.27059 0
M  V30 21346 H 1985.54 3.31766 -6.97962 0
M  V30 21347 H 1983.88 2.98994 -6.27398 0
M  V30 21348 H 1987.07 2.27175 -4.09279 0
M  V30 21349 H 1987.25 2.92154 -5.78403 0
M  V30 21350 N 1980.65 1.29477 0.898527 0
M  V30 21351 C 1981.88 1.20529 1.68783 0
M  V30 21352 C 1982.3 -0.230536 1.86682 0
M  V30 21353 O 1981.66 -1.1664 1.38798 0
M  V30 21354 C 1981.71 1.92501 3.04919 0
M  V30 21355 O 1980.81 1.24286 3.93226 0
M  V30 21356 H 1980.16 0.417586 0.516254 0
M  V30 21357 H 1982.69 1.71066 1.1224 0
M  V30 21358 H 1982.7 2.01001 3.55053 0
M  V30 21359 H 1981.37 2.96934 2.9121 0
M  V30 21360 H 1979.95 1.24052 3.51661 0
M  V30 21361 N 1982.13 -1.10905 1.11972 0
M  V30 21362 C 1983.38 -1.82401 0.870296 0
M  V30 21363 C 1983.7 -1.85356 -0.605649 0
M  V30 21364 O 1982.97 -1.32812 -1.44006 0
M  V30 21365 H 1981.55 -0.675471 0.318979 0
M  V30 21366 H 1984.21 -1.34216 1.41323 0
M  V30 21367 H 1983.31 -2.86086 1.24746 0
M  V30 21368 N 1983.61 -0.910886 -1.2861 0
M  V30 21369 C 1984.86 -0.541485 -1.94711 0
M  V30 21370 C 1985.18 0.917302 -1.72077 0
M  V30 21371 O 1984.45 1.64818 -1.05885 0
M  V30 21372 H 1983.03 -0.197263 -0.720483 0
M  V30 21373 H 1985.69 -1.15962 -1.56649 0
M  V30 21374 H 1984.79 -0.73351 -3.03358 0
M  V30 21375 N 1985.09 1.42434 -0.674558 0
M  V30 21376 C 1986.31 2.06399 -0.203545 0
M  V30 21377 C 1986.74 1.50345 1.1304 0
M  V30 21378 O 1986.1 0.621837 1.70302 0
M  V30 21379 C 1986.14 3.60293 -0.148884 0
M  V30 21380 O 1985.25 4.02843 0.882667 0
M  V30 21381 H 1984.59 0.655698 -0.104672 0
M  V30 21382 H 1987.12 1.82572 -0.923502 0
M  V30 21383 H 1987.13 4.07991 0.0273375 0
M  V30 21384 H 1985.8 4.00464 -1.12256 0
M  V30 21385 H 1984.38 3.66694 0.677506 0
M  V30 21386 N 1986.57 0.417871 1.51959 0
M  V30 21387 C 1987.79 -0.156736 2.06807 0
M  V30 21388 C 1988.22 -1.37354 1.28512 0
M  V30 21389 O 1987.57 -1.78494 0.317715 0
M  V30 21390 C 1987.62 -0.476913 3.57432 0
M  V30 21391 O 1986.73 -1.56654 3.81488 0
M  V30 21392 H 1986.07 -0.0103873 0.663919 0
M  V30 21393 H 1988.6 0.593593 1.958 0
M  V30 21394 H 1988.61 -0.733026 4.01361 0
M  V30 21395 H 1987.28 0.412542 4.13849 0
M  V30 21396 H 1985.86 -1.30191 3.49435 0
M  V30 21397 N 1988.04 -1.56898 0.148573 0
M  V30 21398 C 1988.98 -2.13971 -0.821526 0
M  V30 21399 C 1989.99 -1.08955 -1.20965 0
M  V30 21400 O 1991.18 -1.36226 -1.15346 0
M  V30 21401 C 1988.28 -2.6488 -2.11404 0
M  V30 21402 C 1987.45 -3.94313 -1.89303 0
M  V30 21403 C 1986.51 -4.30517 -3.02558 0
M  V30 21404 O 1985.54 -4.98812 -2.74181 0
M  V30 21405 N 1986.74 -3.90226 -4.29772 0
M  V30 21406 H 1989.5 -2.97836 -0.333735 0
M  V30 21407 H 1987.06 -1.61862 -0.0349479 0
M  V30 21408 H 1989.06 -2.86112 -2.8622 0
M  V30 21409 H 1987.63 -1.85731 -2.51441 0
M  V30 21410 H 1986.85 -3.81692 -0.985147 0
M  V30 21411 H 1988.13 -4.7889 -1.71877 0
M  V30 21412 H 1987.53 -3.352 -4.55694 0
M  V30 21413 H 1986.09 -4.16506 -5.01364 0
M  V30 21414 N 1989.52 0.125209 -1.57102 0
M  V30 21415 C 1990.77 0.835321 -1.84798 0
M  V30 21416 C 1991.1 1.79819 -0.73341 0
M  V30 21417 O 1990.38 1.92737 0.261268 0
M  V30 21418 C 1990.66 1.59069 -3.23062 0
M  V30 21419 C 1990.51 0.647841 -4.4511 0
M  V30 21420 C 1991.83 2.54829 -3.58818 0
M  V30 21421 H 1988.95 0.302222 -0.672184 0
M  V30 21422 H 1991.59 0.0997638 -1.89738 0
M  V30 21423 H 1989.74 2.21772 -3.18982 0
M  V30 21424 H 1991.41 0.0301293 -4.6129 0
M  V30 21425 H 1989.66 -0.041074 -4.33781 0
M  V30 21426 H 1990.33 1.21288 -5.3851 0
M  V30 21427 H 1992.8 2.02233 -3.63649 0
M  V30 21428 H 1991.68 3.04716 -4.56551 0
M  V30 21429 H 1991.94 3.37205 -2.85911 0
M  V30 21430 N 1991 1.52564 0.395213 0
M  V30 21431 C 1992.25 1.67305 1.14085 0
M  V30 21432 C 1992.58 0.409869 1.90132 0
M  V30 21433 O 1991.83 -0.607574 1.8603 0
M  V30 21434 C 1992.13 2.85496 2.15004 0
M  V30 21435 C 1991.8 4.23179 1.55661 0
M  V30 21436 C 1990.46 4.60626 1.39202 0
M  V30 21437 C 1992.81 5.08923 1.12457 0
M  V30 21438 C 1990.14 5.81482 0.780775 0
M  V30 21439 C 1992.49 6.30397 0.527451 0
M  V30 21440 C 1991.15 6.66581 0.350111 0
M  V30 21441 H 1990.42 0.612211 0.417467 0
M  V30 21442 H 1993.07 1.86695 0.426269 0
M  V30 21443 H 1991.38 2.60496 2.92658 0
M  V30 21444 H 1993.07 2.94096 2.72595 0
M  V30 21445 H 1989.66 3.93678 1.69457 0
M  V30 21446 H 1993.85 4.80566 1.23976 0
M  V30 21447 H 1989.1 6.0813 0.631518 0
M  V30 21448 H 1993.28 6.96156 0.184351 0
M  V30 21449 H 1990.9 7.60096 -0.125616 0
M  V30 21450 N 1992.48 -0.653289 1.43422 0
M  V30 21451 C 1993.73 -1.41319 1.45036 0
M  V30 21452 C 1994.05 -1.94357 0.074626 0
M  V30 21453 O 1993.31 -1.72707 -0.920363 0
M  V30 21454 C 1993.61 -2.6117 2.43978 0
M  V30 21455 C 1993.27 -2.2655 3.89854 0
M  V30 21456 C 1991.94 -2.16821 4.29584 0
M  V30 21457 C 1994.29 -1.98838 4.81781 0
M  V30 21458 C 1991.62 -1.77535 5.59194 0
M  V30 21459 C 1993.97 -1.61051 6.11756 0
M  V30 21460 C 1992.63 -1.49847 6.50463 0
M  V30 21461 H 1991.9 -0.517121 0.530723 0
M  V30 21462 H 1994.55 -0.742946 1.76501 0
M  V30 21463 H 1992.85 -3.33326 2.05916 0
M  V30 21464 H 1994.55 -3.19381 2.42481 0
M  V30 21465 H 1991.14 -2.35033 3.58409 0
M  V30 21466 H 1995.32 -2.05276 4.51858 0
M  V30 21467 H 1990.58 -1.67447 5.88023 0
M  V30 21468 H 1994.75 -1.38639 6.8246 0
M  V30 21469 H 1992.38 -1.19176 7.508 0
M  V30 21470 N 1993.96 -1.29952 -0.891648 0
M  V30 21471 C 1994.89 -1.10092 -1.99887 0
M  V30 21472 C 1995.87 -0.0104614 -1.62597 0
M  V30 21473 O 1997.05 -0.162725 -1.87796 0
M  V30 21474 C 1994.18 -0.677652 -3.31852 0
M  V30 21475 C 1993.22 -1.768 -3.88129 0
M  V30 21476 S 1994.06 -3.36899 -4.16244 0
M  V30 21477 C 1995.21 -2.96459 -5.51237 0
M  V30 21478 H 1995.45 -2.0383 -2.16427 0
M  V30 21479 H 1992.98 -1.1419 -1.03923 0
M  V30 21480 H 1994.94 -0.440168 -4.08133 0
M  V30 21481 H 1993.6 0.240259 -3.1318 0
M  V30 21482 H 1992.79 -1.42397 -4.83466 0
M  V30 21483 H 1992.39 -1.95942 -3.18564 0
M  V30 21484 H 1994.69 -2.44005 -6.32035 0
M  V30 21485 H 1995.63 -3.90678 -5.90573 0
M  V30 21486 H 1996.04 -2.3452 -5.13479 0
M  V30 21487 N 1995.44 1.1031 -1.12559 0
M  V30 21488 C 1996.66 1.86078 -0.90458 0
M  V30 21489 C 1997.08 1.80726 0.546224 0
M  V30 21490 O 1996.44 1.1969 1.3777 0
M  V30 21491 C 1996.49 3.34425 -1.37268 0
M  V30 21492 O 1996.21 3.39691 -2.76661 0
M  V30 21493 C 1997.71 4.27063 -1.18879 0
M  V30 21494 H 1994.93 0.588055 -0.32316 0
M  V30 21495 H 1997.47 1.39441 -1.49588 0
M  V30 21496 H 1995.63 3.78523 -0.824578 0
M  V30 21497 H 1996.04 4.3215 -2.97232 0
M  V30 21498 H 1997.52 5.29345 -1.56518 0
M  V30 21499 H 1997.99 4.39009 -0.129502 0
M  V30 21500 H 1998.6 3.88771 -1.72445 0
M  V30 21501 N 1996.91 0.917694 1.28125 0
M  V30 21502 C 1997.84 0.426179 2.29578 0
M  V30 21503 C 1998.82 -0.508289 1.62328 0
M  V30 21504 O 2000.01 -0.415181 1.8971 0
M  V30 21505 C 1997.14 -0.331007 3.45719 0
M  V30 21506 C 1996.09 0.51469 4.24894 0
M  V30 21507 C 1995.42 -0.371069 5.33411 0
M  V30 21508 C 1996.72 1.774 4.9125 0
M  V30 21509 H 1998.41 1.27403 2.7094 0
M  V30 21510 H 1995.96 0.614065 1.30251 0
M  V30 21511 H 1997.91 -0.68573 4.15783 0
M  V30 21512 H 1996.64 -1.2128 3.03247 0
M  V30 21513 H 1995.3 0.851986 3.56562 0
M  V30 21514 H 1994.94 -1.25152 4.87182 0
M  V30 21515 H 1994.64 0.19121 5.87289 0
M  V30 21516 H 1996.17 -0.721587 6.06321 0
M  V30 21517 H 1997.58 1.48795 5.53654 0
M  V30 21518 H 1995.98 2.27899 5.55141 0
M  V30 21519 H 1997.05 2.49947 4.15517 0
M  V30 21520 N 1998.39 -1.42074 0.682102 0
M  V30 21521 C 1999.34 -2.326 -0.00324978 0
M  V30 21522 C 2000.33 -1.50226 -0.782851 0
M  V30 21523 O 2001.54 -1.6625 -0.689991 0
M  V30 21524 H 1997.91 -0.751738 -0.0198484 0
M  V30 21525 H 1999.89 -2.88093 0.777513 0
M  V30 21526 C 1998.63 -3.3488 -0.935455 0
M  V30 21527 H 1997.96 -3.98309 -0.344986 0
M  V30 21528 H 1999.4 -4.00791 -1.38355 0
M  V30 21529 C 1997.86 -2.67711 -2.0453 0
M  V30 21530 O 1998.39 -2.5146 -3.13258 0
M  V30 21531 N 1996.59 -2.2662 -1.81912 0
M  V30 21532 H 1996.14 -2.40037 -0.934876 0
M  V30 21533 H 1996.1 -1.82011 -2.56358 0
M  V30 21534 N 1999.87 -0.425924 -1.51735 0
M  V30 21535 C 2001.29 -0.0776294 -1.59411 0
M  V30 21536 C 2001.49 1.41186 -1.43767 0
M  V30 21537 O 2000.54 2.18056 -1.27311 0
M  V30 21538 C 2001.85 -0.58755 -2.94904 0
M  V30 21539 C 2003.4 -0.54699 -3.08183 0
M  V30 21540 C 2003.88 -1.0337 -4.46182 0
M  V30 21541 N 2005.37 -0.991208 -4.5247 0
M  V30 21542 C 2006.1 -1.3388 -5.57552 0
M  V30 21543 N 2005.6 -1.75868 -6.70106 0
M  V30 21544 N 2007.39 -1.25769 -5.47849 0
M  V30 21545 H 1999.54 -1.39519 -1.60151 0
M  V30 21546 H 2001.81 -0.574214 -0.754309 0
M  V30 21547 H 2001.51 -1.62925 -3.11686 0
M  V30 21548 H 2001.39 -0.0062584 -3.77199 0
M  V30 21549 H 2003.77 0.485701 -2.91076 0
M  V30 21550 H 2003.85 -1.16454 -2.27754 0
M  V30 21551 H 2003.5 -2.0648 -4.64035 0
M  V30 21552 H 2003.43 -0.39279 -5.25133 0
M  V30 21553 H 2005.92 -0.682721 -3.71682 0
M  V30 21554 H 2006.23 -2.00657 -7.46295 0
M  V30 21555 H 2004.58 -1.79785 -6.71344 0
M  V30 21556 H 2007.77 -0.928407 -4.58801 0
M  V30 21557 H 2007.94 -1.53187 -6.29633 0
M  V30 21558 N 2001.35 1.56817 -0.156891 0
M  V30 21559 C 2002.3 2.18555 0.796017 0
M  V30 21560 C 2003.29 1.14538 1.24809 0
M  V30 21561 O 2004.5 1.32768 1.21542 0
M  V30 21562 H 2000.87 0.699939 0.274936 0
M  V30 21563 H 2002.84 2.97341 0.251207 0
M  V30 21564 C 2001.59 2.82928 2.02106 0
M  V30 21565 H 2000.91 3.62687 1.6822 0
M  V30 21566 H 2002.35 3.29615 2.66702 0
M  V30 21567 C 2000.81 1.81947 2.83543 0
M  V30 21568 O 2001.34 1.29602 3.80219 0
M  V30 21569 N 1999.55 1.51028 2.48272 0
M  V30 21570 H 1999.1 1.93787 1.69719 0
M  V30 21571 H 1999.05 0.837124 3.0305 0
M  V30 21572 N 2002.83 -0.116876 1.57166 0
M  V30 21573 C 2004.05 -0.842338 1.89524 0
M  V30 21574 C 2004.48 -1.72543 0.749039 0
M  V30 21575 O 2003.83 -1.78795 -0.30035 0
M  V30 21576 C 2003.88 -1.64989 3.20641 0
M  V30 21577 O 2002.99 -2.75701 3.06696 0
M  V30 21578 H 2002.33 -0.232809 0.621849 0
M  V30 21579 H 2004.86 -0.0986366 2.04362 0
M  V30 21580 H 2004.87 -2.03869 3.53414 0
M  V30 21581 H 2003.54 -1.00164 4.03658 0
M  V30 21582 H 2002.12 -2.40009 2.85395 0
M  V30 21583 N 2004.3 -1.52772 -0.387116 0
M  V30 21584 C 2005.24 -1.72436 -1.49469 0
M  V30 21585 C 2006.21 -0.572226 -1.52198 0
M  V30 21586 O 2007.4 -0.802255 -1.70576 0
M  V30 21587 C 2004.53 -1.78368 -2.87928 0
M  V30 21588 C 2003.57 -3.00138 -3.03017 0
M  V30 21589 S 2004.4 -4.6008 -2.7402 0
M  V30 21590 C 2005.56 -4.68829 -4.14668 0
M  V30 21591 H 2005.79 -2.66109 -1.32564 0
M  V30 21592 H 2003.33 -1.43088 -0.580109 0
M  V30 21593 H 2005.28 -1.8247 -3.67716 0
M  V30 21594 H 2003.95 -0.857839 -3.02159 0
M  V30 21595 H 2003.14 -3.00835 -4.04369 0
M  V30 21596 H 2002.74 -2.94036 -2.31125 0
M  V30 21597 H 2005.03 -4.4756 -5.08622 0
M  V30 21598 H 2005.98 -5.70838 -4.18986 0
M  V30 21599 H 2006.38 -3.97653 -4.00665 0
M  V30 21600 N 2005.78 0.645673 -1.43767 0
M  V30 21601 C 2006.71 1.77057 -1.43966 0
M  V30 21602 C 2007.69 1.59805 -0.300185 0
M  V30 21603 O 2008.88 1.81886 -0.494937 0
M  V30 21604 C 2006 3.14453 -1.25845 0
M  V30 21605 C 2005.05 3.50389 -2.43166 0
M  V30 21606 S 2005.88 3.4951 -4.05713 0
M  V30 21607 C 2007.04 4.8955 -3.89989 0
M  V30 21608 H 2007.27 1.76619 -2.39151 0
M  V30 21609 H 2004.8 0.818994 -1.30889 0
M  V30 21610 H 2006.76 3.93747 -1.16077 0
M  V30 21611 H 2005.42 3.12446 -0.321954 0
M  V30 21612 H 2004.62 4.50332 -2.26312 0
M  V30 21613 H 2004.22 2.78525 -2.49599 0
M  V30 21614 H 2006.51 5.78405 -3.5278 0
M  V30 21615 H 2007.45 5.11457 -4.89711 0
M  V30 21616 H 2007.86 4.6344 -3.2231 0
M  V30 21617 N 2007.26 1.30423 0.884744 0
M  V30 21618 C 2008.21 1.1673 2.01188 0
M  V30 21619 C 2009.2 0.0791439 1.69215 0
M  V30 21620 O 2010.41 0.24001 1.78393 0
M  V30 21621 H 2006.78 0.361014 0.659676 0
M  V30 21622 H 2008.75 2.12124 2.09871 0
M  V30 21623 C 2007.5 0.876173 3.3648 0
M  V30 21624 H 2006.83 1.70557 3.61594 0
M  V30 21625 H 2008.27 0.820477 4.15986 0
M  V30 21626 C 2006.72 -0.420908 3.3426 0
M  V30 21627 O 2007.25 -1.44235 3.74912 0
M  V30 21628 N 2005.46 -0.432149 2.87369 0
M  V30 21629 H 2005.01 0.399559 2.54482 0
M  V30 21630 H 2004.97 -1.29995 2.86267 0
M  V30 21631 N 2008.74 -1.09711 1.13142 0
M  V30 21632 C 2009.98 -1.82276 0.902614 0
M  V30 21633 C 2010.34 -1.83908 -0.565283 0
M  V30 21634 O 2009.63 -1.29418 -1.41285 0
M  V30 21635 C 2009.83 -3.27951 1.42067 0
M  V30 21636 C 2009.65 -3.40509 2.93741 0
M  V30 21637 C 2008.42 -3.52483 3.62055 0
M  V30 21638 C 2010.62 -3.33285 3.91696 0
M  V30 21639 N 2008.6 -3.53695 5.0177 0
M  V30 21640 C 2009.98 -3.41331 5.17584 0
M  V30 21641 C 2012.03 -3.16933 3.84002 0
M  V30 21642 C 2010.73 -3.34709 6.36681 0
M  V30 21643 C 2012.76 -3.11636 5.0263 0
M  V30 21644 C 2012.12 -3.2027 6.27381 0
M  V30 21645 H 2008.22 -0.681417 0.38366 0
M  V30 21646 H 2010.8 -1.3114 1.43911 0
M  V30 21647 H 2008.98 -3.77562 0.911135 0
M  V30 21648 H 2010.71 -3.88512 1.13316 0
M  V30 21649 H 2007.46 -3.55807 3.12567 0
M  V30 21650 H 2007.89 -3.57892 5.74667 0
M  V30 21651 H 2012.53 -3.09129 2.88442 0
M  V30 21652 H 2010.25 -3.41277 7.325 0
M  V30 21653 H 2013.83 -3.00123 4.98415 0
M  V30 21654 H 2012.71 -3.16184 7.17633 0
M  V30 21655 O 2010.25 -1.05588 -1.22202 0
M  V30 21656 H 2010.95 -0.733898 -1.79259 0
M  V30 END ATOM
M  V30 BEGIN BOND
M  V30 END BOND
M  V30 END CTAB
M  END
$$$$
