drugbank_target|Q9UKV0 Histone deacetylase 9 (DB05015; DB06603)
 OpenBabel12092119423D

  0  0  0     0  0            999 V3000
M  V30 BEGIN CTAB
M  V30 COUNTS 15617 15772 0 0 0
M  V30 BEGIN ATOM
M  V30 1 H -0.908 1.98254 -0.117106 0
M  V30 2 N 0 1.576 0 0
M  V30 3 C 0.933 2.03868 1.02534 0
M  V30 4 C 1.911 0.928543 1.3348 0
M  V30 5 O 3.095 1.19667 1.45644 0
M  V30 6 C 0.222 2.43627 2.35294 0
M  V30 7 C -0.732 3.65373 2.2001 0
M  V30 8 S 0.101 5.13292 1.52614 0
M  V30 9 C 1.257 5.56322 2.86805 0
M  V30 10 H 1.49 2.90518 0.631377 0
M  V30 11 H -0.977 1.52953 0.210867 0
M  V30 12 H 0.981 2.67203 3.11629 0
M  V30 13 H -0.358 1.57376 2.7183 0
M  V30 14 H -1.165 3.90944 3.18086 0
M  V30 15 H -1.563 3.418 1.51819 0
M  V30 16 H 0.729 5.58782 3.83104 0
M  V30 17 H 1.672 6.56266 2.65933 0
M  V30 18 H 2.08 4.83886 2.90714 0
M  V30 19 N 1.4781 -0.272755 1.55222 0
M  V30 20 C 2.4281 -1.33946 1.84506 0
M  V30 21 C 3.4121 -1.44682 0.70399 0
M  V30 22 O 4.6041 -1.48358 0.965338 0
M  V30 23 C 1.7331 -2.69968 2.12067 0
M  V30 24 C 0.8191 -2.63341 3.32434 0
M  V30 25 N 1.2101 -2.26335 4.52334 0
M  V30 26 C -0.4919 -2.94402 3.35028 0
M  V30 27 C 0.2091 -2.29705 5.34425 0
M  V30 28 N -0.8149 -2.68188 4.72838 0
M  V30 29 H 2.9871 -1.04343 2.74754 0
M  V30 30 H 0.5011 -0.481389 1.55101 0
M  V30 31 H 2.4981 -3.46916 2.31202 0
M  V30 32 H 1.1581 -3.00459 1.23103 0
M  V30 33 H 2.1691 -1.98309 4.78429 0
M  V30 34 H -1.1539 -3.29603 2.56257 0
M  V30 35 H 0.2361 -2.03653 6.40293 0
M  V30 36 N 2.9562 -1.48159 -0.537278 0
M  V30 37 C 4.1812 -1.59707 -1.32319 0
M  V30 38 C 4.6062 -0.254859 -1.86365 0
M  V30 39 O 3.9642 0.772378 -1.64024 0
M  V30 40 C 4.0122 -2.6412 -2.45505 0
M  V30 41 O 3.1162 -2.20774 -3.48328 0
M  V30 42 H 2.4572 -0.535791 -0.392204 0
M  V30 43 H 4.9872 -1.94092 -0.647268 0
M  V30 44 H 4.9972 -2.85166 -2.91795 0
M  V30 45 H 3.6722 -3.61567 -2.05528 0
M  V30 46 H 2.2492 -2.09911 -3.08207 0
M  V30 47 N 4.4343 0.785586 -1.36625 0
M  V30 48 C 5.3673 1.90509 -1.25625 0
M  V30 49 C 6.3453 1.62 -0.139607 0
M  V30 50 O 7.5293 1.8591 -0.31141 0
M  V30 51 C 4.6563 3.25419 -0.939158 0
M  V30 52 C 3.7023 3.72856 -2.07077 0
M  V30 53 S 4.5353 3.88162 -3.68904 0
M  V30 54 C 5.6913 5.25942 -3.39317 0
M  V30 55 H 5.9243 1.99549 -2.20381 0
M  V30 56 H 3.4573 0.945226 -1.22085 0
M  V30 57 H 5.4153 4.03346 -0.763029 0
M  V30 58 H 4.0763 3.14099 -0.00931402 0
M  V30 59 H 3.2693 4.70624 -1.80357 0
M  V30 60 H 2.8713 3.01989 -2.20632 0
M  V30 61 H 5.1633 6.10651 -2.93447 0
M  V30 62 H 6.1063 5.57668 -4.36363 0
M  V30 63 H 6.5143 4.93224 -2.74573 0
M  V30 64 N 5.9124 1.20967 1.01018 0
M  V30 65 C 7.1614 1.01796 1.74128 0
M  V30 66 C 7.4744 -0.449691 1.90361 0
M  V30 67 O 8.6804 -0.76068 2.60626 0
M  V30 68 C 7.1364 1.7727 3.13215 0
M  V30 69 C 6.7444 3.28171 3.04972 0
M  V30 70 C 8.4884 1.66489 3.90489 0
M  V30 71 C 6.3954 3.96156 4.39107 0
M  V30 72 H 5.3254 0.377276 0.652824 0
M  V30 73 H 7.9764 1.44651 1.12909 0
M  V30 74 H 6.3584 1.27205 3.75013 0
M  V30 75 H 7.5324 3.85499 2.52443 0
M  V30 76 H 5.8474 3.39437 2.41188 0
M  V30 77 H 8.4444 2.14617 4.89738 0
M  V30 78 H 8.7874 0.6222 4.11624 0
M  V30 79 H 9.3204 2.14003 3.35332 0
M  V30 80 H 6.0594 5.00604 4.23174 0
M  V30 81 H 5.5794 3.43617 4.91617 0
M  V30 82 H 7.2584 4.00774 5.07926 0
M  V30 83 N 7.3905 -1.2043 1.01659 0
M  V30 84 C 8.6155 -1.94318 0.724942 0
M  V30 85 C 9.0405 -1.74266 -0.708034 0
M  V30 86 O 8.3985 -1.03694 -1.48719 0
M  V30 87 C 8.4465 -3.44486 1.06591 0
M  V30 88 O 7.5505 -4.12017 0.177599 0
M  V30 89 H 6.8915 -0.60708 0.26898 0
M  V30 90 H 9.4215 -1.52861 1.35995 0
M  V30 91 H 9.4315 -3.95106 1.01762 0
M  V30 92 H 8.1065 -3.58404 2.10997 0
M  V30 93 H 6.6835 -3.71821 0.283421 0
M  V30 94 N 8.8686 -0.792821 -1.36206 0
M  V30 95 C 10.0936 -0.377701 -2.03932 0
M  V30 96 C 10.5186 0.998947 -1.59382 0
M  V30 97 O 9.8766 1.64421 -0.763903 0
M  V30 98 C 9.9246 -0.453635 -3.57735 0
M  V30 99 O 9.0286 0.538151 -4.08874 0
M  V30 100 H 8.3696 -0.159855 -0.644471 0
M  V30 101 H 10.8996 -1.07488 -1.7409 0
M  V30 102 H 10.9096 -0.318464 -4.06755 0
M  V30 103 H 9.5846 -1.45784 -3.89512 0
M  V30 104 H 8.1616 0.364359 -3.71116 0
M  V30 105 N 10.3467 1.47872 -0.545128 0
M  V30 106 C 11.5927 2.02793 -0.0166104 0
M  V30 107 C 11.9257 1.41987 1.32489 0
M  V30 108 O 11.2007 0.571045 1.85928 0
M  V30 109 C 11.4837 3.59989 0.0893294 0
M  V30 110 C 11.3367 4.3125 -1.27841 0
M  V30 111 C 12.6557 4.32606 0.808724 0
M  V30 112 H 9.7747 0.736962 -0.00751035 0
M  V30 113 H 12.4167 1.76433 -0.705085 0
M  V30 114 H 10.5667 3.82579 0.675681 0
M  V30 115 H 12.2387 4.20035 -1.90704 0
M  V30 116 H 10.4817 3.92076 -1.85632 0
M  V30 117 H 11.1527 5.39736 -1.15713 0
M  V30 118 H 13.6287 4.14936 0.310992 0
M  V30 119 H 12.5047 5.42251 0.851782 0
M  V30 120 H 12.7657 4.00963 1.86229 0
M  V30 121 N 11.8248 0.280983 1.55075 0
M  V30 122 C 13.1018 -0.386207 1.91749 0
M  V30 123 C 13.4818 -1.73264 1.20594 0
M  V30 124 O 12.8298 -2.26034 0.334784 0
M  V30 125 C 13.0398 -0.520687 3.45094 0
M  V30 126 C 14.3878 -0.800865 4.16979 0
M  V30 127 O 15.4118 -0.605271 3.5102 0
M  V30 128 O 14.2708 -1.1753 5.33712 0
M  V30 129 H 11.3648 -0.212408 0.799257 0
M  V30 130 H 13.9108 0.327568 1.66509 0
M  V30 131 H 12.6828 0.426633 3.88967 0
M  V30 132 H 12.3058 -1.2837 3.76307 0
M  V30 133 N 13.3029 -1.57598 0.00835791 0
M  V30 134 C 14.5489 -1.91211 -0.675732 0
M  V30 135 C 14.8819 -0.883139 -1.72958 0
M  V30 136 O 14.1569 0.097016 -1.94258 0
M  V30 137 C 14.4399 -3.35379 -1.31123 0
M  V30 138 C 14.2929 -4.48999 -0.268356 0
M  V30 139 C 15.6119 -3.7912 -2.23508 0
M  V30 140 H 12.7309 -0.695374 -0.244179 0
M  V30 141 H 15.3729 -1.89901 0.0613655 0
M  V30 142 H 13.5229 -3.36626 -1.93946 0
M  V30 143 H 15.1949 -4.59887 0.360844 0
M  V30 144 H 13.4379 -4.31873 0.408482 0
M  V30 145 H 14.1089 -5.46851 -0.752218 0
M  V30 146 H 16.5849 -3.79477 -1.70693 0
M  V30 147 H 15.4609 -4.80729 -2.64936 0
M  V30 148 H 15.7219 -3.13455 -3.11766 0
M  V30 149 N 14.781 0.264519 -1.55364 0
M  V30 150 C 15.728 1.32717 -1.88825 0
M  V30 151 C 16.698 1.48675 -0.740605 0
M  V30 152 O 17.883 1.62945 -0.992657 0
M  V30 153 C 15.023 2.68089 -2.17307 0
M  V30 154 C 14.136 2.60284 -3.44785 0
M  V30 155 C 13.271 3.87892 -3.62924 0
M  V30 156 C 12.31 3.74631 -4.84064 0
M  V30 157 N 11.447 4.94092 -4.98816 0
M  V30 158 H 16.287 1.03481 -2.79456 0
M  V30 159 H 13.824 0.499757 -1.3835 0
M  V30 160 H 15.782 3.46864 -2.31821 0
M  V30 161 H 14.412 2.95509 -1.299 0
M  V30 162 H 13.464 1.73173 -3.38697 0
M  V30 163 H 14.776 2.46388 -4.33698 0
M  V30 164 H 13.93 4.75109 -3.77302 0
M  V30 165 H 12.669 4.04664 -2.7221 0
M  V30 166 H 11.674 2.85797 -4.69681 0
M  V30 167 H 12.899 3.5937 -5.76221 0
M  V30 168 H 10.845 5.11259 -4.11036 0
M  V30 169 H 10.762 4.8276 -5.81789 0
M  V30 170 H 12.03 5.82857 -5.17588 0
M  V30 171 N 16.2591 1.48442 0.529413 0
M  V30 172 C 17.4841 1.60406 1.31471 0
M  V30 173 C 17.9091 0.264738 1.86228 0
M  V30 174 O 17.2671 -0.763668 1.64432 0
M  V30 175 C 17.3151 2.65419 2.44101 0
M  V30 176 O 16.4191 2.22618 3.47153 0
M  V30 177 H 15.7601 0.537863 0.389357 0
M  V30 178 H 18.2901 1.94432 0.636965 0
M  V30 179 H 18.3001 2.86709 2.90279 0
M  V30 180 H 16.9751 3.62652 2.03608 0
M  V30 181 H 15.5521 2.11543 3.0709 0
M  V30 182 N 17.7372 -0.778329 1.37039 0
M  V30 183 C 18.6472 -1.92253 1.34446 0
M  V30 184 C 19.6632 -1.72267 0.244991 0
M  V30 185 O 20.8392 -1.95615 0.479258 0
M  V30 186 C 17.9042 -3.27282 1.144 0
M  V30 187 C 16.9652 -3.59969 2.33925 0
M  V30 188 C 16.1982 -4.88555 2.14825 0
M  V30 189 O 16.4212 -5.59113 1.12912 0
M  V30 190 O 15.3552 -5.20153 3.02861 0
M  V30 191 H 19.1812 -1.97392 2.30803 0
M  V30 192 H 16.7662 -0.920154 1.17701 0
M  V30 193 H 18.6482 -4.08062 1.05182 0
M  V30 194 H 17.3232 -3.23011 0.211124 0
M  V30 195 H 16.2302 -2.7945 2.48714 0
M  V30 196 H 17.5632 -3.68976 3.25757 0
M  V30 197 N 19.2153 -1.21501 -1.00376 0
M  V30 198 C 20.4613 -1.03452 -1.74429 0
M  V30 199 C 20.7943 0.430764 -1.89362 0
M  V30 200 O 20.0693 1.31962 -1.42886 0
M  V30 201 C 20.3523 -1.73375 -3.15615 0
M  V30 202 C 20.2053 -3.27431 -3.08397 0
M  V30 203 C 21.5243 -1.47732 -4.14564 0
M  V30 204 H 18.6433 -0.377226 -0.633143 0
M  V30 205 H 21.2853 -1.49693 -1.17013 0
M  V30 206 H 19.4353 -1.34064 -3.64636 0
M  V30 207 H 21.1073 -3.76119 -2.67081 0
M  V30 208 H 19.3503 -3.5767 -2.45468 0
M  V30 209 H 20.0213 -3.71524 -4.08258 0
M  V30 210 H 22.4973 -1.8186 -3.74254 0
M  V30 211 H 21.3733 -1.99169 -5.11491 0
M  V30 212 H 21.6343 -0.407589 -4.40217 0
M  V30 213 N 20.6934 1.19889 -1.02296 0
M  V30 214 C 22.1044 1.71124 -0.746568 0
M  V30 215 C 22.4554 1.81939 0.734335 0
M  V30 216 O 21.5804 1.48639 1.57275 0
M  V30 217 C 22.1754 3.10804 -1.34857 0
M  V30 218 C 20.7344 3.59323 -1.1209 0
M  V30 219 C 19.8814 2.3635 -1.45031 0
M  V30 220 H 22.8324 1.04813 -1.19163 0
M  V30 221 H 22.8534 3.73186 -0.742437 0
M  V30 222 H 22.3654 3.029 -2.42638 0
M  V30 223 H 20.4664 3.7255 -0.0610337 0
M  V30 224 H 20.5794 4.4378 -1.80544 0
M  V30 225 H 18.9434 2.39399 -0.869487 0
M  V30 226 H 19.7264 2.31081 -2.53883 0
M  V30 227 N 22.1715 0.800033 1.35784 0
M  V30 228 C 23.4175 0.377901 1.99248 0
M  V30 229 C 23.7505 -1.05052 1.63333 0
M  V30 230 O 23.0255 -1.72768 0.893385 0
M  V30 231 C 23.3085 0.553922 3.55814 0
M  V30 232 C 23.1615 2.0268 4.01548 0
M  V30 233 C 24.4805 -0.0244802 4.40093 0
M  V30 234 H 21.5995 0.138782 0.723815 0
M  V30 235 H 24.2415 1.00835 1.61035 0
M  V30 236 H 22.3915 0.0172398 3.88496 0
M  V30 237 H 24.0635 2.62536 3.79305 0
M  V30 238 H 22.3065 2.5256 3.52698 0
M  V30 239 H 22.9775 2.10087 5.10458 0
M  V30 240 H 25.4535 0.433775 4.13833 0
M  V30 241 H 24.3295 0.128637 5.48749 0
M  V30 242 H 24.5905 -1.11758 4.27741 0
M  V30 243 N 23.6496 -1.47581 0.552962 0
M  V30 244 C 24.8976 -2.02082 0.0272703 0
M  V30 245 C 25.2186 -1.4301 -1.32563 0
M  V30 246 O 24.4886 -0.603745 -1.86365 0
M  V30 247 H 23.0686 -0.746966 0.00709182 0
M  V30 248 H 25.7306 -1.81033 0.722008 0
M  V30 249 H 24.8266 -3.12034 -0.0639951 0
M  V30 250 N 25.1277 -0.289203 -1.54924 0
M  V30 251 C 26.0577 0.58549 -2.2604 0
M  V30 252 C 27.0387 1.14753 -1.25562 0
M  V30 253 O 28.2237 1.17906 -1.54311 0
M  V30 254 C 25.3537 1.76305 -2.99222 0
M  V30 255 C 24.3077 1.33191 -4.06748 0
M  V30 256 C 23.6337 2.5937 -4.6758 0
M  V30 257 C 24.9337 0.471775 -5.20165 0
M  V30 258 H 26.6277 -0.00763532 -2.99399 0
M  V30 259 H 24.1737 -0.00511229 -1.43999 0
M  V30 260 H 26.1267 2.38097 -3.47689 0
M  V30 261 H 24.8507 2.38223 -2.23422 0
M  V30 262 H 23.5097 0.737121 -3.59113 0
M  V30 263 H 23.1577 3.19576 -3.88433 0
M  V30 264 H 22.8577 2.31228 -5.40192 0
M  V30 265 H 24.3817 3.21985 -5.18804 0
M  V30 266 H 25.7957 0.995056 -5.64599 0
M  V30 267 H 24.1927 0.284639 -5.99425 0
M  V30 268 H 25.2627 -0.506041 -4.82252 0
M  V30 269 N 26.6058 1.57591 -0.0167156 0
M  V30 270 C 27.5158 2.1291 0.98521 0
M  V30 271 C 28.5318 1.07834 1.36557 0
M  V30 272 O 29.7078 1.39826 1.44951 0
M  V30 273 C 26.7728 2.63512 2.25305 0
M  V30 274 C 25.8338 3.83256 1.93426 0
M  V30 275 C 25.0668 4.31435 3.14165 0
M  V30 276 O 25.2898 3.78851 4.26413 0
M  V30 277 O 24.2238 5.23416 2.97186 0
M  V30 278 H 28.0498 2.98772 0.544888 0
M  V30 279 H 25.6348 1.48012 0.203141 0
M  V30 280 H 27.5168 2.96183 2.99756 0
M  V30 281 H 26.1918 1.8074 2.68542 0
M  V30 282 H 25.0988 3.55531 1.16398 0
M  V30 283 H 26.4318 4.67153 1.55013 0
M  V30 284 N 28.0839 -0.256276 1.55502 0
M  V30 285 C 29.4949 -0.826068 1.67431 0
M  V30 286 C 29.8459 -1.86396 0.612446 0
M  V30 287 O 28.9709 -2.15031 -0.243025 0
M  V30 288 C 29.5659 -1.50512 3.03532 0
M  V30 289 C 28.1249 -2.02273 3.17431 0
M  V30 290 C 27.2719 -0.870548 2.63281 0
M  V30 291 H 30.2229 -0.0322728 1.58667 0
M  V30 292 H 30.2439 -2.37279 2.97454 0
M  V30 293 H 29.7559 -0.749484 3.80794 0
M  V30 294 H 27.8569 -2.80746 2.44974 0
M  V30 295 H 27.9699 -2.22655 4.24219 0
M  V30 296 H 26.3339 -1.26851 2.20864 0
M  V30 297 H 27.1169 -0.128149 3.43061 0
M  V30 298 N 29.562 -1.4872 -0.521534 0
M  V30 299 C 30.811 -1.56419 -1.27341 0
M  V30 300 C 31.124 -0.246805 -1.94037 0
M  V30 301 O 32.33 -0.202122 -2.70747 0
M  V30 302 C 30.786 -2.75896 -2.31105 0
M  V30 303 C 30.394 -4.14311 -1.70441 0
M  V30 304 C 32.138 -2.92913 -3.07249 0
M  V30 305 C 30.045 -5.25038 -2.72194 0
M  V30 306 H 28.975 -0.582344 -0.478949 0
M  V30 307 H 31.626 -1.75071 -0.549779 0
M  V30 308 H 30.008 -2.50697 -3.06541 0
M  V30 309 H 31.182 -4.49564 -1.01136 0
M  V30 310 H 29.497 -4.02482 -1.06759 0
M  V30 311 H 32.094 -3.72805 -3.83302 0
M  V30 312 H 32.437 -2.02689 -3.63625 0
M  V30 313 H 32.97 -3.18054 -2.38928 0
M  V30 314 H 29.709 -6.17255 -2.20627 0
M  V30 315 H 29.229 -4.94263 -3.39801 0
M  V30 316 H 30.908 -5.53508 -3.35019 0
M  V30 317 N 31.0401 0.771051 -1.3745 0
M  V30 318 C 32.2651 1.56529 -1.36065 0
M  V30 319 C 32.6901 1.88029 0.0515859 0
M  V30 320 O 32.0481 1.49282 1.02882 0
M  V30 321 C 32.0961 2.85187 -2.20683 0
M  V30 322 O 31.2001 3.79593 -1.61193 0
M  V30 323 H 30.5411 0.47411 -0.464883 0
M  V30 324 H 33.0711 0.954269 -1.80983 0
M  V30 325 H 33.0811 3.34283 -2.33921 0
M  V30 326 H 31.7561 2.61588 -3.23334 0
M  V30 327 H 30.3331 3.38239 -1.56999 0
M  V30 328 N 32.5182 1.22032 0.997298 0
M  V30 329 C 33.9292 1.0397 1.55071 0
M  V30 330 C 34.2802 -0.398192 1.92117 0
M  V30 331 O 33.4052 -1.28254 1.74298 0
M  V30 332 C 34.0002 1.88109 2.81781 0
M  V30 333 C 32.5592 1.74357 3.33581 0
M  V30 334 C 31.7062 1.84846 2.06706 0
M  V30 335 H 34.6572 1.35941 0.818883 0
M  V30 336 H 34.6782 1.39589 3.53971 0
M  V30 337 H 34.1902 2.92754 2.54787 0
M  V30 338 H 32.2912 0.72427 3.65493 0
M  V30 339 H 32.4042 2.56772 4.04481 0
M  V30 340 H 30.7682 1.28238 2.20062 0
M  V30 341 H 31.5512 2.91014 1.82114 0
M  V30 342 N 33.9963 -1.19345 1.0293 0
M  V30 343 C 34.9263 -2.2481 0.631105 0
M  V30 344 C 35.9073 -1.66245 -0.360104 0
M  V30 345 O 37.0923 -1.92677 -0.242726 0
M  V30 346 C 34.2223 -3.47295 -0.0184607 0
M  V30 347 C 33.1763 -4.18536 0.895073 0
M  V30 348 C 32.5023 -5.34586 0.110592 0
M  V30 349 C 33.8023 -4.73287 2.209 0
M  V30 350 H 35.4963 -2.58372 1.51275 0
M  V30 351 H 33.0423 -1.24194 0.728818 0
M  V30 352 H 34.9953 -4.20268 -0.308675 0
M  V30 353 H 33.7193 -3.12933 -0.934907 0
M  V30 354 H 32.3783 -3.47446 1.16949 0
M  V30 355 H 32.0263 -4.96469 -0.807902 0
M  V30 356 H 31.7263 -5.83183 0.719087 0
M  V30 357 H 33.2503 -6.10355 -0.172871 0
M  V30 358 H 34.6643 -5.38013 1.98028 0
M  V30 359 H 33.0613 -5.32373 2.76946 0
M  V30 360 H 34.1313 -3.91331 2.86336 0
M  V30 361 N 35.4744 -0.807222 -1.35358 0
M  V30 362 C 36.7514 -0.311126 -1.9311 0
M  V30 363 C 37.1314 1.19937 -1.73719 0
M  V30 364 O 36.4794 1.99918 -1.10657 0
M  V30 365 C 36.6894 -0.723226 -3.41424 0
M  V30 366 C 38.0374 -0.713078 -4.18569 0
M  V30 367 O 39.0614 -0.664811 -3.49941 0
M  V30 368 O 37.9204 -0.772022 -5.41019 0
M  V30 369 H 35.0144 -0.081526 -0.822972 0
M  V30 370 H 37.5604 -0.890962 -1.4443 0
M  V30 371 H 36.3324 -1.76426 -3.4927 0
M  V30 372 H 35.9554 -0.118232 -3.97424 0
M  V30 373 N 36.9525 1.47285 -0.560781 0
M  V30 374 C 37.8825 2.32857 0.173105 0
M  V30 375 C 38.8635 1.44009 0.905281 0
M  V30 376 O 40.0485 1.7286 0.885046 0
M  V30 377 C 37.1785 3.25861 1.20133 0
M  V30 378 C 36.1325 4.23978 0.585388 0
M  V30 379 C 35.4585 5.06332 1.7185 0
M  V30 380 C 36.7585 5.20242 -0.463178 0
M  V30 381 H 38.4525 2.94466 -0.541307 0
M  V30 382 H 35.9985 1.41601 -0.261764 0
M  V30 383 H 37.9515 3.84569 1.72293 0
M  V30 384 H 36.6755 2.62315 1.94573 0
M  V30 385 H 35.3345 3.66501 0.085054 0
M  V30 386 H 34.9825 4.39186 2.45203 0
M  V30 387 H 34.6825 5.72762 1.31213 0
M  V30 388 H 36.2065 5.67899 2.24329 0
M  V30 389 H 37.6205 5.73293 -0.027502 0
M  V30 390 H 36.0175 5.94896 -0.788627 0
M  V30 391 H 37.0875 4.65504 -1.35773 0
M  V30 392 N 38.4306 0.297415 1.54768 0
M  V30 393 C 39.8466 -0.0560823 1.59501 0
M  V30 394 C 40.0466 -1.52725 1.31444 0
M  V30 395 O 39.1026 -2.27947 1.08611 0
M  V30 396 C 40.4156 0.338631 2.98787 0
M  V30 397 C 41.9636 0.287097 3.11681 0
M  V30 398 C 42.4386 0.656579 4.53269 0
M  V30 399 N 43.9296 0.608977 4.59179 0
M  V30 400 C 44.6646 0.867385 5.66802 0
M  V30 401 N 44.1606 1.19157 6.82476 0
M  V30 402 N 45.9536 0.794687 5.56454 0
M  V30 403 H 38.1046 1.25624 1.71267 0
M  V30 404 H 40.3676 0.509057 0.799728 0
M  V30 405 H 40.0736 1.36263 3.2423 0
M  V30 406 H 39.9476 -0.309508 3.75928 0
M  V30 407 H 42.3346 -0.727649 2.85988 0
M  V30 408 H 42.4156 0.969809 2.36703 0
M  V30 409 H 42.0596 1.66912 4.7969 0
M  V30 410 H 41.9896 -0.0481649 5.26578 0
M  V30 411 H 44.4806 0.369198 3.76092 0
M  V30 412 H 44.7936 1.37482 7.60473 0
M  V30 413 H 43.1386 1.22958 6.84037 0
M  V30 414 H 46.3296 0.541098 4.64962 0
M  V30 415 H 46.5026 0.999445 6.40246 0
M  V30 416 N 39.9087 -1.5758 0.0250728 0
M  V30 417 C 41.1367 -1.9593 -0.664747 0
M  V30 418 C 41.5517 -0.901352 -1.65895 0
M  V30 419 O 40.9087 0.117255 -1.82123 0
M  V30 420 C 40.9597 -3.34342 -1.37468 0
M  V30 421 O 40.6807 -4.36079 -0.420324 0
M  V30 422 C 42.1817 -3.873 -2.1567 0
M  V30 423 H 39.4017 -0.645405 -0.183557 0
M  V30 424 H 41.9457 -2.04329 0.0836372 0
M  V30 425 H 40.1007 -3.27175 -2.0745 0
M  V30 426 H 40.5147 -5.16297 -0.923991 0
M  V30 427 H 41.9887 -4.86504 -2.60803 0
M  V30 428 H 42.4657 -3.21331 -2.99405 0
M  V30 429 H 43.0717 -3.97723 -1.50654 0
M  V30 430 N 41.3868 0.248026 -1.55636 0
M  V30 431 C 42.6638 0.998988 -1.68165 0
M  V30 432 C 43.0438 2.03409 -0.564621 0
M  V30 433 O 42.3918 2.24378 0.432076 0
M  V30 434 C 42.6018 1.63334 -3.0842 0
M  V30 435 C 43.9498 2.13562 -3.66983 0
M  V30 436 O 44.9738 1.73277 -3.11213 0
M  V30 437 O 43.8328 2.87526 -4.64749 0
M  V30 438 H 40.9268 0.464933 -0.683935 0
M  V30 439 H 43.4728 0.241902 -1.67967 0
M  V30 440 H 42.2448 0.884583 -3.8117 0
M  V30 441 H 41.8678 2.45666 -3.12624 0
M  V30 442 N 42.8649 1.48995 0.513639 0
M  V30 443 C 43.7949 1.67636 1.62544 0
M  V30 444 C 44.7759 0.525087 1.61793 0
M  V30 445 O 45.9609 0.759502 1.78732 0
M  V30 446 C 43.0909 1.73114 3.01079 0
M  V30 447 C 42.0449 2.87905 3.16693 0
M  V30 448 C 41.3709 2.78486 4.56453 0
M  V30 449 C 42.6709 4.29005 2.97913 0
M  V30 450 H 44.3649 2.60716 1.47198 0
M  V30 451 H 41.9109 1.25465 0.706714 0
M  V30 452 H 43.8639 1.84742 3.78746 0
M  V30 453 H 42.5879 0.766241 3.17484 0
M  V30 454 H 41.2469 2.75859 2.41448 0
M  V30 455 H 40.8949 1.7993 4.69717 0
M  V30 456 H 40.5949 3.55523 4.67843 0
M  V30 457 H 42.1189 2.92104 5.36197 0
M  V30 458 H 43.5329 4.41798 3.65359 0
M  V30 459 H 41.9299 5.07166 3.20785 0
M  V30 460 H 42.9999 4.44329 1.94165 0
M  V30 461 N 44.343 -0.763751 1.37857 0
M  V30 462 C 45.759 -1.06542 1.18832 0
M  V30 463 C 45.959 -2.01478 0.0299722 0
M  V30 464 O 45.015 -2.4458 -0.627447 0
M  V30 465 C 46.328 -1.65525 2.51042 0
M  V30 466 C 47.876 -1.77745 2.57635 0
M  V30 467 C 48.351 -2.4014 3.89996 0
M  V30 468 N 49.842 -2.47582 3.91481 0
M  V30 469 C 50.577 -2.96732 4.9065 0
M  V30 470 N 50.073 -3.45993 6.00217 0
M  V30 471 N 51.866 -2.95679 4.78048 0
M  V30 472 H 44.017 -0.133556 2.1198 0
M  V30 473 H 46.28 -0.121879 0.940133 0
M  V30 474 H 45.986 -1.03236 3.36207 0
M  V30 475 H 45.86 -2.64719 2.68707 0
M  V30 476 H 48.247 -2.39164 1.72872 0
M  V30 477 H 48.328 -0.772836 2.43846 0
M  V30 478 H 47.972 -1.79358 4.75177 0
M  V30 479 H 47.902 -3.41223 4.01092 0
M  V30 480 H 50.393 -2.1273 3.12337 0
M  V30 481 H 50.706 -3.81922 6.7183 0
M  V30 482 H 49.051 -3.44077 6.03851 0
M  V30 483 H 52.242 -2.56499 3.91568 0
M  V30 484 H 52.415 -3.33672 5.55488 0
M  V30 485 N 45.8211 -1.22559 -0.990812 0
M  V30 486 C 46.7541 -0.940773 -2.07905 0
M  V30 487 C 47.7321 0.117082 -1.62178 0
M  V30 488 O 48.9161 -0.0149506 -1.88494 0
M  V30 489 C 46.0431 -0.415321 -3.36144 0
M  V30 490 C 45.0891 -1.45818 -4.00799 0
M  V30 491 S 45.9221 -3.03219 -4.41382 0
M  V30 492 C 47.0781 -2.52317 -5.72789 0
M  V30 493 H 47.3111 -1.8623 -2.31745 0
M  V30 494 H 44.8441 -1.05688 -1.12558 0
M  V30 495 H 46.8021 -0.118747 -4.10328 0
M  V30 496 H 45.4631 0.485121 -3.10331 0
M  V30 497 H 44.6561 -1.04044 -4.93144 0
M  V30 498 H 44.2581 -1.70356 -3.32949 0
M  V30 499 H 46.5501 -1.93688 -6.49224 0
M  V30 500 H 47.4931 -3.43161 -6.19392 0
M  V30 501 H 47.9011 -1.93529 -5.30289 0
M  V30 502 N 47.2992 1.18797 -1.03562 0
M  V30 503 C 48.2322 2.2105 -0.56676 0
M  V30 504 C 49.2102 1.57704 0.395993 0
M  V30 505 O 50.3942 1.85908 0.311498 0
M  V30 506 C 47.5212 3.38259 0.172704 0
M  V30 507 C 46.5672 4.19987 -0.74252 0
M  V30 508 S 47.4002 4.87199 -2.22254 0
M  V30 509 C 48.5562 6.07813 -1.49379 0
M  V30 510 H 48.7892 2.60478 -1.43312 0
M  V30 511 H 46.3222 1.29151 -0.846133 0
M  V30 512 H 48.2802 4.06191 0.593191 0
M  V30 513 H 46.9412 2.97252 1.01488 0
M  V30 514 H 46.1342 5.03709 -0.171265 0
M  V30 515 H 45.7362 3.57408 -1.10163 0
M  V30 516 H 48.0282 6.72948 -0.784056 0
M  V30 517 H 48.9712 6.69435 -2.30786 0
M  V30 518 H 49.3792 5.55781 -0.988331 0
M  V30 519 N 48.7773 0.814389 1.34928 0
M  V30 520 C 49.7103 0.175641 2.27523 0
M  V30 521 C 50.6883 -0.662953 1.48471 0
M  V30 522 O 51.8723 -0.628545 1.77712 0
M  V30 523 C 48.9993 -0.755516 3.30166 0
M  V30 524 C 48.0453 0.00445305 4.265 0
M  V30 525 S 48.8783 1.34582 5.18313 0
M  V30 526 C 50.0343 0.419315 6.24494 0
M  V30 527 H 50.2673 0.960691 2.8135 0
M  V30 528 H 47.8003 0.609846 1.41846 0
M  V30 529 H 49.7583 -1.28723 3.89796 0
M  V30 530 H 48.4193 -1.51402 2.75202 0
M  V30 531 H 47.6123 -0.703077 4.99072 0
M  V30 532 H 47.2143 0.466447 3.7108 0
M  V30 533 H 49.5063 -0.392432 6.76362 0
M  V30 534 H 50.4493 1.11446 6.99275 0
M  V30 535 H 50.8573 0.0115389 5.64499 0
M  V30 536 N 50.2554 -1.46986 0.568584 0
M  V30 537 C 51.6664 -1.86188 0.138219 0
M  V30 538 C 52.0174 -1.47388 -1.29504 0
M  V30 539 O 51.1424 -0.88219 -1.97602 0
M  V30 540 C 51.7374 -3.3792 0.244065 0
M  V30 541 C 50.2964 -3.76171 -0.131335 0
M  V30 542 C 49.4434 -2.71027 0.586465 0
M  V30 543 H 52.3944 -1.38342 0.777645 0
M  V30 544 H 52.4154 -3.76729 -0.534351 0
M  V30 545 H 51.9274 -3.66128 1.28731 0
M  V30 546 H 50.0284 -3.5358 -1.17526 0
M  V30 547 H 50.1414 -4.78523 0.235146 0
M  V30 548 H 48.5054 -2.54684 0.0282722 0
M  V30 549 H 49.2884 -3.02077 1.63109 0
M  V30 550 N 51.7335 -0.305618 -1.54608 0
M  V30 551 C 52.9795 0.302746 -2.00528 0
M  V30 552 C 53.3125 1.53184 -1.19367 0
M  V30 553 O 52.5875 1.92598 -0.271321 0
M  V30 554 C 52.8705 0.654756 -3.54097 0
M  V30 555 C 52.7235 -0.583793 -4.45995 0
M  V30 556 C 54.0425 1.47947 -4.14487 0
M  V30 557 H 51.1615 0.108564 -0.72896 0
M  V30 558 H 53.8035 -0.418634 -1.85331 0
M  V30 559 H 51.9535 1.26935 -3.67178 0
M  V30 560 H 53.6255 -1.22224 -4.44814 0
M  V30 561 H 51.8685 -1.21615 -4.16404 0
M  V30 562 H 52.5395 -0.293287 -5.5122 0
M  V30 563 H 55.0155 0.96013 -4.04871 0
M  V30 564 H 53.8915 1.69454 -5.22088 0
M  V30 565 H 54.1525 2.47011 -3.66658 0
M  V30 566 N 53.2116 1.57565 -0.0334293 0
M  V30 567 C 54.4576 1.92262 0.645226 0
M  V30 568 C 54.7906 0.910543 1.71531 0
M  V30 569 O 54.0656 -0.066099 1.94388 0
M  V30 570 C 54.3486 3.37422 1.2577 0
M  V30 571 C 54.2016 4.49369 0.196891 0
M  V30 572 C 55.5206 3.82628 2.17449 0
M  V30 573 H 52.6396 0.699171 0.233085 0
M  V30 574 H 55.2816 1.89779 -0.0915694 0
M  V30 575 H 53.4316 3.39669 1.88566 0
M  V30 576 H 55.1036 4.59254 -0.433962 0
M  V30 577 H 53.3466 4.31168 -0.477137 0
M  V30 578 H 54.0176 5.47978 0.665124 0
M  V30 579 H 56.4936 3.82145 1.64634 0
M  V30 580 H 55.3696 4.84883 2.57254 0
M  V30 581 H 55.6306 3.18376 3.0674 0
M  V30 582 N 54.6897 -0.239769 1.55765 0
M  V30 583 C 55.9667 -0.990056 1.68693 0
M  V30 584 C 56.3467 -2.03107 0.5754 0
M  V30 585 O 55.6947 -2.24604 -0.42017 0
M  V30 586 C 55.9047 -1.61696 3.09282 0
M  V30 587 C 57.2527 -2.11613 3.6811 0
M  V30 588 O 58.2767 -1.71624 3.12127 0
M  V30 589 O 57.1357 -2.85057 4.66267 0
M  V30 590 H 54.2297 -0.461299 0.686391 0
M  V30 591 H 56.7757 -0.232991 1.68093 0
M  V30 592 H 55.5477 -0.864357 3.81634 0
M  V30 593 H 55.1707 -2.44005 3.13923 0
M  V30 594 N 56.1678 -1.49265 -0.50573 0
M  V30 595 C 57.5788 -1.51769 -1.08734 0
M  V30 596 C 57.9298 -0.301192 -1.93874 0
M  V30 597 O 57.0548 0.589456 -2.08217 0
M  V30 598 C 57.6498 -2.75017 -1.97867 0
M  V30 599 C 56.2088 -2.80314 -2.51199 0
M  V30 600 C 55.3558 -2.4562 -1.28709 0
M  V30 601 H 58.3068 -1.56031 -0.289855 0
M  V30 602 H 58.3278 -2.5491 -2.82491 0
M  V30 603 H 57.8398 -3.63539 -1.35873 0
M  V30 604 H 55.9408 -1.96061 -3.16845 0
M  V30 605 H 56.0538 -3.82366 -2.88675 0
M  V30 606 H 54.4178 -1.97297 -1.61078 0
M  V30 607 H 55.2008 -3.36411 -0.6843 0
M  V30 608 N 57.6459 0.756429 -1.3826 0
M  V30 609 C 58.8919 1.51772 -1.34511 0
M  V30 610 C 59.2249 1.94089 0.0656691 0
M  V30 611 O 58.4999 1.65221 1.02626 0
M  V30 612 C 58.7829 2.77226 -2.29821 0
M  V30 613 C 58.6359 2.41065 -3.79747 0
M  V30 614 C 59.9549 3.79236 -2.23312 0
M  V30 615 H 57.0739 0.550578 -0.489931 0
M  V30 616 H 59.7159 0.866607 -1.69086 0
M  V30 617 H 57.8659 3.32784 -2.00467 0
M  V30 618 H 59.5379 1.91303 -4.19763 0
M  V30 619 H 57.7809 1.7356 -3.97567 0
M  V30 620 H 58.4519 3.3081 -4.41892 0
M  V30 621 H 60.9279 3.3321 -2.49219 0
M  V30 622 H 59.8039 4.64714 -2.92116 0
M  V30 623 H 60.0649 4.24615 -1.23102 0
M  V30 624 N 59.124 1.23083 0.984299 0
M  V30 625 C 60.37 1.06214 1.72761 0
M  V30 626 C 60.703 -0.400584 1.90024 0
M  V30 627 O 59.978 -1.29672 1.44967 0
M  V30 628 C 60.261 1.78375 3.12817 0
M  V30 629 C 60.114 3.32296 3.03149 0
M  V30 630 C 61.433 1.54309 4.12161 0
M  V30 631 H 58.552 0.387251 0.627061 0
M  V30 632 H 61.194 1.51536 1.14616 0
M  V30 633 H 59.344 1.39848 3.62457 0
M  V30 634 H 61.016 3.8032 2.61064 0
M  V30 635 H 59.259 3.6153 2.39747 0
M  V30 636 H 59.93 3.77972 4.02295 0
M  V30 637 H 62.406 1.87791 3.71314 0
M  V30 638 H 61.282 2.07281 5.08258 0
M  V30 639 H 61.543 0.477572 4.39513 0
M  V30 640 N 60.6021 -1.18246 1.0419 0
M  V30 641 C 62.0181 -1.40269 0.761366 0
M  V30 642 C 62.2181 -1.90777 -0.648578 0
M  V30 643 O 61.2741 -2.0929 -1.41258 0
M  V30 644 C 62.5871 -2.40237 1.8085 0
M  V30 645 C 64.1351 -2.53961 1.82955 0
M  V30 646 C 64.6101 -3.57194 2.86664 0
M  V30 647 N 66.1011 -3.64702 2.85563 0
M  V30 648 C 66.8361 -4.44309 3.6246 0
M  V30 649 N 66.3321 -5.27514 4.49111 0
M  V30 650 N 68.1251 -4.39084 3.50944 0
M  V30 651 H 60.2761 -0.837882 1.95175 0
M  V30 652 H 62.5391 -0.430608 0.84456 0
M  V30 653 H 62.2451 -2.10176 2.81991 0
M  V30 654 H 62.1191 -3.39601 1.64168 0
M  V30 655 H 64.5061 -2.83338 0.824855 0
M  V30 656 H 64.5871 -1.54706 2.03715 0
M  V30 657 H 64.2311 -3.28558 3.87314 0
M  V30 658 H 64.1611 -4.5613 2.6316 0
M  V30 659 H 66.6521 -3.05289 2.22727 0
M  V30 660 H 66.9651 -5.85411 5.04493 0
M  V30 661 H 65.3101 -5.2693 4.53178 0
M  V30 662 H 68.5011 -3.7313 2.82651 0
M  V30 663 H 68.6741 -5.00883 4.11121 0
M  V30 664 N 62.0802 -0.821533 -1.34494 0
M  V30 665 C 62.9902 -0.244355 -2.33324 0
M  V30 666 C 64.0062 0.620527 -1.62559 0
M  V30 667 O 65.1822 0.528754 -1.94335 0
M  V30 668 C 62.2472 0.585368 -3.41723 0
M  V30 669 C 61.3082 -0.301752 -4.28238 0
M  V30 670 C 60.5412 0.488466 -5.3146 0
M  V30 671 O 60.7642 1.72186 -5.4379 0
M  V30 672 O 59.6982 -0.12848 -6.01763 0
M  V30 673 H 63.5242 -1.06231 -2.84515 0
M  V30 674 H 61.1092 -0.583645 -1.37528 0
M  V30 675 H 62.9912 1.05747 -4.07916 0
M  V30 676 H 61.6662 1.38068 -2.92778 0
M  V30 677 H 60.5732 -0.821315 -3.64973 0
M  V30 678 H 61.9062 -1.06138 -4.8062 0
M  V30 679 N 63.5583 1.46682 -0.576371 0
M  V30 680 C 64.5053 2.30241 0.160499 0
M  V30 681 C 65.4753 1.40233 0.890162 0
M  V30 682 O 66.6603 1.69186 0.882084 0
M  V30 683 C 63.8003 3.24578 1.1723 0
M  V30 684 C 62.9133 4.29684 0.446736 0
M  V30 685 C 62.0483 5.11154 1.44551 0
M  V30 686 C 61.0873 6.08015 0.70599 0
M  V30 687 N 60.2243 6.82376 1.65251 0
M  V30 688 H 65.0643 2.92727 -0.558127 0
M  V30 689 H 62.6013 1.44272 -0.287056 0
M  V30 690 H 64.5593 3.77711 1.77172 0
M  V30 691 H 63.1893 2.63916 1.85872 0
M  V30 692 H 62.2413 3.79458 -0.267594 0
M  V30 693 H 63.5533 4.98626 -0.131686 0
M  V30 694 H 62.7073 5.68533 2.11791 0
M  V30 695 H 61.4463 4.42158 2.05786 0
M  V30 696 H 60.4513 5.49796 0.0197725 0
M  V30 697 H 61.6763 6.79028 0.09912 0
M  V30 698 H 59.6223 6.16094 2.25308 0
M  V30 699 H 59.5393 7.47556 1.12673 0
M  V30 700 H 60.8073 7.44316 2.31546 0
M  V30 701 N 65.0364 0.313813 1.54444 0
M  V30 702 C 65.9684 -0.590425 2.21465 0
M  V30 703 C 66.9814 -1.08753 1.21147 0
M  V30 704 O 68.1704 -1.00278 1.4767 0
M  V30 705 C 65.2704 -1.82179 2.85769 0
M  V30 706 C 64.4434 -1.46502 4.12136 0
M  V30 707 C 63.5024 -2.55288 4.60124 0
M  V30 708 O 62.5284 -2.19842 5.25032 0
M  V30 709 N 63.7304 -3.86053 4.33525 0
M  V30 710 H 66.4954 -0.0166033 2.99695 0
M  V30 711 H 64.0564 0.136578 1.61323 0
M  V30 712 H 66.0484 -2.54328 3.14801 0
M  V30 713 H 64.6184 -2.30369 2.11303 0
M  V30 714 H 63.8384 -0.575595 3.89975 0
M  V30 715 H 65.1264 -1.20221 4.94393 0
M  V30 716 H 64.5244 -4.17654 3.81552 0
M  V30 717 H 63.0814 -4.54461 4.67235 0
M  V30 718 N 66.5145 -1.57545 0.0417849 0
M  V30 719 C 67.4445 -2.14009 -0.933929 0
M  V30 720 C 68.4255 -1.05938 -1.33083 0
M  V30 721 O 69.6105 -1.33833 -1.40721 0
M  V30 722 C 66.7405 -2.67747 -2.21199 0
M  V30 723 C 65.6945 -3.80718 -1.95544 0
M  V30 724 C 65.0205 -4.20935 -3.29724 0
M  V30 725 C 66.3205 -5.06258 -1.28452 0
M  V30 726 H 68.0145 -2.95788 -0.463645 0
M  V30 727 H 65.5605 -1.42285 -0.221573 0
M  V30 728 H 67.5135 -3.05886 -2.89848 0
M  V30 729 H 66.2375 -1.83147 -2.70416 0
M  V30 730 H 64.8965 -3.43037 -1.2931 0
M  V30 731 H 64.5445 -3.33298 -3.76724 0
M  V30 732 H 64.2445 -4.9707 -3.13361 0
M  V30 733 H 65.7685 -4.61666 -3.9962 0
M  V30 734 H 67.1825 -5.41903 -1.8712 0
M  V30 735 H 65.5795 -5.87475 -1.22445 0
M  V30 736 H 66.6495 -4.84207 -0.259219 0
M  V30 737 N 67.9926 0.231505 -1.5589 0
M  V30 738 C 68.9246 1.31006 -1.8807 0
M  V30 739 C 69.9376 1.43539 -0.768145 0
M  V30 740 O 71.1266 1.44614 -1.04638 0
M  V30 741 C 68.2266 2.68688 -2.06543 0
M  V30 742 C 67.3996 2.78228 -3.37502 0
M  V30 743 C 66.4586 3.96857 -3.4553 0
M  V30 744 O 65.4846 3.85662 -4.18633 0
M  V30 745 N 66.6866 5.1072 -2.75944 0
M  V30 746 H 69.4516 1.03731 -2.81176 0
M  V30 747 H 67.0126 0.421573 -1.56315 0
M  V30 748 H 69.0046 3.46412 -2.09239 0
M  V30 749 H 67.5746 2.88605 -1.20109 0
M  V30 750 H 66.7946 1.87059 -3.46991 0
M  V30 751 H 68.0826 2.81564 -4.23791 0
M  V30 752 H 67.4806 5.2271 -2.16311 0
M  V30 753 H 66.0376 5.86523 -2.84314 0
M  V30 754 N 69.4707 1.49531 0.497807 0
M  V30 755 C 70.4027 1.62559 1.61578 0
M  V30 756 C 71.4157 0.508134 1.54667 0
M  V30 757 O 72.6047 0.780309 1.60541 0
M  V30 758 C 69.7047 1.56925 3.00379 0
M  V30 759 C 68.8777 2.84257 3.3244 0
M  V30 760 C 67.9367 2.71632 4.50669 0
M  V30 761 O 66.9627 3.4557 4.52294 0
M  V30 762 N 68.1647 1.83391 5.5077 0
M  V30 763 H 70.9297 2.58981 1.50828 0
M  V30 764 H 68.4907 1.4666 0.685743 0
M  V30 765 H 70.4827 1.46129 3.77397 0
M  V30 766 H 69.0527 0.683483 3.05037 0
M  V30 767 H 68.2727 3.09381 2.44289 0
M  V30 768 H 69.5607 3.68666 3.5066 0
M  V30 769 H 68.9587 1.22583 5.52259 0
M  V30 770 H 67.5157 1.78515 6.26878 0
M  V30 771 N 70.9488 -0.749086 1.3866 0
M  V30 772 C 71.8588 -1.89358 1.38494 0
M  V30 773 C 72.8748 -1.71708 0.281476 0
M  V30 774 O 74.0508 -1.94554 0.520643 0
M  V30 775 C 71.1158 -3.24782 1.21316 0
M  V30 776 C 70.1768 -3.54926 2.41508 0
M  V30 777 C 69.4098 -4.83888 2.2514 0
M  V30 778 O 69.6328 -5.56592 1.24746 0
M  V30 779 O 68.5668 -5.13612 3.13826 0
M  V30 780 H 72.3928 -1.92452 2.34938 0
M  V30 781 H 69.9778 -0.894981 1.19626 0
M  V30 782 H 71.8598 -4.05739 1.13814 0
M  V30 783 H 70.5348 -3.2249 0.279592 0
M  V30 784 H 69.4418 -2.74112 2.54585 0
M  V30 785 H 70.7748 -3.61983 3.3351 0
M  V30 786 N 72.4269 -1.23603 -0.977757 0
M  V30 787 C 73.3569 -1.04401 -2.0886 0
M  V30 788 C 74.3379 0.0399052 -1.70053 0
M  V30 789 O 75.5229 -0.125246 -1.93796 0
M  V30 790 C 72.6529 -0.637269 -3.41403 0
M  V30 791 C 71.6069 -1.66883 -3.94124 0
M  V30 792 C 70.9329 -1.11745 -5.22893 0
M  V30 793 C 72.2329 -3.06247 -4.23096 0
M  V30 794 H 73.9269 -1.97316 -2.25182 0
M  V30 795 H 71.4729 -0.950096 -1.08209 0
M  V30 796 H 73.4259 -0.48998 -4.18542 0
M  V30 797 H 72.1499 0.327557 -3.24953 0
M  V30 798 H 70.8089 -1.80416 -3.19133 0
M  V30 799 H 70.4569 -0.143527 -5.02795 0
M  V30 800 H 70.1569 -1.80672 -5.59134 0
M  V30 801 H 71.6809 -0.982067 -6.02651 0
M  V30 802 H 73.0949 -2.96001 -4.90975 0
M  V30 803 H 71.4919 -3.72436 -4.70544 0
M  V30 804 H 72.5619 -3.55041 -3.30263 0
M  V30 805 N 73.905 1.17692 -1.04816 0
M  V30 806 C 74.835 2.23777 -0.666791 0
M  V30 807 C 75.816 1.66796 0.33361 0
M  V30 808 O 77.001 1.93039 0.212042 0
M  V30 809 C 74.131 3.47281 -0.0367933 0
M  V30 810 C 73.085 4.17059 -0.961546 0
M  V30 811 C 72.411 5.34342 -0.195626 0
M  V30 812 C 73.711 4.69713 -2.28402 0
M  V30 813 H 75.405 2.55933 -1.55367 0
M  V30 814 H 72.951 1.23019 -0.748484 0
M  V30 815 H 74.904 4.20706 0.241775 0
M  V30 816 H 73.628 3.14381 0.885004 0
M  V30 817 H 72.287 3.45541 -1.22462 0
M  V30 818 H 71.935 4.97692 0.728816 0
M  V30 819 H 71.635 5.81966 -0.811775 0
M  V30 820 H 73.159 6.10553 0.0757473 0
M  V30 821 H 74.573 5.34794 -2.06563 0
M  V30 822 H 72.97 5.279 -2.8538 0
M  V30 823 H 74.04 3.86726 -2.92525 0
M  V30 824 N 75.3831 0.828654 1.34056 0
M  V30 825 C 76.3131 0.269443 2.3194 0
M  V30 826 C 77.2941 -0.617247 1.58506 0
M  V30 827 O 78.4791 -0.542931 1.86456 0
M  V30 828 C 75.6091 -0.564793 3.42677 0
M  V30 829 C 74.5631 0.225241 4.27407 0
M  V30 830 C 73.8891 -0.7321 5.29664 0
M  V30 831 C 75.1891 1.43663 5.02154 0
M  V30 832 H 76.8831 1.08728 2.7896 0
M  V30 833 H 74.4291 0.524283 1.34117 0
M  V30 834 H 76.3821 -0.966233 4.10173 0
M  V30 835 H 75.1061 -1.41574 2.9432 0
M  V30 836 H 73.7651 0.608117 3.61521 0
M  V30 837 H 73.4131 -1.57916 4.77568 0
M  V30 838 H 73.1131 -0.20767 5.87233 0
M  V30 839 H 74.6371 -1.13128 6.00029 0
M  V30 840 H 76.0511 1.1089 5.62473 0
M  V30 841 H 74.4481 1.89711 5.69324 0
M  V30 842 H 75.5181 2.21181 4.31517 0
M  V30 843 N 76.8612 -1.46375 0.584142 0
M  V30 844 C 78.1102 -2.01585 0.0679741 0
M  V30 845 C 78.4232 -1.46109 -1.30045 0
M  V30 846 O 79.6292 -1.93148 -1.90804 0
M  V30 847 C 78.0852 -3.5983 0.0709207 0
M  V30 848 C 77.6932 -4.24303 1.43775 0
M  V30 849 C 79.4372 -4.22693 -0.391228 0
M  V30 850 C 77.3442 -5.74631 1.39834 0
M  V30 851 H 76.2742 -0.753689 0.0216421 0
M  V30 852 H 78.9252 -1.68093 0.736001 0
M  V30 853 H 77.3072 -3.90405 -0.663299 0
M  V30 854 H 78.4812 -4.05335 2.19181 0
M  V30 855 H 76.7962 -3.73539 1.84004 0
M  V30 856 H 79.3932 -5.3289 -0.439524 0
M  V30 857 H 79.7362 -3.91728 -1.40906 0
M  V30 858 H 80.2692 -3.96749 0.288974 0
M  V30 859 H 77.0082 -6.10258 2.39303 0
M  V30 860 H 76.5282 -5.95858 0.686505 0
M  V30 861 H 78.2072 -6.37375 1.11187 0
M  V30 862 N 78.3393 -0.321999 -1.54275 0
M  V30 863 C 79.2713 0.578671 -2.21775 0
M  V30 864 C 80.2843 1.08109 -1.21722 0
M  V30 865 O 81.4733 0.994938 -1.482 0
M  V30 866 C 78.5733 1.80661 -2.86731 0
M  V30 867 C 77.7463 1.44314 -4.12907 0
M  V30 868 C 76.8053 2.52845 -4.61472 0
M  V30 869 O 75.8313 2.17054 -5.2619 0
M  V30 870 N 77.0333 3.83748 -4.35566 0
M  V30 871 H 79.7983 0.000709447 -2.997 0
M  V30 872 H 77.3593 -0.145132 -1.61248 0
M  V30 873 H 79.3513 2.52655 -3.16145 0
M  V30 874 H 77.9213 2.29245 -2.12521 0
M  V30 875 H 77.1413 0.554906 -3.90275 0
M  V30 876 H 78.4293 1.17598 -4.95023 0
M  V30 877 H 77.8273 4.15625 -3.83761 0
M  V30 878 H 76.3843 4.51977 -4.69638 0
M  V30 879 N 79.8174 1.5752 -0.0501392 0
M  V30 880 C 80.7494 2.08413 0.95376 0
M  V30 881 C 81.7624 1.01175 1.27544 0
M  V30 882 O 82.9514 1.28744 1.23641 0
M  V30 883 C 80.0514 2.51138 2.27559 0
M  V30 884 C 79.2244 3.817 2.13598 0
M  V30 885 C 78.2834 4.10749 3.28895 0
M  V30 886 O 77.3094 4.80685 3.04845 0
M  V30 887 N 78.5114 3.62579 4.5334 0
M  V30 888 H 81.2764 2.95165 0.519383 0
M  V30 889 H 78.8374 1.61327 0.136127 0
M  V30 890 H 80.8294 2.67648 3.03557 0
M  V30 891 H 79.3994 1.6964 2.62567 0
M  V30 892 H 78.6194 3.74782 1.22197 0
M  V30 893 H 79.9074 4.67201 2.01496 0
M  V30 894 H 79.3054 3.06039 4.75769 0
M  V30 895 H 77.8624 3.84329 5.26436 0
M  V30 896 N 81.2955 -0.223234 1.56011 0
M  V30 897 C 82.2275 -1.30006 1.88762 0
M  V30 898 C 83.2405 -1.43129 0.775746 0
M  V30 899 O 84.4295 -1.44057 1.05403 0
M  V30 900 C 81.5295 -2.67589 2.07965 0
M  V30 901 C 80.7025 -2.76434 3.38973 0
M  V30 902 C 79.7615 -3.95019 3.47629 0
M  V30 903 O 78.7875 -3.83436 4.20672 0
M  V30 904 N 79.9895 -5.09249 2.78649 0
M  V30 905 H 82.7545 -1.02238 2.81722 0
M  V30 906 H 80.3155 -0.413278 1.56536 0
M  V30 907 H 82.3075 -3.45297 2.11073 0
M  V30 908 H 80.8775 -2.87964 1.21638 0
M  V30 909 H 80.0975 -1.85216 3.47978 0
M  V30 910 H 81.3855 -2.79313 4.25278 0
M  V30 911 H 80.7835 -5.21556 2.19081 0
M  V30 912 H 79.3405 -5.85007 2.8742 0
M  V30 913 N 82.7736 -1.49793 -0.48987 0
M  V30 914 C 83.7056 -1.63413 -1.60713 0
M  V30 915 C 84.7186 -0.516329 -1.54395 0
M  V30 916 O 85.9076 -0.788812 -1.60125 0
M  V30 917 C 83.0076 -1.58516 -2.99543 0
M  V30 918 C 82.1806 -2.86016 -3.30928 0
M  V30 919 C 81.2396 -2.74018 -4.49222 0
M  V30 920 O 80.2656 -3.47964 -4.50455 0
M  V30 921 N 81.4676 -1.86309 -5.4979 0
M  V30 922 H 84.2326 -2.59777 -1.49452 0
M  V30 923 H 81.7936 -1.47022 -0.677955 0
M  V30 924 H 83.7856 -1.48128 -3.76617 0
M  V30 925 H 82.3556 -0.69965 -3.0467 0
M  V30 926 H 81.5756 -3.10672 -2.42645 0
M  V30 927 H 82.8636 -3.70521 -3.487 0
M  V30 928 H 82.2616 -1.2551 -5.51601 0
M  V30 929 H 80.8186 -1.81837 -6.25922 0
M  V30 930 N 84.2517 0.741722 -1.39055 0
M  V30 931 C 85.1837 1.8657 -1.33133 0
M  V30 932 C 86.1967 1.61001 -0.241329 0
M  V30 933 O 87.3857 1.7136 -0.499784 0
M  V30 934 C 84.4857 3.22457 -1.04283 0
M  V30 935 C 83.6587 3.75435 -2.24427 0
M  V30 936 C 82.7177 4.89867 -1.92138 0
M  V30 937 O 81.7437 5.03879 -2.64754 0
M  V30 938 N 82.9457 5.73738 -0.88347 0
M  V30 939 H 85.7107 1.92156 -2.29991 0
M  V30 940 H 83.2717 0.922172 -1.3307 0
M  V30 941 H 85.2637 3.9657 -0.807128 0
M  V30 942 H 83.8337 3.12181 -0.161807 0
M  V30 943 H 83.0537 2.92751 -2.6399 0
M  V30 944 H 84.3417 4.07563 -3.04581 0
M  V30 945 H 83.7397 5.64999 -0.281517 0
M  V30 946 H 82.2967 6.47947 -0.707662 0
M  V30 947 N 85.7298 1.2412 0.971189 0
M  V30 948 C 86.9788 1.07284 1.70801 0
M  V30 949 C 87.2918 -0.388902 1.91695 0
M  V30 950 O 88.4978 -0.677379 2.62914 0
M  V30 951 C 86.9538 1.87145 3.07416 0
M  V30 952 C 86.5618 3.37707 2.94377 0
M  V30 953 C 88.3058 1.78828 3.84995 0
M  V30 954 C 86.2128 4.09925 4.26281 0
M  V30 955 H 85.1428 0.397854 0.64049 0
M  V30 956 H 87.7938 1.4817 1.0825 0
M  V30 957 H 86.1758 1.39071 3.70777 0
M  V30 958 H 87.3498 3.93335 2.4005 0
M  V30 959 H 85.6648 3.46938 2.30267 0
M  V30 960 H 88.2618 2.30089 4.82662 0
M  V30 961 H 88.6048 0.75284 4.09436 0
M  V30 962 H 89.1378 2.24563 3.28354 0
M  V30 963 H 85.8768 5.13813 4.07033 0
M  V30 964 H 85.3968 3.59083 4.80437 0
M  V30 965 H 87.0758 4.1673 4.94919 0
M  V30 966 N 87.2079 -1.17134 1.05439 0
M  V30 967 C 88.1399 -2.2078 0.615539 0
M  V30 968 C 89.1529 -1.59584 -0.322001 0
M  V30 969 O 90.3419 -1.78133 -0.114344 0
M  V30 970 C 87.4419 -3.38691 -0.118938 0
M  V30 971 C 86.6149 -4.29454 0.829924 0
M  V30 972 C 85.6739 -5.26024 0.136258 0
M  V30 973 O 84.6999 -5.63952 0.77115 0
M  V30 974 N 85.9019 -5.69487 -1.1254 0
M  V30 975 H 88.6669 -2.59052 1.50705 0
M  V30 976 H 86.2279 -1.32058 0.936603 0
M  V30 977 H 88.2199 -4.00329 -0.593179 0
M  V30 978 H 86.7899 -2.98996 -0.91215 0
M  V30 979 H 86.0099 -3.65211 1.48373 0
M  V30 980 H 87.2979 -4.86984 1.47392 0
M  V30 981 H 86.6959 -5.4075 -1.6615 0
M  V30 982 H 85.2529 -6.33257 -1.54366 0
M  V30 983 N 88.686 -0.835752 -1.33615 0
M  V30 984 C 89.633 -0.26473 -2.29277 0
M  V30 985 C 90.603 0.617712 -1.54187 0
M  V30 986 O 91.788 0.556641 -1.825 0
M  V30 987 C 88.928 0.556777 -3.40579 0
M  V30 988 C 88.041 -0.349339 -4.30585 0
M  V30 989 C 87.176 0.482969 -5.29 0
M  V30 990 C 86.215 -0.421732 -6.10645 0
M  V30 991 N 85.352 0.372262 -7.01112 0
M  V30 992 H 90.192 -1.08582 -2.77514 0
M  V30 993 H 87.729 -0.546927 -1.36554 0
M  V30 994 H 89.687 1.04852 -4.03809 0
M  V30 995 H 88.317 1.34286 -2.93542 0
M  V30 996 H 87.369 -0.959372 -3.68104 0
M  V30 997 H 88.681 -1.04445 -4.87742 0
M  V30 998 H 87.835 1.03866 -5.97743 0
M  V30 999 H 86.574 1.21153 -4.72412 0
M  V30 1000 H 85.579 -0.989464 -5.40823 0
M  V30 1001 H 86.804 -1.14861 -6.69316 0
M  V30 1002 H 84.75 1.08426 -6.46977 0
M  V30 1003 H 84.667 -0.264198 -7.55538 0
M  V30 1004 H 85.935 0.910293 -7.74167 0
M  V30 1005 N 90.1641 1.46063 -0.591896 0
M  V30 1006 C 91.0961 2.28539 0.174001 0
M  V30 1007 C 92.1091 1.39047 0.846753 0
M  V30 1008 O 93.2981 1.63564 0.714774 0
M  V30 1009 C 90.3981 3.14347 1.26645 0
M  V30 1010 C 89.5711 4.32021 0.683856 0
M  V30 1011 C 88.6301 4.99157 1.66518 0
M  V30 1012 O 87.6561 5.56458 1.19763 0
M  V30 1013 N 88.8581 4.97005 2.99943 0
M  V30 1014 H 91.6231 2.94911 -0.533633 0
M  V30 1015 H 89.1841 1.56077 -0.430294 0
M  V30 1016 H 91.1761 3.56125 1.92242 0
M  V30 1017 H 89.7461 2.49988 1.87682 0
M  V30 1018 H 88.9661 3.93915 -0.1498 0
M  V30 1019 H 90.2541 5.08059 0.274567 0
M  V30 1020 H 89.6521 4.51714 3.40545 0
M  V30 1021 H 88.2091 5.42696 3.61004 0
M  V30 1022 N 91.6422 0.330177 1.54103 0
M  V30 1023 C 92.5722 -0.525353 2.27513 0
M  V30 1024 C 93.5532 -1.11383 1.2856 0
M  V30 1025 O 94.7382 -1.13773 1.57383 0
M  V30 1026 C 91.8682 -1.6831 3.03791 0
M  V30 1027 C 90.8222 -1.2236 4.10137 0
M  V30 1028 C 90.1482 -2.46882 4.74293 0
M  V30 1029 C 91.4482 -0.333697 5.21233 0
M  V30 1030 H 93.1422 0.087013 2.99274 0
M  V30 1031 H 90.6882 0.0432893 1.43935 0
M  V30 1032 H 92.6412 -2.28795 3.5388 0
M  V30 1033 H 91.3652 -2.32216 2.29659 0
M  V30 1034 H 90.0242 -0.64165 3.60941 0
M  V30 1035 H 89.6722 -3.09165 3.96769 0
M  V30 1036 H 89.3722 -2.16825 5.46133 0
M  V30 1037 H 90.8962 -3.08117 5.27159 0
M  V30 1038 H 92.3102 -0.845013 5.67038 0
M  V30 1039 H 90.7072 -0.125612 5.99969 0
M  V30 1040 H 91.7772 0.633724 4.80741 0
M  V30 1041 N 93.1203 -1.57491 0.0584922 0
M  V30 1042 C 94.0503 -2.14988 -0.911178 0
M  V30 1043 C 95.0313 -1.07343 -1.31952 0
M  V30 1044 O 96.2163 -1.35318 -1.39294 0
M  V30 1045 C 93.3463 -2.70078 -2.18347 0
M  V30 1046 C 92.3003 -3.82771 -1.91495 0
M  V30 1047 C 91.6263 -4.24408 -3.25241 0
M  V30 1048 C 92.9263 -5.07592 -1.23075 0
M  V30 1049 H 94.6203 -2.96263 -0.432246 0
M  V30 1050 H 92.1663 -1.42512 -0.206469 0
M  V30 1051 H 94.1193 -3.08943 -2.86587 0
M  V30 1052 H 92.8433 -1.86005 -2.68458 0
M  V30 1053 H 91.5023 -3.44389 -1.25664 0
M  V30 1054 H 91.1503 -3.37275 -3.73168 0
M  V30 1055 H 90.8503 -5.00366 -3.08071 0
M  V30 1056 H 92.3743 -4.65879 -3.94701 0
M  V30 1057 H 93.7883 -5.43857 -1.81362 0
M  V30 1058 H 92.1853 -5.88741 -1.16207 0
M  V30 1059 H 93.2553 -4.84454 -0.207847 0
M  V30 1060 N 94.5984 0.214957 -1.56127 0
M  V30 1061 C 95.8474 0.936451 -1.78643 0
M  V30 1062 C 96.1604 1.85237 -0.628229 0
M  V30 1063 O 97.3664 2.613 -0.737186 0
M  V30 1064 C 95.8224 1.7154 -3.16389 0
M  V30 1065 C 95.4304 0.845299 -4.39953 0
M  V30 1066 C 97.1744 2.42772 -3.48227 0
M  V30 1067 C 95.0814 1.62198 -5.68723 0
M  V30 1068 H 94.0114 0.353401 -0.666051 0
M  V30 1069 H 96.6624 0.190169 -1.82512 0
M  V30 1070 H 95.0444 2.50484 -3.06715 0
M  V30 1071 H 96.2184 0.0959353 -4.607 0
M  V30 1072 H 94.5334 0.244789 -4.1568 0
M  V30 1073 H 97.1304 3.01394 -4.41663 0
M  V30 1074 H 97.4734 3.15984 -2.71035 0
M  V30 1075 H 98.0064 1.70813 -3.5926 0
M  V30 1076 H 94.7454 0.933011 -6.48826 0
M  V30 1077 H 94.2654 2.34579 -5.52026 0
M  V30 1078 H 95.9444 2.18095 -6.09133 0
M  V30 1079 N 96.0765 1.50051 0.48192 0
M  V30 1080 C 97.0395 1.67584 1.5636 0
M  V30 1081 C 98.0395 0.546894 1.51214 0
M  V30 1082 O 99.2295 0.813725 1.54026 0
M  V30 1083 C 96.3615 1.691 2.96003 0
M  V30 1084 H 97.5545 2.64078 1.42136 0
M  V30 1085 H 95.1075 1.39369 0.707533 0
M  V30 1086 H 95.8425 0.742589 3.15684 0
M  V30 1087 H 95.6275 2.51105 3.01146 0
M  V30 1088 H 97.1175 1.84656 3.74556 0
M  V30 1089 N 97.5546 -0.734337 1.39446 0
M  V30 1090 C 98.4646 -1.87879 1.40495 0
M  V30 1091 C 99.4806 -1.714 0.299672 0
M  V30 1092 O 100.657 -1.93991 0.541249 0
M  V30 1093 C 97.7216 -3.23477 1.24754 0
M  V30 1094 C 96.7826 -3.52344 2.45259 0
M  V30 1095 C 96.0156 -4.81473 2.30259 0
M  V30 1096 O 96.2386 -5.55237 1.30643 0
M  V30 1097 O 95.1726 -5.10254 3.19256 0
M  V30 1098 H 98.9986 -1.89949 2.36966 0
M  V30 1099 H 96.5836 -0.882243 1.20569 0
M  V30 1100 H 98.4656 -4.04509 1.18111 0
M  V30 1101 H 97.1406 -3.22176 0.313781 0
M  V30 1102 H 96.0476 -2.71396 2.57478 0
M  V30 1103 H 97.3806 -3.58426 3.37331 0
M  V30 1104 N 99.0327 -1.24633 -0.964593 0
M  V30 1105 C 100.28 -1.08788 -1.70796 0
M  V30 1106 C 100.608 0.372783 -1.90894 0
M  V30 1107 O 99.8627 1.29167 -1.47018 0
M  V30 1108 C 100.162 -1.7763 -3.10133 0
M  V30 1109 C 99.8277 -3.27557 -3.09866 0
M  V30 1110 C 98.4897 -3.6846 -3.09501 0
M  V30 1111 C 100.842 -4.23389 -3.03959 0
M  V30 1112 C 98.1697 -5.03624 -3.00965 0
M  V30 1113 C 100.522 -5.58565 -2.96965 0
M  V30 1114 C 99.1857 -5.98809 -2.9493 0
M  V30 1115 H 98.4557 -0.398084 -0.624988 0
M  V30 1116 H 101.103 -1.54777 -1.12767 0
M  V30 1117 H 99.4077 -1.24044 -3.71645 0
M  V30 1118 H 101.105 -1.62832 -3.66451 0
M  V30 1119 H 97.6947 -2.95006 -3.10917 0
M  V30 1120 H 101.879 -3.92787 -3.03368 0
M  V30 1121 H 97.1347 -5.33998 -2.97752 0
M  V30 1122 H 101.309 -6.32523 -2.91354 0
M  V30 1123 H 98.9357 -7.03505 -2.88071 0
M  V30 1124 N 100.511 1.16574 -1.06058 0
M  V30 1125 C 101.443 2.2045 -0.627239 0
M  V30 1126 C 102.456 1.59752 0.313534 0
M  V30 1127 O 103.645 1.78192 0.104896 0
M  V30 1128 C 100.745 3.3875 0.100974 0
M  V30 1129 C 99.9178 4.29008 -0.852687 0
M  V30 1130 C 98.9768 5.25944 -0.164152 0
M  V30 1131 O 98.0028 5.63535 -0.801047 0
M  V30 1132 N 99.2048 5.70075 1.09518 0
M  V30 1133 H 101.97 2.58249 -1.52077 0
M  V30 1134 H 99.5308 1.3156 -0.943594 0
M  V30 1135 H 101.523 4.00638 0.57194 0
M  V30 1136 H 100.093 2.99476 0.89628 0
M  V30 1137 H 99.3128 3.64419 -1.50308 0
M  V30 1138 H 100.601 4.86195 -1.49972 0
M  V30 1139 H 99.9988 5.41624 1.6328 0
M  V30 1140 H 98.5558 6.34067 1.51006 0
M  V30 1141 N 101.989 0.842826 1.3317 0
M  V30 1142 C 102.936 0.276885 2.29133 0
M  V30 1143 C 103.906 -0.609527 1.54512 0
M  V30 1144 O 105.091 -0.546955 1.82792 0
M  V30 1145 C 102.231 -0.538707 3.40869 0
M  V30 1146 C 101.344 0.372169 4.30394 0
M  V30 1147 C 100.479 -0.454908 5.29249 0
M  V30 1148 C 99.5179 0.45411 6.10413 0
M  V30 1149 N 98.6549 -0.335075 7.013 0
M  V30 1150 H 103.495 1.10052 2.76934 0
M  V30 1151 H 101.032 0.554161 1.36262 0
M  V30 1152 H 102.99 -1.02709 4.0436 0
M  V30 1153 H 101.62 -1.32727 2.9425 0
M  V30 1154 H 100.672 0.97888 3.6759 0
M  V30 1155 H 101.984 1.0703 4.87182 0
M  V30 1156 H 101.138 -1.00695 5.98285 0
M  V30 1157 H 99.8769 -1.18646 4.73048 0
M  V30 1158 H 98.8819 1.01813 5.40291 0
M  V30 1159 H 100.107 1.18409 6.68697 0
M  V30 1160 H 98.0529 -1.04994 6.47543 0
M  V30 1161 H 97.9699 0.304262 7.55387 0
M  V30 1162 H 99.2379 -0.869224 7.74638 0
M  V30 1163 N 103.467 -1.45747 0.599634 0
M  V30 1164 C 104.399 -2.28628 -0.161879 0
M  V30 1165 C 105.412 -1.39494 -0.839367 0
M  V30 1166 O 106.601 -1.63941 -0.706089 0
M  V30 1167 C 103.701 -3.15014 -1.24976 0
M  V30 1168 C 102.874 -4.32378 -0.660935 0
M  V30 1169 C 101.933 -5.00033 -1.63869 0
M  V30 1170 O 100.959 -5.57085 -1.1681 0
M  V30 1171 N 102.161 -4.98589 -2.97303 0
M  V30 1172 H 104.926 -2.94624 0.549265 0
M  V30 1173 H 102.487 -1.55847 0.438565 0
M  V30 1174 H 104.479 -3.5714 -1.9035 0
M  V30 1175 H 103.049 -2.5098 -1.86354 0
M  V30 1176 H 102.269 -3.9383 0.170688 0
M  V30 1177 H 103.557 -5.08197 -0.247619 0
M  V30 1178 H 102.955 -4.53514 -3.38145 0
M  V30 1179 H 101.512 -5.44603 -3.58121 0
M  V30 1180 N 104.945 -0.338344 -1.53925 0
M  V30 1181 C 105.895 0.536712 -2.21593 0
M  V30 1182 C 106.879 1.07015 -1.20153 0
M  V30 1183 O 108.071 1.00471 -1.45721 0
M  V30 1184 C 105.2 1.68977 -2.98834 0
M  V30 1185 C 104.286 1.17052 -4.07627 0
M  V30 1186 N 104.677 0.372085 -5.0443 0
M  V30 1187 C 102.975 1.44789 -4.21844 0
M  V30 1188 C 103.676 0.0909171 -5.81629 0
M  V30 1189 N 102.652 0.681131 -5.39316 0
M  V30 1190 H 106.454 -0.0804298 -2.9379 0
M  V30 1191 H 103.968 -0.144943 -1.61752 0
M  V30 1192 H 105.965 2.32857 -3.45808 0
M  V30 1193 H 104.625 2.31024 -2.28162 0
M  V30 1194 H 105.636 0.0136217 -5.17898 0
M  V30 1195 H 102.313 2.07313 -3.62391 0
M  V30 1196 H 103.703 -0.552817 -6.69622 0
M  V30 1197 N 106.423 1.57458 -0.0668435 0
M  V30 1198 C 107.333 2.15937 0.916975 0
M  V30 1199 C 108.349 1.12123 1.33058 0
M  V30 1200 O 109.525 1.44366 1.40429 0
M  V30 1201 C 106.59 2.70547 2.16807 0
M  V30 1202 C 105.651 3.89215 1.81135 0
M  V30 1203 C 104.884 4.41211 3.0028 0
M  V30 1204 O 105.107 3.92225 4.14144 0
M  V30 1205 O 104.041 5.32605 2.80384 0
M  V30 1206 H 107.867 3.00354 0.449561 0
M  V30 1207 H 105.452 1.48584 0.155949 0
M  V30 1208 H 107.334 3.0557 2.90181 0
M  V30 1209 H 106.009 1.89192 2.62656 0
M  V30 1210 H 104.916 3.59054 1.05028 0
M  V30 1211 H 106.249 4.71848 1.40073 0
M  V30 1212 N 107.901 -0.206675 1.56239 0
M  V30 1213 C 108.849 -1.27571 1.94495 0
M  V30 1214 C 109.843 -1.47737 0.828862 0
M  V30 1215 O 111.049 -1.48735 1.0138 0
M  V30 1216 H 107.424 -0.428029 0.6183 0
M  V30 1217 H 109.395 -0.925961 2.8367 0
M  V30 1218 C 108.144 -2.61568 2.29079 0
M  V30 1219 H 107.467 -2.46863 3.14482 0
M  V30 1220 H 108.907 -3.35144 2.5972 0
M  V30 1221 C 107.366 -3.17695 1.12123 0
M  V30 1222 O 107.896 -3.99801 0.390153 0
M  V30 1223 N 106.102 -2.76276 0.901097 0
M  V30 1224 H 105.649 -2.09613 1.49733 0
M  V30 1225 H 105.607 -3.1417 0.120319 0
M  V30 1226 N 109.379 -1.50304 -0.473955 0
M  V30 1227 C 110.309 -1.71886 -1.58042 0
M  V30 1228 C 111.29 -0.567799 -1.60344 0
M  V30 1229 O 112.475 -0.806623 -1.76656 0
M  V30 1230 C 109.605 -1.81036 -2.96384 0
M  V30 1231 C 108.559 -2.962 -3.08949 0
M  V30 1232 C 107.885 -2.9049 -4.48909 0
M  V30 1233 C 109.185 -4.36752 -2.86434 0
M  V30 1234 H 110.879 -2.64527 -1.40234 0
M  V30 1235 H 108.425 -1.27295 -0.673201 0
M  V30 1236 H 110.378 -1.94719 -3.73714 0
M  V30 1237 H 109.102 -0.850147 -3.15341 0
M  V30 1238 H 107.761 -2.82164 -2.3405 0
M  V30 1239 H 107.409 -1.92321 -4.64781 0
M  V30 1240 H 107.109 -3.67802 -4.58253 0
M  V30 1241 H 108.633 -3.06218 -5.28264 0
M  V30 1242 H 110.047 -4.5133 -3.53517 0
M  V30 1243 H 108.444 -5.15493 -3.07225 0
M  V30 1244 H 109.514 -4.49321 -1.82316 0
M  V30 1245 N 110.857 0.726932 -1.39834 0
M  V30 1246 C 112.085 1.51613 -1.40787 0
M  V30 1247 C 112.5 1.88799 -0.00451505 0
M  V30 1248 O 111.857 1.54662 0.968809 0
M  V30 1249 C 111.908 2.79863 -2.28821 0
M  V30 1250 O 111.629 2.44253 -3.63692 0
M  V30 1251 C 113.13 3.73837 -2.38245 0
M  V30 1252 H 110.35 0.468264 -0.480593 0
M  V30 1253 H 112.894 0.897607 -1.83748 0
M  V30 1254 H 111.049 3.38027 -1.89252 0
M  V30 1255 H 111.463 3.26695 -4.1033 0
M  V30 1256 H 112.937 4.60699 -3.04073 0
M  V30 1257 H 113.414 4.16153 -1.40403 0
M  V30 1258 H 114.02 3.21589 -2.78317 0
M  V30 1259 N 112.336 1.25143 0.95797 0
M  V30 1260 C 113.752 1.01892 1.22842 0
M  V30 1261 C 113.952 -0.266311 1.99732 0
M  V30 1262 O 113.008 -0.979913 2.3271 0
M  V30 1263 C 114.321 2.24004 2.00606 0
M  V30 1264 C 115.869 2.28731 2.13662 0
M  V30 1265 C 116.344 3.5049 2.94823 0
M  V30 1266 N 117.835 3.50866 3.02403 0
M  V30 1267 C 118.57 4.4174 3.65586 0
M  V30 1268 N 118.066 5.42882 4.30408 0
M  V30 1269 N 119.859 4.29429 3.62694 0
M  V30 1270 H 112.01 2.07718 0.443493 0
M  V30 1271 H 114.273 0.912031 0.258657 0
M  V30 1272 H 113.979 3.17395 1.51503 0
M  V30 1273 H 113.853 2.26907 3.01319 0
M  V30 1274 H 116.24 1.35865 2.61963 0
M  V30 1275 H 116.321 2.29848 1.12265 0
M  V30 1276 H 115.965 4.43676 2.47213 0
M  V30 1277 H 115.895 3.46617 3.96439 0
M  V30 1278 H 118.386 2.777 2.56302 0
M  V30 1279 H 118.699 6.0844 4.76467 0
M  V30 1280 H 117.044 5.46758 4.29047 0
M  V30 1281 H 120.235 3.49643 3.11236 0
M  V30 1282 H 120.408 5.00448 4.1165 0
M  V30 1283 N 113.814 -1.1601 1.06675 0
M  V30 1284 C 114.746 -2.20115 0.638921 0
M  V30 1285 C 115.759 -1.59916 -0.305057 0
M  V30 1286 O 116.948 -1.78245 -0.0954446 0
M  V30 1287 C 114.048 -3.38798 -0.0830083 0
M  V30 1288 C 113.221 -4.2855 0.875426 0
M  V30 1289 C 112.28 -5.25849 0.192042 0
M  V30 1290 O 111.306 -5.63102 0.830921 0
M  V30 1291 N 112.508 -5.70648 -1.06493 0
M  V30 1292 H 115.273 -2.57439 1.53444 0
M  V30 1293 H 112.834 -1.31057 0.950557 0
M  V30 1294 H 114.826 -4.00936 -0.550685 0
M  V30 1295 H 113.396 -2.99947 -0.880386 0
M  V30 1296 H 112.616 -3.63617 1.52238 0
M  V30 1297 H 113.904 -4.85393 1.52548 0
M  V30 1298 H 113.302 -5.42482 -1.60405 0
M  V30 1299 H 111.859 -6.34859 -1.47641 0
M  V30 1300 N 115.292 -0.849877 -1.32721 0
M  V30 1301 C 116.242 -0.262892 -2.26479 0
M  V30 1302 C 117.226 0.588493 -1.49752 0
M  V30 1303 O 118.418 0.438659 -1.71478 0
M  V30 1304 C 115.547 0.551818 -3.38836 0
M  V30 1305 C 114.633 -0.311689 -4.22953 0
M  V30 1306 N 115.024 -1.39567 -4.86163 0
M  V30 1307 C 113.322 -0.100611 -4.45887 0
M  V30 1308 C 114.023 -1.92651 -5.48872 0
M  V30 1309 N 112.999 -1.22637 -5.29586 0
M  V30 1310 H 116.801 -1.09166 -2.72873 0
M  V30 1311 H 114.315 -0.695486 -1.46754 0
M  V30 1312 H 116.312 0.988713 -4.05006 0
M  V30 1313 H 114.972 1.37844 -2.93988 0
M  V30 1314 H 115.983 -1.77859 -4.86402 0
M  V30 1315 H 112.66 0.691681 -4.11731 0
M  V30 1316 H 114.05 -2.83487 -6.09167 0
M  V30 1317 N 116.77 1.45427 -0.607355 0
M  V30 1318 C 117.702 2.2871 0.149752 0
M  V30 1319 C 118.715 1.39937 0.831958 0
M  V30 1320 O 119.904 1.64313 0.697385 0
M  V30 1321 C 117.004 3.15673 1.23304 0
M  V30 1322 C 116.177 4.32722 0.637996 0
M  V30 1323 C 115.236 5.00895 1.61215 0
M  V30 1324 O 114.262 5.57697 1.13854 0
M  V30 1325 N 115.464 5.00159 2.94655 0
M  V30 1326 H 118.229 2.94328 -0.564882 0
M  V30 1327 H 115.79 1.55612 -0.446823 0
M  V30 1328 H 117.782 3.58144 1.88454 0
M  V30 1329 H 116.352 2.51965 1.8502 0
M  V30 1330 H 115.572 3.93734 -0.191572 0
M  V30 1331 H 116.86 5.08321 0.220665 0
M  V30 1332 H 116.258 4.553 3.35735 0
M  V30 1333 H 114.815 5.46495 3.55228 0
M  V30 1334 N 118.248 0.346503 1.53744 0
M  V30 1335 C 119.211 -0.496439 2.23759 0
M  V30 1336 C 120.211 -1.0252 1.2388 0
M  V30 1337 O 121.401 -0.913974 1.48297 0
M  V30 1338 C 118.533 -1.69187 2.95954 0
M  V30 1339 H 119.726 0.115952 2.99676 0
M  V30 1340 H 117.279 0.0978939 1.55993 0
M  V30 1341 H 118.014 -2.34288 2.24231 0
M  V30 1342 H 117.799 -1.31989 3.69217 0
M  V30 1343 H 119.289 -2.28969 3.49232 0
M  V30 1344 N 119.726 -1.57421 0.075193 0
M  V30 1345 C 120.658 -2.09904 -0.920483 0
M  V30 1346 C 121.671 -1.03191 -1.25918 0
M  V30 1347 O 122.86 -1.30695 -1.21577 0
M  V30 1348 C 119.96 -2.54726 -2.23534 0
M  V30 1349 C 119.133 -3.8505 -2.07498 0
M  V30 1350 C 118.192 -4.15929 -3.22319 0
M  V30 1351 O 117.218 -4.85474 -2.9716 0
M  V30 1352 N 118.42 -3.69745 -4.47514 0
M  V30 1353 H 121.185 -2.95954 -0.472359 0
M  V30 1354 H 118.746 -1.61523 -0.110444 0
M  V30 1355 H 120.738 -2.72443 -2.9926 0
M  V30 1356 H 119.308 -1.73795 -2.59835 0
M  V30 1357 H 118.528 -3.76679 -1.16219 0
M  V30 1358 H 119.816 -4.70348 -1.94038 0
M  V30 1359 H 119.214 -3.13569 -4.7084 0
M  V30 1360 H 117.771 -3.92655 -5.20255 0
M  V30 1361 N 121.204 0.198386 -1.56346 0
M  V30 1362 C 122.134 1.24865 -1.9731 0
M  V30 1363 C 123.115 1.47651 -0.844576 0
M  V30 1364 O 124.3 1.59444 -1.10866 0
M  V30 1365 C 121.43 2.59358 -2.30977 0
M  V30 1366 C 120.384 2.5119 -3.46537 0
M  V30 1367 C 119.71 3.89926 -3.65871 0
M  V30 1368 C 121.01 2.03977 -4.80823 0
M  V30 1369 H 122.704 0.908252 -2.85291 0
M  V30 1370 H 120.25 0.435462 -1.37258 0
M  V30 1371 H 122.203 3.33011 -2.58228 0
M  V30 1372 H 120.927 2.95132 -1.39874 0
M  V30 1373 H 119.586 1.79993 -3.19371 0
M  V30 1374 H 119.234 4.23046 -2.72105 0
M  V30 1375 H 118.934 3.85336 -4.4361 0
M  V30 1376 H 120.458 4.65205 -3.95495 0
M  V30 1377 H 121.872 2.67386 -5.07127 0
M  V30 1378 H 120.269 2.10397 -5.62008 0
M  V30 1379 H 121.339 0.992861 -4.74626 0
M  V30 1380 N 122.682 1.50554 0.465978 0
M  V30 1381 C 123.614 1.65949 1.58093 0
M  V30 1382 C 124.627 0.540827 1.53554 0
M  V30 1383 O 125.816 0.814187 1.5885 0
M  V30 1384 C 122.916 1.63261 2.96983 0
M  V30 1385 C 122.089 2.91245 3.26336 0
M  V30 1386 C 121.148 2.8113 4.44806 0
M  V30 1387 O 120.174 3.55086 4.44862 0
M  V30 1388 N 121.376 1.95032 5.46756 0
M  V30 1389 H 124.141 2.62122 1.45301 0
M  V30 1390 H 121.702 1.48082 0.65448 0
M  V30 1391 H 123.694 1.54101 3.74212 0
M  V30 1392 H 122.264 0.748032 3.03518 0
M  V30 1393 H 121.484 3.14493 2.37672 0
M  V30 1394 H 122.772 3.76022 3.42761 0
M  V30 1395 H 122.17 1.3427 5.49534 0
M  V30 1396 H 120.727 1.91772 6.2295 0
M  V30 1397 N 124.16 -0.719506 1.40217 0
M  V30 1398 C 125.07 -1.86378 1.42479 0
M  V30 1399 C 126.086 -1.71073 0.317834 0
M  V30 1400 O 127.262 -1.93406 0.561794 0
M  V30 1401 C 124.327 -3.22136 1.28178 0
M  V30 1402 C 123.388 -3.49723 2.48982 0
M  V30 1403 C 122.621 -4.79004 2.35353 0
M  V30 1404 O 122.844 -5.53821 1.36524 0
M  V30 1405 O 121.778 -5.06839 3.2465 0
M  V30 1406 H 125.604 -1.87425 2.38968 0
M  V30 1407 H 123.189 -0.869405 1.21498 0
M  V30 1408 H 125.071 -4.03234 1.22395 0
M  V30 1409 H 123.746 -3.21825 0.347934 0
M  V30 1410 H 122.653 -2.6865 2.60342 0
M  V30 1411 H 123.986 -3.54828 3.41113 0
M  V30 1412 N 125.638 -1.25649 -0.95132 0
M  V30 1413 C 126.588 -1.03004 -2.03406 0
M  V30 1414 C 127.572 0.034187 -1.60864 0
M  V30 1415 O 128.764 -0.181549 -1.76066 0
M  V30 1416 C 125.893 -0.654255 -3.37008 0
M  V30 1417 C 124.979 -1.75542 -3.86065 0
M  V30 1418 N 125.37 -2.99113 -4.07879 0
M  V30 1419 C 123.668 -1.63669 -4.14884 0
M  V30 1420 C 124.369 -3.70611 -4.48356 0
M  V30 1421 N 123.345 -2.98247 -4.54477 0
M  V30 1422 H 127.147 -1.96813 -2.1827 0
M  V30 1423 H 124.661 -1.16017 -1.13639 0
M  V30 1424 H 126.658 -0.473206 -4.14206 0
M  V30 1425 H 125.318 0.276468 -3.23521 0
M  V30 1426 H 126.329 -3.35124 -3.94857 0
M  V30 1427 H 123.006 -0.775161 -4.10241 0
M  V30 1428 H 124.396 -4.76695 -4.73509 0
M  V30 1429 N 127.117 1.15442 -1.07289 0
M  V30 1430 C 128.366 1.85557 -0.790669 0
M  V30 1431 C 128.679 1.83186 0.685739 0
M  V30 1432 O 129.885 2.48977 1.0827 0
M  V30 1433 C 128.341 3.33038 -1.36433 0
M  V30 1434 C 127.949 3.43856 -2.8717 0
M  V30 1435 C 129.693 4.0834 -1.1601 0
M  V30 1436 C 127.6 4.85482 -3.3773 0
M  V30 1437 H 126.53 0.695122 -0.292098 0
M  V30 1438 H 129.181 1.30219 -1.29287 0
M  V30 1439 H 127.563 3.88043 -0.789864 0
M  V30 1440 H 128.737 2.98961 -3.50655 0
M  V30 1441 H 127.052 2.81998 -3.06376 0
M  V30 1442 H 129.649 5.12859 -1.51262 0
M  V30 1443 H 129.992 4.16182 -0.0991007 0
M  V30 1444 H 130.525 3.59603 -1.70089 0
M  V30 1445 H 127.264 4.82823 -4.43353 0
M  V30 1446 H 126.784 5.30961 -2.78999 0
M  V30 1447 H 128.463 5.54335 -3.33648 0
M  V30 1448 N 128.595 0.856903 1.32268 0
M  V30 1449 C 129.542 0.301172 2.28827 0
M  V30 1450 C 130.512 -0.593104 1.5515 0
M  V30 1451 O 131.697 -0.527537 1.83362 0
M  V30 1452 C 128.837 -0.502523 3.41422 0
M  V30 1453 C 127.95 0.417797 4.29975 0
M  V30 1454 C 127.085 -0.398749 5.29701 0
M  V30 1455 C 126.124 0.518827 6.09897 0
M  V30 1456 N 125.261 -0.260674 7.01616 0
M  V30 1457 H 130.101 1.12983 2.75751 0
M  V30 1458 H 127.638 0.568582 1.35667 0
M  V30 1459 H 129.596 -0.984141 4.05426 0
M  V30 1460 H 128.226 -1.29599 2.95642 0
M  V30 1461 H 127.278 1.01781 3.66531 0
M  V30 1462 H 128.59 1.12191 4.86019 0
M  V30 1463 H 127.744 -0.943435 5.9932 0
M  V30 1464 H 126.483 -1.13622 4.7428 0
M  V30 1465 H 125.488 1.07538 5.39181 0
M  V30 1466 H 126.713 1.25495 6.67404 0
M  V30 1467 H 124.659 -0.981198 6.4862 0
M  V30 1468 H 124.576 0.384364 7.55022 0
M  V30 1469 H 125.844 -0.787014 7.75517 0
M  V30 1470 N 130.073 -1.45103 0.615059 0
M  V30 1471 C 130.983 -2.34382 -0.101034 0
M  V30 1472 C 131.999 -1.51681 -0.852585 0
M  V30 1473 O 133.175 -1.8446 -0.808484 0
M  V30 1474 C 130.24 -3.29417 -1.08099 0
M  V30 1475 C 129.301 -4.28025 -0.330577 0
M  V30 1476 C 128.534 -5.1852 -1.26385 0
M  V30 1477 O 128.757 -5.12598 -2.50198 0
M  V30 1478 O 127.691 -5.97122 -0.756866 0
M  V30 1479 H 131.517 -2.97033 0.632855 0
M  V30 1480 H 129.102 -1.4461 0.375293 0
M  V30 1481 H 130.984 -3.87958 -1.6452 0
M  V30 1482 H 129.659 -2.69321 -1.79577 0
M  V30 1483 H 128.566 -3.73078 0.276283 0
M  V30 1484 H 129.899 -4.90997 0.343866 0
M  V30 1485 N 131.551 -0.354651 -1.53558 0
M  V30 1486 C 132.481 0.489091 -2.2832 0
M  V30 1487 C 133.462 1.09324 -1.30316 0
M  V30 1488 O 134.647 1.11255 -1.59173 0
M  V30 1489 C 131.777 1.63456 -3.0643 0
M  V30 1490 C 130.731 1.1582 -4.12031 0
M  V30 1491 C 130.057 2.39305 -4.7816 0
M  V30 1492 C 131.357 0.250731 -5.21698 0
M  V30 1493 H 133.051 -0.134614 -2.99097 0
M  V30 1494 H 130.597 -0.0661826 -1.43848 0
M  V30 1495 H 132.55 2.23136 -3.57475 0
M  V30 1496 H 131.274 2.28533 -2.33325 0
M  V30 1497 H 129.933 0.584146 -3.61916 0
M  V30 1498 H 129.581 3.02814 -4.01637 0
M  V30 1499 H 129.281 2.08109 -5.49513 0
M  V30 1500 H 130.805 2.99691 -5.31994 0
M  V30 1501 H 132.219 0.754695 -5.68311 0
M  V30 1502 H 130.616 0.0301468 -6.00092 0
M  V30 1503 H 131.686 -0.710125 -4.79672 0
M  V30 1504 N 133.029 1.57378 -0.0835403 0
M  V30 1505 C 133.959 2.1641 0.87686 0
M  V30 1506 C 134.94 1.09429 1.30228 0
M  V30 1507 O 136.125 1.37516 1.37124 0
M  V30 1508 C 133.255 2.73517 2.14022 0
M  V30 1509 C 132.209 3.85769 1.85381 0
M  V30 1510 C 131.535 4.29529 3.18448 0
M  V30 1511 C 132.835 5.09486 1.14984 0
M  V30 1512 H 134.529 2.96914 0.385059 0
M  V30 1513 H 132.075 1.42823 0.18377 0
M  V30 1514 H 134.028 3.13463 2.81636 0
M  V30 1515 H 132.752 1.90252 2.65465 0
M  V30 1516 H 131.411 3.46345 1.20169 0
M  V30 1517 H 131.059 3.43169 3.67755 0
M  V30 1518 H 130.759 5.05204 3.00071 0
M  V30 1519 H 132.283 4.72099 3.8724 0
M  V30 1520 H 133.697 5.46674 1.72687 0
M  V30 1521 H 132.094 5.90515 1.06826 0
M  V30 1522 H 133.164 4.84724 0.130749 0
M  V30 1523 N 134.507 -0.190092 1.56449 0
M  V30 1524 C 135.47 -1.21925 1.9408 0
M  V30 1525 C 136.47 -1.38176 0.822431 0
M  V30 1526 O 137.66 -1.35903 1.08977 0
M  V30 1527 C 134.792 -2.58773 2.21922 0
M  V30 1528 H 135.985 -0.897464 2.86157 0
M  V30 1529 H 133.538 -0.43181 1.50217 0
M  V30 1530 H 134.273 -2.95998 1.32499 0
M  V30 1531 H 134.058 -2.48348 3.03424 0
M  V30 1532 H 135.548 -3.32978 2.52022 0
M  V30 1533 N 135.985 -1.50799 -0.457987 0
M  V30 1534 C 137.234 -1.6168 -1.20593 0
M  V30 1535 C 137.547 -0.32888 -1.92815 0
M  V30 1536 O 138.753 -0.316773 -2.69646 0
M  V30 1537 C 137.209 -2.8545 -2.19195 0
M  V30 1538 C 136.817 -4.21168 -1.52715 0
M  V30 1539 C 138.561 -3.05681 -2.94549 0
M  V30 1540 C 136.468 -5.3611 -2.4968 0
M  V30 1541 H 135.398 -0.602134 -0.453818 0
M  V30 1542 H 138.049 -1.77245 -0.475031 0
M  V30 1543 H 136.431 -2.63472 -2.95632 0
M  V30 1544 H 137.605 -4.53449 -0.819775 0
M  V30 1545 H 135.92 -4.06648 -0.895922 0
M  V30 1546 H 138.517 -3.88727 -3.67145 0
M  V30 1547 H 138.86 -2.17929 -3.54701 0
M  V30 1548 H 139.393 -3.27901 -2.25223 0
M  V30 1549 H 136.132 -6.26057 -1.94249 0
M  V30 1550 H 135.652 -5.0823 -3.18532 0
M  V30 1551 H 137.331 -5.6722 -3.11241 0
M  V30 1552 N 137.463 0.71206 -1.40597 0
M  V30 1553 C 138.41 1.82613 -1.41142 0
M  V30 1554 C 139.38 1.63925 -0.267903 0
M  V30 1555 O 140.565 1.85009 -0.466495 0
M  V30 1556 C 137.705 3.20354 -1.28324 0
M  V30 1557 C 136.818 3.50589 -2.52411 0
M  V30 1558 C 135.953 4.77855 -2.32009 0
M  V30 1559 C 134.992 5.01005 -3.51654 0
M  V30 1560 N 134.129 6.19487 -3.30425 0
M  V30 1561 H 138.969 1.81482 -2.36365 0
M  V30 1562 H 136.506 0.886475 -1.17388 0
M  V30 1563 H 138.464 3.99899 -1.18899 0
M  V30 1564 H 137.094 3.20705 -0.367189 0
M  V30 1565 H 136.146 2.65573 -2.72351 0
M  V30 1566 H 137.458 3.63604 -3.41458 0
M  V30 1567 H 136.612 5.65424 -2.19956 0
M  V30 1568 H 135.351 4.67056 -1.40392 0
M  V30 1569 H 134.356 4.1189 -3.64179 0
M  V30 1570 H 135.581 5.13674 -4.44202 0
M  V30 1571 H 133.527 6.09932 -2.41494 0
M  V30 1572 H 133.444 6.33194 -4.13039 0
M  V30 1573 H 134.712 7.09834 -3.22113 0
M  V30 1574 N 138.941 1.26152 0.944643 0
M  V30 1575 C 139.873 1.03199 2.04652 0
M  V30 1576 C 140.886 -0.00642356 1.62799 0
M  V30 1577 O 142.075 0.233263 1.76969 0
M  V30 1578 C 139.175 0.540111 3.34568 0
M  V30 1579 C 138.348 1.64697 4.05208 0
M  V30 1580 C 137.407 1.15374 5.13396 0
M  V30 1581 O 136.433 1.85013 5.38293 0
M  V30 1582 N 137.635 0.00031529 5.805 0
M  V30 1583 H 140.4 1.9808 2.2491 0
M  V30 1584 H 137.961 1.17491 1.11389 0
M  V30 1585 H 139.953 0.194401 4.04233 0
M  V30 1586 H 138.523 -0.315021 3.11009 0
M  V30 1587 H 137.743 2.16379 3.29506 0
M  V30 1588 H 139.031 2.3903 4.49157 0
M  V30 1589 H 138.429 -0.581336 5.62705 0
M  V30 1590 H 136.986 -0.286346 6.51171 0
M  V30 1591 N 140.419 -1.14872 1.07899 0
M  V30 1592 C 141.351 -2.19425 0.662231 0
M  V30 1593 C 142.364 -1.60231 -0.288079 0
M  V30 1594 O 143.553 -1.78336 -0.076534 0
M  V30 1595 C 140.653 -3.38867 -0.0470695 0
M  V30 1596 C 139.826 -4.27597 0.920831 0
M  V30 1597 C 138.885 -5.25616 0.247805 0
M  V30 1598 O 137.911 -5.62189 0.890599 0
M  V30 1599 N 139.113 -5.71746 -1.00435 0
M  V30 1600 H 141.878 -2.55797 1.56166 0
M  V30 1601 H 139.439 -1.30042 0.964404 0
M  V30 1602 H 141.431 -4.01497 -0.50813 0
M  V30 1603 H 140.001 -3.00864 -0.848523 0
M  V30 1604 H 139.221 -3.61982 1.56087 0
M  V30 1605 H 140.509 -4.83748 1.57688 0
M  V30 1606 H 139.907 -5.44153 -1.54642 0
M  V30 1607 H 138.464 -6.36389 -1.40899 0
M  V30 1608 N 141.898 -0.863906 -1.31812 0
M  V30 1609 C 142.83 -0.272485 -2.27575 0
M  V30 1610 C 143.843 0.56104 -1.52827 0
M  V30 1611 O 145.032 0.384021 -1.7432 0
M  V30 1612 C 142.132 0.63283 -3.32939 0
M  V30 1613 C 141.305 -0.166902 -4.37081 0
M  V30 1614 C 140.364 0.665608 -5.21973 0
M  V30 1615 O 139.39 0.0958091 -5.69119 0
M  V30 1616 N 140.592 1.9787 -5.45736 0
M  V30 1617 H 143.357 -1.0954 -2.78964 0
M  V30 1618 H 140.918 -0.724791 -1.4477 0
M  V30 1619 H 142.91 1.19532 -3.86645 0
M  V30 1620 H 141.48 1.35642 -2.81638 0
M  V30 1621 H 140.7 -0.910838 -3.83533 0
M  V30 1622 H 141.988 -0.715874 -5.03739 0
M  V30 1623 H 141.386 2.46484 -5.09178 0
M  V30 1624 H 139.943 2.48911 -6.024 0
M  V30 1625 N 143.376 1.44774 -0.622745 0
M  V30 1626 C 144.286 2.34433 0.0886031 0
M  V30 1627 C 145.302 1.52131 0.844529 0
M  V30 1628 O 146.478 1.84886 0.798691 0
M  V30 1629 C 143.543 3.29986 1.0635 0
M  V30 1630 C 142.604 4.28195 0.307873 0
M  V30 1631 C 141.837 5.19183 1.23633 0
M  V30 1632 O 142.06 5.13918 2.47476 0
M  V30 1633 O 140.994 5.97515 0.725189 0
M  V30 1634 H 144.82 2.96693 -0.648599 0
M  V30 1635 H 142.405 1.44408 -0.382957 0
M  V30 1636 H 144.287 3.88825 1.6246 0
M  V30 1637 H 142.962 2.70269 1.78146 0
M  V30 1638 H 141.869 3.72927 -0.296064 0
M  V30 1639 H 143.202 4.90808 -0.3699 0
M  V30 1640 N 144.854 0.36279 1.53368 0
M  V30 1641 C 145.784 -0.476976 2.28576 0
M  V30 1642 C 146.765 -1.08631 1.30894 0
M  V30 1643 O 147.95 -1.10409 1.59761 0
M  V30 1644 C 145.08 -1.61828 3.07293 0
M  V30 1645 C 144.034 -1.13633 4.1264 0
M  V30 1646 C 143.36 -2.36766 4.79423 0
M  V30 1647 C 144.66 -0.223061 5.21823 0
M  V30 1648 H 146.354 0.150474 2.99022 0
M  V30 1649 H 143.9 0.0738103 1.43811 0
M  V30 1650 H 145.853 -2.21237 3.58653 0
M  V30 1651 H 144.577 -2.27292 2.34533 0
M  V30 1652 H 143.236 -0.564945 3.62221 0
M  V30 1653 H 142.884 -3.0068 4.03238 0
M  V30 1654 H 142.584 -2.05192 5.50609 0
M  V30 1655 H 144.108 -2.96865 5.33576 0
M  V30 1656 H 145.522 -0.724545 5.68703 0
M  V30 1657 H 143.919 0.001678 6.001 0
M  V30 1658 H 144.989 0.735553 4.79289 0
M  V30 1659 N 146.332 -1.57332 0.0918853 0
M  V30 1660 C 147.262 -2.16872 -0.865371 0
M  V30 1661 C 148.243 -1.10118 -1.29646 0
M  V30 1662 O 149.428 -1.38242 -1.36392 0
M  V30 1663 C 146.558 -2.74649 -2.12569 0
M  V30 1664 C 145.512 -3.86747 -1.83333 0
M  V30 1665 C 144.838 -4.31212 -3.16166 0
M  V30 1666 C 146.138 -5.10089 -1.1228 0
M  V30 1667 H 147.832 -2.97114 -0.369307 0
M  V30 1668 H 145.378 -1.42918 -0.176194 0
M  V30 1669 H 147.331 -3.14952 -2.7997 0
M  V30 1670 H 146.055 -1.91657 -2.64452 0
M  V30 1671 H 144.714 -3.46978 -1.18331 0
M  V30 1672 H 144.362 -3.45115 -3.6593 0
M  V30 1673 H 144.062 -5.06788 -2.97388 0
M  V30 1674 H 145.586 -4.74146 -3.84731 0
M  V30 1675 H 147 -5.47582 -1.69785 0
M  V30 1676 H 145.397 -5.91073 -1.03693 0
M  V30 1677 H 146.467 -4.84786 -0.105041 0
M  V30 1678 N 147.81 0.181792 -1.56548 0
M  V30 1679 C 148.72 1.24538 -1.98815 0
M  V30 1680 C 149.736 1.49045 -0.897861 0
M  V30 1681 O 150.912 1.61399 -1.20467 0
M  V30 1682 C 147.977 2.56683 -2.33055 0
M  V30 1683 C 147.038 2.40131 -3.55859 0
M  V30 1684 C 146.271 3.65975 -3.88456 0
M  V30 1685 O 146.494 4.70711 -3.22161 0
M  V30 1686 O 145.428 3.6071 -4.81842 0
M  V30 1687 H 149.254 0.916647 -2.89536 0
M  V30 1688 H 146.839 0.387842 -1.44278 0
M  V30 1689 H 148.721 3.34655 -2.56094 0
M  V30 1690 H 147.396 2.89157 -1.45498 0
M  V30 1691 H 146.303 1.60226 -3.38051 0
M  V30 1692 H 147.636 2.12585 -4.43924 0
M  V30 1693 N 149.288 1.51039 0.449983 0
M  V30 1694 C 150.235 1.71439 1.54523 0
M  V30 1695 C 151.205 0.555871 1.56522 0
M  V30 1696 O 152.39 0.788871 1.73728 0
M  V30 1697 C 149.53 1.83384 2.92343 0
M  V30 1698 C 148.643 3.10873 2.9997 0
M  V30 1699 C 147.778 3.13488 4.28834 0
M  V30 1700 C 146.817 4.35343 4.30282 0
M  V30 1701 N 145.954 4.35579 5.5065 0
M  V30 1702 H 150.794 2.64934 1.36433 0
M  V30 1703 H 148.331 1.31312 0.662982 0
M  V30 1704 H 150.289 1.88291 3.72293 0
M  V30 1705 H 148.919 0.933086 3.0902 0
M  V30 1706 H 147.971 3.15336 2.12761 0
M  V30 1707 H 149.283 4.00814 2.96901 0
M  V30 1708 H 148.437 3.17241 5.17149 0
M  V30 1709 H 147.176 2.21414 4.34543 0
M  V30 1710 H 146.181 4.3178 3.40362 0
M  V30 1711 H 147.406 5.28668 4.26248 0
M  V30 1712 H 145.352 3.46369 5.57104 0
M  V30 1713 H 145.269 5.19313 5.49409 0
M  V30 1714 H 146.537 4.43507 6.41032 0
M  V30 1715 N 150.766 -0.704594 1.40972 0
M  V30 1716 C 151.676 -1.84856 1.44448 0
M  V30 1717 C 152.692 -1.70726 0.335961 0
M  V30 1718 O 153.868 -1.92799 0.582276 0
M  V30 1719 C 150.933 -3.20758 1.31587 0
M  V30 1720 C 149.994 -3.47063 2.52677 0
M  V30 1721 C 149.227 -4.76481 2.4042 0
M  V30 1722 O 149.45 -5.52341 1.42391 0
M  V30 1723 O 148.384 -5.03367 3.30007 0
M  V30 1724 H 152.21 -1.8488 2.40942 0
M  V30 1725 H 149.795 -0.85647 1.22413 0
M  V30 1726 H 151.677 -4.01913 1.26665 0
M  V30 1727 H 150.352 -3.21438 0.382049 0
M  V30 1728 H 149.259 -2.65873 2.63177 0
M  V30 1729 H 150.592 -3.5119 3.44858 0
M  V30 1730 N 152.244 -1.26651 -0.937939 0
M  V30 1731 C 153.176 -1.04283 -2.04102 0
M  V30 1732 C 154.189 -0.00221014 -1.628 0
M  V30 1733 O 155.378 -0.242645 -1.76843 0
M  V30 1734 C 152.478 -0.557846 -3.34277 0
M  V30 1735 C 151.651 -1.66843 -4.04329 0
M  V30 1736 C 150.71 -1.18095 -5.12777 0
M  V30 1737 O 149.736 -1.87865 -5.37304 0
M  V30 1738 N 150.938 -0.0311006 -5.80492 0
M  V30 1739 H 153.703 -1.9927 -2.23856 0
M  V30 1740 H 151.264 -1.1808 -1.10764 0
M  V30 1741 H 153.256 -0.215836 -4.04124 0
M  V30 1742 H 151.826 0.298523 -3.11171 0
M  V30 1743 H 151.046 -2.18123 -3.28353 0
M  V30 1744 H 152.334 -2.41408 -4.47883 0
M  V30 1745 H 151.732 0.551486 -5.63005 0
M  V30 1746 H 150.289 0.251809 -6.51313 0
M  V30 1747 N 153.722 1.14298 -1.08507 0
M  V30 1748 C 154.669 2.19414 -0.715965 0
M  V30 1749 C 155.639 1.63399 0.298326 0
M  V30 1750 O 156.824 1.89929 0.182101 0
M  V30 1751 C 153.964 3.44845 -0.132534 0
M  V30 1752 C 153.077 4.15007 -1.19973 0
M  V30 1753 C 152.212 5.28024 -0.580048 0
M  V30 1754 C 151.251 5.9002 -1.62921 0
M  V30 1755 N 150.388 6.94485 -1.03125 0
M  V30 1756 H 155.228 2.50336 -1.61666 0
M  V30 1757 H 152.765 1.2293 -0.807882 0
M  V30 1758 H 154.723 4.16601 0.223454 0
M  V30 1759 H 153.353 3.14403 0.731467 0
M  V30 1760 H 152.405 3.41629 -1.67313 0
M  V30 1761 H 153.717 4.57178 -1.99473 0
M  V30 1762 H 152.871 6.06455 -0.172364 0
M  V30 1763 H 151.61 4.87076 0.246603 0
M  V30 1764 H 150.615 5.10291 -2.04654 0
M  V30 1765 H 151.84 6.33042 -2.45835 0
M  V30 1766 H 149.786 6.55612 -0.225711 0
M  V30 1767 H 149.703 7.35148 -1.76334 0
M  V30 1768 H 150.971 7.7679 -0.649458 0
M  V30 1769 N 155.201 0.870884 1.31352 0
M  V30 1770 C 156.131 0.343096 2.30966 0
M  V30 1771 C 157.112 -0.566507 1.60389 0
M  V30 1772 O 158.297 -0.483336 1.88089 0
M  V30 1773 C 155.427 -0.455487 3.443 0
M  V30 1774 C 154.381 0.361103 4.26474 0
M  V30 1775 C 153.707 -0.563221 5.31725 0
M  V30 1776 C 155.007 1.59566 4.97329 0
M  V30 1777 H 156.701 1.17548 2.75359 0
M  V30 1778 H 154.247 0.566686 1.32381 0
M  V30 1779 H 156.2 -0.83525 4.13039 0
M  V30 1780 H 154.924 -1.32139 2.98675 0
M  V30 1781 H 153.583 0.722825 3.59403 0
M  V30 1782 H 153.231 -1.42643 4.82351 0
M  V30 1783 H 152.931 -0.0207409 5.87596 0
M  V30 1784 H 154.455 -0.939808 6.03324 0
M  V30 1785 H 155.869 1.28728 5.58661 0
M  V30 1786 H 154.266 2.07728 5.63 0
M  V30 1787 H 155.336 2.34798 4.24262 0
M  V30 1788 N 156.679 -1.44442 0.630414 0
M  V30 1789 C 157.589 -2.34476 -0.0761693 0
M  V30 1790 C 158.605 -1.52576 -0.836449 0
M  V30 1791 O 159.781 -1.85307 -0.788874 0
M  V30 1792 C 156.846 -3.30545 -1.04599 0
M  V30 1793 C 155.907 -4.28352 -0.28516 0
M  V30 1794 C 155.14 -5.19831 -1.20878 0
M  V30 1795 O 155.363 -5.15223 -2.44747 0
M  V30 1796 O 154.297 -5.97892 -0.693491 0
M  V30 1797 H 158.123 -2.96345 0.664324 0
M  V30 1798 H 155.708 -1.44203 0.39061 0
M  V30 1799 H 157.59 -3.89681 -1.60396 0
M  V30 1800 H 156.265 -2.7121 -1.76711 0
M  V30 1801 H 155.172 -3.72764 0.315837 0
M  V30 1802 H 156.505 -4.90605 0.395924 0
M  V30 1803 N 158.157 -0.370918 -1.53173 0
M  V30 1804 C 159.089 0.507823 -2.23503 0
M  V30 1805 C 160.102 1.04182 -1.251 0
M  V30 1806 O 161.291 0.947286 -1.5129 0
M  V30 1807 C 158.391 1.71447 -2.92334 0
M  V30 1808 C 157.564 1.31105 -4.17289 0
M  V30 1809 C 156.623 2.38035 -4.69282 0
M  V30 1810 O 155.649 2.00204 -5.32829 0
M  V30 1811 N 156.851 3.69697 -4.47554 0
M  V30 1812 H 159.616 -0.0946382 -2.99551 0
M  V30 1813 H 157.177 -0.196358 -1.60705 0
M  V30 1814 H 159.169 2.42469 -3.24023 0
M  V30 1815 H 157.739 2.22368 -2.19707 0
M  V30 1816 H 156.959 0.430462 -3.91843 0
M  V30 1817 H 158.247 1.0179 -4.98514 0
M  V30 1818 H 157.645 4.03205 -3.9679 0
M  V30 1819 H 156.202 4.36807 -4.8378 0
M  V30 1820 N 159.635 1.57281 -0.100228 0
M  V30 1821 C 160.567 2.11342 0.886972 0
M  V30 1822 C 161.58 1.05182 1.24261 0
M  V30 1823 O 162.769 1.32613 1.19483 0
M  V30 1824 C 159.869 2.5825 2.19454 0
M  V30 1825 C 159.042 3.88302 2.01346 0
M  V30 1826 C 158.101 4.21004 3.15661 0
M  V30 1827 O 157.127 4.9014 2.89398 0
M  V30 1828 N 158.329 3.76818 4.41575 0
M  V30 1829 H 161.094 2.96668 0.425216 0
M  V30 1830 H 158.655 1.61678 0.0847334 0
M  V30 1831 H 160.647 2.7717 2.94888 0
M  V30 1832 H 159.217 1.77907 2.57037 0
M  V30 1833 H 158.437 3.7848 1.10212 0
M  V30 1834 H 159.725 4.73375 1.8653 0
M  V30 1835 H 159.123 3.2102 4.65792 0
M  V30 1836 H 157.68 4.00882 5.13942 0
M  V30 1837 N 161.113 -0.173488 1.56642 0
M  V30 1838 C 162.529 -0.525174 1.50712 0
M  V30 1839 C 162.729 -1.8476 0.804107 0
M  V30 1840 O 161.785 -2.49869 0.363574 0
M  V30 1841 C 163.098 -0.559937 2.95441 0
M  V30 1842 C 164.646 -0.647288 3.06234 0
M  V30 1843 C 165.121 -0.712963 4.52417 0
M  V30 1844 N 166.612 -0.775911 4.56655 0
M  V30 1845 C 167.347 -0.847264 5.67106 0
M  V30 1846 N 166.843 -0.879585 6.87194 0
M  V30 1847 N 168.636 -0.886117 5.55071 0
M  V30 1848 H 160.787 0.693681 2.00753 0
M  V30 1849 H 163.05 0.249841 0.914485 0
M  V30 1850 H 162.756 0.343049 3.50023 0
M  V30 1851 H 162.63 -1.40718 3.49969 0
M  V30 1852 H 165.017 -1.5407 2.51687 0
M  V30 1853 H 165.098 0.226586 2.54794 0
M  V30 1854 H 164.742 0.176183 5.07594 0
M  V30 1855 H 164.672 -1.60295 5.0161 0
M  V30 1856 H 167.163 -0.759304 3.70193 0
M  V30 1857 H 167.476 -0.935144 7.67121 0
M  V30 1858 H 165.821 -0.847898 6.89808 0
M  V30 1859 H 169.012 -0.857853 4.60172 0
M  V30 1860 H 169.185 -0.938263 6.41171 0
M  V30 1861 N 162.591 -1.51276 -0.441967 0
M  V30 1862 C 163.523 -1.68444 -1.55433 0
M  V30 1863 C 164.536 -0.565187 -1.52674 0
M  V30 1864 O 165.725 -0.839356 -1.57534 0
M  V30 1865 C 162.825 -1.67966 -2.94348 0
M  V30 1866 C 161.998 -2.964 -3.21661 0
M  V30 1867 C 161.057 -2.88171 -4.40277 0
M  V30 1868 O 160.083 -3.62119 -4.39157 0
M  V30 1869 N 161.285 -2.03706 -5.43584 0
M  V30 1870 H 164.05 -2.644 -1.41112 0
M  V30 1871 H 161.611 -1.49104 -0.630838 0
M  V30 1872 H 163.603 -1.60035 -3.71713 0
M  V30 1873 H 162.173 -0.796225 -3.0229 0
M  V30 1874 H 161.393 -3.18234 -2.32638 0
M  V30 1875 H 162.681 -3.81427 -3.36736 0
M  V30 1876 H 162.079 -1.42995 -5.47329 0
M  V30 1877 H 160.636 -2.01658 -6.1982 0
M  V30 1878 N 164.069 0.697108 -1.41344 0
M  V30 1879 C 164.979 1.84088 -1.45427 0
M  V30 1880 C 165.995 1.70545 -0.34501 0
M  V30 1881 O 167.171 1.92488 -0.592492 0
M  V30 1882 C 164.236 3.20056 -1.33286 0
M  V30 1883 C 163.297 3.45718 -2.54514 0
M  V30 1884 C 162.53 4.75199 -2.42944 0
M  V30 1885 O 162.753 5.51579 -1.45318 0
M  V30 1886 O 161.687 5.0161 -3.32672 0
M  V30 1887 H 165.513 1.836 -2.41919 0
M  V30 1888 H 163.098 0.849966 -1.22866 0
M  V30 1889 H 164.98 4.01236 -1.28794 0
M  V30 1890 H 163.655 3.2123 -0.39909 0
M  V30 1891 H 162.562 2.64474 -2.64583 0
M  V30 1892 H 163.895 3.49356 -3.46715 0
M  V30 1893 N 165.547 1.27147 0.931209 0
M  V30 1894 C 166.479 1.05364 2.03546 0
M  V30 1895 C 167.492 0.0108438 1.62796 0
M  V30 1896 O 168.681 0.25202 1.76712 0
M  V30 1897 C 165.781 0.575566 3.33977 0
M  V30 1898 C 164.954 1.68985 4.03439 0
M  V30 1899 C 164.013 1.20813 5.12143 0
M  V30 1900 O 163.039 1.90712 5.363 0
M  V30 1901 N 164.241 0.0618851 5.80467 0
M  V30 1902 H 167.006 2.00454 2.22796 0
M  V30 1903 H 164.567 1.18666 1.10136 0
M  V30 1904 H 166.559 0.237264 4.04004 0
M  V30 1905 H 165.129 -0.282016 3.11325 0
M  V30 1906 H 164.349 2.19861 3.27192 0
M  V30 1907 H 165.637 2.4378 4.46597 0
M  V30 1908 H 165.035 -0.521621 5.6329 0
M  V30 1909 H 163.592 -0.217264 6.51438 0
M  V30 1910 N 167.025 -1.13721 1.09112 0
M  V30 1911 C 167.935 -2.22638 0.73957 0
M  V30 1912 C 168.951 -1.72091 -0.257068 0
M  V30 1913 O 170.127 -2.01155 -0.0992154 0
M  V30 1914 C 167.192 -3.46322 0.16191 0
M  V30 1915 C 166.253 -4.11775 1.21408 0
M  V30 1916 C 165.486 -5.29555 0.663891 0
M  V30 1917 O 165.709 -5.68077 -0.514274 0
M  V30 1918 O 164.643 -5.84973 1.41738 0
M  V30 1919 H 168.469 -2.55074 1.64836 0
M  V30 1920 H 166.054 -1.21791 0.865289 0
M  V30 1921 H 167.936 -4.21107 -0.157073 0
M  V30 1922 H 166.611 -3.15593 -0.719932 0
M  V30 1923 H 165.518 -3.3883 1.58571 0
M  V30 1924 H 166.851 -4.46627 2.06845 0
M  V30 1925 N 168.503 -0.877838 -1.30888 0
M  V30 1926 C 169.749 -0.493426 -1.96706 0
M  V30 1927 C 170.082 0.953504 -1.6918 0
M  V30 1928 O 169.357 1.67266 -0.992594 0
M  V30 1929 C 169.64 -0.760429 -3.51979 0
M  V30 1930 C 169.493 -2.25747 -3.89048 0
M  V30 1931 C 170.812 -0.232148 -4.39487 0
M  V30 1932 H 167.931 -0.180746 -0.714493 0
M  V30 1933 H 170.573 -1.10052 -1.54882 0
M  V30 1934 H 168.723 -0.243715 -3.87735 0
M  V30 1935 H 170.395 -2.84204 -3.63354 0
M  V30 1936 H 168.638 -2.72694 -3.37373 0
M  V30 1937 H 169.309 -2.39491 -4.97341 0
M  V30 1938 H 171.785 -0.674314 -4.106 0
M  V30 1939 H 170.661 -0.448355 -5.47066 0
M  V30 1940 H 170.922 0.866297 -4.33529 0
M  V30 1941 N 169.982 1.44106 -0.638065 0
M  V30 1942 C 170.892 2.34513 0.0637334 0
M  V30 1943 C 171.908 1.53018 0.828346 0
M  V30 1944 O 173.084 1.85723 0.779036 0
M  V30 1945 C 170.149 3.31095 1.02844 0
M  V30 1946 C 169.21 4.28497 0.26244 0
M  V30 1947 C 168.443 5.20465 1.1812 0
M  V30 1948 O 168.666 5.16514 2.42011 0
M  V30 1949 O 167.6 5.98251 0.661774 0
M  V30 1950 H 171.426 2.95989 -0.68003 0
M  V30 1951 H 169.011 1.43994 -0.398252 0
M  V30 1952 H 170.893 3.90526 1.58327 0
M  V30 1953 H 169.568 2.72144 1.7527 0
M  V30 1954 H 168.475 3.72592 -0.335602 0
M  V30 1955 H 169.808 4.90388 -0.421936 0
M  V30 1956 N 171.46 0.379036 1.52974 0
M  V30 1957 C 172.876 0.0285448 1.59574 0
M  V30 1958 C 173.076 -1.45542 1.39355 0
M  V30 1959 O 172.132 -2.2187 1.20541 0
M  V30 1960 C 173.445 0.496535 2.96572 0
M  V30 1961 C 174.993 0.451909 3.0972 0
M  V30 1962 C 175.468 0.895924 4.49152 0
M  V30 1963 N 176.959 0.851522 4.55306 0
M  V30 1964 C 177.694 1.16661 5.61407 0
M  V30 1965 N 177.19 1.55166 6.752 0
M  V30 1966 N 178.983 1.08853 5.51459 0
M  V30 1967 H 171.134 1.34525 1.64367 0
M  V30 1968 H 173.397 0.550733 0.771619 0
M  V30 1969 H 173.103 1.53258 3.16552 0
M  V30 1970 H 172.977 -0.109802 3.7704 0
M  V30 1971 H 175.364 -0.575029 2.89443 0
M  V30 1972 H 175.445 1.09392 2.3123 0
M  V30 1973 H 175.089 1.92104 4.70168 0
M  V30 1974 H 175.019 0.23103 5.26093 0
M  V30 1975 H 177.51 0.568038 3.73606 0
M  V30 1976 H 177.823 1.776 7.52116 0
M  V30 1977 H 176.168 1.59044 6.76557 0
M  V30 1978 H 179.359 0.786803 4.6144 0
M  V30 1979 H 179.532 1.33742 6.34048 0
M  V30 1980 N 172.938 -1.57226 0.108567 0
M  V30 1981 C 173.888 -2.11305 -0.856396 0
M  V30 1982 C 174.872 -1.03129 -1.23504 0
M  V30 1983 O 176.064 -1.29381 -1.20787 0
M  V30 1984 C 173.193 -2.70771 -2.11041 0
M  V30 1985 C 172.279 -3.86011 -1.7566 0
M  V30 1986 N 172.67 -4.93492 -1.10902 0
M  V30 1987 C 170.968 -3.95999 -2.05185 0
M  V30 1988 C 171.669 -5.73984 -0.944308 0
M  V30 1989 N 170.645 -5.2346 -1.46596 0
M  V30 1990 H 174.447 -2.91784 -0.352002 0
M  V30 1991 H 171.961 -1.62126 -0.0942324 0
M  V30 1992 H 173.958 -3.07851 -2.81128 0
M  V30 1993 H 172.618 -1.91751 -2.62034 0
M  V30 1994 H 173.629 -5.1208 -0.774235 0
M  V30 1995 H 170.306 -3.28007 -2.58298 0
M  V30 1996 H 171.696 -6.70479 -0.436813 0
M  V30 1997 N 174.416 0.165178 -1.56732 0
M  V30 1998 C 175.832 0.517174 -1.50988 0
M  V30 1999 C 176.032 1.84331 -0.813894 0
M  V30 2000 O 175.088 2.49672 -0.37682 0
M  V30 2001 C 176.401 0.544261 -2.95733 0
M  V30 2002 C 177.949 0.631039 -3.06573 0
M  V30 2003 C 178.424 0.68896 -4.52788 0
M  V30 2004 N 179.915 0.751683 -4.5706 0
M  V30 2005 C 180.65 0.817177 -5.67547 0
M  V30 2006 N 180.146 0.843129 -6.8765 0
M  V30 2007 N 181.939 0.856668 -5.55534 0
M  V30 2008 H 174.09 -0.704318 -2.00382 0
M  V30 2009 H 176.353 -0.254687 -0.913148 0
M  V30 2010 H 176.059 -0.361607 -3.49836 0
M  V30 2011 H 175.933 1.3886 -3.5071 0
M  V30 2012 H 178.32 1.52733 -2.52501 0
M  V30 2013 H 178.401 -0.240095 -2.54671 0
M  V30 2014 H 178.045 -0.2031 -5.07494 0
M  V30 2015 H 177.975 1.57633 -5.02454 0
M  V30 2016 H 180.466 0.739661 -3.70591 0
M  V30 2017 H 180.779 0.894448 -7.67606 0
M  V30 2018 H 179.124 0.811304 -6.90248 0
M  V30 2019 H 182.315 0.833437 -4.60621 0
M  V30 2020 H 182.488 0.904247 -6.4166 0
M  V30 2021 N 175.894 1.51508 0.433938 0
M  V30 2022 C 177.31 1.39759 0.770682 0
M  V30 2023 C 177.51 0.482594 1.95636 0
M  V30 2024 O 176.566 -0.0609691 2.52426 0
M  V30 2025 C 177.879 2.81851 1.04787 0
M  V30 2026 C 179.427 2.91025 1.1521 0
M  V30 2027 C 179.902 4.34032 1.46219 0
M  V30 2028 N 181.393 4.37154 1.53136 0
M  V30 2029 C 182.128 5.4484 1.78709 0
M  V30 2030 N 181.624 6.62682 2.02051 0
M  V30 2031 N 183.417 5.32324 1.80519 0
M  V30 2032 H 175.568 2.09548 -0.346892 0
M  V30 2033 H 177.831 0.943446 -0.0928074 0
M  V30 2034 H 177.537 3.50815 0.249304 0
M  V30 2035 H 177.411 3.21386 1.97461 0
M  V30 2036 H 179.798 2.22257 1.94128 0
M  V30 2037 H 179.879 2.54983 0.204281 0
M  V30 2038 H 179.523 5.03351 0.678274 0
M  V30 2039 H 179.453 4.6759 2.42212 0
M  V30 2040 H 181.944 3.52197 1.36987 0
M  V30 2041 H 182.257 7.40543 2.20943 0
M  V30 2042 H 180.602 6.65791 1.99366 0
M  V30 2043 H 183.793 4.39246 1.61805 0
M  V30 2044 H 183.966 6.16328 2.00111 0
M  V30 2045 N 177.372 -0.689602 1.41712 0
M  V30 2046 C 178.282 -1.83314 1.46401 0
M  V30 2047 C 179.298 -1.7036 0.35405 0
M  V30 2048 O 180.474 -1.92171 0.602692 0
M  V30 2049 C 177.539 -3.19344 1.34982 0
M  V30 2050 C 176.6 -3.44363 2.56344 0
M  V30 2051 C 175.833 -4.73904 2.45461 0
M  V30 2052 O 176.056 -5.508 1.48241 0
M  V30 2053 O 174.99 -4.99839 3.35328 0
M  V30 2054 H 178.816 -1.82314 2.42889 0
M  V30 2055 H 176.401 -0.843438 1.23315 0
M  V30 2056 H 178.283 -4.00547 1.3092 0
M  V30 2057 H 176.958 -3.21014 0.41612 0
M  V30 2058 H 175.865 -2.63067 2.65982 0
M  V30 2059 H 177.198 -3.47512 3.48563 0
M  V30 2060 N 178.85 -1.27639 -0.924453 0
M  V30 2061 C 179.782 -1.06442 -2.02985 0
M  V30 2062 C 180.795 -0.0194771 -1.62788 0
M  V30 2063 O 181.984 -0.261388 -1.76576 0
M  V30 2064 C 179.084 -0.59327 -3.33667 0
M  V30 2065 C 178.257 -1.71123 -4.02537 0
M  V30 2066 C 177.316 -1.23527 -5.11495 0
M  V30 2067 O 176.342 -1.93553 -5.35281 0
M  V30 2068 N 177.544 -0.0926678 -5.80426 0
M  V30 2069 H 180.309 -2.01633 -2.2173 0
M  V30 2070 H 177.87 -1.19248 -1.09505 0
M  V30 2071 H 179.862 -0.258686 -4.03872 0
M  V30 2072 H 178.432 0.265502 -3.1147 0
M  V30 2073 H 177.652 -2.21593 -3.26022 0
M  V30 2074 H 178.94 -2.46145 -4.45298 0
M  V30 2075 H 178.338 0.491741 -5.63559 0
M  V30 2076 H 176.895 0.182714 -6.51544 0
M  V30 2077 N 180.328 1.1314 -1.09713 0
M  V30 2078 C 181.26 2.18343 -0.697056 0
M  V30 2079 C 182.273 1.60669 0.262551 0
M  V30 2080 O 183.462 1.78435 0.0481527 0
M  V30 2081 C 180.562 3.38899 -0.00684728 0
M  V30 2082 C 179.735 4.26078 -0.988741 0
M  V30 2083 C 178.794 5.25155 -0.331394 0
M  V30 2084 O 177.82 5.60701 -0.979926 0
M  V30 2085 N 179.022 5.73271 0.913261 0
M  V30 2086 H 181.787 2.5328 -1.60216 0
M  V30 2087 H 179.348 1.28491 -0.984971 0
M  V30 2088 H 181.34 4.02255 0.444191 0
M  V30 2089 H 179.91 3.02175 0.800551 0
M  V30 2090 H 179.13 3.59453 -1.61826 0
M  V30 2091 H 180.418 4.81178 -1.65364 0
M  V30 2092 H 179.816 5.46544 1.45966 0
M  V30 2093 H 178.373 6.3855 1.30757 0
M  V30 2094 N 181.806 0.884767 1.30421 0
M  V30 2095 C 182.736 0.367574 2.30589 0
M  V30 2096 C 183.717 -0.549464 1.60981 0
M  V30 2097 O 184.902 -0.46336 1.88591 0
M  V30 2098 C 182.032 -0.418944 3.44764 0
M  V30 2099 C 180.986 0.406316 4.26067 0
M  V30 2100 C 180.312 -0.506793 5.32293 0
M  V30 2101 C 181.612 1.64832 4.95608 0
M  V30 2102 H 183.306 1.20462 2.74097 0
M  V30 2103 H 180.852 0.580695 1.31772 0
M  V30 2104 H 182.805 -0.791395 4.13902 0
M  V30 2105 H 181.529 -1.28964 3.0006 0
M  V30 2106 H 180.188 0.760903 3.58617 0
M  V30 2107 H 179.836 -1.37519 4.83836 0
M  V30 2108 H 179.536 0.0415828 5.87585 0
M  V30 2109 H 181.06 -0.875764 6.04287 0
M  V30 2110 H 182.474 1.34646 5.57264 0
M  V30 2111 H 180.871 2.13688 5.60765 0
M  V30 2112 H 181.941 2.39284 4.21748 0
M  V30 2113 N 183.284 -1.43765 0.645699 0
M  V30 2114 C 184.695 -1.85193 0.236719 0
M  V30 2115 C 185.046 -1.54045 -1.21509 0
M  V30 2116 O 184.171 -0.985694 -1.92647 0
M  V30 2117 C 184.766 -3.36151 0.422845 0
M  V30 2118 C 183.325 -3.76338 0.0682492 0
M  V30 2119 C 182.472 -2.67538 0.729306 0
M  V30 2120 H 185.423 -1.34025 0.849883 0
M  V30 2121 H 185.444 -3.79032 -0.333904 0
M  V30 2122 H 184.956 -3.5879 1.47958 0
M  V30 2123 H 183.057 -3.59312 -0.986179 0
M  V30 2124 H 183.17 -4.76603 0.488469 0
M  V30 2125 H 181.534 -2.54176 0.163235 0
M  V30 2126 H 182.317 -2.93006 1.78892 0
M  V30 2127 N 184.763 -0.387143 -1.52771 0
M  V30 2128 C 186.174 0.0873634 -1.86495 0
M  V30 2129 C 186.525 1.46336 -1.30691 0
M  V30 2130 O 185.65 2.068 -0.637409 0
M  V30 2131 C 186.245 0.165305 -3.38396 0
M  V30 2132 C 184.804 0.584101 -3.7184 0
M  V30 2133 C 183.951 -0.255279 -2.76122 0
M  V30 2134 H 186.902 -0.605104 -1.46711 0
M  V30 2135 H 186.923 0.984848 -3.67534 0
M  V30 2136 H 186.435 -0.836301 -3.78982 0
M  V30 2137 H 184.536 1.59315 -3.36823 0
M  V30 2138 H 184.649 0.343749 -4.77865 0
M  V30 2139 H 183.013 0.279126 -2.53166 0
M  V30 2140 H 183.796 -1.25482 -3.19545 0
M  V30 2141 N 186.241 1.57166 -0.116904 0
M  V30 2142 C 187.171 2.18222 0.830759 0
M  V30 2143 C 188.152 1.12167 1.27877 0
M  V30 2144 O 189.337 1.40394 1.34176 0
M  V30 2145 C 186.467 2.77996 2.08172 0
M  V30 2146 C 185.421 3.89614 1.77157 0
M  V30 2147 C 184.747 4.36187 3.09265 0
M  V30 2148 C 186.047 5.1181 1.04151 0
M  V30 2149 H 187.741 2.97664 0.321992 0
M  V30 2150 H 185.287 1.4318 0.153434 0
M  V30 2151 H 187.24 3.19366 2.74924 0
M  V30 2152 H 185.964 1.9584 2.6137 0
M  V30 2153 H 184.623 3.48816 1.12796 0
M  V30 2154 H 184.271 3.50893 3.60393 0
M  V30 2155 H 183.971 5.11455 2.89288 0
M  V30 2156 H 185.495 4.80207 3.77139 0
M  V30 2157 H 186.909 5.50214 1.61052 0
M  V30 2158 H 185.306 5.92648 0.942762 0
M  V30 2159 H 186.376 4.84892 0.0279022 0
M  V30 2160 N 187.719 -0.156864 1.56817 0
M  V30 2161 C 189.135 -0.50916 1.5126 0
M  V30 2162 C 189.335 -1.83897 0.823658 0
M  V30 2163 O 188.391 -2.49469 0.390055 0
M  V30 2164 C 189.704 -0.52857 2.96018 0
M  V30 2165 C 191.252 -0.614771 3.06903 0
M  V30 2166 C 191.727 -0.664938 4.53147 0
M  V30 2167 N 193.218 -0.727433 4.57452 0
M  V30 2168 C 193.953 -0.787067 5.67973 0
M  V30 2169 N 193.449 -0.806649 6.88088 0
M  V30 2170 N 195.242 -0.827195 5.5598 0
M  V30 2171 H 187.393 0.714935 2.00006 0
M  V30 2172 H 189.656 0.259526 0.911784 0
M  V30 2173 H 189.362 0.380154 3.49639 0
M  V30 2174 H 189.236 -1.36998 3.51442 0
M  V30 2175 H 191.623 -1.51392 2.53307 0
M  V30 2176 H 191.704 0.253597 2.5454 0
M  V30 2177 H 191.348 0.230011 5.07379 0
M  V30 2178 H 191.278 -1.54966 5.03282 0
M  V30 2179 H 193.769 -0.719998 3.70978 0
M  V30 2180 H 194.082 -0.853727 7.6807 0
M  V30 2181 H 192.427 -0.774687 6.90669 0
M  V30 2182 H 195.618 -0.808998 4.61056 0
M  V30 2183 H 195.791 -0.870206 6.4213 0
M  V30 2184 N 189.197 -1.51736 -0.425897 0
M  V30 2185 C 190.445 -1.64644 -1.17204 0
M  V30 2186 C 190.766 -0.370486 -1.91448 0
M  V30 2187 O 190.036 0.614088 -1.86026 0
M  V30 2188 H 188.616 -0.606819 -0.435638 0
M  V30 2189 H 191.278 -1.88713 -0.487177 0
M  V30 2190 H 190.374 -2.47958 -1.89534 0
M  V30 2191 N 190.675 0.682077 -1.42076 0
M  V30 2192 C 191.622 1.79578 -1.44984 0
M  V30 2193 C 192.592 1.6332 -0.302614 0
M  V30 2194 O 193.777 1.83978 -0.505633 0
M  V30 2195 C 190.917 3.1756 -1.35091 0
M  V30 2196 C 190.03 3.45156 -2.59791 0
M  V30 2197 C 189.165 4.72826 -2.42093 0
M  V30 2198 C 188.204 4.93433 -3.62202 0
M  V30 2199 N 187.341 6.12338 -3.43491 0
M  V30 2200 H 192.181 1.76427 -2.40161 0
M  V30 2201 H 189.718 0.861376 -1.19242 0
M  V30 2202 H 191.676 3.97287 -1.27354 0
M  V30 2203 H 190.306 3.19854 -0.435133 0
M  V30 2204 H 189.358 2.59736 -2.77923 0
M  V30 2205 H 190.67 3.5628 -3.49094 0
M  V30 2206 H 189.824 5.60631 -2.319 0
M  V30 2207 H 188.563 4.63973 -1.50268 0
M  V30 2208 H 187.568 4.04073 -3.72834 0
M  V30 2209 H 188.793 5.04136 -4.54998 0
M  V30 2210 H 186.739 6.04672 -2.54377 0
M  V30 2211 H 186.656 6.2429 -4.26377 0
M  V30 2212 H 187.924 7.02841 -3.37097 0
M  V30 2213 N 192.153 1.28127 0.917671 0
M  V30 2214 C 193.43 1.05761 1.64542 0
M  V30 2215 C 193.81 -0.404344 2.07191 0
M  V30 2216 O 193.158 -1.38963 1.81388 0
M  V30 2217 C 193.368 2.02857 2.83989 0
M  V30 2218 C 194.716 2.32786 3.551 0
M  V30 2219 O 195.74 2.0091 2.94132 0
M  V30 2220 O 194.599 2.87169 4.64969 0
M  V30 2221 H 191.693 0.403916 0.721652 0
M  V30 2222 H 194.239 1.39431 0.967322 0
M  V30 2223 H 193.011 3.01407 2.49538 0
M  V30 2224 H 192.634 1.69809 3.59514 0
M  V30 2225 N 193.631 -1.12557 1.10312 0
M  V30 2226 C 195.047 -1.36036 0.834649 0
M  V30 2227 C 195.247 -1.93946 -0.546539 0
M  V30 2228 O 194.303 -2.16484 -1.29966 0
M  V30 2229 C 195.616 -2.30312 1.9333 0
M  V30 2230 C 197.164 -2.43906 1.9616 0
M  V30 2231 C 197.639 -3.41496 3.05195 0
M  V30 2232 N 199.13 -3.49053 3.04494 0
M  V30 2233 C 199.865 -4.24471 3.85502 0
M  V30 2234 N 199.361 -5.02966 4.76442 0
M  V30 2235 N 201.154 -4.19864 3.73725 0
M  V30 2236 H 193.305 -0.733246 1.99342 0
M  V30 2237 H 195.568 -0.385234 0.866198 0
M  V30 2238 H 195.274 -1.94933 2.92735 0
M  V30 2239 H 195.148 -3.30421 1.81939 0
M  V30 2240 H 197.535 -2.78567 0.973886 0
M  V30 2241 H 197.616 -1.4369 2.11629 0
M  V30 2242 H 197.26 -3.07565 4.04186 0
M  V30 2243 H 197.19 -4.41539 2.86968 0
M  V30 2244 H 199.681 -2.93053 2.38596 0
M  V30 2245 H 199.994 -5.57846 5.34815 0
M  V30 2246 H 198.339 -5.02167 4.80472 0
M  V30 2247 H 201.53 -3.57623 3.02032 0
M  V30 2248 H 201.703 -4.78386 4.37093 0
M  V30 2249 N 195.109 -0.891671 -1.2995 0
M  V30 2250 C 196.357 -0.512486 -1.95494 0
M  V30 2251 C 196.678 0.942776 -1.70695 0
M  V30 2252 O 195.948 1.66374 -1.03424 0
M  V30 2253 H 194.528 -0.186533 -0.723336 0
M  V30 2254 H 197.19 -1.13621 -1.58355 0
M  V30 2255 H 196.286 -0.688342 -3.04415 0
M  V30 2256 N 196.587 1.43421 -0.653314 0
M  V30 2257 C 198.003 1.56341 -0.320886 0
M  V30 2258 C 198.203 1.63696 1.17499 0
M  V30 2259 O 197.259 1.59208 1.95982 0
M  V30 2260 C 198.572 2.82424 -1.03233 0
M  V30 2261 C 200.12 2.96168 -1.01259 0
M  V30 2262 C 200.595 4.25084 -1.70492 0
M  V30 2263 N 202.086 4.31948 -1.67257 0
M  V30 2264 C 202.821 5.30466 -2.17701 0
M  V30 2265 N 202.317 6.35261 -2.76434 0
M  V30 2266 N 204.11 5.2212 -2.082 0
M  V30 2267 H 196.261 1.3689 -1.62403 0
M  V30 2268 H 198.524 0.657455 -0.682977 0
M  V30 2269 H 198.23 2.83053 -2.08744 0
M  V30 2270 H 198.104 3.72653 -0.583948 0
M  V30 2271 H 200.491 2.9508 0.0341235 0
M  V30 2272 H 200.572 2.07229 -1.49966 0
M  V30 2273 H 200.216 4.26932 -2.7512 0
M  V30 2274 H 200.146 5.1292 -1.19251 0
M  V30 2275 H 202.637 3.56838 -1.24398 0
M  V30 2276 H 202.95 7.06754 -3.12601 0
M  V30 2277 H 201.295 6.35884 -2.80495 0
M  V30 2278 H 204.486 4.39166 -1.62021 0
M  V30 2279 H 204.659 5.98739 -2.47822 0
M  V30 2280 N 198.065 0.39524 1.52563 0
M  V30 2281 C 198.975 -0.444232 2.30356 0
M  V30 2282 C 199.991 -1.06615 1.37511 0
M  V30 2283 O 201.167 -1.07067 1.70583 0
M  V30 2284 C 198.232 -1.55315 3.09964 0
M  V30 2285 C 197.293 -0.955734 4.18526 0
M  V30 2286 C 196.526 -2.01181 4.9433 0
M  V30 2287 O 196.749 -3.22781 4.70285 0
M  V30 2288 O 195.683 -1.62579 5.79527 0
M  V30 2289 H 199.509 0.189667 3.03107 0
M  V30 2290 H 197.094 0.1588 1.48554 0
M  V30 2291 H 198.976 -2.19724 3.59582 0
M  V30 2292 H 197.651 -2.17191 2.4002 0
M  V30 2293 H 196.558 -0.274743 3.7309 0
M  V30 2294 H 197.891 -0.381109 4.90722 0
M  V30 2295 N 199.544 -1.57102 0.125237 0
M  V30 2296 C 200.96 -1.57915 -0.231322 0
M  V30 2297 C 201.16 -1.13833 -1.66266 0
M  V30 2298 O 200.216 -0.828581 -2.38518 0
M  V30 2299 C 201.529 -3.00699 0.00766489 0
M  V30 2300 C 203.077 -3.12947 -0.0577483 0
M  V30 2301 C 203.552 -4.57742 0.153626 0
M  V30 2302 N 205.043 -4.63092 0.0998073 0
M  V30 2303 C 205.778 -5.72905 0.238174 0
M  V30 2304 N 205.274 -6.91445 0.433057 0
M  V30 2305 N 207.067 -5.6182 0.177308 0
M  V30 2306 H 199.218 -1.84055 1.06007 0
M  V30 2307 H 201.481 -0.850905 0.417929 0
M  V30 2308 H 201.187 -3.3726 0.997431 0
M  V30 2309 H 201.061 -3.70236 -0.721452 0
M  V30 2310 H 203.448 -2.7624 -1.03804 0
M  V30 2311 H 203.529 -2.4594 0.70335 0
M  V30 2312 H 203.173 -4.95149 1.13092 0
M  V30 2313 H 203.103 -5.22848 -0.627534 0
M  V30 2314 H 205.594 -3.77871 -0.047051 0
M  V30 2315 H 205.907 -7.70985 0.529332 0
M  V30 2316 H 204.252 -6.93415 0.469109 0
M  V30 2317 H 207.443 -4.68093 0.0259748 0
M  V30 2318 H 207.616 -6.47357 0.288582 0
M  V30 2319 N 201.022 0.148545 -1.56898 0
M  V30 2320 C 201.985 1.16736 -1.97244 0
M  V30 2321 C 202.985 1.35947 -0.858777 0
M  V30 2322 O 204.175 1.32966 -1.12542 0
M  V30 2323 C 201.307 2.52798 -2.28705 0
M  V30 2324 H 202.5 0.821279 -2.88435 0
M  V30 2325 H 200.053 0.391831 -1.51309 0
M  V30 2326 H 200.788 2.92381 -1.403 0
M  V30 2327 H 200.573 2.40216 -3.09901 0
M  V30 2328 H 202.063 3.26179 -2.60762 0
M  V30 2329 N 202.5 1.5196 0.417844 0
M  V30 2330 C 203.746 1.65836 1.16732 0
M  V30 2331 C 204.079 0.382881 1.90388 0
M  V30 2332 O 203.354 -0.618368 1.84408 0
M  V30 2333 C 203.637 2.87466 2.16876 0
M  V30 2334 C 203.49 4.25041 1.47174 0
M  V30 2335 C 204.809 3.04613 3.17646 0
M  V30 2336 H 201.928 0.603515 0.423011 0
M  V30 2337 H 204.57 1.84494 0.454105 0
M  V30 2338 H 202.72 2.71689 2.777 0
M  V30 2339 H 204.392 4.52527 0.895376 0
M  V30 2340 H 202.635 4.26843 0.773806 0
M  V30 2341 H 203.306 5.06176 2.20204 0
M  V30 2342 H 205.782 3.1923 2.66892 0
M  V30 2343 H 204.658 3.91247 3.8499 0
M  V30 2344 H 204.919 2.17541 3.84874 0
M  V30 2345 N 203.978 -0.674533 1.42435 0
M  V30 2346 C 204.941 -1.76986 1.45632 0
M  V30 2347 C 205.941 -1.5708 0.343871 0
M  V30 2348 O 207.131 -1.63367 0.604709 0
M  V30 2349 C 204.263 -3.15623 1.28822 0
M  V30 2350 H 205.456 -1.75539 2.43158 0
M  V30 2351 H 203.009 -0.884189 1.28887 0
M  V30 2352 H 203.744 -3.22696 0.322193 0
M  V30 2353 H 203.529 -3.31475 2.09444 0
M  V30 2354 H 205.019 -3.95537 1.33942 0
M  V30 2355 N 205.456 -1.28612 -0.910864 0
M  V30 2356 C 206.681 -1.1891 -1.69927 0
M  V30 2357 C 207.106 0.248372 -1.86453 0
M  V30 2358 O 206.464 1.17961 -1.37676 0
M  V30 2359 C 206.512 -1.89578 -3.06745 0
M  V30 2360 O 205.616 -1.20521 -3.94396 0
M  V30 2361 H 204.957 -0.412632 -0.520222 0
M  V30 2362 H 207.487 -1.69985 -1.1387 0
M  V30 2363 H 207.497 -1.97597 -3.56958 0
M  V30 2364 H 206.172 -2.94136 -2.94035 0
M  V30 2365 H 204.749 -1.20684 -3.52831 0
M  V30 2366 N 206.934 1.1197 -1.10907 0
M  V30 2367 C 208.162 1.87402 -0.876824 0
M  V30 2368 C 208.577 1.79894 0.573025 0
M  V30 2369 O 207.934 1.17629 1.39534 0
M  V30 2370 C 207.985 3.36428 -1.32282 0
M  V30 2371 O 207.706 3.43765 -2.71582 0
M  V30 2372 C 209.207 4.28783 -1.12518 0
M  V30 2373 H 206.427 0.592793 -0.314384 0
M  V30 2374 H 208.971 1.41649 -1.47499 0
M  V30 2375 H 207.126 3.79706 -0.768229 0
M  V30 2376 H 207.54 4.3652 -2.90776 0
M  V30 2377 H 209.014 5.31613 -1.48633 0
M  V30 2378 H 209.491 4.39153 -0.0642394 0
M  V30 2379 H 210.097 3.91291 -1.66648 0
M  V30 2380 N 208.412 0.89855 1.29475 0
M  V30 2381 C 209.322 0.379974 2.31502 0
M  V30 2382 C 210.338 -0.524695 1.659 0
M  V30 2383 O 211.514 -0.414551 1.97087 0
M  V30 2384 C 208.579 -0.385138 3.44554 0
M  V30 2385 C 207.64 0.550914 4.2575 0
M  V30 2386 C 206.873 -0.177778 5.33404 0
M  V30 2387 O 207.096 -1.40189 5.52904 0
M  V30 2388 O 206.03 0.479106 5.9999 0
M  V30 2389 H 209.856 1.22639 2.77837 0
M  V30 2390 H 207.441 0.662834 1.33891 0
M  V30 2391 H 209.323 -0.817841 4.13388 0
M  V30 2392 H 207.998 -1.20763 3.0033 0
M  V30 2393 H 206.905 1.03271 3.59564 0
M  V30 2394 H 208.238 1.33979 4.73614 0
M  V30 2395 N 209.89 -1.43072 0.660911 0
M  V30 2396 C 211.136 -2.0202 0.177708 0
M  V30 2397 C 211.469 -1.52066 -1.20787 0
M  V30 2398 O 210.744 -0.716987 -1.80802 0
M  V30 2399 C 211.027 -3.59561 0.197019 0
M  V30 2400 C 210.88 -4.19727 1.61706 0
M  V30 2401 C 212.199 -4.37664 -0.462396 0
M  V30 2402 H 209.318 -0.734034 0.0660494 0
M  V30 2403 H 211.96 -1.70272 0.843058 0
M  V30 2404 H 210.11 -3.86739 -0.369527 0
M  V30 2405 H 211.782 -4.03553 2.23479 0
M  V30 2406 H 210.025 -3.76084 2.16201 0
M  V30 2407 H 210.696 -5.28834 1.58237 0
M  V30 2408 H 213.172 -4.16095 0.0197215 0
M  V30 2409 H 212.048 -5.47305 -0.418188 0
M  V30 2410 H 212.309 -4.14493 -1.53778 0
M  V30 2411 N 211.368 -0.403325 -1.52352 0
M  V30 2412 C 212.315 0.425011 -2.26853 0
M  V30 2413 C 213.285 1.04598 -1.29029 0
M  V30 2414 O 214.47 1.07135 -1.57882 0
M  V30 2415 C 211.61 1.53888 -3.08889 0
M  V30 2416 C 210.723 0.939396 -4.21663 0
M  V30 2417 C 209.858 2.02547 -4.91068 0
M  V30 2418 C 208.897 1.40263 -5.95813 0
M  V30 2419 N 208.034 2.4286 -6.58759 0
M  V30 2420 H 212.874 -0.21674 -2.97211 0
M  V30 2421 H 210.411 -0.118722 -1.4662 0
M  V30 2422 H 212.369 2.19558 -3.54753 0
M  V30 2423 H 210.999 2.15074 -2.40714 0
M  V30 2424 H 210.051 0.171898 -3.80011 0
M  V30 2425 H 211.363 0.44436 -4.96817 0
M  V30 2426 H 210.517 2.75958 -5.40308 0
M  V30 2427 H 209.256 2.55415 -4.15469 0
M  V30 2428 H 208.261 0.653833 -5.45898 0
M  V30 2429 H 209.486 0.881719 -6.73352 0
M  V30 2430 H 207.432 2.94871 -5.85992 0
M  V30 2431 H 207.349 1.98152 -7.2957 0
M  V30 2432 H 208.617 3.15858 -7.12639 0
M  V30 2433 N 212.846 1.57033 -0.133567 0
M  V30 2434 C 213.778 2.13176 0.841944 0
M  V30 2435 C 214.791 1.07794 1.22001 0
M  V30 2436 O 215.98 1.35117 1.16643 0
M  V30 2437 C 213.08 2.62847 2.13926 0
M  V30 2438 C 212.253 3.92486 1.93064 0
M  V30 2439 C 211.312 4.27605 3.0666 0
M  V30 2440 O 210.338 4.96168 2.78937 0
M  V30 2441 N 211.54 3.861 4.33483 0
M  V30 2442 H 214.305 2.97503 0.362192 0
M  V30 2443 H 211.866 1.61821 0.05042 0
M  V30 2444 H 213.858 2.83363 2.88942 0
M  V30 2445 H 212.428 1.83319 2.53205 0
M  V30 2446 H 211.648 3.80732 1.02159 0
M  V30 2447 H 212.936 4.77225 1.76447 0
M  V30 2448 H 212.334 3.30828 4.58878 0
M  V30 2449 H 210.891 4.11694 5.05323 0
M  V30 2450 N 214.325 -0.140222 1.56975 0
M  V30 2451 C 215.272 -1.17292 1.98774 0
M  V30 2452 C 216.242 -1.4232 0.856408 0
M  V30 2453 O 217.427 -1.54541 1.119 0
M  V30 2454 C 214.567 -2.49973 2.37923 0
M  V30 2455 C 213.68 -2.32062 3.64378 0
M  V30 2456 C 212.815 -3.57825 3.926 0
M  V30 2457 C 211.854 -3.3498 5.12303 0
M  V30 2458 N 210.991 -4.52891 5.36502 0
M  V30 2459 H 215.831 -0.809472 2.86795 0
M  V30 2460 H 213.368 -0.388237 1.41884 0
M  V30 2461 H 215.326 -3.27346 2.58652 0
M  V30 2462 H 213.956 -2.84252 1.52972 0
M  V30 2463 H 213.008 -1.45711 3.51387 0
M  V30 2464 H 214.32 -2.11145 4.51906 0
M  V30 2465 H 213.474 -4.43624 4.13863 0
M  V30 2466 H 212.213 -3.81753 3.03506 0
M  V30 2467 H 211.218 -2.4757 4.90906 0
M  V30 2468 H 212.443 -3.12444 6.02956 0
M  V30 2469 H 210.389 -4.76979 4.50363 0
M  V30 2470 H 210.306 -4.35001 6.18312 0
M  V30 2471 H 211.574 -5.39884 5.62268 0
M  V30 2472 N 215.803 -1.52179 -0.40978 0
M  V30 2473 C 216.733 -1.78435 -1.5061 0
M  V30 2474 C 217.714 -0.635295 -1.57791 0
M  V30 2475 O 218.899 -0.880823 -1.73076 0
M  V30 2476 C 216.029 -1.93444 -2.88439 0
M  V30 2477 C 214.983 -3.09038 -2.96108 0
M  V30 2478 C 214.309 -3.09268 -4.36185 0
M  V30 2479 C 215.609 -4.48508 -2.67652 0
M  V30 2480 H 217.303 -2.70237 -1.28889 0
M  V30 2481 H 214.849 -1.30036 -0.618605 0
M  V30 2482 H 216.802 -2.10394 -3.65119 0
M  V30 2483 H 215.526 -0.983129 -3.11452 0
M  V30 2484 H 214.185 -2.91837 -2.21872 0
M  V30 2485 H 213.833 -2.11861 -4.56206 0
M  V30 2486 H 213.533 -3.86907 -4.42241 0
M  V30 2487 H 215.057 -3.28348 -5.14801 0
M  V30 2488 H 216.471 -4.65918 -3.34056 0
M  V30 2489 H 214.868 -5.28059 -2.85085 0
M  V30 2490 H 215.938 -4.56649 -1.63095 0
M  V30 2491 N 217.281 0.66697 -1.42791 0
M  V30 2492 C 218.213 1.7925 -1.42836 0
M  V30 2493 C 219.226 1.59496 -0.326333 0
M  V30 2494 O 220.415 1.6847 -0.589916 0
M  V30 2495 C 217.515 3.16476 -1.21229 0
M  V30 2496 C 216.688 3.63011 -2.44013 0
M  V30 2497 C 215.747 4.78993 -2.17834 0
M  V30 2498 O 214.773 4.89137 -2.91091 0
M  V30 2499 N 215.975 5.68248 -1.18635 0
M  V30 2500 H 218.74 1.79695 -2.39854 0
M  V30 2501 H 216.301 0.850338 -1.37771 0
M  V30 2502 H 218.293 3.91734 -1.01621 0
M  V30 2503 H 216.863 3.10884 -0.32706 0
M  V30 2504 H 216.083 2.78346 -2.79137 0
M  V30 2505 H 217.371 3.90845 -3.25757 0
M  V30 2506 H 216.769 5.62712 -0.580615 0
M  V30 2507 H 215.326 6.43285 -1.05013 0
M  V30 2508 N 218.759 1.29093 0.90403 0
M  V30 2509 C 219.669 1.15727 2.0407 0
M  V30 2510 C 220.685 0.0815308 1.73809 0
M  V30 2511 O 221.861 0.292749 1.99261 0
M  V30 2512 C 218.926 0.830424 3.36608 0
M  V30 2513 C 217.987 1.98955 3.80415 0
M  V30 2514 C 217.22 1.6782 5.06628 0
M  V30 2515 O 217.443 0.597105 5.67266 0
M  V30 2516 O 216.377 2.52486 5.46383 0
M  V30 2517 H 220.203 2.11171 2.18267 0
M  V30 2518 H 217.788 1.08504 1.027 0
M  V30 2519 H 219.67 0.662521 4.16159 0
M  V30 2520 H 218.345 -0.0942678 3.23563 0
M  V30 2521 H 217.252 2.21267 3.01648 0
M  V30 2522 H 218.585 2.89529 3.98037 0
M  V30 2523 N 220.237 -1.11381 1.11499 0
M  V30 2524 C 221.484 -1.83132 0.864231 0
M  V30 2525 C 221.812 -1.84683 -0.610114 0
M  V30 2526 O 221.067 -1.29589 -1.46646 0
M  V30 2527 C 221.366 -3.30026 1.37177 0
M  V30 2528 C 221.032 -3.48634 2.85946 0
M  V30 2529 C 219.694 -3.53421 3.26569 0
M  V30 2530 C 222.046 -3.54837 3.81759 0
M  V30 2531 C 219.374 -3.61967 4.61733 0
M  V30 2532 C 221.726 -3.64915 5.1674 0
M  V30 2533 C 220.39 -3.67962 5.5692 0
M  V30 2534 H 219.66 -0.670127 0.316245 0
M  V30 2535 H 222.307 -1.31354 1.3935 0
M  V30 2536 H 220.612 -3.84304 0.762753 0
M  V30 2537 H 222.309 -3.84034 1.15408 0
M  V30 2538 H 218.899 -3.45579 2.53521 0
M  V30 2539 H 223.083 -3.50399 3.51474 0
M  V30 2540 H 218.339 -3.62603 4.92269 0
M  V30 2541 H 222.513 -3.68658 5.90816 0
M  V30 2542 H 220.14 -3.74336 6.61647 0
M  V30 2543 N 221.715 -0.905404 -1.28997 0
M  V30 2544 C 222.645 -0.404212 -2.29975 0
M  V30 2545 C 223.626 0.523784 -1.61835 0
M  V30 2546 O 224.811 0.433298 -1.89304 0
M  V30 2547 C 221.941 0.364042 -3.45387 0
M  V30 2548 C 220.895 -0.474048 -4.25367 0
M  V30 2549 C 220.221 0.422045 -5.33032 0
M  V30 2550 C 221.521 -1.72696 -4.92923 0
M  V30 2551 H 223.215 -1.24807 -2.72146 0
M  V30 2552 H 220.761 -0.601585 -1.30832 0
M  V30 2553 H 222.714 0.725447 -4.15109 0
M  V30 2554 H 221.438 1.24174 -3.02074 0
M  V30 2555 H 220.097 -0.81786 -3.57361 0
M  V30 2556 H 219.745 1.29804 -4.85963 0
M  V30 2557 H 219.445 -0.135057 -5.87445 0
M  V30 2558 H 220.969 0.779517 -6.05604 0
M  V30 2559 H 222.383 -1.43495 -5.55051 0
M  V30 2560 H 220.78 -2.22582 -5.57295 0
M  V30 2561 H 221.85 -2.45964 -4.17887 0
M  V30 2562 N 223.193 1.4272 -0.668489 0
M  V30 2563 C 224.123 2.335 -0.000100175 0
M  V30 2564 C 225.104 1.50328 0.795964 0
M  V30 2565 O 226.289 1.78949 0.754385 0
M  V30 2566 C 223.419 3.33874 0.956302 0
M  V30 2567 C 222.373 4.27152 0.269278 0
M  V30 2568 C 221.699 5.17684 1.33818 0
M  V30 2569 C 222.999 5.15373 -0.847805 0
M  V30 2570 H 224.693 2.89639 -0.758244 0
M  V30 2571 H 222.239 1.39269 -0.366079 0
M  V30 2572 H 224.192 3.9629 1.43292 0
M  V30 2573 H 222.916 2.76025 1.74579 0
M  V30 2574 H 221.575 3.66123 -0.187042 0
M  V30 2575 H 221.223 4.56165 2.1195 0
M  V30 2576 H 220.923 5.80918 0.883659 0
M  V30 2577 H 222.447 5.82974 1.81586 0
M  V30 2578 H 223.861 5.7151 -0.452681 0
M  V30 2579 H 222.258 5.87407 -1.22773 0
M  V30 2580 H 223.328 4.5415 -1.69929 0
M  V30 2581 N 224.671 0.411399 1.52136 0
M  V30 2582 C 225.896 -0.165538 2.06738 0
M  V30 2583 C 226.321 -1.379 1.27926 0
M  V30 2584 O 225.679 -1.78628 0.310114 0
M  V30 2585 C 225.727 -0.492124 3.57226 0
M  V30 2586 O 224.831 -1.58276 3.80818 0
M  V30 2587 H 224.172 -0.0132132 0.663869 0
M  V30 2588 H 226.702 0.585253 1.96051 0
M  V30 2589 H 226.712 -0.750104 4.01045 0
M  V30 2590 H 225.387 0.394922 4.14021 0
M  V30 2591 H 223.964 -1.31677 3.48877 0
M  V30 2592 N 226.149 -1.5696 0.141893 0
M  V30 2593 C 227.096 -2.16501 -0.799737 0
M  V30 2594 C 228.066 -1.09643 -1.24771 0
M  V30 2595 O 229.251 -1.3766 -1.32115 0
M  V30 2596 C 226.391 -2.78679 -2.03549 0
M  V30 2597 C 225.504 -3.99914 -1.6338 0
M  V30 2598 C 224.639 -4.50106 -2.82096 0
M  V30 2599 C 223.678 -5.63819 -2.38275 0
M  V30 2600 N 222.815 -6.08651 -3.49983 0
M  V30 2601 H 227.655 -2.96632 -0.285179 0
M  V30 2602 H 225.192 -1.46533 -0.129053 0
M  V30 2603 H 227.15 -3.1287 -2.75986 0
M  V30 2604 H 225.78 -2.012 -2.52425 0
M  V30 2605 H 224.832 -3.71735 -0.807279 0
M  V30 2606 H 226.144 -4.82311 -1.27192 0
M  V30 2607 H 225.298 -4.86325 -3.62729 0
M  V30 2608 H 224.037 -3.66706 -3.21525 0
M  V30 2609 H 223.042 -5.2718 -1.56081 0
M  V30 2610 H 224.267 -6.49 -1.99938 0
M  V30 2611 H 222.213 -5.28188 -3.89042 0
M  V30 2612 H 222.13 -6.85961 -3.17794 0
M  V30 2613 H 223.398 -6.49515 -4.30988 0
M  V30 2614 N 227.627 0.131896 -1.57047 0
M  V30 2615 C 228.852 0.860418 -1.8871 0
M  V30 2616 C 229.277 1.73251 -0.73251 0
M  V30 2617 O 228.635 1.785 0.317429 0
M  V30 2618 C 228.683 1.68047 -3.19049 0
M  V30 2619 O 227.787 2.7862 -3.04047 0
M  V30 2620 H 227.128 0.238743 -0.619595 0
M  V30 2621 H 229.658 0.118169 -2.04258 0
M  V30 2622 H 229.668 2.07238 -3.51449 0
M  V30 2623 H 228.343 1.04018 -4.02682 0
M  V30 2624 H 226.92 2.42726 -2.83088 0
M  V30 2625 N 229.106 1.52395 0.401703 0
M  V30 2626 C 230.069 1.75636 1.47257 0
M  V30 2627 C 231.069 0.62628 1.48103 0
M  V30 2628 O 232.259 0.894227 1.49497 0
M  V30 2629 C 229.391 1.84553 2.86624 0
M  V30 2630 H 230.584 2.71241 1.27938 0
M  V30 2631 H 228.137 1.42923 0.632662 0
M  V30 2632 H 228.872 0.908882 3.11303 0
M  V30 2633 H 228.657 2.66715 2.87412 0
M  V30 2634 H 230.147 2.04251 3.64241 0
M  V30 2635 N 230.584 -0.659388 1.43143 0
M  V30 2636 C 231.812 -1.44723 1.47861 0
M  V30 2637 C 232.227 -1.88563 0.0945886 0
M  V30 2638 O 231.584 -1.59108 -0.893915 0
M  V30 2639 C 231.635 -2.68627 2.41913 0
M  V30 2640 O 231.356 -2.26623 3.74932 0
M  V30 2641 C 232.857 -3.62045 2.55809 0
M  V30 2642 H 230.077 -0.444801 0.502387 0
M  V30 2643 H 232.621 -0.808916 1.87821 0
M  V30 2644 H 230.776 -3.28613 2.05164 0
M  V30 2645 H 231.19 -3.06745 4.2545 0
M  V30 2646 H 232.664 -4.45666 3.25708 0
M  V30 2647 H 233.141 -4.08981 1.60099 0
M  V30 2648 H 233.747 -3.07944 2.93344 0
M  V30 2649 N 232.062 -1.29571 -0.897171 0
M  V30 2650 C 233.009 -1.14916 -2.00158 0
M  V30 2651 C 233.979 -0.0418149 -1.66047 0
M  V30 2652 O 235.164 -0.209793 -1.89643 0
M  V30 2653 C 232.304 -0.834307 -3.34863 0
M  V30 2654 C 231.417 -2.02234 -3.8174 0
M  V30 2655 C 230.552 -1.64664 -5.05034 0
M  V30 2656 C 229.591 -2.80033 -5.44286 0
M  V30 2657 N 228.728 -2.42843 -6.58765 0
M  V30 2658 H 233.568 -2.09403 -2.12025 0
M  V30 2659 H 231.105 -1.042 -1.0383 0
M  V30 2660 H 233.063 -0.632436 -4.12379 0
M  V30 2661 H 231.693 0.0736656 -3.22716 0
M  V30 2662 H 230.745 -2.33583 -3.00238 0
M  V30 2663 H 232.057 -2.88673 -4.06779 0
M  V30 2664 H 231.211 -1.4078 -5.9014 0
M  V30 2665 H 229.95 -0.753766 -4.8184 0
M  V30 2666 H 228.955 -3.04596 -4.57713 0
M  V30 2667 H 230.18 -3.69989 -5.6946 0
M  V30 2668 H 228.126 -1.56046 -6.3717 0
M  V30 2669 H 228.043 -3.22815 -6.83613 0
M  V30 2670 H 229.311 -2.22285 -7.47134 0
M  V30 2671 N 233.54 1.10788 -1.12088 0
M  V30 2672 C 234.817 1.79136 -0.785476 0
M  V30 2673 C 235.197 1.98246 0.725377 0
M  V30 2674 O 234.545 1.57258 1.65778 0
M  V30 2675 C 234.755 3.12375 -1.55636 0
M  V30 2676 C 236.103 3.8731 -1.74001 0
M  V30 2677 O 237.127 3.22085 -1.52117 0
M  V30 2678 O 235.986 5.04369 -2.10415 0
M  V30 2679 H 233.08 0.776226 -0.285311 0
M  V30 2680 H 235.626 1.1747 -1.2247 0
M  V30 2681 H 234.398 2.93863 -2.5838 0
M  V30 2682 H 234.021 3.81758 -1.11114 0
M  V30 2683 N 235.018 0.912232 1.28515 0
M  V30 2684 C 236.246 0.560416 1.99166 0
M  V30 2685 C 236.661 -0.857927 1.68182 0
M  V30 2686 O 236.018 -1.56805 0.933733 0
M  V30 2687 C 236.069 0.758142 3.53461 0
M  V30 2688 O 235.79 2.12067 3.83352 0
M  V30 2689 C 237.291 0.412954 4.41372 0
M  V30 2690 H 234.511 0.213805 0.636026 0
M  V30 2691 H 237.055 1.22502 1.63749 0
M  V30 2692 H 235.21 0.140556 3.87145 0
M  V30 2693 H 235.624 2.15923 4.77993 0
M  V30 2694 H 237.098 0.60208 5.48707 0
M  V30 2695 H 237.575 -0.65073 4.34353 0
M  V30 2696 H 238.181 1.00802 4.13182 0
M  V30 2697 N 236.496 -1.42363 0.676048 0
M  V30 2698 C 237.907 -1.84649 0.275948 0
M  V30 2699 C 238.258 -1.56588 -1.18214 0
M  V30 2700 O 237.383 -1.02634 -1.90513 0
M  V30 2701 C 237.978 -3.35178 0.494053 0
M  V30 2702 C 236.537 -3.76109 0.148061 0
M  V30 2703 C 235.684 -2.65931 0.785891 0
M  V30 2704 H 238.635 -1.32192 0.878121 0
M  V30 2705 H 238.656 -3.79655 -0.25343 0
M  V30 2706 H 238.168 -3.55571 1.55535 0
M  V30 2707 H 236.269 -3.61323 -0.909742 0
M  V30 2708 H 236.382 -4.7546 0.589454 0
M  V30 2709 H 234.746 -2.53773 0.217113 0
M  V30 2710 H 235.529 -2.89146 1.85067 0
M  V30 2711 N 237.974 -0.419461 -1.51915 0
M  V30 2712 C 239.202 0.152136 -2.0634 0
M  V30 2713 C 239.617 1.37988 -1.28859 0
M  V30 2714 O 238.974 1.79243 -0.343232 0
M  V30 2715 C 239.025 0.492266 -3.58133 0
M  V30 2716 O 238.746 -0.686736 -4.32684 0
M  V30 2717 C 240.247 1.11648 -4.2901 0
M  V30 2718 H 237.467 0.0158325 -0.670813 0
M  V30 2719 H 240.011 -0.593394 -1.95702 0
M  V30 2720 H 238.166 1.18769 -3.68745 0
M  V30 2721 H 238.58 -0.400341 -5.2297 0
M  V30 2722 H 240.054 1.3046 -5.36362 0
M  V30 2723 H 240.531 2.09251 -3.86148 0
M  V30 2724 H 241.137 0.460958 -4.22795 0
M  V30 2725 N 239.452 1.56882 -0.150215 0
M  V30 2726 C 240.4 2.18214 0.805313 0
M  V30 2727 C 241.394 1.14006 1.25296 0
M  V30 2728 O 242.6 1.3225 1.22107 0
M  V30 2729 H 238.975 0.698762 0.277913 0
M  V30 2730 H 240.946 2.97231 0.263862 0
M  V30 2731 C 239.695 2.82065 2.03309 0
M  V30 2732 H 239.018 3.61968 1.69763 0
M  V30 2733 H 240.458 3.28477 2.68103 0
M  V30 2734 C 238.917 1.80739 2.84315 0
M  V30 2735 O 239.447 1.27983 3.80767 0
M  V30 2736 N 237.653 1.4997 2.48913 0
M  V30 2737 H 237.2 1.93062 1.70542 0
M  V30 2738 H 237.158 0.824217 3.03404 0
M  V30 2739 N 240.93 -0.123565 1.57115 0
M  V30 2740 C 242.178 -0.83051 1.84247 0
M  V30 2741 C 242.499 -1.80629 0.73471 0
M  V30 2742 O 241.769 -1.94403 -0.241688 0
M  V30 2743 H 240.349 -0.309694 0.679778 0
M  V30 2744 H 243.011 -0.111976 1.94578 0
M  V30 2745 H 242.107 -1.37852 2.80006 0
M  V30 2746 N 242.408 -1.52605 -0.393616 0
M  V30 2747 C 243.355 -1.77055 -1.48054 0
M  V30 2748 C 244.325 -0.61358 -1.54352 0
M  V30 2749 O 245.51 -0.852806 -1.70681 0
M  V30 2750 C 242.65 -1.94108 -2.85335 0
M  V30 2751 C 241.763 -3.21792 -2.88226 0
M  V30 2752 C 240.898 -3.29188 -4.16904 0
M  V30 2753 C 239.937 -4.51013 -4.13828 0
M  V30 2754 N 239.074 -4.55716 -5.34105 0
M  V30 2755 H 243.914 -2.69815 -1.26506 0
M  V30 2756 H 241.451 -1.33683 -0.61379 0
M  V30 2757 H 243.409 -2.01979 -3.65049 0
M  V30 2758 H 242.039 -1.04713 -3.05344 0
M  V30 2759 H 241.091 -3.23015 -2.00911 0
M  V30 2760 H 242.403 -4.11557 -2.8182 0
M  V30 2761 H 241.557 -3.36216 -5.05018 0
M  V30 2762 H 240.296 -2.37389 -4.26026 0
M  V30 2763 H 239.301 -4.44115 -3.24102 0
M  V30 2764 H 240.526 -5.44123 -4.06333 0
M  V30 2765 H 238.472 -3.66807 -5.43865 0
M  V30 2766 H 238.389 -5.39346 -5.29756 0
M  V30 2767 H 239.657 -4.66993 -6.2413 0
M  V30 2768 N 243.887 0.651787 -1.4349 0
M  V30 2769 C 244.835 1.78586 -1.49029 0
M  V30 2770 C 245.829 1.65448 -0.363767 0
M  V30 2771 O 247.035 1.71777 -0.537821 0
M  V30 2772 H 243.41 0.589236 -0.467231 0
M  V30 2773 H 245.381 1.71035 -2.44519 0
M  V30 2774 C 244.13 3.16851 -1.43181 0
M  V30 2775 H 243.453 3.27598 -2.29171 0
M  V30 2776 H 244.893 3.96156 -1.51118 0
M  V30 2777 C 243.352 3.36568 -0.149616 0
M  V30 2778 O 243.882 3.93885 0.788509 0
M  V30 2779 N 242.088 2.90539 -0.0593484 0
M  V30 2780 H 241.635 2.4408 -0.823575 0
M  V30 2781 H 241.593 3.04108 0.797853 0
M  V30 2782 N 245.365 1.30045 0.890287 0
M  V30 2783 C 246.315 1.12592 1.9826 0
M  V30 2784 C 247.299 0.0426021 1.60844 0
M  V30 2785 O 248.491 0.265346 1.75 0
M  V30 2786 C 245.62 0.814301 3.33503 0
M  V30 2787 C 244.706 1.93761 3.7725 0
M  V30 2788 N 245.097 3.18232 3.93143 0
M  V30 2789 C 243.395 1.83277 4.06602 0
M  V30 2790 C 244.096 3.9158 4.30163 0
M  V30 2791 N 243.072 3.19591 4.3973 0
M  V30 2792 H 246.874 2.07003 2.08631 0
M  V30 2793 H 244.388 1.21307 1.07974 0
M  V30 2794 H 246.385 0.67029 4.11476 0
M  V30 2795 H 245.045 -0.121797 3.24471 0
M  V30 2796 H 246.056 3.53581 3.78419 0
M  V30 2797 H 242.733 0.97001 4.06075 0
M  V30 2798 H 244.123 4.98744 4.50226 0
M  V30 2799 N 246.843 -1.10192 1.12674 0
M  V30 2800 C 248.068 -1.86523 0.906853 0
M  V30 2801 C 248.493 -1.80221 -0.538711 0
M  V30 2802 O 247.851 -1.17396 -1.38158 0
M  V30 2803 C 247.899 -3.32758 1.3894 0
M  V30 2804 O 247.003 -4.08449 0.5695 0
M  V30 2805 H 246.344 -0.578678 0.325619 0
M  V30 2806 H 248.874 -1.39203 1.49946 0
M  V30 2807 H 248.884 -3.83608 1.38958 0
M  V30 2808 H 247.559 -3.36661 2.44197 0
M  V30 2809 H 246.136 -3.67427 0.636528 0
M  V30 2810 N 248.321 -0.919034 -1.28029 0
M  V30 2811 C 249.567 -0.555757 -1.95036 0
M  V30 2812 C 249.9 0.899198 -1.72128 0
M  V30 2813 O 249.175 1.64023 -1.04531 0
M  V30 2814 C 249.458 -0.872024 -3.49382 0
M  V30 2815 C 249.311 -2.3801 -3.81669 0
M  V30 2816 C 250.63 -0.37185 -4.38526 0
M  V30 2817 H 247.749 -0.203386 -0.708381 0
M  V30 2818 H 250.391 -1.14924 -1.51303 0
M  V30 2819 H 248.541 -0.366946 -3.86763 0
M  V30 2820 H 250.213 -2.9562 -3.54128 0
M  V30 2821 H 248.456 -2.83289 -3.28526 0
M  V30 2822 H 249.127 -2.55192 -4.8947 0
M  V30 2823 H 251.603 -0.804602 -4.08247 0
M  V30 2824 H 250.479 -0.622173 -5.45362 0
M  V30 2825 H 250.74 0.727934 -4.36066 0
M  V30 2826 N 249.799 1.42003 -0.683588 0
M  V30 2827 C 251.024 2.06265 -0.216647 0
M  V30 2828 C 251.449 1.51059 1.12083 0
M  V30 2829 O 250.807 0.632638 1.69904 0
M  V30 2830 C 250.855 3.60191 -0.171759 0
M  V30 2831 O 249.959 4.03396 0.857069 0
M  V30 2832 H 249.3 0.65502 -0.108834 0
M  V30 2833 H 251.83 1.81982 -0.935077 0
M  V30 2834 H 251.84 4.08 0.0014303 0
M  V30 2835 H 250.515 3.99743 -1.14796 0
M  V30 2836 H 249.092 3.67117 0.654208 0
M  V30 2837 N 251.277 0.427512 1.51691 0
M  V30 2838 C 252.693 0.0792977 1.59403 0
M  V30 2839 C 252.893 -1.41035 1.43914 0
M  V30 2840 O 251.949 -2.17922 1.27539 0
M  V30 2841 C 253.262 0.590636 2.94842 0
M  V30 2842 C 254.81 0.550215 3.08126 0
M  V30 2843 C 255.285 1.03836 4.46074 0
M  V30 2844 N 256.776 0.995943 4.52366 0
M  V30 2845 C 257.511 1.34463 5.57411 0
M  V30 2846 N 257.007 1.76569 6.69922 0
M  V30 2847 N 258.8 1.26343 5.47717 0
M  V30 2848 H 250.951 1.39687 1.60004 0
M  V30 2849 H 253.214 0.575003 0.753708 0
M  V30 2850 H 252.92 1.63251 3.11516 0
M  V30 2851 H 252.794 0.0102061 3.77199 0
M  V30 2852 H 255.181 -0.482654 2.91126 0
M  V30 2853 H 255.262 1.16693 2.27632 0
M  V30 2854 H 254.906 2.06965 4.63819 0
M  V30 2855 H 254.836 0.398286 5.25092 0
M  V30 2856 H 257.327 0.68661 3.7161 0
M  V30 2857 H 257.64 2.01438 7.46085 0
M  V30 2858 H 255.985 1.80488 6.71155 0
M  V30 2859 H 259.176 0.933209 4.58703 0
M  V30 2860 H 259.349 1.53846 6.29472 0
M  V30 2861 N 252.755 -1.56801 0.158532 0
M  V30 2862 C 253.705 -2.13923 -0.788738 0
M  V30 2863 C 254.689 -1.07006 -1.2016 0
M  V30 2864 O 255.881 -1.33159 -1.1661 0
M  V30 2865 C 253.01 -2.77348 -2.02319 0
M  V30 2866 C 252.096 -3.91404 -1.6329 0
M  V30 2867 N 252.487 -4.9677 -0.951463 0
M  V30 2868 C 250.785 -4.02326 -1.92482 0
M  V30 2869 C 251.486 -5.76698 -0.761221 0
M  V30 2870 N 250.462 -5.27859 -1.29869 0
M  V30 2871 H 254.264 -2.92757 -0.258995 0
M  V30 2872 H 251.778 -1.62344 -0.0426055 0
M  V30 2873 H 253.775 -3.16639 -2.71192 0
M  V30 2874 H 252.435 -1.99991 -2.558 0
M  V30 2875 H 253.446 -5.14284 -0.610928 0
M  V30 2876 H 250.123 -3.36059 -2.47732 0
M  V30 2877 H 251.513 -6.71529 -0.223284 0
M  V30 2878 N 254.233 0.115231 -1.57178 0
M  V30 2879 C 255.644 0.67197 -1.74188 0
M  V30 2880 C 255.995 1.80125 -0.777777 0
M  V30 2881 O 255.12 2.16346 0.0484376 0
M  V30 2882 C 255.715 1.22573 -3.1585 0
M  V30 2883 C 254.274 1.72872 -3.34353 0
M  V30 2884 C 253.421 0.629972 -2.70049 0
M  V30 2885 H 256.372 -0.110712 -1.58313 0
M  V30 2886 H 256.393 2.09535 -3.17609 0
M  V30 2887 H 255.905 0.403598 -3.85996 0
M  V30 2888 H 254.006 2.5755 -2.69256 0
M  V30 2889 H 254.119 1.83557 -4.42542 0
M  V30 2890 H 252.483 1.0645 -2.31388 0
M  V30 2891 H 253.266 -0.181241 -3.42821 0
M  V30 2892 N 255.711 1.52812 0.385517 0
M  V30 2893 C 256.658 1.77838 1.47113 0
M  V30 2894 C 257.628 0.621757 1.54024 0
M  V30 2895 O 258.813 0.861846 1.70226 0
M  V30 2896 C 255.953 1.95618 2.84302 0
M  V30 2897 C 255.066 3.23316 2.86515 0
M  V30 2898 C 254.201 3.31394 4.15152 0
M  V30 2899 C 253.24 4.53201 4.1143 0
M  V30 2900 N 252.377 4.58542 5.3168 0
M  V30 2901 H 257.217 2.70482 1.25073 0
M  V30 2902 H 254.754 1.34006 0.606692 0
M  V30 2903 H 256.712 2.03912 3.63972 0
M  V30 2904 H 255.342 1.06331 3.04784 0
M  V30 2905 H 254.394 3.24076 1.99195 0
M  V30 2906 H 255.706 4.13045 2.79634 0
M  V30 2907 H 254.86 3.3889 5.03228 0
M  V30 2908 H 253.599 2.39645 4.24761 0
M  V30 2909 H 252.604 4.45827 3.21742 0
M  V30 2910 H 253.829 5.46271 4.03442 0
M  V30 2911 H 251.775 3.69686 5.41912 0
M  V30 2912 H 251.692 5.42148 5.26889 0
M  V30 2913 H 252.96 4.70296 6.21644 0
M  V30 2914 N 257.189 -0.644168 1.43834 0
M  V30 2915 C 258.119 -1.76814 1.52509 0
M  V30 2916 C 259.1 -1.65823 0.379052 0
M  V30 2917 O 260.285 -1.84781 0.597466 0
M  V30 2918 C 257.415 -3.15288 1.4564 0
M  V30 2919 C 256.369 -3.41053 2.58586 0
M  V30 2920 C 255.695 -4.79421 2.36769 0
M  V30 2921 C 256.995 -3.34902 4.00797 0
M  V30 2922 H 258.689 -1.69812 2.46586 0
M  V30 2923 H 256.235 -0.815542 1.1868 0
M  V30 2924 H 258.188 -3.93681 1.50311 0
M  V30 2925 H 256.912 -3.23043 0.480725 0
M  V30 2926 H 255.571 -2.65035 2.53282 0
M  V30 2927 H 255.219 -4.83863 1.37424 0
M  V30 2928 H 254.919 -4.9762 3.12487 0
M  V30 2929 H 256.443 -5.6006 2.43238 0
M  V30 2930 H 257.857 -4.03218 4.07539 0
M  V30 2931 H 256.254 -3.64637 4.76613 0
M  V30 2932 H 257.324 -2.32928 4.25291 0
M  V30 2933 N 258.668 -1.30515 -0.883378 0
M  V30 2934 C 259.914 -1.20617 -1.63778 0
M  V30 2935 C 260.269 0.236469 -1.90941 0
M  V30 2936 O 259.562 1.16596 -1.52039 0
M  V30 2937 C 259.756 -1.96994 -2.98209 0
M  V30 2938 C 259.585 -3.48537 -2.84169 0
M  V30 2939 C 258.355 -4.17893 -2.84067 0
M  V30 2940 C 260.553 -4.43738 -2.60001 0
M  V30 2941 N 258.535 -5.55685 -2.60936 0
M  V30 2942 C 259.906 -5.69105 -2.46007 0
M  V30 2943 C 261.961 -4.33316 -2.45239 0
M  V30 2944 C 260.664 -6.8523 -2.18752 0
M  V30 2945 C 262.69 -5.4921 -2.19369 0
M  V30 2946 C 262.052 -6.73558 -2.06153 0
M  V30 2947 H 258.151 -0.496434 -0.604216 0
M  V30 2948 H 260.735 -1.64544 -1.04083 0
M  V30 2949 H 258.906 -1.55455 -3.55933 0
M  V30 2950 H 260.638 -1.79225 -3.62851 0
M  V30 2951 H 257.393 -3.69739 -2.95956 0
M  V30 2952 H 257.817 -6.28199 -2.52378 0
M  V30 2953 H 262.459 -3.37856 -2.54191 0
M  V30 2954 H 260.177 -7.80729 -2.08537 0
M  V30 2955 H 263.763 -5.43054 -2.08766 0
M  V30 2956 H 262.643 -7.61721 -1.86416 0
M  V30 2957 N 260.146 1.09593 -1.13257 0
M  V30 2958 C 261.376 1.85231 -0.915049 0
M  V30 2959 C 261.784 1.81345 0.539498 0
M  V30 2960 O 261.127 1.20664 1.38513 0
M  V30 2961 C 261.189 3.34275 -1.3229 0
M  V30 2962 C 260.853 3.6191 -2.79052 0
M  V30 2963 C 261.85 3.57777 -3.77216 0
M  V30 2964 C 259.535 3.90309 -3.16171 0
M  V30 2965 C 261.529 3.81652 -5.1051 0
M  V30 2966 C 259.216 4.13839 -4.49644 0
M  V30 2967 C 260.214 4.09502 -5.46623 0
M  V30 2968 O 259.902 4.32426 -6.77689 0
M  V30 2969 H 259.634 0.591997 -0.326367 0
M  V30 2970 H 262.188 1.394 -1.50854 0
M  V30 2971 H 260.418 3.80805 -0.672667 0
M  V30 2972 H 262.107 3.9132 -1.07812 0
M  V30 2973 H 262.873 3.35865 -3.49885 0
M  V30 2974 H 258.752 3.92811 -2.41289 0
M  V30 2975 H 262.296 3.78182 -5.86195 0
M  V30 2976 H 258.193 4.35232 -4.767 0
M  V30 2977 H 258.961 4.49896 -6.83766 0
M  V30 2978 N 261.624 0.925811 1.2754 0
M  V30 2979 C 262.852 0.581509 1.9856 0
M  V30 2980 C 263.267 -0.840041 1.69082 0
M  V30 2981 O 262.624 -1.55805 0.950312 0
M  V30 2982 C 262.675 0.795589 3.52637 0
M  V30 2983 O 262.396 2.16121 3.81082 0
M  V30 2984 C 263.897 0.459744 4.4091 0
M  V30 2985 H 261.117 0.220538 0.633722 0
M  V30 2986 H 263.661 1.24232 1.6244 0
M  V30 2987 H 261.816 0.18161 3.86974 0
M  V30 2988 H 262.23 2.2098 4.75676 0
M  V30 2989 H 263.704 0.660244 5.48037 0
M  V30 2990 H 264.181 -0.604625 4.35018 0
M  V30 2991 H 264.787 1.05178 4.12089 0
M  V30 2992 N 263.102 -1.41638 0.69111 0
M  V30 2993 C 264.065 -2.29178 0.0319786 0
M  V30 2994 C 265.065 -1.44153 -0.712496 0
M  V30 2995 O 266.255 -1.65354 -0.548053 0
M  V30 2996 C 263.387 -3.26952 -0.965161 0
M  V30 2997 H 264.58 -2.88959 0.802681 0
M  V30 2998 H 262.133 -1.4955 0.454356 0
M  V30 2999 H 262.868 -2.72142 -1.76378 0
M  V30 3000 H 262.653 -3.89685 -0.434522 0
M  V30 3001 H 264.143 -3.92561 -1.42428 0
M  V30 3002 N 264.58 -0.43555 -1.51462 0
M  V30 3003 C 265.543 0.365137 -2.26273 0
M  V30 3004 C 266.543 0.951227 -1.29647 0
M  V30 3005 O 267.733 0.825958 -1.53374 0
M  V30 3006 C 264.865 1.51645 -3.05314 0
M  V30 3007 H 266.058 -0.290474 -2.9849 0
M  V30 3008 H 263.611 -0.188676 -1.55157 0
M  V30 3009 H 264.346 2.20816 -2.3751 0
M  V30 3010 H 264.131 1.10238 -3.76284 0
M  V30 3011 H 265.621 2.08218 -3.61987 0
M  V30 3012 N 266.058 1.56714 -0.166846 0
M  V30 3013 C 267.008 2.14338 0.777382 0
M  V30 3014 C 267.992 1.07642 1.19591 0
M  V30 3015 O 269.184 1.33775 1.15902 0
M  V30 3016 C 266.313 2.78417 2.00846 0
M  V30 3017 C 265.399 3.92264 1.61212 0
M  V30 3018 N 265.79 4.97268 0.925104 0
M  V30 3019 C 264.088 4.03342 1.90346 0
M  V30 3020 C 264.789 5.77093 0.730627 0
M  V30 3021 N 263.765 5.2854 1.27067 0
M  V30 3022 H 267.567 2.9289 0.243466 0
M  V30 3023 H 265.081 1.62364 0.0339954 0
M  V30 3024 H 267.078 3.18073 2.69509 0
M  V30 3025 H 265.738 2.01344 2.54736 0
M  V30 3026 H 266.749 5.14601 0.583646 0
M  V30 3027 H 263.426 3.37368 2.45946 0
M  V30 3028 H 264.816 6.71638 0.187668 0
M  V30 3029 N 267.536 -0.106894 1.57237 0
M  V30 3030 C 268.486 -1.1366 1.9765 0
M  V30 3031 C 269.47 -1.36416 0.853203 0
M  V30 3032 O 270.662 -1.37305 1.11697 0
M  V30 3033 C 267.791 -2.46 2.39455 0
M  V30 3034 C 266.877 -2.26668 3.58445 0
M  V30 3035 N 267.268 -1.77176 4.73754 0
M  V30 3036 C 265.566 -2.57279 3.64312 0
M  V30 3037 C 266.267 -1.71836 5.5574 0
M  V30 3038 N 265.243 -2.16623 4.98573 0
M  V30 3039 H 269.045 -0.74669 2.84256 0
M  V30 3040 H 266.559 -0.314483 1.59326 0
M  V30 3041 H 268.556 -3.2049 2.6663 0
M  V30 3042 H 267.216 -2.85738 1.54219 0
M  V30 3043 H 268.227 -1.46545 4.96734 0
M  V30 3044 H 264.904 -3.00622 2.89711 0
M  V30 3045 H 266.294 -1.34723 6.58255 0
M  V30 3046 N 269.014 -1.53014 -0.377408 0
M  V30 3047 C 270.242 -1.72515 -1.14219 0
M  V30 3048 C 270.657 -0.448735 -1.8339 0
M  V30 3049 O 270.014 0.577592 -1.73119 0
M  V30 3050 C 270.065 -2.8826 -2.18148 0
M  V30 3051 O 269.786 -4.10962 -1.51795 0
M  V30 3052 C 271.287 -3.19536 -3.07264 0
M  V30 3053 H 268.507 -0.577301 -0.342001 0
M  V30 3054 H 271.051 -1.99712 -0.439935 0
M  V30 3055 H 269.206 -2.63492 -2.83991 0
M  V30 3056 H 269.62 -4.75693 -2.20945 0
M  V30 3057 H 271.094 -4.03959 -3.76193 0
M  V30 3058 H 271.571 -2.34403 -3.71419 0
M  V30 3059 H 272.177 -3.46186 -2.47053 0
M  V30 3060 N 270.492 0.636531 -1.44174 0
M  V30 3061 C 271.717 1.42847 -1.50364 0
M  V30 3062 C 272.142 1.87665 -0.127867 0
M  V30 3063 O 271.5 1.58408 0.88185 0
M  V30 3064 C 271.548 2.62854 -2.4686 0
M  V30 3065 O 270.652 3.62501 -1.9664 0
M  V30 3066 H 269.993 0.427642 -0.507955 0
M  V30 3067 H 272.523 0.777422 -1.89255 0
M  V30 3068 H 272.533 3.10465 -2.64718 0
M  V30 3069 H 271.208 2.29578 -3.46795 0
M  V30 3070 H 269.785 3.21735 -1.88523 0
M  V30 3071 N 271.97 1.30982 0.876444 0
M  V30 3072 C 272.9 1.20668 1.99903 0
M  V30 3073 C 273.881 0.095354 1.69833 0
M  V30 3074 O 275.066 0.27885 1.92188 0
M  V30 3075 C 272.196 0.90655 3.3526 0
M  V30 3076 C 271.15 1.97675 3.79617 0
M  V30 3077 C 270.476 1.52943 5.1236 0
M  V30 3078 C 271.776 3.389 3.97422 0
M  V30 3079 H 273.47 2.14586 2.0879 0
M  V30 3080 H 271.016 1.03308 1.00317 0
M  V30 3081 H 272.969 0.821025 4.13324 0
M  V30 3082 H 271.693 -0.0682969 3.26529 0
M  V30 3083 H 270.352 2.05205 3.03787 0
M  V30 3084 H 270 0.54262 5.00065 0
M  V30 3085 H 269.7 2.24532 5.43009 0
M  V30 3086 H 271.224 1.45786 5.92941 0
M  V30 3087 H 272.638 3.34081 4.659 0
M  V30 3088 H 271.035 4.0865 4.3946 0
M  V30 3089 H 272.105 3.80163 3.01006 0
M  V30 3090 N 273.449 -1.08991 1.13837 0
M  V30 3091 C 274.726 -1.77863 0.813876 0
M  V30 3092 C 275.106 -1.99375 -0.693746 0
M  V30 3093 O 274.454 -1.59875 -1.63255 0
M  V30 3094 C 274.664 -3.0986 1.60586 0
M  V30 3095 C 276.012 -3.84493 1.8014 0
M  V30 3096 O 277.036 -3.19624 1.57222 0
M  V30 3097 O 275.895 -5.00957 2.18413 0
M  V30 3098 H 272.989 -0.771589 0.297624 0
M  V30 3099 H 275.535 -1.15507 1.24323 0
M  V30 3100 H 274.307 -2.89715 2.63022 0
M  V30 3101 H 273.93 -3.79942 1.17173 0
M  V30 3102 N 274.927 -0.932562 -1.27047 0
M  V30 3103 C 275.859 -0.392734 -2.2581 0
M  V30 3104 C 276.872 0.479241 -1.55586 0
M  V30 3105 O 278.061 0.291078 -1.76111 0
M  V30 3106 C 275.161 0.455456 -3.35826 0
M  V30 3107 C 274.334 -0.398355 -4.35582 0
M  V30 3108 C 273.393 0.387985 -5.24768 0
M  V30 3109 O 272.419 -0.206003 -5.68827 0
M  V30 3110 N 273.621 1.68664 -5.55457 0
M  V30 3111 H 276.386 -1.24173 -2.72766 0
M  V30 3112 H 273.947 -0.800511 -1.40725 0
M  V30 3113 H 275.939 0.988692 -3.92437 0
M  V30 3114 H 274.509 1.20522 -2.88432 0
M  V30 3115 H 273.729 -1.11286 -3.78165 0
M  V30 3116 H 275.017 -0.981889 -4.99236 0
M  V30 3117 H 274.415 2.19147 -5.21528 0
M  V30 3118 H 272.972 2.1663 -6.14748 0
M  V30 3119 N 276.405 1.4127 -0.698611 0
M  V30 3120 C 277.63 2.06024 -0.238512 0
M  V30 3121 C 278.055 1.5224 1.10475 0
M  V30 3122 O 277.413 0.650623 1.69223 0
M  V30 3123 C 277.461 3.59988 -0.209952 0
M  V30 3124 O 276.565 4.04282 0.814235 0
M  V30 3125 H 275.906 0.653829 -0.115775 0
M  V30 3126 H 278.436 1.8098 -0.954326 0
M  V30 3127 H 278.446 4.07979 -0.0418436 0
M  V30 3128 H 277.121 3.98503 -1.1903 0
M  V30 3129 H 275.698 3.6779 0.615234 0
M  V30 3130 N 277.883 0.443576 1.51229 0
M  V30 3131 C 279.108 -0.121648 2.07043 0
M  V30 3132 C 279.533 -1.35156 1.30823 0
M  V30 3133 O 278.891 -1.7793 0.347934 0
M  V30 3134 C 278.939 -0.41624 3.5819 0
M  V30 3135 O 278.043 -1.50163 3.8409 0
M  V30 3136 H 277.384 0.000871367 0.663999 0
M  V30 3137 H 279.914 0.626706 1.94765 0
M  V30 3138 H 279.924 -0.664867 4.02546 0
M  V30 3139 H 278.599 0.482653 4.1309 0
M  V30 3140 H 277.176 -1.24248 3.51592 0
M  V30 3141 N 279.361 -1.56624 0.175154 0
M  V30 3142 C 280.772 -1.83561 -0.340916 0
M  V30 3143 C 281.123 -1.09511 -1.62794 0
M  V30 3144 O 280.248 -0.349389 -2.13561 0
M  V30 3145 C 280.843 -3.32979 -0.625313 0
M  V30 3146 C 279.402 -3.60399 -1.08581 0
M  V30 3147 C 278.549 -2.77024 -0.123722 0
M  V30 3148 H 281.5 -1.53593 0.399344 0
M  V30 3149 H 281.521 -3.50666 -1.47694 0
M  V30 3150 H 281.033 -3.86847 0.311575 0
M  V30 3151 H 279.134 -3.11945 -2.03767 0
M  V30 3152 H 279.247 -4.68711 -0.992317 0
M  V30 3153 H 277.611 -2.46993 -0.621821 0
M  V30 3154 H 278.394 -3.33674 0.807256 0
M  V30 3155 N 280.839 0.0985539 -1.57292 0
M  V30 3156 C 282.25 0.653457 -1.74891 0
M  V30 3157 C 282.601 1.7929 -0.796838 0
M  V30 3158 O 281.726 2.16385 0.0254886 0
M  V30 3159 C 282.321 1.19216 -3.17133 0
M  V30 3160 C 280.88 1.69316 -3.36168 0
M  V30 3161 C 280.027 0.601294 -2.70702 0
M  V30 3162 H 282.978 -0.127497 -1.58187 0
M  V30 3163 H 282.999 2.06154 -3.19814 0
M  V30 3164 H 282.511 0.362635 -3.86402 0
M  V30 3165 H 280.612 2.5468 -2.71972 0
M  V30 3166 H 280.725 1.78853 -4.44464 0
M  V30 3167 H 279.089 1.0399 -2.32504 0
M  V30 3168 H 279.872 -0.217592 -3.4261 0
M  V30 3169 N 282.317 1.53212 0.369288 0
M  V30 3170 C 283.247 1.82365 1.45826 0
M  V30 3171 C 284.228 0.676907 1.56051 0
M  V30 3172 O 285.413 0.926401 1.70679 0
M  V30 3173 C 282.543 2.01023 2.83208 0
M  V30 3174 C 281.497 3.1678 2.8781 0
M  V30 3175 C 280.823 3.20724 4.27832 0
M  V30 3176 C 282.123 4.55447 2.55667 0
M  V30 3177 H 283.817 2.73559 1.21678 0
M  V30 3178 H 281.363 1.3163 0.583911 0
M  V30 3179 H 283.316 2.20001 3.59413 0
M  V30 3180 H 282.04 1.06536 3.08736 0
M  V30 3181 H 280.699 2.97616 2.14056 0
M  V30 3182 H 280.347 2.23882 4.50429 0
M  V30 3183 H 280.047 3.98496 4.31827 0
M  V30 3184 H 281.571 3.41881 5.05915 0
M  V30 3185 H 282.985 4.74611 3.21586 0
M  V30 3186 H 281.382 5.35432 2.70984 0
M  V30 3187 H 282.452 4.60812 1.5093 0
M  V30 3188 N 283.795 -0.628877 1.44509 0
M  V30 3189 C 285.02 -1.42048 1.5112 0
M  V30 3190 C 285.445 -1.87594 0.137818 0
M  V30 3191 O 284.803 -1.58873 -0.873437 0
M  V30 3192 C 284.851 -2.61541 2.48251 0
M  V30 3193 O 283.955 -3.61453 1.98559 0
M  V30 3194 H 283.296 -0.424942 0.510216 0
M  V30 3195 H 285.826 -0.767374 1.89664 0
M  V30 3196 H 285.836 -3.09057 2.66361 0
M  V30 3197 H 284.511 -2.27736 3.48007 0
M  V30 3198 H 283.088 -3.20731 1.90227 0
M  V30 3199 N 285.273 -1.31445 -0.869486 0
M  V30 3200 C 286.521 -1.20918 -1.61936 0
M  V30 3201 C 286.842 0.232683 -1.93607 0
M  V30 3202 O 286.112 1.15352 -1.58338 0
M  V30 3203 H 284.692 -0.44454 -0.600328 0
M  V30 3204 H 287.354 -1.64776 -1.0409 0
M  V30 3205 H 286.45 -1.78124 -2.56278 0
M  V30 3206 N 286.751 1.08385 -1.14413 0
M  V30 3207 C 287.979 1.84517 -0.936001 0
M  V30 3208 C 288.394 1.81626 0.515503 0
M  V30 3209 O 287.751 1.22008 1.35721 0
M  V30 3210 C 287.802 3.32049 -1.42918 0
M  V30 3211 O 287.523 3.34951 -2.82381 0
M  V30 3212 C 289.024 4.24986 -1.26103 0
M  V30 3213 H 286.244 0.582491 -0.333084 0
M  V30 3214 H 288.788 1.36885 -1.5193 0
M  V30 3215 H 286.943 3.7707 -0.888641 0
M  V30 3216 H 287.357 4.27048 -3.04517 0
M  V30 3217 H 288.831 5.26615 -1.6547 0
M  V30 3218 H 289.308 4.38726 -0.20392 0
M  V30 3219 H 289.914 3.85791 -1.79012 0
M  V30 3220 N 288.23 0.939286 1.26551 0
M  V30 3221 C 289.455 0.602008 1.98471 0
M  V30 3222 C 289.88 -0.815624 1.69497 0
M  V30 3223 O 289.238 -1.54912 0.941905 0
M  V30 3224 C 289.286 0.848407 3.50477 0
M  V30 3225 O 288.39 -0.0804009 4.12322 0
M  V30 3226 H 287.731 0.23049 0.622712 0
M  V30 3227 H 290.261 1.2617 1.61066 0
M  V30 3228 H 290.271 0.768553 4.00696 0
M  V30 3229 H 288.946 1.88171 3.70897 0
M  V30 3230 H 287.523 0.0503508 3.72866 0
M  V30 3231 N 289.708 -1.40897 0.706093 0
M  V30 3232 C 291.119 -1.84023 0.315052 0
M  V30 3233 C 291.47 -1.5906 -1.14866 0
M  V30 3234 O 290.595 -1.06651 -1.88293 0
M  V30 3235 C 291.19 -3.34055 0.565038 0
M  V30 3236 C 289.749 -3.7571 0.227806 0
M  V30 3237 C 288.896 -2.64204 0.842122 0
M  V30 3238 H 291.847 -1.303 0.905963 0
M  V30 3239 H 291.868 -3.80107 -0.172843 0
M  V30 3240 H 291.38 -3.52192 1.63042 0
M  V30 3241 H 289.481 -3.63172 -0.832895 0
M  V30 3242 H 289.594 -4.74103 0.690174 0
M  V30 3243 H 287.958 -2.53255 0.270893 0
M  V30 3244 H 288.741 -2.85155 1.91158 0
M  V30 3245 N 291.186 -0.45159 -1.50991 0
M  V30 3246 C 292.411 0.110667 -2.07105 0
M  V30 3247 C 292.836 1.3446 -1.31538 0
M  V30 3248 O 292.194 1.77743 -0.357365 0
M  V30 3249 C 292.242 0.397238 -3.58405 0
M  V30 3250 O 291.346 1.48124 -3.84881 0
M  V30 3251 H 290.687 -0.00439271 -0.663985 0
M  V30 3252 H 293.217 -0.637026 -1.9443 0
M  V30 3253 H 293.227 0.64351 -4.02893 0
M  V30 3254 H 291.902 -0.504553 -4.12828 0
M  V30 3255 H 290.479 1.22381 -3.52246 0
M  V30 3256 N 292.664 1.56529 -0.183458 0
M  V30 3257 C 293.894 2.01331 0.463612 0
M  V30 3258 C 294.302 1.06278 1.5653 0
M  V30 3259 O 293.645 0.0577976 1.83609 0
M  V30 3260 C 293.707 3.42547 1.09096 0
M  V30 3261 C 293.371 4.56817 0.129442 0
M  V30 3262 C 294.368 5.15734 -0.656807 0
M  V30 3263 C 292.053 5.02295 0.02174 0
M  V30 3264 C 294.047 6.1857 -1.53784 0
M  V30 3265 C 291.734 6.04978 -0.862864 0
M  V30 3266 C 292.732 6.62988 -1.64123 0
M  V30 3267 O 292.42 7.63677 -2.51103 0
M  V30 3268 H 292.152 0.664917 0.121907 0
M  V30 3269 H 294.706 2.034 -0.285954 0
M  V30 3270 H 292.936 3.37428 1.88889 0
M  V30 3271 H 294.625 3.71228 1.64148 0
M  V30 3272 H 295.391 4.81473 -0.583839 0
M  V30 3273 H 291.27 4.56847 0.617392 0
M  V30 3274 H 294.814 6.63777 -2.14583 0
M  V30 3275 H 290.711 6.38663 -0.93699 0
M  V30 3276 H 291.479 7.81049 -2.44753 0
M  V30 3277 N 294.142 -0.090211 1.57342 0
M  V30 3278 C 295.089 -1.10909 2.02405 0
M  V30 3279 C 296.059 -1.39523 0.901252 0
M  V30 3280 O 297.244 -1.50903 1.1676 0
M  V30 3281 C 294.384 -2.42277 2.45755 0
M  V30 3282 C 293.497 -2.20352 3.71576 0
M  V30 3283 C 292.632 -3.45154 4.03785 0
M  V30 3284 C 291.671 -3.18512 5.22701 0
M  V30 3285 N 290.808 -4.35593 5.50639 0
M  V30 3286 H 295.648 -0.71782 2.89225 0
M  V30 3287 H 293.185 -0.342901 1.43048 0
M  V30 3288 H 295.143 -3.18951 2.68935 0
M  V30 3289 H 293.773 -2.79242 1.61938 0
M  V30 3290 H 292.825 -1.34458 3.55844 0
M  V30 3291 H 294.137 -1.96661 4.58395 0
M  V30 3292 H 293.291 -4.30233 4.27767 0
M  V30 3293 H 292.03 -3.71904 3.15498 0
M  V30 3294 H 291.035 -2.31827 4.98534 0
M  V30 3295 H 292.26 -2.93103 6.12591 0
M  V30 3296 H 290.206 -4.6241 4.6531 0
M  V30 3297 H 290.123 -4.1511 6.31838 0
M  V30 3298 H 291.391 -5.21723 5.7916 0
M  V30 3299 N 295.62 -1.53406 -0.361157 0
M  V30 3300 C 296.85 -1.73465 -1.1222 0
M  V30 3301 C 297.258 -0.465486 -1.83384 0
M  V30 3302 O 296.601 0.571611 -1.7458 0
M  V30 3303 C 296.663 -2.84834 -2.19339 0
M  V30 3304 C 296.327 -4.25038 -1.67903 0
M  V30 3305 C 297.324 -5.07231 -1.14074 0
M  V30 3306 C 295.009 -4.71464 -1.73282 0
M  V30 3307 C 297.003 -6.33942 -0.663068 0
M  V30 3308 C 294.69 -5.98153 -1.25127 0
M  V30 3309 C 295.688 -6.79223 -0.717296 0
M  V30 3310 O 295.376 -8.03533 -0.242865 0
M  V30 3311 H 295.108 -0.583526 -0.341283 0
M  V30 3312 H 297.662 -2.00964 -0.424591 0
M  V30 3313 H 295.892 -2.5282 -2.92607 0
M  V30 3314 H 297.581 -2.9303 -2.80871 0
M  V30 3315 H 298.347 -4.72534 -1.09254 0
M  V30 3316 H 294.226 -4.08432 -2.13786 0
M  V30 3317 H 297.77 -6.97167 -0.245612 0
M  V30 3318 H 293.667 -6.32347 -1.29642 0
M  V30 3319 H 294.435 -8.177 -0.361786 0
M  V30 3320 N 297.098 0.621204 -1.44841 0
M  V30 3321 C 298.326 1.40752 -1.51646 0
M  V30 3322 C 298.741 1.88246 -0.144549 0
M  V30 3323 O 298.098 1.61422 0.851416 0
M  V30 3324 C 298.149 2.62119 -2.4895 0
M  V30 3325 O 297.87 2.16602 -3.80808 0
M  V30 3326 C 299.371 3.55135 -2.65319 0
M  V30 3327 H 296.591 0.431325 -0.514004 0
M  V30 3328 H 299.135 0.758835 -1.899 0
M  V30 3329 H 297.29 3.23058 -2.13805 0
M  V30 3330 H 297.704 2.95358 -4.33433 0
M  V30 3331 H 299.178 4.36874 -3.37409 0
M  V30 3332 H 299.655 4.04592 -1.70886 0
M  V30 3333 H 300.261 3.00058 -3.01405 0
M  V30 3334 N 298.576 1.31904 0.862503 0
M  V30 3335 C 299.506 1.22782 1.98612 0
M  V30 3336 C 300.487 0.113362 1.69722 0
M  V30 3337 O 301.672 0.299218 1.91881 0
M  V30 3338 C 298.802 0.942058 3.34279 0
M  V30 3339 C 297.756 2.0169 3.77499 0
M  V30 3340 C 297.082 1.58369 5.10709 0
M  V30 3341 C 298.382 3.43096 3.93805 0
M  V30 3342 H 300.076 2.16788 2.06502 0
M  V30 3343 H 297.622 1.04366 0.992154 0
M  V30 3344 H 299.575 0.864818 4.1243 0
M  V30 3345 H 298.299 -0.0336603 3.26583 0
M  V30 3346 H 296.958 2.08416 3.01593 0
M  V30 3347 H 296.606 0.595628 4.99461 0
M  V30 3348 H 296.306 2.30279 5.40597 0
M  V30 3349 H 297.83 1.52067 5.91361 0
M  V30 3350 H 299.244 3.39003 4.62331 0
M  V30 3351 H 297.641 4.13288 4.35101 0
M  V30 3352 H 298.711 3.83334 2.96957 0
M  V30 3353 N 300.054 -1.07777 1.14986 0
M  V30 3354 C 301.465 -1.61766 0.932127 0
M  V30 3355 C 301.816 -1.88974 -0.527581 0
M  V30 3356 O 300.941 -1.65198 -1.39781 0
M  V30 3357 C 301.536 -2.93891 1.68563 0
M  V30 3358 C 300.095 -3.44639 1.5133 0
M  V30 3359 C 299.242 -2.18767 1.704 0
M  V30 3360 H 302.193 -0.909201 1.30074 0
M  V30 3361 H 302.214 -3.62623 1.15259 0
M  V30 3362 H 301.726 -2.74057 2.74799 0
M  V30 3363 H 299.827 -3.69564 0.474702 0
M  V30 3364 H 299.94 -4.20966 2.28746 0
M  V30 3365 H 298.304 -2.28253 1.13016 0
M  V30 3366 H 299.087 -2.01433 2.77992 0
M  V30 3367 N 301.532 -0.945985 -1.26051 0
M  V30 3368 C 302.78 -0.594941 -1.93145 0
M  V30 3369 C 303.101 0.86953 -1.7454 0
M  V30 3370 O 302.371 1.61838 -1.10387 0
M  V30 3371 H 300.951 -0.217044 -0.714773 0
M  V30 3372 H 303.613 -1.20235 -1.53393 0
M  V30 3373 H 302.709 -0.816835 -3.01221 0
M  V30 3374 N 303.011 1.40521 -0.713556 0
M  V30 3375 C 303.974 2.29098 -0.0684347 0
M  V30 3376 C 304.974 1.45268 0.689472 0
M  V30 3377 O 306.164 1.66205 0.521677 0
M  V30 3378 C 303.296 3.28446 0.913024 0
M  V30 3379 H 304.489 2.87645 -0.84855 0
M  V30 3380 H 302.042 1.48809 -0.47809 0
M  V30 3381 H 302.777 2.74913 1.72027 0
M  V30 3382 H 302.562 3.90327 0.372472 0
M  V30 3383 H 304.052 3.94777 1.36165 0
M  V30 3384 N 304.489 0.459591 1.5075 0
M  V30 3385 C 305.421 -0.37665 2.26084 0
M  V30 3386 C 306.434 -0.967109 1.30961 0
M  V30 3387 O 307.623 -0.857468 1.56556 0
M  V30 3388 C 304.723 -1.54112 3.01832 0
M  V30 3389 C 303.896 -1.06553 4.24223 0
M  V30 3390 C 302.955 -2.1027 4.82362 0
M  V30 3391 O 301.981 -1.68798 5.43595 0
M  V30 3392 N 303.183 -3.42974 4.68347 0
M  V30 3393 H 305.948 0.269124 2.98489 0
M  V30 3394 H 303.509 0.28972 1.59287 0
M  V30 3395 H 305.501 -2.23165 3.37608 0
M  V30 3396 H 304.071 -2.0918 2.32298 0
M  V30 3397 H 303.291 -0.201274 3.93686 0
M  V30 3398 H 304.579 -0.725516 5.03601 0
M  V30 3399 H 303.977 -3.79385 4.19623 0
M  V30 3400 H 302.534 -4.07858 5.08424 0
M  V30 3401 N 305.967 -1.56429 0.191757 0
M  V30 3402 C 307.244 -1.89224 -0.495332 0
M  V30 3403 C 307.624 -1.10478 -1.79883 0
M  V30 3404 O 306.972 -0.204852 -2.2758 0
M  V30 3405 C 307.182 -3.41548 -0.717367 0
M  V30 3406 C 308.53 -4.11711 -1.03823 0
M  V30 3407 O 309.554 -3.4698 -0.805204 0
M  V30 3408 O 308.413 -5.2611 -1.47887 0
M  V30 3409 H 305.507 -0.785788 -0.25781 0
M  V30 3410 H 308.053 -1.68111 0.231721 0
M  V30 3411 H 306.825 -3.90772 0.203287 0
M  V30 3412 H 306.448 -3.68342 -1.497 0
M  V30 3413 N 307.445 0.0818655 -1.57387 0
M  V30 3414 C 308.408 1.08265 -2.02018 0
M  V30 3415 C 309.408 1.32183 -0.915664 0
M  V30 3416 O 310.598 1.28073 -1.18081 0
M  V30 3417 C 307.73 2.42871 -2.39221 0
M  V30 3418 H 308.923 0.698204 -2.91659 0
M  V30 3419 H 306.476 0.327303 -1.52835 0
M  V30 3420 H 307.211 2.86167 -1.52575 0
M  V30 3421 H 306.996 2.26855 -3.19811 0
M  V30 3422 H 308.486 3.14826 -2.74362 0
M  V30 3423 N 308.923 1.53595 0.353017 0
M  V30 3424 C 309.87 1.80919 1.43308 0
M  V30 3425 C 310.84 0.654288 1.5267 0
M  V30 3426 O 312.025 0.897759 1.6836 0
M  V30 3427 C 309.165 2.01605 2.80089 0
M  V30 3428 C 308.278 3.29321 2.79593 0
M  V30 3429 C 307.413 3.40125 4.0803 0
M  V30 3430 C 306.452 4.61826 4.01725 0
M  V30 3431 N 305.589 4.69716 5.21834 0
M  V30 3432 H 310.429 2.73074 1.19308 0
M  V30 3433 H 307.966 1.35263 0.578131 0
M  V30 3434 H 309.924 2.11586 3.59565 0
M  V30 3435 H 308.554 1.12772 3.0246 0
M  V30 3436 H 307.606 3.28229 1.92276 0
M  V30 3437 H 308.918 4.18884 2.70809 0
M  V30 3438 H 308.072 3.49488 4.95927 0
M  V30 3439 H 306.811 2.48601 4.19582 0
M  V30 3440 H 305.816 4.52552 3.12213 0
M  V30 3441 H 307.041 5.54705 3.91764 0
M  V30 3442 H 304.987 3.81097 5.33948 0
M  V30 3443 H 304.904 5.53202 5.1527 0
M  V30 3444 H 306.172 4.83376 6.11529 0
M  V30 3445 N 310.401 -0.613514 1.45168 0
M  V30 3446 C 311.678 -1.37263 1.39349 0
M  V30 3447 C 312.058 -2.11012 0.0610848 0
M  V30 3448 O 311.406 -2.07502 -0.956825 0
M  V30 3449 C 311.616 -2.3244 2.60332 0
M  V30 3450 C 312.964 -2.9523 3.05163 0
M  V30 3451 O 313.988 -2.42762 2.60663 0
M  V30 3452 O 312.847 -3.90454 3.82372 0
M  V30 3453 H 309.941 -0.615188 0.552696 0
M  V30 3454 H 312.487 -0.637097 1.57287 0
M  V30 3455 H 311.259 -1.77164 3.48896 0
M  V30 3456 H 310.882 -3.13383 2.44698 0
M  V30 3457 N 311.879 -1.3236 -0.855495 0
M  V30 3458 C 313.156 -1.13491 -1.59309 0
M  V30 3459 C 313.536 0.30503 -2.08885 0
M  V30 3460 O 312.884 1.30151 -1.87811 0
M  V30 3461 C 313.094 -2.16176 -2.73987 0
M  V30 3462 C 314.442 -2.49463 -3.43589 0
M  V30 3463 O 315.466 -2.14715 -2.84211 0
M  V30 3464 O 314.325 -3.09027 -4.50738 0
M  V30 3465 H 311.419 -0.437887 -0.701559 0
M  V30 3466 H 313.965 -1.43887 -0.899696 0
M  V30 3467 H 312.737 -3.1297 -2.34873 0
M  V30 3468 H 312.36 -1.86769 -3.51003 0
M  V30 3469 N 313.357 1.07166 -1.15556 0
M  V30 3470 C 314.604 1.79798 -0.931604 0
M  V30 3471 C 314.932 1.8682 0.54115 0
M  V30 3472 O 314.187 1.34942 1.41736 0
M  V30 3473 C 314.486 3.24707 -1.49332 0
M  V30 3474 C 314.152 3.37781 -2.98688 0
M  V30 3475 C 312.814 3.41057 -3.39461 0
M  V30 3476 C 315.166 3.40424 -3.94665 0
M  V30 3477 C 312.494 3.4458 -4.74849 0
M  V30 3478 C 314.846 3.45485 -5.29927 0
M  V30 3479 C 313.51 3.47039 -5.70193 0
M  V30 3480 H 312.78 0.657928 -0.340898 0
M  V30 3481 H 315.427 1.26091 -1.44129 0
M  V30 3482 H 313.732 3.81208 -0.904859 0
M  V30 3483 H 315.429 3.79486 -1.29582 0
M  V30 3484 H 312.019 3.35932 -2.66172 0
M  V30 3485 H 316.203 3.37113 -3.64237 0
M  V30 3486 H 311.459 3.44083 -5.05388 0
M  V30 3487 H 315.633 3.46476 -6.04092 0
M  V30 3488 H 313.26 3.49522 -6.75084 0
M  V30 3489 N 314.835 0.952656 1.25548 0
M  V30 3490 C 316.246 0.647392 1.75116 0
M  V30 3491 C 316.597 -0.837274 1.77438 0
M  V30 3492 O 315.722 -1.65525 1.39393 0
M  V30 3493 C 316.317 1.16845 3.18014 0
M  V30 3494 C 314.876 0.913382 3.6515 0
M  V30 3495 C 314.023 1.31265 2.44264 0
M  V30 3496 H 316.974 1.12968 1.11462 0
M  V30 3497 H 316.995 0.527606 3.76824 0
M  V30 3498 H 316.507 2.24902 3.16292 0
M  V30 3499 H 314.608 -0.152316 3.72289 0
M  V30 3500 H 314.721 1.54845 4.53387 0
M  V30 3501 H 313.085 0.731028 2.43984 0
M  V30 3502 H 313.868 2.40239 2.45234 0
M  V30 3503 N 316.313 -1.40141 0.720998 0
M  V30 3504 C 317.243 -2.33339 0.0867621 0
M  V30 3505 C 318.224 -1.53178 -0.739622 0
M  V30 3506 O 319.409 -1.81625 -0.687449 0
M  V30 3507 C 316.539 -3.37194 -0.831728 0
M  V30 3508 C 315.493 -4.27857 -0.110558 0
M  V30 3509 C 314.819 -5.22294 -1.14513 0
M  V30 3510 C 316.119 -5.11872 1.0385 0
M  V30 3511 H 317.813 -2.86626 0.865219 0
M  V30 3512 H 315.359 -1.37814 0.417516 0
M  V30 3513 H 317.312 -4.01335 -1.28485 0
M  V30 3514 H 316.036 -2.82314 -1.64214 0
M  V30 3515 H 314.695 -3.65176 0.322797 0
M  V30 3516 H 314.343 -4.63717 -1.94874 0
M  V30 3517 H 314.043 -5.83797 -0.667446 0
M  V30 3518 H 315.567 -5.89312 -1.59824 0
M  V30 3519 H 316.981 -5.69436 0.664482 0
M  V30 3520 H 315.378 -5.82445 1.4449 0
M  V30 3521 H 316.448 -4.4753 1.86668 0
M  V30 3522 N 317.792 -0.46758 -1.50504 0
M  V30 3523 C 319.208 -0.121533 -1.59137 0
M  V30 3524 C 319.408 1.3717 -1.47603 0
M  V30 3525 O 318.464 2.14464 -1.33272 0
M  V30 3526 C 319.777 -0.6686 -2.93173 0
M  V30 3527 C 321.325 -0.631716 -3.06559 0
M  V30 3528 C 321.8 -1.15627 -4.43164 0
M  V30 3529 N 323.291 -1.11553 -4.49567 0
M  V30 3530 C 324.026 -1.49195 -5.5365 0
M  V30 3531 N 323.522 -1.94269 -6.65005 0
M  V30 3532 N 325.315 -1.4082 -5.44175 0
M  V30 3533 H 317.466 -1.4388 -1.56245 0
M  V30 3534 H 319.729 -0.594784 -0.738198 0
M  V30 3535 H 319.435 -1.71453 -3.07078 0
M  V30 3536 H 319.309 -0.11021 -3.77039 0
M  V30 3537 H 321.696 0.405297 -2.92304 0
M  V30 3538 H 321.777 -1.22687 -2.24458 0
M  V30 3539 H 321.421 -2.1919 -4.58168 0
M  V30 3540 H 321.351 -0.537365 -5.23851 0
M  V30 3541 H 323.842 -0.784895 -3.69659 0
M  V30 3542 H 324.155 -2.21148 -7.40482 0
M  V30 3543 H 322.5 -1.98219 -6.66134 0
M  V30 3544 H 325.691 -1.0545 -4.56068 0
M  V30 3545 H 325.864 -1.70481 -6.25172 0
M  V30 3546 N 319.27 1.56325 -0.20005 0
M  V30 3547 C 320.217 2.1932 0.718833 0
M  V30 3548 C 321.187 1.14198 1.20615 0
M  V30 3549 O 322.372 1.42469 1.26914 0
M  V30 3550 C 319.512 2.86041 1.93066 0
M  V30 3551 C 318.625 4.05702 1.48425 0
M  V30 3552 C 317.76 4.60266 2.65196 0
M  V30 3553 C 316.799 5.72273 2.17185 0
M  V30 3554 N 315.936 6.21221 3.27152 0
M  V30 3555 H 320.776 2.97486 0.17489 0
M  V30 3556 H 318.313 1.46911 0.0745794 0
M  V30 3557 H 320.271 3.22897 2.64184 0
M  V30 3558 H 318.901 2.1043 2.44783 0
M  V30 3559 H 317.953 3.74475 0.668755 0
M  V30 3560 H 319.265 4.86699 1.09204 0
M  V30 3561 H 318.419 4.99453 3.4443 0
M  V30 3562 H 317.158 3.78386 3.07693 0
M  V30 3563 H 316.163 5.3261 1.36407 0
M  V30 3564 H 317.388 6.55974 1.75713 0
M  V30 3565 H 315.334 5.42263 3.69171 0
M  V30 3566 H 315.251 6.97284 2.92116 0
M  V30 3567 H 316.519 6.65063 4.06585 0
M  V30 3568 N 320.748 -0.0735177 1.57428 0
M  V30 3569 C 321.976 -0.785969 1.9139 0
M  V30 3570 C 322.391 -1.71207 0.795847 0
M  V30 3571 O 321.748 -1.81033 -0.230915 0
M  V30 3572 C 321.799 -1.58107 3.25091 0
M  V30 3573 O 321.52 -0.6922 4.32597 0
M  V30 3574 C 323.021 -2.39467 3.73055 0
M  V30 3575 H 320.241 -0.223558 0.632663 0
M  V30 3576 H 322.785 -0.044302 2.04452 0
M  V30 3577 H 320.94 -2.27503 3.13562 0
M  V30 3578 H 321.354 -1.24504 5.09508 0
M  V30 3579 H 322.828 -2.90716 4.69242 0
M  V30 3580 H 323.305 -3.18913 3.01979 0
M  V30 3581 H 323.911 -1.7523 3.87523 0
M  V30 3582 N 322.226 -1.5378 -0.344866 0
M  V30 3583 C 323.189 -1.80981 -1.40637 0
M  V30 3584 C 324.189 -0.680816 -1.45676 0
M  V30 3585 O 325.379 -0.949095 -1.46075 0
M  V30 3586 C 322.511 -1.95063 -2.79577 0
M  V30 3587 H 323.704 -2.75803 -1.17783 0
M  V30 3588 H 321.257 -1.45173 -0.579181 0
M  V30 3589 H 321.992 -1.02379 -3.07716 0
M  V30 3590 H 321.777 -2.77198 -2.77315 0
M  V30 3591 H 323.267 -2.17629 -3.56409 0
M  V30 3592 N 323.704 0.605807 -1.45491 0
M  V30 3593 C 324.929 1.39625 -1.53361 0
M  V30 3594 C 325.354 1.87351 -0.167645 0
M  V30 3595 O 324.712 1.60243 0.848051 0
M  V30 3596 C 324.76 2.57559 -2.5238 0
M  V30 3597 O 323.864 3.58248 -2.04285 0
M  V30 3598 H 323.205 0.416771 -0.516912 0
M  V30 3599 H 325.735 0.737103 -1.90861 0
M  V30 3600 H 325.745 3.0478 -2.71244 0
M  V30 3601 H 324.42 2.22171 -3.51586 0
M  V30 3602 H 322.997 3.17664 -1.95305 0
M  V30 3603 N 325.182 1.32811 0.848464 0
M  V30 3604 C 326.092 1.24278 1.98978 0
M  V30 3605 C 327.108 0.155176 1.73307 0
M  V30 3606 O 328.284 0.376999 1.9784 0
M  V30 3607 C 325.349 0.972444 3.32783 0
M  V30 3608 C 324.41 2.14911 3.71634 0
M  V30 3609 C 323.643 1.89157 4.99054 0
M  V30 3610 O 323.866 0.837165 5.64223 0
M  V30 3611 O 322.8 2.75433 5.35183 0
M  V30 3612 H 326.626 2.20238 2.09115 0
M  V30 3613 H 324.211 1.12762 0.980052 0
M  V30 3614 H 326.093 0.838432 4.12975 0
M  V30 3615 H 324.768 0.043051 3.23671 0
M  V30 3616 H 323.675 2.33862 2.91992 0
M  V30 3617 H 325.008 3.06151 3.85399 0
M  V30 3618 N 326.66 -1.06551 1.16123 0
M  V30 3619 C 328.071 -1.60768 0.949232 0
M  V30 3620 C 328.422 -1.89523 -0.507508 0
M  V30 3621 O 327.547 -1.66671 -1.38021 0
M  V30 3622 C 328.142 -2.92086 1.71671 0
M  V30 3623 C 326.701 -3.43015 1.54977 0
M  V30 3624 C 325.848 -2.16947 1.72711 0
M  V30 3625 H 328.799 -0.895354 1.31031 0
M  V30 3626 H 328.82 -3.6138 1.19099 0
M  V30 3627 H 328.332 -2.71127 2.7769 0
M  V30 3628 H 326.433 -3.69039 0.513873 0
M  V30 3629 H 326.546 -4.18516 2.33198 0
M  V30 3630 H 324.91 -2.27041 1.15431 0
M  V30 3631 H 325.693 -1.98473 2.80113 0
M  V30 3632 N 328.138 -0.959301 -1.25041 0
M  V30 3633 C 329.086 -0.474437 -2.2771 0
M  V30 3634 C 330.08 0.457697 -1.631 0
M  V30 3635 O 331.286 0.333912 -1.76876 0
M  V30 3636 H 327.661 -0.134936 -0.739795 0
M  V30 3637 H 329.632 -1.35251 -2.65988 0
M  V30 3638 C 328.381 0.227884 -3.46952 0
M  V30 3639 H 327.704 -0.480248 -3.96905 0
M  V30 3640 H 329.144 0.531091 -4.20661 0
M  V30 3641 C 327.603 1.452 -3.04004 0
M  V30 3642 O 328.133 2.54949 -3.10426 0
M  V30 3643 N 326.339 1.31502 -2.59144 0
M  V30 3644 H 325.886 0.422065 -2.54119 0
M  V30 3645 H 325.844 2.13521 -2.30773 0
M  V30 3646 N 329.616 1.39756 -0.72842 0
M  V30 3647 C 330.546 2.33289 -0.0991354 0
M  V30 3648 C 331.527 1.53568 0.731489 0
M  V30 3649 O 332.712 1.81987 0.677807 0
M  V30 3650 C 329.842 3.3763 0.813834 0
M  V30 3651 C 328.796 4.2791 0.0878663 0
M  V30 3652 C 328.122 5.22894 1.11741 0
M  V30 3653 C 329.422 5.11314 -1.06563 0
M  V30 3654 H 331.116 2.86163 -0.880408 0
M  V30 3655 H 328.662 1.37591 -0.424819 0
M  V30 3656 H 330.615 4.0201 1.26355 0
M  V30 3657 H 329.339 2.83181 1.62715 0
M  V30 3658 H 327.998 3.65 -0.342159 0
M  V30 3659 H 327.646 4.64744 1.92412 0
M  V30 3660 H 327.346 5.84143 0.636477 0
M  V30 3661 H 328.87 5.90151 1.56697 0
M  V30 3662 H 330.284 5.69076 -0.694671 0
M  V30 3663 H 328.681 5.81671 -1.47577 0
M  V30 3664 H 329.751 4.46534 -1.89038 0
M  V30 3665 N 331.094 0.475555 1.50254 0
M  V30 3666 C 332.041 -0.316293 2.28622 0
M  V30 3667 C 333.011 -0.983227 1.33873 0
M  V30 3668 O 334.196 -0.994805 1.62814 0
M  V30 3669 C 331.336 -1.38975 3.1588 0
M  V30 3670 C 330.449 -0.737146 4.25664 0
M  V30 3671 C 329.584 -1.78887 5.00173 0
M  V30 3672 C 328.623 -1.11676 6.01826 0
M  V30 3673 N 327.76 -2.11154 6.69596 0
M  V30 3674 H 332.6 0.358297 2.95838 0
M  V30 3675 H 330.137 0.188541 1.45887 0
M  V30 3676 H 332.095 -2.02383 3.64825 0
M  V30 3677 H 330.725 -2.03344 2.50701 0
M  V30 3678 H 329.777 0.0096065 3.80399 0
M  V30 3679 H 331.089 -0.206816 4.98371 0
M  V30 3680 H 330.243 -2.49865 5.52859 0
M  V30 3681 H 328.982 -2.35302 4.27182 0
M  V30 3682 H 327.987 -0.392633 5.48396 0
M  V30 3683 H 329.212 -0.55945 6.76792 0
M  V30 3684 H 327.158 -2.66577 5.99394 0
M  V30 3685 H 327.075 -1.63118 7.38193 0
M  V30 3686 H 328.343 -2.81497 7.26897 0
M  V30 3687 N 332.573 -1.56217 0.208337 0
M  V30 3688 C 333.819 -1.98242 -0.427552 0
M  V30 3689 C 334.152 -1.09554 -1.60348 0
M  V30 3690 O 333.427 -0.15035 -1.93918 0
M  V30 3691 C 333.71 -3.4931 -0.874907 0
M  V30 3692 C 333.563 -4.48773 0.303751 0
M  V30 3693 C 334.882 -4.04424 -1.73577 0
M  V30 3694 H 332.001 -0.720744 -0.153936 0
M  V30 3695 H 334.643 -1.87586 0.30192 0
M  V30 3696 H 332.793 -3.58522 -1.49648 0
M  V30 3697 H 334.465 -4.51586 0.941682 0
M  V30 3698 H 332.708 -4.23194 0.953375 0
M  V30 3699 H 333.379 -5.51976 -0.0519883 0
M  V30 3700 H 335.855 -3.98075 -1.21143 0
M  V30 3701 H 334.731 -5.1047 -2.01771 0
M  V30 3702 H 334.992 -3.50494 -2.69456 0
M  V30 3703 N 334.051 0.0651679 -1.57465 0
M  V30 3704 C 335.467 0.420105 -1.53972 0
M  V30 3705 C 335.667 1.78782 -0.929474 0
M  V30 3706 O 334.723 2.46771 -0.534839 0
M  V30 3707 C 336.036 0.355084 -2.98596 0
M  V30 3708 C 337.584 0.434792 -3.09965 0
M  V30 3709 C 338.059 0.399609 -4.56253 0
M  V30 3710 N 339.55 0.459488 -4.60915 0
M  V30 3711 C 340.285 0.454584 -5.71595 0
M  V30 3712 N 339.781 0.404102 -6.9162 0
M  V30 3713 N 341.574 0.501635 -5.59857 0
M  V30 3714 H 333.725 -0.830328 -1.95498 0
M  V30 3715 H 335.988 -0.312244 -0.895102 0
M  V30 3716 H 335.694 -0.583357 -3.46828 0
M  V30 3717 H 335.568 1.16275 -3.58831 0
M  V30 3718 H 337.955 1.36366 -2.61703 0
M  V30 3719 H 338.036 -0.40157 -2.52628 0
M  V30 3720 H 337.68 -0.525436 -5.05175 0
M  V30 3721 H 337.61 1.25359 -5.11461 0
M  V30 3722 H 340.101 0.502482 -3.74544 0
M  V30 3723 H 340.414 0.404468 -7.71741 0
M  V30 3724 H 338.759 0.37069 -6.94011 0
M  V30 3725 H 341.95 0.538812 -4.64989 0
M  V30 3726 H 342.123 0.494345 -6.46112 0
M  V30 3727 N 335.529 1.53961 0.336706 0
M  V30 3728 C 336.754 1.75797 1.10046 0
M  V30 3729 C 337.179 0.498985 1.81361 0
M  V30 3730 O 336.537 -0.548769 1.72795 0
M  V30 3731 C 336.585 2.94257 2.08436 0
M  V30 3732 O 335.689 2.64883 3.16087 0
M  V30 3733 H 335.03 0.582936 0.317934 0
M  V30 3734 H 337.56 2.00945 0.38501 0
M  V30 3735 H 337.57 3.21237 2.51537 0
M  V30 3736 H 336.245 3.85564 1.55927 0
M  V30 3737 H 334.822 2.48812 2.77753 0
M  V30 3738 N 337.007 -0.598083 1.45811 0
M  V30 3739 C 338.423 -0.919847 1.30426 0
M  V30 3740 C 338.623 -1.99759 0.264303 0
M  V30 3741 O 337.679 -2.50221 -0.338472 0
M  V30 3742 C 338.992 -1.35176 2.68603 0
M  V30 3743 C 340.54 -1.46546 2.76574 0
M  V30 3744 C 341.015 -1.9311 4.15298 0
M  V30 3745 N 342.506 -2.00328 4.1764 0
M  V30 3746 C 343.241 -2.37599 5.21856 0
M  V30 3747 N 342.737 -2.73771 6.36413 0
M  V30 3748 N 344.53 -2.38021 5.09218 0
M  V30 3749 H 336.681 0.114111 2.12093 0
M  V30 3750 H 338.944 -0.0116121 0.947929 0
M  V30 3751 H 338.65 -0.633969 3.45939 0
M  V30 3752 H 338.524 -2.3164 2.97696 0
M  V30 3753 H 340.911 -2.17415 1.99537 0
M  V30 3754 H 340.992 -0.483727 2.51185 0
M  V30 3755 H 340.636 -1.22824 4.92825 0
M  V30 3756 H 340.566 -2.92213 4.38086 0
M  V30 3757 H 343.057 -1.74925 3.34977 0
M  V30 3758 H 343.37 -3.0112 7.11721 0
M  V30 3759 H 341.715 -2.71445 6.39799 0
M  V30 3760 H 344.906 -2.09174 4.18765 0
M  V30 3761 H 345.079 -2.66741 5.90554 0
M  V30 3762 N 338.485 -1.33259 -0.841409 0
M  V30 3763 C 339.415 -1.25926 -1.96634 0
M  V30 3764 C 340.396 -0.140349 -1.6952 0
M  V30 3765 O 341.581 -0.329707 -1.91381 0
M  V30 3766 C 338.711 -0.99512 -3.32738 0
M  V30 3767 C 337.665 -2.0767 -3.74242 0
M  V30 3768 C 336.991 -1.66474 -5.08125 0
M  V30 3769 C 338.291 -3.49318 -3.88297 0
M  V30 3770 H 339.985 -2.20046 -2.03027 0
M  V30 3771 H 337.531 -1.05931 -0.975425 0
M  V30 3772 H 339.484 -0.930323 -4.11002 0
M  V30 3773 H 338.208 -0.0183004 -3.26595 0
M  V30 3774 H 336.867 -2.13187 -2.98239 0
M  V30 3775 H 336.515 -0.675012 -4.9845 0
M  V30 3776 H 336.215 -2.3885 -5.36865 0
M  V30 3777 H 337.739 -1.61455 -5.88867 0
M  V30 3778 H 339.153 -3.46316 -4.56879 0
M  V30 3779 H 337.55 -4.20158 -4.28471 0
M  V30 3780 H 338.62 -3.8801 -2.9082 0
M  V30 3781 N 339.963 1.05934 -1.16686 0
M  V30 3782 C 340.91 2.13499 -0.876748 0
M  V30 3783 C 341.88 1.65162 0.176299 0
M  V30 3784 O 343.065 1.90757 0.0407143 0
M  V30 3785 C 340.205 3.42912 -0.387967 0
M  V30 3786 C 339.318 4.04964 -1.50426 0
M  V30 3787 C 338.453 5.22266 -0.970125 0
M  V30 3788 C 337.492 5.76309 -2.06238 0
M  V30 3789 N 336.629 6.84922 -1.54356 0
M  V30 3790 H 341.469 2.37654 -1.7979 0
M  V30 3791 H 339.006 1.16598 -0.896843 0
M  V30 3792 H 340.964 4.17111 -0.086186 0
M  V30 3793 H 339.594 3.18963 0.496235 0
M  V30 3794 H 338.646 3.28277 -1.92193 0
M  V30 3795 H 339.958 4.41122 -2.32836 0
M  V30 3796 H 339.112 6.03506 -0.621743 0
M  V30 3797 H 337.851 4.87564 -0.115377 0
M  V30 3798 H 336.856 4.93704 -2.41942 0
M  V30 3799 H 338.081 6.13062 -2.92115 0
M  V30 3800 H 336.027 6.52131 -0.711406 0
M  V30 3801 H 335.944 7.20043 -2.30379 0
M  V30 3802 H 337.212 7.69832 -1.22387 0
M  V30 3803 N 341.441 0.965919 1.2453 0
M  V30 3804 C 342.373 0.452465 2.2469 0
M  V30 3805 C 343.386 -0.437821 1.56802 0
M  V30 3806 O 344.575 -0.244283 1.76821 0
M  V30 3807 C 341.675 -0.366258 3.36915 0
M  V30 3808 C 340.848 0.513701 4.34373 0
M  V30 3809 C 339.907 -0.248716 5.25612 0
M  V30 3810 O 338.933 0.356745 5.68081 0
M  V30 3811 N 340.135 -1.53877 5.59734 0
M  V30 3812 H 342.9 1.31361 2.69378 0
M  V30 3813 H 340.461 0.837541 1.38553 0
M  V30 3814 H 342.453 -0.884297 3.94921 0
M  V30 3815 H 341.023 -1.12832 2.91526 0
M  V30 3816 H 340.243 1.21273 3.75082 0
M  V30 3817 H 341.531 1.11391 4.96457 0
M  V30 3818 H 340.929 -2.05243 5.27154 0
M  V30 3819 H 339.486 -2.00254 6.20275 0
M  V30 3820 N 342.919 -1.39368 0.735821 0
M  V30 3821 C 343.866 -2.30599 0.0963825 0
M  V30 3822 C 344.836 -1.49257 -0.728794 0
M  V30 3823 O 346.021 -1.77941 -0.688588 0
M  V30 3824 C 343.161 -3.35596 -0.804305 0
M  V30 3825 C 342.274 -4.31987 0.0335761 0
M  V30 3826 C 341.409 -5.24053 -0.868461 0
M  V30 3827 C 340.448 -6.12095 -0.0258776 0
M  V30 3828 N 339.585 -6.96514 -0.883893 0
M  V30 3829 H 344.425 -2.8471 0.880002 0
M  V30 3830 H 341.962 -1.40188 0.445619 0
M  V30 3831 H 343.92 -3.95062 -1.34096 0
M  V30 3832 H 342.55 -2.82938 -1.55389 0
M  V30 3833 H 341.602 -3.74133 0.68766 0
M  V30 3834 H 342.914 -4.94074 0.685036 0
M  V30 3835 H 342.068 -5.88549 -1.47293 0
M  V30 3836 H 340.807 -4.62289 -1.5537 0
M  V30 3837 H 339.812 -5.4661 0.591386 0
M  V30 3838 H 341.037 -6.75923 0.656156 0
M  V30 3839 H 338.983 -6.37318 -1.55441 0
M  V30 3840 H 338.9 -7.55448 -0.288931 0
M  V30 3841 H 340.168 -7.65439 -1.4739 0
M  V30 3842 N 344.397 -0.483516 -1.5 0
M  V30 3843 C 345.643 0.0672592 -2.02688 0
M  V30 3844 C 345.976 1.38247 -1.36387 0
M  V30 3845 O 345.251 1.88131 -0.493675 0
M  V30 3846 C 345.534 0.238109 -3.59312 0
M  V30 3847 C 345.387 -1.099 -4.36168 0
M  V30 3848 C 346.706 0.986916 -4.28892 0
M  V30 3849 H 343.825 0.0229696 -0.736642 0
M  V30 3850 H 346.467 -0.631527 -1.79197 0
M  V30 3851 H 344.617 0.8333 -3.79458 0
M  V30 3852 H 346.289 -1.73172 -4.27562 0
M  V30 3853 H 344.532 -1.69261 -3.99416 0
M  V30 3854 H 345.203 -0.932954 -5.44059 0
M  V30 3855 H 347.679 0.482302 -4.13295 0
M  V30 3856 H 346.555 1.07527 -5.38265 0
M  V30 3857 H 346.816 2.0265 -3.92919 0
M  V30 3858 N 345.875 1.56104 -0.216619 0
M  V30 3859 C 346.838 2.18819 0.681962 0
M  V30 3860 C 347.838 1.14866 1.12528 0
M  V30 3861 O 349.028 1.40128 1.03488 0
M  V30 3862 C 346.16 2.80756 1.93362 0
M  V30 3863 H 347.353 2.99595 0.135254 0
M  V30 3864 H 344.906 1.56265 0.0330003 0
M  V30 3865 H 345.641 2.03837 2.52232 0
M  V30 3866 H 345.426 3.56876 1.62426 0
M  V30 3867 H 346.916 3.28844 2.57393 0
M  V30 3868 N 347.353 -0.0568162 1.57498 0
M  V30 3869 C 348.263 -1.08346 2.08083 0
M  V30 3870 C 349.279 -1.41439 1.01346 0
M  V30 3871 O 350.455 -1.51316 1.32912 0
M  V30 3872 C 347.52 -2.37352 2.52715 0
M  V30 3873 C 346.581 -2.11093 3.73816 0
M  V30 3874 C 345.814 -3.33949 4.1631 0
M  V30 3875 O 346.037 -4.43622 3.58547 0
M  V30 3876 O 344.971 -3.21279 5.08983 0
M  V30 3877 H 348.797 -0.683667 2.95905 0
M  V30 3878 H 346.382 -0.271965 1.46904 0
M  V30 3879 H 348.264 -3.13246 2.81877 0
M  V30 3880 H 346.939 -2.76681 1.68016 0
M  V30 3881 H 345.846 -1.32856 3.49714 0
M  V30 3882 H 347.179 -1.76637 4.59413 0
M  V30 3883 N 348.832 -1.54138 -0.328536 0
M  V30 3884 C 350.248 -1.44736 -0.672574 0
M  V30 3885 C 350.448 -0.616217 -1.91846 0
M  V30 3886 O 349.504 -0.113067 -2.52247 0
M  V30 3887 C 350.817 -2.884 -0.851217 0
M  V30 3888 C 352.365 -2.98271 -0.948877 0
M  V30 3889 C 352.84 -4.43074 -1.15973 0
M  V30 3890 N 354.331 -4.46665 -1.22658 0
M  V30 3891 C 355.066 -5.55857 -1.40751 0
M  V30 3892 N 354.562 -6.75026 -1.5592 0
M  V30 3893 N 356.355 -5.43495 -1.4342 0
M  V30 3894 H 348.506 -2.06661 0.490421 0
M  V30 3895 H 350.769 -0.934812 0.157579 0
M  V30 3896 H 350.475 -3.51699 -0.00704236 0
M  V30 3897 H 350.349 -3.34225 -1.74853 0
M  V30 3898 H 352.736 -2.35102 -1.78356 0
M  V30 3899 H 352.817 -2.55785 -0.0281435 0
M  V30 3900 H 352.461 -5.06827 -0.329915 0
M  V30 3901 H 352.391 -4.83165 -2.09426 0
M  V30 3902 H 354.882 -3.60797 -1.124 0
M  V30 3903 H 355.195 -7.54004 -1.69404 0
M  V30 3904 H 353.54 -6.77944 -1.53027 0
M  V30 3905 H 356.731 -4.49349 -1.31162 0
M  V30 3906 H 356.904 -6.28649 -1.57178 0
M  V30 3907 N 350.31 0.590341 -1.46126 0
M  V30 3908 C 351.726 0.912917 -1.30912 0
M  V30 3909 C 351.926 1.99616 -0.274893 0
M  V30 3910 O 350.982 2.50397 0.325197 0
M  V30 3911 C 352.295 1.3375 -2.69317 0
M  V30 3912 C 353.843 1.45077 -2.77348 0
M  V30 3913 C 354.318 1.90904 -4.16317 0
M  V30 3914 N 355.809 1.9811 -4.18696 0
M  V30 3915 C 356.544 2.34828 -5.23109 0
M  V30 3916 N 356.04 2.70393 -6.37856 0
M  V30 3917 N 357.833 2.35317 -5.10473 0
M  V30 3918 H 349.984 -0.125358 -2.1203 0
M  V30 3919 H 352.247 0.00658481 -0.947977 0
M  V30 3920 H 351.953 0.615614 -3.4627 0
M  V30 3921 H 351.827 2.30058 -2.9892 0
M  V30 3922 H 354.214 2.16353 -2.00687 0
M  V30 3923 H 354.295 0.4704 -2.51438 0
M  V30 3924 H 353.939 1.20209 -4.9347 0
M  V30 3925 H 353.869 2.89886 -4.39629 0
M  V30 3926 H 356.36 1.73146 -3.359 0
M  V30 3927 H 356.673 2.97341 -7.13308 0
M  V30 3928 H 355.018 2.68048 -6.41229 0
M  V30 3929 H 358.209 2.0695 -4.19868 0
M  V30 3930 H 358.382 2.63605 -5.9196 0
M  V30 3931 N 351.788 1.33704 0.83433 0
M  V30 3932 C 353.013 1.28615 1.62705 0
M  V30 3933 C 353.438 -0.139242 1.87584 0
M  V30 3934 O 352.796 -1.09734 1.4432 0
M  V30 3935 C 352.844 2.07139 2.95171 0
M  V30 3936 O 351.948 1.4331 3.86699 0
M  V30 3937 H 351.289 0.44226 0.49528 0
M  V30 3938 H 353.819 1.76335 1.03766 0
M  V30 3939 H 353.829 2.18073 3.44831 0
M  V30 3940 H 352.504 3.10779 2.76386 0
M  V30 3941 H 351.081 1.4105 3.45195 0
M  V30 3942 N 353.266 -1.05314 1.17247 0
M  V30 3943 C 354.491 -1.82509 0.985148 0
M  V30 3944 C 354.916 -1.82343 -0.461788 0
M  V30 3945 O 354.274 -1.23151 -1.33055 0
M  V30 3946 C 354.322 -3.26566 1.52929 0
M  V30 3947 O 353.426 -4.05666 0.742225 0
M  V30 3948 H 352.767 -0.564347 0.349869 0
M  V30 3949 H 355.297 -1.32718 1.55715 0
M  V30 3950 H 355.307 -3.77369 1.55103 0
M  V30 3951 H 353.982 -3.26001 2.58256 0
M  V30 3952 H 352.559 -3.64397 0.791794 0
M  V30 3953 N 354.744 -0.972509 -1.24016 0
M  V30 3954 C 356.155 -0.67517 -1.74064 0
M  V30 3955 C 356.506 0.808939 -1.78747 0
M  V30 3956 O 355.631 1.63286 -1.42009 0
M  V30 3957 C 356.226 -1.21889 -3.16115 0
M  V30 3958 C 354.785 -0.971358 -3.6365 0
M  V30 3959 C 353.932 -1.35134 -2.42145 0
M  V30 3960 H 356.883 -1.14727 -1.09651 0
M  V30 3961 H 356.904 -0.587489 -3.75937 0
M  V30 3962 H 356.416 -2.29906 -3.12674 0
M  V30 3963 H 354.517 0.0930686 -3.72484 0
M  V30 3964 H 354.63 -1.62039 -4.50866 0
M  V30 3965 H 352.994 -0.769751 -2.4279 0
M  V30 3966 H 353.777 -2.4411 -2.41381 0
M  V30 3967 N 356.222 1.38976 -0.743202 0
M  V30 3968 C 357.152 2.33171 -0.123873 0
M  V30 3969 C 358.133 1.54336 0.71516 0
M  V30 3970 O 359.318 1.82696 0.658467 0
M  V30 3971 C 356.448 3.38474 0.777978 0
M  V30 3972 C 355.402 4.27979 0.0424758 0
M  V30 3973 C 354.728 5.2405 1.06189 0
M  V30 3974 C 356.028 5.10155 -1.1198 0
M  V30 3975 H 357.722 2.85213 -0.910709 0
M  V30 3976 H 355.268 1.37133 -0.439388 0
M  V30 3977 H 357.221 4.03328 1.22084 0
M  V30 3978 H 355.945 2.84891 1.59702 0
M  V30 3979 H 354.604 3.64616 -0.380853 0
M  V30 3980 H 354.252 4.66758 1.87472 0
M  V30 3981 H 353.952 5.84785 0.574485 0
M  V30 3982 H 355.476 5.9178 1.50428 0
M  V30 3983 H 356.89 5.68307 -0.75499 0
M  V30 3984 H 355.287 5.80073 -1.53738 0
M  V30 3985 H 356.357 4.44504 -1.93764 0
M  V30 3986 N 357.7 0.491464 1.49741 0
M  V30 3987 C 358.63 -0.28154 2.31796 0
M  V30 3988 C 359.611 -0.971473 1.3963 0
M  V30 3989 O 360.796 -0.964719 1.68543 0
M  V30 3990 C 357.926 -1.35203 3.19902 0
M  V30 3991 C 356.88 -0.782529 4.20786 0
M  V30 3992 C 356.206 -1.95283 4.97764 0
M  V30 3993 C 357.506 0.21999 5.21837 0
M  V30 3994 H 359.2 0.403355 2.96671 0
M  V30 3995 H 356.746 0.195425 1.42668 0
M  V30 3996 H 358.699 -1.90045 3.76113 0
M  V30 3997 H 357.423 -2.06598 2.52953 0
M  V30 3998 H 356.082 -0.255928 3.65706 0
M  V30 3999 H 355.73 -2.65423 4.2727 0
M  V30 4000 H 355.43 -1.57789 5.66018 0
M  V30 4001 H 356.954 -2.50577 5.56816 0
M  V30 4002 H 358.368 -0.23996 5.72798 0
M  V30 4003 H 356.765 0.51026 5.97927 0
M  V30 4004 H 357.835 1.13911 4.7133 0
M  V30 4005 N 359.178 -1.55987 0.224894 0
M  V30 4006 C 360.594 -1.59066 -0.130426 0
M  V30 4007 C 360.794 -1.24176 -1.5869 0
M  V30 4008 O 359.85 -0.978592 -2.32766 0
M  V30 4009 C 361.163 -3.00042 0.198883 0
M  V30 4010 C 362.711 -3.1268 0.141391 0
M  V30 4011 C 363.186 -4.55839 0.444422 0
M  V30 4012 N 364.677 -4.6152 0.394115 0
M  V30 4013 C 365.412 -5.70231 0.602038 0
M  V30 4014 N 364.908 -6.87291 0.871914 0
M  V30 4015 N 366.701 -5.59555 0.534245 0
M  V30 4016 H 358.852 -1.76941 1.17497 0
M  V30 4017 H 361.115 -0.822604 0.471197 0
M  V30 4018 H 360.821 -3.30234 1.2099 0
M  V30 4019 H 360.695 -3.74075 -0.484535 0
M  V30 4020 H 363.082 -2.82283 -0.860265 0
M  V30 4021 H 363.163 -2.40969 0.858335 0
M  V30 4022 H 362.807 -4.86954 1.44353 0
M  V30 4023 H 362.737 -5.2578 -0.293752 0
M  V30 4024 H 365.228 -3.77405 0.193356 0
M  V30 4025 H 365.541 -7.66058 1.01858 0
M  V30 4026 H 363.886 -6.89028 0.909145 0
M  V30 4027 H 367.077 -4.6698 0.323612 0
M  V30 4028 H 367.25 -6.44211 0.699693 0
M  V30 4029 N 360.656 0.0484629 -1.57525 0
M  V30 4030 C 362.072 0.40375 -1.54409 0
M  V30 4031 C 362.272 1.77786 -0.948384 0
M  V30 4032 O 361.328 2.46189 -0.560983 0
M  V30 4033 C 362.641 0.323394 -2.98956 0
M  V30 4034 C 364.189 0.401892 -3.10409 0
M  V30 4035 C 364.664 0.351195 -4.56652 0
M  V30 4036 N 366.155 0.410576 -4.61377 0
M  V30 4037 C 366.89 0.393933 -5.72045 0
M  V30 4038 N 366.386 0.330724 -6.9201 0
M  V30 4039 N 368.179 0.442227 -5.60358 0
M  V30 4040 H 360.33 -0.851016 -1.94606 0
M  V30 4041 H 362.593 -0.321721 -0.89174 0
M  V30 4042 H 362.299 -0.62011 -3.4619 0
M  V30 4043 H 362.173 1.12463 -3.60044 0
M  V30 4044 H 364.56 1.33582 -2.63134 0
M  V30 4045 H 364.641 -0.428342 -2.52188 0
M  V30 4046 H 364.285 -0.578987 -5.04589 0
M  V30 4047 H 364.215 1.19928 -5.12762 0
M  V30 4048 H 366.706 0.462729 -3.75056 0
M  V30 4049 H 367.019 0.322592 -7.72126 0
M  V30 4050 H 365.364 0.29706 -6.94365 0
M  V30 4051 H 368.555 0.489464 -4.65534 0
M  V30 4052 H 368.728 0.425788 -6.466 0
M  V30 4053 N 362.134 1.5431 0.320358 0
M  V30 4054 C 363.081 1.83918 1.39438 0
M  V30 4055 C 364.051 0.686525 1.51248 0
M  V30 4056 O 365.236 0.933269 1.66417 0
M  V30 4057 C 362.376 2.075 2.75749 0
M  V30 4058 C 361.489 3.35177 2.72544 0
M  V30 4059 C 360.624 3.48704 4.00723 0
M  V30 4060 C 359.663 4.70244 3.91838 0
M  V30 4061 N 358.8 4.80679 5.11754 0
M  V30 4062 H 363.64 2.75544 1.13489 0
M  V30 4063 H 361.177 1.36459 0.549309 0
M  V30 4064 H 363.135 2.19166 3.54996 0
M  V30 4065 H 361.765 1.19163 3 0
M  V30 4066 H 360.817 3.32233 1.85271 0
M  V30 4067 H 362.129 4.24534 2.61863 0
M  V30 4068 H 361.283 3.59928 4.88402 0
M  V30 4069 H 360.022 2.57445 4.14214 0
M  V30 4070 H 359.027 4.59072 3.02544 0
M  V30 4071 H 360.252 5.6289 3.7991 0
M  V30 4072 H 358.198 3.92337 5.25745 0
M  V30 4073 H 358.115 5.64007 5.0342 0
M  V30 4074 H 359.383 4.96239 6.01138 0
M  V30 4075 N 363.613 -0.582584 1.46437 0
M  V30 4076 C 364.89 -1.34276 1.4223 0
M  V30 4077 C 365.27 -2.10835 0.10583 0
M  V30 4078 O 364.618 -2.09485 -0.912596 0
M  V30 4079 C 364.828 -2.26865 2.65204 0
M  V30 4080 C 366.176 -2.88691 3.11356 0
M  V30 4081 O 367.2 -2.37178 2.65753 0
M  V30 4082 O 366.059 -3.82255 3.90568 0
M  V30 4083 H 363.153 -0.603326 0.565621 0
M  V30 4084 H 365.699 -0.603591 1.58603 0
M  V30 4085 H 364.471 -1.69724 3.52576 0
M  V30 4086 H 364.094 -3.08122 2.5129 0
M  V30 4087 N 365.091 -1.34144 -0.827227 0
M  V30 4088 C 366.339 -1.26009 -1.58007 0
M  V30 4089 C 366.66 0.170971 -1.94249 0
M  V30 4090 O 365.93 1.10256 -1.61927 0
M  V30 4091 H 364.51 -0.463414 -0.585881 0
M  V30 4092 H 367.172 -1.68005 -0.987951 0
M  V30 4093 H 366.268 -1.86187 -2.50481 0
M  V30 4094 N 366.569 1.04691 -1.17803 0
M  V30 4095 C 367.517 2.14665 -0.895635 0
M  V30 4096 C 368.511 1.68806 0.141679 0
M  V30 4097 O 369.717 1.79999 -0.00587914 0
M  V30 4098 H 366.092 0.701038 -0.272121 0
M  V30 4099 H 368.063 2.35685 -1.83017 0
M  V30 4100 C 366.812 3.45019 -0.430962 0
M  V30 4101 H 366.135 3.8071 -1.22064 0
M  V30 4102 H 367.575 4.23125 -0.272301 0
M  V30 4103 C 366.034 3.25943 0.852207 0
M  V30 4104 O 366.564 3.5296 1.91786 0
M  V30 4105 N 364.77 2.79304 0.802346 0
M  V30 4106 H 364.317 2.57518 -0.0650788 0
M  V30 4107 H 364.275 2.66921 1.66134 0
M  V30 4108 N 368.047 0.979072 1.23499 0
M  V30 4109 C 369.293 0.648178 1.92163 0
M  V30 4110 C 369.626 -0.816049 1.76222 0
M  V30 4111 O 368.901 -1.58849 1.12237 0
M  V30 4112 C 369.184 1.03773 3.44824 0
M  V30 4113 C 369.037 2.55948 3.69879 0
M  V30 4114 C 370.356 0.580653 4.36253 0
M  V30 4115 H 367.475 0.236952 0.69787 0
M  V30 4116 H 370.117 1.22012 1.45647 0
M  V30 4117 H 368.267 0.551058 3.84572 0
M  V30 4118 H 369.939 3.12179 3.3962 0
M  V30 4119 H 368.182 2.98641 3.14636 0
M  V30 4120 H 368.853 2.78255 4.76737 0
M  V30 4121 H 371.329 0.998465 4.03943 0
M  V30 4122 H 370.205 0.881663 5.41773 0
M  V30 4123 H 370.466 -0.519052 4.39042 0
M  V30 4124 N 369.525 -1.3858 0.750561 0
M  V30 4125 C 370.771 -2.00481 0.305825 0
M  V30 4126 C 371.104 -1.5944 -1.10872 0
M  V30 4127 O 370.379 -0.83052 -1.75877 0
M  V30 4128 C 370.662 -3.5758 0.425287 0
M  V30 4129 C 370.515 -4.08594 1.88072 0
M  V30 4130 C 371.834 -4.39719 -0.183122 0
M  V30 4131 H 368.953 -0.728348 0.112598 0
M  V30 4132 H 371.595 -1.64566 0.949638 0
M  V30 4133 H 369.745 -3.88306 -0.122828 0
M  V30 4134 H 371.417 -3.88523 2.48691 0
M  V30 4135 H 369.66 -3.61574 2.39681 0
M  V30 4136 H 370.331 -5.177 1.91548 0
M  V30 4137 H 372.807 -4.15128 0.284303 0
M  V30 4138 H 371.683 -5.48856 -0.0692757 0
M  V30 4139 H 371.944 -4.23434 -1.27106 0
M  V30 4140 N 371.003 -0.499398 -1.49478 0
M  V30 4141 C 372.231 0.0425456 -2.06856 0
M  V30 4142 C 372.646 1.30964 -1.35992 0
M  V30 4143 O 372.003 1.77172 -0.437762 0
M  V30 4144 C 372.054 0.301735 -3.60239 0
M  V30 4145 O 371.775 -0.915127 -4.28436 0
M  V30 4146 C 373.276 0.887499 -4.34325 0
M  V30 4147 H 370.496 -0.0197482 -0.670709 0
M  V30 4148 H 373.04 -0.696297 -1.92281 0
M  V30 4149 H 371.195 0.990556 -3.74522 0
M  V30 4150 H 371.609 -0.676993 -5.20113 0
M  V30 4151 H 373.083 1.01845 -5.42523 0
M  V30 4152 H 373.56 1.88488 -3.96698 0
M  V30 4153 H 374.166 0.236196 -4.24644 0
M  V30 4154 N 372.481 1.55866 -0.233164 0
M  V30 4155 C 373.706 2.03449 0.402906 0
M  V30 4156 C 374.131 1.11166 1.51736 0
M  V30 4157 O 373.489 0.101996 1.81013 0
M  V30 4158 C 373.537 3.49165 0.9009 0
M  V30 4159 O 372.641 3.60019 2.01147 0
M  V30 4160 H 371.982 0.657913 0.0897025 0
M  V30 4161 H 374.512 2.01493 -0.355201 0
M  V30 4162 H 374.522 3.89716 1.2077 0
M  V30 4163 H 373.197 4.15813 0.0852889 0
M  V30 4164 H 371.774 3.3136 1.71042 0
M  V30 4165 N 373.959 -0.0401083 1.57549 0
M  V30 4166 C 375.206 -0.733125 1.88763 0
M  V30 4167 C 375.534 -1.75946 0.829058 0
M  V30 4168 O 374.789 -1.94949 -0.171323 0
M  V30 4169 C 375.088 -1.44902 3.26708 0
M  V30 4170 C 374.754 -0.559707 4.47413 0
M  V30 4171 C 373.416 -0.314731 4.8017 0
M  V30 4172 C 375.768 0.0549743 5.21171 0
M  V30 4173 C 373.096 0.553886 5.8408 0
M  V30 4174 C 375.448 0.911229 6.26003 0
M  V30 4175 C 374.112 1.16577 6.57241 0
M  V30 4176 H 373.382 -0.268269 0.690733 0
M  V30 4177 H 376.029 0.00679408 1.91499 0
M  V30 4178 H 374.334 -2.26197 3.1991 0
M  V30 4179 H 376.031 -1.99058 3.48105 0
M  V30 4180 H 372.621 -0.760793 4.21794 0
M  V30 4181 H 376.805 -0.121344 4.96152 0
M  V30 4182 H 372.061 0.759518 6.06664 0
M  V30 4183 H 376.235 1.3941 6.82303 0
M  V30 4184 H 373.862 1.84058 7.37582 0
M  V30 4185 N 375.437 -1.54477 -0.31217 0
M  V30 4186 C 376.384 -1.84655 -1.38461 0
M  V30 4187 C 377.354 -0.694536 -1.50882 0
M  V30 4188 O 378.539 -0.942081 -1.6592 0
M  V30 4189 C 375.679 -2.0896 -2.74645 0
M  V30 4190 C 374.792 -3.36618 -2.70763 0
M  V30 4191 C 373.927 -3.50824 -3.98868 0
M  V30 4192 C 372.966 -4.72315 -3.89339 0
M  V30 4193 N 372.103 -4.83387 -5.09197 0
M  V30 4194 H 376.943 -2.76142 -1.12026 0
M  V30 4195 H 374.48 -1.36748 -0.542065 0
M  V30 4196 H 376.438 -2.21045 -3.53829 0
M  V30 4197 H 375.068 -1.20752 -2.99364 0
M  V30 4198 H 374.12 -3.33211 -1.83506 0
M  V30 4199 H 375.432 -4.25917 -2.59608 0
M  V30 4200 H 374.586 -3.62513 -4.86486 0
M  V30 4201 H 373.325 -2.59638 -4.12843 0
M  V30 4202 H 372.33 -4.6067 -3.00105 0
M  V30 4203 H 373.555 -5.64897 -3.76919 0
M  V30 4204 H 371.501 -3.9512 -5.23657 0
M  V30 4205 H 371.418 -5.66669 -5.00422 0
M  V30 4206 H 372.686 -4.9942 -5.98498 0
M  V30 4207 N 376.915 0.57481 -1.46744 0
M  V30 4208 C 377.862 1.68329 -1.57905 0
M  V30 4209 C 378.832 1.60625 -0.422927 0
M  V30 4210 O 380.017 1.79721 -0.640711 0
M  V30 4211 C 377.157 3.06665 -1.58274 0
M  V30 4212 C 376.27 3.24935 -2.84678 0
M  V30 4213 C 375.405 4.53566 -2.76499 0
M  V30 4214 C 374.444 4.65207 -3.97806 0
M  V30 4215 N 373.581 5.85172 -3.87967 0
M  V30 4216 H 378.421 1.58127 -2.52587 0
M  V30 4217 H 375.958 0.770552 -1.25303 0
M  V30 4218 H 377.916 3.86745 -1.56473 0
M  V30 4219 H 376.546 3.15745 -0.671194 0
M  V30 4220 H 375.598 2.38405 -2.96424 0
M  V30 4221 H 376.91 3.29403 -3.7456 0
M  V30 4222 H 376.064 5.41885 -2.72848 0
M  V30 4223 H 374.803 4.51548 -1.8427 0
M  V30 4224 H 373.808 3.75304 -4.0178 0
M  V30 4225 H 375.033 4.68997 -4.9114 0
M  V30 4226 H 372.979 5.84137 -2.98529 0
M  V30 4227 H 372.896 5.90943 -4.71511 0
M  V30 4228 H 374.164 6.759 -3.88303 0
M  V30 4229 N 378.394 1.34581 0.820102 0
M  V30 4230 C 379.81 1.14325 1.11364 0
M  V30 4231 C 380.01 -0.0533648 2.01429 0
M  V30 4232 O 379.066 -0.728044 2.41776 0
M  V30 4233 C 380.379 2.43983 1.75764 0
M  V30 4234 C 381.927 2.50065 1.88246 0
M  V30 4235 C 382.402 3.79732 2.56061 0
M  V30 4236 N 383.893 3.80908 2.63558 0
M  V30 4237 C 384.628 4.77961 3.16766 0
M  V30 4238 N 384.124 5.85397 3.70517 0
M  V30 4239 N 385.917 4.65413 3.15194 0
M  V30 4240 H 378.068 2.11246 0.221096 0
M  V30 4241 H 380.331 0.934289 0.160649 0
M  V30 4242 H 380.037 3.31651 1.1705 0
M  V30 4243 H 379.911 2.57531 2.75604 0
M  V30 4244 H 382.298 1.62834 2.46108 0
M  V30 4245 H 382.379 2.40442 0.873006 0
M  V30 4246 H 382.023 4.67354 1.98853 0
M  V30 4247 H 381.953 3.86639 3.57516 0
M  V30 4248 H 384.444 3.03274 2.25463 0
M  V30 4249 H 384.757 6.55463 4.09376 0
M  V30 4250 H 383.102 5.89107 3.68752 0
M  V30 4251 H 386.293 3.80627 2.72471 0
M  V30 4252 H 386.466 5.41216 3.56356 0
M  V30 4253 N 379.872 -1.04064 1.18357 0
M  V30 4254 C 380.805 -2.11618 0.854 0
M  V30 4255 C 381.783 -1.61555 -0.184043 0
M  V30 4256 O 382.967 -1.88395 -0.0630048 0
M  V30 4257 C 380.094 -3.37574 0.27597 0
M  V30 4258 C 379.14 -4.06485 1.2912 0
M  V30 4259 S 379.973 -4.53543 2.84709 0
M  V30 4260 C 381.129 -5.82732 2.28417 0
M  V30 4261 H 381.362 -2.39247 1.76488 0
M  V30 4262 H 378.895 -1.16832 1.00944 0
M  V30 4263 H 380.853 -4.10468 -0.051026 0
M  V30 4264 H 379.514 -3.0806 -0.613028 0
M  V30 4265 H 378.707 -4.97024 0.835633 0
M  V30 4266 H 378.309 -3.39708 1.56443 0
M  V30 4267 H 380.601 -6.56677 1.66677 0
M  V30 4268 H 381.544 -6.33052 3.17256 0
M  V30 4269 H 381.952 -5.37838 1.71436 0
M  V30 4270 N 381.35 -0.985608 -1.22978 0
M  V30 4271 C 382.597 -0.657386 -1.91532 0
M  V30 4272 C 382.925 0.809707 -1.76845 0
M  V30 4273 O 382.18 1.60021 -1.12658 0
M  V30 4274 C 382.479 -1.00014 -3.43121 0
M  V30 4275 C 382.145 -2.4583 -3.77993 0
M  V30 4276 C 380.807 -2.85679 -3.87222 0
M  V30 4277 C 383.159 -3.40378 -3.94705 0
M  V30 4278 C 380.487 -4.19081 -4.10595 0
M  V30 4279 C 382.839 -4.73429 -4.1958 0
M  V30 4280 C 381.503 -5.1303 -4.27032 0
M  V30 4281 H 380.773 -0.240555 -0.700867 0
M  V30 4282 H 383.42 -1.24044 -1.45895 0
M  V30 4283 H 381.725 -0.335072 -3.90365 0
M  V30 4284 H 383.422 -0.724322 -3.94404 0
M  V30 4285 H 380.012 -2.13939 -3.71387 0
M  V30 4286 H 384.196 -3.10766 -3.8696 0
M  V30 4287 H 379.452 -4.49362 -4.14589 0
M  V30 4288 H 383.626 -5.46644 -4.31455 0
M  V30 4289 H 381.253 -6.16418 -4.44896 0
M  V30 4290 N 382.828 1.3818 -0.7579 0
M  V30 4291 C 383.738 2.3421 -0.135247 0
M  V30 4292 C 384.754 1.59487 0.695683 0
M  V30 4293 O 385.93 1.91657 0.618832 0
M  V30 4294 C 382.995 3.3862 0.744139 0
M  V30 4295 C 382.056 4.2918 -0.101658 0
M  V30 4296 C 381.289 5.28603 0.735851 0
M  V30 4297 O 381.512 5.35166 1.97366 0
M  V30 4298 O 380.446 6.01707 0.152372 0
M  V30 4299 H 384.272 2.8916 -0.928436 0
M  V30 4300 H 381.857 1.40101 -0.518855 0
M  V30 4301 H 383.739 4.02539 1.2466 0
M  V30 4302 H 382.414 2.86019 1.51575 0
M  V30 4303 H 381.321 3.68407 -0.650167 0
M  V30 4304 H 382.654 4.85048 -0.836024 0
M  V30 4305 N 384.306 0.507319 1.49211 0
M  V30 4306 C 385.552 -0.0350047 2.0277 0
M  V30 4307 C 385.885 -1.3606 1.38569 0
M  V30 4308 O 385.16 -1.87321 0.523542 0
M  V30 4309 C 385.443 -0.180916 3.59645 0
M  V30 4310 C 385.296 1.16825 4.34364 0
M  V30 4311 C 386.615 -0.918558 4.30407 0
M  V30 4312 H 383.734 -0.0112473 0.736914 0
M  V30 4313 H 386.376 0.659956 1.7817 0
M  V30 4314 H 384.526 -0.772826 3.80736 0
M  V30 4315 H 386.198 1.79952 4.24753 0
M  V30 4316 H 384.441 1.75594 3.96673 0
M  V30 4317 H 385.112 1.01939 5.42506 0
M  V30 4318 H 387.588 -0.41649 4.1401 0
M  V30 4319 H 386.464 -0.989505 5.39907 0
M  V30 4320 H 386.725 -1.96373 3.96093 0
M  V30 4321 N 385.784 -1.5574 0.241426 0
M  V30 4322 C 387.012 -2.03208 -0.389134 0
M  V30 4323 C 387.427 -1.12082 -1.51931 0
M  V30 4324 O 386.784 -0.134183 -1.82006 0
M  V30 4325 C 386.835 -3.50064 -0.902087 0
M  V30 4326 O 386.556 -4.37717 0.18305 0
M  V30 4327 C 388.057 -4.13268 -1.60389 0
M  V30 4328 H 385.277 -0.664509 -0.0931053 0
M  V30 4329 H 387.821 -2.0124 0.36369 0
M  V30 4330 H 385.976 -3.52583 -1.60511 0
M  V30 4331 H 386.39 -5.24097 -0.205579 0
M  V30 4332 H 387.864 -5.17733 -1.91458 0
M  V30 4333 H 388.341 -3.59434 -2.52397 0
M  V30 4334 H 388.947 -4.14655 -0.945576 0
M  V30 4335 N 387.262 0.0317525 -1.57568 0
M  V30 4336 C 388.172 1.05021 -2.0978 0
M  V30 4337 C 389.188 1.39809 -1.03583 0
M  V30 4338 O 390.364 1.49182 -1.35302 0
M  V30 4339 C 387.429 2.33301 -2.56459 0
M  V30 4340 C 386.49 2.0512 -3.77127 0
M  V30 4341 C 385.723 3.27283 -4.2157 0
M  V30 4342 O 385.946 4.37861 -3.65559 0
M  V30 4343 O 384.88 3.13141 -5.14029 0
M  V30 4344 H 388.706 0.636505 -2.96955 0
M  V30 4345 H 386.291 0.248559 -1.47318 0
M  V30 4346 H 388.173 3.08722 -2.86825 0
M  V30 4347 H 386.848 2.73973 -1.72397 0
M  V30 4348 H 385.755 1.27276 -3.51784 0
M  V30 4349 H 387.088 1.69305 -4.62165 0
M  V30 4350 N 388.74 1.54641 0.303973 0
M  V30 4351 C 389.965 1.78092 1.06292 0
M  V30 4352 C 390.39 0.537342 1.80262 0
M  V30 4353 O 389.748 -0.511993 1.7392 0
M  V30 4354 C 389.796 2.98612 2.02147 0
M  V30 4355 O 388.9 2.71528 3.10397 0
M  V30 4356 H 388.241 0.589548 0.305497 0
M  V30 4357 H 390.771 2.01716 0.3423 0
M  V30 4358 H 390.781 3.265 2.44667 0
M  V30 4359 H 389.456 3.88785 1.47714 0
M  V30 4360 H 388.033 2.54648 2.72413 0
M  V30 4361 N 390.218 -0.567019 1.47046 0
M  V30 4362 C 391.443 -1.3551 1.57009 0
M  V30 4363 C 391.868 -1.86841 0.217259 0
M  V30 4364 O 391.226 -1.62435 -0.805268 0
M  V30 4365 C 391.274 -2.50777 2.5912 0
M  V30 4366 O 390.378 -3.52706 2.13711 0
M  V30 4367 H 389.719 -0.402919 0.52778 0
M  V30 4368 H 392.249 -0.686241 1.92748 0
M  V30 4369 H 392.259 -2.97481 2.79229 0
M  V30 4370 H 390.934 -2.12771 3.57353 0
M  V30 4371 H 389.511 -3.12374 2.03659 0
M  V30 4372 N 391.696 -1.35014 -0.812953 0
M  V30 4373 C 392.942 -1.2812 -1.57204 0
M  V30 4374 C 393.275 0.145869 -1.93651 0
M  V30 4375 O 392.55 1.0937 -1.60836 0
M  V30 4376 C 392.833 -2.18162 -2.86492 0
M  V30 4377 C 392.686 -3.69454 -2.56561 0
M  V30 4378 C 394.005 -2.07439 -3.88145 0
M  V30 4379 H 391.124 -0.466746 -0.570366 0
M  V30 4380 H 393.766 -1.65357 -0.935783 0
M  V30 4381 H 391.916 -1.86535 -3.40789 0
M  V30 4382 H 393.588 -4.11493 -2.08497 0
M  V30 4383 H 391.831 -3.9005 -1.89851 0
M  V30 4384 H 392.502 -4.27835 -3.48799 0
M  V30 4385 H 394.978 -2.35228 -3.4323 0
M  V30 4386 H 393.854 -2.7265 -4.76396 0
M  V30 4387 H 394.115 -1.05439 -4.29343 0
M  V30 4388 N 393.175 1.03435 -1.18907 0
M  V30 4389 C 394.4 1.80919 -1.01406 0
M  V30 4390 C 394.825 1.83055 0.432721 0
M  V30 4391 O 394.183 1.25252 1.31079 0
M  V30 4392 C 394.231 3.24091 -1.58105 0
M  V30 4393 O 393.335 4.04434 -0.806669 0
M  V30 4394 H 392.676 0.558709 -0.358803 0
M  V30 4395 H 395.206 1.30223 -1.57807 0
M  V30 4396 H 395.216 3.74853 -1.61087 0
M  V30 4397 H 393.891 3.21851 -2.6341 0
M  V30 4398 H 392.468 3.63091 -0.849666 0
M  V30 4399 N 394.653 0.992116 1.22453 0
M  V30 4400 C 395.878 0.685644 1.95739 0
M  V30 4401 C 396.303 -0.743 1.72804 0
M  V30 4402 O 395.661 -1.50778 1.00676 0
M  V30 4403 C 395.709 0.996293 3.46564 0
M  V30 4404 O 394.813 0.0945512 4.12292 0
M  V30 4405 H 394.154 0.256694 0.612376 0
M  V30 4406 H 396.684 1.32888 1.5557 0
M  V30 4407 H 396.694 0.93781 3.97076 0
M  V30 4408 H 395.369 2.03733 3.62582 0
M  V30 4409 H 393.946 0.208451 3.72317 0
M  V30 4410 N 396.131 -1.37776 0.765217 0
M  V30 4411 C 397.356 -2.04651 0.336537 0
M  V30 4412 C 397.781 -1.57337 -1.03086 0
M  V30 4413 O 397.139 -0.730621 -1.65927 0
M  V30 4414 C 397.187 -3.58577 0.381468 0
M  V30 4415 O 396.291 -4.07706 -0.62042 0
M  V30 4416 H 395.632 -0.64756 0.146838 0
M  V30 4417 H 398.162 -1.76221 1.03959 0
M  V30 4418 H 398.172 -4.07314 0.236448 0
M  V30 4419 H 396.847 -3.9237 1.37907 0
M  V30 4420 H 395.424 -3.70306 -0.439056 0
M  V30 4421 N 397.609 -0.515225 -1.4894 0
M  V30 4422 C 398.834 0.022727 -2.07388 0
M  V30 4423 C 399.259 1.2876 -1.37122 0
M  V30 4424 O 398.617 1.76067 -0.432431 0
M  V30 4425 C 398.665 0.244869 -3.59768 0
M  V30 4426 O 397.769 1.31667 -3.90817 0
M  V30 4427 H 397.11 -0.0325506 -0.663202 0
M  V30 4428 H 399.64 -0.718918 -1.91553 0
M  V30 4429 H 399.65 0.47205 -4.0526 0
M  V30 4430 H 398.325 -0.679194 -4.10317 0
M  V30 4431 H 396.902 1.07331 -3.5712 0
M  V30 4432 N 399.087 1.5561 -0.249682 0
M  V30 4433 C 400.498 1.84979 0.252949 0
M  V30 4434 C 400.849 1.17153 1.57384 0
M  V30 4435 O 399.974 0.450884 2.11651 0
M  V30 4436 C 400.569 3.35584 0.465732 0
M  V30 4437 C 399.128 3.65169 0.912624 0
M  V30 4438 C 398.275 2.77299 -0.00859085 0
M  V30 4439 H 401.226 1.51513 -0.47217 0
M  V30 4440 H 401.247 3.57313 1.30795 0
M  V30 4441 H 400.759 3.8492 -0.49579 0
M  V30 4442 H 398.86 3.21312 1.88652 0
M  V30 4443 H 398.973 4.72912 0.767559 0
M  V30 4444 H 397.337 2.49678 0.50327 0
M  V30 4445 H 398.12 3.29442 -0.965537 0
M  V30 4446 N 400.565 -0.0233959 1.57583 0
M  V30 4447 C 401.813 -0.711654 1.89156 0
M  V30 4448 C 402.134 -1.75591 0.848096 0
M  V30 4449 O 401.404 -1.95547 -0.117566 0
M  V30 4450 H 399.984 -0.265835 0.698098 0
M  V30 4451 H 402.646 0.0119948 1.94896 0
M  V30 4452 H 401.742 -1.19766 2.88206 0
M  V30 4453 N 402.043 -1.548 -0.295768 0
M  V30 4454 C 403.268 -1.78653 -1.05346 0
M  V30 4455 C 403.693 -0.546894 -1.79974 0
M  V30 4456 O 403.051 0.502763 -1.7419 0
M  V30 4457 C 403.099 -2.99679 -2.00561 0
M  V30 4458 O 402.203 -2.7317 -3.08953 0
M  V30 4459 H 401.544 -0.59116 -0.302367 0
M  V30 4460 H 404.074 -2.01895 -0.331598 0
M  V30 4461 H 404.084 -3.27793 -2.42932 0
M  V30 4462 H 402.759 -3.89562 -1.4565 0
M  V30 4463 H 401.336 -2.56089 -2.71059 0
M  V30 4464 N 403.521 0.559213 -1.47345 0
M  V30 4465 C 404.769 1.31388 -1.53563 0
M  V30 4466 C 405.09 1.93985 -0.198678 0
M  V30 4467 O 404.36 1.79825 0.777167 0
M  V30 4468 H 402.94 0.487901 -0.565652 0
M  V30 4469 H 405.602 0.65315 -1.8363 0
M  V30 4470 H 404.698 2.10844 -2.30111 0
M  V30 4471 N 404.999 1.35443 0.805782 0
M  V30 4472 C 406.41 1.25768 1.37983 0
M  V30 4473 C 406.761 -0.10958 1.95894 0
M  V30 4474 O 405.886 -1.01056 1.91355 0
M  V30 4475 C 406.481 2.27727 2.5085 0
M  V30 4476 C 405.04 2.2179 3.04115 0
M  V30 4477 C 404.187 2.13393 1.77084 0
M  V30 4478 H 407.138 1.4656 0.608752 0
M  V30 4479 H 407.159 1.90422 3.29424 0
M  V30 4480 H 406.671 3.27227 2.08671 0
M  V30 4481 H 404.772 1.25703 3.50756 0
M  V30 4482 H 404.885 3.13788 3.62042 0
M  V30 4483 H 403.249 1.59384 1.98668 0
M  V30 4484 H 404.032 3.14755 1.37056 0
M  V30 4485 N 406.477 -1.02803 1.19454 0
M  V30 4486 C 407.702 -1.80378 1.02364 0
M  V30 4487 C 408.127 -1.83282 -0.423007 0
M  V30 4488 O 407.485 -1.25945 -1.30413 0
M  V30 4489 C 407.533 -3.23248 1.59821 0
M  V30 4490 O 406.637 -4.04 0.828105 0
M  V30 4491 H 405.978 -0.556799 0.361761 0
M  V30 4492 H 408.508 -1.29385 1.58495 0
M  V30 4493 H 408.518 -3.73994 1.63073 0
M  V30 4494 H 407.193 -3.2045 2.65113 0
M  V30 4495 H 405.77 -3.62635 0.86891 0
M  V30 4496 N 407.956 -0.998596 -1.21925 0
M  V30 4497 C 409.181 -0.696015 -1.95372 0
M  V30 4498 C 409.606 0.733826 -1.73195 0
M  V30 4499 O 408.964 1.50242 -1.01474 0
M  V30 4500 C 409.012 -1.01466 -3.4603 0
M  V30 4501 O 408.116 -0.116415 -4.12236 0
M  V30 4502 H 407.457 -0.259938 -0.611006 0
M  V30 4503 H 409.987 -1.33711 -1.54863 0
M  V30 4504 H 409.997 -0.958855 -3.96573 0
M  V30 4505 H 408.672 -2.05653 -3.61497 0
M  V30 4506 H 407.249 -0.228193 -3.72201 0
M  V30 4507 N 409.434 1.37368 -0.772513 0
M  V30 4508 C 410.845 1.8231 -0.402493 0
M  V30 4509 C 411.196 1.6436 1.07146 0
M  V30 4510 O 410.321 1.15514 1.82991 0
M  V30 4511 C 410.916 3.30979 -0.723776 0
M  V30 4512 C 409.475 3.74195 -0.406802 0
M  V30 4513 C 408.622 2.59885 -0.967218 0
M  V30 4514 H 411.573 1.25829 -0.967099 0
M  V30 4515 H 411.594 3.80499 -0.00870832 0
M  V30 4516 H 411.106 3.44011 -1.7966 0
M  V30 4517 H 409.207 3.66732 0.658673 0
M  V30 4518 H 409.32 4.7027 -0.915588 0
M  V30 4519 H 407.684 2.51674 -0.391416 0
M  V30 4520 H 408.467 2.7571 -2.04546 0
M  V30 4521 N 410.912 0.523116 1.48665 0
M  V30 4522 C 411.86 -0.256859 2.31177 0
M  V30 4523 C 412.854 -0.94199 1.40794 0
M  V30 4524 O 414.06 -0.867157 1.57735 0
M  V30 4525 H 410.435 -0.1017 0.745091 0
M  V30 4526 H 412.406 0.458739 2.94853 0
M  V30 4527 C 411.155 -1.29503 3.22683 0
M  V30 4528 H 410.478 -0.777248 3.92172 0
M  V30 4529 H 411.918 -1.81233 3.83315 0
M  V30 4530 C 410.377 -2.32501 2.43813 0
M  V30 4531 O 410.907 -3.3881 2.15803 0
M  V30 4532 N 409.113 -2.05538 2.05432 0
M  V30 4533 H 408.66 -1.19104 2.28412 0
M  V30 4534 H 408.618 -2.74676 1.52973 0
M  V30 4535 N 412.39 -1.55475 0.257931 0
M  V30 4536 C 413.338 -2.23244 -0.653076 0
M  V30 4537 C 414.332 -1.22366 -1.17144 0
M  V30 4538 O 415.538 -1.40347 -1.12706 0
M  V30 4539 H 411.913 -0.716247 -0.229117 0
M  V30 4540 H 413.884 -2.98343 -0.0584788 0
M  V30 4541 C 412.633 -2.95401 -1.83395 0
M  V30 4542 H 411.956 -3.72802 -1.44424 0
M  V30 4543 H 413.396 -3.46165 -2.44838 0
M  V30 4544 C 411.855 -1.99895 -2.71189 0
M  V30 4545 O 412.385 -1.53909 -3.71046 0
M  V30 4546 N 410.591 -1.6676 -2.3799 0
M  V30 4547 H 410.138 -2.04352 -1.56837 0
M  V30 4548 H 410.096 -1.03127 -2.97005 0
M  V30 4549 N 413.868 0.0150385 -1.57593 0
M  V30 4550 C 415.116 0.701613 -1.8953 0
M  V30 4551 C 415.437 1.75139 -0.857396 0
M  V30 4552 O 414.707 1.95607 0.107194 0
M  V30 4553 H 413.287 0.26213 -0.699498 0
M  V30 4554 H 415.949 -0.0223304 -1.94887 0
M  V30 4555 H 415.045 1.18236 -2.88837 0
M  V30 4556 N 415.346 1.54954 0.287554 0
M  V30 4557 C 416.757 1.65732 0.859634 0
M  V30 4558 C 417.108 0.574767 1.87592 0
M  V30 4559 O 416.233 -0.286299 2.14498 0
M  V30 4560 C 416.828 3.00438 1.56597 0
M  V30 4561 C 415.387 3.13292 2.08627 0
M  V30 4562 C 414.534 2.61473 0.923416 0
M  V30 4563 H 417.485 1.5857 0.0642338 0
M  V30 4564 H 417.506 2.92613 2.43224 0
M  V30 4565 H 417.018 3.79207 0.826053 0
M  V30 4566 H 415.119 2.39268 2.85625 0
M  V30 4567 H 415.232 4.19647 2.31157 0
M  V30 4568 H 413.596 2.18264 1.31275 0
M  V30 4569 H 414.379 3.42733 0.197241 0
M  V30 4570 N 416.824 -0.551391 1.4764 0
M  V30 4571 C 418.052 -1.33357 1.58189 0
M  V30 4572 C 418.467 -1.87342 0.234199 0
M  V30 4573 O 417.824 -1.65301 -0.77343 0
M  V30 4574 C 417.875 -2.49942 2.61173 0
M  V30 4575 O 417.596 -1.98187 3.90709 0
M  V30 4576 C 419.097 -3.42072 2.8196 0
M  V30 4577 H 416.317 -0.40631 0.533998 0
M  V30 4578 H 418.861 -0.667367 1.93304 0
M  V30 4579 H 417.016 -3.12489 2.28975 0
M  V30 4580 H 417.43 -2.74342 4.47031 0
M  V30 4581 H 418.904 -4.20278 3.57869 0
M  V30 4582 H 419.381 -3.95978 1.89995 0
M  V30 4583 H 419.987 -2.85336 3.15378 0
M  V30 4584 N 418.302 -1.35869 -0.798587 0
M  V30 4585 C 419.55 -1.29332 -1.55298 0
M  V30 4586 C 419.871 0.129729 -1.94568 0
M  V30 4587 O 419.141 1.06796 -1.6423 0
M  V30 4588 H 417.721 -0.475737 -0.57592 0
M  V30 4589 H 420.383 -1.70062 -0.952093 0
M  V30 4590 H 419.479 -1.91458 -2.46476 0
M  V30 4591 N 419.78 1.02168 -1.19998 0
M  V30 4592 C 421.005 1.79833 -1.03319 0
M  V30 4593 C 421.43 1.83504 0.413281 0
M  V30 4594 O 420.788 1.26635 1.29743 0
M  V30 4595 C 420.836 3.22396 -1.61533 0
M  V30 4596 O 419.94 4.03555 -0.849519 0
M  V30 4597 H 419.281 0.554872 -0.364709 0
M  V30 4598 H 421.811 1.28542 -1.59179 0
M  V30 4599 H 421.821 3.73124 -1.65054 0
M  V30 4600 H 420.496 3.19039 -2.66809 0
M  V30 4601 H 419.073 3.62169 -0.888129 0
M  V30 4602 N 421.258 1.00505 1.21394 0
M  V30 4603 C 422.504 0.688793 1.90745 0
M  V30 4604 C 422.837 -0.778486 1.77914 0
M  V30 4605 O 422.112 -1.56433 1.15581 0
M  V30 4606 C 422.395 1.11063 3.42545 0
M  V30 4607 C 422.248 2.63737 3.64367 0
M  V30 4608 C 423.567 0.673059 4.34923 0
M  V30 4609 H 420.686 0.251702 0.692687 0
M  V30 4610 H 423.328 1.25074 1.43026 0
M  V30 4611 H 421.478 0.632508 3.83317 0
M  V30 4612 H 423.15 3.19313 3.32922 0
M  V30 4613 H 421.393 3.05248 3.08231 0
M  V30 4614 H 422.064 2.88305 4.70727 0
M  V30 4615 H 424.54 1.08392 4.01734 0
M  V30 4616 H 423.416 0.996383 5.39781 0
M  V30 4617 H 423.677 -0.425808 4.40045 0
M  V30 4618 N 422.737 -1.36956 0.779787 0
M  V30 4619 C 423.965 -2.03755 0.359398 0
M  V30 4620 C 424.38 -1.58807 -1.02106 0
M  V30 4621 O 423.737 -0.773024 -1.6532 0
M  V30 4622 C 423.788 -3.59251 0.402568 0
M  V30 4623 O 423.509 -4.02557 1.72858 0
M  V30 4624 C 425.01 -4.43291 -0.0284068 0
M  V30 4625 H 422.23 -0.654148 0.149437 0
M  V30 4626 H 424.774 -1.75128 1.05595 0
M  V30 4627 H 422.929 -3.86621 -0.245478 0
M  V30 4628 H 423.343 -4.97111 1.67275 0
M  V30 4629 H 424.817 -5.51975 0.0529466 0
M  V30 4630 H 425.294 -4.25719 -1.07982 0
M  V30 4631 H 425.9 -4.21163 0.591758 0
M  V30 4632 N 424.215 -0.530993 -1.48385 0
M  V30 4633 C 425.125 0.23503 -2.3342 0
M  V30 4634 C 426.141 0.93801 -1.46552 0
M  V30 4635 O 427.317 0.912745 -1.7953 0
M  V30 4636 C 424.382 1.26778 -3.22689 0
M  V30 4637 C 423.443 0.575038 -4.25431 0
M  V30 4638 C 422.676 1.55858 -5.10435 0
M  V30 4639 O 422.899 2.79129 -4.97437 0
M  V30 4640 O 421.833 1.09742 -5.91811 0
M  V30 4641 H 425.659 -0.461794 -3.00169 0
M  V30 4642 H 423.244 -0.291903 -1.46521 0
M  V30 4643 H 425.126 1.86457 -3.77904 0
M  V30 4644 H 423.801 1.94699 -2.586 0
M  V30 4645 H 422.708 -0.0622782 -3.74048 0
M  V30 4646 H 424.041 -0.062253 -4.92161 0
M  V30 4647 N 425.693 1.55336 -0.266172 0
M  V30 4648 C 426.641 2.23587 0.641228 0
M  V30 4649 C 427.635 1.22986 1.16494 0
M  V30 4650 O 428.841 1.40943 1.1196 0
M  V30 4651 H 425.216 0.717452 0.225315 0
M  V30 4652 H 427.187 2.9837 0.0426561 0
M  V30 4653 C 425.936 2.96369 1.81826 0
M  V30 4654 H 425.259 3.73563 1.42445 0
M  V30 4655 H 426.699 3.47459 2.42998 0
M  V30 4656 C 425.158 2.0133 2.70125 0
M  V30 4657 O 425.688 1.55875 3.70224 0
M  V30 4658 N 423.894 1.6802 2.37102 0
M  V30 4659 H 423.441 2.05181 1.55751 0
M  V30 4660 H 423.399 1.047 2.96454 0
M  V30 4661 N 427.171 -0.0066808 1.57599 0
M  V30 4662 C 428.081 -1.01671 2.11424 0
M  V30 4663 C 429.097 -1.38143 1.05795 0
M  V30 4664 O 430.273 -1.47011 1.37658 0
M  V30 4665 C 427.338 -2.29192 2.60139 0
M  V30 4666 C 426.399 -1.99094 3.80342 0
M  V30 4667 C 425.632 -3.20535 4.26724 0
M  V30 4668 O 425.855 -4.3199 3.72479 0
M  V30 4669 O 424.789 -3.04924 5.18946 0
M  V30 4670 H 428.615 -0.589181 2.9793 0
M  V30 4671 H 426.2 -0.225091 1.47695 0
M  V30 4672 H 428.082 -3.0412 2.917 0
M  V30 4673 H 426.757 -2.71195 1.76733 0
M  V30 4674 H 425.664 -1.21663 3.53764 0
M  V30 4675 H 426.997 -1.61931 4.648 0
M  V30 4676 N 428.649 -1.55105 -0.279332 0
M  V30 4677 C 429.877 -1.7943 -1.03017 0
M  V30 4678 C 430.292 -0.564456 -1.80165 0
M  V30 4679 O 429.649 0.466326 -1.76442 0
M  V30 4680 C 429.7 -3.0155 -1.99374 0
M  V30 4681 O 429.421 -4.19784 -1.25352 0
M  V30 4682 C 430.922 -3.3843 -2.86321 0
M  V30 4683 H 428.142 -0.597882 -0.304594 0
M  V30 4684 H 430.686 -2.02105 -0.312035 0
M  V30 4685 H 428.841 -2.81019 -2.66659 0
M  V30 4686 H 429.255 -4.88781 -1.90246 0
M  V30 4687 H 430.729 -4.27066 -3.49741 0
M  V30 4688 H 431.206 -2.57549 -3.5576 0
M  V30 4689 H 431.812 -3.61197 -2.24536 0
M  V30 4690 N 430.127 0.543554 -1.4793 0
M  V30 4691 C 431.352 1.32995 -1.59145 0
M  V30 4692 C 431.777 1.86472 -0.246956 0
M  V30 4693 O 431.135 1.63696 0.779324 0
M  V30 4694 C 431.183 2.46623 -2.63077 0
M  V30 4695 O 430.287 3.49261 -2.19295 0
M  V30 4696 H 429.628 0.394472 -0.534124 0
M  V30 4697 H 432.158 0.655489 -1.93816 0
M  V30 4698 H 432.168 2.93001 -2.83926 0
M  V30 4699 H 430.843 2.07059 -3.60693 0
M  V30 4700 H 429.42 3.09094 -2.08603 0
M  V30 4701 N 431.605 1.3629 0.791371 0
M  V30 4702 C 432.851 1.30605 1.55146 0
M  V30 4703 C 433.184 -0.115042 1.93859 0
M  V30 4704 O 432.459 -1.06798 1.62556 0
M  V30 4705 C 432.742 2.22692 2.82985 0
M  V30 4706 C 432.595 3.73489 2.50651 0
M  V30 4707 C 433.914 2.13588 3.84796 0
M  V30 4708 H 431.033 0.475761 0.562868 0
M  V30 4709 H 433.675 1.66825 0.909358 0
M  V30 4710 H 431.825 1.91933 3.37778 0
M  V30 4711 H 433.497 4.14758 2.01924 0
M  V30 4712 H 431.74 3.93021 1.83622 0
M  V30 4713 H 432.411 4.3333 3.41949 0
M  V30 4714 H 434.887 2.40659 3.39445 0
M  V30 4715 H 433.763 2.80195 4.71998 0
M  V30 4716 H 434.024 1.12256 4.27611 0
M  V30 4717 N 433.083 -1.0153 1.20538 0
M  V30 4718 C 434.013 -2.11972 0.979295 0
M  V30 4719 C 434.994 -1.6985 -0.0921787 0
M  V30 4720 O 436.179 -1.94089 0.0655932 0
M  V30 4721 C 433.309 -3.43201 0.531984 0
M  V30 4722 C 432.263 -3.9907 1.54685 0
M  V30 4723 C 431.589 -5.26082 0.956127 0
M  V30 4724 C 432.889 -4.32313 2.93092 0
M  V30 4725 H 434.583 -2.31143 1.90298 0
M  V30 4726 H 432.129 -1.11079 0.916372 0
M  V30 4727 H 434.082 -4.1985 0.361044 0
M  V30 4728 H 432.806 -3.23792 -0.427327 0
M  V30 4729 H 431.465 -3.2453 1.70517 0
M  V30 4730 H 431.113 -5.02999 -0.0111538 0
M  V30 4731 H 430.813 -5.64426 1.63393 0
M  V30 4732 H 432.337 -6.05386 0.796284 0
M  V30 4733 H 433.751 -4.99845 2.80763 0
M  V30 4734 H 432.148 -4.81774 3.57791 0
M  V30 4735 H 433.218 -3.41025 3.44717 0
M  V30 4736 N 434.561 -1.01147 -1.20859 0
M  V30 4737 C 435.972 -0.730205 -1.71828 0
M  V30 4738 C 436.323 0.751662 -1.8123 0
M  V30 4739 O 435.448 1.58686 -1.47132 0
M  V30 4740 C 436.043 -1.31885 -3.12077 0
M  V30 4741 C 434.602 -1.08656 -3.60376 0
M  V30 4742 C 433.749 -1.42769 -2.37723 0
M  V30 4743 H 436.7 -1.18158 -1.05945 0
M  V30 4744 H 436.721 -0.706793 -3.73878 0
M  V30 4745 H 436.233 -2.39737 -3.05201 0
M  V30 4746 H 434.334 -0.0254814 -3.72591 0
M  V30 4747 H 434.447 -1.76301 -4.45483 0
M  V30 4748 H 432.811 -0.846603 -2.40218 0
M  V30 4749 H 433.594 -2.51666 -2.33493 0
M  V30 4750 N 436.039 1.36541 -0.78704 0
M  V30 4751 C 437.45 1.81873 -0.421807 0
M  V30 4752 C 437.801 1.65487 1.05397 0
M  V30 4753 O 436.926 1.17448 1.81755 0
M  V30 4754 C 437.521 3.30192 -0.758841 0
M  V30 4755 C 436.08 3.73743 -0.446468 0
M  V30 4756 C 435.227 2.58844 -0.994728 0
M  V30 4757 H 438.178 1.24796 -0.98039 0
M  V30 4758 H 438.199 3.80468 -0.0490648 0
M  V30 4759 H 437.711 3.42087 -1.83299 0
M  V30 4760 H 435.812 3.6741 0.619739 0
M  V30 4761 H 435.925 4.69272 -0.965415 0
M  V30 4762 H 434.289 2.51245 -0.418087 0
M  V30 4763 H 435.072 2.73525 -2.07458 0
M  V30 4764 N 437.518 0.538854 1.48102 0
M  V30 4765 C 438.746 0.0123136 2.06896 0
M  V30 4766 C 439.161 -1.27312 1.39417 0
M  V30 4767 O 438.518 -1.75949 0.484582 0
M  V30 4768 C 438.569 -0.206118 3.60912 0
M  V30 4769 O 438.29 1.0284 4.25859 0
M  V30 4770 C 439.791 -0.772033 4.36526 0
M  V30 4771 H 437.011 0.0375239 0.66995 0
M  V30 4772 H 439.555 0.747032 1.90367 0
M  V30 4773 H 437.71 -0.89091 3.77017 0
M  V30 4774 H 438.124 0.814654 5.18135 0
M  V30 4775 H 439.598 -0.874251 5.45033 0
M  V30 4776 H 440.075 -1.77904 4.01555 0
M  V30 4777 H 440.681 -0.123526 4.25121 0
M  V30 4778 N 438.996 -1.55193 0.274407 0
M  V30 4779 C 440.407 -1.85358 -0.223488 0
M  V30 4780 C 440.758 -1.19642 -1.555 0
M  V30 4781 O 439.883 -0.484498 -2.10907 0
M  V30 4782 C 440.478 -3.36282 -0.412285 0
M  V30 4783 C 439.037 -3.66574 -0.854413 0
M  V30 4784 C 438.184 -2.7725 0.0527056 0
M  V30 4785 H 441.135 -1.50743 0.496215 0
M  V30 4786 H 441.156 -3.59349 -1.25094 0
M  V30 4787 H 440.668 -3.84083 0.556965 0
M  V30 4788 H 438.769 -3.24273 -1.83516 0
M  V30 4789 H 438.882 -4.74073 -0.692226 0
M  V30 4790 H 437.246 -2.50447 -0.463484 0
M  V30 4791 H 438.029 -3.27865 1.01783 0
M  V30 4792 N 440.474 -0.00167713 -1.576 0
M  V30 4793 C 441.424 0.997744 -2.0501 0
M  V30 4794 C 442.408 1.30214 -0.94515 0
M  V30 4795 O 443.6 1.29284 -1.20891 0
M  V30 4796 C 440.729 2.2892 -2.55833 0
M  V30 4797 C 439.815 2.01437 -3.73208 0
M  V30 4798 N 440.206 1.44119 -4.84833 0
M  V30 4799 C 438.504 2.31571 -3.8117 0
M  V30 4800 C 439.205 1.33145 -5.66257 0
M  V30 4801 N 438.181 1.81763 -5.12312 0
M  V30 4802 H 441.983 0.549098 -2.88725 0
M  V30 4803 H 439.497 0.20398 -1.61114 0
M  V30 4804 H 441.494 3.01361 -2.88075 0
M  V30 4805 H 440.154 2.74436 -1.73537 0
M  V30 4806 H 441.165 1.11978 -5.0565 0
M  V30 4807 H 437.842 2.7995 -3.09732 0
M  V30 4808 H 439.232 0.890567 -6.65972 0
M  V30 4809 N 441.952 1.55251 0.271103 0
M  V30 4810 C 442.915 1.87484 1.31842 0
M  V30 4811 C 443.915 0.749545 1.42262 0
M  V30 4812 O 445.105 1.01771 1.4138 0
M  V30 4813 C 442.237 2.0818 2.69951 0
M  V30 4814 H 443.43 2.81108 1.0449 0
M  V30 4815 H 440.983 1.47771 0.509258 0
M  V30 4816 H 441.718 1.16944 3.02481 0
M  V30 4817 H 441.503 2.90114 2.63774 0
M  V30 4818 H 442.993 2.34385 3.4562 0
M  V30 4819 N 443.43 -0.535701 1.48216 0
M  V30 4820 C 444.34 -1.66785 1.64985 0
M  V30 4821 C 445.356 -1.65654 0.532414 0
M  V30 4822 O 446.532 -1.8471 0.80275 0
M  V30 4823 C 443.597 -3.0326 1.68031 0
M  V30 4824 C 442.658 -3.1529 2.9136 0
M  V30 4825 C 441.891 -4.45255 2.94252 0
M  V30 4826 O 442.114 -5.32011 2.05719 0
M  V30 4827 O 441.048 -4.6153 3.86359 0
M  V30 4828 H 444.874 -1.55576 2.60825 0
M  V30 4829 H 442.459 -0.70815 1.31551 0
M  V30 4830 H 444.341 -3.84436 1.72589 0
M  V30 4831 H 443.016 -3.14805 0.753628 0
M  V30 4832 H 441.923 -2.3343 2.92337 0
M  V30 4833 H 443.256 -3.08658 3.83394 0
M  V30 4834 N 444.908 -1.36708 -0.784132 0
M  V30 4835 C 445.84 -1.27333 -1.90575 0
M  V30 4836 C 446.853 -0.191706 -1.61667 0
M  V30 4837 O 448.042 -0.446854 -1.72816 0
M  V30 4838 C 445.142 -0.943177 -3.25511 0
M  V30 4839 C 444.315 -2.12776 -3.82158 0
M  V30 4840 C 443.374 -1.76983 -4.95544 0
M  V30 4841 O 442.4 -2.49134 -5.11782 0
M  V30 4842 N 443.602 -0.706624 -5.76183 0
M  V30 4843 H 446.367 -2.23974 -1.99138 0
M  V30 4844 H 443.928 -1.30171 -0.962656 0
M  V30 4845 H 445.92 -0.684799 -3.98864 0
M  V30 4846 H 444.49 -0.0657333 -3.12531 0
M  V30 4847 H 443.71 -2.54863 -3.0073 0
M  V30 4848 H 444.998 -2.91904 -4.16737 0
M  V30 4849 H 444.396 -0.107643 -5.65598 0
M  V30 4850 H 442.953 -0.50808 -6.49817 0
M  V30 4851 N 446.386 1.0089 -1.21074 0
M  V30 4852 C 447.319 2.09279 -0.909806 0
M  V30 4853 C 448.297 1.61986 0.141145 0
M  V30 4854 O 449.481 1.88495 0.0130332 0
M  V30 4855 C 446.608 3.36723 -0.365374 0
M  V30 4856 C 445.654 4.02919 -1.39852 0
M  V30 4857 S 446.487 4.45835 -2.96633 0
M  V30 4858 C 447.643 5.76471 -2.43786 0
M  V30 4859 H 447.876 2.34484 -1.82769 0
M  V30 4860 H 445.409 1.14115 -1.04006 0
M  V30 4861 H 447.367 4.10459 -0.0578203 0
M  V30 4862 H 446.028 3.09577 0.531136 0
M  V30 4863 H 445.221 4.94634 -0.967117 0
M  V30 4864 H 444.823 3.35441 -1.65395 0
M  V30 4865 H 447.115 6.52027 -1.84029 0
M  V30 4866 H 448.058 6.24418 -3.33928 0
M  V30 4867 H 448.466 5.33104 -1.85636 0
M  V30 4868 N 447.864 1.01787 1.20321 0
M  V30 4869 C 449.11 0.708985 1.90003 0
M  V30 4870 C 449.443 -0.759572 1.78729 0
M  V30 4871 O 448.718 -1.55198 1.17234 0
M  V30 4872 C 449.001 1.1469 3.41348 0
M  V30 4873 C 448.854 2.67586 3.61549 0
M  V30 4874 C 450.173 0.71915 4.34185 0
M  V30 4875 H 447.292 0.259034 0.689978 0
M  V30 4876 H 449.934 1.26584 1.41692 0
M  V30 4877 H 448.084 0.673128 3.82624 0
M  V30 4878 H 449.756 3.22826 3.29517 0
M  V30 4879 H 447.999 3.085 3.04976 0
M  V30 4880 H 448.67 2.93281 4.67643 0
M  V30 4881 H 451.146 1.12647 4.00562 0
M  V30 4882 H 450.022 1.05358 5.38694 0
M  V30 4883 H 450.283 -0.379111 4.40472 0
M  V30 4884 N 449.342 -1.36122 0.79427 0
M  V30 4885 C 450.567 -2.03891 0.379871 0
M  V30 4886 C 450.992 -1.59488 -0.997251 0
M  V30 4887 O 450.35 -0.765652 -1.64339 0
M  V30 4888 C 450.398 -3.57687 0.457442 0
M  V30 4889 O 449.502 -4.08931 -0.5338 0
M  V30 4890 H 448.843 -0.6443 0.160541 0
M  V30 4891 H 451.373 -1.73976 1.07673 0
M  V30 4892 H 451.383 -4.06721 0.322792 0
M  V30 4893 H 450.058 -3.89357 1.46199 0
M  V30 4894 H 448.635 -3.71154 -0.360409 0
M  V30 4895 N 450.82 -0.546701 -1.47814 0
M  V30 4896 C 451.752 0.244196 -2.27895 0
M  V30 4897 C 452.765 0.88911 -1.36377 0
M  V30 4898 O 453.954 0.764733 -1.61289 0
M  V30 4899 C 451.054 1.36252 -3.10304 0
M  V30 4900 C 450.227 0.816382 -4.29714 0
M  V30 4901 C 449.286 1.81789 -4.93801 0
M  V30 4902 O 448.312 1.36818 -5.52512 0
M  V30 4903 N 449.514 3.15085 -4.87547 0
M  V30 4904 H 452.279 -0.442694 -2.96412 0
M  V30 4905 H 449.84 -0.382095 -1.57327 0
M  V30 4906 H 451.832 2.03102 -3.50045 0
M  V30 4907 H 450.402 1.95281 -2.44099 0
M  V30 4908 H 449.622 -0.0285981 -3.9419 0
M  V30 4909 H 450.91 0.430668 -5.06974 0
M  V30 4910 H 450.308 3.54275 -4.41028 0
M  V30 4911 H 448.865 3.77522 -5.31339 0
M  V30 4912 N 452.299 1.55045 -0.282633 0
M  V30 4913 C 453.231 2.2023 0.634924 0
M  V30 4914 C 454.244 1.18931 1.11172 0
M  V30 4915 O 455.433 1.4562 1.03233 0
M  V30 4916 C 452.533 2.82041 1.87899 0
M  V30 4917 C 451.706 4.091 1.54776 0
M  V30 4918 C 450.765 4.54887 2.64507 0
M  V30 4919 O 449.791 5.20496 2.30375 0
M  V30 4920 N 450.993 4.25659 3.94709 0
M  V30 4921 H 453.758 2.99601 0.0769811 0
M  V30 4922 H 451.319 1.61565 -0.104048 0
M  V30 4923 H 453.311 3.09613 2.60619 0
M  V30 4924 H 451.881 2.06618 2.3458 0
M  V30 4925 H 451.101 3.88736 0.654049 0
M  V30 4926 H 452.389 4.9187 1.30158 0
M  V30 4927 H 451.787 3.7306 4.25256 0
M  V30 4928 H 450.344 4.57984 4.63782 0
M  V30 4929 N 453.777 0.010035 1.57597 0
M  V30 4930 C 455.193 -0.346164 1.55801 0
M  V30 4931 C 455.393 -1.74144 1.01371 0
M  V30 4932 O 454.449 -2.43938 0.651968 0
M  V30 4933 C 455.762 -0.212216 2.9995 0
M  V30 4934 C 457.31 -0.286409 3.11687 0
M  V30 4935 C 457.785 -0.18147 4.5764 0
M  V30 4936 N 459.276 -0.239056 4.62583 0
M  V30 4937 C 460.011 -0.181351 5.73113 0
M  V30 4938 N 459.507 -0.073661 6.92761 0
M  V30 4939 N 461.3 -0.233949 5.61613 0
M  V30 4940 H 453.451 0.922657 1.91313 0
M  V30 4941 H 455.714 0.354595 0.879185 0
M  V30 4942 H 455.42 0.748169 3.4365 0
M  V30 4943 H 455.294 -0.990224 3.6397 0
M  V30 4944 H 457.681 -1.23724 2.67911 0
M  V30 4945 H 457.762 0.521645 2.50425 0
M  V30 4946 H 457.406 0.765863 5.02093 0
M  V30 4947 H 457.336 -1.00814 5.1686 0
M  V30 4948 H 459.827 -0.32321 3.76515 0
M  V30 4949 H 460.14 -0.0358003 7.72792 0
M  V30 4950 H 458.485 -0.0391461 6.94989 0
M  V30 4951 H 461.676 -0.316347 4.6703 0
M  V30 4952 H 461.849 -0.185514 6.47734 0
M  V30 4953 N 455.255 -1.55392 -0.262866 0
M  V30 4954 C 456.504 -1.75679 -0.990943 0
M  V30 4955 C 456.817 -0.57097 -1.87081 0
M  V30 4956 O 458.023 -0.656486 -2.63444 0
M  V30 4957 C 456.479 -3.10964 -1.81188 0
M  V30 4958 C 456.087 -4.37146 -0.980188 0
M  V30 4959 C 457.831 -3.40597 -2.53365 0
M  V30 4960 C 455.738 -5.63466 -1.7961 0
M  V30 4961 H 454.668 -0.654868 -0.373716 0
M  V30 4962 H 457.319 -1.81841 -0.246203 0
M  V30 4963 H 455.701 -2.98867 -2.59797 0
M  V30 4964 H 456.875 -4.60187 -0.237558 0
M  V30 4965 H 455.19 -4.14731 -0.372497 0
M  V30 4966 H 457.787 -4.32186 -3.14833 0
M  V30 4967 H 458.13 -2.6119 -3.24169 0
M  V30 4968 H 458.663 -3.53838 -1.81779 0
M  V30 4969 H 455.402 -6.4565 -1.13209 0
M  V30 4970 H 454.922 -5.44552 -2.51443 0
M  V30 4971 H 456.601 -6.02139 -2.36723 0
M  V30 4972 N 456.733 0.527833 -1.48498 0
M  V30 4973 C 457.663 1.64136 -1.66077 0
M  V30 4974 C 458.644 1.62286 -0.509625 0
M  V30 4975 O 459.829 1.79449 -0.742413 0
M  V30 4976 C 456.959 3.02717 -1.70234 0
M  V30 4977 C 455.913 3.19426 -2.8487 0
M  V30 4978 C 455.239 4.5909 -2.74118 0
M  V30 4979 C 456.539 3.01993 -4.26142 0
M  V30 4980 H 458.233 1.4968 -2.593 0
M  V30 4981 H 455.779 0.718654 -1.24785 0
M  V30 4982 H 457.732 3.80491 -1.8112 0
M  V30 4983 H 456.456 3.18201 -0.735911 0
M  V30 4984 H 455.115 2.4407 -2.73542 0
M  V30 4985 H 454.763 4.71413 -1.7544 0
M  V30 4986 H 454.463 4.71214 -3.51042 0
M  V30 4987 H 455.987 5.3896 -2.86974 0
M  V30 4988 H 457.401 3.69558 -4.38292 0
M  V30 4989 H 455.798 3.2561 -5.04082 0
M  V30 4990 H 456.868 1.98396 -4.42456 0
M  V30 4991 N 458.211 1.37122 0.776871 0
M  V30 4992 C 459.46 1.31373 1.53049 0
M  V30 4993 C 459.773 -0.101016 1.95339 0
M  V30 4994 O 460.979 -0.280953 2.70042 0
M  V30 4995 C 459.435 2.30567 2.76346 0
M  V30 4996 C 459.043 3.77543 2.41175 0
M  V30 4997 C 460.787 2.33818 3.54301 0
M  V30 4998 C 458.694 4.68481 3.60943 0
M  V30 4999 H 457.624 0.488234 0.574581 0
M  V30 5000 H 460.275 1.62554 0.851372 0
M  V30 5001 H 458.657 1.92396 3.46121 0
M  V30 5002 H 459.831 4.24521 1.79216 0
M  V30 5003 H 458.146 3.77187 1.76405 0
M  V30 5004 H 460.743 2.98965 4.4331 0
M  V30 5005 H 461.086 1.3503 3.93793 0
M  V30 5006 H 461.619 2.7067 2.91518 0
M  V30 5007 H 458.358 5.68378 3.26537 0
M  V30 5008 H 457.878 4.2621 4.22025 0
M  V30 5009 H 459.557 4.85366 4.27819 0
M  V30 5010 N 459.689 -1.00246 1.21608 0
M  V30 5011 C 460.639 -2.07492 0.945051 0
M  V30 5012 C 461.623 -1.60585 -0.100675 0
M  V30 5013 O 462.815 -1.76667 0.10859 0
M  V30 5014 C 459.944 -3.39425 0.514342 0
M  V30 5015 C 459.03 -3.92993 1.59428 0
M  V30 5016 N 459.421 -4.19898 2.81991 0
M  V30 5017 C 457.719 -4.21297 1.46374 0
M  V30 5018 C 458.42 -4.63297 3.51754 0
M  V30 5019 N 457.396 -4.66421 2.79199 0
M  V30 5020 H 461.198 -2.26222 1.87619 0
M  V30 5021 H 458.712 -1.18339 1.11219 0
M  V30 5022 H 460.709 -4.15808 0.301527 0
M  V30 5023 H 459.369 -3.22101 -0.410008 0
M  V30 5024 H 460.38 -4.08377 3.1851 0
M  V30 5025 H 457.057 -4.13095 0.604863 0
M  V30 5026 H 458.447 -4.92816 4.56708 0
M  V30 5027 N 461.167 -1.02423 -1.1978 0
M  V30 5028 C 462.077 -0.610919 -2.26506 0
M  V30 5029 C 463.093 0.355152 -1.70337 0
M  V30 5030 O 464.269 0.214195 -2.00258 0
M  V30 5031 C 461.334 0.0365921 -3.46681 0
M  V30 5032 C 460.395 -0.976389 -4.18049 0
M  V30 5033 C 459.628 -0.359683 -5.32487 0
M  V30 5034 O 459.851 0.838601 -5.64202 0
M  V30 5035 O 458.785 -1.08022 -5.92127 0
M  V30 5036 H 462.611 -1.49965 -2.64091 0
M  V30 5037 H 460.196 -0.794156 -1.26545 0
M  V30 5038 H 462.078 0.39786 -4.19518 0
M  V30 5039 H 460.753 0.899398 -3.10954 0
M  V30 5040 H 459.66 -1.38916 -3.47352 0
M  V30 5041 H 460.993 -1.80941 -4.57735 0
M  V30 5042 N 462.645 1.35699 -0.801477 0
M  V30 5043 C 463.922 1.9324 -0.302937 0
M  V30 5044 C 464.302 1.73209 1.20672 0
M  V30 5045 O 463.65 1.09809 2.00385 0
M  V30 5046 C 463.86 3.41728 -0.708747 0
M  V30 5047 C 465.208 4.18868 -0.695328 0
M  V30 5048 O 466.232 3.5022 -0.649971 0
M  V30 5049 O 465.091 5.41342 -0.749081 0
M  V30 5050 H 462.185 0.82331 -0.0780367 0
M  V30 5051 H 464.731 1.44806 -0.884832 0
M  V30 5052 H 463.503 3.50015 -1.74944 0
M  V30 5053 H 463.126 3.97471 -0.101384 0
M  V30 5054 N 464.123 0.554532 1.47522 0
M  V30 5055 C 465.348 0.0322661 2.07375 0
M  V30 5056 C 465.773 -1.25079 1.40488 0
M  V30 5057 O 465.131 -1.74859 0.47896 0
M  V30 5058 C 465.179 -0.149397 3.6029 0
M  V30 5059 O 464.283 -1.21259 3.9417 0
M  V30 5060 H 463.624 0.0501228 0.662106 0
M  V30 5061 H 466.154 0.769452 1.8958 0
M  V30 5062 H 466.164 -0.364437 4.06369 0
M  V30 5063 H 464.839 0.787743 4.08372 0
M  V30 5064 H 463.416 -0.97825 3.5984 0
M  V30 5065 N 465.601 -1.54893 0.290851 0
M  V30 5066 C 466.534 -2.19289 -0.631489 0
M  V30 5067 C 467.512 -1.15893 -1.14051 0
M  V30 5068 O 468.696 -1.4449 -1.21058 0
M  V30 5069 C 465.823 -2.82866 -1.86291 0
M  V30 5070 C 464.869 -3.997 -1.48801 0
M  V30 5071 S 465.702 -5.32641 -0.552644 0
M  V30 5072 C 466.858 -5.99696 -1.79209 0
M  V30 5073 H 467.091 -2.9718 -0.0843791 0
M  V30 5074 H 464.624 -1.54218 0.075031 0
M  V30 5075 H 466.582 -3.20124 -2.56964 0
M  V30 5076 H 465.243 -2.04839 -2.38117 0
M  V30 5077 H 464.436 -4.42932 -2.40473 0
M  V30 5078 H 464.038 -3.63947 -0.861321 0
M  V30 5079 H 466.33 -6.19886 -2.734 0
M  V30 5080 H 467.273 -6.94071 -1.40251 0
M  V30 5081 H 467.681 -5.29226 -1.96419 0
M  V30 5082 N 467.08 -0.0183926 -1.57589 0
M  V30 5083 C 468.028 0.985111 -2.10709 0
M  V30 5084 C 469.022 1.34397 -1.0312 0
M  V30 5085 O 470.228 1.32746 -1.21567 0
M  V30 5086 H 466.603 0.335418 -0.673052 0
M  V30 5087 H 468.574 0.511689 -2.9398 0
M  V30 5088 C 467.323 2.26202 -2.64061 0
M  V30 5089 H 466.646 1.9946 -3.4649 0
M  V30 5090 H 468.086 2.94652 -3.04887 0
M  V30 5091 C 466.545 2.98444 -1.5631 0
M  V30 5092 O 467.075 3.90142 -0.956674 0
M  V30 5093 N 465.281 2.6059 -1.28612 0
M  V30 5094 H 464.828 1.86101 -1.78112 0
M  V30 5095 H 464.786 3.09238 -0.567406 0
M  V30 5096 N 468.558 1.5553 0.254621 0
M  V30 5097 C 469.488 1.9268 1.31897 0
M  V30 5098 C 470.469 0.790797 1.506 0
M  V30 5099 O 471.654 1.05045 1.63337 0
M  V30 5100 C 468.784 2.21477 2.67517 0
M  V30 5101 C 467.738 3.37256 2.63519 0
M  V30 5102 C 467.064 3.51576 4.02862 0
M  V30 5103 C 468.364 4.73157 2.21179 0
M  V30 5104 H 470.058 2.81832 1.01051 0
M  V30 5105 H 467.604 1.35599 0.484662 0
M  V30 5106 H 469.557 2.46055 3.42104 0
M  V30 5107 H 468.281 1.29144 2.99982 0
M  V30 5108 H 466.94 3.12675 1.9139 0
M  V30 5109 H 466.588 2.56676 4.32581 0
M  V30 5110 H 466.288 4.2943 4.01078 0
M  V30 5111 H 467.812 3.78467 4.79161 0
M  V30 5112 H 469.226 4.97158 2.85494 0
M  V30 5113 H 467.623 5.54058 2.30521 0
M  V30 5114 H 468.693 4.70739 1.16332 0
M  V30 5115 N 470.036 -0.519951 1.48776 0
M  V30 5116 C 470.966 -1.63253 1.66945 0
M  V30 5117 C 471.947 -1.62014 0.518224 0
M  V30 5118 O 473.132 -1.79053 0.751919 0
M  V30 5119 C 470.262 -3.0181 1.71836 0
M  V30 5120 C 469.216 -3.17911 2.8656 0
M  V30 5121 C 468.542 -4.5763 2.76548 0
M  V30 5122 C 469.842 -2.99729 4.27738 0
M  V30 5123 H 471.536 -1.48302 2.6009 0
M  V30 5124 H 469.082 -0.712026 1.25165 0
M  V30 5125 H 471.035 -3.79525 1.83135 0
M  V30 5126 H 469.759 -3.17806 0.752775 0
M  V30 5127 H 468.418 -2.42616 2.74833 0
M  V30 5128 H 468.066 -4.70476 1.77937 0
M  V30 5129 H 467.766 -4.69346 3.53536 0
M  V30 5130 H 469.29 -5.37431 2.89828 0
M  V30 5131 H 470.704 -3.67228 4.40246 0
M  V30 5132 H 469.101 -3.22932 5.05801 0
M  V30 5133 H 470.171 -1.96047 4.43502 0
M  V30 5134 N 471.514 -1.37532 -0.769588 0
M  V30 5135 C 472.739 -1.36231 -1.56384 0
M  V30 5136 C 473.164 0.0495849 -1.88035 0
M  V30 5137 O 472.522 1.02723 -1.49391 0
M  V30 5138 C 472.57 -2.20986 -2.84952 0
M  V30 5139 O 471.674 -1.61597 -3.79421 0
M  V30 5140 H 471.015 -0.465387 -0.473615 0
M  V30 5141 H 473.545 -1.81085 -0.952342 0
M  V30 5142 H 473.555 -2.34277 -3.34034 0
M  V30 5143 H 472.23 -3.23612 -2.61243 0
M  V30 5144 H 470.807 -1.57359 -3.38072 0
M  V30 5145 N 472.992 0.995999 -1.22138 0
M  V30 5146 C 473.922 2.10387 -1.01289 0
M  V30 5147 C 474.903 1.69975 0.0651454 0
M  V30 5148 O 476.088 1.9396 -0.0964628 0
M  V30 5149 C 473.218 3.42312 -0.586517 0
M  V30 5150 C 472.172 3.96558 -1.61014 0
M  V30 5151 C 471.498 5.24494 -1.0397 0
M  V30 5152 C 472.798 4.27595 -2.99933 0
M  V30 5153 H 474.492 2.28086 -1.93951 0
M  V30 5154 H 472.038 1.09607 -0.933928 0
M  V30 5155 H 473.991 4.19223 -0.427793 0
M  V30 5156 H 472.715 3.24431 0.375761 0
M  V30 5157 H 471.374 3.21776 -1.75658 0
M  V30 5158 H 471.022 5.02953 -0.0688703 0
M  V30 5159 H 470.722 5.61755 -1.72352 0
M  V30 5160 H 472.246 6.04042 -0.892494 0
M  V30 5161 H 473.66 4.95315 -2.8868 0
M  V30 5162 H 472.057 4.76021 -3.6541 0
M  V30 5163 H 473.127 3.35498 -3.50099 0
M  V30 5164 N 474.47 1.03057 1.19235 0
M  V30 5165 C 475.7 0.746613 1.92638 0
M  V30 5166 C 476.108 -0.698708 1.75826 0
M  V30 5167 O 475.451 -1.487 1.07861 0
M  V30 5168 C 475.513 1.02024 3.44719 0
M  V30 5169 C 475.177 2.45745 3.85303 0
M  V30 5170 C 476.174 3.43887 3.8992 0
M  V30 5171 C 473.859 2.8019 4.16892 0
M  V30 5172 C 475.853 4.74529 4.2556 0
M  V30 5173 C 473.54 4.1104 4.52205 0
M  V30 5174 C 474.538 5.0802 4.56513 0
M  V30 5175 O 474.226 6.36527 4.91008 0
M  V30 5176 H 473.958 0.272401 0.618687 0
M  V30 5177 H 476.512 1.37853 1.52269 0
M  V30 5178 H 474.742 0.331184 3.85279 0
M  V30 5179 H 476.431 0.725677 3.9936 0
M  V30 5180 H 477.197 3.18614 3.65664 0
M  V30 5181 H 473.076 2.05382 4.12722 0
M  V30 5182 H 476.62 5.50222 4.28838 0
M  V30 5183 H 472.517 4.36086 4.7592 0
M  V30 5184 H 473.285 6.41025 5.08949 0
M  V30 5185 N 475.948 -1.35272 0.808662 0
M  V30 5186 C 477.176 -2.02946 0.402537 0
M  V30 5187 C 477.591 -1.60937 -0.987147 0
M  V30 5188 O 476.948 -0.807917 -1.63643 0
M  V30 5189 C 476.999 -3.58317 0.47868 0
M  V30 5190 O 476.72 -3.98799 1.81358 0
M  V30 5191 C 478.221 -4.43251 0.0656281 0
M  V30 5192 H 475.441 -0.650831 0.163279 0
M  V30 5193 H 477.985 -1.72849 1.09286 0
M  V30 5194 H 476.14 -3.87055 -0.163415 0
M  V30 5195 H 476.554 -4.93451 1.77781 0
M  V30 5196 H 478.028 -5.51738 0.170017 0
M  V30 5197 H 478.505 -4.27913 -0.989278 0
M  V30 5198 H 479.111 -4.19813 0.68096 0
M  V30 5199 N 477.426 -0.562348 -1.47226 0
M  V30 5200 C 478.651 -0.0432632 -2.07355 0
M  V30 5201 C 479.076 1.24332 -1.41149 0
M  V30 5202 O 478.434 1.74603 -0.488226 0
M  V30 5203 C 478.482 0.130288 -3.60365 0
M  V30 5204 O 477.586 1.19166 -3.94808 0
M  V30 5205 H 476.927 -0.0536334 -0.66183 0
M  V30 5206 H 479.457 -0.779495 -1.89169 0
M  V30 5207 H 479.467 0.342881 -4.06557 0
M  V30 5208 H 478.142 -0.809389 -4.07948 0
M  V30 5209 H 476.719 0.959153 -3.60354 0
M  V30 5210 N 478.904 1.54736 -0.299062 0
M  V30 5211 C 480.315 1.8569 0.193971 0
M  V30 5212 C 480.666 1.22101 1.53577 0
M  V30 5213 O 479.791 0.51799 2.10109 0
M  V30 5214 C 480.386 3.36895 0.358733 0
M  V30 5215 C 478.945 3.67887 0.795986 0
M  V30 5216 C 478.092 2.77131 -0.096807 0
M  V30 5217 H 481.043 1.49934 -0.520134 0
M  V30 5218 H 481.064 3.61294 1.19361 0
M  V30 5219 H 480.576 3.83148 -0.617998 0
M  V30 5220 H 478.677 3.27151 1.78334 0
M  V30 5221 H 478.79 4.75114 0.616718 0
M  V30 5222 H 477.154 2.51153 0.423581 0
M  V30 5223 H 477.937 3.26204 -1.06986 0
M  V30 5224 N 480.382 0.0267497 1.57577 0
M  V30 5225 C 481.607 -0.666227 1.96408 0
M  V30 5226 C 482.032 -1.65004 0.903071 0
M  V30 5227 O 481.39 -1.80787 -0.136263 0
M  V30 5228 C 481.438 -1.35101 3.34335 0
M  V30 5229 O 480.542 -2.46623 3.30531 0
M  V30 5230 H 479.883 -0.175206 0.640468 0
M  V30 5231 H 482.413 0.0878977 2.04411 0
M  V30 5232 H 482.423 -1.70834 3.70513 0
M  V30 5233 H 481.098 -0.629844 4.11103 0
M  V30 5234 H 479.675 -2.13019 3.06068 0
M  V30 5235 N 481.861 -1.55662 -0.24637 0
M  V30 5236 C 482.791 -1.93377 -1.30873 0
M  V30 5237 C 483.772 -0.798773 -1.50179 0
M  V30 5238 O 484.957 -1.0591 -1.62778 0
M  V30 5239 C 482.087 -2.22893 -2.66338 0
M  V30 5240 C 481.041 -3.38649 -2.61727 0
M  V30 5241 C 480.367 -3.53708 -4.00992 0
M  V30 5242 C 481.667 -4.74323 -2.18666 0
M  V30 5243 H 483.361 -2.82363 -0.995552 0
M  V30 5244 H 480.907 -1.35854 -0.477464 0
M  V30 5245 H 482.86 -2.47866 -3.40794 0
M  V30 5246 H 481.584 -1.30733 -2.99293 0
M  V30 5247 H 480.243 -3.13685 -1.89729 0
M  V30 5248 H 479.891 -2.58967 -4.31214 0
M  V30 5249 H 479.591 -4.31551 -3.98795 0
M  V30 5250 H 481.115 -3.81003 -4.77147 0
M  V30 5251 H 482.529 -4.98665 -2.82854 0
M  V30 5252 H 480.926 -5.55273 -2.27579 0
M  V30 5253 H 481.996 -4.71349 -1.13834 0
M  V30 5254 N 483.339 0.512053 -1.4905 0
M  V30 5255 C 484.75 1.09376 -1.51307 0
M  V30 5256 C 485.101 1.94 -0.292971 0
M  V30 5257 O 484.226 2.07965 0.598277 0
M  V30 5258 C 484.821 1.99031 -2.74176 0
M  V30 5259 C 483.38 2.52385 -2.79247 0
M  V30 5260 C 482.527 1.29749 -2.45073 0
M  V30 5261 H 485.478 0.296467 -1.55906 0
M  V30 5262 H 485.499 2.83569 -2.53711 0
M  V30 5263 H 485.011 1.37412 -3.62959 0
M  V30 5264 H 483.112 3.17673 -1.94716 0
M  V30 5265 H 483.225 2.90293 -3.81139 0
M  V30 5266 H 481.589 1.61912 -1.96612 0
M  V30 5267 H 482.372 0.698555 -3.36118 0
M  V30 5268 N 484.817 1.37938 0.762283 0
M  V30 5269 C 485.765 1.34569 1.89721 0
M  V30 5270 C 486.759 0.232929 1.67791 0
M  V30 5271 O 487.965 0.401485 1.75465 0
M  V30 5272 H 484.34 0.419594 0.624055 0
M  V30 5273 H 486.311 2.30357 1.8968 0
M  V30 5274 C 485.06 1.17898 3.27101 0
M  V30 5275 H 484.383 2.02781 3.44558 0
M  V30 5276 H 485.823 1.19593 4.06784 0
M  V30 5277 C 484.282 -0.114728 3.36705 0
M  V30 5278 O 484.812 -1.0949 3.8649 0
M  V30 5279 N 483.018 -0.16863 2.9011 0
M  V30 5280 H 482.565 0.62967 2.49786 0
M  V30 5281 H 482.523 -1.03383 2.96916 0
M  V30 5282 N 486.295 -0.989507 1.22664 0
M  V30 5283 C 487.544 -1.72375 1.04737 0
M  V30 5284 C 487.857 -1.91096 -0.417316 0
M  V30 5285 O 489.063 -2.6188 -0.716334 0
M  V30 5286 C 487.519 -3.10161 1.82561 0
M  V30 5287 C 487.127 -2.99358 3.333 0
M  V30 5288 C 488.871 -3.87607 1.73093 0
M  V30 5289 C 486.778 -4.32319 4.03552 0
M  V30 5290 H 485.708 -0.646326 0.388302 0
M  V30 5291 H 488.359 -1.10437 1.46546 0
M  V30 5292 H 486.741 -3.728 1.33552 0
M  V30 5293 H 487.915 -2.45863 3.89728 0
M  V30 5294 H 486.23 -2.35392 3.43481 0
M  V30 5295 H 488.827 -4.86025 2.22899 0
M  V30 5296 H 489.17 -4.10509 0.691976 0
M  V30 5297 H 489.703 -3.31652 2.19663 0
M  V30 5298 H 486.442 -4.14616 5.07714 0
M  V30 5299 H 485.962 -4.85714 3.51911 0
M  V30 5300 H 487.641 -5.01051 4.09337 0
M  V30 5301 N 487.773 -1.03688 -1.18687 0
M  V30 5302 C 489.001 -0.757918 -1.92518 0
M  V30 5303 C 489.416 0.684398 -1.75959 0
M  V30 5304 O 488.773 1.46617 -1.08673 0
M  V30 5305 C 488.824 -1.10985 -3.44042 0
M  V30 5306 O 488.545 -2.49554 -3.60076 0
M  V30 5307 C 490.046 -0.854844 -4.3498 0
M  V30 5308 H 487.266 -0.276699 -0.611293 0
M  V30 5309 H 489.81 -1.38352 -1.50595 0
M  V30 5310 H 487.965 -0.529279 -3.83767 0
M  V30 5311 H 488.379 -2.6291 -4.53849 0
M  V30 5312 H 489.853 -1.15098 -5.39867 0
M  V30 5313 H 490.33 0.210507 -4.38695 0
M  V30 5314 H 490.936 -1.41853 -4.00946 0
M  V30 5315 N 489.251 1.34841 -0.815825 0
M  V30 5316 C 490.181 2.32187 -0.247298 0
M  V30 5317 C 491.162 1.5791 0.632344 0
M  V30 5318 O 492.347 1.8593 0.560698 0
M  V30 5319 C 489.477 3.42122 0.597466 0
M  V30 5320 C 488.431 4.27602 -0.184446 0
M  V30 5321 C 487.757 5.28942 0.782609 0
M  V30 5322 C 489.057 5.03502 -1.38865 0
M  V30 5323 H 490.751 2.79985 -1.06061 0
M  V30 5324 H 488.297 1.34611 -0.511461 0
M  V30 5325 H 490.25 4.09232 1.00533 0
M  V30 5326 H 488.974 2.92956 1.44376 0
M  V30 5327 H 487.633 3.62085 -0.573592 0
M  V30 5328 H 487.281 4.7604 1.62466 0
M  V30 5329 H 486.981 5.87008 0.263695 0
M  V30 5330 H 488.505 5.98922 1.18848 0
M  V30 5331 H 489.919 5.63506 -1.05518 0
M  V30 5332 H 488.316 5.71108 -1.8427 0
M  V30 5333 H 489.386 4.33608 -2.17054 0
M  V30 5334 N 490.729 0.570148 1.46925 0
M  V30 5335 C 491.977 0.0508523 2.02036 0
M  V30 5336 C 492.298 -1.30885 1.44548 0
M  V30 5337 O 491.568 -1.85647 0.625453 0
M  V30 5338 H 490.148 0.0158088 0.746833 0
M  V30 5339 H 492.81 0.743086 1.80178 0
M  V30 5340 H 491.906 -0.027575 3.12088 0
M  V30 5341 N 492.207 -1.54576 0.307264 0
M  V30 5342 C 493.137 -2.26708 -0.55907 0
M  V30 5343 C 494.118 -1.26893 -1.1328 0
M  V30 5344 O 495.303 -1.55677 -1.16097 0
M  V30 5345 C 492.433 -3.01259 -1.72801 0
M  V30 5346 C 491.387 -4.08275 -1.28435 0
M  V30 5347 C 490.713 -4.70575 -2.53895 0
M  V30 5348 C 492.013 -5.2068 -0.411038 0
M  V30 5349 H 493.707 -2.9937 0.042576 0
M  V30 5350 H 491.253 -1.43983 0.0219173 0
M  V30 5351 H 493.206 -3.50444 -2.34023 0
M  V30 5352 H 491.93 -2.26187 -2.356 0
M  V30 5353 H 490.589 -3.59949 -0.695161 0
M  V30 5354 H 490.237 -3.92136 -3.15021 0
M  V30 5355 H 489.937 -5.42854 -2.24908 0
M  V30 5356 H 491.461 -5.22527 -3.15908 0
M  V30 5357 H 492.875 -5.65721 -0.929097 0
M  V30 5358 H 491.272 -5.99716 -0.214664 0
M  V30 5359 H 492.342 -4.81629 0.562287 0
M  V30 5360 N 493.685 -0.035106 -1.57561 0
M  V30 5361 C 495.096 0.502885 -1.798 0
M  V30 5362 C 495.447 1.71892 -0.945921 0
M  V30 5363 O 494.572 2.15822 -0.157991 0
M  V30 5364 C 495.167 0.919097 -3.26095 0
M  V30 5365 C 493.726 1.40216 -3.49308 0
M  V30 5366 C 492.873 0.369709 -2.74824 0
M  V30 5367 H 495.824 -0.261102 -1.56537 0
M  V30 5368 H 495.845 1.78308 -3.36135 0
M  V30 5369 H 495.357 0.0338526 -3.88085 0
M  V30 5370 H 493.458 2.30714 -2.92578 0
M  V30 5371 H 493.571 1.40541 -4.58023 0
M  V30 5372 H 491.935 0.839113 -2.40481 0
M  V30 5373 H 492.718 -0.507173 -3.39533 0
M  V30 5374 N 495.163 1.55791 0.238111 0
M  V30 5375 C 496.126 1.90239 1.27835 0
M  V30 5376 C 497.126 0.779552 1.4064 0
M  V30 5377 O 498.316 1.04747 1.3919 0
M  V30 5378 C 495.448 2.13859 2.65475 0
M  V30 5379 H 496.641 2.83262 0.985034 0
M  V30 5380 H 494.194 1.48818 0.477799 0
M  V30 5381 H 494.929 1.23334 2.99932 0
M  V30 5382 H 494.714 2.95643 2.57561 0
M  V30 5383 H 496.204 2.41664 3.40571 0
M  V30 5384 N 496.642 -0.504142 1.49319 0
M  V30 5385 C 497.888 -1.26033 1.58882 0
M  V30 5386 C 498.221 -1.92268 0.273274 0
M  V30 5387 O 497.496 -1.80567 -0.72291 0
M  V30 5388 C 497.779 -2.32976 2.7458 0
M  V30 5389 C 497.632 -1.71263 4.1592 0
M  V30 5390 C 498.951 -3.34561 2.85932 0
M  V30 5391 H 496.07 -0.456863 0.578312 0
M  V30 5392 H 498.712 -0.558965 1.81592 0
M  V30 5393 H 496.862 -2.92796 2.55348 0
M  V30 5394 H 498.534 -1.15294 4.4666 0
M  V30 5395 H 496.777 -1.01686 4.21714 0
M  V30 5396 H 497.448 -2.48816 4.92742 0
M  V30 5397 H 499.924 -2.84727 3.0343 0
M  V30 5398 H 498.8 -4.06754 3.68568 0
M  V30 5399 H 499.061 -3.96695 1.95154 0
M  V30 5400 N 498.12 -1.38341 -0.754957 0
M  V30 5401 C 499.531 -1.30803 -1.3322 0
M  V30 5402 C 499.882 0.0368 -1.96165 0
M  V30 5403 O 499.007 0.938844 -1.94974 0
M  V30 5404 C 499.602 -2.3688 -2.42225 0
M  V30 5405 C 498.161 -2.32925 -2.95674 0
M  V30 5406 C 497.308 -2.19819 -1.69042 0
M  V30 5407 H 500.259 -1.48719 -0.553937 0
M  V30 5408 H 500.28 -2.02517 -3.22129 0
M  V30 5409 H 499.792 -3.34747 -1.96383 0
M  V30 5410 H 497.893 -1.38635 -3.45848 0
M  V30 5411 H 498.006 -3.27008 -3.50146 0
M  V30 5412 H 496.37 -1.66648 -1.92615 0
M  V30 5413 H 497.153 -3.19625 -1.25279 0
M  V30 5414 N 499.598 0.982988 -1.23187 0
M  V30 5415 C 500.823 1.76455 -1.08988 0
M  V30 5416 C 501.248 1.84726 0.354691 0
M  V30 5417 O 500.606 1.30699 1.25649 0
M  V30 5418 C 500.654 3.17094 -1.71708 0
M  V30 5419 O 499.758 4.00648 -0.977477 0
M  V30 5420 H 499.099 0.542988 -0.382177 0
M  V30 5421 H 501.629 1.23413 -1.63188 0
M  V30 5422 H 501.639 3.67684 -1.76841 0
M  V30 5423 H 500.314 3.10389 -2.76823 0
M  V30 5424 H 498.891 3.59161 -1.0029 0
M  V30 5425 N 501.076 1.04316 1.18135 0
M  V30 5426 C 502.008 0.594444 2.21357 0
M  V30 5427 C 503.021 -0.337215 1.59269 0
M  V30 5428 O 504.21 -0.131337 1.78016 0
M  V30 5429 C 501.31 -0.151251 3.38562 0
M  V30 5430 C 500.483 0.788907 4.30227 0
M  V30 5431 C 499.542 0.0860572 5.2613 0
M  V30 5432 O 498.568 0.717302 5.64662 0
M  V30 5433 N 499.77 -1.17969 5.68387 0
M  V30 5434 H 502.535 1.48227 2.60478 0
M  V30 5435 H 500.096 0.92396 1.32946 0
M  V30 5436 H 502.088 -0.631352 3.99745 0
M  V30 5437 H 500.658 -0.940639 2.98112 0
M  V30 5438 H 499.878 1.44882 3.6661 0
M  V30 5439 H 501.166 1.42738 4.88368 0
M  V30 5440 H 500.564 -1.71302 5.3914 0
M  V30 5441 H 499.121 -1.60402 6.31755 0
M  V30 5442 N 502.554 -1.34406 0.822964 0
M  V30 5443 C 503.484 -2.32052 0.259608 0
M  V30 5444 C 504.465 -1.58243 -0.623961 0
M  V30 5445 O 505.65 -1.86224 -0.55083 0
M  V30 5446 C 502.78 -3.42434 -0.579314 0
M  V30 5447 C 501.734 -4.27499 0.20712 0
M  V30 5448 C 501.06 -5.29349 -0.754547 0
M  V30 5449 C 502.36 -5.02758 1.41533 0
M  V30 5450 H 504.054 -2.79418 1.07545 0
M  V30 5451 H 501.6 -1.34338 0.518593 0
M  V30 5452 H 503.553 -4.0976 -0.983612 0
M  V30 5453 H 502.277 -2.93717 -1.4282 0
M  V30 5454 H 500.936 -3.61776 0.592787 0
M  V30 5455 H 500.584 -4.76895 -1.59939 0
M  V30 5456 H 500.284 -5.8714 -0.232561 0
M  V30 5457 H 501.808 -5.99544 -1.1567 0
M  V30 5458 H 503.222 -5.62938 1.08504 0
M  V30 5459 H 501.619 -5.70123 1.87296 0
M  V30 5460 H 502.689 -4.32451 2.1935 0
M  V30 5461 N 504.032 -0.577932 -1.46621 0
M  V30 5462 C 504.98 0.170882 -2.31971 0
M  V30 5463 C 505.974 0.889086 -1.44193 0
M  V30 5464 O 507.18 0.808017 -1.60845 0
M  V30 5465 H 503.555 0.0739763 -0.748353 0
M  V30 5466 H 505.526 -0.567856 -2.92947 0
M  V30 5467 C 504.275 1.17438 -3.27267 0
M  V30 5468 H 503.598 0.63116 -3.94787 0
M  V30 5469 H 505.038 1.66882 -3.89778 0
M  V30 5470 C 503.497 2.23292 -2.52274 0
M  V30 5471 O 504.027 3.30567 -2.28229 0
M  V30 5472 N 502.233 1.97772 -2.12919 0
M  V30 5473 H 501.78 1.10545 -2.32675 0
M  V30 5474 H 501.738 2.68809 -1.63062 0
M  V30 5475 N 505.51 1.54411 -0.315457 0
M  V30 5476 C 506.473 2.22713 0.54142 0
M  V30 5477 C 507.473 1.2179 1.04995 0
M  V30 5478 O 508.663 1.46426 0.943667 0
M  V30 5479 C 505.795 2.92485 1.75116 0
M  V30 5480 H 506.988 2.99849 -0.0555508 0
M  V30 5481 H 504.541 1.56159 -0.0664453 0
M  V30 5482 H 505.276 2.19466 2.38758 0
M  V30 5483 H 505.061 3.66483 1.39401 0
M  V30 5484 H 506.551 3.44548 2.35959 0
M  V30 5485 N 506.988 0.0434614 1.5754 0
M  V30 5486 C 508.213 -0.645358 1.97104 0
M  V30 5487 C 508.638 -1.64037 0.920521 0
M  V30 5488 O 507.996 -1.80922 -0.11708 0
M  V30 5489 C 508.044 -1.31547 3.35749 0
M  V30 5490 O 507.148 -2.43103 3.33129 0
M  V30 5491 H 506.489 -0.168403 0.64229 0
M  V30 5492 H 509.019 0.109573 2.04306 0
M  V30 5493 H 509.029 -1.66895 3.72304 0
M  V30 5494 H 507.704 -0.586205 4.11748 0
M  V30 5495 H 506.281 -2.0976 3.0831 0
M  V30 5496 N 508.466 -1.55915 -0.229846 0
M  V30 5497 C 509.414 -1.9258 -1.30444 0
M  V30 5498 C 510.408 -0.806839 -1.48951 0
M  V30 5499 O 511.614 -0.991606 -1.50224 0
M  V30 5500 H 507.989 -0.611878 -0.437161 0
M  V30 5501 H 509.96 -2.82264 -0.96797 0
M  V30 5502 C 508.709 -2.25171 -2.6494 0
M  V30 5503 H 508.032 -3.10782 -2.51504 0
M  V30 5504 H 509.472 -2.54716 -3.38963 0
M  V30 5505 C 507.931 -1.07394 -3.19324 0
M  V30 5506 O 508.461 -0.330759 -4.00336 0
M  V30 5507 N 506.667 -0.859984 -2.77584 0
M  V30 5508 H 506.214 -1.46605 -2.11813 0
M  V30 5509 H 506.172 -0.0736671 -3.14314 0
M  V30 5510 N 509.944 0.496216 -1.49584 0
M  V30 5511 C 511.169 1.27865 -1.63295 0
M  V30 5512 C 511.594 1.85592 -0.306156 0
M  V30 5513 O 510.952 1.66092 0.726851 0
M  V30 5514 C 511 2.38128 -2.7079 0
M  V30 5515 O 510.104 3.42108 -2.30296 0
M  V30 5516 H 509.445 0.377279 -0.546403 0
M  V30 5517 H 511.975 0.593497 -1.95803 0
M  V30 5518 H 511.985 2.8382 -2.93104 0
M  V30 5519 H 510.66 1.95479 -3.67098 0
M  V30 5520 H 509.237 3.02301 -2.18331 0
M  V30 5521 N 511.423 1.38739 0.74761 0
M  V30 5522 C 512.353 1.39173 1.87492 0
M  V30 5523 C 513.334 0.256794 1.6815 0
M  V30 5524 O 514.519 0.460762 1.88655 0
M  V30 5525 C 511.649 1.22197 3.25093 0
M  V30 5526 C 510.603 2.32957 3.59047 0
M  V30 5527 C 509.929 2.01082 4.95449 0
M  V30 5528 C 511.229 3.75237 3.6331 0
M  V30 5529 H 512.923 2.3351 1.87386 0
M  V30 5530 H 510.469 1.12399 0.900134 0
M  V30 5531 H 512.422 1.21124 4.03617 0
M  V30 5532 H 511.146 0.243241 3.25693 0
M  V30 5533 H 509.805 2.33226 2.82845 0
M  V30 5534 H 509.453 1.01678 4.92616 0
M  V30 5535 H 509.153 2.75267 5.19136 0
M  V30 5536 H 510.677 2.01638 5.76346 0
M  V30 5537 H 512.091 3.76966 4.31937 0
M  V30 5538 H 510.488 4.48677 3.98509 0
M  V30 5539 H 511.558 4.07122 2.634 0
M  V30 5540 N 512.901 -0.976442 1.23707 0
M  V30 5541 C 513.848 -2.06952 1.02174 0
M  V30 5542 C 514.818 -1.65984 -0.0621034 0
M  V30 5543 O 516.003 -1.90584 0.0907906 0
M  V30 5544 C 513.143 -3.39425 0.62327 0
M  V30 5545 C 512.256 -3.9364 1.77966 0
M  V30 5546 C 511.391 -5.14343 1.3276 0
M  V30 5547 C 510.43 -5.60733 2.45449 0
M  V30 5548 N 509.567 -6.72662 2.01172 0
M  V30 5549 H 514.407 -2.24704 1.95734 0
M  V30 5550 H 511.944 -1.10143 0.975034 0
M  V30 5551 H 513.902 -4.15526 0.37332 0
M  V30 5552 H 512.532 -3.21624 -0.275329 0
M  V30 5553 H 511.584 -3.14258 2.14351 0
M  V30 5554 H 512.896 -4.24035 2.62671 0
M  V30 5555 H 512.05 -5.97789 1.03601 0
M  V30 5556 H 510.789 -4.8561 0.450975 0
M  V30 5557 H 509.794 -4.75865 2.75378 0
M  V30 5558 H 511.019 -5.91483 3.33654 0
M  V30 5559 H 508.965 -6.45681 1.15895 0
M  V30 5560 H 508.882 -7.02462 2.79434 0
M  V30 5561 H 510.15 -7.59572 1.75129 0
M  V30 5562 N 514.379 -1.04941 -1.1758 0
M  V30 5563 C 515.289 -0.658826 -2.25159 0
M  V30 5564 C 516.305 0.318941 -1.71052 0
M  V30 5565 O 517.481 0.171669 -2.00667 0
M  V30 5566 C 514.546 -0.0369522 -3.4668 0
M  V30 5567 C 513.607 -1.06484 -4.15884 0
M  V30 5568 C 512.84 -0.472551 -5.31604 0
M  V30 5569 O 513.063 0.718736 -5.65854 0
M  V30 5570 O 511.997 -1.20557 -5.89703 0
M  V30 5571 H 515.823 -1.55533 -2.60851 0
M  V30 5572 H 513.408 -0.820819 -1.24832 0
M  V30 5573 H 515.29 0.308784 -4.20267 0
M  V30 5574 H 513.965 0.833238 -3.12792 0
M  V30 5575 H 512.872 -1.46253 -3.44327 0
M  V30 5576 H 514.205 -1.9061 -4.53794 0
M  V30 5577 N 515.857 1.33968 -0.830081 0
M  V30 5578 C 516.804 2.29387 -0.255008 0
M  V30 5579 C 517.774 1.53923 0.624243 0
M  V30 5580 O 518.959 1.82262 0.564372 0
M  V30 5581 C 516.099 3.4034 0.571209 0
M  V30 5582 C 515.212 4.30729 -0.331083 0
M  V30 5583 C 514.347 5.2879 0.505389 0
M  V30 5584 C 513.386 6.10819 -0.395843 0
M  V30 5585 N 512.523 7.00948 0.401979 0
M  V30 5586 H 517.363 2.77972 -1.07404 0
M  V30 5587 H 514.9 1.36785 -0.541133 0
M  V30 5588 H 516.858 4.03361 1.06562 0
M  V30 5589 H 515.488 2.9297 1.35529 0
M  V30 5590 H 514.54 3.68507 -0.943759 0
M  V30 5591 H 515.852 4.88181 -1.02377 0
M  V30 5592 H 515.006 5.97297 1.06399 0
M  V30 5593 H 513.745 4.71894 1.23155 0
M  V30 5594 H 512.75 5.41238 -0.966529 0
M  V30 5595 H 513.975 6.69797 -1.12023 0
M  V30 5596 H 511.921 6.46512 1.11168 0
M  V30 5597 H 511.838 7.55643 -0.232167 0
M  V30 5598 H 513.106 7.73774 0.943102 0
M  V30 5599 N 517.335 0.585699 1.46312 0
M  V30 5600 C 518.267 -0.183687 2.28463 0
M  V30 5601 C 519.28 -0.85264 1.38686 0
M  V30 5602 O 520.469 -0.721701 1.6326 0
M  V30 5603 C 517.569 -1.27977 3.13808 0
M  V30 5604 C 516.742 -0.702164 4.31727 0
M  V30 5605 C 515.801 -1.68633 4.98447 0
M  V30 5606 O 514.827 -1.22121 5.55945 0
M  V30 5607 N 516.029 -3.02047 4.95729 0
M  V30 5608 H 518.794 0.521127 2.95134 0
M  V30 5609 H 516.355 0.423673 1.56258 0
M  V30 5610 H 518.347 -1.9375 3.55307 0
M  V30 5611 H 516.917 -1.8874 2.4919 0
M  V30 5612 H 516.137 0.1331 3.93975 0
M  V30 5613 H 517.425 -0.296101 5.07938 0
M  V30 5614 H 516.823 -3.42457 4.50266 0
M  V30 5615 H 515.38 -3.63301 5.41161 0
M  V30 5616 N 518.813 -1.54241 0.323641 0
M  V30 5617 C 519.76 -2.24339 -0.542277 0
M  V30 5618 C 520.73 -1.23421 -1.11159 0
M  V30 5619 O 521.915 -1.52104 -1.15192 0
M  V30 5620 C 519.055 -3.00479 -1.69725 0
M  V30 5621 C 518.168 -4.16214 -1.15716 0
M  V30 5622 C 517.303 -4.79884 -2.27783 0
M  V30 5623 C 516.342 -5.87722 -1.71023 0
M  V30 5624 N 515.479 -6.45254 -2.76752 0
M  V30 5625 H 520.319 -2.97935 0.0620613 0
M  V30 5626 H 517.856 -1.47039 0.0423993 0
M  V30 5627 H 519.814 -3.42869 -2.3769 0
M  V30 5628 H 518.444 -2.29217 -2.27288 0
M  V30 5629 H 517.496 -3.78605 -0.369063 0
M  V30 5630 H 518.808 -4.93838 -0.701832 0
M  V30 5631 H 517.962 -5.25243 -3.03651 0
M  V30 5632 H 516.701 -4.01641 -2.76652 0
M  V30 5633 H 515.706 -5.41765 -0.936518 0
M  V30 5634 H 516.931 -6.67863 -1.2303 0
M  V30 5635 H 514.877 -5.69884 -3.24912 0
M  V30 5636 H 514.794 -7.18292 -2.35782 0
M  V30 5637 H 516.062 -6.95269 -3.5245 0
M  V30 5638 N 520.291 -0.0518155 -1.57515 0
M  V30 5639 C 521.531 0.625712 -1.94587 0
M  V30 5640 C 521.895 1.6797 -0.930053 0
M  V30 5641 O 523.096 2.41135 -1.18774 0
M  V30 5642 C 521.367 1.20574 -3.36447 0
M  V30 5643 S 522.926 1.90118 -3.95475 0
M  V30 5644 H 519.744 0.205434 -0.680675 0
M  V30 5645 H 522.346 -0.120906 -1.95126 0
M  V30 5646 H 521.05 0.426521 -4.08178 0
M  V30 5647 H 520.581 1.98916 -3.39405 0
M  V30 5648 H 522.596 3.18184 -3.80753 0
M  V30 5649 N 521.769 1.56035 0.221574 0
M  V30 5650 C 522.679 1.95581 1.29558 0
M  V30 5651 C 523.695 0.859639 1.51282 0
M  V30 5652 O 524.871 1.16321 1.64413 0
M  V30 5653 C 521.936 2.26447 2.62531 0
M  V30 5654 C 520.997 3.49632 2.4911 0
M  V30 5655 C 520.23 3.79017 3.75742 0
M  V30 5656 O 520.453 3.10077 4.78757 0
M  V30 5657 O 519.387 4.72507 3.72855 0
M  V30 5658 H 523.213 2.8711 0.990035 0
M  V30 5659 H 520.798 1.43244 0.424434 0
M  V30 5660 H 522.68 2.47494 3.41064 0
M  V30 5661 H 521.355 1.38092 2.92766 0
M  V30 5662 H 520.262 3.33864 1.68777 0
M  V30 5663 H 521.595 4.3837 2.23814 0
M  V30 5664 N 523.247 -0.488276 1.49845 0
M  V30 5665 C 524.475 -1.26527 1.63702 0
M  V30 5666 C 524.89 -1.8618 0.313447 0
M  V30 5667 O 524.247 -1.68432 -0.702624 0
M  V30 5668 C 524.298 -2.3864 2.71538 0
M  V30 5669 O 524.019 -1.81437 3.98763 0
M  V30 5670 C 525.52 -3.29805 2.96215 0
M  V30 5671 H 522.74 -0.383295 0.55075 0
M  V30 5672 H 525.284 -0.584779 1.95961 0
M  V30 5673 H 523.439 -3.02496 2.42023 0
M  V30 5674 H 523.853 -2.55135 4.58265 0
M  V30 5675 H 525.327 -4.04722 3.75372 0
M  V30 5676 H 525.804 -3.87563 2.06619 0
M  V30 5677 H 526.41 -2.71703 3.27196 0
M  V30 5678 N 524.725 -1.39134 -0.740242 0
M  V30 5679 C 525.657 -1.33332 -1.86428 0
M  V30 5680 C 526.67 -0.243042 -1.60976 0
M  V30 5681 O 527.859 -0.501608 -1.71307 0
M  V30 5682 C 524.959 -1.04626 -3.22346 0
M  V30 5683 C 524.132 -2.24826 -3.75196 0
M  V30 5684 C 523.191 -1.92659 -4.89662 0
M  V30 5685 O 522.217 -2.6529 -5.03597 0
M  V30 5686 N 523.419 -0.889575 -5.73643 0
M  V30 5687 H 526.184 -2.30196 -1.91911 0
M  V30 5688 H 523.745 -1.33168 -0.920756 0
M  V30 5689 H 525.737 -0.811347 -3.96484 0
M  V30 5690 H 524.307 -0.165129 -3.12164 0
M  V30 5691 H 523.527 -2.64301 -2.9247 0
M  V30 5692 H 524.815 -3.05015 -4.07239 0
M  V30 5693 H 524.213 -0.287529 -5.64969 0
M  V30 5694 H 522.77 -0.714557 -6.47871 0
M  V30 5695 N 526.204 0.969867 -1.24223 0
M  V30 5696 C 527.432 1.74756 -1.10761 0
M  V30 5697 C 527.847 1.85713 0.340041 0
M  V30 5698 O 527.204 1.34389 1.23474 0
M  V30 5699 C 527.255 3.16915 -1.73917 0
M  V30 5700 O 526.976 3.06511 -3.13021 0
M  V30 5701 C 528.477 4.11032 -1.66036 0
M  V30 5702 H 525.697 0.548092 -0.387087 0
M  V30 5703 H 528.241 1.2178 -1.64286 0
M  V30 5704 H 526.396 3.66884 -1.244 0
M  V30 5705 H 526.81 3.96079 -3.43834 0
M  V30 5706 H 528.284 5.08446 -2.14911 0
M  V30 5707 H 528.761 4.34785 -0.621159 0
M  V30 5708 H 529.367 3.66972 -2.14969 0
M  V30 5709 N 527.682 1.05563 1.17022 0
M  V30 5710 C 528.612 0.681026 2.23348 0
M  V30 5711 C 529.593 -0.322983 1.67005 0
M  V30 5712 O 530.778 -0.199746 1.9317 0
M  V30 5713 C 527.908 0.0589053 3.4725 0
M  V30 5714 C 526.862 0.988082 4.16438 0
M  V30 5715 C 526.188 0.229646 5.34207 0
M  V30 5716 C 527.488 2.31388 4.68249 0
M  V30 5717 H 529.182 1.56993 2.54938 0
M  V30 5718 H 526.728 0.756302 1.2254 0
M  V30 5719 H 528.681 -0.214982 4.20851 0
M  V30 5720 H 527.405 -0.864968 3.14938 0
M  V30 5721 H 526.064 1.24659 3.44754 0
M  V30 5722 H 525.712 -0.697111 4.98146 0
M  V30 5723 H 525.412 0.848815 5.81437 0
M  V30 5724 H 526.936 -0.0368694 6.10589 0
M  V30 5725 H 528.35 2.09964 5.33468 0
M  V30 5726 H 526.747 2.88736 5.26072 0
M  V30 5727 H 527.817 2.94982 3.84855 0
M  V30 5728 N 529.16 -1.33526 0.837174 0
M  V30 5729 C 530.576 -1.50727 0.524743 0
M  V30 5730 C 530.776 -1.77792 -0.948279 0
M  V30 5731 O 529.832 -1.83719 -1.73216 0
M  V30 5732 C 531.145 -2.66299 1.39661 0
M  V30 5733 C 532.693 -2.80183 1.39521 0
M  V30 5734 C 533.168 -3.98815 2.25189 0
M  V30 5735 N 534.659 -4.06047 2.2289 0
M  V30 5736 C 535.394 -4.97032 2.85915 0
M  V30 5737 N 534.89 -5.93143 3.57985 0
M  V30 5738 N 536.683 -4.90015 2.75394 0
M  V30 5739 H 528.834 -1.1422 1.79074 0
M  V30 5740 H 531.097 -0.561399 0.763894 0
M  V30 5741 H 530.803 -2.52974 2.4433 0
M  V30 5742 H 530.677 -3.61663 1.07145 0
M  V30 5743 H 533.064 -2.92942 0.356253 0
M  V30 5744 H 533.145 -1.85586 1.76044 0
M  V30 5745 H 532.789 -3.86817 3.29143 0
M  V30 5746 H 532.719 -4.92654 1.86009 0
M  V30 5747 H 535.21 -3.37262 1.70478 0
M  V30 5748 H 535.523 -6.59227 4.03286 0
M  V30 5749 H 533.868 -5.93223 3.62093 0
M  V30 5750 H 537.059 -4.13894 2.18654 0
M  V30 5751 H 537.232 -5.60724 3.24796 0
M  V30 5752 N 530.638 -0.59345 -1.46 0
M  V30 5753 C 531.57 0.171569 -2.28557 0
M  V30 5754 C 532.583 0.845273 -1.39137 0
M  V30 5755 O 533.772 0.713033 -1.6364 0
M  V30 5756 C 530.872 1.26311 -3.14482 0
M  V30 5757 C 530.045 0.679258 -4.32094 0
M  V30 5758 C 529.104 1.65987 -4.99334 0
M  V30 5759 O 528.13 1.19171 -5.56585 0
M  V30 5760 N 529.332 2.99414 -4.97324 0
M  V30 5761 H 532.097 -0.536771 -2.94854 0
M  V30 5762 H 529.658 -0.431954 -1.56031 0
M  V30 5763 H 531.65 1.91863 -3.5633 0
M  V30 5764 H 530.22 1.87416 -2.50188 0
M  V30 5765 H 529.44 -0.153992 -3.93899 0
M  V30 5766 H 530.728 0.26916 -5.08088 0
M  V30 5767 H 530.126 3.40064 -4.52076 0
M  V30 5768 H 528.683 3.60426 -5.4308 0
M  V30 5769 N 532.116 1.54067 -0.331816 0
M  V30 5770 C 533.364 2.00319 0.267739 0
M  V30 5771 C 533.685 1.22148 1.52003 0
M  V30 5772 O 532.955 0.325494 1.93177 0
M  V30 5773 H 531.535 0.740014 0.101922 0
M  V30 5774 H 534.197 1.89628 -0.450267 0
M  V30 5775 H 533.293 3.07765 0.518385 0
M  V30 5776 N 533.594 0.0601682 1.57485 0
M  V30 5777 C 534.84 -0.612501 1.93329 0
M  V30 5778 C 535.173 -1.6996 0.939526 0
M  V30 5779 O 534.448 -1.94472 -0.0330957 0
M  V30 5780 C 534.731 -1.20025 3.39508 0
M  V30 5781 C 534.584 -0.12059 4.49638 0
M  V30 5782 C 535.903 -2.10923 3.86264 0
M  V30 5783 H 533.022 -0.221185 0.703027 0
M  V30 5784 H 535.664 0.123768 1.89596 0
M  V30 5785 H 533.814 -1.82774 3.42821 0
M  V30 5786 H 535.486 0.51185 4.58452 0
M  V30 5787 H 533.729 0.550251 4.30296 0
M  V30 5788 H 534.4 -0.572019 5.49028 0
M  V30 5789 H 536.876 -1.58124 3.84884 0
M  V30 5790 H 535.752 -2.48987 4.8918 0
M  V30 5791 H 536.013 -3.01292 3.23536 0
M  V30 5792 N 535.072 -1.5615 -0.213296 0
M  V30 5793 C 536.483 -1.69645 -0.779582 0
M  V30 5794 C 536.834 -0.663615 -1.84636 0
M  V30 5795 O 535.959 0.183633 -2.15619 0
M  V30 5796 C 536.554 -3.07567 -1.42084 0
M  V30 5797 C 535.113 -3.22889 -1.93442 0
M  V30 5798 C 534.26 -2.65581 -0.797612 0
M  V30 5799 H 537.211 -1.58696 0.0114951 0
M  V30 5800 H 537.232 -3.03884 -2.28986 0
M  V30 5801 H 536.744 -3.82716 -0.644187 0
M  V30 5802 H 534.845 -2.52623 -2.73884 0
M  V30 5803 H 534.958 -4.30197 -2.10872 0
M  V30 5804 H 533.322 -2.24278 -1.20712 0
M  V30 5805 H 534.105 -3.43284 -0.033494 0
M  V30 5806 N 536.55 0.480323 -1.50102 0
M  V30 5807 C 537.48 1.58769 -1.71215 0
M  V30 5808 C 538.461 1.60583 -0.560997 0
M  V30 5809 O 539.646 1.76996 -0.799127 0
M  V30 5810 C 536.776 2.97148 -1.79778 0
M  V30 5811 C 535.73 3.10201 -2.94888 0
M  V30 5812 C 535.056 4.50137 -2.88584 0
M  V30 5813 C 536.356 2.88283 -4.35534 0
M  V30 5814 H 538.05 1.41354 -2.6393 0
M  V30 5815 H 535.596 0.678591 -1.27008 0
M  V30 5816 H 537.549 3.74536 -1.93133 0
M  V30 5817 H 536.273 3.15699 -0.836772 0
M  V30 5818 H 534.932 2.35244 -2.81169 0
M  V30 5819 H 534.58 4.65593 -1.90349 0
M  V30 5820 H 534.28 4.59808 -3.65856 0
M  V30 5821 H 535.804 5.29558 -3.03976 0
M  V30 5822 H 537.218 3.55427 -4.49827 0
M  V30 5823 H 535.615 3.09408 -5.14186 0
M  V30 5824 H 536.685 1.84219 -4.48544 0
M  V30 5825 N 538.028 1.39524 0.732853 0
M  V30 5826 C 539.439 1.32905 1.31122 0
M  V30 5827 C 539.79 -0.00558708 1.96199 0
M  V30 5828 O 538.915 -0.907706 1.96443 0
M  V30 5829 C 539.51 2.40704 2.38426 0
M  V30 5830 C 538.069 2.37599 2.91931 0
M  V30 5831 C 537.216 2.2248 1.65523 0
M  V30 5832 H 540.167 1.49581 0.530207 0
M  V30 5833 H 540.188 2.07616 3.18867 0
M  V30 5834 H 539.7 3.37829 1.91033 0
M  V30 5835 H 537.801 1.44119 3.43599 0
M  V30 5836 H 537.914 3.32538 3.44899 0
M  V30 5837 H 536.278 1.69691 1.8994 0
M  V30 5838 H 537.061 3.21577 1.20178 0
M  V30 5839 N 539.506 -0.963266 1.24736 0
M  V30 5840 C 540.754 -1.70343 1.08755 0
M  V30 5841 C 541.075 -1.91387 -0.373619 0
M  V30 5842 O 540.345 -1.4948 -1.2662 0
M  V30 5843 H 538.925 -0.631224 0.399456 0
M  V30 5844 H 541.587 -1.15859 1.56725 0
M  V30 5845 H 540.683 -2.68616 1.58909 0
M  V30 5846 N 540.985 -1.06182 -1.16461 0
M  V30 5847 C 541.917 -0.629584 -2.20383 0
M  V30 5848 C 542.93 0.311834 -1.59786 0
M  V30 5849 O 544.119 0.103 -1.78203 0
M  V30 5850 C 541.219 0.0973695 -3.3876 0
M  V30 5851 C 540.392 -0.857252 -4.28917 0
M  V30 5852 C 539.451 -0.169749 -5.25926 0
M  V30 5853 O 538.477 -0.807044 -5.6345 0
M  V30 5854 N 539.679 1.08911 -5.70192 0
M  V30 5855 H 542.444 -1.52352 -2.58087 0
M  V30 5856 H 540.005 -0.944993 -1.31459 0
M  V30 5857 H 541.997 0.567676 -4.00699 0
M  V30 5858 H 540.567 0.893093 -2.99571 0
M  V30 5859 H 539.787 -1.50696 -3.64259 0
M  V30 5860 H 541.075 -1.50489 -4.86035 0
M  V30 5861 H 540.473 1.62703 -5.41797 0
M  V30 5862 H 539.03 1.50331 -6.34227 0
M  V30 5863 N 542.463 1.3308 -0.844243 0
M  V30 5864 C 543.693 2.01515 -0.455541 0
M  V30 5865 C 544.101 1.63655 0.949406 0
M  V30 5866 O 543.444 0.84848 1.62931 0
M  V30 5867 C 543.506 3.55967 -0.502801 0
M  V30 5868 C 543.17 4.17222 -1.86481 0
M  V30 5869 C 544.167 4.36205 -2.8288 0
M  V30 5870 C 541.852 4.53528 -2.15911 0
M  V30 5871 C 543.846 4.90649 -4.06869 0
M  V30 5872 C 541.533 5.07679 -3.40155 0
M  V30 5873 C 542.531 5.26186 -4.35451 0
M  V30 5874 O 542.219 5.79183 -5.57496 0
M  V30 5875 H 541.951 0.65199 -0.178565 0
M  V30 5876 H 544.505 1.70867 -1.1399 0
M  V30 5877 H 542.735 3.85965 0.23836 0
M  V30 5878 H 544.424 4.05688 -0.131169 0
M  V30 5879 H 545.19 4.085 -2.61444 0
M  V30 5880 H 541.069 4.38414 -1.42528 0
M  V30 5881 H 544.613 5.0501 -4.81259 0
M  V30 5882 H 540.51 5.34815 -3.61446 0
M  V30 5883 H 541.278 5.97591 -5.5931 0
M  V30 5884 N 543.941 0.601185 1.45683 0
M  V30 5885 C 545.189 0.0936957 2.01883 0
M  V30 5886 C 545.51 -1.2779 1.47291 0
M  V30 5887 O 544.78 -1.84279 0.664691 0
M  V30 5888 H 543.36 0.0316466 0.746329 0
M  V30 5889 H 546.022 0.781137 1.78562 0
M  V30 5890 H 545.118 0.0386297 3.12076 0
M  V30 5891 N 545.419 -1.53889 0.339982 0
M  V30 5892 C 546.667 -2.00458 -0.257112 0
M  V30 5893 C 546.988 -1.22953 -1.51353 0
M  V30 5894 O 546.258 -0.335734 -1.93002 0
M  V30 5895 H 544.838 -0.740544 -0.0979965 0
M  V30 5896 H 547.5 -1.89386 0.460317 0
M  V30 5897 H 546.596 -3.08035 -0.502057 0
M  V30 5898 N 546.897 -0.0685191 -1.57451 0
M  V30 5899 C 548.122 0.613919 -1.98106 0
M  V30 5900 C 548.547 1.62551 -0.946501 0
M  V30 5901 O 547.905 1.81085 0.0882824 0
M  V30 5902 C 547.953 1.26189 -3.378 0
M  V30 5903 O 547.057 2.37773 -3.36954 0
M  V30 5904 H 546.398 0.158163 -0.644888 0
M  V30 5905 H 548.928 -0.142063 -2.04106 0
M  V30 5906 H 548.938 1.60951 -3.74912 0
M  V30 5907 H 547.613 0.520625 -4.12629 0
M  V30 5908 H 546.19 2.04829 -3.11608 0
M  V30 5909 N 548.375 1.56261 0.205012 0
M  V30 5910 C 549.624 1.79236 0.925058 0
M  V30 5911 C 549.937 0.640011 1.84833 0
M  V30 5912 O 551.143 0.753809 2.60826 0
M  V30 5913 C 549.599 3.17475 1.69522 0
M  V30 5914 C 549.207 4.40482 0.817269 0
M  V30 5915 C 550.951 3.49766 2.4055 0
M  V30 5916 C 548.858 5.69744 1.58573 0
M  V30 5917 H 547.788 0.668287 0.349153 0
M  V30 5918 H 550.439 1.82629 0.178544 0
M  V30 5919 H 548.821 3.08304 2.48526 0
M  V30 5920 H 549.995 4.60752 0.0665988 0
M  V30 5921 H 548.31 4.15827 0.218316 0
M  V30 5922 H 550.907 4.43573 2.98575 0
M  V30 5923 H 551.25 2.73041 3.14252 0
M  V30 5924 H 551.783 3.60341 1.68522 0
M  V30 5925 H 548.522 6.49407 0.891679 0
M  V30 5926 H 548.042 5.53509 2.31059 0
M  V30 5927 H 549.721 6.1051 2.14212 0
M  V30 5928 N 549.853 -0.472356 1.50355 0
M  V30 5929 C 551.264 -1.05326 1.54154 0
M  V30 5930 C 551.615 -1.93155 0.344303 0
M  V30 5931 O 550.74 -2.09479 -0.542928 0
M  V30 5932 C 551.335 -1.91691 2.79356 0
M  V30 5933 C 549.894 -2.44892 2.8584 0
M  V30 5934 C 549.041 -1.23205 2.48426 0
M  V30 5935 H 551.992 -0.255027 1.56637 0
M  V30 5936 H 552.013 -2.76742 2.6114 0
M  V30 5937 H 551.525 -1.27741 3.66475 0
M  V30 5938 H 549.626 -3.12399 2.0307 0
M  V30 5939 H 549.739 -2.80086 3.88701 0
M  V30 5940 H 548.103 -1.56643 2.00836 0
M  V30 5941 H 548.886 -0.609194 3.37852 0
M  V30 5942 N 551.331 -1.39911 -0.725443 0
M  V30 5943 C 552.294 -1.39156 -1.82121 0
M  V30 5944 C 553.294 -0.287018 -1.58218 0
M  V30 5945 O 554.484 -0.545421 -1.65441 0
M  V30 5946 C 551.616 -1.1736 -3.20062 0
M  V30 5947 H 552.809 -2.36672 -1.84191 0
M  V30 5948 H 550.362 -1.25615 -0.930079 0
M  V30 5949 H 551.097 -0.205648 -3.23647 0
M  V30 5950 H 550.882 -1.97358 -3.3881 0
M  V30 5951 H 552.372 -1.19596 -4.00108 0
M  V30 5952 N 552.809 0.956637 -1.25245 0
M  V30 5953 C 554.034 1.74104 -1.12706 0
M  V30 5954 C 554.459 1.85436 0.315429 0
M  V30 5955 O 553.817 1.33334 1.22848 0
M  V30 5956 C 553.865 3.1338 -1.78396 0
M  V30 5957 O 552.969 3.98485 -1.06224 0
M  V30 5958 H 552.31 0.53476 -0.393609 0
M  V30 5959 H 554.84 1.19924 -1.65769 0
M  V30 5960 H 554.85 3.6385 -1.846 0
M  V30 5961 H 553.525 3.04448 -2.83345 0
M  V30 5962 H 552.102 3.56952 -1.07886 0
M  V30 5963 N 554.287 1.06798 1.15896 0
M  V30 5964 C 555.512 0.808739 1.90982 0
M  V30 5965 C 555.937 -0.6316 1.77179 0
M  V30 5966 O 555.295 -1.4407 1.10061 0
M  V30 5967 C 555.343 1.21468 3.39526 0
M  V30 5968 O 554.447 0.356562 4.10856 0
M  V30 5969 H 553.788 0.29512 0.594811 0
M  V30 5970 H 556.318 1.42513 1.46804 0
M  V30 5971 H 556.328 1.18844 3.90308 0
M  V30 5972 H 555.003 2.26379 3.48891 0
M  V30 5973 H 553.58 0.444808 3.70238 0
M  V30 5974 N 555.766 -1.3263 0.851289 0
M  V30 5975 C 556.991 -2.02097 0.466006 0
M  V30 5976 C 557.416 -1.63574 -0.928709 0
M  V30 5977 O 556.774 -0.834665 -1.60944 0
M  V30 5978 C 556.822 -3.55425 0.608737 0
M  V30 5979 O 555.926 -4.10827 -0.359878 0
M  V30 5980 H 555.267 -0.636911 0.187724 0
M  V30 5981 H 557.797 -1.69253 1.14955 0
M  V30 5982 H 557.807 -4.04986 0.495006 0
M  V30 5983 H 556.482 -3.82806 1.62581 0
M  V30 5984 H 555.059 -3.72349 -0.202666 0
M  V30 5985 N 557.244 -0.608902 -1.45362 0
M  V30 5986 C 558.194 0.130616 -2.27626 0
M  V30 5987 C 559.178 0.837323 -1.37396 0
M  V30 5988 O 560.37 0.727096 -1.61376 0
M  V30 5989 C 557.499 1.12646 -3.24293 0
M  V30 5990 C 556.585 0.42052 -4.2201 0
M  V30 5991 N 556.976 -0.538569 -5.02925 0
M  V30 5992 C 555.274 0.667901 -4.40971 0
M  V30 5993 C 555.975 -0.953625 -5.7383 0
M  V30 5994 N 554.951 -0.297097 -5.42788 0
M  V30 5995 H 558.753 -0.605996 -2.87585 0
M  V30 5996 H 556.267 -0.432672 -1.5653 0
M  V30 5997 H 558.264 1.67066 -3.81961 0
M  V30 5998 H 556.924 1.86361 -2.65894 0
M  V30 5999 H 557.935 -0.915375 -5.09746 0
M  V30 6000 H 554.612 1.38963 -3.93695 0
M  V30 6001 H 556.002 -1.74473 -6.48852 0
M  V30 6002 N 558.722 1.53707 -0.348139 0
M  V30 6003 C 560.133 1.86213 0.134797 0
M  V30 6004 C 560.484 1.26925 1.49614 0
M  V30 6005 O 559.609 0.584573 2.08355 0
M  V30 6006 C 560.204 3.37866 0.251371 0
M  V30 6007 C 558.763 3.70233 0.678543 0
M  V30 6008 C 557.91 2.76683 -0.184925 0
M  V30 6009 H 560.861 1.48204 -0.567571 0
M  V30 6010 H 560.882 3.64908 1.07806 0
M  V30 6011 H 560.394 3.80988 -0.739581 0
M  V30 6012 H 558.495 3.32659 1.67835 0
M  V30 6013 H 558.608 4.76836 0.465251 0
M  V30 6014 H 556.972 2.52374 0.343465 0
M  V30 6015 H 557.755 3.22635 -1.1731 0
M  V30 6016 N 560.2 0.0768682 1.57412 0
M  V30 6017 C 561.15 -0.898795 2.09537 0
M  V30 6018 C 562.134 -1.25556 1.0062 0
M  V30 6019 O 563.326 -1.23369 1.26921 0
M  V30 6020 C 560.455 -2.16453 2.66464 0
M  V30 6021 C 559.541 -1.83401 3.82393 0
M  V30 6022 N 559.932 -1.20823 4.91157 0
M  V30 6023 C 558.23 -2.13121 3.91785 0
M  V30 6024 C 558.931 -1.05976 5.71965 0
M  V30 6025 N 557.907 -1.57113 5.204 0
M  V30 6026 H 561.709 -0.410718 2.91016 0
M  V30 6027 H 559.223 -0.126878 1.61904 0
M  V30 6028 H 561.22 -2.87274 3.02125 0
M  V30 6029 H 559.88 -2.65844 1.86433 0
M  V30 6030 H 560.891 -0.877249 5.10416 0
M  V30 6031 H 557.568 -2.64854 3.22736 0
M  V30 6032 H 558.958 -0.571809 6.69462 0
M  V30 6033 N 561.678 -1.56367 -0.196722 0
M  V30 6034 C 562.924 -1.80796 -0.918725 0
M  V30 6035 C 563.257 -0.650645 -1.82976 0
M  V30 6036 O 562.532 0.348889 -1.91345 0
M  V30 6037 C 562.815 -3.15472 -1.73636 0
M  V30 6038 C 562.668 -4.41693 -0.85015 0
M  V30 6039 C 563.987 -3.46824 -2.70927 0
M  V30 6040 H 561.106 -0.657702 -0.332561 0
M  V30 6041 H 563.748 -1.89086 -0.186186 0
M  V30 6042 H 561.898 -3.08536 -2.36088 0
M  V30 6043 H 563.57 -4.60673 -0.240459 0
M  V30 6044 H 561.813 -4.33517 -0.156785 0
M  V30 6045 H 562.484 -5.32419 -1.45719 0
M  V30 6046 H 564.96 -3.54049 -2.18607 0
M  V30 6047 H 563.836 -4.4218 -3.25219 0
M  V30 6048 H 564.097 -2.70236 -3.49893 0
M  V30 6049 N 563.156 0.464375 -1.50603 0
M  V30 6050 C 564.384 1.23907 -1.65695 0
M  V30 6051 C 564.799 1.85658 -0.343027 0
M  V30 6052 O 564.156 1.69529 0.675739 0
M  V30 6053 C 564.207 2.3429 -2.75301 0
M  V30 6054 O 563.928 1.7507 -4.01599 0
M  V30 6055 C 565.429 3.25051 -3.01424 0
M  V30 6056 H 562.649 0.374485 -0.556778 0
M  V30 6057 H 565.193 0.55353 -1.96866 0
M  V30 6058 H 563.348 2.98607 -2.46804 0
M  V30 6059 H 563.762 2.47812 -4.62266 0
M  V30 6060 H 565.236 3.98699 -3.81763 0
M  V30 6061 H 565.713 3.84227 -2.12758 0
M  V30 6062 H 566.319 2.66463 -3.31477 0
M  V30 6063 N 564.634 1.40294 0.718013 0
M  V30 6064 C 565.564 1.43118 1.84498 0
M  V30 6065 C 566.545 0.292403 1.67568 0
M  V30 6066 O 567.73 0.500675 1.87635 0
M  V30 6067 C 564.86 1.29065 3.22427 0
M  V30 6068 C 563.814 2.40521 3.54025 0
M  V30 6069 C 563.14 2.11546 4.91073 0
M  V30 6070 C 564.44 3.82859 3.55269 0
M  V30 6071 H 566.134 2.37432 1.82391 0
M  V30 6072 H 563.68 1.14283 0.87609 0
M  V30 6073 H 565.633 1.29658 4.00957 0
M  V30 6074 H 564.357 0.312271 3.25104 0
M  V30 6075 H 563.016 2.39173 2.77834 0
M  V30 6076 H 562.664 1.12104 4.90348 0
M  V30 6077 H 562.364 2.86216 5.1318 0
M  V30 6078 H 563.888 2.13817 5.71939 0
M  V30 6079 H 565.302 3.86044 4.23843 0
M  V30 6080 H 563.699 4.57029 3.88902 0
M  V30 6081 H 564.769 4.12617 2.54706 0
M  V30 6082 N 566.112 -0.949982 1.2575 0
M  V30 6083 C 567.022 -2.08109 1.08295 0
M  V30 6084 C 568.038 -1.7399 0.0188181 0
M  V30 6085 O 569.214 -2.00187 0.220724 0
M  V30 6086 C 566.279 -3.39383 0.708534 0
M  V30 6087 C 565.34 -3.8734 1.85111 0
M  V30 6088 C 564.573 -5.12349 1.49447 0
M  V30 6089 O 564.796 -5.6905 0.392212 0
M  V30 6090 O 563.73 -5.5513 2.32624 0
M  V30 6091 H 567.556 -2.25738 2.03165 0
M  V30 6092 H 565.141 -1.06545 1.04731 0
M  V30 6093 H 567.023 -4.18277 0.512061 0
M  V30 6094 H 565.698 -3.23013 -0.210854 0
M  V30 6095 H 564.605 -3.09429 2.10248 0
M  V30 6096 H 565.938 -4.08216 2.74991 0
M  V30 6097 N 567.59 -1.07411 -1.15328 0
M  V30 6098 C 568.838 -0.796073 -1.85761 0
M  V30 6099 C 569.159 0.679864 -1.82764 0
M  V30 6100 O 568.429 1.49242 -1.269 0
M  V30 6101 H 567.009 -0.291495 -0.687779 0
M  V30 6102 H 569.671 -1.35799 -1.39802 0
M  V30 6103 H 568.767 -1.13114 -2.90881 0
M  V30 6104 N 569.068 1.32177 -0.85831 0
M  V30 6105 C 570.015 2.28794 -0.303607 0
M  V30 6106 C 570.985 1.55213 0.591453 0
M  V30 6107 O 572.17 1.83418 0.525585 0
M  V30 6108 C 569.31 3.41475 0.49889 0
M  V30 6109 C 568.423 4.2993 -0.422373 0
M  V30 6110 C 567.558 5.29743 0.393111 0
M  V30 6111 C 566.597 6.09842 -0.525317 0
M  V30 6112 N 565.734 7.01643 0.253208 0
M  V30 6113 H 570.574 2.75631 -1.13276 0
M  V30 6114 H 568.111 1.35606 -0.570026 0
M  V30 6115 H 570.069 4.05531 0.979826 0
M  V30 6116 H 568.699 2.95779 1.29284 0
M  V30 6117 H 567.751 3.66422 -1.02171 0
M  V30 6118 H 569.063 4.85899 -1.12709 0
M  V30 6119 H 568.217 5.9942 0.937056 0
M  V30 6120 H 566.956 4.744 1.13117 0
M  V30 6121 H 565.961 5.39066 -1.08112 0
M  V30 6122 H 567.186 6.6727 -1.26205 0
M  V30 6123 H 565.132 6.48725 0.974295 0
M  V30 6124 H 565.049 7.54981 -0.392398 0
M  V30 6125 H 566.317 7.756 0.778761 0
M  V30 6126 N 570.547 0.616602 1.45037 0
M  V30 6127 C 571.958 0.199359 1.85633 0
M  V30 6128 C 572.309 -1.24588 1.51566 0
M  V30 6129 O 571.434 -1.94594 0.94668 0
M  V30 6130 C 572.029 0.355033 3.36935 0
M  V30 6131 C 570.588 -0.00758748 3.76399 0
M  V30 6132 C 569.735 0.675256 2.68953 0
M  V30 6133 H 572.686 0.822708 1.3571 0
M  V30 6134 H 572.707 -0.410201 3.78282 0
M  V30 6135 H 572.219 1.40699 3.61698 0
M  V30 6136 H 570.32 -1.05837 3.57252 0
M  V30 6137 H 570.433 0.392346 4.77491 0
M  V30 6138 H 568.797 0.111992 2.54454 0
M  V30 6139 H 569.58 1.72952 2.96551 0
M  V30 6140 N 572.025 -1.5352 0.356285 0
M  V30 6141 C 573.436 -1.86282 -0.12492 0
M  V30 6142 C 573.787 -1.27717 -1.48939 0
M  V30 6143 O 572.912 -0.595614 -2.08042 0
M  V30 6144 C 573.507 -3.37995 -0.23345 0
M  V30 6145 C 572.066 -3.70588 -0.658899 0
M  V30 6146 C 571.213 -2.76581 0.199596 0
M  V30 6147 H 574.164 -1.47901 0.575423 0
M  V30 6148 H 574.185 -3.65475 -1.0587 0
M  V30 6149 H 573.697 -3.8059 0.759776 0
M  V30 6150 H 571.798 -3.33544 -1.66069 0
M  V30 6151 H 571.911 -4.77076 -0.439957 0
M  V30 6152 H 570.275 -2.52552 -0.330076 0
M  V30 6153 H 571.058 -3.22008 1.19019 0
M  V30 6154 N 573.503 -0.0852151 -1.57369 0
M  V30 6155 C 574.451 0.894856 -2.14698 0
M  V30 6156 C 575.445 1.29903 -1.08727 0
M  V30 6157 O 576.651 1.27471 -1.27088 0
M  V30 6158 H 573.026 0.306569 -0.686673 0
M  V30 6159 H 574.997 0.386542 -2.95886 0
M  V30 6160 C 573.746 2.14798 -2.73417 0
M  V30 6161 H 573.069 1.84585 -3.54638 0
M  V30 6162 H 574.509 2.81456 -3.1711 0
M  V30 6163 C 572.968 2.91546 -1.68828 0
M  V30 6164 O 573.498 3.85733 -1.12129 0
M  V30 6165 N 571.704 2.54901 -1.39549 0
M  V30 6166 H 571.251 1.7838 -1.85845 0
M  V30 6167 H 571.209 3.06553 -0.698054 0
M  V30 6168 N 574.981 1.5647 0.188427 0
M  V30 6169 C 576.206 1.85486 0.927891 0
M  V30 6170 C 576.631 0.669575 1.75779 0
M  V30 6171 O 575.989 -0.381573 1.77239 0
M  V30 6172 C 576.037 3.12784 1.7944 0
M  V30 6173 O 575.141 2.93805 2.894 0
M  V30 6174 H 574.482 0.610585 0.260925 0
M  V30 6175 H 577.012 2.037 0.191729 0
M  V30 6176 H 577.022 3.43749 2.19774 0
M  V30 6177 H 575.697 3.98671 1.18468 0
M  V30 6178 H 574.274 2.74153 2.52774 0
M  V30 6179 N 576.459 -0.456382 1.50847 0
M  V30 6180 C 577.684 -1.2349 1.66628 0
M  V30 6181 C 578.109 -1.84715 0.355254 0
M  V30 6182 O 577.467 -1.67961 -0.682559 0
M  V30 6183 C 577.515 -2.30865 2.77009 0
M  V30 6184 O 576.619 -3.35882 2.39285 0
M  V30 6185 H 575.96 -0.36266 0.556214 0
M  V30 6186 H 578.49 -0.541374 1.97308 0
M  V30 6187 H 578.5 -2.75949 3.00526 0
M  V30 6188 H 577.175 -1.85677 3.72152 0
M  V30 6189 H 575.752 -2.96406 2.26269 0
M  V30 6190 N 577.937 -1.40673 -0.710563 0
M  V30 6191 C 578.887 -1.37812 -1.81636 0
M  V30 6192 C 579.871 -0.254853 -1.58869 0
M  V30 6193 O 581.063 -0.494356 -1.69956 0
M  V30 6194 C 578.192 -1.24802 -3.19811 0
M  V30 6195 C 577.278 -2.41931 -3.48325 0
M  V30 6196 N 577.669 -3.67411 -3.47625 0
M  V30 6197 C 575.967 -2.35419 -3.78806 0
M  V30 6198 C 576.668 -4.45008 -3.74623 0
M  V30 6199 N 575.644 -3.74916 -3.93623 0
M  V30 6200 H 579.446 -2.32766 -1.79436 0
M  V30 6201 H 576.96 -1.34516 -0.909909 0
M  V30 6202 H 578.957 -1.20835 -3.99004 0
M  V30 6203 H 577.617 -0.308202 -3.23234 0
M  V30 6204 H 578.628 -4.00503 -3.28356 0
M  V30 6205 H 575.305 -1.4983 -3.89689 0
M  V30 6206 H 576.695 -5.53884 -3.80344 0
M  V30 6207 N 579.415 0.9433 -1.26252 0
M  V30 6208 C 580.347 2.04542 -1.03417 0
M  V30 6209 C 581.36 1.62799 0.0046911 0
M  V30 6210 O 582.549 1.76944 -0.235146 0
M  V30 6211 C 579.649 3.34511 -0.543671 0
M  V30 6212 C 578.822 4.05033 -1.65128 0
M  V30 6213 C 577.881 5.13273 -1.1592 0
M  V30 6214 O 576.907 5.38095 -1.85586 0
M  V30 6215 N 578.109 5.805 -0.00649279 0
M  V30 6216 H 580.874 2.24699 -1.98319 0
M  V30 6217 H 578.435 1.11264 -1.1761 0
M  V30 6218 H 580.427 4.04212 -0.198703 0
M  V30 6219 H 578.997 3.11042 0.311711 0
M  V30 6220 H 578.217 3.29275 -2.16729 0
M  V30 6221 H 579.505 4.48903 -2.39508 0
M  V30 6222 H 578.903 5.62767 0.575347 0
M  V30 6223 H 577.46 6.51201 0.279416 0
M  V30 6224 N 580.893 1.08022 1.14757 0
M  V30 6225 C 581.856 0.71048 2.1791 0
M  V30 6226 C 582.856 -0.252731 1.58801 0
M  V30 6227 O 584.046 -0.0327915 1.74169 0
M  V30 6228 C 581.178 0.0483203 3.40866 0
M  V30 6229 H 582.371 1.62384 2.52134 0
M  V30 6230 H 579.924 0.877595 1.29337 0
M  V30 6231 H 580.659 -0.876959 3.12218 0
M  V30 6232 H 580.444 0.741189 3.85031 0
M  V30 6233 H 581.934 -0.195471 4.17142 0
M  V30 6234 N 582.371 -1.3172 0.865308 0
M  V30 6235 C 583.301 -2.31109 0.333302 0
M  V30 6236 C 584.282 -1.60148 -0.573301 0
M  V30 6237 O 585.467 -1.87882 -0.491305 0
M  V30 6238 C 582.597 -3.44104 -0.470078 0
M  V30 6239 C 581.551 -4.26623 0.343021 0
M  V30 6240 C 580.877 -5.31482 -0.585756 0
M  V30 6241 C 582.177 -4.98001 1.57456 0
M  V30 6242 H 583.871 -2.75855 1.1638 0
M  V30 6243 H 581.417 -1.3262 0.561069 0
M  V30 6244 H 583.37 -4.12682 -0.852752 0
M  V30 6245 H 582.094 -2.98112 -1.33404 0
M  V30 6246 H 580.753 -3.59707 0.707583 0
M  V30 6247 H 580.401 -4.81741 -1.44686 0
M  V30 6248 H 580.101 -5.87582 -0.0456494 0
M  V30 6249 H 581.625 -6.0292 -0.965375 0
M  V30 6250 H 583.039 -5.59201 1.26359 0
M  V30 6251 H 581.436 -5.63876 2.05339 0
M  V30 6252 H 582.506 -4.25253 2.32997 0
M  V30 6253 N 583.85 -0.624285 -1.44708 0
M  V30 6254 C 584.779 0.0717025 -2.3339 0
M  V30 6255 C 585.76 0.841814 -1.47809 0
M  V30 6256 O 586.946 0.809056 -1.76544 0
M  V30 6257 C 584.076 1.05852 -3.30776 0
M  V30 6258 C 583.029 0.400503 -4.26122 0
M  V30 6259 C 582.356 1.49674 -5.13324 0
M  V30 6260 C 583.656 -0.688924 -5.17737 0
M  V30 6261 H 585.35 -0.668819 -2.91834 0
M  V30 6262 H 582.896 -0.32308 -1.40329 0
M  V30 6263 H 584.849 1.5541 -3.91696 0
M  V30 6264 H 583.572 1.82984 -2.70526 0
M  V30 6265 H 582.231 -0.0743687 -3.66525 0
M  V30 6266 H 581.88 2.25877 -4.49431 0
M  V30 6267 H 581.58 1.06188 -5.77926 0
M  V30 6268 H 583.104 1.99427 -5.77115 0
M  V30 6269 H 584.518 -0.276724 -5.72632 0
M  V30 6270 H 582.915 -1.04652 -5.90904 0
M  V30 6271 H 583.985 -1.55884 -4.5916 0
M  V30 6272 N 585.328 1.53329 -0.364422 0
M  V30 6273 C 586.26 2.23286 0.517293 0
M  V30 6274 C 587.273 1.24657 1.04711 0
M  V30 6275 O 588.462 1.50887 0.95369 0
M  V30 6276 C 585.562 2.91604 1.72685 0
M  V30 6277 C 584.735 4.1673 1.32873 0
M  V30 6278 C 583.794 4.68269 2.40022 0
M  V30 6279 O 582.82 5.31976 2.02461 0
M  V30 6280 N 584.022 4.45983 3.7159 0
M  V30 6281 H 586.787 2.99588 -0.0819391 0
M  V30 6282 H 584.348 1.60787 -0.189544 0
M  V30 6283 H 586.34 3.22992 2.4384 0
M  V30 6284 H 584.91 2.18763 2.23297 0
M  V30 6285 H 584.13 3.91657 0.447069 0
M  V30 6286 H 585.418 4.98078 1.03902 0
M  V30 6287 H 584.816 3.95077 4.04883 0
M  V30 6288 H 583.373 4.81924 4.38854 0
M  V30 6289 N 586.806 0.0935595 1.57322 0
M  V30 6290 C 587.756 -0.876521 2.10478 0
M  V30 6291 C 588.74 -1.24482 1.01946 0
M  V30 6292 O 589.932 -1.22016 1.28223 0
M  V30 6293 C 587.061 -2.13615 2.68745 0
M  V30 6294 C 586.147 -1.79335 3.84317 0
M  V30 6295 N 586.538 -1.15606 4.92411 0
M  V30 6296 C 584.836 -2.08954 3.94023 0
M  V30 6297 C 585.537 -0.999036 5.73057 0
M  V30 6298 N 584.513 -1.51585 5.22037 0
M  V30 6299 H 588.315 -0.379829 2.91435 0
M  V30 6300 H 585.829 -0.109699 1.62029 0
M  V30 6301 H 587.826 -2.84053 3.05155 0
M  V30 6302 H 586.486 -2.63851 1.89242 0
M  V30 6303 H 587.497 -0.823063 5.11318 0
M  V30 6304 H 584.174 -2.61416 3.25527 0
M  V30 6305 H 585.564 -0.500772 6.70031 0
M  V30 6306 N 588.284 -1.56567 -0.180126 0
M  V30 6307 C 589.214 -1.98753 -1.22553 0
M  V30 6308 C 590.195 -0.86175 -1.46656 0
M  V30 6309 O 591.38 -1.12719 -1.58139 0
M  V30 6310 C 588.51 -2.33988 -2.56645 0
M  V30 6311 C 587.464 -3.49445 -2.47128 0
M  V30 6312 C 586.79 -3.70397 -3.8563 0
M  V30 6313 C 588.09 -4.83171 -1.98352 0
M  V30 6314 H 589.784 -2.86332 -0.874896 0
M  V30 6315 H 587.33 -1.37757 -0.419414 0
M  V30 6316 H 589.283 -2.62097 -3.29974 0
M  V30 6317 H 588.007 -1.43309 -2.93479 0
M  V30 6318 H 586.666 -3.2145 -1.76254 0
M  V30 6319 H 586.314 -2.77023 -4.19842 0
M  V30 6320 H 586.014 -4.48077 -3.80132 0
M  V30 6321 H 587.538 -4.00897 -4.60558 0
M  V30 6322 H 588.952 -5.10213 -2.61449 0
M  V30 6323 H 587.349 -5.64425 -2.03823 0
M  V30 6324 H 588.419 -4.75753 -0.937402 0
M  V30 6325 N 589.762 0.448376 -1.51087 0
M  V30 6326 C 590.692 1.55102 -1.74544 0
M  V30 6327 C 591.673 1.59357 -0.594932 0
M  V30 6328 O 592.858 1.75261 -0.836491 0
M  V30 6329 C 589.988 2.93268 -1.86041 0
M  V30 6330 C 588.942 3.03877 -3.01402 0
M  V30 6331 C 588.268 4.43914 -2.98068 0
M  V30 6332 C 589.568 2.7898 -4.41551 0
M  V30 6333 H 591.262 1.35724 -2.66869 0
M  V30 6334 H 588.808 0.651498 -1.28419 0
M  V30 6335 H 590.761 3.70356 -2.01034 0
M  V30 6336 H 589.485 3.13853 -0.903548 0
M  V30 6337 H 588.144 2.29227 -2.86096 0
M  V30 6338 H 587.792 4.6145 -2.00182 0
M  V30 6339 H 587.492 4.51944 -3.75527 0
M  V30 6340 H 589.016 5.22991 -3.1514 0
M  V30 6341 H 590.43 3.45805 -4.57265 0
M  V30 6342 H 588.827 2.98431 -5.20633 0
M  V30 6343 H 589.897 1.74663 -4.5235 0
M  V30 6344 N 591.24 1.41047 0.703093 0
M  V30 6345 C 592.17 1.45067 1.82969 0
M  V30 6346 C 593.151 0.31016 1.67248 0
M  V30 6347 O 594.336 0.520548 1.87093 0
M  V30 6348 C 591.466 1.32478 3.2104 0
M  V30 6349 C 590.42 2.44262 3.51454 0
M  V30 6350 C 589.746 2.16742 4.88801 0
M  V30 6351 C 591.046 3.86606 3.51189 0
M  V30 6352 H 592.74 2.39353 1.79863 0
M  V30 6353 H 590.286 1.15206 0.863919 0
M  V30 6354 H 592.239 1.33904 3.99559 0
M  V30 6355 H 590.963 0.346735 3.24754 0
M  V30 6356 H 589.622 2.42107 2.75282 0
M  V30 6357 H 589.27 1.17299 4.89132 0
M  V30 6358 H 588.97 2.91643 5.10116 0
M  V30 6359 H 590.494 2.19872 5.69639 0
M  V30 6360 H 591.908 3.90517 4.19725 0
M  V30 6361 H 590.305 4.61128 3.84033 0
M  V30 6362 H 591.375 4.15296 2.50315 0
M  V30 6363 N 592.718 -0.936591 1.26751 0
M  V30 6364 C 593.665 -2.03597 1.08706 0
M  V30 6365 C 594.635 -1.66097 -0.00926542 0
M  V30 6366 O 595.82 -1.90199 0.151377 0
M  V30 6367 C 592.96 -3.3727 0.73094 0
M  V30 6368 C 592.073 -3.87778 1.90399 0
M  V30 6369 C 591.208 -5.09859 1.49056 0
M  V30 6370 C 590.247 -5.5264 2.63164 0
M  V30 6371 N 589.384 -6.65921 2.22471 0
M  V30 6372 H 594.224 -2.18364 2.02784 0
M  V30 6373 H 591.761 -1.06985 1.00958 0
M  V30 6374 H 593.719 -4.14128 0.505328 0
M  V30 6375 H 592.349 -3.22337 -0.172868 0
M  V30 6376 H 591.401 -3.07279 2.2424 0
M  V30 6377 H 592.713 -4.15464 2.76028 0
M  V30 6378 H 591.867 -5.9419 1.22567 0
M  V30 6379 H 590.606 -4.8393 0.60524 0
M  V30 6380 H 589.611 -4.66863 2.90377 0
M  V30 6381 H 590.836 -5.80568 3.52303 0
M  V30 6382 H 588.782 -6.41667 1.36379 0
M  V30 6383 H 588.699 -6.93216 3.01641 0
M  V30 6384 H 589.967 -7.53616 1.99205 0
M  V30 6385 N 594.196 -1.08629 -1.14182 0
M  V30 6386 C 595.106 -0.730126 -2.22949 0
M  V30 6387 C 596.122 0.26436 -1.7198 0
M  V30 6388 O 597.298 0.107742 -2.01112 0
M  V30 6389 C 594.363 -0.147227 -3.46387 0
M  V30 6390 C 593.424 -1.19662 -4.12286 0
M  V30 6391 C 592.657 -0.641437 -5.29831 0
M  V30 6392 O 592.88 0.538351 -5.67854 0
M  V30 6393 O 591.814 -1.39257 -5.85569 0
M  V30 6394 H 595.64 -1.63753 -2.55771 0
M  V30 6395 H 593.225 -0.860118 -1.22157 0
M  V30 6396 H 595.107 0.174923 -4.21037 0
M  V30 6397 H 593.782 0.733304 -3.15285 0
M  V30 6398 H 592.689 -1.57133 -3.395 0
M  V30 6399 H 594.022 -2.0495 -4.475 0
M  V30 6400 N 595.674 1.31259 -0.872281 0
M  V30 6401 C 596.606 2.27396 -0.28697 0
M  V30 6402 C 597.619 1.53181 0.551297 0
M  V30 6403 O 598.808 1.74561 0.372914 0
M  V30 6404 C 595.908 3.33335 0.611617 0
M  V30 6405 C 595.081 4.36966 -0.194729 0
M  V30 6406 C 594.14 5.22387 0.632358 0
M  V30 6407 O 593.166 5.69169 0.0595691 0
M  V30 6408 N 594.368 5.46985 1.94391 0
M  V30 6409 H 597.133 2.78261 -1.11314 0
M  V30 6410 H 594.694 1.44306 -0.733994 0
M  V30 6411 H 596.686 3.87398 1.17068 0
M  V30 6412 H 595.256 2.82496 1.33846 0
M  V30 6413 H 594.476 3.82945 -0.935241 0
M  V30 6414 H 595.764 5.03273 -0.747935 0
M  V30 6415 H 595.162 5.10737 2.43237 0
M  V30 6416 H 593.719 6.03973 2.45071 0
M  V30 6417 N 597.152 0.631951 1.44375 0
M  V30 6418 C 598.085 -0.121822 2.27875 0
M  V30 6419 C 599.063 -0.850457 1.38586 0
M  V30 6420 O 600.247 -0.854378 1.68026 0
M  V30 6421 C 597.374 -1.17859 3.17533 0
M  V30 6422 C 596.42 -0.550391 4.22934 0
M  V30 6423 S 597.253 0.660145 5.31415 0
M  V30 6424 C 598.409 -0.396613 6.24642 0
M  V30 6425 H 598.642 0.586537 2.91457 0
M  V30 6426 H 596.175 0.420146 1.48574 0
M  V30 6427 H 598.133 -1.78335 3.69739 0
M  V30 6428 H 596.794 -1.85915 2.53169 0
M  V30 6429 H 595.987 -1.34631 4.85685 0
M  V30 6430 H 595.589 -0.0202306 3.73995 0
M  V30 6431 H 597.881 -1.26893 6.65511 0
M  V30 6432 H 598.824 0.195345 7.0783 0
M  V30 6433 H 599.232 -0.72288 5.59852 0
M  V30 6434 N 598.631 -1.53133 0.372548 0
M  V30 6435 C 600.047 -1.59585 0.02178 0
M  V30 6436 C 600.247 -1.38736 -1.46132 0
M  V30 6437 O 599.303 -1.19599 -2.22379 0
M  V30 6438 C 600.616 -2.9678 0.483959 0
M  V30 6439 C 602.164 -3.09909 0.438775 0
M  V30 6440 C 602.639 -4.49527 0.876876 0
M  V30 6441 N 604.13 -4.55663 0.832214 0
M  V30 6442 C 604.865 -5.61896 1.14281 0
M  V30 6443 N 604.361 -6.75852 1.52303 0
M  V30 6444 N 606.154 -5.51916 1.06515 0
M  V30 6445 H 598.305 -1.64936 1.33827 0
M  V30 6446 H 600.568 -0.773947 0.547458 0
M  V30 6447 H 600.274 -3.17198 1.51915 0
M  V30 6448 H 600.148 -3.7699 -0.125784 0
M  V30 6449 H 602.535 -2.89197 -0.587294 0
M  V30 6450 H 602.616 -2.31691 1.0841 0
M  V30 6451 H 602.26 -4.70979 1.90109 0
M  V30 6452 H 602.19 -5.26186 0.208727 0
M  V30 6453 H 604.681 -3.73844 0.552195 0
M  V30 6454 H 604.994 -7.52862 1.7441 0
M  V30 6455 H 603.339 -6.77226 1.56175 0
M  V30 6456 H 606.53 -4.6177 0.767235 0
M  V30 6457 H 606.703 -6.34609 1.31053 0
M  V30 6458 N 600.109 -0.101901 -1.5727 0
M  V30 6459 C 601.041 0.884723 -2.11436 0
M  V30 6460 C 602.054 1.24149 -1.05314 0
M  V30 6461 O 603.243 1.19341 -1.3274 0
M  V30 6462 C 600.343 2.19179 -2.58484 0
M  V30 6463 C 599.516 2.00933 -3.88516 0
M  V30 6464 C 598.575 3.15213 -4.2134 0
M  V30 6465 O 597.601 2.88877 -4.90448 0
M  V30 6466 N 598.803 4.41174 -3.77288 0
M  V30 6467 H 601.568 0.422058 -2.96713 0
M  V30 6468 H 599.129 0.0830128 -1.61687 0
M  V30 6469 H 601.121 2.94593 -2.77484 0
M  V30 6470 H 599.691 2.56847 -1.7818 0
M  V30 6471 H 598.911 1.09809 -3.78597 0
M  V30 6472 H 600.199 1.86026 -4.73573 0
M  V30 6473 H 599.597 4.6545 -3.21516 0
M  V30 6474 H 598.154 5.13515 -4.01429 0
M  V30 6475 N 601.587 1.56661 0.17182 0
M  V30 6476 C 602.519 1.92934 1.2373 0
M  V30 6477 C 603.532 0.822385 1.40502 0
M  V30 6478 O 604.721 1.10083 1.40514 0
M  V30 6479 C 601.821 2.16651 2.60607 0
M  V30 6480 C 600.994 3.47878 2.6514 0
M  V30 6481 C 600.053 3.60429 3.83377 0
M  V30 6482 O 599.079 4.33051 3.69398 0
M  V30 6483 N 600.281 2.95241 4.99813 0
M  V30 6484 H 603.046 2.84931 0.929205 0
M  V30 6485 H 600.607 1.5781 0.361588 0
M  V30 6486 H 602.599 2.22312 3.38171 0
M  V30 6487 H 601.169 1.3104 2.83809 0
M  V30 6488 H 600.389 3.53879 1.73675 0
M  V30 6489 H 601.677 4.34232 2.6518 0
M  V30 6490 H 601.075 2.3611 5.14071 0
M  V30 6491 H 599.632 3.06499 5.75241 0
M  V30 6492 N 603.065 -0.440357 1.51323 0
M  V30 6493 C 604.012 -1.53429 1.72419 0
M  V30 6494 C 604.982 -1.56165 0.565826 0
M  V30 6495 O 606.167 -1.73222 0.799917 0
M  V30 6496 C 603.307 -2.91169 1.85242 0
M  V30 6497 C 602.42 -2.97985 3.12777 0
M  V30 6498 C 601.555 -4.26829 3.16212 0
M  V30 6499 C 600.594 -4.27501 4.38074 0
M  V30 6500 N 599.731 -5.47866 4.39076 0
M  V30 6501 H 604.571 -1.34743 2.65797 0
M  V30 6502 H 602.108 -0.654608 1.31732 0
M  V30 6503 H 604.066 -3.71087 1.90658 0
M  V30 6504 H 602.696 -3.0842 0.952744 0
M  V30 6505 H 601.748 -2.10749 3.16685 0
M  V30 6506 H 603.06 -2.94342 4.02696 0
M  V30 6507 H 602.214 -5.15118 3.20527 0
M  V30 6508 H 600.953 -4.33124 2.24176 0
M  V30 6509 H 599.958 -3.37606 4.33938 0
M  V30 6510 H 601.183 -4.22873 5.31371 0
M  V30 6511 H 599.129 -5.54887 3.49909 0
M  V30 6512 H 599.046 -5.46091 5.22801 0
M  V30 6513 H 600.314 -6.38195 4.4758 0
M  V30 6514 N 604.543 -1.41418 -0.695603 0
M  V30 6515 C 605.473 -1.46035 -1.82197 0
M  V30 6516 C 606.454 -0.319025 -1.67082 0
M  V30 6517 O 607.639 -0.530462 -1.86815 0
M  V30 6518 C 604.769 -1.34179 -3.20333 0
M  V30 6519 C 603.723 -2.46123 -3.50154 0
M  V30 6520 C 603.049 -2.19332 -4.87645 0
M  V30 6521 C 604.349 -3.88463 -3.49133 0
M  V30 6522 H 606.043 -2.40303 -1.78591 0
M  V30 6523 H 603.589 -1.15663 -0.857797 0
M  V30 6524 H 605.542 -1.36021 -3.98844 0
M  V30 6525 H 604.266 -0.363952 -3.24566 0
M  V30 6526 H 602.925 -2.43563 -2.73994 0
M  V30 6527 H 602.573 -1.19891 -4.88503 0
M  V30 6528 H 602.273 -2.94344 -5.08562 0
M  V30 6529 H 603.797 -2.22889 -5.68465 0
M  V30 6530 H 605.211 -3.92738 -4.17648 0
M  V30 6531 H 603.608 -4.63158 -3.81582 0
M  V30 6532 H 604.678 -4.16617 -2.48109 0
M  V30 6533 N 606.021 0.929856 -1.27246 0
M  V30 6534 C 606.951 2.04722 -1.12299 0
M  V30 6535 C 607.932 1.70082 -0.0250464 0
M  V30 6536 O 609.117 1.93176 -0.199141 0
M  V30 6537 C 606.247 3.38721 -0.767145 0
M  V30 6538 C 605.201 3.87466 -1.81808 0
M  V30 6539 C 604.527 5.18246 -1.31626 0
M  V30 6540 C 605.827 4.11095 -3.22177 0
M  V30 6541 H 607.521 2.17485 -2.05769 0
M  V30 6542 H 605.067 1.04503 -0.990715 0
M  V30 6543 H 607.02 4.16366 -0.649413 0
M  V30 6544 H 605.744 3.25967 0.203259 0
M  V30 6545 H 604.403 3.12012 -1.92468 0
M  V30 6546 H 604.051 5.01881 -0.335378 0
M  V30 6547 H 603.751 5.51829 -2.01887 0
M  V30 6548 H 605.275 5.98462 -1.21143 0
M  V30 6549 H 606.689 4.79316 -3.1453 0
M  V30 6550 H 605.086 4.55982 -3.90129 0
M  V30 6551 H 606.156 3.16468 -3.67391 0
M  V30 6552 N 607.499 1.09233 1.13605 0
M  V30 6553 C 608.745 0.828385 1.8511 0
M  V30 6554 C 609.078 -0.64437 1.83198 0
M  V30 6555 O 608.353 -1.47428 1.26867 0
M  V30 6556 C 608.636 1.36167 3.33363 0
M  V30 6557 C 608.489 2.90038 3.438 0
M  V30 6558 C 609.808 0.993819 4.28732 0
M  V30 6559 H 606.927 0.30239 0.672108 0
M  V30 6560 H 609.569 1.35339 1.33355 0
M  V30 6561 H 607.719 0.9151 3.77569 0
M  V30 6562 H 609.391 3.43128 3.08319 0
M  V30 6563 H 607.634 3.27271 2.84739 0
M  V30 6564 H 608.305 3.22428 4.48045 0
M  V30 6565 H 610.781 1.37893 3.92587 0
M  V30 6566 H 609.657 1.39403 5.30903 0
M  V30 6567 H 609.918 -0.0982206 4.41991 0
M  V30 6568 N 608.977 -1.30795 0.87923 0
M  V30 6569 C 609.94 -2.26563 0.346676 0
M  V30 6570 C 610.94 -1.52578 -0.507597 0
M  V30 6571 O 612.13 -1.71318 -0.315575 0
M  V30 6572 C 609.262 -3.37115 -0.506611 0
M  V30 6573 H 610.455 -2.75183 1.19223 0
M  V30 6574 H 608.008 -1.41886 0.655598 0
M  V30 6575 H 608.743 -2.93802 -1.37299 0
M  V30 6576 H 608.528 -3.91959 0.105218 0
M  V30 6577 H 610.018 -4.08412 -0.871192 0
M  V30 6578 N 610.455 -0.639598 -1.44038 0
M  V30 6579 C 611.703 -0.147188 -2.01563 0
M  V30 6580 C 612.024 1.2384 -1.50628 0
M  V30 6581 O 611.294 1.82452 -0.713316 0
M  V30 6582 H 609.874 -0.0514231 -0.745228 0
M  V30 6583 H 612.536 -0.828205 -1.76428 0
M  V30 6584 H 611.632 -0.121358 -3.11864 0
M  V30 6585 N 611.933 1.52934 -0.380664 0
M  V30 6586 C 613.181 2.01069 0.203874 0
M  V30 6587 C 613.502 1.26922 1.4804 0
M  V30 6588 O 612.772 0.386787 1.92044 0
M  V30 6589 H 611.352 0.742882 0.0783279 0
M  V30 6590 H 614.014 1.88099 -0.510368 0
M  V30 6591 H 613.11 3.09258 0.42021 0
M  V30 6592 N 613.412 0.11024 1.57214 0
M  V30 6593 C 614.658 -0.550684 1.9518 0
M  V30 6594 C 614.991 -1.66885 0.993122 0
M  V30 6595 O 614.266 -1.94479 0.0287907 0
M  V30 6596 C 614.549 -1.09163 3.43155 0
M  V30 6597 C 614.402 0.0225198 4.49794 0
M  V30 6598 C 615.721 -1.98527 3.92778 0
M  V30 6599 H 612.84 -0.198706 0.709708 0
M  V30 6600 H 615.482 0.184024 1.89107 0
M  V30 6601 H 613.632 -1.71775 3.48462 0
M  V30 6602 H 615.304 0.657443 4.56591 0
M  V30 6603 H 613.547 0.686868 4.28328 0
M  V30 6604 H 614.218 -0.39706 5.5057 0
M  V30 6605 H 616.694 -1.458 3.8972 0
M  V30 6606 H 615.57 -2.33298 4.96853 0
M  V30 6607 H 615.831 -2.90846 3.32958 0
M  V30 6608 N 614.89 -1.56749 -0.16351 0
M  V30 6609 C 616.301 -1.72039 -0.725216 0
M  V30 6610 C 616.652 -0.72202 -1.82432 0
M  V30 6611 O 615.777 0.114942 -2.16095 0
M  V30 6612 C 616.372 -3.11932 -1.32227 0
M  V30 6613 C 614.931 -3.28879 -1.83072 0
M  V30 6614 C 614.078 -2.67984 -0.712716 0
M  V30 6615 H 617.029 -1.58579 0.0619772 0
M  V30 6616 H 617.05 -3.11015 -2.19202 0
M  V30 6617 H 616.562 -3.84572 -0.522103 0
M  V30 6618 H 614.663 -2.61209 -2.65708 0
M  V30 6619 H 614.776 -4.36688 -1.97079 0
M  V30 6620 H 613.14 -2.28005 -1.13515 0
M  V30 6621 H 613.923 -3.43216 0.0757361 0
M  V30 6622 N 616.368 0.432326 -1.51554 0
M  V30 6623 C 617.298 1.53242 -1.76179 0
M  V30 6624 C 618.279 1.58717 -0.611801 0
M  V30 6625 O 619.464 1.74364 -0.855033 0
M  V30 6626 C 616.594 2.91278 -1.89141 0
M  V30 6627 C 615.548 3.00663 -3.04608 0
M  V30 6628 C 614.874 4.40728 -3.02759 0
M  V30 6629 C 616.174 2.74281 -4.44485 0
M  V30 6630 H 617.868 1.32886 -2.68294 0
M  V30 6631 H 615.414 0.637841 -1.29103 0
M  V30 6632 H 617.367 3.68203 -2.04951 0
M  V30 6633 H 616.091 3.12877 -0.936785 0
M  V30 6634 H 614.75 2.26179 -2.88511 0
M  V30 6635 H 614.398 4.59301 -2.05065 0
M  V30 6636 H 614.098 4.47936 -3.80299 0
M  V30 6637 H 615.622 5.19619 -3.20669 0
M  V30 6638 H 617.036 3.40936 -4.60907 0
M  V30 6639 H 615.433 2.92893 -5.23769 0
M  V30 6640 H 616.503 1.69856 -4.54177 0
M  V30 6641 N 617.846 1.41785 0.688094 0
M  V30 6642 C 618.796 1.40684 1.79421 0
M  V30 6643 C 619.78 0.280096 1.58443 0
M  V30 6644 O 620.972 0.521332 1.69148 0
M  V30 6645 C 618.101 1.29874 3.17785 0
M  V30 6646 C 617.187 2.47442 3.44432 0
M  V30 6647 N 617.578 3.72895 3.41736 0
M  V30 6648 C 615.876 2.41416 3.75013 0
M  V30 6649 C 616.577 4.50912 3.67496 0
M  V30 6650 N 615.553 3.81131 3.87608 0
M  V30 6651 H 619.355 2.35591 1.7571 0
M  V30 6652 H 616.869 1.35946 0.888393 0
M  V30 6653 H 618.866 1.27168 3.97031 0
M  V30 6654 H 617.526 0.359587 3.22703 0
M  V30 6655 H 618.537 4.05676 3.21943 0
M  V30 6656 H 615.214 1.56011 3.87256 0
M  V30 6657 H 616.604 5.59865 3.71484 0
M  V30 6658 N 619.324 -0.923095 1.27737 0
M  V30 6659 C 620.735 -1.48626 1.12993 0
M  V30 6660 C 621.086 -1.94142 -0.283439 0
M  V30 6661 O 620.211 -1.81605 -1.17681 0
M  V30 6662 C 620.806 -2.70117 2.04505 0
M  V30 6663 C 619.365 -3.22642 1.93853 0
M  V30 6664 C 618.512 -1.95368 1.96791 0
M  V30 6665 H 621.463 -0.736737 1.40563 0
M  V30 6666 H 621.484 -3.4506 1.60356 0
M  V30 6667 H 620.996 -2.36959 3.07363 0
M  V30 6668 H 619.097 -3.60549 0.939968 0
M  V30 6669 H 619.21 -3.88525 2.80331 0
M  V30 6670 H 617.574 -2.12061 1.41076 0
M  V30 6671 H 618.357 -1.64517 3.01312 0
M  V30 6672 N 620.802 -1.09834 -1.13024 0
M  V30 6673 C 621.734 -0.699379 -2.18269 0
M  V30 6674 C 622.747 0.260841 -1.60697 0
M  V30 6675 O 623.936 0.0462538 -1.7844 0
M  V30 6676 C 621.036 -0.0104537 -3.38898 0
M  V30 6677 C 620.209 -0.993275 -4.25973 0
M  V30 6678 C 619.268 -0.336982 -5.2512 0
M  V30 6679 O 618.294 -0.985892 -5.60597 0
M  V30 6680 N 619.496 0.90716 -5.73368 0
M  V30 6681 H 622.261 -1.60486 -2.5311 0
M  V30 6682 H 619.822 -0.986337 -1.28386 0
M  V30 6683 H 621.814 0.43991 -4.02302 0
M  V30 6684 H 620.384 0.797335 -3.0226 0
M  V30 6685 H 619.604 -1.62208 -3.5928 0
M  V30 6686 H 620.892 -1.65876 -4.81002 0
M  V30 6687 H 620.29 1.45384 -5.46699 0
M  V30 6688 H 618.847 1.30077 -6.38689 0
M  V30 6689 N 622.28 1.30327 -0.886154 0
M  V30 6690 C 623.505 2.0079 -0.519425 0
M  V30 6691 C 623.93 1.65979 0.885013 0
M  V30 6692 O 623.288 0.877043 1.58675 0
M  V30 6693 C 623.336 3.53686 -0.702758 0
M  V30 6694 O 622.44 4.11637 0.250828 0
M  V30 6695 H 621.781 0.63171 -0.204544 0
M  V30 6696 H 624.311 1.66145 -1.19402 0
M  V30 6697 H 624.321 4.03531 -0.602207 0
M  V30 6698 H 622.996 3.78361 -1.72673 0
M  V30 6699 H 621.573 3.72755 0.103873 0
M  V30 6700 N 623.758 0.647228 1.43697 0
M  V30 6701 C 625.169 0.238689 1.85168 0
M  V30 6702 C 625.52 -1.21345 1.54175 0
M  V30 6703 O 624.645 -1.92542 0.987743 0
M  V30 6704 C 625.24 0.426422 3.36106 0
M  V30 6705 C 623.799 0.0722541 3.76331 0
M  V30 6706 C 622.946 0.732153 2.6746 0
M  V30 6707 H 625.897 0.851309 1.33934 0
M  V30 6708 H 625.918 -0.32987 3.79067 0
M  V30 6709 H 625.43 1.48339 3.58632 0
M  V30 6710 H 623.531 -0.982355 3.59417 0
M  V30 6711 H 623.644 0.493541 4.76551 0
M  V30 6712 H 622.008 0.16594 2.54159 0
M  V30 6713 H 622.791 1.79204 2.92816 0
M  V30 6714 N 625.236 -1.5273 0.388769 0
M  V30 6715 C 626.166 -2.29353 -0.438111 0
M  V30 6716 C 627.147 -1.32719 -1.06394 0
M  V30 6717 O 628.332 -1.61612 -1.07681 0
M  V30 6718 C 625.462 -3.09995 -1.56589 0
M  V30 6719 C 624.416 -4.14509 -1.06613 0
M  V30 6720 C 623.742 -4.83372 -2.28594 0
M  V30 6721 C 625.042 -5.22127 -0.134459 0
M  V30 6722 H 626.736 -2.98723 0.201206 0
M  V30 6723 H 624.282 -1.43665 0.0982089 0
M  V30 6724 H 626.235 -3.62357 -2.15118 0
M  V30 6725 H 624.959 -2.38357 -2.23279 0
M  V30 6726 H 623.618 -3.63128 -0.503383 0
M  V30 6727 H 623.266 -4.08283 -2.93792 0
M  V30 6728 H 622.966 -5.54012 -1.95817 0
M  V30 6729 H 624.49 -5.38538 -2.87766 0
M  V30 6730 H 625.904 -5.69851 -0.627914 0
M  V30 6731 H 624.301 -6.00011 0.103534 0
M  V30 6732 H 625.371 -4.77971 0.816798 0
M  V30 6733 N 626.714 -0.118576 -1.57153 0
M  V30 6734 C 627.677 0.817464 -2.14127 0
M  V30 6735 C 628.677 1.1949 -1.07604 0
M  V30 6736 O 629.867 1.12048 -1.33382 0
M  V30 6737 C 626.999 2.10541 -2.68115 0
M  V30 6738 H 628.192 0.322339 -2.98163 0
M  V30 6739 H 625.745 0.130655 -1.55753 0
M  V30 6740 H 626.48 2.64485 -1.87665 0
M  V30 6741 H 626.265 1.84425 -3.4602 0
M  V30 6742 H 627.755 2.77453 -3.12105 0
M  V30 6743 N 628.193 1.56834 0.155195 0
M  V30 6744 C 629.421 1.87049 0.884326 0
M  V30 6745 C 629.836 0.705839 1.7511 0
M  V30 6746 O 629.193 -0.324641 1.79589 0
M  V30 6747 C 629.244 3.1644 1.74781 0
M  V30 6748 O 628.965 4.28417 0.915978 0
M  V30 6749 C 630.466 3.60113 2.58522 0
M  V30 6750 H 627.686 0.620196 0.25612 0
M  V30 6751 H 630.23 2.03946 0.150445 0
M  V30 6752 H 628.385 3.01321 2.43484 0
M  V30 6753 H 628.799 5.02353 1.50803 0
M  V30 6754 H 630.273 4.53508 3.14698 0
M  V30 6755 H 630.75 2.85005 3.34169 0
M  V30 6756 H 631.356 3.77898 1.95124 0
M  V30 6757 N 629.671 -0.424282 1.51781 0
M  V30 6758 C 630.618 -1.51591 1.74037 0
M  V30 6759 C 631.588 -1.55556 0.582358 0
M  V30 6760 O 632.773 -1.72364 0.818245 0
M  V30 6761 C 629.913 -2.89188 1.8832 0
M  V30 6762 C 629.026 -2.9465 3.1592 0
M  V30 6763 C 628.161 -4.23452 3.20721 0
M  V30 6764 C 627.2 -4.22831 4.42584 0
M  V30 6765 N 626.337 -5.43178 4.44862 0
M  V30 6766 H 631.177 -1.31917 2.67212 0
M  V30 6767 H 628.714 -0.640599 1.32419 0
M  V30 6768 H 630.672 -3.69044 1.94583 0
M  V30 6769 H 629.302 -3.07392 0.985402 0
M  V30 6770 H 628.354 -2.07378 3.18902 0
M  V30 6771 H 629.666 -2.90055 4.05795 0
M  V30 6772 H 628.82 -5.1169 3.25973 0
M  V30 6773 H 627.559 -4.30722 2.28757 0
M  V30 6774 H 626.564 -3.32984 4.37495 0
M  V30 6775 H 627.789 -4.17213 5.35826 0
M  V30 6776 H 625.735 -5.51145 3.55775 0
M  V30 6777 H 625.652 -5.40515 5.28563 0
M  V30 6778 H 626.92 -6.33412 4.54324 0
M  V30 6779 N 631.149 -1.42148 -0.680565 0
M  V30 6780 C 632.059 -1.47565 -1.82378 0
M  V30 6781 C 633.075 -0.36489 -1.70131 0
M  V30 6782 O 634.251 -0.614916 -1.91783 0
M  V30 6783 C 631.316 -1.37013 -3.18478 0
M  V30 6784 C 630.377 -2.58532 -3.42724 0
M  V30 6785 C 629.61 -2.48473 -4.72331 0
M  V30 6786 O 629.833 -1.51745 -5.49845 0
M  V30 6787 O 628.767 -3.38503 -4.97694 0
M  V30 6788 H 632.593 -2.44045 -1.80764 0
M  V30 6789 H 630.178 -1.23849 -0.835569 0
M  V30 6790 H 632.06 -1.33468 -3.99705 0
M  V30 6791 H 630.735 -0.436552 -3.20743 0
M  V30 6792 H 629.642 -2.67652 -2.61368 0
M  V30 6793 H 630.975 -3.50769 -3.45286 0
M  V30 6794 N 632.627 0.916307 -1.28225 0
M  V30 6795 C 634.043 1.19425 -1.05876 0
M  V30 6796 C 634.243 2.005 0.2005 0
M  V30 6797 O 633.299 2.35806 0.902873 0
M  V30 6798 C 634.612 1.93133 -2.30478 0
M  V30 6799 C 636.16 2.06026 -2.35632 0
M  V30 6800 C 636.635 2.83141 -3.59994 0
M  V30 6801 N 638.126 2.90704 -3.60618 0
M  V30 6802 C 638.861 3.50865 -4.53521 0
M  V30 6803 N 638.357 4.12327 -5.56739 0
M  V30 6804 N 640.15 3.48379 -4.41122 0
M  V30 6805 H 632.301 0.37496 -2.09064 0
M  V30 6806 H 634.564 0.228531 -0.920042 0
M  V30 6807 H 634.27 1.40985 -3.22205 0
M  V30 6808 H 634.144 2.93696 -2.36691 0
M  V30 6809 H 636.531 2.57355 -1.44404 0
M  V30 6810 H 636.612 1.04647 -2.33415 0
M  V30 6811 H 636.256 2.32492 -4.51564 0
M  V30 6812 H 636.186 3.84829 -3.59464 0
M  V30 6813 H 638.677 2.47034 -2.85977 0
M  V30 6814 H 638.99 4.56205 -6.23776 0
M  V30 6815 H 637.335 4.10839 -5.60568 0
M  V30 6816 H 640.526 2.99572 -3.59686 0
M  V30 6817 H 640.699 3.94974 -5.13712 0
M  V30 6818 N 634.105 1.10431 1.1244 0
M  V30 6819 C 635.354 0.841539 1.83306 0
M  V30 6820 C 635.667 -0.634961 1.85007 0
M  V30 6821 O 636.873 -1.01363 2.51869 0
M  V30 6822 C 635.329 1.45565 3.29149 0
M  V30 6823 C 634.937 2.96544 3.35806 0
M  V30 6824 C 636.681 1.27227 4.04986 0
M  V30 6825 C 634.588 3.5099 4.75983 0
M  V30 6826 H 633.518 0.311156 0.686803 0
M  V30 6827 H 636.169 1.32829 1.26604 0
M  V30 6828 H 634.551 0.896574 3.85717 0
M  V30 6829 H 635.725 3.58766 2.89177 0
M  V30 6830 H 634.04 3.14036 2.73442 0
M  V30 6831 H 636.637 1.65348 5.08492 0
M  V30 6832 H 636.98 0.213834 4.1575 0
M  V30 6833 H 637.513 1.79941 3.54776 0
M  V30 6834 H 634.252 4.56499 4.70413 0
M  V30 6835 H 633.772 2.93535 5.23065 0
M  V30 6836 H 635.451 3.48808 5.44924 0
M  V30 6837 N 635.583 -1.29855 0.893053 0
M  V30 6838 C 636.808 -2.00512 0.530066 0
M  V30 6839 C 637.233 -1.66446 -0.876199 0
M  V30 6840 O 636.591 -0.885446 -1.58207 0
M  V30 6841 C 636.639 -3.53308 0.721505 0
M  V30 6842 O 635.743 -4.11764 -0.228994 0
M  V30 6843 H 635.084 -0.630617 0.207891 0
M  V30 6844 H 637.614 -1.6551 1.20282 0
M  V30 6845 H 637.624 -4.03206 0.623599 0
M  V30 6846 H 636.299 -3.77439 1.74678 0
M  V30 6847 H 634.876 -3.72805 -0.0841034 0
M  V30 6848 N 637.061 -0.65484 -1.43351 0
M  V30 6849 C 638.472 -0.248506 -1.85039 0
M  V30 6850 C 638.823 1.20526 -1.54816 0
M  V30 6851 O 637.948 1.92016 -0.99794 0
M  V30 6852 C 638.543 -0.444241 -3.35875 0
M  V30 6853 C 637.102 -0.0922108 -3.76287 0
M  V30 6854 C 636.249 -0.746327 -2.67068 0
M  V30 6855 H 639.2 -0.8584 -1.33481 0
M  V30 6856 H 639.221 0.309762 -3.79237 0
M  V30 6857 H 638.733 -1.50239 -3.5784 0
M  V30 6858 H 636.834 0.96328 -3.59933 0
M  V30 6859 H 636.947 -0.518807 -4.76283 0
M  V30 6860 H 635.311 -0.179416 -2.54067 0
M  V30 6861 H 636.094 -1.80754 -2.91861 0
M  V30 6862 N 638.539 1.52521 -0.396863 0
M  V30 6863 C 639.787 2.01274 0.182536 0
M  V30 6864 C 640.108 1.28485 1.46685 0
M  V30 6865 O 639.378 0.407134 1.91623 0
M  V30 6866 H 637.958 0.743671 0.0704442 0
M  V30 6867 H 640.62 1.87547 -0.530289 0
M  V30 6868 H 639.716 3.09687 0.387385 0
M  V30 6869 N 640.017 0.126909 1.57088 0
M  V30 6870 C 641.266 -0.529024 1.94639 0
M  V30 6871 C 641.579 -1.67323 1.01304 0
M  V30 6872 O 642.785 -2.39245 1.28352 0
M  V30 6873 C 641.241 -0.992483 3.45945 0
M  V30 6874 C 640.849 0.123691 4.47829 0
M  V30 6875 C 642.593 -1.61934 3.924 0
M  V30 6876 C 640.5 -0.356911 5.90322 0
M  V30 6877 H 639.43 -0.201397 0.726605 0
M  V30 6878 H 642.081 0.208032 1.82317 0
M  V30 6879 H 640.463 -1.7842 3.53528 0
M  V30 6880 H 641.637 0.900168 4.51922 0
M  V30 6881 H 639.952 0.657699 4.11173 0
M  V30 6882 H 642.549 -1.9902 4.96281 0
M  V30 6883 H 642.892 -2.50075 3.32819 0
M  V30 6884 H 643.425 -0.892894 3.8765 0
M  V30 6885 H 640.164 0.488636 6.53676 0
M  V30 6886 H 639.684 -1.0997 5.89633 0
M  V30 6887 H 641.363 -0.815547 6.41839 0
M  V30 6888 N 641.495 -1.56914 -0.146875 0
M  V30 6889 C 642.911 -1.51582 -0.499518 0
M  V30 6890 C 643.111 -0.83535 -1.83369 0
M  V30 6891 O 642.167 -0.405932 -2.49216 0
M  V30 6892 C 643.48 -2.96349 -0.509711 0
M  V30 6893 C 645.028 -3.07288 -0.595217 0
M  V30 6894 C 645.503 -4.53562 -0.636071 0
M  V30 6895 N 646.994 -4.57906 -0.69829 0
M  V30 6896 C 647.729 -5.68462 -0.750886 0
M  V30 6897 N 647.225 -6.88588 -0.76282 0
M  V30 6898 N 649.018 -5.56496 -0.791777 0
M  V30 6899 H 641.169 -1.99547 0.727656 0
M  V30 6900 H 643.432 -0.910113 0.265327 0
M  V30 6901 H 643.138 -3.4939 0.402409 0
M  V30 6902 H 643.012 -3.52307 -1.34758 0
M  V30 6903 H 645.399 -2.54266 -1.49776 0
M  V30 6904 H 645.48 -2.54373 0.2698 0
M  V30 6905 H 645.124 -5.07222 0.262313 0
M  V30 6906 H 645.054 -5.04259 -1.51758 0
M  V30 6907 H 647.545 -3.71429 -0.696362 0
M  V30 6908 H 647.858 -7.68598 -0.804804 0
M  V30 6909 H 646.203 -6.91148 -0.730694 0
M  V30 6910 H 649.394 -4.61562 -0.779624 0
M  V30 6911 H 649.567 -6.42671 -0.829301 0
M  V30 6912 N 642.974 0.416227 -1.52004 0
M  V30 6913 C 644.222 1.16153 -1.65387 0
M  V30 6914 C 644.543 1.91208 -0.382669 0
M  V30 6915 O 643.813 1.86413 0.602231 0
M  V30 6916 H 642.393 0.431765 -0.60958 0
M  V30 6917 H 645.055 0.475151 -1.89019 0
M  V30 6918 H 644.151 1.87952 -2.4916 0
M  V30 6919 N 644.452 1.42507 0.673017 0
M  V30 6920 C 645.68 1.46473 1.46128 0
M  V30 6921 C 646.095 0.0765912 1.88645 0
M  V30 6922 O 645.452 -0.909057 1.58248 0
M  V30 6923 C 645.503 2.39339 2.70923 0
M  V30 6924 O 645.224 3.72752 2.3019 0
M  V30 6925 C 646.725 2.52343 3.64469 0
M  V30 6926 H 643.945 0.49812 0.449575 0
M  V30 6927 H 646.489 1.87041 0.826802 0
M  V30 6928 H 644.644 2.02019 3.30556 0
M  V30 6929 H 645.058 4.22503 3.10791 0
M  V30 6930 H 646.532 3.2144 4.48754 0
M  V30 6931 H 647.009 1.56189 4.1049 0
M  V30 6932 H 647.615 2.90392 3.10729 0
M  V30 6933 N 645.93 -0.909495 1.28709 0
M  V30 6934 C 646.88 -1.9991 1.09636 0
M  V30 6935 C 647.864 -1.60889 0.01872 0
M  V30 6936 O 649.056 -1.75374 0.239338 0
M  V30 6937 C 646.185 -3.34675 0.764702 0
M  V30 6938 C 645.271 -3.80085 1.8814 0
M  V30 6939 N 645.662 -3.97824 3.12361 0
M  V30 6940 C 643.96 -4.09278 1.77221 0
M  V30 6941 C 644.661 -4.35928 3.85151 0
M  V30 6942 N 643.637 -4.44426 3.13028 0
M  V30 6943 H 647.439 -2.11681 2.03883 0
M  V30 6944 H 644.953 -1.09763 1.1969 0
M  V30 6945 H 646.95 -4.12426 0.609132 0
M  V30 6946 H 645.61 -3.24255 -0.169952 0
M  V30 6947 H 646.621 -3.83626 3.47925 0
M  V30 6948 H 643.298 -4.0747 0.909621 0
M  V30 6949 H 644.688 -4.57581 4.92006 0
M  V30 6950 N 647.408 -1.11026 -1.11852 0
M  V30 6951 C 648.355 -0.764662 -2.17765 0
M  V30 6952 C 649.325 0.261854 -1.64023 0
M  V30 6953 O 650.51 0.139748 -1.90288 0
M  V30 6954 C 647.65 -0.209317 -3.44465 0
M  V30 6955 C 646.763 -1.29187 -4.12231 0
M  V30 6956 C 645.898 -0.697523 -5.266 0
M  V30 6957 C 644.937 -1.76023 -5.86244 0
M  V30 6958 N 644.074 -1.18569 -6.92016 0
M  V30 6959 H 648.914 -1.67202 -2.46673 0
M  V30 6960 H 646.451 -0.835065 -1.21099 0
M  V30 6961 H 648.409 0.130599 -4.16996 0
M  V30 6962 H 647.039 0.661251 -3.15955 0
M  V30 6963 H 646.091 -1.74881 -3.37818 0
M  V30 6964 H 647.403 -2.09607 -4.52622 0
M  V30 6965 H 646.557 -0.307412 -6.05921 0
M  V30 6966 H 645.296 0.138044 -4.87505 0
M  V30 6967 H 644.301 -2.1597 -5.05606 0
M  V30 6968 H 645.526 -2.59875 -6.27409 0
M  V30 6969 H 643.472 -0.371695 -6.54946 0
M  V30 6970 H 643.389 -1.92666 -7.31038 0
M  V30 6971 H 644.657 -0.82233 -7.7515 0
M  V30 6972 N 648.886 1.2938 -0.899927 0
M  V30 6973 C 649.816 2.30144 -0.39446 0
M  V30 6974 C 650.797 1.61611 0.530639 0
M  V30 6975 O 651.982 1.89119 0.441319 0
M  V30 6976 C 649.112 3.45229 0.37868 0
M  V30 6977 C 648.066 4.25564 -0.456012 0
M  V30 6978 C 647.392 5.32848 0.444637 0
M  V30 6979 C 648.692 4.93651 -1.70605 0
M  V30 6980 H 650.386 2.72673 -1.23653 0
M  V30 6981 H 647.932 1.31086 -0.596034 0
M  V30 6982 H 649.885 4.14797 0.743037 0
M  V30 6983 H 648.609 3.01545 1.25453 0
M  V30 6984 H 647.268 3.57704 -0.802704 0
M  V30 6985 H 646.916 4.85408 1.31863 0
M  V30 6986 H 646.616 5.87497 -0.110154 0
M  V30 6987 H 648.14 6.05268 0.805182 0
M  V30 6988 H 649.554 5.55655 -1.41141 0
M  V30 6989 H 647.951 5.58233 -2.20217 0
M  V30 6990 H 649.021 4.18926 -2.4419 0
M  V30 6991 N 650.364 0.662433 1.43002 0
M  V30 6992 C 651.775 0.258315 1.84904 0
M  V30 6993 C 652.126 -1.19703 1.55453 0
M  V30 6994 O 651.251 -1.91484 1.00811 0
M  V30 6995 C 651.846 0.462047 3.35635 0
M  V30 6996 C 650.405 0.112165 3.76233 0
M  V30 6997 C 649.552 0.760479 2.66668 0
M  V30 6998 H 652.503 0.865467 1.33024 0
M  V30 6999 H 652.524 -0.289646 3.79396 0
M  V30 7000 H 652.036 1.52135 3.57039 0
M  V30 7001 H 650.137 -0.944179 3.60439 0
M  V30 7002 H 650.25 0.544058 4.76001 0
M  V30 7003 H 648.614 0.192887 2.53969 0
M  V30 7004 H 649.397 1.82299 2.90898 0
M  V30 7005 N 651.842 -1.52309 0.404946 0
M  V30 7006 C 653.258 -1.59503 0.0556255 0
M  V30 7007 C 653.458 -1.41805 -1.43156 0
M  V30 7008 O 652.514 -1.2429 -2.19792 0
M  V30 7009 C 653.827 -2.95687 0.546801 0
M  V30 7010 C 655.375 -3.08909 0.504413 0
M  V30 7011 C 655.85 -4.47566 0.97203 0
M  V30 7012 N 657.341 -4.53795 0.928679 0
M  V30 7013 C 658.076 -5.59346 1.26174 0
M  V30 7014 N 657.572 -6.72469 1.66604 0
M  V30 7015 N 659.365 -5.49532 1.18198 0
M  V30 7016 H 651.516 -1.6206 1.37296 0
M  V30 7017 H 653.779 -0.762161 0.563751 0
M  V30 7018 H 653.485 -3.13905 1.58609 0
M  V30 7019 H 653.359 -3.77172 -0.0457905 0
M  V30 7020 H 655.746 -2.90378 -0.525819 0
M  V30 7021 H 655.827 -2.2934 1.13301 0
M  V30 7022 H 655.471 -4.6684 2.00057 0
M  V30 7023 H 655.401 -5.25625 0.320292 0
M  V30 7024 H 657.892 -3.72588 0.631369 0
M  V30 7025 H 658.205 -7.48993 1.9034 0
M  V30 7026 H 656.55 -6.73761 1.70504 0
M  V30 7027 H 659.741 -4.60038 0.865011 0
M  V30 7028 H 659.914 -6.31687 1.44485 0
M  V30 7029 N 653.32 -0.135238 -1.57019 0
M  V30 7030 C 654.27 0.820408 -2.12728 0
M  V30 7031 C 655.254 1.21735 -1.05211 0
M  V30 7032 O 656.446 1.18574 -1.31413 0
M  V30 7033 C 653.575 2.06414 -2.74314 0
M  V30 7034 C 652.661 1.69083 -3.88937 0
M  V30 7035 N 653.052 1.0251 -4.95303 0
M  V30 7036 C 651.35 1.98434 -3.99425 0
M  V30 7037 C 652.051 0.846749 -5.75504 0
M  V30 7038 N 651.027 1.3769 -5.25873 0
M  V30 7039 H 654.829 0.302426 -2.9234 0
M  V30 7040 H 652.343 0.0667009 -1.62263 0
M  V30 7041 H 654.34 2.75863 -3.12579 0
M  V30 7042 H 653 2.58741 -1.96171 0
M  V30 7043 H 654.011 0.687207 -5.1332 0
M  V30 7044 H 650.688 2.52693 -3.32344 0
M  V30 7045 H 652.078 0.322949 -6.71123 0
M  V30 7046 N 654.798 1.5699 0.138552 0
M  V30 7047 C 656.214 1.51844 0.491472 0
M  V30 7048 C 656.414 0.845063 1.82923 0
M  V30 7049 O 655.47 0.419143 2.48997 0
M  V30 7050 C 656.783 2.96615 0.493987 0
M  V30 7051 C 658.331 3.076 0.578913 0
M  V30 7052 C 658.806 4.53893 0.612009 0
M  V30 7053 N 660.297 4.5827 0.673997 0
M  V30 7054 C 661.032 5.68852 0.720729 0
M  V30 7055 N 660.528 6.88982 0.726292 0
M  V30 7056 N 662.321 5.56908 0.762253 0
M  V30 7057 H 654.472 1.99158 -0.738228 0
M  V30 7058 H 656.735 0.908693 -0.270149 0
M  V30 7059 H 656.441 3.49172 -0.420933 0
M  V30 7060 H 656.315 3.53017 1.32887 0
M  V30 7061 H 658.702 2.55057 1.48425 0
M  V30 7062 H 658.783 2.54227 -0.283286 0
M  V30 7063 H 658.427 5.07076 -0.289208 0
M  V30 7064 H 658.357 5.05057 1.49082 0
M  V30 7065 H 660.848 3.71793 0.676654 0
M  V30 7066 H 661.161 7.69014 0.764032 0
M  V30 7067 H 659.506 6.91526 0.69403 0
M  V30 7068 H 662.697 4.61969 0.755135 0
M  V30 7069 H 662.87 6.43102 0.795207 0
M  V30 7070 N 656.276 -0.40816 1.52223 0
M  V30 7071 C 657.687 -0.986929 1.58482 0
M  V30 7072 C 658.038 -1.91521 0.425917 0
M  V30 7073 O 657.163 -2.11593 -0.453593 0
M  V30 7074 C 657.758 -1.7967 2.87235 0
M  V30 7075 C 656.317 -2.32549 2.9597 0
M  V30 7076 C 655.464 -1.12558 2.53428 0
M  V30 7077 H 658.415 -0.188362 1.57578 0
M  V30 7078 H 658.436 -2.65417 2.72642 0
M  V30 7079 H 657.948 -1.12082 3.71563 0
M  V30 7080 H 656.049 -3.03505 2.16137 0
M  V30 7081 H 656.162 -2.63348 4.00231 0
M  V30 7082 H 654.526 -1.47984 2.07299 0
M  V30 7083 H 655.309 -0.465351 3.40131 0
M  V30 7084 N 657.755 -1.42862 -0.66545 0
M  V30 7085 C 658.685 -1.49867 -1.79059 0
M  V30 7086 C 659.666 -0.354394 -1.66367 0
M  V30 7087 O 660.851 -0.569969 -1.85647 0
M  V30 7088 C 657.981 -1.40943 -3.17415 0
M  V30 7089 C 656.935 -2.53495 -3.44854 0
M  V30 7090 C 656.261 -2.29626 -4.82883 0
M  V30 7091 C 657.561 -3.95781 -3.40815 0
M  V30 7092 H 659.255 -2.44037 -1.73453 0
M  V30 7093 H 656.801 -1.17456 -0.833071 0
M  V30 7094 H 658.754 -1.4445 -3.95869 0
M  V30 7095 H 657.478 -0.432716 -3.23721 0
M  V30 7096 H 656.137 -2.4932 -2.68766 0
M  V30 7097 H 655.785 -1.30226 -4.8585 0
M  V30 7098 H 655.485 -3.05065 -5.02204 0
M  V30 7099 H 657.009 -2.34897 -5.63609 0
M  V30 7100 H 658.423 -4.01508 -4.09224 0
M  V30 7101 H 656.82 -4.71148 -3.71672 0
M  V30 7102 H 657.89 -4.21786 -2.39216 0
M  V30 7103 N 659.233 0.902656 -1.29189 0
M  V30 7104 C 660.181 2.0278 -1.13943 0
M  V30 7105 C 661.175 1.69308 -0.055787 0
M  V30 7106 O 662.381 1.78707 -0.215371 0
M  V30 7107 H 658.756 0.664595 -0.351877 0
M  V30 7108 H 660.727 2.12778 -2.09208 0
M  V30 7109 C 659.476 3.37657 -0.82966 0
M  V30 7110 H 658.799 3.63913 -1.65551 0
M  V30 7111 H 660.239 4.17078 -0.762998 0
M  V30 7112 C 658.698 3.33648 0.466991 0
M  V30 7113 O 659.228 3.72886 1.49395 0
M  V30 7114 N 657.434 2.86745 0.471761 0
M  V30 7115 H 656.981 2.55009 -0.364406 0
M  V30 7116 H 656.939 2.84446 1.33933 0
M  V30 7117 N 660.711 1.11618 1.11262 0
M  V30 7118 C 662.127 0.850468 1.35053 0
M  V30 7119 C 662.327 -0.523868 1.94571 0
M  V30 7120 O 661.383 -1.2743 2.17986 0
M  V30 7121 C 662.696 1.96005 2.28041 0
M  V30 7122 C 664.244 1.98993 2.416 0
M  V30 7123 C 664.719 3.0916 3.37911 0
M  V30 7124 N 666.21 3.08547 3.45475 0
M  V30 7125 C 666.945 3.9043 4.19943 0
M  V30 7126 N 666.441 4.8228 4.97371 0
M  V30 7127 N 668.234 3.786 4.15474 0
M  V30 7128 H 660.385 2.00184 0.709932 0
M  V30 7129 H 662.648 0.870635 0.375099 0
M  V30 7130 H 662.354 2.9499 1.91503 0
M  V30 7131 H 662.228 1.85782 3.28275 0
M  V30 7132 H 664.615 1.00633 2.77411 0
M  V30 7133 H 664.696 2.13292 1.4121 0
M  V30 7134 H 664.34 4.07748 3.02827 0
M  V30 7135 H 664.27 2.92102 4.3816 0
M  V30 7136 H 666.761 2.42 2.90249 0
M  V30 7137 H 667.074 5.41289 5.51567 0
M  V30 7138 H 665.419 4.863 4.96525 0
M  V30 7139 H 668.61 3.06185 3.54074 0
M  V30 7140 H 668.783 4.42647 4.73253 0
M  V30 7141 N 662.189 -1.289 0.906776 0
M  V30 7142 C 663.417 -1.99401 0.551969 0
M  V30 7143 C 663.832 -1.67816 -0.865048 0
M  V30 7144 O 663.189 -0.927078 -1.57199 0
M  V30 7145 C 663.24 -3.53779 0.743152 0
M  V30 7146 O 662.961 -3.84248 2.1044 0
M  V30 7147 C 664.462 -4.41543 0.39424 0
M  V30 7148 H 661.682 -0.636926 0.211106 0
M  V30 7149 H 664.226 -1.64266 1.21807 0
M  V30 7150 H 662.381 -3.87201 0.124143 0
M  V30 7151 H 662.795 -4.78904 2.13895 0
M  V30 7152 H 664.269 -5.48957 0.578814 0
M  V30 7153 H 664.746 -4.34073 -0.669137 0
M  V30 7154 H 665.352 -4.13605 0.990491 0
M  V30 7155 N 663.667 -0.670007 -1.42649 0
M  V30 7156 C 664.599 0.0501746 -2.29145 0
M  V30 7157 C 665.612 0.770331 -1.43422 0
M  V30 7158 O 666.801 0.625288 -1.6719 0
M  V30 7159 C 663.901 1.09463 -3.20735 0
M  V30 7160 C 663.074 0.44926 -4.35087 0
M  V30 7161 C 662.133 1.39285 -5.07431 0
M  V30 7162 O 661.159 0.894997 -5.6212 0
M  V30 7163 N 662.361 2.72631 -5.12496 0
M  V30 7164 H 665.126 -0.692312 -2.91594 0
M  V30 7165 H 662.687 -0.514056 -1.53522 0
M  V30 7166 H 664.679 1.72705 -3.65999 0
M  V30 7167 H 663.249 1.73891 -2.59771 0
M  V30 7168 H 662.469 -0.362573 -3.92529 0
M  V30 7169 H 663.757 -0.000544776 -5.088 0
M  V30 7170 H 663.155 3.15623 -4.69467 0
M  V30 7171 H 661.712 3.31132 -5.61422 0
M  V30 7172 N 665.145 1.52092 -0.413018 0
M  V30 7173 C 666.37 2.06756 0.163338 0
M  V30 7174 C 666.795 1.28073 1.37764 0
M  V30 7175 O 666.153 0.312015 1.78595 0
M  V30 7176 C 666.201 3.57278 0.488322 0
M  V30 7177 O 665.305 3.80986 1.57871 0
M  V30 7178 H 664.646 0.663882 0.0125068 0
M  V30 7179 H 667.176 1.95988 -0.587339 0
M  V30 7180 H 667.186 4.01125 0.745836 0
M  V30 7181 H 665.861 4.13978 -0.399327 0
M  V30 7182 H 664.438 3.49017 1.31306 0
M  V30 7183 N 666.623 0.143563 1.56945 0
M  V30 7184 C 667.586 -0.783295 2.154 0
M  V30 7185 C 668.586 -1.17763 1.09492 0
M  V30 7186 O 669.776 -1.09912 1.35148 0
M  V30 7187 C 666.908 -2.06248 2.7143 0
M  V30 7188 H 668.101 -0.274863 2.98638 0
M  V30 7189 H 665.654 -0.105859 1.55941 0
M  V30 7190 H 666.389 -2.61466 1.91849 0
M  V30 7191 H 666.174 -1.78897 3.4891 0
M  V30 7192 H 667.664 -2.72453 3.16479 0
M  V30 7193 N 668.101 -1.57061 -0.130224 0
M  V30 7194 C 669.512 -1.73539 -0.68856 0
M  V30 7195 C 669.863 -0.760554 -1.80859 0
M  V30 7196 O 668.988 0.0690796 -2.1629 0
M  V30 7197 C 669.583 -3.14666 -1.25581 0
M  V30 7198 C 668.142 -3.32689 -1.76055 0
M  V30 7199 C 667.289 -2.69436 -0.655712 0
M  V30 7200 H 670.24 -1.58412 0.0956002 0
M  V30 7201 H 670.261 -3.15595 -2.12556 0
M  V30 7202 H 669.773 -3.85593 -0.440412 0
M  V30 7203 H 667.874 -2.66786 -2.60108 0
M  V30 7204 H 667.987 -4.4077 -1.87772 0
M  V30 7205 H 666.351 -2.30362 -1.08654 0
M  V30 7206 H 667.134 -3.42979 0.14852 0
M  V30 7207 N 669.579 0.400081 -1.52437 0
M  V30 7208 C 670.509 1.4947 -1.7939 0
M  V30 7209 C 671.49 1.57383 -0.645329 0
M  V30 7210 O 672.675 1.72511 -0.891826 0
M  V30 7211 C 669.805 2.87201 -1.95276 0
M  V30 7212 C 668.759 2.94134 -3.10917 0
M  V30 7213 C 668.085 4.34207 -3.1204 0
M  V30 7214 C 669.385 2.64791 -4.50203 0
M  V30 7215 H 671.079 1.27165 -2.71052 0
M  V30 7216 H 668.625 0.610312 -1.30427 0
M  V30 7217 H 670.578 3.63772 -2.12715 0
M  V30 7218 H 669.302 3.10819 -1.00294 0
M  V30 7219 H 667.961 2.20009 -2.93243 0
M  V30 7220 H 667.609 4.54848 -2.14761 0
M  V30 7221 H 667.309 4.39768 -3.89715 0
M  V30 7222 H 668.833 5.127 -3.31619 0
M  V30 7223 H 670.247 3.31083 -4.68035 0
M  V30 7224 H 668.644 2.81717 -5.29864 0
M  V30 7225 H 669.714 1.60184 -4.57678 0
M  V30 7226 N 671.057 1.43213 0.657864 0
M  V30 7227 C 672.468 1.39669 1.23893 0
M  V30 7228 C 672.819 0.0984217 1.95953 0
M  V30 7229 O 671.944 -0.8023 2.00978 0
M  V30 7230 C 672.539 2.53004 2.25332 0
M  V30 7231 C 671.098 2.5274 2.78926 0
M  V30 7232 C 670.245 2.30941 1.53497 0
M  V30 7233 H 673.196 1.52181 0.450172 0
M  V30 7234 H 673.217 2.24226 3.07413 0
M  V30 7235 H 672.729 3.4748 1.72856 0
M  V30 7236 H 670.83 1.6213 3.35477 0
M  V30 7237 H 670.943 3.50352 3.26787 0
M  V30 7238 H 669.307 1.7952 1.80678 0
M  V30 7239 H 670.09 3.27496 1.02963 0
M  V30 7240 N 672.536 -0.895792 1.29666 0
M  V30 7241 C 673.468 -2.00563 1.10937 0
M  V30 7242 C 674.481 -1.62705 0.055734 0
M  V30 7243 O 675.67 -1.7595 0.300656 0
M  V30 7244 C 672.77 -3.32262 0.667448 0
M  V30 7245 C 671.943 -3.98625 1.80047 0
M  V30 7246 C 671.002 -5.08617 1.3489 0
M  V30 7247 O 670.028 -5.30837 2.05429 0
M  V30 7248 N 671.23 -5.80076 0.221937 0
M  V30 7249 H 673.995 -2.17184 2.06522 0
M  V30 7250 H 671.556 -1.06822 1.21658 0
M  V30 7251 H 673.548 -4.03196 0.348586 0
M  V30 7252 H 672.118 -3.11985 -0.196055 0
M  V30 7253 H 671.338 -3.21005 2.28801 0
M  V30 7254 H 672.626 -4.39704 2.56003 0
M  V30 7255 H 672.024 -5.64514 -0.366084 0
M  V30 7256 H 670.581 -6.51789 -0.0375346 0
M  V30 7257 N 674.014 -1.12206 -1.10668 0
M  V30 7258 C 675.239 -0.898938 -1.86906 0
M  V30 7259 C 675.664 0.546346 -1.79991 0
M  V30 7260 O 675.022 1.38655 -1.1681 0
M  V30 7261 C 675.07 -1.37529 -3.33344 0
M  V30 7262 O 674.174 -0.55218 -4.08687 0
M  V30 7263 H 673.515 -0.323163 -0.580053 0
M  V30 7264 H 676.045 -1.49355 -1.39837 0
M  V30 7265 H 676.055 -1.3733 -3.84193 0
M  V30 7266 H 674.73 -2.42767 -3.37693 0
M  V30 7267 H 673.307 -0.620947 -3.67694 0
M  V30 7268 N 675.492 1.28418 -0.913599 0
M  V30 7269 C 676.72 1.99106 -0.562536 0
M  V30 7270 C 677.135 1.68273 0.856137 0
M  V30 7271 O 676.492 0.935401 1.56705 0
M  V30 7272 C 676.543 3.5338 -0.761903 0
M  V30 7273 O 676.264 3.83127 -2.12475 0
M  V30 7274 C 677.765 4.41328 -0.417651 0
M  V30 7275 H 674.985 0.635798 -0.214481 0
M  V30 7276 H 677.529 1.63618 -1.22676 0
M  V30 7277 H 675.684 3.8713 -0.144676 0
M  V30 7278 H 676.098 4.77763 -2.16431 0
M  V30 7279 H 677.572 5.48642 -0.607919 0
M  V30 7280 H 678.049 4.34422 0.646108 0
M  V30 7281 H 678.655 4.13074 -1.01241 0
M  V30 7282 N 676.97 0.677563 1.42291 0
M  V30 7283 C 677.9 0.014968 2.33495 0
M  V30 7284 C 678.881 -0.786376 1.50831 0
M  V30 7285 O 680.066 -0.742975 1.79426 0
M  V30 7286 C 677.196 -0.935023 3.34477 0
M  V30 7287 C 676.15 -0.242074 4.27315 0
M  V30 7288 C 675.476 -1.30519 5.18526 0
M  V30 7289 C 676.776 0.880604 5.14823 0
M  V30 7290 H 678.47 0.776671 2.89151 0
M  V30 7291 H 676.016 0.37494 1.39033 0
M  V30 7292 H 677.969 -1.40766 3.97194 0
M  V30 7293 H 676.693 -1.72818 2.77131 0
M  V30 7294 H 675.352 0.210351 3.65996 0
M  V30 7295 H 675 -2.09041 4.57505 0
M  V30 7296 H 674.7 -0.846652 5.81468 0
M  V30 7297 H 676.224 -1.7787 5.84119 0
M  V30 7298 H 677.638 0.489062 5.7121 0
M  V30 7299 H 676.035 1.26511 5.86613 0
M  V30 7300 H 677.105 1.72818 4.53059 0
M  V30 7301 N 678.448 -1.51871 0.421078 0
M  V30 7302 C 679.411 -2.25914 -0.386712 0
M  V30 7303 C 680.411 -1.28733 -0.963555 0
M  V30 7304 O 681.601 -1.52579 -0.840556 0
M  V30 7305 C 678.733 -3.03853 -1.54551 0
M  V30 7306 H 679.926 -2.98754 0.261978 0
M  V30 7307 H 677.479 -1.5533 0.173862 0
M  V30 7308 H 678.214 -2.35392 -2.23072 0
M  V30 7309 H 677.999 -3.75215 -1.13824 0
M  V30 7310 H 679.489 -3.59984 -2.11663 0
M  V30 7311 N 679.926 -0.151884 -1.56866 0
M  V30 7312 C 680.858 0.817008 -2.14144 0
M  V30 7313 C 681.871 1.20735 -1.0921 0
M  V30 7314 O 683.06 1.15058 -1.36469 0
M  V30 7315 C 680.16 2.10844 -2.65326 0
M  V30 7316 C 679.333 1.88471 -3.94712 0
M  V30 7317 C 678.392 3.01649 -4.31155 0
M  V30 7318 O 677.418 2.73127 -4.9939 0
M  V30 7319 N 678.62 4.28947 -3.91132 0
M  V30 7320 H 681.385 0.327448 -2.97906 0
M  V30 7321 H 678.946 0.0315313 -1.61869 0
M  V30 7322 H 680.938 2.85616 -2.86715 0
M  V30 7323 H 679.508 2.51049 -1.86262 0
M  V30 7324 H 678.728 0.977088 -3.81899 0
M  V30 7325 H 680.016 1.70866 -4.79252 0
M  V30 7326 H 679.414 4.54986 -3.36161 0
M  V30 7327 H 677.971 5.00484 -4.17563 0
M  V30 7328 N 681.404 1.57128 0.121893 0
M  V30 7329 C 682.334 2.03165 1.15092 0
M  V30 7330 C 683.315 0.915587 1.43356 0
M  V30 7331 O 684.5 1.1851 1.53847 0
M  V30 7332 C 681.63 2.43352 2.47784 0
M  V30 7333 C 680.584 3.58376 2.33989 0
M  V30 7334 C 679.91 3.84454 3.71617 0
M  V30 7335 C 681.21 4.90199 1.80283 0
M  V30 7336 H 682.904 2.89382 0.768023 0
M  V30 7337 H 680.45 1.39218 0.367998 0
M  V30 7338 H 682.403 2.74163 3.20019 0
M  V30 7339 H 681.127 1.54103 2.87958 0
M  V30 7340 H 679.786 3.2777 1.64202 0
M  V30 7341 H 679.434 2.92414 4.09271 0
M  V30 7342 H 679.134 4.61877 3.6324 0
M  V30 7343 H 680.658 4.17714 4.45362 0
M  V30 7344 H 682.072 5.19565 2.42333 0
M  V30 7345 H 680.469 5.71601 1.82735 0
M  V30 7346 H 681.539 4.78904 0.760184 0
M  V30 7347 N 682.882 -0.391992 1.52647 0
M  V30 7348 C 684.128 -1.139 1.67793 0
M  V30 7349 C 684.461 -1.89711 0.41514 0
M  V30 7350 O 683.736 -1.85431 -0.586979 0
M  V30 7351 C 684.019 -2.11966 2.91105 0
M  V30 7352 C 683.872 -1.39939 4.27478 0
M  V30 7353 C 685.191 -3.1243 3.09961 0
M  V30 7354 H 682.31 -0.412707 0.610608 0
M  V30 7355 H 684.952 -0.422725 1.85238 0
M  V30 7356 H 683.102 -2.73048 2.76364 0
M  V30 7357 H 684.774 -0.818439 4.53982 0
M  V30 7358 H 683.017 -0.701246 4.28095 0
M  V30 7359 H 683.688 -2.1158 5.09841 0
M  V30 7360 H 686.164 -2.61435 3.23714 0
M  V30 7361 H 685.04 -3.78294 3.97725 0
M  V30 7362 H 685.301 -3.81127 2.24042 0
M  V30 7363 N 684.36 -1.4356 -0.65026 0
M  V30 7364 C 685.609 -1.44619 -1.406 0
M  V30 7365 C 685.922 -0.0752645 -1.95455 0
M  V30 7366 O 687.128 0.0366832 -2.71475 0
M  V30 7367 C 685.584 -2.54511 -2.54465 0
M  V30 7368 C 685.192 -3.97723 -2.06204 0
M  V30 7369 C 686.936 -2.64768 -3.31811 0
M  V30 7370 C 684.843 -4.99075 -3.17298 0
M  V30 7371 H 683.773 -0.537983 -0.52829 0
M  V30 7372 H 686.424 -1.69559 -0.701561 0
M  V30 7373 H 684.806 -2.22777 -3.27393 0
M  V30 7374 H 685.98 -4.38932 -1.40267 0
M  V30 7375 H 684.295 -3.91538 -1.41729 0
M  V30 7376 H 686.892 -3.37664 -4.14593 0
M  V30 7377 H 687.235 -1.69936 -3.80036 0
M  V30 7378 H 687.768 -2.95817 -2.65964 0
M  V30 7379 H 684.507 -5.95469 -2.74038 0
M  V30 7380 H 684.027 -4.62476 -3.81937 0
M  V30 7381 H 685.706 -5.21913 -3.82382 0
M  V30 7382 N 685.838 0.888903 -1.30139 0
M  V30 7383 C 686.77 1.99972 -1.11999 0
M  V30 7384 C 687.783 1.62673 -0.0643619 0
M  V30 7385 O 688.972 1.75788 -0.309983 0
M  V30 7386 C 686.072 3.31904 -0.685059 0
M  V30 7387 C 685.245 3.97665 -1.82158 0
M  V30 7388 C 684.304 5.07894 -1.37585 0
M  V30 7389 O 683.33 5.2974 -2.08241 0
M  V30 7390 N 684.532 5.7995 -0.252697 0
M  V30 7391 H 687.297 2.16085 -2.07671 0
M  V30 7392 H 684.858 1.06175 -1.22223 0
M  V30 7393 H 686.85 4.03005 -0.369964 0
M  V30 7394 H 685.42 3.12084 0.179507 0
M  V30 7395 H 684.64 3.19787 -2.305 0
M  V30 7396 H 685.928 4.3834 -2.58332 0
M  V30 7397 H 685.326 5.647 0.336141 0
M  V30 7398 H 683.883 6.518 0.00296813 0
M  V30 7399 N 687.317 1.12792 1.10072 0
M  V30 7400 C 688.249 0.757003 2.16338 0
M  V30 7401 C 689.262 -0.218144 1.61332 0
M  V30 7402 O 690.451 0.0010727 1.785 0
M  V30 7403 C 687.551 0.100303 3.38752 0
M  V30 7404 C 686.724 1.10586 4.2319 0
M  V30 7405 C 685.783 0.47609 5.24042 0
M  V30 7406 O 684.809 1.13418 5.57786 0
M  V30 7407 N 686.011 -0.754823 5.75572 0
M  V30 7408 H 688.776 1.6714 2.48766 0
M  V30 7409 H 686.337 1.02003 1.25726 0
M  V30 7410 H 688.329 -0.333092 4.03327 0
M  V30 7411 H 686.899 -0.716915 3.04268 0
M  V30 7412 H 686.119 1.71677 3.54853 0
M  V30 7413 H 687.407 1.78571 4.76435 0
M  V30 7414 H 686.805 -1.30838 5.50362 0
M  V30 7415 H 685.362 -1.13098 6.41913 0
M  V30 7416 N 688.795 -1.27931 0.920396 0
M  V30 7417 C 689.727 -2.26175 0.371169 0
M  V30 7418 C 690.74 -1.55122 -0.494065 0
M  V30 7419 O 691.929 -1.75825 -0.30787 0
M  V30 7420 C 689.029 -3.35376 -0.487481 0
M  V30 7421 C 688.202 -4.35943 0.356772 0
M  V30 7422 C 687.261 -5.24374 -0.438042 0
M  V30 7423 O 686.287 -5.68998 0.151715 0
M  V30 7424 N 687.489 -5.53823 -1.73956 0
M  V30 7425 H 690.254 -2.73938 1.21564 0
M  V30 7426 H 687.815 -1.41482 0.787047 0
M  V30 7427 H 689.807 -3.91476 -1.02609 0
M  V30 7428 H 688.377 -2.87269 -1.23269 0
M  V30 7429 H 687.597 -3.7921 1.07672 0
M  V30 7430 H 688.885 -5.0015 0.934206 0
M  V30 7431 H 688.283 -5.19413 -2.24114 0
M  V30 7432 H 686.84 -6.12653 -2.22486 0
M  V30 7433 N 690.273 -0.685099 -1.4193 0
M  V30 7434 C 691.223 0.00977295 -2.27998 0
M  V30 7435 C 692.207 0.763315 -1.41641 0
M  V30 7436 O 693.399 0.640532 -1.65004 0
M  V30 7437 C 690.528 0.952972 -3.29808 0
M  V30 7438 C 689.614 0.196231 -4.23646 0
M  V30 7439 N 690.005 -0.804401 -4.99363 0
M  V30 7440 C 688.303 0.433213 -4.43891 0
M  V30 7441 C 689.004 -1.25646 -5.67968 0
M  V30 7442 N 687.98 -0.5844 -5.4045 0
M  V30 7443 H 691.782 -0.757586 -2.83968 0
M  V30 7444 H 689.296 -0.515037 -1.54017 0
M  V30 7445 H 691.293 1.46585 -3.9028 0
M  V30 7446 H 689.953 1.72004 -2.75399 0
M  V30 7447 H 690.964 -1.18429 -5.04177 0
M  V30 7448 H 687.641 1.17899 -4.00507 0
M  V30 7449 H 689.031 -2.08622 -6.38691 0
M  V30 7450 N 691.751 1.51645 -0.429126 0
M  V30 7451 C 692.683 2.25279 0.422124 0
M  V30 7452 C 693.696 1.28986 0.993299 0
M  V30 7453 O 694.885 1.54797 0.888836 0
M  V30 7454 C 691.985 2.98666 1.60162 0
M  V30 7455 C 691.158 4.2199 1.15078 0
M  V30 7456 C 690.217 4.78028 2.19946 0
M  V30 7457 O 689.243 5.40084 1.79716 0
M  V30 7458 N 690.445 4.61342 3.5234 0
M  V30 7459 H 693.21 2.98971 -0.208931 0
M  V30 7460 H 690.771 1.59838 -0.257568 0
M  V30 7461 H 692.763 3.33044 2.29922 0
M  V30 7462 H 691.333 2.28036 2.13818 0
M  V30 7463 H 690.553 3.932 0.280552 0
M  V30 7464 H 691.841 5.02037 0.826831 0
M  V30 7465 H 691.239 4.11894 3.87763 0
M  V30 7466 H 689.796 5.00104 4.18019 0
M  V30 7467 N 693.229 0.160201 1.56784 0
M  V30 7468 C 694.161 -0.80564 2.14574 0
M  V30 7469 C 695.174 -1.20154 1.09849 0
M  V30 7470 O 696.363 -1.14333 1.37078 0
M  V30 7471 C 693.463 -2.09434 2.6644 0
M  V30 7472 C 692.636 -1.86375 3.95706 0
M  V30 7473 C 691.695 -2.99358 4.32749 0
M  V30 7474 O 690.721 -2.70475 5.00831 0
M  V30 7475 N 691.923 -4.26867 3.93402 0
M  V30 7476 H 694.688 -0.311644 2.98075 0
M  V30 7477 H 692.249 -0.0229465 1.61884 0
M  V30 7478 H 694.241 -2.84091 2.88226 0
M  V30 7479 H 692.811 -2.50057 1.8759 0
M  V30 7480 H 692.031 -0.956821 3.82412 0
M  V30 7481 H 693.319 -1.68322 4.80151 0
M  V30 7482 H 692.717 -4.53197 3.38569 0
M  V30 7483 H 691.274 -4.98263 4.20211 0
M  V30 7484 N 694.707 -1.5719 -0.113559 0
M  V30 7485 C 695.954 -1.85138 -0.820382 0
M  V30 7486 C 696.282 -0.74608 -1.79622 0
M  V30 7487 O 695.537 0.262077 -1.93937 0
M  V30 7488 C 695.836 -3.19593 -1.59984 0
M  V30 7489 C 695.502 -4.44315 -0.767809 0
M  V30 7490 C 694.164 -4.78179 -0.538379 0
M  V30 7491 C 696.516 -5.2086 -0.188203 0
M  V30 7492 C 693.844 -5.86028 0.28082 0
M  V30 7493 C 696.196 -6.29572 0.618217 0
M  V30 7494 C 694.86 -6.61964 0.857912 0
M  V30 7495 H 694.13 -0.677467 -0.300199 0
M  V30 7496 H 696.777 -1.91322 -0.0825443 0
M  V30 7497 H 695.082 -3.0901 -2.40874 0
M  V30 7498 H 696.779 -3.3844 -2.1508 0
M  V30 7499 H 693.369 -4.17786 -0.956724 0
M  V30 7500 H 697.553 -4.95045 -0.352658 0
M  V30 7501 H 692.809 -6.09547 0.475693 0
M  V30 7502 H 696.983 -6.88064 1.0743 0
M  V30 7503 H 694.61 -7.45365 1.49451 0
M  V30 7504 N 696.185 0.383891 -1.52853 0
M  V30 7505 C 697.115 1.47559 -1.80965 0
M  V30 7506 C 698.096 1.5669 -0.661986 0
M  V30 7507 O 699.281 1.71556 -0.910072 0
M  V30 7508 C 696.411 2.85114 -1.98312 0
M  V30 7509 C 695.365 2.9082 -3.14019 0
M  V30 7510 C 694.691 4.30873 -3.16627 0
M  V30 7511 C 695.991 2.60001 -4.52986 0
M  V30 7512 H 697.685 1.24283 -2.72386 0
M  V30 7513 H 695.231 0.596445 -1.31067 0
M  V30 7514 H 697.184 3.61496 -2.16561 0
M  V30 7515 H 695.908 3.09738 -1.03585 0
M  V30 7516 H 694.567 2.16886 -2.9556 0
M  V30 7517 H 694.215 4.52545 -2.19573 0
M  V30 7518 H 693.915 4.3561 -3.94357 0
M  V30 7519 H 695.439 5.09154 -3.37038 0
M  V30 7520 H 696.853 3.261 -4.71521 0
M  V30 7521 H 695.25 2.76081 -5.32822 0
M  V30 7522 H 696.32 1.5532 -4.59351 0
M  V30 7523 N 697.663 1.43903 0.642637 0
M  V30 7524 C 698.573 1.52349 1.78401 0
M  V30 7525 C 699.589 0.409869 1.69104 0
M  V30 7526 O 700.765 0.665548 1.90085 0
M  V30 7527 C 697.83 1.45408 3.14734 0
M  V30 7528 C 696.891 2.67528 3.35749 0
M  V30 7529 C 696.124 2.60909 4.65577 0
M  V30 7530 O 696.347 1.6627 5.45628 0
M  V30 7531 O 695.281 3.5158 4.88544 0
M  V30 7532 H 699.107 2.48752 1.7423 0
M  V30 7533 H 696.692 1.26021 0.802439 0
M  V30 7534 H 698.574 1.44019 3.96026 0
M  V30 7535 H 697.249 0.521437 3.19473 0
M  V30 7536 H 696.156 2.74487 2.5418 0
M  V30 7537 H 697.489 3.598 3.35864 0
M  V30 7538 N 699.141 -0.881989 1.30609 0
M  V30 7539 C 700.088 -1.98803 1.17244 0
M  V30 7540 C 701.058 -1.65987 0.0611905 0
M  V30 7541 O 702.243 -1.89385 0.231911 0
M  V30 7542 C 699.383 -3.33867 0.87333 0
M  V30 7543 C 698.496 -3.79354 2.06675 0
M  V30 7544 C 697.631 -5.03078 1.70547 0
M  V30 7545 C 696.67 -5.40981 2.86366 0
M  V30 7546 N 695.807 -6.55886 2.50514 0
M  V30 7547 H 700.647 -2.09566 2.11863 0
M  V30 7548 H 698.184 -1.02607 1.05405 0
M  V30 7549 H 700.142 -4.11612 0.680519 0
M  V30 7550 H 698.772 -3.2278 -0.0359983 0
M  V30 7551 H 697.824 -2.97492 2.37071 0
M  V30 7552 H 699.136 -4.03382 2.93401 0
M  V30 7553 H 698.29 -5.88457 1.47658 0
M  V30 7554 H 697.029 -4.80927 0.809947 0
M  V30 7555 H 696.034 -4.54127 3.09917 0
M  V30 7556 H 697.259 -5.65104 3.76609 0
M  V30 7557 H 695.205 -6.35306 1.63471 0
M  V30 7558 H 695.122 -6.79799 3.30771 0
M  V30 7559 H 696.39 -7.44489 2.30989 0
M  V30 7560 N 700.619 -1.13374 -1.09472 0
M  V30 7561 C 701.551 -0.768466 -2.15933 0
M  V30 7562 C 702.564 0.209585 -1.61445 0
M  V30 7563 O 703.753 -0.010539 -1.78497 0
M  V30 7564 C 700.853 -0.118266 -3.38694 0
M  V30 7565 C 700.026 -1.12829 -4.22597 0
M  V30 7566 C 699.085 -0.503875 -5.23782 0
M  V30 7567 O 698.111 -1.16374 -5.57177 0
M  V30 7568 N 699.313 0.724288 -5.75964 0
M  V30 7569 H 702.078 -1.68457 -2.47876 0
M  V30 7570 H 699.639 -1.02668 -1.25183 0
M  V30 7571 H 701.631 0.311698 -4.03498 0
M  V30 7572 H 700.201 0.700769 -3.04644 0
M  V30 7573 H 699.421 -1.73556 -3.53938 0
M  V30 7574 H 700.709 -1.81095 -4.75481 0
M  V30 7575 H 700.107 1.27918 -5.51048 0
M  V30 7576 H 698.664 1.09692 -6.42504 0
M  V30 7577 N 702.098 1.27442 -0.927168 0
M  V30 7578 C 703.045 2.26863 -0.424459 0
M  V30 7579 C 704.015 1.5813 0.508346 0
M  V30 7580 O 705.2 1.85946 0.42762 0
M  V30 7581 C 702.34 3.43639 0.31718 0
M  V30 7582 C 701.453 4.27087 -0.649675 0
M  V30 7583 C 700.588 5.31082 0.111753 0
M  V30 7584 C 699.627 6.062 -0.847843 0
M  V30 7585 N 698.764 7.01999 -0.119074 0
M  V30 7586 H 703.604 2.69239 -1.27728 0
M  V30 7587 H 701.141 1.32394 -0.641106 0
M  V30 7588 H 703.099 4.10155 0.763486 0
M  V30 7589 H 701.729 3.02217 1.13424 0
M  V30 7590 H 700.781 3.60491 -1.21451 0
M  V30 7591 H 702.093 4.79242 -1.38307 0
M  V30 7592 H 701.247 6.03544 0.618 0
M  V30 7593 H 699.986 4.7973 0.878114 0
M  V30 7594 H 698.991 5.32577 -1.36534 0
M  V30 7595 H 700.216 6.59642 -1.61398 0
M  V30 7596 H 698.162 6.52977 0.629051 0
M  V30 7597 H 698.079 7.5184 -0.792046 0
M  V30 7598 H 699.347 7.78638 0.366537 0
M  V30 7599 N 703.576 0.692616 1.41565 0
M  V30 7600 C 704.508 -0.0137132 2.29196 0
M  V30 7601 C 705.521 -0.747417 1.44629 0
M  V30 7602 O 706.71 -0.598611 1.68163 0
M  V30 7603 C 703.81 -1.04347 3.22436 0
M  V30 7604 C 702.983 -0.379985 4.35746 0
M  V30 7605 C 702.042 -1.31195 5.09583 0
M  V30 7606 O 701.068 -0.805455 5.63472 0
M  V30 7607 N 702.27 -2.64443 5.16769 0
M  V30 7608 H 705.035 0.738614 2.90456 0
M  V30 7609 H 702.596 0.538415 1.52685 0
M  V30 7610 H 704.588 -1.6686 3.687 0
M  V30 7611 H 703.158 -1.69736 2.62504 0
M  V30 7612 H 702.378 0.424975 3.91903 0
M  V30 7613 H 703.666 0.0814904 5.08735 0
M  V30 7614 H 703.064 -3.08114 4.74428 0
M  V30 7615 H 701.621 -3.22159 5.66619 0
M  V30 7616 N 705.054 -1.51416 0.437162 0
M  V30 7617 C 706.284 -2.06204 -0.127859 0
M  V30 7618 C 706.692 -1.30463 -1.37026 0
M  V30 7619 O 706.035 -0.357516 -1.80187 0
M  V30 7620 C 706.097 -3.55783 -0.515632 0
M  V30 7621 C 705.761 -4.52776 0.619937 0
M  V30 7622 C 706.758 -4.98031 1.49201 0
M  V30 7623 C 704.443 -4.95878 0.800618 0
M  V30 7624 C 706.437 -5.85061 2.52947 0
M  V30 7625 C 704.124 -5.82699 1.84135 0
M  V30 7626 C 705.122 -6.27188 2.70416 0
M  V30 7627 O 704.81 -7.12284 3.72702 0
M  V30 7628 H 704.542 -0.675903 -0.011442 0
M  V30 7629 H 707.096 -1.95977 0.614986 0
M  V30 7630 H 705.326 -3.63793 -1.31118 0
M  V30 7631 H 707.015 -3.93087 -1.01179 0
M  V30 7632 H 707.781 -4.65426 1.36395 0
M  V30 7633 H 703.66 -4.60792 0.138617 0
M  V30 7634 H 707.204 -6.19708 3.20325 0
M  V30 7635 H 703.101 -6.14717 1.9696 0
M  V30 7636 H 703.869 -7.30462 3.69281 0
M  V30 7637 N 706.532 -0.168513 -1.56696 0
M  V30 7638 C 707.464 0.794249 -2.14998 0
M  V30 7639 C 708.477 1.1957 -1.10485 0
M  V30 7640 O 709.666 1.13604 -1.37682 0
M  V30 7641 C 706.766 2.08018 -2.67547 0
M  V30 7642 C 705.939 1.84274 -3.96689 0
M  V30 7643 C 704.998 2.97059 -4.3433 0
M  V30 7644 O 704.024 2.67815 -5.02259 0
M  V30 7645 N 705.226 4.24775 -3.9566 0
M  V30 7646 H 707.991 0.295832 -2.98236 0
M  V30 7647 H 705.552 0.0143611 -1.61894 0
M  V30 7648 H 707.544 2.82559 -2.89729 0
M  V30 7649 H 706.114 2.49059 -1.88914 0
M  V30 7650 H 705.334 0.936528 -3.82914 0
M  V30 7651 H 706.622 1.65773 -4.81037 0
M  V30 7652 H 706.02 4.51395 -3.40968 0
M  V30 7653 H 704.577 4.96027 -4.22848 0
M  V30 7654 N 708.01 1.57248 0.105221 0
M  V30 7655 C 708.942 1.98008 1.15436 0
M  V30 7656 C 709.955 0.881236 1.36887 0
M  V30 7657 O 711.144 1.15943 1.35718 0
M  V30 7658 C 708.244 2.27509 2.51183 0
M  V30 7659 C 707.417 3.58811 2.50147 0
M  V30 7660 C 706.476 3.76365 3.67745 0
M  V30 7661 O 705.502 4.48329 3.50699 0
M  V30 7662 N 706.704 3.16174 4.86841 0
M  V30 7663 H 709.469 2.88616 0.807519 0
M  V30 7664 H 707.03 1.59202 0.29433 0
M  V30 7665 H 709.022 2.36455 3.28438 0
M  V30 7666 H 707.592 1.42959 2.77995 0
M  V30 7667 H 706.812 3.60927 1.5851 0
M  V30 7668 H 708.1 4.45088 2.46524 0
M  V30 7669 H 707.498 2.57701 5.03594 0
M  V30 7670 H 706.055 3.30621 5.61723 0
M  V30 7671 N 709.488 -0.375779 1.53054 0
M  V30 7672 C 710.42 -1.47963 1.75042 0
M  V30 7673 C 711.433 -1.50073 0.631031 0
M  V30 7674 O 712.622 -1.53736 0.907052 0
M  V30 7675 C 709.722 -2.86767 1.80604 0
M  V30 7676 C 708.895 -3.08471 3.10104 0
M  V30 7677 C 707.954 -4.27332 3.07041 0
M  V30 7678 O 706.98 -4.22998 3.80869 0
M  V30 7679 N 708.182 -5.34214 2.27147 0
M  V30 7680 H 710.947 -1.29484 2.70285 0
M  V30 7681 H 708.508 -0.565416 1.51706 0
M  V30 7682 H 710.5 -3.64404 1.76045 0
M  V30 7683 H 709.07 -2.98542 0.926897 0
M  V30 7684 H 708.29 -2.18583 3.28048 0
M  V30 7685 H 709.578 -3.19834 3.95706 0
M  V30 7686 H 708.976 -5.40594 1.66656 0
M  V30 7687 H 707.533 -6.10467 2.28415 0
M  V30 7688 N 710.966 -1.44241 -0.634997 0
M  V30 7689 C 712.215 -1.46102 -1.39058 0
M  V30 7690 C 712.528 -0.0959909 -1.95364 0
M  V30 7691 O 713.734 0.00788751 -2.71499 0
M  V30 7692 C 712.19 -2.57195 -2.51751 0
M  V30 7693 C 711.798 -3.99888 -2.01974 0
M  V30 7694 C 713.542 -2.68272 -3.28984 0
M  V30 7695 C 711.449 -5.02412 -3.11987 0
M  V30 7696 H 710.379 -0.543556 -0.522554 0
M  V30 7697 H 713.03 -1.70294 -0.683538 0
M  V30 7698 H 711.412 -2.26237 -3.25012 0
M  V30 7699 H 712.586 -4.40396 -1.35604 0
M  V30 7700 H 710.901 -3.93019 -1.37568 0
M  V30 7701 H 713.498 -3.42042 -4.10988 0
M  V30 7702 H 713.841 -1.73957 -3.78212 0
M  V30 7703 H 714.374 -2.98622 -2.62812 0
M  V30 7704 H 711.113 -5.98342 -2.67707 0
M  V30 7705 H 710.633 -4.66501 -3.77011 0
M  V30 7706 H 712.312 -5.25939 -3.76825 0
M  V30 7707 N 712.444 0.87505 -1.31075 0
M  V30 7708 C 713.394 1.96933 -1.14898 0
M  V30 7709 C 714.378 1.60783 -0.0613703 0
M  V30 7710 O 715.57 1.74678 -0.285751 0
M  V30 7711 C 712.699 3.3253 -0.853166 0
M  V30 7712 C 711.785 3.74963 -1.98151 0
M  V30 7713 N 712.176 3.89403 -3.22799 0
M  V30 7714 C 710.474 4.04436 -1.8801 0
M  V30 7715 C 711.175 4.25563 -3.96574 0
M  V30 7716 N 710.151 4.3597 -3.24701 0
M  V30 7717 H 713.953 2.06201 -2.09424 0
M  V30 7718 H 711.467 1.06551 -1.22558 0
M  V30 7719 H 713.464 4.10666 -0.718266 0
M  V30 7720 H 712.124 3.24592 0.0839218 0
M  V30 7721 H 713.135 3.74266 -3.57974 0
M  V30 7722 H 709.812 4.04915 -1.01733 0
M  V30 7723 H 711.202 4.44375 -5.03965 0
M  V30 7724 N 713.922 1.13953 1.08869 0
M  V30 7725 C 714.855 0.765765 2.14968 0
M  V30 7726 C 715.833 -0.250689 1.60656 0
M  V30 7727 O 717.017 -0.140852 1.87973 0
M  V30 7728 C 714.144 0.136146 3.38426 0
M  V30 7729 C 713.19 1.12201 4.11477 0
M  V30 7730 S 714.023 2.65711 4.64928 0
M  V30 7731 C 715.179 2.04125 5.91679 0
M  V30 7732 H 715.412 1.66444 2.46341 0
M  V30 7733 H 712.945 0.960263 1.20906 0
M  V30 7734 H 714.903 -0.220712 4.09906 0
M  V30 7735 H 713.564 -0.739887 3.05261 0
M  V30 7736 H 712.757 0.629398 5.00055 0
M  V30 7737 H 712.359 1.42262 3.45886 0
M  V30 7738 H 714.651 1.39381 6.63008 0
M  V30 7739 H 715.594 2.90808 6.45629 0
M  V30 7740 H 716.002 1.4905 5.44467 0
M  V30 7741 N 715.4 -1.26948 0.933913 0
M  V30 7742 C 716.348 -2.2862 0.428463 0
M  V30 7743 C 717.342 -1.62144 -0.490464 0
M  V30 7744 O 718.548 -1.76167 -0.36948 0
M  V30 7745 H 714.923 -0.742363 0.120003 0
M  V30 7746 H 716.894 -2.68659 1.29865 0
M  V30 7747 C 715.643 -3.46423 -0.29774 0
M  V30 7748 H 714.966 -3.97792 0.400183 0
M  V30 7749 H 716.406 -4.19505 -0.615736 0
M  V30 7750 C 714.865 -3.01017 -1.51295 0
M  V30 7751 O 715.395 -3.05226 -2.61151 0
M  V30 7752 N 713.601 -2.56442 -1.36696 0
M  V30 7753 H 713.148 -2.53217 -0.473178 0
M  V30 7754 H 713.106 -2.26424 -2.18127 0
M  V30 7755 N 716.879 -0.700114 -1.41195 0
M  V30 7756 C 717.826 -0.0376652 -2.30769 0
M  V30 7757 C 718.796 0.766544 -1.47354 0
M  V30 7758 O 719.981 0.73365 -1.76131 0
M  V30 7759 C 717.121 0.889452 -3.33441 0
M  V30 7760 C 716.234 0.076373 -4.31932 0
M  V30 7761 C 715.369 1.00155 -5.21673 0
M  V30 7762 C 714.408 0.181644 -6.1183 0
M  V30 7763 N 713.545 1.06087 -6.94039 0
M  V30 7764 H 718.385 -0.80726 -2.86858 0
M  V30 7765 H 715.922 -0.409798 -1.41277 0
M  V30 7766 H 717.88 1.44107 -3.91522 0
M  V30 7767 H 716.51 1.6254 -2.78892 0
M  V30 7768 H 715.562 -0.592223 -3.75762 0
M  V30 7769 H 716.874 -0.559076 -4.95657 0
M  V30 7770 H 716.028 1.62223 -5.8461 0
M  V30 7771 H 714.767 1.67085 -4.58186 0
M  V30 7772 H 713.772 -0.452085 -5.47938 0
M  V30 7773 H 714.997 -0.483925 -6.77374 0
M  V30 7774 H 712.943 1.7161 -6.33156 0
M  V30 7775 H 712.86 0.481094 -7.54468 0
M  V30 7776 H 714.128 1.66822 -7.6144 0
M  V30 7777 N 718.357 1.51182 -0.445186 0
M  V30 7778 C 719.287 2.30821 0.352686 0
M  V30 7779 C 720.268 1.36576 1.01395 0
M  V30 7780 O 721.453 1.65497 1.01609 0
M  V30 7781 C 718.583 3.15593 1.44976 0
M  V30 7782 C 717.537 4.1818 0.911553 0
M  V30 7783 C 716.863 4.91523 2.10497 0
M  V30 7784 C 718.163 5.22266 -0.059418 0
M  V30 7785 H 719.857 2.97771 -0.311936 0
M  V30 7786 H 717.403 1.43201 -0.151461 0
M  V30 7787 H 719.356 3.70091 2.01521 0
M  V30 7788 H 718.08 2.4648 2.14278 0
M  V30 7789 H 716.739 3.64746 0.368264 0
M  V30 7790 H 716.387 4.18906 2.78437 0
M  V30 7791 H 716.087 5.60898 1.7512 0
M  V30 7792 H 717.611 5.48847 2.6758 0
M  V30 7793 H 719.025 5.71789 0.415985 0
M  V30 7794 H 717.422 5.99213 -0.326152 0
M  V30 7795 H 718.492 4.7461 -0.993631 0
M  V30 7796 N 719.835 0.176821 1.56605 0
M  V30 7797 C 720.765 -0.746841 2.21234 0
M  V30 7798 C 721.746 -1.23502 1.16967 0
M  V30 7799 O 722.931 -1.28718 1.45414 0
M  V30 7800 C 720.061 -1.97407 2.8574 0
M  V30 7801 C 719.015 -1.62153 3.96094 0
M  V30 7802 C 718.341 -2.92387 4.47676 0
M  V30 7803 C 719.641 -0.845353 5.15413 0
M  V30 7804 H 721.335 -0.208116 2.98676 0
M  V30 7805 H 718.881 -0.0986594 1.43662 0
M  V30 7806 H 720.834 -2.62531 3.2963 0
M  V30 7807 H 719.558 -2.53703 2.05676 0
M  V30 7808 H 718.217 -0.993964 3.52868 0
M  V30 7809 H 717.865 -3.46734 3.64396 0
M  V30 7810 H 717.565 -2.69551 5.22127 0
M  V30 7811 H 719.089 -3.5853 4.94255 0
M  V30 7812 H 720.503 -1.39929 5.55961 0
M  V30 7813 H 718.9 -0.715814 5.95815 0
M  V30 7814 H 719.97 0.157239 4.84645 0
M  V30 7815 N 721.313 -1.57302 -0.09688 0
M  V30 7816 C 722.538 -1.9058 -0.818169 0
M  V30 7817 C 722.963 -0.770921 -1.71576 0
M  V30 7818 O 722.321 0.277588 -1.79162 0
M  V30 7819 C 722.369 -3.22714 -1.60898 0
M  V30 7820 O 721.473 -3.10178 -2.71779 0
M  V30 7821 H 720.814 -0.624759 -0.224882 0
M  V30 7822 H 723.344 -2.04471 -0.07264 0
M  V30 7823 H 723.354 -3.55978 -1.99358 0
M  V30 7824 H 722.029 -4.04899 -0.950227 0
M  V30 7825 H 720.606 -2.88424 -2.3636 0
M  V30 7826 N 722.791 0.367657 -1.53252 0
M  V30 7827 C 723.738 1.45028 -1.79543 0
M  V30 7828 C 724.708 1.53288 -0.63969 0
M  V30 7829 O 725.893 1.69209 -0.881653 0
M  V30 7830 C 723.033 2.82 -1.98923 0
M  V30 7831 C 722.146 2.82722 -3.26638 0
M  V30 7832 C 721.281 4.11257 -3.36216 0
M  V30 7833 C 720.32 4.06113 -4.57972 0
M  V30 7834 N 719.457 5.26293 -4.64715 0
M  V30 7835 H 724.297 1.21908 -2.71923 0
M  V30 7836 H 721.834 0.591011 -1.34705 0
M  V30 7837 H 723.792 3.61568 -2.08146 0
M  V30 7838 H 722.422 3.03523 -1.09881 0
M  V30 7839 H 721.474 1.95399 -3.26379 0
M  V30 7840 H 722.786 2.74794 -4.16281 0
M  V30 7841 H 721.94 4.99239 -3.44739 0
M  V30 7842 H 720.679 4.21935 -2.44586 0
M  V30 7843 H 719.684 3.16517 -4.49552 0
M  V30 7844 H 720.909 3.97039 -5.50942 0
M  V30 7845 H 718.855 5.37561 -3.75985 0
M  V30 7846 H 718.772 5.20526 -5.4826 0
M  V30 7847 H 720.04 6.16113 -4.77519 0
M  V30 7848 N 724.269 1.44576 0.627338 0
M  V30 7849 C 725.494 1.51271 1.41887 0
M  V30 7850 C 725.919 0.139814 1.8758 0
M  V30 7851 O 725.277 -0.871746 1.58966 0
M  V30 7852 C 725.325 2.48529 2.61277 0
M  V30 7853 O 724.429 1.98944 3.61241 0
M  V30 7854 H 723.77 0.510668 0.424399 0
M  V30 7855 H 726.3 1.89746 0.765356 0
M  V30 7856 H 726.31 2.66689 3.08773 0
M  V30 7857 H 724.985 3.48249 2.27366 0
M  V30 7858 H 723.562 1.90568 3.20528 0
M  V30 7859 N 725.747 -0.868086 1.31537 0
M  V30 7860 C 726.996 -1.61607 1.20689 0
M  V30 7861 C 727.309 -1.94204 -0.233275 0
M  V30 7862 O 728.515 -2.67515 -0.463465 0
M  V30 7863 C 726.971 -2.91348 2.11292 0
M  V30 7864 C 726.579 -2.66227 3.60315 0
M  V30 7865 C 728.323 -3.69344 2.09249 0
M  V30 7866 C 726.23 -3.91887 4.42921 0
M  V30 7867 H 725.16 -0.606373 0.448138 0
M  V30 7868 H 727.811 -0.959666 1.56405 0
M  V30 7869 H 726.193 -3.58374 1.68477 0
M  V30 7870 H 727.367 -2.07597 4.11388 0
M  V30 7871 H 725.682 -2.01582 3.64354 0
M  V30 7872 H 728.279 -4.62567 2.68209 0
M  V30 7873 H 728.622 -4.02044 1.0801 0
M  V30 7874 H 729.155 -3.09205 2.50274 0
M  V30 7875 H 725.894 -3.64336 5.44922 0
M  V30 7876 H 725.414 -4.49961 3.96605 0
M  V30 7877 H 727.093 -4.59754 4.55231 0
M  V30 7878 N 727.225 -1.14528 -1.08264 0
M  V30 7879 C 728.135 -0.84728 -2.18765 0
M  V30 7880 C 729.151 0.172826 -1.7314 0
M  V30 7881 O 730.327 0.000985336 -2.014 0
M  V30 7882 C 727.392 -0.330633 -3.4512 0
M  V30 7883 C 726.453 -1.41348 -4.05363 0
M  V30 7884 C 725.686 -0.921387 -5.25686 0
M  V30 7885 O 725.909 0.236587 -5.69909 0
M  V30 7886 O 724.843 -1.70101 -5.77364 0
M  V30 7887 H 728.669 -1.7708 -2.46731 0
M  V30 7888 H 726.254 -0.923661 -1.17426 0
M  V30 7889 H 728.136 -0.0485053 -4.21372 0
M  V30 7890 H 726.811 0.565147 -3.18728 0
M  V30 7891 H 725.718 -1.74908 -3.30693 0
M  V30 7892 H 727.051 -2.28383 -4.36007 0
M  V30 7893 N 728.703 1.26451 -0.940633 0
M  V30 7894 C 729.635 2.25556 -0.407104 0
M  V30 7895 C 730.648 1.55888 0.469324 0
M  V30 7896 O 731.837 1.76292 0.279858 0
M  V30 7897 C 728.937 3.36109 0.434064 0
M  V30 7898 C 728.11 4.3532 -0.426082 0
M  V30 7899 C 727.169 5.25004 0.354563 0
M  V30 7900 O 726.195 5.68684 -0.242219 0
M  V30 7901 N 727.397 5.5652 1.65123 0
M  V30 7902 H 730.162 2.7197 -1.25907 0
M  V30 7903 H 727.723 1.40212 -0.809456 0
M  V30 7904 H 729.715 3.93059 0.963684 0
M  V30 7905 H 728.285 2.89194 1.18683 0
M  V30 7906 H 727.505 3.77449 -1.13692 0
M  V30 7907 H 728.793 4.986 -1.01366 0
M  V30 7908 H 728.191 5.22912 2.15822 0
M  V30 7909 H 726.748 6.16115 2.12711 0
M  V30 7910 N 730.181 0.707592 1.40822 0
M  V30 7911 C 731.111 0.0644925 2.33411 0
M  V30 7912 C 732.092 -0.754205 1.52466 0
M  V30 7913 O 733.277 -0.704749 1.80961 0
M  V30 7914 C 730.407 -0.863865 3.36385 0
M  V30 7915 C 729.361 -0.15138 4.27732 0
M  V30 7916 C 728.687 -1.19491 5.21177 0
M  V30 7917 C 729.987 0.989607 5.12839 0
M  V30 7918 H 731.681 0.837829 2.87438 0
M  V30 7919 H 729.227 0.404346 1.38207 0
M  V30 7920 H 731.18 -1.32309 4.0009 0
M  V30 7921 H 729.904 -1.66901 2.80734 0
M  V30 7922 H 728.563 0.287937 3.65467 0
M  V30 7923 H 728.211 -1.9929 4.61836 0
M  V30 7924 H 727.911 -0.723123 5.83134 0
M  V30 7925 H 729.435 -1.6544 5.8776 0
M  V30 7926 H 730.849 0.610114 5.70044 0
M  V30 7927 H 729.246 1.38926 5.83798 0
M  V30 7928 H 730.316 1.82389 4.49291 0
M  V30 7929 N 731.66 -1.50943 0.453197 0
M  V30 7930 C 732.607 -2.28128 -0.350197 0
M  V30 7931 C 733.577 -1.32398 -1.00299 0
M  V30 7932 O 734.762 -1.61319 -1.01887 0
M  V30 7933 C 731.902 -3.13782 -1.43649 0
M  V30 7934 C 731.015 -4.24523 -0.800255 0
M  V30 7935 C 730.15 -4.97462 -1.86293 0
M  V30 7936 C 729.189 -6.00102 -1.20598 0
M  V30 7937 N 728.326 -6.66387 -2.21071 0
M  V30 7938 H 733.166 -2.96337 0.31434 0
M  V30 7939 H 730.703 -1.46151 0.166863 0
M  V30 7940 H 732.661 -3.6178 -2.07776 0
M  V30 7941 H 731.291 -2.47655 -2.07044 0
M  V30 7942 H 730.343 -3.80371 -0.0468651 0
M  V30 7943 H 731.655 -4.98009 -0.280777 0
M  V30 7944 H 730.809 -5.49088 -2.58044 0
M  V30 7945 H 729.548 -4.23642 -2.41617 0
M  V30 7946 H 728.553 -5.47753 -0.474 0
M  V30 7947 H 729.778 -6.75887 -0.659859 0
M  V30 7948 H 727.724 -5.9537 -2.75446 0
M  V30 7949 H 727.641 -7.3569 -1.74058 0
M  V30 7950 H 728.909 -7.22638 -2.92257 0
M  V30 7951 N 733.138 -0.185124 -1.56509 0
M  V30 7952 C 734.07 0.771401 -2.15829 0
M  V30 7953 C 735.083 1.18392 -1.11747 0
M  V30 7954 O 736.272 1.12137 -1.38879 0
M  V30 7955 C 733.372 2.05169 -2.69739 0
M  V30 7956 C 732.545 1.80056 -3.98621 0
M  V30 7957 C 731.604 2.92435 -4.37456 0
M  V30 7958 O 730.63 2.62473 -5.05071 0
M  V30 7959 N 731.832 4.20554 -4.00143 0
M  V30 7960 H 734.597 0.264184 -2.98533 0
M  V30 7961 H 732.158 -0.00281069 -1.619 0
M  V30 7962 H 734.15 2.7947 -2.92709 0
M  V30 7963 H 732.72 2.47041 -1.91545 0
M  V30 7964 H 731.94 0.895862 -3.83885 0
M  V30 7965 H 733.228 1.60662 -4.82768 0
M  V30 7966 H 732.626 4.47753 -3.45736 0
M  V30 7967 H 731.183 4.91514 -4.28085 0
M  V30 7968 N 734.616 1.57351 0.0885366 0
M  V30 7969 C 736.027 1.75303 0.642308 0
M  V30 7970 C 736.378 0.808238 1.78779 0
M  V30 7971 O 735.503 -0.01171 2.16397 0
M  V30 7972 C 736.098 3.17885 1.17194 0
M  V30 7973 C 734.657 3.37239 1.67172 0
M  V30 7974 C 733.804 2.7108 0.584045 0
M  V30 7975 H 736.755 1.58103 -0.137567 0
M  V30 7976 H 736.776 3.2112 2.04114 0
M  V30 7977 H 736.288 3.86625 0.338024 0
M  V30 7978 H 734.389 2.73588 2.52943 0
M  V30 7979 H 734.502 4.45594 1.76019 0
M  V30 7980 H 732.866 2.33161 1.02508 0
M  V30 7981 H 733.649 3.42464 -0.239403 0
M  V30 7982 N 736.094 -0.359525 1.53444 0
M  V30 7983 C 737.342 -1.09935 1.69584 0
M  V30 7984 C 737.663 -1.89656 0.453371 0
M  V30 7985 O 736.933 -1.8852 -0.53263 0
M  V30 7986 H 735.513 -0.408843 0.625185 0
M  V30 7987 H 738.175 -0.40467 1.90653 0
M  V30 7988 H 737.271 -1.78575 2.55964 0
M  V30 7989 N 737.572 -1.44907 -0.619662 0
M  V30 7990 C 738.797 -1.52021 -1.41083 0
M  V30 7991 C 739.222 -0.14976 -1.87503 0
M  V30 7992 O 738.58 0.863303 -1.59426 0
M  V30 7993 C 738.628 -2.49911 -2.59955 0
M  V30 7994 O 737.732 -2.00857 -3.60181 0
M  V30 7995 H 737.073 -0.512912 -0.421684 0
M  V30 7996 H 739.603 -1.90149 -0.755282 0
M  V30 7997 H 739.613 -2.68323 -3.07354 0
M  V30 7998 H 738.288 -3.4945 -2.25516 0
M  V30 7999 H 736.865 -1.92265 -3.19513 0
M  V30 8000 N 739.05 0.861098 -1.31996 0
M  V30 8001 C 740 1.95703 -1.1698 0
M  V30 8002 C 740.984 1.60709 -0.0784201 0
M  V30 8003 O 742.176 1.74365 -0.304262 0
M  V30 8004 C 739.305 3.31606 -0.888388 0
M  V30 8005 C 738.391 3.7284 -2.02117 0
M  V30 8006 N 738.782 3.85957 -3.26911 0
M  V30 8007 C 737.08 4.02419 -1.92289 0
M  V30 8008 C 737.781 4.21333 -4.01065 0
M  V30 8009 N 736.757 4.32502 -3.29307 0
M  V30 8010 H 740.559 2.03968 -2.11599 0
M  V30 8011 H 738.073 1.05245 -1.23682 0
M  V30 8012 H 740.07 4.09881 -0.761782 0
M  V30 8013 H 738.73 3.24662 0.0494898 0
M  V30 8014 H 739.741 3.70449 -3.61923 0
M  V30 8015 H 736.418 4.03814 -1.06022 0
M  V30 8016 H 737.808 4.39005 -5.08649 0
M  V30 8017 N 740.528 1.15101 1.07655 0
M  V30 8018 C 741.458 0.867864 2.16773 0
M  V30 8019 C 742.439 -0.180283 1.69142 0
M  V30 8020 O 743.624 -0.0353152 1.94168 0
M  V30 8021 C 740.754 0.35299 3.45501 0
M  V30 8022 C 739.708 1.33746 4.06566 0
M  V30 8023 C 739.034 0.681562 5.30338 0
M  V30 8024 C 740.334 2.7024 4.46954 0
M  V30 8025 H 742.028 1.78034 2.40716 0
M  V30 8026 H 739.574 0.857435 1.15689 0
M  V30 8027 H 741.527 0.142465 4.21159 0
M  V30 8028 H 740.251 -0.594945 3.21135 0
M  V30 8029 H 738.91 1.53429 3.32949 0
M  V30 8030 H 738.558 -0.272422 5.02262 0
M  V30 8031 H 738.258 1.33853 5.72151 0
M  V30 8032 H 739.782 0.48074 6.08705 0
M  V30 8033 H 741.196 2.5442 5.13754 0
M  V30 8034 H 739.593 3.32282 4.99709 0
M  V30 8035 H 740.663 3.26537 3.58471 0
M  V30 8036 N 742.006 -1.2595 0.947325 0
M  V30 8037 C 742.916 -2.29883 0.468079 0
M  V30 8038 C 743.932 -1.67783 -0.460975 0
M  V30 8039 O 745.108 -1.98526 -0.339006 0
M  V30 8040 C 742.173 -3.45773 -0.253315 0
M  V30 8041 C 741.234 -4.23337 0.713054 0
M  V30 8042 C 740.467 -5.33694 0.025993 0
M  V30 8043 O 740.69 -5.57853 -1.18978 0
M  V30 8044 O 739.624 -5.97724 0.70782 0
M  V30 8045 H 743.45 -2.72952 1.33156 0
M  V30 8046 H 741.035 -1.31263 0.713468 0
M  V30 8047 H 742.917 -4.16209 -0.659423 0
M  V30 8048 H 741.592 -3.04721 -1.09209 0
M  V30 8049 H 740.499 -3.55359 1.16923 0
M  V30 8050 H 741.832 -4.68154 1.51963 0
M  V30 8051 N 743.484 -0.715051 -1.40445 0
M  V30 8052 C 744.394 -0.0631624 -2.34515 0
M  V30 8053 C 745.41 0.744397 -1.57273 0
M  V30 8054 O 746.586 0.677475 -1.89663 0
M  V30 8055 C 743.651 0.847915 -3.36172 0
M  V30 8056 C 742.712 0.0303655 -4.29289 0
M  V30 8057 C 741.945 0.898051 -5.2609 0
M  V30 8058 O 742.168 2.13729 -5.28844 0
M  V30 8059 O 741.102 0.337328 -6.00954 0
M  V30 8060 H 744.928 -0.839078 -2.91879 0
M  V30 8061 H 742.513 -0.475527 -1.4163 0
M  V30 8062 H 744.395 1.3698 -3.98515 0
M  V30 8063 H 743.07 1.60299 -2.81222 0
M  V30 8064 H 741.977 -0.536573 -3.70232 0
M  V30 8065 H 743.31 -0.686474 -4.87389 0
M  V30 8066 N 744.962 1.50701 -0.461195 0
M  V30 8067 C 745.925 2.2686 0.326679 0
M  V30 8068 C 746.925 1.31243 0.929085 0
M  V30 8069 O 748.115 1.54754 0.799807 0
M  V30 8070 C 745.247 3.07844 1.46441 0
M  V30 8071 H 746.44 2.97954 -0.341095 0
M  V30 8072 H 743.993 1.54814 -0.214984 0
M  V30 8073 H 744.728 2.41223 2.16753 0
M  V30 8074 H 744.513 3.78101 1.03836 0
M  V30 8075 H 746.003 3.65469 2.02044 0
M  V30 8076 N 746.441 0.193421 1.56409 0
M  V30 8077 C 747.351 -0.740112 2.2262 0
M  V30 8078 C 748.367 -1.23597 1.22474 0
M  V30 8079 O 749.543 -1.28348 1.55206 0
M  V30 8080 C 746.608 -1.94317 2.87127 0
M  V30 8081 C 745.669 -1.49205 4.02538 0
M  V30 8082 C 744.902 -2.63776 4.63959 0
M  V30 8083 O 745.125 -3.81215 4.24301 0
M  V30 8084 O 744.059 -2.36585 5.53454 0
M  V30 8085 H 747.885 -0.206238 3.02999 0
M  V30 8086 H 745.47 -0.0357938 1.49357 0
M  V30 8087 H 747.352 -2.64633 3.27944 0
M  V30 8088 H 746.027 -2.46568 2.09728 0
M  V30 8089 H 744.934 -0.757738 3.66346 0
M  V30 8090 H 746.267 -1.01622 4.81595 0
M  V30 8091 N 747.919 -1.57396 -0.0801906 0
M  V30 8092 C 748.829 -2.06451 -1.11423 0
M  V30 8093 C 749.845 -0.992352 -1.42928 0
M  V30 8094 O 751.021 -1.30651 -1.53272 0
M  V30 8095 C 748.086 -2.49164 -2.41077 0
M  V30 8096 C 747.147 -3.70641 -2.16619 0
M  V30 8097 C 746.38 -4.11307 -3.40092 0
M  V30 8098 O 746.603 -3.51922 -4.48895 0
M  V30 8099 O 745.537 -5.04157 -3.288 0
M  V30 8100 H 749.363 -2.94857 -0.727519 0
M  V30 8101 H 746.948 -1.46484 -0.293743 0
M  V30 8102 H 748.83 -2.77196 -3.17396 0
M  V30 8103 H 747.505 -1.6389 -2.79145 0
M  V30 8104 H 746.412 -3.47703 -1.38033 0
M  V30 8105 H 747.745 -4.5674 -1.83437 0
M  V30 8106 N 749.397 0.351382 -1.53633 0
M  V30 8107 C 750.307 1.45471 -1.84052 0
M  V30 8108 C 751.323 1.57945 -0.730015 0
M  V30 8109 O 752.499 1.73571 -1.02153 0
M  V30 8110 C 749.564 2.80562 -2.03681 0
M  V30 8111 C 748.625 2.77497 -3.27558 0
M  V30 8112 C 747.858 4.06144 -3.46241 0
M  V30 8113 O 748.081 5.03028 -2.68922 0
M  V30 8114 O 747.015 4.11092 -4.39645 0
M  V30 8115 H 750.841 1.22684 -2.77817 0
M  V30 8116 H 748.426 0.542827 -1.3919 0
M  V30 8117 H 750.308 3.6058 -2.18082 0
M  V30 8118 H 748.983 3.03296 -1.13106 0
M  V30 8119 H 747.89 1.96126 -3.18568 0
M  V30 8120 H 749.223 2.59716 -4.18101 0
M  V30 8121 N 750.875 1.45233 0.611969 0
M  V30 8122 C 751.805 1.5641 1.73373 0
M  V30 8123 C 752.786 0.415896 1.64937 0
M  V30 8124 O 753.971 0.638478 1.83404 0
M  V30 8125 C 751.101 1.52627 3.11965 0
M  V30 8126 C 750.055 2.66119 3.35208 0
M  V30 8127 C 749.381 2.4739 4.74028 0
M  V30 8128 C 750.681 4.08157 3.25891 0
M  V30 8129 H 752.375 2.50307 1.64277 0
M  V30 8130 H 749.921 1.20467 0.788904 0
M  V30 8131 H 751.874 1.59043 3.90235 0
M  V30 8132 H 750.598 0.552564 3.21892 0
M  V30 8133 H 749.257 2.59123 2.59327 0
M  V30 8134 H 748.905 1.48168 4.80682 0
M  V30 8135 H 748.605 3.23494 4.90536 0
M  V30 8136 H 750.129 2.55653 5.54503 0
M  V30 8137 H 751.543 4.1642 3.9404 0
M  V30 8138 H 749.94 4.84617 3.5393 0
M  V30 8139 H 751.01 4.30374 2.23397 0
M  V30 8140 N 752.353 -0.854086 1.3245 0
M  V30 8141 C 753.285 -1.96932 1.17262 0
M  V30 8142 C 754.298 -1.62445 0.107469 0
M  V30 8143 O 755.487 -1.74904 0.356481 0
M  V30 8144 C 752.587 -3.29971 0.772817 0
M  V30 8145 C 751.76 -3.92695 1.92638 0
M  V30 8146 C 750.819 -5.04068 1.51003 0
M  V30 8147 O 749.845 -5.24032 2.22213 0
M  V30 8148 N 751.047 -5.79076 0.406371 0
M  V30 8149 H 753.812 -2.10503 2.13327 0
M  V30 8150 H 751.373 -1.02897 1.24995 0
M  V30 8151 H 753.365 -4.01883 0.476684 0
M  V30 8152 H 751.935 -3.1245 -0.0967 0
M  V30 8153 H 751.155 -3.13563 2.38897 0
M  V30 8154 H 752.443 -4.31337 2.69863 0
M  V30 8155 H 751.841 -5.65393 -0.186302 0
M  V30 8156 H 750.398 -6.51579 0.169846 0
M  V30 8157 N 753.831 -1.1567 -1.07043 0
M  V30 8158 C 755.079 -0.931673 -1.79344 0
M  V30 8159 C 755.4 0.542421 -1.87304 0
M  V30 8160 O 754.67 1.39418 -1.37621 0
M  V30 8161 H 753.25 -0.34171 -0.664262 0
M  V30 8162 H 755.912 -1.45795 -1.29344 0
M  V30 8163 H 755.008 -1.34379 -2.81689 0
M  V30 8164 N 755.309 1.25446 -0.953992 0
M  V30 8165 C 756.586 1.884 -0.525823 0
M  V30 8166 C 756.966 1.86079 0.996891 0
M  V30 8167 O 756.314 1.32389 1.8624 0
M  V30 8168 C 756.524 3.31154 -1.10172 0
M  V30 8169 C 757.872 4.07926 -1.17819 0
M  V30 8170 O 758.896 3.40273 -1.05323 0
M  V30 8171 O 757.755 5.28942 -1.37415 0
M  V30 8172 H 754.849 0.808629 -0.173345 0
M  V30 8173 H 757.395 1.33522 -1.04738 0
M  V30 8174 H 756.167 3.27271 -2.14499 0
M  V30 8175 H 755.79 3.93588 -0.56338 0
M  V30 8176 N 756.787 0.722489 1.40064 0
M  V30 8177 C 757.719 0.0349057 2.29173 0
M  V30 8178 C 758.732 -0.716571 1.46182 0
M  V30 8179 O 759.921 -0.562806 1.69395 0
M  V30 8180 C 757.021 -0.974839 3.24577 0
M  V30 8181 C 756.194 -0.287471 4.36454 0
M  V30 8182 C 755.253 -1.20356 5.12251 0
M  V30 8183 O 754.279 -0.685753 5.65054 0
M  V30 8184 N 755.481 -2.53422 5.22262 0
M  V30 8185 H 758.246 0.800058 2.88824 0
M  V30 8186 H 755.807 0.57068 1.51509 0
M  V30 8187 H 757.799 -1.59002 3.72157 0
M  V30 8188 H 756.369 -1.6413 2.66046 0
M  V30 8189 H 755.589 0.508008 3.90913 0
M  V30 8190 H 756.877 0.189382 5.08447 0
M  V30 8191 H 756.275 -2.97981 4.80857 0
M  V30 8192 H 754.832 -3.10067 5.73325 0
M  V30 8193 N 758.265 -1.50454 0.469181 0
M  V30 8194 C 759.228 -2.2703 -0.314643 0
M  V30 8195 C 760.228 -1.31734 -0.922111 0
M  V30 8196 O 761.418 -1.55176 -0.791588 0
M  V30 8197 C 758.55 -3.08616 -1.44806 0
M  V30 8198 H 759.743 -2.97769 0.356892 0
M  V30 8199 H 757.296 -1.54698 0.223191 0
M  V30 8200 H 758.031 -2.42369 -2.1547 0
M  V30 8201 H 757.816 -3.78647 -1.01829 0
M  V30 8202 H 759.306 -3.66536 -2.00103 0
M  V30 8203 N 759.743 -0.201713 -1.56304 0
M  V30 8204 C 760.676 0.755976 -2.15314 0
M  V30 8205 C 761.654 1.20497 -1.09175 0
M  V30 8206 O 762.838 1.2913 -1.37323 0
M  V30 8207 C 759.965 2.02177 -2.71739 0
M  V30 8208 C 759.011 1.71436 -3.90528 0
M  V30 8209 S 759.844 0.856624 -5.28604 0
M  V30 8210 C 761 2.13242 -5.88455 0
M  V30 8211 H 761.233 0.254348 -2.9621 0
M  V30 8212 H 758.766 0.0133669 -1.54394 0
M  V30 8213 H 760.724 2.74867 -3.04891 0
M  V30 8214 H 759.385 2.49452 -1.90873 0
M  V30 8215 H 758.578 2.65433 -4.28441 0
M  V30 8216 H 758.18 1.06823 -3.5842 0
M  V30 8217 H 760.472 3.08435 -6.0322 0
M  V30 8218 H 761.415 1.7975 -6.84905 0
M  V30 8219 H 761.823 2.2639 -5.17115 0
M  V30 8220 N 761.222 1.57436 0.0718424 0
M  V30 8221 C 762.154 2.00412 1.1121 0
M  V30 8222 C 763.167 0.910074 1.34987 0
M  V30 8223 O 764.356 1.18796 1.33228 0
M  V30 8224 C 761.456 2.32786 2.46301 0
M  V30 8225 C 760.629 3.64036 2.4248 0
M  V30 8226 C 759.688 3.8408 3.59679 0
M  V30 8227 O 758.714 4.55667 3.4111 0
M  V30 8228 N 759.916 3.2643 4.80025 0
M  V30 8229 H 762.681 2.90264 0.746118 0
M  V30 8230 H 760.242 1.59791 0.260495 0
M  V30 8231 H 762.234 2.43368 3.23348 0
M  V30 8232 H 760.804 1.48824 2.74901 0
M  V30 8233 H 760.024 3.64208 1.50818 0
M  V30 8234 H 761.312 4.50217 2.37027 0
M  V30 8235 H 760.71 2.68325 4.98014 0
M  V30 8236 H 759.267 3.42461 5.54584 0
M  V30 8237 N 762.7 -0.34323 1.53817 0
M  V30 8238 C 763.61 -1.44493 1.84821 0
M  V30 8239 C 764.626 -1.57556 0.738381 0
M  V30 8240 O 765.802 -1.73026 1.03072 0
M  V30 8241 C 762.867 -2.79478 2.05166 0
M  V30 8242 C 761.928 -2.75756 3.29025 0
M  V30 8243 C 761.161 -4.04302 3.4839 0
M  V30 8244 O 761.384 -5.01595 2.71586 0
M  V30 8245 O 760.318 -4.08754 4.41819 0
M  V30 8246 H 764.144 -1.21209 2.78464 0
M  V30 8247 H 761.729 -0.535437 1.39476 0
M  V30 8248 H 763.611 -3.59419 2.19991 0
M  V30 8249 H 762.286 -3.02692 1.14713 0
M  V30 8250 H 761.193 -1.94434 3.19603 0
M  V30 8251 H 762.526 -2.57495 4.19472 0
M  V30 8252 N 764.178 -1.45556 -0.604258 0
M  V30 8253 C 765.455 -1.40221 -1.36373 0
M  V30 8254 C 765.835 -0.0745195 -2.10968 0
M  V30 8255 O 765.183 0.943594 -2.08107 0
M  V30 8256 C 765.393 -2.61807 -2.30777 0
M  V30 8257 C 766.741 -3.07037 -2.93281 0
M  V30 8258 O 767.765 -2.62203 -2.41097 0
M  V30 8259 O 766.624 -3.8485 -3.88011 0
M  V30 8260 H 763.718 -0.556602 -0.611656 0
M  V30 8261 H 766.264 -1.57689 -0.627069 0
M  V30 8262 H 765.036 -3.50017 -1.74939 0
M  V30 8263 H 764.659 -2.46688 -3.11818 0
M  V30 8264 N 765.656 0.84705 -1.32902 0
M  V30 8265 C 767.072 1.13645 -1.12058 0
M  V30 8266 C 767.272 2.01281 0.093937 0
M  V30 8267 O 766.328 2.4026 0.776608 0
M  V30 8268 C 767.641 1.80644 -2.40392 0
M  V30 8269 C 769.189 1.93246 -2.46221 0
M  V30 8270 C 769.664 2.6366 -3.74496 0
M  V30 8271 N 771.155 2.71179 -3.75521 0
M  V30 8272 C 771.89 3.26332 -4.71482 0
M  V30 8273 N 771.386 3.82236 -5.77813 0
M  V30 8274 N 773.179 3.24507 -4.58968 0
M  V30 8275 H 765.33 0.263612 -2.10758 0
M  V30 8276 H 767.593 0.17944 -0.930863 0
M  V30 8277 H 767.299 1.23708 -3.29225 0
M  V30 8278 H 767.173 2.80736 -2.51926 0
M  V30 8279 H 769.56 2.49338 -1.57843 0
M  V30 8280 H 769.641 0.921272 -2.38634 0
M  V30 8281 H 769.285 2.08229 -4.63253 0
M  V30 8282 H 769.215 3.65234 -3.79357 0
M  V30 8283 H 771.706 2.31527 -2.9867 0
M  V30 8284 H 772.019 4.22499 -6.47082 0
M  V30 8285 H 770.364 3.80546 -5.81558 0
M  V30 8286 H 773.555 2.80085 -3.7506 0
M  V30 8287 H 773.728 3.67188 -5.33926 0
M  V30 8288 N 767.134 1.16236 1.06428 0
M  V30 8289 C 768.097 0.870163 2.1204 0
M  V30 8290 C 769.097 -0.134239 1.60239 0
M  V30 8291 O 770.287 0.0964932 1.73933 0
M  V30 8292 C 767.419 0.301033 3.39568 0
M  V30 8293 H 768.612 1.8064 2.39394 0
M  V30 8294 H 766.165 0.971116 1.2247 0
M  V30 8295 H 766.9 -0.642948 3.17863 0
M  V30 8296 H 766.685 1.02475 3.78472 0
M  V30 8297 H 768.175 0.114494 4.17443 0
M  V30 8298 N 768.612 -1.24939 0.960631 0
M  V30 8299 C 770.023 -1.74701 0.658529 0
M  V30 8300 C 770.374 -1.77967 -0.825959 0
M  V30 8301 O 769.499 -1.40444 -1.64634 0
M  V30 8302 C 770.094 -3.17263 1.18867 0
M  V30 8303 C 768.653 -3.64561 0.936614 0
M  V30 8304 C 767.8 -2.43423 1.32817 0
M  V30 8305 H 770.751 -1.10741 1.13676 0
M  V30 8306 H 770.772 -3.76481 0.551589 0
M  V30 8307 H 770.284 -3.14854 2.26912 0
M  V30 8308 H 768.385 -3.72378 -0.128608 0
M  V30 8309 H 768.498 -4.52392 1.57729 0
M  V30 8310 H 766.862 -2.43513 0.746548 0
M  V30 8311 H 767.645 -2.437 2.41796 0
M  V30 8312 N 770.09 -0.729906 -1.39679 0
M  V30 8313 C 771.315 -0.284345 -2.05442 0
M  V30 8314 C 771.74 1.07056 -1.54663 0
M  V30 8315 O 771.098 1.67732 -0.688157 0
M  V30 8316 C 771.146 -0.290089 -3.59431 0
M  V30 8317 O 770.25 0.723978 -4.05995 0
M  V30 8318 H 769.591 -0.130311 -0.651088 0
M  V30 8319 H 772.121 -0.994403 -1.78809 0
M  V30 8320 H 772.131 -0.132712 -4.07784 0
M  V30 8321 H 770.806 -1.27877 -3.95753 0
M  V30 8322 H 769.383 0.533154 -3.69069 0
M  V30 8323 N 771.568 1.50203 -0.477153 0
M  V30 8324 C 772.793 2.07263 0.0754986 0
M  V30 8325 C 773.218 1.33801 1.32208 0
M  V30 8326 O 772.576 0.387482 1.77111 0
M  V30 8327 C 772.624 3.59028 0.336348 0
M  V30 8328 O 771.728 3.87339 1.4157 0
M  V30 8329 H 771.069 0.663815 -0.015662 0
M  V30 8330 H 773.599 1.93321 -0.669936 0
M  V30 8331 H 773.609 4.03927 0.575034 0
M  V30 8332 H 772.284 4.11912 -0.574551 0
M  V30 8333 H 770.861 3.54272 1.16385 0
M  V30 8334 N 773.046 0.209999 1.56195 0
M  V30 8335 C 774.294 -0.423974 1.97603 0
M  V30 8336 C 774.615 -1.61112 1.09854 0
M  V30 8337 O 773.885 -1.95134 0.173032 0
M  V30 8338 H 772.465 -0.159629 0.729745 0
M  V30 8339 H 775.127 0.300205 1.92574 0
M  V30 8340 H 774.223 -0.75809 3.02753 0
M  V30 8341 N 774.524 -1.57472 -0.0634922 0
M  V30 8342 C 775.472 -2.05307 -1.09323 0
M  V30 8343 C 776.466 -0.959995 -1.39572 0
M  V30 8344 O 777.672 -1.14507 -1.38882 0
M  V30 8345 H 774.047 -0.65472 -0.369927 0
M  V30 8346 H 776.018 -2.90925 -0.663707 0
M  V30 8347 C 774.767 -2.51954 -2.39613 0
M  V30 8348 H 774.09 -3.35662 -2.1719 0
M  V30 8349 H 775.53 -2.89169 -3.10092 0
M  V30 8350 C 773.989 -1.40596 -3.06161 0
M  V30 8351 O 774.519 -0.752722 -3.94585 0
M  V30 8352 N 772.725 -1.14902 -2.66919 0
M  V30 8353 H 772.272 -1.68205 -1.95102 0
M  V30 8354 H 772.23 -0.406006 -3.11767 0
M  V30 8355 N 776.003 0.335068 -1.53997 0
M  V30 8356 C 777.228 1.09859 -1.75914 0
M  V30 8357 C 777.653 1.81308 -0.500915 0
M  V30 8358 O 777.011 1.72854 0.54693 0
M  V30 8359 C 777.059 2.08122 -2.94478 0
M  V30 8360 O 776.163 3.15805 -2.65219 0
M  V30 8361 H 775.504 0.317313 -0.583274 0
M  V30 8362 H 778.034 0.382872 -2.00986 0
M  V30 8363 H 778.044 2.51195 -3.21504 0
M  V30 8364 H 776.719 1.55517 -3.8573 0
M  V30 8365 H 775.296 2.77489 -2.49107 0
M  V30 8366 N 777.481 1.45874 0.596531 0
M  V30 8367 C 778.709 1.54013 1.38158 0
M  V30 8368 C 779.124 0.17648 1.87973 0
M  V30 8369 O 778.481 -0.823895 1.62844 0
M  V30 8370 C 778.532 2.53363 2.57855 0
M  V30 8371 O 778.253 3.8443 2.10108 0
M  V30 8372 C 779.754 2.71308 3.50581 0
M  V30 8373 H 776.974 0.521251 0.422538 0
M  V30 8374 H 779.518 1.9116 0.726493 0
M  V30 8375 H 777.673 2.19257 3.19382 0
M  V30 8376 H 778.087 4.38384 2.87958 0
M  V30 8377 H 779.561 3.44776 4.31084 0
M  V30 8378 H 780.038 1.77728 4.01633 0
M  V30 8379 H 780.644 3.06455 2.94899 0
M  V30 8380 N 778.959 -0.83999 1.33349 0
M  V30 8381 C 780.375 -1.13049 1.12659 0
M  V30 8382 C 780.575 -2.01328 -0.0832613 0
M  V30 8383 O 779.631 -2.40669 -0.763856 0
M  V30 8384 C 780.944 -1.79366 2.41347 0
M  V30 8385 C 782.492 -1.91937 2.47243 0
M  V30 8386 C 782.967 -2.6167 3.75889 0
M  V30 8387 N 784.458 -2.69184 3.76954 0
M  V30 8388 C 785.193 -3.23827 4.73206 0
M  V30 8389 N 784.689 -3.79166 5.79832 0
M  V30 8390 N 786.482 -3.22068 4.60683 0
M  V30 8391 H 778.633 -0.252432 2.10895 0
M  V30 8392 H 780.896 -0.174501 0.931801 0
M  V30 8393 H 780.602 -1.2196 3.29877 0
M  V30 8394 H 780.476 -2.79396 2.53412 0
M  V30 8395 H 782.863 -2.48498 1.59163 0
M  V30 8396 H 782.944 -0.908604 2.39119 0
M  V30 8397 H 782.588 -2.05769 4.64351 0
M  V30 8398 H 782.518 -3.63217 3.81289 0
M  V30 8399 H 785.009 -2.2994 2.99893 0
M  V30 8400 H 785.322 -4.19061 6.49313 0
M  V30 8401 H 783.667 -3.77457 5.83568 0
M  V30 8402 H 786.858 -2.78092 3.7654 0
M  V30 8403 H 787.031 -3.64351 5.35866 0
M  V30 8404 N 780.437 -1.16799 -1.0581 0
M  V30 8405 C 781.662 -0.977402 -1.82925 0
M  V30 8406 C 782.087 0.469514 -1.82146 0
M  V30 8407 O 781.445 1.33576 -1.22585 0
M  V30 8408 C 781.493 -1.51543 -3.27211 0
M  V30 8409 O 780.597 -0.725021 -4.05977 0
M  V30 8410 H 779.938 -0.347474 -0.565825 0
M  V30 8411 H 782.468 -1.55151 -1.33376 0
M  V30 8412 H 782.478 -1.53502 -3.78023 0
M  V30 8413 H 781.153 -2.56872 -3.27093 0
M  V30 8414 H 779.73 -0.77634 -3.64729 0
M  V30 8415 N 781.915 1.24427 -0.967243 0
M  V30 8416 C 783.192 1.87831 -0.545776 0
M  V30 8417 C 783.572 1.87126 0.977099 0
M  V30 8418 O 782.92 1.34357 1.84826 0
M  V30 8419 C 783.13 3.29967 -1.13679 0
M  V30 8420 C 784.478 4.06654 -1.22139 0
M  V30 8421 O 785.502 3.39136 -1.08926 0
M  V30 8422 O 784.361 5.27455 -1.43017 0
M  V30 8423 H 781.455 0.806745 -0.181912 0
M  V30 8424 H 784.001 1.32403 -1.06148 0
M  V30 8425 H 782.773 3.24977 -2.17958 0
M  V30 8426 H 782.396 3.92969 -0.605093 0
M  V30 8427 N 783.393 0.737304 1.3929 0
M  V30 8428 C 784.618 0.295237 2.05288 0
M  V30 8429 C 785.043 -1.06235 1.55228 0
M  V30 8430 O 784.401 -1.67365 0.697043 0
M  V30 8431 C 784.449 0.309146 3.59272 0
M  V30 8432 O 783.553 -0.702437 4.06374 0
M  V30 8433 H 782.894 0.133762 0.650387 0
M  V30 8434 H 785.424 1.00387 1.78279 0
M  V30 8435 H 785.434 0.154336 4.07708 0
M  V30 8436 H 784.109 1.29974 3.95069 0
M  V30 8437 H 782.686 -0.513574 3.69346 0
M  V30 8438 N 784.871 -1.49948 0.485112 0
M  V30 8439 C 786.096 -2.073 -0.0645059 0
M  V30 8440 C 786.521 -1.345 -1.31497 0
M  V30 8441 O 785.879 -0.39687 -1.76903 0
M  V30 8442 C 785.927 -3.59201 -0.317304 0
M  V30 8443 O 785.031 -3.88085 -1.39514 0
M  V30 8444 H 784.372 -0.663723 0.0191822 0
M  V30 8445 H 786.902 -1.92963 0.680179 0
M  V30 8446 H 786.912 -4.04227 -0.553604 0
M  V30 8447 H 785.587 -4.11602 0.596387 0
M  V30 8448 H 784.164 -3.54885 -1.14504 0
M  V30 8449 N 786.349 -0.21828 -1.56081 0
M  V30 8450 C 787.312 0.679633 -2.18892 0
M  V30 8451 C 788.312 1.12405 -1.14986 0
M  V30 8452 O 789.502 1.03339 -1.40238 0
M  V30 8453 C 786.634 1.93063 -2.80962 0
M  V30 8454 H 787.827 0.132066 -2.99609 0
M  V30 8455 H 785.38 0.0313374 -1.56269 0
M  V30 8456 H 786.115 2.52015 -2.04106 0
M  V30 8457 H 785.9 1.62046 -3.57048 0
M  V30 8458 H 787.39 2.57043 -3.29118 0
M  V30 8459 N 787.827 1.57504 0.0551401 0
M  V30 8460 C 789.067 1.89895 0.756252 0
M  V30 8461 C 789.431 0.813983 1.73892 0
M  V30 8462 O 790.632 1.02145 2.48636 0
M  V30 8463 C 788.903 3.27494 1.43116 0
M  V30 8464 S 790.462 3.81669 2.16504 0
M  V30 8465 H 787.28 0.665173 0.251129 0
M  V30 8466 H 789.882 1.95496 0.0117193 0
M  V30 8467 H 788.586 4.04345 0.702391 0
M  V30 8468 H 788.117 3.25132 2.21479 0
M  V30 8469 H 790.132 3.58295 3.43277 0
M  V30 8470 N 789.305 -0.326896 1.54172 0
M  V30 8471 C 790.551 -1.06681 1.72473 0
M  V30 8472 C 790.884 -1.87779 0.49523 0
M  V30 8473 O 790.159 -1.87754 -0.507803 0
M  V30 8474 C 790.442 -1.99429 2.99834 0
M  V30 8475 C 790.295 -1.21682 4.33028 0
M  V30 8476 C 791.614 -2.99002 3.22933 0
M  V30 8477 H 788.733 -0.386438 0.627563 0
M  V30 8478 H 791.375 -0.343779 1.86864 0
M  V30 8479 H 789.525 -2.61081 2.87696 0
M  V30 8480 H 791.197 -0.625153 4.57044 0
M  V30 8481 H 789.44 -0.519045 4.30684 0
M  V30 8482 H 790.111 -1.89766 5.18356 0
M  V30 8483 H 792.587 -2.4747 3.34511 0
M  V30 8484 H 791.463 -3.61085 4.13412 0
M  V30 8485 H 791.724 -3.71281 2.40006 0
M  V30 8486 N 790.784 -1.46188 -0.588786 0
M  V30 8487 C 792.061 -1.41659 -1.34878 0
M  V30 8488 C 792.441 -0.0968913 -2.10878 0
M  V30 8489 O 791.789 0.921468 -2.09096 0
M  V30 8490 C 791.999 -2.6424 -2.27988 0
M  V30 8491 C 793.347 -3.1013 -2.90008 0
M  V30 8492 O 794.371 -2.64745 -2.38303 0
M  V30 8493 O 793.23 -3.88944 -3.83908 0
M  V30 8494 H 790.324 -0.563058 -0.605718 0
M  V30 8495 H 792.87 -1.58346 -0.610309 0
M  V30 8496 H 791.642 -3.51853 -1.71217 0
M  V30 8497 H 791.265 -2.49982 -3.09184 0
M  V30 8498 N 792.262 0.832906 -1.33792 0
M  V30 8499 C 793.539 1.57359 -1.16178 0
M  V30 8500 C 793.919 2.09372 0.269532 0
M  V30 8501 O 793.267 1.89993 1.26944 0
M  V30 8502 C 793.477 2.70279 -2.20795 0
M  V30 8503 C 794.825 3.39305 -2.55259 0
M  V30 8504 O 795.849 2.80526 -2.19508 0
M  V30 8505 O 794.708 4.45428 -3.16632 0
M  V30 8506 H 791.802 0.694025 -0.449731 0
M  V30 8507 H 794.348 0.875144 -1.45394 0
M  V30 8508 H 793.12 2.29527 -3.16911 0
M  V30 8509 H 792.743 3.47782 -1.927 0
M  V30 8510 N 793.74 1.17359 1.05189 0
M  V30 8511 C 794.968 0.986529 1.81866 0
M  V30 8512 C 795.383 -0.46522 1.82979 0
M  V30 8513 O 794.74 -1.32305 1.25705 0
M  V30 8514 C 794.791 1.52021 3.27982 0
M  V30 8515 O 794.512 2.91511 3.27037 0
M  V30 8516 C 796.013 1.37774 4.21347 0
M  V30 8517 H 793.233 0.349021 0.573084 0
M  V30 8518 H 795.777 1.55648 1.32643 0
M  V30 8519 H 793.932 0.992287 3.74476 0
M  V30 8520 H 794.346 3.16178 4.18488 0
M  V30 8521 H 795.82 1.7993 5.21852 0
M  V30 8522 H 796.297 0.32483 4.37997 0
M  V30 8523 H 796.903 1.89583 3.80708 0
M  V30 8524 N 795.218 -1.23913 0.973828 0
M  V30 8525 C 796.148 -2.27453 0.527969 0
M  V30 8526 C 797.129 -1.6443 -0.435513 0
M  V30 8527 O 798.314 -1.9137 -0.330306 0
M  V30 8528 C 795.444 -3.4685 -0.176757 0
M  V30 8529 C 794.398 -4.22181 0.703352 0
M  V30 8530 C 793.724 -5.34534 -0.133215 0
M  V30 8531 C 795.024 -4.82865 1.99096 0
M  V30 8532 H 796.718 -2.65 1.3934 0
M  V30 8533 H 794.264 -1.27388 0.671446 0
M  V30 8534 H 796.217 -4.18424 -0.499934 0
M  V30 8535 H 794.941 -3.08346 -1.07659 0
M  V30 8536 H 793.6 -3.52416 1.00989 0
M  V30 8537 H 793.248 -4.92271 -1.03338 0
M  V30 8538 H 792.948 -5.85855 0.452494 0
M  V30 8539 H 794.472 -6.08933 -0.450924 0
M  V30 8540 H 795.886 -5.46481 1.73297 0
M  V30 8541 H 794.283 -5.44444 2.52389 0
M  V30 8542 H 795.353 -4.03977 2.68199 0
M  V30 8543 N 796.696 -0.74468 -1.38897 0
M  V30 8544 C 797.944 -0.296298 -1.99916 0
M  V30 8545 C 798.265 1.12325 -1.59399 0
M  V30 8546 O 797.535 1.76658 -0.846689 0
M  V30 8547 H 796.115 -0.106561 -0.73936 0
M  V30 8548 H 798.777 -0.956793 -1.69798 0
M  V30 8549 H 797.873 -0.352356 -3.10105 0
M  V30 8550 N 798.174 1.49689 -0.493057 0
M  V30 8551 C 799.106 2.26867 0.326195 0
M  V30 8552 C 800.119 1.33083 0.937697 0
M  V30 8553 O 801.308 1.58427 0.822382 0
M  V30 8554 C 798.408 3.0519 1.4735 0
M  V30 8555 C 797.581 4.26491 0.970767 0
M  V30 8556 C 796.64 4.86926 1.99473 0
M  V30 8557 O 795.666 5.47221 1.56647 0
M  V30 8558 N 796.868 4.75871 3.32456 0
M  V30 8559 H 799.633 2.97816 -0.335547 0
M  V30 8560 H 797.194 1.58602 -0.325129 0
M  V30 8561 H 799.186 3.42496 2.15589 0
M  V30 8562 H 797.756 2.369 2.03954 0
M  V30 8563 H 796.976 3.94036 0.113529 0
M  V30 8564 H 798.264 5.05092 0.613156 0
M  V30 8565 H 797.662 4.2797 3.69944 0
M  V30 8566 H 796.219 5.17383 3.96431 0
M  V30 8567 N 799.652 0.226554 1.55963 0
M  V30 8568 C 800.898 -0.404387 1.98727 0
M  V30 8569 C 801.231 -1.59059 1.11418 0
M  V30 8570 O 800.506 -1.93729 0.172971 0
M  V30 8571 C 800.789 -0.834081 3.50307 0
M  V30 8572 C 800.642 0.356104 4.48388 0
M  V30 8573 C 801.961 -1.68845 4.06423 0
M  V30 8574 H 799.08 -0.145515 0.722492 0
M  V30 8575 H 801.722 0.323791 1.87221 0
M  V30 8576 H 799.872 -1.45454 3.60244 0
M  V30 8577 H 801.544 0.99432 4.50456 0
M  V30 8578 H 799.787 1.0027 4.22053 0
M  V30 8579 H 800.458 0.0124333 5.51999 0
M  V30 8580 H 802.934 -1.16489 3.99461 0
M  V30 8581 H 801.81 -1.958 5.1279 0
M  V30 8582 H 802.071 -2.65347 3.53615 0
M  V30 8583 N 801.13 -1.57531 -0.0467866 0
M  V30 8584 C 802.378 -1.88078 -0.739656 0
M  V30 8585 C 802.699 -0.821936 -1.76831 0
M  V30 8586 O 801.969 0.146582 -1.95351 0
M  V30 8587 H 800.549 -0.694075 -0.276169 0
M  V30 8588 H 803.211 -1.94893 -0.0169391 0
M  V30 8589 H 802.307 -2.86396 -1.24031 0
M  V30 8590 N 802.608 0.318715 -1.54344 0
M  V30 8591 C 803.571 1.37545 -1.83342 0
M  V30 8592 C 804.571 1.445 -0.705444 0
M  V30 8593 O 805.761 1.44443 -0.973752 0
M  V30 8594 C 802.893 2.76225 -1.99781 0
M  V30 8595 H 804.086 1.13084 -2.77762 0
M  V30 8596 H 801.639 0.554457 -1.46135 0
M  V30 8597 H 802.374 3.05934 -1.07588 0
M  V30 8598 H 802.159 2.7257 -2.81865 0
M  V30 8599 H 803.649 3.52664 -2.23647 0
M  V30 8600 N 804.086 1.46499 0.581025 0
M  V30 8601 C 805.332 1.52121 1.34116 0
M  V30 8602 C 805.665 0.173031 1.93428 0
M  V30 8603 O 804.94 -0.815729 1.76568 0
M  V30 8604 C 805.223 2.62108 2.46924 0
M  V30 8605 C 805.076 4.06462 1.92636 0
M  V30 8606 C 806.395 2.68167 3.48962 0
M  V30 8607 H 803.514 0.5538 0.486287 0
M  V30 8608 H 806.156 1.78443 0.652538 0
M  V30 8609 H 804.306 2.39794 3.05665 0
M  V30 8610 H 805.978 4.40068 1.3834 0
M  V30 8611 H 804.221 4.15862 1.23455 0
M  V30 8612 H 804.892 4.79152 2.74076 0
M  V30 8613 H 807.368 2.8823 3.00104 0
M  V30 8614 H 806.244 3.46942 4.2535 0
M  V30 8615 H 806.505 1.74284 4.06297 0
M  V30 8616 N 805.565 -0.825799 1.34232 0
M  V30 8617 C 806.512 -1.93651 1.2557 0
M  V30 8618 C 807.482 -1.65578 0.131536 0
M  V30 8619 O 808.667 -1.88231 0.312027 0
M  V30 8620 C 805.807 -3.29862 1.01415 0
M  V30 8621 C 804.92 -3.70247 2.22579 0
M  V30 8622 C 804.055 -4.95392 1.91731 0
M  V30 8623 C 803.094 -5.28349 3.09053 0
M  V30 8624 N 802.231 -6.44671 2.78107 0
M  V30 8625 H 807.071 -2.00392 2.20561 0
M  V30 8626 H 804.608 -0.980441 1.09662 0
M  V30 8627 H 806.566 -4.08356 0.854485 0
M  V30 8628 H 805.196 -3.22642 0.100936 0
M  V30 8629 H 804.248 -2.87169 2.49476 0
M  V30 8630 H 805.56 -3.90575 3.10246 0
M  V30 8631 H 804.714 -5.81665 1.72484 0
M  V30 8632 H 803.453 -4.77059 1.0132 0
M  V30 8633 H 802.458 -4.40574 3.289 0
M  V30 8634 H 803.683 -5.48622 4.00239 0
M  V30 8635 H 801.629 -6.278 1.9027 0
M  V30 8636 H 801.546 -6.65158 3.59306 0
M  V30 8637 H 802.814 -7.34022 2.62358 0
M  V30 8638 N 807.043 -1.17915 -1.04565 0
M  V30 8639 C 808.289 -0.972863 -1.77942 0
M  V30 8640 C 808.622 0.496753 -1.87739 0
M  V30 8641 O 807.897 1.3688 -1.38181 0
M  V30 8642 C 808.18 -1.62227 -3.21488 0
M  V30 8643 C 808.033 -3.16441 -3.19664 0
M  V30 8644 C 809.352 -1.33137 -4.19479 0
M  V30 8645 H 806.471 -0.354843 -0.645953 0
M  V30 8646 H 809.113 -1.45508 -1.22178 0
M  V30 8647 H 807.263 -1.21224 -3.69103 0
M  V30 8648 H 808.935 -3.66544 -2.80077 0
M  V30 8649 H 807.178 -3.48863 -2.57832 0
M  V30 8650 H 807.849 -3.57012 -4.21006 0
M  V30 8651 H 810.325 -1.68654 -3.80388 0
M  V30 8652 H 809.201 -1.81151 -5.18146 0
M  V30 8653 H 809.462 -0.253319 -4.41374 0
M  V30 8654 N 808.521 1.23394 -0.980386 0
M  V30 8655 C 809.468 2.24859 -0.520298 0
M  V30 8656 C 810.438 1.60144 0.440821 0
M  V30 8657 O 811.623 1.87593 0.348369 0
M  V30 8658 C 808.763 3.44675 0.171145 0
M  V30 8659 C 807.876 4.23947 -0.830233 0
M  V30 8660 C 807.011 5.31079 -0.113597 0
M  V30 8661 C 806.05 6.02058 -1.10419 0
M  V30 8662 N 805.187 7.00862 -0.416709 0
M  V30 8663 H 810.027 2.63579 -1.39032 0
M  V30 8664 H 807.564 1.29556 -0.696682 0
M  V30 8665 H 809.522 4.13024 0.588838 0
M  V30 8666 H 808.152 3.06755 1.00504 0
M  V30 8667 H 807.204 3.55016 -1.36631 0
M  V30 8668 H 808.516 4.72945 -1.58508 0
M  V30 8669 H 807.67 6.05622 0.36146 0
M  V30 8670 H 806.409 4.83022 0.673854 0
M  V30 8671 H 805.414 5.26307 -1.59 0
M  V30 8672 H 806.639 6.52203 -1.8923 0
M  V30 8673 H 804.585 6.55057 0.351535 0
M  V30 8674 H 804.502 7.47804 -1.11021 0
M  V30 8675 H 805.77 7.79492 0.0359606 0
M  V30 8676 N 809.999 0.752036 1.385 0
M  V30 8677 C 810.909 0.125318 2.34265 0
M  V30 8678 C 811.925 -0.702437 1.59191 0
M  V30 8679 O 813.101 -0.626951 1.91393 0
M  V30 8680 C 810.166 -0.758486 3.38301 0
M  V30 8681 C 809.227 0.0834636 4.29219 0
M  V30 8682 C 808.46 -0.758252 5.28286 0
M  V30 8683 O 808.683 -1.99632 5.34325 0
M  V30 8684 O 807.617 -0.177878 6.01637 0
M  V30 8685 H 811.443 0.91617 2.89551 0
M  V30 8686 H 809.028 0.512911 1.4032 0
M  V30 8687 H 810.91 -1.26365 4.02007 0
M  V30 8688 H 809.585 -1.52786 2.85374 0
M  V30 8689 H 808.492 0.634545 3.68679 0
M  V30 8690 H 809.825 0.815455 4.85398 0
M  V30 8691 N 811.477 -1.49425 0.500989 0
M  V30 8692 C 812.387 -2.32899 -0.282011 0
M  V30 8693 C 813.403 -1.44632 -0.967346 0
M  V30 8694 O 814.579 -1.77654 -0.94873 0
M  V30 8695 C 811.644 -3.20069 -1.33253 0
M  V30 8696 C 810.705 -4.24186 -0.660636 0
M  V30 8697 C 809.938 -5.07191 -1.6611 0
M  V30 8698 O 810.161 -4.91712 -2.89094 0
M  V30 8699 O 809.095 -5.8948 -1.21643 0
M  V30 8700 H 812.921 -3.01038 0.401224 0
M  V30 8701 H 810.506 -1.47079 0.262323 0
M  V30 8702 H 812.388 -3.74071 -1.94033 0
M  V30 8703 H 811.063 -2.54625 -1.9987 0
M  V30 8704 H 809.97 -3.74098 -0.0130959 0
M  V30 8705 H 811.303 -4.92186 -0.0369179 0
M  V30 8706 N 812.955 -0.234822 -1.55841 0
M  V30 8707 C 814.366 0.270588 -1.84729 0
M  V30 8708 C 814.717 1.58494 -1.15646 0
M  V30 8709 O 813.842 2.12071 -0.430667 0
M  V30 8710 C 814.437 0.497733 -3.35124 0
M  V30 8711 C 812.996 0.947428 -3.64281 0
M  V30 8712 C 812.143 0.01787 -2.77294 0
M  V30 8713 H 815.094 -0.457691 -1.51957 0
M  V30 8714 H 815.115 1.34199 -3.56049 0
M  V30 8715 H 814.627 -0.459037 -3.85376 0
M  V30 8716 H 812.728 1.91709 -3.19497 0
M  V30 8717 H 812.841 0.812651 -4.72158 0
M  V30 8718 H 811.205 0.527071 -2.49187 0
M  V30 8719 H 811.988 -0.934056 -3.30349 0
M  V30 8720 N 814.433 1.57553 0.0384317 0
M  V30 8721 C 815.679 1.89121 0.732199 0
M  V30 8722 C 816.012 0.831404 1.75503 0
M  V30 8723 O 815.287 -0.154642 1.93884 0
M  V30 8724 C 815.57 3.31338 1.41021 0
M  V30 8725 C 815.423 4.48004 0.401532 0
M  V30 8726 C 816.742 3.72318 2.34665 0
M  V30 8727 H 813.861 0.687819 0.264715 0
M  V30 8728 H 816.503 1.89999 -0.00496279 0
M  V30 8729 H 814.653 3.3072 2.03854 0
M  V30 8730 H 816.325 4.60755 -0.224159 0
M  V30 8731 H 814.568 4.32895 -0.280092 0
M  V30 8732 H 815.239 5.44377 0.91423 0
M  V30 8733 H 817.715 3.74243 1.81883 0
M  V30 8734 H 816.591 4.72652 2.7909 0
M  V30 8735 H 816.852 3.04062 3.20934 0
M  V30 8736 N 815.911 -0.310526 1.54511 0
M  V30 8737 C 817.188 -1.06593 1.64004 0
M  V30 8738 C 817.568 -2.05519 0.482216 0
M  V30 8739 O 816.916 -2.22455 -0.52212 0
M  V30 8740 C 817.126 -1.75627 3.01589 0
M  V30 8741 C 818.474 -2.28173 3.58081 0
M  V30 8742 O 819.498 -1.85674 3.03979 0
M  V30 8743 O 818.357 -3.06015 4.52788 0
M  V30 8744 H 815.451 -0.492109 0.664649 0
M  V30 8745 H 817.997 -0.309374 1.66856 0
M  V30 8746 H 816.769 -1.03743 3.77297 0
M  V30 8747 H 816.392 -2.58061 3.02473 0
M  V30 8748 N 817.389 -1.46805 -0.573248 0
M  V30 8749 C 818.614 -1.56433 -1.36175 0
M  V30 8750 C 819.039 -0.209336 -1.86932 0
M  V30 8751 O 818.397 0.812146 -1.62092 0
M  V30 8752 C 818.445 -2.58055 -2.51873 0
M  V30 8753 O 817.549 -2.12214 -3.53609 0
M  V30 8754 H 816.89 -0.526068 -0.405153 0
M  V30 8755 H 819.42 -1.92456 -0.694405 0
M  V30 8756 H 819.43 -2.77966 -2.98662 0
M  V30 8757 H 818.105 -3.56448 -2.14284 0
M  V30 8758 H 816.682 -2.02333 -3.13234 0
M  V30 8759 N 818.867 0.818669 -1.34668 0
M  V30 8760 C 820.144 1.56118 -1.17841 0
M  V30 8761 C 820.524 2.09646 0.24731 0
M  V30 8762 O 819.872 1.91329 1.24922 0
M  V30 8763 C 820.082 2.67922 -2.23649 0
M  V30 8764 C 821.43 3.36579 -2.58843 0
M  V30 8765 O 822.454 2.78182 -2.22471 0
M  V30 8766 O 821.313 4.42045 -3.21339 0
M  V30 8767 H 818.407 0.689216 -0.457067 0
M  V30 8768 H 820.953 0.859674 -1.46314 0
M  V30 8769 H 819.725 2.26153 -3.19328 0
M  V30 8770 H 819.348 3.45719 -1.96377 0
M  V30 8771 N 820.346 1.18468 1.03938 0
M  V30 8772 C 821.256 0.927889 2.1547 0
M  V30 8773 C 822.272 -0.108447 1.73662 0
M  V30 8774 O 823.448 0.0737636 2.01265 0
M  V30 8775 C 820.513 0.458494 3.43655 0
M  V30 8776 C 819.574 1.56295 3.99838 0
M  V30 8777 C 818.807 1.11586 5.21904 0
M  V30 8778 O 819.03 -0.0249057 5.70395 0
M  V30 8779 O 817.964 1.91412 5.70653 0
M  V30 8780 H 821.79 1.86116 2.39989 0
M  V30 8781 H 819.375 0.966607 1.13917 0
M  V30 8782 H 821.257 0.204861 4.20902 0
M  V30 8783 H 819.932 -0.446464 3.20606 0
M  V30 8784 H 818.839 1.87061 3.23974 0
M  V30 8785 H 820.172 2.44408 4.2723 0
M  V30 8786 N 821.824 -1.22873 0.986916 0
M  V30 8787 C 823.101 -1.86939 0.575589 0
M  V30 8788 C 823.481 -1.88656 -0.947205 0
M  V30 8789 O 822.829 -1.3728 -1.82665 0
M  V30 8790 C 823.039 -3.28117 1.18914 0
M  V30 8791 C 824.387 -4.04659 1.28593 0
M  V30 8792 O 825.411 -3.3736 1.14308 0
M  V30 8793 O 824.27 -5.25112 1.51391 0
M  V30 8794 H 821.364 -0.803748 0.194724 0
M  V30 8795 H 823.91 -1.30698 1.08241 0
M  V30 8796 H 822.682 -3.21468 2.231 0
M  V30 8797 H 822.305 -3.91956 0.667535 0
M  V30 8798 N 823.302 -0.75937 -1.38099 0
M  V30 8799 C 824.265 -0.14372 -2.28749 0
M  V30 8800 C 825.265 0.641338 -1.47457 0
M  V30 8801 O 826.455 0.466751 -1.67831 0
M  V30 8802 C 823.587 0.804545 -3.3127 0
M  V30 8803 H 824.78 -0.942663 -2.847 0
M  V30 8804 H 822.333 -0.526757 -1.47156 0
M  V30 8805 H 823.068 1.62895 -2.80421 0
M  V30 8806 H 822.853 0.243939 -3.9134 0
M  V30 8807 H 824.343 1.23111 -3.99041 0
M  V30 8808 N 824.78 1.49157 -0.508906 0
M  V30 8809 C 825.712 2.272 0.302115 0
M  V30 8810 C 826.725 1.3407 0.923529 0
M  V30 8811 O 827.914 1.5929 0.805532 0
M  V30 8812 C 825.014 3.06736 1.44105 0
M  V30 8813 C 824.187 4.27497 0.925477 0
M  V30 8814 C 823.246 4.89014 1.94297 0
M  V30 8815 O 822.272 5.48851 1.50834 0
M  V30 8816 N 823.474 4.7937 3.2739 0
M  V30 8817 H 826.239 2.97443 -0.367115 0
M  V30 8818 H 823.8 1.58248 -0.341933 0
M  V30 8819 H 825.792 3.44763 2.11944 0
M  V30 8820 H 824.362 2.3905 2.0143 0
M  V30 8821 H 823.582 3.94135 0.0717301 0
M  V30 8822 H 824.87 5.05714 0.55955 0
M  V30 8823 H 824.268 4.31869 3.65384 0
M  V30 8824 H 822.825 5.21559 3.90922 0
M  V30 8825 N 826.258 0.243083 1.55714 0
M  V30 8826 C 827.507 -0.383188 1.98027 0
M  V30 8827 C 827.82 -1.59347 1.13436 0
M  V30 8828 O 829.026 -2.29065 1.45745 0
M  V30 8829 C 827.482 -0.733135 3.52354 0
M  V30 8830 C 827.09 0.455539 4.45678 0
M  V30 8831 C 828.834 -1.32381 4.03331 0
M  V30 8832 C 826.741 0.0819591 5.91343 0
M  V30 8833 H 825.671 -0.146944 0.739543 0
M  V30 8834 H 828.322 0.342697 1.80272 0
M  V30 8835 H 826.704 -1.51704 3.65789 0
M  V30 8836 H 827.878 1.23291 4.44 0
M  V30 8837 H 826.193 0.960886 4.05162 0
M  V30 8838 H 828.79 -1.61658 5.09677 0
M  V30 8839 H 829.133 -2.24698 3.50452 0
M  V30 8840 H 829.666 -0.602885 3.93205 0
M  V30 8841 H 826.405 0.972171 6.48251 0
M  V30 8842 H 825.925 -0.659291 5.96166 0
M  V30 8843 H 827.604 -0.3372 6.46121 0
M  V30 8844 N 827.736 -1.57571 -0.0300757 0
M  V30 8845 C 828.668 -2.0329 -1.05857 0
M  V30 8846 C 829.681 -0.945543 -1.32527 0
M  V30 8847 O 830.87 -1.22287 -1.30032 0
M  V30 8848 C 827.97 -2.39234 -2.40042 0
M  V30 8849 C 827.143 -3.70337 -2.32743 0
M  V30 8850 C 826.202 -3.93482 -3.49369 0
M  V30 8851 O 825.228 -4.64551 -3.28909 0
M  V30 8852 N 826.43 -3.39042 -4.71201 0
M  V30 8853 H 829.195 -2.9214 -0.668897 0
M  V30 8854 H 826.756 -1.60425 -0.218038 0
M  V30 8855 H 828.748 -2.51856 -3.16782 0
M  V30 8856 H 827.318 -1.5606 -2.70858 0
M  V30 8857 H 826.538 -3.68079 -1.41109 0
M  V30 8858 H 827.826 -4.56343 -2.25007 0
M  V30 8859 H 827.224 -2.81434 -4.90725 0
M  V30 8860 H 825.781 -3.57045 -5.45309 0
M  V30 8861 N 829.214 0.302327 -1.54673 0
M  V30 8862 C 830.124 1.39542 -1.88587 0
M  V30 8863 C 831.14 1.55543 -0.779895 0
M  V30 8864 O 832.316 1.70233 -1.07623 0
M  V30 8865 C 829.381 2.7394 -2.12504 0
M  V30 8866 C 828.442 2.66935 -3.3622 0
M  V30 8867 C 827.675 3.94923 -3.58987 0
M  V30 8868 O 827.898 4.94218 -2.84789 0
M  V30 8869 O 826.832 3.96896 -4.52501 0
M  V30 8870 H 830.658 1.13784 -2.81579 0
M  V30 8871 H 828.243 0.49827 -1.40846 0
M  V30 8872 H 830.125 3.5346 -2.29443 0
M  V30 8873 H 828.8 2.99544 -1.22698 0
M  V30 8874 H 827.707 1.85892 -3.24646 0
M  V30 8875 H 829.04 2.46283 -4.26152 0
M  V30 8876 N 830.692 1.47107 0.565454 0
M  V30 8877 C 831.625 1.53505 1.68853 0
M  V30 8878 C 832.603 0.387806 1.57908 0
M  V30 8879 O 833.787 0.594433 1.78882 0
M  V30 8880 C 830.914 1.42985 3.07039 0
M  V30 8881 C 829.96 2.62109 3.36454 0
M  V30 8882 S 830.793 4.2436 3.26617 0
M  V30 8883 C 831.949 4.16378 4.67312 0
M  V30 8884 H 832.182 2.48522 1.63169 0
M  V30 8885 H 829.715 1.35204 0.745609 0
M  V30 8886 H 831.673 1.37602 3.8675 0
M  V30 8887 H 830.334 0.493671 3.10196 0
M  V30 8888 H 829.527 2.50788 4.37174 0
M  V30 8889 H 829.129 2.64571 2.64345 0
M  V30 8890 H 831.421 3.84123 5.58082 0
M  V30 8891 H 832.364 5.17156 4.83689 0
M  V30 8892 H 832.772 3.47363 4.44971 0
M  V30 8893 N 832.17 -0.811516 1.35101 0
M  V30 8894 C 833.08 -1.95475 1.29718 0
M  V30 8895 C 834.096 -1.72813 0.202909 0
M  V30 8896 O 835.272 -1.96725 0.431414 0
M  V30 8897 C 832.337 -3.29975 1.06385 0
M  V30 8898 C 831.398 -3.65566 2.25077 0
M  V30 8899 C 830.631 -4.93648 2.02848 0
M  V30 8900 O 830.854 -5.617 0.992442 0
M  V30 8901 O 829.788 -5.27384 2.90087 0
M  V30 8902 H 833.614 -2.02961 2.25921 0
M  V30 8903 H 831.199 -0.948583 1.15422 0
M  V30 8904 H 833.081 -4.10506 0.951999 0
M  V30 8905 H 831.756 -3.2343 0.132294 0
M  V30 8906 H 830.663 -2.85432 2.41825 0
M  V30 8907 H 831.996 -3.7681 3.16662 0
M  V30 8908 N 833.648 -1.19017 -1.03309 0
M  V30 8909 C 834.873 -1.01598 -1.80811 0
M  V30 8910 C 835.298 0.430773 -1.83101 0
M  V30 8911 O 834.656 1.30946 -1.25391 0
M  V30 8912 C 834.704 -1.5845 -3.23923 0
M  V30 8913 O 833.808 -0.810972 -4.04348 0
M  V30 8914 H 833.149 -0.359398 -0.558327 0
M  V30 8915 H 835.679 -1.57945 -1.30055 0
M  V30 8916 H 835.689 -1.61486 -3.74682 0
M  V30 8917 H 834.364 -2.63752 -3.21571 0
M  V30 8918 H 832.941 -0.85353 -3.63 0
M  V30 8919 N 835.127 1.22348 -0.993418 0
M  V30 8920 C 836.375 1.90733 -0.668246 0
M  V30 8921 C 836.696 1.77732 0.802261 0
M  V30 8922 O 835.966 1.16486 1.57505 0
M  V30 8923 H 834.546 0.705966 -0.244174 0
M  V30 8924 H 837.208 1.48691 -1.26004 0
M  V30 8925 H 836.304 2.97883 -0.931239 0
M  V30 8926 N 836.605 0.766683 1.37694 0
M  V30 8927 C 837.515 0.150158 2.34119 0
M  V30 8928 C 838.531 -0.685513 1.59927 0
M  V30 8929 O 839.707 -0.606616 1.92047 0
M  V30 8930 C 836.772 -0.722562 3.39087 0
M  V30 8931 C 835.833 0.128983 4.29106 0
M  V30 8932 C 835.066 -0.702178 5.29061 0
M  V30 8933 O 835.289 -1.93954 5.36412 0
M  V30 8934 O 834.223 -0.114056 6.01792 0
M  V30 8935 H 838.049 0.946829 2.88563 0
M  V30 8936 H 835.634 0.527765 1.39768 0
M  V30 8937 H 837.516 -1.22095 4.03325 0
M  V30 8938 H 836.191 -1.49751 2.86978 0
M  V30 8939 H 835.098 0.673612 3.67985 0
M  V30 8940 H 836.431 0.866892 4.84506 0
M  V30 8941 N 838.083 -1.48885 0.516809 0
M  V30 8942 C 839.015 -2.27357 -0.290061 0
M  V30 8943 C 840.028 -1.34558 -0.916406 0
M  V30 8944 O 841.217 -1.59715 -0.797073 0
M  V30 8945 C 838.317 -3.07496 -1.42476 0
M  V30 8946 C 837.49 -4.27982 -0.902793 0
M  V30 8947 C 836.549 -4.90038 -1.91701 0
M  V30 8948 O 835.575 -5.49643 -1.47922 0
M  V30 8949 N 836.777 -4.811 -3.24843 0
M  V30 8950 H 839.542 -2.97244 0.382884 0
M  V30 8951 H 837.103 -1.58064 0.35032 0
M  V30 8952 H 839.095 -3.45882 -2.10113 0
M  V30 8953 H 837.665 -2.40115 -2.00159 0
M  V30 8954 H 836.885 -3.94167 -0.0508272 0
M  V30 8955 H 838.173 -5.06003 -0.532723 0
M  V30 8956 H 837.571 -4.33801 -3.63088 0
M  V30 8957 H 836.128 -5.23625 -3.8815 0
M  V30 8958 N 839.561 -0.251338 -1.55583 0
M  V30 8959 C 840.524 0.63305 -2.20284 0
M  V30 8960 C 841.524 1.09941 -1.17344 0
M  V30 8961 O 842.714 1.00341 -1.42399 0
M  V30 8962 C 839.846 1.8706 -2.84993 0
M  V30 8963 H 841.039 0.0684846 -2.99822 0
M  V30 8964 H 838.592 -0.00181653 -1.563 0
M  V30 8965 H 839.327 2.47629 -2.09405 0
M  V30 8966 H 839.112 1.54436 -3.60405 0
M  V30 8967 H 840.602 2.50004 -3.34496 0
M  V30 8968 N 841.039 1.57585 0.0217189 0
M  V30 8969 C 842.002 2.06004 1.00474 0
M  V30 8970 C 843.002 0.965461 1.2859 0
M  V30 8971 O 844.192 1.22884 1.23471 0
M  V30 8972 C 841.324 2.48319 2.33561 0
M  V30 8973 H 842.517 2.94112 0.586346 0
M  V30 8974 H 840.07 1.53973 0.268716 0
M  V30 8975 H 840.805 1.63389 2.80133 0
M  V30 8976 H 840.59 3.28239 2.1448 0
M  V30 8977 H 842.08 2.86181 3.04122 0
M  V30 8978 N 842.517 -0.29412 1.54831 0
M  V30 8979 C 843.764 -1.02846 1.74439 0
M  V30 8980 C 844.092 -1.87029 0.533905 0
M  V30 8981 O 843.347 -1.8962 -0.484035 0
M  V30 8982 C 843.646 -1.95782 2.99006 0
M  V30 8983 C 843.312 -1.2752 4.32492 0
M  V30 8984 C 841.974 -1.08637 4.68777 0
M  V30 8985 C 844.326 -0.787761 5.15212 0
M  V30 8986 C 841.654 -0.39704 5.85355 0
M  V30 8987 C 844.006 -0.112123 6.32501 0
M  V30 8988 C 842.67 0.0886071 6.67441 0
M  V30 8989 H 841.94 -0.376341 0.638317 0
M  V30 8990 H 844.587 -0.302684 1.89093 0
M  V30 8991 H 842.892 -2.74911 2.79162 0
M  V30 8992 H 844.589 -2.52684 3.11371 0
M  V30 8993 H 841.179 -1.43226 4.03961 0
M  V30 8994 H 845.363 -0.921341 4.87673 0
M  V30 8995 H 840.619 -0.230597 6.10965 0
M  V30 8996 H 844.793 0.27344 6.95863 0
M  V30 8997 H 842.42 0.624748 7.57628 0
M  V30 8998 N 843.995 -1.47404 -0.557645 0
M  V30 8999 C 844.928 -1.54399 -1.68036 0
M  V30 9000 C 845.906 -0.396175 -1.577 0
M  V30 9001 O 847.09 -0.603911 -1.78564 0
M  V30 9002 C 844.217 -1.44611 -3.06277 0
M  V30 9003 C 843.263 -2.63889 -3.35059 0
M  V30 9004 S 844.096 -4.26086 -3.24362 0
M  V30 9005 C 845.252 -4.1885 -4.65097 0
M  V30 9006 H 845.485 -2.49384 -1.61849 0
M  V30 9007 H 843.018 -1.35597 -0.738429 0
M  V30 9008 H 844.976 -1.39651 -3.86015 0
M  V30 9009 H 843.637 -0.510114 -3.0993 0
M  V30 9010 H 842.83 -2.53103 -4.35838 0
M  V30 9011 H 842.432 -2.65969 -2.62938 0
M  V30 9012 H 844.724 -3.87077 -5.56037 0
M  V30 9013 H 845.667 -5.19714 -4.8094 0
M  V30 9014 H 846.075 -3.49717 -4.43123 0
M  V30 9015 N 845.473 0.80434 -1.35529 0
M  V30 9016 C 846.405 1.92445 -1.2449 0
M  V30 9017 C 847.418 1.61934 -0.167685 0
M  V30 9018 O 848.607 1.73461 -0.42115 0
M  V30 9019 C 845.707 3.26875 -0.894751 0
M  V30 9020 C 844.88 3.85275 -2.07079 0
M  V30 9021 C 843.939 4.98116 -1.69607 0
M  V30 9022 O 842.965 5.15424 -2.41509 0
M  V30 9023 N 844.167 5.77169 -0.621012 0
M  V30 9024 H 846.932 2.02441 -2.20993 0
M  V30 9025 H 844.493 0.981874 -1.28728 0
M  V30 9026 H 846.485 3.99837 -0.625511 0
M  V30 9027 H 845.055 3.12594 -0.0193306 0
M  V30 9028 H 844.275 3.0448 -2.5037 0
M  V30 9029 H 845.563 4.21024 -2.85685 0
M  V30 9030 H 844.961 5.65695 -0.0236679 0
M  V30 9031 H 843.518 6.50499 -0.411558 0
M  V30 9032 N 846.951 1.19563 1.02676 0
M  V30 9033 C 847.883 0.893054 2.11086 0
M  V30 9034 C 848.896 -0.115101 1.62393 0
M  V30 9035 O 850.085 0.11459 1.78132 0
M  V30 9036 C 847.185 0.315533 3.37428 0
M  V30 9037 C 846.358 1.37276 4.153 0
M  V30 9038 C 845.417 0.808398 5.19953 0
M  V30 9039 O 844.443 1.48661 5.49444 0
M  V30 9040 N 845.645 -0.387253 5.79207 0
M  V30 9041 H 848.41 1.82622 2.37633 0
M  V30 9042 H 845.971 1.09792 1.18984 0
M  V30 9043 H 847.963 -0.0759166 4.04629 0
M  V30 9044 H 846.533 -0.521961 3.08211 0
M  V30 9045 H 845.753 1.93897 3.43217 0
M  V30 9046 H 847.041 2.08509 4.64114 0
M  V30 9047 H 846.439 -0.955725 5.57568 0
M  V30 9048 H 844.996 -0.720457 6.47806 0
M  V30 9049 N 848.429 -1.21819 0.999893 0
M  V30 9050 C 849.84 -1.72517 0.713775 0
M  V30 9051 C 850.191 -1.80505 -0.768922 0
M  V30 9052 O 849.316 -1.45611 -1.60083 0
M  V30 9053 C 849.911 -3.13321 1.28901 0
M  V30 9054 C 848.47 -3.61396 1.05212 0
M  V30 9055 C 847.617 -2.39074 1.40494 0
M  V30 9056 H 850.568 -1.07068 1.17141 0
M  V30 9057 H 850.589 -3.74535 0.671084 0
M  V30 9058 H 850.101 -3.07475 2.36814 0
M  V30 9059 H 848.202 -3.72599 -0.0100732 0
M  V30 9060 H 848.315 -4.47145 1.72042 0
M  V30 9061 H 846.679 -2.41015 0.823642 0
M  V30 9062 H 847.462 -2.35884 2.49427 0
M  V30 9063 N 849.908 -0.773975 -1.37286 0
M  V30 9064 C 851.155 -0.339306 -1.99637 0
M  V30 9065 C 851.483 1.08478 -1.61439 0
M  V30 9066 O 850.738 1.7612 -0.853252 0
M  V30 9067 C 851.037 -0.432651 -3.54772 0
M  V30 9068 C 850.703 -1.81531 -4.12744 0
M  V30 9069 C 849.365 -2.19366 -4.2829 0
M  V30 9070 C 851.717 -2.72137 -4.44512 0
M  V30 9071 C 849.045 -3.47239 -4.72908 0
M  V30 9072 C 851.397 -3.99421 -4.90556 0
M  V30 9073 C 850.061 -4.37298 -5.04308 0
M  V30 9074 H 849.331 -0.124161 -0.730524 0
M  V30 9075 H 851.978 -0.988432 -1.64019 0
M  V30 9076 H 850.283 0.30001 -3.9065 0
M  V30 9077 H 851.98 -0.0776 -4.00925 0
M  V30 9078 H 848.57 -1.51126 -4.01072 0
M  V30 9079 H 852.754 -2.44165 -4.32084 0
M  V30 9080 H 848.01 -3.76477 -4.81742 0
M  V30 9081 H 852.184 -4.69756 -5.14104 0
M  V30 9082 H 849.811 -5.36442 -5.38641 0
M  V30 9083 N 851.386 1.48609 -0.524698 0
M  V30 9084 C 852.316 2.32366 0.229837 0
M  V30 9085 C 853.297 1.41759 0.940129 0
M  V30 9086 O 854.482 1.7065 0.926936 0
M  V30 9087 C 851.612 3.22835 1.28043 0
M  V30 9088 C 850.566 4.22424 0.688603 0
M  V30 9089 C 849.892 5.0199 1.84146 0
M  V30 9090 C 851.192 5.21217 -0.336176 0
M  V30 9091 H 852.886 2.95698 -0.469339 0
M  V30 9092 H 850.432 1.42197 -0.227156 0
M  V30 9093 H 852.385 3.80253 1.8162 0
M  V30 9094 H 851.109 2.57492 2.00912 0
M  V30 9095 H 849.768 3.66185 0.174402 0
M  V30 9096 H 849.416 4.33076 2.5584 0
M  V30 9097 H 849.116 5.69392 1.45142 0
M  V30 9098 H 850.64 5.62259 2.38111 0
M  V30 9099 H 852.054 5.7319 0.112307 0
M  V30 9100 H 850.451 5.96642 -0.643324 0
M  V30 9101 H 851.521 4.68676 -1.24381 0
M  V30 9102 N 852.864 0.259585 1.55447 0
M  V30 9103 C 853.774 -0.645026 2.25558 0
M  V30 9104 C 854.79 -1.18291 1.27606 0
M  V30 9105 O 855.966 -1.21649 1.6051 0
M  V30 9106 C 853.031 -1.81964 2.9511 0
M  V30 9107 C 852.092 -1.31997 4.08504 0
M  V30 9108 C 851.325 -2.43861 4.74729 0
M  V30 9109 O 851.548 -3.62876 4.40088 0
M  V30 9110 O 850.482 -2.12898 5.6299 0
M  V30 9111 H 854.308 -0.0775399 3.03601 0
M  V30 9112 H 851.893 0.0275859 1.49375 0
M  V30 9113 H 853.775 -2.50485 3.38873 0
M  V30 9114 H 852.45 -2.37451 2.19997 0
M  V30 9115 H 851.357 -0.601676 3.6923 0
M  V30 9116 H 852.69 -0.811045 4.85472 0
M  V30 9117 N 854.342 -1.57594 -0.0133615 0
M  V30 9118 C 855.753 -1.78168 -0.557937 0
M  V30 9119 C 856.104 -0.892616 -1.74719 0
M  V30 9120 O 855.229 -0.0915491 -2.16206 0
M  V30 9121 C 855.824 -3.23115 -1.01894 0
M  V30 9122 C 854.383 -3.44831 -1.50892 0
M  V30 9123 C 853.53 -2.73558 -0.454044 0
M  V30 9124 H 856.481 -1.57266 0.212843 0
M  V30 9125 H 856.502 -3.30493 -1.8856 0
M  V30 9126 H 856.014 -3.87798 -0.153175 0
M  V30 9127 H 854.115 -2.85345 -2.39602 0
M  V30 9128 H 854.228 -4.53485 -1.54559 0
M  V30 9129 H 852.592 -2.37787 -0.912666 0
M  V30 9130 H 853.375 -3.40932 0.402524 0
M  V30 9131 N 855.82 0.285905 -1.54985 0
M  V30 9132 C 857.048 1.03776 -1.78992 0
M  V30 9133 C 857.463 1.80402 -0.556814 0
M  V30 9134 O 856.82 1.76242 0.473801 0
M  V30 9135 C 856.871 2.0065 -3.00702 0
M  V30 9136 O 856.592 1.27131 -4.19249 0
M  V30 9137 C 858.093 2.87753 -3.37214 0
M  V30 9138 H 855.313 0.307126 -0.596586 0
M  V30 9139 H 857.857 0.3206 -2.01971 0
M  V30 9140 H 856.012 2.67847 -2.79887 0
M  V30 9141 H 856.426 1.92316 -4.8797 0
M  V30 9142 H 857.9 3.51548 -4.2558 0
M  V30 9143 H 858.377 3.56848 -2.56039 0
M  V30 9144 H 858.983 2.26065 -3.60242 0
M  V30 9145 N 857.298 1.47698 0.54982 0
M  V30 9146 C 858.248 1.57145 1.65195 0
M  V30 9147 C 859.232 0.429839 1.55052 0
M  V30 9148 O 860.424 0.68018 1.63409 0
M  V30 9149 C 857.553 1.59573 3.0396 0
M  V30 9150 C 856.639 2.79144 3.19279 0
M  V30 9151 N 857.03 4.03769 3.04638 0
M  V30 9152 C 855.328 2.76061 3.50295 0
M  V30 9153 C 856.029 4.83887 3.22845 0
M  V30 9154 N 855.005 4.1634 3.49517 0
M  V30 9155 H 858.807 2.51266 1.52455 0
M  V30 9156 H 856.321 1.43795 0.754773 0
M  V30 9157 H 858.318 1.64431 3.83103 0
M  V30 9158 H 856.978 0.66553 3.17806 0
M  V30 9159 H 857.989 4.34515 2.81811 0
M  V30 9160 H 854.666 1.92211 3.70622 0
M  V30 9161 H 856.056 5.92724 3.1643 0
M  V30 9162 N 858.776 -0.797141 1.35954 0
M  V30 9163 C 860.004 -1.5858 1.32891 0
M  V30 9164 C 860.419 -1.88578 -0.0915564 0
M  V30 9165 O 859.776 -1.49532 -1.04625 0
M  V30 9166 C 859.827 -2.91143 2.14284 0
M  V30 9167 O 859.548 -2.62442 3.50793 0
M  V30 9168 C 861.049 -3.85476 2.18914 0
M  V30 9169 H 858.269 -0.492111 0.456144 0
M  V30 9170 H 860.813 -0.98994 1.78943 0
M  V30 9171 H 858.968 -3.47219 1.71807 0
M  V30 9172 H 859.382 -3.4715 3.93175 0
M  V30 9173 H 860.856 -4.75574 2.80238 0
M  V30 9174 H 861.333 -4.22758 1.19047 0
M  V30 9175 H 861.939 -3.35334 2.61593 0
M  V30 9176 N 860.254 -1.20106 -1.0204 0
M  V30 9177 C 861.67 -0.955099 -1.27867 0
M  V30 9178 C 861.87 0.367595 -1.98119 0
M  V30 9179 O 860.926 1.09705 -2.27423 0
M  V30 9180 C 862.239 -2.13507 -2.11744 0
M  V30 9181 C 863.787 -2.17563 -2.25023 0
M  V30 9182 C 864.262 -3.35035 -3.12275 0
M  V30 9183 N 865.753 -3.35024 -3.19864 0
M  V30 9184 C 866.488 -4.22566 -3.8759 0
M  V30 9185 N 865.984 -5.20278 -4.57474 0
M  V30 9186 N 867.777 -4.10418 -3.84075 0
M  V30 9187 H 859.928 -2.05193 -0.54861 0
M  V30 9188 H 862.191 -0.897689 -0.304728 0
M  V30 9189 H 861.897 -3.09275 -1.67456 0
M  V30 9190 H 861.771 -2.11281 -3.12474 0
M  V30 9191 H 864.158 -1.22359 -2.68537 0
M  V30 9192 H 864.239 -2.23838 -1.23815 0
M  V30 9193 H 863.883 -4.30522 -2.69468 0
M  V30 9194 H 863.813 -3.25996 -4.13563 0
M  V30 9195 H 866.304 -2.64299 -2.701 0
M  V30 9196 H 866.617 -5.83408 -5.06809 0
M  V30 9197 H 864.962 -5.24219 -4.56311 0
M  V30 9198 H 868.153 -3.33353 -3.28623 0
M  V30 9199 H 868.326 -4.78854 -4.36581 0
M  V30 9200 N 861.732 1.21287 -1.00634 0
M  V30 9201 C 862.695 2.21927 -0.572821 0
M  V30 9202 C 863.695 1.5691 0.351541 0
M  V30 9203 O 864.885 1.73623 0.141643 0
M  V30 9204 C 862.017 3.40501 0.164932 0
M  V30 9205 H 863.21 2.61795 -1.463 0
M  V30 9206 H 860.763 1.34571 -0.794998 0
M  V30 9207 H 861.498 3.06123 1.07049 0
M  V30 9208 H 861.283 3.88912 -0.498962 0
M  V30 9209 H 862.773 4.15103 0.455945 0
M  V30 9210 N 863.21 0.781244 1.36873 0
M  V30 9211 C 864.14 0.188128 2.32741 0
M  V30 9212 C 865.121 -0.672326 1.56249 0
M  V30 9213 O 866.306 -0.607835 1.84442 0
M  V30 9214 C 863.436 -0.684341 3.40491 0
M  V30 9215 C 862.39 0.0755641 4.27933 0
M  V30 9216 C 861.716 -0.916968 5.26779 0
M  V30 9217 C 863.016 1.26006 5.06873 0
M  V30 9218 H 864.71 0.989016 2.82593 0
M  V30 9219 H 862.256 0.477038 1.35869 0
M  V30 9220 H 864.209 -1.10915 4.06541 0
M  V30 9221 H 862.933 -1.51785 2.89187 0
M  V30 9222 H 861.592 0.481258 3.63427 0
M  V30 9223 H 861.24 -1.74528 4.71751 0
M  V30 9224 H 860.94 -0.413 5.86147 0
M  V30 9225 H 862.464 -1.34052 5.95703 0
M  V30 9226 H 863.878 0.911425 5.66009 0
M  V30 9227 H 862.275 1.69676 5.75613 0
M  V30 9228 H 863.345 2.05948 4.38991 0
M  V30 9229 N 864.689 -1.48329 0.532571 0
M  V30 9230 C 865.914 -2.074 0.00147755 0
M  V30 9231 C 866.339 -1.38615 -1.27151 0
M  V30 9232 O 865.697 -0.452949 -1.75551 0
M  V30 9233 C 865.745 -3.60029 -0.202866 0
M  V30 9234 O 864.849 -3.92327 -1.27097 0
M  V30 9235 H 864.19 -0.662777 0.0402883 0
M  V30 9236 H 866.72 -1.90701 0.741224 0
M  V30 9237 H 866.73 -4.05783 -0.424722 0
M  V30 9238 H 865.405 -4.09496 0.727033 0
M  V30 9239 H 863.982 -3.58348 -1.03156 0
M  V30 9240 N 866.167 -0.267825 -1.55308 0
M  V30 9241 C 867.413 0.351556 -1.9973 0
M  V30 9242 C 867.746 1.56049 -1.15596 0
M  V30 9243 O 867.021 1.93203 -0.224274 0
M  V30 9244 C 867.304 0.74091 -3.52395 0
M  V30 9245 C 867.157 -0.474861 -4.47286 0
M  V30 9246 C 868.476 1.5801 -4.10756 0
M  V30 9247 H 865.595 0.126308 -0.726096 0
M  V30 9248 H 868.237 -0.373316 -1.86296 0
M  V30 9249 H 866.387 1.35851 -3.63973 0
M  V30 9250 H 868.059 -1.1134 -4.47662 0
M  V30 9251 H 866.302 -1.11425 -4.19246 0
M  V30 9252 H 866.973 -0.158782 -5.51772 0
M  V30 9253 H 869.449 1.05857 -4.0241 0
M  V30 9254 H 868.325 1.82135 -5.17801 0
M  V30 9255 H 868.586 2.55878 -3.60526 0
M  V30 9256 N 867.645 1.57599 0.00500368 0
M  V30 9257 C 869.061 1.55463 0.361015 0
M  V30 9258 C 869.261 0.997051 1.75103 0
M  V30 9259 O 868.317 0.628661 2.44549 0
M  V30 9260 C 869.63 2.99734 0.240828 0
M  V30 9261 C 871.178 3.11399 0.316138 0
M  V30 9262 C 871.653 4.57446 0.22513 0
M  V30 9263 N 873.144 4.62334 0.283186 0
M  V30 9264 C 873.879 5.72914 0.23603 0
M  V30 9265 N 873.375 6.92659 0.139762 0
M  V30 9266 N 875.168 5.61364 0.287529 0
M  V30 9267 H 867.319 1.92185 -0.904359 0
M  V30 9268 H 869.582 0.882529 -0.34619 0
M  V30 9269 H 869.288 3.44348 -0.715343 0
M  V30 9270 H 869.162 3.63009 1.02491 0
M  V30 9271 H 871.549 2.66718 1.26275 0
M  V30 9272 H 871.63 2.50911 -0.497725 0
M  V30 9273 H 871.274 5.02801 -0.717917 0
M  V30 9274 H 871.204 5.15874 1.05742 0
M  V30 9275 H 873.695 3.7619 0.359123 0
M  V30 9276 H 874.008 7.72722 0.10954 0
M  V30 9277 H 872.353 6.9492 0.105462 0
M  V30 9278 H 875.544 4.66707 0.360897 0
M  V30 9279 H 875.717 6.47528 0.247313 0
M  V30 9280 N 869.123 -0.277682 1.55134 0
M  V30 9281 C 870.055 -1.36531 1.84098 0
M  V30 9282 C 871.068 -1.45756 0.725194 0
M  V30 9283 O 872.257 -1.47656 1.00299 0
M  V30 9284 C 869.357 -2.74701 1.98476 0
M  V30 9285 C 868.53 -2.88125 3.29094 0
M  V30 9286 C 867.589 -4.0694 3.33596 0
M  V30 9287 O 866.615 -3.9792 4.06999 0
M  V30 9288 N 867.817 -5.18687 2.60661 0
M  V30 9289 H 870.582 -1.12032 2.77973 0
M  V30 9290 H 868.143 -0.467793 1.54995 0
M  V30 9291 H 870.135 -3.52471 1.98863 0
M  V30 9292 H 868.705 -2.92043 1.11488 0
M  V30 9293 H 867.925 -1.97277 3.41285 0
M  V30 9294 H 869.213 -2.94021 4.15246 0
M  V30 9295 H 868.611 -5.28901 2.00699 0
M  V30 9296 H 867.168 -5.94705 2.66776 0
M  V30 9297 N 870.601 -1.47988 -0.541979 0
M  V30 9298 C 871.564 -1.61148 -1.62984 0
M  V30 9299 C 872.564 -0.48553 -1.53295 0
M  V30 9300 O 873.754 -0.751012 -1.5718 0
M  V30 9301 C 870.886 -1.57038 -3.02576 0
M  V30 9302 H 872.079 -2.58138 -1.52659 0
M  V30 9303 H 869.632 -1.36405 -0.763106 0
M  V30 9304 H 870.367 -0.614807 -3.18419 0
M  V30 9305 H 870.152 -2.38769 -3.11018 0
M  V30 9306 H 871.642 -1.69416 -3.81691 0
M  V30 9307 N 872.079 0.78992 -1.36375 0
M  V30 9308 C 873.49 1.36506 -1.2737 0
M  V30 9309 C 873.841 1.96008 0.086711 0
M  V30 9310 O 872.966 1.92521 0.988159 0
M  V30 9311 C 873.561 2.48175 -2.30639 0
M  V30 9312 C 872.12 3.01506 -2.25325 0
M  V30 9313 C 871.267 1.74581 -2.15445 0
M  V30 9314 H 874.218 0.591606 -1.47261 0
M  V30 9315 H 874.239 3.27179 -1.94253 0
M  V30 9316 H 873.751 2.04838 -3.2964 0
M  V30 9317 H 871.852 3.49265 -1.29788 0
M  V30 9318 H 871.965 3.58355 -3.17992 0
M  V30 9319 H 870.329 1.96794 -1.61692 0
M  V30 9320 H 871.112 1.33373 -3.16333 0
M  V30 9321 N 873.557 1.20646 1.01402 0
M  V30 9322 C 874.487 0.98155 2.11867 0
M  V30 9323 C 875.468 -0.0903712 1.6986 0
M  V30 9324 O 876.653 0.0676586 1.94082 0
M  V30 9325 C 873.783 0.535636 3.43145 0
M  V30 9326 C 872.737 1.55109 3.98905 0
M  V30 9327 C 872.063 0.961725 5.2598 0
M  V30 9328 C 873.363 2.93552 4.32001 0
M  V30 9329 H 875.057 1.90544 2.3094 0
M  V30 9330 H 872.603 0.917554 1.10982 0
M  V30 9331 H 874.556 0.365512 4.19812 0
M  V30 9332 H 873.28 -0.423882 3.23838 0
M  V30 9333 H 871.939 1.70862 3.24348 0
M  V30 9334 H 871.587 -0.00580108 5.03 0
M  V30 9335 H 871.287 1.63993 5.64252 0
M  V30 9336 H 872.811 0.802726 6.053 0
M  V30 9337 H 874.225 2.81295 4.99546 0
M  V30 9338 H 872.622 3.58303 4.81393 0
M  V30 9339 H 873.692 3.4508 3.40658 0
M  V30 9340 N 875.035 -1.20752 1.01276 0
M  V30 9341 C 875.998 -2.2162 0.584583 0
M  V30 9342 C 876.998 -1.57094 -0.343215 0
M  V30 9343 O 878.188 -1.73696 -0.132433 0
M  V30 9344 C 875.32 -3.40583 -0.146872 0
M  V30 9345 H 876.513 -2.61015 1.47686 0
M  V30 9346 H 874.066 -1.34148 0.802123 0
M  V30 9347 H 874.801 -3.06686 -1.05424 0
M  V30 9348 H 874.586 -3.88642 0.51958 0
M  V30 9349 H 876.076 -4.15339 -0.433924 0
M  V30 9350 N 876.513 -0.788492 -1.36457 0
M  V30 9351 C 877.476 -0.192209 -2.28393 0
M  V30 9352 C 878.476 0.609916 -1.48784 0
M  V30 9353 O 879.666 0.431046 -1.68783 0
M  V30 9354 C 876.798 0.734096 -3.32902 0
M  V30 9355 H 877.991 -1.00284 -2.82636 0
M  V30 9356 H 875.544 -0.557852 -1.46006 0
M  V30 9357 H 876.279 1.5691 -2.83813 0
M  V30 9358 H 876.064 0.160875 -3.9177 0
M  V30 9359 H 877.554 1.1462 -4.01562 0
M  V30 9360 N 877.991 1.48044 -0.54043 0
M  V30 9361 C 879.237 2.02797 -0.0101718 0
M  V30 9362 C 879.57 1.41565 1.32939 0
M  V30 9363 O 878.845 0.565139 1.86109 0
M  V30 9364 C 879.128 3.59959 0.100758 0
M  V30 9365 C 878.981 4.31654 -1.26471 0
M  V30 9366 C 880.3 4.32347 0.822455 0
M  V30 9367 H 877.419 0.736982 -0.00517052 0
M  V30 9368 H 880.061 1.76656 -0.69948 0
M  V30 9369 H 878.211 3.82363 0.687824 0
M  V30 9370 H 879.883 4.20639 -1.89369 0
M  V30 9371 H 878.126 3.92663 -1.84386 0
M  V30 9372 H 878.797 5.401 -1.13998 0
M  V30 9373 H 881.273 4.14835 0.324164 0
M  V30 9374 H 880.149 5.41978 0.868993 0
M  V30 9375 H 880.41 4.00369 1.87501 0
M  V30 9376 N 879.47 0.276058 1.55163 0
M  V30 9377 C 880.718 -0.339782 1.99223 0
M  V30 9378 C 881.039 -1.56307 1.16589 0
M  V30 9379 O 880.309 -1.94225 0.25564 0
M  V30 9380 H 878.889 -0.128534 0.735859 0
M  V30 9381 H 881.551 0.381612 1.91128 0
M  V30 9382 H 880.647 -0.629 3.05696 0
M  V30 9383 N 880.948 -1.576 0.00335426 0
M  V30 9384 C 881.881 -2.04085 -1.021 0
M  V30 9385 C 882.859 -0.931382 -1.33282 0
M  V30 9386 O 884.043 -1.19976 -1.45389 0
M  V30 9387 C 881.17 -2.44128 -2.34775 0
M  V30 9388 C 880.216 -3.65841 -2.19232 0
M  V30 9389 S 881.049 -5.13616 -1.51521 0
M  V30 9390 C 882.205 -5.56931 -2.8562 0
M  V30 9391 H 882.438 -2.90652 -0.625192 0
M  V30 9392 H 879.971 -1.52998 -0.207611 0
M  V30 9393 H 881.929 -2.67866 -3.1106 0
M  V30 9394 H 880.59 -1.57954 -2.71495 0
M  V30 9395 H 879.783 -3.9162 -3.17253 0
M  V30 9396 H 879.385 -3.42122 -1.51091 0
M  V30 9397 H 881.677 -5.59596 -3.81914 0
M  V30 9398 H 882.62 -6.5683 -2.64536 0
M  V30 9399 H 883.028 -4.84504 -2.89683 0
M  V30 9400 N 882.426 0.269451 -1.5528 0
M  V30 9401 C 883.703 1.02207 -1.66773 0
M  V30 9402 C 884.083 2.04168 -0.536536 0
M  V30 9403 O 883.431 2.23761 0.462956 0
M  V30 9404 C 883.641 1.67569 -3.0614 0
M  V30 9405 C 884.989 2.18599 -3.64005 0
M  V30 9406 O 886.013 1.7755 -3.08795 0
M  V30 9407 O 884.872 2.93903 -4.60742 0
M  V30 9408 H 881.966 0.474314 -0.677462 0
M  V30 9409 H 884.512 0.265026 -1.67618 0
M  V30 9410 H 883.284 0.937029 -3.79915 0
M  V30 9411 H 882.907 2.49951 -3.09209 0
M  V30 9412 N 883.904 1.48273 0.534124 0
M  V30 9413 C 885.152 1.55771 1.28762 0
M  V30 9414 C 885.473 0.231575 1.9362 0
M  V30 9415 O 884.743 -0.746533 1.81118 0
M  V30 9416 H 883.323 0.573851 0.47823 0
M  V30 9417 H 885.985 1.84712 0.621888 0
M  V30 9418 H 885.081 2.33657 2.06908 0
M  V30 9419 N 885.382 -0.782676 1.36792 0
M  V30 9420 C 886.312 -1.90973 1.34356 0
M  V30 9421 C 887.293 -1.6875 0.213917 0
M  V30 9422 O 888.478 -1.89766 0.412601 0
M  V30 9423 C 885.608 -3.28097 1.13884 0
M  V30 9424 C 884.562 -3.6486 2.23744 0
M  V30 9425 C 883.888 -5.00406 1.88408 0
M  V30 9426 C 885.188 -3.72742 3.6587 0
M  V30 9427 H 886.882 -1.93268 2.28665 0
M  V30 9428 H 884.428 -0.928447 1.10072 0
M  V30 9429 H 886.381 -4.06569 1.10813 0
M  V30 9430 H 885.105 -3.26206 0.160275 0
M  V30 9431 H 883.764 -2.88689 2.25952 0
M  V30 9432 H 883.412 -4.95044 0.891083 0
M  V30 9433 H 883.112 -5.25973 2.61966 0
M  V30 9434 H 884.636 -5.81291 1.86905 0
M  V30 9435 H 886.05 -4.4139 3.65852 0
M  V30 9436 H 884.447 -4.09798 4.38389 0
M  V30 9437 H 885.517 -2.73676 4.00287 0
M  V30 9438 N 886.86 -1.21182 -1.00761 0
M  V30 9439 C 887.77 -0.984691 -2.12934 0
M  V30 9440 C 888.786 0.0623657 -1.73888 0
M  V30 9441 O 889.962 -0.1271 -2.00999 0
M  V30 9442 C 887.027 -0.549447 -3.42319 0
M  V30 9443 C 886.088 -1.66841 -3.95553 0
M  V30 9444 C 885.321 -1.25384 -5.18763 0
M  V30 9445 O 885.544 -0.126333 -5.7026 0
M  V30 9446 O 884.478 -2.06475 -5.65377 0
M  V30 9447 H 888.304 -1.92413 -2.3497 0
M  V30 9448 H 885.889 -0.99647 -1.11314 0
M  V30 9449 H 887.771 -0.316384 -4.20211 0
M  V30 9450 H 886.446 0.361304 -3.21677 0
M  V30 9451 H 885.353 -1.95585 -3.189 0
M  V30 9452 H 886.686 -2.55649 -4.206 0
M  V30 9453 N 888.338 1.20213 -1.01915 0
M  V30 9454 C 889.285 2.2309 -0.591571 0
M  V30 9455 C 890.255 1.61465 0.389649 0
M  V30 9456 O 891.44 1.88606 0.288511 0
M  V30 9457 C 888.58 3.45045 0.0614028 0
M  V30 9458 C 887.693 4.21091 -0.964688 0
M  V30 9459 C 886.828 5.30448 -0.282499 0
M  V30 9460 C 885.867 5.98241 -1.29517 0
M  V30 9461 N 885.004 6.99182 -0.639472 0
M  V30 9462 H 889.844 2.59023 -1.47347 0
M  V30 9463 H 887.381 1.27274 -0.737547 0
M  V30 9464 H 889.339 4.14688 0.45714 0
M  V30 9465 H 887.969 3.09797 0.906937 0
M  V30 9466 H 887.021 3.50489 -1.47857 0
M  V30 9467 H 888.333 4.67662 -1.73475 0
M  V30 9468 H 887.487 6.06466 0.168603 0
M  V30 9469 H 886.226 4.84922 0.519843 0
M  V30 9470 H 885.231 5.20982 -1.75663 0
M  V30 9471 H 886.456 6.45853 -2.09884 0
M  V30 9472 H 884.402 6.55844 0.142955 0
M  V30 9473 H 884.319 7.43893 -1.34756 0
M  V30 9474 H 885.587 7.79212 -0.212047 0
M  V30 9475 N 889.816 0.795718 1.36037 0
M  V30 9476 C 890.766 0.171437 2.27355 0
M  V30 9477 C 891.75 -0.648346 1.47259 0
M  V30 9478 O 892.942 -0.507386 1.69572 0
M  V30 9479 C 890.071 -0.687876 3.36338 0
M  V30 9480 C 889.157 0.141041 4.23865 0
M  V30 9481 N 889.548 1.19868 4.91391 0
M  V30 9482 C 887.846 -0.0791045 4.4593 0
M  V30 9483 C 888.547 1.70382 5.56188 0
M  V30 9484 N 887.523 1.01202 5.34097 0
M  V30 9485 H 891.325 0.980846 2.7705 0
M  V30 9486 H 888.839 0.635798 1.49437 0
M  V30 9487 H 890.836 -1.15107 4.00694 0
M  V30 9488 H 889.496 -1.49576 2.88196 0
M  V30 9489 H 890.507 1.58119 4.93172 0
M  V30 9490 H 887.184 -0.856993 4.0861 0
M  V30 9491 H 888.574 2.58715 6.20093 0
M  V30 9492 N 891.294 -1.47756 0.548274 0
M  V30 9493 C 892.71 -1.58247 0.207401 0
M  V30 9494 C 892.91 -1.54804 -1.28988 0
M  V30 9495 O 891.966 -1.44673 -2.06944 0
M  V30 9496 C 893.279 -2.89129 0.826142 0
M  V30 9497 C 894.827 -3.02695 0.79655 0
M  V30 9498 C 895.302 -4.36264 1.3942 0
M  V30 9499 N 896.793 -4.42877 1.35698 0
M  V30 9500 C 897.528 -5.44773 1.78913 0
M  V30 9501 N 897.024 -6.53528 2.29942 0
M  V30 9502 N 898.817 -5.35765 1.70038 0
M  V30 9503 H 890.968 -1.48236 1.52117 0
M  V30 9504 H 893.231 -0.704957 0.633829 0
M  V30 9505 H 892.937 -2.97358 1.87806 0
M  V30 9506 H 892.811 -3.75891 0.313916 0
M  V30 9507 H 895.198 -2.94067 -0.246655 0
M  V30 9508 H 895.279 -2.17496 1.34644 0
M  V30 9509 H 894.923 -4.45646 2.43642 0
M  V30 9510 H 894.853 -5.20179 0.819827 0
M  V30 9511 H 897.344 -3.64874 0.983623 0
M  V30 9512 H 897.657 -7.27441 2.60863 0
M  V30 9513 H 896.002 -6.54442 2.33947 0
M  V30 9514 H 899.193 -4.49699 1.29955 0
M  V30 9515 H 899.366 -6.1504 2.04035 0
M  V30 9516 N 892.772 -0.284283 -1.55015 0
M  V30 9517 C 893.702 0.592663 -2.25853 0
M  V30 9518 C 894.683 1.15151 -1.25197 0
M  V30 9519 O 895.868 1.18395 -1.53936 0
M  V30 9520 C 892.998 1.77254 -2.98661 0
M  V30 9521 C 891.952 1.34482 -4.06323 0
M  V30 9522 C 891.278 2.60853 -4.66754 0
M  V30 9523 C 892.578 0.488288 -5.20013 0
M  V30 9524 H 894.272 0.00187041 -2.994 0
M  V30 9525 H 891.818 -0.000540402 -1.44 0
M  V30 9526 H 893.771 2.39199 -3.46932 0
M  V30 9527 H 892.495 2.38931 -2.22664 0
M  V30 9528 H 891.154 0.748519 -3.58877 0
M  V30 9529 H 890.802 3.20808 -3.87416 0
M  V30 9530 H 890.502 2.32942 -5.39455 0
M  V30 9531 H 892.026 3.23631 -5.1778 0
M  V30 9532 H 893.44 1.01298 -5.6428 0
M  V30 9533 H 891.837 0.303669 -5.99331 0
M  V30 9534 H 892.907 -0.490727 -4.8241 0
M  V30 9535 N 894.251 1.57596 -0.0117121 0
M  V30 9536 C 895.497 1.91355 0.671661 0
M  V30 9537 C 895.83 0.886818 1.72769 0
M  V30 9538 O 895.105 -0.0928813 1.94278 0
M  V30 9539 C 895.388 3.35657 1.30409 0
M  V30 9540 C 895.241 4.49055 0.2588 0
M  V30 9541 C 896.56 3.79595 2.22701 0
M  V30 9542 H 893.679 0.695893 0.242698 0
M  V30 9543 H 896.321 1.89887 -0.0654071 0
M  V30 9544 H 894.471 3.37038 1.9323 0
M  V30 9545 H 896.143 4.59809 -0.370631 0
M  V30 9546 H 894.386 4.31785 -0.417672 0
M  V30 9547 H 895.057 5.4701 0.740578 0
M  V30 9548 H 897.533 3.7984 1.69885 0
M  V30 9549 H 896.409 4.81292 2.63912 0
M  V30 9550 H 896.67 3.14118 3.11098 0
M  V30 9551 N 895.729 -0.261212 1.5542 0
M  V30 9552 C 896.954 -1.01341 1.80955 0
M  V30 9553 C 897.379 -1.78711 0.586849 0
M  V30 9554 O 896.737 -1.75266 -0.463837 0
M  V30 9555 C 896.785 -1.93835 3.04073 0
M  V30 9556 O 895.889 -3.02791 2.79985 0
M  V30 9557 H 895.23 -0.289123 0.597749 0
M  V30 9558 H 897.76 -0.286543 2.02584 0
M  V30 9559 H 897.77 -2.3557 3.33123 0
M  V30 9560 H 896.445 -1.36936 3.9271 0
M  V30 9561 H 895.022 -2.65287 2.62063 0
M  V30 9562 N 897.207 -1.48554 -0.526253 0
M  V30 9563 C 898.623 -1.34757 -0.855138 0
M  V30 9564 C 898.823 -0.36142 -1.98232 0
M  V30 9565 O 897.879 0.216026 -2.51574 0
M  V30 9566 C 899.192 -2.74877 -1.21915 0
M  V30 9567 C 900.74 -2.83393 -1.32882 0
M  V30 9568 C 901.215 -4.24223 -1.72624 0
M  V30 9569 N 902.706 -4.26913 -1.7972 0
M  V30 9570 C 903.441 -5.32824 -2.11863 0
M  V30 9571 N 902.937 -6.49008 -2.42405 0
M  V30 9572 N 904.73 -5.20221 -2.12901 0
M  V30 9573 H 896.881 -2.11284 0.217422 0
M  V30 9574 H 899.144 -0.947367 0.0346362 0
M  V30 9575 H 898.85 -3.48619 -0.464486 0
M  V30 9576 H 898.724 -3.0864 -2.16844 0
M  V30 9577 H 901.111 -2.09904 -2.07424 0
M  V30 9578 H 901.192 -2.53245 -0.360638 0
M  V30 9579 H 900.836 -4.98229 -0.986411 0
M  V30 9580 H 900.766 -4.51817 -2.70498 0
M  V30 9581 H 903.257 -3.4311 -1.58379 0
M  V30 9582 H 903.57 -7.25561 -2.66048 0
M  V30 9583 H 901.915 -6.52277 -2.39917 0
M  V30 9584 H 905.106 -4.28469 -1.885 0
M  V30 9585 H 905.279 -6.02861 -2.37619 0
M  V30 9586 N 898.685 0.775411 -1.37205 0
M  V30 9587 C 899.913 1.56446 -1.35397 0
M  V30 9588 C 900.328 1.887 0.0615437 0
M  V30 9589 O 899.685 1.51178 1.02233 0
M  V30 9590 C 899.736 2.87697 -2.18889 0
M  V30 9591 O 899.457 2.56828 -3.54924 0
M  V30 9592 C 900.958 3.81944 -2.25019 0
M  V30 9593 H 898.178 0.484792 -0.463916 0
M  V30 9594 H 900.722 0.961346 -1.80495 0
M  V30 9595 H 898.877 3.44442 -1.7731 0
M  V30 9596 H 899.291 3.40851 -3.98649 0
M  V30 9597 H 900.765 4.71055 -2.87769 0
M  V30 9598 H 901.242 4.20811 -1.25757 0
M  V30 9599 H 901.848 3.3113 -2.66895 0
M  V30 9600 N 900.163 1.21714 1.00117 0
M  V30 9601 C 901.113 0.947259 2.07391 0
M  V30 9602 C 902.097 -0.0989662 1.60595 0
M  V30 9603 O 903.289 0.11047 1.76655 0
M  V30 9604 C 900.418 0.517954 3.3937 0
M  V30 9605 C 899.504 1.59846 3.92823 0
M  V30 9606 N 899.895 2.82438 4.19598 0
M  V30 9607 C 898.193 1.46822 4.2114 0
M  V30 9608 C 898.894 3.52247 4.62922 0
M  V30 9609 N 897.87 2.79696 4.66124 0
M  V30 9610 H 901.672 1.8786 2.26022 0
M  V30 9611 H 899.186 1.11344 1.18221 0
M  V30 9612 H 901.183 0.305951 4.15776 0
M  V30 9613 H 899.843 -0.40658 3.22144 0
M  V30 9614 H 900.854 3.18944 4.08038 0
M  V30 9615 H 897.531 0.609259 4.13031 0
M  V30 9616 H 898.921 4.57232 4.9233 0
M  V30 9617 N 901.641 -1.19671 1.02551 0
M  V30 9618 C 902.866 -1.93774 0.739363 0
M  V30 9619 C 903.291 -1.74787 -0.695064 0
M  V30 9620 O 902.649 -1.04796 -1.47944 0
M  V30 9621 C 902.697 -3.43684 1.09149 0
M  V30 9622 O 901.801 -4.11874 0.208213 0
M  V30 9623 H 901.142 -0.605064 0.273484 0
M  V30 9624 H 903.672 -1.51846 1.37128 0
M  V30 9625 H 903.682 -3.94339 1.04695 0
M  V30 9626 H 902.357 -3.56826 2.13654 0
M  V30 9627 H 900.934 -3.716 0.311045 0
M  V30 9628 N 903.119 -0.802921 -1.35613 0
M  V30 9629 C 904.344 -0.392846 -2.03645 0
M  V30 9630 C 904.769 0.987075 -1.6012 0
M  V30 9631 O 904.127 1.63849 -0.776101 0
M  V30 9632 C 904.175 -0.480208 -3.57388 0
M  V30 9633 O 903.279 0.507751 -4.09262 0
M  V30 9634 H 902.62 -0.16464 -0.643265 0
M  V30 9635 H 905.15 -1.08779 -1.73287 0
M  V30 9636 H 905.16 -0.348683 -4.06507 0
M  V30 9637 H 903.835 -1.48675 -3.88418 0
M  V30 9638 H 902.412 0.336769 -3.71376 0
M  V30 9639 N 904.597 1.47463 -0.556102 0
M  V30 9640 C 906.008 1.86298 -0.122429 0
M  V30 9641 C 906.359 1.46285 1.30749 0
M  V30 9642 O 905.484 0.865405 1.98342 0
M  V30 9643 C 906.079 3.38115 -0.215407 0
M  V30 9644 C 904.638 3.76046 0.163223 0
M  V30 9645 C 903.785 2.71515 -0.563466 0
M  V30 9646 H 906.736 1.38996 -0.765888 0
M  V30 9647 H 906.757 3.76263 0.566271 0
M  V30 9648 H 906.269 3.67207 -1.25622 0
M  V30 9649 H 904.37 3.5257 1.20519 0
M  V30 9650 H 904.483 4.78705 -0.194568 0
M  V30 9651 H 902.847 2.54699 -0.00667879 0
M  V30 9652 H 903.63 3.03449 -1.60542 0
M  V30 9653 N 906.075 0.2925 1.54862 0
M  V30 9654 C 907.038 -0.574423 2.21885 0
M  V30 9655 C 908.038 -1.06791 1.20218 0
M  V30 9656 O 909.228 -0.9653 1.45009 0
M  V30 9657 C 906.36 -1.79438 2.89853 0
M  V30 9658 H 907.553 0.0110319 2.99898 0
M  V30 9659 H 905.106 0.043256 1.5624 0
M  V30 9660 H 905.841 -2.4199 2.15897 0
M  V30 9661 H 905.626 -1.44827 3.64373 0
M  V30 9662 H 907.116 -2.41048 3.41007 0
M  V30 9663 N 907.553 -1.57587 0.0200696 0
M  V30 9664 C 908.516 -2.08595 -0.949767 0
M  V30 9665 C 909.516 -0.999215 -1.25985 0
M  V30 9666 O 910.706 -1.26115 -1.2017 0
M  V30 9667 C 907.838 -2.54424 -2.26895 0
M  V30 9668 H 909.031 -2.95563 -0.508161 0
M  V30 9669 H 906.584 -1.54631 -0.227798 0
M  V30 9670 H 907.319 -1.70758 -2.75703 0
M  V30 9671 H 907.104 -3.3381 -2.05702 0
M  V30 9672 H 908.594 -2.94144 -2.96427 0
M  V30 9673 N 909.032 0.252966 -1.55557 0
M  V30 9674 C 910.257 1.0038 -1.8149 0
M  V30 9675 C 910.682 1.78397 -0.596318 0
M  V30 9676 O 910.04 1.7551 0.454535 0
M  V30 9677 C 910.088 1.9222 -3.05096 0
M  V30 9678 O 909.192 3.01302 -2.81587 0
M  V30 9679 H 908.533 0.285949 -0.599274 0
M  V30 9680 H 911.063 0.275795 -2.02733 0
M  V30 9681 H 911.073 2.338 -3.34368 0
M  V30 9682 H 909.748 1.34852 -3.93431 0
M  V30 9683 H 908.325 2.63894 -2.63466 0
M  V30 9684 N 910.51 1.48831 0.518367 0
M  V30 9685 C 911.756 1.57672 1.27543 0
M  V30 9686 C 912.089 0.254915 1.9252 0
M  V30 9687 O 911.364 -0.740107 1.79868 0
M  V30 9688 C 911.647 2.72345 2.35585 0
M  V30 9689 C 911.5 4.14267 1.75224 0
M  V30 9690 C 912.819 2.82726 3.37274 0
M  V30 9691 H 909.938 0.573926 0.462361 0
M  V30 9692 H 912.58 1.8105 0.576267 0
M  V30 9693 H 910.73 2.52543 2.95219 0
M  V30 9694 H 912.402 4.45539 1.19551 0
M  V30 9695 H 910.645 4.20724 1.05706 0
M  V30 9696 H 911.316 4.90345 2.53507 0
M  V30 9697 H 913.792 3.00699 2.8761 0
M  V30 9698 H 912.668 3.6467 4.10252 0
M  V30 9699 H 912.929 1.9136 3.9854 0
M  V30 9700 N 911.988 -0.768124 1.37614 0
M  V30 9701 C 912.918 -1.89537 1.36374 0
M  V30 9702 C 913.899 -1.68513 0.231803 0
M  V30 9703 O 915.084 -1.89318 0.432705 0
M  V30 9704 C 912.214 -3.26871 1.17358 0
M  V30 9705 C 911.168 -3.62466 2.27602 0
M  V30 9706 C 910.494 -4.9838 1.93705 0
M  V30 9707 C 911.794 -3.68841 3.69802 0
M  V30 9708 H 913.488 -1.90832 2.30702 0
M  V30 9709 H 911.034 -0.91672 1.11051 0
M  V30 9710 H 912.987 -4.05371 1.15119 0
M  V30 9711 H 911.711 -3.26018 0.194865 0
M  V30 9712 H 910.37 -2.86276 2.29002 0
M  V30 9713 H 910.018 -4.94071 0.943539 0
M  V30 9714 H 909.718 -5.23165 2.6753 0
M  V30 9715 H 911.242 -5.79276 1.93059 0
M  V30 9716 H 912.656 -4.37485 3.70513 0
M  V30 9717 H 911.053 -4.05126 4.42711 0
M  V30 9718 H 912.123 -2.69415 4.03167 0
M  V30 9719 N 913.466 -1.22244 -0.994698 0
M  V30 9720 C 914.877 -1.043 -1.5485 0
M  V30 9721 C 915.228 0.394102 -1.92201 0
M  V30 9722 O 914.353 1.27883 -1.74571 0
M  V30 9723 C 914.948 -1.88708 -2.8138 0
M  V30 9724 C 913.507 -1.75067 -3.3321 0
M  V30 9725 C 912.654 -1.85286 -2.06312 0
M  V30 9726 H 915.605 -1.36115 -0.815988 0
M  V30 9727 H 915.626 -1.40342 -3.53673 0
M  V30 9728 H 915.138 -2.93296 -2.54164 0
M  V30 9729 H 913.239 -0.732047 -3.65338 0
M  V30 9730 H 913.352 -2.57632 -4.03934 0
M  V30 9731 H 911.716 -1.28706 -2.19788 0
M  V30 9732 H 912.499 -2.91401 -1.81494 0
M  V30 9733 N 914.944 1.19125 -1.03184 0
M  V30 9734 C 915.894 2.20348 -0.585731 0
M  V30 9735 C 916.878 1.56656 0.367109 0
M  V30 9736 O 918.07 1.76003 0.187598 0
M  V30 9737 C 915.199 3.43249 0.0590006 0
M  V30 9738 C 914.285 4.1408 -0.916457 0
M  V30 9739 N 914.676 4.61051 -2.08005 0
M  V30 9740 C 912.974 4.39809 -0.74054 0
M  V30 9741 C 913.675 5.15477 -2.69552 0
M  V30 9742 N 912.651 5.06456 -1.97493 0
M  V30 9743 H 916.453 2.54346 -1.47259 0
M  V30 9744 H 913.967 1.35232 -0.899225 0
M  V30 9745 H 915.964 4.15013 0.396236 0
M  V30 9746 H 914.624 3.1075 0.941507 0
M  V30 9747 H 915.635 4.55782 -2.45934 0
M  V30 9748 H 912.312 4.17397 0.0926238 0
M  V30 9749 H 913.702 5.62088 -3.68112 0
M  V30 9750 N 916.422 0.810101 1.35185 0
M  V30 9751 C 917.833 0.452616 1.81131 0
M  V30 9752 C 918.184 -1.02573 1.67252 0
M  V30 9753 O 917.309 -1.79735 1.20516 0
M  V30 9754 C 917.904 0.814775 3.28857 0
M  V30 9755 C 916.463 0.509839 3.72931 0
M  V30 9756 C 915.61 1.03852 2.57119 0
M  V30 9757 H 918.561 1.00143 1.23114 0
M  V30 9758 H 918.582 0.113635 3.8033 0
M  V30 9759 H 918.094 1.89078 3.38926 0
M  V30 9760 H 916.195 -0.557289 3.68409 0
M  V30 9761 H 916.308 1.04493 4.67566 0
M  V30 9762 H 914.672 0.460671 2.50499 0
M  V30 9763 H 915.455 2.12071 2.69964 0
M  V30 9764 N 917.9 -1.47166 0.563914 0
M  V30 9765 C 918.863 -2.28571 -0.169624 0
M  V30 9766 C 919.863 -1.37331 -0.836467 0
M  V30 9767 O 921.053 -1.59896 -0.6913 0
M  V30 9768 C 918.185 -3.17201 -1.24886 0
M  V30 9769 H 919.378 -2.94896 0.545539 0
M  V30 9770 H 916.931 -1.52966 0.321121 0
M  V30 9771 H 917.666 -2.55582 -1.99621 0
M  V30 9772 H 917.451 -3.84356 -0.775426 0
M  V30 9773 H 918.941 -3.7852 -1.76388 0
M  V30 9774 N 919.378 -0.300708 -1.54705 0
M  V30 9775 C 920.311 0.617513 -2.19686 0
M  V30 9776 C 921.289 1.1331 -1.16617 0
M  V30 9777 O 922.473 1.20135 -1.45258 0
M  V30 9778 C 919.6 1.84486 -2.84047 0
M  V30 9779 C 918.646 1.46253 -4.0064 0
M  V30 9780 S 919.479 0.518718 -5.32982 0
M  V30 9781 C 920.635 1.75387 -6.00825 0
M  V30 9782 H 920.868 0.0654548 -2.97228 0
M  V30 9783 H 918.401 -0.0848492 -1.54167 0
M  V30 9784 H 920.359 2.54921 -3.21754 0
M  V30 9785 H 919.02 2.36808 -2.06351 0
M  V30 9786 H 918.213 2.37648 -4.44454 0
M  V30 9787 H 917.815 0.838129 -3.64488 0
M  V30 9788 H 920.107 2.69448 -6.21614 0
M  V30 9789 H 921.05 1.35829 -6.9495 0
M  V30 9790 H 921.458 1.93045 -5.30466 0
M  V30 9791 N 920.856 1.57574 -0.0284266 0
M  V30 9792 C 922.133 1.83064 0.688979 0
M  V30 9793 C 922.513 0.91219 1.90374 0
M  V30 9794 O 921.861 -0.0323672 2.28477 0
M  V30 9795 C 922.071 3.32262 1.06785 0
M  V30 9796 C 923.419 3.98717 1.45978 0
M  V30 9797 O 924.443 3.36753 1.16085 0
M  V30 9798 O 923.302 5.07927 2.01673 0
M  V30 9799 H 920.396 0.7548 0.337944 0
M  V30 9800 H 922.942 1.69607 -0.0560555 0
M  V30 9801 H 921.714 3.90772 0.203235 0
M  V30 9802 H 921.337 3.50823 1.87107 0
M  V30 9803 N 922.334 -0.244713 1.55689 0
M  V30 9804 C 923.75 -0.593331 1.48161 0
M  V30 9805 C 923.95 -1.88234 0.719047 0
M  V30 9806 O 923.006 -2.51266 0.249292 0
M  V30 9807 C 924.319 -0.694032 2.92581 0
M  V30 9808 C 925.867 -0.786213 3.02965 0
M  V30 9809 C 926.342 -0.918457 4.48696 0
M  V30 9810 N 927.833 -0.983272 4.52643 0
M  V30 9811 C 928.568 -1.1049 5.62654 0
M  V30 9812 N 928.064 -1.19193 6.8247 0
M  V30 9813 N 929.857 -1.13823 5.50455 0
M  V30 9814 H 922.008 0.601446 2.03707 0
M  V30 9815 H 924.271 0.207894 0.924924 0
M  V30 9816 H 923.977 0.183133 3.51223 0
M  V30 9817 H 923.851 -1.56525 3.4319 0
M  V30 9818 H 926.238 -1.65383 2.44402 0
M  V30 9819 H 926.319 0.110202 2.55563 0
M  V30 9820 H 925.963 -0.0553881 5.0787 0
M  V30 9821 H 925.893 -1.82994 4.93782 0
M  V30 9822 H 928.384 -0.927269 3.66347 0
M  V30 9823 H 928.697 -1.28387 7.62061 0
M  V30 9824 H 927.042 -1.16147 6.85226 0
M  V30 9825 H 930.233 -1.06673 4.55783 0
M  V30 9826 H 930.406 -1.22957 6.36228 0
M  V30 9827 N 923.813 -1.49104 -0.510467 0
M  V30 9828 C 925.224 -1.51423 -1.09215 0
M  V30 9829 C 925.575 -0.295035 -1.93969 0
M  V30 9830 O 924.7 0.596064 -2.08029 0
M  V30 9831 C 925.295 -2.74387 -1.98739 0
M  V30 9832 C 923.854 -2.79515 -2.52088 0
M  V30 9833 C 923.001 -2.4521 -1.29488 0
M  V30 9834 H 925.952 -1.55938 -0.294807 0
M  V30 9835 H 925.973 -2.54012 -2.83298 0
M  V30 9836 H 925.485 -3.63105 -1.37026 0
M  V30 9837 H 923.586 -1.95054 -3.17466 0
M  V30 9838 H 923.699 -3.81447 -2.89887 0
M  V30 9839 H 922.063 -1.96785 -1.61703 0
M  V30 9840 H 922.846 -3.36192 -0.694978 0
M  V30 9841 N 925.291 0.760815 -1.38019 0
M  V30 9842 C 926.221 1.88811 -1.37377 0
M  V30 9843 C 927.202 1.68388 -0.240737 0
M  V30 9844 O 928.387 1.89086 -0.442739 0
M  V30 9845 C 925.517 3.26244 -1.1909 0
M  V30 9846 C 924.471 3.61254 -2.29521 0
M  V30 9847 C 923.797 4.97346 -1.96345 0
M  V30 9848 C 925.097 3.66874 -3.71753 0
M  V30 9849 H 926.791 1.89606 -2.31711 0
M  V30 9850 H 924.337 0.910818 -1.11535 0
M  V30 9851 H 926.29 4.04755 -1.17267 0
M  V30 9852 H 925.014 3.2591 -0.212152 0
M  V30 9853 H 923.673 2.85057 -2.30517 0
M  V30 9854 H 923.321 4.93564 -0.969728 0
M  V30 9855 H 923.021 5.21739 -2.703 0
M  V30 9856 H 924.545 5.78244 -1.96129 0
M  V30 9857 H 925.959 4.35514 -3.72828 0
M  V30 9858 H 924.356 4.02772 -4.44853 0
M  V30 9859 H 925.426 2.67273 -4.0459 0
M  V30 9860 N 926.769 1.22769 0.988202 0
M  V30 9861 C 927.701 0.959757 2.08138 0
M  V30 9862 C 928.714 -0.0633787 1.62677 0
M  V30 9863 O 929.903 0.171203 1.77677 0
M  V30 9864 C 927.003 0.422724 3.36253 0
M  V30 9865 C 926.176 1.50419 4.10722 0
M  V30 9866 C 925.235 0.973407 5.17118 0
M  V30 9867 O 924.261 1.66066 5.44436 0
M  V30 9868 N 925.463 -0.202787 5.80146 0
M  V30 9869 H 928.228 1.9009 2.31702 0
M  V30 9870 H 925.789 1.13522 1.15431 0
M  V30 9871 H 927.781 0.0528514 4.04665 0
M  V30 9872 H 926.351 -0.423642 3.09716 0
M  V30 9873 H 925.571 2.04718 3.36874 0
M  V30 9874 H 926.859 2.23169 4.57245 0
M  V30 9875 H 926.257 -0.777856 5.60327 0
M  V30 9876 H 924.814 -0.513998 6.4977 0
M  V30 9877 N 928.247 -1.18576 1.03814 0
M  V30 9878 C 929.658 -1.70159 0.768299 0
M  V30 9879 C 930.009 -1.8286 -0.711106 0
M  V30 9880 O 929.134 -1.5063 -1.55369 0
M  V30 9881 C 929.729 -3.09062 1.38804 0
M  V30 9882 C 928.288 -3.57866 1.16656 0
M  V30 9883 C 927.435 -2.34484 1.48029 0
M  V30 9884 H 930.386 -1.03287 1.20488 0
M  V30 9885 H 930.407 -3.72211 0.7899 0
M  V30 9886 H 929.919 -2.99785 2.46476 0
M  V30 9887 H 928.02 -3.72442 0.108471 0
M  V30 9888 H 928.133 -4.41445 1.8618 0
M  V30 9889 H 926.497 -2.38273 0.899902 0
M  V30 9890 H 927.28 -2.27829 2.56805 0
M  V30 9891 N 929.725 -0.817259 -1.34754 0
M  V30 9892 C 930.973 -0.401852 -1.98065 0
M  V30 9893 C 931.294 1.03718 -1.65129 0
M  V30 9894 O 930.564 1.71921 -0.939141 0
M  V30 9895 H 929.144 -0.145603 -0.732672 0
M  V30 9896 H 931.806 -1.04545 -1.64488 0
M  V30 9897 H 930.902 -0.516241 -3.07801 0
M  V30 9898 N 931.203 1.46865 -0.571711 0
M  V30 9899 C 932.428 2.07323 -0.0564655 0
M  V30 9900 C 932.853 1.41938 1.23431 0
M  V30 9901 O 932.211 0.499334 1.74288 0
M  V30 9902 C 932.259 3.6044 0.107339 0
M  V30 9903 O 931.363 3.95558 1.1665 0
M  V30 9904 H 930.704 0.661475 -0.0578465 0
M  V30 9905 H 933.234 1.88669 -0.791524 0
M  V30 9906 H 933.244 4.06767 0.316987 0
M  V30 9907 H 931.919 4.07425 -0.835348 0
M  V30 9908 H 930.496 3.60957 0.936189 0
M  V30 9909 N 932.681 0.308908 1.54543 0
M  V30 9910 C 933.644 -0.550857 2.22482 0
M  V30 9911 C 934.644 -1.0551 1.21344 0
M  V30 9912 O 935.834 -0.949866 1.46025 0
M  V30 9913 C 932.966 -1.76354 2.9174 0
M  V30 9914 H 934.159 0.0428395 2.99869 0
M  V30 9915 H 931.712 0.059825 1.56185 0
M  V30 9916 H 932.447 -2.39686 2.18451 0
M  V30 9917 H 932.232 -1.40954 3.65889 0
M  V30 9918 H 933.722 -2.37417 3.43545 0
M  V30 9919 N 934.159 -1.57557 0.0367827 0
M  V30 9920 C 935.387 -1.96419 -0.650168 0
M  V30 9921 C 935.802 -0.913656 -1.6522 0
M  V30 9922 O 935.159 0.103718 -1.82205 0
M  V30 9923 C 935.21 -3.35355 -1.3498 0
M  V30 9924 O 934.931 -4.36379 -0.387905 0
M  V30 9925 C 936.432 -3.88892 -2.12786 0
M  V30 9926 H 933.652 -0.646751 -0.178756 0
M  V30 9927 H 936.196 -2.04261 0.0988197 0
M  V30 9928 H 934.351 -3.28708 -2.05012 0
M  V30 9929 H 934.765 -5.16969 -0.885596 0
M  V30 9930 H 936.239 -4.88428 -2.5718 0
M  V30 9931 H 936.716 -3.23547 -2.97008 0
M  V30 9932 H 937.322 -3.98831 -1.47694 0
M  V30 9933 N 935.637 0.236453 -1.55816 0
M  V30 9934 C 936.885 0.96111 -1.77784 0
M  V30 9935 C 937.206 1.85454 -0.602648 0
M  V30 9936 O 936.476 1.92157 0.381137 0
M  V30 9937 H 935.056 0.35787 -0.655697 0
M  V30 9938 H 937.718 0.251888 -1.93265 0
M  V30 9939 H 936.814 1.5767 -2.69345 0
M  V30 9940 N 937.115 1.49373 0.502552 0
M  V30 9941 C 938.364 1.58028 1.25339 0
M  V30 9942 C 938.677 0.271494 1.93707 0
M  V30 9943 O 939.883 0.236584 2.70467 0
M  V30 9944 C 938.339 2.78817 2.27572 0
M  V30 9945 C 937.947 4.16448 1.65151 0
M  V30 9946 C 939.691 2.96802 3.03494 0
M  V30 9947 C 937.598 5.28461 2.65486 0
M  V30 9948 H 936.528 0.588396 0.471494 0
M  V30 9949 H 939.179 1.75756 0.52744 0
M  V30 9950 H 937.561 2.5458 3.03323 0
M  V30 9951 H 938.735 4.50816 0.954029 0
M  V30 9952 H 937.05 4.03809 1.01625 0
M  V30 9953 H 939.647 3.77656 3.78524 0
M  V30 9954 H 939.99 2.07303 3.61014 0
M  V30 9955 H 940.523 3.21071 2.34858 0
M  V30 9956 H 937.262 6.20015 2.12749 0
M  V30 9957 H 936.782 4.9855 3.33479 0
M  V30 9958 H 938.461 5.5773 3.27943 0
M  V30 9959 N 938.594 -0.753485 1.38421 0
M  V30 9960 C 939.557 -1.84888 1.35459 0
M  V30 9961 C 940.557 -1.58764 0.255083 0
M  V30 9962 O 941.747 -1.66507 0.511978 0
M  V30 9963 C 938.879 -3.22361 1.10888 0
M  V30 9964 H 940.072 -1.88922 2.32913 0
M  V30 9965 H 937.625 -0.955199 1.23716 0
M  V30 9966 H 938.36 -3.23996 0.1404 0
M  V30 9967 H 938.145 -3.42717 1.90492 0
M  V30 9968 H 939.635 -4.02437 1.1151 0
M  V30 9969 N 940.072 -1.23292 -0.981677 0
M  V30 9970 C 941.302 -1.0893 -1.7555 0
M  V30 9971 C 941.71 0.362219 -1.857 0
M  V30 9972 O 941.053 1.2624 -1.33451 0
M  V30 9973 C 941.115 -1.6389 -3.19969 0
M  V30 9974 C 940.779 -3.12632 -3.33332 0
M  V30 9975 C 941.776 -4.0994 -3.19758 0
M  V30 9976 C 939.461 -3.52314 -3.58022 0
M  V30 9977 C 941.455 -5.44915 -3.30676 0
M  V30 9978 C 939.142 -4.87434 -3.6858 0
M  V30 9979 C 940.14 -5.83544 -3.54916 0
M  V30 9980 O 939.828 -7.16209 -3.65102 0
M  V30 9981 H 939.56 -0.381901 -0.557788 0
M  V30 9982 H 942.114 -1.63586 -1.24213 0
M  V30 9983 H 940.344 -1.03653 -3.72549 0
M  V30 9984 H 942.033 -1.45023 -3.79108 0
M  V30 9985 H 942.799 -3.80625 -3.00582 0
M  V30 9986 H 938.678 -2.78022 -3.67729 0
M  V30 9987 H 942.222 -6.19913 -3.19928 0
M  V30 9988 H 938.119 -5.16426 -3.87265 0
M  V30 9989 H 938.887 -7.23941 -3.81905 0
M  V30 9990 N 941.55 1.18024 -1.04442 0
M  V30 9991 C 942.827 1.8398 -0.664125 0
M  V30 9992 C 943.207 1.92961 0.856116 0
M  V30 9993 O 942.555 1.45839 1.75907 0
M  V30 9994 C 942.765 3.22069 -1.34433 0
M  V30 9995 C 944.113 3.98063 -1.47754 0
M  V30 9996 O 945.137 3.31523 -1.30274 0
M  V30 9997 O 943.996 5.17291 -1.76272 0
M  V30 9998 H 941.09 0.793543 -0.23285 0
M  V30 9999 H 943.636 1.25385 -1.14354 0
M  V30 10000 H 942.408 3.10458 -2.38184 0
M  V30 10001 H 942.031 3.88325 -0.853782 0
M  V30 10002 N 943.028 0.824394 1.34319 0
M  V30 10003 C 944.439 0.471802 1.8064 0
M  V30 10004 C 944.79 -1.00793 1.6833 0
M  V30 10005 O 943.915 -1.78447 1.22416 0
M  V30 10006 C 944.51 0.849609 3.27974 0
M  V30 10007 C 943.069 0.549365 3.72369 0
M  V30 10008 C 942.216 1.06573 2.56003 0
M  V30 10009 H 945.167 1.01443 1.22045 0
M  V30 10010 H 945.188 0.153968 3.80188 0
M  V30 10011 H 944.7 1.92663 3.36902 0
M  V30 10012 H 942.801 -0.518182 3.68979 0
M  V30 10013 H 942.914 1.09446 4.66432 0
M  V30 10014 H 941.278 0.487214 2.49997 0
M  V30 10015 H 942.061 2.14923 2.677 0
M  V30 10016 N 944.506 -1.46559 0.579492 0
M  V30 10017 C 945.436 -2.33059 -0.143437 0
M  V30 10018 C 946.417 -1.4515 -0.886868 0
M  V30 10019 O 947.602 -1.73973 -0.862961 0
M  V30 10020 C 944.732 -3.27364 -1.15973 0
M  V30 10021 C 943.686 -4.24689 -0.531348 0
M  V30 10022 C 943.012 -5.08479 -1.65388 0
M  V30 10023 C 944.312 -5.1961 0.529391 0
M  V30 10024 H 946.006 -2.93753 0.578762 0
M  V30 10025 H 943.552 -1.41256 0.279775 0
M  V30 10026 H 945.505 -3.86732 -1.67382 0
M  V30 10027 H 944.229 -2.64771 -1.91217 0
M  V30 10028 H 942.888 -3.6658 -0.0383749 0
M  V30 10029 H 942.536 -4.42273 -2.3959 0
M  V30 10030 H 942.236 -5.74387 -1.23909 0
M  V30 10031 H 943.76 -5.70709 -2.17079 0
M  V30 10032 H 945.174 -5.73212 0.100506 0
M  V30 10033 H 943.571 -5.93843 0.86432 0
M  V30 10034 H 944.641 -4.63737 1.4169 0
M  V30 10035 N 945.984 -0.3171 -1.54377 0
M  V30 10036 C 946.917 0.594178 -2.20329 0
M  V30 10037 C 947.895 1.12067 -1.17812 0
M  V30 10038 O 949.079 1.18588 -1.46524 0
M  V30 10039 C 946.206 1.81463 -2.85987 0
M  V30 10040 C 945.252 1.41996 -4.02168 0
M  V30 10041 S 946.085 0.462159 -5.33502 0
M  V30 10042 C 947.241 1.69004 -6.02651 0
M  V30 10043 H 947.474 0.0339261 -2.97281 0
M  V30 10044 H 945.007 -0.101196 -1.54068 0
M  V30 10045 H 946.965 2.51494 -3.2444 0
M  V30 10046 H 945.626 2.34606 -2.08851 0
M  V30 10047 H 944.819 2.32921 -4.4695 0
M  V30 10048 H 944.421 0.799423 -3.65356 0
M  V30 10049 H 946.713 2.62839 -6.24437 0
M  V30 10050 H 947.656 1.28451 -6.96352 0
M  V30 10051 H 948.064 1.87408 -5.32483 0
M  V30 10052 N 947.462 1.57535 -0.0451378 0
M  V30 10053 C 948.392 2.14208 0.929372 0
M  V30 10054 C 949.373 1.06221 1.32858 0
M  V30 10055 O 950.558 1.34132 1.40436 0
M  V30 10056 C 947.688 2.68217 2.20629 0
M  V30 10057 C 946.642 3.81134 1.94734 0
M  V30 10058 C 945.968 4.21636 3.28828 0
M  V30 10059 C 947.268 5.06531 1.27374 0
M  V30 10060 H 948.962 2.95886 0.457348 0
M  V30 10061 H 946.508 1.42332 0.218544 0
M  V30 10062 H 948.461 3.06502 2.89196 0
M  V30 10063 H 947.185 1.83722 2.70026 0
M  V30 10064 H 945.844 3.43312 1.28579 0
M  V30 10065 H 945.492 3.34099 3.76014 0
M  V30 10066 H 945.192 4.97736 3.12302 0
M  V30 10067 H 946.716 4.62516 3.98637 0
M  V30 10068 H 948.13 5.423 1.85967 0
M  V30 10069 H 946.527 5.87735 1.21194 0
M  V30 10070 H 947.597 4.84261 0.248913 0
M  V30 10071 N 948.94 -0.228186 1.55939 0
M  V30 10072 C 949.887 -1.28274 1.91871 0
M  V30 10073 C 950.857 -1.46906 0.775103 0
M  V30 10074 O 952.042 -1.60583 1.03042 0
M  V30 10075 C 949.182 -2.62945 2.23504 0
M  V30 10076 C 948.295 -2.52166 3.50766 0
M  V30 10077 C 947.43 -3.79316 3.71878 0
M  V30 10078 C 946.469 -3.63231 4.92676 0
M  V30 10079 N 945.606 -4.82315 5.10212 0
M  V30 10080 H 950.446 -0.96931 2.81795 0
M  V30 10081 H 947.983 -0.467331 1.39479 0
M  V30 10082 H 949.941 -3.41359 2.39854 0
M  V30 10083 H 948.571 -2.92397 1.36762 0
M  V30 10084 H 947.623 -1.65221 3.42646 0
M  V30 10085 H 948.935 -2.36199 4.39331 0
M  V30 10086 H 948.089 -4.66173 3.88288 0
M  V30 10087 H 946.828 -3.982 2.81581 0
M  V30 10088 H 945.833 -2.74757 4.76223 0
M  V30 10089 H 947.058 -3.45823 5.84451 0
M  V30 10090 H 945.004 -5.01526 4.22856 0
M  V30 10091 H 944.921 -4.6905 5.92898 0
M  V30 10092 H 946.189 -5.70618 5.31051 0
M  V30 10093 N 950.418 -1.49637 -0.494624 0
M  V30 10094 C 951.368 -1.63168 -1.59249 0
M  V30 10095 C 952.352 -0.487089 -1.5335 0
M  V30 10096 O 953.544 -0.74036 -1.60772 0
M  V30 10097 C 950.673 -1.70744 -2.97828 0
M  V30 10098 C 949.759 -2.90802 -3.08699 0
M  V30 10099 N 950.15 -4.14797 -2.89442 0
M  V30 10100 C 948.448 -2.88871 -3.39808 0
M  V30 10101 C 949.149 -4.95535 -3.04663 0
M  V30 10102 N 948.125 -4.29025 -3.33824 0
M  V30 10103 H 951.927 -2.56751 -1.43024 0
M  V30 10104 H 949.441 -1.46497 -0.700885 0
M  V30 10105 H 951.438 -1.78537 -3.76736 0
M  V30 10106 H 950.098 -0.783024 -3.15117 0
M  V30 10107 H 951.109 -4.44675 -2.6549 0
M  V30 10108 H 947.786 -2.05834 -3.63233 0
M  V30 10109 H 949.176 -6.0406 -2.94214 0
M  V30 10110 N 951.896 0.746133 -1.38819 0
M  V30 10111 C 952.828 1.86991 -1.3254 0
M  V30 10112 C 953.841 1.61077 -0.236216 0
M  V30 10113 O 955.03 1.71518 -0.494341 0
M  V30 10114 C 952.13 3.22786 -1.03258 0
M  V30 10115 C 951.303 3.76145 -2.23234 0
M  V30 10116 C 950.362 4.90474 -1.90581 0
M  V30 10117 O 949.388 5.04717 -2.63153 0
M  V30 10118 N 950.59 5.74015 -0.86525 0
M  V30 10119 H 953.355 1.92885 -2.2938 0
M  V30 10120 H 950.916 0.926392 -1.32776 0
M  V30 10121 H 952.908 3.96824 -0.794533 0
M  V30 10122 H 951.478 3.12231 -0.151895 0
M  V30 10123 H 950.698 2.93587 -2.63059 0
M  V30 10124 H 951.986 4.08528 -3.03285 0
M  V30 10125 H 951.384 5.65086 -0.263577 0
M  V30 10126 H 949.941 6.48168 -0.687087 0
M  V30 10127 N 953.375 1.23811 0.975125 0
M  V30 10128 C 954.615 1.08517 1.73215 0
M  V30 10129 C 954.979 -0.370777 1.88386 0
M  V30 10130 O 956.18 -0.645036 2.60946 0
M  V30 10131 C 954.451 1.79649 3.08968 0
M  V30 10132 S 956.01 1.79993 4.00185 0
M  V30 10133 H 952.828 0.388256 0.595633 0
M  V30 10134 H 955.43 1.57028 1.16458 0
M  V30 10135 H 954.134 2.8471 2.95581 0
M  V30 10136 H 953.665 1.31441 3.70792 0
M  V30 10137 H 955.68 0.862294 4.8865 0
M  V30 10138 N 954.853 -1.17469 1.05066 0
M  V30 10139 C 956.099 -1.87976 0.761113 0
M  V30 10140 C 956.432 -1.80756 -0.709995 0
M  V30 10141 O 955.707 -1.21469 -1.51906 0
M  V30 10142 C 955.99 -3.38055 1.2406 0
M  V30 10143 C 955.843 -3.54032 2.77455 0
M  V30 10144 C 957.162 -4.32036 0.838612 0
M  V30 10145 H 954.281 -0.682573 0.277963 0
M  V30 10146 H 956.923 -1.38147 1.30443 0
M  V30 10147 H 955.073 -3.80622 0.778388 0
M  V30 10148 H 956.745 -3.20489 3.3179 0
M  V30 10149 H 954.988 -2.96352 3.16793 0
M  V30 10150 H 955.659 -4.59377 3.06066 0
M  V30 10151 H 958.135 -3.97303 1.23651 0
M  V30 10152 H 957.011 -5.35583 1.20173 0
M  V30 10153 H 957.272 -4.41349 -0.257498 0
M  V30 10154 N 956.331 -0.831506 -1.3388 0
M  V30 10155 C 957.571 -0.429648 -1.99833 0
M  V30 10156 C 957.935 0.990796 -1.6446 0
M  V30 10157 O 959.136 1.49599 -2.23324 0
M  V30 10158 C 957.407 -0.635558 -3.51704 0
M  V30 10159 S 958.966 -0.327824 -4.37574 0
M  V30 10160 H 955.784 -0.161939 -0.692313 0
M  V30 10161 H 958.386 -1.07919 -1.63015 0
M  V30 10162 H 957.09 -1.66887 -3.74936 0
M  V30 10163 H 956.621 0.0284073 -3.9339 0
M  V30 10164 H 958.636 0.855231 -4.88774 0
M  V30 10165 N 957.809 1.4625 -0.587256 0
M  V30 10166 C 959.057 2.01963 -0.0744273 0
M  V30 10167 C 959.378 1.46065 1.29189 0
M  V30 10168 O 958.648 0.647077 1.84905 0
M  V30 10169 H 957.228 0.746597 -0.0245236 0
M  V30 10170 H 959.89 1.79299 -0.764063 0
M  V30 10171 H 958.986 3.12099 -0.00884894 0
M  V30 10172 N 959.287 0.325282 1.54207 0
M  V30 10173 C 960.235 -0.5554 2.25872 0
M  V30 10174 C 961.229 -1.11714 1.27344 0
M  V30 10175 O 962.435 -1.06498 1.45115 0
M  V30 10176 H 958.81 -0.19776 0.725531 0
M  V30 10177 H 960.781 0.0712858 2.98315 0
M  V30 10178 C 959.53 -1.70379 3.03095 0
M  V30 10179 H 958.853 -1.2808 3.78729 0
M  V30 10180 H 960.293 -2.29556 3.56483 0
M  V30 10181 C 958.752 -2.62242 2.11496 0
M  V30 10182 O 959.282 -3.64003 1.69895 0
M  V30 10183 N 957.488 -2.30515 1.7695 0
M  V30 10184 H 957.035 -1.47805 2.10978 0
M  V30 10185 H 956.993 -2.92241 1.15942 0
M  V30 10186 N 960.765 -1.57509 0.0534917 0
M  V30 10187 C 961.99 -1.97511 -0.632794 0
M  V30 10188 C 962.415 -0.930947 -1.63447 0
M  V30 10189 O 961.773 0.105558 -1.80992 0
M  V30 10190 C 961.821 -3.3658 -1.29407 0
M  V30 10191 O 960.925 -3.3467 -2.40977 0
M  V30 10192 H 960.266 -0.643349 -0.16431 0
M  V30 10193 H 962.796 -2.04232 0.12258 0
M  V30 10194 H 962.806 -3.73359 -1.64521 0
M  V30 10195 H 961.481 -4.12113 -0.559976 0
M  V30 10196 H 960.058 -3.09639 -2.07793 0
M  V30 10197 N 962.243 0.219913 -1.56058 0
M  V30 10198 C 963.471 0.960915 -1.83232 0
M  V30 10199 C 963.886 1.77878 -0.632828 0
M  V30 10200 O 963.243 1.78093 0.398624 0
M  V30 10201 C 963.294 1.87716 -3.08942 0
M  V30 10202 O 963.015 1.09235 -4.24263 0
M  V30 10203 C 964.516 2.73192 -3.49115 0
M  V30 10204 H 961.736 0.281546 -0.609075 0
M  V30 10205 H 964.28 0.234648 -2.03149 0
M  V30 10206 H 962.435 2.55736 -2.90995 0
M  V30 10207 H 962.849 1.71446 -4.95688 0
M  V30 10208 H 964.323 3.33181 -4.40107 0
M  V30 10209 H 964.8 3.45668 -2.70943 0
M  V30 10210 H 965.406 2.10583 -3.69506 0
M  V30 10211 N 963.721 1.49897 0.486681 0
M  V30 10212 C 964.949 1.63837 1.26353 0
M  V30 10213 C 965.364 0.315428 1.86146 0
M  V30 10214 O 964.721 -0.700831 1.68507 0
M  V30 10215 C 964.772 2.71792 2.38351 0
M  V30 10216 O 964.493 3.98956 1.81013 0
M  V30 10217 C 965.994 2.96566 3.2949 0
M  V30 10218 H 963.214 0.551158 0.382709 0
M  V30 10219 H 965.758 1.96023 0.582694 0
M  V30 10220 H 963.913 2.42344 3.02238 0
M  V30 10221 H 964.327 4.58536 2.54647 0
M  V30 10222 H 965.801 3.75803 4.04322 0
M  V30 10223 H 966.278 2.07031 3.87343 0
M  V30 10224 H 966.884 3.27485 2.71355 0
M  V30 10225 N 965.199 -0.738761 1.39212 0
M  V30 10226 C 966.149 -1.84376 1.34125 0
M  V30 10227 C 967.133 -1.5935 0.222793 0
M  V30 10228 O 968.325 -1.70918 0.460014 0
M  V30 10229 C 965.454 -3.22261 1.18334 0
M  V30 10230 C 964.54 -3.53129 2.34864 0
M  V30 10231 N 964.931 -3.54957 3.60332 0
M  V30 10232 C 963.229 -3.83472 2.27739 0
M  V30 10233 C 963.93 -3.83513 4.3737 0
M  V30 10234 N 962.906 -4.01097 3.66909 0
M  V30 10235 H 966.708 -1.84089 2.29104 0
M  V30 10236 H 964.222 -0.936826 1.32655 0
M  V30 10237 H 966.219 -4.01358 1.12772 0
M  V30 10238 H 964.879 -3.23789 0.243016 0
M  V30 10239 H 965.89 -3.36359 3.93806 0
M  V30 10240 H 962.567 -3.92628 1.41949 0
M  V30 10241 H 963.957 -3.91427 5.46109 0
M  V30 10242 N 966.677 -1.24326 -0.968545 0
M  V30 10243 C 968.088 -1.07561 -1.52603 0
M  V30 10244 C 968.439 0.353245 -1.92994 0
M  V30 10245 O 967.564 1.24151 -1.77244 0
M  V30 10246 C 968.159 -1.94634 -2.77314 0
M  V30 10247 C 966.718 -1.82095 -3.29421 0
M  V30 10248 C 965.865 -1.8962 -2.02335 0
M  V30 10249 H 968.816 -1.37815 -0.786932 0
M  V30 10250 H 968.837 -1.47812 -3.50616 0
M  V30 10251 H 968.349 -2.98621 -2.47885 0
M  V30 10252 H 966.45 -0.809376 -3.63703 0
M  V30 10253 H 966.563 -2.66142 -3.98378 0
M  V30 10254 H 964.927 -1.33339 -2.17009 0
M  V30 10255 H 965.71 -2.95185 -1.75273 0
M  V30 10256 N 968.156 1.1691 -1.05688 0
M  V30 10257 C 969.066 2.24735 -0.67315 0
M  V30 10258 C 970.082 1.71252 0.308043 0
M  V30 10259 O 971.258 2.00772 0.158889 0
M  V30 10260 C 968.323 3.4665 -0.059026 0
M  V30 10261 C 967.384 4.15198 -1.0913 0
M  V30 10262 C 966.617 5.31292 -0.50639 0
M  V30 10263 O 966.84 5.663 0.682692 0
M  V30 10264 O 965.774 5.88923 -1.2431 0
M  V30 10265 H 969.6 2.59855 -1.57191 0
M  V30 10266 H 967.185 1.24306 -0.828751 0
M  V30 10267 H 969.067 4.20455 0.282018 0
M  V30 10268 H 967.742 3.13316 0.813304 0
M  V30 10269 H 966.649 3.43389 -1.48442 0
M  V30 10270 H 967.982 4.52571 -1.93495 0
M  V30 10271 N 969.634 0.838594 1.33437 0
M  V30 10272 C 970.584 0.243681 2.26694 0
M  V30 10273 C 971.568 -0.601168 1.49247 0
M  V30 10274 O 972.76 -0.453181 1.711 0
M  V30 10275 C 969.889 -0.580525 3.38356 0
M  V30 10276 C 968.975 0.275819 4.23202 0
M  V30 10277 N 969.366 1.3544 4.87329 0
M  V30 10278 C 967.664 0.0628047 4.45956 0
M  V30 10279 C 968.365 1.87991 5.50486 0
M  V30 10280 N 967.341 1.18143 5.30607 0
M  V30 10281 H 971.143 1.06849 2.73789 0
M  V30 10282 H 968.657 0.683019 1.47338 0
M  V30 10283 H 970.654 -1.02301 4.04153 0
M  V30 10284 H 969.314 -1.40331 2.92809 0
M  V30 10285 H 970.325 1.73729 4.87892 0
M  V30 10286 H 967.002 -0.726563 4.11129 0
M  V30 10287 H 968.392 2.78312 6.11549 0
M  V30 10288 N 971.112 -1.45937 0.595003 0
M  V30 10289 C 972.075 -2.2888 -0.121102 0
M  V30 10290 C 973.075 -1.39075 -0.807149 0
M  V30 10291 O 974.265 -1.61326 -0.657228 0
M  V30 10292 C 971.397 -3.19778 -1.1813 0
M  V30 10293 H 972.59 -2.93673 0.607968 0
M  V30 10294 H 970.143 -1.5225 0.353495 0
M  V30 10295 H 970.878 -2.59759 -1.94154 0
M  V30 10296 H 970.663 -3.85914 -0.693724 0
M  V30 10297 H 972.153 -3.82176 -1.68319 0
M  V30 10298 N 972.59 -0.333456 -1.54032 0
M  V30 10299 C 973.838 0.265608 -2.00347 0
M  V30 10300 C 974.159 1.51873 -1.2231 0
M  V30 10301 O 973.429 1.93142 -0.327549 0
M  V30 10302 H 972.009 0.101135 -0.740122 0
M  V30 10303 H 974.671 -0.452285 -1.8958 0
M  V30 10304 H 973.767 0.51511 -3.0782 0
M  V30 10305 N 974.068 1.57479 -0.061844 0
M  V30 10306 C 975.484 1.56855 0.294753 0
M  V30 10307 C 975.684 1.07042 1.70717 0
M  V30 10308 O 974.74 0.731817 2.41662 0
M  V30 10309 C 976.053 3.00486 0.113484 0
M  V30 10310 C 977.601 3.1246 0.183778 0
M  V30 10311 C 978.076 4.5799 0.0309092 0
M  V30 10312 N 979.567 4.63119 0.0868393 0
M  V30 10313 C 980.302 5.734 -0.00717446 0
M  V30 10314 N 979.798 6.92628 -0.154144 0
M  V30 10315 N 981.591 5.62078 0.0491763 0
M  V30 10316 H 973.742 1.88176 -0.985058 0
M  V30 10317 H 976.005 0.867051 -0.383309 0
M  V30 10318 H 975.711 3.41004 -0.86075 0
M  V30 10319 H 975.585 3.67029 0.870023 0
M  V30 10320 H 977.972 2.71834 1.14849 0
M  V30 10321 H 978.053 2.48574 -0.603697 0
M  V30 10322 H 977.697 4.99303 -0.930526 0
M  V30 10323 H 977.627 5.19895 0.837664 0
M  V30 10324 H 980.118 3.77374 0.199245 0
M  V30 10325 H 980.431 7.72492 -0.218296 0
M  V30 10326 H 978.776 6.94742 -0.189372 0
M  V30 10327 H 981.967 4.67817 0.162626 0
M  V30 10328 H 982.14 6.47994 -0.0275478 0
M  V30 10329 N 975.546 -0.211634 1.56173 0
M  V30 10330 C 976.795 -0.932647 1.78842 0
M  V30 10331 C 977.108 -1.85103 0.63217 0
M  V30 10332 O 978.314 -2.61143 0.742746 0
M  V30 10333 C 976.77 -1.70866 3.16753 0
M  V30 10334 C 976.378 -0.835934 4.40132 0
M  V30 10335 C 978.122 -2.4203 3.48743 0
M  V30 10336 C 976.029 -1.60987 5.69067 0
M  V30 10337 H 974.959 -0.351983 0.666801 0
M  V30 10338 H 977.61 -0.186284 1.82552 0
M  V30 10339 H 975.992 -2.4983 3.07247 0
M  V30 10340 H 977.166 -0.0861298 4.60719 0
M  V30 10341 H 975.481 -0.235941 4.15731 0
M  V30 10342 H 978.078 -3.00453 4.42303 0
M  V30 10343 H 978.421 -3.15406 2.71707 0
M  V30 10344 H 978.954 -1.70048 3.59623 0
M  V30 10345 H 975.693 -0.9192 6.49023 0
M  V30 10346 H 975.213 -2.33403 5.52524 0
M  V30 10347 H 976.892 -2.16798 6.09596 0
M  V30 10348 N 977.024 -1.50153 -0.478725 0
M  V30 10349 C 977.956 -1.64603 -1.59494 0
M  V30 10350 C 978.969 -0.527789 -1.54007 0
M  V30 10351 O 980.158 -0.80069 -1.59534 0
M  V30 10352 C 977.258 -1.60738 -2.98356 0
M  V30 10353 C 976.431 -2.88468 -3.28794 0
M  V30 10354 C 975.49 -2.77349 -4.47173 0
M  V30 10355 O 974.516 -3.51302 -4.47857 0
M  V30 10356 N 975.718 -1.9039 -5.4839 0
M  V30 10357 H 978.483 -2.6088 -1.47518 0
M  V30 10358 H 976.044 -1.47521 -0.667011 0
M  V30 10359 H 978.036 -1.50923 -3.75505 0
M  V30 10360 H 976.606 -0.722273 -3.04141 0
M  V30 10361 H 975.826 -3.12467 -2.40329 0
M  V30 10362 H 977.114 -3.73102 -3.45937 0
M  V30 10363 H 976.512 -1.29606 -5.50653 0
M  V30 10364 H 975.069 -1.86484 -6.24553 0
M  V30 10365 N 978.502 0.731368 -1.39602 0
M  V30 10366 C 979.727 1.52567 -1.40492 0
M  V30 10367 C 980.152 1.881 -0.00228828 0
M  V30 10368 O 979.51 1.52167 0.985643 0
M  V30 10369 C 979.558 2.78749 -2.2876 0
M  V30 10370 O 978.662 3.7482 -1.71999 0
M  V30 10371 H 978.003 0.460601 -0.478271 0
M  V30 10372 H 980.533 0.902042 -1.83642 0
M  V30 10373 H 980.543 3.27446 -2.43399 0
M  V30 10374 H 979.218 2.5222 -3.30693 0
M  V30 10375 H 977.795 3.33604 -1.66622 0
M  V30 10376 N 979.98 1.24838 0.961938 0
M  V30 10377 C 981.229 1.0855 1.69999 0
M  V30 10378 C 981.542 -0.374645 1.91979 0
M  V30 10379 O 982.748 -0.657822 2.6341 0
M  V30 10380 C 981.204 1.89424 3.06017 0
M  V30 10381 C 980.812 3.39885 2.9186 0
M  V30 10382 C 982.556 1.81684 3.83655 0
M  V30 10383 C 980.463 4.13082 4.23223 0
M  V30 10384 H 979.393 0.402603 0.637516 0
M  V30 10385 H 982.044 1.4897 1.07146 0
M  V30 10386 H 980.426 1.41823 3.69733 0
M  V30 10387 H 981.6 3.95108 2.37121 0
M  V30 10388 H 979.915 3.4864 2.27683 0
M  V30 10389 H 982.512 2.3367 4.80939 0
M  V30 10390 H 982.855 0.783247 4.08865 0
M  V30 10391 H 983.388 2.26997 3.26676 0
M  V30 10392 H 980.127 5.16824 4.03204 0
M  V30 10393 H 979.647 3.62644 4.77755 0
M  V30 10394 H 981.326 4.20397 4.91808 0
M  V30 10395 N 981.458 -1.16348 1.06306 0
M  V30 10396 C 982.704 -1.87397 0.79082 0
M  V30 10397 C 983.059 -1.80156 -0.675382 0
M  V30 10398 O 982.352 -1.20644 -1.48847 0
M  V30 10399 C 982.546 -3.35936 1.21991 0
M  V30 10400 C 982.375 -3.57637 2.72628 0
M  V30 10401 C 981.145 -3.73717 3.40094 0
M  V30 10402 C 983.343 -3.56345 3.70841 0
M  V30 10403 N 981.325 -3.83369 4.7948 0
M  V30 10404 C 982.696 -3.71983 4.96013 0
M  V30 10405 C 984.751 -3.39558 3.64149 0
M  V30 10406 C 983.454 -3.7257 6.15292 0
M  V30 10407 C 985.48 -3.41439 4.8288 0
M  V30 10408 C 984.842 -3.57596 6.06881 0
M  V30 10409 H 980.941 -0.703355 0.341782 0
M  V30 10410 H 983.525 -1.39597 1.35723 0
M  V30 10411 H 981.696 -3.82378 0.681319 0
M  V30 10412 H 983.428 -3.94649 0.896319 0
M  V30 10413 H 980.183 -3.74045 2.90495 0
M  V30 10414 H 980.607 -3.91964 5.5199 0
M  V30 10415 H 985.249 -3.25994 2.69235 0
M  V30 10416 H 982.967 -3.84916 7.10539 0
M  V30 10417 H 986.553 -3.29693 4.79368 0
M  V30 10418 H 985.433 -3.58971 6.97216 0
M  V30 10419 N 982.937 -0.845659 -1.3299 0
M  V30 10420 C 984.162 -0.457435 -2.02293 0
M  V30 10421 C 984.587 0.935634 -1.63179 0
M  V30 10422 O 983.945 1.61297 -0.827835 0
M  V30 10423 C 983.993 -0.593665 -3.5568 0
M  V30 10424 O 983.097 0.37729 -4.10671 0
M  V30 10425 H 982.438 -0.185022 -0.637701 0
M  V30 10426 H 984.968 -1.14237 -1.69738 0
M  V30 10427 H 984.978 -0.477834 -4.05192 0
M  V30 10428 H 983.653 -1.60957 -3.83491 0
M  V30 10429 H 982.23 0.218448 -3.7226 0
M  V30 10430 N 984.415 1.45619 -0.602734 0
M  V30 10431 C 985.831 1.57368 -0.26599 0
M  V30 10432 C 986.031 1.59485 1.23154 0
M  V30 10433 O 985.087 1.52254 2.01432 0
M  V30 10434 C 986.4 2.85863 -0.932881 0
M  V30 10435 C 987.948 2.9953 -0.908344 0
M  V30 10436 C 988.423 4.30789 -1.55515 0
M  V30 10437 N 989.914 4.37536 -1.52042 0
M  V30 10438 C 990.649 5.37758 -1.99008 0
M  V30 10439 N 990.145 6.44544 -2.54038 0
M  V30 10440 N 991.938 5.29085 -1.89805 0
M  V30 10441 H 984.089 1.42489 -1.57514 0
M  V30 10442 H 986.352 0.680948 -0.659556 0
M  V30 10443 H 986.058 2.90183 -1.98713 0
M  V30 10444 H 985.932 3.74467 -0.453209 0
M  V30 10445 H 988.319 2.9478 0.137344 0
M  V30 10446 H 988.4 2.12349 -1.42623 0
M  V30 10447 H 988.044 4.36297 -2.60014 0
M  V30 10448 H 987.974 5.16778 -1.01232 0
M  V30 10449 H 990.465 3.60972 -1.11837 0
M  V30 10450 H 990.778 7.17258 -2.87682 0
M  V30 10451 H 989.123 6.45308 -2.58075 0
M  V30 10452 H 992.314 4.44566 -1.46556 0
M  V30 10453 H 992.487 6.07043 -2.26722 0
M  V30 10454 N 985.893 0.34162 1.53853 0
M  V30 10455 C 986.823 -0.508431 2.27897 0
M  V30 10456 C 987.804 -1.10425 1.29384 0
M  V30 10457 O 988.989 -1.126 1.58224 0
M  V30 10458 C 986.119 -1.66048 3.05034 0
M  V30 10459 C 985.073 -1.19309 4.11035 0
M  V30 10460 C 984.399 -2.4335 4.76114 0
M  V30 10461 C 985.699 -0.294952 5.21467 0
M  V30 10462 H 987.393 0.109251 2.99201 0
M  V30 10463 H 984.939 0.0539847 1.43899 0
M  V30 10464 H 986.892 -2.26158 3.5557 0
M  V30 10465 H 985.616 -2.30503 2.31379 0
M  V30 10466 H 984.275 -0.614809 3.61408 0
M  V30 10467 H 983.923 -3.06208 3.99056 0
M  V30 10468 H 983.623 -2.1276 5.47729 0
M  V30 10469 H 985.147 -3.0419 5.29434 0
M  V30 10470 H 986.561 -0.80285 5.67651 0
M  V30 10471 H 984.958 -0.0810221 6.00045 0
M  V30 10472 H 986.028 0.669433 4.80257 0
M  V30 10473 N 987.371 -1.57444 0.0701946 0
M  V30 10474 C 988.303 -2.09611 -0.927142 0
M  V30 10475 C 989.316 -1.02791 -1.26245 0
M  V30 10476 O 990.505 -1.30309 -1.21992 0
M  V30 10477 C 987.605 -2.54015 -2.24342 0
M  V30 10478 C 986.778 -3.84389 -2.08719 0
M  V30 10479 C 985.837 -4.14904 -3.23638 0
M  V30 10480 O 984.863 -4.84528 -2.98699 0
M  V30 10481 N 986.065 -3.68322 -4.48686 0
M  V30 10482 H 988.83 -2.95803 -0.481753 0
M  V30 10483 H 986.391 -1.61487 -0.115572 0
M  V30 10484 H 988.383 -2.71492 -3.00124 0
M  V30 10485 H 986.953 -1.72969 -2.60385 0
M  V30 10486 H 986.173 -3.76308 -1.17415 0
M  V30 10487 H 987.461 -4.69729 -1.9553 0
M  V30 10488 H 986.859 -3.12073 -4.71834 0
M  V30 10489 H 985.416 -3.91002 -5.21499 0
M  V30 10490 N 988.849 0.203349 -1.56283 0
M  V30 10491 C 989.759 1.27266 -1.9708 0
M  V30 10492 C 990.775 1.50268 -0.877236 0
M  V30 10493 O 991.951 1.63044 -1.18231 0
M  V30 10494 C 989.016 2.59871 -2.29495 0
M  V30 10495 C 988.077 2.45012 -3.52516 0
M  V30 10496 C 987.31 3.71293 -3.83376 0
M  V30 10497 O 987.533 4.75106 -3.15643 0
M  V30 10498 O 986.467 3.67316 -4.76826 0
M  V30 10499 H 990.293 0.956461 -2.88246 0
M  V30 10500 H 987.878 0.407688 -1.4373 0
M  V30 10501 H 989.76 3.38152 -2.51458 0
M  V30 10502 H 988.435 2.91135 -1.415 0
M  V30 10503 H 987.342 1.6487 -3.35811 0
M  V30 10504 H 988.675 2.18683 -4.40952 0
M  V30 10505 N 990.327 1.50405 0.470755 0
M  V30 10506 C 991.555 1.65168 1.24608 0
M  V30 10507 C 991.97 0.335153 1.85801 0
M  V30 10508 O 991.327 -0.682919 1.69241 0
M  V30 10509 C 991.378 2.74305 2.35455 0
M  V30 10510 O 991.099 4.00854 1.76771 0
M  V30 10511 C 992.6 3.00044 3.26326 0
M  V30 10512 H 989.82 0.555186 0.376842 0
M  V30 10513 H 992.364 1.9663 0.56187 0
M  V30 10514 H 990.519 2.45536 2.99651 0
M  V30 10515 H 990.933 4.61211 2.49769 0
M  V30 10516 H 992.407 3.8007 4.00313 0
M  V30 10517 H 992.884 2.11128 3.85126 0
M  V30 10518 H 993.49 3.30345 2.67866 0
M  V30 10519 N 991.805 -0.723954 1.39988 0
M  V30 10520 C 993.053 -1.48078 1.3754 0
M  V30 10521 C 993.374 -1.94985 -0.0243358 0
M  V30 10522 O 992.644 -1.69764 -0.977602 0
M  V30 10523 H 991.224 -0.549354 0.506181 0
M  V30 10524 H 993.886 -0.858746 1.74962 0
M  V30 10525 H 992.982 -2.35763 2.04505 0
M  V30 10526 N 993.283 -1.25346 -0.955304 0
M  V30 10527 C 994.213 -1.08152 -2.06943 0
M  V30 10528 C 995.194 0.00922598 -1.70097 0
M  V30 10529 O 996.379 -0.160181 -1.93538 0
M  V30 10530 C 993.509 -0.698745 -3.40198 0
M  V30 10531 C 992.463 -1.73965 -3.9105 0
M  V30 10532 C 991.789 -1.21158 -5.20792 0
M  V30 10533 C 993.089 -3.13829 -4.17503 0
M  V30 10534 H 994.783 -2.01345 -2.21586 0
M  V30 10535 H 992.329 -0.969459 -1.06478 0
M  V30 10536 H 994.282 -0.565394 -4.1759 0
M  V30 10537 H 993.006 0.268892 -3.25491 0
M  V30 10538 H 991.665 -1.86143 -3.15827 0
M  V30 10539 H 991.313 -0.234193 -5.02455 0
M  V30 10540 H 991.013 -1.90728 -5.55785 0
M  V30 10541 H 992.537 -1.09061 -6.00781 0
M  V30 10542 H 993.951 -3.04809 -4.85556 0
M  V30 10543 H 992.348 -3.80863 -4.63749 0
M  V30 10544 H 993.418 -3.6094 -3.23806 0
M  V30 10545 N 994.761 1.15782 -1.06922 0
M  V30 10546 C 995.691 2.22538 -0.707045 0
M  V30 10547 C 996.672 1.67371 0.303471 0
M  V30 10548 O 997.857 1.9339 0.177189 0
M  V30 10549 C 994.987 3.47158 -0.0994269 0
M  V30 10550 C 993.941 4.15257 -1.03661 0
M  V30 10551 C 993.267 5.33902 -0.291974 0
M  V30 10552 C 994.567 4.65516 -2.36837 0
M  V30 10553 H 996.261 2.53089 -1.59958 0
M  V30 10554 H 993.807 1.21649 -0.770552 0
M  V30 10555 H 995.76 4.21073 0.165852 0
M  V30 10556 H 994.484 3.15926 0.828155 0
M  V30 10557 H 993.143 3.43276 -1.28674 0
M  V30 10558 H 992.791 4.98926 0.638928 0
M  V30 10559 H 992.491 5.80407 -0.916613 0
M  V30 10560 H 994.015 6.1059 -0.0343915 0
M  V30 10561 H 995.429 5.30981 -2.16175 0
M  V30 10562 H 993.826 5.22666 -2.94856 0
M  V30 10563 H 994.896 3.81387 -2.99453 0
M  V30 10564 N 996.239 0.8527 1.3254 0
M  V30 10565 C 997.187 0.284659 2.30852 0
M  V30 10566 C 998.181 -0.5909 1.5876 0
M  V30 10567 O 999.387 -0.478922 1.73512 0
M  V30 10568 H 995.762 0.0733452 0.748415 0
M  V30 10569 H 997.733 1.1281 2.76254 0
M  V30 10570 C 996.482 -0.51379 3.43883 0
M  V30 10571 H 995.805 0.150644 3.99516 0
M  V30 10572 H 997.245 -0.876866 4.14834 0
M  V30 10573 C 995.704 -1.69823 2.90967 0
M  V30 10574 O 996.234 -2.79727 2.88298 0
M  V30 10575 N 994.44 -1.52465 2.47392 0
M  V30 10576 H 993.987 -0.630599 2.49762 0
M  V30 10577 H 993.945 -2.31859 2.12341 0
M  V30 10578 N 997.718 -1.45297 0.610449 0
M  V30 10579 C 998.665 -2.30553 -0.106718 0
M  V30 10580 C 999.635 -1.42272 -0.85719 0
M  V30 10581 O 1000.82 -1.71199 -0.842357 0
M  V30 10582 C 997.96 -3.27226 -1.09623 0
M  V30 10583 C 997.073 -4.3061 -0.346329 0
M  V30 10584 C 996.208 -5.14389 -1.32581 0
M  V30 10585 C 995.247 -6.09497 -0.563892 0
M  V30 10586 N 994.384 -6.86047 -1.4928 0
M  V30 10587 H 999.224 -2.91344 0.626296 0
M  V30 10588 H 996.761 -1.43563 0.32065 0
M  V30 10589 H 998.719 -3.81744 -1.68308 0
M  V30 10590 H 997.349 -2.68182 -1.79662 0
M  V30 10591 H 996.401 -3.7873 0.356084 0
M  V30 10592 H 997.713 -4.98183 0.248026 0
M  V30 10593 H 996.867 -5.73321 -1.98464 0
M  V30 10594 H 995.606 -4.4684 -1.9541 0
M  V30 10595 H 994.611 -5.49693 0.108551 0
M  V30 10596 H 995.836 -6.79074 0.0593872 0
M  V30 10597 H 993.782 -6.21185 -2.10868 0
M  V30 10598 H 993.699 -7.49983 -0.951953 0
M  V30 10599 H 994.967 -7.49518 -2.14112 0
M  V30 10600 N 999.196 -0.349774 -1.5367 0
M  V30 10601 C 1000.44 0.245095 -2.02925 0
M  V30 10602 C 1000.8 1.4727 -1.23189 0
M  V30 10603 O 1002 2.14215 -1.62374 0
M  V30 10604 C 1000.27 0.545392 -3.53214 0
M  V30 10605 S 1001.83 1.11619 -4.24366 0
M  V30 10606 H 998.649 0.0725368 -0.70729 0
M  V30 10607 H 1001.25 -0.488979 -1.89286 0
M  V30 10608 H 999.955 -0.355786 -4.08855 0
M  V30 10609 H 999.486 1.30897 -3.70985 0
M  V30 10610 H 1001.5 2.40151 -4.34214 0
M  V30 10611 N 1000.67 1.57404 -0.0785433 0
M  V30 10612 C 1001.58 2.16612 0.900902 0
M  V30 10613 C 1002.6 1.13109 1.32221 0
M  V30 10614 O 1003.78 1.45406 1.39352 0
M  V30 10615 C 1000.84 2.7215 2.14791 0
M  V30 10616 C 999.902 3.90551 1.78237 0
M  V30 10617 C 999.135 4.43431 2.96993 0
M  V30 10618 O 999.358 3.95292 4.11218 0
M  V30 10619 O 998.292 5.34674 2.76418 0
M  V30 10620 H 1002.12 3.0068 0.427227 0
M  V30 10621 H 999.703 1.48696 0.144902 0
M  V30 10622 H 1001.58 3.07718 2.87902 0
M  V30 10623 H 1000.26 1.91139 2.61243 0
M  V30 10624 H 999.167 3.59825 1.02357 0
M  V30 10625 H 1000.5 4.72876 1.36562 0
M  V30 10626 N 1002.15 -0.195058 1.56388 0
M  V30 10627 C 1003.57 -0.545894 1.49974 0
M  V30 10628 C 1003.77 -1.85851 0.778568 0
M  V30 10629 O 1002.82 -2.50346 0.329105 0
M  V30 10630 C 1004.14 -0.600599 2.94641 0
M  V30 10631 C 1005.68 -0.689429 3.05313 0
M  V30 10632 C 1006.16 -0.775243 4.51391 0
M  V30 10633 N 1007.65 -0.838769 4.55542 0
M  V30 10634 C 1008.39 -0.925337 5.65884 0
M  V30 10635 N 1007.88 -0.974204 6.85916 0
M  V30 10636 N 1009.67 -0.962528 5.53798 0
M  V30 10637 H 1001.83 0.66595 2.0169 0
M  V30 10638 H 1004.09 0.237215 0.917842 0
M  V30 10639 H 1003.79 0.29478 3.50462 0
M  V30 10640 H 1003.67 -1.45528 3.47996 0
M  V30 10641 H 1006.06 -1.57524 2.4954 0
M  V30 10642 H 1006.14 0.191451 2.55083 0
M  V30 10643 H 1005.78 0.106215 5.07789 0
M  V30 10644 H 1005.71 -1.67193 4.99354 0
M  V30 10645 H 1008.2 -0.810249 3.69112 0
M  V30 10646 H 1008.51 -1.04077 7.6576 0
M  V30 10647 H 1006.86 -0.942881 6.88574 0
M  V30 10648 H 1010.05 -0.921188 4.58946 0
M  V30 10649 H 1010.22 -1.02653 6.39817 0
M  V30 10650 N 1003.63 -1.50653 -0.462772 0
M  V30 10651 C 1004.88 -1.61296 -1.21105 0
M  V30 10652 C 1005.19 -0.322757 -1.92919 0
M  V30 10653 O 1006.4 -0.308211 -2.69745 0
M  V30 10654 C 1004.85 -2.84752 -2.201 0
M  V30 10655 C 1004.46 -4.20681 -1.54051 0
M  V30 10656 C 1006.21 -3.04744 -2.95518 0
M  V30 10657 C 1004.11 -5.35314 -2.51381 0
M  V30 10658 H 1003.04 -0.60069 -0.455728 0
M  V30 10659 H 1005.69 -1.77093 -0.480656 0
M  V30 10660 H 1004.08 -2.62532 -2.96467 0
M  V30 10661 H 1005.25 -4.53187 -0.834168 0
M  V30 10662 H 1003.56 -4.06361 -0.908828 0
M  V30 10663 H 1006.16 -3.87559 -3.68378 0
M  V30 10664 H 1006.5 -2.16802 -3.55391 0
M  V30 10665 H 1007.04 -3.27185 -2.26263 0
M  V30 10666 H 1003.78 -6.25437 -1.96235 0
M  V30 10667 H 1003.3 -5.07216 -3.20144 0
M  V30 10668 H 1004.98 -5.66229 -3.1304 0
M  V30 10669 N 1005.11 0.71652 -1.4037 0
M  V30 10670 C 1006.04 1.84138 -1.36477 0
M  V30 10671 C 1007.05 1.6054 -0.27033 0
M  V30 10672 O 1008.24 1.70431 -0.530612 0
M  V30 10673 C 1005.34 3.20523 -1.10082 0
M  V30 10674 C 1004.52 3.71326 -2.31162 0
M  V30 10675 C 1003.57 4.86322 -2.00942 0
M  V30 10676 O 1002.6 4.99022 -2.73799 0
M  V30 10677 N 1003.8 5.72051 -0.986812 0
M  V30 10678 H 1006.57 1.87977 -2.3342 0
M  V30 10679 H 1004.13 0.89802 -1.34712 0
M  V30 10680 H 1006.12 3.95049 -0.878526 0
M  V30 10681 H 1004.69 3.11838 -0.21809 0
M  V30 10682 H 1003.91 2.87941 -2.69227 0
M  V30 10683 H 1005.2 4.02003 -3.11883 0
M  V30 10684 H 1004.6 5.64399 -0.383381 0
M  V30 10685 H 1003.15 6.46565 -0.824419 0
M  V30 10686 N 1006.59 1.25851 0.948643 0
M  V30 10687 C 1007.83 1.10735 1.69062 0
M  V30 10688 C 1008.16 -0.351257 1.9181 0
M  V30 10689 O 1007.43 -1.24867 1.50947 0
M  V30 10690 H 1006.01 0.406796 0.626519 0
M  V30 10691 H 1008.67 1.58066 1.14022 0
M  V30 10692 H 1007.76 1.62033 2.66743 0
M  V30 10693 N 1008.06 -1.15214 1.07534 0
M  V30 10694 C 1009.48 -1.38031 0.801228 0
M  V30 10695 C 1009.68 -1.92556 -0.593672 0
M  V30 10696 O 1008.74 -2.1325 -1.35206 0
M  V30 10697 C 1010.05 -2.34958 1.87657 0
M  V30 10698 C 1011.6 -2.48617 1.90154 0
M  V30 10699 C 1012.07 -3.48837 2.96777 0
M  V30 10700 N 1013.56 -3.56374 2.95892 0
M  V30 10701 C 1014.3 -4.33746 3.75036 0
M  V30 10702 N 1013.79 -5.14435 4.64036 0
M  V30 10703 N 1015.59 -4.28853 3.63375 0
M  V30 10704 H 1007.74 -0.781639 1.97495 0
M  V30 10705 H 1010 -0.406243 0.856546 0
M  V30 10706 H 1009.71 -2.02013 2.87895 0
M  V30 10707 H 1009.58 -3.3476 1.73827 0
M  V30 10708 H 1011.97 -2.80859 0.905666 0
M  V30 10709 H 1012.05 -1.48808 2.08062 0
M  V30 10710 H 1011.69 -3.1733 3.96565 0
M  V30 10711 H 1011.62 -4.48406 2.76116 0
M  V30 10712 H 1014.11 -2.98784 2.31379 0
M  V30 10713 H 1014.43 -5.70722 5.21053 0
M  V30 10714 H 1012.77 -5.13734 4.68084 0
M  V30 10715 H 1015.96 -3.64882 2.93221 0
M  V30 10716 H 1016.14 -4.88903 4.25298 0
M  V30 10717 N 1009.54 -0.859717 -1.32086 0
M  V30 10718 C 1010.49 -0.306042 -2.28762 0
M  V30 10719 C 1011.46 0.589801 -1.55276 0
M  V30 10720 O 1012.64 0.523633 -1.83474 0
M  V30 10721 C 1009.78 0.495256 -3.41528 0
M  V30 10722 C 1008.9 -0.426947 -4.29885 0
M  V30 10723 C 1008.03 0.387474 -5.29785 0
M  V30 10724 C 1007.07 -0.531807 -6.09785 0
M  V30 10725 N 1006.21 0.245741 -7.0167 0
M  V30 10726 H 1011.05 -1.1357 -2.7551 0
M  V30 10727 H 1008.59 -0.571468 -1.35546 0
M  V30 10728 H 1010.54 0.97551 -4.05635 0
M  V30 10729 H 1009.17 1.28969 -2.95917 0
M  V30 10730 H 1008.23 -1.02561 -3.66313 0
M  V30 10731 H 1009.54 -1.13226 -4.85779 0
M  V30 10732 H 1008.69 0.930677 -5.99519 0
M  V30 10733 H 1007.43 1.12612 -4.74521 0
M  V30 10734 H 1006.44 -1.08685 -5.3895 0
M  V30 10735 H 1007.66 -1.26915 -6.67135 0
M  V30 10736 H 1005.61 0.967391 -6.48828 0
M  V30 10737 H 1005.52 -0.400432 -7.54939 0
M  V30 10738 H 1006.79 0.770507 -7.75683 0
M  V30 10739 N 1011.02 1.44971 -0.618145 0
M  V30 10740 C 1011.98 2.29044 0.0846739 0
M  V30 10741 C 1012.98 1.40341 0.784921 0
M  V30 10742 O 1014.17 1.62351 0.631479 0
M  V30 10743 C 1011.31 3.21617 1.13027 0
M  V30 10744 H 1012.5 2.92668 -0.654612 0
M  V30 10745 H 1010.05 1.51668 -0.377672 0
M  V30 10746 H 1010.79 2.62815 1.89997 0
M  V30 10747 H 1010.57 3.86969 0.63224 0
M  V30 10748 H 1012.06 3.84805 1.62218 0
M  V30 10749 N 1012.5 0.357919 1.53482 0
M  V30 10750 C 1013.72 -0.237769 2.06033 0
M  V30 10751 C 1014.15 -1.42292 1.23023 0
M  V30 10752 O 1013.51 -1.79604 0.247427 0
M  V30 10753 C 1013.55 -0.616806 3.55286 0
M  V30 10754 O 1012.66 -1.71503 3.75047 0
M  V30 10755 H 1012 -0.0364322 0.663 0
M  V30 10756 H 1014.53 0.516301 1.97979 0
M  V30 10757 H 1014.54 -0.88996 3.98175 0
M  V30 10758 H 1013.21 0.249825 4.15149 0
M  V30 10759 H 1011.79 -1.43803 3.44057 0
M  V30 10760 N 1013.98 -1.5736 0.0868897 0
M  V30 10761 C 1014.91 -2.16596 -0.872252 0
M  V30 10762 C 1015.89 -1.09706 -1.29995 0
M  V30 10763 O 1017.07 -1.37808 -1.36831 0
M  V30 10764 C 1014.2 -2.73972 -2.1344 0
M  V30 10765 C 1013.16 -3.86163 -1.8456 0
M  V30 10766 C 1012.48 -4.30206 -3.17533 0
M  V30 10767 C 1013.78 -5.0973 -1.13899 0
M  V30 10768 H 1015.48 -2.96995 -0.378738 0
M  V30 10769 H 1013.02 -1.42861 -0.18073 0
M  V30 10770 H 1014.98 -3.14062 -2.80968 0
M  V30 10771 H 1013.7 -1.90817 -2.6506 0
M  V30 10772 H 1012.36 -3.466 -1.19432 0
M  V30 10773 H 1012.01 -3.43951 -3.67024 0
M  V30 10774 H 1011.71 -5.05841 -2.98996 0
M  V30 10775 H 1013.23 -4.72922 -3.86234 0
M  V30 10776 H 1014.64 -5.4704 -1.71523 0
M  V30 10777 H 1013.04 -5.90741 -1.05569 0
M  V30 10778 H 1014.11 -4.8475 -0.120432 0
M  V30 10779 N 1015.45 0.186762 -1.56489 0
M  V30 10780 C 1016.36 1.25169 -1.98419 0
M  V30 10781 C 1017.38 1.49329 -0.893124 0
M  V30 10782 O 1018.56 1.61781 -1.19954 0
M  V30 10783 C 1015.62 2.57422 -2.32239 0
M  V30 10784 C 1014.68 2.4126 -3.55095 0
M  V30 10785 C 1013.92 3.67206 -3.87292 0
M  V30 10786 O 1014.14 4.71731 -3.20665 0
M  V30 10787 O 1013.07 3.62238 -4.80695 0
M  V30 10788 H 1016.9 0.925834 -2.89244 0
M  V30 10789 H 1014.48 0.392421 -1.44154 0
M  V30 10790 H 1016.37 3.35466 -2.5503 0
M  V30 10791 H 1015.04 2.89618 -1.44579 0
M  V30 10792 H 1013.95 1.61299 -3.37541 0
M  V30 10793 H 1015.28 2.13994 -4.43247 0
M  V30 10794 N 1016.93 1.50896 0.454776 0
M  V30 10795 C 1017.84 1.73762 1.5762 0
M  V30 10796 C 1018.86 0.621206 1.62533 0
M  V30 10797 O 1020.03 0.901449 1.801 0
M  V30 10798 C 1017.1 1.84183 2.9373 0
M  V30 10799 C 1016.16 3.07982 2.99075 0
M  V30 10800 C 1015.39 3.17896 4.28693 0
M  V30 10801 O 1015.62 2.34184 5.20109 0
M  V30 10802 O 1014.55 4.10749 4.39964 0
M  V30 10803 H 1018.38 2.68856 1.41245 0
M  V30 10804 H 1015.96 1.35187 0.635984 0
M  V30 10805 H 1017.84 1.93123 3.74542 0
M  V30 10806 H 1016.52 0.922742 3.10269 0
M  V30 10807 H 1015.43 3.04531 2.17282 0
M  V30 10808 H 1016.76 3.99523 2.87476 0
M  V30 10809 N 1018.41 -0.709066 1.40748 0
M  V30 10810 C 1019.66 -1.4646 1.38681 0
M  V30 10811 C 1019.97 -1.95599 -0.0056209 0
M  V30 10812 O 1021.18 -2.71091 -0.148907 0
M  V30 10813 C 1019.63 -2.64771 2.43771 0
M  V30 10814 C 1019.24 -2.22474 3.88856 0
M  V30 10815 C 1020.99 -3.42475 2.50821 0
M  V30 10816 C 1018.89 -3.37663 4.85528 0
M  V30 10817 H 1017.82 -0.550084 0.515678 0
M  V30 10818 H 1020.47 -0.771074 1.66513 0
M  V30 10819 H 1018.86 -3.36325 2.09048 0
M  V30 10820 H 1020.03 -1.58297 4.32757 0
M  V30 10821 H 1018.35 -1.57798 3.85342 0
M  V30 10822 H 1020.94 -4.28201 3.20232 0
M  V30 10823 H 1021.29 -3.86738 1.54076 0
M  V30 10824 H 1021.82 -2.77969 2.84567 0
M  V30 10825 H 1018.56 -2.98426 5.83628 0
M  V30 10826 H 1018.08 -4.00734 4.46287 0
M  V30 10827 H 1019.76 -4.03636 5.05655 0
M  V30 10828 N 1019.89 -1.26353 -0.941956 0
M  V30 10829 C 1020.82 -1.03634 -2.04432 0
M  V30 10830 C 1021.83 0.00295864 -1.628 0
M  V30 10831 O 1023.02 -0.237029 -1.76919 0
M  V30 10832 C 1020.12 -0.547231 -3.34453 0
M  V30 10833 C 1019.3 -1.65559 -4.04857 0
M  V30 10834 C 1018.36 -1.16466 -5.13149 0
M  V30 10835 O 1017.38 -1.86158 -5.37898 0
M  V30 10836 N 1018.58 -0.0126703 -5.80499 0
M  V30 10837 H 1021.35 -1.98558 -2.24488 0
M  V30 10838 H 1018.91 -1.17728 -1.11138 0
M  V30 10839 H 1020.9 -0.203004 -4.04191 0
M  V30 10840 H 1019.47 0.308401 -3.11075 0
M  V30 10841 H 1018.69 -2.17079 -3.29044 0
M  V30 10842 H 1019.98 -2.39985 -4.48647 0
M  V30 10843 H 1019.38 0.569358 -5.62828 0
M  V30 10844 H 1017.93 0.272486 -6.5123 0
M  V30 10845 N 1021.37 1.14642 -1.08144 0
M  V30 10846 C 1022.3 2.21775 -0.730609 0
M  V30 10847 C 1023.28 1.67683 0.285702 0
M  V30 10848 O 1024.46 1.93567 0.156667 0
M  V30 10849 C 1021.59 3.47033 -0.136242 0
M  V30 10850 C 1020.55 4.14134 -1.0806 0
M  V30 10851 C 1019.87 5.33563 -0.348585 0
M  V30 10852 C 1021.17 4.62978 -2.41761 0
M  V30 10853 H 1022.87 2.51378 -1.62633 0
M  V30 10854 H 1020.41 1.20825 -0.783411 0
M  V30 10855 H 1022.37 4.21226 0.121182 0
M  V30 10856 H 1021.09 3.16786 0.7946 0
M  V30 10857 H 1019.75 3.41892 -1.32308 0
M  V30 10858 H 1019.4 4.99575 0.585974 0
M  V30 10859 H 1019.1 5.79402 -0.978122 0
M  V30 10860 H 1020.62 6.10519 -0.0991508 0
M  V30 10861 H 1022.04 5.28659 -2.21795 0
M  V30 10862 H 1020.43 5.1951 -3.00383 0
M  V30 10863 H 1021.5 3.78189 -3.03482 0
M  V30 10864 N 1022.85 0.866709 1.31628 0
M  V30 10865 C 1024.09 0.476731 1.97117 0
M  V30 10866 C 1024.42 -0.967813 1.68366 0
M  V30 10867 O 1023.7 -1.68101 0.978377 0
M  V30 10868 C 1023.98 0.730561 3.52611 0
M  V30 10869 C 1023.84 2.2244 3.90948 0
M  V30 10870 C 1025.15 0.19488 4.39668 0
M  V30 10871 H 1022.27 0.174682 0.715999 0
M  V30 10872 H 1024.92 1.08735 1.5581 0
M  V30 10873 H 1023.07 0.210834 3.87927 0
M  V30 10874 H 1024.74 2.81113 3.6575 0
M  V30 10875 H 1022.98 2.69824 3.39673 0
M  V30 10876 H 1023.65 2.35266 4.99353 0
M  V30 10877 H 1026.13 0.639478 4.11157 0
M  V30 10878 H 1025 0.401958 5.47426 0
M  V30 10879 H 1025.26 -0.90302 4.32779 0
M  V30 10880 N 1024.32 -1.44642 0.625825 0
M  V30 10881 C 1025.27 -2.27762 -0.104042 0
M  V30 10882 C 1026.26 -1.38364 -0.821232 0
M  V30 10883 O 1027.45 -1.62214 -0.708213 0
M  V30 10884 C 1024.58 -3.25585 -1.08853 0
M  V30 10885 C 1023.66 -4.22472 -0.371241 0
M  V30 10886 N 1024.06 -5.02262 0.597226 0
M  V30 10887 C 1022.35 -4.4172 -0.616392 0
M  V30 10888 C 1023.05 -5.72678 1.02053 0
M  V30 10889 N 1022.03 -5.42404 0.360423 0
M  V30 10890 H 1025.83 -2.86858 0.639517 0
M  V30 10891 H 1023.35 -1.56015 0.450911 0
M  V30 10892 H 1025.34 -3.83885 -1.62597 0
M  V30 10893 H 1024 -2.68051 -1.83245 0
M  V30 10894 H 1025.01 -5.08643 0.974803 0
M  V30 10895 H 1021.69 -3.9529 -1.34359 0
M  V30 10896 H 1023.08 -6.46772 1.82033 0
M  V30 10897 N 1025.8 -0.366053 -1.5329 0
M  V30 10898 C 1027.03 0.226839 -2.06156 0
M  V30 10899 C 1027.45 1.41637 -1.23776 0
M  V30 10900 O 1026.81 1.7947 -0.256948 0
M  V30 10901 C 1026.86 0.597956 -3.55608 0
M  V30 10902 O 1025.96 1.69512 -3.75951 0
M  V30 10903 H 1025.3 0.0329156 -0.663184 0
M  V30 10904 H 1027.83 -0.526793 -1.97702 0
M  V30 10905 H 1027.84 0.868831 -3.98642 0
M  V30 10906 H 1026.52 -0.271838 -4.15011 0
M  V30 10907 H 1025.09 1.41976 -3.44815 0
M  V30 10908 N 1027.28 1.57312 -0.0952337 0
M  V30 10909 C 1028.19 2.17556 0.877877 0
M  V30 10910 C 1029.21 1.14505 1.31014 0
M  V30 10911 O 1030.38 1.46876 1.37802 0
M  V30 10912 C 1027.45 2.74413 2.11892 0
M  V30 10913 C 1026.51 3.92419 1.74085 0
M  V30 10914 C 1025.74 4.46556 2.92273 0
M  V30 10915 O 1025.96 3.99631 4.07002 0
M  V30 10916 O 1024.9 5.37576 2.70732 0
M  V30 10917 H 1028.72 3.01116 0.395312 0
M  V30 10918 H 1026.31 1.48841 0.129123 0
M  V30 10919 H 1028.19 3.10754 2.84622 0
M  V30 10920 H 1026.87 1.93899 2.59201 0
M  V30 10921 H 1025.77 3.6089 0.985346 0
M  V30 10922 H 1027.11 4.74298 1.31539 0
M  V30 10923 N 1028.76 -0.17846 1.56586 0
M  V30 10924 C 1029.71 -1.22552 1.92263 0
M  V30 10925 C 1030.69 -1.40163 0.790131 0
M  V30 10926 O 1031.88 -1.42254 1.05322 0
M  V30 10927 C 1029.01 -2.5666 2.27993 0
M  V30 10928 C 1028.1 -2.42772 3.47739 0
M  V30 10929 N 1028.49 -1.98588 4.65185 0
M  V30 10930 C 1026.79 -2.73619 3.52205 0
M  V30 10931 C 1027.49 -1.96991 5.47329 0
M  V30 10932 N 1026.46 -2.39126 4.8818 0
M  V30 10933 H 1030.27 -0.875493 2.80557 0
M  V30 10934 H 1027.78 -0.386785 1.57727 0
M  V30 10935 H 1029.78 -3.32312 2.51743 0
M  V30 10936 H 1028.44 -2.92472 1.41034 0
M  V30 10937 H 1029.45 -1.69036 4.89538 0
M  V30 10938 H 1026.13 -3.13516 2.75706 0
M  V30 10939 H 1027.52 -1.64589 6.51429 0
M  V30 10940 N 1030.24 -1.51135 -0.446768 0
M  V30 10941 C 1031.19 -1.68152 -1.53977 0
M  V30 10942 C 1032.17 -0.53563 -1.51723 0
M  V30 10943 O 1033.36 -0.791134 -1.58335 0
M  V30 10944 C 1030.49 -1.80133 -2.92245 0
M  V30 10945 C 1029.58 -3.00476 -2.99291 0
M  V30 10946 N 1029.97 -4.23796 -2.76099 0
M  V30 10947 C 1028.27 -2.99536 -3.30445 0
M  V30 10948 C 1028.97 -5.04977 -2.88744 0
M  V30 10949 N 1027.94 -4.39428 -3.20006 0
M  V30 10950 H 1031.74 -2.61172 -1.34784 0
M  V30 10951 H 1029.26 -1.48653 -0.653923 0
M  V30 10952 H 1031.26 -1.90432 -3.70866 0
M  V30 10953 H 1029.92 -0.882879 -3.12467 0
M  V30 10954 H 1030.93 -4.52896 -2.51209 0
M  V30 10955 H 1027.6 -2.17286 -3.56501 0
M  V30 10956 H 1028.99 -6.13114 -2.74847 0
M  V30 10957 N 1031.71 0.701592 -1.41122 0
M  V30 10958 C 1032.94 1.49553 -1.43696 0
M  V30 10959 C 1033.36 1.88053 -0.0421865 0
M  V30 10960 O 1032.72 1.54223 0.953144 0
M  V30 10961 C 1032.77 2.73834 -2.34622 0
M  V30 10962 O 1031.87 3.71088 -1.7991 0
M  V30 10963 H 1031.21 0.450352 -0.487933 0
M  V30 10964 H 1033.74 0.862886 -1.85514 0
M  V30 10965 H 1033.75 3.22209 -2.5029 0
M  V30 10966 H 1032.43 2.45149 -3.35969 0
M  V30 10967 H 1031.01 3.29994 -1.73661 0
M  V30 10968 N 1033.19 1.2685 0.935242 0
M  V30 10969 C 1034.12 1.1143 2.05196 0
M  V30 10970 C 1035.1 0.0178362 1.70091 0
M  V30 10971 O 1036.29 0.190951 1.93259 0
M  V30 10972 C 1033.42 0.752779 3.39044 0
M  V30 10973 C 1032.37 1.80164 3.88233 0
M  V30 10974 C 1031.7 1.29428 5.18799 0
M  V30 10975 C 1033 3.20431 4.12457 0
M  V30 10976 H 1034.69 2.04845 2.18355 0
M  V30 10977 H 1032.24 0.986276 1.04922 0
M  V30 10978 H 1034.19 0.631757 4.16637 0
M  V30 10979 H 1032.91 -0.217075 3.25878 0
M  V30 10980 H 1031.57 1.91144 3.12825 0
M  V30 10981 H 1031.22 0.3141 5.02018 0
M  V30 10982 H 1030.92 1.99546 5.5268 0
M  V30 10983 H 1032.45 1.18605 5.9897 0
M  V30 10984 H 1033.86 3.12495 4.80645 0
M  V30 10985 H 1032.26 3.88193 4.57631 0
M  V30 10986 H 1033.33 3.66046 3.18023 0
M  V30 10987 N 1034.67 -1.14067 1.0875 0
M  V30 10988 C 1035.6 -2.21385 0.74236 0
M  V30 10989 C 1036.58 -1.67833 -0.276805 0
M  V30 10990 O 1037.77 -1.93647 -0.1464 0
M  V30 10991 C 1034.9 -3.46956 0.154644 0
M  V30 10992 C 1033.85 -4.13555 1.10255 0
M  V30 10993 C 1033.18 -5.3337 0.376877 0
M  V30 10994 C 1034.48 -4.6169 2.44213 0
M  V30 10995 H 1036.17 -2.50512 1.63964 0
M  V30 10996 H 1033.72 -1.20408 0.789807 0
M  V30 10997 H 1035.67 -4.21284 -0.0988419 0
M  V30 10998 H 1034.39 -3.17203 -0.777789 0
M  V30 10999 H 1033.05 -3.41186 1.34119 0
M  V30 11000 H 1032.7 -4.99879 -0.559472 0
M  V30 11001 H 1032.4 -5.78875 1.00884 0
M  V30 11002 H 1033.92 -6.10458 0.131527 0
M  V30 11003 H 1035.34 -5.27475 2.24595 0
M  V30 11004 H 1033.74 -5.17909 3.03134 0
M  V30 11005 H 1034.81 -3.76574 3.05483 0
M  V30 11006 N 1036.15 -0.873678 -1.31166 0
M  V30 11007 C 1037.38 -0.500317 -2.0045 0
M  V30 11008 C 1037.79 0.912716 -1.65729 0
M  V30 11009 O 1037.13 1.61001 -0.884563 0
M  V30 11010 C 1037.19 -0.58197 -3.54758 0
M  V30 11011 C 1036.86 -1.95728 -4.12964 0
M  V30 11012 C 1037.85 -2.92526 -4.29796 0
M  V30 11013 C 1035.54 -2.2596 -4.48606 0
M  V30 11014 C 1037.53 -4.17697 -4.81464 0
M  V30 11015 C 1035.22 -3.5138 -4.99976 0
M  V30 11016 C 1036.22 -4.47064 -5.16356 0
M  V30 11017 O 1035.9 -5.70259 -5.66621 0
M  V30 11018 H 1035.64 -0.193044 -0.64785 0
M  V30 11019 H 1038.19 -1.17768 -1.68285 0
M  V30 11020 H 1036.42 0.152326 -3.864 0
M  V30 11021 H 1038.11 -0.221506 -4.05295 0
M  V30 11022 H 1038.88 -2.70479 -4.02574 0
M  V30 11023 H 1034.75 -1.52258 -4.3513 0
M  V30 11024 H 1038.3 -4.92389 -4.94165 0
M  V30 11025 H 1034.2 -3.73269 -5.26631 0
M  V30 11026 H 1034.96 -5.72483 -5.84983 0
M  V30 11027 N 1037.63 1.44308 -0.633487 0
M  V30 11028 C 1038.87 2.01624 -0.138643 0
M  V30 11029 C 1039.2 1.50101 1.24477 0
M  V30 11030 O 1038.47 0.705575 1.82752 0
M  V30 11031 H 1037.05 0.745439 -0.0482636 0
M  V30 11032 H 1039.71 1.76777 -0.820719 0
M  V30 11033 H 1038.8 3.11913 -0.108136 0
M  V30 11034 N 1039.1 0.374177 1.53094 0
M  V30 11035 C 1040.33 -0.213325 2.05797 0
M  V30 11036 C 1040.75 -1.41753 1.24706 0
M  V30 11037 O 1040.1 -1.80183 0.289868 0
M  V30 11038 C 1040.16 -0.598367 3.56513 0
M  V30 11039 O 1039.88 0.557983 4.34532 0
M  V30 11040 C 1041.38 -1.24334 4.25507 0
M  V30 11041 H 1038.6 -0.0357398 0.670048 0
M  V30 11042 H 1041.14 0.535035 1.97377 0
M  V30 11043 H 1039.3 -1.29663 3.65056 0
M  V30 11044 H 1039.71 0.244911 5.23928 0
M  V30 11045 H 1041.18 -1.46325 5.32253 0
M  V30 11046 H 1041.66 -2.20622 3.79766 0
M  V30 11047 H 1042.27 -0.586269 4.2124 0
M  V30 11048 N 1040.58 -1.57259 0.103575 0
M  V30 11049 C 1041.53 -2.15727 -0.869739 0
M  V30 11050 C 1042.52 -1.10236 -1.28625 0
M  V30 11051 O 1043.73 -1.28567 -1.25979 0
M  V30 11052 H 1040.11 -0.690204 -0.298535 0
M  V30 11053 H 1042.08 -2.96317 -0.351984 0
M  V30 11054 C 1040.83 -2.75905 -2.11593 0
M  V30 11055 H 1040.15 -3.56768 -1.80434 0
M  V30 11056 H 1041.59 -3.20373 -2.77736 0
M  V30 11057 C 1040.05 -1.72218 -2.89556 0
M  V30 11058 O 1040.58 -1.16623 -3.84398 0
M  V30 11059 N 1038.78 -1.42514 -2.53255 0
M  V30 11060 H 1038.33 -1.87914 -1.76198 0
M  V30 11061 H 1038.29 -0.733782 -3.05717 0
M  V30 11062 N 1042.06 0.170153 -1.56679 0
M  V30 11063 C 1043.47 0.732502 -1.7173 0
M  V30 11064 C 1043.82 1.82736 -0.71428 0
M  V30 11065 O 1042.95 2.16044 0.124102 0
M  V30 11066 C 1043.54 1.33548 -3.11368 0
M  V30 11067 C 1042.1 1.84464 -3.281 0
M  V30 11068 C 1041.25 0.724069 -2.6768 0
M  V30 11069 H 1044.2 -0.0552543 -1.58604 0
M  V30 11070 H 1044.22 2.20519 -3.10083 0
M  V30 11071 H 1043.73 0.5384 -3.84347 0
M  V30 11072 H 1041.83 2.66813 -2.6008 0
M  V30 11073 H 1041.95 1.98928 -4.35849 0
M  V30 11074 H 1040.31 1.14481 -2.27522 0
M  V30 11075 H 1041.09 -0.0611861 -3.43245 0
M  V30 11076 N 1043.54 1.5137 0.438746 0
M  V30 11077 C 1044.47 1.75528 1.53987 0
M  V30 11078 C 1045.45 0.605067 1.58975 0
M  V30 11079 O 1046.63 0.847634 1.74725 0
M  V30 11080 C 1043.76 1.87904 2.92078 0
M  V30 11081 C 1042.72 3.0333 3.01951 0
M  V30 11082 C 1042.04 3.00888 4.42007 0
M  V30 11083 C 1043.34 4.43319 2.76163 0
M  V30 11084 H 1045.04 2.67728 1.34022 0
M  V30 11085 H 1042.58 1.28831 0.643308 0
M  V30 11086 H 1044.54 2.03388 3.69068 0
M  V30 11087 H 1043.26 0.923514 3.13271 0
M  V30 11088 H 1041.92 2.87549 2.274 0
M  V30 11089 H 1041.57 2.03116 4.60166 0
M  V30 11090 H 1041.27 3.78397 4.49544 0
M  V30 11091 H 1042.79 3.18464 5.20973 0
M  V30 11092 H 1044.21 4.59458 3.42887 0
M  V30 11093 H 1042.6 5.22523 2.9511 0
M  V30 11094 H 1043.67 4.53453 1.71779 0
M  V30 11095 N 1045.02 -0.694098 1.41492 0
M  V30 11096 C 1046.29 -1.44875 1.31418 0
M  V30 11097 C 1046.67 -2.11022 -0.0575538 0
M  V30 11098 O 1046.02 -2.01799 -1.07188 0
M  V30 11099 C 1046.23 -2.46698 2.46863 0
M  V30 11100 C 1047.58 -3.11907 2.88095 0
M  V30 11101 O 1048.6 -2.57022 2.46613 0
M  V30 11102 O 1047.46 -4.11318 3.59833 0
M  V30 11103 H 1044.56 -0.645266 0.517263 0
M  V30 11104 H 1047.1 -0.724452 1.53459 0
M  V30 11105 H 1045.87 -1.96485 3.38392 0
M  V30 11106 H 1045.5 -3.26634 2.26706 0
M  V30 11107 N 1046.49 -1.27344 -0.928501 0
M  V30 11108 C 1047.74 -1.13411 -1.67279 0
M  V30 11109 C 1048.06 0.320698 -1.92345 0
M  V30 11110 O 1047.33 1.2245 -1.52915 0
M  V30 11111 H 1045.91 -0.416712 -0.619968 0
M  V30 11112 H 1048.58 -1.5986 -1.11493 0
M  V30 11113 H 1047.67 -1.66256 -2.64131 0
M  V30 11114 N 1047.97 1.13488 -1.09353 0
M  V30 11115 C 1048.9 2.18563 -0.69012 0
M  V30 11116 C 1049.92 1.60585 0.267651 0
M  V30 11117 O 1051.11 1.78419 0.0538176 0
M  V30 11118 C 1048.21 3.389 0.00391255 0
M  V30 11119 C 1047.38 4.2639 -0.975209 0
M  V30 11120 C 1046.44 5.25258 -0.314719 0
M  V30 11121 O 1045.46 5.6101 -0.962119 0
M  V30 11122 N 1046.67 5.72978 0.931458 0
M  V30 11123 H 1049.43 2.53788 -1.59411 0
M  V30 11124 H 1046.99 1.28803 -0.980886 0
M  V30 11125 H 1048.98 4.02112 0.45696 0
M  V30 11126 H 1047.55 3.0192 0.81014 0
M  V30 11127 H 1046.77 3.59964 -1.60684 0
M  V30 11128 H 1048.06 4.817 -1.63836 0
M  V30 11129 H 1047.46 5.46078 1.477 0
M  V30 11130 H 1046.02 6.38131 1.32784 0
M  V30 11131 N 1049.45 0.880621 1.30701 0
M  V30 11132 C 1050.4 0.342397 2.28246 0
M  V30 11133 C 1051.37 -0.565023 1.56194 0
M  V30 11134 O 1052.55 -0.494377 1.84284 0
M  V30 11135 C 1049.69 -0.440859 3.42272 0
M  V30 11136 C 1048.81 0.495284 4.29151 0
M  V30 11137 C 1047.94 -0.303141 5.30334 0
M  V30 11138 C 1046.98 0.628751 6.08862 0
M  V30 11139 N 1046.12 -0.13408 7.01972 0
M  V30 11140 H 1050.96 1.17938 2.73669 0
M  V30 11141 H 1048.49 0.59296 1.34619 0
M  V30 11142 H 1050.45 -0.910854 4.07135 0
M  V30 11143 H 1049.08 -1.24245 2.97931 0
M  V30 11144 H 1048.13 1.08376 3.64635 0
M  V30 11145 H 1049.45 1.2094 4.83916 0
M  V30 11146 H 1048.6 -0.835181 6.00924 0
M  V30 11147 H 1047.34 -1.05049 4.76252 0
M  V30 11148 H 1046.34 1.17246 5.37153 0
M  V30 11149 H 1047.57 1.37512 6.65032 0
M  V30 11150 H 1045.52 -0.864046 6.50285 0
M  V30 11151 H 1045.43 0.520486 7.54206 0
M  V30 11152 H 1046.7 -0.647005 7.7681 0
M  V30 11153 N 1050.93 -1.4397 0.641131 0
M  V30 11154 C 1051.86 -2.33458 -0.04446 0
M  V30 11155 C 1052.84 -1.48781 -0.824507 0
M  V30 11156 O 1054.03 -1.77477 -0.788397 0
M  V30 11157 C 1051.16 -3.31989 -1.01984 0
M  V30 11158 C 1050.11 -4.2656 -0.350745 0
M  V30 11159 C 1049.44 -5.15036 -1.43673 0
M  V30 11160 C 1050.74 -5.16897 0.749299 0
M  V30 11161 H 1052.43 -2.91034 0.702832 0
M  V30 11162 H 1049.98 -1.39942 0.339435 0
M  V30 11163 H 1051.93 -3.93483 -1.50828 0
M  V30 11164 H 1050.65 -2.72643 -1.79815 0
M  V30 11165 H 1049.31 -3.66413 0.117139 0
M  V30 11166 H 1048.96 -4.52037 -2.20617 0
M  V30 11167 H 1048.66 -5.79125 -0.994358 0
M  V30 11168 H 1050.18 -5.79403 -1.92678 0
M  V30 11169 H 1051.6 -5.7227 0.343534 0
M  V30 11170 H 1049.99 -5.89643 1.11541 0
M  V30 11171 H 1051.06 -4.5731 1.61232 0
M  V30 11172 N 1052.41 -0.382291 -1.52893 0
M  V30 11173 C 1053.68 0.259354 -1.93873 0
M  V30 11174 C 1054.06 1.64964 -1.3172 0
M  V30 11175 O 1053.41 2.23345 -0.482611 0
M  V30 11176 C 1053.62 0.292765 -3.4777 0
M  V30 11177 C 1054.97 0.525095 -4.21341 0
M  V30 11178 O 1055.99 0.373272 -3.54239 0
M  V30 11179 O 1054.85 0.822004 -5.40283 0
M  V30 11180 H 1051.95 0.159422 -0.811489 0
M  V30 11181 H 1054.49 -0.436289 -1.63996 0
M  V30 11182 H 1053.27 -0.681341 -3.85323 0
M  V30 11183 H 1052.89 1.03362 -3.8393 0
M  V30 11184 N 1053.89 1.57202 -0.111913 0
M  V30 11185 C 1055.3 1.82039 0.414591 0
M  V30 11186 C 1055.65 1.02863 1.67074 0
M  V30 11187 O 1054.77 0.263068 2.14795 0
M  V30 11188 C 1055.37 3.3019 0.758953 0
M  V30 11189 C 1053.93 3.55732 1.23012 0
M  V30 11190 C 1053.07 2.76301 0.235226 0
M  V30 11191 H 1056.02 1.55078 -0.337142 0
M  V30 11192 H 1056.05 3.44431 1.61701 0
M  V30 11193 H 1055.56 3.87788 -0.155473 0
M  V30 11194 H 1053.66 3.03483 2.16169 0
M  V30 11195 H 1053.77 4.64333 1.18034 0
M  V30 11196 H 1052.14 2.44287 0.720822 0
M  V30 11197 H 1052.92 3.36655 -0.672173 0
M  V30 11198 N 1055.36 -0.161842 1.56767 0
M  V30 11199 C 1056.78 -0.51396 1.51098 0
M  V30 11200 C 1056.98 -1.84158 0.817815 0
M  V30 11201 O 1056.04 -2.49592 0.382133 0
M  V30 11202 C 1057.35 -0.537966 2.95849 0
M  V30 11203 C 1058.9 -0.624512 3.06706 0
M  V30 11204 C 1059.37 -0.679322 4.52934 0
M  V30 11205 N 1060.86 -0.741953 4.57219 0
M  V30 11206 C 1061.6 -0.805096 5.6772 0
M  V30 11207 N 1061.09 -0.828492 6.87828 0
M  V30 11208 N 1062.89 -0.844843 5.55715 0
M  V30 11209 H 1055.04 0.708581 2.00232 0
M  V30 11210 H 1057.3 0.25663 0.912603 0
M  V30 11211 H 1057.01 0.369052 3.49758 0
M  V30 11212 H 1056.88 -1.38113 3.51005 0
M  V30 11213 H 1059.27 -1.52195 2.52825 0
M  V30 11214 H 1059.35 0.245515 2.54619 0
M  V30 11215 H 1058.99 0.213901 5.07449 0
M  V30 11216 H 1058.92 -1.56563 5.02788 0
M  V30 11217 H 1061.41 -0.731772 3.70747 0
M  V30 11218 H 1061.73 -0.878109 7.67795 0
M  V30 11219 H 1060.07 -0.796612 6.9042 0
M  V30 11220 H 1063.26 -0.823632 4.60797 0
M  V30 11221 H 1063.44 -0.890588 6.41851 0
M  V30 11222 N 1056.84 -1.516 -0.430713 0
M  V30 11223 C 1058.09 -1.63829 -1.17657 0
M  V30 11224 C 1058.4 -0.363605 -1.92191 0
M  V30 11225 O 1059.61 -0.365358 -2.6903 0
M  V30 11226 C 1058.07 -2.89357 -2.14011 0
M  V30 11227 C 1057.67 -4.23854 -1.45094 0
M  V30 11228 C 1059.42 -3.10944 -2.88988 0
M  V30 11229 C 1057.32 -5.40526 -2.3997 0
M  V30 11230 H 1056.25 -0.610221 -0.442884 0
M  V30 11231 H 1058.91 -1.78073 -0.442984 0
M  V30 11232 H 1057.29 -2.68762 -2.90832 0
M  V30 11233 H 1058.46 -4.54854 -0.737853 0
M  V30 11234 H 1056.78 -4.08197 -0.822429 0
M  V30 11235 H 1059.37 -3.95286 -3.60074 0
M  V30 11236 H 1059.72 -2.24291 -3.50712 0
M  V30 11237 H 1060.25 -3.3191 -2.19272 0
M  V30 11238 H 1056.99 -6.29459 -1.82925 0
M  V30 11239 H 1056.51 -5.13893 -3.09313 0
M  V30 11240 H 1058.19 -5.72741 -3.00959 0
M  V30 11241 N 1058.32 0.686584 -1.41858 0
M  V30 11242 C 1059.25 1.81264 -1.47193 0
M  V30 11243 C 1060.23 1.66875 -0.329657 0
M  V30 11244 O 1061.42 1.86473 -0.542347 0
M  V30 11245 C 1058.55 3.19472 -1.36216 0
M  V30 11246 C 1057.5 3.4858 -2.48347 0
M  V30 11247 C 1056.83 4.86239 -2.22432 0
M  V30 11248 C 1058.13 3.46653 -3.90678 0
M  V30 11249 H 1059.82 1.77057 -2.41436 0
M  V30 11250 H 1057.37 0.850415 -1.16206 0
M  V30 11251 H 1059.32 3.97969 -1.38558 0
M  V30 11252 H 1058.04 3.24327 -0.384611 0
M  V30 11253 H 1056.7 2.72437 -2.45303 0
M  V30 11254 H 1056.35 4.8773 -1.22999 0
M  V30 11255 H 1056.05 5.06677 -2.97577 0
M  V30 11256 H 1057.57 5.67034 -2.26505 0
M  V30 11257 H 1058.99 4.15139 -3.95389 0
M  V30 11258 H 1057.38 3.78625 -4.65578 0
M  V30 11259 H 1058.45 2.45451 -4.18189 0
M  V30 11260 N 1059.8 1.27835 0.921735 0
M  V30 11261 C 1060.73 1.136 2.04003 0
M  V30 11262 C 1061.71 0.0358756 1.70062 0
M  V30 11263 O 1062.89 0.211438 1.93046 0
M  V30 11264 C 1060.02 0.788697 3.38226 0
M  V30 11265 C 1058.98 1.84272 3.863 0
M  V30 11266 C 1058.3 1.34923 5.17397 0
M  V30 11267 C 1059.6 3.24788 4.09035 0
M  V30 11268 H 1061.3 2.07149 2.1617 0
M  V30 11269 H 1058.84 0.997349 1.0387 0
M  V30 11270 H 1060.8 0.675911 4.15944 0
M  V30 11271 H 1059.52 -0.182499 3.2609 0
M  V30 11272 H 1058.18 1.94451 3.1078 0
M  V30 11273 H 1057.83 0.367328 5.01657 0
M  V30 11274 H 1057.53 2.05397 5.50532 0
M  V30 11275 H 1059.05 1.24951 5.97678 0
M  V30 11276 H 1060.47 3.17575 4.77304 0
M  V30 11277 H 1058.86 3.93025 4.53488 0
M  V30 11278 H 1059.93 3.69398 3.14122 0
M  V30 11279 N 1061.28 -1.12907 1.09954 0
M  V30 11280 C 1062.52 -1.83941 0.837255 0
M  V30 11281 C 1062.84 -1.84234 -0.638984 0
M  V30 11282 O 1062.11 -1.30193 -1.46378 0
M  V30 11283 H 1060.69 -0.681115 0.306743 0
M  V30 11284 H 1063.36 -1.36743 1.38879 0
M  V30 11285 H 1062.45 -2.88289 1.19565 0
M  V30 11286 N 1062.75 -0.88754 -1.30232 0
M  V30 11287 C 1064.03 -0.427249 -1.90877 0
M  V30 11288 C 1064.41 1.0922 -1.80649 0
M  V30 11289 O 1063.76 1.92866 -1.22536 0
M  V30 11290 C 1063.97 -0.928219 -3.3643 0
M  V30 11291 C 1065.32 -0.964706 -4.13496 0
M  V30 11292 O 1066.34 -0.875057 -3.45284 0
M  V30 11293 O 1065.2 -1.09754 -5.35366 0
M  V30 11294 H 1062.29 -0.131107 -0.816541 0
M  V30 11295 H 1064.84 -0.976609 -1.38782 0
M  V30 11296 H 1063.61 -1.97209 -3.37971 0
M  V30 11297 H 1063.23 -0.358169 -3.95983 0
M  V30 11298 N 1064.23 1.43628 -0.648757 0
M  V30 11299 C 1065.51 1.95391 -0.0904551 0
M  V30 11300 C 1065.89 1.59021 1.38837 0
M  V30 11301 O 1065.24 0.873078 2.11163 0
M  V30 11302 C 1065.45 3.47418 -0.33196 0
M  V30 11303 C 1066.8 4.23952 -0.234521 0
M  V30 11304 O 1067.82 3.55218 -0.264276 0
M  V30 11305 O 1066.68 5.46282 -0.154428 0
M  V30 11306 H 1063.77 0.82691 0.0121884 0
M  V30 11307 H 1066.32 1.5359 -0.721685 0
M  V30 11308 H 1065.09 3.67001 -1.35741 0
M  V30 11309 H 1064.71 3.96207 0.332556 0
M  V30 11310 N 1065.71 0.390394 1.52688 0
M  V30 11311 C 1066.94 -0.194013 2.06491 0
M  V30 11312 C 1067.36 -1.3965 1.26014 0
M  V30 11313 O 1066.72 -1.79038 0.285468 0
M  V30 11314 C 1066.77 -0.541306 3.56514 0
M  V30 11315 O 1065.87 -1.63509 3.78601 0
M  V30 11316 H 1065.21 -0.0223608 0.663623 0
M  V30 11317 H 1067.74 0.558179 1.96839 0
M  V30 11318 H 1067.75 -0.805301 3.99974 0
M  V30 11319 H 1066.43 0.337828 4.14526 0
M  V30 11320 H 1065 -1.36473 3.4703 0
M  V30 11321 N 1067.19 -1.57141 0.120249 0
M  V30 11322 C 1068.12 -2.12454 -0.859987 0
M  V30 11323 C 1069.13 -1.06755 -1.22911 0
M  V30 11324 O 1070.32 -1.34124 -1.17784 0
M  V30 11325 C 1067.42 -2.61024 -2.16147 0
M  V30 11326 C 1066.6 -3.90835 -1.96385 0
M  V30 11327 C 1065.65 -4.2499 -3.10274 0
M  V30 11328 O 1064.68 -4.93786 -2.83133 0
M  V30 11329 N 1065.88 -3.82411 -4.36741 0
M  V30 11330 H 1068.65 -2.97186 -0.387402 0
M  V30 11331 H 1066.21 -1.61773 -0.0641376 0
M  V30 11332 H 1068.2 -2.80903 -2.91334 0
M  V30 11333 H 1066.77 -1.81166 -2.5475 0
M  V30 11334 H 1065.99 -3.79853 -1.05383 0
M  V30 11335 H 1067.28 -4.75712 -1.80487 0
M  V30 11336 H 1066.68 -3.26926 -4.61666 0
M  V30 11337 H 1065.23 -4.07395 -5.08795 0
M  V30 11338 N 1068.67 0.153526 -1.5685 0
M  V30 11339 C 1069.61 1.18973 -1.97773 0
M  V30 11340 C 1070.58 1.43041 -0.844311 0
M  V30 11341 O 1071.77 1.55484 -1.10586 0
M  V30 11342 C 1068.91 2.51981 -2.35795 0
M  V30 11343 C 1068.02 2.35143 -3.62397 0
M  V30 11344 C 1067.16 3.61141 -3.89552 0
M  V30 11345 C 1066.2 3.39311 -5.09445 0
M  V30 11346 N 1065.33 4.57423 -5.32643 0
M  V30 11347 H 1070.17 0.833758 -2.86099 0
M  V30 11348 H 1067.71 0.400252 -1.4155 0
M  V30 11349 H 1069.67 3.29527 -2.55867 0
M  V30 11350 H 1068.3 2.85539 -1.50557 0
M  V30 11351 H 1067.35 1.48684 -3.50139 0
M  V30 11352 H 1068.66 2.14969 -4.501 0
M  V30 11353 H 1067.82 4.47117 -4.10087 0
M  V30 11354 H 1066.55 3.84312 -3.00259 0
M  V30 11355 H 1065.56 2.51723 -4.8879 0
M  V30 11356 H 1066.78 3.17545 -6.00285 0
M  V30 11357 H 1064.73 4.8078 -4.46303 0
M  V30 11358 H 1064.65 4.40228 -6.14602 0
M  V30 11359 H 1065.92 5.44632 -5.57671 0
M  V30 11360 N 1070.14 1.51827 0.422667 0
M  V30 11361 C 1071.39 1.6522 1.17084 0
M  V30 11362 C 1071.72 0.375508 1.90841 0
M  V30 11363 O 1070.97 -0.641029 1.84903 0
M  V30 11364 C 1071.27 2.81572 2.20119 0
M  V30 11365 C 1070.94 4.20303 1.63268 0
M  V30 11366 C 1069.6 4.5804 1.47488 0
M  V30 11367 C 1071.95 5.06812 1.21618 0
M  V30 11368 C 1069.28 5.79979 0.885531 0
M  V30 11369 C 1071.63 6.29343 0.641071 0
M  V30 11370 C 1070.3 6.65841 0.470286 0
M  V30 11371 H 1069.57 0.604581 0.428442 0
M  V30 11372 H 1072.21 1.85896 0.459874 0
M  V30 11373 H 1070.52 2.55175 2.97309 0
M  V30 11374 H 1072.22 2.89132 2.77856 0
M  V30 11375 H 1068.81 3.90557 1.76531 0
M  V30 11376 H 1072.99 4.78251 1.32624 0
M  V30 11377 H 1068.25 6.06892 0.741105 0
M  V30 11378 H 1072.42 6.9571 0.309888 0
M  V30 11379 H 1070.05 7.60199 0.0115038 0
M  V30 11380 N 1071.62 -0.679052 1.4222 0
M  V30 11381 C 1072.87 -1.43912 1.42463 0
M  V30 11382 C 1073.2 -1.9446 0.0395574 0
M  V30 11383 O 1072.45 -1.71019 -0.951365 0
M  V30 11384 C 1072.75 -2.65528 2.39227 0
M  V30 11385 C 1072.42 -2.33545 3.85704 0
M  V30 11386 C 1071.08 -2.24534 4.25603 0
M  V30 11387 C 1073.43 -2.07496 4.78116 0
M  V30 11388 C 1070.76 -1.87592 5.55901 0
M  V30 11389 C 1073.11 -1.72059 6.08752 0
M  V30 11390 C 1071.78 -1.61555 6.47654 0
M  V30 11391 H 1071.05 -0.52661 0.521309 0
M  V30 11392 H 1073.69 -0.774661 1.75132 0
M  V30 11393 H 1072 -3.36985 1.9987 0
M  V30 11394 H 1073.69 -3.23702 2.36681 0
M  V30 11395 H 1070.28 -2.4146 3.54112 0
M  V30 11396 H 1074.47 -2.13393 4.48082 0
M  V30 11397 H 1069.72 -1.78026 5.84908 0
M  V30 11398 H 1073.9 -1.50926 6.79849 0
M  V30 11399 H 1071.53 -1.32699 7.48529 0
M  V30 11400 N 1073.1 -1.28322 -0.914942 0
M  V30 11401 C 1074.33 -1.1837 -1.70304 0
M  V30 11402 C 1074.75 0.254291 -1.86373 0
M  V30 11403 O 1074.11 1.18398 -1.37301 0
M  V30 11404 C 1074.16 -1.88603 -3.07346 0
M  V30 11405 O 1073.26 -1.19268 -3.94777 0
M  V30 11406 H 1072.6 -0.410978 -0.52153 0
M  V30 11407 H 1075.13 -1.69622 -1.14409 0
M  V30 11408 H 1075.14 -1.96463 -3.57584 0
M  V30 11409 H 1073.82 -2.93201 -2.94967 0
M  V30 11410 H 1072.39 -1.19563 -3.53212 0
M  V30 11411 N 1074.58 1.12322 -1.10551 0
M  V30 11412 C 1075.8 1.8822 -0.871093 0
M  V30 11413 C 1076.23 1.7916 0.573005 0
M  V30 11414 O 1075.59 1.14738 1.40374 0
M  V30 11415 C 1075.63 3.35349 -1.32565 0
M  V30 11416 O 1074.74 4.09461 -0.49145 0
M  V30 11417 H 1074.08 0.584787 -0.314516 0
M  V30 11418 H 1076.61 1.42039 -1.47262 0
M  V30 11419 H 1076.62 3.86189 -1.31612 0
M  V30 11420 H 1075.29 3.4126 -2.37728 0
M  V30 11421 H 1073.87 3.68575 -0.566294 0
M  V30 11422 N 1076.06 0.894434 1.2976 0
M  V30 11423 C 1076.99 0.3847 2.30309 0
M  V30 11424 C 1077.97 -0.537486 1.61385 0
M  V30 11425 O 1079.15 -0.449332 1.8893 0
M  V30 11426 C 1076.28 -0.393311 3.45066 0
M  V30 11427 C 1075.24 0.437968 4.25753 0
M  V30 11428 C 1074.56 -0.467221 5.32655 0
M  V30 11429 C 1075.86 1.6851 4.9437 0
M  V30 11430 H 1077.56 1.22496 2.73194 0
M  V30 11431 H 1075.1 0.590471 1.31337 0
M  V30 11432 H 1077.06 -0.760614 4.14479 0
M  V30 11433 H 1075.78 -1.2673 3.0101 0
M  V30 11434 H 1074.44 0.787533 3.58041 0
M  V30 11435 H 1074.09 -1.33919 4.84845 0
M  V30 11436 H 1073.79 0.0852482 5.87538 0
M  V30 11437 H 1075.31 -0.830833 6.04921 0
M  V30 11438 H 1076.72 1.38784 5.56248 0
M  V30 11439 H 1075.12 2.17849 5.59162 0
M  V30 11440 H 1076.19 2.42412 4.19958 0
M  V30 11441 N 1077.53 -1.43282 0.656365 0
M  V30 11442 C 1078.95 -1.85012 0.250475 0
M  V30 11443 C 1079.3 -1.54944 -1.20361 0
M  V30 11444 O 1078.42 -0.999983 -1.9191 0
M  V30 11445 C 1079.02 -3.35827 0.447815 0
M  V30 11446 C 1077.58 -3.76277 0.0962151 0
M  V30 11447 C 1076.72 -2.66988 0.749168 0
M  V30 11448 H 1079.67 -1.3339 0.85982 0
M  V30 11449 H 1079.69 -3.7927 -0.305726 0
M  V30 11450 H 1079.21 -3.5768 1.5062 0
M  V30 11451 H 1077.31 -3.60035 -0.959449 0
M  V30 11452 H 1077.42 -4.76227 0.523875 0
M  V30 11453 H 1075.78 -2.54048 0.18212 0
M  V30 11454 H 1076.57 -2.91669 1.81064 0
M  V30 11455 N 1079.01 -0.398486 -1.52479 0
M  V30 11456 C 1080.25 0.180412 -2.03602 0
M  V30 11457 C 1080.62 1.43276 -1.27812 0
M  V30 11458 O 1081.82 2.08941 -1.69107 0
M  V30 11459 C 1080.09 0.432744 -3.5477 0
M  V30 11460 S 1081.65 0.980612 -4.27703 0
M  V30 11461 H 1078.47 0.0499981 -0.70924 0
M  V30 11462 H 1081.07 -0.548952 -1.87635 0
M  V30 11463 H 1079.77 -0.48568 -4.07516 0
M  V30 11464 H 1079.3 1.19028 -3.74961 0
M  V30 11465 H 1081.32 2.26216 -4.41634 0
M  V30 11466 N 1080.49 1.57075 -0.12858 0
M  V30 11467 C 1081.74 1.95134 0.526046 0
M  V30 11468 C 1082.06 1.01337 1.66601 0
M  V30 11469 O 1081.33 0.0714361 1.9577 0
M  V30 11470 H 1079.91 0.720468 0.19732 0
M  V30 11471 H 1082.57 1.93874 -0.199767 0
M  V30 11472 H 1081.67 2.98406 0.914332 0
M  V30 11473 N 1081.97 -0.145205 1.5693 0
M  V30 11474 C 1083.22 -0.855822 1.83085 0
M  V30 11475 C 1083.54 -1.81625 0.709747 0
M  V30 11476 O 1082.81 -1.94052 -0.268456 0
M  V30 11477 H 1081.39 -0.319032 0.675446 0
M  V30 11478 H 1084.05 -0.138781 1.94405 0
M  V30 11479 H 1083.15 -1.41698 2.78079 0
M  V30 11480 N 1083.45 -1.52049 -0.414609 0
M  V30 11481 C 1084.38 -1.77956 -1.51175 0
M  V30 11482 C 1085.36 -0.630282 -1.57992 0
M  V30 11483 O 1086.54 -0.875324 -1.73354 0
M  V30 11484 C 1083.67 -1.92527 -2.89051 0
M  V30 11485 C 1082.63 -3.08096 -2.97087 0
M  V30 11486 C 1081.95 -3.07882 -4.37164 0
M  V30 11487 C 1083.25 -4.47656 -2.69075 0
M  V30 11488 H 1084.95 -2.69827 -1.29746 0
M  V30 11489 H 1082.49 -1.29839 -0.62273 0
M  V30 11490 H 1084.45 -2.09234 -3.65786 0
M  V30 11491 H 1083.17 -0.973235 -3.11762 0
M  V30 11492 H 1081.83 -2.91131 -2.22797 0
M  V30 11493 H 1081.48 -2.10411 -4.56877 0
M  V30 11494 H 1081.18 -3.85501 -4.43467 0
M  V30 11495 H 1082.7 -3.26712 -5.15841 0
M  V30 11496 H 1084.12 -4.64855 -3.35534 0
M  V30 11497 H 1082.51 -5.27151 -2.8676 0
M  V30 11498 H 1083.58 -4.56129 -1.64544 0
M  V30 11499 N 1084.93 0.6715 -1.42579 0
M  V30 11500 C 1086.17 1.42871 -1.42941 0
M  V30 11501 C 1086.49 1.94941 -0.0480483 0
M  V30 11502 O 1085.76 1.73275 0.913921 0
M  V30 11503 H 1084.34 0.530189 -0.526221 0
M  V30 11504 H 1087.01 0.793219 -1.78028 0
M  V30 11505 H 1086.1 2.2801 -2.13114 0
M  V30 11506 N 1086.4 1.28806 0.908124 0
M  V30 11507 C 1087.65 1.1646 1.66027 0
M  V30 11508 C 1087.98 -0.285025 1.92097 0
M  V30 11509 O 1087.26 -1.20675 1.52538 0
M  V30 11510 C 1087.54 1.96951 3.01467 0
M  V30 11511 C 1087.39 3.50007 2.82515 0
M  V30 11512 C 1088.71 1.78932 4.02084 0
M  V30 11513 H 1085.83 0.424435 0.602515 0
M  V30 11514 H 1088.47 1.58185 1.0525 0
M  V30 11515 H 1086.62 1.61495 3.53344 0
M  V30 11516 H 1088.3 3.95401 2.37605 0
M  V30 11517 H 1086.54 3.75356 2.17463 0
M  V30 11518 H 1087.21 4.01591 3.7872 0
M  V30 11519 H 1089.69 2.09885 3.59287 0
M  V30 11520 H 1088.56 2.37615 4.94803 0
M  V30 11521 H 1088.82 0.742286 4.35824 0
M  V30 11522 N 1087.88 -1.11734 1.11145 0
M  V30 11523 C 1089.16 -1.79795 0.770261 0
M  V30 11524 C 1089.54 -1.97624 -0.742158 0
M  V30 11525 O 1088.89 -1.55847 -1.67105 0
M  V30 11526 C 1089.1 -3.13684 1.52982 0
M  V30 11527 C 1090.44 -3.88771 1.70711 0
M  V30 11528 O 1091.47 -3.23363 1.49381 0
M  V30 11529 O 1090.33 -5.06134 2.06132 0
M  V30 11530 H 1087.42 -0.778617 0.27872 0
M  V30 11531 H 1089.97 -1.18504 1.2147 0
M  V30 11532 H 1088.74 -2.96043 2.55879 0
M  V30 11533 H 1088.36 -3.82687 1.07873 0
M  V30 11534 N 1089.36 -0.901303 -1.29284 0
M  V30 11535 C 1090.58 -0.542823 -2.0017 0
M  V30 11536 C 1091.01 0.865583 -1.67001 0
M  V30 11537 O 1090.37 1.5764 -0.895502 0
M  V30 11538 C 1090.42 -0.743987 -3.52842 0
M  V30 11539 O 1089.52 0.202771 -4.11901 0
M  V30 11540 H 1088.86 -0.211903 -0.62928 0
M  V30 11541 H 1091.39 -1.21333 -1.64741 0
M  V30 11542 H 1091.4 -0.64926 -4.02801 0
M  V30 11543 H 1090.08 -1.77077 -3.7632 0
M  V30 11544 H 1088.65 0.0603637 -3.72851 0
M  V30 11545 N 1090.84 1.42931 -0.663954 0
M  V30 11546 C 1092.11 1.95284 -0.111174 0
M  V30 11547 C 1092.49 1.60484 1.37142 0
M  V30 11548 O 1091.84 0.895425 2.10225 0
M  V30 11549 C 1092.05 3.47046 -0.368789 0
M  V30 11550 C 1093.4 4.23679 -0.279473 0
M  V30 11551 O 1094.42 3.54918 -0.301937 0
M  V30 11552 O 1093.28 5.46087 -0.21236 0
M  V30 11553 H 1090.38 0.826993 0.00341718 0
M  V30 11554 H 1092.92 1.52816 -0.737935 0
M  V30 11555 H 1091.7 3.65541 -1.39626 0
M  V30 11556 H 1091.32 3.96537 0.290514 0
M  V30 11557 N 1092.32 0.406567 1.52266 0
M  V30 11558 C 1093.54 -0.169624 2.06204 0
M  V30 11559 C 1093.96 -1.39076 1.27684 0
M  V30 11560 O 1093.32 -1.79528 0.328023 0
M  V30 11561 C 1093.37 -0.522611 3.57702 0
M  V30 11562 O 1093.09 0.650028 4.33251 0
M  V30 11563 C 1094.59 -1.15281 4.28048 0
M  V30 11564 H 1091.81 -0.0215191 0.670655 0
M  V30 11565 H 1094.35 0.576781 1.96198 0
M  V30 11566 H 1092.51 -1.21891 3.67725 0
M  V30 11567 H 1092.92 0.355989 5.23291 0
M  V30 11568 H 1094.4 -1.35002 5.35237 0
M  V30 11569 H 1094.87 -2.12517 3.84361 0
M  V30 11570 H 1095.48 -0.496786 4.22389 0
M  V30 11571 N 1093.79 -1.57004 0.136909 0
M  V30 11572 C 1095.04 -1.94972 -0.51662 0
M  V30 11573 C 1095.36 -1.02367 -1.66674 0
M  V30 11574 O 1096.56 -1.29873 -2.38423 0
M  V30 11575 C 1095.02 -3.4657 -0.970435 0
M  V30 11576 C 1094.63 -4.47741 0.152204 0
M  V30 11577 C 1096.37 -3.93423 -1.59432 0
M  V30 11578 C 1094.28 -5.90537 -0.319315 0
M  V30 11579 H 1093.21 -0.727873 -0.196766 0
M  V30 11580 H 1095.86 -1.82181 0.219637 0
M  V30 11581 H 1094.24 -3.54657 -1.76165 0
M  V30 11582 H 1095.41 -4.5134 0.928925 0
M  V30 11583 H 1093.73 -4.10746 0.683867 0
M  V30 11584 H 1096.33 -4.97539 -1.95856 0
M  V30 11585 H 1096.67 -3.34404 -2.47951 0
M  V30 11586 H 1097.2 -3.8821 -0.868193 0
M  V30 11587 H 1093.94 -6.53352 0.530248 0
M  V30 11588 H 1093.46 -5.90321 -1.06213 0
M  V30 11589 H 1095.14 -6.42346 -0.774662 0
M  V30 11590 N 1095.27 0.136881 -1.57004 0
M  V30 11591 C 1096.52 0.844147 -1.85056 0
M  V30 11592 C 1096.87 1.78328 -0.722278 0
M  V30 11593 O 1096.17 1.89557 0.279059 0
M  V30 11594 C 1096.36 1.64711 -3.17183 0
M  V30 11595 C 1096.19 0.787229 -4.42756 0
M  V30 11596 C 1094.96 0.448938 -5.03302 0
M  V30 11597 C 1097.16 0.112947 -5.14176 0
M  V30 11598 N 1095.14 -0.423481 -6.12438 0
M  V30 11599 C 1096.51 -0.619195 -6.169 0
M  V30 11600 C 1098.57 0.0346687 -4.97888 0
M  V30 11601 C 1097.27 -1.42224 -7.05099 0
M  V30 11602 C 1099.29 -0.755143 -5.86559 0
M  V30 11603 C 1098.66 -1.47553 -6.88772 0
M  V30 11604 H 1094.76 0.286398 -0.727668 0
M  V30 11605 H 1097.34 0.108903 -1.94395 0
M  V30 11606 H 1095.51 2.35352 -3.08972 0
M  V30 11607 H 1097.24 2.29833 -3.33105 0
M  V30 11608 H 1094 0.787068 -4.67014 0
M  V30 11609 H 1094.42 -0.851013 -6.7163 0
M  V30 11610 H 1099.06 0.577271 -4.18841 0
M  V30 11611 H 1096.78 -1.97606 -7.83567 0
M  V30 11612 H 1100.37 -0.817835 -5.76023 0
M  V30 11613 H 1099.25 -2.07687 -7.56198 0
M  V30 11614 N 1096.75 1.52266 0.40654 0
M  V30 11615 C 1097.7 1.76409 1.516 0
M  V30 11616 C 1098.69 0.631311 1.57197 0
M  V30 11617 O 1099.9 0.813413 1.60573 0
M  V30 11618 H 1096.27 0.557904 0.50423 0
M  V30 11619 H 1098.24 2.69351 1.28424 0
M  V30 11620 C 1096.99 1.93415 2.88939 0
M  V30 11621 H 1096.32 2.8 2.85377 0
M  V30 11622 H 1097.76 2.14306 3.65854 0
M  V30 11623 C 1096.22 0.701938 3.29506 0
M  V30 11624 O 1096.75 -0.128965 4.01493 0
M  V30 11625 N 1094.95 0.537089 2.85594 0
M  V30 11626 H 1094.5 1.21435 2.27181 0
M  V30 11627 H 1094.46 -0.286055 3.13096 0
M  V30 11628 N 1098.23 -0.663929 1.42933 0
M  V30 11629 C 1099.14 -1.80643 1.49683 0
M  V30 11630 C 1100.15 -1.69694 0.38472 0
M  V30 11631 O 1101.33 -1.91052 0.637256 0
M  V30 11632 C 1098.4 -3.16858 1.4072 0
M  V30 11633 C 1097.46 -3.39684 2.62514 0
M  V30 11634 C 1096.69 -4.69399 2.53969 0
M  V30 11635 O 1096.91 -5.48037 1.58152 0
M  V30 11636 O 1095.85 -4.93709 3.44289 0
M  V30 11637 H 1099.67 -1.77903 2.46138 0
M  V30 11638 H 1097.26 -0.821059 1.24816 0
M  V30 11639 H 1099.14 -3.9812 1.38124 0
M  V30 11640 H 1097.81 -3.20211 0.473954 0
M  V30 11641 H 1096.72 -2.58227 2.70684 0
M  V30 11642 H 1098.05 -3.41169 3.54774 0
M  V30 11643 N 1099.71 -1.29285 -0.901281 0
M  V30 11644 C 1100.64 -1.16832 -2.0217 0
M  V30 11645 C 1101.62 -0.0629265 -1.69984 0
M  V30 11646 O 1102.8 -0.242123 -1.92685 0
M  V30 11647 C 1099.93 -0.842406 -3.36929 0
M  V30 11648 C 1098.89 -1.90394 -3.8332 0
M  V30 11649 C 1098.21 -1.43138 -5.15185 0
M  V30 11650 C 1099.51 -3.31254 -4.03817 0
M  V30 11651 H 1101.21 -2.10562 -2.12847 0
M  V30 11652 H 1098.75 -1.01375 -1.0227 0
M  V30 11653 H 1100.71 -0.741999 -4.14816 0
M  V30 11654 H 1099.43 0.130598 -3.26339 0
M  V30 11655 H 1098.09 -1.99371 -3.07647 0
M  V30 11656 H 1097.74 -0.447091 -5.01009 0
M  V30 11657 H 1097.44 -2.14129 -5.47195 0
M  V30 11658 H 1098.96 -1.34444 -5.95615 0
M  V30 11659 H 1100.37 -3.25129 -4.72191 0
M  V30 11660 H 1098.77 -4.00189 -4.47178 0
M  V30 11661 H 1099.84 -3.74349 -3.08206 0
M  V30 11662 N 1101.18 1.11143 -1.11736 0
M  V30 11663 C 1102.13 2.15396 -0.747566 0
M  V30 11664 C 1103.12 1.58948 0.249894 0
M  V30 11665 O 1104.31 1.7691 0.0565267 0
M  V30 11666 C 1101.44 3.42741 -0.195776 0
M  V30 11667 C 1100.53 4.06141 -1.22109 0
M  V30 11668 N 1100.92 4.44351 -2.41631 0
M  V30 11669 C 1099.21 4.33104 -1.06474 0
M  V30 11670 C 1099.92 4.94062 -3.07046 0
M  V30 11671 N 1098.89 4.90411 -2.34516 0
M  V30 11672 H 1102.69 2.42722 -1.6572 0
M  V30 11673 H 1100.21 1.28189 -0.997059 0
M  V30 11674 H 1102.2 4.16809 0.0872984 0
M  V30 11675 H 1100.86 3.16878 0.708406 0
M  V30 11676 H 1101.88 4.36283 -2.79065 0
M  V30 11677 H 1098.55 4.16934 -0.217246 0
M  V30 11678 H 1099.94 5.33234 -4.08792 0
M  V30 11679 N 1102.66 0.908147 1.28804 0
M  V30 11680 C 1103.89 0.553431 1.9988 0
M  V30 11681 C 1104.31 -0.856714 1.67458 0
M  V30 11682 O 1103.67 -1.57163 0.903849 0
M  V30 11683 C 1103.72 0.762688 3.52442 0
M  V30 11684 O 1102.82 -0.180924 4.12003 0
M  V30 11685 H 1102.16 0.215237 0.628147 0
M  V30 11686 H 1104.69 1.22205 1.64095 0
M  V30 11687 H 1104.7 0.670612 4.02451 0
M  V30 11688 H 1103.38 1.79071 3.75375 0
M  V30 11689 H 1101.96 -0.0405897 3.72878 0
M  V30 11690 N 1104.14 -1.42577 0.671525 0
M  V30 11691 C 1105.37 -2.06442 0.199152 0
M  V30 11692 C 1105.79 -1.50104 -1.1336 0
M  V30 11693 O 1105.15 -0.618211 -1.70434 0
M  V30 11694 C 1105.2 -3.60323 0.141215 0
M  V30 11695 O 1104.3 -4.02655 -0.891238 0
M  V30 11696 H 1103.64 -0.655919 0.103277 0
M  V30 11697 H 1106.17 -1.82768 0.919614 0
M  V30 11698 H 1106.18 -4.07984 -0.0360209 0
M  V30 11699 H 1104.86 -4.00702 1.11403 0
M  V30 11700 H 1103.43 -3.66549 -0.685309 0
M  V30 11701 N 1105.62 -0.414636 -1.52048 0
M  V30 11702 C 1106.87 0.159034 -2.01473 0
M  V30 11703 C 1107.19 1.45176 -1.30188 0
M  V30 11704 O 1106.46 1.91134 -0.429469 0
M  V30 11705 H 1105.04 0.0617604 -0.744443 0
M  V30 11706 H 1107.7 -0.552141 -1.86916 0
M  V30 11707 H 1106.8 0.351217 -3.10118 0
M  V30 11708 N 1107.1 1.56929 -0.145233 0
M  V30 11709 C 1108.06 2.15483 0.781002 0
M  V30 11710 C 1109.06 1.09617 1.17647 0
M  V30 11711 O 1110.25 1.35265 1.09768 0
M  V30 11712 C 1107.38 2.7165 2.05959 0
M  V30 11713 H 1108.57 2.98667 0.271685 0
M  V30 11714 H 1106.13 1.55952 0.1042 0
M  V30 11715 H 1106.86 1.92127 2.61262 0
M  V30 11716 H 1106.65 3.491 1.78526 0
M  V30 11717 H 1108.14 3.16769 2.72116 0
M  V30 11718 N 1108.58 -0.128553 1.57075 0
M  V30 11719 C 1109.54 -1.14215 1.98715 0
M  V30 11720 C 1110.54 -1.34843 0.876019 0
M  V30 11721 O 1111.73 -1.31522 1.14227 0
M  V30 11722 C 1108.86 -2.49865 2.31905 0
M  V30 11723 H 1110.05 -0.784481 2.89458 0
M  V30 11724 H 1107.61 -0.372531 1.51796 0
M  V30 11725 H 1108.34 -2.9057 1.44012 0
M  V30 11726 H 1108.13 -2.3625 3.12935 0
M  V30 11727 H 1109.62 -3.22832 2.64895 0
M  V30 11728 N 1110.05 -1.5248 -0.398459 0
M  V30 11729 C 1111.47 -1.4152 -0.737854 0
M  V30 11730 C 1111.67 -0.528122 -1.94456 0
M  V30 11731 O 1110.73 0.00203799 -2.525 0
M  V30 11732 C 1112.04 -2.8422 -0.9818 0
M  V30 11733 C 1113.59 -2.93635 -1.08386 0
M  V30 11734 C 1114.06 -4.37327 -1.3605 0
M  V30 11735 N 1115.55 -4.40609 -1.42892 0
M  V30 11736 C 1116.29 -5.48863 -1.65944 0
M  V30 11737 N 1115.78 -6.67217 -1.86529 0
M  V30 11738 N 1117.58 -5.36393 -1.68046 0
M  V30 11739 H 1109.73 -2.08681 0.395705 0
M  V30 11740 H 1111.99 -0.941023 0.114801 0
M  V30 11741 H 1111.7 -3.51302 -0.167358 0
M  V30 11742 H 1111.57 -3.25907 -1.89907 0
M  V30 11743 H 1113.96 -2.26728 -1.88888 0
M  V30 11744 H 1114.04 -2.5539 -0.144714 0
M  V30 11745 H 1113.68 -5.04797 -0.56061 0
M  V30 11746 H 1113.61 -4.73116 -2.31233 0
M  V30 11747 H 1116.1 -3.55298 -1.2873 0
M  V30 11748 H 1116.42 -7.45498 -2.03599 0
M  V30 11749 H 1114.76 -6.70263 -1.83773 0
M  V30 11750 H 1117.95 -4.42903 -1.51509 0
M  V30 11751 H 1118.13 -6.2083 -1.85672 0
M  V30 11752 N 1111.53 0.65634 -1.43283 0
M  V30 11753 C 1112.46 1.78122 -1.42646 0
M  V30 11754 C 1113.44 1.60024 -0.288301 0
M  V30 11755 O 1114.63 1.82249 -0.481407 0
M  V30 11756 C 1111.75 3.1538 -1.23505 0
M  V30 11757 C 1110.8 3.52186 -2.40556 0
M  V30 11758 S 1111.63 3.52515 -4.03105 0
M  V30 11759 C 1112.79 4.92435 -3.8634 0
M  V30 11760 H 1113.02 1.78391 -2.37832 0
M  V30 11761 H 1110.55 0.828699 -1.30276 0
M  V30 11762 H 1112.51 3.94598 -1.13148 0
M  V30 11763 H 1111.17 3.12676 -0.298726 0
M  V30 11764 H 1110.37 4.52002 -2.22959 0
M  V30 11765 H 1109.97 2.80373 -2.47522 0
M  V30 11766 H 1112.26 5.81011 -3.48472 0
M  V30 11767 H 1113.2 5.15082 -4.85897 0
M  V30 11768 H 1113.61 4.65823 -3.18857 0
M  V30 11769 N 1113.01 1.29761 0.894412 0
M  V30 11770 C 1113.97 1.15335 1.98067 0
M  V30 11771 C 1114.97 0.0872804 1.60563 0
M  V30 11772 O 1116.16 0.334645 1.70955 0
M  V30 11773 C 1113.29 0.764907 3.32208 0
M  V30 11774 H 1114.49 2.11829 2.12293 0
M  V30 11775 H 1112.04 1.13023 1.0796 0
M  V30 11776 H 1112.78 -0.199948 3.23683 0
M  V30 11777 H 1112.56 1.53523 3.60795 0
M  V30 11778 H 1114.05 0.687176 4.11907 0
M  V30 11779 N 1114.49 -1.10549 1.12324 0
M  V30 11780 C 1115.73 -1.82755 0.879117 0
M  V30 11781 C 1116.07 -1.84905 -0.593604 0
M  V30 11782 O 1115.34 -1.30884 -1.43873 0
M  V30 11783 C 1115.62 -3.29481 1.45308 0
M  V30 11784 C 1115.48 -3.3567 2.99408 0
M  V30 11785 C 1116.8 -4.25828 1.11167 0
M  V30 11786 H 1113.92 -0.663513 0.32081 0
M  V30 11787 H 1116.56 -1.29572 1.38965 0
M  V30 11788 H 1114.71 -3.74902 1.01887 0
M  V30 11789 H 1116.38 -2.98739 3.515 0
M  V30 11790 H 1114.62 -2.75606 3.34998 0
M  V30 11791 H 1115.29 -4.38983 3.34661 0
M  V30 11792 H 1117.77 -3.88635 1.48667 0
M  V30 11793 H 1116.65 -5.26857 1.53991 0
M  V30 11794 H 1116.91 -4.42094 0.0237046 0
M  V30 11795 N 1115.97 -0.914965 -1.28321 0
M  V30 11796 C 1117.21 -0.547665 -1.94538 0
M  V30 11797 C 1117.53 0.911834 -1.72368 0
M  V30 11798 O 1116.8 1.64481 -1.06408 0
M  V30 11799 H 1115.38 -0.199549 -0.719853 0
M  V30 11800 H 1118.05 -1.16459 -1.5628 0
M  V30 11801 H 1117.14 -0.743138 -3.03124 0
M  V30 11802 N 1117.44 1.42219 -0.679077 0
M  V30 11803 C 1118.68 2.03349 -0.207058 0
M  V30 11804 C 1119.05 1.52554 1.16581 0
M  V30 11805 O 1120.25 2.05499 1.73274 0
M  V30 11806 C 1118.52 3.56562 -0.244537 0
M  V30 11807 S 1120.08 4.38523 0.155853 0
M  V30 11808 H 1116.9 0.705932 -0.0847444 0
M  V30 11809 H 1119.5 1.73904 -0.893183 0
M  V30 11810 H 1118.2 3.91028 -1.246 0
M  V30 11811 H 1117.73 3.90686 0.461282 0
M  V30 11812 H 1119.75 4.76389 1.38808 0
M  V30 11813 N 1118.92 0.422693 1.51826 0
M  V30 11814 C 1120.17 -0.148861 2.02253 0
M  V30 11815 C 1120.5 -1.43629 1.30707 0
M  V30 11816 O 1119.78 -1.89967 0.417482 0
M  V30 11817 C 1120.06 -0.382672 3.58061 0
M  V30 11818 C 1119.91 0.922386 4.40241 0
M  V30 11819 C 1121.23 -1.1589 4.24567 0
M  V30 11820 H 1118.35 -0.0526279 0.735119 0
M  V30 11821 H 1120.99 0.558821 1.81596 0
M  V30 11822 H 1119.14 -0.985495 3.75793 0
M  V30 11823 H 1120.81 1.55806 4.34191 0
M  V30 11824 H 1119.06 1.53032 4.05911 0
M  V30 11825 H 1119.73 0.713012 5.47376 0
M  V30 11826 H 1122.2 -0.648415 4.11017 0
M  V30 11827 H 1121.08 -1.29125 5.33496 0
M  V30 11828 H 1121.34 -2.18315 3.84436 0
M  V30 11829 N 1120.4 -1.5685 0.153553 0
M  V30 11830 C 1121.65 -1.95509 -0.495911 0
M  V30 11831 C 1121.96 -1.04129 -1.65579 0
M  V30 11832 O 1123.17 -1.32394 -2.37032 0
M  V30 11833 C 1121.62 -3.47579 -0.933622 0
M  V30 11834 C 1121.23 -4.47555 0.199684 0
M  V30 11835 C 1122.98 -3.95092 -1.55251 0
M  V30 11836 C 1120.88 -5.90843 -0.256663 0
M  V30 11837 H 1119.81 -0.729919 -0.189035 0
M  V30 11838 H 1122.46 -1.81938 0.238947 0
M  V30 11839 H 1120.85 -3.56506 -1.72394 0
M  V30 11840 H 1122.02 -4.50329 0.976744 0
M  V30 11841 H 1120.33 -4.09997 0.727394 0
M  V30 11842 H 1122.93 -4.99588 -1.90567 0
M  V30 11843 H 1123.27 -3.37015 -2.4439 0
M  V30 11844 H 1123.81 -3.89109 -0.826969 0
M  V30 11845 H 1120.55 -6.52753 0.599515 0
M  V30 11846 H 1120.07 -5.91414 -0.999458 0
M  V30 11847 H 1121.75 -6.43131 -0.70649 0
M  V30 11848 N 1121.88 0.120221 -1.57141 0
M  V30 11849 C 1122.79 1.16641 -2.03549 0
M  V30 11850 C 1123.8 1.45407 -0.955656 0
M  V30 11851 O 1124.98 1.56547 -1.26708 0
M  V30 11852 C 1122.04 2.4734 -2.42948 0
M  V30 11853 C 1121.11 2.25982 -3.65008 0
M  V30 11854 C 1120.34 3.50449 -4.02518 0
M  V30 11855 O 1120.56 4.57706 -3.40384 0
M  V30 11856 O 1119.5 3.41524 -4.95626 0
M  V30 11857 H 1123.32 0.802323 -2.9291 0
M  V30 11858 H 1120.91 0.330927 -1.45689 0
M  V30 11859 H 1122.79 3.24348 -2.69029 0
M  V30 11860 H 1121.46 2.83225 -1.56733 0
M  V30 11861 H 1120.37 1.46837 -3.44078 0
M  V30 11862 H 1121.7 1.95002 -4.51924 0
M  V30 11863 N 1123.36 1.52689 0.390367 0
M  V30 11864 C 1124.29 1.80338 1.48325 0
M  V30 11865 C 1125.27 0.655338 1.56969 0
M  V30 11866 O 1126.45 0.902792 1.7194 0
M  V30 11867 C 1123.58 1.97101 2.85952 0
M  V30 11868 C 1122.54 3.12783 2.92148 0
M  V30 11869 C 1121.86 3.14798 4.32211 0
M  V30 11870 C 1123.16 4.5188 2.61919 0
M  V30 11871 H 1124.86 2.71857 1.25437 0
M  V30 11872 H 1122.4 1.30813 0.601995 0
M  V30 11873 H 1124.36 2.15027 3.62411 0
M  V30 11874 H 1123.08 1.02271 3.10174 0
M  V30 11875 H 1121.74 2.94638 2.18137 0
M  V30 11876 H 1121.39 2.17653 4.53471 0
M  V30 11877 H 1121.09 3.92507 4.37278 0
M  V30 11878 H 1122.61 3.34877 5.10578 0
M  V30 11879 H 1124.02 4.70134 3.28096 0
M  V30 11880 H 1122.42 5.31647 2.78337 0
M  V30 11881 H 1123.49 4.58689 1.57266 0
M  V30 11882 N 1124.83 -0.648732 1.43629 0
M  V30 11883 C 1125.8 -1.74331 1.488 0
M  V30 11884 C 1126.8 -1.56434 0.372147 0
M  V30 11885 O 1127.99 -1.6225 0.634078 0
M  V30 11886 C 1125.12 -3.13248 1.34494 0
M  V30 11887 H 1126.31 -1.71125 2.46285 0
M  V30 11888 H 1123.87 -0.860798 1.30461 0
M  V30 11889 H 1124.6 -3.22062 0.380345 0
M  V30 11890 H 1124.39 -3.27643 2.15389 0
M  V30 11891 H 1125.88 -3.93056 1.41055 0
M  V30 11892 N 1126.31 -1.30234 -0.887518 0
M  V30 11893 C 1127.54 -1.21955 -1.67755 0
M  V30 11894 C 1127.96 0.214701 -1.86871 0
M  V30 11895 O 1127.32 1.15459 -1.39782 0
M  V30 11896 C 1127.37 -1.95079 -3.03276 0
M  V30 11897 O 1126.47 -1.27615 -3.92158 0
M  V30 11898 H 1125.81 -0.421948 -0.512695 0
M  V30 11899 H 1128.34 -1.72011 -1.10785 0
M  V30 11900 H 1128.35 -2.04004 -3.53336 0
M  V30 11901 H 1127.03 -2.99392 -2.88682 0
M  V30 11902 H 1125.61 -1.27029 -3.50597 0
M  V30 11903 N 1127.79 1.09952 -1.12909 0
M  V30 11904 C 1128.74 2.16436 -0.801514 0
M  V30 11905 C 1129.71 1.64444 0.233976 0
M  V30 11906 O 1130.89 1.90497 0.10743 0
M  V30 11907 C 1128.03 3.4406 -0.267753 0
M  V30 11908 C 1127.15 4.09979 -1.36165 0
M  V30 11909 C 1126.28 5.25341 -0.786803 0
M  V30 11910 C 1125.32 5.83172 -1.85948 0
M  V30 11911 N 1124.46 6.89904 -1.30298 0
M  V30 11912 H 1129.3 2.43799 -1.71365 0
M  V30 11913 H 1126.83 1.19665 -0.855499 0
M  V30 11914 H 1128.79 4.17157 0.0598031 0
M  V30 11915 H 1127.42 3.17031 0.607528 0
M  V30 11916 H 1126.47 3.34801 -1.8059 0
M  V30 11917 H 1127.79 4.48999 -2.17259 0
M  V30 11918 H 1126.94 6.05312 -0.410211 0
M  V30 11919 H 1125.68 4.87669 0.055279 0
M  V30 11920 H 1124.68 5.01867 -2.24521 0
M  V30 11921 H 1125.91 6.22907 -2.70487 0
M  V30 11922 H 1123.85 6.54221 -0.482806 0
M  V30 11923 H 1123.77 7.27662 -2.05046 0
M  V30 11924 H 1125.04 7.73643 -0.953779 0
M  V30 11925 N 1129.27 0.921757 1.27833 0
M  V30 11926 C 1130.51 0.559906 1.94918 0
M  V30 11927 C 1130.85 -0.895532 1.72319 0
M  V30 11928 O 1130.12 -1.638 1.04879 0
M  V30 11929 C 1130.41 0.879458 3.49196 0
M  V30 11930 C 1130.26 2.38821 3.81162 0
M  V30 11931 C 1131.58 0.381183 4.38446 0
M  V30 11932 H 1128.7 0.204893 0.707946 0
M  V30 11933 H 1131.34 1.15246 1.51058 0
M  V30 11934 H 1129.49 0.375177 3.86684 0
M  V30 11935 H 1131.16 2.96373 3.53498 0
M  V30 11936 H 1129.4 2.83988 3.27923 0
M  V30 11937 H 1130.07 2.56234 4.88926 0
M  V30 11938 H 1132.55 0.813289 4.08075 0
M  V30 11939 H 1131.43 0.633778 5.45229 0
M  V30 11940 H 1131.69 -0.718651 4.3622 0
M  V30 11941 N 1130.75 -1.41857 0.686609 0
M  V30 11942 C 1131.71 -2.29187 0.0247022 0
M  V30 11943 C 1132.71 -1.43926 -0.717069 0
M  V30 11944 O 1133.9 -1.65179 -0.5533 0
M  V30 11945 C 1131.03 -3.26644 -0.975537 0
M  V30 11946 H 1132.22 -2.89212 0.793503 0
M  V30 11947 H 1129.78 -1.49694 0.449605 0
M  V30 11948 H 1130.51 -2.7158 -1.77242 0
M  V30 11949 H 1130.3 -3.89545 -0.446892 0
M  V30 11950 H 1131.79 -3.92107 -1.43673 0
M  V30 11951 N 1132.22 -0.430739 -1.51599 0
M  V30 11952 C 1133.45 0.139197 -2.06932 0
M  V30 11953 C 1133.87 1.3626 -1.29672 0
M  V30 11954 O 1133.23 1.78219 -0.332836 0
M  V30 11955 C 1133.28 0.446593 -3.57824 0
M  V30 11956 O 1132.38 1.53414 -3.82803 0
M  V30 11957 H 1131.73 0.00475812 -0.663983 0
M  V30 11958 H 1134.26 -0.610171 -1.9529 0
M  V30 11959 H 1134.27 0.698972 -4.01968 0
M  V30 11960 H 1132.94 -0.447613 -4.13484 0
M  V30 11961 H 1131.52 1.27224 -3.50526 0
M  V30 11962 N 1133.7 1.56767 -0.161869 0
M  V30 11963 C 1134.95 1.96206 0.484537 0
M  V30 11964 C 1135.27 1.04848 1.64414 0
M  V30 11965 O 1134.54 0.112946 1.95574 0
M  V30 11966 H 1133.12 0.724491 0.181994 0
M  V30 11967 H 1135.78 1.93406 -0.240845 0
M  V30 11968 H 1134.88 3.00279 0.85083 0
M  V30 11969 N 1135.18 -0.111886 1.57202 0
M  V30 11970 C 1136.09 -1.1556 2.04165 0
M  V30 11971 C 1137.11 -1.44898 0.963354 0
M  V30 11972 O 1138.28 -1.55873 1.27536 0
M  V30 11973 C 1135.35 -2.46048 2.44256 0
M  V30 11974 C 1134.41 -2.24043 3.66201 0
M  V30 11975 C 1133.64 -3.4831 4.04371 0
M  V30 11976 O 1133.86 -4.55895 3.42806 0
M  V30 11977 O 1132.8 -3.38891 4.9743 0
M  V30 11978 H 1136.62 -0.786778 2.93332 0
M  V30 11979 H 1134.21 -0.323196 1.45862 0
M  V30 11980 H 1136.09 -3.22916 2.70745 0
M  V30 11981 H 1134.77 -2.8239 1.58233 0
M  V30 11982 H 1133.67 -1.4501 3.44852 0
M  V30 11983 H 1135.01 -1.92602 4.52952 0
M  V30 11984 N 1136.66 -1.52894 -0.382264 0
M  V30 11985 C 1137.59 -1.81122 -1.47367 0
M  V30 11986 C 1138.57 -0.663653 -1.56619 0
M  V30 11987 O 1139.75 -0.911898 -1.71459 0
M  V30 11988 C 1136.88 -1.98615 -2.84902 0
M  V30 11989 C 1135.84 -3.14328 -2.90485 0
M  V30 11990 C 1135.16 -3.17086 -4.30535 0
M  V30 11991 C 1136.46 -4.53263 -2.59519 0
M  V30 11992 H 1138.16 -2.72518 -1.23993 0
M  V30 11993 H 1135.7 -1.3113 -0.595049 0
M  V30 11994 H 1137.66 -2.16946 -3.61265 0
M  V30 11995 H 1136.38 -1.03915 -3.09628 0
M  V30 11996 H 1135.04 -2.95791 -2.16572 0
M  V30 11997 H 1134.69 -2.20055 -4.52311 0
M  V30 11998 H 1134.39 -3.94821 -4.3519 0
M  V30 11999 H 1135.91 -3.3758 -5.08795 0
M  V30 12000 H 1137.33 -4.71867 -3.25598 0
M  V30 12001 H 1135.72 -5.33115 -2.75514 0
M  V30 12002 H 1136.79 -4.59516 -1.54831 0
M  V30 12003 N 1138.14 0.641106 -1.43971 0
M  V30 12004 C 1139.08 1.75352 -1.50068 0
M  V30 12005 C 1140.05 1.62386 -0.349266 0
M  V30 12006 O 1141.24 1.82455 -0.558118 0
M  V30 12007 C 1138.38 3.13561 -1.4413 0
M  V30 12008 C 1137.49 3.37574 -2.6957 0
M  V30 12009 C 1136.63 4.65698 -2.55535 0
M  V30 12010 C 1135.67 4.82857 -3.76186 0
M  V30 12011 N 1134.8 6.02249 -3.60888 0
M  V30 12012 H 1139.64 1.69477 -2.45116 0
M  V30 12013 H 1137.18 0.826871 -1.2166 0
M  V30 12014 H 1139.14 3.93476 -1.38681 0
M  V30 12015 H 1137.77 3.18476 -0.526563 0
M  V30 12016 H 1136.82 2.5167 -2.85248 0
M  V30 12017 H 1138.13 3.46135 -3.59154 0
M  V30 12018 H 1137.29 5.53759 -2.47862 0
M  V30 12019 H 1136.03 4.59479 -1.63495 0
M  V30 12020 H 1135.03 3.93229 -3.84254 0
M  V30 12021 H 1136.26 4.90898 -4.6925 0
M  V30 12022 H 1134.2 5.97138 -2.71591 0
M  V30 12023 H 1134.12 6.11822 -4.44083 0
M  V30 12024 H 1135.39 6.92898 -3.57088 0
M  V30 12025 N 1139.62 1.30703 0.880598 0
M  V30 12026 C 1140.56 1.17369 2.00817 0
M  V30 12027 C 1141.56 0.0845159 1.69189 0
M  V30 12028 O 1142.76 0.245673 1.78316 0
M  V30 12029 H 1139.14 0.363107 0.658527 0
M  V30 12030 H 1141.11 2.12789 2.09197 0
M  V30 12031 C 1139.86 0.886851 3.362 0
M  V30 12032 H 1139.18 1.71704 3.61051 0
M  V30 12033 H 1140.62 0.83368 4.15723 0
M  V30 12034 C 1139.08 -0.410293 3.34392 0
M  V30 12035 O 1139.61 -1.43044 3.75368 0
M  V30 12036 N 1137.82 -0.423023 2.87505 0
M  V30 12037 H 1137.36 0.407637 2.54354 0
M  V30 12038 H 1137.32 -1.29086 2.86678 0
M  V30 12039 N 1141.09 -1.09351 1.1349 0
M  V30 12040 C 1142.34 -1.81185 0.89535 0
M  V30 12041 C 1142.66 -1.86173 -0.580048 0
M  V30 12042 O 1141.93 -1.34784 -1.42162 0
M  V30 12043 H 1140.51 -0.671011 0.328257 0
M  V30 12044 H 1143.17 -1.32255 1.43159 0
M  V30 12045 H 1142.27 -2.84339 1.28676 0
M  V30 12046 N 1142.57 -0.928524 -1.27343 0
M  V30 12047 C 1143.82 -0.569392 -1.9433 0
M  V30 12048 C 1144.15 0.889481 -1.7297 0
M  V30 12049 O 1143.4 1.6499 -1.05247 0
M  V30 12050 C 1143.7 -0.84269 -3.47323 0
M  V30 12051 C 1143.37 -2.28344 -3.88806 0
M  V30 12052 C 1142.03 -2.67731 -3.99842 0
M  V30 12053 C 1144.38 -3.22031 -4.09811 0
M  V30 12054 C 1141.71 -3.99928 -4.29272 0
M  V30 12055 C 1144.06 -4.5381 -4.40725 0
M  V30 12056 C 1142.72 -4.93031 -4.49975 0
M  V30 12057 H 1141.99 -0.208355 -0.711104 0
M  V30 12058 H 1144.64 -1.17264 -1.51398 0
M  V30 12059 H 1142.95 -0.156775 -3.91486 0
M  V30 12060 H 1144.64 -0.543779 -3.97296 0
M  V30 12061 H 1141.23 -1.96787 -3.80753 0
M  V30 12062 H 1145.42 -2.92803 -4.00724 0
M  V30 12063 H 1140.67 -4.29996 -4.34642 0
M  V30 12064 H 1144.85 -5.26407 -4.55926 0
M  V30 12065 H 1142.47 -5.95497 -4.72533 0
M  V30 12066 N 1144.05 1.41491 -0.694123 0
M  V30 12067 C 1145.01 2.2917 -0.0368562 0
M  V30 12068 C 1146.01 1.44305 0.709426 0
M  V30 12069 O 1147.2 1.6547 0.544533 0
M  V30 12070 C 1144.33 3.27156 0.958201 0
M  V30 12071 H 1145.53 2.88787 -0.808829 0
M  V30 12072 H 1143.08 1.49453 -0.457538 0
M  V30 12073 H 1143.82 2.72516 1.75799 0
M  V30 12074 H 1143.6 3.89776 0.426227 0
M  V30 12075 H 1145.09 3.92863 1.41592 0
M  V30 12076 N 1145.53 0.438773 1.51369 0
M  V30 12077 C 1146.77 -0.127401 2.02399 0
M  V30 12078 C 1147.11 -1.42235 1.32223 0
M  V30 12079 O 1146.38 -1.89513 0.437607 0
M  V30 12080 C 1146.66 -0.344673 3.58447 0
M  V30 12081 C 1146.52 0.969027 4.39238 0
M  V30 12082 C 1147.84 -1.11381 4.25773 0
M  V30 12083 H 1144.96 -0.0448281 0.735635 0
M  V30 12084 H 1147.6 0.57805 1.80993 0
M  V30 12085 H 1145.75 -0.945582 3.76817 0
M  V30 12086 H 1147.42 1.60403 4.32514 0
M  V30 12087 H 1145.66 1.57329 4.04265 0
M  V30 12088 H 1146.33 0.771029 5.46589 0
M  V30 12089 H 1148.81 -0.604785 4.11681 0
M  V30 12090 H 1147.69 -1.23459 5.34835 0
M  V30 12091 H 1147.95 -2.14225 3.8673 0
M  V30 12092 N 1147.01 -1.56678 0.170181 0
M  V30 12093 C 1148.25 -1.9714 -0.475767 0
M  V30 12094 C 1148.58 -1.05611 -1.62972 0
M  V30 12095 O 1147.86 -0.103017 -1.94227 0
M  V30 12096 C 1148.14 -3.47072 -0.959828 0
M  V30 12097 C 1148 -4.4938 0.194225 0
M  V30 12098 C 1149.31 -4.00071 -1.83387 0
M  V30 12099 H 1146.43 -0.716776 -0.171466 0
M  V30 12100 H 1149.08 -1.88266 0.256086 0
M  V30 12101 H 1147.23 -3.54766 -1.58346 0
M  V30 12102 H 1148.9 -4.53748 0.83128 0
M  V30 12103 H 1147.14 -4.25393 0.849893 0
M  V30 12104 H 1147.81 -5.51685 -0.186575 0
M  V30 12105 H 1150.29 -3.95002 -1.30815 0
M  V30 12106 H 1149.16 -5.05398 -2.14159 0
M  V30 12107 H 1149.42 -3.43819 -2.77923 0
M  V30 12108 N 1148.48 0.103547 -1.57259 0
M  V30 12109 C 1149.9 0.457527 -1.52901 0
M  V30 12110 C 1150.1 1.80995 -0.8856 0
M  V30 12111 O 1149.16 2.48001 -0.474504 0
M  V30 12112 C 1150.47 0.427793 -2.97641 0
M  V30 12113 C 1152.02 0.51025 -3.08813 0
M  V30 12114 C 1152.49 0.51075 -4.55143 0
M  V30 12115 N 1153.98 0.571748 -4.59658 0
M  V30 12116 C 1154.72 0.593836 -5.70317 0
M  V30 12117 N 1154.21 0.572638 -6.90429 0
M  V30 12118 N 1156.01 0.638011 -5.58467 0
M  V30 12119 H 1148.16 -0.782408 -1.97464 0
M  V30 12120 H 1150.42 -0.290324 -0.90245 0
M  V30 12121 H 1150.13 -0.498608 -3.48148 0
M  V30 12122 H 1150 1.24991 -3.55889 0
M  V30 12123 H 1152.39 1.42707 -2.583 0
M  V30 12124 H 1152.47 -0.339846 -2.53532 0
M  V30 12125 H 1152.11 -0.40209 -5.06306 0
M  V30 12126 H 1152.04 1.37794 -5.08252 0
M  V30 12127 H 1154.53 0.593668 -3.73208 0
M  V30 12128 H 1154.85 0.592542 -7.70525 0
M  V30 12129 H 1153.19 0.539818 -6.929 0
M  V30 12130 H 1156.38 0.652042 -4.63536 0
M  V30 12131 H 1156.56 0.651756 -6.44714 0
M  V30 12132 N 1149.96 1.53094 0.37415 0
M  V30 12133 C 1151.37 1.60641 0.951381 0
M  V30 12134 C 1151.72 0.468474 1.90525 0
M  V30 12135 O 1150.85 -0.406347 2.12551 0
M  V30 12136 C 1151.44 2.91166 1.73228 0
M  V30 12137 C 1150 3.01077 2.25898 0
M  V30 12138 C 1149.15 2.55873 1.06885 0
M  V30 12139 H 1152.1 1.57959 0.153214 0
M  V30 12140 H 1152.12 2.78487 2.59278 0
M  V30 12141 H 1151.63 3.73968 1.03778 0
M  V30 12142 H 1149.73 2.22844 2.98615 0
M  V30 12143 H 1149.85 4.05998 2.54367 0
M  V30 12144 H 1148.21 2.10544 1.43329 0
M  V30 12145 H 1148.99 3.41084 0.38947 0
M  V30 12146 N 1151.44 -0.633461 1.44309 0
M  V30 12147 C 1152.85 -1.21504 1.41752 0
M  V30 12148 C 1153.2 -1.95758 0.131667 0
M  V30 12149 O 1152.33 -2.02311 -0.768072 0
M  V30 12150 C 1152.92 -2.21005 2.56792 0
M  V30 12151 C 1151.48 -2.74596 2.57438 0
M  V30 12152 C 1150.63 -1.49555 2.33513 0
M  V30 12153 H 1153.58 -0.424277 1.52923 0
M  V30 12154 H 1153.6 -3.03563 2.29412 0
M  V30 12155 H 1153.11 -1.66934 3.50364 0
M  V30 12156 H 1151.21 -3.32676 1.67801 0
M  V30 12157 H 1151.33 -3.20794 3.55849 0
M  V30 12158 H 1149.69 -1.77605 1.82561 0
M  V30 12159 H 1150.47 -0.973899 3.29196 0
M  V30 12160 N 1152.92 -1.31168 -0.873655 0
M  V30 12161 C 1154.17 -1.20404 -1.62319 0
M  V30 12162 C 1154.49 0.238829 -1.93532 0
M  V30 12163 O 1153.76 1.15854 -1.57971 0
M  V30 12164 H 1152.34 -0.442632 -0.601736 0
M  V30 12165 H 1155 -1.64445 -1.04613 0
M  V30 12166 H 1154.1 -1.77309 -2.56842 0
M  V30 12167 N 1154.4 1.08748 -1.14068 0
M  V30 12168 C 1155.35 2.13762 -0.793087 0
M  V30 12169 C 1156.33 1.59442 0.216123 0
M  V30 12170 O 1157.52 1.7699 0.0189888 0
M  V30 12171 C 1154.65 3.42249 -0.268432 0
M  V30 12172 C 1153.74 4.03459 -1.30696 0
M  V30 12173 N 1154.13 4.39126 -2.51002 0
M  V30 12174 C 1152.43 4.30748 -1.15637 0
M  V30 12175 C 1153.13 4.87438 -3.17457 0
M  V30 12176 N 1152.1 4.85326 -2.44866 0
M  V30 12177 H 1155.91 2.39152 -1.70831 0
M  V30 12178 H 1153.42 1.26046 -1.02403 0
M  V30 12179 H 1155.42 4.169 -0.00113254 0
M  V30 12180 H 1154.08 3.18309 0.641032 0
M  V30 12181 H 1155.09 4.30266 -2.88256 0
M  V30 12182 H 1151.76 4.1638 -0.305636 0
M  V30 12183 H 1153.15 5.24443 -4.20011 0
M  V30 12184 N 1155.87 0.935264 1.26849 0
M  V30 12185 C 1156.82 0.411166 2.24262 0
M  V30 12186 C 1157.81 -0.488804 1.53296 0
M  V30 12187 O 1159 -0.325015 1.7399 0
M  V30 12188 C 1156.13 -0.327941 3.4173 0
M  V30 12189 C 1155.22 0.58898 4.1999 0
M  V30 12190 N 1155.61 1.71216 4.7594 0
M  V30 12191 C 1153.9 0.393431 4.44261 0
M  V30 12192 C 1154.61 2.28306 5.35024 0
M  V30 12193 N 1153.58 1.57176 5.20381 0
M  V30 12194 H 1157.38 1.26864 2.65109 0
M  V30 12195 H 1154.9 0.790429 1.41866 0
M  V30 12196 H 1156.89 -0.720404 4.10629 0
M  V30 12197 H 1155.55 -1.18225 3.02412 0
M  V30 12198 H 1156.57 2.09441 4.73661 0
M  V30 12199 H 1153.24 -0.419596 4.15386 0
M  V30 12200 H 1154.63 3.22909 5.89219 0
M  V30 12201 N 1157.35 -1.41121 0.701616 0
M  V30 12202 C 1158.32 -2.29148 0.0490091 0
M  V30 12203 C 1159.32 -1.44679 -0.701763 0
M  V30 12204 O 1160.51 -1.65757 -0.53575 0
M  V30 12205 C 1157.64 -3.2766 -0.940837 0
M  V30 12206 H 1158.83 -2.88354 0.824133 0
M  V30 12207 H 1156.38 -1.49209 0.465457 0
M  V30 12208 H 1157.12 -2.73445 -1.74351 0
M  V30 12209 H 1156.9 -3.89997 -0.405551 0
M  V30 12210 H 1158.39 -3.93609 -1.39507 0
M  V30 12211 N 1158.83 -0.446794 -1.51134 0
M  V30 12212 C 1159.74 0.36579 -2.31731 0
M  V30 12213 C 1160.76 1.01886 -1.41051 0
M  V30 12214 O 1161.93 1.01216 -1.74119 0
M  V30 12215 C 1159 1.44705 -3.15058 0
M  V30 12216 C 1158.06 0.813129 -4.21529 0
M  V30 12217 C 1157.29 1.84287 -5.00873 0
M  V30 12218 O 1157.51 3.06633 -4.8097 0
M  V30 12219 O 1156.45 1.42816 -5.84711 0
M  V30 12220 H 1160.27 -0.292436 -3.02289 0
M  V30 12221 H 1157.86 -0.209129 -1.47929 0
M  V30 12222 H 1159.74 2.07393 -3.66833 0
M  V30 12223 H 1158.42 2.08919 -2.47254 0
M  V30 12224 H 1157.32 0.147953 -3.73807 0
M  V30 12225 H 1158.66 0.214331 -4.91733 0
M  V30 12226 N 1160.31 1.56586 -0.178487 0
M  V30 12227 C 1161.22 2.21903 0.761321 0
M  V30 12228 C 1162.23 1.21289 1.2476 0
M  V30 12229 O 1163.41 1.53974 1.29823 0
M  V30 12230 C 1160.48 2.85259 1.97048 0
M  V30 12231 C 1159.54 4.01095 1.53039 0
M  V30 12232 C 1158.77 4.61421 2.68191 0
M  V30 12233 O 1158.99 4.20644 3.85247 0
M  V30 12234 O 1157.93 5.51171 2.41855 0
M  V30 12235 H 1161.75 3.02788 0.235141 0
M  V30 12236 H 1159.34 1.49316 0.0500442 0
M  V30 12237 H 1161.22 3.25404 2.6775 0
M  V30 12238 H 1159.89 2.07366 2.48558 0
M  V30 12239 H 1158.8 3.65606 0.792661 0
M  V30 12240 H 1160.13 4.80603 1.06213 0
M  V30 12241 N 1161.79 -0.095206 1.57312 0
M  V30 12242 C 1163.01 -0.81614 1.90667 0
M  V30 12243 C 1163.44 -1.71494 0.772746 0
M  V30 12244 O 1162.79 -1.79192 -0.275682 0
M  V30 12245 C 1162.84 -1.60555 3.22885 0
M  V30 12246 O 1161.95 -2.71448 3.10467 0
M  V30 12247 H 1161.29 -0.224217 0.624998 0
M  V30 12248 H 1163.82 -0.070464 2.04479 0
M  V30 12249 H 1163.83 -1.98979 3.5619 0
M  V30 12250 H 1162.5 -0.945918 4.05 0
M  V30 12251 H 1161.08 -2.36053 2.88675 0
M  V30 12252 N 1163.26 -1.53291 -0.366026 0
M  V30 12253 C 1164.49 -1.73359 -1.12934 0
M  V30 12254 C 1164.91 -0.462352 -1.83051 0
M  V30 12255 O 1164.26 0.564711 -1.73543 0
M  V30 12256 C 1164.32 -2.89873 -2.15999 0
M  V30 12257 O 1164.04 -4.12079 -1.48737 0
M  V30 12258 C 1165.54 -3.21811 -3.04881 0
M  V30 12259 H 1162.76 -0.579827 -0.337701 0
M  V30 12260 H 1165.3 -2.00033 -0.425081 0
M  V30 12261 H 1163.46 -2.65595 -2.82025 0
M  V30 12262 H 1163.87 -4.77322 -2.17404 0
M  V30 12263 H 1165.34 -4.06744 -3.7318 0
M  V30 12264 H 1165.82 -2.37156 -3.69667 0
M  V30 12265 H 1166.43 -3.48013 -2.44473 0
M  V30 12266 N 1164.74 0.6258 -1.44643 0
M  V30 12267 C 1165.71 1.71941 -1.51555 0
M  V30 12268 C 1166.71 1.55822 -0.396988 0
M  V30 12269 O 1167.9 1.61221 -0.65981 0
M  V30 12270 C 1165.03 3.11068 -1.39461 0
M  V30 12271 H 1166.22 1.67185 -2.48976 0
M  V30 12272 H 1163.77 0.839934 -1.31814 0
M  V30 12273 H 1164.51 3.21416 -0.431534 0
M  V30 12274 H 1164.29 3.24175 -2.20574 0
M  V30 12275 H 1165.78 3.90762 -1.4729 0
M  V30 12276 N 1166.22 1.31629 0.866686 0
M  V30 12277 C 1167.15 1.13886 1.9775 0
M  V30 12278 C 1168.13 0.0414887 1.62547 0
M  V30 12279 O 1169.32 0.198534 1.87452 0
M  V30 12280 C 1166.44 0.740858 3.30498 0
M  V30 12281 C 1165.49 1.84175 3.84684 0
M  V30 12282 S 1166.32 3.44781 4.09739 0
M  V30 12283 C 1167.48 3.06925 5.45479 0
M  V30 12284 H 1167.71 2.07923 2.12497 0
M  V30 12285 H 1165.24 1.16152 1.01725 0
M  V30 12286 H 1167.2 0.517974 4.07219 0
M  V30 12287 H 1165.86 -0.18045 3.13581 0
M  V30 12288 H 1165.06 1.51597 4.8066 0
M  V30 12289 H 1164.66 2.01986 3.14766 0
M  V30 12290 H 1166.95 2.56022 6.27263 0
M  V30 12291 H 1167.89 4.01877 5.8301 0
M  V30 12292 H 1168.3 2.44276 5.0891 0
M  V30 12293 N 1167.7 -1.08142 1.14644 0
M  V30 12294 C 1168.95 -1.80225 0.914517 0
M  V30 12295 C 1169.27 -1.86778 -0.560269 0
M  V30 12296 O 1168.54 -1.36284 -1.40724 0
M  V30 12297 H 1167.12 -0.667492 0.335356 0
M  V30 12298 H 1169.78 -1.30729 1.44554 0
M  V30 12299 H 1168.88 -2.82958 1.31685 0
M  V30 12300 N 1169.18 -0.941978 -1.26351 0
M  V30 12301 C 1170.42 -0.589971 -1.93715 0
M  V30 12302 C 1170.75 0.871085 -1.73903 0
M  V30 12303 O 1170.01 1.63864 -1.06991 0
M  V30 12304 C 1170.31 -0.879481 -3.4641 0
M  V30 12305 C 1169.97 -2.32454 -3.86362 0
M  V30 12306 C 1168.63 -2.71957 -3.9698 0
M  V30 12307 C 1170.99 -3.2636 -4.06373 0
M  V30 12308 C 1168.31 -4.04459 -4.25006 0
M  V30 12309 C 1170.67 -4.58459 -4.35887 0
M  V30 12310 C 1169.33 -4.97775 -4.4472 0
M  V30 12311 H 1168.6 -0.215886 -0.708854 0
M  V30 12312 H 1171.25 -1.18863 -1.50146 0
M  V30 12313 H 1169.55 -0.198289 -3.91298 0
M  V30 12314 H 1171.25 -0.585887 -3.96697 0
M  V30 12315 H 1167.84 -2.00814 -3.78645 0
M  V30 12316 H 1172.02 -2.97037 -3.97596 0
M  V30 12317 H 1167.28 -4.34582 -4.30057 0
M  V30 12318 H 1171.45 -5.31213 -4.50317 0
M  V30 12319 H 1169.08 -6.00475 -4.66191 0
M  V30 12320 N 1170.66 1.40747 -0.709091 0
M  V30 12321 C 1171.9 2.02864 -0.250145 0
M  V30 12322 C 1172.26 1.54993 1.13319 0
M  V30 12323 O 1173.46 2.09128 1.68876 0
M  V30 12324 C 1171.73 3.55964 -0.320114 0
M  V30 12325 S 1173.29 4.38755 0.0628008 0
M  V30 12326 H 1170.11 0.703975 -0.0996992 0
M  V30 12327 H 1172.71 1.7197 -0.92987 0
M  V30 12328 H 1171.41 3.88297 -1.32866 0
M  V30 12329 H 1170.95 3.91577 0.378308 0
M  V30 12330 H 1172.96 4.79226 1.28672 0
M  V30 12331 N 1172.13 0.454803 1.50895 0
M  V30 12332 C 1173.38 -0.10577 2.02224 0
M  V30 12333 C 1173.71 -1.41176 1.33789 0
M  V30 12334 O 1172.96 -1.90522 0.447181 0
M  V30 12335 C 1173.26 -0.354159 3.55641 0
M  V30 12336 C 1172.93 0.868136 4.42464 0
M  V30 12337 C 1171.59 1.2033 4.65912 0
M  V30 12338 C 1173.94 1.68272 4.93289 0
M  V30 12339 C 1171.27 2.3534 5.37431 0
M  V30 12340 C 1173.62 2.82396 5.6607 0
M  V30 12341 C 1172.29 3.16346 5.87777 0
M  V30 12342 H 1171.56 -0.0387041 0.739989 0
M  V30 12343 H 1174.2 0.605564 1.81673 0
M  V30 12344 H 1172.51 -1.14757 3.74617 0
M  V30 12345 H 1174.21 -0.8016 3.92906 0
M  V30 12346 H 1170.8 0.596995 4.24422 0
M  V30 12347 H 1174.98 1.43698 4.75042 0
M  V30 12348 H 1170.24 2.61936 5.52449 0
M  V30 12349 H 1174.41 3.45873 6.04438 0
M  V30 12350 H 1172.04 4.05574 6.42973 0
M  V30 12351 N 1173.61 -1.56489 0.186789 0
M  V30 12352 C 1174.86 -1.97341 -0.454158 0
M  V30 12353 C 1175.19 -1.07337 -1.622 0
M  V30 12354 O 1174.44 -0.1107 -1.95387 0
M  V30 12355 C 1174.74 -3.44145 -0.964315 0
M  V30 12356 C 1174.41 -4.50812 0.0892734 0
M  V30 12357 C 1173.07 -4.79707 0.378794 0
M  V30 12358 C 1175.42 -5.14968 0.8036 0
M  V30 12359 C 1172.75 -5.70051 1.38776 0
M  V30 12360 C 1175.1 -6.06402 1.80166 0
M  V30 12361 C 1173.76 -6.33657 2.09847 0
M  V30 12362 H 1173.03 -0.722124 -0.166188 0
M  V30 12363 H 1175.68 -1.89412 0.282008 0
M  V30 12364 H 1173.99 -3.49103 -1.7786 0
M  V30 12365 H 1175.68 -3.73104 -1.4695 0
M  V30 12366 H 1172.27 -4.28349 -0.146552 0
M  V30 12367 H 1176.46 -4.92743 0.593147 0
M  V30 12368 H 1171.71 -5.89445 1.62373 0
M  V30 12369 H 1175.89 -6.55176 2.36045 0
M  V30 12370 H 1173.51 -7.03462 2.88175 0
M  V30 12371 N 1175.09 0.086862 -1.5736 0
M  V30 12372 C 1176.04 1.12359 -2.03662 0
M  V30 12373 C 1177.03 1.40982 -0.939169 0
M  V30 12374 O 1178.24 1.40566 -1.12433 0
M  V30 12375 H 1174.61 0.379605 -0.649156 0
M  V30 12376 H 1176.58 0.706822 -2.89908 0
M  V30 12377 C 1175.33 2.43327 -2.48369 0
M  V30 12378 H 1174.66 2.22148 -3.324 0
M  V30 12379 H 1176.1 3.14351 -2.84534 0
M  V30 12380 C 1174.55 3.08214 -1.36036 0
M  V30 12381 O 1175.08 3.95659 -0.694063 0
M  V30 12382 N 1173.29 2.68596 -1.10927 0
M  V30 12383 H 1172.84 1.97578 -1.6529 0
M  V30 12384 H 1172.8 3.12336 -0.359679 0
M  V30 12385 N 1176.57 1.53483 0.357892 0
M  V30 12386 C 1177.79 1.74264 1.12458 0
M  V30 12387 C 1178.22 0.473944 1.82031 0
M  V30 12388 O 1177.58 -0.57253 1.72023 0
M  V30 12389 C 1177.62 2.91356 2.12471 0
M  V30 12390 O 1176.73 2.60502 3.19707 0
M  V30 12391 H 1176.07 0.578499 0.325937 0
M  V30 12392 H 1178.6 2.00395 0.412666 0
M  V30 12393 H 1178.61 3.1774 2.5594 0
M  V30 12394 H 1177.28 3.83378 1.61226 0
M  V30 12395 H 1175.86 2.44961 2.81156 0
M  V30 12396 N 1178.05 -0.61812 1.44973 0
M  V30 12397 C 1179.29 -1.37944 1.48658 0
M  V30 12398 C 1179.62 -1.93805 0.123749 0
M  V30 12399 O 1178.9 -1.74434 -0.860401 0
M  V30 12400 C 1179.18 -2.53515 2.55739 0
M  V30 12401 C 1179.04 -2.02918 4.01428 0
M  V30 12402 C 1180.35 -3.55674 2.59199 0
M  V30 12403 H 1177.47 -0.500223 0.541244 0
M  V30 12404 H 1180.12 -0.69774 1.76725 0
M  V30 12405 H 1178.27 -3.11669 2.31937 0
M  V30 12406 H 1179.94 -1.49494 4.36405 0
M  V30 12407 H 1178.18 -1.33999 4.12586 0
M  V30 12408 H 1178.85 -2.86181 4.72021 0
M  V30 12409 H 1181.33 -3.07343 2.80499 0
M  V30 12410 H 1180.2 -4.34042 3.36004 0
M  V30 12411 H 1180.46 -4.10601 1.63888 0
M  V30 12412 N 1179.52 -1.32087 -0.859693 0
M  V30 12413 C 1180.49 -1.20546 -1.94939 0
M  V30 12414 C 1181.49 -0.12982 -1.60275 0
M  V30 12415 O 1182.68 -0.379853 -1.70008 0
M  V30 12416 C 1179.81 -0.852717 -3.30063 0
M  V30 12417 H 1181 -2.17384 -2.06602 0
M  V30 12418 H 1178.55 -1.15846 -1.04926 0
M  V30 12419 H 1179.29 0.114059 -3.24099 0
M  V30 12420 H 1179.07 -1.63035 -3.56598 0
M  V30 12421 H 1180.56 -0.796145 -4.09941 0
M  V30 12422 N 1181 1.07532 -1.15215 0
M  V30 12423 C 1182.25 1.79474 -0.920439 0
M  V30 12424 C 1182.56 1.87593 0.553926 0
M  V30 12425 O 1183.77 2.56037 0.903169 0
M  V30 12426 C 1182.23 3.22509 -1.59738 0
M  V30 12427 C 1181.83 3.22596 -3.10863 0
M  V30 12428 C 1183.58 3.99072 -1.44714 0
M  V30 12429 C 1181.48 4.60273 -3.71352 0
M  V30 12430 H 1180.41 0.672625 -0.340722 0
M  V30 12431 H 1183.07 1.2071 -1.38208 0
M  V30 12432 H 1181.45 3.81454 -1.06342 0
M  V30 12433 H 1182.62 2.73306 -3.70999 0
M  V30 12434 H 1180.94 2.5953 -3.25627 0
M  V30 12435 H 1183.53 5.00823 -1.87299 0
M  V30 12436 H 1183.88 4.14428 -0.394386 0
M  V30 12437 H 1184.41 3.46617 -1.95195 0
M  V30 12438 H 1181.15 4.50122 -4.76519 0
M  V30 12439 H 1180.67 5.09809 -3.15998 0
M  V30 12440 H 1182.35 5.29243 -3.7217 0
M  V30 12441 N 1182.48 0.948665 1.2585 0
M  V30 12442 C 1183.71 0.617229 1.97479 0
M  V30 12443 C 1184.12 -0.809406 1.7057 0
M  V30 12444 O 1183.48 -1.54066 0.97826 0
M  V30 12445 C 1183.53 0.859065 3.51144 0
M  V30 12446 O 1183.25 2.2296 3.77121 0
M  V30 12447 C 1184.75 0.539197 4.40009 0
M  V30 12448 H 1181.97 0.231933 0.629641 0
M  V30 12449 H 1184.52 1.27141 1.60173 0
M  V30 12450 H 1182.67 0.25138 3.86584 0
M  V30 12451 H 1183.09 2.29524 4.71613 0
M  V30 12452 H 1184.56 0.758986 5.46757 0
M  V30 12453 H 1185.04 -0.526062 4.36038 0
M  V30 12454 H 1185.64 1.12594 4.10125 0
M  V30 12455 N 1183.96 -1.40369 0.716545 0
M  V30 12456 C 1184.92 -2.29083 0.0733105 0
M  V30 12457 C 1185.92 -1.45415 -0.686378 0
M  V30 12458 O 1187.11 -1.66316 -0.518139 0
M  V30 12459 C 1184.24 -3.28639 -0.906032 0
M  V30 12460 H 1185.44 -2.87464 0.85467 0
M  V30 12461 H 1182.99 -1.48706 0.481256 0
M  V30 12462 H 1183.72 -2.75279 -1.71441 0
M  V30 12463 H 1183.51 -3.90405 -0.364163 0
M  V30 12464 H 1185 -3.95066 -1.35324 0
M  V30 12465 N 1185.44 -0.462799 -1.50652 0
M  V30 12466 C 1186.38 0.335664 -2.28346 0
M  V30 12467 C 1187.35 0.994541 -1.33034 0
M  V30 12468 O 1188.54 1.00857 -1.61964 0
M  V30 12469 C 1185.68 1.41648 -3.1469 0
M  V30 12470 C 1184.79 0.773207 -4.25024 0
M  V30 12471 C 1183.93 1.83121 -4.98638 0
M  V30 12472 C 1182.97 1.16774 -6.00858 0
M  V30 12473 N 1182.1 2.16823 -6.67782 0
M  V30 12474 H 1186.94 -0.333202 -2.96131 0
M  V30 12475 H 1184.48 -0.176166 -1.46041 0
M  V30 12476 H 1186.44 2.05468 -3.63096 0
M  V30 12477 H 1185.07 2.05462 -2.48968 0
M  V30 12478 H 1184.12 0.0226444 -3.80393 0
M  V30 12479 H 1185.43 0.249061 -4.98178 0
M  V30 12480 H 1184.59 2.54543 -5.5072 0
M  V30 12481 H 1183.32 2.38915 -4.25172 0
M  V30 12482 H 1182.33 0.439112 -5.48044 0
M  V30 12483 H 1183.55 0.616809 -6.76293 0
M  V30 12484 H 1181.5 2.71649 -5.97112 0
M  V30 12485 H 1181.42 1.69371 -7.36783 0
M  V30 12486 H 1182.69 2.8765 -7.24484 0
M  V30 12487 N 1186.91 1.56388 -0.195085 0
M  V30 12488 C 1188.14 2.0167 0.448637 0
M  V30 12489 C 1188.55 1.07439 1.55736 0
M  V30 12490 O 1187.9 0.071441 1.83561 0
M  V30 12491 C 1187.96 3.43348 1.06547 0
M  V30 12492 C 1187.62 4.569 0.0954901 0
M  V30 12493 C 1188.62 5.15232 -0.695116 0
M  V30 12494 C 1186.3 5.02298 -0.0155889 0
M  V30 12495 C 1188.3 6.1741 -1.58377 0
M  V30 12496 C 1185.98 6.0432 -0.907799 0
M  V30 12497 C 1186.98 6.6175 -1.69045 0
M  V30 12498 O 1186.67 7.6179 -2.56771 0
M  V30 12499 H 1186.4 0.665805 0.116962 0
M  V30 12500 H 1188.96 2.03182 -0.301062 0
M  V30 12501 H 1187.19 3.38823 1.86376 0
M  V30 12502 H 1188.88 3.72438 1.61385 0
M  V30 12503 H 1189.64 4.81026 -0.619604 0
M  V30 12504 H 1185.52 4.57293 0.583424 0
M  V30 12505 H 1189.06 6.62164 -2.1951 0
M  V30 12506 H 1184.96 6.37949 -0.984427 0
M  V30 12507 H 1185.73 7.79209 -2.50551 0
M  V30 12508 N 1188.39 -0.0785156 1.57404 0
M  V30 12509 C 1189.32 -1.09446 2.06262 0
M  V30 12510 C 1190.3 -1.40777 0.954772 0
M  V30 12511 O 1191.49 -1.5052 1.22708 0
M  V30 12512 C 1188.62 -2.40979 2.50093 0
M  V30 12513 C 1187.57 -2.24017 3.64692 0
M  V30 12514 C 1186.9 -3.60873 3.94556 0
M  V30 12515 C 1188.2 -1.66696 4.94985 0
M  V30 12516 H 1189.89 -0.687928 2.9139 0
M  V30 12517 H 1187.44 -0.329466 1.4018 0
M  V30 12518 H 1189.39 -3.12337 2.82884 0
M  V30 12519 H 1188.12 -2.83599 1.61985 0
M  V30 12520 H 1186.77 -1.55101 3.32174 0
M  V30 12521 H 1186.42 -4.01051 3.0359 0
M  V30 12522 H 1186.12 -3.50365 4.71718 0
M  V30 12523 H 1187.65 -4.33673 4.29837 0
M  V30 12524 H 1189.06 -2.27913 5.2605 0
M  V30 12525 H 1187.46 -1.66902 5.76423 0
M  V30 12526 H 1188.53 -0.627827 4.80818 0
M  V30 12527 N 1189.87 -1.5367 -0.349747 0
M  V30 12528 C 1191.29 -1.43796 -0.692457 0
M  V30 12529 C 1191.49 -0.58972 -1.92677 0
M  V30 12530 O 1190.54 -0.078294 -2.52379 0
M  V30 12531 C 1191.86 -2.872 -0.890881 0
M  V30 12532 C 1193.4 -2.96935 -0.989892 0
M  V30 12533 C 1193.88 -4.41433 -1.22068 0
M  V30 12534 N 1195.37 -4.44932 -1.28802 0
M  V30 12535 C 1196.1 -5.53864 -1.48398 0
M  V30 12536 N 1195.6 -6.72814 -1.65208 0
M  V30 12537 N 1197.39 -5.41467 -1.50896 0
M  V30 12538 H 1189.54 -2.07317 0.461895 0
M  V30 12539 H 1191.81 -0.936895 0.144681 0
M  V30 12540 H 1191.51 -3.51656 -0.0555095 0
M  V30 12541 H 1191.39 -3.31784 -1.79442 0
M  V30 12542 H 1193.77 -2.32622 -1.81579 0
M  V30 12543 H 1193.86 -2.55721 -0.0633906 0
M  V30 12544 H 1193.5 -5.06325 -0.399729 0
M  V30 12545 H 1193.43 -4.80233 -2.16064 0
M  V30 12546 H 1195.92 -3.59214 -1.17361 0
M  V30 12547 H 1196.23 -7.51598 -1.79779 0
M  V30 12548 H 1194.58 -6.7577 -1.62356 0
M  V30 12549 H 1197.77 -4.47498 -1.37342 0
M  V30 12550 H 1197.94 -6.26423 -1.65826 0
M  V30 12551 N 1191.35 0.610423 -1.45298 0
M  V30 12552 C 1192.63 1.36966 -1.39641 0
M  V30 12553 C 1193.01 2.10998 -0.0655757 0
M  V30 12554 O 1192.35 2.07705 0.952407 0
M  V30 12555 C 1192.56 2.31885 -2.60826 0
M  V30 12556 C 1193.91 2.9458 -3.05791 0
M  V30 12557 O 1194.94 2.42207 -2.61179 0
M  V30 12558 O 1193.79 3.89639 -3.83202 0
M  V30 12559 H 1190.89 0.61401 -0.554004 0
M  V30 12560 H 1193.43 0.633748 -1.57422 0
M  V30 12561 H 1192.21 1.76421 -3.49272 0
M  V30 12562 H 1191.83 3.12861 -2.45364 0
M  V30 12563 N 1192.83 1.32541 0.852676 0
M  V30 12564 C 1193.76 1.17471 1.96807 0
M  V30 12565 C 1194.77 0.109198 1.62433 0
M  V30 12566 O 1195.96 0.358342 1.74866 0
M  V30 12567 C 1193.06 0.776328 3.29888 0
M  V30 12568 C 1192.23 1.93055 3.9249 0
M  V30 12569 C 1191.29 1.51539 5.03907 0
M  V30 12570 O 1190.32 2.22771 5.23796 0
M  V30 12571 N 1191.52 0.412533 5.79032 0
M  V30 12572 H 1194.29 2.13551 2.10276 0
M  V30 12573 H 1191.85 1.25104 1.02764 0
M  V30 12574 H 1193.84 0.48096 4.01832 0
M  V30 12575 H 1192.41 -0.0933749 3.12461 0
M  V30 12576 H 1191.63 2.39231 3.13309 0
M  V30 12577 H 1192.92 2.70321 4.3105 0
M  V30 12578 H 1192.31 -0.180286 5.65413 0
M  V30 12579 H 1190.87 0.17678 6.5156 0
M  V30 12580 N 1194.3 -1.0692 1.15784 0
M  V30 12581 C 1195.23 -2.16216 0.881649 0
M  V30 12582 C 1196.22 -1.69253 -0.16951 0
M  V30 12583 O 1197.4 -1.94186 -0.0229511 0
M  V30 12584 C 1194.53 -3.4527 0.374982 0
M  V30 12585 C 1193.48 -4.05706 1.36332 0
M  V30 12586 C 1192.81 -5.29894 0.715317 0
M  V30 12587 C 1194.11 -4.45224 2.7308 0
M  V30 12588 H 1195.8 -2.39577 1.79563 0
M  V30 12589 H 1193.35 -1.15141 0.864784 0
M  V30 12590 H 1195.3 -4.2106 0.169279 0
M  V30 12591 H 1194.03 -3.21508 -0.574485 0
M  V30 12592 H 1192.69 -3.31965 1.55546 0
M  V30 12593 H 1192.33 -5.02425 -0.240436 0
M  V30 12594 H 1192.03 -5.71287 1.37494 0
M  V30 12595 H 1193.56 -6.08386 0.519489 0
M  V30 12596 H 1194.97 -5.12124 2.57686 0
M  V30 12597 H 1193.37 -4.97583 3.35457 0
M  V30 12598 H 1194.44 -3.56384 3.28813 0
M  V30 12599 N 1195.78 -0.955326 -1.25345 0
M  V30 12600 C 1196.73 -0.467205 -2.2786 0
M  V30 12601 C 1197.72 0.462873 -1.62954 0
M  V30 12602 O 1198.93 0.339526 -1.76769 0
M  V30 12603 H 1195.31 -0.132586 -0.74022 0
M  V30 12604 H 1197.28 -1.34406 -2.66416 0
M  V30 12605 C 1196.03 0.238898 -3.46878 0
M  V30 12606 H 1195.35 -0.467644 -3.97056 0
M  V30 12607 H 1196.79 0.544444 -4.2049 0
M  V30 12608 C 1195.25 1.46164 -3.03542 0
M  V30 12609 O 1195.78 2.55933 -3.09615 0
M  V30 12610 N 1193.98 1.32324 -2.58725 0
M  V30 12611 H 1193.53 0.430131 -2.53984 0
M  V30 12612 H 1193.49 2.14253 -2.30094 0
M  V30 12613 N 1197.26 1.39987 -0.723979 0
M  V30 12614 C 1198.51 1.99964 -0.26406 0
M  V30 12615 C 1198.82 1.58084 1.1519 0
M  V30 12616 O 1200.03 2.10819 1.71077 0
M  V30 12617 C 1198.49 3.57427 -0.421174 0
M  V30 12618 C 1198.09 4.08276 -1.84432 0
M  V30 12619 C 1199.84 4.24494 -0.0224734 0
M  V30 12620 C 1197.74 5.58272 -1.95157 0
M  V30 12621 H 1196.67 0.747995 -0.0949728 0
M  V30 12622 H 1199.33 1.60122 -0.896276 0
M  V30 12623 H 1197.71 3.95011 0.279762 0
M  V30 12624 H 1198.88 3.82051 -2.57631 0
M  V30 12625 H 1197.2 3.53834 -2.19523 0
M  V30 12626 H 1199.79 5.34637 -0.0817744 0
M  V30 12627 H 1200.14 4.03593 1.02069 0
M  V30 12628 H 1200.67 3.92046 -0.67416 0
M  V30 12629 H 1197.41 5.84038 -2.97623 0
M  V30 12630 H 1196.93 5.86335 -1.2638 0
M  V30 12631 H 1198.61 6.23509 -1.72759 0
M  V30 12632 N 1198.74 0.470782 1.50404 0
M  V30 12633 C 1199.96 -0.084284 2.07229 0
M  V30 12634 C 1200.39 -1.32774 1.33239 0
M  V30 12635 O 1199.75 -1.77274 0.379971 0
M  V30 12636 C 1199.8 -0.351565 3.58882 0
M  V30 12637 O 1198.9 -1.43211 3.86736 0
M  V30 12638 H 1198.24 0.0128479 0.663876 0
M  V30 12639 H 1200.77 0.661735 1.93603 0
M  V30 12640 H 1200.78 -0.592151 4.0368 0
M  V30 12641 H 1199.46 0.557084 4.12152 0
M  V30 12642 H 1198.03 -1.17886 3.53776 0
M  V30 12643 N 1200.22 -1.56282 0.203376 0
M  V30 12644 C 1201.16 -2.19473 -0.714164 0
M  V30 12645 C 1202.13 -1.14454 -1.20372 0
M  V30 12646 O 1203.32 -1.42739 -1.26611 0
M  V30 12647 C 1200.46 -2.86451 -1.92457 0
M  V30 12648 C 1199.57 -4.06017 -1.47561 0
M  V30 12649 C 1198.71 -4.60829 -2.64216 0
M  V30 12650 C 1197.75 -5.72734 -2.15967 0
M  V30 12651 N 1196.88 -6.21916 -3.25829 0
M  V30 12652 H 1201.72 -2.97523 -0.168558 0
M  V30 12653 H 1199.26 -1.46926 -0.0714525 0
M  V30 12654 H 1201.22 -3.23459 -2.63496 0
M  V30 12655 H 1199.85 -2.10951 -2.44335 0
M  V30 12656 H 1198.9 -3.74617 -0.660784 0
M  V30 12657 H 1200.21 -4.8693 -1.08168 0
M  V30 12658 H 1199.37 -5.00185 -3.43366 0
M  V30 12659 H 1198.11 -3.7904 -3.06887 0
M  V30 12660 H 1197.11 -5.32899 -1.35273 0
M  V30 12661 H 1198.34 -6.56346 -1.74316 0
M  V30 12662 H 1196.28 -5.43047 -3.68016 0
M  V30 12663 H 1196.2 -6.97904 -2.90631 0
M  V30 12664 H 1197.47 -6.65927 -4.05168 0
M  V30 12665 N 1201.7 0.070167 -1.57444 0
M  V30 12666 C 1202.94 0.767842 -1.86513 0
M  V30 12667 C 1203.26 1.78659 -0.796257 0
M  V30 12668 O 1204.46 2.53395 -0.974845 0
M  V30 12669 C 1202.92 1.41654 -3.30851 0
M  V30 12670 C 1202.53 0.436273 -4.45871 0
M  V30 12671 C 1204.27 2.09649 -3.69117 0
M  V30 12672 C 1202.18 1.09098 -5.8125 0
M  V30 12673 H 1201.11 0.290519 -0.695784 0
M  V30 12674 H 1203.76 0.0211697 -1.83488 0
M  V30 12675 H 1202.14 2.21153 -3.28493 0
M  V30 12676 H 1203.32 -0.329022 -4.59624 0
M  V30 12677 H 1201.63 -0.139314 -4.16167 0
M  V30 12678 H 1204.23 2.59411 -4.67558 0
M  V30 12679 H 1204.57 2.89663 -2.99 0
M  V30 12680 H 1205.1 1.36979 -3.73472 0
M  V30 12681 H 1201.84 0.331128 -6.54663 0
M  V30 12682 H 1201.36 1.8271 -5.71294 0
M  V30 12683 H 1203.04 1.61034 -6.2664 0
M  V30 12684 N 1203.17 1.53854 0.341593 0
M  V30 12685 C 1204.1 1.84966 1.42513 0
M  V30 12686 C 1205.08 0.704944 1.54805 0
M  V30 12687 O 1206.27 0.957036 1.68981 0
M  V30 12688 C 1203.4 2.06099 2.79536 0
M  V30 12689 C 1202.35 3.21919 2.82049 0
M  V30 12690 C 1201.68 3.28389 4.21977 0
M  V30 12691 C 1202.98 4.59984 2.4741 0
M  V30 12692 H 1204.67 2.7571 1.16724 0
M  V30 12693 H 1202.22 1.32662 0.560073 0
M  V30 12694 H 1204.17 2.26448 3.55386 0
M  V30 12695 H 1202.9 1.12087 3.06764 0
M  V30 12696 H 1201.56 3.01429 2.08653 0
M  V30 12697 H 1201.2 2.3197 4.46317 0
M  V30 12698 H 1200.9 4.0622 4.24569 0
M  V30 12699 H 1202.43 3.50951 4.99666 0
M  V30 12700 H 1203.84 4.80334 3.12973 0
M  V30 12701 H 1202.24 5.40233 2.61282 0
M  V30 12702 H 1203.31 4.6346 1.42594 0
M  V30 12703 N 1204.65 -0.602709 1.4562 0
M  V30 12704 C 1205.9 -1.35769 1.49163 0
M  V30 12705 C 1206.21 -1.95102 0.139485 0
M  V30 12706 O 1207.42 -2.71449 0.0525919 0
M  V30 12707 C 1205.88 -2.45959 2.62739 0
M  V30 12708 C 1205.48 -1.93017 4.04288 0
M  V30 12709 C 1207.23 -3.22926 2.75534 0
M  V30 12710 C 1205.13 -3.00718 5.09237 0
M  V30 12711 H 1204.06 -0.510317 0.555061 0
M  V30 12712 H 1206.72 -0.645434 1.71774 0
M  V30 12713 H 1205.1 -3.19892 2.3342 0
M  V30 12714 H 1206.27 -1.2576 4.43307 0
M  V30 12715 H 1204.59 -1.2878 3.95986 0
M  V30 12716 H 1207.18 -4.03267 3.51112 0
M  V30 12717 H 1207.53 -3.74243 1.82339 0
M  V30 12718 H 1208.06 -2.56095 3.04402 0
M  V30 12719 H 1204.8 -2.54312 6.04157 0
M  V30 12720 H 1204.32 -3.66526 4.74783 0
M  V30 12721 H 1206 -3.65016 5.34202 0
M  V30 12722 N 1206.13 -1.32992 -0.845635 0
M  V30 12723 C 1207.38 -1.24249 -1.60281 0
M  V30 12724 C 1207.71 0.193049 -1.93238 0
M  V30 12725 O 1206.98 1.1326 -1.58122 0
M  V30 12726 C 1207.27 -2.1111 -2.91727 0
M  V30 12727 C 1207.12 -3.63088 -2.65494 0
M  V30 12728 C 1208.44 -1.97913 -3.93089 0
M  V30 12729 H 1205.56 -0.452698 -0.581578 0
M  V30 12730 H 1208.2 -1.63026 -0.975828 0
M  V30 12731 H 1206.35 -1.78169 -3.45236 0
M  V30 12732 H 1208.02 -4.06287 -2.18469 0
M  V30 12733 H 1206.26 -3.85304 -1.99306 0
M  V30 12734 H 1206.94 -4.19202 -3.59129 0
M  V30 12735 H 1209.41 -2.26788 -3.48864 0
M  V30 12736 H 1208.29 -2.60952 -4.82903 0
M  V30 12737 H 1208.55 -0.949378 -4.31786 0
M  V30 12738 N 1207.61 1.06304 -1.1635 0
M  V30 12739 C 1208.88 1.75916 -0.855166 0
M  V30 12740 C 1209.26 2.0094 0.647024 0
M  V30 12741 O 1208.61 1.63642 1.59479 0
M  V30 12742 C 1208.82 3.06028 -1.67774 0
M  V30 12743 C 1210.17 3.80184 -1.89065 0
M  V30 12744 O 1211.19 3.15868 -1.64639 0
M  V30 12745 O 1210.05 4.95723 -2.30045 0
M  V30 12746 H 1207.15 0.764432 -0.315551 0
M  V30 12747 H 1209.69 1.12574 -1.26985 0
M  V30 12748 H 1208.47 2.83498 -2.69712 0
M  V30 12749 H 1208.09 3.77104 -1.26009 0
M  V30 12750 N 1209.09 0.96196 1.24836 0
M  V30 12751 C 1210.02 0.506241 2.27946 0
M  V30 12752 C 1211 -0.451183 1.64007 0
M  V30 12753 O 1212.18 -0.348552 1.91046 0
M  V30 12754 C 1209.31 -0.209846 3.46665 0
M  V30 12755 C 1208.27 0.663035 4.22833 0
M  V30 12756 C 1207.59 -0.184216 5.34383 0
M  V30 12757 C 1208.89 1.94479 4.84742 0
M  V30 12758 H 1210.59 1.36805 2.66317 0
M  V30 12759 H 1208.13 0.65926 1.28023 0
M  V30 12760 H 1210.08 -0.539838 4.17928 0
M  V30 12761 H 1208.81 -1.10596 3.07305 0
M  V30 12762 H 1207.47 0.976216 3.53363 0
M  V30 12763 H 1207.12 -1.08031 4.91262 0
M  V30 12764 H 1206.82 0.39657 5.8626 0
M  V30 12765 H 1208.34 -0.509009 6.08475 0
M  V30 12766 H 1209.75 1.68074 5.48109 0
M  V30 12767 H 1208.15 2.47183 5.46828 0
M  V30 12768 H 1209.22 2.64332 4.06517 0
M  V30 12769 N 1210.56 -1.39601 0.731392 0
M  V30 12770 C 1211.84 -1.94531 0.20422 0
M  V30 12771 C 1212.22 -1.66845 -1.29329 0
M  V30 12772 O 1211.57 -0.994706 -2.05713 0
M  V30 12773 C 1211.78 -3.44891 0.53395 0
M  V30 12774 C 1213.13 -4.21863 0.481298 0
M  V30 12775 O 1214.15 -3.53073 0.470929 0
M  V30 12776 O 1213.01 -5.44452 0.472663 0
M  V30 12777 H 1210.1 -0.826214 0.0360436 0
M  V30 12778 H 1212.65 -1.49121 0.810005 0
M  V30 12779 H 1211.42 -3.58463 1.56907 0
M  V30 12780 H 1211.04 -3.97472 -0.10099 0
M  V30 12781 N 1212.04 -0.478751 -1.50152 0
M  V30 12782 C 1213.29 0.073694 -2.02666 0
M  V30 12783 C 1213.62 1.38679 -1.35947 0
M  V30 12784 O 1212.9 1.88286 -0.4877 0
M  V30 12785 C 1213.18 0.249516 -3.59235 0
M  V30 12786 C 1213.03 -1.08514 -4.36514 0
M  V30 12787 C 1214.35 1.00053 -4.28576 0
M  V30 12788 H 1211.47 0.0253082 -0.736565 0
M  V30 12789 H 1214.11 -0.625834 -1.79397 0
M  V30 12790 H 1212.26 0.845343 -3.79192 0
M  V30 12791 H 1213.93 -1.71814 -4.28109 0
M  V30 12792 H 1212.18 -1.67992 -3.99952 0
M  V30 12793 H 1212.85 -0.915676 -5.44352 0
M  V30 12794 H 1215.32 0.495422 -4.1314 0
M  V30 12795 H 1214.2 1.09236 -5.37921 0
M  V30 12796 H 1214.46 2.03896 -3.92274 0
M  V30 12797 N 1213.52 1.56172 -0.211661 0
M  V30 12798 C 1214.47 2.16477 0.715675 0
M  V30 12799 C 1215.45 1.11023 1.16459 0
M  V30 12800 O 1216.65 1.3704 1.12023 0
M  V30 12801 C 1213.78 2.84055 1.92789 0
M  V30 12802 C 1212.86 3.96721 1.49911 0
M  V30 12803 N 1213.25 4.99714 0.782304 0
M  V30 12804 C 1211.55 4.08628 1.78716 0
M  V30 12805 C 1212.25 5.78949 0.565043 0
M  V30 12806 N 1211.23 5.31963 1.11878 0
M  V30 12807 H 1215.03 2.93467 0.15948 0
M  V30 12808 H 1212.54 1.62395 -0.012521 0
M  V30 12809 H 1214.54 3.25662 2.60289 0
M  V30 12810 H 1213.2 2.08558 2.48865 0
M  V30 12811 H 1214.21 5.16061 0.436021 0
M  V30 12812 H 1210.89 3.44273 2.36183 0
M  V30 12813 H 1212.28 6.719 -0.00477074 0
M  V30 12814 N 1215 -0.0618163 1.57479 0
M  V30 12815 C 1215.95 -1.07953 2.00824 0
M  V30 12816 C 1216.93 -1.33916 0.891924 0
M  V30 12817 O 1218.12 -1.3405 1.15584 0
M  V30 12818 C 1215.25 -2.39041 2.46403 0
M  V30 12819 C 1214.34 -2.16309 3.64789 0
M  V30 12820 N 1214.73 -1.63534 4.78634 0
M  V30 12821 C 1213.03 -2.46739 3.71531 0
M  V30 12822 C 1213.73 -1.55849 5.60434 0
M  V30 12823 N 1212.71 -2.02255 5.04573 0
M  V30 12824 H 1216.51 -0.66497 2.86278 0
M  V30 12825 H 1214.02 -0.268722 1.60161 0
M  V30 12826 H 1216.02 -3.12722 2.757 0
M  V30 12827 H 1214.68 -2.81204 1.6234 0
M  V30 12828 H 1215.69 -1.32258 5.00728 0
M  V30 12829 H 1212.37 -2.92201 2.98203 0
M  V30 12830 H 1213.76 -1.15814 6.61843 0
M  V30 12831 N 1216.48 -1.54033 -0.333429 0
M  V30 12832 C 1217.72 -1.71426 -1.0704 0
M  V30 12833 C 1218.05 -0.485496 -1.8886 0
M  V30 12834 O 1217.32 0.500555 -1.89397 0
M  V30 12835 H 1215.9 -0.632034 -0.398173 0
M  V30 12836 H 1218.56 -1.91312 -0.372252 0
M  V30 12837 H 1217.65 -2.58958 -1.74205 0
M  V30 12838 N 1217.95 0.594978 -1.45938 0
M  V30 12839 C 1218.9 1.726 -1.55923 0
M  V30 12840 C 1219.9 1.63893 -0.428411 0
M  V30 12841 O 1221.1 1.69535 -0.604815 0
M  V30 12842 H 1217.48 0.570447 -0.489994 0
M  V30 12843 H 1219.45 1.61308 -2.51043 0
M  V30 12844 C 1218.2 3.10988 -1.55505 0
M  V30 12845 H 1217.52 3.18353 -2.4185 0
M  V30 12846 H 1218.96 3.8992 -1.66548 0
M  V30 12847 C 1217.42 3.35721 -0.281573 0
M  V30 12848 O 1217.95 3.96676 0.633336 0
M  V30 12849 N 1216.16 2.90083 -0.173314 0
M  V30 12850 H 1215.7 2.4066 -0.91872 0
M  V30 12851 H 1215.66 3.07005 0.677903 0
M  V30 12852 N 1219.43 1.33438 0.838571 0
M  V30 12853 C 1220.68 1.24665 1.59069 0
M  V30 12854 C 1221 -0.187433 1.94097 0
M  V30 12855 O 1220.27 -1.11625 1.60987 0
M  V30 12856 H 1218.85 0.45843 0.589789 0
M  V30 12857 H 1221.51 1.67161 1.00216 0
M  V30 12858 H 1220.61 1.84057 2.52051 0
M  V30 12859 N 1220.91 -1.05686 1.16912 0
M  V30 12860 C 1222.14 -1.82282 0.978811 0
M  V30 12861 C 1222.55 -1.8278 -0.472972 0
M  V30 12862 O 1221.91 -1.25143 -1.32836 0
M  V30 12863 C 1221.96 -3.28623 1.50629 0
M  V30 12864 O 1221.68 -3.28269 2.90122 0
M  V30 12865 C 1223.18 -4.21927 1.35987 0
M  V30 12866 H 1220.4 -0.574558 0.346588 0
M  V30 12867 H 1222.95 -1.33301 1.55084 0
M  V30 12868 H 1221.1 -3.74893 0.976404 0
M  V30 12869 H 1221.52 -4.19824 3.14401 0
M  V30 12870 H 1222.99 -5.2261 1.77716 0
M  V30 12871 H 1223.47 -4.38131 0.30626 0
M  V30 12872 H 1224.07 -3.81508 1.87968 0
M  V30 12873 N 1222.39 -0.968567 -1.24324 0
M  V30 12874 C 1223.32 -0.457247 -2.24593 0
M  V30 12875 C 1224.33 0.434483 -1.56895 0
M  V30 12876 O 1225.52 0.240519 -1.76872 0
M  V30 12877 C 1222.62 0.359086 -3.36992 0
M  V30 12878 C 1221.8 -0.522945 -4.34263 0
M  V30 12879 C 1220.85 0.237528 -5.25664 0
M  V30 12880 O 1219.88 -0.368835 -5.68004 0
M  V30 12881 N 1221.08 1.52686 -5.6006 0
M  V30 12882 H 1223.85 -1.31934 -2.69098 0
M  V30 12883 H 1221.41 -0.840488 -1.38374 0
M  V30 12884 H 1223.4 0.87589 -3.95108 0
M  V30 12885 H 1221.97 1.12212 -2.91766 0
M  V30 12886 H 1221.19 -1.22071 -3.74823 0
M  V30 12887 H 1222.48 -1.12447 -4.96219 0
M  V30 12888 H 1221.88 2.0412 -5.2759 0
M  V30 12889 H 1220.43 1.98934 -6.207 0
M  V30 12890 N 1223.87 1.39211 -0.738786 0
M  V30 12891 C 1224.8 2.29117 -0.0616489 0
M  V30 12892 C 1225.81 1.47008 0.699462 0
M  V30 12893 O 1227 1.70041 0.542998 0
M  V30 12894 C 1224.1 3.25692 0.936893 0
M  V30 12895 C 1223.27 4.3676 0.236515 0
M  V30 12896 C 1222.33 5.1362 1.1437 0
M  V30 12897 O 1221.36 5.65816 0.619762 0
M  V30 12898 N 1222.56 5.25184 2.4731 0
M  V30 12899 H 1225.33 2.8787 -0.833711 0
M  V30 12900 H 1222.89 1.50832 -0.588323 0
M  V30 12901 H 1224.88 3.73987 1.54648 0
M  V30 12902 H 1223.45 2.67943 1.61014 0
M  V30 12903 H 1222.67 3.90293 -0.553594 0
M  V30 12904 H 1223.96 5.08192 -0.248707 0
M  V30 12905 H 1223.35 4.84302 2.92349 0
M  V30 12906 H 1221.91 5.76905 3.03355 0
M  V30 12907 N 1225.34 0.486708 1.49896 0
M  V30 12908 C 1226.31 -0.288126 2.27382 0
M  V30 12909 C 1227.31 -0.906675 1.32801 0
M  V30 12910 O 1228.5 -0.773425 1.56089 0
M  V30 12911 C 1225.63 -1.41194 3.10285 0
M  V30 12912 H 1226.82 0.391618 2.97332 0
M  V30 12913 H 1224.38 0.24123 1.54427 0
M  V30 12914 H 1225.11 -2.12627 2.44868 0
M  V30 12915 H 1224.9 -0.974033 3.79809 0
M  V30 12916 H 1226.39 -1.95812 3.68846 0
M  V30 12917 N 1226.82 -1.56058 0.219941 0
M  V30 12918 C 1228.07 -1.9826 -0.412197 0
M  V30 12919 C 1228.4 -1.10754 -1.59887 0
M  V30 12920 O 1227.65 -0.15212 -1.95108 0
M  V30 12921 C 1227.95 -3.46113 -0.8911 0
M  V30 12922 C 1227.62 -4.50521 0.184877 0
M  V30 12923 C 1226.28 -4.78795 0.480462 0
M  V30 12924 C 1228.63 -5.13147 0.912652 0
M  V30 12925 C 1225.96 -5.66979 1.50837 0
M  V30 12926 C 1228.31 -6.02444 1.92988 0
M  V30 12927 C 1226.98 -6.29063 2.2324 0
M  V30 12928 H 1226.25 -0.725486 -0.150834 0
M  V30 12929 H 1228.89 -1.88771 0.322122 0
M  V30 12930 H 1227.2 -3.52797 -1.70415 0
M  V30 12931 H 1228.9 -3.76137 -1.39003 0
M  V30 12932 H 1225.49 -4.28564 -0.0556594 0
M  V30 12933 H 1229.67 -4.91374 0.697532 0
M  V30 12934 H 1224.93 -5.85868 1.74839 0
M  V30 12935 H 1229.1 -6.50022 2.49889 0
M  V30 12936 H 1226.73 -6.97191 3.03032 0
M  V30 12937 N 1228.3 0.053464 -1.57509 0
M  V30 12938 C 1229.53 0.760429 -1.92096 0
M  V30 12939 C 1229.94 1.70703 -0.815905 0
M  V30 12940 O 1229.28 1.82398 0.218332 0
M  V30 12941 C 1229.34 1.59255 -3.22301 0
M  V30 12942 C 1229.01 0.813355 -4.49704 0
M  V30 12943 C 1230.01 0.124402 -5.19751 0
M  V30 12944 C 1227.69 0.775106 -4.96284 0
M  V30 12945 C 1229.68 -0.59237 -6.34641 0
M  V30 12946 C 1227.37 0.0545728 -6.11076 0
M  V30 12947 C 1228.37 -0.627948 -6.80107 0
M  V30 12948 O 1228.06 -1.33683 -7.92707 0
M  V30 12949 H 1227.79 0.220287 -0.639101 0
M  V30 12950 H 1230.34 0.0224505 -2.05388 0
M  V30 12951 H 1228.57 2.37376 -3.05269 0
M  V30 12952 H 1230.26 2.17987 -3.42398 0
M  V30 12953 H 1231.03 0.145141 -4.84783 0
M  V30 12954 H 1226.91 1.29583 -4.42413 0
M  V30 12955 H 1230.45 -1.12565 -6.88458 0
M  V30 12956 H 1226.35 0.0318254 -6.45492 0
M  V30 12957 H 1227.12 -1.24799 -8.0893 0
M  V30 12958 N 1229.78 1.54207 0.325255 0
M  V30 12959 C 1230.74 1.82757 1.38321 0
M  V30 12960 C 1231.74 0.699312 1.44797 0
M  V30 12961 O 1232.93 0.96762 1.44854 0
M  V30 12962 C 1230.06 1.98608 2.7707 0
M  V30 12963 H 1231.26 2.7728 1.14261 0
M  V30 12964 H 1228.81 1.45899 0.560647 0
M  V30 12965 H 1229.55 1.0629 3.06387 0
M  V30 12966 H 1229.33 2.80707 2.73763 0
M  V30 12967 H 1230.82 2.2215 3.53609 0
M  V30 12968 N 1231.26 -0.58723 1.46251 0
M  V30 12969 C 1232.53 -1.34727 1.41802 0
M  V30 12970 C 1232.91 -2.10867 0.0991354 0
M  V30 12971 O 1232.26 -2.09194 -0.919242 0
M  V30 12972 C 1232.47 -2.27706 2.64482 0
M  V30 12973 C 1233.82 -2.89678 3.10438 0
M  V30 12974 O 1234.84 -2.38021 2.64999 0
M  V30 12975 O 1233.7 -3.83493 3.89352 0
M  V30 12976 H 1230.8 -0.605119 0.563702 0
M  V30 12977 H 1233.34 -0.608623 1.5841 0
M  V30 12978 H 1232.12 -1.70842 3.52035 0
M  V30 12979 H 1231.74 -3.08918 2.50311 0
M  V30 12980 N 1232.74 -1.33881 -0.831482 0
M  V30 12981 C 1234.15 -1.23112 -1.40358 0
M  V30 12982 C 1234.5 0.146944 -1.95649 0
M  V30 12983 O 1233.62 1.04689 -1.89391 0
M  V30 12984 C 1234.22 -2.22899 -2.5515 0
M  V30 12985 C 1232.78 -2.15946 -3.08292 0
M  V30 12986 C 1231.92 -2.09975 -1.81124 0
M  V30 12987 H 1234.87 -1.45372 -0.63661 0
M  V30 12988 H 1234.9 -1.841 -3.32997 0
M  V30 12989 H 1234.41 -3.23186 -2.14878 0
M  V30 12990 H 1232.51 -1.18987 -3.53091 0
M  V30 12991 H 1232.62 -3.06822 -3.67964 0
M  V30 12992 H 1230.99 -1.55564 -2.01673 0
M  V30 12993 H 1231.77 -3.12082 -1.43037 0
M  V30 12994 N 1234.21 1.05064 -1.1747 0
M  V30 12995 C 1235.44 1.82299 -0.98903 0
M  V30 12996 C 1235.86 1.82441 0.457907 0
M  V30 12997 O 1235.22 1.23433 1.32793 0
M  V30 12998 C 1235.27 3.26239 -1.53624 0
M  V30 12999 O 1234.37 4.05507 -0.750857 0
M  V30 13000 H 1233.71 0.563601 -0.35107 0
M  V30 13001 H 1236.24 1.32386 -1.55997 0
M  V30 13002 H 1236.25 3.77038 -1.55906 0
M  V30 13003 H 1234.93 3.25451 -2.58949 0
M  V30 13004 H 1233.51 3.64227 -0.799548 0
M  V30 13005 N 1235.69 0.975146 1.23809 0
M  V30 13006 C 1236.94 0.636678 1.91388 0
M  V30 13007 C 1237.25 -0.832876 1.76982 0
M  V30 13008 O 1238.46 -1.28218 2.39316 0
M  V30 13009 C 1236.92 1.08813 3.43057 0
M  V30 13010 C 1236.52 2.58165 3.66135 0
M  V30 13011 C 1238.27 0.823154 4.16443 0
M  V30 13012 C 1236.17 2.97004 5.11412 0
M  V30 13013 H 1235.1 0.234424 0.716632 0
M  V30 13014 H 1237.76 1.18235 1.40331 0
M  V30 13015 H 1236.14 0.470709 3.93192 0
M  V30 13016 H 1237.31 3.25101 3.26567 0
M  V30 13017 H 1235.63 2.82353 3.06049 0
M  V30 13018 H 1238.22 1.08925 5.23488 0
M  V30 13019 H 1238.57 -0.240705 4.15604 0
M  V30 13020 H 1239.1 1.4019 3.72279 0
M  V30 13021 H 1235.84 4.02492 5.17378 0
M  V30 13022 H 1235.36 2.34759 5.51949 0
M  V30 13023 H 1237.04 2.8732 5.79704 0
M  V30 13024 N 1237.17 -1.38817 0.746158 0
M  V30 13025 C 1238.1 -2.33144 0.128836 0
M  V30 13026 C 1239.08 -1.54487 -0.711873 0
M  V30 13027 O 1240.27 -1.82836 -0.654577 0
M  V30 13028 C 1237.4 -3.38639 -0.770772 0
M  V30 13029 C 1236.35 -4.27987 -0.0333669 0
M  V30 13030 C 1235.68 -5.24274 -1.05073 0
M  V30 13031 C 1236.98 -5.09915 1.13066 0
M  V30 13032 H 1238.67 -2.85019 0.916778 0
M  V30 13033 H 1236.22 -1.37039 0.442306 0
M  V30 13034 H 1238.17 -4.03587 -1.21225 0
M  V30 13035 H 1236.89 -2.8523 -1.59095 0
M  V30 13036 H 1235.55 -3.64534 0.388612 0
M  V30 13037 H 1235.2 -4.67156 -1.86478 0
M  V30 13038 H 1234.9 -5.84906 -0.562037 0
M  V30 13039 H 1236.42 -5.92099 -1.49169 0
M  V30 13040 H 1237.84 -5.68145 0.767084 0
M  V30 13041 H 1236.23 -5.79744 1.54972 0
M  V30 13042 H 1237.3 -4.4409 1.94709 0
M  V30 13043 N 1238.65 -0.49465 -1.49636 0
M  V30 13044 C 1239.88 0.0490417 -2.06542 0
M  V30 13045 C 1240.29 1.31945 -1.35599 0
M  V30 13046 O 1239.63 1.78691 -0.426047 0
M  V30 13047 C 1239.69 0.379426 -3.57492 0
M  V30 13048 C 1239.35 -0.792345 -4.50079 0
M  V30 13049 C 1240.35 -1.68106 -4.91972 0
M  V30 13050 C 1238.04 -0.98935 -4.9246 0
M  V30 13051 C 1240.03 -2.75099 -5.74978 0
M  V30 13052 C 1237.72 -2.06247 -5.75244 0
M  V30 13053 C 1238.72 -2.94163 -6.16407 0
M  V30 13054 O 1238.4 -3.99623 -6.97536 0
M  V30 13055 H 1238.14 -0.0143708 -0.675847 0
M  V30 13056 H 1240.69 -0.689358 -1.93486 0
M  V30 13057 H 1238.92 1.17133 -3.68533 0
M  V30 13058 H 1240.61 0.860979 -3.96664 0
M  V30 13059 H 1241.37 -1.54065 -4.59879 0
M  V30 13060 H 1237.25 -0.314435 -4.59926 0
M  V30 13061 H 1240.8 -3.4375 -6.07027 0
M  V30 13062 H 1236.69 -2.20285 -6.06749 0
M  V30 13063 H 1237.46 -3.96899 -7.15831 0
M  V30 13064 N 1240.13 1.55939 -0.228214 0
M  V30 13065 C 1241.37 1.97652 0.402067 0
M  V30 13066 C 1241.69 1.11911 1.60422 0
M  V30 13067 O 1242.89 1.43552 2.30445 0
M  V30 13068 C 1241.35 3.51638 0.766724 0
M  V30 13069 C 1240.96 4.46092 -0.412991 0
M  V30 13070 C 1242.7 4.02049 1.36224 0
M  V30 13071 C 1240.61 5.91394 -0.0255281 0
M  V30 13072 H 1239.54 0.738107 0.153994 0
M  V30 13073 H 1242.19 1.8059 -0.32548 0
M  V30 13074 H 1240.57 3.64325 1.55188 0
M  V30 13075 H 1241.75 4.45156 -1.19049 0
M  V30 13076 H 1240.06 4.0606 -0.92218 0
M  V30 13077 H 1242.66 5.08111 1.66514 0
M  V30 13078 H 1243 3.48292 2.28032 0
M  V30 13079 H 1243.53 3.92612 0.640378 0
M  V30 13080 H 1240.27 6.49149 -0.910269 0
M  V30 13081 H 1239.79 5.95509 0.716149 0
M  V30 13082 H 1241.47 6.4577 0.398839 0
M  V30 13083 N 1241.6 -0.0451101 1.57535 0
M  V30 13084 C 1242.83 -0.755068 1.93167 0
M  V30 13085 C 1243.25 -1.68949 0.826915 0
M  V30 13086 O 1242.61 -1.79978 -0.218534 0
M  V30 13087 C 1242.66 -1.50201 3.27829 0
M  V30 13088 O 1241.76 -2.61434 3.18945 0
M  V30 13089 H 1241.11 -0.204219 0.631815 0
M  V30 13090 H 1243.64 -0.00537504 2.04599 0
M  V30 13091 H 1243.65 -1.87547 3.6234 0
M  V30 13092 H 1242.32 -0.816591 4.07805 0
M  V30 13093 H 1240.9 -2.26749 2.96039 0
M  V30 13094 N 1243.08 -1.54377 -0.317073 0
M  V30 13095 C 1244.01 -1.8721 -1.39552 0
M  V30 13096 C 1244.99 -0.729483 -1.53664 0
M  V30 13097 O 1246.18 -0.983799 -1.67437 0
M  V30 13098 C 1243.31 -2.1052 -2.76222 0
M  V30 13099 C 1242.26 -3.26366 -2.76892 0
M  V30 13100 C 1241.59 -3.35061 -4.16699 0
M  V30 13101 C 1242.89 -4.63862 -2.40061 0
M  V30 13102 H 1244.58 -2.77532 -1.12323 0
M  V30 13103 H 1242.13 -1.33536 -0.538897 0
M  V30 13104 H 1244.08 -2.32073 -3.51739 0
M  V30 13105 H 1242.81 -1.16953 -3.04942 0
M  V30 13106 H 1241.46 -3.0471 -2.03831 0
M  V30 13107 H 1241.11 -2.39041 -4.4257 0
M  V30 13108 H 1240.81 -4.12923 -4.18053 0
M  V30 13109 H 1242.34 -3.58856 -4.94019 0
M  V30 13110 H 1243.75 -4.85252 -3.05292 0
M  V30 13111 H 1242.15 -5.44321 -2.52655 0
M  V30 13112 H 1243.22 -4.6567 -1.35202 0
M  V30 13113 N 1244.56 0.579466 -1.4656 0
M  V30 13114 C 1245.51 1.68327 -1.53785 0
M  V30 13115 C 1246.49 1.55887 -0.398512 0
M  V30 13116 O 1247.69 1.64746 -0.647119 0
M  V30 13117 C 1244.82 3.07113 -1.53416 0
M  V30 13118 C 1243.9 3.24839 -2.72655 0
M  V30 13119 N 1244.29 3.12711 -3.97549 0
M  V30 13120 C 1242.59 3.55786 -2.68947 0
M  V30 13121 C 1243.29 3.32528 -4.77284 0
M  V30 13122 N 1242.27 3.57834 -4.09214 0
M  V30 13123 H 1246.07 1.57486 -2.48144 0
M  V30 13124 H 1243.58 0.783591 -1.42245 0
M  V30 13125 H 1245.58 3.86338 -1.5668 0
M  V30 13126 H 1244.24 3.19083 -0.601365 0
M  V30 13127 H 1245.25 2.90508 -4.28749 0
M  V30 13128 H 1241.93 3.7442 -1.84705 0
M  V30 13129 H 1243.32 3.28308 -5.86228 0
M  V30 13130 N 1246.04 1.3432 0.824371 0
M  V30 13131 C 1247.45 1.1397 1.11727 0
M  V30 13132 C 1247.65 -0.0597597 2.01411 0
M  V30 13133 O 1246.71 -0.735717 2.41544 0
M  V30 13134 C 1248.02 2.43423 1.76538 0
M  V30 13135 C 1249.57 2.49466 1.89039 0
M  V30 13136 C 1250.05 3.78917 2.57266 0
M  V30 13137 N 1251.54 3.8007 2.64767 0
M  V30 13138 C 1252.27 4.76953 3.18282 0
M  V30 13139 N 1251.77 5.84217 3.72373 0
M  V30 13140 N 1253.56 4.6441 3.1667 0
M  V30 13141 H 1245.71 2.11175 0.227802 0
M  V30 13142 H 1247.98 0.933774 0.163615 0
M  V30 13143 H 1247.68 3.31278 1.18102 0
M  V30 13144 H 1247.56 2.56655 2.7642 0
M  V30 13145 H 1249.94 1.62052 2.46623 0
M  V30 13146 H 1250.02 2.40163 0.880635 0
M  V30 13147 H 1249.67 4.6672 2.00336 0
M  V30 13148 H 1249.6 3.85502 3.58742 0
M  V30 13149 H 1252.09 3.02556 2.26425 0
M  V30 13150 H 1252.4 6.54159 4.11455 0
M  V30 13151 H 1250.75 5.87933 3.70621 0
M  V30 13152 H 1253.94 3.7976 2.73678 0
M  V30 13153 H 1254.11 5.40081 3.58073 0
M  V30 13154 N 1247.52 -1.0444 1.18026 0
M  V30 13155 C 1248.75 -1.80971 0.996642 0
M  V30 13156 C 1249.15 -1.83568 -0.458192 0
M  V30 13157 O 1248.5 -1.26713 -1.33002 0
M  V30 13158 C 1248.56 -3.28051 1.47048 0
M  V30 13159 C 1248.22 -3.49122 2.94895 0
M  V30 13160 C 1249.22 -3.40621 3.92777 0
M  V30 13161 C 1246.91 -3.7584 3.33241 0
M  V30 13162 C 1248.9 -3.58535 5.27002 0
M  V30 13163 C 1246.59 -3.93402 4.6763 0
M  V30 13164 C 1247.58 -3.84749 5.6432 0
M  V30 13165 O 1247.27 -4.01813 6.96277 0
M  V30 13166 H 1247 -0.576873 0.352411 0
M  V30 13167 H 1249.56 -1.32542 1.56913 0
M  V30 13168 H 1247.79 -3.77431 0.841609 0
M  V30 13169 H 1249.48 -3.8613 1.25135 0
M  V30 13170 H 1250.24 -3.19948 3.64497 0
M  V30 13171 H 1246.12 -3.81674 2.58545 0
M  V30 13172 H 1249.67 -3.51698 6.02457 0
M  V30 13173 H 1245.56 -4.13568 4.95613 0
M  V30 13174 H 1246.33 -4.18995 7.03126 0
M  V30 13175 N 1248.99 -0.981699 -1.2329 0
M  V30 13176 C 1250.27 -0.567659 -1.87182 0
M  V30 13177 C 1250.65 0.955194 -1.88253 0
M  V30 13178 O 1250 1.83245 -1.36504 0
M  V30 13179 C 1250.21 -1.17522 -3.28618 0
M  V30 13180 C 1251.56 -1.26877 -4.052 0
M  V30 13181 O 1252.58 -1.12877 -3.37842 0
M  V30 13182 O 1251.44 -1.49163 -5.2575 0
M  V30 13183 H 1248.53 -0.191315 -0.804567 0
M  V30 13184 H 1251.08 -1.07686 -1.31155 0
M  V30 13185 H 1249.85 -2.21735 -3.22411 0
M  V30 13186 H 1249.48 -0.650913 -3.92236 0
M  V30 13187 N 1250.47 1.3842 -0.753509 0
M  V30 13188 C 1251.38 2.34252 -0.127811 0
M  V30 13189 C 1252.4 1.59266 0.700743 0
M  V30 13190 O 1253.57 1.9146 0.624914 0
M  V30 13191 C 1250.64 3.38382 0.754886 0
M  V30 13192 C 1249.7 4.2921 -0.0880312 0
M  V30 13193 C 1248.93 5.28367 0.75263 0
M  V30 13194 O 1249.16 5.34537 1.99064 0
M  V30 13195 O 1248.09 6.01656 0.171475 0
M  V30 13196 H 1251.92 2.89454 -0.91925 0
M  V30 13197 H 1249.5 1.40265 -0.514404 0
M  V30 13198 H 1251.38 4.02141 1.25938 0
M  V30 13199 H 1250.06 2.85536 1.52482 0
M  V30 13200 H 1248.97 3.68611 -0.638468 0
M  V30 13201 H 1250.3 4.85311 -0.82062 0
M  V30 13202 N 1251.95 0.502579 1.49372 0
M  V30 13203 C 1253.2 -0.0412993 2.02058 0
M  V30 13204 C 1253.52 -1.37338 1.38431 0
M  V30 13205 O 1252.79 -1.88305 0.540175 0
M  V30 13206 H 1251.37 -0.0182522 0.746777 0
M  V30 13207 H 1254.03 0.660179 1.83378 0
M  V30 13208 H 1253.13 -0.169812 3.11638 0
M  V30 13209 N 1253.43 -1.55816 0.23648 0
M  V30 13210 C 1254.38 -2.22322 -0.68378 0
M  V30 13211 C 1255.37 -1.2074 -1.1882 0
M  V30 13212 O 1256.58 -1.38781 -1.14629 0
M  V30 13213 H 1252.95 -0.713021 -0.238966 0
M  V30 13214 H 1254.92 -2.98234 -0.0995879 0
M  V30 13215 C 1253.67 -2.92845 -1.87449 0
M  V30 13216 H 1252.99 -3.70777 -1.49548 0
M  V30 13217 H 1254.43 -3.42758 -2.49585 0
M  V30 13218 C 1252.89 -1.96139 -2.73918 0
M  V30 13219 O 1253.42 -1.48781 -3.73132 0
M  V30 13220 N 1251.63 -1.63465 -2.40266 0
M  V30 13221 H 1251.18 -2.02171 -1.59639 0
M  V30 13222 H 1251.13 -0.990239 -2.98398 0
M  V30 13223 N 1254.91 0.036755 -1.57557 0
M  V30 13224 C 1256.15 0.729106 -1.88919 0
M  V30 13225 C 1256.48 1.75769 -0.832801 0
M  V30 13226 O 1255.74 1.94985 0.167173 0
M  V30 13227 C 1256.04 1.44206 -3.27016 0
M  V30 13228 C 1255.7 0.550184 -4.47531 0
M  V30 13229 C 1254.36 0.304511 -4.80236 0
M  V30 13230 C 1256.72 -0.0660664 -5.21158 0
M  V30 13231 C 1254.04 -0.566316 -5.8396 0
M  V30 13232 C 1256.4 -0.92455 -6.25807 0
M  V30 13233 C 1255.06 -1.17976 -6.56992 0
M  V30 13234 H 1254.33 0.266799 -0.691303 0
M  V30 13235 H 1256.98 -0.0108698 -1.91497 0
M  V30 13236 H 1255.28 2.25516 -3.2039 0
M  V30 13237 H 1256.98 1.98317 -3.48527 0
M  V30 13238 H 1253.57 0.751814 -4.21955 0
M  V30 13239 H 1257.75 0.110784 -4.96176 0
M  V30 13240 H 1253.01 -0.772428 -6.06501 0
M  V30 13241 H 1257.18 -1.40861 -6.82005 0
M  V30 13242 H 1254.81 -1.85627 -7.37188 0
M  V30 13243 N 1256.39 1.54543 0.308881 0
M  V30 13244 C 1257.63 1.73449 1.04506 0
M  V30 13245 C 1257.96 0.516034 1.8753 0
M  V30 13246 O 1257.22 -0.502106 1.89149 0
M  V30 13247 C 1257.51 2.97124 1.98626 0
M  V30 13248 C 1257.18 4.31256 1.31641 0
M  V30 13249 C 1255.84 4.67719 1.13105 0
M  V30 13250 C 1258.19 5.14437 0.836888 0
M  V30 13251 C 1255.52 5.84949 0.452878 0
M  V30 13252 C 1257.87 6.32365 0.172473 0
M  V30 13253 C 1256.54 6.67495 -0.0249143 0
M  V30 13254 H 1255.81 0.634697 0.382415 0
M  V30 13255 H 1258.46 1.88795 0.320714 0
M  V30 13256 H 1256.76 2.76526 2.77562 0
M  V30 13257 H 1258.46 3.08946 2.55643 0
M  V30 13258 H 1255.05 4.02576 1.47074 0
M  V30 13259 H 1259.23 4.86772 0.967834 0
M  V30 13260 H 1254.49 6.10717 0.288886 0
M  V30 13261 H 1258.66 6.96092 -0.207027 0
M  V30 13262 H 1256.29 7.5819 -0.552425 0
M  V30 13263 N 1257.86 -0.571685 1.46866 0
M  V30 13264 C 1259.27 -1.15383 1.46778 0
M  V30 13265 C 1259.63 -1.95023 0.214576 0
M  V30 13266 O 1258.75 -2.05386 -0.681574 0
M  V30 13267 C 1259.35 -2.09915 2.65935 0
M  V30 13268 C 1257.9 -2.6343 2.68852 0
M  V30 13269 C 1257.05 -1.39517 2.39646 0
M  V30 13270 H 1260 -0.359036 1.54585 0
M  V30 13271 H 1260.02 -2.9356 2.42081 0
M  V30 13272 H 1259.54 -1.51923 3.57129 0
M  V30 13273 H 1257.64 -3.2526 1.8176 0
M  V30 13274 H 1257.75 -3.05412 3.69134 0
M  V30 13275 H 1256.11 -1.69702 1.8993 0
M  V30 13276 H 1256.9 -0.833399 3.33031 0
M  V30 13277 N 1259.34 -1.34755 -0.817236 0
M  V30 13278 C 1260.59 -1.2718 -1.57066 0
M  V30 13279 C 1260.91 0.156531 -1.94371 0
M  V30 13280 O 1260.18 1.09049 -1.62742 0
M  V30 13281 H 1258.76 -0.467755 -0.582421 0
M  V30 13282 H 1261.42 -1.68734 -0.975438 0
M  V30 13283 H 1260.52 -1.88043 -2.49091 0
M  V30 13284 N 1260.82 1.03812 -1.18578 0
M  V30 13285 C 1262.04 1.8124 -1.00831 0
M  V30 13286 C 1262.47 1.82917 0.43853 0
M  V30 13287 O 1261.83 1.24835 1.31476 0
M  V30 13288 C 1261.88 3.24592 -1.57075 0
M  V30 13289 O 1260.98 4.04688 -0.793824 0
M  V30 13290 H 1260.32 0.559846 -0.357028 0
M  V30 13291 H 1262.85 1.30724 -1.57393 0
M  V30 13292 H 1262.86 3.75363 -1.59896 0
M  V30 13293 H 1261.54 3.22686 -2.62387 0
M  V30 13294 H 1260.11 3.63359 -0.838134 0
M  V30 13295 N 1262.3 0.988223 1.22768 0
M  V30 13296 C 1263.55 0.660154 1.91014 0
M  V30 13297 C 1263.87 -0.809788 1.77391 0
M  V30 13298 O 1263.14 -1.57998 1.15817 0
M  V30 13299 H 1261.72 0.24118 0.706995 0
M  V30 13300 H 1264.38 1.25372 1.49224 0
M  V30 13301 H 1263.47 0.918603 2.98275 0
M  V30 13302 N 1263.78 -1.38018 0.760839 0
M  V30 13303 C 1264.74 -2.28734 0.146154 0
M  V30 13304 C 1265.74 -1.47525 -0.639768 0
M  V30 13305 O 1266.93 -1.6788 -0.464964 0
M  V30 13306 C 1264.06 -3.31356 -0.801019 0
M  V30 13307 H 1265.25 -2.84599 0.945692 0
M  V30 13308 H 1262.81 -1.471 0.528323 0
M  V30 13309 H 1263.54 -2.80594 -1.62597 0
M  V30 13310 H 1263.33 -3.91366 -0.239775 0
M  V30 13311 H 1264.82 -3.99171 -1.22687 0
M  V30 13312 N 1265.25 -0.510493 -1.49103 0
M  V30 13313 C 1266.66 -0.0650831 -1.86587 0
M  V30 13314 C 1267.02 1.35185 -1.42195 0
M  V30 13315 O 1266.14 2.0091 -0.804004 0
M  V30 13316 C 1266.74 -0.111333 -3.38617 0
M  V30 13317 C 1265.29 0.278782 -3.75366 0
M  V30 13318 C 1264.44 -0.479707 -2.73119 0
M  V30 13319 H 1267.39 -0.722784 -1.41285 0
M  V30 13320 H 1267.41 0.681706 -3.74343 0
M  V30 13321 H 1266.93 -1.14271 -3.70896 0
M  V30 13322 H 1265.03 1.31304 -3.48698 0
M  V30 13323 H 1265.14 -0.047271 -4.79077 0
M  V30 13324 H 1263.5 0.0716459 -2.54599 0
M  V30 13325 H 1264.29 -1.51135 -3.08242 0
M  V30 13326 N 1266.73 1.55688 -0.24474 0
M  V30 13327 C 1267.68 2.22682 0.67198 0
M  V30 13328 C 1268.67 1.21369 1.18178 0
M  V30 13329 O 1269.88 1.39387 1.13892 0
M  V30 13330 H 1266.25 0.714279 0.235181 0
M  V30 13331 H 1268.23 2.98282 0.0837704 0
M  V30 13332 C 1266.97 2.93835 1.85893 0
M  V30 13333 H 1266.3 3.71565 1.4758 0
M  V30 13334 H 1267.74 3.44077 2.47764 0
M  V30 13335 C 1266.2 1.97589 2.72874 0
M  V30 13336 O 1266.73 1.50758 3.72337 0
M  V30 13337 N 1264.93 1.64737 2.39395 0
M  V30 13338 H 1264.48 2.03015 1.58564 0
M  V30 13339 H 1264.44 1.00605 2.97869 0
M  V30 13340 N 1268.21 -0.0283989 1.57574 0
M  V30 13341 C 1269.12 -1.04575 2.10003 0
M  V30 13342 C 1270.14 -1.39588 1.03881 0
M  V30 13343 O 1271.31 -1.48894 1.35619 0
M  V30 13344 C 1268.38 -2.32755 2.56955 0
M  V30 13345 C 1267.44 -2.04317 3.77562 0
M  V30 13346 C 1266.67 -3.26385 4.22266 0
M  V30 13347 O 1266.89 -4.37082 3.66491 0
M  V30 13348 O 1265.83 -3.12046 5.14695 0
M  V30 13349 H 1269.65 -0.630183 2.9709 0
M  V30 13350 H 1267.24 -0.245423 1.4737 0
M  V30 13351 H 1269.12 -3.08111 2.87482 0
M  V30 13352 H 1267.8 -2.73605 1.72979 0
M  V30 13353 H 1266.7 -1.26527 3.52054 0
M  V30 13354 H 1268.04 -1.68321 4.62524 0
M  V30 13355 N 1269.69 -1.54705 -0.300681 0
M  V30 13356 C 1270.93 -1.74259 -1.03738 0
M  V30 13357 C 1271.27 -0.52703 -1.86912 0
M  V30 13358 O 1270.54 0.475862 -1.88589 0
M  V30 13359 C 1270.82 -3.03175 -1.94311 0
M  V30 13360 C 1270.68 -4.35031 -1.14315 0
M  V30 13361 C 1272 -3.27962 -2.93478 0
M  V30 13362 H 1269.12 -0.634031 -0.37573 0
M  V30 13363 H 1271.76 -1.87421 -0.312012 0
M  V30 13364 H 1269.91 -2.92086 -2.5616 0
M  V30 13365 H 1271.58 -4.5804 -0.547489 0
M  V30 13366 H 1269.82 -4.31503 -0.44587 0
M  V30 13367 H 1270.49 -5.21502 -1.80941 0
M  V30 13368 H 1272.97 -3.38663 -2.41757 0
M  V30 13369 H 1271.85 -4.19481 -3.54016 0
M  V30 13370 H 1272.11 -2.46273 -3.67154 0
M  V30 13371 N 1271.17 0.563888 -1.47167 0
M  V30 13372 C 1272.41 1.31875 -1.53145 0
M  V30 13373 C 1272.74 1.94047 -0.192518 0
M  V30 13374 O 1272.01 1.79577 0.782872 0
M  V30 13375 H 1270.59 0.489694 -0.5641 0
M  V30 13376 H 1273.25 0.658976 -1.83422 0
M  V30 13377 H 1272.34 2.11574 -2.2944 0
M  V30 13378 N 1272.64 1.35187 0.810078 0
M  V30 13379 C 1273.87 1.31371 1.59841 0
M  V30 13380 C 1274.29 -0.109547 1.88482 0
M  V30 13381 O 1273.64 -1.06047 1.48527 0
M  V30 13382 C 1273.7 2.11496 2.93175 0
M  V30 13383 O 1273.42 3.48273 2.65777 0
M  V30 13384 C 1274.92 2.15226 3.87547 0
M  V30 13385 H 1272.14 0.451428 0.496441 0
M  V30 13386 H 1274.68 1.7799 1.00697 0
M  V30 13387 H 1272.84 1.68486 3.48843 0
M  V30 13388 H 1273.25 3.89845 3.50886 0
M  V30 13389 H 1274.72 2.75687 4.78226 0
M  V30 13390 H 1275.2 1.15007 4.23875 0
M  V30 13391 H 1275.81 2.58382 3.37815 0
M  V30 13392 N 1274.12 -1.03182 1.19127 0
M  V30 13393 C 1275.37 -1.76184 0.990134 0
M  V30 13394 C 1275.69 -1.88986 -0.480546 0
M  V30 13395 O 1274.96 -1.4213 -1.34817 0
M  V30 13396 H 1273.54 -0.652668 0.363364 0
M  V30 13397 H 1276.2 -1.24481 1.49968 0
M  V30 13398 H 1275.3 -2.77119 1.43568 0
M  V30 13399 N 1275.6 -0.99472 -1.22242 0
M  V30 13400 C 1276.53 -0.566499 -2.26524 0
M  V30 13401 C 1277.51 0.407541 -1.65146 0
M  V30 13402 O 1278.7 0.297777 -1.91903 0
M  V30 13403 C 1275.83 0.11786 -3.471 0
M  V30 13404 C 1274.78 -0.774908 -4.20927 0
M  V30 13405 C 1274.11 0.0424687 -5.34683 0
M  V30 13406 C 1275.41 -2.07263 -4.79416 0
M  V30 13407 H 1277.1 -1.43818 -2.62596 0
M  V30 13408 H 1274.65 -0.692971 -1.2623 0
M  V30 13409 H 1276.6 0.428842 -4.19212 0
M  V30 13410 H 1275.32 1.0241 -3.10129 0
M  V30 13411 H 1273.98 -1.06956 -3.50651 0
M  V30 13412 H 1273.63 0.949677 -4.93954 0
M  V30 13413 H 1273.33 -0.551867 -5.85003 0
M  V30 13414 H 1274.85 0.347504 -6.0961 0
M  V30 13415 H 1276.27 -1.82548 -5.4346 0
M  V30 13416 H 1274.67 -2.61594 -5.40082 0
M  V30 13417 H 1275.74 -2.75017 -3.99366 0
M  V30 13418 N 1277.08 1.37613 -0.768148 0
M  V30 13419 C 1278.33 1.99384 -0.330187 0
M  V30 13420 C 1278.65 1.61283 1.09604 0
M  V30 13421 O 1277.92 0.876551 1.75195 0
M  V30 13422 H 1276.5 0.737445 -0.119095 0
M  V30 13423 H 1279.16 1.6815 -0.985476 0
M  V30 13424 H 1278.26 3.09462 -0.40494 0
M  V30 13425 N 1278.56 0.518393 1.4883 0
M  V30 13426 C 1279.47 -0.254811 2.33212 0
M  V30 13427 C 1280.48 -0.950401 1.45751 0
M  V30 13428 O 1281.66 -0.927932 1.78749 0
M  V30 13429 C 1278.72 -1.29509 3.21603 0
M  V30 13430 C 1277.78 -0.611086 4.24928 0
M  V30 13431 C 1277.02 -1.6018 5.09095 0
M  V30 13432 O 1277.24 -2.83336 4.95052 0
M  V30 13433 O 1276.17 -1.14756 5.90859 0
M  V30 13434 H 1280 0.436329 3.00549 0
M  V30 13435 H 1277.59 0.27947 1.46763 0
M  V30 13436 H 1279.47 -1.89654 3.7631 0
M  V30 13437 H 1278.14 -1.96884 2.5694 0
M  V30 13438 H 1277.05 0.0305638 3.74088 0
M  V30 13439 H 1278.38 0.0205249 4.92196 0
M  V30 13440 N 1280.03 -1.55556 0.252993 0
M  V30 13441 C 1281.28 -1.98697 -0.369319 0
M  V30 13442 C 1281.6 -1.14256 -1.58021 0
M  V30 13443 O 1280.87 -0.226779 -1.94583 0
M  V30 13444 H 1279.45 -0.733869 -0.139444 0
M  V30 13445 H 1282.12 -1.91673 0.353197 0
M  V30 13446 H 1281.21 -3.04728 -0.674312 0
M  V30 13447 N 1281.51 0.0200419 -1.57587 0
M  V30 13448 C 1282.74 0.719511 -1.93666 0
M  V30 13449 C 1283.15 1.68934 -0.85193 0
M  V30 13450 O 1282.49 1.8282 0.179593 0
M  V30 13451 C 1282.56 1.52382 -3.25607 0
M  V30 13452 C 1282.22 0.717784 -4.51328 0
M  V30 13453 C 1283.22 0.0141272 -5.19898 0
M  V30 13454 C 1280.9 0.669662 -4.97816 0
M  V30 13455 C 1282.9 -0.726853 -6.33242 0
M  V30 13456 C 1280.58 -0.0750577 -6.11054 0
M  V30 13457 C 1281.58 -0.772067 -6.78622 0
M  V30 13458 O 1281.27 -1.50468 -7.89693 0
M  V30 13459 H 1281 0.206681 -0.643629 0
M  V30 13460 H 1283.55 -0.0211203 -2.05389 0
M  V30 13461 H 1281.78 2.30848 -3.10236 0
M  V30 13462 H 1283.47 2.10675 -3.46945 0
M  V30 13463 H 1284.24 0.0422784 -4.84982 0
M  V30 13464 H 1280.12 1.20169 -4.45062 0
M  V30 13465 H 1283.66 -1.27143 -6.85916 0
M  V30 13466 H 1279.56 -0.1051 -6.45414 0
M  V30 13467 H 1280.33 -1.41929 -8.06101 0
M  V30 13468 N 1282.99 1.54862 0.292472 0
M  V30 13469 C 1283.94 1.87168 1.38097 0
M  V30 13470 C 1284.93 0.746176 1.52081 0
M  V30 13471 O 1286.14 0.930281 1.54097 0
M  V30 13472 H 1282.51 0.593769 0.461456 0
M  V30 13473 H 1284.48 2.78135 1.0809 0
M  V30 13474 C 1283.23 2.14315 2.73796 0
M  V30 13475 H 1282.56 3.00398 2.63821 0
M  V30 13476 H 1284 2.40853 3.48949 0
M  V30 13477 C 1282.46 0.944424 3.23392 0
M  V30 13478 O 1282.99 0.169208 4.01343 0
M  V30 13479 N 1281.19 0.747456 2.80823 0
M  V30 13480 H 1280.74 1.37953 2.17547 0
M  V30 13481 H 1280.7 -0.0530199 3.14355 0
M  V30 13482 N 1284.47 -0.556076 1.47464 0
M  V30 13483 C 1285.72 -1.30955 1.53407 0
M  V30 13484 C 1286.03 -1.94559 0.201485 0
M  V30 13485 O 1287.24 -2.71144 0.138925 0
M  V30 13486 C 1285.69 -2.37476 2.70431 0
M  V30 13487 C 1285.3 -1.80057 4.10224 0
M  V30 13488 C 1287.04 -3.13997 2.85668 0
M  V30 13489 C 1284.95 -2.84365 5.18547 0
M  V30 13490 H 1283.88 -0.4924 0.571015 0
M  V30 13491 H 1286.53 -0.590459 1.73741 0
M  V30 13492 H 1284.91 -3.12304 2.43479 0
M  V30 13493 H 1286.09 -1.11593 4.47083 0
M  V30 13494 H 1284.4 -1.16116 3.99882 0
M  V30 13495 H 1287 -3.91892 3.63764 0
M  V30 13496 H 1287.34 -3.68253 1.94153 0
M  V30 13497 H 1287.88 -2.46281 3.12395 0
M  V30 13498 H 1284.62 -2.34963 6.11942 0
M  V30 13499 H 1284.14 -3.51235 4.86203 0
M  V30 13500 H 1285.81 -3.47836 5.45545 0
M  V30 13501 N 1285.95 -1.35615 -0.802897 0
M  V30 13502 C 1286.9 -1.28877 -1.93632 0
M  V30 13503 C 1287.89 -0.183014 -1.68408 0
M  V30 13504 O 1289.1 -0.349218 -1.7658 0
M  V30 13505 H 1285.47 -0.400883 -0.636236 0
M  V30 13506 H 1287.44 -2.24624 -1.96435 0
M  V30 13507 C 1286.19 -1.08136 -3.30457 0
M  V30 13508 H 1285.51 -1.92463 -3.50426 0
M  V30 13509 H 1286.95 -1.07464 -4.10155 0
M  V30 13510 C 1285.41 0.214635 -3.36216 0
M  V30 13511 O 1285.94 1.20916 -3.8307 0
M  V30 13512 N 1284.15 0.25468 -2.89482 0
M  V30 13513 H 1283.7 -0.555239 -2.51545 0
M  V30 13514 H 1283.65 1.12152 -2.93716 0
M  V30 13515 N 1287.43 1.02549 -1.19673 0
M  V30 13516 C 1288.67 1.75408 -0.995732 0
M  V30 13517 C 1288.99 1.89773 0.473863 0
M  V30 13518 O 1290.19 2.59638 0.793762 0
M  V30 13519 C 1288.65 3.15444 -1.73273 0
M  V30 13520 C 1288.26 3.09121 -3.24266 0
M  V30 13521 C 1290 3.92575 -1.61509 0
M  V30 13522 C 1287.91 4.44109 -3.9054 0
M  V30 13523 H 1286.84 0.657569 -0.368944 0
M  V30 13524 H 1289.49 1.14739 -1.43203 0
M  V30 13525 H 1287.87 3.76601 -1.22425 0
M  V30 13526 H 1289.05 2.57325 -3.82257 0
M  V30 13527 H 1287.36 2.45485 -3.36342 0
M  V30 13528 H 1289.96 4.92428 -2.08372 0
M  V30 13529 H 1290.3 4.12382 -0.569804 0
M  V30 13530 H 1290.83 3.38027 -2.09721 0
M  V30 13531 H 1287.57 4.29506 -4.95182 0
M  V30 13532 H 1287.09 4.95947 -3.37337 0
M  V30 13533 H 1288.77 5.12982 -3.94282 0
M  V30 13534 N 1288.9 1.00119 1.21713 0
M  V30 13535 C 1289.87 0.563409 2.22167 0
M  V30 13536 C 1290.87 -0.35819 1.5676 0
M  V30 13537 O 1292.06 -0.149001 1.73562 0
M  V30 13538 C 1289.19 -0.179365 3.40428 0
M  V30 13539 H 1290.38 1.45189 2.62412 0
M  V30 13540 H 1287.93 0.789286 1.34907 0
M  V30 13541 H 1288.67 -1.08345 3.05666 0
M  V30 13542 H 1288.45 0.482471 3.8912 0
M  V30 13543 H 1289.94 -0.473537 4.14906 0
M  V30 13544 N 1290.38 -1.37203 0.775435 0
M  V30 13545 C 1291.63 -2.00349 0.350965 0
M  V30 13546 C 1291.98 -1.6045 -1.06176 0
M  V30 13547 O 1291.28 -0.842377 -1.72089 0
M  V30 13548 C 1291.47 -3.54725 0.436426 0
M  V30 13549 C 1291.3 -4.09617 1.85591 0
M  V30 13550 C 1290.07 -4.404 2.47741 0
M  V30 13551 C 1292.27 -4.30357 2.81598 0
M  V30 13552 N 1290.25 -4.81029 3.81424 0
M  V30 13553 C 1291.62 -4.73636 4.00087 0
M  V30 13554 C 1293.67 -4.12498 2.78837 0
M  V30 13555 C 1292.38 -5.00926 5.16203 0
M  V30 13556 C 1294.4 -4.40926 3.9413 0
M  V30 13557 C 1293.77 -4.84448 5.1136 0
M  V30 13558 H 1289.86 -0.762041 0.175549 0
M  V30 13559 H 1292.45 -1.66451 1.01005 0
M  V30 13560 H 1290.62 -3.87923 -0.192502 0
M  V30 13561 H 1292.35 -4.04699 -0.0104534 0
M  V30 13562 H 1289.11 -4.2961 1.9933 0
M  V30 13563 H 1289.53 -5.05648 4.50166 0
M  V30 13564 H 1294.17 -3.78018 1.89373 0
M  V30 13565 H 1291.89 -5.34293 6.06265 0
M  V30 13566 H 1295.48 -4.28692 3.93338 0
M  V30 13567 H 1294.36 -5.06022 5.99092 0
M  V30 13568 N 1291.86 -0.526279 -1.48553 0
M  V30 13569 C 1293.09 0.0052277 -2.06899 0
M  V30 13570 C 1293.5 1.2849 -1.38332 0
M  V30 13571 O 1292.86 1.76354 -0.469648 0
M  V30 13572 C 1292.91 0.236709 -3.60724 0
M  V30 13573 O 1292.63 -0.992256 -4.26715 0
M  V30 13574 C 1294.13 0.809014 -4.35855 0
M  V30 13575 H 1291.35 -0.0318426 -0.670244 0
M  V30 13576 H 1293.9 -0.730865 -1.90994 0
M  V30 13577 H 1292.05 0.922842 -3.76248 0
M  V30 13578 H 1292.47 -0.770697 -5.18807 0
M  V30 13579 H 1293.94 0.920428 -5.44272 0
M  V30 13580 H 1294.42 1.81302 -4.00033 0
M  V30 13581 H 1295.02 0.159564 -4.25001 0
M  V30 13582 N 1293.34 1.5542 -0.261239 0
M  V30 13583 C 1294.59 1.9889 0.358777 0
M  V30 13584 C 1294.91 1.15092 1.57413 0
M  V30 13585 O 1294.18 0.237095 1.9446 0
M  V30 13586 H 1292.76 0.734599 0.13555 0
M  V30 13587 H 1295.42 1.91483 -0.363357 0
M  V30 13588 H 1294.51 3.05082 0.658142 0
M  V30 13589 N 1294.82 -0.0116844 1.57596 0
M  V30 13590 C 1296.06 -0.697577 1.89679 0
M  V30 13591 C 1296.38 -1.74956 0.861122 0
M  V30 13592 O 1295.65 -1.95629 -0.103031 0
M  V30 13593 H 1294.23 -0.26064 0.700054 0
M  V30 13594 H 1296.9 0.0264782 1.94882 0
M  V30 13595 H 1295.99 -1.17621 2.89088 0
M  V30 13596 N 1296.29 -1.55015 -0.284256 0
M  V30 13597 C 1297.22 -1.90128 -1.3555 0
M  V30 13598 C 1298.2 -0.761914 -1.52082 0
M  V30 13599 O 1299.39 -1.01909 -1.65312 0
M  V30 13600 C 1296.52 -2.16332 -2.71695 0
M  V30 13601 C 1295.47 -3.32166 -2.69907 0
M  V30 13602 C 1294.8 -3.43824 -4.09498 0
M  V30 13603 C 1296.1 -4.6885 -2.30168 0
M  V30 13604 H 1297.79 -2.79852 -1.06411 0
M  V30 13605 H 1295.34 -1.34649 -0.510451 0
M  V30 13606 H 1297.29 -2.39482 -3.46737 0
M  V30 13607 H 1296.02 -1.23395 -3.02392 0
M  V30 13608 H 1294.68 -3.08965 -1.97322 0
M  V30 13609 H 1294.32 -2.48375 -4.374 0
M  V30 13610 H 1294.02 -4.21698 -4.092 0
M  V30 13611 H 1295.55 -3.69254 -4.86296 0
M  V30 13612 H 1296.96 -4.91619 -2.9493 0
M  V30 13613 H 1295.36 -5.49558 -2.41052 0
M  V30 13614 H 1296.43 -4.68433 -1.25294 0
M  V30 13615 N 1297.77 0.548248 -1.47757 0
M  V30 13616 C 1299.05 1.3092 -1.45325 0
M  V30 13617 C 1299.43 2.1053 -0.155008 0
M  V30 13618 O 1298.78 2.11558 0.863455 0
M  V30 13619 C 1298.99 2.20614 -2.70426 0
M  V30 13620 C 1300.33 2.81345 -3.18009 0
M  V30 13621 O 1301.36 2.30911 -2.71216 0
M  V30 13622 O 1300.22 3.73036 -3.99383 0
M  V30 13623 H 1297.31 0.58996 -0.579548 0
M  V30 13624 H 1299.86 0.56641 -1.59968 0
M  V30 13625 H 1298.63 1.61449 -3.56441 0
M  V30 13626 H 1298.25 3.02173 -2.58413 0
M  V30 13627 N 1299.25 1.36039 0.795694 0
M  V30 13628 C 1300.66 1.2679 1.37044 0
M  V30 13629 C 1301.01 -0.0950192 1.9597 0
M  V30 13630 O 1300.14 -0.996311 1.921 0
M  V30 13631 C 1300.73 2.29585 2.49151 0
M  V30 13632 C 1299.29 2.24044 3.02458 0
M  V30 13633 C 1298.44 2.14703 1.75493 0
M  V30 13634 H 1301.39 1.47009 0.597843 0
M  V30 13635 H 1301.41 1.92864 3.27999 0
M  V30 13636 H 1300.92 3.28769 2.06234 0
M  V30 13637 H 1299.02 1.28307 3.49812 0
M  V30 13638 H 1299.14 3.1647 3.597 0
M  V30 13639 H 1297.5 1.60856 1.97478 0
M  V30 13640 H 1298.28 3.15765 1.34713 0
M  V30 13641 N 1300.73 -1.01913 1.20215 0
M  V30 13642 C 1302.14 -1.5692 1.01159 0
M  V30 13643 C 1302.49 -1.91368 -0.432746 0
M  V30 13644 O 1301.62 -1.71959 -1.31374 0
M  V30 13645 C 1302.21 -2.85125 1.83001 0
M  V30 13646 C 1300.77 -3.36669 1.68318 0
M  V30 13647 C 1299.92 -2.10003 1.81091 0
M  V30 13648 H 1302.87 -0.843246 1.34443 0
M  V30 13649 H 1302.89 -3.56428 1.33188 0
M  V30 13650 H 1302.4 -2.60021 2.88116 0
M  V30 13651 H 1300.5 -3.66739 0.658292 0
M  V30 13652 H 1300.61 -4.09042 2.49442 0
M  V30 13653 H 1298.98 -2.22337 1.24252 0
M  V30 13654 H 1299.76 -1.87329 2.87685 0
M  V30 13655 N 1302.21 -1.00763 -1.2118 0
M  V30 13656 C 1303.14 -0.515053 -2.22312 0
M  V30 13657 C 1304.12 0.432665 -1.56738 0
M  V30 13658 O 1305.3 0.35477 -1.85131 0
M  V30 13659 C 1302.43 0.251544 -3.37765 0
M  V30 13660 C 1301.47 -0.64437 -4.21604 0
M  V30 13661 S 1302.31 -2.10832 -4.9225 0
M  V30 13662 C 1303.46 -1.35163 -6.11132 0
M  V30 13663 H 1303.7 -1.37198 -2.6375 0
M  V30 13664 H 1301.23 -0.815783 -1.31089 0
M  V30 13665 H 1303.19 0.687761 -4.04698 0
M  V30 13666 H 1301.85 1.08393 -2.94805 0
M  V30 13667 H 1301.04 -0.0537452 -5.03971 0
M  V30 13668 H 1300.64 -1.01798 -3.5988 0
M  V30 13669 H 1302.94 -0.6269 -6.74593 0
M  V30 13670 H 1303.88 -2.15111 -6.74635 0
M  V30 13671 H 1304.29 -0.858444 -5.57935 0
M  V30 13672 N 1303.68 1.3679 -0.7827 0
M  V30 13673 C 1304.93 1.99023 -0.351316 0
M  V30 13674 C 1305.25 1.62436 1.07887 0
M  V30 13675 O 1304.52 0.895084 1.74256 0
M  V30 13676 H 1303.1 0.736141 -0.126909 0
M  V30 13677 H 1305.77 1.67095 -1.00325 0
M  V30 13678 H 1304.86 3.09015 -0.43774 0
M  V30 13679 N 1305.16 0.53415 1.48272 0
M  V30 13680 C 1306.44 -0.0630181 1.95498 0
M  V30 13681 C 1306.82 -1.50877 1.47646 0
M  V30 13682 O 1306.17 -2.17358 0.704829 0
M  V30 13683 C 1306.38 0.0585475 3.48951 0
M  V30 13684 C 1307.73 -0.0985978 4.24486 0
M  V30 13685 O 1308.75 -0.0150438 3.56197 0
M  V30 13686 O 1307.61 -0.274356 5.45811 0
M  V30 13687 H 1304.7 -0.0769841 0.823409 0
M  V30 13688 H 1307.25 0.599043 1.58775 0
M  V30 13689 H 1306.02 1.06549 3.76514 0
M  V30 13690 H 1305.64 -0.642175 3.9238 0
M  V30 13691 N 1306.64 -1.55279 0.269478 0
M  V30 13692 C 1307.89 -1.99767 -0.34943 0
M  V30 13693 C 1308.22 -1.15762 -1.55926 0
M  V30 13694 O 1307.49 -0.22633 -1.93179 0
M  V30 13695 C 1307.78 -3.52474 -0.73716 0
M  V30 13696 C 1307.63 -4.47236 0.479621 0
M  V30 13697 C 1308.95 -4.10924 -1.57573 0
M  V30 13698 H 1306.07 -0.72623 -0.125535 0
M  V30 13699 H 1308.71 -1.86257 0.375298 0
M  V30 13700 H 1306.86 -3.64118 -1.35464 0
M  V30 13701 H 1308.53 -4.47543 1.11816 0
M  V30 13702 H 1306.78 -4.19127 1.11871 0
M  V30 13703 H 1307.45 -5.51754 0.164653 0
M  V30 13704 H 1309.92 -4.02522 -1.05429 0
M  V30 13705 H 1308.8 -5.17995 -1.81584 0
M  V30 13706 H 1309.06 -3.60798 -2.55495 0
M  V30 13707 N 1308.12 0.00332656 -1.576 0
M  V30 13708 C 1309.03 1.01221 -2.1164 0
M  V30 13709 C 1310.04 1.37918 -1.06088 0
M  V30 13710 O 1311.22 1.46717 -1.37971 0
M  V30 13711 C 1308.29 2.28638 -2.60626 0
M  V30 13712 C 1307.35 1.98284 -3.80765 0
M  V30 13713 C 1306.58 3.19626 -4.27405 0
M  V30 13714 O 1306.8 4.31196 -3.73398 0
M  V30 13715 O 1305.74 3.03819 -5.19594 0
M  V30 13716 H 1309.56 0.582839 -2.98055 0
M  V30 13717 H 1307.15 0.221947 -1.47742 0
M  V30 13718 H 1309.03 3.03498 -2.92347 0
M  V30 13719 H 1307.7 2.70819 -1.7731 0
M  V30 13720 H 1306.61 1.2091 -3.54022 0
M  V30 13721 H 1307.94 1.60942 -4.65144 0
M  V30 13722 N 1309.6 1.55164 0.276031 0
M  V30 13723 C 1310.83 1.79388 1.02486 0
M  V30 13724 C 1311.23 0.565884 1.80539 0
M  V30 13725 O 1310.58 -0.47449 1.77466 0
M  V30 13726 C 1310.64 2.96494 2.03302 0
M  V30 13727 C 1310.3 4.33649 1.44214 0
M  V30 13728 C 1311.3 5.12749 0.859355 0
M  V30 13729 C 1308.99 4.80301 1.47026 0
M  V30 13730 C 1310.98 6.36633 0.312548 0
M  V30 13731 C 1308.67 6.04141 0.919587 0
M  V30 13732 C 1309.66 6.82145 0.341729 0
M  V30 13733 O 1309.35 8.0365 -0.200517 0
M  V30 13734 H 1309.08 0.601454 0.308592 0
M  V30 13735 H 1311.64 2.02999 0.313148 0
M  V30 13736 H 1309.87 2.68568 2.78223 0
M  V30 13737 H 1311.56 3.08069 2.64288 0
M  V30 13738 H 1312.32 4.77839 0.830353 0
M  V30 13739 H 1308.2 4.19597 1.90942 0
M  V30 13740 H 1311.75 6.97461 -0.139131 0
M  V30 13741 H 1307.64 6.38533 0.945819 0
M  V30 13742 H 1308.41 8.18451 -0.0895877 0
M  V30 13743 N 1311.07 -0.540404 1.48045 0
M  V30 13744 C 1312 -1.65538 1.6468 0
M  V30 13745 C 1312.99 -1.62713 0.495847 0
M  V30 13746 O 1314.17 -1.80072 0.727172 0
M  V30 13747 C 1311.3 -3.0415 1.67661 0
M  V30 13748 C 1310.25 -3.2183 2.82152 0
M  V30 13749 C 1309.58 -4.61397 2.70216 0
M  V30 13750 C 1310.88 -3.05596 4.23567 0
M  V30 13751 H 1312.57 -1.51873 2.58021 0
M  V30 13752 H 1310.12 -0.729208 1.24171 0
M  V30 13753 H 1312.07 -3.82013 1.77887 0
M  V30 13754 H 1310.8 -3.18814 0.708907 0
M  V30 13755 H 1309.46 -2.4638 2.71463 0
M  V30 13756 H 1309.1 -4.72883 1.71437 0
M  V30 13757 H 1308.8 -4.74174 3.47035 0
M  V30 13758 H 1310.33 -5.41374 2.82395 0
M  V30 13759 H 1311.74 -3.73261 4.35143 0
M  V30 13760 H 1310.14 -3.29871 5.01303 0
M  V30 13761 H 1311.21 -2.0214 4.40758 0
M  V30 13762 N 1312.55 -1.36459 -0.788468 0
M  V30 13763 C 1313.46 -1.33017 -1.93245 0
M  V30 13764 C 1314.48 -0.232212 -1.72444 0
M  V30 13765 O 1315.65 -0.464743 -1.95965 0
M  V30 13766 C 1312.72 -1.1197 -3.28121 0
M  V30 13767 C 1311.78 -2.3125 -3.61693 0
M  V30 13768 C 1311.01 -2.11197 -4.90134 0
M  V30 13769 O 1311.24 -1.08764 -5.59934 0
M  V30 13770 O 1310.17 -2.98996 -5.22384 0
M  V30 13771 H 1314 -2.29333 -1.99098 0
M  V30 13772 H 1311.58 -1.17016 -0.928856 0
M  V30 13773 H 1313.46 -1.02154 -4.08831 0
M  V30 13774 H 1312.14 -0.187171 -3.23158 0
M  V30 13775 H 1311.05 -2.46635 -2.81286 0
M  V30 13776 H 1312.38 -3.23012 -3.71381 0
M  V30 13777 N 1314.03 1.01274 -1.20754 0
M  V30 13778 C 1314.99 2.08056 -0.961528 0
M  V30 13779 C 1315.99 1.60671 0.0644461 0
M  V30 13780 O 1317.18 1.73349 -0.172022 0
M  V30 13781 C 1314.32 3.37938 -0.448381 0
M  V30 13782 H 1315.51 2.31314 -1.90877 0
M  V30 13783 H 1313.06 1.18133 -1.02344 0
M  V30 13784 H 1313.8 3.20357 0.504144 0
M  V30 13785 H 1313.58 3.73659 -1.18833 0
M  V30 13786 H 1315.07 4.16551 -0.295876 0
M  V30 13787 N 1315.51 1.01404 1.20644 0
M  V30 13788 C 1316.76 0.701909 1.89946 0
M  V30 13789 C 1317.08 -0.768212 1.78686 0
M  V30 13790 O 1316.34 -1.57348 1.16363 0
M  V30 13791 C 1316.64 1.07995 3.40693 0
M  V30 13792 C 1316.3 2.54585 3.72152 0
M  V30 13793 C 1314.97 2.94639 3.80449 0
M  V30 13794 C 1317.32 3.49497 3.86654 0
M  V30 13795 C 1314.65 4.2855 4.00702 0
M  V30 13796 C 1317 4.83093 4.08416 0
M  V30 13797 C 1315.66 5.22857 4.14942 0
M  V30 13798 H 1314.93 0.256847 0.695062 0
M  V30 13799 H 1317.58 1.27415 1.4296 0
M  V30 13800 H 1315.88 0.426089 3.89476 0
M  V30 13801 H 1317.58 0.816176 3.92606 0
M  V30 13802 H 1314.17 2.22548 3.66292 0
M  V30 13803 H 1318.36 3.19713 3.79602 0
M  V30 13804 H 1313.61 4.58916 4.03988 0
M  V30 13805 H 1317.79 5.56565 4.18579 0
M  V30 13806 H 1315.41 6.26634 4.30388 0
M  V30 13807 N 1316.99 -1.36373 0.789944 0
M  V30 13808 C 1318.4 -1.52471 0.471686 0
M  V30 13809 C 1318.6 -1.74365 -1.0099 0
M  V30 13810 O 1317.66 -1.77546 -1.79538 0
M  V30 13811 C 1318.97 -2.71022 1.30259 0
M  V30 13812 C 1320.52 -2.84893 1.29633 0
M  V30 13813 C 1321 -4.0645 2.11098 0
M  V30 13814 N 1322.49 -4.13597 2.08547 0
M  V30 13815 C 1323.22 -5.06731 2.6835 0
M  V30 13816 N 1322.72 -6.05305 3.37013 0
M  V30 13817 N 1324.51 -4.9935 2.58081 0
M  V30 13818 H 1316.66 -1.20416 1.74968 0
M  V30 13819 H 1318.92 -0.587782 0.743785 0
M  V30 13820 H 1318.63 -2.61368 2.35329 0
M  V30 13821 H 1318.5 -3.6519 0.944254 0
M  V30 13822 H 1320.89 -2.94009 0.253542 0
M  V30 13823 H 1320.97 -1.91632 1.69443 0
M  V30 13824 H 1320.62 -3.98096 3.15408 0
M  V30 13825 H 1320.55 -4.98861 1.68659 0
M  V30 13826 H 1323.04 -3.4302 1.58573 0
M  V30 13827 H 1323.35 -6.72934 3.79974 0
M  V30 13828 H 1321.7 -6.05529 3.41116 0
M  V30 13829 H 1324.89 -4.21291 2.04039 0
M  V30 13830 H 1325.06 -5.71745 3.04979 0
M  V30 13831 N 1318.47 -0.542005 -1.47987 0
M  V30 13832 C 1319.69 -0.016717 -2.06893 0
M  V30 13833 C 1320.11 1.27015 -1.39687 0
M  V30 13834 O 1319.47 1.75845 -0.488326 0
M  V30 13835 C 1319.52 0.198437 -3.60955 0
M  V30 13836 O 1319.24 -1.03746 -4.25639 0
M  V30 13837 C 1320.74 0.762741 -4.36689 0
M  V30 13838 H 1317.96 -0.0389497 -0.669869 0
M  V30 13839 H 1320.5 -0.751082 -1.90208 0
M  V30 13840 H 1318.66 0.882884 -3.77205 0
M  V30 13841 H 1319.07 -0.82568 -5.1796 0
M  V30 13842 H 1320.55 0.862649 -5.45218 0
M  V30 13843 H 1321.02 1.77049 -4.01933 0
M  V30 13844 H 1321.63 0.114478 -4.25146 0
M  V30 13845 N 1319.94 1.55134 -0.277709 0
M  V30 13846 C 1321.19 1.98831 0.338982 0
M  V30 13847 C 1321.51 1.16958 1.56781 0
M  V30 13848 O 1322.71 1.50811 2.25762 0
M  V30 13849 C 1321.17 3.53899 0.654465 0
M  V30 13850 C 1320.78 4.44553 -0.554703 0
M  V30 13851 C 1322.52 4.06179 1.23364 0
M  V30 13852 C 1320.43 5.91014 -0.213663 0
M  V30 13853 H 1319.36 0.742632 0.130434 0
M  V30 13854 H 1322.01 1.79463 -0.382768 0
M  V30 13855 H 1320.39 3.69078 1.43519 0
M  V30 13856 H 1321.56 4.41143 -1.33151 0
M  V30 13857 H 1319.88 4.02921 -1.0509 0
M  V30 13858 H 1322.48 5.13152 1.50265 0
M  V30 13859 H 1322.82 3.5537 2.16836 0
M  V30 13860 H 1323.35 3.9445 0.515147 0
M  V30 13861 H 1320.09 6.45924 -1.11633 0
M  V30 13862 H 1319.61 5.97486 0.526329 0
M  V30 13863 H 1321.29 6.46712 0.19319 0
M  V30 13864 N 1321.42 0.00503138 1.57599 0
M  V30 13865 C 1322.67 -0.679766 1.91068 0
M  V30 13866 C 1323 -1.73144 0.879486 0
M  V30 13867 O 1322.28 -1.94237 -0.101116 0
M  V30 13868 C 1322.56 -1.3183 3.35101 0
M  V30 13869 C 1322.41 -0.277833 4.48941 0
M  V30 13870 C 1323.73 -2.24308 3.78647 0
M  V30 13871 H 1320.85 -0.245646 0.694857 0
M  V30 13872 H 1323.49 0.057357 1.89913 0
M  V30 13873 H 1321.64 -1.94657 3.36216 0
M  V30 13874 H 1323.31 0.351136 4.59962 0
M  V30 13875 H 1321.56 0.399365 4.31958 0
M  V30 13876 H 1322.23 -0.763759 5.46691 0
M  V30 13877 H 1324.7 -1.71494 3.79116 0
M  V30 13878 H 1323.58 -2.6595 4.80169 0
M  V30 13879 H 1323.84 -3.12427 3.12797 0
M  V30 13880 N 1322.9 -1.55308 -0.267798 0
M  V30 13881 C 1323.85 -1.88544 -1.33115 0
M  V30 13882 C 1324.82 -0.737465 -1.48831 0
M  V30 13883 O 1326 -0.989215 -1.63154 0
M  V30 13884 C 1323.14 -2.1674 -2.68547 0
M  V30 13885 C 1322.25 -3.44234 -2.61011 0
M  V30 13886 C 1321.39 -3.62104 -3.88657 0
M  V30 13887 C 1320.43 -4.83272 -3.75652 0
M  V30 13888 N 1319.57 -4.97772 -4.95144 0
M  V30 13889 H 1324.41 -2.79237 -1.04071 0
M  V30 13890 H 1321.94 -1.38245 -0.502677 0
M  V30 13891 H 1323.9 -2.31088 -3.47353 0
M  V30 13892 H 1322.53 -1.29276 -2.95783 0
M  V30 13893 H 1321.58 -3.3833 -1.73887 0
M  V30 13894 H 1322.89 -4.33177 -2.47303 0
M  V30 13895 H 1322.05 -3.76298 -4.75904 0
M  V30 13896 H 1320.79 -2.71356 -4.05238 0
M  V30 13897 H 1319.79 -4.69076 -2.86788 0
M  V30 13898 H 1321.02 -5.75461 -3.60585 0
M  V30 13899 H 1318.96 -4.09956 -5.12125 0
M  V30 13900 H 1318.88 -5.80769 -4.83987 0
M  V30 13901 H 1320.15 -5.16357 -5.83949 0
M  V30 13902 N 1324.38 0.532545 -1.4833 0
M  V30 13903 C 1325.79 1.11451 -1.49785 0
M  V30 13904 C 1326.14 1.94386 -0.266207 0
M  V30 13905 O 1325.26 2.07121 0.62688 0
M  V30 13906 C 1325.86 2.0279 -2.71407 0
M  V30 13907 C 1324.42 2.56209 -2.75742 0
M  V30 13908 C 1323.57 1.33114 -2.43261 0
M  V30 13909 H 1326.52 0.317924 -1.55483 0
M  V30 13910 H 1326.54 2.87038 -2.49779 0
M  V30 13911 H 1326.05 1.42401 -3.61031 0
M  V30 13912 H 1324.15 3.20327 -1.9032 0
M  V30 13913 H 1324.26 2.95518 -3.77102 0
M  V30 13914 H 1322.63 1.64607 -1.94362 0
M  V30 13915 H 1323.41 0.744809 -3.35123 0
M  V30 13916 N 1325.86 1.36875 0.78122 0
M  V30 13917 C 1327.1 1.31754 1.54171 0
M  V30 13918 C 1327.43 -0.100632 1.93939 0
M  V30 13919 O 1326.71 -1.05587 1.63345 0
M  V30 13920 C 1326.99 2.24789 2.81322 0
M  V30 13921 C 1326.85 3.75342 2.47868 0
M  V30 13922 C 1328.16 2.16442 3.83198 0
M  V30 13923 H 1325.28 0.479931 0.559317 0
M  V30 13924 H 1327.93 1.67497 0.896935 0
M  V30 13925 H 1326.08 1.94438 3.36342 0
M  V30 13926 H 1327.75 4.16247 1.98836 0
M  V30 13927 H 1325.99 3.94375 1.80696 0
M  V30 13928 H 1326.66 4.3586 3.38719 0
M  V30 13929 H 1329.14 2.43175 3.37647 0
M  V30 13930 H 1328.01 2.83695 4.69903 0
M  V30 13931 H 1328.27 1.15431 4.26765 0
M  V30 13932 N 1327.33 -1.00632 1.21289 0
M  V30 13933 C 1328.3 -2.07543 0.972548 0
M  V30 13934 C 1329.3 -1.60703 -0.0559244 0
M  V30 13935 O 1330.49 -1.73255 0.181213 0
M  V30 13936 C 1327.62 -3.37696 0.466297 0
M  V30 13937 H 1328.81 -2.30298 1.92101 0
M  V30 13938 H 1326.36 -1.17588 1.02969 0
M  V30 13939 H 1327.1 -3.2062 -0.487148 0
M  V30 13940 H 1326.88 -3.73024 1.20813 0
M  V30 13941 H 1328.37 -4.16388 0.317962 0
M  V30 13942 N 1328.81 -1.02043 -1.20104 0
M  V30 13943 C 1329.76 -0.593945 -2.23027 0
M  V30 13944 C 1330.73 0.387931 -1.61506 0
M  V30 13945 O 1331.91 0.286504 -1.88637 0
M  V30 13946 C 1329.05 0.0577309 -3.45052 0
M  V30 13947 C 1328.17 -0.969169 -4.20988 0
M  V30 13948 C 1327.3 -0.288143 -5.30418 0
M  V30 13949 C 1326.34 -1.30154 -5.98102 0
M  V30 13950 N 1325.48 -0.646912 -6.99113 0
M  V30 13951 H 1330.32 -1.47623 -2.58866 0
M  V30 13952 H 1327.85 -0.738901 -1.27195 0
M  V30 13953 H 1329.81 0.452726 -4.14736 0
M  V30 13954 H 1328.44 0.90364 -3.09894 0
M  V30 13955 H 1327.49 -1.48229 -3.50332 0
M  V30 13956 H 1328.81 -1.73972 -4.67477 0
M  V30 13957 H 1327.96 0.162149 -6.06483 0
M  V30 13958 H 1326.7 0.514683 -4.84977 0
M  V30 13959 H 1325.7 -1.76218 -5.20795 0
M  V30 13960 H 1326.93 -2.10571 -6.45629 0
M  V30 13961 H 1324.88 0.135976 -6.55859 0
M  V30 13962 H 1324.79 -1.35548 -7.43749 0
M  V30 13963 H 1326.06 -0.220339 -7.79189 0
M  V30 13964 N 1330.29 1.35952 -0.797165 0
M  V30 13965 C 1331.2 2.33726 -0.202271 0
M  V30 13966 C 1332.22 1.61415 0.649719 0
M  V30 13967 O 1333.39 1.93351 0.563686 0
M  V30 13968 C 1330.46 3.40612 0.64685 0
M  V30 13969 C 1329.52 4.28712 -0.224536 0
M  V30 13970 C 1328.75 5.30493 0.584153 0
M  V30 13971 O 1328.97 5.40599 1.81957 0
M  V30 13972 O 1327.91 6.01897 -0.0200239 0
M  V30 13973 H 1331.73 2.86383 -1.01087 0
M  V30 13974 H 1329.32 1.38557 -0.558768 0
M  V30 13975 H 1331.2 4.05944 1.1308 0
M  V30 13976 H 1329.88 2.90243 1.43321 0
M  V30 13977 H 1328.78 3.66394 -0.755415 0
M  V30 13978 H 1330.12 4.82454 -0.974603 0
M  V30 13979 N 1331.77 0.549846 1.47697 0
M  V30 13980 C 1333.02 0.0230503 2.02487 0
M  V30 13981 C 1333.34 -1.32382 1.42497 0
M  V30 13982 O 1332.6 -1.87293 0.567441 0
M  V30 13983 C 1332.9 -0.127268 3.57173 0
M  V30 13984 C 1332.56 1.14777 4.36047 0
M  V30 13985 C 1331.23 1.49716 4.57317 0
M  V30 13986 C 1333.58 1.99302 4.81589 0
M  V30 13987 C 1330.91 2.69042 5.21376 0
M  V30 13988 C 1333.26 3.17824 5.46965 0
M  V30 13989 C 1331.92 3.53086 5.66469 0
M  V30 13990 H 1331.19 0.00843471 0.740952 0
M  V30 13991 H 1333.84 0.719876 1.77454 0
M  V30 13992 H 1332.14 -0.907008 3.81157 0
M  V30 13993 H 1333.84 -0.550103 3.97209 0
M  V30 13994 H 1330.43 0.865703 4.19766 0
M  V30 13995 H 1334.61 1.73618 4.64942 0
M  V30 13996 H 1329.87 2.9654 5.34672 0
M  V30 13997 H 1334.04 3.83612 5.81218 0
M  V30 13998 H 1331.67 4.45643 6.15878 0
M  V30 13999 N 1333.25 -1.54984 0.285932 0
M  V30 14000 C 1334.52 -1.91872 -0.380083 0
M  V30 14001 C 1334.9 -1.21146 -1.72878 0
M  V30 14002 O 1334.25 -0.341999 -2.25926 0
M  V30 14003 C 1334.46 -3.45258 -0.509667 0
M  V30 14004 C 1335.81 -4.17232 -0.787549 0
M  V30 14005 O 1336.83 -3.51211 -0.594062 0
M  V30 14006 O 1335.69 -5.34085 -1.15826 0
M  V30 14007 H 1332.79 -0.799931 -0.209856 0
M  V30 14008 H 1335.33 -1.66403 0.332882 0
M  V30 14009 H 1334.1 -3.88829 0.439049 0
M  V30 14010 H 1333.73 -3.76715 -1.27168 0
M  V30 14011 N 1334.72 -0.0133892 -1.57594 0
M  V30 14012 C 1336.14 0.527615 -1.7909 0
M  V30 14013 C 1336.49 1.73179 -0.922142 0
M  V30 14014 O 1335.61 2.1602 -0.128233 0
M  V30 14015 C 1336.21 0.963949 -3.24798 0
M  V30 14016 C 1334.77 1.45017 -3.47343 0
M  V30 14017 C 1333.91 0.407548 -2.74289 0
M  V30 14018 H 1336.86 -0.239505 -1.56882 0
M  V30 14019 H 1336.88 1.82924 -3.33645 0
M  V30 14020 H 1336.4 0.0873315 -3.88002 0
M  V30 14021 H 1334.5 2.34724 -2.89371 0
M  V30 14022 H 1334.61 1.4684 -4.56043 0
M  V30 14023 H 1332.97 0.872174 -2.39301 0
M  V30 14024 H 1333.76 -0.460333 -3.402 0
M  V30 14025 N 1336.2 1.55448 0.259558 0
M  V30 14026 C 1337.48 1.6742 1.01143 0
M  V30 14027 C 1337.86 0.549525 2.03822 0
M  V30 14028 O 1337.21 -0.448699 2.24051 0
M  V30 14029 C 1337.42 3.07201 1.65616 0
M  V30 14030 C 1338.77 3.6539 2.16277 0
M  V30 14031 O 1339.79 3.0992 1.7558 0
M  V30 14032 O 1338.65 4.62604 2.90963 0
M  V30 14033 H 1335.74 0.680469 0.469991 0
M  V30 14034 H 1338.29 1.67783 0.254348 0
M  V30 14035 H 1337.06 3.80504 0.912819 0
M  V30 14036 H 1336.68 3.10794 2.47977 0
M  V30 14037 N 1337.68 -0.524672 1.4861 0
M  V30 14038 C 1338.61 -1.64555 1.58104 0
M  V30 14039 C 1339.59 -1.56778 0.431205 0
M  V30 14040 O 1340.78 -1.77175 0.643537 0
M  V30 14041 C 1337.9 -3.02979 1.51398 0
M  V30 14042 C 1336.95 -3.29098 2.71287 0
M  V30 14043 S 1337.78 -3.14791 4.33206 0
M  V30 14044 C 1338.94 -4.55652 4.29107 0
M  V30 14045 H 1339.17 -1.56254 2.52927 0
M  V30 14046 H 1336.7 -0.708041 1.37208 0
M  V30 14047 H 1338.66 -3.82809 1.48215 0
M  V30 14048 H 1337.32 -3.08717 0.579026 0
M  V30 14049 H 1336.52 -4.30092 2.62749 0
M  V30 14050 H 1336.12 -2.56949 2.7176 0
M  V30 14051 H 1338.41 -5.47277 3.99367 0
M  V30 14052 H 1339.35 -4.69244 5.30298 0
M  V30 14053 H 1339.76 -4.35223 3.59501 0
M  V30 14054 N 1339.16 -1.37287 -0.77395 0
M  V30 14055 C 1340.4 -1.3257 -1.5347 0
M  V30 14056 C 1340.74 0.090346 -1.9399 0
M  V30 14057 O 1340.01 1.04719 -1.63903 0
M  V30 14058 C 1340.3 -2.26277 -2.80126 0
M  V30 14059 C 1340.15 -3.76651 -2.45874 0
M  V30 14060 C 1341.47 -2.18471 -3.82045 0
M  V30 14061 H 1338.59 -0.48289 -0.556764 0
M  V30 14062 H 1341.23 -1.6797 -0.888039 0
M  V30 14063 H 1339.38 -1.96219 -3.35306 0
M  V30 14064 H 1341.05 -4.17296 -1.96626 0
M  V30 14065 H 1339.29 -3.95327 -1.78602 0
M  V30 14066 H 1339.96 -4.3765 -3.36403 0
M  V30 14067 H 1342.44 -2.44962 -3.36352 0
M  V30 14068 H 1341.32 -2.86183 -4.68392 0
M  V30 14069 H 1341.58 -1.17692 -4.26147 0
M  V30 14070 N 1340.64 0.999871 -1.21821 0
M  V30 14071 C 1341.57 2.10708 -1.00621 0
M  V30 14072 C 1342.55 1.69954 0.0705417 0
M  V30 14073 O 1343.73 1.9399 -0.0903042 0
M  V30 14074 C 1340.86 3.42496 -0.575646 0
M  V30 14075 C 1339.82 3.97068 -1.59754 0
M  V30 14076 C 1339.14 5.24822 -1.02304 0
M  V30 14077 C 1340.44 4.28545 -2.98574 0
M  V30 14078 H 1342.14 2.28701 -1.93226 0
M  V30 14079 H 1339.68 1.09903 -0.930443 0
M  V30 14080 H 1341.64 4.19357 -0.414481 0
M  V30 14081 H 1340.36 3.2431 0.386059 0
M  V30 14082 H 1339.02 3.22332 -1.74636 0
M  V30 14083 H 1338.67 5.02972 -0.0529016 0
M  V30 14084 H 1338.37 5.62299 -1.70567 0
M  V30 14085 H 1339.89 6.04322 -0.873312 0
M  V30 14086 H 1341.3 4.96229 -2.87106 0
M  V30 14087 H 1339.7 4.77178 -3.63897 0
M  V30 14088 H 1340.77 3.36607 -3.49032 0
M  V30 14089 N 1342.11 1.02678 1.19562 0
M  V30 14090 C 1343.36 0.723086 1.89471 0
M  V30 14091 C 1343.69 -0.746269 1.79289 0
M  V30 14092 O 1342.97 -1.54322 1.18384 0
M  V30 14093 C 1343.25 1.17224 3.40486 0
M  V30 14094 C 1343.1 2.70266 3.5955 0
M  V30 14095 C 1344.42 0.751397 4.33638 0
M  V30 14096 H 1341.54 0.264155 0.688034 0
M  V30 14097 H 1344.18 1.27633 1.40747 0
M  V30 14098 H 1342.33 0.701544 3.82113 0
M  V30 14099 H 1344.01 3.25266 3.27108 0
M  V30 14100 H 1342.25 3.10758 3.02675 0
M  V30 14101 H 1342.92 2.96748 4.65451 0
M  V30 14102 H 1345.4 1.15621 3.99714 0
M  V30 14103 H 1344.27 1.09358 5.37896 0
M  V30 14104 H 1344.53 -0.346367 4.40741 0
M  V30 14105 N 1343.59 -1.35528 0.804364 0
M  V30 14106 C 1344.82 -2.03604 0.395013 0
M  V30 14107 C 1345.24 -1.60225 -0.985371 0
M  V30 14108 O 1344.6 -0.777844 -1.63766 0
M  V30 14109 C 1344.65 -3.57337 0.484011 0
M  V30 14110 O 1343.75 -4.09316 -0.503395 0
M  V30 14111 H 1343.09 -0.643089 0.165325 0
M  V30 14112 H 1345.62 -1.73171 1.08963 0
M  V30 14113 H 1345.63 -4.0647 0.353009 0
M  V30 14114 H 1344.31 -3.8826 1.49088 0
M  V30 14115 H 1342.89 -3.71412 -0.332817 0
M  V30 14116 N 1345.07 -0.557671 -1.47404 0
M  V30 14117 C 1346.03 0.179311 -2.28498 0
M  V30 14118 C 1347.03 0.842281 -1.36975 0
M  V30 14119 O 1348.22 0.698072 -1.59601 0
M  V30 14120 C 1345.36 1.26229 -3.16668 0
M  V30 14121 H 1346.55 -0.533033 -2.95125 0
M  V30 14122 H 1344.1 -0.314634 -1.531 0
M  V30 14123 H 1344.84 2.00702 -2.54733 0
M  V30 14124 H 1344.62 0.791712 -3.84024 0
M  V30 14125 H 1346.11 1.77991 -3.77768 0
M  V30 14126 N 1346.55 1.54831 -0.294147 0
M  V30 14127 C 1347.8 1.99606 0.316509 0
M  V30 14128 C 1348.12 1.18405 1.54936 0
M  V30 14129 O 1347.39 0.278289 1.93913 0
M  V30 14130 H 1345.97 0.737309 0.119938 0
M  V30 14131 H 1348.63 1.90669 -0.403891 0
M  V30 14132 H 1347.73 3.06409 0.593282 0
M  V30 14133 N 1348.03 0.0217466 1.57585 0
M  V30 14134 C 1349.27 -0.658487 1.91495 0
M  V30 14135 C 1349.6 -1.72557 0.897462 0
M  V30 14136 O 1348.86 -1.95471 -0.0946909 0
M  V30 14137 C 1349.16 -1.3197 3.32143 0
M  V30 14138 C 1348.82 -0.383706 4.49264 0
M  V30 14139 C 1347.48 -0.126065 4.81035 0
M  V30 14140 C 1349.84 0.259445 5.20554 0
M  V30 14141 C 1347.16 0.782659 5.81456 0
M  V30 14142 C 1349.52 1.15618 6.21945 0
M  V30 14143 C 1348.18 1.42278 6.5216 0
M  V30 14144 H 1347.45 -0.240958 0.700729 0
M  V30 14145 H 1350.1 0.0819351 1.91325 0
M  V30 14146 H 1348.4 -2.13469 3.28539 0
M  V30 14147 H 1350.1 -1.85245 3.55648 0
M  V30 14148 H 1346.69 -0.59469 4.24454 0
M  V30 14149 H 1350.87 0.073445 4.96246 0
M  V30 14150 H 1346.13 0.996995 6.03216 0
M  V30 14151 H 1350.3 1.66077 6.76307 0
M  V30 14152 H 1347.93 2.1286 7.29791 0
M  V30 14153 N 1349.51 -1.55583 -0.251311 0
M  V30 14154 C 1350.78 -1.67954 -1.00254 0
M  V30 14155 C 1351.16 -0.560326 -2.03528 0
M  V30 14156 O 1350.51 0.436811 -2.24286 0
M  V30 14157 C 1350.72 -3.08075 -1.63985 0
M  V30 14158 C 1352.07 -3.66531 -2.14336 0
M  V30 14159 O 1353.09 -3.10846 -1.73934 0
M  V30 14160 O 1351.95 -4.64141 -2.88506 0
M  V30 14161 H 1349.05 -0.682952 -0.466375 0
M  V30 14162 H 1351.59 -1.67916 -0.245447 0
M  V30 14163 H 1350.36 -3.80983 -0.892627 0
M  V30 14164 H 1349.99 -3.12105 -2.46325 0
M  V30 14165 N 1350.98 0.516783 -1.48886 0
M  V30 14166 C 1351.95 1.60226 -1.63891 0
M  V30 14167 C 1352.95 1.52448 -0.511479 0
M  V30 14168 O 1354.14 1.55882 -0.777582 0
M  V30 14169 C 1351.27 2.99867 -1.62151 0
M  V30 14170 H 1352.46 1.48256 -2.60692 0
M  V30 14171 H 1350.01 0.739844 -1.37681 0
M  V30 14172 H 1350.75 3.1733 -0.668764 0
M  V30 14173 H 1350.53 3.0692 -2.44013 0
M  V30 14174 H 1352.02 3.7876 -1.7587 0
M  V30 14175 N 1352.46 1.37696 0.766659 0
M  V30 14176 C 1353.39 1.36576 1.89392 0
M  V30 14177 C 1354.37 0.233597 1.68488 0
M  V30 14178 O 1355.56 0.434719 1.89272 0
M  V30 14179 C 1352.69 1.17705 3.26746 0
M  V30 14180 C 1351.64 2.27987 3.62224 0
M  V30 14181 C 1350.97 1.94235 4.98174 0
M  V30 14182 C 1352.27 3.70195 3.68447 0
M  V30 14183 H 1353.96 2.30905 1.90587 0
M  V30 14184 H 1351.51 1.11148 0.915538 0
M  V30 14185 H 1353.46 1.15551 4.05248 0
M  V30 14186 H 1352.18 0.198334 3.25997 0
M  V30 14187 H 1350.84 2.29306 2.86032 0
M  V30 14188 H 1350.49 0.948796 4.93971 0
M  V30 14189 H 1350.19 2.68086 5.2288 0
M  V30 14190 H 1351.72 1.93676 5.7907 0
M  V30 14191 H 1353.13 3.70978 4.37091 0
M  V30 14192 H 1351.53 4.43142 4.04654 0
M  V30 14193 H 1352.6 4.03453 2.68986 0
M  V30 14194 N 1353.94 -0.993397 1.22349 0
M  V30 14195 C 1354.85 -2.11771 1.00947 0
M  V30 14196 C 1355.87 -1.73949 -0.0420679 0
M  V30 14197 O 1357.04 -2.00837 0.150548 0
M  V30 14198 C 1354.11 -3.41654 0.589359 0
M  V30 14199 C 1353.17 -3.93579 1.71446 0
M  V30 14200 C 1352.4 -5.17264 1.3143 0
M  V30 14201 O 1352.62 -5.70074 0.192876 0
M  V30 14202 O 1351.56 -5.62929 2.13059 0
M  V30 14203 H 1355.38 -2.32708 1.95142 0
M  V30 14204 H 1352.97 -1.10144 1.00939 0
M  V30 14205 H 1354.85 -4.19813 0.365403 0
M  V30 14206 H 1353.53 -3.22077 -0.323738 0
M  V30 14207 H 1352.43 -3.16596 1.99294 0
M  V30 14208 H 1353.77 -4.17588 2.6054 0
M  V30 14209 N 1355.42 -1.03311 -1.19015 0
M  V30 14210 C 1356.67 -0.730593 -1.88432 0
M  V30 14211 C 1356.99 0.743392 -1.80274 0
M  V30 14212 O 1356.26 1.5359 -1.21601 0
M  V30 14213 H 1354.84 -0.267253 -0.697556 0
M  V30 14214 H 1357.5 -1.30824 -1.44468 0
M  V30 14215 H 1356.59 -1.02867 -2.9466 0
M  V30 14216 N 1356.9 1.35099 -0.81154 0
M  V30 14217 C 1357.85 2.27139 -0.197958 0
M  V30 14218 C 1358.83 1.48006 0.631116 0
M  V30 14219 O 1360.02 1.70152 0.487562 0
M  V30 14220 C 1357.15 3.37118 0.648577 0
M  V30 14221 C 1356.24 4.23672 -0.190498 0
M  V30 14222 N 1356.63 4.89959 -1.25594 0
M  V30 14223 C 1354.93 4.45992 0.0270572 0
M  V30 14224 C 1355.63 5.54161 -1.76862 0
M  V30 14225 N 1354.6 5.32879 -1.07428 0
M  V30 14226 H 1358.4 2.75886 -1.01311 0
M  V30 14227 H 1355.92 1.48685 -0.653195 0
M  V30 14228 H 1357.92 4.0201 1.10423 0
M  V30 14229 H 1356.58 2.89922 1.46202 0
M  V30 14230 H 1357.59 4.91293 -1.63864 0
M  V30 14231 H 1354.26 4.09582 0.809248 0
M  V30 14232 H 1355.65 6.17032 -2.65935 0
M  V30 14233 N 1358.37 0.56548 1.47106 0
M  V30 14234 C 1359.6 0.0496298 2.0684 0
M  V30 14235 C 1360.02 -1.24777 1.4169 0
M  V30 14236 O 1359.37 -1.75046 0.516239 0
M  V30 14237 C 1359.42 -0.140987 3.61225 0
M  V30 14238 O 1359.15 1.10504 4.23934 0
M  V30 14239 C 1360.65 -0.693171 4.37847 0
M  V30 14240 H 1357.87 0.0496018 0.669164 0
M  V30 14241 H 1360.41 0.781247 1.88989 0
M  V30 14242 H 1358.57 -0.822762 3.78562 0
M  V30 14243 H 1358.98 0.907978 5.16581 0
M  V30 14244 H 1360.45 -0.7758 5.46521 0
M  V30 14245 H 1360.93 -1.70632 4.04699 0
M  V30 14246 H 1361.54 -0.046826 4.25274 0
M  V30 14247 N 1359.85 -1.54672 0.302354 0
M  V30 14248 C 1361.26 -1.85731 -0.190019 0
M  V30 14249 C 1361.61 -1.22427 -1.53317 0
M  V30 14250 O 1360.74 -0.522461 -2.09998 0
M  V30 14251 C 1361.33 -3.36971 -0.351562 0
M  V30 14252 C 1359.89 -3.68056 -0.788155 0
M  V30 14253 C 1359.04 -2.7711 0.102705 0
M  V30 14254 H 1361.99 -1.49823 0.523324 0
M  V30 14255 H 1362.01 -3.61547 -1.18592 0
M  V30 14256 H 1361.52 -3.83016 0.626152 0
M  V30 14257 H 1359.63 -3.2753 -1.77637 0
M  V30 14258 H 1359.74 -4.75244 -0.606604 0
M  V30 14259 H 1358.1 -2.51243 -0.418235 0
M  V30 14260 H 1358.89 -3.25975 1.0768 0
M  V30 14261 N 1361.33 -0.0301034 -1.57571 0
M  V30 14262 C 1362.74 0.508591 -1.79639 0
M  V30 14263 C 1363.09 1.72191 -0.940458 0
M  V30 14264 O 1362.22 2.15872 -0.151138 0
M  V30 14265 C 1362.81 0.929446 -3.25802 0
M  V30 14266 C 1361.37 1.41325 -3.48861 0
M  V30 14267 C 1360.52 0.378433 -2.74706 0
M  V30 14268 H 1363.47 -0.256131 -1.56619 0
M  V30 14269 H 1363.49 1.79374 -3.35567 0
M  V30 14270 H 1363 0.0461738 -3.88073 0
M  V30 14271 H 1361.1 2.31641 -2.91844 0
M  V30 14272 H 1361.22 1.41995 -4.57574 0
M  V30 14273 H 1359.58 0.846744 -2.40213 0
M  V30 14274 H 1360.36 -0.49639 -3.39692 0
M  V30 14275 N 1362.81 1.55714 0.243056 0
M  V30 14276 C 1363.74 1.93655 1.30461 0
M  V30 14277 C 1364.72 0.801968 1.50008 0
M  V30 14278 O 1365.9 1.06256 1.62552 0
M  V30 14279 C 1363.03 2.23459 2.65863 0
M  V30 14280 C 1361.99 3.39205 2.61006 0
M  V30 14281 C 1361.31 3.5456 4.00239 0
M  V30 14282 C 1362.61 4.74787 2.17656 0
M  V30 14283 H 1364.31 2.82575 0.98954 0
M  V30 14284 H 1361.85 1.35955 0.474572 0
M  V30 14285 H 1363.81 2.48591 3.40266 0
M  V30 14286 H 1362.53 1.31369 2.99014 0
M  V30 14287 H 1361.19 3.14088 1.89061 0
M  V30 14288 H 1360.84 2.59884 4.30661 0
M  V30 14289 H 1360.54 4.32399 3.97876 0
M  V30 14290 H 1362.06 3.82017 4.76335 0
M  V30 14291 H 1363.48 4.99266 2.81792 0
M  V30 14292 H 1361.87 5.55756 2.26397 0
M  V30 14293 H 1362.94 4.7159 1.12831 0
M  V30 14294 N 1364.29 -0.50888 1.49158 0
M  V30 14295 C 1365.53 -1.261 1.57934 0
M  V30 14296 C 1365.86 -1.93199 0.264405 0
M  V30 14297 O 1365.13 -1.82359 -0.715684 0
M  V30 14298 H 1363.71 -0.468421 0.581886 0
M  V30 14299 H 1366.37 -0.590447 1.85741 0
M  V30 14300 H 1365.46 -2.02913 2.37135 0
M  V30 14301 N 1365.76 -1.381 -0.759346 0
M  V30 14302 C 1367.01 -1.33727 -1.5153 0
M  V30 14303 C 1367.33 0.0739504 -1.9486 0
M  V30 14304 O 1366.6 1.02049 -1.67221 0
M  V30 14305 H 1365.18 -0.492037 -0.562058 0
M  V30 14306 H 1367.85 -1.72719 -0.902995 0
M  V30 14307 H 1366.94 -1.98439 -2.40891 0
M  V30 14308 N 1367.24 0.986894 -1.22875 0
M  V30 14309 C 1368.47 1.7601 -1.08185 0
M  V30 14310 C 1368.88 1.85545 0.370088 0
M  V30 14311 O 1368.22 1.32915 1.26804 0
M  V30 14312 C 1368.29 3.20661 -1.62532 0
M  V30 14313 C 1367.95 3.34655 -3.11216 0
M  V30 14314 C 1368.95 3.21493 -4.08581 0
M  V30 14315 C 1366.63 3.59512 -3.50794 0
M  V30 14316 C 1368.63 3.32983 -5.43508 0
M  V30 14317 C 1366.31 3.70642 -4.85868 0
M  V30 14318 C 1367.31 3.57387 -5.82034 0
M  V30 14319 O 1367 3.68135 -7.14655 0
M  V30 14320 H 1366.73 0.559402 -0.379533 0
M  V30 14321 H 1369.28 1.24905 -1.63058 0
M  V30 14322 H 1367.51 3.72985 -1.02073 0
M  V30 14323 H 1369.2 3.7972 -1.43415 0
M  V30 14324 H 1369.97 3.02193 -3.79347 0
M  V30 14325 H 1365.85 3.68904 -2.76461 0
M  V30 14326 H 1369.39 3.22553 -6.18551 0
M  V30 14327 H 1365.29 3.89451 -5.1478 0
M  V30 14328 H 1366.06 3.84971 -7.22316 0
M  V30 14329 N 1368.72 1.0394 1.18466 0
M  V30 14330 C 1369.67 0.629352 2.22054 0
M  V30 14331 C 1370.64 -0.362187 1.62103 0
M  V30 14332 O 1371.82 -0.256457 1.89069 0
M  V30 14333 C 1368.96 -0.00282888 3.451 0
M  V30 14334 C 1368.08 1.03602 4.19393 0
M  V30 14335 C 1367.21 0.372492 5.29892 0
M  V30 14336 C 1366.25 1.39652 5.95956 0
M  V30 14337 N 1365.39 0.758053 6.97996 0
M  V30 14338 H 1370.23 1.51722 2.56485 0
M  V30 14339 H 1367.76 0.759043 1.26004 0
M  V30 14340 H 1369.72 -0.386688 4.15404 0
M  V30 14341 H 1368.35 -0.854224 3.11292 0
M  V30 14342 H 1367.4 1.53784 3.47929 0
M  V30 14343 H 1368.72 1.81387 4.64651 0
M  V30 14344 H 1367.87 -0.065642 6.06664 0
M  V30 14345 H 1366.61 -0.437462 4.85734 0
M  V30 14346 H 1365.61 1.84481 5.17926 0
M  V30 14347 H 1366.84 2.20816 6.42197 0
M  V30 14348 H 1364.78 -0.0316173 6.55992 0
M  V30 14349 H 1364.7 1.47363 7.41499 0
M  V30 14350 H 1365.97 0.344273 7.78739 0
M  V30 14351 N 1370.2 -1.34667 0.818693 0
M  V30 14352 C 1371.44 -1.98708 0.405359 0
M  V30 14353 C 1371.78 -1.64767 -1.02788 0
M  V30 14354 O 1371.05 -0.91714 -1.71519 0
M  V30 14355 C 1371.34 -3.55016 0.602966 0
M  V30 14356 C 1371.19 -3.98713 2.08201 0
M  V30 14357 C 1372.51 -4.40085 0.0362489 0
M  V30 14358 H 1369.63 -0.721831 0.148756 0
M  V30 14359 H 1372.27 -1.59628 1.03047 0
M  V30 14360 H 1370.42 -3.88435 0.0708453 0
M  V30 14361 H 1372.09 -3.75647 2.67745 0
M  V30 14362 H 1370.33 -3.49179 2.57403 0
M  V30 14363 H 1371 -5.0751 2.17111 0
M  V30 14364 H 1373.48 -4.13195 0.490837 0
M  V30 14365 H 1372.36 -5.4852 0.204344 0
M  V30 14366 H 1372.62 -4.29243 -1.05845 0
M  V30 14367 N 1371.68 -0.573274 -1.46804 0
M  V30 14368 C 1372.9 -0.0605984 -2.06811 0
M  V30 14369 C 1373.32 1.24024 -1.4235 0
M  V30 14370 O 1372.68 1.7477 -0.525515 0
M  V30 14371 C 1372.73 0.121828 -3.61295 0
M  V30 14372 O 1372.45 -1.12751 -4.23342 0
M  V30 14373 C 1373.95 0.669941 -4.38208 0
M  V30 14374 H 1371.17 -0.0531498 -0.668892 0
M  V30 14375 H 1373.71 -0.791259 -1.88572 0
M  V30 14376 H 1371.87 0.802674 -3.78993 0
M  V30 14377 H 1372.28 -0.935361 -5.16092 0
M  V30 14378 H 1373.76 0.746806 -5.46925 0
M  V30 14379 H 1374.23 1.68483 -4.05598 0
M  V30 14380 H 1374.84 0.0242721 -4.25293 0
M  V30 14381 N 1373.15 1.5451 -0.310553 0
M  V30 14382 C 1374.12 2.2254 0.548489 0
M  V30 14383 C 1375.12 1.21456 1.05381 0
M  V30 14384 O 1376.31 1.46126 0.948311 0
M  V30 14385 C 1373.44 2.91927 1.76043 0
M  V30 14386 H 1374.63 2.99865 -0.0460306 0
M  V30 14387 H 1372.19 1.56179 -0.061487 0
M  V30 14388 H 1372.92 2.18706 2.39454 0
M  V30 14389 H 1372.71 3.66038 1.40564 0
M  V30 14390 H 1374.2 3.43797 2.37051 0
M  V30 14391 N 1374.63 0.0384594 1.57553 0
M  V30 14392 C 1375.58 -0.940256 2.10779 0
M  V30 14393 C 1376.55 -1.31705 1.01208 0
M  V30 14394 O 1377.74 -1.40874 1.28683 0
M  V30 14395 C 1374.88 -2.21419 2.64703 0
M  V30 14396 C 1373.99 -1.89302 3.88315 0
M  V30 14397 C 1373.12 -3.1106 4.30599 0
M  V30 14398 C 1372.16 -2.74805 5.46945 0
M  V30 14399 N 1371.3 -3.89217 5.84341 0
M  V30 14400 H 1376.14 -0.479458 2.94118 0
M  V30 14401 H 1373.68 -0.22505 1.45368 0
M  V30 14402 H 1375.63 -2.95946 2.94061 0
M  V30 14403 H 1374.26 -2.65099 1.84181 0
M  V30 14404 H 1373.32 -1.04977 3.65628 0
M  V30 14405 H 1374.63 -1.58607 4.72912 0
M  V30 14406 H 1373.78 -3.93898 4.61442 0
M  V30 14407 H 1372.52 -3.44924 3.44788 0
M  V30 14408 H 1371.53 -1.9038 5.15786 0
M  V30 14409 H 1372.75 -2.42147 6.34462 0
M  V30 14410 H 1370.7 -4.22905 5.01485 0
M  V30 14411 H 1370.61 -3.62177 6.63599 0
M  V30 14412 H 1371.88 -4.72732 6.19794 0
M  V30 14413 N 1376.11 -1.55841 -0.234795 0
M  V30 14414 C 1377.35 -1.80007 -0.968334 0
M  V30 14415 C 1377.72 -0.609903 -1.82055 0
M  V30 14416 O 1378.92 -0.730586 -2.58681 0
M  V30 14417 C 1377.19 -3.08991 -1.79609 0
M  V30 14418 S 1378.75 -3.54423 -2.58707 0
M  V30 14419 H 1375.56 -0.632112 -0.325508 0
M  V30 14420 H 1378.17 -1.94081 -0.235082 0
M  V30 14421 H 1376.87 -3.93667 -1.15993 0
M  V30 14422 H 1376.4 -2.97688 -2.57188 0
M  V30 14423 H 1378.42 -3.16713 -3.81978 0
M  V30 14424 N 1377.59 0.500963 -1.49426 0
M  V30 14425 C 1378.84 1.25509 -1.58915 0
M  V30 14426 C 1379.16 1.92534 -0.275868 0
M  V30 14427 O 1378.42 1.81324 0.736212 0
M  V30 14428 C 1378.72 2.34448 -2.69757 0
M  V30 14429 C 1378.38 1.8488 -4.11254 0
M  V30 14430 C 1377.05 1.71081 -4.49761 0
M  V30 14431 C 1379.4 1.4778 -4.9981 0
M  V30 14432 C 1376.73 1.18561 -5.74596 0
M  V30 14433 C 1379.08 0.967118 -6.25164 0
M  V30 14434 C 1377.74 0.815523 -6.62499 0
M  V30 14435 H 1377.01 0.459268 -0.58151 0
M  V30 14436 H 1379.66 0.555817 -1.83256 0
M  V30 14437 H 1377.96 3.10163 -2.39387 0
M  V30 14438 H 1379.66 2.925 -2.74308 0
M  V30 14439 H 1376.25 1.9658 -3.8086 0
M  V30 14440 H 1380.44 1.57288 -4.70717 0
M  V30 14441 H 1375.69 1.05536 -6.02223 0
M  V30 14442 H 1379.87 0.670857 -6.93161 0
M  V30 14443 H 1377.49 0.406375 -7.59113 0
M  V30 14444 N 1379.07 1.38501 0.752011 0
M  V30 14445 C 1380.32 1.34529 1.50819 0
M  V30 14446 C 1380.64 -0.0636155 1.94896 0
M  V30 14447 O 1379.91 -1.01161 1.6776 0
M  V30 14448 H 1378.49 0.49501 0.559441 0
M  V30 14449 H 1381.15 1.73196 0.893822 0
M  V30 14450 H 1380.24 1.99713 2.39835 0
M  V30 14451 N 1380.55 -0.980364 1.23396 0
M  V30 14452 C 1381.5 -2.05753 0.982323 0
M  V30 14453 C 1382.48 -1.6074 -0.0716939 0
M  V30 14454 O 1383.67 -1.76442 0.140438 0
M  V30 14455 C 1380.8 -3.38442 0.575481 0
M  V30 14456 C 1379.89 -3.90054 1.6649 0
M  V30 14457 N 1380.28 -4.14744 2.89519 0
M  V30 14458 C 1378.58 -4.18588 1.53949 0
M  V30 14459 C 1379.28 -4.56877 3.60053 0
M  V30 14460 N 1378.25 -4.61309 2.87567 0
M  V30 14461 H 1382.05 -2.22801 1.91669 0
M  V30 14462 H 1379.57 -1.16314 1.13335 0
M  V30 14463 H 1381.57 -4.15197 0.376477 0
M  V30 14464 H 1380.23 -3.22788 -0.351844 0
M  V30 14465 H 1381.24 -4.02566 3.25824 0
M  V30 14466 H 1377.91 -4.11937 0.679275 0
M  V30 14467 H 1379.3 -4.84498 4.65523 0
M  V30 14468 N 1382.02 -1.04567 -1.17913 0
M  V30 14469 C 1382.95 -0.662066 -2.23917 0
M  V30 14470 C 1383.93 0.33713 -1.66726 0
M  V30 14471 O 1385.12 0.216116 -1.92994 0
M  V30 14472 C 1382.25 -0.029463 -3.47288 0
M  V30 14473 C 1381.2 -0.95274 -4.17261 0
M  V30 14474 C 1380.53 -0.184347 -5.34382 0
M  V30 14475 C 1381.83 -2.2741 -4.70194 0
M  V30 14476 H 1383.52 -1.54826 -2.5626 0
M  V30 14477 H 1381.07 -0.745886 -1.23177 0
M  V30 14478 H 1383.02 0.250654 -4.20654 0
M  V30 14479 H 1381.75 0.891638 -3.14193 0
M  V30 14480 H 1380.41 -1.21732 -3.45799 0
M  V30 14481 H 1380.05 0.73932 -4.97537 0
M  V30 14482 H 1379.75 -0.79949 -5.82136 0
M  V30 14483 H 1381.28 0.0886344 -6.10536 0
M  V30 14484 H 1382.69 -2.05433 -5.35229 0
M  V30 14485 H 1381.09 -2.84265 -5.28501 0
M  V30 14486 H 1382.16 -2.91708 -3.87342 0
M  V30 14487 N 1383.5 1.34231 -0.825823 0
M  V30 14488 C 1384.73 2.02417 -0.428348 0
M  V30 14489 C 1385.14 1.62181 0.966573 0
M  V30 14490 O 1384.5 0.828691 1.62601 0
M  V30 14491 C 1384.55 3.57678 -0.524271 0
M  V30 14492 O 1384.27 3.96458 -1.86422 0
M  V30 14493 C 1385.77 4.43132 -0.122069 0
M  V30 14494 H 1382.99 0.648699 -0.171554 0
M  V30 14495 H 1385.54 1.71443 -1.11478 0
M  V30 14496 H 1383.69 3.87232 0.114112 0
M  V30 14497 H 1384.11 4.91147 -1.84051 0
M  V30 14498 H 1385.58 5.51477 -0.240264 0
M  V30 14499 H 1386.06 4.29139 0.934705 0
M  V30 14500 H 1386.66 4.18912 -0.734366 0
M  V30 14501 N 1384.98 0.581051 1.46498 0
M  V30 14502 C 1385.93 -0.153147 2.30291 0
M  V30 14503 C 1386.9 -0.885681 1.40517 0
M  V30 14504 O 1388.08 -0.876678 1.69467 0
M  V30 14505 C 1385.22 -1.16193 3.24951 0
M  V30 14506 C 1384.33 -0.433016 4.29824 0
M  V30 14507 C 1383.47 -1.42918 5.11613 0
M  V30 14508 C 1382.51 -0.686576 6.08237 0
M  V30 14509 N 1381.65 -1.63072 6.829 0
M  V30 14510 H 1386.49 0.56747 2.92547 0
M  V30 14511 H 1384.02 0.29166 1.4418 0
M  V30 14512 H 1385.98 -1.75965 3.78275 0
M  V30 14513 H 1384.61 -1.85028 2.64508 0
M  V30 14514 H 1383.66 0.279707 3.7937 0
M  V30 14515 H 1384.97 0.147604 4.98582 0
M  V30 14516 H 1384.13 -2.09975 5.69206 0
M  V30 14517 H 1382.87 -2.04373 4.42813 0
M  V30 14518 H 1381.87 -0.00222013 5.498 0
M  V30 14519 H 1383.1 -0.0774416 6.79056 0
M  V30 14520 H 1381.04 -2.2334 6.1681 0
M  V30 14521 H 1380.96 -1.10286 7.47912 0
M  V30 14522 H 1382.23 -2.29169 7.45052 0
M  V30 14523 N 1386.46 -1.54343 0.318742 0
M  V30 14524 C 1387.39 -2.21652 -0.583351 0
M  V30 14525 C 1388.4 -1.21494 -1.08366 0
M  V30 14526 O 1389.59 -1.4799 -0.998064 0
M  V30 14527 C 1386.69 -2.86349 -1.81266 0
M  V30 14528 C 1385.86 -4.12601 -1.45186 0
M  V30 14529 C 1384.92 -4.60937 -2.53818 0
M  V30 14530 O 1383.95 -5.25731 -2.18164 0
M  V30 14531 N 1385.15 -4.34755 -3.84667 0
M  V30 14532 H 1387.92 -2.99699 -0.00703539 0
M  V30 14533 H 1385.48 -1.61278 0.141728 0
M  V30 14534 H 1387.47 -3.15611 -2.53321 0
M  V30 14535 H 1386.04 -2.12037 -2.29693 0
M  V30 14536 H 1385.26 -3.90157 -0.563143 0
M  V30 14537 H 1386.55 -4.94774 -1.18642 0
M  V30 14538 H 1385.95 -3.82883 -4.16434 0
M  V30 14539 H 1384.5 -4.68683 -4.52967 0
M  V30 14540 N 1387.94 -0.0468143 -1.5753 0
M  V30 14541 C 1388.87 0.927092 -2.14306 0
M  V30 14542 C 1389.85 1.32745 -1.06362 0
M  V30 14543 O 1391.03 1.40293 -1.34281 0
M  V30 14544 C 1388.16 2.20343 -2.68452 0
M  V30 14545 C 1387.12 1.94328 -3.81341 0
M  V30 14546 C 1386.44 3.28379 -4.21985 0
M  V30 14547 C 1387.74 1.26835 -5.06666 0
M  V30 14548 H 1389.44 0.454199 -2.95935 0
M  V30 14549 H 1386.98 0.217029 -1.42355 0
M  V30 14550 H 1388.93 2.8887 -3.0681 0
M  V30 14551 H 1387.66 2.6983 -1.84009 0
M  V30 14552 H 1386.32 1.28214 -3.43448 0
M  V30 14553 H 1385.97 3.75658 -3.34499 0
M  V30 14554 H 1385.67 3.11772 -4.98068 0
M  V30 14555 H 1387.19 3.98145 -4.6294 0
M  V30 14556 H 1388.6 1.85389 -5.42498 0
M  V30 14557 H 1387 1.20569 -5.87863 0
M  V30 14558 H 1388.07 0.243759 -4.84287 0
M  V30 14559 N 1389.41 1.55964 0.226527 0
M  V30 14560 C 1390.35 1.87013 1.30772 0
M  V30 14561 C 1391.33 0.727044 1.4544 0
M  V30 14562 O 1392.51 0.974898 1.61332 0
M  V30 14563 C 1389.64 2.07278 2.67869 0
M  V30 14564 C 1388.68 3.29956 2.70243 0
M  V30 14565 S 1389.52 4.86026 2.24808 0
M  V30 14566 C 1390.67 5.09321 3.6379 0
M  V30 14567 H 1390.9 2.78427 1.0424 0
M  V30 14568 H 1388.44 1.48334 0.428525 0
M  V30 14569 H 1390.4 2.19636 3.468 0
M  V30 14570 H 1389.06 1.1667 2.91628 0
M  V30 14571 H 1388.25 3.41164 3.70975 0
M  V30 14572 H 1387.85 3.16429 1.99371 0
M  V30 14573 H 1390.14 4.97914 4.59443 0
M  V30 14574 H 1391.09 6.11227 3.57501 0
M  V30 14575 H 1391.49 4.37076 3.57247 0
M  V30 14576 N 1390.89 -0.493031 1.4969 0
M  V30 14577 C 1392.12 -1.27046 1.633 0
M  V30 14578 C 1392.54 -1.86278 0.307534 0
M  V30 14579 O 1391.89 -1.68208 -0.707968 0
M  V30 14580 C 1391.94 -2.39501 2.70779 0
M  V30 14581 O 1391.66 -1.82702 3.98185 0
M  V30 14582 C 1393.17 -3.30744 2.95166 0
M  V30 14583 H 1390.39 -0.385042 0.54953 0
M  V30 14584 H 1392.93 -0.590998 1.95774 0
M  V30 14585 H 1391.08 -3.03263 2.41061 0
M  V30 14586 H 1391.5 -2.56588 4.57452 0
M  V30 14587 H 1392.97 -4.05912 3.74085 0
M  V30 14588 H 1393.45 -3.88217 2.05387 0
M  V30 14589 H 1394.06 -2.72741 3.26332 0
M  V30 14590 N 1392.37 -1.38898 -0.744656 0
M  V30 14591 C 1393.3 -1.39571 -1.87195 0
M  V30 14592 C 1394.28 -0.260372 -1.68095 0
M  V30 14593 O 1395.47 -0.464776 -1.88556 0
M  V30 14594 C 1392.6 -1.22889 -3.24832 0
M  V30 14595 C 1391.55 -2.33721 -3.58551 0
M  V30 14596 C 1390.88 -2.02136 -4.9502 0
M  V30 14597 C 1392.18 -3.7601 -3.62511 0
M  V30 14598 H 1393.87 -2.33908 -1.86889 0
M  V30 14599 H 1391.42 -1.12591 -0.897739 0
M  V30 14600 H 1393.37 -1.21983 -4.03359 0
M  V30 14601 H 1392.09 -0.250172 -3.2564 0
M  V30 14602 H 1390.75 -2.33828 -2.82348 0
M  V30 14603 H 1390.4 -1.02726 -4.92399 0
M  V30 14604 H 1390.1 -2.76371 -5.18549 0
M  V30 14605 H 1391.62 -2.02864 -5.75915 0
M  V30 14606 H 1393.04 -3.77885 -4.31133 0
M  V30 14607 H 1391.44 -4.49524 -3.97553 0
M  V30 14608 H 1392.51 -4.07682 -2.62533 0
M  V30 14609 N 1393.85 0.973806 -1.23914 0
M  V30 14610 C 1394.81 2.04892 -1.02723 0
M  V30 14611 C 1395.81 1.60795 0.0132972 0
M  V30 14612 O 1397 1.72714 -0.227084 0
M  V30 14613 C 1394.13 3.36341 -0.555667 0
M  V30 14614 H 1395.33 2.25124 -1.98139 0
M  V30 14615 H 1392.88 1.14817 -1.06051 0
M  V30 14616 H 1393.61 3.21799 0.40197 0
M  V30 14617 H 1393.4 3.69689 -1.30661 0
M  V30 14618 H 1394.89 4.15398 -0.428248 0
M  V30 14619 N 1395.33 1.05191 1.17357 0
M  V30 14620 C 1396.6 0.675826 1.83554 0
M  V30 14621 C 1396.98 -0.843812 1.93502 0
M  V30 14622 O 1396.33 -1.74975 1.46956 0
M  V30 14623 C 1396.54 1.36481 3.21207 0
M  V30 14624 C 1397.89 1.50285 3.97114 0
M  V30 14625 O 1398.91 1.32382 3.30686 0
M  V30 14626 O 1397.77 1.79562 5.16159 0
M  V30 14627 H 1394.87 0.237898 0.792044 0
M  V30 14628 H 1397.41 1.1515 1.24654 0
M  V30 14629 H 1396.18 2.40156 3.08935 0
M  V30 14630 H 1395.81 0.878491 3.87774 0
M  V30 14631 N 1396.8 -1.33791 0.83293 0
M  V30 14632 C 1398.05 -1.97582 0.42494 0
M  V30 14633 C 1398.37 -1.66328 -1.01784 0
M  V30 14634 O 1397.64 -0.959141 -1.70814 0
M  V30 14635 H 1396.22 -0.730923 0.154143 0
M  V30 14636 H 1398.89 -1.63257 1.06458 0
M  V30 14637 H 1397.98 -3.07177 0.552127 0
M  V30 14638 N 1398.28 -0.588812 -1.46187 0
M  V30 14639 C 1399.7 -0.250962 -1.57615 0
M  V30 14640 C 1399.9 1.2467 -1.58302 0
M  V30 14641 O 1398.95 2.02876 -1.50325 0
M  V30 14642 C 1400.27 -0.905561 -2.8674 0
M  V30 14643 C 1401.82 -0.879721 -3.00383 0
M  V30 14644 C 1402.29 -1.51398 -4.32253 0
M  V30 14645 N 1403.78 -1.4786 -4.38967 0
M  V30 14646 C 1404.52 -1.93868 -5.39632 0
M  V30 14647 N 1404.01 -2.47876 -6.46938 0
M  V30 14648 N 1405.81 -1.84748 -5.30872 0
M  V30 14649 H 1397.96 -1.56148 -1.43985 0
M  V30 14650 H 1400.22 -0.653028 -0.68721 0
M  V30 14651 H 1399.93 -1.95935 -2.92066 0
M  V30 14652 H 1399.8 -0.417456 -3.74883 0
M  V30 14653 H 1402.19 0.165466 -2.94636 0
M  V30 14654 H 1402.27 -1.40591 -2.137 0
M  V30 14655 H 1401.91 -2.55839 -4.38758 0
M  V30 14656 H 1401.84 -0.962965 -5.17721 0
M  V30 14657 H 1404.33 -1.08387 -3.62023 0
M  V30 14658 H 1404.65 -2.80824 -7.1997 0
M  V30 14659 H 1402.99 -2.51905 -6.47741 0
M  V30 14660 H 1406.18 -1.42307 -4.45944 0
M  V30 14661 H 1406.35 -2.20919 -6.09179 0
M  V30 14662 N 1399.76 1.54172 -0.326923 0
M  V30 14663 C 1401.01 2.00926 0.275047 0
M  V30 14664 C 1401.34 1.21469 1.51522 0
M  V30 14665 O 1400.61 0.297871 1.92206 0
M  V30 14666 C 1400.9 3.54967 0.605833 0
M  V30 14667 C 1400.75 4.45147 -0.645279 0
M  V30 14668 C 1402.07 4.16489 1.42213 0
M  V30 14669 H 1399.19 0.730389 0.098495 0
M  V30 14670 H 1401.83 1.84735 -0.444168 0
M  V30 14671 H 1399.98 3.68895 1.21857 0
M  V30 14672 H 1401.65 4.43085 -1.2835 0
M  V30 14673 H 1399.9 4.14686 -1.27349 0
M  V30 14674 H 1400.57 5.50763 -0.36932 0
M  V30 14675 H 1403.04 4.06158 0.904172 0
M  V30 14676 H 1401.92 5.24377 1.62234 0
M  V30 14677 H 1402.18 3.70032 2.41928 0
M  V30 14678 N 1401.24 0.0551678 1.57503 0
M  V30 14679 C 1402.48 -0.618636 1.93134 0
M  V30 14680 C 1402.82 -1.70258 0.934125 0
M  V30 14681 O 1402.09 -1.9446 -0.0392699 0
M  V30 14682 C 1402.38 -1.21103 3.39126 0
M  V30 14683 C 1402.23 -0.134865 4.49598 0
M  V30 14684 C 1403.55 -2.12148 3.85592 0
M  V30 14685 H 1400.67 -0.223416 0.702321 0
M  V30 14686 H 1403.31 0.117748 1.89635 0
M  V30 14687 H 1401.46 -1.83862 3.42238 0
M  V30 14688 H 1403.13 0.497292 4.58612 0
M  V30 14689 H 1401.37 0.536587 4.30469 0
M  V30 14690 H 1402.04 -0.589447 5.48844 0
M  V30 14691 H 1404.52 -1.59346 3.8438 0
M  V30 14692 H 1403.4 -2.50539 4.88387 0
M  V30 14693 H 1403.66 -3.02318 3.22578 0
M  V30 14694 N 1402.72 -1.56081 -0.218252 0
M  V30 14695 C 1403.65 -1.95706 -1.27364 0
M  V30 14696 C 1404.63 -0.825731 -1.48713 0
M  V30 14697 O 1405.81 -1.08829 -1.60841 0
M  V30 14698 C 1402.94 -2.2766 -2.62275 0
M  V30 14699 C 1401.9 -3.43314 -2.55576 0
M  V30 14700 C 1401.22 -3.60883 -3.94547 0
M  V30 14701 C 1402.52 -4.7819 -2.10075 0
M  V30 14702 H 1404.22 -2.84113 -0.944459 0
M  V30 14703 H 1401.76 -1.36693 -0.452882 0
M  V30 14704 H 1403.72 -2.53973 -3.36268 0
M  V30 14705 H 1402.44 -1.3611 -2.96887 0
M  V30 14706 H 1401.1 -3.17056 -1.8404 0
M  V30 14707 H 1400.75 -2.66703 -4.26472 0
M  V30 14708 H 1400.45 -4.38674 -3.90946 0
M  V30 14709 H 1401.97 -3.89547 -4.70197 0
M  V30 14710 H 1403.38 -5.03686 -2.73813 0
M  V30 14711 H 1401.78 -5.59287 -2.17527 0
M  V30 14712 H 1402.85 -4.73325 -1.05314 0
M  V30 14713 N 1404.2 0.485086 -1.49949 0
M  V30 14714 C 1405.16 1.56713 -1.67253 0
M  V30 14715 C 1406.16 1.51329 -0.543701 0
M  V30 14716 O 1407.35 1.54198 -0.810472 0
M  V30 14717 C 1404.48 2.9636 -1.68475 0
M  V30 14718 H 1405.67 1.42693 -2.63778 0
M  V30 14719 H 1403.23 0.710473 -1.39219 0
M  V30 14720 H 1403.96 3.1584 -0.735924 0
M  V30 14721 H 1403.75 3.01675 -2.50469 0
M  V30 14722 H 1405.24 3.74945 -1.83865 0
M  V30 14723 N 1405.67 1.39291 0.737279 0
M  V30 14724 C 1406.6 1.40562 1.86452 0
M  V30 14725 C 1407.58 0.269283 1.67955 0
M  V30 14726 O 1408.77 0.474769 1.88307 0
M  V30 14727 C 1405.9 1.2461 3.24175 0
M  V30 14728 C 1404.85 2.35619 3.57306 0
M  V30 14729 C 1404.18 2.04758 4.93941 0
M  V30 14730 C 1405.48 3.77927 3.60512 0
M  V30 14731 H 1407.17 2.34896 1.85646 0
M  V30 14732 H 1404.72 1.13065 0.891756 0
M  V30 14733 H 1406.67 1.2412 4.02706 0
M  V30 14734 H 1405.4 0.267438 3.25503 0
M  V30 14735 H 1404.06 2.35322 2.81104 0
M  V30 14736 H 1403.7 1.05336 4.91847 0
M  V30 14737 H 1403.4 2.79117 5.17076 0
M  V30 14738 H 1404.93 2.05915 5.74832 0
M  V30 14739 H 1406.34 3.80166 4.29123 0
M  V30 14740 H 1404.74 4.51626 3.95164 0
M  V30 14741 H 1405.81 4.09068 2.60368 0
M  V30 14742 N 1407.15 -0.967221 1.24429 0
M  V30 14743 C 1408.06 -2.09582 1.05417 0
M  V30 14744 C 1409.08 -1.73999 -0.00516127 0
M  V30 14745 O 1410.25 -2.00472 0.193115 0
M  V30 14746 C 1407.32 -3.40327 0.661697 0
M  V30 14747 C 1406.38 -3.89854 1.79756 0
M  V30 14748 C 1405.61 -5.1436 1.42372 0
M  V30 14749 O 1405.84 -5.69536 0.313754 0
M  V30 14750 O 1404.77 -5.58283 2.24952 0
M  V30 14751 H 1408.6 -2.28517 2.00034 0
M  V30 14752 H 1406.18 -1.07978 1.03253 0
M  V30 14753 H 1408.06 -4.18943 0.454369 0
M  V30 14754 H 1406.74 -3.22691 -0.255348 0
M  V30 14755 H 1405.64 -3.12297 2.05964 0
M  V30 14756 H 1406.98 -4.11967 2.69339 0
M  V30 14757 N 1408.63 -1.05812 -1.16797 0
M  V30 14758 C 1409.88 -0.770398 -1.8684 0
M  V30 14759 C 1410.2 0.704986 -1.8181 0
M  V30 14760 O 1409.47 1.50977 -1.24832 0
M  V30 14761 H 1408.05 -0.281989 -0.691731 0
M  V30 14762 H 1410.71 -1.33859 -1.41661 0
M  V30 14763 H 1409.81 -1.09094 -2.92412 0
M  V30 14764 N 1410.11 1.33347 -0.840014 0
M  V30 14765 C 1411.36 1.97354 -0.435412 0
M  V30 14766 C 1411.68 1.66866 1.009 0
M  V30 14767 O 1410.95 0.968186 1.70303 0
M  V30 14768 H 1409.53 0.730096 -0.158017 0
M  V30 14769 H 1412.19 1.6269 -1.07322 0
M  V30 14770 H 1411.28 3.0688 -0.56841 0
M  V30 14771 N 1411.59 0.596556 1.45873 0
M  V30 14772 C 1412.54 -0.14991 2.27507 0
M  V30 14773 C 1413.52 -0.848942 1.36681 0
M  V30 14774 O 1414.71 -0.740752 1.60754 0
M  V30 14775 C 1411.84 -1.15391 3.23326 0
M  V30 14776 C 1410.93 -0.456283 4.21638 0
M  V30 14777 N 1411.32 0.495911 5.03363 0
M  V30 14778 C 1409.62 -0.705263 4.40389 0
M  V30 14779 C 1410.32 0.904941 5.74618 0
M  V30 14780 N 1409.29 0.251069 5.4302 0
M  V30 14781 H 1413.09 0.581593 2.88088 0
M  V30 14782 H 1410.61 0.419386 1.56891 0
M  V30 14783 H 1412.61 -1.70299 3.80531 0
M  V30 14784 H 1411.27 -1.88609 2.64305 0
M  V30 14785 H 1412.28 0.872126 5.10504 0
M  V30 14786 H 1408.95 -1.42296 3.92502 0
M  V30 14787 H 1410.34 1.68965 6.50308 0
M  V30 14788 N 1413.06 -1.53996 0.335095 0
M  V30 14789 C 1414.34 -1.92984 -0.318848 0
M  V30 14790 C 1414.72 -1.26585 -1.68936 0
M  V30 14791 O 1414.07 -0.413702 -2.24724 0
M  V30 14792 C 1414.28 -3.46705 -0.399568 0
M  V30 14793 C 1415.63 -4.19527 -0.654411 0
M  V30 14794 O 1416.65 -3.52923 -0.482026 0
M  V30 14795 O 1415.51 -5.37499 -0.987756 0
M  V30 14796 H 1412.6 -0.806202 -0.1843 0
M  V30 14797 H 1415.15 -1.6526 0.385653 0
M  V30 14798 H 1413.92 -3.87235 0.56253 0
M  V30 14799 H 1413.54 -3.8057 -1.15119 0
M  V30 14800 N 1414.54 -0.0635198 -1.57472 0
M  V30 14801 C 1415.47 0.90431 -2.15278 0
M  V30 14802 C 1416.45 1.31609 -1.07764 0
M  V30 14803 O 1417.64 1.38861 -1.35762 0
M  V30 14804 C 1414.77 2.17483 -2.70774 0
M  V30 14805 C 1413.72 1.90272 -3.8338 0
M  V30 14806 C 1413.05 3.23885 -4.25444 0
M  V30 14807 C 1414.35 1.21454 -5.07983 0
M  V30 14808 H 1416.04 0.422786 -2.964 0
M  V30 14809 H 1413.59 0.201918 -1.42577 0
M  V30 14810 H 1415.54 2.856 -3.09856 0
M  V30 14811 H 1414.26 2.67863 -1.86861 0
M  V30 14812 H 1412.92 1.24564 -3.44789 0
M  V30 14813 H 1412.57 3.72089 -3.38465 0
M  V30 14814 H 1412.27 3.06472 -5.01347 0
M  V30 14815 H 1413.8 3.93212 -4.67137 0
M  V30 14816 H 1415.21 1.79625 -5.44433 0
M  V30 14817 H 1413.61 1.14327 -5.89109 0
M  V30 14818 H 1414.68 0.19238 -4.84518 0
M  V30 14819 N 1416.02 1.56195 0.209972 0
M  V30 14820 C 1417.25 1.8384 0.949228 0
M  V30 14821 C 1417.66 0.644141 1.77472 0
M  V30 14822 O 1417.02 -0.387276 1.78344 0
M  V30 14823 C 1417.07 3.10131 1.85745 0
M  V30 14824 O 1416.79 4.2495 1.06531 0
M  V30 14825 C 1418.29 3.50847 2.70963 0
M  V30 14826 H 1415.51 0.610856 0.277662 0
M  V30 14827 H 1418.06 2.03295 0.221708 0
M  V30 14828 H 1416.21 2.92618 2.53877 0
M  V30 14829 H 1416.63 4.96769 1.68287 0
M  V30 14830 H 1418.1 4.4222 3.30372 0
M  V30 14831 H 1418.58 2.73139 3.43936 0
M  V30 14832 H 1419.18 3.7084 2.08226 0
M  V30 14833 N 1417.5 -0.477127 1.50204 0
M  V30 14834 C 1418.46 -1.55824 1.68082 0
M  V30 14835 C 1419.46 -1.51039 0.551719 0
M  V30 14836 O 1420.65 -1.53766 0.818638 0
M  V30 14837 C 1417.78 -2.95462 1.70044 0
M  V30 14838 H 1418.98 -1.41292 2.64531 0
M  V30 14839 H 1416.53 -0.70308 1.39594 0
M  V30 14840 H 1417.26 -3.15445 0.752663 0
M  V30 14841 H 1417.05 -3.00343 2.52065 0
M  V30 14842 H 1418.54 -3.73964 1.85851 0
M  V30 14843 N 1418.98 -1.3968 -0.729882 0
M  V30 14844 C 1420.23 -1.36492 -1.48502 0
M  V30 14845 C 1420.54 0.0346572 -1.95569 0
M  V30 14846 O 1421.74 0.189135 -2.7084 0
M  V30 14847 C 1420.2 -2.39813 -2.68361 0
M  V30 14848 C 1419.81 -3.85511 -2.28222 0
M  V30 14849 C 1421.55 -2.45709 -3.46161 0
M  V30 14850 C 1419.46 -4.80462 -3.44834 0
M  V30 14851 H 1418.39 -0.507455 -0.557679 0
M  V30 14852 H 1421.04 -1.6535 -0.795708 0
M  V30 14853 H 1419.42 -2.04033 -3.39392 0
M  V30 14854 H 1420.6 -4.30359 -1.64704 0
M  V30 14855 H 1418.91 -3.82957 -1.63501 0
M  V30 14856 H 1421.51 -3.1384 -4.32907 0
M  V30 14857 H 1421.85 -1.48318 -3.88983 0
M  V30 14858 H 1422.38 -2.80409 -2.82163 0
M  V30 14859 H 1419.12 -5.79134 -3.07057 0
M  V30 14860 H 1418.64 -4.40289 -4.07315 0
M  V30 14861 H 1420.32 -4.99607 -4.11098 0
M  V30 14862 N 1420.45 0.960609 -1.2494 0
M  V30 14863 C 1421.69 1.71937 -1.10531 0
M  V30 14864 C 1422.06 1.88806 0.348766 0
M  V30 14865 O 1423.26 2.61681 0.614539 0
M  V30 14866 C 1421.53 3.0685 -1.83242 0
M  V30 14867 S 1423.09 3.98057 -1.84651 0
M  V30 14868 H 1419.91 0.591061 -0.395181 0
M  V30 14869 H 1422.51 1.14618 -1.58376 0
M  V30 14870 H 1421.21 2.92238 -2.8814 0
M  V30 14871 H 1420.74 3.69233 -1.35759 0
M  V30 14872 H 1422.76 4.8761 -0.919263 0
M  V30 14873 N 1421.93 1.0643 1.16234 0
M  V30 14874 C 1423.21 0.695256 1.82827 0
M  V30 14875 C 1423.59 -0.823242 1.94386 0
M  V30 14876 O 1422.94 -1.73406 1.48804 0
M  V30 14877 C 1423.15 1.3988 3.19741 0
M  V30 14878 C 1424.5 1.54489 3.95498 0
M  V30 14879 O 1425.52 1.35882 3.29264 0
M  V30 14880 O 1424.38 1.85027 5.14225 0
M  V30 14881 H 1421.47 0.246285 0.789476 0
M  V30 14882 H 1424.02 1.16466 1.23426 0
M  V30 14883 H 1422.79 2.43419 3.06371 0
M  V30 14884 H 1422.41 0.91957 3.8682 0
M  V30 14885 N 1423.41 -1.329 0.847073 0
M  V30 14886 C 1424.37 -2.27341 0.291324 0
M  V30 14887 C 1425.37 -1.51295 -0.544653 0
M  V30 14888 O 1426.56 -1.70497 -0.357258 0
M  V30 14889 C 1423.7 -3.35779 -0.588668 0
M  V30 14890 H 1424.89 -2.78009 1.12477 0
M  V30 14891 H 1422.44 -1.43442 0.620803 0
M  V30 14892 H 1423.18 -2.90366 -1.44423 0
M  V30 14893 H 1422.96 -3.92099 0.00960515 0
M  V30 14894 H 1424.45 -4.06166 -0.970526 0
M  V30 14895 N 1424.89 -0.604284 -1.45555 0
M  V30 14896 C 1426.11 -0.102634 -2.07146 0
M  V30 14897 C 1426.54 1.20239 -1.44652 0
M  V30 14898 O 1425.9 1.73133 -0.538033 0
M  V30 14899 C 1425.94 0.0270231 -3.6059 0
M  V30 14900 O 1425.05 1.0781 -3.98059 0
M  V30 14901 H 1424.39 -0.0725667 -0.660023 0
M  V30 14902 H 1426.92 -0.833355 -1.86859 0
M  V30 14903 H 1426.93 0.226299 -4.07372 0
M  V30 14904 H 1425.6 -0.925896 -4.05463 0
M  V30 14905 H 1424.18 0.855552 -3.62953 0
M  V30 14906 N 1426.37 1.53816 -0.343257 0
M  V30 14907 C 1427.28 2.28716 0.522121 0
M  V30 14908 C 1428.29 1.33815 1.11218 0
M  V30 14909 O 1429.47 1.66853 1.12793 0
M  V30 14910 C 1426.53 3.04517 1.65741 0
M  V30 14911 C 1425.59 4.15043 1.09716 0
M  V30 14912 C 1424.83 4.8722 2.17835 0
M  V30 14913 O 1425.05 4.59065 3.38549 0
M  V30 14914 O 1423.98 5.73678 1.82145 0
M  V30 14915 H 1427.81 3.03576 -0.086732 0
M  V30 14916 H 1425.4 1.49007 -0.108313 0
M  V30 14917 H 1427.28 3.51921 2.31796 0
M  V30 14918 H 1425.95 2.32514 2.25208 0
M  V30 14919 H 1424.86 3.71943 0.401152 0
M  V30 14920 H 1426.19 4.89147 0.547362 0
M  V30 14921 N 1427.84 0.0718701 1.57436 0
M  V30 14922 C 1428.81 -0.880671 2.11605 0
M  V30 14923 C 1429.81 -1.22632 1.0401 0
M  V30 14924 O 1431 -1.15958 1.29997 0
M  V30 14925 C 1428.13 -2.18407 2.61746 0
M  V30 14926 H 1429.32 -0.410712 2.97074 0
M  V30 14927 H 1426.88 -0.176836 1.55296 0
M  V30 14928 H 1427.61 -2.6994 1.79731 0
M  V30 14929 H 1427.4 -1.94616 3.40392 0
M  V30 14930 H 1428.89 -2.86596 3.03731 0
M  V30 14931 N 1429.32 -1.56304 -0.201686 0
M  V30 14932 C 1430.56 -1.82021 -0.929934 0
M  V30 14933 C 1430.93 -0.648382 -1.80721 0
M  V30 14934 O 1432.13 -0.785292 -2.57073 0
M  V30 14935 C 1430.4 -3.12731 -1.73014 0
M  V30 14936 S 1431.96 -3.59831 -2.51131 0
M  V30 14937 H 1428.78 -0.638874 -0.312027 0
M  V30 14938 H 1431.38 -1.94536 -0.193861 0
M  V30 14939 H 1430.08 -3.96039 -1.07616 0
M  V30 14940 H 1429.61 -3.03076 -2.50816 0
M  V30 14941 H 1431.63 -3.24744 -3.75174 0
M  V30 14942 N 1430.8 0.469154 -1.50455 0
M  V30 14943 C 1432.05 1.2229 -1.6178 0
M  V30 14944 C 1432.38 1.91577 -0.318073 0
M  V30 14945 O 1431.65 1.82205 0.68057 0
M  V30 14946 C 1431.94 2.26504 -2.79943 0
M  V30 14947 C 1431.79 1.61509 -4.19804 0
M  V30 14948 C 1433.11 3.27796 -2.93662 0
M  V30 14949 H 1430.23 0.443241 -0.588817 0
M  V30 14950 H 1432.87 0.516431 -1.82847 0
M  V30 14951 H 1431.02 2.86757 -2.62112 0
M  V30 14952 H 1432.69 1.04838 -4.49229 0
M  V30 14953 H 1430.94 0.918162 -4.23972 0
M  V30 14954 H 1431.61 2.37248 -4.98415 0
M  V30 14955 H 1434.08 2.77568 -3.09992 0
M  V30 14956 H 1432.96 3.98041 -3.77961 0
M  V30 14957 H 1433.22 3.92033 -2.04359 0
M  V30 14958 N 1432.28 1.40065 0.722464 0
M  V30 14959 C 1433.23 1.39947 1.85789 0
M  V30 14960 C 1434.22 0.28089 1.67055 0
M  V30 14961 O 1435.43 0.451575 1.74244 0
M  V30 14962 H 1431.8 0.437296 0.611781 0
M  V30 14963 H 1433.77 2.35695 1.83004 0
M  V30 14964 C 1432.52 1.27218 3.2359 0
M  V30 14965 H 1431.84 2.12566 3.38609 0
M  V30 14966 H 1433.28 1.31194 4.03192 0
M  V30 14967 C 1431.74 -0.0182466 3.36895 0
M  V30 14968 O 1432.27 -0.983761 3.89468 0
M  V30 14969 N 1430.48 -0.0854707 2.90474 0
M  V30 14970 H 1430.03 0.700953 2.4788 0
M  V30 14971 H 1429.98 -0.948367 2.99755 0
M  V30 14972 N 1433.76 -0.95397 1.25448 0
M  V30 14973 C 1434.72 -2.03231 1.0597 0
M  V30 14974 C 1435.72 -1.60795 0.0122855 0
M  V30 14975 O 1436.91 -1.7233 0.254533 0
M  V30 14976 C 1434.04 -3.35414 0.609105 0
M  V30 14977 H 1435.24 -2.21943 2.01696 0
M  V30 14978 H 1432.79 -1.13115 1.07864 0
M  V30 14979 H 1433.52 -3.22398 -0.350723 0
M  V30 14980 H 1433.31 -3.67564 1.36526 0
M  V30 14981 H 1434.8 -4.14664 0.49428 0
M  V30 14982 N 1435.24 -1.07045 -1.15668 0
M  V30 14983 C 1436.17 -0.709413 -2.22463 0
M  V30 14984 C 1437.15 0.30169 -1.67403 0
M  V30 14985 O 1438.33 0.175131 -1.93409 0
M  V30 14986 C 1435.46 -0.103121 -3.47147 0
M  V30 14987 C 1434.42 -1.04103 -4.15146 0
M  V30 14988 C 1433.74 -0.297656 -5.33871 0
M  V30 14989 C 1435.04 -2.37332 -4.65264 0
M  V30 14990 H 1436.74 -1.60227 -2.52918 0
M  V30 14991 H 1434.28 -0.771846 -1.21567 0
M  V30 14992 H 1436.23 0.161371 -4.21091 0
M  V30 14993 H 1434.96 0.824792 -3.16014 0
M  V30 14994 H 1433.62 -1.2904 -3.43139 0
M  V30 14995 H 1433.27 0.633618 -4.98993 0
M  V30 14996 H 1432.97 -0.922789 -5.80309 0
M  V30 14997 H 1434.49 -0.0408892 -6.10586 0
M  V30 14998 H 1435.9 -2.1674 -5.30751 0
M  V30 14999 H 1434.3 -2.95412 -5.22352 0
M  V30 15000 H 1435.37 -2.99859 -3.81068 0
M  V30 15001 N 1436.71 1.32449 -0.85411 0
M  V30 15002 C 1437.64 2.31383 -0.313697 0
M  V30 15003 C 1438.62 1.59656 0.586858 0
M  V30 15004 O 1439.81 1.87459 0.507216 0
M  V30 15005 C 1436.94 3.43693 0.499235 0
M  V30 15006 C 1435.89 4.26899 -0.306839 0
M  V30 15007 C 1435.22 5.30966 0.630795 0
M  V30 15008 C 1436.52 4.99318 -1.53229 0
M  V30 15009 H 1438.21 2.76832 -1.14037 0
M  V30 15010 H 1435.76 1.33091 -0.549805 0
M  V30 15011 H 1437.71 4.11944 0.887709 0
M  V30 15012 H 1436.44 2.96971 1.35926 0
M  V30 15013 H 1435.1 3.60294 -0.677061 0
M  V30 15014 H 1434.74 4.80498 1.48765 0
M  V30 15015 H 1434.44 5.87522 0.0954635 0
M  V30 15016 H 1435.97 6.0208 1.01646 0
M  V30 15017 H 1437.38 5.60253 -1.21614 0
M  V30 15018 H 1435.78 5.65596 -2.00552 0
M  V30 15019 H 1436.85 4.27213 -2.29383 0
M  V30 15020 N 1438.19 0.611994 1.45232 0
M  V30 15021 C 1439.44 0.108696 2.01807 0
M  V30 15022 C 1439.76 -1.26692 1.48237 0
M  V30 15023 O 1439.03 -1.8378 0.678368 0
M  V30 15024 H 1437.61 0.0371921 0.746074 0
M  V30 15025 H 1440.27 0.794386 1.77976 0
M  V30 15026 H 1439.37 0.0618207 3.12039 0
M  V30 15027 N 1439.67 -1.53632 0.351409 0
M  V30 15028 C 1440.62 -2.26782 -0.516983 0
M  V30 15029 C 1441.61 -1.29222 -1.09536 0
M  V30 15030 O 1442.82 -1.46901 -1.04019 0
M  V30 15031 H 1439.19 -0.728783 -0.185417 0
M  V30 15032 H 1441.16 -2.98151 0.121909 0
M  V30 15033 C 1439.91 -3.05943 -1.6521 0
M  V30 15034 H 1439.24 -3.80848 -1.21633 0
M  V30 15035 H 1440.68 -3.60328 -2.23472 0
M  V30 15036 C 1439.13 -2.15917 -2.58614 0
M  V30 15037 O 1439.66 -1.76049 -3.61067 0
M  V30 15038 N 1437.87 -1.80837 -2.27478 0
M  V30 15039 H 1437.42 -2.13456 -1.44202 0
M  V30 15040 H 1437.38 -1.20886 -2.90231 0
M  V30 15041 N 1441.15 -0.0802183 -1.57396 0
M  V30 15042 C 1442.06 0.898597 -2.16708 0
M  V30 15043 C 1443.07 1.321 -1.1325 0
M  V30 15044 O 1444.25 1.39197 -1.45554 0
M  V30 15045 C 1441.31 2.14501 -2.72379 0
M  V30 15046 C 1440.38 1.77822 -3.9074 0
M  V30 15047 C 1439.61 2.96521 -4.43747 0
M  V30 15048 O 1439.83 4.10797 -3.9573 0
M  V30 15049 O 1438.77 2.75849 -5.34968 0
M  V30 15050 H 1442.59 0.424027 -3.00725 0
M  V30 15051 H 1440.18 0.14332 -1.48711 0
M  V30 15052 H 1442.06 2.87575 -3.08024 0
M  V30 15053 H 1440.73 2.61039 -1.91416 0
M  V30 15054 H 1439.64 1.01974 -3.59934 0
M  V30 15055 H 1440.97 1.36059 -4.73021 0
M  V30 15056 N 1442.63 1.56409 0.193394 0
M  V30 15057 C 1443.56 1.97707 1.24234 0
M  V30 15058 C 1444.54 0.849286 1.47381 0
M  V30 15059 O 1445.72 1.11374 1.59089 0
M  V30 15060 C 1442.85 2.31804 2.5862 0
M  V30 15061 C 1441.81 3.47337 2.50082 0
M  V30 15062 C 1441.13 3.67114 3.88756 0
M  V30 15063 C 1442.43 4.81472 2.02441 0
M  V30 15064 H 1444.13 2.8558 0.89914 0
M  V30 15065 H 1441.67 1.37396 0.431078 0
M  V30 15066 H 1443.62 2.5929 3.32185 0
M  V30 15067 H 1442.35 1.40816 2.94684 0
M  V30 15068 H 1441.01 3.19944 1.78973 0
M  V30 15069 H 1440.66 2.73454 4.22175 0
M  V30 15070 H 1440.36 4.44838 3.83918 0
M  V30 15071 H 1441.88 3.96978 4.6394 0
M  V30 15072 H 1443.29 5.07978 2.65766 0
M  V30 15073 H 1441.69 5.62677 2.08601 0
M  V30 15074 H 1442.76 4.74941 0.977704 0
M  V30 15075 N 1444.1 -0.461169 1.50702 0
M  V30 15076 C 1445.01 -1.58355 1.73092 0
M  V30 15077 C 1446.03 -1.62795 0.61431 0
M  V30 15078 O 1447.21 -1.8048 0.893806 0
M  V30 15079 C 1444.27 -2.94509 1.82936 0
M  V30 15080 C 1443.33 -3.00378 3.06711 0
M  V30 15081 C 1442.56 -4.30037 3.16076 0
M  V30 15082 O 1442.79 -5.21097 2.31978 0
M  V30 15083 O 1441.72 -4.41702 4.08881 0
M  V30 15084 H 1445.55 -1.42384 2.68255 0
M  V30 15085 H 1443.13 -0.641709 1.34916 0
M  V30 15086 H 1445.01 -3.75357 1.91534 0
M  V30 15087 H 1443.69 -3.10658 0.909581 0
M  V30 15088 H 1442.6 -2.18571 3.03608 0
M  V30 15089 H 1443.93 -2.89167 3.983 0
M  V30 15090 N 1445.58 -1.40446 -0.715026 0
M  V30 15091 C 1446.99 -1.34564 -1.29419 0
M  V30 15092 C 1447.34 -0.0193984 -1.9619 0
M  V30 15093 O 1446.47 0.882616 -1.97582 0
M  V30 15094 C 1447.06 -2.43721 -2.35342 0
M  V30 15095 C 1445.62 -2.41297 -2.88881 0
M  V30 15096 C 1444.77 -2.2457 -1.62676 0
M  V30 15097 H 1447.72 -1.50244 -0.511116 0
M  V30 15098 H 1447.74 -2.1166 -3.16197 0
M  V30 15099 H 1447.25 -3.40234 -1.86715 0
M  V30 15100 H 1445.35 -1.48483 -3.41736 0
M  V30 15101 H 1445.47 -3.36903 -3.40637 0
M  V30 15102 H 1443.83 -1.72096 -1.87763 0
M  V30 15103 H 1444.61 -3.23082 -1.16074 0
M  V30 15104 N 1447.06 0.947303 -1.25952 0
M  V30 15105 C 1447.99 2.0625 -1.09467 0
M  V30 15106 C 1448.97 1.701 -0.00160498 0
M  V30 15107 O 1450.16 1.93432 -0.172501 0
M  V30 15108 C 1447.29 3.39746 -0.720392 0
M  V30 15109 C 1446.24 3.89935 -1.76451 0
M  V30 15110 C 1445.57 5.2001 -1.24472 0
M  V30 15111 C 1446.87 4.15496 -3.16481 0
M  V30 15112 H 1448.56 2.203 -2.02752 0
M  V30 15113 H 1446.11 1.05858 -0.97622 0
M  V30 15114 H 1448.06 4.17221 -0.591972 0
M  V30 15115 H 1446.78 3.25656 0.248161 0
M  V30 15116 H 1445.44 3.14635 -1.8815 0
M  V30 15117 H 1445.09 5.02295 -0.266182 0
M  V30 15118 H 1444.79 5.54559 -1.94263 0
M  V30 15119 H 1446.31 6.00075 -1.12884 0
M  V30 15120 H 1447.73 4.83605 -3.07894 0
M  V30 15121 H 1446.12 4.61315 -3.83808 0
M  V30 15122 H 1447.19 3.21501 -3.62995 0
M  V30 15123 N 1448.54 1.07657 1.15099 0
M  V30 15124 C 1449.5 0.703558 2.18135 0
M  V30 15125 C 1450.5 -0.257771 1.5872 0
M  V30 15126 O 1451.69 -0.0383211 1.74158 0
M  V30 15127 C 1448.82 0.0374978 3.40879 0
M  V30 15128 H 1450.02 1.61583 2.52648 0
M  V30 15129 H 1447.57 0.873484 1.29615 0
M  V30 15130 H 1448.3 -0.886868 3.11938 0
M  V30 15131 H 1448.09 0.728961 3.85264 0
M  V30 15132 H 1449.58 -0.208714 4.17078 0
M  V30 15133 N 1450.02 -1.31994 0.861122 0
M  V30 15134 C 1450.93 -2.32495 0.313555 0
M  V30 15135 C 1451.94 -1.64331 -0.571966 0
M  V30 15136 O 1453.12 -1.9582 -0.470794 0
M  V30 15137 C 1450.18 -3.43311 -0.483603 0
M  V30 15138 C 1449.24 -4.27153 0.428825 0
M  V30 15139 C 1448.48 -5.32676 -0.330383 0
M  V30 15140 O 1448.7 -5.48665 -1.55957 0
M  V30 15141 O 1447.63 -6.01116 0.307174 0
M  V30 15142 H 1451.46 -2.81234 1.14636 0
M  V30 15143 H 1449.05 -1.35734 0.624239 0
M  V30 15144 H 1450.93 -4.10877 -0.935831 0
M  V30 15145 H 1449.6 -2.9675 -1.2931 0
M  V30 15146 H 1448.51 -3.62372 0.929366 0
M  V30 15147 H 1449.84 -4.77255 1.20368 0
M  V30 15148 N 1451.49 -0.619688 -1.44906 0
M  V30 15149 C 1452.77 -0.0510703 -1.95533 0
M  V30 15150 C 1453.15 1.42013 -1.56191 0
M  V30 15151 O 1452.5 2.12879 -0.830356 0
M  V30 15152 C 1452.71 -0.261896 -3.48016 0
M  V30 15153 C 1454.06 -0.149057 -4.24338 0
M  V30 15154 O 1455.08 -0.192655 -3.55679 0
M  V30 15155 O 1453.94 -0.0443345 -5.46482 0
M  V30 15156 H 1451.03 0.0288461 -0.826497 0
M  V30 15157 H 1453.58 -0.690594 -1.55013 0
M  V30 15158 H 1452.35 -1.28319 -3.69662 0
M  V30 15159 H 1451.98 0.412314 -3.95456 0
M  V30 15160 N 1452.97 1.53444 -0.359552 0
M  V30 15161 C 1454.22 2.00348 0.233109 0
M  V30 15162 C 1454.53 1.25104 1.50361 0
M  V30 15163 O 1455.74 1.62566 2.1745 0
M  V30 15164 C 1454.2 3.56871 0.465951 0
M  V30 15165 C 1453.8 4.40987 -0.789571 0
M  V30 15166 C 1455.55 4.12148 1.0166 0
M  V30 15167 C 1453.46 5.8905 -0.526646 0
M  V30 15168 H 1452.39 0.748502 0.0908851 0
M  V30 15169 H 1455.04 1.77182 -0.47736 0
M  V30 15170 H 1453.42 3.76167 1.23753 0
M  V30 15171 H 1454.59 4.33465 -1.56348 0
M  V30 15172 H 1452.91 3.96784 -1.263 0
M  V30 15173 H 1455.5 5.20395 1.22853 0
M  V30 15174 H 1455.85 3.66364 1.97694 0
M  V30 15175 H 1456.38 3.96626 0.305334 0
M  V30 15176 H 1453.12 6.39099 -1.45715 0
M  V30 15177 H 1452.64 5.99436 0.208875 0
M  V30 15178 H 1454.32 6.46826 -0.149889 0
M  V30 15179 N 1454.45 0.0885642 1.57351 0
M  V30 15180 C 1455.38 -0.869946 2.16689 0
M  V30 15181 C 1456.36 -1.29878 1.09844 0
M  V30 15182 O 1457.55 -1.36684 1.37954 0
M  V30 15183 C 1454.68 -2.13148 2.74199 0
M  V30 15184 C 1453.63 -1.84149 3.86359 0
M  V30 15185 C 1452.96 -3.17075 4.30543 0
M  V30 15186 C 1454.26 -1.13357 5.09851 0
M  V30 15187 H 1455.95 -0.375578 2.97035 0
M  V30 15188 H 1453.5 -0.17921 1.42881 0
M  V30 15189 H 1455.45 -2.80634 3.14361 0
M  V30 15190 H 1454.17 -2.64856 1.91098 0
M  V30 15191 H 1452.83 -1.19063 3.46727 0
M  V30 15192 H 1452.48 -3.66658 3.44342 0
M  V30 15193 H 1452.18 -2.98457 5.06159 0
M  V30 15194 H 1453.7 -3.85731 4.73333 0
M  V30 15195 H 1455.12 -1.70941 5.47222 0
M  V30 15196 H 1453.52 -1.0494 5.90853 0
M  V30 15197 H 1454.59 -0.115273 4.84763 0
M  V30 15198 N 1455.93 -1.56509 -0.185096 0
M  V30 15199 C 1456.88 -1.91742 -1.23366 0
M  V30 15200 C 1457.86 -0.784182 -1.40497 0
M  V30 15201 O 1459.05 -1.04718 -1.42699 0
M  V30 15202 C 1456.18 -2.26903 -2.57624 0
M  V30 15203 C 1455.27 -3.46707 -2.44244 0
M  V30 15204 N 1455.66 -4.64338 -2.00558 0
M  V30 15205 C 1453.96 -3.51042 -2.7511 0
M  V30 15206 C 1454.66 -5.46489 -1.9931 0
M  V30 15207 N 1453.64 -4.87162 -2.41193 0
M  V30 15208 H 1457.44 -2.80184 -0.887378 0
M  V30 15209 H 1454.95 -1.57561 -0.393468 0
M  V30 15210 H 1456.95 -2.50332 -3.33376 0
M  V30 15211 H 1455.61 -1.39792 -2.93067 0
M  V30 15212 H 1456.62 -4.88817 -1.7111 0
M  V30 15213 H 1453.3 -2.74375 -3.14682 0
M  V30 15214 H 1454.69 -6.50726 -1.67349 0
M  V30 15215 N 1457.41 0.45317 -1.50944 0
M  V30 15216 C 1458.34 1.56678 -1.67287 0
M  V30 15217 C 1459.35 1.53089 -0.553853 0
M  V30 15218 O 1460.54 1.58152 -0.827653 0
M  V30 15219 C 1457.64 2.95585 -1.65779 0
M  V30 15220 C 1456.81 3.2385 -2.94007 0
M  V30 15221 C 1455.87 4.42401 -2.84899 0
M  V30 15222 O 1454.9 4.4183 -3.58853 0
M  V30 15223 N 1456.1 5.4508 -1.99671 0
M  V30 15224 H 1458.87 1.43069 -2.63347 0
M  V30 15225 H 1456.43 0.641875 -1.48632 0
M  V30 15226 H 1458.42 3.7289 -1.57275 0
M  V30 15227 H 1456.99 3.02872 -0.773791 0
M  V30 15228 H 1456.21 2.34991 -3.16501 0
M  V30 15229 H 1457.5 3.39554 -3.7892 0
M  V30 15230 H 1456.89 5.48374 -1.38933 0
M  V30 15231 H 1455.45 6.21298 -1.97057 0
M  V30 15232 N 1458.88 1.40823 0.707568 0
M  V30 15233 C 1460.11 1.43061 1.50161 0
M  V30 15234 C 1460.53 0.0342144 1.88069 0
M  V30 15235 O 1459.89 -0.959674 1.53818 0
M  V30 15236 C 1459.94 2.33459 2.74826 0
M  V30 15237 O 1459.04 1.78336 3.71847 0
M  V30 15238 H 1458.39 0.48602 0.452417 0
M  V30 15239 H 1460.92 1.85147 0.870742 0
M  V30 15240 H 1460.93 2.48922 3.23267 0
M  V30 15241 H 1459.6 3.34927 2.46571 0
M  V30 15242 H 1458.18 1.7226 3.30728 0
M  V30 15243 N 1460.36 -0.94061 1.26453 0
M  V30 15244 C 1461.77 -1.50169 1.10934 0
M  V30 15245 C 1462.12 -1.93733 -0.310167 0
M  V30 15246 O 1461.25 -1.79966 -1.20172 0
M  V30 15247 C 1461.84 -2.7291 2.00763 0
M  V30 15248 C 1460.4 -3.25283 1.89388 0
M  V30 15249 C 1459.55 -1.98061 1.9408 0
M  V30 15250 H 1462.5 -0.756038 1.39534 0
M  V30 15251 H 1462.52 -3.47237 1.55586 0
M  V30 15252 H 1462.03 -2.41172 3.04069 0
M  V30 15253 H 1460.14 -3.6181 0.890192 0
M  V30 15254 H 1460.25 -3.92351 2.7495 0
M  V30 15255 H 1458.61 -2.13985 1.3814 0
M  V30 15256 H 1459.4 -1.68654 2.99016 0
M  V30 15257 N 1461.84 -1.08266 -1.14527 0
M  V30 15258 C 1462.79 -0.705807 -2.21633 0
M  V30 15259 C 1463.78 0.287758 -1.66938 0
M  V30 15260 O 1464.99 0.150479 -1.7937 0
M  V30 15261 H 1461.36 -0.210206 -0.722023 0
M  V30 15262 H 1463.33 -1.61855 -2.5069 0
M  V30 15263 C 1462.08 -0.129673 -3.47458 0
M  V30 15264 H 1461.41 -0.885365 -3.89873 0
M  V30 15265 H 1462.85 0.0962264 -4.23891 0
M  V30 15266 C 1461.31 1.13208 -3.1731 0
M  V30 15267 O 1461.84 2.21717 -3.34969 0
M  V30 15268 N 1460.04 1.0419 -2.7128 0
M  V30 15269 H 1459.59 0.15883 -2.5711 0
M  V30 15270 H 1459.55 1.88689 -2.51483 0
M  V30 15271 N 1463.32 1.31536 -0.86811 0
M  V30 15272 C 1464.25 2.2663 -0.2672 0
M  V30 15273 C 1465.23 1.51023 0.602574 0
M  V30 15274 O 1466.41 1.80101 0.556408 0
M  V30 15275 C 1463.54 3.32943 0.62183 0
M  V30 15276 C 1462.59 4.26135 -0.176348 0
M  V30 15277 S 1463.42 5.12467 -1.55363 0
M  V30 15278 C 1464.58 6.22296 -0.670673 0
M  V30 15279 H 1464.81 2.7725 -1.07331 0
M  V30 15280 H 1462.34 1.39273 -0.666521 0
M  V30 15281 H 1464.3 3.94667 1.12908 0
M  V30 15282 H 1462.96 2.81081 1.40187 0
M  V30 15283 H 1462.15 5.015 0.501358 0
M  V30 15284 H 1461.76 3.68898 -0.61563 0
M  V30 15285 H 1464.05 6.77395 0.119508 0
M  V30 15286 H 1464.99 6.94215 -1.39539 0
M  V30 15287 H 1465.4 5.63994 -0.239048 0
M  V30 15288 N 1464.8 0.627364 1.44575 0
M  V30 15289 C 1465.75 -0.0920488 2.32418 0
M  V30 15290 C 1466.74 -0.839633 1.47128 0
M  V30 15291 O 1467.95 -0.752958 1.63495 0
M  V30 15292 H 1464.32 -0.0485336 0.750432 0
M  V30 15293 H 1466.29 0.666959 2.90851 0
M  V30 15294 C 1465.04 -1.06262 3.31064 0
M  V30 15295 H 1464.36 -0.4968 3.96701 0
M  V30 15296 H 1465.8 -1.53556 3.95217 0
M  V30 15297 C 1464.26 -2.14601 2.59707 0
M  V30 15298 O 1464.79 -3.2263 2.39317 0
M  V30 15299 N 1463 -1.90431 2.19509 0
M  V30 15300 H 1462.55 -1.02584 2.36293 0
M  V30 15301 H 1462.5 -2.6312 1.72091 0
M  V30 15302 N 1466.28 -1.53251 0.367684 0
M  V30 15303 C 1467.24 -2.24423 -0.465516 0
M  V30 15304 C 1468.24 -1.25283 -1.00801 0
M  V30 15305 O 1469.43 -1.49545 -0.893424 0
M  V30 15306 C 1466.56 -2.9826 -1.65087 0
M  V30 15307 H 1467.75 -2.99487 0.157292 0
M  V30 15308 H 1465.31 -1.55843 0.119409 0
M  V30 15309 H 1466.04 -2.27443 -2.31171 0
M  V30 15310 H 1465.83 -3.71003 -1.26882 0
M  V30 15311 H 1467.32 -3.52358 -2.24128 0
M  V30 15312 N 1467.75 -0.0969077 -1.57302 0
M  V30 15313 C 1469 0.567212 -1.94706 0
M  V30 15314 C 1469.33 1.67721 -0.978937 0
M  V30 15315 O 1468.61 1.94496 -0.0123016 0
M  V30 15316 C 1468.89 1.12069 -3.42217 0
M  V30 15317 C 1468.74 0.015615 -4.49797 0
M  V30 15318 C 1470.06 2.0185 -3.91081 0
M  V30 15319 H 1467.18 0.204716 -0.707997 0
M  V30 15320 H 1469.82 -0.167984 -1.89256 0
M  V30 15321 H 1467.97 1.74723 -3.46993 0
M  V30 15322 H 1469.65 -0.61871 -4.57132 0
M  V30 15323 H 1467.89 -0.650529 -4.28895 0
M  V30 15324 H 1468.56 0.443724 -5.50214 0
M  V30 15325 H 1471.04 1.49098 -3.8847 0
M  V30 15326 H 1469.91 2.37502 -4.94858 0
M  V30 15327 H 1470.17 2.93659 -3.3048 0
M  V30 15328 N 1469.23 1.56605 0.176793 0
M  V30 15329 C 1470.48 1.80875 0.892578 0
M  V30 15330 C 1470.79 0.673245 1.83648 0
M  V30 15331 O 1472 0.800732 2.59423 0
M  V30 15332 C 1470.46 3.20481 1.63768 0
M  V30 15333 C 1470.06 4.41885 0.737685 0
M  V30 15334 C 1471.81 3.54048 2.34202 0
M  V30 15335 C 1469.71 5.72512 1.48271 0
M  V30 15336 H 1468.64 0.674476 0.337042 0
M  V30 15337 H 1471.3 1.82922 0.145574 0
M  V30 15338 H 1469.68 3.12736 2.42924 0
M  V30 15339 H 1470.85 4.60797 -0.0165186 0
M  V30 15340 H 1469.17 4.16153 0.143277 0
M  V30 15341 H 1471.76 4.48886 2.90526 0
M  V30 15342 H 1472.11 2.78665 3.09276 0
M  V30 15343 H 1472.64 3.63322 1.61995 0
M  V30 15344 H 1469.38 6.5091 0.774399 0
M  V30 15345 H 1468.9 5.57586 2.21038 0
M  V30 15346 H 1470.58 6.14274 2.03165 0
M  V30 15347 N 1470.71 -0.445159 1.51182 0
M  V30 15348 C 1471.93 -1.22249 1.67541 0
M  V30 15349 C 1472.36 -1.84446 0.368972 0
M  V30 15350 O 1471.72 -1.68463 -0.670058 0
M  V30 15351 C 1471.77 -2.288 2.78717 0
M  V30 15352 O 1470.87 -3.34094 2.41775 0
M  V30 15353 H 1470.21 -0.358516 0.558894 0
M  V30 15354 H 1472.74 -0.526696 1.97704 0
M  V30 15355 H 1472.75 -2.73708 3.02569 0
M  V30 15356 H 1471.43 -1.82906 3.73521 0
M  V30 15357 H 1470 -2.94717 2.28466 0
M  V30 15358 N 1472.19 -1.41197 -0.700089 0
M  V30 15359 C 1473.12 -1.45456 -1.8266 0
M  V30 15360 C 1474.1 -0.313719 -1.67182 0
M  V30 15361 O 1475.28 -0.524528 -1.86982 0
M  V30 15362 C 1472.41 -1.33161 -3.20758 0
M  V30 15363 C 1471.37 -2.4501 -3.50933 0
M  V30 15364 C 1470.69 -2.17782 -4.88339 0
M  V30 15365 C 1471.99 -3.87352 -3.50365 0
M  V30 15366 H 1473.69 -2.39735 -1.79353 0
M  V30 15367 H 1471.23 -1.1539 -0.861465 0
M  V30 15368 H 1473.19 -1.34754 -3.99274 0
M  V30 15369 H 1471.91 -0.353646 -3.2468 0
M  V30 15370 H 1470.57 -2.42692 -2.74766 0
M  V30 15371 H 1470.22 -1.1834 -4.88881 0
M  V30 15372 H 1469.92 -2.92728 -5.09494 0
M  V30 15373 H 1471.44 -2.21083 -5.6917 0
M  V30 15374 H 1472.86 -3.9141 -4.18893 0
M  V30 15375 H 1471.25 -4.61944 -3.83051 0
M  V30 15376 H 1472.32 -4.15827 -2.4943 0
M  V30 15377 N 1473.67 0.933891 -1.2695 0
M  V30 15378 C 1474.6 2.03768 -1.04934 0
M  V30 15379 C 1475.61 1.62798 -0.00740752 0
M  V30 15380 O 1476.8 1.76765 -0.248289 0
M  V30 15381 C 1473.9 3.34097 -0.568515 0
M  V30 15382 C 1473.07 4.03794 -1.68133 0
M  V30 15383 C 1472.13 5.12397 -1.19731 0
M  V30 15384 O 1471.16 5.36701 -1.89579 0
M  V30 15385 N 1472.36 5.80479 -0.0496327 0
M  V30 15386 H 1475.12 2.23219 -1.99984 0
M  V30 15387 H 1472.69 1.10386 -1.18433 0
M  V30 15388 H 1474.68 4.04053 -0.228736 0
M  V30 15389 H 1473.25 3.11265 0.288587 0
M  V30 15390 H 1472.47 3.27655 -2.1917 0
M  V30 15391 H 1473.76 4.4711 -2.42837 0
M  V30 15392 H 1473.15 5.63179 0.533509 0
M  V30 15393 H 1471.71 6.5139 0.231014 0
M  V30 15394 N 1475.14 1.08871 1.13951 0
M  V30 15395 C 1476.09 0.722966 2.19184 0
M  V30 15396 C 1477.06 -0.293108 1.63493 0
M  V30 15397 O 1478.25 -0.176036 1.89986 0
M  V30 15398 C 1475.39 0.143542 3.44801 0
M  V30 15399 C 1474.5 1.21297 4.14622 0
M  V30 15400 C 1473.63 0.596902 5.27836 0
M  V30 15401 C 1472.67 1.64803 5.89497 0
M  V30 15402 N 1471.81 1.05341 6.94152 0
M  V30 15403 H 1476.65 1.62464 2.49819 0
M  V30 15404 H 1474.19 0.811803 1.22671 0
M  V30 15405 H 1476.14 -0.210153 4.1667 0
M  V30 15406 H 1474.77 -0.721426 3.14635 0
M  V30 15407 H 1473.83 1.68403 3.41093 0
M  V30 15408 H 1475.14 2.00931 4.56539 0
M  V30 15409 H 1474.29 0.191724 6.06397 0
M  V30 15410 H 1473.03 -0.231052 4.87152 0
M  V30 15411 H 1472.04 2.06282 5.09635 0
M  V30 15412 H 1473.26 2.47855 6.32254 0
M  V30 15413 H 1471.21 0.24664 6.55536 0
M  V30 15414 H 1471.12 1.7868 7.34581 0
M  V30 15415 H 1472.39 0.674253 7.76578 0
M  V30 15416 N 1476.62 -1.31073 0.875073 0
M  V30 15417 C 1477.87 -1.95791 0.484661 0
M  V30 15418 C 1478.18 -1.69907 -0.969074 0
M  V30 15419 O 1479.39 -2.28527 -1.46587 0
M  V30 15420 C 1477.85 -3.50532 0.815804 0
M  V30 15421 C 1477.45 -3.85249 2.28664 0
M  V30 15422 C 1479.2 -4.21615 0.494111 0
M  V30 15423 C 1477.1 -5.33124 2.55993 0
M  V30 15424 H 1476.03 -0.732806 0.177516 0
M  V30 15425 H 1478.69 -1.49169 1.06868 0
M  V30 15426 H 1477.07 -3.95673 0.16098 0
M  V30 15427 H 1478.24 -3.51051 2.98496 0
M  V30 15428 H 1476.56 -3.27244 2.57488 0
M  V30 15429 H 1479.15 -5.30417 0.675456 0
M  V30 15430 H 1479.5 -4.12437 -0.565815 0
M  V30 15431 H 1480.03 -3.82125 1.1057 0
M  V30 15432 H 1476.77 -5.47343 3.60688 0
M  V30 15433 H 1476.29 -5.68657 1.90761 0
M  V30 15434 H 1477.97 -6.00446 2.40984 0
M  V30 15435 N 1478.1 -0.635022 -1.4424 0
M  V30 15436 C 1479.35 -0.138497 -2.01224 0
M  V30 15437 C 1479.66 1.2485 -1.50571 0
M  V30 15438 O 1480.87 1.83926 -1.99709 0
M  V30 15439 C 1479.32 -0.196836 -3.59361 0
M  V30 15440 C 1478.93 -1.58539 -4.1901 0
M  V30 15441 C 1480.68 0.243025 -4.23804 0
M  V30 15442 C 1478.58 -1.59864 -5.69384 0
M  V30 15443 H 1477.51 -0.0480117 -0.75247 0
M  V30 15444 H 1480.16 -0.794391 -1.65414 0
M  V30 15445 H 1478.55 0.526231 -3.92488 0
M  V30 15446 H 1479.72 -2.33236 -3.97414 0
M  V30 15447 H 1478.04 -1.96967 -3.66869 0
M  V30 15448 H 1480.63 0.252717 -5.34102 0
M  V30 15449 H 1480.98 1.27107 -3.96421 0
M  V30 15450 H 1481.51 -0.427678 -3.95494 0
M  V30 15451 H 1478.25 -2.60518 -6.01507 0
M  V30 15452 H 1477.77 -0.894664 -5.9309 0
M  V30 15453 H 1479.45 -1.3343 -6.33092 0
M  V30 15454 N 1479.58 1.53054 -0.375806 0
M  V30 15455 C 1480.49 2.29772 0.47349 0
M  V30 15456 C 1481.5 1.36144 1.08355 0
M  V30 15457 O 1482.68 1.69208 1.09228 0
M  V30 15458 C 1479.75 3.07964 1.59245 0
M  V30 15459 C 1478.81 4.17277 1.00888 0
M  V30 15460 C 1478.04 4.91731 2.07451 0
M  V30 15461 O 1478.26 4.66143 3.28736 0
M  V30 15462 O 1477.2 5.77413 1.69936 0
M  V30 15463 H 1481.02 3.03324 -0.151105 0
M  V30 15464 H 1478.61 1.48744 -0.139895 0
M  V30 15465 H 1480.49 3.56759 2.24279 0
M  V30 15466 H 1479.16 2.37239 2.20226 0
M  V30 15467 H 1478.07 3.7271 0.322167 0
M  V30 15468 H 1479.4 4.90198 0.443483 0
M  V30 15469 N 1481.06 0.105248 1.57248 0
M  V30 15470 C 1482.31 -0.555797 1.93891 0
M  V30 15471 C 1482.62 -1.68703 0.989883 0
M  V30 15472 O 1483.82 -2.40991 1.25043 0
M  V30 15473 C 1482.28 -1.04006 3.44544 0
M  V30 15474 C 1481.89 0.0619641 4.47957 0
M  V30 15475 C 1483.63 -1.67327 3.90131 0
M  V30 15476 C 1481.54 -0.438229 5.89774 0
M  V30 15477 H 1480.47 -0.211391 0.723761 0
M  V30 15478 H 1483.12 0.182887 1.82586 0
M  V30 15479 H 1481.5 -1.83275 3.51036 0
M  V30 15480 H 1482.68 0.837803 4.5312 0
M  V30 15481 H 1480.99 0.600973 4.1204 0
M  V30 15482 H 1483.59 -2.0584 4.93492 0
M  V30 15483 H 1483.93 -2.54638 3.29341 0
M  V30 15484 H 1484.46 -0.946231 3.86382 0
M  V30 15485 H 1481.2 0.398506 6.54288 0
M  V30 15486 H 1480.72 -1.18085 5.88061 0
M  V30 15487 H 1482.4 -0.903922 6.40655 0
M  V30 15488 N 1482.53 -1.56697 -0.168486 0
M  V30 15489 C 1483.47 -1.93197 -1.23319 0
M  V30 15490 C 1484.48 -0.825373 -1.40326 0
M  V30 15491 O 1485.67 -1.10381 -1.40279 0
M  V30 15492 C 1482.77 -2.17205 -2.60145 0
M  V30 15493 C 1481.94 -3.48442 -2.64399 0
M  V30 15494 C 1481 -3.61244 -3.82609 0
M  V30 15495 O 1480.03 -4.33837 -3.68476 0
M  V30 15496 N 1481.23 -2.96304 -4.99183 0
M  V30 15497 H 1483.99 -2.85128 -0.923138 0
M  V30 15498 H 1481.55 -1.57887 -0.358229 0
M  V30 15499 H 1483.55 -2.23031 -3.37697 0
M  V30 15500 H 1482.12 -1.31643 -2.83529 0
M  V30 15501 H 1481.34 -3.54248 -1.72922 0
M  V30 15502 H 1482.62 -4.34795 -2.64255 0
M  V30 15503 H 1482.02 -2.37203 -5.13567 0
M  V30 15504 H 1480.58 -3.07722 -5.74587 0
M  V30 15505 N 1484.01 0.437135 -1.51416 0
M  V30 15506 C 1485.24 1.21359 -1.68187 0
M  V30 15507 C 1485.66 1.84247 -0.378748 0
M  V30 15508 O 1485.02 1.68816 0.661115 0
M  V30 15509 C 1485.07 2.27319 -2.79926 0
M  V30 15510 O 1484.17 3.32807 -2.43543 0
M  V30 15511 H 1483.51 0.355547 -0.560787 0
M  V30 15512 H 1486.04 0.516204 -1.97981 0
M  V30 15513 H 1486.05 2.721 -3.04016 0
M  V30 15514 H 1484.73 1.80923 -3.74486 0
M  V30 15515 H 1483.31 2.93501 -2.30025 0
M  V30 15516 N 1485.49 1.41566 0.692592 0
M  V30 15517 C 1486.42 1.38067 1.81694 0
M  V30 15518 C 1487.4 0.247482 1.60706 0
M  V30 15519 O 1488.59 0.43487 1.83415 0
M  V30 15520 C 1485.71 1.15438 3.18421 0
M  V30 15521 C 1484.76 2.31515 3.58194 0
M  V30 15522 S 1485.59 3.94003 3.6266 0
M  V30 15523 C 1486.75 3.73683 5.02108 0
M  V30 15524 H 1486.98 2.33215 1.84386 0
M  V30 15525 H 1484.51 1.28125 0.861585 0
M  V30 15526 H 1486.47 1.03069 3.9735 0
M  V30 15527 H 1485.13 0.219055 3.13335 0
M  V30 15528 H 1484.33 2.11383 4.57529 0
M  V30 15529 H 1483.93 2.40307 2.86581 0
M  V30 15530 H 1486.22 3.33573 5.89691 0
M  V30 15531 H 1487.16 4.72631 5.27281 0
M  V30 15532 H 1487.57 3.06899 4.73786 0
M  V30 15533 N 1486.97 -0.927146 1.27443 0
M  V30 15534 C 1488.19 -1.71426 1.16739 0
M  V30 15535 C 1488.62 -1.86122 -0.272063 0
M  V30 15536 O 1487.98 -1.36165 -1.19703 0
M  V30 15537 C 1488.02 -3.09131 1.85661 0
M  V30 15538 O 1487.13 -3.95897 1.15495 0
M  V30 15539 H 1486.47 -0.525428 0.405983 0
M  V30 15540 H 1489 -1.16022 1.68523 0
M  V30 15541 H 1489.01 -3.59442 1.93042 0
M  V30 15542 H 1487.68 -2.97752 2.90373 0
M  V30 15543 H 1486.26 -3.54337 1.16187 0
M  V30 15544 N 1488.45 -1.09474 -1.13372 0
M  V30 15545 C 1489.38 -0.756441 -2.20908 0
M  V30 15546 C 1490.36 0.266113 -1.68006 0
M  V30 15547 O 1491.54 0.134067 -1.93737 0
M  V30 15548 C 1488.67 -0.176733 -3.4685 0
M  V30 15549 C 1487.63 -1.12886 -4.12845 0
M  V30 15550 C 1486.95 -0.410831 -5.33119 0
M  V30 15551 C 1488.25 -2.47148 -4.60125 0
M  V30 15552 H 1489.95 -1.65555 -2.49463 0
M  V30 15553 H 1487.49 -0.797458 -1.19902 0
M  V30 15554 H 1489.45 0.0720151 -4.21338 0
M  V30 15555 H 1488.17 0.757576 -3.17692 0
M  V30 15556 H 1486.83 -1.36289 -3.40325 0
M  V30 15557 H 1486.48 0.527632 -5.00225 0
M  V30 15558 H 1486.18 -1.04567 -5.78221 0
M  V30 15559 H 1487.7 -0.170394 -6.10362 0
M  V30 15560 H 1489.11 -2.27949 -5.26034 0
M  V30 15561 H 1487.51 -3.06425 -5.15969 0
M  V30 15562 H 1488.58 -3.07874 -3.74622 0
M  V30 15563 N 1489.92 1.30607 -0.882012 0
M  V30 15564 C 1490.87 2.2821 -0.344826 0
M  V30 15565 C 1491.84 1.56254 0.563361 0
M  V30 15566 O 1493.03 1.84336 0.492416 0
M  V30 15567 C 1490.17 3.42319 0.437216 0
M  V30 15568 C 1489.28 4.29098 -0.499851 0
M  V30 15569 C 1488.41 5.30366 0.297497 0
M  V30 15570 C 1487.45 6.08795 -0.63523 0
M  V30 15571 N 1486.59 7.01986 0.12661 0
M  V30 15572 H 1491.43 2.73543 -1.18229 0
M  V30 15573 H 1488.97 1.34556 -0.594392 0
M  V30 15574 H 1490.93 4.07232 0.906521 0
M  V30 15575 H 1489.56 2.98063 1.23928 0
M  V30 15576 H 1488.61 3.6452 -1.08764 0
M  V30 15577 H 1489.92 4.83787 -1.21454 0
M  V30 15578 H 1489.07 6.01013 0.828786 0
M  V30 15579 H 1487.81 4.76364 1.04542 0
M  V30 15580 H 1486.82 5.37028 -1.17817 0
M  V30 15581 H 1488.04 6.64885 -1.3822 0
M  V30 15582 H 1485.99 6.50376 0.857125 0
M  V30 15583 H 1485.91 7.5415 -0.528512 0
M  V30 15584 H 1487.17 7.76879 0.638738 0
M  V30 15585 N 1491.4 0.642663 1.43901 0
M  V30 15586 C 1492.65 0.151778 2.0193 0
M  V30 15587 C 1492.98 -1.23052 1.50627 0
M  V30 15588 O 1492.23 -1.83305 0.685404 0
M  V30 15589 C 1492.53 0.100139 3.5726 0
M  V30 15590 C 1492.2 1.42276 4.27865 0
M  V30 15591 C 1490.86 1.78497 4.46869 0
M  V30 15592 C 1493.21 2.29526 4.67939 0
M  V30 15593 C 1490.54 3.01655 5.03211 0
M  V30 15594 C 1492.89 3.51966 5.25645 0
M  V30 15595 C 1491.56 3.88396 5.42867 0
M  V30 15596 H 1490.83 0.0555394 0.738916 0
M  V30 15597 H 1493.47 0.831273 1.72517 0
M  V30 15598 H 1491.78 -0.66277 3.86154 0
M  V30 15599 H 1493.47 -0.29638 3.99903 0
M  V30 15600 H 1490.06 1.13091 4.13411 0
M  V30 15601 H 1494.25 2.02835 4.52959 0
M  V30 15602 H 1489.5 3.29943 5.14731 0
M  V30 15603 H 1493.68 4.19799 5.55645 0
M  V30 15604 H 1491.31 4.83909 5.8629 0
M  V30 15605 N 1492.88 -1.52852 0.383918 0
M  V30 15606 C 1494.11 -2.06406 -0.202764 0
M  V30 15607 C 1494.53 -1.25421 -1.40183 0
M  V30 15608 O 1493.89 -0.277876 -1.79158 0
M  V30 15609 C 1493.94 -3.56281 -0.556414 0
M  V30 15610 O 1493.04 -3.77904 -1.65113 0
M  V30 15611 H 1492.38 -0.663523 -0.0251737 0
M  V30 15612 H 1494.91 -1.97074 0.54983 0
M  V30 15613 H 1494.92 -3.99629 -0.822249 0
M  V30 15614 H 1493.6 -4.14665 0.320253 0
M  V30 15615 H 1492.17 -3.46448 -1.37943 0
M  V30 15616 O 1494.4 -0.25391 -1.59492 0
M  V30 15617 H 1495.09 0.320306 -1.91033 0
M  V30 END ATOM
M  V30 BEGIN BOND
M  V30 END BOND
M  V30 END CTAB
M  END
$$$$
