drugbank_target|Q9UKU7 Isobutyryl-CoA dehydrogenase, mitochondrial (DB01675; DB03147)
 OpenBabel12092119353D

  0  0  0     0  0            999 V3000
M  V30 BEGIN CTAB
M  V30 COUNTS 6293 6349 0 0 0
M  V30 BEGIN ATOM
M  V30 1 H -0.908 1.98254 -0.117106 0
M  V30 2 N 0 1.576 0 0
M  V30 3 C 0.933 2.03868 1.02534 0
M  V30 4 C 1.911 0.928543 1.3348 0
M  V30 5 O 3.095 1.19667 1.45644 0
M  V30 6 C 0.222 2.43627 2.35294 0
M  V30 7 C -0.732 3.65373 2.2001 0
M  V30 8 S 0.101 5.13292 1.52614 0
M  V30 9 C 1.257 5.56322 2.86805 0
M  V30 10 H 1.49 2.90518 0.631377 0
M  V30 11 H -0.977 1.52953 0.210867 0
M  V30 12 H 0.981 2.67203 3.11629 0
M  V30 13 H -0.358 1.57376 2.7183 0
M  V30 14 H -1.165 3.90944 3.18086 0
M  V30 15 H -1.563 3.418 1.51819 0
M  V30 16 H 0.729 5.58782 3.83104 0
M  V30 17 H 1.672 6.56266 2.65933 0
M  V30 18 H 2.08 4.83886 2.90714 0
M  V30 19 N 1.4781 -0.272755 1.55222 0
M  V30 20 C 2.4081 -1.34136 1.91127 0
M  V30 21 C 3.3891 -1.51513 0.773168 0
M  V30 22 O 4.5741 -1.64552 1.03132 0
M  V30 23 C 1.7041 -2.70083 2.1834 0
M  V30 24 C 0.6581 -2.67437 3.34158 0
M  V30 25 C -0.0159 -4.06938 3.46851 0
M  V30 26 C 1.2841 -2.26686 4.70543 0
M  V30 27 H 2.9781 -1.04333 2.80633 0
M  V30 28 H 0.5241 -0.500454 1.35024 0
M  V30 29 H 2.4771 -3.44952 2.42046 0
M  V30 30 H 1.2011 -3.01469 1.25634 0
M  V30 31 H -0.1399 -1.95026 3.1042 0
M  V30 32 H -0.4919 -4.35547 2.51611 0
M  V30 33 H -0.7919 -4.06062 4.2472 0
M  V30 34 H 0.7321 -4.83545 3.72849 0
M  V30 35 H 2.1461 -2.91277 4.93792 0
M  V30 36 H 0.5431 -2.36971 5.5133 0
M  V30 37 H 1.6131 -1.21818 4.69349 0
M  V30 38 N 2.9562 -1.48159 -0.537278 0
M  V30 39 C 4.2022 -1.57015 -1.29297 0
M  V30 40 C 4.5572 -0.237791 -1.90925 0
M  V30 41 O 3.8502 0.758621 -1.75942 0
M  V30 42 C 4.0442 -2.63956 -2.40961 0
M  V30 43 C 3.8732 -4.07461 -1.90278 0
M  V30 44 C 2.6432 -4.74685 -1.73213 0
M  V30 45 C 4.8412 -4.93858 -1.43556 0
M  V30 46 N 2.8232 -6.02633 -1.17078 0
M  V30 47 C 4.1942 -6.11993 -0.993204 0
M  V30 48 C 6.2492 -4.80141 -1.31792 0
M  V30 49 C 4.9522 -7.17923 -0.444872 0
M  V30 50 C 6.9782 -5.86186 -0.783585 0
M  V30 51 C 6.3402 -7.03524 -0.351261 0
M  V30 52 H 2.4392 -0.629154 -0.464423 0
M  V30 53 H 5.0232 -1.85006 -0.606705 0
M  V30 54 H 3.1942 -2.378 -3.07093 0
M  V30 55 H 4.9262 -2.62539 -3.07986 0
M  V30 56 H 1.6812 -4.30902 -1.9652 0
M  V30 57 H 2.1052 -6.7085 -0.910421 0
M  V30 58 H 6.7472 -3.89772 -1.63823 0
M  V30 59 H 4.4652 -8.08022 -0.11222 0
M  V30 60 H 8.0512 -5.77624 -0.695835 0
M  V30 61 H 6.9312 -7.8418 0.055777 0
M  V30 62 N 4.4343 0.785586 -1.36625 0
M  V30 63 C 5.6593 1.57963 -1.34397 0
M  V30 64 C 6.0843 1.87964 0.071526 0
M  V30 65 O 5.4423 1.48182 1.0446 0
M  V30 66 C 5.4903 2.87511 -2.17646 0
M  V30 67 O 4.5943 3.81281 -1.57158 0
M  V30 68 H 3.9353 0.479014 -0.459828 0
M  V30 69 H 6.4653 0.973411 -1.79961 0
M  V30 70 H 6.4753 3.36745 -2.30362 0
M  V30 71 H 5.1503 2.65002 -3.20541 0
M  V30 72 H 3.7273 3.39885 -1.53403 0
M  V30 73 N 5.9124 1.20967 1.01018 0
M  V30 74 C 7.1604 1.02172 1.74371 0
M  V30 75 C 7.4814 -0.446414 1.89821 0
M  V30 76 O 6.7514 -1.32234 1.44537 0
M  V30 77 H 5.3314 0.375066 0.646014 0
M  V30 78 H 7.9934 1.52187 1.21758 0
M  V30 79 H 7.0894 1.48538 2.74487 0
M  V30 80 N 7.3905 -1.2043 1.01659 0
M  V30 81 C 8.6305 -1.91507 0.714456 0
M  V30 82 C 8.9945 -1.77073 -0.742237 0
M  V30 83 O 10.1955 -2.42631 -1.15688 0
M  V30 84 C 8.4665 -3.38795 1.13809 0
M  V30 85 S 10.0255 -4.28216 0.957925 0
M  V30 86 H 6.8435 -0.661571 0.260471 0
M  V30 87 H 9.4455 -1.45671 1.30384 0
M  V30 88 H 8.1495 -3.46822 2.19415 0
M  V30 89 H 7.6805 -3.89656 0.541474 0
M  V30 90 H 9.6955 -4.96007 -0.138531 0
M  V30 91 N 8.8686 -0.792821 -1.36206 0
M  V30 92 C 10.2846 -0.474903 -1.52371 0
M  V30 93 C 10.4846 1.00622 -1.74578 0
M  V30 94 O 9.5406 1.79162 -1.77924 0
M  V30 95 C 10.8536 -1.3083 -2.70747 0
M  V30 96 C 12.4016 -1.30234 -2.84619 0
M  V30 97 C 12.8766 -2.11956 -4.06004 0
M  V30 98 N 14.3676 -2.09419 -4.13156 0
M  V30 99 C 15.1026 -2.69419 -5.06163 0
M  V30 100 N 14.5986 -3.3829 -6.04592 0
M  V30 101 N 16.3916 -2.59134 -4.98804 0
M  V30 102 H 8.5426 -1.75222 -1.20046 0
M  V30 103 H 10.8056 -0.745024 -0.586211 0
M  V30 104 H 10.5116 -2.35881 -2.6087 0
M  V30 105 H 10.3856 -0.95196 -3.6499 0
M  V30 106 H 12.7726 -0.259748 -2.93955 0
M  V30 107 H 12.8536 -1.69847 -1.91274 0
M  V30 108 H 12.4976 -3.16248 -3.97429 0
M  V30 109 H 12.4276 -1.69711 -4.98503 0
M  V30 110 H 14.9186 -1.59297 -3.42685 0
M  V30 111 H 15.2316 -3.81394 -6.7213 0
M  V30 112 H 13.5766 -3.42393 -6.04807 0
M  V30 113 H 16.7676 -2.04927 -4.20859 0
M  V30 114 H 16.9406 -3.06185 -5.711 0
M  V30 115 N 10.3467 1.47872 -0.545128 0
M  V30 116 C 11.7627 1.5829 -0.204032 0
M  V30 117 C 11.9627 1.54529 1.29317 0
M  V30 118 O 11.0187 1.44232 2.07252 0
M  V30 119 C 12.3317 2.89304 -0.819987 0
M  V30 120 C 13.8797 3.02864 -0.790105 0
M  V30 121 C 14.3547 4.3656 -1.38491 0
M  V30 122 N 15.8457 4.43165 -1.34755 0
M  V30 123 C 16.5807 5.45153 -1.77753 0
M  V30 124 N 16.0767 6.54016 -2.2855 0
M  V30 125 N 17.8697 5.36125 -1.68897 0
M  V30 126 H 10.0207 1.4856 -1.51802 0
M  V30 127 H 12.2837 0.706305 -0.632327 0
M  V30 128 H 11.9897 2.97757 -1.87173 0
M  V30 129 H 11.8637 3.75957 -0.305915 0
M  V30 130 H 14.2507 2.94014 0.252913 0
M  V30 131 H 14.3317 2.17782 -1.34181 0
M  V30 132 H 13.9757 4.46164 -2.42693 0
M  V30 133 H 13.9057 5.20353 -0.808754 0
M  V30 134 H 16.3967 3.65083 -0.975855 0
M  V30 135 H 16.7097 7.27994 -2.59314 0
M  V30 136 H 15.0547 6.54938 -2.32553 0
M  V30 137 H 18.2457 4.49975 -1.28998 0
M  V30 138 H 18.4187 6.15472 -2.02726 0
M  V30 139 N 11.8248 0.280983 1.55075 0
M  V30 140 C 13.0718 -0.334115 1.99725 0
M  V30 141 C 13.3998 -1.5542 1.1694 0
M  V30 142 O 12.6548 -1.94361 0.228531 0
M  V30 143 C 12.9538 -0.754656 3.49342 0
M  V30 144 C 12.6198 0.361445 4.49449 0
M  V30 145 C 11.2818 0.667893 4.76542 0
M  V30 146 C 13.6338 1.11322 5.09173 0
M  V30 147 C 10.9618 1.7296 5.60626 0
M  V30 148 C 13.3138 2.1647 5.9441 0
M  V30 149 C 11.9778 2.47742 6.19822 0
M  V30 150 H 11.2478 -0.122261 0.730844 0
M  V30 151 H 13.8948 0.395917 1.87363 0
M  V30 152 H 12.1998 -1.56446 3.5921 0
M  V30 153 H 13.8968 -1.24142 3.813 0
M  V30 154 H 10.4868 0.112481 4.28452 0
M  V30 155 H 14.6708 0.88973 4.8826 0
M  V30 156 H 9.9268 1.97684 5.78559 0
M  V30 157 H 14.1008 2.75193 6.3972 0
M  V30 158 H 11.7278 3.30145 6.84769 0
M  V30 159 N 13.3029 -1.57598 0.00835791 0
M  V30 160 C 14.5509 -1.90551 -0.6734 0
M  V30 161 C 14.8719 -0.883301 -1.73847 0
M  V30 162 O 14.1419 0.0781442 -1.95744 0
M  V30 163 H 12.7219 -0.703312 -0.251717 0
M  V30 164 H 15.3839 -1.94833 0.0512592 0
M  V30 165 H 14.4799 -2.9056 -1.13935 0
M  V30 166 N 14.781 0.264519 -1.55364 0
M  V30 167 C 15.744 1.31046 -1.88042 0
M  V30 168 C 16.744 1.41943 -0.755569 0
M  V30 169 O 17.934 1.40947 -1.02369 0
M  V30 170 C 15.066 2.69067 -2.09323 0
M  V30 171 H 16.259 1.03297 -2.81549 0
M  V30 172 H 13.812 0.502989 -1.47986 0
M  V30 173 H 14.547 3.01982 -1.18226 0
M  V30 174 H 14.332 2.62542 -2.91229 0
M  V30 175 H 15.822 3.44623 -2.35848 0
M  V30 176 N 16.2591 1.48442 0.529413 0
M  V30 177 C 17.6751 1.34575 0.858004 0
M  V30 178 C 17.8751 0.3572 1.98309 0
M  V30 179 O 16.9311 -0.221379 2.51528 0
M  V30 180 C 18.2441 2.74617 1.22499 0
M  V30 181 C 19.7921 2.83109 1.33484 0
M  V30 182 C 20.2671 4.23854 1.73526 0
M  V30 183 N 21.7581 4.2653 1.80628 0
M  V30 184 C 22.4931 5.32372 2.12997 0
M  V30 185 N 21.9891 6.48491 2.43786 0
M  V30 186 N 23.7821 5.19766 2.14008 0
M  V30 187 H 15.9331 2.1133 -0.212925 0
M  V30 188 H 18.1961 0.947439 -0.0326199 0
M  V30 189 H 17.9021 3.4852 0.471905 0
M  V30 190 H 17.7761 3.08177 2.17501 0
M  V30 191 H 20.1631 2.09462 2.0787 0
M  V30 192 H 20.2441 2.53168 0.366027 0
M  V30 193 H 19.8881 4.98018 0.997013 0
M  V30 194 H 19.8181 4.5124 2.71459 0
M  V30 195 H 22.3091 3.42772 1.59108 0
M  V30 196 H 22.6221 7.24993 2.67592 0
M  V30 197 H 20.9671 6.51765 2.41304 0
M  V30 198 H 24.1581 4.28066 1.89412 0
M  V30 199 H 24.3311 6.02354 2.38902 0
M  V30 200 N 17.7372 -0.778329 1.37039 0
M  V30 201 C 18.6672 -1.90546 1.34962 0
M  V30 202 C 19.6482 -1.68681 0.219274 0
M  V30 203 O 20.8332 -1.89634 0.418624 0
M  V30 204 C 17.9632 -3.27734 1.14925 0
M  V30 205 C 16.9172 -3.64147 2.24902 0
M  V30 206 C 16.2432 -4.99806 1.89996 0
M  V30 207 C 17.5432 -3.71579 3.67051 0
M  V30 208 H 19.2372 -1.92541 2.29277 0
M  V30 209 H 16.7832 -0.924948 1.10366 0
M  V30 210 H 18.7362 -4.06215 1.12104 0
M  V30 211 H 17.4602 -3.26154 0.170631 0
M  V30 212 H 16.1192 -2.8797 2.26868 0
M  V30 213 H 15.7672 -4.94759 0.906796 0
M  V30 214 H 15.4672 -5.25139 2.63634 0
M  V30 215 H 16.9912 -5.80694 1.88749 0
M  V30 216 H 18.4052 -4.40227 3.67251 0
M  V30 217 H 16.8022 -4.08405 4.39688 0
M  V30 218 H 17.8722 -2.72404 4.01154 0
M  V30 219 N 19.2153 -1.21501 -1.00376 0
M  V30 220 C 20.4633 -1.03095 -1.73827 0
M  V30 221 C 20.7843 0.436341 -1.90055 0
M  V30 222 O 20.0543 1.31466 -1.45236 0
M  V30 223 H 18.6343 -0.378487 -0.644016 0
M  V30 224 H 21.2963 -1.52831 -1.20949 0
M  V30 225 H 20.3923 -1.49991 -2.73695 0
M  V30 226 N 20.6934 1.19889 -1.02296 0
M  V30 227 C 21.9334 1.91125 -0.724602 0
M  V30 228 C 22.2974 1.77464 0.732835 0
M  V30 229 O 23.4984 2.43241 1.144 0
M  V30 230 C 21.7694 3.38187 -1.15604 0
M  V30 231 S 23.3284 4.27702 -0.980621 0
M  V30 232 H 20.1464 0.66018 -0.263976 0
M  V30 233 H 22.7484 1.44978 -1.31155 0
M  V30 234 H 21.4524 3.45653 -2.21251 0
M  V30 235 H 20.9834 3.89363 -0.562131 0
M  V30 236 H 22.9984 4.96073 0.112225 0
M  V30 237 N 22.1715 0.800033 1.35784 0
M  V30 238 C 23.1015 0.220184 2.3246 0
M  V30 239 C 24.0825 -0.65073 1.57161 0
M  V30 240 O 25.2675 -0.582359 1.85263 0
M  V30 241 C 22.3975 -0.637353 3.41402 0
M  V30 242 C 21.3515 0.134531 4.27789 0
M  V30 243 C 20.6775 -0.844285 5.27992 0
M  V30 244 C 21.9775 1.32979 5.05088 0
M  V30 245 H 23.6715 1.02787 2.81203 0
M  V30 246 H 21.2175 0.495717 1.35199 0
M  V30 247 H 23.1705 -1.05302 4.08031 0
M  V30 248 H 21.8945 -1.47785 2.91251 0
M  V30 249 H 20.5535 0.531296 3.6273 0
M  V30 250 H 20.2015 -1.68011 4.74111 0
M  V30 251 H 19.9015 -0.332184 5.8666 0
M  V30 252 H 21.4255 -1.2583 5.97494 0
M  V30 253 H 22.8395 0.98934 5.64699 0
M  V30 254 H 21.2365 1.77593 5.7322 0
M  V30 255 H 22.3065 2.11978 4.36111 0
M  V30 256 N 23.6496 -1.47581 0.552962 0
M  V30 257 C 25.0606 -1.86324 0.118463 0
M  V30 258 C 25.4116 -1.46006 -1.3106 0
M  V30 259 O 24.5366 -0.861182 -1.98526 0
M  V30 260 C 25.1316 -3.3816 0.20821 0
M  V30 261 C 23.6906 -3.7601 -0.171226 0
M  V30 262 C 22.8376 -2.71634 0.557686 0
M  V30 263 H 25.7886 -1.39159 0.762928 0
M  V30 264 H 25.8096 -3.76141 -0.574278 0
M  V30 265 H 25.3216 -3.67473 1.24841 0
M  V30 266 H 23.4226 -3.52313 -1.21269 0
M  V30 267 H 23.5356 -4.78745 0.184379 0
M  V30 268 H 21.8996 -2.547 0.00125792 0
M  V30 269 H 22.6826 -3.0379 1.59896 0
M  V30 270 N 25.1277 -0.289203 -1.54924 0
M  V30 271 C 26.3757 0.322879 -1.99504 0
M  V30 272 C 26.6967 1.55313 -1.1791 0
M  V30 273 O 25.9667 1.94001 -0.272097 0
M  V30 274 H 24.5467 0.122291 -0.736922 0
M  V30 275 H 27.2087 -0.397802 -1.90797 0
M  V30 276 H 26.3047 0.603061 -3.06218 0
M  V30 277 N 26.6058 1.57591 -0.0167156 0
M  V30 278 C 27.8538 1.90906 0.663285 0
M  V30 279 C 28.1748 0.892509 1.73376 0
M  V30 280 O 27.4448 -0.0677623 1.95783 0
M  V30 281 H 26.0248 0.704637 0.247983 0
M  V30 282 H 28.6868 1.94803 -0.0615909 0
M  V30 283 H 27.7828 2.9116 1.12393 0
M  V30 284 N 28.0839 -0.256276 1.55502 0
M  V30 285 C 29.0139 -1.32102 1.92539 0
M  V30 286 C 29.9949 -1.50684 0.789194 0
M  V30 287 O 31.1799 -1.63449 1.04872 0
M  V30 288 C 28.3099 -2.67752 2.21192 0
M  V30 289 C 27.2639 -2.63878 3.36975 0
M  V30 290 C 26.5899 -4.03236 3.51147 0
M  V30 291 C 27.8899 -2.21682 4.72921 0
M  V30 292 H 29.5839 -1.01351 2.81724 0
M  V30 293 H 27.1299 -0.486105 1.35547 0
M  V30 294 H 29.0829 -3.42365 2.45691 0
M  V30 295 H 27.8069 -3.0012 1.28824 0
M  V30 296 H 26.4659 -1.91722 3.12471 0
M  V30 297 H 26.1139 -4.32854 2.56216 0
M  V30 298 H 25.8139 -4.01535 4.29003 0
M  V30 299 H 27.3379 -4.79563 3.77957 0
M  V30 300 H 28.7519 -2.86023 4.96854 0
M  V30 301 H 27.1489 -2.3111 5.53812 0
M  V30 302 H 28.2189 -1.16833 4.70615 0
M  V30 303 N 29.562 -1.4872 -0.521534 0
M  V30 304 C 30.978 -1.35028 -0.850855 0
M  V30 305 C 31.178 -0.367712 -1.98116 0
M  V30 306 O 30.234 0.208037 -2.51642 0
M  V30 307 C 31.547 -2.75263 -1.21041 0
M  V30 308 C 33.095 -2.83813 -1.31981 0
M  V30 309 C 33.57 -4.24769 -1.71276 0
M  V30 310 N 35.061 -4.27482 -1.78363 0
M  V30 311 C 35.796 -5.33494 -2.1017 0
M  V30 312 N 35.292 -6.49775 -2.40343 0
M  V30 313 N 37.085 -5.20894 -2.11248 0
M  V30 314 H 29.236 -2.11214 0.22413 0
M  V30 315 H 31.499 -0.947252 0.0376439 0
M  V30 316 H 31.205 -3.48765 -0.453415 0
M  V30 317 H 31.079 -3.09327 -2.15863 0
M  V30 318 H 33.466 -2.10561 -2.06756 0
M  V30 319 H 33.547 -2.53358 -0.352596 0
M  V30 320 H 33.191 -4.9854 -0.970588 0
M  V30 321 H 33.121 -4.52673 -2.69062 0
M  V30 322 H 35.612 -3.43611 -1.57288 0
M  V30 323 H 35.925 -7.26402 -2.63743 0
M  V30 324 H 34.27 -6.53035 -2.37844 0
M  V30 325 H 37.461 -4.29065 -1.87139 0
M  V30 326 H 37.634 -6.03612 -2.35704 0
M  V30 327 N 31.0401 0.771051 -1.3745 0
M  V30 328 C 32.2861 1.5319 -1.32894 0
M  V30 329 C 32.6191 1.94008 0.0862511 0
M  V30 330 O 31.8941 1.64124 1.04373 0
M  V30 331 C 32.1771 2.79648 -2.26868 0
M  V30 332 C 32.0301 2.45079 -3.77169 0
M  V30 333 C 33.3491 3.81583 -2.19277 0
M  V30 334 H 30.4681 0.555744 -0.484064 0
M  V30 335 H 33.1101 0.884492 -1.68157 0
M  V30 336 H 31.2601 3.34891 -1.96926 0
M  V30 337 H 32.9321 1.95745 -4.1771 0
M  V30 338 H 31.1751 1.77767 -3.95704 0
M  V30 339 H 31.8461 3.35478 -4.38359 0
M  V30 340 H 34.3221 3.35835 -2.45671 0
M  V30 341 H 33.1981 4.67787 -2.87171 0
M  V30 342 H 33.4591 4.25897 -1.18592 0
M  V30 343 N 32.5182 1.22032 0.997298 0
M  V30 344 C 33.4482 1.01065 2.10495 0
M  V30 345 C 34.4292 -0.0669542 1.69968 0
M  V30 346 O 35.6142 0.0943987 1.9397 0
M  V30 347 C 32.7442 0.582874 3.42374 0
M  V30 348 C 31.6982 1.60592 3.96729 0
M  V30 349 C 31.0242 1.03412 5.24605 0
M  V30 350 C 32.3242 2.99478 4.27914 0
M  V30 351 H 34.0182 1.93708 2.28292 0
M  V30 352 H 31.5642 0.932761 1.09707 0
M  V30 353 H 33.5172 0.423332 4.19268 0
M  V30 354 H 32.2412 -0.379213 3.24391 0
M  V30 355 H 30.9002 1.75316 3.21963 0
M  V30 356 H 30.5482 0.063518 5.0296 0
M  V30 357 H 30.2482 1.71754 5.61938 0
M  V30 358 H 31.7722 0.886066 6.04137 0
M  V30 359 H 33.1862 2.88153 4.95622 0
M  V30 360 H 31.5832 3.64903 4.76409 0
M  V30 361 H 32.6532 3.49742 3.3587 0
M  V30 362 N 33.9963 -1.19345 1.0293 0
M  V30 363 C 35.2423 -1.89318 0.727083 0
M  V30 364 C 35.5753 -1.79446 -0.742483 0
M  V30 365 O 34.8503 -1.1871 -1.54072 0
M  V30 366 C 35.1333 -3.40238 1.17942 0
M  V30 367 C 34.9863 -3.58979 2.71024 0
M  V30 368 C 36.3053 -4.33479 0.760548 0
M  V30 369 H 33.4243 -0.687475 0.265606 0
M  V30 370 H 36.0663 -1.40477 1.2793 0
M  V30 371 H 34.2163 -3.81964 0.709608 0
M  V30 372 H 35.8883 -3.26421 3.25955 0
M  V30 373 H 34.1313 -3.02018 3.11396 0
M  V30 374 H 34.8023 -4.64823 2.9773 0
M  V30 375 H 37.2783 -3.99469 1.16464 0
M  V30 376 H 36.1543 -5.37664 1.10493 0
M  V30 377 H 36.4153 -4.40813 -0.337063 0
M  V30 378 N 35.4744 -0.807222 -1.35358 0
M  V30 379 C 36.4064 -0.175717 -2.28525 0
M  V30 380 C 37.4194 0.625354 -1.5031 0
M  V30 381 O 38.6084 0.457611 -1.72535 0
M  V30 382 C 35.7084 0.773471 -3.29956 0
M  V30 383 C 34.8814 0.0186296 -4.37396 0
M  V30 384 C 33.9404 0.886395 -5.18681 0
M  V30 385 O 32.9664 0.337106 -5.68201 0
M  V30 386 N 34.1684 2.20839 -5.36852 0
M  V30 387 H 36.9334 -0.976091 -2.83359 0
M  V30 388 H 34.4944 -0.662737 -1.47714 0
M  V30 389 H 36.4864 1.35824 -3.81227 0
M  V30 390 H 35.0564 1.47465 -2.75632 0
M  V30 391 H 34.2764 -0.747349 -3.87051 0
M  V30 392 H 35.5644 -0.501577 -5.06322 0
M  V30 393 H 34.9624 2.67858 -4.98265 0
M  V30 394 H 33.5194 2.74237 -5.91301 0
M  V30 395 N 36.9525 1.47285 -0.560781 0
M  V30 396 C 38.1805 2.06855 -0.0430262 0
M  V30 397 C 38.5955 1.41291 1.25229 0
M  V30 398 O 37.9525 0.510648 1.7521 0
M  V30 399 C 38.0035 3.61178 0.152518 0
M  V30 400 O 37.7245 4.24285 -1.0915 0
M  V30 401 C 39.2255 4.37624 0.707145 0
M  V30 402 H 36.4455 0.669319 -0.0474652 0
M  V30 403 H 38.9895 1.89237 -0.77521 0
M  V30 404 H 37.1445 3.78298 0.834843 0
M  V30 405 H 37.5585 5.16868 -0.891482 0
M  V30 406 H 39.0325 5.46271 0.793244 0
M  V30 407 H 39.5095 4.04152 1.71923 0
M  V30 408 H 40.1155 4.25257 0.0604027 0
M  V30 409 N 38.4306 0.297415 1.54768 0
M  V30 410 C 39.6786 -0.312295 1.99673 0
M  V30 411 C 39.9996 -1.54686 1.18732 0
M  V30 412 O 39.2696 -1.93854 0.282382 0
M  V30 413 H 37.8496 -0.118381 0.73756 0
M  V30 414 H 40.5116 0.407915 1.90583 0
M  V30 415 H 39.6076 -0.586813 3.06534 0
M  V30 416 N 39.9087 -1.5758 0.0250728 0
M  V30 417 C 40.8587 -2.06468 -0.967201 0
M  V30 418 C 41.8427 -0.964376 -1.28797 0
M  V30 419 O 43.0347 -1.22797 -1.27475 0
M  V30 420 C 40.1637 -2.59203 -2.25097 0
M  V30 421 C 39.2497 -3.76157 -1.95874 0
M  V30 422 N 39.6407 -4.86919 -1.36905 0
M  V30 423 C 37.9387 -3.84566 -2.25887 0
M  V30 424 C 38.6397 -5.68172 -1.24724 0
M  V30 425 N 37.6157 -5.14953 -1.74138 0
M  V30 426 H 41.4177 -2.89508 -0.506176 0
M  V30 427 H 38.9317 -1.61399 -0.18004 0
M  V30 428 H 40.9287 -2.92517 -2.97052 0
M  V30 429 H 39.5887 -1.77592 -2.71829 0
M  V30 430 H 40.5997 -5.07256 -1.04459 0
M  V30 431 H 37.2767 -3.13854 -2.75321 0
M  V30 432 H 38.6667 -6.67221 -0.791605 0
M  V30 433 N 41.3868 0.248026 -1.55636 0
M  V30 434 C 42.8028 0.596483 -1.48035 0
M  V30 435 C 43.0028 1.88386 -0.715039 0
M  V30 436 O 42.0588 2.51319 -0.243944 0
M  V30 437 C 43.3718 0.700258 -2.92433 0
M  V30 438 C 44.9198 0.792659 -3.02797 0
M  V30 439 C 45.3948 0.928005 -4.485 0
M  V30 440 N 46.8858 0.992903 -4.52433 0
M  V30 441 C 47.6208 1.11687 -5.62418 0
M  V30 442 N 47.1168 1.20645 -6.82214 0
M  V30 443 N 48.9098 1.14994 -5.50212 0
M  V30 444 H 41.0608 -0.597109 -2.03834 0
M  V30 445 H 43.3238 -0.205925 -0.925364 0
M  V30 446 H 43.0298 -0.175658 -3.51261 0
M  V30 447 H 42.9038 1.57255 -3.42857 0
M  V30 448 H 45.2908 1.65903 -2.4405 0
M  V30 449 H 45.3718 -0.104762 -2.55585 0
M  V30 450 H 45.0158 0.0661971 -5.07857 0
M  V30 451 H 44.9458 1.84045 -4.93391 0
M  V30 452 H 47.4368 0.935064 -3.66149 0
M  V30 453 H 47.7498 1.30008 -7.61786 0
M  V30 454 H 46.0948 1.17605 -6.84977 0
M  V30 455 H 49.2858 1.07643 -4.55555 0
M  V30 456 H 49.4588 1.24311 -6.35965 0
M  V30 457 N 42.8649 1.48995 0.513639 0
M  V30 458 C 44.0899 1.61792 1.29762 0
M  V30 459 C 44.5149 0.284475 1.85936 0
M  V30 460 O 43.8729 -0.746185 1.65232 0
M  V30 461 C 43.9209 2.67993 2.41272 0
M  V30 462 O 43.0249 2.26287 3.44772 0
M  V30 463 H 42.3659 0.541963 0.38363 0
M  V30 464 H 44.8959 1.95097 0.616307 0
M  V30 465 H 44.9059 2.89772 2.87221 0
M  V30 466 H 43.5809 3.64791 1.9975 0
M  V30 467 H 42.1579 2.14788 3.04829 0
M  V30 468 N 44.343 -0.763751 1.37857 0
M  V30 469 C 45.273 -1.89103 1.36975 0
M  V30 470 C 46.254 -1.68439 0.237152 0
M  V30 471 O 47.439 -1.8918 0.438713 0
M  V30 472 C 44.569 -3.26496 1.18395 0
M  V30 473 C 43.523 -3.61741 2.28751 0
M  V30 474 C 42.849 -4.97762 1.95286 0
M  V30 475 C 44.149 -3.67665 3.70972 0
M  V30 476 H 45.843 -1.90099 2.31307 0
M  V30 477 H 43.389 -0.91319 1.11341 0
M  V30 478 H 45.342 -4.05003 1.16406 0
M  V30 479 H 44.066 -3.25955 0.205215 0
M  V30 480 H 42.725 -2.85547 2.29909 0
M  V30 481 H 42.373 -4.93769 0.959221 0
M  V30 482 H 42.073 -5.22313 2.69189 0
M  V30 483 H 43.597 -5.7866 1.94898 0
M  V30 484 H 45.011 -4.36307 3.719 0
M  V30 485 H 43.408 -4.03718 4.43995 0
M  V30 486 H 44.478 -2.68134 4.0402 0
M  V30 487 N 45.8211 -1.22559 -0.990812 0
M  V30 488 C 47.0491 -1.07779 -1.76611 0
M  V30 489 C 47.4641 0.371513 -1.85109 0
M  V30 490 O 46.8211 1.25737 -1.32274 0
M  V30 491 C 46.8721 -1.68512 -3.19822 0
M  V30 492 O 46.5931 -3.07774 -3.1178 0
M  V30 493 C 48.0941 -1.59035 -4.13791 0
M  V30 494 H 45.3141 -0.377729 -0.554583 0
M  V30 495 H 47.8581 -1.62195 -1.24551 0
M  V30 496 H 46.0131 -1.18154 -3.68942 0
M  V30 497 H 46.4271 -3.37062 -4.01858 0
M  V30 498 H 47.9011 -2.0625 -5.1202 0
M  V30 499 H 48.3781 -0.547273 -4.35777 0
M  V30 500 H 48.9841 -2.08709 -3.70568 0
M  V30 501 N 47.2992 1.18797 -1.03562 0
M  V30 502 C 48.5242 1.9314 -0.755764 0
M  V30 503 C 48.9492 1.7537 0.68022 0
M  V30 504 O 48.3072 1.06046 1.47051 0
M  V30 505 C 48.3552 3.42747 -1.12058 0
M  V30 506 O 47.4592 4.11683 -0.243124 0
M  V30 507 H 46.8002 0.602724 -0.278604 0
M  V30 508 H 49.3302 1.50678 -1.3841 0
M  V30 509 H 49.3402 3.93437 -1.08035 0
M  V30 510 H 48.0152 3.55002 -2.16672 0
M  V30 511 H 46.5922 3.71323 -0.342539 0
M  V30 512 N 48.7773 0.814389 1.34928 0
M  V30 513 C 50.0173 0.404165 2.00364 0
M  V30 514 C 50.3813 -1.01166 1.63185 0
M  V30 515 O 51.5823 -1.52431 2.21401 0
M  V30 516 C 49.8533 0.590718 3.52484 0
M  V30 517 S 51.4123 0.272075 4.37956 0
M  V30 518 H 48.2303 0.15311 0.694319 0
M  V30 519 H 50.8323 1.05834 1.64376 0
M  V30 520 H 49.5363 1.62099 3.77031 0
M  V30 521 H 49.0673 -0.0785013 3.93322 0
M  V30 522 H 51.0823 -0.917405 4.87645 0
M  V30 523 N 50.2554 -1.46986 0.568584 0
M  V30 524 C 51.5044 -2.01646 0.0465894 0
M  V30 525 C 51.8174 -1.44721 -1.31587 0
M  V30 526 O 53.0234 -1.91113 -1.92842 0
M  V30 527 C 51.4794 -3.59885 0.032752 0
M  V30 528 C 51.0874 -4.25804 1.39266 0
M  V30 529 C 52.8314 -4.22255 -0.436038 0
M  V30 530 C 50.7384 -5.76081 1.33732 0
M  V30 531 H 49.6684 -0.753876 0.013647 0
M  V30 532 H 52.3194 -1.68864 0.718131 0
M  V30 533 H 50.7014 -3.8968 -0.704669 0
M  V30 534 H 51.8754 -4.07637 2.1487 0
M  V30 535 H 50.1904 -3.7547 1.80032 0
M  V30 536 H 52.7874 -5.32394 -0.49602 0
M  V30 537 H 53.1304 -3.90212 -1.45053 0
M  V30 538 H 53.6634 -3.97033 0.246877 0
M  V30 539 H 50.4024 -6.12761 2.32817 0
M  V30 540 H 49.9224 -5.96553 0.623267 0
M  V30 541 H 51.6014 -6.38518 1.0442 0
M  V30 542 N 51.7335 -0.305618 -1.54608 0
M  V30 543 C 53.0105 0.355652 -1.92339 0
M  V30 544 C 53.3905 1.71324 -1.23335 0
M  V30 545 O 52.7385 2.25473 -0.370702 0
M  V30 546 C 52.9485 0.46572 -3.45879 0
M  V30 547 C 54.2965 0.734426 -4.182 0
M  V30 548 O 55.3205 0.54935 -3.51938 0
M  V30 549 O 54.1795 1.09024 -5.35515 0
M  V30 550 H 51.2735 0.199666 -0.802535 0
M  V30 551 H 53.8195 -0.354017 -1.65966 0
M  V30 552 H 52.5915 -0.488461 -3.88239 0
M  V30 553 H 52.2145 1.22367 -3.78301 0
M  V30 554 N 53.2116 1.57565 -0.0334293 0
M  V30 555 C 54.6226 1.79746 0.504798 0
M  V30 556 C 54.9736 0.944091 1.71992 0
M  V30 557 O 54.0986 0.155694 2.15839 0
M  V30 558 C 54.6936 3.25997 0.922567 0
M  V30 559 C 53.2526 3.49159 1.40588 0
M  V30 560 C 52.3996 2.74785 0.372633 0
M  V30 561 H 55.3506 1.56565 -0.259436 0
M  V30 562 H 55.3716 3.35945 1.78666 0
M  V30 563 H 54.8836 3.88081 0.0379825 0
M  V30 564 H 52.9846 2.92332 2.31025 0
M  V30 565 H 53.0976 4.57873 1.41028 0
M  V30 566 H 51.4616 2.40391 0.841672 0
M  V30 567 H 52.2446 3.39587 -0.503559 0
M  V30 568 N 54.6897 -0.239769 1.55765 0
M  V30 569 C 55.9147 -0.988373 1.82335 0
M  V30 570 C 56.3397 -1.77886 0.611421 0
M  V30 571 O 55.6977 -1.75889 -0.439639 0
M  V30 572 C 55.7457 -1.89627 3.06715 0
M  V30 573 O 54.8497 -2.98904 2.84131 0
M  V30 574 H 54.1907 -0.280858 0.601677 0
M  V30 575 H 56.7207 -0.258597 2.02959 0
M  V30 576 H 56.7307 -2.30957 3.36338 0
M  V30 577 H 55.4057 -1.31511 3.9456 0
M  V30 578 H 53.9827 -2.61651 2.65694 0
M  V30 579 N 56.1678 -1.49265 -0.50573 0
M  V30 580 C 57.1008 -1.60183 -1.62532 0
M  V30 581 C 58.0788 -0.451107 -1.56217 0
M  V30 582 O 59.2628 -0.666016 -1.76342 0
M  V30 583 C 56.3898 -1.55238 -3.01029 0
M  V30 584 C 55.4358 -2.7545 -3.25621 0
M  V30 585 S 56.2688 -4.37174 -3.09256 0
M  V30 586 C 57.4248 -4.34866 -4.50158 0
M  V30 587 H 57.6578 -2.54894 -1.53025 0
M  V30 588 H 55.1908 -1.38098 -0.690535 0
M  V30 589 H 57.1488 -1.53071 -3.80893 0
M  V30 590 H 55.8098 -0.618238 -3.07956 0
M  V30 591 H 55.0028 -2.68197 -4.26716 0
M  V30 592 H 54.6048 -2.75005 -2.53472 0
M  V30 593 H 56.8968 -4.06295 -5.42154 0
M  V30 594 H 57.8398 -5.36223 -4.62462 0
M  V30 595 H 58.2478 -3.65007 -4.30616 0
M  V30 596 N 57.6459 0.756429 -1.3826 0
M  V30 597 C 58.8939 1.51248 -1.34047 0
M  V30 598 C 59.2149 1.94875 0.0698372 0
M  V30 599 O 58.4849 1.67436 1.01696 0
M  V30 600 H 57.0649 0.561018 -0.493222 0
M  V30 601 H 59.7269 0.899347 -1.7291 0
M  V30 602 H 58.8229 2.40472 -1.98947 0
M  V30 603 N 59.124 1.23083 0.984299 0
M  V30 604 C 60.054 1.03292 2.09411 0
M  V30 605 C 61.035 -0.048923 1.7003 0
M  V30 606 O 62.22 0.114967 1.93859 0
M  V30 607 C 59.35 0.619155 3.41736 0
M  V30 608 C 58.304 1.64791 3.95004 0
M  V30 609 C 57.63 1.0897 5.23478 0
M  V30 610 C 58.93 3.03999 4.24714 0
M  V30 611 H 60.624 1.96119 2.26225 0
M  V30 612 H 58.17 0.944344 1.08711 0
M  V30 613 H 60.123 0.467777 4.18796 0
M  V30 614 H 58.847 -0.344786 3.24775 0
M  V30 615 H 57.506 1.78721 3.20085 0
M  V30 616 H 57.154 0.11686 5.02864 0
M  V30 617 H 56.854 1.77704 5.60085 0
M  V30 618 H 58.378 0.950093 6.03163 0
M  V30 619 H 59.792 2.93393 4.92538 0
M  V30 620 H 58.189 3.69936 4.72512 0
M  V30 621 H 59.259 3.53285 3.32142 0
M  V30 622 N 60.6021 -1.18246 1.0419 0
M  V30 623 C 61.5501 -2.23968 0.627792 0
M  V30 624 C 62.5441 -1.65828 -0.346019 0
M  V30 625 O 63.7501 -1.78733 -0.213175 0
M  V30 626 H 60.1251 -0.728939 0.184802 0
M  V30 627 H 62.0961 -2.56202 1.52981 0
M  V30 628 C 60.8451 -3.47699 0.00796591 0
M  V30 629 H 60.1681 -3.92734 0.748347 0
M  V30 630 H 61.6081 -4.23294 -0.24455 0
M  V30 631 C 60.0671 -3.13153 -1.24246 0
M  V30 632 O 60.5971 -3.27003 -2.33307 0
M  V30 633 N 58.8031 -2.67467 -1.13622 0
M  V30 634 H 58.3501 -2.56396 -0.248734 0
M  V30 635 H 58.3081 -2.44724 -1.97377 0
M  V30 636 N 62.0802 -0.821533 -1.34494 0
M  V30 637 C 62.9902 -0.244355 -2.33324 0
M  V30 638 C 64.0062 0.620527 -1.62559 0
M  V30 639 O 65.1822 0.528754 -1.94335 0
M  V30 640 C 62.2472 0.585368 -3.41723 0
M  V30 641 C 61.3082 -0.301752 -4.28238 0
M  V30 642 C 60.5412 0.488466 -5.3146 0
M  V30 643 O 60.7642 1.72186 -5.4379 0
M  V30 644 O 59.6982 -0.12848 -6.01763 0
M  V30 645 H 63.5242 -1.06231 -2.84515 0
M  V30 646 H 61.1092 -0.583645 -1.37528 0
M  V30 647 H 62.9912 1.05747 -4.07916 0
M  V30 648 H 61.6662 1.38068 -2.92778 0
M  V30 649 H 60.5732 -0.821315 -3.64973 0
M  V30 650 H 61.9062 -1.06138 -4.8062 0
M  V30 651 N 63.5583 1.46682 -0.576371 0
M  V30 652 C 64.4683 2.34032 0.163141 0
M  V30 653 C 65.4843 1.49367 0.892501 0
M  V30 654 O 66.6603 1.82252 0.857106 0
M  V30 655 C 63.7253 3.26435 1.16795 0
M  V30 656 C 62.7863 4.26998 0.443944 0
M  V30 657 C 62.0193 5.14986 1.40088 0
M  V30 658 O 62.2423 5.05785 2.637 0
M  V30 659 O 61.1763 5.94906 0.914917 0
M  V30 660 H 65.0023 2.98607 -0.55388 0
M  V30 661 H 62.5873 1.45554 -0.336821 0
M  V30 662 H 64.4693 3.83459 1.74748 0
M  V30 663 H 63.1443 2.64465 1.86655 0
M  V30 664 H 62.0513 3.7368 -0.177271 0
M  V30 665 H 63.3843 4.91736 -0.213566 0
M  V30 666 N 65.0364 0.313813 1.54444 0
M  V30 667 C 65.9684 -0.590425 2.21465 0
M  V30 668 C 66.9814 -1.08753 1.21147 0
M  V30 669 O 68.1704 -1.00278 1.4767 0
M  V30 670 C 65.2704 -1.82179 2.85769 0
M  V30 671 C 64.4434 -1.46502 4.12136 0
M  V30 672 C 63.5024 -2.55288 4.60124 0
M  V30 673 O 62.5284 -2.19842 5.25032 0
M  V30 674 N 63.7304 -3.86053 4.33525 0
M  V30 675 H 66.4954 -0.0166033 2.99695 0
M  V30 676 H 64.0564 0.136578 1.61323 0
M  V30 677 H 66.0484 -2.54328 3.14801 0
M  V30 678 H 64.6184 -2.30369 2.11303 0
M  V30 679 H 63.8384 -0.575595 3.89975 0
M  V30 680 H 65.1264 -1.20221 4.94393 0
M  V30 681 H 64.5244 -4.17654 3.81552 0
M  V30 682 H 63.0814 -4.54461 4.67235 0
M  V30 683 N 66.5145 -1.57545 0.0417849 0
M  V30 684 C 67.4615 -2.10977 -0.935805 0
M  V30 685 C 68.4315 -1.01486 -1.31491 0
M  V30 686 O 69.6165 -1.2898 -1.40602 0
M  V30 687 C 66.7565 -2.65169 -2.2086 0
M  V30 688 C 65.8695 -3.88714 -1.88482 0
M  V30 689 C 65.0045 -4.31254 -3.1015 0
M  V30 690 C 64.0435 -5.47524 -2.7365 0
M  V30 691 N 63.1805 -5.85162 -3.87982 0
M  V30 692 H 68.0205 -2.94218 -0.473249 0
M  V30 693 H 65.5575 -1.45415 -0.221981 0
M  V30 694 H 67.5155 -2.94685 -2.95325 0
M  V30 695 H 66.1455 -1.8474 -2.64709 0
M  V30 696 H 65.1975 -3.65849 -1.04205 0
M  V30 697 H 66.5095 -4.73245 -1.57608 0
M  V30 698 H 65.6635 -4.62273 -3.92923 0
M  V30 699 H 64.4025 -3.45516 -3.44195 0
M  V30 700 H 63.4075 -5.16187 -1.89291 0
M  V30 701 H 64.6325 -6.34971 -2.40807 0
M  V30 702 H 62.5785 -5.02377 -4.21846 0
M  V30 703 H 62.4955 -6.64362 -3.60775 0
M  V30 704 H 63.7635 -6.20791 -4.71422 0
M  V30 705 N 67.9926 0.231505 -1.5589 0
M  V30 706 C 68.9026 1.308 -1.94752 0
M  V30 707 C 69.9186 1.51826 -0.849989 0
M  V30 708 O 71.0946 1.6515 -1.15271 0
M  V30 709 C 68.1596 2.63968 -2.24771 0
M  V30 710 C 67.2206 2.51331 -3.48039 0
M  V30 711 C 66.4536 3.78148 -3.76616 0
M  V30 712 O 66.6766 4.80722 -3.07022 0
M  V30 713 O 65.6106 3.75857 -4.70123 0
M  V30 714 H 69.4366 1.0083 -2.86474 0
M  V30 715 H 67.0216 0.433547 -1.42971 0
M  V30 716 H 68.9036 3.42633 -2.45318 0
M  V30 717 H 67.5786 2.9364 -1.36225 0
M  V30 718 H 66.4856 1.709 -3.32782 0
M  V30 719 H 67.8186 2.26601 -4.36936 0
M  V30 720 N 69.4707 1.49531 0.497807 0
M  V30 721 C 70.7177 1.59179 1.25173 0
M  V30 722 C 71.0457 0.279932 1.92475 0
M  V30 723 O 70.3007 -0.732383 1.81479 0
M  V30 724 C 70.5997 2.70252 2.33878 0
M  V30 725 C 70.2657 4.11644 1.84012 0
M  V30 726 C 68.9277 4.50121 1.70132 0
M  V30 727 C 71.2797 5.00121 1.46725 0
M  V30 728 C 68.6077 5.74845 1.17348 0
M  V30 729 C 70.9597 6.25366 0.95392 0
M  V30 730 C 69.6237 6.6267 0.801538 0
M  V30 731 H 68.8937 0.582478 0.45804 0
M  V30 732 H 71.5407 1.83373 0.551948 0
M  V30 733 H 69.8457 2.40041 3.09657 0
M  V30 734 H 71.5427 2.74925 2.9192 0
M  V30 735 H 68.1327 3.81274 1.95775 0
M  V30 736 H 72.3167 4.71048 1.56294 0
M  V30 737 H 67.5727 6.02444 1.04264 0
M  V30 738 H 71.7467 6.93301 0.656225 0
M  V30 739 H 69.3737 7.59197 0.390351 0
M  V30 740 N 70.9488 -0.749086 1.3866 0
M  V30 741 C 71.8808 -1.87273 1.32142 0
M  V30 742 C 72.8938 -1.61127 0.232787 0
M  V30 743 O 74.0828 -1.71623 0.49069 0
M  V30 744 C 71.1828 -3.23005 1.02571 0
M  V30 745 C 70.3558 -3.7662 2.22433 0
M  V30 746 C 69.4148 -4.90879 1.89537 0
M  V30 747 O 68.4408 -5.05276 2.62078 0
M  V30 748 N 69.6428 -5.74198 0.853031 0
M  V30 749 H 72.4078 -1.93373 2.28969 0
M  V30 750 H 69.9688 -0.929216 1.32579 0
M  V30 751 H 71.9608 -3.96992 0.786085 0
M  V30 752 H 70.5308 -3.12262 0.145249 0
M  V30 753 H 69.7508 -2.94147 2.62434 0
M  V30 754 H 71.0388 -4.09173 3.02415 0
M  V30 755 H 70.4368 -5.6514 0.25155 0
M  V30 756 H 68.9938 -6.48313 0.67329 0
M  V30 757 N 72.4269 -1.23603 -0.977757 0
M  V30 758 C 73.3739 -1.01954 -2.07061 0
M  V30 759 C 74.3439 0.0638697 -1.65977 0
M  V30 760 O 75.5289 -0.0887624 -1.90593 0
M  V30 761 C 72.6689 -0.619658 -3.39491 0
M  V30 762 C 71.7819 -1.77547 -3.93829 0
M  V30 763 C 70.9169 -1.32212 -5.14484 0
M  V30 764 C 69.9559 -2.44852 -5.60994 0
M  V30 765 N 69.0929 -2.00456 -6.72876 0
M  V30 766 H 73.9329 -1.95495 -2.24913 0
M  V30 767 H 71.4699 -0.973861 -1.10247 0
M  V30 768 H 73.4279 -0.368898 -4.15566 0
M  V30 769 H 72.0579 0.278752 -3.21594 0
M  V30 770 H 71.1099 -2.14016 -3.14486 0
M  V30 771 H 72.4219 -2.62219 -4.24314 0
M  V30 772 H 71.5759 -1.02965 -5.97899 0
M  V30 773 H 70.3149 -0.445808 -4.85658 0
M  V30 774 H 69.3199 -2.74871 -4.76157 0
M  V30 775 H 70.5449 -3.33024 -5.91837 0
M  V30 776 H 68.4909 -1.15208 -6.45804 0
M  V30 777 H 68.4079 -2.78687 -7.02759 0
M  V30 778 H 69.6759 -1.7432 -7.59758 0
M  V30 779 N 73.905 1.17692 -1.04816 0
M  V30 780 C 75.151 1.88137 -0.75711 0
M  V30 781 C 75.484 1.80604 0.713841 0
M  V30 782 O 74.759 1.21146 1.52164 0
M  V30 783 C 75.042 3.38318 -1.2334 0
M  V30 784 C 74.895 3.54622 -2.76701 0
M  V30 785 C 76.214 4.32214 -0.829415 0
M  V30 786 H 73.333 0.683163 -0.27651 0
M  V30 787 H 75.975 1.38424 -1.30149 0
M  V30 788 H 74.125 3.80787 -0.770286 0
M  V30 789 H 75.797 3.21194 -3.31107 0
M  V30 790 H 74.04 2.97026 -3.16161 0
M  V30 791 H 74.711 4.60028 -3.05088 0
M  V30 792 H 77.187 3.97565 -1.22805 0
M  V30 793 H 76.063 5.35838 -1.19033 0
M  V30 794 H 76.324 4.41294 0.266891 0
M  V30 795 N 75.3831 0.828654 1.34056 0
M  V30 796 C 76.3461 0.259927 2.27721 0
M  V30 797 C 77.3461 -0.565478 1.50529 0
M  V30 798 O 78.5361 -0.38075 1.69988 0
M  V30 799 C 75.6681 -0.634944 3.34935 0
M  V30 800 H 76.8611 1.0863 2.79534 0
M  V30 801 H 74.4141 0.600951 1.44285 0
M  V30 802 H 75.1491 -1.48416 2.88346 0
M  V30 803 H 74.9341 -0.0444999 3.92075 0
M  V30 804 H 76.4241 -1.02648 4.04788 0
M  V30 805 N 76.8612 -1.46375 0.584142 0
M  V30 806 C 78.1082 -2.02378 0.0702675 0
M  V30 807 C 78.4362 -1.45545 -1.29023 0
M  V30 808 O 77.6912 -0.610967 -1.85918 0
M  V30 809 C 77.9902 -3.57373 -0.0439342 0
M  V30 810 C 77.6562 -4.33252 1.24915 0
M  V30 811 C 76.3182 -4.53701 1.60341 0
M  V30 812 C 78.6702 -4.7681 2.1048 0
M  V30 813 C 75.9982 -5.1496 2.81128 0
M  V30 814 C 78.3502 -5.39404 3.30494 0
M  V30 815 C 77.0142 -5.5808 3.66201 0
M  V30 816 H 76.2842 -0.740554 0.0257127 0
M  V30 817 H 78.9312 -1.75727 0.761065 0
M  V30 818 H 77.2362 -3.83169 -0.817869 0
M  V30 819 H 78.9332 -3.98384 -0.457318 0
M  V30 820 H 75.5232 -4.17633 0.963364 0
M  V30 821 H 79.7072 -4.60766 1.84414 0
M  V30 822 H 74.9632 -5.27611 3.08928 0
M  V30 823 H 79.1372 -5.72114 3.97063 0
M  V30 824 H 76.7642 -6.05318 4.59885 0
M  V30 825 N 78.3393 -0.321999 -1.54275 0
M  V30 826 C 79.6163 0.335232 -1.92706 0
M  V30 827 C 79.9963 1.70006 -1.25145 0
M  V30 828 O 79.3443 2.25067 -0.394596 0
M  V30 829 C 79.5543 0.429008 -3.46353 0
M  V30 830 C 80.9023 0.690029 -4.18956 0
M  V30 831 O 81.9263 0.511992 -3.52501 0
M  V30 832 O 80.7853 1.03338 -5.36641 0
M  V30 833 H 77.8793 0.191143 -0.804608 0
M  V30 834 H 80.4253 -0.3716 -1.65581 0
M  V30 835 H 79.1973 -0.529611 -3.87699 0
M  V30 836 H 78.8203 1.18348 -3.79578 0
M  V30 837 N 79.8174 1.5752 -0.0501392 0
M  V30 838 C 81.0644 1.9265 0.623874 0
M  V30 839 C 81.3924 0.928411 1.70912 0
M  V30 840 O 80.6474 -0.0594525 1.9561 0
M  V30 841 C 80.9464 3.34467 1.25963 0
M  V30 842 C 80.6124 4.49883 0.302689 0
M  V30 843 C 79.2744 4.81184 0.0393636 0
M  V30 844 C 81.6264 5.20002 -0.353205 0
M  V30 845 C 78.9544 5.79951 -0.887308 0
M  V30 846 C 81.3064 6.1976 -1.26806 0
M  V30 847 C 79.9704 6.49491 -1.54007 0
M  V30 848 H 79.2404 0.704957 0.228292 0
M  V30 849 H 81.8874 1.91146 -0.116398 0
M  V30 850 H 80.1924 3.32333 2.07514 0
M  V30 851 H 81.8894 3.58928 1.78806 0
M  V30 852 H 78.4794 4.25457 0.518109 0
M  V30 853 H 82.6634 4.96033 -0.162854 0
M  V30 854 H 77.9194 6.01322 -1.10553 0
M  V30 855 H 82.0934 6.73205 -1.78236 0
M  V30 856 H 79.7204 7.25837 -2.25976 0
M  V30 857 N 81.2955 -0.223234 1.56011 0
M  V30 858 C 82.2585 -1.26014 1.9145 0
M  V30 859 C 83.2585 -1.3989 0.792937 0
M  V30 860 O 84.4485 -1.38184 1.0607 0
M  V30 861 C 81.5805 -2.63422 2.16383 0
M  V30 862 H 82.7735 -0.95796 2.84189 0
M  V30 863 H 80.3265 -0.463576 1.49267 0
M  V30 864 H 81.0615 -2.98741 1.2619 0
M  V30 865 H 80.8465 -2.54728 2.98088 0
M  V30 866 H 82.3365 -3.38249 2.44903 0
M  V30 867 N 82.7736 -1.49793 -0.48987 0
M  V30 868 C 83.7366 -1.66752 -1.57246 0
M  V30 869 C 84.7366 -0.538867 -1.51502 0
M  V30 870 O 85.9266 -0.805545 -1.54456 0
M  V30 871 C 83.0586 -1.67528 -2.96896 0
M  V30 872 H 84.2516 -2.63321 -1.43534 0
M  V30 873 H 81.8046 -1.38992 -0.714914 0
M  V30 874 H 82.5396 -0.725837 -3.16073 0
M  V30 875 H 82.3246 -2.49504 -3.02473 0
M  V30 876 H 83.8146 -1.82667 -3.7553 0
M  V30 877 N 84.2517 0.741722 -1.39055 0
M  V30 878 C 85.6677 1.04638 -1.20512 0
M  V30 879 C 85.8677 2.01405 -0.0620218 0
M  V30 880 O 84.9237 2.45547 0.588457 0
M  V30 881 C 86.2367 1.6151 -2.53643 0
M  V30 882 C 87.7847 1.73623 -2.6043 0
M  V30 883 C 88.2597 2.33906 -3.93767 0
M  V30 884 N 89.7507 2.41323 -3.9537 0
M  V30 885 C 90.4857 2.88888 -4.95309 0
M  V30 886 N 89.9817 3.36401 -6.05645 0
M  V30 887 N 91.7747 2.88037 -4.82692 0
M  V30 888 H 83.9257 0.0998155 -2.12165 0
M  V30 889 H 86.1887 0.106907 -0.941953 0
M  V30 890 H 85.8947 0.978739 -3.37807 0
M  V30 891 H 85.7687 2.60411 -2.72885 0
M  V30 892 H 88.1557 2.36384 -1.76655 0
M  V30 893 H 88.2367 0.733945 -2.45045 0
M  V30 894 H 87.8807 1.71776 -4.7797 0
M  V30 895 H 87.8107 3.34799 -4.06469 0
M  V30 896 H 90.3017 2.07734 -3.15682 0
M  V30 897 H 90.6147 3.71186 -6.77821 0
M  V30 898 H 88.9597 3.34427 -6.09248 0
M  V30 899 H 92.1507 2.50237 -3.95599 0
M  V30 900 H 92.3237 3.24792 -5.60726 0
M  V30 901 N 85.7298 1.2412 0.971189 0
M  V30 902 C 86.6398 1.04747 2.09917 0
M  V30 903 C 87.6558 -0.0107162 1.73997 0
M  V30 904 O 88.8318 0.186714 2.00533 0
M  V30 905 C 85.8968 0.650828 3.40537 0
M  V30 906 C 84.9578 1.7851 3.90426 0
M  V30 907 C 84.1908 1.40729 5.14812 0
M  V30 908 O 84.4138 0.29557 5.69634 0
M  V30 909 O 83.3478 2.23168 5.58999 0
M  V30 910 H 87.1738 1.99304 2.29154 0
M  V30 911 H 84.7588 1.02908 1.08307 0
M  V30 912 H 86.6408 0.440992 4.19086 0
M  V30 913 H 85.3158 -0.265649 3.22608 0
M  V30 914 H 84.2228 2.04966 3.12953 0
M  V30 915 H 85.5558 2.68023 4.12825 0
M  V30 916 N 87.2079 -1.17134 1.05439 0
M  V30 917 C 88.1409 -2.2012 0.601855 0
M  V30 918 C 89.1189 -1.58314 -0.370854 0
M  V30 919 O 90.3029 -1.8638 -0.281882 0
M  V30 920 C 87.4299 -3.38491 -0.118868 0
M  V30 921 C 86.4759 -4.18752 0.809242 0
M  V30 922 S 87.3089 -4.83602 2.29977 0
M  V30 923 C 88.4649 -6.0536 1.59029 0
M  V30 924 H 88.6979 -2.58165 1.47438 0
M  V30 925 H 86.2309 -1.27788 0.866573 0
M  V30 926 H 88.1889 -4.07084 -0.528495 0
M  V30 927 H 86.8499 -2.98829 -0.967465 0
M  V30 928 H 86.0429 -5.03373 0.251379 0
M  V30 929 H 85.6449 -3.5561 1.15835 0
M  V30 930 H 87.9369 -6.71615 0.891017 0
M  V30 931 H 88.8799 -6.65679 2.41407 0
M  V30 932 H 89.2879 -5.54138 1.07663 0
M  V30 933 N 88.686 -0.835752 -1.33615 0
M  V30 934 C 89.649 -0.272 -2.2758 0
M  V30 935 C 90.649 0.557487 -1.50827 0
M  V30 936 O 91.839 0.37173 -1.70188 0
M  V30 937 C 88.971 0.617173 -3.35267 0
M  V30 938 H 90.164 -1.10111 -2.78954 0
M  V30 939 H 87.717 -0.608594 -1.43965 0
M  V30 940 H 88.452 1.46884 -2.89129 0
M  V30 941 H 88.237 0.0237066 -3.92093 0
M  V30 942 H 89.727 1.005 -4.05326 0
M  V30 943 N 90.1641 1.46063 -0.591896 0
M  V30 944 C 91.5751 1.85944 -0.167822 0
M  V30 945 C 91.9261 1.49429 1.27143 0
M  V30 946 O 91.0511 0.913515 1.96173 0
M  V30 947 C 91.6461 3.37489 -0.297794 0
M  V30 948 C 90.2051 3.76332 0.0714732 0
M  V30 949 C 89.3521 2.7006 -0.629509 0
M  V30 950 H 92.3031 1.37087 -0.799555 0
M  V30 951 H 92.3241 3.77532 0.474349 0
M  V30 952 H 91.8361 3.64034 -1.3454 0
M  V30 953 H 89.9371 3.55405 1.11886 0
M  V30 954 H 90.0501 4.78088 -0.311245 0
M  V30 955 H 88.4141 2.54607 -0.0687867 0
M  V30 956 H 89.1971 2.99444 -1.67894 0
M  V30 957 N 91.6422 0.330177 1.54103 0
M  V30 958 C 92.5902 -0.548226 2.26047 0
M  V30 959 C 93.5842 -1.11309 1.27698 0
M  V30 960 O 94.7902 -1.06036 1.45452 0
M  V30 961 H 91.1652 -0.195456 0.726155 0
M  V30 962 H 93.1362 0.0807567 2.98291 0
M  V30 963 C 91.8852 -1.69415 3.03634 0
M  V30 964 H 91.2082 -1.26876 3.79134 0
M  V30 965 H 92.6482 -2.28423 3.5721 0
M  V30 966 C 91.1072 -2.61569 2.12328 0
M  V30 967 O 91.6372 -3.63462 1.7105 0
M  V30 968 N 89.8432 -2.29952 1.77681 0
M  V30 969 H 89.3902 -1.47134 2.11446 0
M  V30 970 H 89.3482 -2.91871 1.16869 0
M  V30 971 N 93.1203 -1.57491 0.0584922 0
M  V30 972 C 94.0533 -2.07533 -0.948969 0
M  V30 973 C 95.0313 -0.977444 -1.29942 0
M  V30 974 O 96.2153 -1.2499 -1.41102 0
M  V30 975 C 93.3423 -2.52192 -2.2609 0
M  V30 976 C 92.3883 -3.73287 -2.06298 0
M  V30 977 S 93.2213 -5.18603 -1.33459 0
M  V30 978 C 94.3773 -5.66583 -2.65959 0
M  V30 979 H 94.6103 -2.92662 -0.523118 0
M  V30 980 H 92.1433 -1.53631 -0.153954 0
M  V30 981 H 94.1013 -2.78585 -3.01498 0
M  V30 982 H 92.7623 -1.67356 -2.65802 0
M  V30 983 H 91.9553 -4.0248 -3.03357 0
M  V30 984 H 91.5573 -3.47199 -1.39029 0
M  V30 985 H 93.8493 -5.72616 -3.62101 0
M  V30 986 H 94.7923 -6.65684 -2.41393 0
M  V30 987 H 95.2003 -4.94342 -2.72554 0
M  V30 988 N 94.5984 0.214957 -1.56127 0
M  V30 989 C 95.5614 1.24997 -1.92116 0
M  V30 990 C 96.5614 1.39467 -0.800344 0
M  V30 991 O 97.7514 1.37619 -1.06802 0
M  V30 992 C 94.8834 2.62271 -2.17777 0
M  V30 993 H 96.0764 0.942875 -2.84693 0
M  V30 994 H 93.6294 0.455654 -1.49511 0
M  V30 995 H 94.3644 2.98068 -1.27773 0
M  V30 996 H 94.1494 2.53143 -2.99434 0
M  V30 997 H 95.6394 3.36946 -2.46693 0
M  V30 998 N 96.0765 1.50051 0.48192 0
M  V30 999 C 96.9865 1.7089 1.60728 0
M  V30 1000 C 98.0025 0.591788 1.63627 0
M  V30 1001 O 99.1785 0.868817 1.81696 0
M  V30 1002 C 96.2435 1.78855 2.97005 0
M  V30 1003 C 95.3045 3.02537 3.04581 0
M  V30 1004 C 94.5375 3.10112 4.34357 0
M  V30 1005 O 94.7605 2.24765 5.24249 0
M  V30 1006 O 93.6945 4.02747 4.47301 0
M  V30 1007 H 97.5205 2.66264 1.46072 0
M  V30 1008 H 95.1055 1.34018 0.660264 0
M  V30 1009 H 96.9875 1.86336 3.77964 0
M  V30 1010 H 95.6625 0.866628 3.11883 0
M  V30 1011 H 94.5695 3.00563 2.22739 0
M  V30 1012 H 95.9025 3.94272 2.94636 0
M  V30 1013 N 97.5546 -0.734337 1.39446 0
M  V30 1014 C 98.8006 -1.49505 1.37913 0
M  V30 1015 C 99.1556 -1.92384 -0.0248416 0
M  V30 1016 O 98.4486 -1.6395 -0.991506 0
M  V30 1017 C 98.6426 -2.74711 2.28623 0
M  V30 1018 C 98.4716 -2.44075 3.777 0
M  V30 1019 C 97.2416 -2.36338 4.46623 0
M  V30 1020 C 99.4396 -2.09574 4.69663 0
M  V30 1021 N 97.4216 -1.9818 5.81032 0
M  V30 1022 C 98.7926 -1.81865 5.92727 0
M  V30 1023 C 100.848 -1.96048 4.57678 0
M  V30 1024 C 99.5506 -1.41992 7.05146 0
M  V30 1025 C 101.577 -1.57579 5.7002 0
M  V30 1026 C 100.939 -1.30754 6.92158 0
M  V30 1027 H 97.0376 -0.545896 0.55993 0
M  V30 1028 H 99.6216 -0.853373 1.75002 0
M  V30 1029 H 97.7926 -3.36657 1.93692 0
M  V30 1030 H 99.5246 -3.40916 2.18078 0
M  V30 1031 H 96.2796 -2.53456 4.00071 0
M  V30 1032 H 96.7036 -1.81691 6.52163 0
M  V30 1033 H 101.346 -2.15455 3.63784 0
M  V30 1034 H 99.0636 -1.21327 7.9894 0
M  V30 1035 H 102.65 -1.47718 5.62735 0
M  V30 1036 H 101.53 -1.01432 7.77612 0
M  V30 1037 N 99.0327 -1.24633 -0.964593 0
M  V30 1038 C 100.31 -0.995809 -1.68354 0
M  V30 1039 C 100.69 0.480964 -2.05548 0
M  V30 1040 O 100.038 1.45599 -1.76105 0
M  V30 1041 C 100.248 -1.92177 -2.91323 0
M  V30 1042 C 101.596 -2.19446 -3.63495 0
M  V30 1043 O 102.62 -1.89855 -3.01386 0
M  V30 1044 O 101.479 -2.69714 -4.75307 0
M  V30 1045 H 98.5727 -0.376854 -0.736146 0
M  V30 1046 H 101.119 -1.35745 -1.0184 0
M  V30 1047 H 99.8907 -2.91938 -2.60553 0
M  V30 1048 H 99.5137 -1.56349 -3.65569 0
M  V30 1049 N 100.511 1.16574 -1.06058 0
M  V30 1050 C 101.443 2.2045 -0.627239 0
M  V30 1051 C 102.456 1.59752 0.313534 0
M  V30 1052 O 103.645 1.78192 0.104896 0
M  V30 1053 C 100.745 3.3875 0.100974 0
M  V30 1054 C 99.9178 4.29008 -0.852687 0
M  V30 1055 C 98.9768 5.25944 -0.164152 0
M  V30 1056 O 98.0028 5.63535 -0.801047 0
M  V30 1057 N 99.2048 5.70075 1.09518 0
M  V30 1058 H 101.97 2.58249 -1.52077 0
M  V30 1059 H 99.5308 1.3156 -0.943594 0
M  V30 1060 H 101.523 4.00638 0.57194 0
M  V30 1061 H 100.093 2.99476 0.89628 0
M  V30 1062 H 99.3128 3.64419 -1.50308 0
M  V30 1063 H 100.601 4.86195 -1.49972 0
M  V30 1064 H 99.9988 5.41624 1.6328 0
M  V30 1065 H 98.5558 6.34067 1.51006 0
M  V30 1066 N 101.989 0.842826 1.3317 0
M  V30 1067 C 102.936 0.276885 2.29133 0
M  V30 1068 C 103.906 -0.609527 1.54512 0
M  V30 1069 O 105.091 -0.546955 1.82792 0
M  V30 1070 C 102.231 -0.538707 3.40869 0
M  V30 1071 C 101.344 0.372169 4.30394 0
M  V30 1072 C 100.479 -0.454908 5.29249 0
M  V30 1073 C 99.5179 0.45411 6.10413 0
M  V30 1074 N 98.6549 -0.335075 7.013 0
M  V30 1075 H 103.495 1.10052 2.76934 0
M  V30 1076 H 101.032 0.554161 1.36262 0
M  V30 1077 H 102.99 -1.02709 4.0436 0
M  V30 1078 H 101.62 -1.32727 2.9425 0
M  V30 1079 H 100.672 0.97888 3.6759 0
M  V30 1080 H 101.984 1.0703 4.87182 0
M  V30 1081 H 101.138 -1.00695 5.98285 0
M  V30 1082 H 99.8769 -1.18646 4.73048 0
M  V30 1083 H 98.8819 1.01813 5.40291 0
M  V30 1084 H 100.107 1.18409 6.68697 0
M  V30 1085 H 98.0529 -1.04994 6.47543 0
M  V30 1086 H 97.9699 0.304262 7.55387 0
M  V30 1087 H 99.2379 -0.869224 7.74638 0
M  V30 1088 N 103.467 -1.45747 0.599634 0
M  V30 1089 C 104.377 -2.34262 -0.125888 0
M  V30 1090 C 105.393 -1.50768 -0.868625 0
M  V30 1091 O 106.569 -1.83592 -0.828003 0
M  V30 1092 C 103.634 -3.28252 -1.11587 0
M  V30 1093 C 102.695 -4.27651 -0.375956 0
M  V30 1094 C 101.928 -5.1715 -1.31877 0
M  V30 1095 O 102.151 -5.09916 -2.55621 0
M  V30 1096 O 101.085 -5.96286 -0.820157 0
M  V30 1097 H 104.911 -2.97688 0.601315 0
M  V30 1098 H 102.496 -1.44999 0.359934 0
M  V30 1099 H 104.378 -3.86191 -1.68626 0
M  V30 1100 H 103.053 -2.67401 -1.82424 0
M  V30 1101 H 101.96 -3.7335 0.236698 0
M  V30 1102 H 103.293 -4.91334 0.29177 0
M  V30 1103 N 104.945 -0.338344 -1.53925 0
M  V30 1104 C 105.875 0.51328 -2.27789 0
M  V30 1105 C 106.856 1.107 -1.29149 0
M  V30 1106 O 108.041 1.12937 -1.57984 0
M  V30 1107 C 105.171 1.66697 -3.04679 0
M  V30 1108 C 104.125 1.20183 -4.1078 0
M  V30 1109 C 103.451 2.44363 -4.75595 0
M  V30 1110 C 104.751 0.30605 -5.21403 0
M  V30 1111 H 106.445 -0.102883 -2.99223 0
M  V30 1112 H 103.991 -0.0509219 -1.4391 0
M  V30 1113 H 105.944 2.26915 -3.55088 0
M  V30 1114 H 104.668 2.30995 -2.30887 0
M  V30 1115 H 103.327 0.622499 -3.61276 0
M  V30 1116 H 102.975 3.07057 -3.98403 0
M  V30 1117 H 102.675 2.13925 -5.47275 0
M  V30 1118 H 104.199 3.05317 -5.28786 0
M  V30 1119 H 105.613 0.814929 -5.67478 0
M  V30 1120 H 104.01 0.0937929 -6.00027 0
M  V30 1121 H 105.08 -0.65921 -4.80398 0
M  V30 1122 N 106.423 1.57458 -0.0668435 0
M  V30 1123 C 107.67 1.93301 0.603406 0
M  V30 1124 C 107.998 0.946486 1.69917 0
M  V30 1125 O 107.253 -0.0387021 1.95662 0
M  V30 1126 C 107.552 3.35784 1.22409 0
M  V30 1127 C 107.218 4.50179 0.254955 0
M  V30 1128 C 105.88 4.81199 -0.0116746 0
M  V30 1129 C 108.232 5.19598 -0.408338 0
M  V30 1130 C 105.56 5.78978 -0.94877 0
M  V30 1131 C 107.912 6.18381 -1.33372 0
M  V30 1132 C 106.576 6.47821 -1.60887 0
M  V30 1133 H 105.846 0.707338 0.220802 0
M  V30 1134 H 108.493 1.91012 -0.136665 0
M  V30 1135 H 106.798 3.34515 2.03978 0
M  V30 1136 H 108.495 3.60804 1.74989 0
M  V30 1137 H 105.085 4.25983 0.472954 0
M  V30 1138 H 109.269 4.95832 -0.215456 0
M  V30 1139 H 104.525 6.00115 -1.16925 0
M  V30 1140 H 108.699 6.71277 -1.85367 0
M  V30 1141 H 106.326 7.23399 -2.33661 0
M  V30 1142 N 107.901 -0.206675 1.56239 0
M  V30 1143 C 109.312 -0.772383 1.69974 0
M  V30 1144 C 109.663 -1.84353 0.671436 0
M  V30 1145 O 108.788 -2.15695 -0.174491 0
M  V30 1146 C 109.383 -1.40779 3.08167 0
M  V30 1147 C 107.942 -1.92072 3.23706 0
M  V30 1148 C 107.089 -0.786347 2.65917 0
M  V30 1149 H 110.04 0.0182223 1.5869 0
M  V30 1150 H 110.061 -2.27696 3.04852 0
M  V30 1151 H 109.573 -0.627958 3.82986 0
M  V30 1152 H 107.674 -2.7281 2.53782 0
M  V30 1153 H 107.787 -2.09046 4.31087 0
M  V30 1154 H 106.151 -1.1976 2.24788 0
M  V30 1155 H 106.934 -0.0189416 3.43295 0
M  V30 1156 N 109.379 -1.50304 -0.473955 0
M  V30 1157 C 110.625 -1.61389 -1.22806 0
M  V30 1158 C 110.958 -0.311955 -1.91678 0
M  V30 1159 O 110.233 0.686384 -1.81986 0
M  V30 1160 C 110.516 -2.79219 -2.27396 0
M  V30 1161 C 110.369 -4.19286 -1.62848 0
M  V30 1162 C 111.688 -2.92614 -3.28732 0
M  V30 1163 H 108.807 -0.587399 -0.445119 0
M  V30 1164 H 111.449 -1.82681 -0.522265 0
M  V30 1165 H 109.599 -2.61195 -2.87592 0
M  V30 1166 H 111.271 -4.48892 -1.06271 0
M  V30 1167 H 109.514 -4.23677 -0.931693 0
M  V30 1168 H 110.185 -4.97655 -2.38838 0
M  V30 1169 H 112.661 -3.09105 -2.78556 0
M  V30 1170 H 111.537 -3.76688 -3.99246 0
M  V30 1171 H 111.798 -2.03107 -3.92683 0
M  V30 1172 N 110.857 0.726932 -1.39834 0
M  V30 1173 C 112.134 1.47902 -1.28001 0
M  V30 1174 C 112.514 2.1083 0.106789 0
M  V30 1175 O 111.862 1.99242 1.11869 0
M  V30 1176 C 112.072 2.52392 -2.41038 0
M  V30 1177 C 113.42 3.18546 -2.80737 0
M  V30 1178 O 114.444 2.62708 -2.40547 0
M  V30 1179 O 113.303 4.19604 -3.50135 0
M  V30 1180 H 110.397 0.657163 -0.502062 0
M  V30 1181 H 112.943 0.760071 -1.51727 0
M  V30 1182 H 111.715 2.04329 -3.33715 0
M  V30 1183 H 111.338 3.31837 -2.19021 0
M  V30 1184 N 112.336 1.25143 0.95797 0
M  V30 1185 C 113.582 1.09855 1.70469 0
M  V30 1186 C 113.915 -0.360187 1.90831 0
M  V30 1187 O 113.19 -1.26568 1.47685 0
M  V30 1188 C 113.473 1.8497 3.08963 0
M  V30 1189 C 113.326 3.38652 2.96032 0
M  V30 1190 C 114.645 1.63016 4.08795 0
M  V30 1191 H 111.764 0.400465 0.618706 0
M  V30 1192 H 114.406 1.53933 1.11376 0
M  V30 1193 H 112.556 1.47505 3.59409 0
M  V30 1194 H 114.228 3.85772 2.52938 0
M  V30 1195 H 112.471 3.66534 2.32025 0
M  V30 1196 H 113.142 3.8642 3.94187 0
M  V30 1197 H 115.618 1.95625 3.67247 0
M  V30 1198 H 114.494 2.18015 5.03747 0
M  V30 1199 H 114.755 0.570692 4.38401 0
M  V30 1200 N 113.814 -1.1601 1.06675 0
M  V30 1201 C 114.747 -2.1947 0.625168 0
M  V30 1202 C 115.725 -1.58699 -0.354041 0
M  V30 1203 O 116.909 -1.86669 -0.262098 0
M  V30 1204 C 114.036 -3.38598 -0.0829593 0
M  V30 1205 C 113.082 -4.1787 0.853611 0
M  V30 1206 S 113.915 -4.81135 2.35094 0
M  V30 1207 C 115.071 -6.03639 1.65441 0
M  V30 1208 H 115.304 -2.56587 1.50168 0
M  V30 1209 H 112.837 -1.26862 0.880078 0
M  V30 1210 H 114.795 -4.07621 -0.485288 0
M  V30 1211 H 113.456 -2.99839 -0.935716 0
M  V30 1212 H 112.649 -5.03078 0.304755 0
M  V30 1213 H 112.251 -3.54361 1.196 0
M  V30 1214 H 114.543 -6.70632 0.962201 0
M  V30 1215 H 115.486 -6.63081 2.48454 0
M  V30 1216 H 115.894 -5.52965 1.13534 0
M  V30 1217 N 115.292 -0.849877 -1.32721 0
M  V30 1218 C 116.708 -0.539102 -1.50219 0
M  V30 1219 C 116.908 0.931271 -1.78689 0
M  V30 1220 O 115.964 1.71455 -1.85363 0
M  V30 1221 C 117.277 -1.42196 -2.64954 0
M  V30 1222 C 118.825 -1.42189 -2.78839 0
M  V30 1223 C 119.3 -2.28985 -3.96648 0
M  V30 1224 N 120.791 -2.26754 -4.03902 0
M  V30 1225 C 121.526 -2.90644 -4.94281 0
M  V30 1226 N 121.022 -3.63629 -5.897 0
M  V30 1227 N 122.815 -2.80057 -4.87365 0
M  V30 1228 H 114.966 -1.80156 -1.12506 0
M  V30 1229 H 117.229 -0.769217 -0.554085 0
M  V30 1230 H 116.935 -2.46733 -2.50631 0
M  V30 1231 H 116.809 -1.10591 -3.60624 0
M  V30 1232 H 119.196 -0.38419 -2.92588 0
M  V30 1233 H 119.277 -1.77807 -1.83898 0
M  V30 1234 H 118.921 -3.32819 -3.83658 0
M  V30 1235 H 118.851 -1.90702 -4.90857 0
M  V30 1236 H 121.342 -1.73688 -3.3562 0
M  V30 1237 H 121.655 -4.09558 -6.55349 0
M  V30 1238 H 120 -3.67737 -5.89741 0
M  V30 1239 H 123.191 -2.22593 -4.11789 0
M  V30 1240 H 123.364 -3.30132 -5.57599 0
M  V30 1241 N 116.77 1.45427 -0.607355 0
M  V30 1242 C 117.717 2.3053 0.111625 0
M  V30 1243 C 118.687 1.4209 0.860216 0
M  V30 1244 O 119.872 1.71019 0.845998 0
M  V30 1245 C 117.012 3.26992 1.10319 0
M  V30 1246 C 116.125 4.30535 0.355493 0
M  V30 1247 C 115.26 5.14105 1.33676 0
M  V30 1248 C 114.299 6.09376 0.576862 0
M  V30 1249 N 113.436 6.85727 1.5074 0
M  V30 1250 H 118.276 2.91477 -0.620093 0
M  V30 1251 H 115.813 1.43631 -0.317594 0
M  V30 1252 H 117.771 3.81385 1.6912 0
M  V30 1253 H 116.401 2.67799 1.80232 0
M  V30 1254 H 115.453 3.78805 -0.348023 0
M  V30 1255 H 116.765 4.98235 -0.237423 0
M  V30 1256 H 115.919 5.72897 1.99684 0
M  V30 1257 H 114.658 4.46423 1.9636 0
M  V30 1258 H 113.663 5.49715 -0.0968519 0
M  V30 1259 H 114.888 6.79085 -0.0449341 0
M  V30 1260 H 112.834 6.20735 2.12189 0
M  V30 1261 H 112.751 7.49778 0.967913 0
M  V30 1262 H 114.019 7.4906 2.15706 0
M  V30 1263 N 118.248 0.346503 1.53744 0
M  V30 1264 C 119.211 -0.496439 2.23759 0
M  V30 1265 C 120.211 -1.0252 1.2388 0
M  V30 1266 O 121.401 -0.913974 1.48297 0
M  V30 1267 C 118.533 -1.69187 2.95954 0
M  V30 1268 H 119.726 0.115952 2.99676 0
M  V30 1269 H 117.279 0.0978939 1.55993 0
M  V30 1270 H 118.014 -2.34288 2.24231 0
M  V30 1271 H 117.799 -1.31989 3.69217 0
M  V30 1272 H 119.289 -2.28969 3.49232 0
M  V30 1273 N 119.726 -1.57421 0.075193 0
M  V30 1274 C 120.689 -2.11791 -0.876203 0
M  V30 1275 C 121.689 -1.04268 -1.22412 0
M  V30 1276 O 122.879 -1.30242 -1.15684 0
M  V30 1277 C 120.011 -2.62207 -2.17854 0
M  V30 1278 H 121.204 -2.9716 -0.40444 0
M  V30 1279 H 118.757 -1.55333 -0.173557 0
M  V30 1280 H 119.492 -1.803 -2.6956 0
M  V30 1281 H 119.277 -3.40802 -1.93897 0
M  V30 1282 H 120.767 -3.04335 -2.85955 0
M  V30 1283 N 121.204 0.198386 -1.56346 0
M  V30 1284 C 122.136 1.26987 -1.90806 0
M  V30 1285 C 123.149 1.41877 -0.798419 0
M  V30 1286 O 124.338 1.42362 -1.07682 0
M  V30 1287 C 121.438 2.64246 -2.12196 0
M  V30 1288 C 120.611 2.71007 -3.43328 0
M  V30 1289 C 119.67 3.89439 -3.5387 0
M  V30 1290 O 118.696 3.76695 -4.26719 0
M  V30 1291 N 119.898 5.04752 -2.86715 0
M  V30 1292 H 122.663 0.977433 -2.83313 0
M  V30 1293 H 120.224 0.388322 -1.57174 0
M  V30 1294 H 122.216 3.41896 -2.1654 0
M  V30 1295 H 120.786 2.85992 -1.26204 0
M  V30 1296 H 120.006 1.79657 -3.50881 0
M  V30 1297 H 121.294 2.72512 -4.29668 0
M  V30 1298 H 120.692 5.18004 -2.2735 0
M  V30 1299 H 119.249 5.8036 -2.96691 0
M  V30 1300 N 122.682 1.50554 0.465978 0
M  V30 1301 C 123.612 1.72722 1.57128 0
M  V30 1302 C 124.593 0.576294 1.6004 0
M  V30 1303 O 125.778 0.81598 1.76225 0
M  V30 1304 C 122.908 1.82605 2.95419 0
M  V30 1305 C 121.862 2.97835 3.07373 0
M  V30 1306 C 121.188 2.92867 4.47363 0
M  V30 1307 C 122.488 4.38265 2.84114 0
M  V30 1308 H 124.182 2.65267 1.38829 0
M  V30 1309 H 121.728 1.2765 0.666441 0
M  V30 1310 H 123.681 1.96698 3.72677 0
M  V30 1311 H 122.405 0.866858 3.14886 0
M  V30 1312 H 121.064 2.83401 2.3255 0
M  V30 1313 H 120.712 1.94783 4.63755 0
M  V30 1314 H 120.412 3.70227 4.56296 0
M  V30 1315 H 121.936 3.09015 5.26633 0
M  V30 1316 H 123.35 4.53198 3.51118 0
M  V30 1317 H 121.747 5.17115 3.04487 0
M  V30 1318 H 122.817 4.50281 1.7993 0
M  V30 1319 N 124.16 -0.719506 1.40217 0
M  V30 1320 C 125.408 -1.47641 1.3801 0
M  V30 1321 C 125.729 -1.94992 -0.018145 0
M  V30 1322 O 124.999 -1.70073 -0.972207 0
M  V30 1323 H 123.579 -0.547744 0.507923 0
M  V30 1324 H 126.241 -0.853187 1.75233 0
M  V30 1325 H 125.337 -2.35112 2.05253 0
M  V30 1326 N 125.638 -1.25649 -0.95132 0
M  V30 1327 C 126.885 -1.10594 -1.69633 0
M  V30 1328 C 127.213 0.352515 -1.91279 0
M  V30 1329 O 126.468 1.27601 -1.4838 0
M  V30 1330 C 126.767 -1.80909 -3.08231 0
M  V30 1331 C 126.433 -3.30825 -3.06375 0
M  V30 1332 C 125.095 -3.71722 -3.05576 0
M  V30 1333 C 127.447 -4.26589 -2.99452 0
M  V30 1334 C 124.775 -5.06788 -2.95606 0
M  V30 1335 C 127.127 -5.61683 -2.91024 0
M  V30 1336 C 125.791 -6.01904 -2.88562 0
M  V30 1337 H 125.061 -0.404691 -0.620731 0
M  V30 1338 H 127.708 -1.55964 -1.11119 0
M  V30 1339 H 126.013 -1.27979 -3.70309 0
M  V30 1340 H 127.71 -1.6671 -3.64704 0
M  V30 1341 H 124.3 -2.98287 -3.07771 0
M  V30 1342 H 128.484 -3.95982 -2.99185 0
M  V30 1343 H 123.74 -5.37126 -2.92071 0
M  V30 1344 H 127.914 -6.35578 -2.84629 0
M  V30 1345 H 125.541 -7.06521 -2.80593 0
M  V30 1346 N 127.117 1.15442 -1.07289 0
M  V30 1347 C 128.365 1.85845 -0.794096 0
M  V30 1348 C 128.686 1.82692 0.681809 0
M  V30 1349 O 127.956 1.26741 1.49377 0
M  V30 1350 H 126.536 0.688089 -0.290763 0
M  V30 1351 H 129.198 1.39947 -1.3565 0
M  V30 1352 H 128.294 2.91001 -1.12804 0
M  V30 1353 N 128.595 0.856903 1.32268 0
M  V30 1354 C 129.843 0.460474 1.96784 0
M  V30 1355 C 130.164 -0.987701 1.68135 0
M  V30 1356 O 129.434 -1.69058 0.989765 0
M  V30 1357 H 128.014 0.167289 0.728027 0
M  V30 1358 H 130.676 1.09383 1.61312 0
M  V30 1359 H 129.772 0.60739 3.06133 0
M  V30 1360 N 130.073 -1.45103 0.615059 0
M  V30 1361 C 131.319 -2.02483 0.113347 0
M  V30 1362 C 131.652 -1.48146 -1.25564 0
M  V30 1363 O 130.927 -0.659104 -1.82992 0
M  V30 1364 C 131.21 -3.60005 0.0825278 0
M  V30 1365 C 131.063 -4.2466 1.48271 0
M  V30 1366 C 132.382 -4.35972 -0.601401 0
M  V30 1367 H 129.501 -0.735764 0.0426632 0
M  V30 1368 H 132.143 -1.72868 0.788461 0
M  V30 1369 H 130.293 -3.85367 -0.492378 0
M  V30 1370 H 131.965 -4.10458 2.10527 0
M  V30 1371 H 130.208 -3.82772 2.04127 0
M  V30 1372 H 130.879 -5.336 1.41332 0
M  V30 1373 H 133.355 -4.15947 -0.112666 0
M  V30 1374 H 132.231 -5.45697 -0.592097 0
M  V30 1375 H 132.492 -4.09391 -1.66887 0
M  V30 1376 N 131.551 -0.354651 -1.53558 0
M  V30 1377 C 132.781 0.239167 -2.05211 0
M  V30 1378 C 133.189 1.43879 -1.22863 0
M  V30 1379 O 132.532 1.81857 -0.259565 0
M  V30 1380 C 132.594 0.707251 -3.52474 0
M  V30 1381 C 132.258 -0.374212 -4.55465 0
M  V30 1382 C 133.255 -1.22054 -5.0537 0
M  V30 1383 C 130.94 -0.531323 -4.99482 0
M  V30 1384 C 132.934 -2.20942 -5.97882 0
M  V30 1385 C 130.621 -1.52358 -5.91802 0
M  V30 1386 C 131.619 -2.36108 -6.40892 0
M  V30 1387 O 131.307 -3.33643 -7.31394 0
M  V30 1388 H 131.039 0.0479716 -0.674296 0
M  V30 1389 H 133.593 -0.508121 -1.99016 0
M  V30 1390 H 131.823 1.50596 -3.56171 0
M  V30 1391 H 133.512 1.22285 -3.87042 0
M  V30 1392 H 134.278 -1.1103 -4.7212 0
M  V30 1393 H 130.157 0.110738 -4.60867 0
M  V30 1394 H 133.701 -2.86348 -6.36121 0
M  V30 1395 H 129.598 -1.63434 -6.24467 0
M  V30 1396 H 130.366 -3.29244 -7.4936 0
M  V30 1397 N 133.029 1.57378 -0.0835403 0
M  V30 1398 C 134.278 1.93106 0.582498 0
M  V30 1399 C 134.591 0.96651 1.70053 0
M  V30 1400 O 135.797 1.21705 2.42693 0
M  V30 1401 C 134.253 3.43076 1.08751 0
M  V30 1402 C 133.861 4.48 -0.000146404 0
M  V30 1403 C 135.605 3.87785 1.72694 0
M  V30 1404 C 133.512 5.89113 0.519568 0
M  V30 1405 H 132.442 0.720775 0.221358 0
M  V30 1406 H 135.093 1.82821 -0.157675 0
M  V30 1407 H 133.475 3.48474 1.88101 0
M  V30 1408 H 134.649 4.54233 -0.775199 0
M  V30 1409 H 132.964 4.1283 -0.54406 0
M  V30 1410 H 135.561 4.90604 2.1263 0
M  V30 1411 H 135.904 3.25796 2.59158 0
M  V30 1412 H 136.437 3.8504 0.999457 0
M  V30 1413 H 133.176 6.54775 -0.308186 0
M  V30 1414 H 132.696 5.86376 1.26188 0
M  V30 1415 H 134.375 6.39346 0.992237 0
M  V30 1416 N 134.507 -0.190092 1.56449 0
M  V30 1417 C 135.439 -1.25973 1.91477 0
M  V30 1418 C 136.452 -1.41452 0.805931 0
M  V30 1419 O 137.641 -1.41789 1.08435 0
M  V30 1420 C 134.741 -2.63117 2.13594 0
M  V30 1421 C 133.914 -2.69182 3.4476 0
M  V30 1422 C 132.973 -3.87557 3.5593 0
M  V30 1423 O 131.999 -3.74427 4.28711 0
M  V30 1424 N 133.201 -5.03224 2.89388 0
M  V30 1425 H 135.966 -0.962394 2.83828 0
M  V30 1426 H 133.527 -0.379981 1.57378 0
M  V30 1427 H 135.519 -3.40742 2.1835 0
M  V30 1428 H 134.089 -2.85319 1.27719 0
M  V30 1429 H 133.309 -1.77793 3.51828 0
M  V30 1430 H 134.597 -2.70229 4.31107 0
M  V30 1431 H 133.995 -5.16791 2.30094 0
M  V30 1432 H 132.552 -5.78778 2.99764 0
M  V30 1433 N 135.985 -1.50799 -0.457987 0
M  V30 1434 C 137.213 -1.66218 -1.23203 0
M  V30 1435 C 137.628 -0.350894 -1.85511 0
M  V30 1436 O 136.985 0.668546 -1.69814 0
M  V30 1437 C 137.036 -2.76291 -2.33121 0
M  V30 1438 O 136.757 -4.02338 -1.73366 0
M  V30 1439 C 138.258 -3.028 -3.2377 0
M  V30 1440 H 135.478 -0.558361 -0.372121 0
M  V30 1441 H 138.022 -1.97099 -0.545179 0
M  V30 1442 H 136.177 -2.48068 -2.97558 0
M  V30 1443 H 136.591 -4.63312 -2.4585 0
M  V30 1444 H 138.065 -3.8345 -3.97077 0
M  V30 1445 H 138.542 -2.14385 -3.83322 0
M  V30 1446 H 139.148 -3.32604 -2.65056 0
M  V30 1447 N 137.463 0.71206 -1.40597 0
M  V30 1448 C 138.74 1.46536 -1.29563 0
M  V30 1449 C 139.12 2.10931 0.0844217 0
M  V30 1450 O 138.468 2.00418 1.0975 0
M  V30 1451 C 138.678 2.49821 -2.43701 0
M  V30 1452 C 140.026 3.15551 -2.841 0
M  V30 1453 O 141.05 2.60142 -2.4332 0
M  V30 1454 O 139.909 4.15867 -3.54566 0
M  V30 1455 H 137.003 0.651801 -0.509004 0
M  V30 1456 H 139.549 0.743935 -1.52524 0
M  V30 1457 H 138.321 2.00778 -3.35863 0
M  V30 1458 H 137.944 3.29495 -2.22528 0
M  V30 1459 N 138.941 1.26152 0.944643 0
M  V30 1460 C 140.187 1.11657 1.69294 0
M  V30 1461 C 140.52 -0.339926 1.91202 0
M  V30 1462 O 139.795 -1.24994 1.49019 0
M  V30 1463 C 140.078 1.88236 3.06984 0
M  V30 1464 C 139.931 3.41772 2.92424 0
M  V30 1465 C 141.25 1.67343 4.07043 0
M  V30 1466 H 138.369 0.407004 0.614424 0
M  V30 1467 H 141.011 1.55106 1.09737 0
M  V30 1468 H 139.161 1.51308 3.57824 0
M  V30 1469 H 140.833 3.88433 2.48832 0
M  V30 1470 H 139.076 3.68974 2.28124 0
M  V30 1471 H 139.747 3.90579 3.90067 0
M  V30 1472 H 142.223 1.99509 3.65151 0
M  V30 1473 H 141.099 2.23346 5.01406 0
M  V30 1474 H 141.36 0.617158 4.37771 0
M  V30 1475 N 140.419 -1.14872 1.07899 0
M  V30 1476 C 141.667 -1.85422 0.803941 0
M  V30 1477 C 141.988 -1.83051 -0.67211 0
M  V30 1478 O 141.258 -1.27532 -1.48703 0
M  V30 1479 H 139.838 -0.686537 0.294408 0
M  V30 1480 H 142.5 -1.39226 1.3639 0
M  V30 1481 H 141.596 -2.90399 1.14346 0
M  V30 1482 N 141.898 -0.863906 -1.31812 0
M  V30 1483 C 143.146 -0.470904 -1.96537 0
M  V30 1484 C 143.467 0.978771 -1.68657 0
M  V30 1485 O 142.737 1.6853 -0.998717 0
M  V30 1486 H 141.317 -0.171148 -0.72713 0
M  V30 1487 H 143.979 -1.10236 -1.60729 0
M  V30 1488 H 143.075 -0.623616 -3.05806 0
M  V30 1489 N 143.376 1.44774 -0.622745 0
M  V30 1490 C 144.601 2.06999 -0.128968 0
M  V30 1491 C 145.026 1.4617 1.1839 0
M  V30 1492 O 144.384 0.560007 1.72434 0
M  V30 1493 C 144.432 3.60595 -0.0188351 0
M  V30 1494 O 143.536 3.99398 1.02739 0
M  V30 1495 H 142.877 0.659047 -0.0809544 0
M  V30 1496 H 145.407 1.85784 -0.85705 0
M  V30 1497 H 145.417 4.07627 0.174476 0
M  V30 1498 H 144.092 4.04252 -0.977384 0
M  V30 1499 H 142.669 3.64011 0.809326 0
M  V30 1500 N 144.854 0.36279 1.53368 0
M  V30 1501 C 146.102 -0.227326 2.00817 0
M  V30 1502 C 146.423 -1.49511 1.25186 0
M  V30 1503 O 145.693 -1.92482 0.364348 0
M  V30 1504 H 144.273 -0.0869923 0.741917 0
M  V30 1505 H 146.935 0.488381 1.88682 0
M  V30 1506 H 146.031 -0.456273 3.08747 0
M  V30 1507 N 146.332 -1.57332 0.0918853 0
M  V30 1508 C 147.262 -2.16872 -0.865371 0
M  V30 1509 C 148.243 -1.10118 -1.29646 0
M  V30 1510 O 149.428 -1.38242 -1.36392 0
M  V30 1511 C 146.558 -2.74649 -2.12569 0
M  V30 1512 C 145.512 -3.86747 -1.83333 0
M  V30 1513 C 144.838 -4.31212 -3.16166 0
M  V30 1514 C 146.138 -5.10089 -1.1228 0
M  V30 1515 H 147.832 -2.97114 -0.369307 0
M  V30 1516 H 145.378 -1.42918 -0.176194 0
M  V30 1517 H 147.331 -3.14952 -2.7997 0
M  V30 1518 H 146.055 -1.91657 -2.64452 0
M  V30 1519 H 144.714 -3.46978 -1.18331 0
M  V30 1520 H 144.362 -3.45115 -3.6593 0
M  V30 1521 H 144.062 -5.06788 -2.97388 0
M  V30 1522 H 145.586 -4.74146 -3.84731 0
M  V30 1523 H 147 -5.47582 -1.69785 0
M  V30 1524 H 145.397 -5.91073 -1.03693 0
M  V30 1525 H 146.467 -4.84786 -0.105041 0
M  V30 1526 N 147.81 0.181792 -1.56548 0
M  V30 1527 C 149.035 0.920019 -1.85877 0
M  V30 1528 C 149.46 1.75494 -0.677021 0
M  V30 1529 O 148.818 1.77399 0.374056 0
M  V30 1530 C 148.866 1.78112 -3.13542 0
M  V30 1531 O 147.97 2.88152 -2.95029 0
M  V30 1532 H 147.311 0.258334 -0.611686 0
M  V30 1533 H 149.841 0.183092 -2.03779 0
M  V30 1534 H 149.851 2.18314 -3.44678 0
M  V30 1535 H 148.526 1.16777 -3.99169 0
M  V30 1536 H 147.103 2.51609 -2.75222 0
M  V30 1537 N 149.288 1.51039 0.449983 0
M  V30 1538 C 150.704 1.38934 0.785462 0
M  V30 1539 C 150.904 0.461817 1.96136 0
M  V30 1540 O 149.96 -0.0877389 2.52348 0
M  V30 1541 C 151.273 2.80724 1.0777 0
M  V30 1542 C 152.821 2.89787 1.1829 0
M  V30 1543 C 153.296 4.32457 1.50815 0
M  V30 1544 N 154.787 4.35505 1.57764 0
M  V30 1545 C 155.522 5.42914 1.84477 0
M  V30 1546 N 155.018 6.60502 2.09068 0
M  V30 1547 N 156.811 5.3038 1.86155 0
M  V30 1548 H 148.962 2.09904 -0.324647 0
M  V30 1549 H 151.225 0.944378 -0.0827957 0
M  V30 1550 H 150.931 3.50531 0.286498 0
M  V30 1551 H 150.805 3.19273 2.00859 0
M  V30 1552 H 153.192 2.20186 1.96474 0
M  V30 1553 H 153.273 2.54752 0.231314 0
M  V30 1554 H 152.917 5.02603 0.731622 0
M  V30 1555 H 152.847 4.64995 2.47158 0
M  V30 1556 H 155.338 3.50724 1.40715 0
M  V30 1557 H 155.651 7.38158 2.28785 0
M  V30 1558 H 153.996 6.63639 2.06416 0
M  V30 1559 H 157.187 4.37505 1.66454 0
M  V30 1560 H 157.36 6.1417 2.06637 0
M  V30 1561 N 150.766 -0.704594 1.40972 0
M  V30 1562 C 151.696 -1.83124 1.44872 0
M  V30 1563 C 152.677 -1.67281 0.30838 0
M  V30 1564 O 153.862 -1.87149 0.518556 0
M  V30 1565 C 150.992 -3.21181 1.32136 0
M  V30 1566 C 149.946 -3.51714 2.43888 0
M  V30 1567 C 149.272 -4.89032 2.16222 0
M  V30 1568 C 150.572 -3.516 3.86232 0
M  V30 1569 H 152.266 -1.80117 2.39161 0
M  V30 1570 H 149.812 -0.865145 1.15114 0
M  V30 1571 H 151.765 -3.99702 1.33479 0
M  V30 1572 H 150.489 -3.24791 0.343279 0
M  V30 1573 H 149.148 -2.75539 2.41813 0
M  V30 1574 H 148.796 -4.89256 1.16778 0
M  V30 1575 H 148.496 -5.10426 2.911 0
M  V30 1576 H 150.02 -5.69873 2.19265 0
M  V30 1577 H 151.434 -4.2014 3.9007 0
M  V30 1578 H 149.831 -3.84523 4.60719 0
M  V30 1579 H 150.901 -2.50757 4.15029 0
M  V30 1580 N 152.244 -1.26651 -0.937939 0
M  V30 1581 C 153.521 -1.0313 -1.66204 0
M  V30 1582 C 153.901 0.437256 -2.06522 0
M  V30 1583 O 153.249 1.41831 -1.79154 0
M  V30 1584 C 153.459 -1.98314 -2.87181 0
M  V30 1585 C 154.807 -2.27107 -3.58758 0
M  V30 1586 O 155.831 -1.96205 -2.97291 0
M  V30 1587 O 154.69 -2.79736 -4.69479 0
M  V30 1588 H 151.784 -0.392384 -0.727986 0
M  V30 1589 H 154.33 -1.37874 -0.989382 0
M  V30 1590 H 153.102 -2.97399 -2.54302 0
M  V30 1591 H 152.725 -1.64068 -3.6217 0
M  V30 1592 N 153.722 1.14298 -1.08507 0
M  V30 1593 C 154.95 1.89219 -0.836876 0
M  V30 1594 C 155.365 1.78638 0.611054 0
M  V30 1595 O 154.722 1.14643 1.41998 0
M  V30 1596 C 154.773 3.39158 -1.25116 0
M  V30 1597 O 154.494 3.49449 -2.64229 0
M  V30 1598 C 155.995 4.31073 -1.03398 0
M  V30 1599 H 153.215 0.599328 -0.301739 0
M  V30 1600 H 155.759 1.44746 -1.44461 0
M  V30 1601 H 153.914 3.81251 -0.687514 0
M  V30 1602 H 154.328 4.42589 -2.81452 0
M  V30 1603 H 155.802 5.34646 -1.37323 0
M  V30 1604 H 156.279 4.3919 0.0289259 0
M  V30 1605 H 156.885 3.94738 -1.58311 0
M  V30 1606 N 155.201 0.870884 1.31352 0
M  V30 1607 C 156.426 0.495957 2.01383 0
M  V30 1608 C 156.851 -0.904324 1.64935 0
M  V30 1609 O 156.209 -1.59687 0.858466 0
M  V30 1610 C 156.257 0.661433 3.54482 0
M  V30 1611 O 155.361 -0.298851 4.11316 0
M  V30 1612 H 154.702 0.197158 0.634054 0
M  V30 1613 H 157.232 1.17455 1.67527 0
M  V30 1614 H 157.242 0.555072 4.04207 0
M  V30 1615 H 155.917 1.68246 3.8035 0
M  V30 1616 H 154.494 -0.147368 3.72609 0
M  V30 1617 N 156.679 -1.44442 0.630414 0
M  V30 1618 C 157.925 -2.02351 0.134816 0
M  V30 1619 C 158.258 -1.4947 -1.23986 0
M  V30 1620 O 157.533 -0.678475 -1.82283 0
M  V30 1621 C 157.816 -3.59898 0.120707 0
M  V30 1622 C 157.669 -4.23063 1.52767 0
M  V30 1623 C 158.988 -4.36585 -0.555127 0
M  V30 1624 H 156.107 -0.73527 0.0504646 0
M  V30 1625 H 158.749 -1.72022 0.806751 0
M  V30 1626 H 156.899 -3.85868 -0.451477 0
M  V30 1627 H 158.571 -4.08202 2.14869 0
M  V30 1628 H 156.814 -3.80586 2.08175 0
M  V30 1629 H 157.485 -5.32071 1.46984 0
M  V30 1630 H 159.961 -4.16044 -0.0685429 0
M  V30 1631 H 158.837 -5.46294 -0.534185 0
M  V30 1632 H 159.098 -4.11138 -1.62535 0
M  V30 1633 N 158.157 -0.370918 -1.53173 0
M  V30 1634 C 159.406 0.218249 -2.00516 0
M  V30 1635 C 159.719 1.49429 -1.26215 0
M  V30 1636 O 160.925 2.16239 -1.64174 0
M  V30 1637 C 159.381 0.43948 -3.57207 0
M  V30 1638 C 158.989 -0.822244 -4.4039 0
M  V30 1639 C 160.733 0.986012 -4.1289 0
M  V30 1640 C 158.64 -0.570304 -5.88644 0
M  V30 1641 H 157.57 0.0853333 -0.749156 0
M  V30 1642 H 160.221 -0.490483 -1.76823 0
M  V30 1643 H 158.603 1.20961 -3.77074 0
M  V30 1644 H 159.777 -1.59557 -4.32294 0
M  V30 1645 H 158.092 -1.29238 -3.95836 0
M  V30 1646 H 160.689 1.18991 -5.21292 0
M  V30 1647 H 161.032 1.94972 -3.6782 0
M  V30 1648 H 161.565 0.27592 -3.96842 0
M  V30 1649 H 158.304 -1.50449 -6.38001 0
M  V30 1650 H 157.824 0.164427 -5.99575 0
M  V30 1651 H 159.503 -0.19784 -6.46697 0
M  V30 1652 N 159.635 1.57281 -0.100228 0
M  V30 1653 C 160.882 1.94537 0.562268 0
M  V30 1654 C 161.21 0.982315 1.67871 0
M  V30 1655 O 160.465 0.00280936 1.957 0
M  V30 1656 C 160.764 3.38305 1.15259 0
M  V30 1657 C 160.43 4.50618 0.159409 0
M  V30 1658 C 159.092 4.81066 -0.113741 0
M  V30 1659 C 161.444 5.18615 -0.518461 0
M  V30 1660 C 158.772 5.76835 -1.07137 0
M  V30 1661 C 161.124 6.15412 -1.46459 0
M  V30 1662 C 159.788 6.44262 -1.74592 0
M  V30 1663 H 159.058 0.711863 0.205748 0
M  V30 1664 H 161.705 1.90679 -0.17715 0
M  V30 1665 H 160.01 3.38766 1.96836 0
M  V30 1666 H 161.707 3.64435 1.67297 0
M  V30 1667 H 158.297 4.2689 0.382491 0
M  V30 1668 H 162.481 4.95264 -0.320581 0
M  V30 1669 H 157.737 5.975 -1.29628 0
M  V30 1670 H 161.911 6.67194 -1.99564 0
M  V30 1671 H 159.538 7.1828 -2.48953 0
M  V30 1672 N 161.113 -0.173488 1.56642 0
M  V30 1673 C 162.023 -1.23482 1.99473 0
M  V30 1674 C 163.039 -1.48567 0.905752 0
M  V30 1675 O 164.215 -1.60758 1.21321 0
M  V30 1676 C 161.28 -2.55444 2.34413 0
M  V30 1677 C 160.341 -2.38241 3.57127 0
M  V30 1678 C 159.574 -3.63909 3.90392 0
M  V30 1679 O 159.797 -4.68996 3.24653 0
M  V30 1680 O 158.731 -3.58149 4.83749 0
M  V30 1681 H 162.557 -0.901279 2.90018 0
M  V30 1682 H 160.142 -0.380185 1.44482 0
M  V30 1683 H 162.024 -3.33292 2.57865 0
M  V30 1684 H 160.699 -2.88382 1.4703 0
M  V30 1685 H 159.606 -1.58431 3.38896 0
M  V30 1686 H 160.939 -2.10228 4.45045 0
M  V30 1687 N 162.591 -1.51276 -0.441967 0
M  V30 1688 C 163.554 -1.7167 -1.51862 0
M  V30 1689 C 164.554 -0.586793 -1.49711 0
M  V30 1690 O 165.744 -0.854276 -1.51815 0
M  V30 1691 C 162.876 -1.76889 -2.91416 0
M  V30 1692 H 164.069 -2.67754 -1.35084 0
M  V30 1693 H 161.622 -1.41196 -0.670333 0
M  V30 1694 H 162.357 -0.826026 -3.13604 0
M  V30 1695 H 162.142 -2.59001 -2.94382 0
M  V30 1696 H 163.632 -1.94522 -3.69528 0
M  V30 1697 N 164.069 0.697108 -1.41344 0
M  V30 1698 C 164.999 1.82353 -1.45841 0
M  V30 1699 C 165.98 1.67115 -0.317247 0
M  V30 1700 O 167.165 1.86871 -0.528474 0
M  V30 1701 C 164.295 3.20476 -1.33838 0
M  V30 1702 C 163.249 3.50415 -2.4575 0
M  V30 1703 C 162.575 4.87878 -2.18813 0
M  V30 1704 C 163.875 3.49546 -3.88091 0
M  V30 1705 H 165.569 1.78846 -2.40113 0
M  V30 1706 H 163.115 0.859028 -1.15571 0
M  V30 1707 H 165.068 3.98988 -1.35596 0
M  V30 1708 H 163.792 3.24604 -0.360498 0
M  V30 1709 H 162.451 2.74253 -2.43271 0
M  V30 1710 H 162.099 4.8863 -1.19371 0
M  V30 1711 H 161.799 5.08875 -2.93803 0
M  V30 1712 H 163.323 5.68702 -2.22284 0
M  V30 1713 H 164.737 4.18066 -3.92293 0
M  V30 1714 H 163.134 3.82075 -4.62751 0
M  V30 1715 H 164.204 2.48552 -4.16353 0
M  V30 1716 N 165.547 1.27147 0.931209 0
M  V30 1717 C 166.51 1.09615 2.01289 0
M  V30 1718 C 167.51 0.0412581 1.60747 0
M  V30 1719 O 168.7 0.285545 1.71844 0
M  V30 1720 C 165.832 0.669447 3.34262 0
M  V30 1721 H 167.025 2.05662 2.18273 0
M  V30 1722 H 164.578 1.09885 1.11153 0
M  V30 1723 H 165.313 -0.292572 3.22978 0
M  V30 1724 H 165.098 1.43127 3.65044 0
M  V30 1725 H 166.588 0.568921 4.13706 0
M  V30 1726 N 167.025 -1.13721 1.09112 0
M  V30 1727 C 168.253 -1.88773 0.846899 0
M  V30 1728 C 168.668 -1.7896 -0.601572 0
M  V30 1729 O 168.025 -1.15394 -1.41388 0
M  V30 1730 C 168.076 -3.3849 1.26913 0
M  V30 1731 O 167.797 -3.48043 2.66079 0
M  V30 1732 C 169.298 -4.30518 1.05682 0
M  V30 1733 H 166.518 -0.59772 0.304914 0
M  V30 1734 H 169.062 -1.43977 1.45227 0
M  V30 1735 H 167.217 -3.80881 0.707723 0
M  V30 1736 H 167.631 -4.4109 2.83795 0
M  V30 1737 H 169.105 -5.3391 1.40156 0
M  V30 1738 H 169.582 -4.392 -0.00563416 0
M  V30 1739 H 170.188 -3.93893 1.60402 0
M  V30 1740 N 168.503 -0.877838 -1.30888 0
M  V30 1741 C 169.751 -0.491723 -1.96027 0
M  V30 1742 C 170.072 0.960827 -1.69685 0
M  V30 1743 O 169.342 1.67462 -1.01654 0
M  V30 1744 H 167.922 -0.17885 -0.725273 0
M  V30 1745 H 170.584 -1.11935 -1.59551 0
M  V30 1746 H 169.68 -0.656016 -3.05128 0
M  V30 1747 N 169.982 1.44106 -0.638065 0
M  V30 1748 C 171.222 2.03858 -0.148733 0
M  V30 1749 C 171.586 1.49153 1.20903 0
M  V30 1750 O 172.787 2.00452 1.79088 0
M  V30 1751 C 171.058 3.57117 -0.142314 0
M  V30 1752 S 172.617 4.37897 0.281385 0
M  V30 1753 H 169.435 0.708069 -0.0644912 0
M  V30 1754 H 172.037 1.7639 -0.843009 0
M  V30 1755 H 170.741 3.94436 -1.13349 0
M  V30 1756 H 170.272 3.89205 0.572988 0
M  V30 1757 H 172.287 4.72218 1.52395 0
M  V30 1758 N 171.46 0.379036 1.52974 0
M  V30 1759 C 172.688 -0.20679 2.05864 0
M  V30 1760 C 173.103 -1.41356 1.25155 0
M  V30 1761 O 172.46 -1.8009 0.295588 0
M  V30 1762 C 172.511 -0.587045 3.56702 0
M  V30 1763 O 172.232 0.571776 4.34353 0
M  V30 1764 C 173.733 -1.22983 4.25899 0
M  V30 1765 H 170.953 -0.0336123 0.670158 0
M  V30 1766 H 173.497 0.541298 1.97206 0
M  V30 1767 H 171.652 -1.28504 3.65466 0
M  V30 1768 H 172.066 0.261544 5.23847 0
M  V30 1769 H 173.54 -1.44635 5.32715 0
M  V30 1770 H 174.017 -2.19416 3.80465 0
M  V30 1771 H 174.623 -0.572892 4.21424 0
M  V30 1772 N 172.938 -1.57226 0.108567 0
M  V30 1773 C 174.163 -1.99604 -0.563303 0
M  V30 1774 C 174.588 -0.987563 -1.6009 0
M  V30 1775 O 173.946 0.0421687 -1.81251 0
M  V30 1776 C 173.994 -3.40902 -1.17552 0
M  V30 1777 O 173.098 -3.42896 -2.2912 0
M  V30 1778 H 172.439 -0.648704 -0.1417 0
M  V30 1779 H 174.969 -2.03679 0.193961 0
M  V30 1780 H 174.979 -3.78886 -1.51357 0
M  V30 1781 H 173.654 -4.1382 -0.415445 0
M  V30 1782 H 172.231 -3.1672 -1.96832 0
M  V30 1783 N 174.416 0.165178 -1.56732 0
M  V30 1784 C 175.644 0.896218 -1.86482 0
M  V30 1785 C 176.059 1.75555 -0.694675 0
M  V30 1786 O 175.416 1.79379 0.33607 0
M  V30 1787 C 175.467 1.76792 -3.1532 0
M  V30 1788 O 175.188 0.943239 -4.27825 0
M  V30 1789 C 176.689 2.6081 -3.58459 0
M  V30 1790 H 173.909 0.260064 -0.618553 0
M  V30 1791 H 176.453 0.163428 -2.03846 0
M  V30 1792 H 174.608 2.45398 -2.99764 0
M  V30 1793 H 175.022 1.53998 -5.01383 0
M  V30 1794 H 176.496 3.17579 -4.51495 0
M  V30 1795 H 176.973 3.35977 -2.82872 0
M  V30 1796 H 177.579 1.97526 -3.76648 0
M  V30 1797 N 175.894 1.51508 0.433938 0
M  V30 1798 C 177.122 1.68157 1.20543 0
M  V30 1799 C 177.537 0.380362 1.84929 0
M  V30 1800 O 176.894 -0.641446 1.70856 0
M  V30 1801 C 176.945 2.79965 2.28696 0
M  V30 1802 O 176.666 4.05045 1.66943 0
M  V30 1803 C 178.167 3.07912 3.18912 0
M  V30 1804 H 175.387 0.56421 0.363191 0
M  V30 1805 H 177.931 1.97941 0.513754 0
M  V30 1806 H 176.086 2.5277 2.93574 0
M  V30 1807 H 176.5 4.67165 2.38448 0
M  V30 1808 H 177.974 3.89719 3.90926 0
M  V30 1809 H 178.451 2.20456 3.79863 0
M  V30 1810 H 179.057 3.36779 2.59731 0
M  V30 1811 N 177.372 -0.689602 1.41712 0
M  V30 1812 C 178.335 -1.78521 1.43746 0
M  V30 1813 C 179.335 -1.57436 0.327191 0
M  V30 1814 O 180.525 -1.64 0.587348 0
M  V30 1815 C 177.657 -3.16971 1.25467 0
M  V30 1816 H 178.85 -1.78108 2.41283 0
M  V30 1817 H 176.403 -0.89781 1.27942 0
M  V30 1818 H 177.138 -3.23019 0.287948 0
M  V30 1819 H 176.923 -3.33678 2.05917 0
M  V30 1820 H 178.413 -3.96935 1.2974 0
M  V30 1821 N 178.85 -1.27639 -0.924453 0
M  V30 1822 C 180.08 -1.16819 -1.70402 0
M  V30 1823 C 180.488 0.277191 -1.87158 0
M  V30 1824 O 179.831 1.20025 -1.39067 0
M  V30 1825 C 179.893 -1.78305 -3.12166 0
M  V30 1826 C 179.557 -3.27502 -3.18734 0
M  V30 1827 C 180.554 -4.2409 -3.00738 0
M  V30 1828 C 178.239 -3.68269 -3.4159 0
M  V30 1829 C 180.233 -5.59422 -3.05492 0
M  V30 1830 C 177.92 -5.0373 -3.45977 0
M  V30 1831 C 178.918 -5.99116 -3.27946 0
M  V30 1832 O 178.606 -7.32108 -3.32074 0
M  V30 1833 H 178.338 -0.406931 -0.539799 0
M  V30 1834 H 180.892 -1.69078 -1.16626 0
M  V30 1835 H 179.122 -1.20528 -3.67437 0
M  V30 1836 H 180.811 -1.62154 -3.72103 0
M  V30 1837 H 181.577 -3.93931 -2.82919 0
M  V30 1838 H 177.456 -2.94496 -3.54673 0
M  V30 1839 H 181 -6.33852 -2.91337 0
M  V30 1840 H 176.897 -5.33543 -3.63321 0
M  V30 1841 H 177.665 -7.40598 -3.48507 0
M  V30 1842 N 180.328 1.1314 -1.09713 0
M  V30 1843 C 181.577 1.83838 -0.829851 0
M  V30 1844 C 181.89 1.84599 0.646728 0
M  V30 1845 O 183.096 2.51218 1.02965 0
M  V30 1846 C 181.552 3.30069 -1.43466 0
M  V30 1847 C 181.16 3.37688 -2.94399 0
M  V30 1848 C 182.904 4.05788 -1.24645 0
M  V30 1849 C 180.811 4.78209 -3.47952 0
M  V30 1850 H 179.741 0.68877 -0.306777 0
M  V30 1851 H 182.392 1.27448 -1.3202 0
M  V30 1852 H 180.774 3.8628 -0.871996 0
M  V30 1853 H 181.948 2.91456 -3.56918 0
M  V30 1854 H 180.263 2.75436 -3.12289 0
M  V30 1855 H 182.86 5.09535 -1.62107 0
M  V30 1856 H 183.203 4.15878 -0.187357 0
M  V30 1857 H 183.736 3.55915 -1.77678 0
M  V30 1858 H 180.475 4.73311 -4.53495 0
M  V30 1859 H 179.995 5.24924 -2.90198 0
M  V30 1860 H 181.674 5.47133 -3.45332 0
M  V30 1861 N 181.806 0.884767 1.30421 0
M  V30 1862 C 183.031 0.517288 2.00845 0
M  V30 1863 C 183.456 -0.886779 1.65885 0
M  V30 1864 O 182.814 -1.58768 0.875354 0
M  V30 1865 C 182.862 0.698994 3.5376 0
M  V30 1866 O 181.966 -0.255208 4.1161 0
M  V30 1867 H 181.307 0.203872 0.631927 0
M  V30 1868 H 183.837 1.19225 1.66272 0
M  V30 1869 H 183.847 0.597912 4.03595 0
M  V30 1870 H 182.522 1.72271 3.78544 0
M  V30 1871 H 181.099 -0.10784 3.72744 0
M  V30 1872 N 183.284 -1.43765 0.645699 0
M  V30 1873 C 184.533 -2.01116 0.153412 0
M  V30 1874 C 184.846 -1.51493 -1.23731 0
M  V30 1875 O 186.052 -2.01067 -1.8244 0
M  V30 1876 C 184.508 -3.59206 0.223473 0
M  V30 1877 C 184.116 -4.17823 1.61642 0
M  V30 1878 C 185.86 -4.23972 -0.211597 0
M  V30 1879 C 183.767 -5.68183 1.64081 0
M  V30 1880 H 182.697 -0.752093 0.0535891 0
M  V30 1881 H 185.348 -1.6482 0.806633 0
M  V30 1882 H 183.73 -3.92867 -0.497118 0
M  V30 1883 H 184.904 -3.95674 2.36176 0
M  V30 1884 H 183.219 -3.65399 1.99681 0
M  V30 1885 H 185.816 -5.34275 -0.213112 0
M  V30 1886 H 186.159 -3.97352 -1.24165 0
M  V30 1887 H 186.692 -3.95166 0.456988 0
M  V30 1888 H 183.431 -5.99559 2.64971 0
M  V30 1889 H 182.951 -5.9241 0.938611 0
M  V30 1890 H 184.63 -6.32085 1.3812 0
M  V30 1891 N 184.763 -0.387143 -1.52771 0
M  V30 1892 C 185.713 0.465942 -2.23188 0
M  V30 1893 C 186.697 1.03138 -1.23496 0
M  V30 1894 O 187.889 0.957845 -1.48843 0
M  V30 1895 C 185.018 1.59384 -3.04059 0
M  V30 1896 C 184.104 1.04024 -4.11144 0
M  V30 1897 N 184.495 0.211416 -5.05358 0
M  V30 1898 C 182.793 1.31295 -4.26237 0
M  V30 1899 C 183.494 -0.0941698 -5.81624 0
M  V30 1900 N 182.47 0.509207 -5.4121 0
M  V30 1901 H 186.272 -0.173856 -2.93385 0
M  V30 1902 H 183.786 -0.19633 -1.61209 0
M  V30 1903 H 185.783 2.21738 -3.53041 0
M  V30 1904 H 184.443 2.23648 -2.35397 0
M  V30 1905 H 185.454 -0.151151 -5.17679 0
M  V30 1906 H 182.131 1.95679 -3.68803 0
M  V30 1907 H 183.521 -0.765572 -6.67524 0
M  V30 1908 N 186.241 1.57166 -0.116904 0
M  V30 1909 C 187.189 2.16457 0.851418 0
M  V30 1910 C 188.183 1.11323 1.27686 0
M  V30 1911 O 189.389 1.2963 1.24884 0
M  V30 1912 H 185.764 0.69271 0.292672 0
M  V30 1913 H 187.735 2.96605 0.32685 0
M  V30 1914 C 186.484 2.77689 2.09246 0
M  V30 1915 H 185.807 3.58285 1.77402 0
M  V30 1916 H 187.247 3.22716 2.7501 0
M  V30 1917 C 185.706 1.74667 2.88085 0
M  V30 1918 O 186.236 1.19877 3.83396 0
M  V30 1919 N 184.442 1.44656 2.52038 0
M  V30 1920 H 183.989 1.89402 1.74599 0
M  V30 1921 H 183.947 0.759675 3.05084 0
M  V30 1922 N 187.719 -0.156864 1.56817 0
M  V30 1923 C 188.652 -1.22316 1.9265 0
M  V30 1924 C 189.63 -1.42059 0.791076 0
M  V30 1925 O 190.814 -1.56831 1.04576 0
M  V30 1926 C 187.941 -2.58375 2.18998 0
M  V30 1927 C 186.987 -2.55284 3.41661 0
M  V30 1928 S 187.82 -2.02946 4.95553 0
M  V30 1929 C 188.976 -3.40753 5.25013 0
M  V30 1930 H 189.209 -0.917403 2.82791 0
M  V30 1931 H 186.742 -0.362059 1.50095 0
M  V30 1932 H 188.7 -3.36677 2.34859 0
M  V30 1933 H 187.361 -2.86145 1.29538 0
M  V30 1934 H 186.554 -3.55418 3.57343 0
M  V30 1935 H 186.156 -1.85086 3.24991 0
M  V30 1936 H 188.448 -4.36819 5.17876 0
M  V30 1937 H 189.391 -3.29933 6.26538 0
M  V30 1938 H 189.799 -3.37433 4.52548 0
M  V30 1939 N 189.197 -1.51736 -0.425897 0
M  V30 1940 C 190.437 -1.66636 -1.18371 0
M  V30 1941 C 190.801 -0.379854 -1.88205 0
M  V30 1942 O 192.002 -0.404758 -2.65735 0
M  V30 1943 C 190.273 -2.84382 -2.16476 0
M  V30 1944 S 191.832 -3.19673 -3.0059 0
M  V30 1945 H 188.65 -0.586957 -0.40125 0
M  V30 1946 H 191.252 -1.89679 -0.473518 0
M  V30 1947 H 189.956 -3.76281 -1.63831 0
M  V30 1948 H 189.487 -2.63562 -2.92059 0
M  V30 1949 H 191.502 -2.66994 -4.18245 0
M  V30 1950 N 190.675 0.682077 -1.42076 0
M  V30 1951 C 191.638 1.77756 -1.44691 0
M  V30 1952 C 192.638 1.5726 -0.335535 0
M  V30 1953 O 193.828 1.63686 -0.596037 0
M  V30 1954 C 190.96 3.16301 -1.27146 0
M  V30 1955 H 192.153 1.76826 -2.42224 0
M  V30 1956 H 189.706 0.891012 -1.28416 0
M  V30 1957 H 190.441 3.22862 -0.305075 0
M  V30 1958 H 190.226 3.32581 -2.07683 0
M  V30 1959 H 191.716 3.96241 -1.31843 0
M  V30 1960 N 192.153 1.28127 0.917671 0
M  V30 1961 C 193.399 1.16232 1.66918 0
M  V30 1962 C 193.754 -0.28701 1.90247 0
M  V30 1963 O 193.047 -1.20586 1.48895 0
M  V30 1964 C 193.241 1.89018 3.03327 0
M  V30 1965 C 193.07 3.4088 2.9331 0
M  V30 1966 C 191.84 4.10214 2.95047 0
M  V30 1967 C 194.038 4.36689 2.71675 0
M  V30 1968 N 192.02 5.48571 2.75577 0
M  V30 1969 C 193.391 5.62382 2.6101 0
M  V30 1970 C 195.446 4.26661 2.56641 0
M  V30 1971 C 194.149 6.79189 2.36843 0
M  V30 1972 C 196.175 5.432 2.33853 0
M  V30 1973 C 195.537 6.67855 2.23939 0
M  V30 1974 H 191.636 0.48024 0.617166 0
M  V30 1975 H 194.22 1.61727 1.08409 0
M  V30 1976 H 192.391 1.45963 3.59929 0
M  V30 1977 H 194.123 1.69541 3.67475 0
M  V30 1978 H 190.878 3.61762 3.05655 0
M  V30 1979 H 191.302 6.21287 2.68945 0
M  V30 1980 H 195.944 3.30998 2.63059 0
M  V30 1981 H 193.662 7.74926 2.29164 0
M  V30 1982 H 197.248 5.37328 2.23091 0
M  V30 1983 H 196.128 7.56511 2.06546 0
M  V30 1984 N 193.631 -1.12557 1.10312 0
M  V30 1985 C 194.564 -2.1737 0.694674 0
M  V30 1986 C 195.542 -1.59745 -0.303373 0
M  V30 1987 O 196.726 -1.87408 -0.202578 0
M  V30 1988 C 193.853 -3.38691 0.0248052 0
M  V30 1989 C 192.899 -4.14943 0.986121 0
M  V30 1990 S 193.732 -4.73413 2.50281 0
M  V30 1991 C 194.888 -5.9807 1.84562 0
M  V30 1992 H 195.121 -2.5168 1.58255 0
M  V30 1993 H 192.654 -1.23998 0.919992 0
M  V30 1994 H 194.612 -4.08959 -0.355361 0
M  V30 1995 H 193.273 -3.02664 -0.839851 0
M  V30 1996 H 192.466 -5.01854 0.464651 0
M  V30 1997 H 192.068 -3.50377 1.30813 0
M  V30 1998 H 194.36 -6.67232 1.17507 0
M  V30 1999 H 195.303 -6.54841 2.69423 0
M  V30 2000 H 195.711 -5.49073 1.31069 0
M  V30 2001 N 195.109 -0.891671 -1.2995 0
M  V30 2002 C 196.358 -0.509521 -1.95158 0
M  V30 2003 C 196.671 0.947388 -1.71125 0
M  V30 2004 O 197.877 1.43669 -2.30372 0
M  V30 2005 C 196.333 -0.860315 -3.49466 0
M  V30 2006 C 195.941 -2.33545 -3.8231 0
M  V30 2007 C 197.685 -0.547687 -4.20952 0
M  V30 2008 C 195.592 -2.62752 -5.29826 0
M  V30 2009 H 194.522 -0.18682 -0.730489 0
M  V30 2010 H 197.173 -1.08756 -1.47798 0
M  V30 2011 H 195.555 -0.211285 -3.95436 0
M  V30 2012 H 196.729 -3.02936 -3.47227 0
M  V30 2013 H 195.044 -2.61629 -3.23944 0
M  V30 2014 H 197.641 -0.742854 -5.29515 0
M  V30 2015 H 197.984 0.51332 -4.13123 0
M  V30 2016 H 198.517 -1.1542 -3.80688 0
M  V30 2017 H 195.256 -3.6762 -5.42712 0
M  V30 2018 H 194.776 -1.97977 -5.66185 0
M  V30 2019 H 196.455 -2.48601 -5.97333 0
M  V30 2020 N 196.587 1.43421 -0.653314 0
M  V30 2021 C 197.864 1.95361 -0.0966581 0
M  V30 2022 C 198.244 1.59461 1.38331 0
M  V30 2023 O 197.592 0.879777 2.10884 0
M  V30 2024 C 197.802 3.47311 -0.342988 0
M  V30 2025 C 199.15 4.23875 -0.24798 0
M  V30 2026 O 200.174 3.55133 -0.275553 0
M  V30 2027 O 199.033 5.4623 -0.171771 0
M  V30 2028 H 196.127 0.826945 0.00956291 0
M  V30 2029 H 198.673 1.5336 -0.726558 0
M  V30 2030 H 197.445 3.66569 -1.36906 0
M  V30 2031 H 197.068 3.9631 0.319975 0
M  V30 2032 N 198.065 0.39524 1.52563 0
M  V30 2033 C 199.29 -0.187456 2.06551 0
M  V30 2034 C 199.715 -1.39249 1.26457 0
M  V30 2035 O 199.073 -1.78947 0.291151 0
M  V30 2036 C 199.121 -0.529985 3.56684 0
M  V30 2037 O 198.225 -1.62307 3.79118 0
M  V30 2038 H 197.566 -0.0202537 0.663691 0
M  V30 2039 H 200.096 0.564426 1.96661 0
M  V30 2040 H 200.106 -0.792598 4.00227 0
M  V30 2041 H 198.781 0.350987 4.14416 0
M  V30 2042 H 197.358 -1.3537 3.47461 0
M  V30 2043 N 199.544 -1.57102 0.125237 0
M  V30 2044 C 200.791 -1.95407 -0.531248 0
M  V30 2045 C 201.119 -1.0089 -1.66287 0
M  V30 2046 O 200.374 -0.0339431 -1.95671 0
M  V30 2047 C 200.673 -3.40096 -1.09862 0
M  V30 2048 C 200.339 -4.50815 -0.0876989 0
M  V30 2049 C 199.001 -4.80824 0.19026 0
M  V30 2050 C 201.353 -5.17724 0.600902 0
M  V30 2051 C 198.681 -5.75058 1.163 0
M  V30 2052 C 201.033 -6.13005 1.56231 0
M  V30 2053 C 199.697 -6.41403 1.8482 0
M  V30 2054 H 198.967 -0.715046 -0.194397 0
M  V30 2055 H 201.614 -1.90373 0.207463 0
M  V30 2056 H 199.919 -3.41855 -1.91422 0
M  V30 2057 H 201.616 -3.6705 -1.61478 0
M  V30 2058 H 198.206 -4.27444 -0.314528 0
M  V30 2059 H 202.39 -4.94691 0.399333 0
M  V30 2060 H 197.646 -5.95362 1.39117 0
M  V30 2061 H 201.82 -6.63934 2.10153 0
M  V30 2062 H 199.447 -7.14229 2.60349 0
M  V30 2063 N 201.022 0.148545 -1.56898 0
M  V30 2064 C 202.27 0.859717 -1.82902 0
M  V30 2065 C 202.591 1.81775 -0.70588 0
M  V30 2066 O 201.861 1.93994 0.272586 0
M  V30 2067 H 200.441 0.320469 -0.674766 0
M  V30 2068 H 203.103 0.142918 -1.94375 0
M  V30 2069 H 202.199 1.4229 -2.77777 0
M  V30 2070 N 202.5 1.5196 0.417844 0
M  V30 2071 C 203.448 1.75278 1.52907 0
M  V30 2072 C 204.442 0.619611 1.57662 0
M  V30 2073 O 205.648 0.801457 1.61173 0
M  V30 2074 H 202.023 0.554141 0.508362 0
M  V30 2075 H 203.994 2.68389 1.30422 0
M  V30 2076 C 202.743 1.91262 2.90369 0
M  V30 2077 H 202.066 2.77872 2.8745 0
M  V30 2078 H 203.506 2.11581 3.67436 0
M  V30 2079 C 201.965 0.677431 3.30019 0
M  V30 2080 O 202.495 -0.158799 4.01386 0
M  V30 2081 N 200.701 0.515851 2.85985 0
M  V30 2082 H 200.248 1.19744 2.28077 0
M  V30 2083 H 200.206 -0.309315 3.12875 0
M  V30 2084 N 203.978 -0.674533 1.42435 0
M  V30 2085 C 204.888 -1.81751 1.48337 0
M  V30 2086 C 205.904 -1.69975 0.372099 0
M  V30 2087 O 207.08 -1.91521 0.62304 0
M  V30 2088 C 204.145 -3.17895 1.38361 0
M  V30 2089 C 203.206 -3.41625 2.59982 0
M  V30 2090 C 202.439 -4.71274 2.50473 0
M  V30 2091 O 202.662 -5.49197 1.54075 0
M  V30 2092 O 201.596 -4.96254 3.4061 0
M  V30 2093 H 205.422 -1.79728 2.44809 0
M  V30 2094 H 203.007 -0.830312 1.24202 0
M  V30 2095 H 204.889 -3.99136 1.35161 0
M  V30 2096 H 203.564 -3.20555 0.450144 0
M  V30 2097 H 202.471 -2.60231 2.68757 0
M  V30 2098 H 203.804 -3.43796 3.52229 0
M  V30 2099 N 205.456 -1.28612 -0.910864 0
M  V30 2100 C 206.366 -1.14643 -2.0468 0
M  V30 2101 C 207.382 -0.0723121 -1.7385 0
M  V30 2102 O 208.558 -0.282178 -1.99413 0
M  V30 2103 C 205.623 -0.812561 -3.37044 0
M  V30 2104 C 204.684 -1.96935 -3.81465 0
M  V30 2105 C 203.917 -1.65131 -5.07511 0
M  V30 2106 O 204.14 -0.567013 -5.67575 0
M  V30 2107 O 203.074 -2.49585 -5.47714 0
M  V30 2108 H 206.9 -2.1001 -2.19384 0
M  V30 2109 H 204.485 -1.07958 -1.03274 0
M  V30 2110 H 206.367 -0.640441 -4.16505 0
M  V30 2111 H 205.042 0.111426 -3.23508 0
M  V30 2112 H 203.949 -2.19664 -3.02818 0
M  V30 2113 H 205.282 -2.87414 -3.99567 0
M  V30 2114 N 206.934 1.1197 -1.10907 0
M  V30 2115 C 207.866 2.17592 -0.720175 0
M  V30 2116 C 208.879 1.60938 0.245495 0
M  V30 2117 O 210.068 1.78476 0.0292245 0
M  V30 2118 C 207.168 3.38873 -0.0427917 0
M  V30 2119 C 206.341 4.25006 -1.03388 0
M  V30 2120 C 205.4 5.24774 -0.387075 0
M  V30 2121 O 204.426 5.59631 -1.03934 0
M  V30 2122 N 205.628 5.74208 0.852407 0
M  V30 2123 H 208.393 2.51567 -1.62893 0
M  V30 2124 H 205.954 1.27439 -0.998543 0
M  V30 2125 H 207.946 4.02703 0.401501 0
M  V30 2126 H 206.516 3.03007 0.768456 0
M  V30 2127 H 205.736 3.57716 -1.65629 0
M  V30 2128 H 207.024 4.79397 -1.70458 0
M  V30 2129 H 206.422 5.48062 1.40161 0
M  V30 2130 H 204.979 6.39901 1.23977 0
M  V30 2131 N 208.412 0.89855 1.29475 0
M  V30 2132 C 209.828 0.594483 1.48115 0
M  V30 2133 C 210.028 -0.86431 1.82022 0
M  V30 2134 O 209.084 -1.64457 1.91599 0
M  V30 2135 C 210.397 1.51932 2.59494 0
M  V30 2136 C 211.945 1.5244 2.7337 0
M  V30 2137 C 212.42 2.43548 3.87877 0
M  V30 2138 N 213.911 2.41589 3.95208 0
M  V30 2139 C 214.646 3.08789 4.83153 0
M  V30 2140 N 214.142 3.85265 5.75798 0
M  V30 2141 N 215.935 2.97952 4.76635 0
M  V30 2142 H 208.086 1.84207 1.05742 0
M  V30 2143 H 210.349 0.789251 0.525154 0
M  V30 2144 H 210.055 2.55865 2.41301 0
M  V30 2145 H 209.929 1.23899 3.56271 0
M  V30 2146 H 212.316 0.492518 2.90961 0
M  V30 2147 H 212.397 1.8451 1.77172 0
M  V30 2148 H 212.041 3.46829 3.71041 0
M  V30 2149 H 211.971 2.08788 4.83441 0
M  V30 2150 H 214.462 1.86025 3.28943 0
M  V30 2151 H 214.775 4.33598 6.39697 0
M  V30 2152 H 213.12 3.89371 5.75687 0
M  V30 2153 H 216.311 2.37723 4.03244 0
M  V30 2154 H 216.484 3.50599 5.44962 0
M  V30 2155 N 209.89 -1.43072 0.660911 0
M  V30 2156 C 210.84 -2.27948 -0.04847 0
M  V30 2157 C 211.824 -1.40325 -0.787246 0
M  V30 2158 O 213.016 -1.63893 -0.668446 0
M  V30 2159 C 210.145 -3.28143 -1.00881 0
M  V30 2160 C 209.231 -4.23252 -0.268108 0
M  V30 2161 N 209.622 -5.00656 0.719528 0
M  V30 2162 C 207.92 -4.43092 -0.508493 0
M  V30 2163 C 208.621 -5.70019 1.15988 0
M  V30 2164 N 207.597 -5.41364 0.492584 0
M  V30 2165 H 211.399 -2.85213 0.709279 0
M  V30 2166 H 208.913 -1.54869 0.488822 0
M  V30 2167 H 210.91 -3.87736 -1.53188 0
M  V30 2168 H 209.57 -2.7244 -1.76654 0
M  V30 2169 H 210.581 -5.06115 1.09855 0
M  V30 2170 H 207.258 -3.98449 -1.24679 0
M  V30 2171 H 208.648 -6.4214 1.97751 0
M  V30 2172 N 211.368 -0.403325 -1.52352 0
M  V30 2173 C 212.315 0.425011 -2.26853 0
M  V30 2174 C 213.285 1.04598 -1.29029 0
M  V30 2175 O 214.47 1.07135 -1.57882 0
M  V30 2176 C 211.61 1.53888 -3.08889 0
M  V30 2177 C 210.723 0.939396 -4.21663 0
M  V30 2178 C 209.858 2.02547 -4.91068 0
M  V30 2179 C 208.897 1.40263 -5.95813 0
M  V30 2180 N 208.034 2.4286 -6.58759 0
M  V30 2181 H 212.874 -0.21674 -2.97211 0
M  V30 2182 H 210.411 -0.118722 -1.4662 0
M  V30 2183 H 212.369 2.19558 -3.54753 0
M  V30 2184 H 210.999 2.15074 -2.40714 0
M  V30 2185 H 210.051 0.171898 -3.80011 0
M  V30 2186 H 211.363 0.44436 -4.96817 0
M  V30 2187 H 210.517 2.75958 -5.40308 0
M  V30 2188 H 209.256 2.55415 -4.15469 0
M  V30 2189 H 208.261 0.653833 -5.45898 0
M  V30 2190 H 209.486 0.881719 -6.73352 0
M  V30 2191 H 207.432 2.94871 -5.85992 0
M  V30 2192 H 207.349 1.98152 -7.2957 0
M  V30 2193 H 208.617 3.15858 -7.12639 0
M  V30 2194 N 212.846 1.57033 -0.133567 0
M  V30 2195 C 214.093 1.95686 0.520877 0
M  V30 2196 C 214.421 1.0177 1.6575 0
M  V30 2197 O 213.676 0.0443195 1.9565 0
M  V30 2198 C 213.975 3.40674 1.08057 0
M  V30 2199 C 213.641 4.50855 0.0637899 0
M  V30 2200 C 212.303 4.80716 -0.215757 0
M  V30 2201 C 214.655 5.17398 -0.62835 0
M  V30 2202 C 211.983 5.74433 -1.19348 0
M  V30 2203 C 214.335 6.12167 -1.5948 0
M  V30 2204 C 212.999 6.40414 -1.88218 0
M  V30 2205 H 212.269 0.716067 0.190602 0
M  V30 2206 H 214.916 1.9026 -0.217556 0
M  V30 2207 H 213.221 3.42865 1.89606 0
M  V30 2208 H 214.918 3.67902 1.59529 0
M  V30 2209 H 211.508 4.27605 0.291855 0
M  V30 2210 H 215.692 4.94472 -0.425562 0
M  V30 2211 H 210.948 5.94616 -1.42272 0
M  V30 2212 H 215.122 6.6281 -2.13671 0
M  V30 2213 H 212.749 7.12838 -2.64133 0
M  V30 2214 N 214.325 -0.140222 1.56975 0
M  V30 2215 C 215.565 -0.857823 1.85528 0
M  V30 2216 C 215.929 -1.78039 0.718768 0
M  V30 2217 O 217.13 -2.53795 0.885521 0
M  V30 2218 C 215.401 -1.60615 3.19277 0
M  V30 2219 S 216.96 -2.36824 3.69405 0
M  V30 2220 H 213.778 -0.286727 0.650622 0
M  V30 2221 H 216.38 -0.117408 1.95147 0
M  V30 2222 H 215.084 -0.919994 3.99955 0
M  V30 2223 H 214.615 -2.38735 3.12681 0
M  V30 2224 H 216.63 -3.62148 3.3921 0
M  V30 2225 N 215.803 -1.52179 -0.40978 0
M  V30 2226 C 217.214 -1.58377 -0.988615 0
M  V30 2227 C 217.565 -0.423879 -1.91566 0
M  V30 2228 O 216.69 0.455844 -2.11544 0
M  V30 2229 C 217.285 -2.87044 -1.79976 0
M  V30 2230 C 215.844 -2.95722 -2.32863 0
M  V30 2231 C 214.991 -2.53309 -1.12828 0
M  V30 2232 H 217.942 -1.57558 -0.190039 0
M  V30 2233 H 217.963 -2.7236 -2.65707 0
M  V30 2234 H 217.475 -3.71444 -1.12478 0
M  V30 2235 H 215.576 -2.15814 -3.03735 0
M  V30 2236 H 215.689 -3.99951 -2.63773 0
M  V30 2237 H 214.053 -2.07142 -1.48204 0
M  V30 2238 H 214.836 -3.40082 -0.46897 0
M  V30 2239 N 217.281 0.66697 -1.42791 0
M  V30 2240 C 218.692 1.2478 -1.38877 0
M  V30 2241 C 219.043 1.96012 -0.0859426 0
M  V30 2242 O 218.168 2.00463 0.815081 0
M  V30 2243 C 218.763 2.26938 -2.51564 0
M  V30 2244 C 217.322 2.80529 -2.50959 0
M  V30 2245 C 216.469 1.54965 -2.29959 0
M  V30 2246 H 219.42 0.459853 -1.51892 0
M  V30 2247 H 219.441 3.08834 -2.22265 0
M  V30 2248 H 218.953 1.75065 -3.46372 0
M  V30 2249 H 217.054 3.36502 -1.59991 0
M  V30 2250 H 217.167 3.29012 -3.48265 0
M  V30 2251 H 215.531 1.81817 -1.78366 0
M  V30 2252 H 216.314 1.05047 -3.26833 0
M  V30 2253 N 218.759 1.29093 0.90403 0
M  V30 2254 C 219.689 1.16401 2.02418 0
M  V30 2255 C 220.67 0.0593085 1.69997 0
M  V30 2256 O 221.855 0.238021 1.92736 0
M  V30 2257 C 218.985 0.835233 3.37107 0
M  V30 2258 C 217.939 1.89578 3.83724 0
M  V30 2259 C 217.265 1.42041 5.15489 0
M  V30 2260 C 218.565 3.30394 4.04521 0
M  V30 2261 H 220.259 2.10109 2.13295 0
M  V30 2262 H 217.805 1.01157 1.02486 0
M  V30 2263 H 219.758 0.733169 4.14973 0
M  V30 2264 H 218.482 -0.137543 3.2631 0
M  V30 2265 H 217.141 1.98715 3.08071 0
M  V30 2266 H 216.789 0.436426 5.01103 0
M  V30 2267 H 216.489 2.12964 5.4765 0
M  V30 2268 H 218.013 1.33176 5.959 0
M  V30 2269 H 219.427 3.24123 4.72882 0
M  V30 2270 H 217.824 3.99237 4.48029 0
M  V30 2271 H 218.894 3.73692 3.09002 0
M  V30 2272 N 220.237 -1.11381 1.11499 0
M  V30 2273 C 221.477 -1.84763 0.874188 0
M  V30 2274 C 221.841 -1.82726 -0.589496 0
M  V30 2275 O 223.042 -2.51562 -0.947089 0
M  V30 2276 C 221.313 -3.27931 1.42112 0
M  V30 2277 S 222.872 -4.18557 1.31739 0
M  V30 2278 H 219.69 -0.637115 0.315603 0
M  V30 2279 H 222.292 -1.34097 1.42261 0
M  V30 2280 H 220.996 -3.26978 2.48019 0
M  V30 2281 H 220.527 -3.83665 0.869761 0
M  V30 2282 H 222.542 -4.95396 0.282335 0
M  V30 2283 N 221.715 -0.905404 -1.28997 0
M  V30 2284 C 222.943 -0.549846 -1.9946 0
M  V30 2285 C 223.358 0.866834 -1.67724 0
M  V30 2286 O 222.715 1.57298 -0.925404 0
M  V30 2287 C 222.766 -0.739387 -3.53858 0
M  V30 2288 O 222.487 -2.10031 -3.84472 0
M  V30 2289 C 223.988 -0.389541 -4.41585 0
M  V30 2290 H 221.208 -0.210429 -0.637151 0
M  V30 2291 H 223.752 -1.21632 -1.64396 0
M  V30 2292 H 221.907 -0.120023 -3.87214 0
M  V30 2293 H 222.321 -2.13385 -4.79132 0
M  V30 2294 H 223.795 -0.572972 -5.49018 0
M  V30 2295 H 224.272 0.673756 -4.34001 0
M  V30 2296 H 224.878 -0.986089 -4.1371 0
M  V30 2297 N 223.193 1.4272 -0.668489 0
M  V30 2298 C 224.126 2.28111 0.0637898 0
M  V30 2299 C 225.104 1.40705 0.814912 0
M  V30 2300 O 226.288 1.70146 0.81134 0
M  V30 2301 C 223.415 3.20429 1.0974 0
M  V30 2302 C 222.461 4.24197 0.442579 0
M  V30 2303 S 223.294 5.29563 -0.795173 0
M  V30 2304 C 224.45 6.25449 0.237516 0
M  V30 2305 H 224.683 2.8987 -0.660521 0
M  V30 2306 H 222.216 1.47456 -0.457821 0
M  V30 2307 H 224.174 3.74158 1.68868 0
M  V30 2308 H 222.835 2.57818 1.79411 0
M  V30 2309 H 222.028 4.88954 1.22227 0
M  V30 2310 H 221.63 3.73925 -0.0749554 0
M  V30 2311 H 223.922 6.68524 1.09915 0
M  V30 2312 H 224.865 7.07104 -0.375421 0
M  V30 2313 H 225.273 5.61511 0.580167 0
M  V30 2314 N 224.671 0.411399 1.52136 0
M  V30 2315 C 225.581 -0.419774 2.30814 0
M  V30 2316 C 226.597 -1.0515 1.38634 0
M  V30 2317 O 227.773 -1.05252 1.71709 0
M  V30 2318 C 224.838 -1.52019 3.11594 0
M  V30 2319 C 223.899 -0.91129 4.19516 0
M  V30 2320 C 223.132 -1.95927 4.96436 0
M  V30 2321 O 223.355 -3.17775 4.73683 0
M  V30 2322 O 222.289 -1.56423 5.81219 0
M  V30 2323 H 226.115 0.221805 3.02889 0
M  V30 2324 H 223.7 0.174547 1.48377 0
M  V30 2325 H 225.582 -2.15898 3.61892 0
M  V30 2326 H 224.257 -2.14633 2.42311 0
M  V30 2327 H 223.164 -0.235157 3.7336 0
M  V30 2328 H 224.497 -0.32904 4.91099 0
M  V30 2329 N 226.149 -1.5696 0.141893 0
M  V30 2330 C 227.096 -2.16501 -0.799737 0
M  V30 2331 C 228.066 -1.09643 -1.24771 0
M  V30 2332 O 229.251 -1.3766 -1.32115 0
M  V30 2333 C 226.391 -2.78679 -2.03549 0
M  V30 2334 C 225.504 -3.99914 -1.6338 0
M  V30 2335 C 224.639 -4.50106 -2.82096 0
M  V30 2336 C 223.678 -5.63819 -2.38275 0
M  V30 2337 N 222.815 -6.08651 -3.49983 0
M  V30 2338 H 227.655 -2.96632 -0.285179 0
M  V30 2339 H 225.192 -1.46533 -0.129053 0
M  V30 2340 H 227.15 -3.1287 -2.75986 0
M  V30 2341 H 225.78 -2.012 -2.52425 0
M  V30 2342 H 224.832 -3.71735 -0.807279 0
M  V30 2343 H 226.144 -4.82311 -1.27192 0
M  V30 2344 H 225.298 -4.86325 -3.62729 0
M  V30 2345 H 224.037 -3.66706 -3.21525 0
M  V30 2346 H 223.042 -5.2718 -1.56081 0
M  V30 2347 H 224.267 -6.49 -1.99938 0
M  V30 2348 H 222.213 -5.28188 -3.89042 0
M  V30 2349 H 222.13 -6.85961 -3.17794 0
M  V30 2350 H 223.398 -6.49515 -4.30988 0
M  V30 2351 N 227.627 0.131896 -1.57047 0
M  V30 2352 C 228.874 0.841932 -1.84168 0
M  V30 2353 C 229.202 1.8048 -0.725066 0
M  V30 2354 O 228.457 1.93618 0.284692 0
M  V30 2355 C 228.756 1.63703 -3.17704 0
M  V30 2356 C 228.422 0.81961 -4.43388 0
M  V30 2357 C 227.084 0.594148 -4.77518 0
M  V30 2358 C 229.436 0.248977 -5.20605 0
M  V30 2359 C 226.764 -0.212409 -5.86315 0
M  V30 2360 C 229.116 -0.544701 -6.30251 0
M  V30 2361 C 227.78 -0.780599 -6.6292 0
M  V30 2362 H 227.05 0.308085 -0.673917 0
M  V30 2363 H 229.697 0.104867 -1.91213 0
M  V30 2364 H 228.002 2.44464 -3.06177 0
M  V30 2365 H 229.699 2.19015 -3.35907 0
M  V30 2366 H 226.289 1.00542 -4.16641 0
M  V30 2367 H 230.473 0.410408 -4.946 0
M  V30 2368 H 225.729 -0.404524 -6.1006 0
M  V30 2369 H 229.903 -0.993922 -6.89271 0
M  V30 2370 H 227.53 -1.40742 -7.47058 0
M  V30 2371 N 229.106 1.52395 0.401703 0
M  V30 2372 C 230.069 1.75636 1.47257 0
M  V30 2373 C 231.069 0.62628 1.48103 0
M  V30 2374 O 232.259 0.894227 1.49497 0
M  V30 2375 C 229.391 1.84553 2.86624 0
M  V30 2376 H 230.584 2.71241 1.27938 0
M  V30 2377 H 228.137 1.42923 0.632662 0
M  V30 2378 H 228.872 0.908882 3.11303 0
M  V30 2379 H 228.657 2.66715 2.87412 0
M  V30 2380 H 230.147 2.04251 3.64241 0
M  V30 2381 N 230.584 -0.659388 1.43143 0
M  V30 2382 C 231.809 -1.45221 1.48073 0
M  V30 2383 C 232.234 -1.87845 0.097995 0
M  V30 2384 O 231.592 -1.56985 -0.90694 0
M  V30 2385 C 231.64 -2.66748 2.42647 0
M  V30 2386 O 230.744 -3.65583 1.90848 0
M  V30 2387 H 230.085 -0.435669 0.501088 0
M  V30 2388 H 232.615 -0.807432 1.87994 0
M  V30 2389 H 232.625 -3.14637 2.59745 0
M  V30 2390 H 231.3 -2.35067 3.43098 0
M  V30 2391 H 229.877 -3.24693 1.83381 0
M  V30 2392 N 232.062 -1.29571 -0.897171 0
M  V30 2393 C 233.292 -1.20408 -1.67886 0
M  V30 2394 C 233.7 0.237429 -1.87704 0
M  V30 2395 O 233.043 1.17048 -1.41582 0
M  V30 2396 C 233.105 -1.84887 -3.08314 0
M  V30 2397 C 232.769 -3.34189 -3.11716 0
M  V30 2398 C 233.766 -4.30374 -2.91675 0
M  V30 2399 C 231.451 -3.75431 -3.33701 0
M  V30 2400 C 233.445 -5.65776 -2.93557 0
M  V30 2401 C 231.132 -5.10955 -3.35214 0
M  V30 2402 C 232.13 -6.05938 -3.15164 0
M  V30 2403 O 231.818 -7.38987 -3.1647 0
M  V30 2404 H 231.55 -0.418289 -0.531046 0
M  V30 2405 H 234.104 -1.71514 -1.13014 0
M  V30 2406 H 232.334 -1.28295 -3.64798 0
M  V30 2407 H 234.023 -1.70011 -3.6858 0
M  V30 2408 H 234.789 -3.99844 -2.74499 0
M  V30 2409 H 230.668 -3.01953 -3.48347 0
M  V30 2410 H 234.212 -6.39889 -2.77826 0
M  V30 2411 H 230.109 -5.4113 -3.51922 0
M  V30 2412 H 230.877 -7.47823 -3.3272 0
M  V30 2413 N 233.54 1.10788 -1.12088 0
M  V30 2414 C 234.78 1.84297 -0.883974 0
M  V30 2415 C 235.144 1.83036 0.579797 0
M  V30 2416 O 236.345 2.52061 0.933734 0
M  V30 2417 C 234.616 3.27173 -1.43849 0
M  V30 2418 S 236.175 4.17853 -1.33957 0
M  V30 2419 H 232.993 0.635433 -0.318977 0
M  V30 2420 H 235.595 1.33341 -1.4297 0
M  V30 2421 H 234.299 3.25658 -2.49749 0
M  V30 2422 H 233.83 3.83198 -0.890096 0
M  V30 2423 H 235.845 4.95239 -0.308603 0
M  V30 2424 N 235.018 0.912232 1.28515 0
M  V30 2425 C 235.948 0.416403 2.29757 0
M  V30 2426 C 236.929 -0.515194 1.6211 0
M  V30 2427 O 238.114 -0.423253 1.89532 0
M  V30 2428 C 235.244 -0.34572 3.45575 0
M  V30 2429 C 234.198 0.496599 4.25109 0
M  V30 2430 C 233.524 -0.393771 5.33248 0
M  V30 2431 C 234.824 1.75307 4.92001 0
M  V30 2432 H 236.518 1.26249 2.7148 0
M  V30 2433 H 234.064 0.608515 1.30511 0
M  V30 2434 H 236.017 -0.703422 4.15488 0
M  V30 2435 H 234.741 -1.2257 3.02728 0
M  V30 2436 H 233.4 0.8368 3.56922 0
M  V30 2437 H 233.048 -1.27225 4.86644 0
M  V30 2438 H 232.748 0.166209 5.87365 0
M  V30 2439 H 234.272 -0.747389 6.06009 0
M  V30 2440 H 235.686 1.46437 5.54283 0
M  V30 2441 H 234.083 2.25534 5.56106 0
M  V30 2442 H 235.153 2.48176 4.16577 0
M  V30 2443 N 236.496 -1.42363 0.676048 0
M  V30 2444 C 237.724 -2.05859 0.207268 0
M  V30 2445 C 238.139 -1.50796 -1.13605 0
M  V30 2446 O 237.496 -0.648265 -1.70598 0
M  V30 2447 C 237.547 -3.61248 0.134975 0
M  V30 2448 O 237.268 -4.1427 1.42521 0
M  V30 2449 C 238.769 -4.41859 -0.357151 0
M  V30 2450 H 235.989 -0.663431 0.100503 0
M  V30 2451 H 238.533 -1.82479 0.923136 0
M  V30 2452 H 236.688 -3.83735 -0.531588 0
M  V30 2453 H 237.102 -5.0815 1.29939 0
M  V30 2454 H 238.576 -5.50847 -0.356641 0
M  V30 2455 H 239.053 -4.16536 -1.39264 0
M  V30 2456 H 239.659 -4.24392 0.27772 0
M  V30 2457 N 237.974 -0.419461 -1.51915 0
M  V30 2458 C 238.884 0.407528 -2.31033 0
M  V30 2459 C 239.9 1.04413 -1.3919 0
M  V30 2460 O 241.076 1.0434 -1.72265 0
M  V30 2461 C 238.141 1.50365 -3.12396 0
M  V30 2462 C 237.202 0.889029 -4.19994 0
M  V30 2463 C 236.435 1.93291 -4.97468 0
M  V30 2464 O 236.658 3.15259 -4.75361 0
M  V30 2465 O 235.592 1.53339 -5.8204 0
M  V30 2466 H 239.418 -0.237865 -3.02767 0
M  V30 2467 H 237.003 -0.182413 -1.48282 0
M  V30 2468 H 238.885 2.13975 -3.63032 0
M  V30 2469 H 237.56 2.13345 -2.43445 0
M  V30 2470 H 236.467 0.215353 -3.7348 0
M  V30 2471 H 237.8 0.302991 -4.91267 0
M  V30 2472 N 239.452 1.56882 -0.150215 0
M  V30 2473 C 240.863 1.82995 0.370076 0
M  V30 2474 C 241.214 1.06907 1.64515 0
M  V30 2475 O 240.339 0.315369 2.1409 0
M  V30 2476 C 240.934 3.31942 0.678208 0
M  V30 2477 C 239.493 3.58625 1.14301 0
M  V30 2478 C 238.64 2.76792 0.167778 0
M  V30 2479 H 241.591 1.54209 -0.374858 0
M  V30 2480 H 241.612 3.48272 1.53254 0
M  V30 2481 H 241.124 3.87294 -0.249991 0
M  V30 2482 H 239.225 3.08664 2.08704 0
M  V30 2483 H 239.338 4.67073 1.06676 0
M  V30 2484 H 237.702 2.45972 0.661037 0
M  V30 2485 H 238.485 3.34916 -0.754069 0
M  V30 2486 N 240.93 -0.123565 1.57115 0
M  V30 2487 C 242.178 -0.83051 1.84247 0
M  V30 2488 C 242.499 -1.80629 0.73471 0
M  V30 2489 O 241.769 -1.94403 -0.241688 0
M  V30 2490 H 240.349 -0.309694 0.679778 0
M  V30 2491 H 243.011 -0.111976 1.94578 0
M  V30 2492 H 242.107 -1.37852 2.80006 0
M  V30 2493 N 242.408 -1.52605 -0.393616 0
M  V30 2494 C 243.633 -1.71592 -1.16495 0
M  V30 2495 C 244.058 -0.43133 -1.83088 0
M  V30 2496 O 243.416 0.612523 -1.7064 0
M  V30 2497 C 243.464 -2.86318 -2.19213 0
M  V30 2498 O 242.568 -2.52969 -3.257 0
M  V30 2499 H 241.909 -0.570734 -0.33935 0
M  V30 2500 H 244.439 -1.99377 -0.459324 0
M  V30 2501 H 244.449 -3.1168 -2.63286 0
M  V30 2502 H 243.124 -3.79511 -1.7013 0
M  V30 2503 H 241.701 -2.38332 -2.86797 0
M  V30 2504 N 243.887 0.651787 -1.4349 0
M  V30 2505 C 245.135 1.40888 -1.44897 0
M  V30 2506 C 245.456 1.94856 -0.0749086 0
M  V30 2507 O 244.726 1.74518 0.889956 0
M  V30 2508 H 243.306 0.522887 -0.533478 0
M  V30 2509 H 245.968 0.768609 -1.79104 0
M  V30 2510 H 245.064 2.25052 -2.16236 0
M  V30 2511 N 245.365 1.30045 0.890287 0
M  V30 2512 C 246.59 1.21598 1.68014 0
M  V30 2513 C 247.015 -0.218678 1.86825 0
M  V30 2514 O 246.373 -1.15756 1.39536 0
M  V30 2515 C 246.421 1.94434 3.03691 0
M  V30 2516 O 245.525 1.2678 3.92429 0
M  V30 2517 H 244.866 0.420856 0.513592 0
M  V30 2518 H 247.396 1.71775 1.11151 0
M  V30 2519 H 247.406 2.03251 3.5377 0
M  V30 2520 H 246.081 2.98777 2.89318 0
M  V30 2521 H 244.658 1.26282 3.50866 0
M  V30 2522 N 246.843 -1.10192 1.12674 0
M  V30 2523 C 248.12 -1.78717 0.794965 0
M  V30 2524 C 248.5 -1.98628 -0.714853 0
M  V30 2525 O 247.848 -1.58135 -1.64941 0
M  V30 2526 C 248.058 -3.11546 1.5729 0
M  V30 2527 C 249.406 -3.86382 1.76052 0
M  V30 2528 O 250.43 -3.21274 1.53823 0
M  V30 2529 O 249.289 -5.03246 2.13087 0
M  V30 2530 H 246.383 -0.774702 0.289423 0
M  V30 2531 H 248.929 -1.16819 1.23091 0
M  V30 2532 H 247.701 -2.92489 2.59935 0
M  V30 2533 H 247.324 -3.81164 1.13137 0
M  V30 2534 N 248.321 -0.919034 -1.28029 0
M  V30 2535 C 249.284 -0.416182 -2.2539 0
M  V30 2536 C 250.284 0.460438 -1.54067 0
M  V30 2537 O 251.474 0.262744 -1.72207 0
M  V30 2538 C 248.606 0.402707 -3.38513 0
M  V30 2539 H 249.799 -1.27629 -2.71387 0
M  V30 2540 H 247.352 -0.698919 -1.39803 0
M  V30 2541 H 248.087 1.282 -2.97885 0
M  V30 2542 H 247.872 -0.225698 -3.9145 0
M  V30 2543 H 249.362 0.745191 -4.10897 0
M  V30 2544 N 249.799 1.42003 -0.683588 0
M  V30 2545 C 250.762 2.29191 -0.0198243 0
M  V30 2546 C 251.762 1.43773 0.72013 0
M  V30 2547 O 252.952 1.65061 0.556815 0
M  V30 2548 C 250.084 3.26435 0.982487 0
M  V30 2549 H 251.277 2.8938 -0.787345 0
M  V30 2550 H 248.83 1.49789 -0.446418 0
M  V30 2551 H 249.565 2.71203 1.77819 0
M  V30 2552 H 249.35 3.89449 0.455182 0
M  V30 2553 H 250.84 3.918 1.44508 0
M  V30 2554 N 251.277 0.427512 1.51691 0
M  V30 2555 C 252.502 -0.143601 2.06902 0
M  V30 2556 C 252.927 -1.36536 1.29382 0
M  V30 2557 O 252.285 -1.78289 0.329043 0
M  V30 2558 C 252.333 -0.454207 3.57728 0
M  V30 2559 O 251.437 -1.54228 3.82475 0
M  V30 2560 H 250.778 -0.00617128 0.663971 0
M  V30 2561 H 253.308 0.606014 1.95419 0
M  V30 2562 H 253.318 -0.707525 4.01818 0
M  V30 2563 H 251.993 0.438812 4.13579 0
M  V30 2564 H 250.57 -1.2797 3.50254 0
M  V30 2565 N 252.755 -1.56801 0.158532 0
M  V30 2566 C 253.685 -2.20347 -0.772609 0
M  V30 2567 C 254.666 -1.15518 -1.24859 0
M  V30 2568 O 255.851 -1.43902 -1.30406 0
M  V30 2569 C 252.981 -2.83417 -2.00729 0
M  V30 2570 C 251.935 -3.94174 -1.66765 0
M  V30 2571 C 251.261 -4.44233 -2.97592 0
M  V30 2572 C 252.561 -5.14392 -0.905447 0
M  V30 2573 H 254.255 -2.98413 -0.242959 0
M  V30 2574 H 251.801 -1.43537 -0.115419 0
M  V30 2575 H 253.754 -3.26543 -2.6636 0
M  V30 2576 H 252.478 -2.02701 -2.56086 0
M  V30 2577 H 251.137 -3.51684 -1.03508 0
M  V30 2578 H 250.785 -3.60325 -3.50963 0
M  V30 2579 H 250.485 -5.18945 -2.75626 0
M  V30 2580 H 252.009 -4.90037 -3.64274 0
M  V30 2581 H 253.423 -5.5429 -1.46408 0
M  V30 2582 H 251.82 -5.9494 -0.7853 0
M  V30 2583 H 252.89 -4.84795 0.100668 0
M  V30 2584 N 254.233 0.115231 -1.57178 0
M  V30 2585 C 255.163 1.1423 -2.03651 0
M  V30 2586 C 256.144 1.42967 -0.921655 0
M  V30 2587 O 257.329 1.53343 -1.19162 0
M  V30 2588 C 254.459 2.4675 -2.44401 0
M  V30 2589 C 253.413 2.32467 -3.59365 0
M  V30 2590 C 252.739 3.69984 -3.86026 0
M  V30 2591 C 254.039 1.78203 -4.90959 0
M  V30 2592 H 255.733 0.755749 -2.89705 0
M  V30 2593 H 253.279 0.362093 -1.39373 0
M  V30 2594 H 255.232 3.18854 -2.75517 0
M  V30 2595 H 253.956 2.87302 -1.55322 0
M  V30 2596 H 252.615 1.62811 -3.28463 0
M  V30 2597 H 252.263 4.08028 -2.94147 0
M  V30 2598 H 251.963 3.61279 -4.63412 0
M  V30 2599 H 253.487 4.43587 -4.19599 0
M  V30 2600 H 254.901 2.40128 -5.20587 0
M  V30 2601 H 253.298 1.8031 -5.72371 0
M  V30 2602 H 254.368 0.739876 -4.79222 0
M  V30 2603 N 255.711 1.52812 0.385517 0
M  V30 2604 C 256.939 1.71907 1.15133 0
M  V30 2605 C 257.354 0.439004 1.83625 0
M  V30 2606 O 256.711 -0.586765 1.7281 0
M  V30 2607 C 256.762 2.87099 2.19673 0
M  V30 2608 O 256.483 4.10151 1.53973 0
M  V30 2609 C 257.984 3.17902 3.08955 0
M  V30 2610 H 255.204 0.575479 0.345057 0
M  V30 2611 H 257.748 1.99476 0.45052 0
M  V30 2612 H 255.903 2.61982 2.85384 0
M  V30 2613 H 256.317 4.74514 2.23465 0
M  V30 2614 H 257.791 4.01959 3.7833 0
M  V30 2615 H 258.268 2.3243 3.72657 0
M  V30 2616 H 258.874 3.44871 2.48885 0
M  V30 2617 N 257.189 -0.644168 1.43834 0
M  V30 2618 C 258.414 -1.43642 1.49605 0
M  V30 2619 C 258.839 -1.8773 0.117913 0
M  V30 2620 O 258.197 -1.57938 -0.890239 0
M  V30 2621 C 258.245 -2.6416 2.45463 0
M  V30 2622 O 257.349 -3.63538 1.94714 0
M  V30 2623 H 256.69 -0.430329 0.50568 0
M  V30 2624 H 259.22 -0.787448 1.8884 0
M  V30 2625 H 259.23 -3.11864 2.63068 0
M  V30 2626 H 257.905 -2.31414 3.45572 0
M  V30 2627 H 256.482 -3.2273 1.86814 0
M  V30 2628 N 258.668 -1.30515 -0.883378 0
M  V30 2629 C 259.631 -1.1701 -1.97082 0
M  V30 2630 C 260.631 -0.10089 -1.60483 0
M  V30 2631 O 261.821 -0.349127 -1.70666 0
M  V30 2632 C 258.953 -0.793045 -3.31547 0
M  V30 2633 H 260.146 -2.13622 -2.10489 0
M  V30 2634 H 257.699 -1.13935 -1.06998 0
M  V30 2635 H 258.434 0.172499 -3.23841 0
M  V30 2636 H 258.219 -1.56576 -3.5948 0
M  V30 2637 H 259.709 -0.722073 -4.1131 0
M  V30 2638 N 260.146 1.09593 -1.13257 0
M  V30 2639 C 261.093 2.1618 -0.808381 0
M  V30 2640 C 262.063 1.64517 0.228754 0
M  V30 2641 O 263.248 1.9053 0.101381 0
M  V30 2642 C 260.388 3.43973 -0.278675 0
M  V30 2643 C 259.501 4.09545 -1.37466 0
M  V30 2644 C 258.636 5.25088 -0.803479 0
M  V30 2645 C 257.675 5.82579 -1.87799 0
M  V30 2646 N 256.812 6.89486 -1.32488 0
M  V30 2647 H 261.652 2.43254 -1.72138 0
M  V30 2648 H 259.189 1.19392 -0.859294 0
M  V30 2649 H 261.147 4.17174 0.0465583 0
M  V30 2650 H 259.777 3.17223 0.597459 0
M  V30 2651 H 258.829 3.34226 -1.81652 0
M  V30 2652 H 260.141 4.48307 -2.18684 0
M  V30 2653 H 259.295 6.05178 -0.429427 0
M  V30 2654 H 258.034 4.87684 0.0397956 0
M  V30 2655 H 257.039 5.01152 -2.26113 0
M  V30 2656 H 258.264 6.22045 -2.72463 0
M  V30 2657 H 256.21 6.54064 -0.503575 0
M  V30 2658 H 256.127 7.27007 -2.07355 0
M  V30 2659 H 257.395 7.73336 -0.978336 0
M  V30 2660 N 261.624 0.925811 1.2754 0
M  V30 2661 C 262.571 0.422045 2.26908 0
M  V30 2662 C 263.541 -0.510029 1.58076 0
M  V30 2663 O 264.726 -0.429599 1.85901 0
M  V30 2664 C 261.866 -0.320837 3.43605 0
M  V30 2665 C 260.979 0.64513 4.27156 0
M  V30 2666 C 260.114 -0.117405 5.3107 0
M  V30 2667 C 259.153 0.841391 6.0629 0
M  V30 2668 N 258.29 0.111604 7.02011 0
M  V30 2669 H 263.13 1.27441 2.69375 0
M  V30 2670 H 260.667 0.639697 1.32462 0
M  V30 2671 H 262.625 -0.76785 4.10073 0
M  V30 2672 H 261.255 -1.13745 3.02096 0
M  V30 2673 H 260.307 1.21067 3.6062 0
M  V30 2674 H 261.619 1.37797 4.79389 0
M  V30 2675 H 260.773 -0.624422 6.03478 0
M  V30 2676 H 259.512 -0.883219 4.79636 0
M  V30 2677 H 258.517 1.35967 5.32722 0
M  V30 2678 H 259.742 1.60696 6.59813 0
M  V30 2679 H 257.688 -0.635999 6.5291 0
M  V30 2680 H 257.605 0.784044 7.51923 0
M  V30 2681 H 258.873 -0.374823 7.78598 0
M  V30 2682 N 263.102 -1.41638 0.69111 0
M  V30 2683 C 264.034 -2.29194 -0.0161523 0
M  V30 2684 C 265.047 -1.44549 -0.748955 0
M  V30 2685 O 266.236 -1.681 -0.6004 0
M  V30 2686 C 263.336 -3.22325 -1.0469 0
M  V30 2687 C 262.509 -4.35706 -0.384621 0
M  V30 2688 C 261.568 -5.09443 -1.31737 0
M  V30 2689 O 260.594 -5.63386 -0.811451 0
M  V30 2690 N 261.796 -5.16487 -2.64993 0
M  V30 2691 H 264.561 -2.90534 0.735523 0
M  V30 2692 H 262.122 -1.52742 0.53679 0
M  V30 2693 H 264.114 -3.68522 -1.67252 0
M  V30 2694 H 262.684 -2.62323 -1.70015 0
M  V30 2695 H 261.904 -3.91948 0.420804 0
M  V30 2696 H 263.192 -5.08743 0.0760765 0
M  V30 2697 H 262.59 -4.741 -3.08619 0
M  V30 2698 H 261.147 -5.66276 -3.22761 0
M  V30 2699 N 264.58 -0.43555 -1.51462 0
M  V30 2700 C 265.828 0.131254 -2.01673 0
M  V30 2701 C 266.149 1.43368 -1.32177 0
M  V30 2702 O 265.419 1.90524 -0.455769 0
M  V30 2703 H 263.999 0.0514954 -0.745223 0
M  V30 2704 H 266.661 -0.577847 -1.86137 0
M  V30 2705 H 265.757 0.308446 -3.10572 0
M  V30 2706 N 266.058 1.56714 -0.166846 0
M  V30 2707 C 267.335 1.88412 0.525373 0
M  V30 2708 C 267.715 1.07602 1.81618 0
M  V30 2709 O 267.063 0.168621 2.27877 0
M  V30 2710 C 267.273 3.40363 0.771613 0
M  V30 2711 C 268.621 4.10007 1.1036 0
M  V30 2712 O 269.645 3.45655 0.860304 0
M  V30 2713 O 268.504 5.2369 1.56239 0
M  V30 2714 H 265.598 0.781587 0.270278 0
M  V30 2715 H 268.144 1.68458 -0.204946 0
M  V30 2716 H 266.916 3.91046 -0.141093 0
M  V30 2717 H 266.539 3.65914 1.55541 0
M  V30 2718 N 267.536 -0.106894 1.57237 0
M  V30 2719 C 268.486 -1.1366 1.9765 0
M  V30 2720 C 269.47 -1.36416 0.853203 0
M  V30 2721 O 270.662 -1.37305 1.11697 0
M  V30 2722 C 267.791 -2.46 2.39455 0
M  V30 2723 C 266.877 -2.26668 3.58445 0
M  V30 2724 N 267.268 -1.77176 4.73754 0
M  V30 2725 C 265.566 -2.57279 3.64312 0
M  V30 2726 C 266.267 -1.71836 5.5574 0
M  V30 2727 N 265.243 -2.16623 4.98573 0
M  V30 2728 H 269.045 -0.74669 2.84256 0
M  V30 2729 H 266.559 -0.314483 1.59326 0
M  V30 2730 H 268.556 -3.2049 2.6663 0
M  V30 2731 H 267.216 -2.85738 1.54219 0
M  V30 2732 H 268.227 -1.46545 4.96734 0
M  V30 2733 H 264.904 -3.00622 2.89711 0
M  V30 2734 H 266.294 -1.34723 6.58255 0
M  V30 2735 N 269.014 -1.53014 -0.377408 0
M  V30 2736 C 270.244 -1.72265 -1.14054 0
M  V30 2737 C 270.652 -0.44601 -1.83868 0
M  V30 2738 O 269.995 0.590095 -1.73964 0
M  V30 2739 C 270.057 -2.82492 -2.22348 0
M  V30 2740 C 269.721 -4.23233 -1.72402 0
M  V30 2741 C 270.718 -5.05992 -1.19448 0
M  V30 2742 C 268.403 -4.696 -1.78273 0
M  V30 2743 C 270.397 -6.33203 -0.730268 0
M  V30 2744 C 268.084 -5.96792 -1.31464 0
M  V30 2745 C 269.082 -6.78424 -0.789297 0
M  V30 2746 O 268.77 -8.0323 -0.328077 0
M  V30 2747 H 268.502 -0.579873 -0.347453 0
M  V30 2748 H 271.056 -2.00502 -0.445882 0
M  V30 2749 H 269.286 -2.49702 -2.95272 0
M  V30 2750 H 270.975 -2.90034 -2.83963 0
M  V30 2751 H 271.741 -4.71349 -1.14259 0
M  V30 2752 H 267.62 -4.06142 -2.18106 0
M  V30 2753 H 271.164 -6.96868 -0.319542 0
M  V30 2754 H 267.061 -6.30937 -1.36342 0
M  V30 2755 H 267.829 -8.1727 -0.448493 0
M  V30 2756 N 270.492 0.636531 -1.44174 0
M  V30 2757 C 271.741 1.39213 -1.45954 0
M  V30 2758 C 272.054 1.95374 -0.0939119 0
M  V30 2759 O 273.26 2.71498 0.0107767 0
M  V30 2760 C 271.716 2.52025 -2.56927 0
M  V30 2761 C 271.324 2.024 -3.99673 0
M  V30 2762 C 273.068 3.29269 -2.67922 0
M  V30 2763 C 270.975 3.12521 -5.0208 0
M  V30 2764 H 269.905 0.523132 -0.542999 0
M  V30 2765 H 272.556 0.685349 -1.70221 0
M  V30 2766 H 270.938 3.25253 -2.25891 0
M  V30 2767 H 272.112 1.36073 -4.40251 0
M  V30 2768 H 270.427 1.37987 -3.92872 0
M  V30 2769 H 273.024 4.11352 -3.41605 0
M  V30 2770 H 273.367 3.78397 -1.73555 0
M  V30 2771 H 273.9 2.63129 -2.98342 0
M  V30 2772 H 270.639 2.68343 -5.98057 0
M  V30 2773 H 270.159 3.77507 -4.66099 0
M  V30 2774 H 271.838 3.77385 -5.25538 0
M  V30 2775 N 271.97 1.30982 0.876444 0
M  V30 2776 C 272.9 1.20668 1.99903 0
M  V30 2777 C 273.881 0.095354 1.69833 0
M  V30 2778 O 275.066 0.27885 1.92188 0
M  V30 2779 C 272.196 0.90655 3.3526 0
M  V30 2780 C 271.15 1.97675 3.79617 0
M  V30 2781 C 270.476 1.52943 5.1236 0
M  V30 2782 C 271.776 3.389 3.97422 0
M  V30 2783 H 273.47 2.14586 2.0879 0
M  V30 2784 H 271.016 1.03308 1.00317 0
M  V30 2785 H 272.969 0.821025 4.13324 0
M  V30 2786 H 271.693 -0.0682969 3.26529 0
M  V30 2787 H 270.352 2.05205 3.03787 0
M  V30 2788 H 270 0.54262 5.00065 0
M  V30 2789 H 269.7 2.24532 5.43009 0
M  V30 2790 H 271.224 1.45786 5.92941 0
M  V30 2791 H 272.638 3.34081 4.659 0
M  V30 2792 H 271.035 4.0865 4.3946 0
M  V30 2793 H 272.105 3.80163 3.01006 0
M  V30 2794 N 273.449 -1.08991 1.13837 0
M  V30 2795 C 274.397 -2.17841 0.815347 0
M  V30 2796 C 275.391 -1.68164 -0.204233 0
M  V30 2797 O 276.597 -1.79897 -0.0609304 0
M  V30 2798 H 272.972 -0.710654 0.245915 0
M  V30 2799 H 274.943 -2.42315 1.74143 0
M  V30 2800 C 273.692 -3.46381 0.302614 0
M  V30 2801 H 273.015 -3.84979 1.0785 0
M  V30 2802 H 274.455 -4.23844 0.115074 0
M  V30 2803 C 272.914 -3.22556 -0.972591 0
M  V30 2804 O 273.444 -3.45599 -2.04754 0
M  V30 2805 N 271.65 -2.76134 -0.905455 0
M  V30 2806 H 271.197 -2.57582 -0.0305421 0
M  V30 2807 H 271.155 -2.60571 -1.75926 0
M  V30 2808 N 274.927 -0.932562 -1.27047 0
M  V30 2809 C 276.175 -0.574422 -1.93765 0
M  V30 2810 C 276.496 0.887993 -1.73608 0
M  V30 2811 O 275.766 1.62999 -1.08665 0
M  V30 2812 H 274.346 -0.209451 -0.717035 0
M  V30 2813 H 277.008 -1.18601 -1.5466 0
M  V30 2814 H 276.104 -0.784841 -3.02071 0
M  V30 2815 N 276.405 1.4127 -0.698611 0
M  V30 2816 C 277.63 2.06024 -0.238512 0
M  V30 2817 C 278.055 1.5224 1.10475 0
M  V30 2818 O 277.413 0.650623 1.69223 0
M  V30 2819 C 277.461 3.59988 -0.209952 0
M  V30 2820 O 276.565 4.04282 0.814235 0
M  V30 2821 H 275.906 0.653829 -0.115775 0
M  V30 2822 H 278.436 1.8098 -0.954326 0
M  V30 2823 H 278.446 4.07979 -0.0418436 0
M  V30 2824 H 277.121 3.98503 -1.1903 0
M  V30 2825 H 275.698 3.6779 0.615234 0
M  V30 2826 N 277.883 0.443576 1.51229 0
M  V30 2827 C 278.83 -0.364716 2.279 0
M  V30 2828 C 279.8 -1.0114 1.31757 0
M  V30 2829 O 280.985 -1.02912 1.60667 0
M  V30 2830 C 278.125 -1.45644 3.12861 0
M  V30 2831 C 277.238 -0.827269 4.24005 0
M  V30 2832 C 276.373 -1.89456 4.96266 0
M  V30 2833 C 275.412 -1.24416 5.99322 0
M  V30 2834 N 274.549 -2.25309 6.64966 0
M  V30 2835 H 279.389 0.295464 2.96532 0
M  V30 2836 H 276.926 0.157554 1.46254 0
M  V30 2837 H 278.884 -2.10076 3.6045 0
M  V30 2838 H 277.514 -2.08616 2.46331 0
M  V30 2839 H 276.566 -0.0710839 3.80334 0
M  V30 2840 H 277.878 -0.312481 4.9782 0
M  V30 2841 H 277.032 -2.61535 5.47434 0
M  V30 2842 H 275.771 -2.4431 4.22095 0
M  V30 2843 H 274.776 -0.508868 5.4744 0
M  V30 2844 H 276.001 -0.702882 6.75453 0
M  V30 2845 H 273.947 -2.79231 5.93604 0
M  V30 2846 H 273.864 -1.78739 7.34567 0
M  V30 2847 H 275.132 -2.96853 7.20763 0
M  V30 2848 N 279.361 -1.56624 0.175154 0
M  V30 2849 C 280.324 -2.16934 -0.739738 0
M  V30 2850 C 281.324 -1.11842 -1.15533 0
M  V30 2851 O 282.514 -1.37335 -1.07167 0
M  V30 2852 C 279.646 -2.75531 -2.00738 0
M  V30 2853 H 280.839 -2.99131 -0.214639 0
M  V30 2854 H 278.392 -1.56123 -0.0744197 0
M  V30 2855 H 279.127 -1.97078 -2.57548 0
M  V30 2856 H 278.912 -3.52444 -1.71831 0
M  V30 2857 H 280.402 -3.21904 -2.66021 0
M  V30 2858 N 280.839 0.0985539 -1.57292 0
M  V30 2859 C 282.086 0.802678 -1.85912 0
M  V30 2860 C 282.414 1.78901 -0.763186 0
M  V30 2861 O 281.669 1.94178 0.243559 0
M  V30 2862 C 281.968 1.56927 -3.21105 0
M  V30 2863 C 281.634 0.725376 -4.45027 0
M  V30 2864 C 280.296 0.492726 -4.78671 0
M  V30 2865 C 282.648 0.138493 -5.21016 0
M  V30 2866 C 279.976 -0.336727 -5.85733 0
M  V30 2867 C 282.328 -0.678264 -6.28953 0
M  V30 2868 C 280.992 -0.921039 -6.61115 0
M  V30 2869 H 280.262 0.293721 -0.680301 0
M  V30 2870 H 282.909 0.0642841 -1.91392 0
M  V30 2871 H 281.214 2.37914 -3.11294 0
M  V30 2872 H 282.911 2.11841 -3.40477 0
M  V30 2873 H 279.501 0.916815 -4.18679 0
M  V30 2874 H 283.685 0.305404 -4.95359 0
M  V30 2875 H 278.941 -0.533836 -6.09065 0
M  V30 2876 H 283.115 -1.1399 -6.87007 0
M  V30 2877 H 280.742 -1.56556 -7.43905 0
M  V30 2878 N 282.317 1.53212 0.369288 0
M  V30 2879 C 283.566 1.68436 1.10961 0
M  V30 2880 C 283.879 0.440738 1.9057 0
M  V30 2881 O 285.085 0.473446 2.6734 0
M  V30 2882 C 283.541 2.97744 2.0218 0
M  V30 2883 C 283.149 4.29355 1.279 0
M  V30 2884 C 284.893 3.22334 2.76226 0
M  V30 2885 C 282.8 5.49755 2.17999 0
M  V30 2886 H 281.73 0.627568 0.41794 0
M  V30 2887 H 284.381 1.79713 0.370884 0
M  V30 2888 H 282.763 2.8026 2.79768 0
M  V30 2889 H 283.937 4.57458 0.554007 0
M  V30 2890 H 282.252 4.11179 0.657311 0
M  V30 2891 H 284.849 4.09471 3.43857 0
M  V30 2892 H 285.192 2.38238 3.41392 0
M  V30 2893 H 285.725 3.40475 2.05723 0
M  V30 2894 H 282.464 6.36318 1.57417 0
M  V30 2895 H 281.984 5.25937 2.88359 0
M  V30 2896 H 283.663 5.84401 2.77641 0
M  V30 2897 N 283.795 -0.628877 1.44509 0
M  V30 2898 C 285.02 -1.42048 1.5112 0
M  V30 2899 C 285.445 -1.87594 0.137818 0
M  V30 2900 O 284.803 -1.58873 -0.873437 0
M  V30 2901 C 284.851 -2.61541 2.48251 0
M  V30 2902 O 283.955 -3.61453 1.98559 0
M  V30 2903 H 283.296 -0.424942 0.510216 0
M  V30 2904 H 285.826 -0.767374 1.89664 0
M  V30 2905 H 285.836 -3.09057 2.66361 0
M  V30 2906 H 284.511 -2.27736 3.48007 0
M  V30 2907 H 283.088 -3.20731 1.90227 0
M  V30 2908 N 285.273 -1.31445 -0.869486 0
M  V30 2909 C 286.521 -1.20918 -1.61936 0
M  V30 2910 C 286.842 0.232683 -1.93607 0
M  V30 2911 O 286.112 1.15352 -1.58338 0
M  V30 2912 H 284.692 -0.44454 -0.600328 0
M  V30 2913 H 287.354 -1.64776 -1.0409 0
M  V30 2914 H 286.45 -1.78124 -2.56278 0
M  V30 2915 N 286.751 1.08385 -1.14413 0
M  V30 2916 C 287.714 2.13486 -0.834048 0
M  V30 2917 C 288.714 1.59988 0.161418 0
M  V30 2918 O 289.904 1.74071 -0.0669575 0
M  V30 2919 C 287.036 3.4003 -0.243354 0
M  V30 2920 H 288.229 2.42425 -1.7655 0
M  V30 2921 H 285.782 1.24101 -0.950189 0
M  V30 2922 H 286.517 3.16726 0.696807 0
M  V30 2923 H 286.302 3.80157 -0.960367 0
M  V30 2924 H 287.792 4.17577 -0.0436242 0
M  V30 2925 N 288.23 0.939286 1.26551 0
M  V30 2926 C 289.478 0.58469 1.93457 0
M  V30 2927 C 289.799 -0.878774 1.74076 0
M  V30 2928 O 289.069 -1.62421 1.09528 0
M  V30 2929 H 287.649 0.21325 0.715914 0
M  V30 2930 H 290.311 1.1942 1.54029 0
M  V30 2931 H 289.407 0.800849 3.0165 0
M  V30 2932 N 289.708 -1.40897 0.706093 0
M  V30 2933 C 290.618 -2.3455 0.0482286 0
M  V30 2934 C 291.634 -1.56796 -0.754396 0
M  V30 2935 O 292.81 -1.89228 -0.689538 0
M  V30 2936 C 289.875 -3.35625 -0.869303 0
M  V30 2937 C 288.936 -4.29261 -0.0576994 0
M  V30 2938 C 288.169 -5.25508 -0.931531 0
M  V30 2939 O 288.392 -5.27472 -2.17092 0
M  V30 2940 O 287.326 -6.00727 -0.375587 0
M  V30 2941 H 291.152 -2.92407 0.820476 0
M  V30 2942 H 288.737 -1.4193 0.4665 0
M  V30 2943 H 290.619 -3.97635 -1.39514 0
M  V30 2944 H 289.294 -2.80196 -1.62086 0
M  V30 2945 H 288.201 -3.70566 0.512988 0
M  V30 2946 H 289.534 -4.87817 0.655426 0
M  V30 2947 N 291.186 -0.45159 -1.50991 0
M  V30 2948 C 292.411 0.110667 -2.07105 0
M  V30 2949 C 292.836 1.3446 -1.31538 0
M  V30 2950 O 292.194 1.77743 -0.357365 0
M  V30 2951 C 292.242 0.397238 -3.58405 0
M  V30 2952 O 291.346 1.48124 -3.84881 0
M  V30 2953 H 290.687 -0.00439271 -0.663985 0
M  V30 2954 H 293.217 -0.637026 -1.9443 0
M  V30 2955 H 293.227 0.64351 -4.02893 0
M  V30 2956 H 291.902 -0.504553 -4.12828 0
M  V30 2957 H 290.479 1.22381 -3.52246 0
M  V30 2958 N 292.664 1.56529 -0.183458 0
M  V30 2959 C 293.941 1.88959 0.50536 0
M  V30 2960 C 294.321 1.09523 1.80466 0
M  V30 2961 O 293.669 0.19278 2.27685 0
M  V30 2962 C 293.879 3.41162 0.73547 0
M  V30 2963 C 295.227 4.11155 1.06005 0
M  V30 2964 O 296.251 3.46548 0.823594 0
M  V30 2965 O 295.11 5.25318 1.50675 0
M  V30 2966 H 292.204 0.78441 0.261973 0
M  V30 2967 H 294.75 1.68231 -0.222802 0
M  V30 2968 H 293.522 3.90874 -0.182561 0
M  V30 2969 H 293.145 3.67543 1.51651 0
M  V30 2970 N 294.142 -0.090211 1.57342 0
M  V30 2971 C 295.391 -0.791531 1.8552 0
M  V30 2972 C 295.704 -1.79659 0.773441 0
M  V30 2973 O 296.91 -2.54616 0.942497 0
M  V30 2974 C 295.366 -1.45856 3.2902 0
M  V30 2975 C 294.974 -0.493017 4.45279 0
M  V30 2976 C 296.718 -2.14332 3.66418 0
M  V30 2977 C 294.625 -1.16491 5.79814 0
M  V30 2978 H 293.555 -0.299356 0.692027 0
M  V30 2979 H 296.206 -0.0445343 1.83446 0
M  V30 2980 H 294.588 -2.25318 3.2565 0
M  V30 2981 H 295.762 0.270464 4.60006 0
M  V30 2982 H 294.077 0.0863061 4.16311 0
M  V30 2983 H 296.674 -2.65344 4.64216 0
M  V30 2984 H 297.017 -2.93447 2.95287 0
M  V30 2985 H 297.55 -1.41724 3.71698 0
M  V30 2986 H 294.289 -0.41447 6.54188 0
M  V30 2987 H 293.809 -1.8997 5.68921 0
M  V30 2988 H 295.488 -1.69001 6.24538 0
M  V30 2989 N 295.62 -1.53406 -0.361157 0
M  V30 2990 C 296.85 -1.73465 -1.1222 0
M  V30 2991 C 297.258 -0.465486 -1.83384 0
M  V30 2992 O 296.601 0.571611 -1.7458 0
M  V30 2993 C 296.663 -2.84834 -2.19339 0
M  V30 2994 C 296.327 -4.25038 -1.67903 0
M  V30 2995 C 297.324 -5.07231 -1.14074 0
M  V30 2996 C 295.009 -4.71464 -1.73282 0
M  V30 2997 C 297.003 -6.33942 -0.663068 0
M  V30 2998 C 294.69 -5.98153 -1.25127 0
M  V30 2999 C 295.688 -6.79223 -0.717296 0
M  V30 3000 O 295.376 -8.03533 -0.242865 0
M  V30 3001 H 295.108 -0.583526 -0.341283 0
M  V30 3002 H 297.662 -2.00964 -0.424591 0
M  V30 3003 H 295.892 -2.5282 -2.92607 0
M  V30 3004 H 297.581 -2.9303 -2.80871 0
M  V30 3005 H 298.347 -4.72534 -1.09254 0
M  V30 3006 H 294.226 -4.08432 -2.13786 0
M  V30 3007 H 297.77 -6.97167 -0.245612 0
M  V30 3008 H 293.667 -6.32347 -1.29642 0
M  V30 3009 H 294.435 -8.177 -0.361786 0
M  V30 3010 N 297.098 0.621204 -1.44841 0
M  V30 3011 C 298.344 1.3826 -1.48365 0
M  V30 3012 C 298.677 1.93831 -0.119624 0
M  V30 3013 O 297.952 1.74251 0.864111 0
M  V30 3014 C 298.235 2.54058 -2.55199 0
M  V30 3015 C 298.088 2.03772 -4.00995 0
M  V30 3016 C 299.407 3.56225 -2.58442 0
M  V30 3017 H 296.526 0.501374 -0.540179 0
M  V30 3018 H 299.168 0.7015 -1.76576 0
M  V30 3019 H 297.318 3.12162 -2.31274 0
M  V30 3020 H 298.99 1.50423 -4.36086 0
M  V30 3021 H 297.233 1.34876 -4.12299 0
M  V30 3022 H 297.904 2.87185 -4.71411 0
M  V30 3023 H 300.38 3.07939 -2.79844 0
M  V30 3024 H 299.256 4.34756 -3.3508 0
M  V30 3025 H 299.517 4.10949 -1.63013 0
M  V30 3026 N 298.576 1.31904 0.862503 0
M  V30 3027 C 299.822 1.22197 1.61851 0
M  V30 3028 C 300.155 -0.217641 1.92977 0
M  V30 3029 O 299.43 -1.15264 1.56666 0
M  V30 3030 C 299.713 2.07378 2.94391 0
M  V30 3031 C 299.566 3.59678 2.70096 0
M  V30 3032 C 300.885 1.92891 3.95577 0
M  V30 3033 H 298.004 0.445255 0.587296 0
M  V30 3034 H 300.646 1.6177 0.99651 0
M  V30 3035 H 298.796 1.73758 3.47477 0
M  V30 3036 H 300.468 4.03472 2.23625 0
M  V30 3037 H 298.711 3.82735 2.04197 0
M  V30 3038 H 299.382 4.14595 3.64438 0
M  V30 3039 H 301.858 2.22327 3.51724 0
M  V30 3040 H 300.734 2.54781 4.86187 0
M  V30 3041 H 300.995 0.894315 4.3296 0
M  V30 3042 N 300.054 -1.07777 1.14986 0
M  V30 3043 C 300.987 -2.14228 0.786243 0
M  V30 3044 C 301.965 -1.60888 -0.235347 0
M  V30 3045 O 303.149 -1.88099 -0.122909 0
M  V30 3046 C 300.276 -3.38281 0.168433 0
M  V30 3047 C 299.322 -4.10387 1.16123 0
M  V30 3048 S 300.155 -4.62371 2.70135 0
M  V30 3049 C 301.311 -5.89704 2.09762 0
M  V30 3050 H 301.544 -2.44741 1.68787 0
M  V30 3051 H 299.077 -1.19984 0.971756 0
M  V30 3052 H 301.035 -4.10098 -0.181588 0
M  V30 3053 H 299.696 -3.05953 -0.710725 0
M  V30 3054 H 298.889 -4.99431 0.677086 0
M  V30 3055 H 298.491 -3.44513 1.45556 0
M  V30 3056 H 300.783 -6.61648 1.45701 0
M  V30 3057 H 301.726 -6.42824 2.96955 0
M  V30 3058 H 302.134 -5.4302 1.54239 0
M  V30 3059 N 301.532 -0.945985 -1.26051 0
M  V30 3060 C 302.772 -0.603665 -1.95282 0
M  V30 3061 C 303.136 0.842377 -1.72534 0
M  V30 3062 O 304.337 1.29387 -2.35611 0
M  V30 3063 C 302.608 -0.942292 -3.44754 0
M  V30 3064 S 304.167 -0.711242 -4.32997 0
M  V30 3065 H 300.985 -0.222176 -0.675395 0
M  V30 3066 H 303.587 -1.21832 -1.52896 0
M  V30 3067 H 302.291 -1.99203 -3.58812 0
M  V30 3068 H 301.822 -0.317546 -3.92116 0
M  V30 3069 H 303.837 0.422221 -4.944 0
M  V30 3070 N 303.011 1.40521 -0.713556 0
M  V30 3071 C 304.427 1.54839 -0.386907 0
M  V30 3072 C 304.627 1.68532 1.1045 0
M  V30 3073 O 303.683 1.67377 1.89053 0
M  V30 3074 C 304.996 2.77792 -1.15118 0
M  V30 3075 C 306.544 2.91607 -1.13729 0
M  V30 3076 C 307.019 4.1747 -1.88368 0
M  V30 3077 N 308.51 4.24466 -1.85427 0
M  V30 3078 C 309.245 5.20755 -2.40004 0
M  V30 3079 N 308.741 6.22965 -3.03129 0
M  V30 3080 N 310.534 5.1282 -2.30158 0
M  V30 3081 H 302.685 1.29879 -1.68063 0
M  V30 3082 H 304.948 0.627896 -0.710247 0
M  V30 3083 H 304.654 2.73944 -2.20561 0
M  V30 3084 H 304.528 3.6984 -0.741477 0
M  V30 3085 H 306.915 2.94959 -0.0910608 0
M  V30 3086 H 306.996 2.00682 -1.5862 0
M  V30 3087 H 306.64 4.1488 -2.9298 0
M  V30 3088 H 306.57 5.074 -1.40898 0
M  V30 3089 H 309.061 3.51241 -1.3942 0
M  V30 3090 H 309.374 6.92859 -3.42295 0
M  V30 3091 H 307.719 6.23415 -3.07212 0
M  V30 3092 H 310.91 4.31899 -1.80501 0
M  V30 3093 H 311.083 5.87689 -2.72993 0
M  V30 3094 N 304.489 0.459591 1.5075 0
M  V30 3095 C 305.717 -0.0973749 2.06671 0
M  V30 3096 C 306.132 -1.34524 1.32472 0
M  V30 3097 O 305.489 -1.7827 0.390634 0
M  V30 3098 C 305.54 -0.39714 3.59312 0
M  V30 3099 O 305.261 0.801214 4.30711 0
M  V30 3100 C 306.762 -1.00234 4.31819 0
M  V30 3101 H 303.982 0.00195854 0.670997 0
M  V30 3102 H 306.526 0.645072 1.94059 0
M  V30 3103 H 304.681 -1.08951 3.71764 0
M  V30 3104 H 305.095 0.538857 5.21725 0
M  V30 3105 H 306.569 -1.16193 5.39632 0
M  V30 3106 H 307.046 -1.98939 3.91561 0
M  V30 3107 H 307.652 -0.348699 4.23868 0
M  V30 3108 N 305.967 -1.56429 0.191757 0
M  V30 3109 C 307.215 -1.97095 -0.447006 0
M  V30 3110 C 307.536 -1.07967 -1.62383 0
M  V30 3111 O 306.806 -0.150248 -1.95323 0
M  V30 3112 H 305.386 -0.727832 -0.168135 0
M  V30 3113 H 308.048 -1.92911 0.27771 0
M  V30 3114 H 307.144 -3.01848 -0.793371 0
M  V30 3115 N 307.445 0.0818655 -1.57387 0
M  V30 3116 C 308.693 0.781368 -1.86384 0
M  V30 3117 C 309.014 1.78618 -0.782342 0
M  V30 3118 O 308.284 1.94976 0.190061 0
M  V30 3119 H 306.864 0.291562 -0.687751 0
M  V30 3120 H 309.526 0.060348 -1.94807 0
M  V30 3121 H 308.622 1.3038 -2.83562 0
M  V30 3122 N 308.923 1.53595 0.353017 0
M  V30 3123 C 310.334 1.61937 0.929153 0
M  V30 3124 C 310.685 0.494686 1.89861 0
M  V30 3125 O 309.81 -0.377017 2.1309 0
M  V30 3126 C 310.405 2.93526 1.69199 0
M  V30 3127 C 308.964 3.04161 2.21727 0
M  V30 3128 C 308.111 2.57322 1.03348 0
M  V30 3129 H 311.062 1.58155 0.131431 0
M  V30 3130 H 311.083 2.82034 2.55416 0
M  V30 3131 H 310.595 3.75362 0.986144 0
M  V30 3132 H 308.696 2.26938 2.95516 0
M  V30 3133 H 308.809 4.09465 2.48748 0
M  V30 3134 H 307.173 2.12499 1.40414 0
M  V30 3135 H 307.956 3.41588 0.342428 0
M  V30 3136 N 310.401 -0.613514 1.45168 0
M  V30 3137 C 311.649 -1.36997 1.48581 0
M  V30 3138 C 311.97 -1.94589 0.126545 0
M  V30 3139 O 311.24 -1.76816 -0.843372 0
M  V30 3140 H 309.82 -0.508558 0.547154 0
M  V30 3141 H 312.482 -0.720853 1.81079 0
M  V30 3142 H 311.578 -2.1924 2.22127 0
M  V30 3143 N 311.879 -1.3236 -0.855495 0
M  V30 3144 C 313.29 -1.2056 -1.42556 0
M  V30 3145 C 313.641 0.182209 -1.95352 0
M  V30 3146 O 312.766 1.08088 -1.87472 0
M  V30 3147 C 313.361 -2.1826 -2.59129 0
M  V30 3148 C 311.92 -2.10351 -3.12137 0
M  V30 3149 C 311.067 -2.06674 -1.84882 0
M  V30 3150 H 314.018 -1.442 -0.662727 0
M  V30 3151 H 314.039 -1.78064 -3.36264 0
M  V30 3152 H 313.551 -3.19257 -2.20673 0
M  V30 3153 H 311.652 -1.12599 -3.55179 0
M  V30 3154 H 311.765 -3.00135 -3.73438 0
M  V30 3155 H 310.129 -1.51901 -2.04446 0
M  V30 3156 H 310.912 -3.09451 -1.48643 0
M  V30 3157 N 313.357 1.07166 -1.15556 0
M  V30 3158 C 314.304 2.14417 -0.854055 0
M  V30 3159 C 315.274 1.64965 0.193806 0
M  V30 3160 O 316.459 1.90703 0.0609443 0
M  V30 3161 C 313.599 3.43304 -0.351574 0
M  V30 3162 C 312.712 4.06537 -1.46123 0
M  V30 3163 C 311.847 5.23266 -0.914677 0
M  V30 3164 C 310.886 5.78464 -2.00114 0
M  V30 3165 N 310.023 6.86521 -1.47083 0
M  V30 3166 H 314.863 2.39548 -1.77259 0
M  V30 3167 H 312.4 1.17543 -0.884425 0
M  V30 3168 H 314.358 4.17179 -0.0419409 0
M  V30 3169 H 312.988 3.18419 0.530037 0
M  V30 3170 H 312.04 3.30297 -1.88701 0
M  V30 3171 H 313.352 4.43567 -2.28144 0
M  V30 3172 H 312.506 6.04131 -0.557698 0
M  V30 3173 H 311.245 4.87658 -0.0636583 0
M  V30 3174 H 310.25 4.96243 -2.36692 0
M  V30 3175 H 311.475 6.16126 -2.85597 0
M  V30 3176 H 309.421 6.52849 -0.642198 0
M  V30 3177 H 309.338 7.22446 -2.22729 0
M  V30 3178 H 310.606 7.71087 -1.14215 0
M  V30 3179 N 314.835 0.952656 1.25548 0
M  V30 3180 C 316.083 0.605176 1.92826 0
M  V30 3181 C 316.404 -0.860261 1.74999 0
M  V30 3182 O 315.674 -1.6125 1.11244 0
M  V30 3183 H 314.254 0.220832 0.713612 0
M  V30 3184 H 316.916 1.21047 1.52754 0
M  V30 3185 H 316.012 0.832798 3.00784 0
M  V30 3186 N 316.313 -1.40141 0.720998 0
M  V30 3187 C 317.562 -2.0002 0.259804 0
M  V30 3188 C 317.875 -1.57839 -1.15526 0
M  V30 3189 O 319.081 -2.10455 -1.71525 0
M  V30 3190 C 317.537 -3.57516 0.413566 0
M  V30 3191 C 317.145 -4.08667 1.83562 0
M  V30 3192 C 318.889 -4.24498 0.0134387 0
M  V30 3193 C 316.796 -5.58686 1.93968 0
M  V30 3194 H 315.726 -0.748195 0.0933806 0
M  V30 3195 H 318.377 -1.60313 0.892866 0
M  V30 3196 H 316.759 -3.9495 -0.288169 0
M  V30 3197 H 317.933 -3.82598 2.56817 0
M  V30 3198 H 316.248 -3.543 2.1877 0
M  V30 3199 H 318.845 -5.34654 0.0703954 0
M  V30 3200 H 319.188 -4.03375 -1.02927 0
M  V30 3201 H 319.721 -3.92188 0.665815 0
M  V30 3202 H 316.46 -5.8467 2.96379 0
M  V30 3203 H 315.98 -5.86602 1.25131 0
M  V30 3204 H 317.659 -6.23875 1.71431 0
M  V30 3205 N 317.792 -0.46758 -1.50504 0
M  V30 3206 C 319.017 0.0886943 -2.0721 0
M  V30 3207 C 319.442 1.33057 -1.32956 0
M  V30 3208 O 318.8 1.77354 -0.376197 0
M  V30 3209 C 318.848 0.359202 -3.58806 0
M  V30 3210 O 317.952 1.44034 -3.8643 0
M  V30 3211 H 317.293 -0.0114349 -0.663902 0
M  V30 3212 H 319.823 -0.657613 -1.93744 0
M  V30 3213 H 319.833 0.600742 -4.03553 0
M  V30 3214 H 318.508 -0.548311 -4.1227 0
M  V30 3215 H 317.085 1.18638 -3.53524 0
M  V30 3216 N 319.27 1.56325 -0.20005 0
M  V30 3217 C 320.51 1.99619 0.439519 0
M  V30 3218 C 320.874 1.08423 1.58456 0
M  V30 3219 O 322.075 1.40973 2.28867 0
M  V30 3220 C 320.346 3.46314 0.883258 0
M  V30 3221 S 321.905 4.11634 1.51997 0
M  V30 3222 H 318.723 0.697007 0.140363 0
M  V30 3223 H 321.325 1.93118 -0.304282 0
M  V30 3224 H 320.029 4.10381 0.0398967 0
M  V30 3225 H 319.56 3.56643 1.6604 0
M  V30 3226 H 321.575 4.09049 2.8088 0
M  V30 3227 N 320.748 -0.0735177 1.57428 0
M  V30 3228 C 321.997 -0.771809 1.86349 0
M  V30 3229 C 322.31 -1.78828 0.792452 0
M  V30 3230 O 323.516 -2.53602 0.96945 0
M  V30 3231 C 321.972 -1.42358 3.30548 0
M  V30 3232 C 321.58 -0.445761 4.45777 0
M  V30 3233 C 323.324 -2.10434 3.6867 0
M  V30 3234 C 321.231 -1.10335 5.81016 0
M  V30 3235 H 320.161 -0.291999 0.695164 0
M  V30 3236 H 322.812 -0.0250749 1.83483 0
M  V30 3237 H 321.194 -2.21852 3.28021 0
M  V30 3238 H 322.368 0.319239 4.59693 0
M  V30 3239 H 320.683 0.130457 4.16196 0
M  V30 3240 H 323.28 -2.60405 4.67004 0
M  V30 3241 H 323.623 -2.90298 2.98383 0
M  V30 3242 H 324.156 -1.37773 3.7318 0
M  V30 3243 H 320.895 -0.345061 6.54591 0
M  V30 3244 H 320.415 -1.83925 5.70904 0
M  V30 3245 H 322.094 -1.62367 6.26295 0
M  V30 3246 N 322.226 -1.5378 -0.344866 0
M  V30 3247 C 323.472 -1.71216 -1.08687 0
M  V30 3248 C 323.805 -0.473281 -1.88345 0
M  V30 3249 O 323.08 0.52968 -1.87149 0
M  V30 3250 C 323.363 -2.97486 -2.02914 0
M  V30 3251 C 323.216 -4.31579 -1.26727 0
M  V30 3252 C 324.535 -3.19422 -3.0275 0
M  V30 3253 H 321.654 -0.62301 -0.393735 0
M  V30 3254 H 324.296 -1.8645 -0.365563 0
M  V30 3255 H 322.446 -2.84629 -2.64421 0
M  V30 3256 H 324.118 -4.56284 -0.67845 0
M  V30 3257 H 322.361 -4.30049 -0.569273 0
M  V30 3258 H 323.032 -5.16106 -1.95803 0
M  V30 3259 H 325.508 -3.316 -2.51357 0
M  V30 3260 H 324.384 -4.09169 -3.65885 0
M  V30 3261 H 324.645 -2.35656 -3.74057 0
M  V30 3262 N 323.704 0.605807 -1.45491 0
M  V30 3263 C 324.95 1.36679 -1.49823 0
M  V30 3264 C 325.283 1.93693 -0.140175 0
M  V30 3265 O 324.558 1.75158 0.845581 0
M  V30 3266 C 324.841 2.51337 -2.57879 0
M  V30 3267 C 324.694 1.99508 -4.03134 0
M  V30 3268 C 326.013 3.53463 -2.62205 0
M  V30 3269 H 323.132 0.495617 -0.545466 0
M  V30 3270 H 325.774 0.682732 -1.7731 0
M  V30 3271 H 323.924 3.09691 -2.34571 0
M  V30 3272 H 325.596 1.45789 -4.37656 0
M  V30 3273 H 323.839 1.30496 -4.13707 0
M  V30 3274 H 324.51 2.82169 -4.74431 0
M  V30 3275 H 326.986 3.04953 -2.83095 0
M  V30 3276 H 325.862 4.31178 -3.39672 0
M  V30 3277 H 326.123 4.09197 -1.67363 0
M  V30 3278 N 325.182 1.32811 0.848464 0
M  V30 3279 C 326.092 1.24278 1.98978 0
M  V30 3280 C 327.108 0.155176 1.73307 0
M  V30 3281 O 328.284 0.376999 1.9784 0
M  V30 3282 C 325.349 0.972444 3.32783 0
M  V30 3283 C 324.41 2.14911 3.71634 0
M  V30 3284 C 323.643 1.89157 4.99054 0
M  V30 3285 O 323.866 0.837165 5.64223 0
M  V30 3286 O 322.8 2.75433 5.35183 0
M  V30 3287 H 326.626 2.20238 2.09115 0
M  V30 3288 H 324.211 1.12762 0.980052 0
M  V30 3289 H 326.093 0.838432 4.12975 0
M  V30 3290 H 324.768 0.043051 3.23671 0
M  V30 3291 H 323.675 2.33862 2.91992 0
M  V30 3292 H 325.008 3.06151 3.85399 0
M  V30 3293 N 326.66 -1.06551 1.16123 0
M  V30 3294 C 327.607 -2.13961 0.865414 0
M  V30 3295 C 328.577 -1.65066 -0.185055 0
M  V30 3296 O 329.762 -1.90732 -0.05083 0
M  V30 3297 C 326.902 -3.43113 0.369776 0
M  V30 3298 C 326.015 -4.05756 1.48276 0
M  V30 3299 C 325.15 -5.22773 0.942414 0
M  V30 3300 C 324.189 -5.77395 2.03179 0
M  V30 3301 N 323.326 -6.85731 1.50721 0
M  V30 3302 H 328.166 -2.38605 1.78527 0
M  V30 3303 H 325.703 -1.17072 0.890646 0
M  V30 3304 H 327.661 -4.17151 0.0640643 0
M  V30 3305 H 326.291 -3.18695 -0.513143 0
M  V30 3306 H 325.343 -3.29292 1.9045 0
M  V30 3307 H 326.655 -4.42351 2.30493 0
M  V30 3308 H 325.809 -6.03827 0.589729 0
M  V30 3309 H 324.548 -4.87618 0.0895191 0
M  V30 3310 H 323.553 -4.94981 2.3932 0
M  V30 3311 H 324.778 -6.14603 2.8886 0
M  V30 3312 H 322.724 -6.52499 0.676811 0
M  V30 3313 H 322.641 -7.21254 2.26557 0
M  V30 3314 H 323.909 -7.7047 1.18303 0
M  V30 3315 N 328.138 -0.959301 -1.25041 0
M  V30 3316 C 329.386 -0.615393 -1.92503 0
M  V30 3317 C 329.707 0.850969 -1.75452 0
M  V30 3318 O 328.977 1.60658 -1.12098 0
M  V30 3319 H 327.557 -0.224613 -0.712431 0
M  V30 3320 H 330.219 -1.21855 -1.5211 0
M  V30 3321 H 329.315 -0.848738 -3.00338 0
M  V30 3322 N 329.616 1.39756 -0.72842 0
M  V30 3323 C 330.844 2.04948 -0.283528 0
M  V30 3324 C 331.259 1.54908 1.0793 0
M  V30 3325 O 330.616 0.711135 1.68075 0
M  V30 3326 C 330.667 3.60498 -0.268957 0
M  V30 3327 O 330.388 4.08695 -1.57798 0
M  V30 3328 C 331.889 4.4288 0.192912 0
M  V30 3329 H 329.109 0.659243 -0.125056 0
M  V30 3330 H 331.653 1.78927 -0.990226 0
M  V30 3331 H 329.808 3.85444 0.388801 0
M  V30 3332 H 330.222 5.02977 -1.48709 0
M  V30 3333 H 331.696 5.51791 0.151952 0
M  V30 3334 H 332.173 4.21418 1.23708 0
M  V30 3335 H 332.779 4.23069 -0.435039 0
M  V30 3336 N 331.094 0.475555 1.50254 0
M  V30 3337 C 332.505 0.0215174 1.86688 0
M  V30 3338 C 332.856 -1.38467 1.39001 0
M  V30 3339 O 331.981 -2.02732 0.756894 0
M  V30 3340 C 332.576 0.0322715 3.38785 0
M  V30 3341 C 331.135 -0.366314 3.74613 0
M  V30 3342 C 330.282 0.415832 2.74164 0
M  V30 3343 H 333.233 0.689612 1.42934 0
M  V30 3344 H 333.254 -0.76889 3.7265 0
M  V30 3345 H 332.766 1.05584 3.73462 0
M  V30 3346 H 330.867 -1.39406 3.45538 0
M  V30 3347 H 330.98 -0.064555 4.79057 0
M  V30 3348 H 329.344 -0.131048 2.54363 0
M  V30 3349 H 330.127 1.43899 3.11686 0
M  V30 3350 N 332.573 -1.56217 0.208337 0
M  V30 3351 C 333.821 -1.97558 -0.426076 0
M  V30 3352 C 334.142 -1.09683 -1.61229 0
M  V30 3353 O 333.412 -0.170956 -1.95153 0
M  V30 3354 H 331.992 -0.729575 -0.160405 0
M  V30 3355 H 334.654 -1.92606 0.298155 0
M  V30 3356 H 333.75 -3.02672 -0.761312 0
M  V30 3357 N 334.051 0.0651679 -1.57465 0
M  V30 3358 C 334.981 1.07693 -2.07182 0
M  V30 3359 C 335.962 1.39962 -0.966673 0
M  V30 3360 O 337.147 1.49475 -1.2398 0
M  V30 3361 C 334.277 2.3885 -2.52127 0
M  V30 3362 C 333.231 2.20917 -3.66579 0
M  V30 3363 C 332.557 3.57515 -3.97601 0
M  V30 3364 C 333.857 1.62493 -4.9638 0
M  V30 3365 H 335.551 0.663199 -2.91962 0
M  V30 3366 H 333.097 0.317569 -1.40455 0
M  V30 3367 H 335.05 3.09928 -2.85522 0
M  V30 3368 H 333.774 2.82215 -1.64384 0
M  V30 3369 H 332.433 1.52279 -3.33477 0
M  V30 3370 H 332.081 3.98463 -3.06979 0
M  V30 3371 H 331.781 3.46353 -4.74672 0
M  V30 3372 H 333.305 4.30013 -4.33499 0
M  V30 3373 H 334.719 2.23445 -5.27963 0
M  V30 3374 H 333.116 1.62009 -5.77818 0
M  V30 3375 H 334.186 0.587041 -4.81333 0
M  V30 3376 N 335.529 1.53961 0.336706 0
M  V30 3377 C 336.754 1.75797 1.10046 0
M  V30 3378 C 337.179 0.498985 1.81361 0
M  V30 3379 O 336.537 -0.548769 1.72795 0
M  V30 3380 C 336.585 2.94257 2.08436 0
M  V30 3381 O 335.689 2.64883 3.16087 0
M  V30 3382 H 335.03 0.582936 0.317934 0
M  V30 3383 H 337.56 2.00945 0.38501 0
M  V30 3384 H 337.57 3.21237 2.51537 0
M  V30 3385 H 336.245 3.85564 1.55927 0
M  V30 3386 H 334.822 2.48812 2.77753 0
M  V30 3387 N 337.007 -0.598083 1.45811 0
M  V30 3388 C 338.254 -1.35681 1.50323 0
M  V30 3389 C 338.582 -1.9393 0.148739 0
M  V30 3390 O 337.837 -1.76094 -0.853787 0
M  V30 3391 C 338.136 -2.51669 2.53766 0
M  V30 3392 C 337.802 -2.11508 3.98215 0
M  V30 3393 C 336.464 -2.0027 4.37545 0
M  V30 3394 C 338.816 -1.80308 4.89018 0
M  V30 3395 C 336.144 -1.56067 5.65562 0
M  V30 3396 C 338.496 -1.37589 6.17456 0
M  V30 3397 C 337.16 -1.24916 6.55708 0
M  V30 3398 H 336.43 -0.496492 0.550069 0
M  V30 3399 H 339.077 -0.675052 1.79207 0
M  V30 3400 H 337.382 -3.25225 2.18486 0
M  V30 3401 H 339.079 -3.09895 2.54492 0
M  V30 3402 H 335.669 -2.21185 3.67117 0
M  V30 3403 H 339.853 -1.87884 4.59362 0
M  V30 3404 H 335.109 -1.44886 5.93985 0
M  V30 3405 H 339.283 -1.12495 6.87254 0
M  V30 3406 H 336.91 -0.904386 7.54801 0
M  V30 3407 N 338.485 -1.33259 -0.841409 0
M  V30 3408 C 339.733 -1.24326 -1.59334 0
M  V30 3409 C 340.054 0.191564 -1.94057 0
M  V30 3410 O 339.324 1.11967 -1.60749 0
M  V30 3411 H 337.904 -0.457174 -0.590763 0
M  V30 3412 H 340.566 -1.66947 -1.00571 0
M  V30 3413 H 339.662 -1.8352 -2.52442 0
M  V30 3414 N 339.963 1.05934 -1.16686 0
M  V30 3415 C 340.91 2.13499 -0.876748 0
M  V30 3416 C 341.88 1.65162 0.176299 0
M  V30 3417 O 343.065 1.90757 0.0407143 0
M  V30 3418 C 340.205 3.42912 -0.387967 0
M  V30 3419 C 339.318 4.04964 -1.50426 0
M  V30 3420 C 338.453 5.22266 -0.970125 0
M  V30 3421 C 337.492 5.76309 -2.06238 0
M  V30 3422 N 336.629 6.84922 -1.54356 0
M  V30 3423 H 341.469 2.37654 -1.7979 0
M  V30 3424 H 339.006 1.16598 -0.896843 0
M  V30 3425 H 340.964 4.17111 -0.086186 0
M  V30 3426 H 339.594 3.18963 0.496235 0
M  V30 3427 H 338.646 3.28277 -1.92193 0
M  V30 3428 H 339.958 4.41122 -2.32836 0
M  V30 3429 H 339.112 6.03506 -0.621743 0
M  V30 3430 H 337.851 4.87564 -0.115377 0
M  V30 3431 H 336.856 4.93704 -2.41942 0
M  V30 3432 H 338.081 6.13062 -2.92115 0
M  V30 3433 H 336.027 6.52131 -0.711406 0
M  V30 3434 H 335.944 7.20043 -2.30379 0
M  V30 3435 H 337.212 7.69832 -1.22387 0
M  V30 3436 N 341.441 0.965919 1.2453 0
M  V30 3437 C 342.388 0.49402 2.25451 0
M  V30 3438 C 343.358 -0.45948 1.59618 0
M  V30 3439 O 344.543 -0.370238 1.87173 0
M  V30 3440 C 341.683 -0.211359 3.44452 0
M  V30 3441 C 340.796 0.7807 4.24887 0
M  V30 3442 C 339.931 0.0516105 5.31175 0
M  V30 3443 C 338.97 1.03385 6.03306 0
M  V30 3444 N 338.107 0.334887 7.01301 0
M  V30 3445 H 342.947 1.35946 2.65184 0
M  V30 3446 H 340.484 0.681515 1.3036 0
M  V30 3447 H 342.442 -0.637 4.12308 0
M  V30 3448 H 341.072 -1.04077 3.05562 0
M  V30 3449 H 340.124 1.32479 3.56586 0
M  V30 3450 H 341.436 1.52978 4.74762 0
M  V30 3451 H 340.59 -0.432114 6.05159 0
M  V30 3452 H 339.329 -0.730179 4.82203 0
M  V30 3453 H 338.334 1.52847 5.28127 0
M  V30 3454 H 339.559 1.81606 6.54367 0
M  V30 3455 H 337.505 -0.427959 6.54603 0
M  V30 3456 H 337.422 1.02287 7.49048 0
M  V30 3457 H 338.69 -0.126928 7.79397 0
M  V30 3458 N 342.919 -1.39368 0.735821 0
M  V30 3459 C 343.829 -2.34395 0.0979693 0
M  V30 3460 C 344.845 -1.58361 -0.720968 0
M  V30 3461 O 346.021 -1.90648 -0.649245 0
M  V30 3462 C 343.086 -3.37393 -0.797916 0
M  V30 3463 C 342.147 -4.29287 0.0333662 0
M  V30 3464 C 341.38 -5.27365 -0.819854 0
M  V30 3465 O 341.603 -5.31959 -2.05855 0
M  V30 3466 O 340.537 -6.01389 -0.248079 0
M  V30 3467 H 344.363 -2.90601 0.882315 0
M  V30 3468 H 341.948 -1.40909 0.4965 0
M  V30 3469 H 343.83 -4.00505 -1.31048 0
M  V30 3470 H 342.505 -2.83571 -1.56106 0
M  V30 3471 H 341.412 -3.69395 0.591475 0
M  V30 3472 H 342.745 -4.86317 0.758752 0
M  V30 3473 N 344.397 -0.483516 -1.5 0
M  V30 3474 C 345.344 0.304164 -2.28787 0
M  V30 3475 C 346.314 0.976114 -1.34392 0
M  V30 3476 O 347.499 0.986156 -1.63339 0
M  V30 3477 C 344.639 1.37298 -3.16612 0
M  V30 3478 C 343.752 0.714561 -4.26049 0
M  V30 3479 C 342.887 1.76232 -5.01114 0
M  V30 3480 C 341.926 1.08483 -6.0241 0
M  V30 3481 N 341.063 2.076 -6.70706 0
M  V30 3482 H 345.903 -0.373981 -2.95644 0
M  V30 3483 H 343.44 -0.196275 -1.45785 0
M  V30 3484 H 345.398 2.00445 -3.65893 0
M  V30 3485 H 344.028 2.02012 -2.51776 0
M  V30 3486 H 343.08 -0.0297798 -3.80388 0
M  V30 3487 H 344.392 0.180383 -4.98474 0
M  V30 3488 H 343.546 2.46929 -5.54176 0
M  V30 3489 H 342.285 2.33033 -4.28424 0
M  V30 3490 H 341.29 0.363545 -5.48597 0
M  V30 3491 H 342.515 0.523551 -6.77079 0
M  V30 3492 H 340.461 2.63394 -6.00799 0
M  V30 3493 H 340.378 1.59201 -7.39047 0
M  V30 3494 H 341.646 2.77639 -7.2838 0
M  V30 3495 N 345.875 1.56104 -0.216619 0
M  V30 3496 C 346.822 2.2007 0.695531 0
M  V30 3497 C 347.792 1.15471 1.19397 0
M  V30 3498 O 348.977 1.43807 1.25396 0
M  V30 3499 C 346.117 2.88073 1.90021 0
M  V30 3500 C 345.23 4.07253 1.44113 0
M  V30 3501 C 344.365 4.63052 2.603 0
M  V30 3502 C 343.404 5.74545 2.11103 0
M  V30 3503 N 342.541 6.24656 3.20545 0
M  V30 3504 H 347.381 2.97655 0.143327 0
M  V30 3505 H 344.918 1.46982 0.0589934 0
M  V30 3506 H 346.876 3.25681 2.60745 0
M  V30 3507 H 345.506 2.13015 2.42538 0
M  V30 3508 H 344.558 3.75164 0.628999 0
M  V30 3509 H 345.87 4.8783 1.04036 0
M  V30 3510 H 345.024 5.03078 3.39113 0
M  V30 3511 H 343.763 3.81628 3.03663 0
M  V30 3512 H 342.768 5.34027 1.3075 0
M  V30 3513 H 343.993 6.57801 1.68746 0
M  V30 3514 H 341.939 5.46148 3.63399 0
M  V30 3515 H 341.856 7.00343 2.84704 0
M  V30 3516 H 343.124 6.69338 3.99508 0
M  V30 3517 N 347.353 -0.0568162 1.57498 0
M  V30 3518 C 348.599 -0.75422 1.88253 0
M  V30 3519 C 348.932 -1.76461 0.810865 0
M  V30 3520 O 348.207 -1.93691 -0.177259 0
M  V30 3521 C 348.49 -1.44878 3.2967 0
M  V30 3522 C 348.343 -0.453789 4.47505 0
M  V30 3523 C 349.662 -2.38994 3.69554 0
M  V30 3524 H 346.781 -0.272724 0.684683 0
M  V30 3525 H 349.423 -0.0172113 1.89992 0
M  V30 3526 H 347.573 -2.077 3.28318 0
M  V30 3527 H 349.245 0.170371 4.60985 0
M  V30 3528 H 347.488 0.229552 4.33192 0
M  V30 3529 H 348.159 -0.977699 5.43273 0
M  V30 3530 H 350.635 -1.86239 3.72095 0
M  V30 3531 H 349.511 -2.84587 4.69363 0
M  V30 3532 H 349.772 -3.24461 3.00296 0
M  V30 3533 N 348.832 -1.54138 -0.328536 0
M  V30 3534 C 350.08 -1.71765 -1.06496 0
M  V30 3535 C 350.401 -0.49149 -1.88704 0
M  V30 3536 O 349.671 0.494539 -1.89555 0
M  V30 3537 H 348.251 -0.633295 -0.396164 0
M  V30 3538 H 350.913 -1.91429 -0.366176 0
M  V30 3539 H 350.009 -2.5951 -1.73381 0
M  V30 3540 N 350.31 0.590341 -1.46126 0
M  V30 3541 C 351.556 1.34874 -1.52252 0
M  V30 3542 C 351.911 1.91658 -0.168807 0
M  V30 3543 O 351.204 1.73093 0.821556 0
M  V30 3544 C 351.398 2.5032 -2.55097 0
M  V30 3545 C 351.227 2.04843 -4.00337 0
M  V30 3546 C 349.997 1.90213 -4.68132 0
M  V30 3547 C 352.195 1.61267 -4.88362 0
M  V30 3548 N 350.177 1.38727 -5.9802 0
M  V30 3549 C 351.548 1.21319 -6.08015 0
M  V30 3550 C 353.603 1.49015 -4.75078 0
M  V30 3551 C 352.306 0.7034 -7.15852 0
M  V30 3552 C 354.332 0.994401 -5.8298 0
M  V30 3553 C 353.694 0.604659 -7.018 0
M  V30 3554 H 349.793 0.486803 -0.612002 0
M  V30 3555 H 352.377 0.673007 -1.82698 0
M  V30 3556 H 350.548 3.15466 -2.26574 0
M  V30 3557 H 352.28 3.1725 -2.51266 0
M  V30 3558 H 349.035 2.11927 -4.23537 0
M  V30 3559 H 349.459 1.15168 -6.67132 0
M  V30 3560 H 354.101 1.77768 -3.83612 0
M  V30 3561 H 351.819 0.403446 -8.07092 0
M  V30 3562 H 355.405 0.903621 -5.7474 0
M  V30 3563 H 354.285 0.226963 -7.83871 0
M  V30 3564 N 351.788 1.33704 0.83433 0
M  V30 3565 C 352.736 1.24323 1.96587 0
M  V30 3566 C 353.73 0.143659 1.6879 0
M  V30 3567 O 354.936 0.30791 1.77347 0
M  V30 3568 H 351.311 0.385925 0.645419 0
M  V30 3569 H 353.282 2.19978 2.01624 0
M  V30 3570 C 352.031 1.00394 3.32891 0
M  V30 3571 H 351.354 1.84231 3.54822 0
M  V30 3572 H 352.794 0.97862 4.12552 0
M  V30 3573 C 351.253 -0.293047 3.35623 0
M  V30 3574 O 351.783 -1.29823 3.80143 0
M  V30 3575 N 349.989 -0.322174 2.88809 0
M  V30 3576 H 349.536 0.496379 2.52772 0
M  V30 3577 H 349.494 -1.18977 2.91019 0
M  V30 3578 N 353.266 -1.05314 1.17247 0
M  V30 3579 C 354.491 -1.82509 0.985148 0
M  V30 3580 C 354.916 -1.82343 -0.461788 0
M  V30 3581 O 354.274 -1.23151 -1.33055 0
M  V30 3582 C 354.322 -3.26566 1.52929 0
M  V30 3583 O 353.426 -4.05666 0.742225 0
M  V30 3584 H 352.767 -0.564347 0.349869 0
M  V30 3585 H 355.297 -1.32718 1.55715 0
M  V30 3586 H 355.307 -3.77369 1.55103 0
M  V30 3587 H 353.982 -3.26001 2.58256 0
M  V30 3588 H 352.559 -3.64397 0.791794 0
M  V30 3589 N 354.744 -0.972509 -1.24016 0
M  V30 3590 C 355.676 -0.464375 -2.24446 0
M  V30 3591 C 356.689 0.4295 -1.57032 0
M  V30 3592 O 357.878 0.234902 -1.76948 0
M  V30 3593 C 354.978 0.348385 -3.37105 0
M  V30 3594 C 354.151 -0.53673 -4.34094 0
M  V30 3595 C 353.21 0.220838 -5.25736 0
M  V30 3596 O 352.236 -0.386867 -5.67884 0
M  V30 3597 N 353.438 1.50907 -5.60542 0
M  V30 3598 H 356.203 -1.32788 -2.68677 0
M  V30 3599 H 353.764 -0.844877 -1.38107 0
M  V30 3600 H 355.756 0.863341 -3.95384 0
M  V30 3601 H 354.326 1.11285 -2.92121 0
M  V30 3602 H 353.546 -1.23261 -3.74433 0
M  V30 3603 H 354.834 -1.14022 -4.95859 0
M  V30 3604 H 354.232 2.02444 -5.28236 0
M  V30 3605 H 352.789 1.96962 -6.21329 0
M  V30 3606 N 356.222 1.38976 -0.743202 0
M  V30 3607 C 357.633 1.83123 -0.363732 0
M  V30 3608 C 357.984 1.6205 1.10609 0
M  V30 3609 O 357.109 1.11606 1.854 0
M  V30 3610 C 357.704 3.32439 -0.653408 0
M  V30 3611 C 356.263 3.74974 -0.327338 0
M  V30 3612 C 355.41 2.61878 -0.911875 0
M  V30 3613 H 358.361 1.27852 -0.940191 0
M  V30 3614 H 358.382 3.80432 0.0720031 0
M  V30 3615 H 357.894 3.47745 -1.72323 0
M  V30 3616 H 355.995 3.65252 0.736314 0
M  V30 3617 H 356.108 4.72106 -0.815631 0
M  V30 3618 H 354.472 2.52448 -0.337944 0
M  V30 3619 H 355.255 2.79987 -1.98651 0
M  V30 3620 N 357.7 0.491464 1.49741 0
M  V30 3621 C 358.928 -0.0535151 2.06831 0
M  V30 3622 C 359.343 -1.31683 1.35296 0
M  V30 3623 O 358.7 -1.77402 0.42836 0
M  V30 3624 C 358.751 -0.320835 3.60073 0
M  V30 3625 O 358.472 0.892394 4.28915 0
M  V30 3626 C 359.973 -0.910519 4.33848 0
M  V30 3627 H 357.193 0.0161909 0.670805 0
M  V30 3628 H 359.737 0.68609 1.92647 0
M  V30 3629 H 357.892 -1.0104 3.73991 0
M  V30 3630 H 358.306 0.649401 5.20464 0
M  V30 3631 H 359.78 -1.04721 5.41976 0
M  V30 3632 H 360.257 -1.90589 3.95692 0
M  V30 3633 H 360.863 -0.258712 4.24512 0
M  V30 3634 N 359.178 -1.55987 0.224894 0
M  V30 3635 C 360.594 -1.59066 -0.130426 0
M  V30 3636 C 360.794 -1.24176 -1.5869 0
M  V30 3637 O 359.85 -0.978592 -2.32766 0
M  V30 3638 C 361.163 -3.00042 0.198883 0
M  V30 3639 C 362.711 -3.1268 0.141391 0
M  V30 3640 C 363.186 -4.55839 0.444422 0
M  V30 3641 N 364.677 -4.6152 0.394115 0
M  V30 3642 C 365.412 -5.70231 0.602038 0
M  V30 3643 N 364.908 -6.87291 0.871914 0
M  V30 3644 N 366.701 -5.59555 0.534245 0
M  V30 3645 H 358.852 -1.76941 1.17497 0
M  V30 3646 H 361.115 -0.822604 0.471197 0
M  V30 3647 H 360.821 -3.30234 1.2099 0
M  V30 3648 H 360.695 -3.74075 -0.484535 0
M  V30 3649 H 363.082 -2.82283 -0.860265 0
M  V30 3650 H 363.163 -2.40969 0.858335 0
M  V30 3651 H 362.807 -4.86954 1.44353 0
M  V30 3652 H 362.737 -5.2578 -0.293752 0
M  V30 3653 H 365.228 -3.77405 0.193356 0
M  V30 3654 H 365.541 -7.66058 1.01858 0
M  V30 3655 H 363.886 -6.89028 0.909145 0
M  V30 3656 H 367.077 -4.6698 0.323612 0
M  V30 3657 H 367.25 -6.44211 0.699693 0
M  V30 3658 N 360.656 0.0484629 -1.57525 0
M  V30 3659 C 361.619 1.03956 -2.04269 0
M  V30 3660 C 362.619 1.30211 -0.943496 0
M  V30 3661 O 363.809 1.25539 -1.20771 0
M  V30 3662 C 360.941 2.37742 -2.44319 0
M  V30 3663 H 362.134 0.636182 -2.93075 0
M  V30 3664 H 359.687 0.294811 -1.53494 0
M  V30 3665 H 360.422 2.82866 -1.5861 0
M  V30 3666 H 360.207 2.20021 -3.24551 0
M  V30 3667 H 361.697 3.08936 -2.80978 0
M  V30 3668 N 362.134 1.5431 0.320358 0
M  V30 3669 C 363.38 1.72924 1.05949 0
M  V30 3670 C 363.713 0.503185 1.87568 0
M  V30 3671 O 362.988 -0.499839 1.87968 0
M  V30 3672 C 363.271 3.00676 1.98156 0
M  V30 3673 C 363.124 4.3354 1.19845 0
M  V30 3674 C 364.443 3.24198 2.9763 0
M  V30 3675 H 361.562 0.629195 0.383774 0
M  V30 3676 H 364.204 1.87008 0.335854 0
M  V30 3677 H 362.354 2.888 2.59859 0
M  V30 3678 H 364.026 4.57305 0.605773 0
M  V30 3679 H 362.269 4.309 0.500784 0
M  V30 3680 H 362.94 5.19156 1.87567 0
M  V30 3681 H 365.416 3.35557 2.4605 0
M  V30 3682 H 364.292 4.14938 3.59329 0
M  V30 3683 H 364.553 2.41577 3.7026 0
M  V30 3684 N 363.613 -0.582584 1.46437 0
M  V30 3685 C 364.862 -1.337 1.5102 0
M  V30 3686 C 365.175 -1.94891 0.166359 0
M  V30 3687 O 366.381 -2.71351 0.0899954 0
M  V30 3688 C 364.837 -2.42315 2.66104 0
M  V30 3689 C 364.445 -1.87427 4.06909 0
M  V30 3690 C 366.189 -3.19099 2.79958 0
M  V30 3691 C 364.096 -2.93672 5.13333 0
M  V30 3692 H 363.026 -0.502619 0.562041 0
M  V30 3693 H 365.677 -0.621701 1.72647 0
M  V30 3694 H 364.059 -3.16645 2.37807 0
M  V30 3695 H 365.233 -1.19639 4.44998 0
M  V30 3696 H 363.548 -1.2331 3.97723 0
M  V30 3697 H 366.145 -3.9839 3.56636 0
M  V30 3698 H 366.488 -3.71695 1.87479 0
M  V30 3699 H 367.021 -2.51875 3.07902 0
M  V30 3700 H 363.76 -2.45962 6.07604 0
M  V30 3701 H 363.28 -3.59948 4.79789 0
M  V30 3702 H 364.959 -3.5762 5.39182 0
M  V30 3703 N 365.091 -1.34144 -0.827227 0
M  V30 3704 C 366.338 -1.26258 -1.58319 0
M  V30 3705 C 366.666 0.168595 -1.93768 0
M  V30 3706 O 365.921 1.12877 -1.59866 0
M  V30 3707 C 366.22 -2.09464 -2.89585 0
M  V30 3708 C 365.886 -3.58521 -2.73448 0
M  V30 3709 C 364.548 -3.99155 -2.68754 0
M  V30 3710 C 366.9 -4.53189 -2.57428 0
M  V30 3711 C 364.228 -5.32656 -2.45957 0
M  V30 3712 C 366.58 -5.86864 -2.36163 0
M  V30 3713 C 365.244 -6.26667 -2.29879 0
M  V30 3714 H 364.514 -0.462013 -0.579332 0
M  V30 3715 H 367.161 -1.65845 -0.95748 0
M  V30 3716 H 365.466 -1.62692 -3.56425 0
M  V30 3717 H 367.163 -2.00712 -3.47154 0
M  V30 3718 H 363.753 -3.26264 -2.77939 0
M  V30 3719 H 367.937 -4.22696 -2.60081 0
M  V30 3720 H 363.193 -5.62519 -2.39546 0
M  V30 3721 H 367.367 -6.59813 -2.22754 0
M  V30 3722 H 364.994 -7.30049 -2.11975 0
M  V30 3723 N 366.569 1.04691 -1.17803 0
M  V30 3724 C 367.479 2.16057 -0.914151 0
M  V30 3725 C 368.495 1.73589 0.119503 0
M  V30 3726 O 369.671 2.01308 -0.0609468 0
M  V30 3727 C 366.736 3.4394 -0.436603 0
M  V30 3728 C 365.797 4.00825 -1.53746 0
M  V30 3729 C 365.03 5.22604 -1.0826 0
M  V30 3730 O 365.253 5.70367 0.0612244 0
M  V30 3731 O 364.187 5.7186 -1.87775 0
M  V30 3732 H 368.013 2.41169 -1.84584 0
M  V30 3733 H 365.598 1.1453 -0.959334 0
M  V30 3734 H 367.48 4.21024 -0.178057 0
M  V30 3735 H 366.155 3.20316 0.466869 0
M  V30 3736 H 365.062 3.25158 -1.84995 0
M  V30 3737 H 366.395 4.28778 -2.41683 0
M  V30 3738 N 368.047 0.979072 1.23499 0
M  V30 3739 C 369.324 0.563674 1.87302 0
M  V30 3740 C 369.704 -0.959199 1.88049 0
M  V30 3741 O 369.052 -1.83535 1.36114 0
M  V30 3742 C 369.262 1.16822 3.28867 0
M  V30 3743 C 370.61 1.26014 4.0547 0
M  V30 3744 O 371.634 1.12158 3.38082 0
M  V30 3745 O 370.493 1.48044 5.26066 0
M  V30 3746 H 367.587 0.189602 0.804972 0
M  V30 3747 H 370.133 1.07407 1.31384 0
M  V30 3748 H 368.905 2.21049 3.22883 0
M  V30 3749 H 368.528 0.642564 3.92373 0
M  V30 3750 N 369.525 -1.3858 0.750561 0
M  V30 3751 C 370.765 -2.02032 0.310258 0
M  V30 3752 C 371.129 -1.58288 -1.08668 0
M  V30 3753 O 372.33 -2.14049 -1.62593 0
M  V30 3754 C 370.601 -3.54856 0.425647 0
M  V30 3755 S 372.16 -4.38748 0.0674797 0
M  V30 3756 H 368.978 -0.700705 0.120554 0
M  V30 3757 H 371.58 -1.69134 0.980512 0
M  V30 3758 H 370.284 -3.84182 1.44335 0
M  V30 3759 H 369.815 -3.92527 -0.261894 0
M  V30 3760 H 371.83 -4.82835 -1.14388 0
M  V30 3761 N 371.003 -0.499398 -1.49478 0
M  V30 3762 C 371.966 0.268838 -2.27618 0
M  V30 3763 C 372.966 0.895383 -1.33565 0
M  V30 3764 O 374.156 0.760164 -1.56739 0
M  V30 3765 C 371.288 1.38559 -3.11471 0
M  V30 3766 H 372.481 -0.416812 -2.96989 0
M  V30 3767 H 370.034 -0.254313 -1.54217 0
M  V30 3768 H 370.769 2.10544 -2.46661 0
M  V30 3769 H 370.554 0.941797 -3.80621 0
M  V30 3770 H 372.044 1.92678 -3.70493 0
M  V30 3771 N 372.481 1.55866 -0.233164 0
M  V30 3772 C 373.727 1.98897 0.395959 0
M  V30 3773 C 374.06 1.12091 1.58585 0
M  V30 3774 O 373.335 0.181182 1.93654 0
M  V30 3775 C 373.618 3.50658 0.819224 0
M  V30 3776 C 373.471 4.48233 -0.375109 0
M  V30 3777 C 374.79 4.07135 1.67121 0
M  V30 3778 H 371.909 0.723102 0.142451 0
M  V30 3779 H 374.551 1.87082 -0.331725 0
M  V30 3780 H 372.701 3.60857 1.43925 0
M  V30 3781 H 374.373 4.50031 -1.01341 0
M  V30 3782 H 372.616 4.21624 -1.02058 0
M  V30 3783 H 373.287 5.51988 -0.0358328 0
M  V30 3784 H 375.763 3.99952 1.14795 0
M  V30 3785 H 374.639 5.13615 1.93625 0
M  V30 3786 H 374.9 3.54736 2.63846 0
M  V30 3787 N 373.959 -0.0401083 1.57549 0
M  V30 3788 C 375.37 -0.588097 1.77196 0
M  V30 3789 C 375.721 -1.76209 0.862832 0
M  V30 3790 O 374.846 -2.16331 0.0548389 0
M  V30 3791 C 375.441 -1.07363 3.21339 0
M  V30 3792 C 374 -1.56723 3.42221 0
M  V30 3793 C 373.147 -0.50041 2.72747 0
M  V30 3794 H 376.098 0.186119 1.57605 0
M  V30 3795 H 376.119 -1.94143 3.27244 0
M  V30 3796 H 375.631 -0.218975 3.87482 0
M  V30 3797 H 373.732 -2.4441 2.81237 0
M  V30 3798 H 373.845 -1.62234 4.50796 0
M  V30 3799 H 372.209 -0.952894 2.36203 0
M  V30 3800 H 372.992 0.344599 3.41566 0
M  V30 3801 N 375.437 -1.54477 -0.31217 0
M  V30 3802 C 376.683 -1.73483 -1.0503 0
M  V30 3803 C 377.016 -0.513125 -1.87298 0
M  V30 3804 O 376.291 0.489864 -1.8823 0
M  V30 3805 C 376.574 -3.01723 -1.96558 0
M  V30 3806 C 376.427 -4.3417 -1.17545 0
M  V30 3807 C 377.746 -3.25772 -2.95907 0
M  V30 3808 H 374.865 -0.631222 -0.380432 0
M  V30 3809 H 377.507 -1.87184 -0.325932 0
M  V30 3810 H 375.657 -2.90174 -2.58324 0
M  V30 3811 H 377.329 -4.5762 -0.581513 0
M  V30 3812 H 375.572 -4.31159 -0.477925 0
M  V30 3813 H 376.243 -5.20143 -1.84811 0
M  V30 3814 H 378.719 -3.36857 -2.44267 0
M  V30 3815 H 377.595 -4.16838 -3.57123 0
M  V30 3816 H 377.856 -2.43537 -3.68974 0
M  V30 3817 N 376.915 0.57481 -1.46744 0
M  V30 3818 C 377.878 1.66533 -1.57478 0
M  V30 3819 C 378.878 1.54338 -0.451263 0
M  V30 3820 O 380.068 1.58814 -0.715813 0
M  V30 3821 C 377.2 3.05999 -1.50259 0
M  V30 3822 H 378.393 1.58372 -2.54673 0
M  V30 3823 H 375.946 0.793301 -1.34672 0
M  V30 3824 H 376.681 3.19709 -0.543725 0
M  V30 3825 H 376.466 3.16259 -2.31781 0
M  V30 3826 H 377.956 3.8537 -1.60872 0
M  V30 3827 N 378.394 1.34581 0.820102 0
M  V30 3828 C 379.342 1.26401 1.95258 0
M  V30 3829 C 380.336 0.161553 1.68628 0
M  V30 3830 O 381.542 0.326703 1.7701 0
M  V30 3831 H 377.917 0.392749 0.64129 0
M  V30 3832 H 379.888 2.22105 1.99279 0
M  V30 3833 C 378.637 1.03919 3.31807 0
M  V30 3834 H 377.96 1.87984 3.52848 0
M  V30 3835 H 379.4 1.02232 4.11491 0
M  V30 3836 C 377.859 -0.257433 3.35915 0
M  V30 3837 O 378.389 -1.25784 3.81499 0
M  V30 3838 N 376.595 -0.291524 2.89134 0
M  V30 3839 H 376.142 0.523161 2.52232 0
M  V30 3840 H 376.1 -1.15883 2.92264 0
M  V30 3841 N 379.872 -1.04064 1.18357 0
M  V30 3842 C 381.288 -1.2947 0.933258 0
M  V30 3843 C 381.488 -1.97466 -0.401169 0
M  V30 3844 O 380.544 -2.25528 -1.13549 0
M  V30 3845 C 381.857 -2.15337 2.09882 0
M  V30 3846 C 383.405 -2.28683 2.13712 0
M  V30 3847 C 383.88 -3.17917 3.29686 0
M  V30 3848 N 385.371 -3.25504 3.29547 0
M  V30 3849 C 386.106 -3.94706 4.15926 0
M  V30 3850 N 385.602 -4.66239 5.12439 0
M  V30 3851 N 387.395 -3.90986 4.0384 0
M  V30 3852 H 379.546 -0.583359 2.04232 0
M  V30 3853 H 381.809 -0.319921 0.892387 0
M  V30 3854 H 381.515 -1.72682 3.06389 0
M  V30 3855 H 381.389 -3.16015 2.05947 0
M  V30 3856 H 383.776 -2.70575 1.17784 0
M  V30 3857 H 383.857 -1.27596 2.21705 0
M  V30 3858 H 383.501 -2.76736 4.25887 0
M  V30 3859 H 383.431 -4.19036 3.1893 0
M  V30 3860 H 385.922 -2.74547 2.59677 0
M  V30 3861 H 386.235 -5.16638 5.74722 0
M  V30 3862 H 384.58 -4.65143 5.16398 0
M  V30 3863 H 387.771 -3.34234 3.27727 0
M  V30 3864 H 387.944 -4.44646 4.71375 0
M  V30 3865 N 381.35 -0.985608 -1.22978 0
M  V30 3866 C 382.599 -0.652881 -1.90841 0
M  V30 3867 C 382.912 0.817842 -1.77681 0
M  V30 3868 O 384.118 1.26185 -2.40395 0
M  V30 3869 C 382.574 -1.11717 -3.42122 0
M  V30 3870 C 382.182 -2.6126 -3.63933 0
M  V30 3871 C 383.926 -0.85843 -4.1573 0
M  V30 3872 C 381.833 -3.0133 -5.08876 0
M  V30 3873 H 380.763 -0.240491 -0.714619 0
M  V30 3874 H 383.414 -1.1942 -1.39324 0
M  V30 3875 H 381.796 -0.504027 -3.92779 0
M  V30 3876 H 382.97 -3.27858 -3.23799 0
M  V30 3877 H 381.285 -2.84937 -3.03644 0
M  V30 3878 H 383.882 -1.13359 -5.22546 0
M  V30 3879 H 384.225 0.205461 -4.15793 0
M  V30 3880 H 384.758 -1.43341 -3.71077 0
M  V30 3881 H 381.497 -4.06864 -5.13947 0
M  V30 3882 H 381.017 -2.3943 -5.49939 0
M  V30 3883 H 382.696 -2.92224 -5.77247 0
M  V30 3884 N 382.828 1.3818 -0.7579 0
M  V30 3885 C 384.076 1.99624 -0.315361 0
M  V30 3886 C 384.397 1.60464 1.10799 0
M  V30 3887 O 383.667 0.863507 1.75842 0
M  V30 3888 H 382.247 0.73831 -0.113611 0
M  V30 3889 H 384.909 1.68878 -0.972952 0
M  V30 3890 H 384.005 3.09754 -0.381931 0
M  V30 3891 N 384.306 0.507319 1.49211 0
M  V30 3892 C 385.531 -0.033725 2.07373 0
M  V30 3893 C 385.956 -1.29485 1.36437 0
M  V30 3894 O 385.314 -1.76294 0.423087 0
M  V30 3895 C 385.362 -0.263945 3.59633 0
M  V30 3896 O 384.466 -1.33737 3.90113 0
M  V30 3897 H 383.807 0.0290331 0.663365 0
M  V30 3898 H 386.337 0.708749 1.91932 0
M  V30 3899 H 386.347 -0.493536 4.05004 0
M  V30 3900 H 385.022 0.657424 4.10671 0
M  V30 3901 H 383.599 -1.09224 3.56545 0
M  V30 3902 N 385.784 -1.5574 0.241426 0
M  V30 3903 C 386.694 -2.2479 -0.671305 0
M  V30 3904 C 387.71 -1.26217 -1.19772 0
M  V30 3905 O 388.886 -1.59079 -1.23514 0
M  V30 3906 C 385.951 -2.92966 -1.85396 0
M  V30 3907 C 385.012 -4.06935 -1.36756 0
M  V30 3908 C 384.245 -4.71851 -2.49384 0
M  V30 3909 O 384.468 -4.35823 -3.67987 0
M  V30 3910 O 383.402 -5.60467 -2.19454 0
M  V30 3911 H 387.228 -3.0349 -0.112966 0
M  V30 3912 H 384.813 -1.49397 0.0101513 0
M  V30 3913 H 386.695 -3.35927 -2.54423 0
M  V30 3914 H 385.37 -2.17211 -2.40002 0
M  V30 3915 H 384.277 -3.68503 -0.644726 0
M  V30 3916 H 385.61 -4.84492 -0.867647 0
M  V30 3917 N 387.262 0.0317525 -1.57568 0
M  V30 3918 C 388.51 0.721676 -1.88776 0
M  V30 3919 C 388.831 1.76039 -0.838772 0
M  V30 3920 O 388.101 1.95482 0.127935 0
M  V30 3921 H 386.681 0.269534 -0.696678 0
M  V30 3922 H 389.343 -0.00165879 -1.949 0
M  V30 3923 H 388.439 1.21293 -2.87566 0
M  V30 3924 N 388.74 1.54641 0.303973 0
M  V30 3925 C 389.672 1.81754 1.39636 0
M  V30 3926 C 390.685 0.70035 1.46966 0
M  V30 3927 O 391.874 0.97778 1.49338 0
M  V30 3928 C 388.974 1.93785 2.7803 0
M  V30 3929 C 388.147 3.24156 2.93669 0
M  V30 3930 C 387.206 3.26641 4.12544 0
M  V30 3931 O 386.232 4.00187 4.04771 0
M  V30 3932 N 387.434 2.5182 5.23036 0
M  V30 3933 H 390.199 2.76031 1.16734 0
M  V30 3934 H 387.76 1.54178 0.494033 0
M  V30 3935 H 389.752 1.92852 3.55795 0
M  V30 3936 H 388.322 1.06515 2.93893 0
M  V30 3937 H 387.542 3.37887 2.03042 0
M  V30 3938 H 388.83 4.10195 3.01027 0
M  V30 3939 H 388.228 1.91692 5.32232 0
M  V30 3940 H 386.785 2.56644 5.99147 0
M  V30 3941 N 390.218 -0.567019 1.47046 0
M  V30 3942 C 391.466 -1.322 1.52864 0
M  V30 3943 C 391.787 -1.94088 0.188388 0
M  V30 3944 O 391.057 -1.7941 -0.786693 0
M  V30 3945 H 389.637 -0.490894 0.563056 0
M  V30 3946 H 392.299 -0.662879 1.83281 0
M  V30 3947 H 391.395 -2.12062 2.2899 0
M  V30 3948 N 391.696 -1.35014 -0.812953 0
M  V30 3949 C 392.943 -1.27931 -1.56971 0
M  V30 3950 C 393.271 0.148034 -1.93936 0
M  V30 3951 O 392.526 1.11175 -1.61054 0
M  V30 3952 C 392.825 -2.12524 -2.87347 0
M  V30 3953 C 392.491 -3.61401 -2.6963 0
M  V30 3954 C 391.153 -4.01983 -2.64506 0
M  V30 3955 C 393.505 -4.55894 -2.52607 0
M  V30 3956 C 390.833 -5.35235 -2.40293 0
M  V30 3957 C 393.185 -5.89336 -2.29925 0
M  V30 3958 C 391.849 -6.2907 -2.23219 0
M  V30 3959 H 391.119 -0.468131 -0.574399 0
M  V30 3960 H 393.766 -1.66851 -0.939836 0
M  V30 3961 H 392.071 -1.66463 -3.54679 0
M  V30 3962 H 393.768 -2.04383 -3.45005 0
M  V30 3963 H 390.358 -3.29193 -2.74463 0
M  V30 3964 H 394.542 -4.25431 -2.55583 0
M  V30 3965 H 389.798 -5.65028 -2.33566 0
M  V30 3966 H 393.972 -6.62139 -2.15743 0
M  V30 3967 H 391.599 -7.32256 -2.04219 0
M  V30 3968 N 393.175 1.03435 -1.18907 0
M  V30 3969 C 394.105 2.13503 -0.945448 0
M  V30 3970 C 395.086 1.69682 0.119189 0
M  V30 3971 O 396.271 1.94169 -0.034707 0
M  V30 3972 C 393.401 3.44004 -0.477316 0
M  V30 3973 C 392.355 4.0148 -1.48316 0
M  V30 3974 C 391.681 5.27537 -0.872311 0
M  V30 3975 C 392.981 4.36921 -2.86177 0
M  V30 3976 H 394.675 2.34141 -1.86597 0
M  V30 3977 H 392.221 1.12523 -0.898584 0
M  V30 3978 H 394.174 4.20372 -0.294204 0
M  V30 3979 H 392.898 3.23072 0.478786 0
M  V30 3980 H 391.557 3.27201 -1.65332 0
M  V30 3981 H 391.205 5.02917 0.0911752 0
M  V30 3982 H 390.905 5.66954 -1.54393 0
M  V30 3983 H 392.429 6.06576 -0.699871 0
M  V30 3984 H 393.843 5.04248 -2.72776 0
M  V30 3985 H 392.24 4.87405 -3.50081 0
M  V30 3986 H 393.31 3.46466 -3.39248 0
M  V30 3987 N 394.653 0.992116 1.22453 0
M  V30 3988 C 395.902 0.662992 1.90492 0
M  V30 3989 C 396.215 -0.808407 1.78113 0
M  V30 3990 O 397.421 -1.24908 2.41061 0
M  V30 3991 C 395.877 1.1353 3.41524 0
M  V30 3992 C 395.485 2.63187 3.62542 0
M  V30 3993 C 397.229 0.880465 4.15269 0
M  V30 3994 C 395.136 3.04024 5.0727 0
M  V30 3995 H 394.066 0.244278 0.713333 0
M  V30 3996 H 396.717 1.20157 1.38688 0
M  V30 3997 H 395.099 0.52485 3.92506 0
M  V30 3998 H 396.273 3.2957 3.22056 0
M  V30 3999 H 394.588 2.86543 3.02129 0
M  V30 4000 H 397.185 1.16128 5.21937 0
M  V30 4001 H 397.528 -0.183408 4.15896 0
M  V30 4002 H 398.061 1.45307 3.70312 0
M  V30 4003 H 394.8 4.09584 5.11782 0
M  V30 4004 H 394.32 2.42343 5.48662 0
M  V30 4005 H 395.999 2.95282 5.75689 0
M  V30 4006 N 396.131 -1.37776 0.765217 0
M  V30 4007 C 397.094 -2.28686 0.153416 0
M  V30 4008 C 398.094 -1.47727 -0.635081 0
M  V30 4009 O 399.284 -1.68027 -0.459632 0
M  V30 4010 C 396.416 -3.31608 -0.790495 0
M  V30 4011 H 397.609 -2.84297 0.954723 0
M  V30 4012 H 395.162 -1.46932 0.53299 0
M  V30 4013 H 395.897 -2.81109 -1.61705 0
M  V30 4014 H 395.682 -3.9144 -0.227348 0
M  V30 4015 H 397.172 -3.99559 -1.21419 0
M  V30 4016 N 397.609 -0.515225 -1.4894 0
M  V30 4017 C 398.855 0.0242508 -2.02785 0
M  V30 4018 C 399.188 1.35323 -1.39289 0
M  V30 4019 O 398.463 1.87041 -0.533469 0
M  V30 4020 C 398.746 0.16184 -3.59736 0
M  V30 4021 C 398.599 -1.19127 -4.33738 0
M  V30 4022 C 399.918 0.895719 -4.30888 0
M  V30 4023 H 397.037 0.00733914 -0.736963 0
M  V30 4024 H 399.679 -0.669395 -1.77818 0
M  V30 4025 H 397.829 0.752624 -3.8114 0
M  V30 4026 H 399.501 -1.82202 -4.23792 0
M  V30 4027 H 397.744 -1.77695 -3.95736 0
M  V30 4028 H 398.415 -1.04815 -5.41957 0
M  V30 4029 H 400.891 0.394528 -4.14225 0
M  V30 4030 H 399.767 0.960859 -5.40425 0
M  V30 4031 H 400.028 1.9427 -3.97129 0
M  V30 4032 N 399.087 1.5561 -0.249682 0
M  V30 4033 C 400.503 1.59254 0.105103 0
M  V30 4034 C 400.703 1.26685 1.56694 0
M  V30 4035 O 399.759 1.0155 2.31179 0
M  V30 4036 C 401.072 2.99687 -0.246592 0
M  V30 4037 C 402.62 3.12416 -0.191118 0
M  V30 4038 C 403.095 4.55074 -0.516885 0
M  V30 4039 N 404.586 4.60835 -0.467489 0
M  V30 4040 C 405.321 5.69201 -0.69268 0
M  V30 4041 N 404.817 6.85817 -0.981146 0
M  V30 4042 N 406.61 5.58635 -0.623198 0
M  V30 4043 H 398.761 1.75049 -1.20298 0
M  V30 4044 H 401.024 0.815003 -0.484225 0
M  V30 4045 H 400.73 3.28267 -1.26228 0
M  V30 4046 H 400.604 3.74798 0.424962 0
M  V30 4047 H 402.991 2.83615 0.815247 0
M  V30 4048 H 403.072 2.39573 -0.896563 0
M  V30 4049 H 402.716 4.84596 -1.52082 0
M  V30 4050 H 402.646 5.26181 0.210068 0
M  V30 4051 H 405.137 3.7705 -0.253373 0
M  V30 4052 H 405.45 7.64341 -1.14032 0
M  V30 4053 H 403.795 6.87494 -1.01865 0
M  V30 4054 H 406.986 4.66406 -0.397863 0
M  V30 4055 H 407.159 6.43017 -0.802093 0
M  V30 4056 N 400.565 -0.0233959 1.57583 0
M  V30 4057 C 401.813 -0.711654 1.89156 0
M  V30 4058 C 402.134 -1.75591 0.848096 0
M  V30 4059 O 401.404 -1.95547 -0.117566 0
M  V30 4060 H 399.984 -0.265835 0.698098 0
M  V30 4061 H 402.646 0.0119948 1.94896 0
M  V30 4062 H 401.742 -1.19766 2.88206 0
M  V30 4063 N 402.043 -1.548 -0.295768 0
M  V30 4064 C 402.973 -1.89115 -1.36959 0
M  V30 4065 C 403.954 -0.75059 -1.52644 0
M  V30 4066 O 405.139 -1.00678 -1.66065 0
M  V30 4067 C 402.269 -2.14307 -2.73295 0
M  V30 4068 C 401.223 -3.30151 -2.72368 0
M  V30 4069 C 400.549 -3.40772 -4.12042 0
M  V30 4070 C 401.849 -4.67126 -2.33646 0
M  V30 4071 H 403.543 -2.79053 -1.08488 0
M  V30 4072 H 401.089 -1.34266 -0.520443 0
M  V30 4073 H 403.042 -2.36898 -3.48507 0
M  V30 4074 H 401.766 -1.21145 -3.03301 0
M  V30 4075 H 400.425 -3.0749 -1.99613 0
M  V30 4076 H 400.073 -2.45117 -4.39234 0
M  V30 4077 H 399.773 -4.18645 -4.12322 0
M  V30 4078 H 401.297 -3.6563 -4.89027 0
M  V30 4079 H 402.711 -4.89414 -2.98575 0
M  V30 4080 H 401.108 -5.47751 -2.45129 0
M  V30 4081 H 402.178 -4.67489 -1.28772 0
M  V30 4082 N 403.521 0.559213 -1.47345 0
M  V30 4083 C 404.469 1.68747 -1.60085 0
M  V30 4084 C 405.463 1.628 -0.46825 0
M  V30 4085 O 406.669 1.68009 -0.645977 0
M  V30 4086 H 403.044 0.558329 -0.503759 0
M  V30 4087 H 405.015 1.55138 -2.54902 0
M  V30 4088 C 403.764 3.07103 -1.63042 0
M  V30 4089 H 403.087 3.12361 -2.49541 0
M  V30 4090 H 404.527 3.85743 -1.76006 0
M  V30 4091 C 402.986 3.34935 -0.363357 0
M  V30 4092 O 403.516 3.98102 0.536416 0
M  V30 4093 N 401.722 2.89574 -0.244 0
M  V30 4094 H 401.269 2.38348 -0.977133 0
M  V30 4095 H 401.227 3.08566 0.602836 0
M  V30 4096 N 404.999 1.35443 0.805782 0
M  V30 4097 C 406.247 1.28507 1.55982 0
M  V30 4098 C 406.568 -0.140046 1.94496 0
M  V30 4099 O 405.838 -1.07666 1.63661 0
M  V30 4100 H 404.418 0.472676 0.578434 0
M  V30 4101 H 407.08 1.69555 0.961098 0
M  V30 4102 H 406.176 1.90148 2.47488 0
M  V30 4103 N 406.477 -1.02803 1.19454 0
M  V30 4104 C 407.725 -1.75869 0.995722 0
M  V30 4105 C 408.046 -1.89138 -0.474543 0
M  V30 4106 O 407.316 -1.42558 -1.34366 0
M  V30 4107 H 405.896 -0.651511 0.365435 0
M  V30 4108 H 408.558 -1.24004 1.50363 0
M  V30 4109 H 407.654 -2.76661 1.44447 0
M  V30 4110 N 407.956 -0.998596 -1.21925 0
M  V30 4111 C 409.372 -0.710303 -1.42923 0
M  V30 4112 C 409.572 0.716933 -1.88314 0
M  V30 4113 O 408.628 1.48712 -2.04062 0
M  V30 4114 C 409.941 -1.72072 -2.466 0
M  V30 4115 C 411.489 -1.73681 -2.60392 0
M  V30 4116 C 411.964 -2.73601 -3.67296 0
M  V30 4117 N 413.455 -2.7223 -3.7476 0
M  V30 4118 C 414.19 -3.46206 -4.57087 0
M  V30 4119 N 413.686 -4.29802 -5.43362 0
M  V30 4120 N 415.479 -3.34886 -4.51451 0
M  V30 4121 H 407.63 -1.92028 -0.9077 0
M  V30 4122 H 409.893 -0.828487 -0.460775 0
M  V30 4123 H 409.599 -2.74231 -2.20206 0
M  V30 4124 H 409.473 -1.51818 -3.45299 0
M  V30 4125 H 411.86 -0.722173 -2.86127 0
M  V30 4126 H 411.941 -1.98005 -1.61949 0
M  V30 4127 H 411.585 -3.75217 -3.42307 0
M  V30 4128 H 411.515 -2.46545 -4.65321 0
M  V30 4129 H 414.006 -2.11576 -3.1312 0
M  V30 4130 H 414.319 -4.83061 -6.03218 0
M  V30 4131 H 412.664 -4.33887 -5.42925 0
M  V30 4132 H 415.855 -2.69015 -3.83078 0
M  V30 4133 H 416.028 -3.92796 -5.15379 0
M  V30 4134 N 409.434 1.37368 -0.772513 0
M  V30 4135 C 410.683 1.98918 -0.333861 0
M  V30 4136 C 410.996 1.62017 1.09589 0
M  V30 4137 O 412.202 2.16676 1.63596 0
M  V30 4138 C 410.658 3.55735 -0.545971 0
M  V30 4139 C 410.266 4.01573 -1.98603 0
M  V30 4140 C 412.01 4.24156 -0.170979 0
M  V30 4141 C 409.917 5.51102 -2.1457 0
M  V30 4142 H 408.847 0.744214 -0.121085 0
M  V30 4143 H 411.498 1.56888 -0.95175 0
M  V30 4144 H 409.88 3.95748 0.141387 0
M  V30 4145 H 411.054 3.72803 -2.7084 0
M  V30 4146 H 409.369 3.45937 -2.31769 0
M  V30 4147 H 411.966 5.34024 -0.26878 0
M  V30 4148 H 412.309 4.06917 0.878855 0
M  V30 4149 H 412.842 3.89447 -0.810914 0
M  V30 4150 H 409.581 5.73268 -3.17875 0
M  V30 4151 H 409.101 5.81554 -1.46817 0
M  V30 4152 H 410.78 6.17083 -1.94468 0
M  V30 4153 N 410.912 0.523116 1.48665 0
M  V30 4154 C 411.86 -0.256859 2.31177 0
M  V30 4155 C 412.854 -0.94199 1.40794 0
M  V30 4156 O 414.06 -0.867157 1.57735 0
M  V30 4157 H 410.435 -0.1017 0.745091 0
M  V30 4158 H 412.406 0.458739 2.94853 0
M  V30 4159 C 411.155 -1.29503 3.22683 0
M  V30 4160 H 410.478 -0.777248 3.92172 0
M  V30 4161 H 411.918 -1.81233 3.83315 0
M  V30 4162 C 410.377 -2.32501 2.43813 0
M  V30 4163 O 410.907 -3.3881 2.15803 0
M  V30 4164 N 409.113 -2.05538 2.05432 0
M  V30 4165 H 408.66 -1.19104 2.28412 0
M  V30 4166 H 408.618 -2.74676 1.52973 0
M  V30 4167 N 412.39 -1.55475 0.257931 0
M  V30 4168 C 413.639 -1.98383 -0.364275 0
M  V30 4169 C 413.952 -1.14952 -1.58258 0
M  V30 4170 O 415.158 -1.47924 -2.27664 0
M  V30 4171 C 413.614 -3.53037 -0.699479 0
M  V30 4172 C 413.222 -4.45223 0.498046 0
M  V30 4173 C 414.966 -4.04575 -1.28526 0
M  V30 4174 C 412.873 -5.91238 0.138383 0
M  V30 4175 H 411.803 -0.740911 -0.13988 0
M  V30 4176 H 414.454 -1.79936 0.359883 0
M  V30 4177 H 412.836 -3.6722 -1.48207 0
M  V30 4178 H 414.01 -4.42803 1.27522 0
M  V30 4179 H 412.325 -4.04226 0.999503 0
M  V30 4180 H 414.922 -5.11196 -1.56788 0
M  V30 4181 H 415.265 -3.5258 -2.21344 0
M  V30 4182 H 415.798 -3.93762 -0.565337 0
M  V30 4183 H 412.537 -6.47294 1.03398 0
M  V30 4184 H 412.057 -5.96768 -0.602374 0
M  V30 4185 H 413.736 -6.46413 -0.27553 0
M  V30 4186 N 413.868 0.0150385 -1.57593 0
M  V30 4187 C 414.831 0.995996 -2.06428 0
M  V30 4188 C 415.831 1.2818 -0.970903 0
M  V30 4189 O 417.021 1.22949 -1.23406 0
M  V30 4190 C 414.153 2.32506 -2.49307 0
M  V30 4191 H 415.346 0.573873 -2.94358 0
M  V30 4192 H 412.899 0.262186 -1.54085 0
M  V30 4193 H 413.634 2.79438 -1.64575 0
M  V30 4194 H 413.419 2.13087 -3.29145 0
M  V30 4195 H 414.909 3.02906 -2.87468 0
M  V30 4196 N 415.346 1.54954 0.287554 0
M  V30 4197 C 416.571 1.79209 1.04397 0
M  V30 4198 C 416.996 0.556431 1.79682 0
M  V30 4199 O 416.354 -0.493518 1.74454 0
M  V30 4200 C 416.402 3.00739 1.98969 0
M  V30 4201 O 415.506 2.74805 3.075 0
M  V30 4202 H 414.847 0.592755 0.299227 0
M  V30 4203 H 417.377 2.02068 0.320886 0
M  V30 4204 H 417.387 3.29077 2.4119 0
M  V30 4205 H 416.062 3.90329 1.43582 0
M  V30 4206 H 414.639 2.57523 2.69697 0
M  V30 4207 N 416.824 -0.551391 1.4764 0
M  V30 4208 C 418.064 -1.31901 1.56145 0
M  V30 4209 C 418.428 -1.90724 0.221013 0
M  V30 4210 O 419.629 -2.6819 0.180945 0
M  V30 4211 C 417.9 -2.39517 2.65267 0
M  V30 4212 S 419.459 -3.26289 2.93395 0
M  V30 4213 H 416.277 -0.448965 0.551318 0
M  V30 4214 H 418.879 -0.630599 1.85051 0
M  V30 4215 H 417.583 -1.94747 3.6125 0
M  V30 4216 H 417.114 -3.13092 2.38195 0
M  V30 4217 H 419.129 -4.39122 2.31055 0
M  V30 4218 N 418.302 -1.35869 -0.798587 0
M  V30 4219 C 419.527 -1.32883 -1.59238 0
M  V30 4220 C 419.952 0.0894587 -1.87887 0
M  V30 4221 O 419.31 1.05869 -1.47178 0
M  V30 4222 C 419.358 -2.14892 -2.89575 0
M  V30 4223 O 418.462 -1.53512 -3.82763 0
M  V30 4224 H 417.803 -0.455236 -0.48338 0
M  V30 4225 H 420.333 -1.79024 -0.990539 0
M  V30 4226 H 420.343 -2.27139 -3.38928 0
M  V30 4227 H 419.018 -3.17998 -2.68049 0
M  V30 4228 H 417.595 -1.50153 -3.41334 0
M  V30 4229 N 419.78 1.02168 -1.19998 0
M  V30 4230 C 420.71 2.12488 -0.96804 0
M  V30 4231 C 421.691 1.69799 0.101185 0
M  V30 4232 O 422.876 1.94121 -0.0552993 0
M  V30 4233 C 420.006 3.43479 -0.513776 0
M  V30 4234 C 418.96 3.99884 -1.52566 0
M  V30 4235 C 418.286 5.26582 -0.928214 0
M  V30 4236 C 419.586 4.33861 -2.90795 0
M  V30 4237 H 421.28 2.32149 -1.89069 0
M  V30 4238 H 418.826 1.11564 -0.910468 0
M  V30 4239 H 420.779 4.20036 -0.338774 0
M  V30 4240 H 419.503 3.23561 0.444493 0
M  V30 4241 H 418.162 3.25429 -1.68794 0
M  V30 4242 H 417.81 5.02986 0.0378289 0
M  V30 4243 H 417.51 5.65284 -1.60397 0
M  V30 4244 H 419.034 6.05799 -0.764167 0
M  V30 4245 H 420.448 5.01327 -2.78109 0
M  V30 4246 H 418.845 4.83664 -3.55231 0
M  V30 4247 H 419.915 3.42848 -3.42904 0
M  V30 4248 N 421.258 1.00505 1.21394 0
M  V30 4249 C 422.506 0.686415 1.90086 0
M  V30 4250 C 422.827 -0.785264 1.7849 0
M  V30 4251 O 422.097 -1.56387 1.17983 0
M  V30 4252 H 420.677 0.2509 0.703604 0
M  V30 4253 H 423.339 1.27417 1.47482 0
M  V30 4254 H 422.435 0.959621 2.96981 0
M  V30 4255 N 422.737 -1.36956 0.779787 0
M  V30 4256 C 423.7 -2.2851 0.177662 0
M  V30 4257 C 424.7 -1.48393 -0.619377 0
M  V30 4258 O 425.89 -1.68505 -0.441785 0
M  V30 4259 C 423.022 -3.32428 -0.755279 0
M  V30 4260 H 424.215 -2.83269 0.984823 0
M  V30 4261 H 421.768 -1.46358 0.548544 0
M  V30 4262 H 422.503 -2.82808 -1.58714 0
M  V30 4263 H 422.288 -3.91659 -0.185817 0
M  V30 4264 H 423.778 -4.00824 -1.17174 0
M  V30 4265 N 424.215 -0.530993 -1.48385 0
M  V30 4266 C 425.178 0.220497 -2.28137 0
M  V30 4267 C 426.178 0.866851 -1.35434 0
M  V30 4268 O 427.368 0.726746 -1.58316 0
M  V30 4269 C 424.5 1.31921 -3.1434 0
M  V30 4270 H 425.693 -0.479714 -2.96038 0
M  V30 4271 H 423.246 -0.286968 -1.53643 0
M  V30 4272 H 423.981 2.05264 -2.51072 0
M  V30 4273 H 423.766 0.86085 -3.82533 0
M  V30 4274 H 425.256 1.84776 -3.74497 0
M  V30 4275 N 425.693 1.55336 -0.266172 0
M  V30 4276 C 426.643 2.18848 0.639497 0
M  V30 4277 C 427.627 1.1503 1.12503 0
M  V30 4278 O 428.819 1.40875 1.0716 0
M  V30 4279 C 425.948 2.90626 1.82733 0
M  V30 4280 C 425.034 4.01723 1.35939 0
M  V30 4281 N 425.425 5.02145 0.606988 0
M  V30 4282 C 423.723 4.1463 1.6431 0
M  V30 4283 C 424.424 5.80572 0.362138 0
M  V30 4284 N 423.4 5.35551 0.931971 0
M  V30 4285 H 427.202 2.93845 0.0567057 0
M  V30 4286 H 424.716 1.62252 -0.0693312 0
M  V30 4287 H 426.713 3.34569 2.48735 0
M  V30 4288 H 425.373 2.17137 2.41416 0
M  V30 4289 H 426.384 5.17271 0.255198 0
M  V30 4290 H 423.061 3.52326 2.23993 0
M  V30 4291 H 424.451 6.71472 -0.239848 0
M  V30 4292 N 427.171 -0.0066808 1.57599 0
M  V30 4293 C 428.134 -0.985035 2.06953 0
M  V30 4294 C 429.134 -1.27663 0.977687 0
M  V30 4295 O 430.324 -1.22293 1.24057 0
M  V30 4296 C 427.456 -2.3118 2.50536 0
M  V30 4297 H 428.649 -0.558255 2.94658 0
M  V30 4298 H 426.202 -0.254011 1.54222 0
M  V30 4299 H 426.937 -2.78561 1.66054 0
M  V30 4300 H 426.722 -2.11338 3.3027 0
M  V30 4301 H 428.212 -3.01377 2.8907 0
M  V30 4302 N 428.649 -1.55105 -0.279332 0
M  V30 4303 C 429.874 -1.7976 -1.03446 0
M  V30 4304 C 430.299 -0.565952 -1.79384 0
M  V30 4305 O 429.657 0.484259 -1.74713 0
M  V30 4306 C 429.705 -3.0179 -1.97371 0
M  V30 4307 O 428.809 -2.76432 -3.06038 0
M  V30 4308 H 428.15 -0.594334 -0.29608 0
M  V30 4309 H 430.68 -2.02235 -0.310165 0
M  V30 4310 H 430.69 -3.30351 -2.39441 0
M  V30 4311 H 429.365 -3.91085 -1.4151 0
M  V30 4312 H 427.942 -2.58949 -2.68328 0
M  V30 4313 N 430.127 0.543554 -1.4793 0
M  V30 4314 C 431.373 1.30201 -1.55485 0
M  V30 4315 C 431.706 1.92925 -0.222201 0
M  V30 4316 O 430.981 1.78586 0.77053 0
M  V30 4317 C 431.264 2.40174 -2.68307 0
M  V30 4318 C 431.117 1.8223 -4.11233 0
M  V30 4319 C 432.436 3.42024 -2.76961 0
M  V30 4320 H 429.555 0.472036 -0.565996 0
M  V30 4321 H 432.197 0.606914 -1.80046 0
M  V30 4322 H 430.347 2.99463 -2.47495 0
M  V30 4323 H 432.019 1.27096 -4.43446 0
M  V30 4324 H 430.262 1.12832 -4.18869 0
M  V30 4325 H 430.933 2.61793 -4.85972 0
M  V30 4326 H 433.409 2.92672 -2.95774 0
M  V30 4327 H 432.285 4.16383 -3.57654 0
M  V30 4328 H 432.546 4.0173 -1.84568 0
M  V30 4329 N 431.605 1.3629 0.791371 0
M  V30 4330 C 432.854 1.29742 1.54434 0
M  V30 4331 C 433.167 -0.121729 1.95221 0
M  V30 4332 O 434.373 -0.309579 2.69729 0
M  V30 4333 C 432.829 2.27623 2.78776 0
M  V30 4334 C 432.437 3.74963 2.45166 0
M  V30 4335 C 434.181 2.30047 3.56761 0
M  V30 4336 C 432.088 4.64626 3.65891 0
M  V30 4337 H 431.018 0.482113 0.579727 0
M  V30 4338 H 433.669 1.61642 0.868565 0
M  V30 4339 H 432.051 1.88714 3.48142 0
M  V30 4340 H 433.225 4.22596 1.83709 0
M  V30 4341 H 431.54 3.75295 1.80396 0
M  V30 4342 H 434.137 2.94247 4.46456 0
M  V30 4343 H 434.48 1.30846 3.95203 0
M  V30 4344 H 435.013 2.67563 2.94372 0
M  V30 4345 H 431.752 5.64883 3.32547 0
M  V30 4346 H 431.272 4.2171 4.26521 0
M  V30 4347 H 432.951 4.80801 4.32943 0
M  V30 4348 N 433.083 -1.0153 1.20538 0
M  V30 4349 C 434.013 -2.11972 0.979295 0
M  V30 4350 C 434.994 -1.6985 -0.0921787 0
M  V30 4351 O 436.179 -1.94089 0.0655932 0
M  V30 4352 C 433.309 -3.43201 0.531984 0
M  V30 4353 C 432.263 -3.9907 1.54685 0
M  V30 4354 C 431.589 -5.26082 0.956127 0
M  V30 4355 C 432.889 -4.32313 2.93092 0
M  V30 4356 H 434.583 -2.31143 1.90298 0
M  V30 4357 H 432.129 -1.11079 0.916372 0
M  V30 4358 H 434.082 -4.1985 0.361044 0
M  V30 4359 H 432.806 -3.23792 -0.427327 0
M  V30 4360 H 431.465 -3.2453 1.70517 0
M  V30 4361 H 431.113 -5.02999 -0.0111538 0
M  V30 4362 H 430.813 -5.64426 1.63393 0
M  V30 4363 H 432.337 -6.05386 0.796284 0
M  V30 4364 H 433.751 -4.99845 2.80763 0
M  V30 4365 H 432.148 -4.81774 3.57791 0
M  V30 4366 H 433.218 -3.41025 3.44717 0
M  V30 4367 N 434.561 -1.01147 -1.20859 0
M  V30 4368 C 435.789 -0.716911 -1.94082 0
M  V30 4369 C 436.204 0.721568 -1.74467 0
M  V30 4370 O 435.561 1.48889 -1.05539 0
M  V30 4371 C 435.612 -1.03662 -3.46318 0
M  V30 4372 O 435.333 -2.4186 -3.65288 0
M  V30 4373 C 436.834 -0.762386 -4.36695 0
M  V30 4374 H 434.054 -0.26367 -0.617024 0
M  V30 4375 H 436.598 -1.35127 -1.53496 0
M  V30 4376 H 434.753 -0.447757 -3.84804 0
M  V30 4377 H 435.167 -2.53224 -4.59323 0
M  V30 4378 H 436.641 -1.03621 -5.42187 0
M  V30 4379 H 437.118 0.303514 -4.3815 0
M  V30 4380 H 437.724 -1.33316 -4.03865 0
M  V30 4381 N 436.039 1.36541 -0.78704 0
M  V30 4382 C 437.455 1.52571 -0.46844 0
M  V30 4383 C 437.655 1.7415 1.01361 0
M  V30 4384 O 436.711 1.77163 1.79915 0
M  V30 4385 C 438.024 2.71299 -1.29682 0
M  V30 4386 C 439.572 2.85169 -1.29027 0
M  V30 4387 C 440.047 4.06898 -2.10233 0
M  V30 4388 N 441.538 4.1404 -2.07666 0
M  V30 4389 C 442.273 5.07301 -2.67271 0
M  V30 4390 N 441.769 6.06021 -3.35724 0
M  V30 4391 N 443.562 4.99898 -2.57018 0
M  V30 4392 H 435.713 1.20788 -1.74711 0
M  V30 4393 H 437.976 0.589364 -0.742532 0
M  V30 4394 H 437.682 2.61868 -2.34773 0
M  V30 4395 H 437.556 3.6539 -0.936479 0
M  V30 4396 H 439.943 2.94062 -0.247284 0
M  V30 4397 H 440.024 1.91992 -1.69035 0
M  V30 4398 H 439.668 3.98766 -3.1456 0
M  V30 4399 H 439.598 4.99218 -1.67597 0
M  V30 4400 H 442.089 3.43357 -1.57843 0
M  V30 4401 H 442.402 6.73741 -3.78541 0
M  V30 4402 H 440.747 6.06253 -3.39826 0
M  V30 4403 H 443.938 4.21724 -2.03142 0
M  V30 4404 H 444.111 5.72392 -3.03761 0
M  V30 4405 N 437.518 0.538854 1.48102 0
M  V30 4406 C 438.795 -0.0568108 1.95517 0
M  V30 4407 C 439.175 -1.50408 1.48124 0
M  V30 4408 O 438.523 -2.17133 0.711727 0
M  V30 4409 C 438.733 0.0696262 3.48931 0
M  V30 4410 C 440.081 -0.0851202 4.24515 0
M  V30 4411 O 441.105 -0.0037347 3.562 0
M  V30 4412 O 439.964 -0.257025 5.45895 0
M  V30 4413 H 437.058 -0.0743695 0.823649 0
M  V30 4414 H 439.604 0.604081 1.58584 0
M  V30 4415 H 438.376 1.07744 3.76174 0
M  V30 4416 H 437.999 -0.629714 3.92582 0
M  V30 4417 N 438.996 -1.55193 0.274407 0
M  V30 4418 C 439.946 -2.19184 -0.627882 0
M  V30 4419 C 440.93 -1.15625 -1.11892 0
M  V30 4420 O 442.122 -1.41441 -1.06411 0
M  V30 4421 C 439.251 -2.91591 -1.81189 0
M  V30 4422 C 438.337 -4.02438 -1.33807 0
M  V30 4423 N 438.728 -5.0246 -0.580349 0
M  V30 4424 C 437.026 -4.15496 -1.62109 0
M  V30 4425 C 437.727 -5.80756 -0.331344 0
M  V30 4426 N 436.703 -5.36038 -0.903556 0
M  V30 4427 H 440.505 -2.93871 -0.0411216 0
M  V30 4428 H 438.019 -1.62213 0.0779348 0
M  V30 4429 H 440.016 -3.35883 -2.46957 0
M  V30 4430 H 438.676 -2.18414 -2.40261 0
M  V30 4431 H 439.687 -5.17399 -0.227762 0
M  V30 4432 H 436.364 -3.53509 -2.22121 0
M  V30 4433 H 437.754 -6.71335 0.275454 0
M  V30 4434 N 440.474 -0.00167713 -1.576 0
M  V30 4435 C 441.404 0.988091 -2.11563 0
M  V30 4436 C 442.385 1.35736 -1.02517 0
M  V30 4437 O 443.57 1.44082 -1.30208 0
M  V30 4438 C 440.7 2.27941 -2.62031 0
M  V30 4439 C 439.654 2.0517 -3.75619 0
M  V30 4440 C 438.98 3.4033 -4.12407 0
M  V30 4441 C 440.28 1.41294 -5.02825 0
M  V30 4442 H 441.974 0.538771 -2.94513 0
M  V30 4443 H 439.52 0.257712 -1.41675 0
M  V30 4444 H 441.473 2.97539 -2.9841 0
M  V30 4445 H 440.197 2.74989 -1.76205 0
M  V30 4446 H 438.856 1.37998 -3.39635 0
M  V30 4447 H 438.504 3.85085 -3.23603 0
M  V30 4448 H 438.204 3.25909 -4.88935 0
M  V30 4449 H 439.728 4.1124 -4.51347 0
M  V30 4450 H 441.142 2.00851 -5.36965 0
M  V30 4451 H 439.539 1.37356 -5.84169 0
M  V30 4452 H 440.609 0.382362 -4.8339 0
M  V30 4453 N 441.952 1.55251 0.271103 0
M  V30 4454 C 442.9 1.89054 1.35504 0
M  V30 4455 C 443.894 0.767064 1.51038 0
M  V30 4456 O 445.1 0.951429 1.528 0
M  V30 4457 H 441.475 0.600072 0.45323 0
M  V30 4458 H 443.446 2.79598 1.04247 0
M  V30 4459 C 442.195 2.18068 2.70817 0
M  V30 4460 H 441.518 3.04005 2.59656 0
M  V30 4461 H 442.958 2.4564 3.45597 0
M  V30 4462 C 441.417 0.988901 3.2206 0
M  V30 4463 O 441.947 0.224501 4.01072 0
M  V30 4464 N 440.153 0.786085 2.79766 0
M  V30 4465 H 439.7 1.40937 2.15626 0
M  V30 4466 H 439.658 -0.00969349 3.14399 0
M  V30 4467 N 443.43 -0.535701 1.48216 0
M  V30 4468 C 444.676 -1.29375 1.56173 0
M  V30 4469 C 445.009 -1.92804 0.232429 0
M  V30 4470 O 444.284 -1.78992 -0.761048 0
M  V30 4471 C 444.567 -2.38747 2.69577 0
M  V30 4472 C 444.42 -1.80046 4.12193 0
M  V30 4473 C 445.739 -3.40551 2.78771 0
M  V30 4474 H 442.858 -0.469027 0.568491 0
M  V30 4475 H 445.5 -0.597358 1.80365 0
M  V30 4476 H 443.65 -2.98147 2.4908 0
M  V30 4477 H 445.322 -1.24742 4.44114 0
M  V30 4478 H 443.565 -1.10609 4.19462 0
M  V30 4479 H 444.236 -2.59212 4.87353 0
M  V30 4480 H 446.712 -2.91099 2.97322 0
M  V30 4481 H 445.588 -4.1448 3.59857 0
M  V30 4482 H 445.849 -4.00746 1.86696 0
M  V30 4483 N 444.908 -1.36708 -0.784132 0
M  V30 4484 C 446.324 -1.17237 -1.08294 0
M  V30 4485 C 446.524 -5.93947e-05 -2.015 0
M  V30 4486 O 445.58 0.663686 -2.43622 0
M  V30 4487 C 446.893 -2.48557 -1.69233 0
M  V30 4488 C 448.441 -2.54968 -1.8155 0
M  V30 4489 C 448.916 -3.86388 -2.45904 0
M  V30 4490 N 450.407 -3.87762 -2.53367 0
M  V30 4491 C 451.142 -4.86191 -3.03983 0
M  V30 4492 N 450.638 -5.95015 -3.54866 0
M  V30 4493 N 452.431 -4.73606 -3.02743 0
M  V30 4494 H 444.582 -2.11758 -0.16501 0
M  V30 4495 H 446.845 -0.93822 -0.135822 0
M  V30 4496 H 446.551 -3.34638 -1.08215 0
M  V30 4497 H 446.425 -2.64748 -2.68679 0
M  V30 4498 H 448.812 -1.69302 -2.41704 0
M  V30 4499 H 448.893 -2.42672 -0.80895 0
M  V30 4500 H 448.537 -4.72462 -1.86392 0
M  V30 4501 H 448.467 -3.95982 -3.4714 0
M  V30 4502 H 450.958 -3.09145 -2.17343 0
M  V30 4503 H 451.271 -6.66086 -3.91854 0
M  V30 4504 H 449.616 -5.98676 -3.53003 0
M  V30 4505 H 452.807 -3.87717 -2.62284 0
M  V30 4506 H 452.98 -5.50473 -3.41881 0
M  V30 4507 N 446.386 1.0089 -1.21074 0
M  V30 4508 C 447.333 2.09588 -0.966512 0
M  V30 4509 C 448.303 1.65761 0.106089 0
M  V30 4510 O 449.488 1.90758 -0.0402287 0
M  V30 4511 C 446.628 3.40958 -0.533058 0
M  V30 4512 C 445.741 3.9822 -1.67467 0
M  V30 4513 C 444.876 5.17682 -1.19076 0
M  V30 4514 C 443.915 5.67043 -2.30496 0
M  V30 4515 N 443.052 6.77759 -1.83267 0
M  V30 4516 H 447.892 2.29815 -1.89708 0
M  V30 4517 H 445.429 1.12689 -0.945489 0
M  V30 4518 H 447.387 4.1637 -0.263019 0
M  V30 4519 H 446.017 3.20781 0.360505 0
M  V30 4520 H 445.069 3.1983 -2.05944 0
M  V30 4521 H 446.381 4.3085 -2.51336 0
M  V30 4522 H 445.535 6.00326 -0.877151 0
M  V30 4523 H 444.274 4.86635 -0.322066 0
M  V30 4524 H 443.279 4.82999 -2.62664 0
M  V30 4525 H 444.504 6.00121 -3.17855 0
M  V30 4526 H 442.45 6.48527 -0.987356 0
M  V30 4527 H 442.367 7.09624 -2.60711 0
M  V30 4528 H 443.635 7.63949 -1.54928 0
M  V30 4529 N 447.864 1.01787 1.20321 0
M  V30 4530 C 448.796 0.547357 2.22568 0
M  V30 4531 C 449.809 -0.370922 1.58518 0
M  V30 4532 O 450.998 -0.169067 1.77698 0
M  V30 4533 C 448.098 -0.223031 3.38165 0
M  V30 4534 C 447.271 0.697472 4.31803 0
M  V30 4535 C 446.33 -0.025562 5.26194 0
M  V30 4536 O 445.356 0.597367 5.66057 0
M  V30 4537 N 446.558 -1.29999 5.65757 0
M  V30 4538 H 449.323 1.42668 2.63564 0
M  V30 4539 H 446.884 0.895552 1.34876 0
M  V30 4540 H 448.876 -0.716002 3.98316 0
M  V30 4541 H 447.446 -1.00366 2.9605 0
M  V30 4542 H 446.666 1.37073 3.69601 0
M  V30 4543 H 447.954 1.32347 4.91286 0
M  V30 4544 H 447.352 -1.827 5.35385 0
M  V30 4545 H 445.909 -1.73766 6.28211 0
M  V30 4546 N 449.342 -1.36122 0.79427 0
M  V30 4547 C 450.589 -1.99111 0.368905 0
M  V30 4548 C 450.917 -1.63032 -1.0607 0
M  V30 4549 O 450.172 -0.879303 -1.74833 0
M  V30 4550 C 450.471 -3.5409 0.48527 0
M  V30 4551 C 450.137 -4.10003 1.87638 0
M  V30 4552 C 448.799 -4.24986 2.257 0
M  V30 4553 C 451.151 -4.40423 2.78706 0
M  V30 4554 C 448.479 -4.67701 3.54221 0
M  V30 4555 C 450.831 -4.84573 4.0666 0
M  V30 4556 C 449.495 -4.97761 4.44737 0
M  V30 4557 H 448.765 -0.7286 0.134992 0
M  V30 4558 H 451.412 -1.62534 1.01267 0
M  V30 4559 H 449.717 -3.91052 -0.241984 0
M  V30 4560 H 451.414 -4.00766 0.137109 0
M  V30 4561 H 448.004 -3.98784 1.57064 0
M  V30 4562 H 452.188 -4.28412 2.50553 0
M  V30 4563 H 447.444 -4.761 3.83587 0
M  V30 4564 H 451.618 -5.07074 4.77336 0
M  V30 4565 H 449.245 -5.30618 5.44379 0
M  V30 4566 N 450.82 -0.546701 -1.47814 0
M  V30 4567 C 452.068 -0.0187037 -2.02091 0
M  V30 4568 C 452.389 1.33168 -1.42447 0
M  V30 4569 O 451.659 1.86619 -0.595839 0
M  V30 4570 H 450.239 -0.00392531 -0.74699 0
M  V30 4571 H 452.901 -0.714327 -1.81338 0
M  V30 4572 H 451.997 0.0772219 -3.12004 0
M  V30 4573 N 452.299 1.55045 -0.282633 0
M  V30 4574 C 453.209 2.26491 0.61147 0
M  V30 4575 C 454.225 1.29348 1.16384 0
M  V30 4576 O 455.401 1.62298 1.19253 0
M  V30 4577 C 452.466 2.97779 1.77563 0
M  V30 4578 C 451.527 4.10418 1.25919 0
M  V30 4579 C 450.76 4.78297 2.36786 0
M  V30 4580 O 450.983 4.45426 3.56303 0
M  V30 4581 O 449.917 5.66089 2.04517 0
M  V30 4582 H 453.743 3.03683 0.0324615 0
M  V30 4583 H 451.328 1.49317 -0.0497576 0
M  V30 4584 H 453.21 3.42554 2.45427 0
M  V30 4585 H 451.885 2.23498 2.34159 0
M  V30 4586 H 450.792 3.70082 0.546797 0
M  V30 4587 H 452.125 4.86622 0.738887 0
M  V30 4588 N 453.777 0.010035 1.57597 0
M  V30 4589 C 455.188 -0.531426 1.78977 0
M  V30 4590 C 455.539 -1.73375 0.918454 0
M  V30 4591 O 454.664 -2.16047 0.123635 0
M  V30 4592 C 455.259 -0.97086 3.24592 0
M  V30 4593 C 453.818 -1.45756 3.47033 0
M  V30 4594 C 452.965 -0.413384 2.74201 0
M  V30 4595 H 455.916 0.236166 1.56933 0
M  V30 4596 H 455.937 -1.83633 3.33255 0
M  V30 4597 H 455.449 -0.0955893 3.87982 0
M  V30 4598 H 453.55 -2.35339 2.88871 0
M  V30 4599 H 453.663 -1.4781 4.55729 0
M  V30 4600 H 452.027 -0.877266 2.39115 0
M  V30 4601 H 452.81 0.453092 3.40297 0
M  V30 4602 N 455.255 -1.55392 -0.262866 0
M  V30 4603 C 456.185 -1.91978 -1.32917 0
M  V30 4604 C 457.166 -0.7828 -1.51017 0
M  V30 4605 O 458.351 -1.04178 -1.63892 0
M  V30 4606 C 455.481 -2.20055 -2.68687 0
M  V30 4607 C 454.435 -3.35854 -2.65304 0
M  V30 4608 C 453.761 -3.49435 -4.04721 0
M  V30 4609 C 455.061 -4.71977 -2.23685 0
M  V30 4610 H 456.755 -2.81292 -1.02544 0
M  V30 4611 H 454.301 -1.3534 -0.491846 0
M  V30 4612 H 456.254 -2.44237 -3.43404 0
M  V30 4613 H 454.978 -1.27551 -3.00663 0
M  V30 4614 H 453.637 -3.11655 -1.93045 0
M  V30 4615 H 453.285 -2.54379 -4.33936 0
M  V30 4616 H 452.985 -4.27297 -4.0335 0
M  V30 4617 H 454.509 -3.7592 -4.81161 0
M  V30 4618 H 455.923 -4.95637 -2.88127 0
M  V30 4619 H 454.32 -5.52828 -2.33456 0
M  V30 4620 H 455.39 -4.70115 -1.18827 0
M  V30 4621 N 456.733 0.527833 -1.48498 0
M  V30 4622 C 457.696 1.61439 -1.62696 0
M  V30 4623 C 458.696 1.52824 -0.500136 0
M  V30 4624 O 459.886 1.56456 -0.765976 0
M  V30 4625 C 457.018 3.01063 -1.59918 0
M  V30 4626 H 458.211 1.50189 -2.59583 0
M  V30 4627 H 455.764 0.750055 -1.37127 0
M  V30 4628 H 456.499 3.17818 -0.645163 0
M  V30 4629 H 456.284 3.08725 -2.41726 0
M  V30 4630 H 457.774 3.80057 -1.73051 0
M  V30 4631 N 458.211 1.37122 0.776871 0
M  V30 4632 C 459.436 1.354 1.57104 0
M  V30 4633 C 459.861 -0.0595562 1.88006 0
M  V30 4634 O 459.219 -1.03514 1.48844 0
M  V30 4635 C 459.267 2.19472 2.8612 0
M  V30 4636 O 458.371 1.59582 3.80273 0
M  V30 4637 H 457.712 0.462869 0.476076 0
M  V30 4638 H 460.242 1.80577 0.961932 0
M  V30 4639 H 460.252 2.32502 3.35271 0
M  V30 4640 H 458.927 3.22222 2.62956 0
M  V30 4641 H 457.504 1.55564 3.38902 0
M  V30 4642 N 459.689 -1.00246 1.21608 0
M  V30 4643 C 460.637 -2.11193 0.97469 0
M  V30 4644 C 461.631 -1.69216 -0.0789303 0
M  V30 4645 O 462.837 -1.79853 0.0726806 0
M  V30 4646 H 459.212 -0.690455 0.297953 0
M  V30 4647 H 461.183 -2.2873 1.91638 0
M  V30 4648 C 459.932 -3.43182 0.558717 0
M  V30 4649 H 459.255 -3.75918 1.3611 0
M  V30 4650 H 460.695 -4.21823 0.429154 0
M  V30 4651 C 459.154 -3.28882 -0.730648 0
M  V30 4652 O 459.684 -3.59835 -1.78554 0
M  V30 4653 N 457.89 -2.8209 -0.698131 0
M  V30 4654 H 457.437 -2.57099 0.16061 0
M  V30 4655 H 457.395 -2.72903 -1.56113 0
M  V30 4656 N 461.167 -1.02423 -1.1978 0
M  V30 4657 C 462.099 -0.559152 -2.22275 0
M  V30 4658 C 463.112 0.36251 -1.58713 0
M  V30 4659 O 464.301 0.159641 -1.77785 0
M  V30 4660 C 461.401 0.205094 -3.38279 0
M  V30 4661 C 460.574 -0.720361 -4.31427 0
M  V30 4662 C 459.633 -0.00234368 -5.262 0
M  V30 4663 O 458.659 -0.627378 -5.65732 0
M  V30 4664 N 459.861 1.26996 -5.66438 0
M  V30 4665 H 462.626 -1.44064 -2.62804 0
M  V30 4666 H 460.187 -0.902692 -1.34399 0
M  V30 4667 H 462.179 0.694868 -3.9869 0
M  V30 4668 H 460.749 0.987947 -2.96578 0
M  V30 4669 H 459.969 -1.39031 -3.68869 0
M  V30 4670 H 461.257 -1.3495 -4.90577 0
M  V30 4671 H 460.655 1.79858 -5.36347 0
M  V30 4672 H 459.212 1.70432 -6.29123 0
M  V30 4673 N 462.645 1.35699 -0.801477 0
M  V30 4674 C 463.875 2.02862 -0.3912 0
M  V30 4675 C 464.283 1.60552 1.00099 0
M  V30 4676 O 463.626 0.796215 1.65548 0
M  V30 4677 C 463.688 3.57386 -0.389299 0
M  V30 4678 C 463.352 4.22943 -1.73113 0
M  V30 4679 C 464.349 4.44984 -2.68859 0
M  V30 4680 C 462.034 4.60167 -2.01373 0
M  V30 4681 C 464.028 5.03345 -3.91053 0
M  V30 4682 C 461.715 5.18243 -3.23832 0
M  V30 4683 C 462.713 5.39773 -4.1849 0
M  V30 4684 O 462.401 5.96626 -5.38788 0
M  V30 4685 H 462.133 0.657341 -0.157732 0
M  V30 4686 H 464.687 1.74407 -1.08496 0
M  V30 4687 H 462.917 3.85011 0.361031 0
M  V30 4688 H 464.606 4.059 -0.0020365 0
M  V30 4689 H 465.372 4.1661 -2.48316 0
M  V30 4690 H 461.251 4.42726 -1.28508 0
M  V30 4691 H 464.795 5.20065 -4.64949 0
M  V30 4692 H 460.692 5.46044 -3.44248 0
M  V30 4693 H 461.46 6.15082 -5.40015 0
M  V30 4694 N 464.123 0.554532 1.47522 0
M  V30 4695 C 465.053 -0.182974 2.32782 0
M  V30 4696 C 466.034 -0.911377 1.43624 0
M  V30 4697 O 467.219 -0.892366 1.72483 0
M  V30 4698 C 464.349 -1.21513 3.25349 0
M  V30 4699 C 463.303 -0.603355 4.23726 0
M  V30 4700 C 462.629 -1.73995 5.05598 0
M  V30 4701 C 463.929 0.441121 5.20434 0
M  V30 4702 H 465.623 0.52882 2.94693 0
M  V30 4703 H 463.169 0.255759 1.41711 0
M  V30 4704 H 465.122 -1.73922 3.83835 0
M  V30 4705 H 463.846 -1.95683 2.61487 0
M  V30 4706 H 462.505 -0.10059 3.66462 0
M  V30 4707 H 462.153 -2.47063 4.38143 0
M  V30 4708 H 461.853 -1.3364 5.72201 0
M  V30 4709 H 463.377 -2.26735 5.66942 0
M  V30 4710 H 464.791 0.00319931 5.733 0
M  V30 4711 H 463.188 0.763402 5.95224 0
M  V30 4712 H 464.258 1.33799 4.66075 0
M  V30 4713 N 465.601 -1.54893 0.290851 0
M  V30 4714 C 466.533 -2.20564 -0.623236 0
M  V30 4715 C 467.546 -1.19519 -1.1054 0
M  V30 4716 O 468.735 -1.46165 -1.02459 0
M  V30 4717 C 465.835 -2.83033 -1.86401 0
M  V30 4718 C 465.008 -4.09916 -1.52604 0
M  V30 4719 C 464.067 -4.56284 -2.62091 0
M  V30 4720 O 463.093 -5.2171 -2.27612 0
M  V30 4721 N 464.295 -4.27746 -3.92446 0
M  V30 4722 H 467.06 -2.99638 -0.0610915 0
M  V30 4723 H 464.621 -1.61508 0.112615 0
M  V30 4724 H 466.613 -3.1099 -2.58973 0
M  V30 4725 H 465.183 -2.0786 -2.33481 0
M  V30 4726 H 464.403 -3.89078 -0.633424 0
M  V30 4727 H 465.691 -4.92554 -1.27547 0
M  V30 4728 H 465.089 -3.7531 -4.23272 0
M  V30 4729 H 463.646 -4.60437 -4.61347 0
M  V30 4730 N 467.08 -0.0183926 -1.57589 0
M  V30 4731 C 468.327 0.662562 -1.91354 0
M  V30 4732 C 468.655 1.72747 -0.893788 0
M  V30 4733 O 467.91 1.9545 0.0988509 0
M  V30 4734 C 468.209 1.32676 -3.31861 0
M  V30 4735 C 467.875 0.393267 -4.49182 0
M  V30 4736 C 466.537 0.136302 -4.81007 0
M  V30 4737 C 468.889 -0.248366 -5.20608 0
M  V30 4738 C 466.217 -0.770282 -5.81621 0
M  V30 4739 C 468.569 -1.14294 -6.22189 0
M  V30 4740 C 467.233 -1.4089 -6.52462 0
M  V30 4741 H 466.503 0.242448 -0.700214 0
M  V30 4742 H 469.15 -0.0778629 -1.91342 0
M  V30 4743 H 467.455 2.14168 -3.28084 0
M  V30 4744 H 469.152 1.86001 -3.55253 0
M  V30 4745 H 465.742 0.603723 -4.24327 0
M  V30 4746 H 469.926 -0.062883 -4.9626 0
M  V30 4747 H 465.182 -0.984154 -6.03427 0
M  V30 4748 H 469.356 -1.64637 -6.76659 0
M  V30 4749 H 466.983 -2.11306 -7.30242 0
M  V30 4750 N 468.558 1.5553 0.254621 0
M  V30 4751 C 469.786 1.81046 1.00149 0
M  V30 4752 C 470.201 0.593047 1.79244 0
M  V30 4753 O 469.558 -0.438196 1.77161 0
M  V30 4754 C 469.609 3.04684 1.94551 0
M  V30 4755 O 469.33 4.21725 1.18658 0
M  V30 4756 C 470.831 3.42943 2.80901 0
M  V30 4757 H 468.051 0.602653 0.295044 0
M  V30 4758 H 470.595 2.02576 0.279842 0
M  V30 4759 H 468.75 2.85226 2.62154 0
M  V30 4760 H 469.164 4.91746 1.82445 0
M  V30 4761 H 470.638 4.32576 3.42902 0
M  V30 4762 H 471.115 2.63176 3.51617 0
M  V30 4763 H 471.721 3.64724 2.18762 0
M  V30 4764 N 470.036 -0.519951 1.48776 0
M  V30 4765 C 470.966 -1.63253 1.66945 0
M  V30 4766 C 471.947 -1.62014 0.518224 0
M  V30 4767 O 473.132 -1.79053 0.751919 0
M  V30 4768 C 470.262 -3.0181 1.71836 0
M  V30 4769 C 469.216 -3.17911 2.8656 0
M  V30 4770 C 468.542 -4.5763 2.76548 0
M  V30 4771 C 469.842 -2.99729 4.27738 0
M  V30 4772 H 471.536 -1.48302 2.6009 0
M  V30 4773 H 469.082 -0.712026 1.25165 0
M  V30 4774 H 471.035 -3.79525 1.83135 0
M  V30 4775 H 469.759 -3.17806 0.752775 0
M  V30 4776 H 468.418 -2.42616 2.74833 0
M  V30 4777 H 468.066 -4.70476 1.77937 0
M  V30 4778 H 467.766 -4.69346 3.53536 0
M  V30 4779 H 469.29 -5.37431 2.89828 0
M  V30 4780 H 470.704 -3.67228 4.40246 0
M  V30 4781 H 469.101 -3.22932 5.05801 0
M  V30 4782 H 470.171 -1.96047 4.43502 0
M  V30 4783 N 471.514 -1.37532 -0.769588 0
M  V30 4784 C 472.477 -1.33292 -1.86456 0
M  V30 4785 C 473.477 -0.236537 -1.59051 0
M  V30 4786 O 474.667 -0.492511 -1.67093 0
M  V30 4787 C 471.799 -1.07118 -3.23633 0
M  V30 4788 H 472.992 -2.30692 -1.91628 0
M  V30 4789 H 470.545 -1.22593 -0.969572 0
M  V30 4790 H 471.28 -0.102578 -3.24138 0
M  V30 4791 H 471.065 -1.86479 -3.44917 0
M  V30 4792 H 472.555 -1.06806 -4.03711 0
M  V30 4793 N 472.992 0.995999 -1.22138 0
M  V30 4794 C 474.269 1.70834 -0.952642 0
M  V30 4795 C 474.649 2.04257 0.533119 0
M  V30 4796 O 473.997 1.72343 1.50034 0
M  V30 4797 C 474.207 2.96119 -1.84701 0
M  V30 4798 C 475.555 3.68962 -2.10124 0
M  V30 4799 O 476.579 3.0612 -1.82124 0
M  V30 4800 O 475.438 4.82017 -2.57531 0
M  V30 4801 H 472.532 0.745498 -0.357997 0
M  V30 4802 H 475.078 1.05262 -1.33109 0
M  V30 4803 H 473.85 2.67898 -2.85213 0
M  V30 4804 H 473.473 3.6943 -1.46995 0
M  V30 4805 N 474.47 1.03057 1.19235 0
M  V30 4806 C 475.403 0.557384 2.21288 0
M  V30 4807 C 476.381 -0.402675 1.57535 0
M  V30 4808 O 477.565 -0.319376 1.85775 0
M  V30 4809 C 474.692 -0.187041 3.38183 0
M  V30 4810 C 473.738 0.72471 4.20298 0
M  V30 4811 S 474.571 2.20187 4.88137 0
M  V30 4812 C 475.727 1.46801 6.08441 0
M  V30 4813 H 475.96 1.42207 2.61083 0
M  V30 4814 H 473.493 0.840651 1.29508 0
M  V30 4815 H 475.451 -0.610405 4.05936 0
M  V30 4816 H 474.112 -1.02748 2.96819 0
M  V30 4817 H 473.305 0.149911 5.03777 0
M  V30 4818 H 472.907 1.08647 3.57871 0
M  V30 4819 H 475.199 0.755522 6.73274 0
M  V30 4820 H 476.142 2.27946 6.70407 0
M  V30 4821 H 476.55 0.964762 5.56195 0
M  V30 4822 N 475.948 -1.35272 0.808662 0
M  V30 4823 C 476.911 -2.28082 0.226093 0
M  V30 4824 C 477.911 -1.49673 -0.587762 0
M  V30 4825 O 479.101 -1.69404 -0.405943 0
M  V30 4826 C 476.233 -3.33955 -0.684596 0
M  V30 4827 H 477.426 -2.81116 1.04469 0
M  V30 4828 H 474.979 -1.45162 0.579466 0
M  V30 4829 H 475.714 -2.86111 -1.5268 0
M  V30 4830 H 475.499 -3.91965 -0.102699 0
M  V30 4831 H 476.989 -4.03219 -1.08646 0
M  V30 4832 N 477.426 -0.562348 -1.47226 0
M  V30 4833 C 478.654 -0.0452275 -2.06851 0
M  V30 4834 C 479.069 1.25078 -1.41424 0
M  V30 4835 O 478.426 1.75156 -0.512513 0
M  V30 4836 C 478.477 0.148674 -3.61194 0
M  V30 4837 O 478.198 -1.09602 -4.24169 0
M  V30 4838 C 479.699 0.702488 -4.37699 0
M  V30 4839 H 476.919 -0.0481775 -0.669268 0
M  V30 4840 H 479.463 -0.777223 -1.89155 0
M  V30 4841 H 477.618 0.830817 -3.78386 0
M  V30 4842 H 478.032 -0.896982 -5.16773 0
M  V30 4843 H 479.506 0.78743 -5.46355 0
M  V30 4844 H 479.983 1.71493 -4.04335 0
M  V30 4845 H 480.589 0.0558772 -4.25263 0
M  V30 4846 N 478.904 1.54736 -0.299062 0
M  V30 4847 C 480.32 1.59507 0.0543849 0
M  V30 4848 C 480.52 1.31606 1.52585 0
M  V30 4849 O 479.576 1.08853 2.27832 0
M  V30 4850 C 480.889 2.98751 -0.34181 0
M  V30 4851 C 482.437 3.1165 -0.290414 0
M  V30 4852 C 482.912 4.53199 -0.661402 0
M  V30 4853 N 484.403 4.59114 -0.613863 0
M  V30 4854 C 485.138 5.66709 -0.873417 0
M  V30 4855 N 484.634 6.82349 -1.19884 0
M  V30 4856 N 486.427 5.56369 -0.800608 0
M  V30 4857 H 478.578 1.71133 -1.25806 0
M  V30 4858 H 480.841 0.799186 -0.509908 0
M  V30 4859 H 480.547 3.24085 -1.36608 0
M  V30 4860 H 480.421 3.75961 0.305508 0
M  V30 4861 H 482.808 2.86066 0.724605 0
M  V30 4862 H 482.889 2.366 -0.972327 0
M  V30 4863 H 482.533 4.79513 -1.67422 0
M  V30 4864 H 482.463 5.26583 0.0425612 0
M  V30 4865 H 484.954 3.76053 -0.3732 0
M  V30 4866 H 485.267 7.60326 -1.38291 0
M  V30 4867 H 483.612 6.83906 -1.23685 0
M  V30 4868 H 486.803 4.64904 -0.546045 0
M  V30 4869 H 486.976 6.40139 -1.00626 0
M  V30 4870 N 480.382 0.0267497 1.57577 0
M  V30 4871 C 481.312 -0.954308 2.13108 0
M  V30 4872 C 482.293 -1.34088 1.04663 0
M  V30 4873 O 483.478 -1.41992 1.32484 0
M  V30 4874 C 480.608 -2.23744 2.65624 0
M  V30 4875 C 479.562 -1.99168 3.78835 0
M  V30 4876 C 478.888 -3.33726 4.17769 0
M  V30 4877 C 480.188 -1.33277 5.0501 0
M  V30 4878 H 481.882 -0.491848 2.95332 0
M  V30 4879 H 479.428 -0.23514 1.42067 0
M  V30 4880 H 481.381 -2.92754 3.03106 0
M  V30 4881 H 480.105 -2.72151 1.80558 0
M  V30 4882 H 478.764 -1.32577 3.41788 0
M  V30 4883 H 478.412 -3.79888 3.29688 0
M  V30 4884 H 478.112 -3.18089 4.94058 0
M  V30 4885 H 479.636 -4.04008 4.57832 0
M  V30 4886 H 481.05 -1.92283 5.40093 0
M  V30 4887 H 479.447 -1.28045 5.8628 0
M  V30 4888 H 480.517 -0.305411 4.83937 0
M  V30 4889 N 481.861 -1.55662 -0.24637 0
M  V30 4890 C 483.107 -1.77782 -0.975779 0
M  V30 4891 C 483.44 -0.592103 -1.84953 0
M  V30 4892 O 482.715 0.409588 -1.90138 0
M  V30 4893 C 482.998 -3.09788 -1.83584 0
M  V30 4894 C 482.851 -4.38764 -0.990241 0
M  V30 4895 C 484.17 -3.38029 -2.81823 0
M  V30 4896 H 481.289 -0.646789 -0.353317 0
M  V30 4897 H 483.931 -1.88398 -0.246248 0
M  V30 4898 H 482.081 -3.00869 -2.45784 0
M  V30 4899 H 483.753 -4.59675 -0.386897 0
M  V30 4900 H 481.996 -4.32798 -0.294626 0
M  V30 4901 H 482.667 -5.27514 -1.62584 0
M  V30 4902 H 485.143 -3.46915 -2.2976 0
M  V30 4903 H 484.019 -4.3161 -3.39122 0
M  V30 4904 H 484.28 -2.58968 -3.58313 0
M  V30 4905 N 483.339 0.512053 -1.4905 0
M  V30 4906 C 484.302 1.59704 -1.64399 0
M  V30 4907 C 485.302 1.52285 -0.516317 0
M  V30 4908 O 486.492 1.55635 -0.782527 0
M  V30 4909 C 483.624 2.9935 -1.63102 0
M  V30 4910 H 484.817 1.47428 -2.61161 0
M  V30 4911 H 482.37 0.735469 -1.37915 0
M  V30 4912 H 483.105 3.17116 -0.678836 0
M  V30 4913 H 482.89 3.06144 -2.44986 0
M  V30 4914 H 484.38 3.782 -1.77072 0
M  V30 4915 N 484.817 1.37938 0.762283 0
M  V30 4916 C 485.78 1.34279 1.85747 0
M  V30 4917 C 486.78 0.244969 1.58923 0
M  V30 4918 O 487.97 0.501365 1.66829 0
M  V30 4919 C 485.102 1.08833 3.23061 0
M  V30 4920 H 486.295 2.31705 1.90401 0
M  V30 4921 H 483.848 1.23105 0.963057 0
M  V30 4922 H 484.583 0.119767 3.24079 0
M  V30 4923 H 484.368 1.88306 3.43923 0
M  V30 4924 H 485.858 1.08946 4.03138 0
M  V30 4925 N 486.295 -0.989507 1.22664 0
M  V30 4926 C 487.711 -1.25395 0.987331 0
M  V30 4927 C 487.911 -1.9899 -0.317056 0
M  V30 4928 O 486.967 -2.30141 -1.03882 0
M  V30 4929 C 488.28 -2.06242 2.18826 0
M  V30 4930 C 489.828 -2.19413 2.23219 0
M  V30 4931 C 490.303 -3.03648 3.42873 0
M  V30 4932 N 491.794 -3.11234 3.43056 0
M  V30 4933 C 492.529 -3.7671 4.32293 0
M  V30 4934 N 492.025 -4.44085 5.31752 0
M  V30 4935 N 493.818 -3.73505 4.2006 0
M  V30 4936 H 485.969 -0.496212 2.06522 0
M  V30 4937 H 488.232 -0.281784 0.905153 0
M  V30 4938 H 487.938 -1.59531 3.13437 0
M  V30 4939 H 487.812 -3.06996 2.19165 0
M  V30 4940 H 490.199 -2.65336 1.29154 0
M  V30 4941 H 490.28 -1.18078 2.26917 0
M  V30 4942 H 489.924 -2.58424 4.37241 0
M  V30 4943 H 489.854 -4.05132 3.36416 0
M  V30 4944 H 492.345 -2.63287 2.71088 0
M  V30 4945 H 492.658 -4.91797 5.96117 0
M  V30 4946 H 491.003 -4.42822 5.35662 0
M  V30 4947 H 494.194 -3.20033 3.41609 0
M  V30 4948 H 494.367 -4.24253 4.8981 0
M  V30 4949 N 487.773 -1.03688 -1.18687 0
M  V30 4950 C 488.703 -0.645407 -2.24403 0
M  V30 4951 C 489.684 0.349511 -1.66471 0
M  V30 4952 O 490.869 0.230453 -1.92828 0
M  V30 4953 C 487.999 -0.00365337 -3.473 0
M  V30 4954 C 486.953 -0.921705 -4.17958 0
M  V30 4955 C 486.279 -0.144629 -5.34504 0
M  V30 4956 C 487.579 -2.23909 -4.71871 0
M  V30 4957 H 489.273 -1.52917 -2.57404 0
M  V30 4958 H 486.819 -0.736711 -1.23728 0
M  V30 4959 H 488.772 0.281908 -4.20456 0
M  V30 4960 H 487.496 0.914963 -3.13522 0
M  V30 4961 H 486.155 -1.19159 -3.46694 0
M  V30 4962 H 485.803 0.776274 -4.96974 0
M  V30 4963 H 485.503 -0.756206 -5.82714 0
M  V30 4964 H 487.027 0.134004 -6.10453 0
M  V30 4965 H 488.441 -2.0145 -5.36741 0
M  V30 4966 H 486.838 -2.8033 -5.30599 0
M  V30 4967 H 487.908 -2.88822 -3.895 0
M  V30 4968 N 489.251 1.34841 -0.815825 0
M  V30 4969 C 490.184 2.27504 -0.178062 0
M  V30 4970 C 491.162 1.48542 0.661373 0
M  V30 4971 O 492.346 1.77779 0.626653 0
M  V30 4972 C 489.473 3.30246 0.752002 0
M  V30 4973 C 488.519 4.26499 -0.00899172 0
M  V30 4974 S 489.352 5.18169 -1.35134 0
M  V30 4975 C 490.508 6.24449 -0.42596 0
M  V30 4976 H 490.741 2.81248 -0.963684 0
M  V30 4977 H 488.274 1.41781 -0.611355 0
M  V30 4978 H 490.232 3.89933 1.28308 0
M  V30 4979 H 488.893 2.75363 1.51109 0
M  V30 4980 H 488.086 4.99146 0.697766 0
M  V30 4981 H 487.688 3.7103 -0.470396 0
M  V30 4982 H 489.98 6.76404 0.385234 0
M  V30 4983 H 490.923 6.99156 -1.1219 0
M  V30 4984 H 491.331 5.64497 -0.0175461 0
M  V30 4985 N 490.729 0.570148 1.46925 0
M  V30 4986 C 491.975 0.0510284 2.02736 0
M  V30 4987 C 492.308 -1.3006 1.44215 0
M  V30 4988 O 491.583 -1.84932 0.602521 0
M  V30 4989 C 491.866 -0.028215 3.60089 0
M  V30 4990 C 491.719 1.35142 4.29018 0
M  V30 4991 C 493.038 -0.735181 4.33916 0
M  V30 4992 H 490.157 0.0200178 0.736728 0
M  V30 4993 H 492.799 0.73493 1.75211 0
M  V30 4994 H 490.949 -0.610648 3.83671 0
M  V30 4995 H 492.621 1.97806 4.16738 0
M  V30 4996 H 490.864 1.9226 3.88868 0
M  V30 4997 H 491.535 1.24857 5.37694 0
M  V30 4998 H 494.011 -0.240519 4.15404 0
M  V30 4999 H 492.887 -0.759622 5.43618 0
M  V30 5000 H 493.148 -1.79397 4.04066 0
M  V30 5001 N 492.207 -1.54576 0.307264 0
M  V30 5002 C 493.623 -1.59534 -0.0459251 0
M  V30 5003 C 493.823 -1.32414 -1.51884 0
M  V30 5004 O 492.879 -1.1006 -2.27251 0
M  V30 5005 C 494.192 -2.98566 0.357649 0
M  V30 5006 C 495.74 -3.11491 0.306937 0
M  V30 5007 C 496.215 -4.52842 0.685427 0
M  V30 5008 N 497.706 -4.58782 0.638203 0
M  V30 5009 C 498.441 -5.66238 0.903458 0
M  V30 5010 N 497.937 -6.81703 1.23501 0
M  V30 5011 N 499.73 -5.55937 0.830102 0
M  V30 5012 H 491.881 -1.70464 1.26712 0
M  V30 5013 H 494.144 -0.79647 0.514139 0
M  V30 5014 H 493.85 -3.23356 1.38325 0
M  V30 5015 H 493.724 -3.76117 -0.285565 0
M  V30 5016 H 496.111 -2.86446 -0.709424 0
M  V30 5017 H 496.192 -2.36081 0.984861 0
M  V30 5018 H 495.836 -4.78618 1.69963 0
M  V30 5019 H 495.766 -5.26598 -0.0146346 0
M  V30 5020 H 498.257 -3.75849 0.393138 0
M  V30 5021 H 498.57 -7.59582 1.42322 0
M  V30 5022 H 496.915 -6.8324 1.27311 0
M  V30 5023 H 500.106 -4.64608 0.570693 0
M  V30 5024 H 500.279 -6.39597 1.04019 0
M  V30 5025 N 493.685 -0.035106 -1.57561 0
M  V30 5026 C 494.633 0.962707 -2.11742 0
M  V30 5027 C 495.627 1.33296 -1.0454 0
M  V30 5028 O 496.833 1.31449 -1.22968 0
M  V30 5029 H 493.208 0.32826 -0.676572 0
M  V30 5030 H 495.179 0.48048 -2.94506 0
M  V30 5031 C 493.928 2.23388 -2.66445 0
M  V30 5032 H 493.251 1.95774 -3.48587 0
M  V30 5033 H 494.691 2.91402 -3.07995 0
M  V30 5034 C 493.15 2.96769 -1.59467 0
M  V30 5035 O 493.68 3.89105 -0.998 0
M  V30 5036 N 491.886 2.59212 -1.31369 0
M  V30 5037 H 491.433 1.84202 -1.80076 0
M  V30 5038 H 491.391 3.08618 -0.600173 0
M  V30 5039 N 495.163 1.55791 0.238111 0
M  V30 5040 C 496.126 1.90239 1.27835 0
M  V30 5041 C 497.126 0.779552 1.4064 0
M  V30 5042 O 498.316 1.04747 1.3919 0
M  V30 5043 C 495.448 2.13859 2.65475 0
M  V30 5044 H 496.641 2.83262 0.985034 0
M  V30 5045 H 494.194 1.48818 0.477799 0
M  V30 5046 H 494.929 1.23334 2.99932 0
M  V30 5047 H 494.714 2.95643 2.57561 0
M  V30 5048 H 496.204 2.41664 3.40571 0
M  V30 5049 N 496.642 -0.504142 1.49319 0
M  V30 5050 C 497.605 -1.5883 1.65244 0
M  V30 5051 C 498.605 -1.52009 0.524386 0
M  V30 5052 O 499.795 -1.55218 0.79077 0
M  V30 5053 C 496.927 -2.98481 1.64687 0
M  V30 5054 H 498.12 -1.4604 2.61939 0
M  V30 5055 H 495.673 -0.728144 1.38303 0
M  V30 5056 H 496.408 -3.16751 0.695644 0
M  V30 5057 H 496.193 -3.0484 2.46607 0
M  V30 5058 H 497.683 -3.77256 1.79075 0
M  V30 5059 N 498.12 -1.38341 -0.754957 0
M  V30 5060 C 499.366 -1.34672 -1.51628 0
M  V30 5061 C 499.699 0.0636036 -1.94096 0
M  V30 5062 O 498.974 1.0245 -1.6533 0
M  V30 5063 C 499.257 -2.30116 -2.76981 0
M  V30 5064 C 499.11 -3.80003 -2.4066 0
M  V30 5065 C 500.429 -2.23715 -3.78998 0
M  V30 5066 H 497.548 -0.490517 -0.550056 0
M  V30 5067 H 500.19 -1.69178 -0.864807 0
M  V30 5068 H 498.34 -2.00821 -3.3257 0
M  V30 5069 H 500.012 -4.19966 -1.90856 0
M  V30 5070 H 498.255 -3.97751 -1.73137 0
M  V30 5071 H 498.926 -4.42244 -3.30339 0
M  V30 5072 H 501.402 -2.49574 -3.32945 0
M  V30 5073 H 500.278 -2.9261 -4.64403 0
M  V30 5074 H 500.539 -1.23554 -4.24484 0
M  V30 5075 N 499.598 0.982988 -1.23187 0
M  V30 5076 C 500.561 2.05649 -1.01198 0
M  V30 5077 C 501.561 1.6078 0.0252464 0
M  V30 5078 O 502.751 1.72878 -0.214243 0
M  V30 5079 C 499.883 3.36744 -0.530656 0
M  V30 5080 H 501.076 2.2659 -1.96461 0
M  V30 5081 H 498.629 1.15602 -1.05195 0
M  V30 5082 H 499.364 3.21492 0.425873 0
M  V30 5083 H 499.149 3.7065 -1.2791 0
M  V30 5084 H 500.639 4.15705 -0.397366 0
M  V30 5085 N 501.076 1.04316 1.18135 0
M  V30 5086 C 502.006 0.657299 2.24058 0
M  V30 5087 C 502.987 -0.340678 1.66654 0
M  V30 5088 O 504.172 -0.220223 1.92947 0
M  V30 5089 C 501.302 0.0220715 3.47293 0
M  V30 5090 C 500.256 0.943857 4.17463 0
M  V30 5091 C 499.582 0.172973 5.3442 0
M  V30 5092 C 500.882 2.26409 4.70677 0
M  V30 5093 H 502.576 1.5428 2.56589 0
M  V30 5094 H 500.122 0.743263 1.23335 0
M  V30 5095 H 502.075 -0.259607 4.206 0
M  V30 5096 H 500.799 -0.898323 3.14003 0
M  V30 5097 H 499.458 1.20996 3.46057 0
M  V30 5098 H 499.106 -0.749907 4.97379 0
M  V30 5099 H 498.806 0.787098 5.82304 0
M  V30 5100 H 500.33 -0.101628 6.10515 0
M  V30 5101 H 501.744 2.04294 5.35665 0
M  V30 5102 H 500.141 2.8314 5.29105 0
M  V30 5103 H 501.211 2.90883 3.87962 0
M  V30 5104 N 502.554 -1.34406 0.822964 0
M  V30 5105 C 503.486 -2.28305 0.202375 0
M  V30 5106 C 504.499 -1.5103 -0.60777 0
M  V30 5107 O 505.688 -1.73057 -0.437444 0
M  V30 5108 C 502.788 -3.30836 -0.734911 0
M  V30 5109 C 501.961 -4.37388 0.0324177 0
M  V30 5110 C 501.02 -5.1968 -0.825803 0
M  V30 5111 O 500.046 -5.68556 -0.270771 0
M  V30 5112 N 501.248 -5.39393 -2.14558 0
M  V30 5113 H 504.013 -2.82201 1.00909 0
M  V30 5114 H 501.574 -1.4693 0.67993 0
M  V30 5115 H 503.566 -3.82786 -1.31365 0
M  V30 5116 H 502.136 -2.77334 -1.44238 0
M  V30 5117 H 501.356 -3.86152 0.792469 0
M  V30 5118 H 502.644 -5.05702 0.560633 0
M  V30 5119 H 502.042 -5.01357 -2.62025 0
M  V30 5120 H 500.599 -5.94461 -2.67318 0
M  V30 5121 N 504.032 -0.577932 -1.46621 0
M  V30 5122 C 504.942 0.160651 -2.34049 0
M  V30 5123 C 505.958 0.890911 -1.49462 0
M  V30 5124 O 507.134 0.855166 -1.82343 0
M  V30 5125 C 504.199 1.16447 -3.26559 0
M  V30 5126 C 503.26 0.4394 -4.27045 0
M  V30 5127 C 502.493 1.3954 -5.15135 0
M  V30 5128 O 502.716 2.63162 -5.06065 0
M  V30 5129 O 501.65 0.908585 -5.95003 0
M  V30 5130 H 505.476 -0.557057 -2.98547 0
M  V30 5131 H 503.061 -0.338369 -1.45518 0
M  V30 5132 H 504.943 1.7434 -3.83645 0
M  V30 5133 H 503.618 1.86373 -2.64663 0
M  V30 5134 H 502.525 -0.181247 -3.73661 0
M  V30 5135 H 503.858 -0.218799 -4.91713 0
M  V30 5136 N 505.51 1.54411 -0.315457 0
M  V30 5137 C 506.42 2.27737 0.56329 0
M  V30 5138 C 507.436 1.31787 1.13614 0
M  V30 5139 O 508.612 1.64791 1.15784 0
M  V30 5140 C 505.677 3.01478 1.71207 0
M  V30 5141 C 504.738 4.12997 1.17185 0
M  V30 5142 C 503.971 4.83212 2.26588 0
M  V30 5143 O 504.194 4.52884 3.46775 0
M  V30 5144 O 503.128 5.70299 1.92463 0
M  V30 5145 H 506.954 3.03683 -0.0319614 0
M  V30 5146 H 504.539 1.49178 -0.0814188 0
M  V30 5147 H 506.421 3.47683 2.38106 0
M  V30 5148 H 505.096 2.28414 2.29366 0
M  V30 5149 H 504.003 3.71159 0.468174 0
M  V30 5150 H 505.336 4.8808 0.635501 0
M  V30 5151 N 506.988 0.0434614 1.5754 0
M  V30 5152 C 508.404 -0.313039 1.565 0
M  V30 5153 C 508.604 -1.71954 1.05043 0
M  V30 5154 O 507.66 -2.425 0.703564 0
M  V30 5155 C 508.973 -0.148544 3.00333 0
M  V30 5156 C 510.521 -0.220231 3.12224 0
M  V30 5157 C 510.996 -0.0843565 4.57922 0
M  V30 5158 N 512.487 -0.140881 4.62986 0
M  V30 5159 C 513.222 -0.0597443 5.73369 0
M  V30 5160 N 512.718 0.0733004 6.92761 0
M  V30 5161 N 514.511 -0.11477 5.61983 0
M  V30 5162 H 506.662 0.96303 1.89313 0
M  V30 5163 H 508.925 0.373164 0.871466 0
M  V30 5164 H 508.631 0.820894 3.41986 0
M  V30 5165 H 508.505 -0.912798 3.65989 0
M  V30 5166 H 510.892 -1.18014 2.70475 0
M  V30 5167 H 510.973 0.574646 2.49262 0
M  V30 5168 H 510.617 0.872192 5.00355 0
M  V30 5169 H 510.547 -0.898281 5.18882 0
M  V30 5170 H 513.038 -0.243273 3.77116 0
M  V30 5171 H 513.351 0.128128 7.72694 0
M  V30 5172 H 511.696 0.10828 6.94916 0
M  V30 5173 H 514.887 -0.217212 4.67596 0
M  V30 5174 H 515.06 -0.0480779 6.47982 0
M  V30 5175 N 508.466 -1.55915 -0.229846 0
M  V30 5176 C 509.413 -1.91734 -1.28478 0
M  V30 5177 C 510.383 -0.773539 -1.46988 0
M  V30 5178 O 511.568 -1.02871 -1.60693 0
M  V30 5179 C 508.708 -2.23224 -2.63182 0
M  V30 5180 C 507.821 -3.50497 -2.52539 0
M  V30 5181 C 506.956 -3.71474 -3.79711 0
M  V30 5182 C 505.995 -4.92289 -3.63755 0
M  V30 5183 N 505.132 -5.09698 -4.82858 0
M  V30 5184 H 509.972 -2.81692 -0.972308 0
M  V30 5185 H 507.509 -1.39429 -0.468815 0
M  V30 5186 H 509.467 -2.3949 -3.41614 0
M  V30 5187 H 508.097 -1.36451 -2.92542 0
M  V30 5188 H 507.149 -3.4247 -1.65585 0
M  V30 5189 H 508.461 -4.39079 -2.36666 0
M  V30 5190 H 507.615 -3.87791 -4.66586 0
M  V30 5191 H 506.354 -2.81157 -3.985 0
M  V30 5192 H 505.359 -4.7593 -2.75264 0
M  V30 5193 H 506.584 -5.84083 -3.46445 0
M  V30 5194 H 504.53 -4.22322 -5.01976 0
M  V30 5195 H 504.447 -5.92399 -4.69681 0
M  V30 5196 H 505.715 -5.30443 -5.71183 0
M  V30 5197 N 509.944 0.496216 -1.49584 0
M  V30 5198 C 511.221 1.25755 -1.49816 0
M  V30 5199 C 511.601 2.09859 -0.228572 0
M  V30 5200 O 510.949 2.14449 0.788908 0
M  V30 5201 C 511.159 2.11017 -2.7798 0
M  V30 5202 C 512.507 2.70047 -3.27658 0
M  V30 5203 O 513.531 2.21281 -2.79129 0
M  V30 5204 O 512.39 3.58834 -4.1219 0
M  V30 5205 H 509.484 0.569322 -0.599834 0
M  V30 5206 H 512.03 0.510094 -1.61852 0
M  V30 5207 H 510.802 1.48879 -3.61871 0
M  V30 5208 H 510.425 2.92947 -2.68827 0
M  V30 5209 N 511.423 1.38739 0.74761 0
M  V30 5210 C 512.386 1.36241 1.84312 0
M  V30 5211 C 513.386 0.261811 1.58654 0
M  V30 5212 O 514.576 0.519031 1.66288 0
M  V30 5213 C 511.708 1.12253 3.21888 0
M  V30 5214 H 512.901 2.33712 1.87933 0
M  V30 5215 H 510.454 1.2412 0.949946 0
M  V30 5216 H 511.189 0.154133 3.23934 0
M  V30 5217 H 510.974 1.91943 3.41907 0
M  V30 5218 H 512.464 1.13215 4.0196 0
M  V30 5219 N 512.901 -0.976442 1.23707 0
M  V30 5220 C 514.147 -1.72081 1.07312 0
M  V30 5221 C 514.48 -1.90275 -0.388476 0
M  V30 5222 O 513.755 -1.4579 -1.28746 0
M  V30 5223 C 514.038 -3.11675 1.80363 0
M  V30 5224 C 513.891 -3.01027 3.3422 0
M  V30 5225 C 515.21 -4.1117 1.5693 0
M  V30 5226 H 512.329 -0.624583 0.391236 0
M  V30 5227 H 514.971 -1.13649 1.52263 0
M  V30 5228 H 513.121 -3.61559 1.42153 0
M  V30 5229 H 514.793 -2.58637 3.81975 0
M  V30 5230 H 513.036 -2.3744 3.63049 0
M  V30 5231 H 513.707 -3.9988 3.80525 0
M  V30 5232 H 516.183 -3.7011 1.90151 0
M  V30 5233 H 515.059 -5.06928 2.10513 0
M  V30 5234 H 515.32 -4.392 0.505548 0
M  V30 5235 N 514.379 -1.04941 -1.1758 0
M  V30 5236 C 515.342 -0.652456 -2.19717 0
M  V30 5237 C 516.342 0.294745 -1.58076 0
M  V30 5238 O 517.532 0.0789579 -1.74021 0
M  V30 5239 C 514.664 0.0420712 -3.40874 0
M  V30 5240 H 515.857 -1.55642 -2.5635 0
M  V30 5241 H 513.41 -0.842995 -1.31618 0
M  V30 5242 H 514.145 0.95943 -3.09783 0
M  V30 5243 H 513.93 -0.638844 -3.86861 0
M  V30 5244 H 515.42 0.306 -4.16477 0
M  V30 5245 N 515.857 1.33968 -0.830081 0
M  V30 5246 C 516.787 2.31911 -0.271911 0
M  V30 5247 C 517.768 1.58571 0.61556 0
M  V30 5248 O 518.953 1.86514 0.540946 0
M  V30 5249 C 516.083 3.42737 0.561146 0
M  V30 5250 C 515.037 4.27383 -0.229789 0
M  V30 5251 C 514.363 5.29742 0.726463 0
M  V30 5252 C 515.663 5.02 -1.44197 0
M  V30 5253 H 517.357 2.78844 -1.09025 0
M  V30 5254 H 514.903 1.34061 -0.52571 0
M  V30 5255 H 516.856 4.10276 0.961867 0
M  V30 5256 H 515.58 2.94471 1.41261 0
M  V30 5257 H 514.239 3.61456 -0.611964 0
M  V30 5258 H 513.887 4.77736 1.57408 0
M  V30 5259 H 513.587 5.87255 0.20142 0
M  V30 5260 H 515.111 6.00149 1.12489 0
M  V30 5261 H 516.525 5.62355 -1.11488 0
M  V30 5262 H 514.922 5.69122 -1.90317 0
M  V30 5263 H 515.992 4.31281 -2.2164 0
M  V30 5264 N 517.335 0.585699 1.46312 0
M  V30 5265 C 518.575 0.0751432 2.04262 0
M  V30 5266 C 518.939 -1.26201 1.44697 0
M  V30 5267 O 520.14 -1.86198 1.93865 0
M  V30 5268 C 518.411 0.013478 3.57397 0
M  V30 5269 S 519.97 -0.439068 4.36598 0
M  V30 5270 H 516.788 0.0389228 0.709934 0
M  V30 5271 H 519.39 0.778871 1.79315 0
M  V30 5272 H 518.094 0.990558 3.98266 0
M  V30 5273 H 517.625 -0.712927 3.86886 0
M  V30 5274 H 519.64 -1.6932 4.66417 0
M  V30 5275 N 518.813 -1.54241 0.323641 0
M  V30 5276 C 520.038 -2.05452 -0.283605 0
M  V30 5277 C 520.463 -1.19823 -1.44997 0
M  V30 5278 O 519.821 -0.207358 -1.8011 0
M  V30 5279 C 519.869 -3.53823 -0.695795 0
M  V30 5280 O 518.973 -3.71134 -1.79815 0
M  V30 5281 H 518.314 -0.662024 -0.0511917 0
M  V30 5282 H 520.844 -1.99079 0.472073 0
M  V30 5283 H 520.854 -3.96094 -0.978434 0
M  V30 5284 H 519.529 -4.15602 0.157287 0
M  V30 5285 H 518.106 -3.40768 -1.51431 0
M  V30 5286 N 520.291 -0.0518155 -1.57515 0
M  V30 5287 C 521.224 0.957758 -2.07129 0
M  V30 5288 C 522.202 1.30355 -0.971927 0
M  V30 5289 O 523.386 1.41631 -1.2439 0
M  V30 5290 C 520.513 2.27157 -2.51232 0
M  V30 5291 C 519.559 2.07879 -3.72409 0
M  V30 5292 S 520.392 1.35656 -5.18033 0
M  V30 5293 C 521.548 2.68359 -5.65451 0
M  V30 5294 H 521.781 0.53552 -2.92437 0
M  V30 5295 H 519.314 0.160465 -1.53564 0
M  V30 5296 H 521.272 3.02676 -2.77304 0
M  V30 5297 H 519.933 2.66509 -1.66228 0
M  V30 5298 H 519.126 3.05061 -4.01191 0
M  V30 5299 H 518.728 1.40499 -3.46606 0
M  V30 5300 H 521.02 3.64526 -5.71076 0
M  V30 5301 H 521.963 2.44213 -6.64654 0
M  V30 5302 H 522.371 2.74647 -4.93183 0
M  V30 5303 N 521.769 1.56035 0.221574 0
M  V30 5304 C 522.732 1.91584 1.2581 0
M  V30 5305 C 523.732 0.794425 1.39805 0
M  V30 5306 O 524.922 1.06217 1.38071 0
M  V30 5307 C 522.054 2.16663 2.63192 0
M  V30 5308 H 523.247 2.8429 0.954935 0
M  V30 5309 H 520.8 1.49316 0.461988 0
M  V30 5310 H 521.535 1.26508 2.98607 0
M  V30 5311 H 521.32 2.98358 2.5441 0
M  V30 5312 H 522.81 2.45262 3.37988 0
M  V30 5313 N 523.247 -0.488276 1.49845 0
M  V30 5314 C 524.194 -1.58836 1.67451 0
M  V30 5315 C 525.164 -1.57886 0.515857 0
M  V30 5316 O 526.349 -1.75679 0.744403 0
M  V30 5317 C 523.489 -2.96915 1.75885 0
M  V30 5318 C 522.602 -3.07784 3.03138 0
M  V30 5319 C 521.737 -4.36673 3.02473 0
M  V30 5320 C 520.776 -4.41222 4.24252 0
M  V30 5321 N 519.913 -5.61557 4.21424 0
M  V30 5322 H 524.753 -1.43131 2.61376 0
M  V30 5323 H 522.29 -0.696186 1.29583 0
M  V30 5324 H 524.248 -3.76965 1.78755 0
M  V30 5325 H 522.878 -3.11295 0.85414 0
M  V30 5326 H 521.93 -2.20717 3.09819 0
M  V30 5327 H 523.242 -3.07005 3.93128 0
M  V30 5328 H 522.396 -5.25055 3.03977 0
M  V30 5329 H 521.135 -4.40037 2.10283 0
M  V30 5330 H 520.14 -3.5124 4.22978 0
M  V30 5331 H 521.365 -4.39564 5.17649 0
M  V30 5332 H 519.311 -5.65738 3.32078 0
M  V30 5333 H 519.228 -5.62447 5.05163 0
M  V30 5334 H 520.496 -6.52111 4.2705 0
M  V30 5335 N 524.725 -1.39134 -0.740242 0
M  V30 5336 C 525.655 -1.40165 -1.86751 0
M  V30 5337 C 526.636 -0.265708 -1.68012 0
M  V30 5338 O 527.821 -0.47076 -1.88408 0
M  V30 5339 C 524.951 -1.2392 -3.2444 0
M  V30 5340 C 523.905 -2.34858 -3.57807 0
M  V30 5341 C 523.231 -2.03707 -4.94376 0
M  V30 5342 C 524.531 -3.77159 -3.61315 0
M  V30 5343 H 526.225 -2.345 -1.86145 0
M  V30 5344 H 523.771 -1.12875 -0.89416 0
M  V30 5345 H 525.724 -1.23263 -4.02969 0
M  V30 5346 H 524.448 -0.26051 -3.25559 0
M  V30 5347 H 523.107 -2.34723 -2.81604 0
M  V30 5348 H 522.755 -1.04289 -4.9207 0
M  V30 5349 H 522.455 -2.78016 -5.17669 0
M  V30 5350 H 523.979 -2.04691 -5.75268 0
M  V30 5351 H 525.393 -3.79252 -4.29931 0
M  V30 5352 H 523.79 -4.50784 -3.96124 0
M  V30 5353 H 524.86 -4.08513 -2.61238 0
M  V30 5354 N 526.204 0.969867 -1.24223 0
M  V30 5355 C 527.451 1.71256 -1.08063 0
M  V30 5356 C 527.779 1.90734 0.380872 0
M  V30 5357 O 527.034 1.46469 1.29789 0
M  V30 5358 C 527.333 3.10883 -1.76314 0
M  V30 5359 C 526.999 3.11252 -3.26241 0
M  V30 5360 C 525.661 3.1106 -3.67144 0
M  V30 5361 C 528.013 3.05751 -4.22097 0
M  V30 5362 C 525.341 3.03097 -5.02344 0
M  V30 5363 C 527.693 2.9933 -5.57301 0
M  V30 5364 C 526.357 2.97466 -5.97554 0
M  V30 5365 H 525.627 0.62667 -0.395431 0
M  V30 5366 H 528.274 1.13422 -1.54297 0
M  V30 5367 H 526.579 3.72168 -1.22468 0
M  V30 5368 H 528.276 3.67138 -1.61277 0
M  V30 5369 H 524.866 3.12165 -2.93685 0
M  V30 5370 H 529.05 3.05031 -3.91497 0
M  V30 5371 H 524.306 3.00013 -5.32731 0
M  V30 5372 H 528.48 2.94033 -6.31283 0
M  V30 5373 H 526.107 2.91051 -7.02277 0
M  V30 5374 N 527.682 1.05563 1.17022 0
M  V30 5375 C 528.645 0.664098 2.19368 0
M  V30 5376 C 529.645 -0.286358 1.5823 0
M  V30 5377 O 530.835 -0.069728 1.7406 0
M  V30 5378 C 527.967 -0.0239932 3.40892 0
M  V30 5379 H 529.16 1.57 2.55521 0
M  V30 5380 H 526.713 0.849964 1.31169 0
M  V30 5381 H 527.448 -0.942988 3.10287 0
M  V30 5382 H 527.233 0.659351 3.86516 0
M  V30 5383 H 528.723 -0.283909 4.16634 0
M  V30 5384 N 529.16 -1.33526 0.837174 0
M  V30 5385 C 530.388 -2.02047 0.445494 0
M  V30 5386 C 530.803 -1.62995 -0.952788 0
M  V30 5387 O 530.16 -0.842447 -1.61892 0
M  V30 5388 C 530.211 -3.57221 0.554577 0
M  V30 5389 O 529.932 -3.94863 1.89776 0
M  V30 5390 C 531.433 -4.43012 0.159634 0
M  V30 5391 H 528.653 -0.647221 0.177048 0
M  V30 5392 H 531.197 -1.70492 1.12928 0
M  V30 5393 H 529.352 -3.87315 -0.0812781 0
M  V30 5394 H 529.766 -4.89569 1.88208 0
M  V30 5395 H 531.24 -5.51253 0.28701 0
M  V30 5396 H 531.717 -4.29916 -0.898289 0
M  V30 5397 H 532.323 -4.18274 0.769855 0
M  V30 5398 N 530.638 -0.59345 -1.46 0
M  V30 5399 C 531.915 -0.0157933 -1.95594 0
M  V30 5400 C 532.295 1.44807 -1.53604 0
M  V30 5401 O 531.643 2.14342 -0.791824 0
M  V30 5402 C 531.853 -0.199081 -3.48432 0
M  V30 5403 C 533.201 -0.0724943 -4.24538 0
M  V30 5404 O 534.225 -0.128469 -3.55968 0
M  V30 5405 O 533.084 0.0542426 -5.46473 0
M  V30 5406 H 530.178 0.043749 -0.825842 0
M  V30 5407 H 532.724 -0.662522 -1.56233 0
M  V30 5408 H 531.496 -1.21631 -3.71916 0
M  V30 5409 H 531.119 0.483576 -3.94648 0
M  V30 5410 N 532.116 1.54067 -0.331816 0
M  V30 5411 C 533.026 2.28322 0.539104 0
M  V30 5412 C 534.042 1.32985 1.1221 0
M  V30 5413 O 535.218 1.6601 1.1403 0
M  V30 5414 C 532.283 3.03277 1.68 0
M  V30 5415 C 531.344 4.14216 1.12798 0
M  V30 5416 C 530.577 4.85588 2.2145 0
M  V30 5417 O 530.8 4.56536 3.41952 0
M  V30 5418 O 529.734 5.72309 1.86404 0
M  V30 5419 H 533.56 3.03632 -0.0641692 0
M  V30 5420 H 531.145 1.49083 -0.0972365 0
M  V30 5421 H 533.027 3.50189 2.34405 0
M  V30 5422 H 531.702 2.30834 2.2693 0
M  V30 5423 H 530.609 3.71635 0.428782 0
M  V30 5424 H 531.942 4.88727 0.583698 0
M  V30 5425 N 533.594 0.0601682 1.57485 0
M  V30 5426 C 534.834 -0.615384 1.94916 0
M  V30 5427 C 535.198 -1.67475 0.938948 0
M  V30 5428 O 536.399 -2.40502 1.20051 0
M  V30 5429 C 534.67 -1.18788 3.37082 0
M  V30 5430 S 536.229 -1.88018 3.96478 0
M  V30 5431 H 533.047 -0.201821 0.681754 0
M  V30 5432 H 535.649 0.131252 1.95059 0
M  V30 5433 H 534.353 -0.404869 4.08398 0
M  V30 5434 H 533.884 -1.97114 3.40455 0
M  V30 5435 H 535.899 -3.16161 3.82435 0
M  V30 5436 N 535.072 -1.5615 -0.213296 0
M  V30 5437 C 536.319 -1.79546 -0.936462 0
M  V30 5438 C 536.647 -0.630337 -1.84003 0
M  V30 5439 O 535.902 0.384883 -1.91878 0
M  V30 5440 C 536.201 -3.08772 -1.79985 0
M  V30 5441 C 535.867 -4.38532 -1.04882 0
M  V30 5442 C 534.529 -4.73787 -0.841393 0
M  V30 5443 C 536.881 -5.18609 -0.51907 0
M  V30 5444 C 534.209 -5.86627 -0.0924403 0
M  V30 5445 C 536.561 -6.32229 0.216581 0
M  V30 5446 C 535.225 -6.6608 0.435191 0
M  V30 5447 H 534.495 -0.657004 -0.342676 0
M  V30 5448 H 537.142 -1.9041 -0.204051 0
M  V30 5449 H 535.447 -2.93065 -2.60038 0
M  V30 5450 H 537.144 -3.24077 -2.36168 0
M  V30 5451 H 533.734 -4.10855 -1.22048 0
M  V30 5452 H 537.918 -4.91801 -0.666775 0
M  V30 5453 H 533.174 -6.11338 0.087081 0
M  V30 5454 H 537.348 -6.93503 0.634538 0
M  V30 5455 H 534.975 -7.5336 1.01746 0
M  V30 5456 N 536.55 0.480323 -1.50102 0
M  V30 5457 C 537.513 1.56181 -1.6775 0
M  V30 5458 C 538.513 1.51156 -0.548503 0
M  V30 5459 O 539.703 1.5394 -0.815363 0
M  V30 5460 C 536.835 2.95823 -1.69415 0
M  V30 5461 H 538.028 1.41855 -2.6423 0
M  V30 5462 H 535.581 0.70605 -1.39444 0
M  V30 5463 H 536.316 3.15604 -0.745948 0
M  V30 5464 H 536.101 3.00878 -2.51425 0
M  V30 5465 H 537.591 3.74359 -1.85054 0
M  V30 5466 N 538.028 1.39524 0.732853 0
M  V30 5467 C 539.277 1.36175 1.48792 0
M  V30 5468 C 539.59 -0.0388195 1.95561 0
M  V30 5469 O 540.796 -0.194899 2.708 0
M  V30 5470 C 539.252 2.39242 2.68871 0
M  V30 5471 C 538.86 3.85024 2.29042 0
M  V30 5472 C 540.604 2.44972 3.46683 0
M  V30 5473 C 538.511 4.79727 3.45856 0
M  V30 5474 H 537.441 0.506267 0.558757 0
M  V30 5475 H 540.092 1.65181 0.799226 0
M  V30 5476 H 538.474 2.0331 3.39825 0
M  V30 5477 H 539.648 4.30008 1.6562 0
M  V30 5478 H 537.963 3.82609 1.64316 0
M  V30 5479 H 540.56 3.12918 4.33574 0
M  V30 5480 H 540.903 1.4749 3.89297 0
M  V30 5481 H 541.436 2.79808 2.82759 0
M  V30 5482 H 538.175 5.78479 3.08289 0
M  V30 5483 H 537.695 4.39421 4.08251 0
M  V30 5484 H 539.374 4.98731 4.12161 0
M  V30 5485 N 539.506 -0.963266 1.24736 0
M  V30 5486 C 540.746 -1.72172 1.10165 0
M  V30 5487 C 541.11 -1.88731 -0.352784 0
M  V30 5488 O 542.311 -2.61549 -0.620107 0
M  V30 5489 C 540.582 -3.0724 1.82589 0
M  V30 5490 S 542.141 -3.98449 1.83803 0
M  V30 5491 H 538.959 -0.591901 0.393922 0
M  V30 5492 H 541.561 -1.14955 1.58132 0
M  V30 5493 H 540.265 -2.92851 2.87518 0
M  V30 5494 H 539.796 -3.69521 1.34973 0
M  V30 5495 H 541.811 -4.87805 0.908883 0
M  V30 5496 N 540.985 -1.06182 -1.16461 0
M  V30 5497 C 541.933 -0.665716 -2.2287 0
M  V30 5498 C 542.927 0.317822 -1.66392 0
M  V30 5499 O 544.133 0.182807 -1.79069 0
M  V30 5500 H 540.508 -0.197148 -0.725697 0
M  V30 5501 H 542.479 -1.57307 -2.53569 0
M  V30 5502 C 541.228 -0.0669803 -3.47635 0
M  V30 5503 H 540.551 -0.814899 -3.91407 0
M  V30 5504 H 541.991 0.172669 -4.23648 0
M  V30 5505 C 540.45 1.18913 -3.15216 0
M  V30 5506 O 540.98 2.27723 -3.30916 0
M  V30 5507 N 539.186 1.09066 -2.69357 0
M  V30 5508 H 538.733 0.20518 -2.56782 0
M  V30 5509 H 538.691 1.93195 -2.48039 0
M  V30 5510 N 542.463 1.3308 -0.844243 0
M  V30 5511 C 543.395 2.27954 -0.238671 0
M  V30 5512 C 544.408 1.51978 0.583665 0
M  V30 5513 O 545.597 1.73731 0.409857 0
M  V30 5514 C 542.697 3.31963 0.682185 0
M  V30 5515 C 541.87 4.37281 -0.101998 0
M  V30 5516 C 540.929 5.20928 0.743022 0
M  V30 5517 O 539.955 5.68914 0.180285 0
M  V30 5518 N 541.157 5.42738 2.0595 0
M  V30 5519 H 543.922 2.8056 -1.05386 0
M  V30 5520 H 541.483 1.4583 -0.70322 0
M  V30 5521 H 543.475 3.84828 1.25259 0
M  V30 5522 H 542.045 2.79594 1.39808 0
M  V30 5523 H 541.265 3.84843 -0.853802 0
M  V30 5524 H 542.553 5.04746 -0.641015 0
M  V30 5525 H 541.951 5.05463 2.54016 0
M  V30 5526 H 540.508 5.98639 2.57827 0
M  V30 5527 N 543.941 0.601185 1.45683 0
M  V30 5528 C 544.904 -0.111398 2.28929 0
M  V30 5529 C 545.904 -0.801246 1.39416 0
M  V30 5530 O 547.094 -0.650383 1.61603 0
M  V30 5531 C 544.226 -1.16773 3.20276 0
M  V30 5532 H 545.419 0.620412 2.93413 0
M  V30 5533 H 542.972 0.359946 1.52099 0
M  V30 5534 H 543.707 -1.93051 2.60579 0
M  V30 5535 H 543.492 -0.677358 3.86205 0
M  V30 5536 H 544.982 -1.66698 3.82886 0
M  V30 5537 N 545.419 -1.53889 0.339982 0
M  V30 5538 C 546.349 -2.27843 -0.510856 0
M  V30 5539 C 547.33 -1.29267 -1.10563 0
M  V30 5540 O 548.515 -1.58104 -1.12768 0
M  V30 5541 C 545.645 -3.04857 -1.66372 0
M  V30 5542 C 544.599 -4.10907 -1.19746 0
M  V30 5543 C 543.925 -4.75855 -2.43857 0
M  V30 5544 C 545.225 -5.21435 -0.300501 0
M  V30 5545 H 546.919 -2.99212 0.106067 0
M  V30 5546 H 544.465 -1.43904 0.0524533 0
M  V30 5547 H 546.418 -3.5533 -2.26537 0
M  V30 5548 H 545.142 -2.31133 -2.30749 0
M  V30 5549 H 543.801 -3.61342 -0.618654 0
M  V30 5550 H 543.449 -3.9873 -3.06633 0
M  V30 5551 H 543.149 -5.47502 -2.13343 0
M  V30 5552 H 544.673 -5.2911 -3.04754 0
M  V30 5553 H 546.087 -5.67565 -0.80889 0
M  V30 5554 H 544.484 -6.00036 -0.0874076 0
M  V30 5555 H 545.554 -4.80328 0.664321 0
M  V30 5556 N 546.897 -0.0685191 -1.57451 0
M  V30 5557 C 547.829 0.929372 -2.09512 0
M  V30 5558 C 548.842 1.26354 -1.02657 0
M  V30 5559 O 550.031 1.2213 -1.30179 0
M  V30 5560 C 547.131 2.24612 -2.53777 0
M  V30 5561 C 546.304 2.09128 -3.84167 0
M  V30 5562 C 545.363 3.24079 -4.14559 0
M  V30 5563 O 544.389 2.99215 -4.8421 0
M  V30 5564 N 545.591 4.49077 -3.67845 0
M  V30 5565 H 548.356 0.484901 -2.95751 0
M  V30 5566 H 545.917 0.11729 -1.61475 0
M  V30 5567 H 547.909 3.00412 -2.71172 0
M  V30 5568 H 546.479 2.60569 -1.72692 0
M  V30 5569 H 545.699 1.17815 -3.76182 0
M  V30 5570 H 546.987 1.9603 -4.69521 0
M  V30 5571 H 546.385 4.72165 -3.11571 0
M  V30 5572 H 544.942 5.21915 -3.90446 0
M  V30 5573 N 548.375 1.56261 0.205012 0
M  V30 5574 C 549.308 1.88797 1.28183 0
M  V30 5575 C 550.286 0.747018 1.44424 0
M  V30 5576 O 551.47 0.997039 1.59973 0
M  V30 5577 C 548.597 2.10949 2.64987 0
M  V30 5578 C 547.643 3.33649 2.6567 0
M  V30 5579 S 548.476 4.89078 2.18088 0
M  V30 5580 C 549.632 5.14286 3.56736 0
M  V30 5581 H 549.865 2.79837 1.00393 0
M  V30 5582 H 547.398 1.48911 0.408042 0
M  V30 5583 H 549.356 2.24395 3.4374 0
M  V30 5584 H 548.017 1.20678 2.89993 0
M  V30 5585 H 547.21 3.46245 3.66239 0
M  V30 5586 H 546.812 3.19146 1.94992 0
M  V30 5587 H 549.104 5.04198 4.52537 0
M  V30 5588 H 550.047 6.16096 3.49043 0
M  V30 5589 H 550.455 4.41957 3.51189 0
M  V30 5590 N 549.853 -0.472356 1.50355 0
M  V30 5591 C 550.803 -1.56809 1.65514 0
M  V30 5592 C 551.787 -1.5261 0.509801 0
M  V30 5593 O 552.979 -1.59655 0.764145 0
M  V30 5594 C 550.108 -2.9526 1.75146 0
M  V30 5595 C 549.194 -3.04348 2.95353 0
M  V30 5596 N 549.585 -2.83253 4.19048 0
M  V30 5597 C 547.883 -3.35482 2.93884 0
M  V30 5598 C 548.584 -2.97273 5.00003 0
M  V30 5599 N 547.56 -3.27418 4.33934 0
M  V30 5600 H 551.362 -1.39197 2.58846 0
M  V30 5601 H 548.876 -0.67906 1.47521 0
M  V30 5602 H 550.873 -3.74044 1.8411 0
M  V30 5603 H 549.533 -3.1392 0.829717 0
M  V30 5604 H 550.544 -2.5886 4.48567 0
M  V30 5605 H 547.221 -3.60138 2.11204 0
M  V30 5606 H 548.611 -2.85214 6.08361 0
M  V30 5607 N 551.331 -1.39911 -0.725443 0
M  V30 5608 C 552.579 -1.37382 -1.48224 0
M  V30 5609 C 552.9 0.0264107 -1.94982 0
M  V30 5610 O 552.17 0.979408 -1.6966 0
M  V30 5611 H 550.75 -0.505596 -0.549892 0
M  V30 5612 H 553.412 -1.7487 -0.860608 0
M  V30 5613 H 552.508 -2.04254 -2.3598 0
M  V30 5614 N 552.809 0.956637 -1.25245 0
M  V30 5615 C 554.057 1.69764 -1.09657 0
M  V30 5616 C 554.378 1.91583 0.363464 0
M  V30 5617 O 553.648 1.50149 1.25825 0
M  V30 5618 H 552.228 0.629097 -0.402798 0
M  V30 5619 H 554.89 1.15026 -1.57337 0
M  V30 5620 H 553.986 2.67769 -1.60331 0
M  V30 5621 N 554.287 1.06798 1.15896 0
M  V30 5622 C 555.517 0.807522 1.90165 0
M  V30 5623 C 555.925 -0.642417 1.7796 0
M  V30 5624 O 555.268 -1.45193 1.12537 0
M  V30 5625 C 555.33 1.12939 3.41299 0
M  V30 5626 C 554.994 2.57879 3.7729 0
M  V30 5627 C 555.991 3.56118 3.78782 0
M  V30 5628 C 553.676 2.93311 4.07767 0
M  V30 5629 C 555.67 4.87827 4.10248 0
M  V30 5630 C 553.357 4.25219 4.38899 0
M  V30 5631 C 554.355 5.22287 4.4012 0
M  V30 5632 O 554.043 6.51826 4.70508 0
M  V30 5633 H 553.775 0.291946 0.609708 0
M  V30 5634 H 556.329 1.42627 1.47806 0
M  V30 5635 H 554.559 0.45359 3.84031 0
M  V30 5636 H 556.248 0.852363 3.9685 0
M  V30 5637 H 557.014 3.30086 3.55342 0
M  V30 5638 H 552.893 2.18409 4.05979 0
M  V30 5639 H 556.437 5.63586 4.11116 0
M  V30 5640 H 552.334 4.51006 4.61805 0
M  V30 5641 H 553.102 6.56893 4.88298 0
M  V30 5642 N 555.766 -1.3263 0.851289 0
M  V30 5643 C 557.014 -1.96978 0.452128 0
M  V30 5644 C 557.335 -1.67715 -0.99482 0
M  V30 5645 O 556.605 -0.98259 -1.69476 0
M  V30 5646 H 555.185 -0.72873 0.164202 0
M  V30 5647 H 557.847 -1.61774 1.08698 0
M  V30 5648 H 556.943 -3.06387 0.594407 0
M  V30 5649 N 557.244 -0.608902 -1.45362 0
M  V30 5650 C 558.474 -0.110852 -2.06302 0
M  V30 5651 C 558.882 1.21062 -1.45398 0
M  V30 5652 O 558.225 1.74861 -0.562976 0
M  V30 5653 C 558.287 0.101793 -3.59356 0
M  V30 5654 C 557.951 -1.13808 -4.42602 0
M  V30 5655 C 558.948 -2.05653 -4.77496 0
M  V30 5656 C 556.633 -1.36727 -4.83333 0
M  V30 5657 C 558.627 -3.18745 -5.51978 0
M  V30 5658 C 556.314 -2.5012 -5.57569 0
M  V30 5659 C 557.312 -3.40957 -5.91809 0
M  V30 5660 O 557 -4.52376 -6.64538 0
M  V30 5661 H 556.732 -0.0666001 -0.672711 0
M  V30 5662 H 559.286 -0.836942 -1.87575 0
M  V30 5663 H 557.516 0.88279 -3.76489 0
M  V30 5664 H 559.205 0.551607 -4.02134 0
M  V30 5665 H 559.971 -1.89172 -4.46586 0
M  V30 5666 H 555.85 -0.669216 -4.56117 0
M  V30 5667 H 559.394 -3.8967 -5.78622 0
M  V30 5668 H 555.291 -2.66553 -5.87894 0
M  V30 5669 H 556.059 -4.51075 -6.82989 0
M  V30 5670 N 558.722 1.53707 -0.348139 0
M  V30 5671 C 559.652 2.28111 0.498766 0
M  V30 5672 C 560.633 1.29851 1.09876 0
M  V30 5673 O 561.818 1.587 1.11928 0
M  V30 5674 C 558.948 3.05735 1.64753 0
M  V30 5675 C 557.902 4.11537 1.17565 0
M  V30 5676 C 557.228 4.77142 2.4133 0
M  V30 5677 C 558.528 5.21587 0.272844 0
M  V30 5678 H 560.222 2.99152 -0.121934 0
M  V30 5679 H 557.768 1.43875 -0.0600842 0
M  V30 5680 H 559.721 3.56526 2.24649 0
M  V30 5681 H 558.445 2.32354 2.2952 0
M  V30 5682 H 557.104 3.61665 0.599483 0
M  V30 5683 H 556.752 4.0035 3.04514 0
M  V30 5684 H 556.452 5.48626 2.10436 0
M  V30 5685 H 557.976 5.30719 3.01943 0
M  V30 5686 H 559.39 5.67986 0.778779 0
M  V30 5687 H 557.787 6.00074 0.0555849 0
M  V30 5688 H 558.857 4.79969 -0.689785 0
M  V30 5689 N 560.2 0.0768682 1.57412 0
M  V30 5690 C 561.147 -0.888577 2.13009 0
M  V30 5691 C 562.117 -1.29198 1.0439 0
M  V30 5692 O 563.302 -1.37694 1.3208 0
M  V30 5693 C 560.442 -2.14899 2.70023 0
M  V30 5694 C 559.555 -1.79777 3.92816 0
M  V30 5695 C 558.69 -3.00467 4.38056 0
M  V30 5696 C 557.729 -2.61385 5.53484 0
M  V30 5697 N 556.866 -3.74851 5.93659 0
M  V30 5698 H 561.706 -0.407593 2.95199 0
M  V30 5699 H 559.243 -0.189534 1.45874 0
M  V30 5700 H 561.201 -2.88688 3.0119 0
M  V30 5701 H 559.831 -2.60529 1.9059 0
M  V30 5702 H 558.883 -0.960301 3.68079 0
M  V30 5703 H 560.195 -1.47027 4.76639 0
M  V30 5704 H 559.349 -3.82529 4.7091 0
M  V30 5705 H 558.088 -3.36413 3.53097 0
M  V30 5706 H 557.093 -1.77746 5.20275 0
M  V30 5707 H 558.318 -2.26603 6.40178 0
M  V30 5708 H 556.264 -4.1055 5.11649 0
M  V30 5709 H 556.181 -3.45887 6.72234 0
M  V30 5710 H 557.449 -4.57477 6.31138 0
M  V30 5711 N 561.678 -1.56367 -0.196722 0
M  V30 5712 C 562.955 -1.71359 -0.943159 0
M  V30 5713 C 563.335 -0.631192 -2.01443 0
M  V30 5714 O 562.683 0.358071 -2.25677 0
M  V30 5715 C 562.893 -3.13623 -1.53106 0
M  V30 5716 C 564.241 -3.73806 -2.01381 0
M  V30 5717 O 565.265 -3.16742 -1.62951 0
M  V30 5718 O 564.124 -4.73951 -2.7209 0
M  V30 5719 H 561.218 -0.698851 -0.442195 0
M  V30 5720 H 563.764 -1.68672 -0.186547 0
M  V30 5721 H 562.536 -3.83873 -0.758785 0
M  V30 5722 H 562.159 -3.20532 -2.35255 0
M  V30 5723 N 563.156 0.464375 -1.50603 0
M  V30 5724 C 564.386 1.23727 -1.65454 0
M  V30 5725 C 564.794 1.86119 -0.340032 0
M  V30 5726 O 564.137 1.70301 0.688706 0
M  V30 5727 C 564.199 2.38153 -2.69301 0
M  V30 5728 C 563.863 1.96345 -4.12671 0
M  V30 5729 C 564.86 1.48215 -4.98326 0
M  V30 5730 C 562.545 2.04861 -4.58625 0
M  V30 5731 C 564.539 1.09152 -6.27985 0
M  V30 5732 C 562.226 1.65409 -5.88288 0
M  V30 5733 C 563.224 1.17634 -6.72794 0
M  V30 5734 O 562.912 0.787312 -8.00035 0
M  V30 5735 H 562.644 0.380075 -0.559034 0
M  V30 5736 H 565.198 0.559919 -1.97621 0
M  V30 5737 H 563.428 3.09081 -2.32392 0
M  V30 5738 H 565.117 3.00099 -2.73304 0
M  V30 5739 H 565.883 1.41052 -4.64036 0
M  V30 5740 H 561.762 2.40996 -3.92991 0
M  V30 5741 H 565.306 0.717909 -6.93896 0
M  V30 5742 H 561.203 1.72233 -6.22098 0
M  V30 5743 H 561.971 0.915567 -8.13363 0
M  V30 5744 N 564.634 1.40294 0.718013 0
M  V30 5745 C 565.597 1.4012 1.81381 0
M  V30 5746 C 566.597 0.295405 1.58063 0
M  V30 5747 O 567.787 0.554187 1.6515 0
M  V30 5748 C 564.919 1.19056 3.19435 0
M  V30 5749 H 566.112 2.37645 1.82933 0
M  V30 5750 H 563.665 1.26107 0.923405 0
M  V30 5751 H 564.4 0.222809 3.23534 0
M  V30 5752 H 564.185 1.99152 3.37758 0
M  V30 5753 H 565.675 1.21716 3.99468 0
M  V30 5754 N 566.112 -0.949982 1.2575 0
M  V30 5755 C 567.358 -1.69766 1.10938 0
M  V30 5756 C 567.691 -1.91056 -0.348028 0
M  V30 5757 O 566.966 -1.48488 -1.25625 0
M  V30 5758 C 567.249 -3.07779 1.86933 0
M  V30 5759 C 567.102 -2.9387 3.4053 0
M  V30 5760 C 568.421 -4.07749 1.65616 0
M  V30 5761 H 565.54 -0.616144 0.404396 0
M  V30 5762 H 568.182 -1.10394 1.54639 0
M  V30 5763 H 566.332 -3.58462 1.4979 0
M  V30 5764 H 568.004 -2.50476 3.87375 0
M  V30 5765 H 566.247 -2.29686 3.68004 0
M  V30 5766 H 566.918 -3.91719 3.88922 0
M  V30 5767 H 569.394 -3.65994 1.97959 0
M  V30 5768 H 568.27 -5.02348 2.21218 0
M  V30 5769 H 568.531 -4.38029 0.598595 0
M  V30 5770 N 567.59 -1.07411 -1.15328 0
M  V30 5771 C 568.522 -0.652924 -2.19703 0
M  V30 5772 C 569.535 0.294869 -1.60107 0
M  V30 5773 O 570.724 0.0840932 -1.78302 0
M  V30 5774 C 567.824 0.061434 -3.38844 0
M  V30 5775 C 566.997 -0.902696 -4.27984 0
M  V30 5776 C 566.056 -0.225521 -5.25717 0
M  V30 5777 O 565.082 -0.86676 -5.62562 0
M  V30 5778 N 566.284 1.02858 -5.71315 0
M  V30 5779 H 569.049 -1.55081 -2.56457 0
M  V30 5780 H 566.61 -0.958883 -1.30449 0
M  V30 5781 H 568.602 0.525145 -4.01278 0
M  V30 5782 H 567.172 0.861269 -3.00501 0
M  V30 5783 H 566.392 -1.54551 -3.6264 0
M  V30 5784 H 567.68 -1.55636 -4.84412 0
M  V30 5785 H 567.078 1.56948 -5.43492 0
M  V30 5786 H 565.635 1.43596 -6.35786 0
M  V30 5787 N 569.068 1.32177 -0.85831 0
M  V30 5788 C 570 2.27688 -0.262835 0
M  V30 5789 C 571.013 1.52588 0.567513 0
M  V30 5790 O 572.202 1.74156 0.391407 0
M  V30 5791 C 569.302 3.32668 0.646937 0
M  V30 5792 C 568.475 4.37148 -0.148372 0
M  V30 5793 C 567.534 5.21686 0.687728 0
M  V30 5794 O 566.56 5.69074 0.119934 0
M  V30 5795 N 567.762 5.44892 2.00182 0
M  V30 5796 H 570.527 2.79426 -1.08356 0
M  V30 5797 H 568.088 1.45076 -0.718647 0
M  V30 5798 H 570.08 3.86134 1.2117 0
M  V30 5799 H 568.65 2.81061 1.36834 0
M  V30 5800 H 567.87 3.83915 -0.894572 0
M  V30 5801 H 569.158 5.04038 -0.694514 0
M  V30 5802 H 568.556 5.08128 2.4864 0
M  V30 5803 H 567.113 6.0134 2.51463 0
M  V30 5804 N 570.547 0.616602 1.45037 0
M  V30 5805 C 571.777 0.121791 2.06241 0
M  V30 5806 C 572.185 -1.20289 1.46038 0
M  V30 5807 O 571.528 -1.7456 0.572242 0
M  V30 5808 C 571.59 -0.0827345 3.59405 0
M  V30 5809 C 571.254 1.16153 4.41993 0
M  V30 5810 C 572.251 2.08183 4.76399 0
M  V30 5811 C 569.936 1.39288 4.82601 0
M  V30 5812 C 571.93 3.21668 5.5028 0
M  V30 5813 C 569.617 2.53073 5.56235 0
M  V30 5814 C 570.615 3.44091 5.89992 0
M  V30 5815 O 570.303 4.55894 6.6213 0
M  V30 5816 H 570.035 0.0701667 0.672349 0
M  V30 5817 H 572.589 0.846877 1.87129 0
M  V30 5818 H 570.819 -0.862812 3.76952 0
M  V30 5819 H 572.508 -0.530273 4.02421 0
M  V30 5820 H 573.274 1.91538 4.45576 0
M  V30 5821 H 569.153 0.693396 4.55755 0
M  V30 5822 H 572.697 3.92733 5.76547 0
M  V30 5823 H 568.594 2.69667 5.86472 0
M  V30 5824 H 569.362 4.5469 6.80587 0
M  V30 5825 N 572.025 -1.5352 0.356285 0
M  V30 5826 C 573.271 -2.01414 -0.236653 0
M  V30 5827 C 573.604 -1.24339 -1.49176 0
M  V30 5828 O 572.879 -0.334496 -1.91602 0
M  V30 5829 C 573.162 -3.56059 -0.537982 0
M  V30 5830 C 573.015 -4.43835 0.730112 0
M  V30 5831 C 574.334 -4.19127 -1.34239 0
M  V30 5832 H 571.453 -0.732135 -0.0845386 0
M  V30 5833 H 574.095 -1.83854 0.479341 0
M  V30 5834 H 572.245 -3.71153 -1.14795 0
M  V30 5835 H 573.917 -4.40555 1.36782 0
M  V30 5836 H 572.16 -4.1218 1.3524 0
M  V30 5837 H 572.831 -5.49958 0.474358 0
M  V30 5838 H 575.307 -4.07809 -0.826498 0
M  V30 5839 H 574.183 -5.27378 -1.52198 0
M  V30 5840 H 574.444 -3.74581 -2.34822 0
M  V30 5841 N 573.503 -0.0852151 -1.57369 0
M  V30 5842 C 574.919 0.271436 -1.57275 0
M  V30 5843 C 575.119 1.69109 -1.09565 0
M  V30 5844 O 574.175 2.40549 -0.767611 0
M  V30 5845 C 575.488 0.0688638 -3.00621 0
M  V30 5846 C 577.036 0.137373 -3.12698 0
M  V30 5847 C 577.511 -0.0370832 -4.57985 0
M  V30 5848 N 579.002 0.0180794 -4.63196 0
M  V30 5849 C 579.737 -0.0922953 -5.73326 0
M  V30 5850 N 579.233 -0.256948 -6.92323 0
M  V30 5851 N 581.026 -0.0342702 -5.6209 0
M  V30 5852 H 573.177 -1.01288 -1.86693 0
M  V30 5853 H 575.44 -0.396138 -0.861266 0
M  V30 5854 H 575.146 -0.911277 -3.39689 0
M  V30 5855 H 575.02 0.815442 -3.6828 0
M  V30 5856 H 577.407 1.10801 -2.73509 0
M  V30 5857 H 577.488 -0.640532 -2.47651 0
M  V30 5858 H 577.132 -1.00455 -4.97867 0
M  V30 5859 H 577.062 0.760392 -5.21081 0
M  V30 5860 H 579.553 0.143202 -3.77629 0
M  V30 5861 H 579.866 -0.332949 -7.72082 0
M  V30 5862 H 578.211 -0.292487 -6.94384 0
M  V30 5863 H 581.402 0.0931605 -4.68007 0
M  V30 5864 H 581.575 -0.12374 -6.47882 0
M  V30 5865 N 574.981 1.5647 0.188427 0
M  V30 5866 C 576.258 1.71857 0.934058 0
M  V30 5867 C 576.638 0.641867 2.01105 0
M  V30 5868 O 575.986 -0.346098 2.25864 0
M  V30 5869 C 576.196 3.14431 1.5144 0
M  V30 5870 C 577.544 3.74869 1.99396 0
M  V30 5871 O 578.568 3.17601 1.61269 0
M  V30 5872 O 577.427 4.75387 2.69573 0
M  V30 5873 H 574.521 0.701186 0.438483 0
M  V30 5874 H 577.067 1.68768 0.177599 0
M  V30 5875 H 575.839 3.8427 0.738416 0
M  V30 5876 H 575.462 3.21775 2.33552 0
M  V30 5877 N 576.459 -0.456382 1.50847 0
M  V30 5878 C 577.684 -1.2349 1.66628 0
M  V30 5879 C 578.109 -1.84715 0.355254 0
M  V30 5880 O 577.467 -1.67961 -0.682559 0
M  V30 5881 C 577.515 -2.30865 2.77009 0
M  V30 5882 O 576.619 -3.35882 2.39285 0
M  V30 5883 H 575.96 -0.36266 0.556214 0
M  V30 5884 H 578.49 -0.541374 1.97308 0
M  V30 5885 H 578.5 -2.75949 3.00526 0
M  V30 5886 H 577.175 -1.85677 3.72152 0
M  V30 5887 H 575.752 -2.96406 2.26269 0
M  V30 5888 N 577.937 -1.40673 -0.710563 0
M  V30 5889 C 579.353 -1.22813 -1.01928 0
M  V30 5890 C 579.553 -0.10687 -2.01216 0
M  V30 5891 O 578.609 0.533614 -2.46797 0
M  V30 5892 C 579.922 -2.57178 -1.5582 0
M  V30 5893 C 581.47 -2.64233 -1.67779 0
M  V30 5894 C 581.945 -3.98879 -2.25076 0
M  V30 5895 N 583.436 -4.00647 -2.32456 0
M  V30 5896 C 584.171 -5.01621 -2.77784 0
M  V30 5897 N 583.667 -6.12989 -3.22826 0
M  V30 5898 N 585.46 -4.88988 -2.77213 0
M  V30 5899 H 577.611 -2.12335 -0.05253 0
M  V30 5900 H 579.874 -0.9441 -0.085898 0
M  V30 5901 H 579.58 -3.39903 -0.903249 0
M  V30 5902 H 579.454 -2.78618 -2.54267 0
M  V30 5903 H 581.841 -1.81876 -2.3239 0
M  V30 5904 H 581.922 -2.46619 -0.679178 0
M  V30 5905 H 581.566 -4.81678 -1.61086 0
M  V30 5906 H 581.496 -4.13826 -3.25661 0
M  V30 5907 H 583.987 -3.20231 -2.0065 0
M  V30 5908 H 584.3 -6.85921 -3.55995 0
M  V30 5909 H 582.645 -6.16547 -3.20773 0
M  V30 5910 H 585.836 -4.01075 -2.41363 0
M  V30 5911 H 586.009 -5.67822 -3.12221 0
M  V30 5912 N 579.415 0.9433 -1.26252 0
M  V30 5913 C 580.661 1.69175 -1.11837 0
M  V30 5914 C 580.994 1.91238 0.337891 0
M  V30 5915 O 580.269 1.49152 1.24836 0
M  V30 5916 C 580.552 3.06783 -1.88563 0
M  V30 5917 C 580.405 2.9206 -3.42083 0
M  V30 5918 C 581.724 4.06865 -1.67776 0
M  V30 5919 H 578.843 0.61399 -0.407658 0
M  V30 5920 H 581.485 1.09572 -1.55222 0
M  V30 5921 H 579.635 3.57663 -1.51689 0
M  V30 5922 H 581.307 2.48419 -3.88698 0
M  V30 5923 H 579.55 2.27731 -3.69217 0
M  V30 5924 H 580.221 3.89651 -3.90994 0
M  V30 5925 H 582.697 3.64939 -1.99897 0
M  V30 5926 H 581.573 5.01168 -2.23879 0
M  V30 5927 H 581.834 4.37705 -0.621816 0
M  V30 5928 N 580.893 1.08022 1.14757 0
M  V30 5929 C 581.843 0.676345 2.17737 0
M  V30 5930 C 582.827 -0.302018 1.5804 0
M  V30 5931 O 584.019 -0.11466 1.76628 0
M  V30 5932 C 581.148 0.082984 3.432 0
M  V30 5933 C 580.234 1.0869 4.09936 0
M  V30 5934 N 580.625 2.26891 4.52055 0
M  V30 5935 C 578.923 0.921768 4.36371 0
M  V30 5936 C 579.624 2.90636 5.0389 0
M  V30 5937 N 578.6 2.18266 4.97856 0
M  V30 5938 H 582.402 1.5765 2.4804 0
M  V30 5939 H 579.916 0.954374 1.31398 0
M  V30 5940 H 581.913 -0.224289 4.16296 0
M  V30 5941 H 580.573 -0.812206 3.14378 0
M  V30 5942 H 581.584 2.6457 4.45223 0
M  V30 5943 H 578.261 0.0800499 4.17423 0
M  V30 5944 H 579.651 3.9104 5.46386 0
M  V30 5945 N 582.371 -1.3172 0.865308 0
M  V30 5946 C 583.303 -2.27545 0.274906 0
M  V30 5947 C 584.316 -1.52887 -0.559413 0
M  V30 5948 O 585.505 -1.74361 -0.382166 0
M  V30 5949 C 582.605 -3.33006 -0.629286 0
M  V30 5950 C 581.778 -4.37063 0.171553 0
M  V30 5951 C 580.837 -5.22044 -0.660052 0
M  V30 5952 O 579.863 -5.69129 -0.0897527 0
M  V30 5953 N 581.065 -5.45946 -1.97289 0
M  V30 5954 H 583.83 -2.78848 1.09836 0
M  V30 5955 H 581.391 -1.44693 0.726331 0
M  V30 5956 H 583.383 -3.86772 -1.19121 0
M  V30 5957 H 581.953 -2.81782 -1.35342 0
M  V30 5958 H 581.173 -3.83436 0.914919 0
M  V30 5959 H 582.461 -5.03662 0.721235 0
M  V30 5960 H 581.859 -5.0944 -2.45942 0
M  V30 5961 H 580.416 -6.02665 -2.4827 0
M  V30 5962 N 583.85 -0.624285 -1.44708 0
M  V30 5963 C 585.099 -0.123539 -2.01321 0
M  V30 5964 C 585.412 1.25966 -1.49639 0
M  V30 5965 O 586.618 1.85405 -1.98336 0
M  V30 5966 C 585.074 -0.170124 -3.59498 0
M  V30 5967 C 584.682 -1.55421 -4.20176 0
M  V30 5968 C 586.426 0.274513 -4.23611 0
M  V30 5969 C 584.332 -1.55628 -5.70556 0
M  V30 5970 H 583.263 -0.0424183 -0.752806 0
M  V30 5971 H 585.913 -0.782076 -1.65999 0
M  V30 5972 H 584.296 0.555385 -3.92086 0
M  V30 5973 H 585.47 -2.30276 -3.99136 0
M  V30 5974 H 583.784 -1.94235 -3.68323 0
M  V30 5975 H 586.382 0.292402 -5.339 0
M  V30 5976 H 586.725 1.3005 -3.95465 0
M  V30 5977 H 587.258 -0.398275 -3.95801 0
M  V30 5978 H 583.997 -2.56041 -6.03426 0
M  V30 5979 H 583.517 -0.850563 -5.93739 0
M  V30 5980 H 585.196 -1.28721 -6.34066 0
M  V30 5981 N 585.328 1.53329 -0.364422 0
M  V30 5982 C 586.258 2.28627 0.474543 0
M  V30 5983 C 587.239 1.31009 1.08492 0
M  V30 5984 O 588.424 1.59878 1.10239 0
M  V30 5985 C 585.554 3.07465 1.61501 0
M  V30 5986 C 584.508 4.1276 1.13194 0
M  V30 5987 C 583.834 4.79674 2.36255 0
M  V30 5988 C 585.134 5.21847 0.217507 0
M  V30 5989 H 586.828 2.99005 -0.153656 0
M  V30 5990 H 584.374 1.43803 -0.0753406 0
M  V30 5991 H 586.327 3.58889 2.20855 0
M  V30 5992 H 585.051 2.34775 2.27042 0
M  V30 5993 H 583.71 3.62281 0.56109 0
M  V30 5994 H 583.358 4.03557 3.00251 0
M  V30 5995 H 583.058 5.50827 2.04606 0
M  V30 5996 H 584.582 5.33892 2.96297 0
M  V30 5997 H 585.996 5.6878 0.718493 0
M  V30 5998 H 584.393 6.00099 -0.00806408 0
M  V30 5999 H 585.463 4.7921 -0.740653 0
M  V30 6000 N 586.806 0.0935595 1.57322 0
M  V30 6001 C 587.716 -0.880192 2.17462 0
M  V30 6002 C 588.732 -1.31135 1.14366 0
M  V30 6003 O 589.908 -1.37958 1.46729 0
M  V30 6004 C 586.973 -2.12184 2.74188 0
M  V30 6005 C 586.034 -1.74503 3.92234 0
M  V30 6006 C 585.267 -2.92748 4.46245 0
M  V30 6007 O 585.49 -4.07427 3.99198 0
M  V30 6008 O 584.424 -2.71303 5.37288 0
M  V30 6009 H 588.25 -0.398516 3.01074 0
M  V30 6010 H 585.835 -0.130707 1.48827 0
M  V30 6011 H 587.717 -2.84953 3.10451 0
M  V30 6012 H 586.392 -2.59407 1.93623 0
M  V30 6013 H 585.299 -0.989186 3.60785 0
M  V30 6014 H 586.632 -1.32044 4.74157 0
M  V30 6015 N 588.284 -1.56567 -0.180126 0
M  V30 6016 C 589.532 -1.81133 -0.896392 0
M  V30 6017 C 589.853 -0.669114 -1.83161 0
M  V30 6018 O 589.123 0.311616 -1.93406 0
M  V30 6019 H 587.703 -0.668172 -0.333999 0
M  V30 6020 H 590.365 -1.94048 -0.182051 0
M  V30 6021 H 589.461 -2.74854 -1.47857 0
M  V30 6022 N 589.762 0.448376 -1.51087 0
M  V30 6023 C 590.987 1.22605 -1.6728 0
M  V30 6024 C 591.412 1.84524 -0.365045 0
M  V30 6025 O 590.77 1.6832 0.673642 0
M  V30 6026 C 590.818 2.29393 -2.78229 0
M  V30 6027 O 589.922 3.34608 -2.41063 0
M  V30 6028 H 589.263 0.359705 -0.558129 0
M  V30 6029 H 591.793 0.530903 -1.97592 0
M  V30 6030 H 591.803 2.74352 -3.01986 0
M  V30 6031 H 590.478 1.83701 -3.73131 0
M  V30 6032 H 589.055 2.95202 -2.27838 0
M  V30 6033 N 591.24 1.41047 0.703093 0
M  V30 6034 C 592.188 1.42494 1.83843 0
M  V30 6035 C 593.182 0.303885 1.66652 0
M  V30 6036 O 594.388 0.475544 1.73605 0
M  V30 6037 H 590.763 0.445685 0.605697 0
M  V30 6038 H 592.734 2.38194 1.79739 0
M  V30 6039 C 591.483 1.31666 3.21807 0
M  V30 6040 H 590.806 2.17212 3.35647 0
M  V30 6041 H 592.246 1.36738 4.01346 0
M  V30 6042 C 590.705 0.0281828 3.36888 0
M  V30 6043 O 591.235 -0.929995 3.90786 0
M  V30 6044 N 589.441 -0.0454322 2.90564 0
M  V30 6045 H 588.988 0.735046 2.4689 0
M  V30 6046 H 588.946 -0.906968 3.01034 0
M  V30 6047 N 592.718 -0.936591 1.26751 0
M  V30 6048 C 593.628 -2.06949 1.10496 0
M  V30 6049 C 594.644 -1.7396 0.037271 0
M  V30 6050 O 595.82 -1.99941 0.241944 0
M  V30 6051 C 592.885 -3.38612 0.744491 0
M  V30 6052 C 591.946 -3.85355 1.89209 0
M  V30 6053 C 591.179 -5.10735 1.54873 0
M  V30 6054 O 591.402 -5.68602 0.452546 0
M  V30 6055 O 590.336 -5.52632 2.38499 0
M  V30 6056 H 594.162 -2.23571 2.05547 0
M  V30 6057 H 591.747 -1.05428 1.05855 0
M  V30 6058 H 593.629 -4.17711 0.556396 0
M  V30 6059 H 592.304 -3.23218 -0.176582 0
M  V30 6060 H 591.211 -3.07182 2.13518 0
M  V30 6061 H 592.544 -4.05277 2.79305 0
M  V30 6062 N 594.196 -1.08629 -1.14182 0
M  V30 6063 C 595.442 -0.818556 -1.85546 0
M  V30 6064 C 595.775 0.654076 -1.82854 0
M  V30 6065 O 595.05 1.48099 -1.26083 0
M  V30 6066 C 595.333 -1.34397 -3.3408 0
M  V30 6067 C 595.186 -2.8821 -3.45333 0
M  V30 6068 C 596.505 -0.971069 -4.29253 0
M  V30 6069 H 593.624 -0.298821 -0.673702 0
M  V30 6070 H 596.266 -1.34629 -1.34071 0
M  V30 6071 H 594.416 -0.895064 -3.78049 0
M  V30 6072 H 596.088 -3.41488 -3.10134 0
M  V30 6073 H 594.331 -3.25756 -2.86471 0
M  V30 6074 H 595.002 -3.20047 -4.49749 0
M  V30 6075 H 597.478 -1.35809 -3.93313 0
M  V30 6076 H 596.354 -1.36586 -5.31635 0
M  V30 6077 H 596.615 0.121659 -4.41933 0
M  V30 6078 N 595.674 1.31259 -0.872281 0
M  V30 6079 C 596.607 2.26544 -0.274394 0
M  V30 6080 C 597.585 1.51213 0.597776 0
M  V30 6081 O 598.769 1.80277 0.550687 0
M  V30 6082 C 595.896 3.33139 0.611256 0
M  V30 6083 C 594.942 4.26077 -0.189876 0
M  V30 6084 S 595.775 5.11971 -1.56989 0
M  V30 6085 C 596.931 6.2208 -0.690427 0
M  V30 6086 H 597.164 2.76908 -1.0821 0
M  V30 6087 H 594.697 1.3906 -0.670939 0
M  V30 6088 H 596.655 3.95024 1.11654 0
M  V30 6089 H 595.316 2.81525 1.39294 0
M  V30 6090 H 594.509 5.01657 0.485433 0
M  V30 6091 H 594.111 3.68701 -0.627339 0
M  V30 6092 H 596.403 6.77429 0.098001 0
M  V30 6093 H 597.346 6.93768 -1.41742 0
M  V30 6094 H 597.754 5.63915 -0.256953 0
M  V30 6095 N 597.152 0.631951 1.44375 0
M  V30 6096 C 598.568 0.297642 1.568 0
M  V30 6097 C 598.768 -1.19916 1.61934 0
M  V30 6098 O 597.824 -1.98324 1.56281 0
M  V30 6099 C 599.137 0.990286 2.83926 0
M  V30 6100 C 600.685 0.968507 2.97639 0
M  V30 6101 C 601.16 1.64163 4.27568 0
M  V30 6102 N 602.651 1.60826 4.34384 0
M  V30 6103 C 603.386 2.09802 5.33639 0
M  V30 6104 N 602.882 2.66973 6.39294 0
M  V30 6105 N 604.675 2.00426 5.25153 0
M  V30 6106 H 596.826 1.60353 1.39286 0
M  V30 6107 H 599.089 0.673142 0.667521 0
M  V30 6108 H 598.795 2.04519 2.8612 0
M  V30 6109 H 598.669 0.528563 3.73478 0
M  V30 6110 H 601.056 -0.0779247 2.94997 0
M  V30 6111 H 601.137 1.46873 2.09433 0
M  V30 6112 H 600.781 2.68752 4.3097 0
M  V30 6113 H 600.711 1.11624 5.14634 0
M  V30 6114 H 603.202 1.19087 3.58646 0
M  V30 6115 H 603.515 3.02074 7.11316 0
M  V30 6116 H 601.86 2.71024 6.39977 0
M  V30 6117 H 605.051 1.55483 4.41523 0
M  V30 6118 H 605.224 2.38906 6.02352 0
M  V30 6119 N 598.631 -1.53133 0.372548 0
M  V30 6120 C 599.88 -2.00539 -0.216115 0
M  V30 6121 C 600.193 -1.26374 -1.49295 0
M  V30 6122 O 601.399 -1.64404 -2.16064 0
M  V30 6123 C 599.855 -3.57253 -0.435678 0
M  V30 6124 C 599.463 -4.40302 0.82693 0
M  V30 6125 C 601.207 -4.12995 -0.981618 0
M  V30 6126 C 599.114 -5.88583 0.576567 0
M  V30 6127 H 598.044 -0.749246 -0.084536 0
M  V30 6128 H 600.695 -1.76771 0.492364 0
M  V30 6129 H 599.077 -3.77202 -1.20559 0
M  V30 6130 H 600.251 -4.32124 1.60017 0
M  V30 6131 H 598.566 -3.95699 1.29659 0
M  V30 6132 H 601.163 -5.21418 -1.18436 0
M  V30 6133 H 601.506 -3.68027 -1.94581 0
M  V30 6134 H 602.039 -3.96871 -0.271696 0
M  V30 6135 H 598.778 -6.37841 1.51128 0
M  V30 6136 H 598.298 -5.99592 -0.158047 0
M  V30 6137 H 599.977 -6.46676 0.204722 0
M  V30 6138 N 600.109 -0.101901 -1.5727 0
M  V30 6139 C 601.039 0.851544 -2.17419 0
M  V30 6140 C 602.02 1.28942 -1.10941 0
M  V30 6141 O 603.205 1.35509 -1.39107 0
M  V30 6142 C 600.335 2.10816 -2.75996 0
M  V30 6143 C 599.289 1.80867 -3.87906 0
M  V30 6144 C 598.615 3.13413 -4.33216 0
M  V30 6145 C 599.915 1.0903 -5.10793 0
M  V30 6146 H 601.609 0.350381 -2.97343 0
M  V30 6147 H 599.155 0.16709 -1.43027 0
M  V30 6148 H 601.108 2.77959 -3.16729 0
M  V30 6149 H 599.832 2.63227 -1.93337 0
M  V30 6150 H 598.491 1.16119 -3.47724 0
M  V30 6151 H 598.139 3.63725 -3.47438 0
M  V30 6152 H 597.839 2.94155 -5.08671 0
M  V30 6153 H 599.363 3.81704 -4.76586 0
M  V30 6154 H 600.777 1.66295 -5.48652 0
M  V30 6155 H 599.174 0.99927 -5.91722 0
M  V30 6156 H 600.244 0.0741704 -4.84843 0
M  V30 6157 N 601.587 1.56661 0.17182 0
M  V30 6158 C 602.836 1.81158 0.886831 0
M  V30 6159 C 603.149 0.679072 1.83434 0
M  V30 6160 O 604.355 0.808964 2.59168 0
M  V30 6161 C 602.811 3.20999 1.6275 0
M  V30 6162 C 602.419 4.42117 0.723652 0
M  V30 6163 C 604.163 3.5479 2.33076 0
M  V30 6164 C 602.07 5.7298 1.46452 0
M  V30 6165 H 601 0.675543 0.334899 0
M  V30 6166 H 603.651 1.82967 0.139765 0
M  V30 6167 H 602.033 3.13506 2.4193 0
M  V30 6168 H 603.207 4.60789 -0.0311485 0
M  V30 6169 H 601.522 4.16197 0.130063 0
M  V30 6170 H 604.119 4.49806 2.89099 0
M  V30 6171 H 604.462 2.79646 3.08389 0
M  V30 6172 H 604.995 3.63834 1.6084 0
M  V30 6173 H 601.734 6.51152 0.753729 0
M  V30 6174 H 601.254 5.58285 2.19266 0
M  V30 6175 H 602.933 6.14916 2.01214 0
M  V30 6176 N 603.065 -0.440357 1.51323 0
M  V30 6177 C 604.29 -1.21716 1.67928 0
M  V30 6178 C 604.715 -1.84328 0.374826 0
M  V30 6179 O 604.073 -1.68675 -0.664706 0
M  V30 6180 C 604.121 -2.27914 2.79442 0
M  V30 6181 O 603.225 -3.33325 2.42834 0
M  V30 6182 H 602.566 -0.35674 0.560029 0
M  V30 6183 H 605.096 -0.520417 1.97871 0
M  V30 6184 H 605.106 -2.72746 3.03436 0
M  V30 6185 H 603.781 -1.8172 3.741 0
M  V30 6186 H 602.358 -2.9399 2.294 0
M  V30 6187 N 604.543 -1.41418 -0.695603 0
M  V30 6188 C 605.959 -1.23887 -1.00619 0
M  V30 6189 C 606.159 -0.128206 -2.01092 0
M  V30 6190 O 605.215 0.507408 -2.47349 0
M  V30 6191 C 606.528 -2.58816 -1.53083 0
M  V30 6192 C 608.076 -2.65998 -1.64967 0
M  V30 6193 C 608.551 -4.01244 -2.20833 0
M  V30 6194 N 610.042 -4.0309 -2.28194 0
M  V30 6195 C 610.777 -5.04539 -2.72448 0
M  V30 6196 N 610.273 -6.16378 -3.16306 0
M  V30 6197 N 612.066 -4.91901 -2.72011 0
M  V30 6198 H 604.217 -2.12379 -0.0300061 0
M  V30 6199 H 606.48 -0.944958 -0.0758797 0
M  V30 6200 H 606.186 -3.40842 -0.867147 0
M  V30 6201 H 606.06 -2.81299 -2.51298 0
M  V30 6202 H 608.447 -1.84331 -2.30448 0
M  V30 6203 H 608.528 -2.47325 -0.652982 0
M  V30 6204 H 608.172 -4.83359 -1.55968 0
M  V30 6205 H 608.102 -4.17257 -3.21254 0
M  V30 6206 H 610.593 -3.22341 -1.97242 0
M  V30 6207 H 610.906 -6.89658 -3.487 0
M  V30 6208 H 609.251 -6.19914 -3.14215 0
M  V30 6209 H 612.442 -4.03613 -2.37095 0
M  V30 6210 H 612.615 -5.71102 -3.06181 0
M  V30 6211 N 606.021 0.929856 -1.27246 0
M  V30 6212 C 607.246 1.71674 -1.16374 0
M  V30 6213 C 607.671 1.86064 0.276024 0
M  V30 6214 O 607.029 1.3591 1.19992 0
M  V30 6215 C 607.077 3.09526 -1.85003 0
M  V30 6216 O 606.181 3.96142 -1.14653 0
M  V30 6217 H 605.522 0.52629 -0.404863 0
M  V30 6218 H 608.052 1.16381 -1.68276 0
M  V30 6219 H 608.062 3.59852 -1.92276 0
M  V30 6220 H 606.737 2.98369 -2.89739 0
M  V30 6221 H 605.314 3.54584 -1.15433 0
M  V30 6222 N 607.499 1.09233 1.13605 0
M  V30 6223 C 608.429 0.751738 2.21068 0
M  V30 6224 C 609.41 -0.269688 1.67948 0
M  V30 6225 O 610.595 -0.13819 1.93708 0
M  V30 6226 C 607.725 0.16935 3.46887 0
M  V30 6227 C 606.679 1.12007 4.13084 0
M  V30 6228 C 606.005 0.399483 5.33206 0
M  V30 6229 C 607.305 2.46168 4.6065 0
M  V30 6230 H 608.999 1.65024 2.49815 0
M  V30 6231 H 606.545 0.794905 1.20072 0
M  V30 6232 H 608.498 -0.0809824 4.21322 0
M  V30 6233 H 607.222 -0.764335 3.1753 0
M  V30 6234 H 605.881 1.35564 3.40614 0
M  V30 6235 H 605.529 -0.538277 5.00112 0
M  V30 6236 H 605.229 1.03337 5.78442 0
M  V30 6237 H 606.753 0.157403 6.10397 0
M  V30 6238 H 608.167 2.26829 5.26518 0
M  V30 6239 H 606.564 3.05326 5.1662 0
M  V30 6240 H 607.634 3.07076 3.75276 0
M  V30 6241 N 608.977 -1.30795 0.87923 0
M  V30 6242 C 609.907 -2.30742 0.357796 0
M  V30 6243 C 610.888 -1.60747 -0.556283 0
M  V30 6244 O 612.073 -1.88393 -0.47135 0
M  V30 6245 C 609.203 -3.44583 -0.433555 0
M  V30 6246 C 608.157 -4.26235 0.388251 0
M  V30 6247 C 607.483 -5.32073 -0.529352 0
M  V30 6248 C 608.783 -4.96303 1.62729 0
M  V30 6249 H 610.477 -2.74605 1.19299 0
M  V30 6250 H 608.023 -1.32017 0.575104 0
M  V30 6251 H 609.976 -4.13563 -0.808934 0
M  V30 6252 H 608.7 -2.99511 -1.30234 0
M  V30 6253 H 607.359 -3.58936 0.745695 0
M  V30 6254 H 607.007 -4.83249 -1.39569 0
M  V30 6255 H 606.707 -5.87598 0.0166741 0
M  V30 6256 H 608.231 -6.0391 -0.901373 0
M  V30 6257 H 609.645 -5.5783 1.32283 0
M  V30 6258 H 608.042 -5.61666 2.11309 0
M  V30 6259 H 609.112 -4.22758 2.37494 0
M  V30 6260 N 610.455 -0.639598 -1.44038 0
M  V30 6261 C 611.387 0.0987684 -2.28987 0
M  V30 6262 C 612.4 0.80058 -1.41755 0
M  V30 6263 O 613.589 0.660611 -1.65826 0
M  V30 6264 C 610.689 1.16242 -3.18341 0
M  V30 6265 C 609.862 0.541447 -4.34036 0
M  V30 6266 C 608.921 1.50017 -5.04362 0
M  V30 6267 O 607.947 1.01403 -5.60095 0
M  V30 6268 N 609.149 2.83441 -5.06598 0
M  V30 6269 H 611.914 -0.630305 -2.92997 0
M  V30 6270 H 609.475 -0.481376 -1.54578 0
M  V30 6271 H 611.467 1.80429 -3.62253 0
M  V30 6272 H 610.037 1.79362 -2.56024 0
M  V30 6273 H 609.257 -0.27923 -3.9321 0
M  V30 6274 H 610.545 0.107379 -5.08687 0
M  V30 6275 H 609.943 3.2551 -4.62666 0
M  V30 6276 H 608.5 3.42966 -5.54272 0
M  V30 6277 N 611.933 1.52934 -0.380664 0
M  V30 6278 C 612.843 2.29921 0.466192 0
M  V30 6279 C 613.859 1.36488 1.07922 0
M  V30 6280 O 615.035 1.69553 1.0869 0
M  V30 6281 C 612.1 3.08468 1.58266 0
M  V30 6282 C 611.161 4.17595 0.995627 0
M  V30 6283 C 610.394 4.92387 2.05889 0
M  V30 6284 O 610.617 4.67184 3.27254 0
M  V30 6285 O 609.551 5.77949 1.68102 0
M  V30 6286 H 613.377 3.03274 -0.160735 0
M  V30 6287 H 610.962 1.48698 -0.144617 0
M  V30 6288 H 612.844 3.57469 2.23145 0
M  V30 6289 H 611.519 2.37937 2.19471 0
M  V30 6290 H 610.426 3.72811 0.310332 0
M  V30 6291 H 611.759 4.90336 0.427918 0
M  V30 6292 O 613.45 0.250515 1.59545 0
M  V30 6293 H 614.141 -0.324371 1.90965 0
M  V30 END ATOM
M  V30 BEGIN BOND
M  V30 END BOND
M  V30 END CTAB
M  END
$$$$
