drugbank_target|Q9UKG9 Peroxisomal carnitine O-octanoyltransferase (DB00583; DB02648; DB03832)
 OpenBabel12092119303D

  0  0  0     0  0            999 V3000
M  V30 BEGIN CTAB
M  V30 COUNTS 9814 9940 0 0 0
M  V30 BEGIN ATOM
M  V30 1 H -0.908 1.98254 -0.117106 0
M  V30 2 N 0 1.576 0 0
M  V30 3 C 0.933 2.03868 1.02534 0
M  V30 4 C 1.911 0.928543 1.3348 0
M  V30 5 O 3.095 1.19667 1.45644 0
M  V30 6 C 0.222 2.43627 2.35294 0
M  V30 7 C -0.732 3.65373 2.2001 0
M  V30 8 S 0.101 5.13292 1.52614 0
M  V30 9 C 1.257 5.56322 2.86805 0
M  V30 10 H 1.49 2.90518 0.631377 0
M  V30 11 H -0.977 1.52953 0.210867 0
M  V30 12 H 0.981 2.67203 3.11629 0
M  V30 13 H -0.358 1.57376 2.7183 0
M  V30 14 H -1.165 3.90944 3.18086 0
M  V30 15 H -1.563 3.418 1.51819 0
M  V30 16 H 0.729 5.58782 3.83104 0
M  V30 17 H 1.672 6.56266 2.65933 0
M  V30 18 H 2.08 4.83886 2.90714 0
M  V30 19 N 1.4781 -0.272755 1.55222 0
M  V30 20 C 2.3881 -1.35918 1.91216 0
M  V30 21 C 3.4041 -1.54026 0.809436 0
M  V30 22 O 4.5801 -1.68148 1.10852 0
M  V30 23 C 1.6451 -2.69834 2.17693 0
M  V30 24 C 0.7061 -2.6047 3.41253 0
M  V30 25 C -0.0609 -3.88 3.66458 0
M  V30 26 O 0.1621 -4.88693 2.94169 0
M  V30 27 O -0.9039 -3.88189 4.59992 0
M  V30 28 H 2.9221 -1.0839 2.83699 0
M  V30 29 H 0.5071 -0.471301 1.41771 0
M  V30 30 H 2.3891 -3.49017 2.36147 0
M  V30 31 H 1.0641 -2.97148 1.28392 0
M  V30 32 H -0.0289 -1.79663 3.28134 0
M  V30 33 H 1.3041 -2.38106 4.30774 0
M  V30 34 N 2.9562 -1.48159 -0.537278 0
M  V30 35 C 3.9042 -1.62573 -1.66352 0
M  V30 36 C 4.8982 -0.492366 -1.62087 0
M  V30 37 O 6.1042 -0.670847 -1.67032 0
M  V30 38 H 2.4792 -0.511992 -0.550789 0
M  V30 39 H 4.4502 -2.57176 -1.51337 0
M  V30 40 C 3.1992 -1.67583 -3.04649 0
M  V30 41 H 2.5222 -2.54151 -3.08622 0
M  V30 42 H 3.9622 -1.81713 -3.83088 0
M  V30 43 C 2.4212 -0.413039 -3.34358 0
M  V30 44 O 2.9512 0.477259 -3.98855 0
M  V30 45 N 1.1572 -0.286961 -2.8918 0
M  V30 46 H 0.7042 -1.01241 -2.36871 0
M  V30 47 H 0.6622 0.556963 -3.09427 0
M  V30 48 N 4.4343 0.785586 -1.36625 0
M  V30 49 C 5.3663 1.90711 -1.2713 0
M  V30 50 C 6.3793 1.61688 -0.189986 0
M  V30 51 O 7.5683 1.72864 -0.445014 0
M  V30 52 C 4.6683 3.25611 -0.939713 0
M  V30 53 C 3.8413 3.82385 -2.12369 0
M  V30 54 C 2.9003 4.95732 -1.76456 0
M  V30 55 O 1.9263 5.12047 -2.48589 0
M  V30 56 N 3.1283 5.76258 -0.700492 0
M  V30 57 H 5.8933 1.99376 -2.23762 0
M  V30 58 H 3.4543 0.964041 -1.30069 0
M  V30 59 H 5.4463 3.98937 -0.680554 0
M  V30 60 H 4.0163 3.12538 -0.0624074 0
M  V30 61 H 3.2363 3.01001 -2.54543 0
M  V30 62 H 4.5243 4.17047 -2.9146 0
M  V30 63 H 3.9223 5.65609 -0.101624 0
M  V30 64 H 2.4793 6.4987 -0.501165 0
M  V30 65 N 5.9124 1.20967 1.01018 0
M  V30 66 C 6.8424 0.988272 2.11555 0
M  V30 67 C 7.8234 -0.0849778 1.69888 0
M  V30 68 O 9.0084 0.0738202 1.9406 0
M  V30 69 C 6.1384 0.546528 3.42973 0
M  V30 70 C 5.0924 1.56375 3.9841 0
M  V30 71 C 4.4184 0.97842 5.25672 0
M  V30 72 C 5.7184 2.94922 4.31066 0
M  V30 73 H 7.4124 1.91276 2.30334 0
M  V30 74 H 4.9584 0.921073 1.1069 0
M  V30 75 H 6.9114 0.378839 4.19694 0
M  V30 76 H 5.6354 -0.413598 3.23971 0
M  V30 77 H 4.2944 1.71891 3.23804 0
M  V30 78 H 3.9424 0.0101688 5.02999 0
M  V30 79 H 3.6424 1.65784 5.63728 0
M  V30 80 H 5.1664 0.821939 6.05043 0
M  V30 81 H 6.5804 2.8288 4.9865 0
M  V30 82 H 4.9774 3.5983 4.80253 0
M  V30 83 H 6.0474 3.4616 3.39561 0
M  V30 84 N 7.3905 -1.2043 1.01659 0
M  V30 85 C 8.3535 -2.21433 0.591616 0
M  V30 86 C 9.3535 -1.57203 -0.338226 0
M  V30 87 O 10.5435 -1.73737 -0.126918 0
M  V30 88 C 7.6755 -3.40628 -0.136058 0
M  V30 89 H 8.8685 -2.60545 1.48514 0
M  V30 90 H 6.4215 -1.33893 0.806379 0
M  V30 91 H 7.1565 -3.07019 -1.04449 0
M  V30 92 H 6.9415 -3.88475 0.531917 0
M  V30 93 H 8.4315 -4.15475 -0.420735 0
M  V30 94 N 8.8686 -0.792821 -1.36206 0
M  V30 95 C 9.8156 -0.191653 -2.30003 0
M  V30 96 C 10.7856 0.666453 -1.52143 0
M  V30 97 O 11.9706 0.61442 -1.80636 0
M  V30 98 C 9.1106 0.664848 -3.38635 0
M  V30 99 C 8.2236 -0.212175 -4.31479 0
M  V30 100 C 7.3586 0.651022 -5.27196 0
M  V30 101 C 6.3976 -0.227247 -6.11678 0
M  V30 102 N 5.5346 0.595127 -6.99573 0
M  V30 103 H 10.3746 -0.996978 -2.80828 0
M  V30 104 H 7.9116 -0.503206 -1.38225 0
M  V30 105 H 9.8696 1.17645 -4.00269 0
M  V30 106 H 8.4996 1.43557 -2.89122 0
M  V30 107 H 7.5516 -0.841777 -3.70969 0
M  V30 108 H 8.8636 -0.888751 -4.90818 0
M  V30 109 H 8.0176 1.2283 -5.94136 0
M  V30 110 H 6.7566 1.36121 -4.68319 0
M  V30 111 H 5.7616 -0.816904 -5.43697 0
M  V30 112 H 6.9866 -0.93509 -6.72631 0
M  V30 113 H 4.9326 1.28955 -6.432 0
M  V30 114 H 4.8496 -0.0236952 -7.55996 0
M  V30 115 H 6.1176 1.15613 -7.70879 0
M  V30 116 N 10.3467 1.47872 -0.545128 0
M  V30 117 C 11.5717 2.07391 -0.0190611 0
M  V30 118 C 11.9967 1.39688 1.25971 0
M  V30 119 O 11.3547 0.467816 1.7516 0
M  V30 120 C 11.4027 3.60188 0.172335 0
M  V30 121 O 10.5067 3.9339 1.23766 0
M  V30 122 H 9.8477 0.662411 -0.0459059 0
M  V30 123 H 12.3777 1.90066 -0.757365 0
M  V30 124 H 12.3877 4.06129 0.390305 0
M  V30 125 H 11.0627 4.08865 -0.761725 0
M  V30 126 H 9.6397 3.5921 1.00114 0
M  V30 127 N 11.8248 0.280983 1.55075 0
M  V30 128 C 13.0528 -0.337293 2.04132 0
M  V30 129 C 13.4678 -1.4903 1.15912 0
M  V30 130 O 12.8248 -1.81606 0.180459 0
M  V30 131 C 12.8758 -0.812706 3.52246 0
M  V30 132 O 12.5968 0.294387 4.3711 0
M  V30 133 C 14.0978 -1.4982 4.17216 0
M  V30 134 H 11.3178 -0.0761638 0.666663 0
M  V30 135 H 13.8618 0.414787 2.00249 0
M  V30 136 H 12.0168 -1.51486 3.56554 0
M  V30 137 H 12.4308 -0.0721325 5.2445 0
M  V30 138 H 13.9048 -1.7822 5.22438 0
M  V30 139 H 14.3818 -2.43168 3.65741 0
M  V30 140 H 14.9878 -0.839742 4.16927 0
M  V30 141 N 13.3029 -1.57598 0.00835791 0
M  V30 142 C 14.2129 -2.12385 -0.996487 0
M  V30 143 C 15.2289 -1.07108 -1.37127 0
M  V30 144 O 16.4049 -1.39055 -1.4569 0
M  V30 145 C 13.4699 -2.62314 -2.26699 0
M  V30 146 C 12.5309 -3.82225 -1.95456 0
M  V30 147 C 11.7639 -4.29763 -3.16449 0
M  V30 148 O 11.9869 -3.76584 -4.28416 0
M  V30 149 O 10.9209 -5.21832 -2.99958 0
M  V30 150 H 14.7469 -2.98479 -0.560725 0
M  V30 151 H 12.3319 -1.47903 -0.210987 0
M  V30 152 H 14.2139 -2.94589 -3.01322 0
M  V30 153 H 12.8889 -1.79313 -2.69497 0
M  V30 154 H 11.7959 -3.54909 -1.18282 0
M  V30 155 H 13.1289 -4.66324 -1.57489 0
M  V30 156 N 14.781 0.264519 -1.55364 0
M  V30 157 C 15.691 1.34902 -1.91934 0
M  V30 158 C 16.707 1.53595 -0.817593 0
M  V30 159 O 17.883 1.67558 -1.11742 0
M  V30 160 C 14.948 2.68676 -2.19121 0
M  V30 161 C 14.009 2.58657 -3.4263 0
M  V30 162 C 13.242 3.86051 -3.68511 0
M  V30 163 O 13.465 4.87126 -2.96757 0
M  V30 164 O 12.399 3.85744 -4.62045 0
M  V30 165 H 16.225 1.06883 -2.8427 0
M  V30 166 H 13.81 0.463775 -1.42019 0
M  V30 167 H 15.692 3.47759 -2.37995 0
M  V30 168 H 14.367 2.96463 -1.29966 0
M  V30 169 H 13.274 1.7792 -3.29082 0
M  V30 170 H 14.607 2.35818 -4.32031 0
M  V30 171 N 16.2591 1.48442 0.529413 0
M  V30 172 C 17.6751 1.34575 0.858004 0
M  V30 173 C 17.8751 0.3572 1.98309 0
M  V30 174 O 16.9311 -0.221379 2.51528 0
M  V30 175 C 18.2441 2.74617 1.22499 0
M  V30 176 C 19.7921 2.83109 1.33484 0
M  V30 177 C 20.2671 4.23854 1.73526 0
M  V30 178 N 21.7581 4.2653 1.80628 0
M  V30 179 C 22.4931 5.32372 2.12997 0
M  V30 180 N 21.9891 6.48491 2.43786 0
M  V30 181 N 23.7821 5.19766 2.14008 0
M  V30 182 H 15.9331 2.1133 -0.212925 0
M  V30 183 H 18.1961 0.947439 -0.0326199 0
M  V30 184 H 17.9021 3.4852 0.471905 0
M  V30 185 H 17.7761 3.08177 2.17501 0
M  V30 186 H 20.1631 2.09462 2.0787 0
M  V30 187 H 20.2441 2.53168 0.366027 0
M  V30 188 H 19.8881 4.98018 0.997013 0
M  V30 189 H 19.8181 4.5124 2.71459 0
M  V30 190 H 22.3091 3.42772 1.59108 0
M  V30 191 H 22.6221 7.24993 2.67592 0
M  V30 192 H 20.9671 6.51765 2.41304 0
M  V30 193 H 24.1581 4.28066 1.89412 0
M  V30 194 H 24.3311 6.02354 2.38902 0
M  V30 195 N 17.7372 -0.778329 1.37039 0
M  V30 196 C 18.9652 -1.56734 1.35063 0
M  V30 197 C 19.3802 -1.88686 -0.0655597 0
M  V30 198 O 18.7372 -1.5096 -1.02554 0
M  V30 199 C 18.7882 -2.88163 2.18276 0
M  V30 200 O 18.5092 -2.57583 3.54376 0
M  V30 201 C 20.0102 -3.82422 2.24206 0
M  V30 202 H 17.2302 -0.485778 0.462883 0
M  V30 203 H 19.7742 -0.965185 1.8029 0
M  V30 204 H 17.9292 -3.44818 1.76576 0
M  V30 205 H 18.3432 -3.41699 3.97922 0
M  V30 206 H 19.8172 -4.71667 2.86765 0
M  V30 207 H 20.2942 -4.21078 1.24861 0
M  V30 208 H 20.9002 -3.31697 2.6619 0
M  V30 209 N 19.2153 -1.21501 -1.00376 0
M  V30 210 C 20.4623 -1.03299 -1.74171 0
M  V30 211 C 20.7903 0.433326 -1.89612 0
M  V30 212 O 20.0453 1.33779 -1.42834 0
M  V30 213 C 20.3443 -1.67673 -3.15627 0
M  V30 214 C 20.0103 -3.17533 -3.2013 0
M  V30 215 C 18.6723 -3.58427 -3.21067 0
M  V30 216 C 21.0243 -4.13504 -3.17275 0
M  V30 217 C 18.3523 -4.93794 -3.16835 0
M  V30 218 C 20.7043 -5.48834 -3.14585 0
M  V30 219 C 19.3683 -5.89123 -3.13831 0
M  V30 220 H 18.6383 -0.377999 -0.637336 0
M  V30 221 H 21.2853 -1.51111 -1.17634 0
M  V30 222 H 19.5903 -1.12158 -3.75404 0
M  V30 223 H 21.2873 -1.51091 -3.71446 0
M  V30 224 H 17.8773 -2.84965 -3.20145 0
M  V30 225 H 22.0613 -3.82936 -3.15711 0
M  V30 226 H 17.3173 -5.24255 -3.1459 0
M  V30 227 H 21.4913 -6.22934 -3.1133 0
M  V30 228 H 19.1183 -6.93984 -3.10307 0
M  V30 229 N 20.6934 1.19889 -1.02296 0
M  V30 230 C 21.6254 2.22334 -0.556787 0
M  V30 231 C 22.6384 1.58674 0.364199 0
M  V30 232 O 23.8274 1.77768 0.161533 0
M  V30 233 C 20.9274 3.38257 0.208694 0
M  V30 234 C 20.1004 4.31504 -0.71577 0
M  V30 235 C 19.1594 5.262 0.00325597 0
M  V30 236 O 18.1854 5.65798 -0.621357 0
M  V30 237 N 19.3874 5.66303 1.27599 0
M  V30 238 H 22.1524 2.62957 -1.43784 0
M  V30 239 H 19.7134 1.34495 -0.901261 0
M  V30 240 H 21.7054 3.98616 0.699111 0
M  V30 241 H 20.2754 2.96472 0.991102 0
M  V30 242 H 19.4954 3.69016 -1.38638 0
M  V30 243 H 20.7834 4.9072 -1.34428 0
M  V30 244 H 20.1814 5.36155 1.80429 0
M  V30 245 H 18.7384 6.28942 1.71102 0
M  V30 246 N 22.1715 0.800033 1.35784 0
M  V30 247 C 23.4015 0.389041 2.02904 0
M  V30 248 C 23.8095 -1.0027 1.60445 0
M  V30 249 O 23.1525 -1.65633 0.794453 0
M  V30 250 C 23.2145 0.385495 3.57427 0
M  V30 251 C 22.8785 1.72662 4.23127 0
M  V30 252 C 23.8755 2.68385 4.4527 0
M  V30 253 C 21.5605 2.00883 4.60381 0
M  V30 254 C 23.5545 3.90517 5.03761 0
M  V30 255 C 21.2415 3.2328 5.18588 0
M  V30 256 C 22.2395 4.17915 5.40218 0
M  V30 257 O 21.9275 5.38153 5.97199 0
M  V30 258 H 21.6595 0.157032 0.657508 0
M  V30 259 H 24.2135 1.08311 1.74522 0
M  V30 260 H 22.4435 -0.365128 3.84972 0
M  V30 261 H 24.1325 -0.00228296 4.059 0
M  V30 262 H 24.8985 2.47872 4.16874 0
M  V30 263 H 20.7775 1.28037 4.42863 0
M  V30 264 H 24.3215 4.64395 5.2056 0
M  V30 265 H 20.2185 3.43667 5.4641 0
M  V30 266 H 20.9865 5.3936 6.15656 0
M  V30 267 N 23.6496 -1.47581 0.552962 0
M  V30 268 C 24.5816 -2.27997 -0.234533 0
M  V30 269 C 25.5946 -1.36753 -0.883321 0
M  V30 270 O 26.7836 -1.61612 -0.757889 0
M  V30 271 C 23.8836 -3.10879 -1.34935 0
M  V30 272 C 23.0566 -4.30056 -0.798158 0
M  V30 273 C 22.1156 -4.94567 -1.79694 0
M  V30 274 O 21.1416 -5.53087 -1.34474 0
M  V30 275 N 22.3436 -4.88878 -3.13015 0
M  V30 276 H 25.1086 -2.96222 0.455255 0
M  V30 277 H 22.6696 -1.57163 0.388761 0
M  V30 278 H 24.6616 -3.50903 -2.01616 0
M  V30 279 H 23.2316 -2.44924 -1.94244 0
M  V30 280 H 22.4516 -3.94174 0.0453079 0
M  V30 281 H 23.7396 -5.07152 -0.409173 0
M  V30 282 H 23.1376 -4.42526 -3.52402 0
M  V30 283 H 21.6946 -5.32934 -3.75266 0
M  V30 284 N 25.1277 -0.289203 -1.54924 0
M  V30 285 C 26.4047 0.376032 -1.91951 0
M  V30 286 C 26.7847 1.72622 -1.21511 0
M  V30 287 O 26.1327 2.25853 -0.346767 0
M  V30 288 C 26.3427 0.502378 -3.45365 0
M  V30 289 C 27.6907 0.778741 -4.17398 0
M  V30 290 O 28.7147 0.586647 -3.51336 0
M  V30 291 O 27.5737 1.14698 -5.34328 0
M  V30 292 H 24.6677 0.208167 -0.800372 0
M  V30 293 H 27.2137 -0.336394 -1.66332 0
M  V30 294 H 25.9857 -0.447255 -3.88736 0
M  V30 295 H 25.6087 1.26373 -3.76982 0
M  V30 296 N 26.6058 1.57591 -0.0167156 0
M  V30 297 C 27.8308 1.9598 0.67872 0
M  V30 298 C 28.2558 0.892546 1.65575 0
M  V30 299 O 27.6138 -0.147772 1.80697 0
M  V30 300 C 27.6618 3.33468 1.37227 0
M  V30 301 O 26.7658 3.28954 2.48722 0
M  V30 302 H 26.1068 0.639339 0.17928 0
M  V30 303 H 28.6368 2.04463 -0.0748802 0
M  V30 304 H 28.6468 3.69417 1.7319 0
M  V30 305 H 27.3218 4.10694 0.656007 0
M  V30 306 H 25.8988 3.04705 2.14963 0
M  V30 307 N 28.0839 -0.256276 1.55502 0
M  V30 308 C 29.0139 -1.32102 1.92539 0
M  V30 309 C 29.9949 -1.50684 0.789194 0
M  V30 310 O 31.1799 -1.63449 1.04872 0
M  V30 311 C 28.3099 -2.67752 2.21192 0
M  V30 312 C 27.2639 -2.63878 3.36975 0
M  V30 313 C 26.5899 -4.03236 3.51147 0
M  V30 314 C 27.8899 -2.21682 4.72921 0
M  V30 315 H 29.5839 -1.01351 2.81724 0
M  V30 316 H 27.1299 -0.486105 1.35547 0
M  V30 317 H 29.0829 -3.42365 2.45691 0
M  V30 318 H 27.8069 -3.0012 1.28824 0
M  V30 319 H 26.4659 -1.91722 3.12471 0
M  V30 320 H 26.1139 -4.32854 2.56216 0
M  V30 321 H 25.8139 -4.01535 4.29003 0
M  V30 322 H 27.3379 -4.79563 3.77957 0
M  V30 323 H 28.7519 -2.86023 4.96854 0
M  V30 324 H 27.1489 -2.3111 5.53812 0
M  V30 325 H 28.2189 -1.16833 4.70615 0
M  V30 326 N 29.562 -1.4872 -0.521534 0
M  V30 327 C 30.973 -1.50607 -1.10337 0
M  V30 328 C 31.324 -0.280612 -1.94183 0
M  V30 329 O 30.449 0.611507 -2.0758 0
M  V30 330 C 31.044 -2.72903 -2.00772 0
M  V30 331 C 29.603 -2.77634 -2.54158 0
M  V30 332 C 28.75 -2.44241 -1.31307 0
M  V30 333 H 31.701 -1.55714 -0.306388 0
M  V30 334 H 31.722 -2.519 -2.85178 0
M  V30 335 H 31.234 -3.62077 -1.39721 0
M  V30 336 H 29.335 -1.92689 -3.18907 0
M  V30 337 H 29.448 -3.79283 -2.92714 0
M  V30 338 H 27.812 -1.95577 -1.63161 0
M  V30 339 H 28.595 -3.35666 -0.719943 0
M  V30 340 N 31.0401 0.771051 -1.3745 0
M  V30 341 C 32.2651 1.56529 -1.36065 0
M  V30 342 C 32.6901 1.88029 0.0515859 0
M  V30 343 O 32.0481 1.49282 1.02882 0
M  V30 344 C 32.0961 2.85187 -2.20683 0
M  V30 345 O 31.2001 3.79593 -1.61193 0
M  V30 346 H 30.5411 0.47411 -0.464883 0
M  V30 347 H 33.0711 0.954269 -1.80983 0
M  V30 348 H 33.0811 3.34283 -2.33921 0
M  V30 349 H 31.7561 2.61588 -3.23334 0
M  V30 350 H 30.3331 3.38239 -1.56999 0
M  V30 351 N 32.5182 1.22032 0.997298 0
M  V30 352 C 33.4482 1.01065 2.10495 0
M  V30 353 C 34.4292 -0.0669542 1.69968 0
M  V30 354 O 35.6142 0.0943987 1.9397 0
M  V30 355 C 32.7442 0.582874 3.42374 0
M  V30 356 C 31.6982 1.60592 3.96729 0
M  V30 357 C 31.0242 1.03412 5.24605 0
M  V30 358 C 32.3242 2.99478 4.27914 0
M  V30 359 H 34.0182 1.93708 2.28292 0
M  V30 360 H 31.5642 0.932761 1.09707 0
M  V30 361 H 33.5172 0.423332 4.19268 0
M  V30 362 H 32.2412 -0.379213 3.24391 0
M  V30 363 H 30.9002 1.75316 3.21963 0
M  V30 364 H 30.5482 0.063518 5.0296 0
M  V30 365 H 30.2482 1.71754 5.61938 0
M  V30 366 H 31.7722 0.886066 6.04137 0
M  V30 367 H 33.1862 2.88153 4.95622 0
M  V30 368 H 31.5832 3.64903 4.76409 0
M  V30 369 H 32.6532 3.49742 3.3587 0
M  V30 370 N 33.9963 -1.19345 1.0293 0
M  V30 371 C 35.4073 -1.70725 0.755633 0
M  V30 372 C 35.7583 -1.82326 -0.724676 0
M  V30 373 O 34.8833 -1.49471 -1.56484 0
M  V30 374 C 35.4783 -3.10084 1.36503 0
M  V30 375 C 34.0373 -3.58723 1.13994 0
M  V30 376 C 33.1843 -2.35577 1.46283 0
M  V30 377 H 36.1353 -1.0418 1.19718 0
M  V30 378 H 36.1563 -3.72787 0.762217 0
M  V30 379 H 35.6683 -3.01609 2.44241 0
M  V30 380 H 33.7693 -3.72512 0.0807901 0
M  V30 381 H 33.8823 -4.42816 1.82894 0
M  V30 382 H 32.2463 -2.38935 0.88217 0
M  V30 383 H 33.0293 -2.29731 2.55105 0
M  V30 384 N 35.4744 -0.807222 -1.35358 0
M  V30 385 C 36.7204 -0.388463 -1.99045 0
M  V30 386 C 37.0534 1.04184 -1.63888 0
M  V30 387 O 36.3284 1.72292 -0.902535 0
M  V30 388 C 36.6114 -0.572783 -3.55515 0
M  V30 389 C 36.4644 -2.04807 -4.00468 0
M  V30 390 C 37.7834 0.00114064 -4.401 0
M  V30 391 H 34.9024 -0.142619 -0.723069 0
M  V30 392 H 37.5444 -1.01687 -1.60498 0
M  V30 393 H 35.6944 -0.0378425 -3.88482 0
M  V30 394 H 37.3664 -2.64544 -3.77908 0
M  V30 395 H 35.6094 -2.54427 -3.51353 0
M  V30 396 H 36.2804 -2.12792 -5.09337 0
M  V30 397 H 38.7564 -0.455716 -4.13597 0
M  V30 398 H 37.6324 -0.157737 -5.48673 0
M  V30 399 H 37.8934 1.09488 -4.28328 0
M  V30 400 N 36.9525 1.47285 -0.560781 0
M  V30 401 C 38.3635 1.86258 -0.128343 0
M  V30 402 C 38.7145 1.46699 1.30284 0
M  V30 403 O 37.8395 0.871698 1.98067 0
M  V30 404 C 38.4345 3.38044 -0.22614 0
M  V30 405 C 36.9935 3.76096 0.151283 0
M  V30 406 C 36.1405 2.71335 -0.572084 0
M  V30 407 H 39.0915 1.38752 -0.770297 0
M  V30 408 H 39.1125 3.76441 0.554322 0
M  V30 409 H 38.6245 3.66806 -1.26788 0
M  V30 410 H 36.7255 3.52951 1.19399 0
M  V30 411 H 36.8385 4.78641 -0.209765 0
M  V30 412 H 35.2025 2.54696 -0.0147653 0
M  V30 413 H 35.9855 3.02938 -1.61504 0
M  V30 414 N 38.4306 0.297415 1.54768 0
M  V30 415 C 39.6556 -0.318435 2.04941 0
M  V30 416 C 40.0806 -1.4701 1.17345 0
M  V30 417 O 39.4386 -1.80436 0.176758 0
M  V30 418 C 39.4866 -0.755749 3.52592 0
M  V30 419 O 38.5906 -1.86088 3.68028 0
M  V30 420 H 37.9316 -0.062421 0.661059 0
M  V30 421 H 40.4616 0.438215 1.99852 0
M  V30 422 H 40.4716 -1.04552 3.94376 0
M  V30 423 H 39.1466 0.0867233 4.1581 0
M  V30 424 H 37.7236 -1.57193 3.38149 0
M  V30 425 N 39.9087 -1.5758 0.0250728 0
M  V30 426 C 40.8387 -2.13007 -0.956575 0
M  V30 427 C 41.8197 -1.0452 -1.342 0
M  V30 428 O 43.0047 -1.32332 -1.42133 0
M  V30 429 C 40.1347 -2.65386 -2.24026 0
M  V30 430 C 39.0887 -3.78623 -1.99571 0
M  V30 431 C 38.4147 -4.17414 -3.3417 0
M  V30 432 C 39.7147 -5.04867 -1.33814 0
M  V30 433 H 41.4087 -2.9528 -0.494991 0
M  V30 434 H 38.9547 -1.42042 -0.236651 0
M  V30 435 H 40.9077 -3.02794 -2.93076 0
M  V30 436 H 39.6317 -1.80268 -2.72343 0
M  V30 437 H 38.2907 -3.41646 -1.32941 0
M  V30 438 H 37.9387 -3.29284 -3.80238 0
M  V30 439 H 37.6387 -4.93719 -3.18615 0
M  V30 440 H 39.1627 -4.57402 -4.04495 0
M  V30 441 H 40.5767 -5.39888 -1.92857 0
M  V30 442 H 38.9737 -5.86144 -1.28669 0
M  V30 443 H 40.0437 -4.83904 -0.310561 0
M  V30 444 N 41.3868 0.248026 -1.55636 0
M  V30 445 C 42.2968 1.32859 -1.93354 0
M  V30 446 C 43.3128 1.52719 -0.833838 0
M  V30 447 O 44.4888 1.66363 -1.13513 0
M  V30 448 C 41.5538 2.66337 -2.21958 0
M  V30 449 C 40.6148 2.55008 -3.45354 0
M  V30 450 C 39.8478 3.82121 -3.72584 0
M  V30 451 O 40.0708 4.83951 -3.01907 0
M  V30 452 O 39.0048 3.80822 -4.6611 0
M  V30 453 H 42.8308 1.03862 -2.85388 0
M  V30 454 H 40.4158 0.448686 -1.42503 0
M  V30 455 H 42.2978 3.45216 -2.4167 0
M  V30 456 H 40.9728 2.95068 -1.33103 0
M  V30 457 H 39.8798 1.7442 -3.30951 0
M  V30 458 H 41.2128 2.31222 -4.34508 0
M  V30 459 N 42.8649 1.48995 0.513639 0
M  V30 460 C 43.7749 1.67443 1.64317 0
M  V30 461 C 44.7909 0.556947 1.64846 0
M  V30 462 O 45.9669 0.830082 1.83498 0
M  V30 463 C 43.0319 1.72515 3.00732 0
M  V30 464 C 42.0929 2.96009 3.1093 0
M  V30 465 C 41.3259 3.00829 4.40837 0
M  V30 466 O 41.5489 2.13594 5.28898 0
M  V30 467 O 40.4829 3.93168 4.55744 0
M  V30 468 H 44.3089 2.63106 1.51687 0
M  V30 469 H 41.8939 1.32588 0.688543 0
M  V30 470 H 43.7759 1.78277 3.81831 0
M  V30 471 H 42.4509 0.800278 3.13651 0
M  V30 472 H 41.3579 2.9577 2.29065 0
M  V30 473 H 42.6909 3.87934 3.02933 0
M  V30 474 N 44.343 -0.763751 1.37857 0
M  V30 475 C 45.568 -1.55805 1.36893 0
M  V30 476 C 45.993 -1.88054 -0.0416135 0
M  V30 477 O 45.351 -1.49825 -1.02089 0
M  V30 478 C 45.399 -2.84012 2.22192 0
M  V30 479 O 44.503 -3.78732 1.63204 0
M  V30 480 H 43.844 -0.471638 0.46739 0
M  V30 481 H 46.374 -0.944657 1.81487 0
M  V30 482 H 46.384 -3.33037 2.35691 0
M  V30 483 H 45.059 -2.59869 3.24716 0
M  V30 484 H 43.636 -3.37402 1.58791 0
M  V30 485 N 45.8211 -1.22559 -0.990812 0
M  V30 486 C 46.7511 -1.0218 -2.09956 0
M  V30 487 C 47.7321 0.0579394 -1.70001 0
M  V30 488 O 48.9171 -0.104684 -1.93918 0
M  V30 489 C 46.0471 -0.601023 -3.4206 0
M  V30 490 C 45.0011 -1.62694 -3.95872 0
M  V30 491 C 44.3271 -1.06193 -5.24049 0
M  V30 492 C 45.6271 -3.01743 -4.2632 0
M  V30 493 H 47.3211 -1.94916 -2.27262 0
M  V30 494 H 44.8671 -0.938566 -1.09211 0
M  V30 495 H 46.8201 -0.445561 -4.19038 0
M  V30 496 H 45.5441 0.362005 -3.24588 0
M  V30 497 H 44.2031 -1.77021 -3.21028 0
M  V30 498 H 43.8511 -0.0901903 -5.02919 0
M  V30 499 H 43.5511 -1.74732 -5.61019 0
M  V30 500 H 45.0751 -0.918092 -6.03658 0
M  V30 501 H 46.4891 -2.90777 -4.94087 0
M  V30 502 H 44.8861 -3.67425 -4.74467 0
M  V30 503 H 45.9561 -3.51518 -3.34011 0
M  V30 504 N 47.2992 1.18797 -1.03562 0
M  V30 505 C 48.2462 2.22253 -0.622259 0
M  V30 506 C 49.2162 1.61987 0.36736 0
M  V30 507 O 50.4012 1.88986 0.262492 0
M  V30 508 C 47.5412 3.45097 0.0138462 0
M  V30 509 C 46.6542 4.19722 -1.02263 0
M  V30 510 C 45.7892 5.30009 -0.355573 0
M  V30 511 C 44.8282 5.96399 -1.37749 0
M  V30 512 N 43.9652 6.98234 -0.735766 0
M  V30 513 H 48.8052 2.56968 -1.50903 0
M  V30 514 H 46.3422 1.26245 -0.755017 0
M  V30 515 H 48.3002 4.15279 0.399948 0
M  V30 516 H 46.9302 3.11018 0.864158 0
M  V30 517 H 45.9822 3.48418 -1.52673 0
M  V30 518 H 47.2942 4.65227 -1.79903 0
M  V30 519 H 46.4482 6.0664 0.0850095 0
M  V30 520 H 45.1872 4.85592 0.452967 0
M  V30 521 H 44.1922 5.18512 -1.82826 0
M  V30 522 H 45.4172 6.42899 -2.18764 0
M  V30 523 H 43.3632 6.55979 0.0525597 0
M  V30 524 H 43.2802 7.41965 -1.44995 0
M  V30 525 H 44.5482 7.78845 -0.31941 0
M  V30 526 N 48.7773 0.814389 1.34928 0
M  V30 527 C 49.7243 0.22822 2.29669 0
M  V30 528 C 50.6943 -0.642164 1.53184 0
M  V30 529 O 51.8793 -0.585605 1.81591 0
M  V30 530 C 49.0193 -0.61089 3.3965 0
M  V30 531 C 48.1323 0.280792 4.31086 0
M  V30 532 C 47.2673 -0.567067 5.28165 0
M  V30 533 C 46.3063 0.324531 6.11239 0
M  V30 534 N 45.4433 -0.483756 7.00431 0
M  V30 535 H 50.2833 1.04153 2.79206 0
M  V30 536 H 47.8203 0.525133 1.37407 0
M  V30 537 H 49.7783 -1.11263 4.0209 0
M  V30 538 H 48.4083 -1.38939 2.91369 0
M  V30 539 H 47.4603 0.900688 3.69583 0
M  V30 540 H 48.7723 0.966723 4.89342 0
M  V30 541 H 47.9263 -1.13363 5.96015 0
M  V30 542 H 46.6653 -1.28654 4.70425 0
M  V30 543 H 45.6703 0.903298 5.42329 0
M  V30 544 H 46.8953 1.04198 6.71059 0
M  V30 545 H 44.8413 -1.18706 6.45171 0
M  V30 546 H 44.7583 0.143965 7.55863 0
M  V30 547 H 46.0263 -1.03334 7.7262 0
M  V30 548 N 50.2554 -1.46986 0.568584 0
M  V30 549 C 51.4854 -2.0653 0.0539173 0
M  V30 550 C 51.8934 -1.42004 -1.25026 0
M  V30 551 O 51.2364 -0.514541 -1.76347 0
M  V30 552 C 51.2984 -3.58938 -0.200854 0
M  V30 553 C 50.9624 -4.45572 1.01559 0
M  V30 554 C 51.9594 -4.82986 1.92407 0
M  V30 555 C 49.6444 -4.8692 1.23346 0
M  V30 556 C 51.6384 -5.60559 3.03402 0
M  V30 557 C 49.3254 -5.64255 2.34649 0
M  V30 558 C 50.3234 -6.00986 3.24507 0
M  V30 559 O 50.0114 -6.76761 4.33878 0
M  V30 560 H 49.7434 -0.674292 0.0480234 0
M  V30 561 H 52.2974 -1.89812 0.784896 0
M  V30 562 H 50.5274 -3.73911 -0.986279 0
M  V30 563 H 52.2164 -4.0046 -0.662294 0
M  V30 564 H 52.9824 -4.51633 1.76785 0
M  V30 565 H 48.8614 -4.57789 0.543178 0
M  V30 566 H 52.4054 -5.89147 3.73565 0
M  V30 567 H 48.3024 -5.95021 2.5024 0
M  V30 568 H 49.0704 -6.95168 4.32068 0
M  V30 569 N 51.7335 -0.305618 -1.54608 0
M  V30 570 C 52.6635 0.561482 -2.26649 0
M  V30 571 C 53.6445 1.13415 -1.26772 0
M  V30 572 O 54.8295 1.16262 -1.55553 0
M  V30 573 C 51.9595 1.73122 -3.01075 0
M  V30 574 C 50.9135 1.2887 -4.08138 0
M  V30 575 C 50.2395 2.54396 -4.70305 0
M  V30 576 C 51.5395 0.416578 -5.20636 0
M  V30 577 H 53.2335 -0.0393902 -2.99374 0
M  V30 578 H 50.7795 -0.020385 -1.43986 0
M  V30 579 H 52.7325 2.34396 -3.50195 0
M  V30 580 H 51.4565 2.3584 -2.25936 0
M  V30 581 H 50.1155 0.698991 -3.59875 0
M  V30 582 H 49.7635 3.15439 -3.918 0
M  V30 583 H 49.4635 2.25486 -5.42614 0
M  V30 584 H 50.9875 3.16464 -5.2219 0
M  V30 585 H 52.4015 0.935116 -5.65622 0
M  V30 586 H 50.7985 0.221046 -5.99693 0
M  V30 587 H 51.8685 -0.557162 -4.81688 0
M  V30 588 N 53.2116 1.57565 -0.0334293 0
M  V30 589 C 54.1216 2.13943 0.962572 0
M  V30 590 C 55.1376 1.09276 1.35406 0
M  V30 591 O 56.3136 1.41355 1.4346 0
M  V30 592 C 53.3786 2.65887 2.22497 0
M  V30 593 C 52.4396 3.85286 1.8935 0
M  V30 594 C 51.6726 4.34743 3.09571 0
M  V30 595 O 51.8956 3.83352 4.22371 0
M  V30 596 O 50.8296 5.26538 2.91618 0
M  V30 597 H 54.6556 2.99333 0.513169 0
M  V30 598 H 52.2406 1.4822 0.18743 0
M  V30 599 H 54.1226 2.99346 2.96598 0
M  V30 600 H 52.7976 1.83578 2.6661 0
M  V30 601 H 51.7046 3.56746 1.1262 0
M  V30 602 H 53.0376 4.68771 1.5005 0
M  V30 603 N 54.6897 -0.239769 1.55765 0
M  V30 604 C 55.9147 -0.988373 1.82335 0
M  V30 605 C 56.3397 -1.77886 0.611421 0
M  V30 606 O 55.6977 -1.75889 -0.439639 0
M  V30 607 C 55.7457 -1.89627 3.06715 0
M  V30 608 O 54.8497 -2.98904 2.84131 0
M  V30 609 H 54.1907 -0.280858 0.601677 0
M  V30 610 H 56.7207 -0.258597 2.02959 0
M  V30 611 H 56.7307 -2.30957 3.36338 0
M  V30 612 H 55.4057 -1.31511 3.9456 0
M  V30 613 H 53.9827 -2.61651 2.65694 0
M  V30 614 N 56.1678 -1.49265 -0.50573 0
M  V30 615 C 57.4138 -1.58748 -1.26202 0
M  V30 616 C 57.7468 -0.271227 -1.92297 0
M  V30 617 O 57.0218 0.724831 -1.80489 0
M  V30 618 C 57.3048 -2.74332 -2.33268 0
M  V30 619 C 57.1578 -4.15737 -1.71705 0
M  V30 620 C 58.4768 -2.85576 -3.34865 0
M  V30 621 H 55.5958 -0.577826 -0.457478 0
M  V30 622 H 58.2378 -1.81532 -0.560897 0
M  V30 623 H 56.3878 -2.55036 -2.93068 0
M  V30 624 H 58.0598 -4.46537 -1.15769 0
M  V30 625 H 56.3028 -4.21605 -1.02135 0
M  V30 626 H 56.9738 -4.92477 -2.49341 0
M  V30 627 H 59.4498 -3.03127 -2.8505 0
M  V30 628 H 58.3258 -3.68135 -4.07146 0
M  V30 629 H 58.5868 -1.94732 -3.96903 0
M  V30 630 N 57.6459 0.756429 -1.3826 0
M  V30 631 C 58.5929 1.87011 -1.35261 0
M  V30 632 C 59.5629 1.64695 -0.215616 0
M  V30 633 O 60.7479 1.864 -0.407399 0
M  V30 634 C 57.8879 3.24275 -1.18068 0
M  V30 635 C 57.0009 3.58442 -2.41129 0
M  V30 636 C 56.1359 4.84994 -2.16689 0
M  V30 637 C 55.1749 5.11939 -3.35537 0
M  V30 638 N 54.3119 6.29685 -3.10549 0
M  V30 639 H 59.1519 1.8891 -2.30472 0
M  V30 640 H 56.6889 0.923373 -1.14509 0
M  V30 641 H 58.6469 4.03479 -1.06116 0
M  V30 642 H 57.2769 3.21711 -0.264973 0
M  V30 643 H 56.3289 2.74103 -2.63764 0
M  V30 644 H 57.6409 3.74283 -3.29717 0
M  V30 645 H 56.7949 5.72135 -2.01857 0
M  V30 646 H 55.5339 4.71286 -1.25462 0
M  V30 647 H 54.5389 4.23268 -3.50891 0
M  V30 648 H 55.7639 5.27546 -4.27635 0
M  V30 649 H 53.7099 6.17306 -2.21967 0
M  V30 650 H 53.6269 6.46014 -3.92686 0
M  V30 651 H 54.8949 7.19722 -2.99367 0
M  V30 652 N 59.124 1.23083 0.984299 0
M  V30 653 C 60.535 1.05609 1.5396 0
M  V30 654 C 60.886 -0.377793 1.92528 0
M  V30 655 O 60.011 -1.26398 1.75649 0
M  V30 656 C 60.606 1.91087 2.7977 0
M  V30 657 C 59.165 1.77885 3.31713 0
M  V30 658 C 58.312 1.87028 2.04733 0
M  V30 659 H 61.263 1.36802 0.804419 0
M  V30 660 H 61.284 1.43336 3.5247 0
M  V30 661 H 60.796 2.9544 2.51668 0
M  V30 662 H 58.897 0.762995 3.64704 0
M  V30 663 H 59.01 2.61047 4.01735 0
M  V30 664 H 57.374 1.30565 2.18689 0
M  V30 665 H 58.157 2.92929 1.79017 0
M  V30 666 N 60.6021 -1.18246 1.0419 0
M  V30 667 C 61.8491 -1.88257 0.746017 0
M  V30 668 C 62.1771 -1.80429 -0.726331 0
M  V30 669 O 61.4321 -1.2 -1.54591 0
M  V30 670 C 61.7311 -3.38082 1.15911 0
M  V30 671 C 61.3971 -3.66114 2.63195 0
M  V30 672 C 60.0591 -3.73474 3.03432 0
M  V30 673 C 62.4111 -3.78398 3.5842 0
M  V30 674 C 59.7391 -3.90599 4.37778 0
M  V30 675 C 62.0911 -3.97039 4.92487 0
M  V30 676 C 60.7551 -4.02635 5.32392 0
M  V30 677 H 60.0251 -0.688883 0.272987 0
M  V30 678 H 62.6721 -1.3995 1.30715 0
M  V30 679 H 60.9771 -3.88377 0.516806 0
M  V30 680 H 62.6741 -3.90596 0.907516 0
M  V30 681 H 59.2641 -3.61003 2.3103 0
M  V30 682 H 63.4481 -3.72042 3.28479 0
M  V30 683 H 58.7041 -3.93175 4.68213 0
M  V30 684 H 62.8781 -4.05486 5.66175 0
M  V30 685 H 60.5051 -4.15657 6.36501 0
M  V30 686 N 62.0802 -0.821533 -1.34494 0
M  V30 687 C 63.0432 -0.247847 -2.27856 0
M  V30 688 C 64.0432 0.573453 -1.50227 0
M  V30 689 O 65.2332 0.389759 -1.69784 0
M  V30 690 C 62.3652 0.652698 -3.34593 0
M  V30 691 H 63.5582 -1.07146 -2.80107 0
M  V30 692 H 61.1112 -0.593291 -1.44602 0
M  V30 693 H 61.8462 1.49943 -2.87555 0
M  V30 694 H 61.6312 0.065292 -3.92046 0
M  V30 695 H 63.1212 1.04793 -4.04238 0
M  V30 696 N 63.5583 1.46682 -0.576371 0
M  V30 697 C 64.5063 2.31953 0.17335 0
M  V30 698 C 65.5003 1.44098 0.89062 0
M  V30 699 O 66.7063 1.60759 0.809728 0
M  V30 700 H 63.0813 0.748273 0.0747727 0
M  V30 701 H 65.0523 2.93007 -0.564738 0
M  V30 702 C 63.8013 3.27142 1.17786 0
M  V30 703 H 63.1243 3.94719 0.635361 0
M  V30 704 H 64.5643 3.896 1.67296 0
M  V30 705 C 63.0233 2.52036 2.23561 0
M  V30 706 O 63.5533 2.27877 3.3081 0
M  V30 707 N 61.7593 2.12709 1.97998 0
M  V30 708 H 61.3063 2.32557 1.10792 0
M  V30 709 H 61.2643 1.62776 2.68982 0
M  V30 710 N 65.0364 0.313813 1.54444 0
M  V30 711 C 65.9684 -0.590425 2.21465 0
M  V30 712 C 66.9814 -1.08753 1.21147 0
M  V30 713 O 68.1704 -1.00278 1.4767 0
M  V30 714 C 65.2704 -1.82179 2.85769 0
M  V30 715 C 64.4434 -1.46502 4.12136 0
M  V30 716 C 63.5024 -2.55288 4.60124 0
M  V30 717 O 62.5284 -2.19842 5.25032 0
M  V30 718 N 63.7304 -3.86053 4.33525 0
M  V30 719 H 66.4954 -0.0166033 2.99695 0
M  V30 720 H 64.0564 0.136578 1.61323 0
M  V30 721 H 66.0484 -2.54328 3.14801 0
M  V30 722 H 64.6184 -2.30369 2.11303 0
M  V30 723 H 63.8384 -0.575595 3.89975 0
M  V30 724 H 65.1264 -1.20221 4.94393 0
M  V30 725 H 64.5244 -4.17654 3.81552 0
M  V30 726 H 63.0814 -4.54461 4.67235 0
M  V30 727 N 66.5145 -1.57545 0.0417849 0
M  V30 728 C 67.4245 -2.14451 -0.951213 0
M  V30 729 C 68.4405 -1.09992 -1.34825 0
M  V30 730 O 69.6165 -1.42114 -1.42708 0
M  V30 731 C 66.6815 -2.67063 -2.21084 0
M  V30 732 C 65.7425 -3.86284 -1.87304 0
M  V30 733 C 64.9755 -4.36378 -3.07261 0
M  V30 734 O 65.1985 -3.85587 -4.20332 0
M  V30 735 O 64.1325 -5.28077 -2.88822 0
M  V30 736 H 67.9585 -2.99601 -0.497287 0
M  V30 737 H 65.5435 -1.48317 -0.179567 0
M  V30 738 H 67.4255 -3.00914 -2.95006 0
M  V30 739 H 66.1005 -1.84989 -2.65633 0
M  V30 740 H 65.0075 -3.57338 -1.10727 0
M  V30 741 H 66.3405 -4.6956 -1.47562 0
M  V30 742 N 67.9926 0.231505 -1.5589 0
M  V30 743 C 68.9026 1.308 -1.94752 0
M  V30 744 C 69.9186 1.51826 -0.849989 0
M  V30 745 O 71.0946 1.6515 -1.15271 0
M  V30 746 C 68.1596 2.63968 -2.24771 0
M  V30 747 C 67.2206 2.51331 -3.48039 0
M  V30 748 C 66.4536 3.78148 -3.76616 0
M  V30 749 O 66.6766 4.80722 -3.07022 0
M  V30 750 O 65.6106 3.75857 -4.70123 0
M  V30 751 H 69.4366 1.0083 -2.86474 0
M  V30 752 H 67.0216 0.433547 -1.42971 0
M  V30 753 H 68.9036 3.42633 -2.45318 0
M  V30 754 H 67.5786 2.9364 -1.36225 0
M  V30 755 H 66.4856 1.709 -3.32782 0
M  V30 756 H 67.8186 2.26601 -4.36936 0
M  V30 757 N 69.4707 1.49531 0.497807 0
M  V30 758 C 70.7007 1.62657 1.27382 0
M  V30 759 C 71.1087 0.298488 1.86831 0
M  V30 760 O 70.4517 -0.72647 1.68725 0
M  V30 761 C 70.5137 2.6393 2.44093 0
M  V30 762 C 70.1777 4.08195 2.05489 0
M  V30 763 C 71.1747 4.949 1.59279 0
M  V30 764 C 68.8597 4.53948 2.15026 0
M  V30 765 C 70.8537 6.25397 1.23113 0
M  V30 766 C 68.5407 5.84458 1.78473 0
M  V30 767 C 69.5387 6.70006 1.32591 0
M  V30 768 O 69.2267 7.98083 0.965327 0
M  V30 769 H 68.9587 0.550429 0.392434 0
M  V30 770 H 71.5127 1.96325 0.603801 0
M  V30 771 H 69.7427 2.25449 3.14181 0
M  V30 772 H 71.4317 2.66552 3.06113 0
M  V30 773 H 72.1977 4.60779 1.51354 0
M  V30 774 H 68.0767 3.87525 2.4969 0
M  V30 775 H 71.6207 6.92125 0.872299 0
M  V30 776 H 67.5177 6.18107 1.86048 0
M  V30 777 H 68.2857 8.11122 1.09652 0
M  V30 778 N 70.9488 -0.749086 1.3866 0
M  V30 779 C 71.8958 -1.86291 1.36251 0
M  V30 780 C 72.8658 -1.64578 0.224347 0
M  V30 781 O 74.0508 -1.86181 0.417279 0
M  V30 782 C 71.1908 -3.23644 1.19786 0
M  V30 783 C 70.3038 -3.57158 2.43027 0
M  V30 784 C 69.4388 -4.83838 2.19258 0
M  V30 785 C 68.4778 -5.10152 3.38247 0
M  V30 786 N 67.6148 -6.28029 3.13884 0
M  V30 787 H 72.4548 -1.87685 2.3147 0
M  V30 788 H 69.9918 -0.917287 1.14997 0
M  V30 789 H 71.9498 -4.0291 1.08254 0
M  V30 790 H 70.5798 -3.21566 0.282031 0
M  V30 791 H 69.6318 -2.72701 2.65214 0
M  V30 792 H 70.9438 -3.7253 3.31697 0
M  V30 793 H 70.0978 -5.71057 2.04888 0
M  V30 794 H 68.8368 -4.70614 1.2796 0
M  V30 795 H 67.8418 -4.21401 3.53131 0
M  V30 796 H 69.0668 -5.25271 4.30427 0
M  V30 797 H 67.0128 -6.1612 2.25238 0
M  V30 798 H 66.9298 -6.43922 3.96106 0
M  V30 799 H 68.1978 -7.18124 3.03179 0
M  V30 800 N 72.4269 -1.23603 -0.977757 0
M  V30 801 C 73.3739 -1.01954 -2.07061 0
M  V30 802 C 74.3439 0.0638697 -1.65977 0
M  V30 803 O 75.5289 -0.0887624 -1.90593 0
M  V30 804 C 72.6689 -0.619658 -3.39491 0
M  V30 805 C 71.7819 -1.77547 -3.93829 0
M  V30 806 C 70.9169 -1.32212 -5.14484 0
M  V30 807 C 69.9559 -2.44852 -5.60994 0
M  V30 808 N 69.0929 -2.00456 -6.72876 0
M  V30 809 H 73.9329 -1.95495 -2.24913 0
M  V30 810 H 71.4699 -0.973861 -1.10247 0
M  V30 811 H 73.4279 -0.368898 -4.15566 0
M  V30 812 H 72.0579 0.278752 -3.21594 0
M  V30 813 H 71.1099 -2.14016 -3.14486 0
M  V30 814 H 72.4219 -2.62219 -4.24314 0
M  V30 815 H 71.5759 -1.02965 -5.97899 0
M  V30 816 H 70.3149 -0.445808 -4.85658 0
M  V30 817 H 69.3199 -2.74871 -4.76157 0
M  V30 818 H 70.5449 -3.33024 -5.91837 0
M  V30 819 H 68.4909 -1.15208 -6.45804 0
M  V30 820 H 68.4079 -2.78687 -7.02759 0
M  V30 821 H 69.6759 -1.7432 -7.59758 0
M  V30 822 N 73.905 1.17692 -1.04816 0
M  V30 823 C 75.133 1.91786 -0.776254 0
M  V30 824 C 75.548 1.76604 0.667577 0
M  V30 825 O 74.905 1.10067 1.45573 0
M  V30 826 C 74.956 3.42967 -1.14263 0
M  V30 827 O 74.677 3.57678 -2.52978 0
M  V30 828 C 76.178 4.34144 -0.896311 0
M  V30 829 H 73.398 0.608624 -0.282519 0
M  V30 830 H 75.942 1.49268 -1.39783 0
M  V30 831 H 74.097 3.83245 -0.565874 0
M  V30 832 H 74.511 4.51319 -2.67229 0
M  V30 833 H 75.985 5.38744 -1.20244 0
M  V30 834 H 76.462 4.38876 0.168636 0
M  V30 835 H 77.068 3.99574 -1.45672 0
M  V30 836 N 75.3831 0.828654 1.34056 0
M  V30 837 C 76.2931 0.256725 2.33191 0
M  V30 838 C 77.3091 -0.611898 1.62886 0
M  V30 839 O 78.4851 -0.51844 1.94613 0
M  V30 840 C 75.5501 -0.567238 3.42028 0
M  V30 841 C 74.6111 0.324458 4.28072 0
M  V30 842 C 73.8441 -0.460274 5.31712 0
M  V30 843 O 74.0671 -1.693 5.44696 0
M  V30 844 O 73.0011 0.160391 6.01686 0
M  V30 845 H 76.8271 1.07739 2.83947 0
M  V30 846 H 74.4121 0.59093 1.37217 0
M  V30 847 H 76.2941 -1.03582 4.08471 0
M  V30 848 H 74.9691 -1.36513 2.93506 0
M  V30 849 H 73.8761 0.840659 3.64532 0
M  V30 850 H 75.2091 1.08685 4.8005 0
M  V30 851 N 76.8612 -1.46375 0.584142 0
M  V30 852 C 77.7712 -2.34115 -0.150728 0
M  V30 853 C 78.7872 -1.49838 -0.884567 0
M  V30 854 O 79.9632 -1.82704 -0.847429 0
M  V30 855 C 77.0282 -3.2705 -1.15062 0
M  V30 856 C 76.0892 -4.27228 -0.421293 0
M  V30 857 C 75.3222 -5.15722 -1.37355 0
M  V30 858 O 75.5452 -5.07176 -2.61014 0
M  V30 859 O 74.4792 -5.95383 -0.883355 0
M  V30 860 H 78.3052 -2.98309 0.569708 0
M  V30 861 H 75.8902 -1.45373 0.344535 0
M  V30 862 H 77.7722 -3.84381 -1.72712 0
M  V30 863 H 76.4472 -2.65451 -1.8525 0
M  V30 864 H 75.3542 -3.7358 0.197085 0
M  V30 865 H 76.6872 -4.91616 0.239641 0
M  V30 866 N 78.3393 -0.321999 -1.54275 0
M  V30 867 C 79.5883 0.281931 -1.9972 0
M  V30 868 C 79.9013 1.53369 -1.21397 0
M  V30 869 O 81.1073 2.21352 -1.57211 0
M  V30 870 C 79.5633 0.5529 -3.55628 0
M  V30 871 C 79.1713 -0.681721 -4.42783 0
M  V30 872 C 80.9153 1.11687 -4.09544 0
M  V30 873 C 78.8223 -0.382742 -5.9016 0
M  V30 874 H 77.7523 0.109124 -0.746062 0
M  V30 875 H 80.4033 -0.43398 -1.78294 0
M  V30 876 H 78.7853 1.32896 -3.73035 0
M  V30 877 H 79.9593 -1.45723 -4.37151 0
M  V30 878 H 78.2743 -1.1658 -3.99748 0
M  V30 879 H 80.8713 1.35515 -5.17242 0
M  V30 880 H 81.2143 2.06575 -3.61431 0
M  V30 881 H 81.7473 0.402032 -3.95763 0
M  V30 882 H 78.4863 -1.30076 -6.42464 0
M  V30 883 H 78.0063 0.355094 -5.98748 0
M  V30 884 H 79.6853 0.00800157 -6.47 0
M  V30 885 N 79.8174 1.5752 -0.0501392 0
M  V30 886 C 81.0634 1.92936 0.624798 0
M  V30 887 C 81.3964 0.928685 1.70555 0
M  V30 888 O 80.6714 -0.0454779 1.94447 0
M  V30 889 C 80.9544 3.38737 1.22185 0
M  V30 890 C 80.8074 4.49552 0.149218 0
M  V30 891 C 82.1264 3.84913 2.13378 0
M  V30 892 H 79.2454 0.701604 0.225657 0
M  V30 893 H 81.8874 1.89671 -0.111693 0
M  V30 894 H 80.0374 3.4165 1.84953 0
M  V30 895 H 81.7094 4.58768 -0.482648 0
M  V30 896 H 79.9524 4.30638 -0.522841 0
M  V30 897 H 80.6234 5.48653 0.606966 0
M  V30 898 H 83.0994 3.8387 1.60572 0
M  V30 899 H 81.9754 4.87584 2.52097 0
M  V30 900 H 82.2364 3.21611 3.03346 0
M  V30 901 N 81.2955 -0.223234 1.56011 0
M  V30 902 C 82.2275 -1.30006 1.88762 0
M  V30 903 C 83.2405 -1.43129 0.775746 0
M  V30 904 O 84.4295 -1.44057 1.05403 0
M  V30 905 C 81.5295 -2.67589 2.07965 0
M  V30 906 C 80.7025 -2.76434 3.38973 0
M  V30 907 C 79.7615 -3.95019 3.47629 0
M  V30 908 O 78.7875 -3.83436 4.20672 0
M  V30 909 N 79.9895 -5.09249 2.78649 0
M  V30 910 H 82.7545 -1.02238 2.81722 0
M  V30 911 H 80.3155 -0.413278 1.56536 0
M  V30 912 H 82.3075 -3.45297 2.11073 0
M  V30 913 H 80.8775 -2.87964 1.21638 0
M  V30 914 H 80.0975 -1.85216 3.47978 0
M  V30 915 H 81.3855 -2.79313 4.25278 0
M  V30 916 H 80.7835 -5.21556 2.19081 0
M  V30 917 H 79.3405 -5.85007 2.8742 0
M  V30 918 N 82.7736 -1.49793 -0.48987 0
M  V30 919 C 83.7206 -1.67281 -1.59014 0
M  V30 920 C 84.6906 -0.514177 -1.57941 0
M  V30 921 O 85.8756 -0.742533 -1.75759 0
M  V30 922 C 83.0156 -1.75569 -2.97102 0
M  V30 923 C 82.1286 -3.0281 -3.08107 0
M  V30 924 C 81.2636 -3.02008 -4.36995 0
M  V30 925 C 80.3026 -4.23782 -4.41673 0
M  V30 926 N 79.4396 -4.20826 -5.62005 0
M  V30 927 H 84.2796 -2.61224 -1.43409 0
M  V30 928 H 81.8166 -1.29508 -0.697565 0
M  V30 929 H 83.7746 -1.78354 -3.77155 0
M  V30 930 H 82.4046 -0.850827 -3.11385 0
M  V30 931 H 81.4566 -3.09584 -2.21047 0
M  V30 932 H 82.7686 -3.92801 -3.07423 0
M  V30 933 H 81.9226 -3.03418 -5.25378 0
M  V30 934 H 80.6616 -2.09815 -4.4026 0
M  V30 935 H 79.6666 -4.22604 -3.5169 0
M  V30 936 H 80.8916 -5.17181 -4.40115 0
M  V30 937 H 78.8376 -3.31476 -5.66091 0
M  V30 938 H 78.7546 -5.04564 -5.62984 0
M  V30 939 H 80.0226 -4.26355 -6.52565 0
M  V30 940 N 84.2517 0.741722 -1.39055 0
M  V30 941 C 85.4987 1.50114 -1.35912 0
M  V30 942 C 85.8267 1.94443 0.0470937 0
M  V30 943 O 85.0817 1.66612 1.02659 0
M  V30 944 C 85.3807 2.7592 -2.27163 0
M  V30 945 C 85.0467 2.50493 -3.74919 0
M  V30 946 C 83.7087 2.43267 -4.1518 0
M  V30 947 C 86.0607 2.28585 -4.684 0
M  V30 948 C 83.3887 2.12166 -5.46994 0
M  V30 949 C 85.7407 1.99002 -6.00484 0
M  V30 950 C 84.4047 1.90241 -6.39816 0
M  V30 951 H 83.6747 0.549306 -0.497336 0
M  V30 952 H 86.3217 0.851896 -1.71508 0
M  V30 953 H 84.6267 3.45553 -1.84663 0
M  V30 954 H 86.3237 3.33923 -2.22028 0
M  V30 955 H 82.9137 2.56992 -3.43006 0
M  V30 956 H 87.0977 2.33139 -4.38132 0
M  V30 957 H 82.3537 2.03901 -5.76398 0
M  V30 958 H 86.5277 1.81057 -6.72452 0
M  V30 959 H 84.1547 1.65907 -7.41875 0
M  V30 960 N 85.7298 1.2412 0.971189 0
M  V30 961 C 86.6618 0.988349 2.06795 0
M  V30 962 C 87.6748 -0.0409541 1.62748 0
M  V30 963 O 88.8638 0.195673 1.77424 0
M  V30 964 C 85.9638 0.469023 3.35639 0
M  V30 965 C 85.1368 1.56065 4.08611 0
M  V30 966 C 84.1958 1.04458 5.15728 0
M  V30 967 O 83.2218 1.73553 5.42096 0
M  V30 968 N 84.4238 -0.122817 5.8037 0
M  V30 969 H 87.1888 1.93265 2.29061 0
M  V30 970 H 84.7498 1.15102 1.13856 0
M  V30 971 H 86.7418 0.108613 4.04554 0
M  V30 972 H 85.3118 -0.380919 3.1027 0
M  V30 973 H 84.5318 2.09341 3.34021 0
M  V30 974 H 85.8198 2.29449 4.54126 0
M  V30 975 H 85.2178 -0.700563 5.61345 0
M  V30 976 H 83.7748 -0.424404 6.50417 0
M  V30 977 N 87.2079 -1.17134 1.05439 0
M  V30 978 C 88.4329 -1.91913 0.786396 0
M  V30 979 C 88.8579 -1.7643 -0.652234 0
M  V30 980 O 88.2159 -1.08372 -1.45345 0
M  V30 981 C 88.2639 -3.40921 1.17497 0
M  V30 982 O 87.3679 -4.11244 0.308589 0
M  V30 983 H 86.7089 -0.598215 0.288158 0
M  V30 984 H 89.2389 -1.48457 1.4079 0
M  V30 985 H 89.2489 -3.91668 1.14281 0
M  V30 986 H 87.9239 -3.5151 2.22292 0
M  V30 987 H 86.5009 -3.70731 0.40157 0
M  V30 988 N 88.686 -0.835752 -1.33615 0
M  V30 989 C 89.934 -0.429109 -1.97492 0
M  V30 990 C 90.255 1.01433 -1.66543 0
M  V30 991 O 89.525 1.70611 -0.962744 0
M  V30 992 H 88.105 -0.155686 -0.730596 0
M  V30 993 H 90.767 -1.06802 -1.63031 0
M  V30 994 H 89.863 -0.55861 -3.0706 0
M  V30 995 N 90.1641 1.46063 -0.591896 0
M  V30 996 C 91.4131 2.01547 -0.0786637 0
M  V30 997 C 91.7261 1.46796 1.29268 0
M  V30 998 O 92.9321 1.94157 1.89777 0
M  V30 999 C 91.3881 3.59787 -0.0900024 0
M  V30 1000 C 90.9961 4.23534 -1.46023 0
M  V30 1001 C 92.7401 4.22895 0.368806 0
M  V30 1002 C 90.6471 5.73881 -1.4288 0
M  V30 1003 H 89.5771 0.753564 -0.0256388 0
M  V30 1004 H 92.2281 1.677 -0.744905 0
M  V30 1005 H 90.6101 3.90752 0.642586 0
M  V30 1006 H 91.7841 4.04167 -2.21328 0
M  V30 1007 H 90.0991 3.72558 -1.85982 0
M  V30 1008 H 92.6961 5.33116 0.411258 0
M  V30 1009 H 93.0391 3.9247 1.38827 0
M  V30 1010 H 93.5721 3.9659 -0.31001 0
M  V30 1011 H 90.3111 6.0898 -2.42536 0
M  V30 1012 H 89.8311 5.95486 -0.718095 0
M  V30 1013 H 91.5101 6.36776 -1.14565 0
M  V30 1014 N 91.6422 0.330177 1.54103 0
M  V30 1015 C 92.8902 -0.269871 2.0029 0
M  V30 1016 C 93.2112 -1.52133 1.21986 0
M  V30 1017 O 92.4812 -1.93212 0.323438 0
M  V30 1018 H 91.0612 -0.10271 0.739905 0
M  V30 1019 H 93.7232 0.448249 1.89675 0
M  V30 1020 H 92.8192 -0.52166 3.07709 0
M  V30 1021 N 93.1203 -1.57491 0.0584922 0
M  V30 1022 C 94.0303 -2.15448 -0.928414 0
M  V30 1023 C 95.0463 -1.11416 -1.3365 0
M  V30 1024 O 96.2223 -1.4362 -1.41193 0
M  V30 1025 C 93.2873 -2.69393 -2.18239 0
M  V30 1026 C 92.3483 -3.88249 -1.83196 0
M  V30 1027 C 91.5813 -4.39613 -3.02616 0
M  V30 1028 O 91.8043 -3.90023 -4.16219 0
M  V30 1029 O 90.7383 -5.31111 -2.83204 0
M  V30 1030 H 94.5643 -3.00112 -0.465483 0
M  V30 1031 H 92.1493 -1.48499 -0.163826 0
M  V30 1032 H 94.0313 -3.04026 -2.91798 0
M  V30 1033 H 92.7063 -1.87796 -2.63656 0
M  V30 1034 H 91.6133 -3.58492 -1.06931 0
M  V30 1035 H 92.9463 -4.71098 -1.42573 0
M  V30 1036 N 94.5984 0.214957 -1.56127 0
M  V30 1037 C 95.5454 1.26642 -1.92952 0
M  V30 1038 C 96.5154 1.46244 -0.78753 0
M  V30 1039 O 97.7004 1.59704 -1.04399 0
M  V30 1040 C 94.8404 2.6104 -2.25726 0
M  V30 1041 C 93.9534 2.49183 -3.52891 0
M  V30 1042 C 93.0884 3.76149 -3.7508 0
M  V30 1043 C 92.1274 3.59041 -4.95738 0
M  V30 1044 N 91.2644 4.77972 -5.14283 0
M  V30 1045 H 96.1044 0.945384 -2.82607 0
M  V30 1046 H 93.6414 0.455489 -1.3987 0
M  V30 1047 H 95.5994 3.39313 -2.42739 0
M  V30 1048 H 94.2294 2.91227 -1.39236 0
M  V30 1049 H 93.2814 1.6231 -3.44034 0
M  V30 1050 H 94.5934 2.32466 -4.41318 0
M  V30 1051 H 93.7474 4.62865 -3.92226 0
M  V30 1052 H 92.4864 3.95799 -2.84947 0
M  V30 1053 H 91.4914 2.7071 -4.78535 0
M  V30 1054 H 92.7164 3.40856 -5.87362 0
M  V30 1055 H 90.6624 4.97923 -4.27093 0
M  V30 1056 H 90.5794 4.64006 -5.96853 0
M  V30 1057 H 91.8474 5.66096 -5.35869 0
M  V30 1058 N 96.0765 1.50051 0.48192 0
M  V30 1059 C 97.0065 1.71046 1.58951 0
M  V30 1060 C 97.9875 0.559288 1.60642 0
M  V30 1061 O 99.1725 0.797243 1.77081 0
M  V30 1062 C 96.3025 1.79462 2.97339 0
M  V30 1063 C 95.2565 2.94558 3.10515 0
M  V30 1064 C 94.5825 2.88105 4.50444 0
M  V30 1065 C 95.8825 4.35227 2.88747 0
M  V30 1066 H 97.5765 2.6378 1.41635 0
M  V30 1067 H 95.1225 1.26936 0.679942 0
M  V30 1068 H 97.0755 1.92734 3.74742 0
M  V30 1069 H 95.7995 0.833412 3.15788 0
M  V30 1070 H 94.4585 2.80918 2.35543 0
M  V30 1071 H 94.1065 1.89853 4.65795 0
M  V30 1072 H 93.8065 3.65366 4.60197 0
M  V30 1073 H 95.3305 3.03412 5.29881 0
M  V30 1074 H 96.7445 4.49449 3.55905 0
M  V30 1075 H 95.1415 5.13856 3.09955 0
M  V30 1076 H 96.2115 4.48347 1.84696 0
M  V30 1077 N 97.5546 -0.734337 1.39446 0
M  V30 1078 C 98.5046 -1.83949 1.34709 0
M  V30 1079 C 99.4886 -1.59279 0.227851 0
M  V30 1080 O 100.681 -1.70771 0.465438 0
M  V30 1081 C 97.8096 -3.21884 1.19356 0
M  V30 1082 C 96.8956 -3.52381 2.35984 0
M  V30 1083 N 97.2866 -3.53811 3.61457 0
M  V30 1084 C 95.5846 -3.82747 2.28956 0
M  V30 1085 C 96.2856 -3.82122 4.38586 0
M  V30 1086 N 95.2616 -3.9993 3.68181 0
M  V30 1087 H 99.0636 -1.83361 2.29687 0
M  V30 1088 H 96.5776 -0.932609 1.32952 0
M  V30 1089 H 98.5746 -4.00998 1.14046 0
M  V30 1090 H 97.2346 -3.23711 0.253295 0
M  V30 1091 H 98.2456 -3.35107 3.94872 0
M  V30 1092 H 94.9226 -3.92175 1.43194 0
M  V30 1093 H 96.3126 -3.89691 5.47349 0
M  V30 1094 N 99.0327 -1.24633 -0.964593 0
M  V30 1095 C 99.9647 -0.999302 -2.06268 0
M  V30 1096 C 100.978 0.0323226 -1.62768 0
M  V30 1097 O 102.167 -0.205079 -1.77318 0
M  V30 1098 C 99.2667 -0.486816 -3.35385 0
M  V30 1099 C 98.4397 -1.5823 -4.07777 0
M  V30 1100 C 97.4987 -1.07191 -5.15166 0
M  V30 1101 O 96.5247 -1.76426 -5.41168 0
M  V30 1102 N 97.7267 0.0920373 -5.80427 0
M  V30 1103 H 100.492 -1.94477 -2.28033 0
M  V30 1104 H 98.0527 -1.15704 -1.13244 0
M  V30 1105 H 100.045 -0.130066 -4.04491 0
M  V30 1106 H 98.6147 0.364459 -3.10468 0
M  V30 1107 H 97.8347 -2.11109 -3.32906 0
M  V30 1108 H 99.1227 -2.31854 -4.52903 0
M  V30 1109 H 98.5207 0.670784 -5.61709 0
M  V30 1110 H 97.0777 0.389905 -6.50633 0
M  V30 1111 N 100.511 1.16574 -1.06058 0
M  V30 1112 C 101.458 2.20883 -0.669263 0
M  V30 1113 C 102.428 1.62729 0.332918 0
M  V30 1114 O 103.613 1.895 0.222346 0
M  V30 1115 C 100.753 3.45049 -0.0593572 0
M  V30 1116 C 99.8658 4.17458 -1.11143 0
M  V30 1117 C 99.0008 5.29135 -0.467916 0
M  V30 1118 C 98.0398 5.93343 -1.50369 0
M  V30 1119 N 97.1768 6.96516 -0.883706 0
M  V30 1120 H 102.017 2.53709 -1.5632 0
M  V30 1121 H 99.5538 1.24616 -0.781625 0
M  V30 1122 H 101.512 4.16033 0.311771 0
M  V30 1123 H 100.142 3.12781 0.797992 0
M  V30 1124 H 99.1938 3.45101 -1.60029 0
M  V30 1125 H 100.506 4.61307 -1.89731 0
M  V30 1126 H 99.6598 6.06684 -0.0436871 0
M  V30 1127 H 98.3988 4.86443 0.349864 0
M  V30 1128 H 97.4038 5.14517 -1.93784 0
M  V30 1129 H 98.6288 6.38114 -2.32352 0
M  V30 1130 H 96.5748 6.55943 -0.086595 0
M  V30 1131 H 96.4918 7.38723 -1.607 0
M  V30 1132 H 97.7598 7.77993 -0.484543 0
M  V30 1133 N 101.989 0.842826 1.3317 0
M  V30 1134 C 102.919 0.294028 2.31641 0
M  V30 1135 C 103.9 -0.600401 1.59151 0
M  V30 1136 O 105.085 -0.523124 1.87022 0
M  V30 1137 C 102.215 -0.528416 3.43257 0
M  V30 1138 C 101.169 0.27056 4.27144 0
M  V30 1139 C 100.495 -0.675881 5.30411 0
M  V30 1140 C 101.795 1.48981 5.00602 0
M  V30 1141 H 103.489 1.11681 2.77791 0
M  V30 1142 H 101.035 0.538478 1.33553 0
M  V30 1143 H 102.988 -0.922674 4.11175 0
M  V30 1144 H 101.712 -1.38445 2.95805 0
M  V30 1145 H 100.371 0.646427 3.60856 0
M  V30 1146 H 100.019 -1.52842 4.79216 0
M  V30 1147 H 99.7189 -0.145374 5.8742 0
M  V30 1148 H 101.243 -1.06757 6.01195 0
M  V30 1149 H 102.657 1.16849 5.61266 0
M  V30 1150 H 101.054 1.95739 5.6728 0
M  V30 1151 H 102.124 2.25746 4.29147 0
M  V30 1152 N 103.467 -1.45747 0.599634 0
M  V30 1153 C 104.397 -2.33235 -0.111306 0
M  V30 1154 C 105.378 -1.46359 -0.866781 0
M  V30 1155 O 106.563 -1.75146 -0.838904 0
M  V30 1156 C 103.693 -3.28932 -1.11451 0
M  V30 1157 C 102.647 -4.25381 -0.472772 0
M  V30 1158 C 101.973 -5.1071 -1.58365 0
M  V30 1159 C 103.273 -5.18831 0.600948 0
M  V30 1160 H 104.967 -2.92927 0.61919 0
M  V30 1161 H 102.513 -1.40857 0.299215 0
M  V30 1162 H 104.466 -3.89002 -1.62036 0
M  V30 1163 H 103.19 -2.67381 -1.8755 0
M  V30 1164 H 101.849 -3.66598 0.0121472 0
M  V30 1165 H 101.497 -4.45533 -2.33473 0
M  V30 1166 H 101.197 -5.7604 -1.15982 0
M  V30 1167 H 102.721 -5.73647 -2.09194 0
M  V30 1168 H 104.135 -5.73019 0.179491 0
M  V30 1169 H 102.532 -5.92595 0.946076 0
M  V30 1170 H 103.602 -4.6174 1.48068 0
M  V30 1171 N 104.945 -0.338344 -1.53925 0
M  V30 1172 C 105.855 0.529421 -2.28548 0
M  V30 1173 C 106.871 1.11645 -1.3346 0
M  V30 1174 O 108.047 1.13325 -1.66492 0
M  V30 1175 C 105.112 1.66713 -3.03987 0
M  V30 1176 C 104.173 1.11041 -4.14691 0
M  V30 1177 C 103.406 2.19389 -4.86522 0
M  V30 1178 O 103.629 3.40013 -4.57982 0
M  V30 1179 O 102.563 1.83976 -5.73094 0
M  V30 1180 H 106.389 -0.0770399 -3.03602 0
M  V30 1181 H 103.974 -0.103555 -1.49041 0
M  V30 1182 H 105.856 2.32918 -3.5118 0
M  V30 1183 H 104.531 2.25949 -2.31794 0
M  V30 1184 H 103.438 0.413024 -3.71813 0
M  V30 1185 H 104.771 0.562975 -4.8897 0
M  V30 1186 N 106.423 1.57458 -0.0668435 0
M  V30 1187 C 107.839 1.56947 0.289772 0
M  V30 1188 C 108.039 1.07584 1.70376 0
M  V30 1189 O 107.095 0.739486 2.41429 0
M  V30 1190 C 108.408 3.0052 0.103943 0
M  V30 1191 C 109.956 3.12517 0.173857 0
M  V30 1192 C 110.431 4.57997 0.0163682 0
M  V30 1193 N 111.922 4.63144 0.0721352 0
M  V30 1194 C 112.657 5.73394 -0.0253794 0
M  V30 1195 N 112.153 6.92576 -0.176133 0
M  V30 1196 N 113.946 5.62091 0.0313305 0
M  V30 1197 H 106.097 1.87863 -0.991027 0
M  V30 1198 H 108.36 0.86583 -0.38606 0
M  V30 1199 H 108.066 3.40729 -0.871572 0
M  V30 1200 H 107.94 3.67304 0.858366 0
M  V30 1201 H 110.327 2.72197 1.13985 0
M  V30 1202 H 110.408 2.48381 -0.611586 0
M  V30 1203 H 110.052 4.99005 -0.946374 0
M  V30 1204 H 109.982 5.20158 0.821153 0
M  V30 1205 H 112.473 3.77436 0.187263 0
M  V30 1206 H 112.786 7.72418 -0.242821 0
M  V30 1207 H 111.131 6.94678 -0.211429 0
M  V30 1208 H 114.322 4.67867 0.147773 0
M  V30 1209 H 114.495 6.47982 -0.048121 0
M  V30 1210 N 107.901 -0.206675 1.56239 0
M  V30 1211 C 108.864 -1.23976 1.92776 0
M  V30 1212 C 109.864 -1.39041 0.807729 0
M  V30 1213 O 111.054 -1.37051 1.0753 0
M  V30 1214 C 108.186 -2.61112 2.19165 0
M  V30 1215 H 109.379 -0.927764 2.85189 0
M  V30 1216 H 106.932 -0.447718 1.4975 0
M  V30 1217 H 107.667 -2.97386 1.29352 0
M  V30 1218 H 107.452 -2.51552 3.00772 0
M  V30 1219 H 108.942 -3.35633 2.48476 0
M  V30 1220 N 109.379 -1.50304 -0.473955 0
M  V30 1221 C 110.326 -1.68959 -1.57231 0
M  V30 1222 C 111.296 -0.530899 -1.57387 0
M  V30 1223 O 112.481 -0.761133 -1.74961 0
M  V30 1224 C 109.621 -1.7871 -2.95223 0
M  V30 1225 C 108.734 -3.06061 -3.04878 0
M  V30 1226 C 107.869 -3.06626 -4.33767 0
M  V30 1227 C 106.908 -4.28443 -4.37154 0
M  V30 1228 N 106.045 -4.26763 -5.5751 0
M  V30 1229 H 110.885 -2.6273 -1.40631 0
M  V30 1230 H 108.422 -1.30241 -0.683789 0
M  V30 1231 H 110.38 -1.82344 -3.75242 0
M  V30 1232 H 109.01 -0.883806 -3.10465 0
M  V30 1233 H 108.062 -3.11911 -2.17751 0
M  V30 1234 H 109.374 -3.96039 -3.0324 0
M  V30 1235 H 108.528 -3.08973 -5.22131 0
M  V30 1236 H 107.267 -2.14473 -4.3801 0
M  V30 1237 H 106.272 -4.2631 -3.47188 0
M  V30 1238 H 107.497 -5.2182 -4.34605 0
M  V30 1239 H 105.443 -3.37462 -5.62544 0
M  V30 1240 H 105.36 -5.10507 -5.57601 0
M  V30 1241 H 106.628 -4.33253 -6.48006 0
M  V30 1242 N 110.857 0.726932 -1.39834 0
M  V30 1243 C 112.105 1.4837 -1.37225 0
M  V30 1244 C 112.426 1.94979 0.0284857 0
M  V30 1245 O 111.696 1.69555 0.981213 0
M  V30 1246 H 110.276 0.55043 -0.505011 0
M  V30 1247 H 112.938 0.862468 -1.74778 0
M  V30 1248 H 112.034 2.36198 -2.04003 0
M  V30 1249 N 112.336 1.25143 0.95797 0
M  V30 1250 C 113.283 1.05235 2.05412 0
M  V30 1251 C 114.253 -0.0374561 1.66058 0
M  V30 1252 O 115.438 0.119073 1.90428 0
M  V30 1253 C 112.578 0.673589 3.38462 0
M  V30 1254 C 111.691 1.8379 3.90954 0
M  V30 1255 C 110.826 1.40381 5.12315 0
M  V30 1256 C 109.865 2.53746 5.57027 0
M  V30 1257 N 109.002 2.11136 6.69601 0
M  V30 1258 H 113.842 1.99048 2.21774 0
M  V30 1259 H 111.379 0.991277 1.08683 0
M  V30 1260 H 113.337 0.434964 4.14926 0
M  V30 1261 H 111.967 -0.227554 3.21997 0
M  V30 1262 H 111.019 2.18992 3.11041 0
M  V30 1263 H 112.331 2.68937 4.20089 0
M  V30 1264 H 111.485 1.12464 5.96185 0
M  V30 1265 H 110.224 0.523015 4.84887 0
M  V30 1266 H 109.229 2.82412 4.71724 0
M  V30 1267 H 110.454 3.42398 5.86464 0
M  V30 1268 H 108.4 1.25468 6.4389 0
M  V30 1269 H 108.317 2.89832 6.98236 0
M  V30 1270 H 109.585 1.86385 7.56889 0
M  V30 1271 N 113.814 -1.1601 1.06675 0
M  V30 1272 C 115.23 -1.38622 0.790948 0
M  V30 1273 C 115.43 -1.92109 -0.607965 0
M  V30 1274 O 114.486 -2.12239 -1.36787 0
M  V30 1275 C 115.799 -2.36347 1.85905 0
M  V30 1276 C 117.347 -2.50023 1.88301 0
M  V30 1277 C 117.822 -3.51033 2.94176 0
M  V30 1278 N 119.313 -3.58563 2.93235 0
M  V30 1279 C 120.048 -4.36521 3.71803 0
M  V30 1280 N 119.544 -5.17869 4.602 0
M  V30 1281 N 121.337 -4.31541 3.60178 0
M  V30 1282 H 113.488 -0.796294 1.96908 0
M  V30 1283 H 115.751 -0.412597 0.853503 0
M  V30 1284 H 115.457 -2.04147 2.86386 0
M  V30 1285 H 115.331 -3.36042 1.71334 0
M  V30 1286 H 117.718 -2.81524 0.884769 0
M  V30 1287 H 117.799 -1.5035 2.06951 0
M  V30 1288 H 117.443 -3.20268 3.94196 0
M  V30 1289 H 117.373 -4.50445 2.72776 0
M  V30 1290 H 119.864 -3.00496 2.29152 0
M  V30 1291 H 120.177 -5.74578 5.16797 0
M  V30 1292 H 118.522 -5.17199 4.64253 0
M  V30 1293 H 121.713 -3.67051 2.90502 0
M  V30 1294 H 121.886 -4.9205 4.21653 0
M  V30 1295 N 115.292 -0.849877 -1.32721 0
M  V30 1296 C 116.24 -0.279745 -2.30912 0
M  V30 1297 C 117.234 0.594278 -1.58634 0
M  V30 1298 O 118.44 0.482613 -1.73409 0
M  V30 1299 H 114.815 -0.0717521 -0.748569 0
M  V30 1300 H 116.786 -1.12222 -2.76494 0
M  V30 1301 C 115.535 0.521108 -3.43773 0
M  V30 1302 H 114.858 -0.142141 -3.99547 0
M  V30 1303 H 116.298 0.885693 -4.14646 0
M  V30 1304 C 114.757 1.70442 -2.90605 0
M  V30 1305 O 115.287 2.8034 -2.87702 0
M  V30 1306 N 113.493 1.52991 -2.47067 0
M  V30 1307 H 113.04 0.635914 -2.49628 0
M  V30 1308 H 112.998 2.32311 -2.11847 0
M  V30 1309 N 116.77 1.45427 -0.607355 0
M  V30 1310 C 118.016 2.03097 -0.111035 0
M  V30 1311 C 118.371 1.46735 1.24445 0
M  V30 1312 O 117.664 0.632478 1.8086 0
M  V30 1313 C 117.858 3.57398 -0.0129263 0
M  V30 1314 C 117.687 4.28726 -1.35735 0
M  V30 1315 C 116.457 4.66659 -1.93798 0
M  V30 1316 C 118.655 4.60699 -2.28607 0
M  V30 1317 N 116.637 5.22845 -3.21723 0
M  V30 1318 C 118.008 5.17716 -3.41131 0
M  V30 1319 C 120.063 4.42638 -2.27982 0
M  V30 1320 C 118.766 5.58576 -4.53194 0
M  V30 1321 C 120.792 4.84531 -3.39093 0
M  V30 1322 C 120.154 5.4164 -4.50339 0
M  V30 1323 H 116.253 0.777476 -0.083994 0
M  V30 1324 H 118.837 1.77249 -0.805655 0
M  V30 1325 H 117.008 3.82907 0.650914 0
M  V30 1326 H 118.74 4.01722 0.490033 0
M  V30 1327 H 115.495 4.50207 -1.47007 0
M  V30 1328 H 115.919 5.55438 -3.87063 0
M  V30 1329 H 120.561 3.97798 -1.43235 0
M  V30 1330 H 118.279 6.02382 -5.38667 0
M  V30 1331 H 121.865 4.72289 -3.39757 0
M  V30 1332 H 120.745 5.73461 -5.34895 0
M  V30 1333 N 118.248 0.346503 1.53744 0
M  V30 1334 C 119.178 -0.501193 2.28058 0
M  V30 1335 C 120.159 -1.10014 1.29734 0
M  V30 1336 O 121.344 -1.12097 1.58581 0
M  V30 1337 C 118.474 -1.65078 3.05559 0
M  V30 1338 C 117.428 -1.18003 4.11411 0
M  V30 1339 C 116.754 -2.41837 4.76884 0
M  V30 1340 C 118.054 -0.278394 5.21558 0
M  V30 1341 H 119.748 0.11875 2.99164 0
M  V30 1342 H 117.294 0.0585531 1.43881 0
M  V30 1343 H 119.247 -2.25028 3.56287 0
M  V30 1344 H 117.971 -2.29767 2.32109 0
M  V30 1345 H 116.63 -0.603331 3.61601 0
M  V30 1346 H 116.278 -3.0494 4.00026 0
M  V30 1347 H 115.978 -2.1102 5.48402 0
M  V30 1348 H 117.502 -3.02508 5.30397 0
M  V30 1349 H 118.916 -0.784823 5.67903 0
M  V30 1350 H 117.313 -0.0619707 6.00068 0
M  V30 1351 H 118.383 0.684677 4.80042 0
M  V30 1352 N 119.726 -1.57421 0.075193 0
M  V30 1353 C 120.636 -2.1642 -0.905511 0
M  V30 1354 C 121.652 -1.12828 -1.32461 0
M  V30 1355 O 122.828 -1.45109 -1.39661 0
M  V30 1356 C 119.893 -2.71693 -2.15369 0
M  V30 1357 C 118.954 -3.90171 -1.79068 0
M  V30 1358 C 118.187 -4.42798 -2.97936 0
M  V30 1359 O 118.41 -3.94416 -4.12058 0
M  V30 1360 O 117.344 -5.34085 -2.77555 0
M  V30 1361 H 121.17 -3.00588 -0.433626 0
M  V30 1362 H 118.755 -1.48664 -0.148067 0
M  V30 1363 H 120.637 -3.07104 -2.88557 0
M  V30 1364 H 119.312 -1.90582 -2.61649 0
M  V30 1365 H 118.219 -3.59606 -1.03122 0
M  V30 1366 H 119.552 -4.72584 -1.37569 0
M  V30 1367 N 121.204 0.198386 -1.56346 0
M  V30 1368 C 122.114 1.2664 -1.97483 0
M  V30 1369 C 123.13 1.49989 -0.882002 0
M  V30 1370 O 124.306 1.62668 -1.18748 0
M  V30 1371 C 121.371 2.59141 -2.30319 0
M  V30 1372 C 120.432 2.43892 -3.53292 0
M  V30 1373 C 119.665 3.70074 -3.84553 0
M  V30 1374 O 119.888 4.74101 -3.1715 0
M  V30 1375 O 118.822 3.658 -4.7799 0
M  V30 1376 H 122.648 0.947304 -2.88548 0
M  V30 1377 H 120.233 0.403123 -1.43859 0
M  V30 1378 H 122.115 3.37352 -2.5253 0
M  V30 1379 H 120.79 2.90684 -1.42423 0
M  V30 1380 H 119.697 1.63803 -3.36332 0
M  V30 1381 H 121.03 2.17282 -4.41644 0
M  V30 1382 N 122.682 1.50554 0.465978 0
M  V30 1383 C 123.928 1.63006 1.21658 0
M  V30 1384 C 124.283 0.328613 1.89573 0
M  V30 1385 O 123.576 -0.673813 1.79361 0
M  V30 1386 C 123.77 2.75152 2.28093 0
M  V30 1387 C 123.599 4.16075 1.7062 0
M  V30 1388 C 122.369 4.82408 1.50368 0
M  V30 1389 C 124.567 5.00145 1.1983 0
M  V30 1390 N 122.549 6.07532 0.881924 0
M  V30 1391 C 123.92 6.16035 0.700083 0
M  V30 1392 C 125.975 4.85882 1.08733 0
M  V30 1393 C 124.678 7.19228 0.101835 0
M  V30 1394 C 126.704 5.89257 0.503016 0
M  V30 1395 C 126.066 7.04398 0.0152005 0
M  V30 1396 H 122.165 0.650596 0.433877 0
M  V30 1397 H 124.749 1.8769 0.517746 0
M  V30 1398 H 122.92 2.52181 2.95397 0
M  V30 1399 H 124.652 2.76935 2.95109 0
M  V30 1400 H 121.407 4.39788 1.75737 0
M  V30 1401 H 121.831 6.7443 0.589312 0
M  V30 1402 H 126.473 3.97144 1.4504 0
M  V30 1403 H 124.191 8.07637 -0.273426 0
M  V30 1404 H 127.777 5.80286 0.419451 0
M  V30 1405 H 126.657 7.83021 -0.429856 0
M  V30 1406 N 124.16 -0.719506 1.40217 0
M  V30 1407 C 125.406 -1.48034 1.39491 0
M  V30 1408 C 125.761 -1.92399 -0.00443536 0
M  V30 1409 O 125.054 -1.64993 -0.974061 0
M  V30 1410 C 125.248 -2.72271 2.31524 0
M  V30 1411 C 125.077 -2.40055 3.80268 0
M  V30 1412 C 123.847 -2.31588 4.49105 0
M  V30 1413 C 126.045 -2.04581 4.71859 0
M  V30 1414 N 124.027 -1.92006 5.83101 0
M  V30 1415 C 125.398 -1.75568 5.94623 0
M  V30 1416 C 127.453 -1.91183 4.59732 0
M  V30 1417 C 126.156 -1.34505 7.06612 0
M  V30 1418 C 128.182 -1.51524 5.71659 0
M  V30 1419 C 127.544 -1.23406 6.93506 0
M  V30 1420 H 123.643 -0.539927 0.565688 0
M  V30 1421 H 126.227 -0.834764 1.75897 0
M  V30 1422 H 124.398 -3.34584 1.97251 0
M  V30 1423 H 126.13 -3.38584 2.21682 0
M  V30 1424 H 122.885 -2.49199 4.02737 0
M  V30 1425 H 123.309 -1.74764 6.54054 0
M  V30 1426 H 127.951 -2.11584 3.66049 0
M  V30 1427 H 125.669 -1.12846 8.00182 0
M  V30 1428 H 129.255 -1.41741 5.6427 0
M  V30 1429 H 128.135 -0.931788 7.78645 0
M  V30 1430 N 125.638 -1.25649 -0.95132 0
M  V30 1431 C 126.568 -1.08808 -2.06599 0
M  V30 1432 C 127.549 0.00382547 -1.701 0
M  V30 1433 O 128.734 -0.166325 -1.93486 0
M  V30 1434 C 125.864 -0.709542 -3.39975 0
M  V30 1435 C 124.818 -1.75206 -3.90496 0
M  V30 1436 C 124.144 -1.22811 -5.20405 0
M  V30 1437 C 125.444 -3.15153 -4.16504 0
M  V30 1438 H 127.138 -2.02048 -2.20946 0
M  V30 1439 H 124.684 -0.972835 -1.06169 0
M  V30 1440 H 126.637 -0.578649 -4.17408 0
M  V30 1441 H 125.361 0.258556 -3.25575 0
M  V30 1442 H 124.02 -1.87145 -3.15234 0
M  V30 1443 H 123.668 -0.250145 -5.02378 0
M  V30 1444 H 123.368 -1.92492 -5.55176 0
M  V30 1445 H 124.892 -1.10968 -6.00432 0
M  V30 1446 H 126.306 -3.06349 -4.84586 0
M  V30 1447 H 124.703 -3.82333 -4.62538 0
M  V30 1448 H 125.773 -3.61966 -3.22658 0
M  V30 1449 N 127.117 1.15442 -1.07289 0
M  V30 1450 C 128.065 2.22225 -0.686952 0
M  V30 1451 C 129.059 1.66688 0.30193 0
M  V30 1452 O 130.265 1.79236 0.165712 0
M  V30 1453 H 126.64 0.723783 -0.204064 0
M  V30 1454 H 128.611 2.52056 -1.5972 0
M  V30 1455 C 127.36 3.47556 -0.100149 0
M  V30 1456 H 126.683 3.90612 -0.852211 0
M  V30 1457 H 128.123 4.23794 0.132235 0
M  V30 1458 C 126.582 3.16337 1.159 0
M  V30 1459 O 127.112 3.33074 2.24555 0
M  V30 1460 N 125.318 2.70385 1.06491 0
M  V30 1461 H 124.865 2.56966 0.180668 0
M  V30 1462 H 124.823 2.49871 1.90819 0
M  V30 1463 N 128.595 0.856903 1.32268 0
M  V30 1464 C 129.841 0.462069 1.97466 0
M  V30 1465 C 130.174 -0.980298 1.67642 0
M  V30 1466 O 129.449 -1.68824 0.965858 0
M  V30 1467 C 129.732 0.704336 3.53145 0
M  V30 1468 C 129.585 2.19529 3.9259 0
M  V30 1469 C 130.904 0.1622 4.39801 0
M  V30 1470 H 128.023 0.169357 0.717278 0
M  V30 1471 H 130.665 1.07574 1.56614 0
M  V30 1472 H 128.815 0.181999 3.88073 0
M  V30 1473 H 130.487 2.78387 3.67829 0
M  V30 1474 H 128.73 2.67292 3.41668 0
M  V30 1475 H 129.401 2.31549 5.01088 0
M  V30 1476 H 131.877 0.608905 4.11621 0
M  V30 1477 H 130.753 0.361265 5.4771 0
M  V30 1478 H 131.014 -0.935158 4.32096 0
M  V30 1479 N 130.073 -1.45103 0.615059 0
M  V30 1480 C 131.036 -2.29025 -0.0895485 0
M  V30 1481 C 132.036 -1.40174 -0.787906 0
M  V30 1482 O 133.226 -1.62217 -0.634933 0
M  V30 1483 C 130.358 -3.21376 -1.13711 0
M  V30 1484 H 131.551 -2.92807 0.648382 0
M  V30 1485 H 129.104 -1.51749 0.374444 0
M  V30 1486 H 129.839 -2.6241 -1.90556 0
M  V30 1487 H 129.624 -3.86834 -0.640475 0
M  V30 1488 H 131.114 -3.84459 -1.63036 0
M  V30 1489 N 131.551 -0.354651 -1.53558 0
M  V30 1490 C 132.781 0.239167 -2.05211 0
M  V30 1491 C 133.189 1.43879 -1.22863 0
M  V30 1492 O 132.532 1.81857 -0.259565 0
M  V30 1493 C 132.594 0.707251 -3.52474 0
M  V30 1494 C 132.258 -0.374212 -4.55465 0
M  V30 1495 C 133.255 -1.22054 -5.0537 0
M  V30 1496 C 130.94 -0.531323 -4.99482 0
M  V30 1497 C 132.934 -2.20942 -5.97882 0
M  V30 1498 C 130.621 -1.52358 -5.91802 0
M  V30 1499 C 131.619 -2.36108 -6.40892 0
M  V30 1500 O 131.307 -3.33643 -7.31394 0
M  V30 1501 H 131.039 0.0479716 -0.674296 0
M  V30 1502 H 133.593 -0.508121 -1.99016 0
M  V30 1503 H 131.823 1.50596 -3.56171 0
M  V30 1504 H 133.512 1.22285 -3.87042 0
M  V30 1505 H 134.278 -1.1103 -4.7212 0
M  V30 1506 H 130.157 0.110738 -4.60867 0
M  V30 1507 H 133.701 -2.86348 -6.36121 0
M  V30 1508 H 129.598 -1.63434 -6.24467 0
M  V30 1509 H 130.366 -3.29244 -7.4936 0
M  V30 1510 N 133.029 1.57378 -0.0835403 0
M  V30 1511 C 133.959 2.1641 0.87686 0
M  V30 1512 C 134.94 1.09429 1.30228 0
M  V30 1513 O 136.125 1.37516 1.37124 0
M  V30 1514 C 133.255 2.73517 2.14022 0
M  V30 1515 C 132.209 3.85769 1.85381 0
M  V30 1516 C 131.535 4.29529 3.18448 0
M  V30 1517 C 132.835 5.09486 1.14984 0
M  V30 1518 H 134.529 2.96914 0.385059 0
M  V30 1519 H 132.075 1.42823 0.18377 0
M  V30 1520 H 134.028 3.13463 2.81636 0
M  V30 1521 H 132.752 1.90252 2.65465 0
M  V30 1522 H 131.411 3.46345 1.20169 0
M  V30 1523 H 131.059 3.43169 3.67755 0
M  V30 1524 H 130.759 5.05204 3.00071 0
M  V30 1525 H 132.283 4.72099 3.8724 0
M  V30 1526 H 133.697 5.46674 1.72687 0
M  V30 1527 H 132.094 5.90515 1.06826 0
M  V30 1528 H 133.164 4.84724 0.130749 0
M  V30 1529 N 134.507 -0.190092 1.56449 0
M  V30 1530 C 135.784 -0.935886 1.71757 0
M  V30 1531 C 136.164 -2.01173 0.639726 0
M  V30 1532 O 135.512 -2.25827 -0.348502 0
M  V30 1533 C 135.722 -1.51775 3.1427 0
M  V30 1534 C 137.07 -1.99794 3.74656 0
M  V30 1535 O 138.094 -1.61607 3.1743 0
M  V30 1536 O 136.953 -2.70079 4.751 0
M  V30 1537 H 134.047 -0.439229 0.700719 0
M  V30 1538 H 136.593 -0.179395 1.68749 0
M  V30 1539 H 135.365 -0.742505 3.84191 0
M  V30 1540 H 134.988 -2.33894 3.21527 0
M  V30 1541 N 135.985 -1.50799 -0.457987 0
M  V30 1542 C 137.231 -1.62683 -1.21088 0
M  V30 1543 C 137.564 -0.332268 -1.91336 0
M  V30 1544 O 136.839 0.667043 -1.82704 0
M  V30 1545 C 137.122 -2.81615 -2.24422 0
M  V30 1546 C 136.975 -4.20989 -1.58392 0
M  V30 1547 C 138.294 -2.96085 -3.2561 0
M  V30 1548 H 135.413 -0.592087 -0.438864 0
M  V30 1549 H 138.055 -1.83225 -0.50286 0
M  V30 1550 H 136.205 -2.64231 -2.84806 0
M  V30 1551 H 137.877 -4.49994 -1.01504 0
M  V30 1552 H 136.12 -4.24641 -0.886704 0
M  V30 1553 H 136.791 -5.0016 -2.33547 0
M  V30 1554 H 139.267 -3.12042 -2.75262 0
M  V30 1555 H 138.143 -3.80902 -3.95228 0
M  V30 1556 H 138.404 -2.0726 -3.90507 0
M  V30 1557 N 137.463 0.71206 -1.40597 0
M  V30 1558 C 138.879 1.02058 -1.22704 0
M  V30 1559 C 139.079 2.01228 -0.104729 0
M  V30 1560 O 138.135 2.4674 0.53624 0
M  V30 1561 C 139.448 1.56094 -2.57012 0
M  V30 1562 C 140.996 1.6806 -2.64054 0
M  V30 1563 C 141.471 2.25501 -3.9864 0
M  V30 1564 N 142.962 2.32882 -4.004 0
M  V30 1565 C 143.697 2.78317 -5.01325 0
M  V30 1566 N 143.193 3.23478 -6.12645 0
M  V30 1567 N 144.986 2.77733 -4.88693 0
M  V30 1568 H 137.137 0.0547896 -2.12329 0
M  V30 1569 H 139.4 0.0869027 -0.944008 0
M  V30 1570 H 139.106 0.906865 -3.39807 0
M  V30 1571 H 138.98 2.54564 -2.78347 0
M  V30 1572 H 141.367 2.32583 -1.81629 0
M  V30 1573 H 141.448 0.681802 -2.46546 0
M  V30 1574 H 141.092 1.61598 -4.81506 0
M  V30 1575 H 141.022 3.26102 -4.13479 0
M  V30 1576 H 143.513 2.00991 -3.20017 0
M  V30 1577 H 143.826 3.56725 -6.85542 0
M  V30 1578 H 142.171 3.21429 -6.16205 0
M  V30 1579 H 145.362 2.4179 -4.00818 0
M  V30 1580 H 145.535 3.12826 -5.67489 0
M  V30 1581 N 138.941 1.26152 0.944643 0
M  V30 1582 C 140.19 1.10883 1.68487 0
M  V30 1583 C 140.503 -0.348153 1.92477 0
M  V30 1584 O 141.709 -0.621459 2.64292 0
M  V30 1585 C 140.165 1.93624 3.03377 0
M  V30 1586 C 139.773 3.43875 2.87148 0
M  V30 1587 C 141.517 1.86954 3.81115 0
M  V30 1588 C 139.424 4.18875 4.1749 0
M  V30 1589 H 138.354 0.41135 0.631907 0
M  V30 1590 H 141.005 1.50433 1.05082 0
M  V30 1591 H 139.387 1.46904 3.67743 0
M  V30 1592 H 140.561 3.98338 2.31653 0
M  V30 1593 H 138.876 3.51744 2.22856 0
M  V30 1594 H 141.473 2.40275 4.77673 0
M  V30 1595 H 141.816 0.839518 4.07747 0
M  V30 1596 H 142.349 2.31477 3.23517 0
M  V30 1597 H 139.088 5.22332 3.96043 0
M  V30 1598 H 138.608 3.69193 4.72712 0
M  V30 1599 H 140.287 4.27134 4.85968 0
M  V30 1600 N 140.419 -1.14872 1.07899 0
M  V30 1601 C 141.83 -1.67367 0.827363 0
M  V30 1602 C 142.181 -1.85236 -0.646693 0
M  V30 1603 O 141.306 -1.55974 -1.50004 0
M  V30 1604 C 141.901 -3.04016 1.49532 0
M  V30 1605 C 140.46 -3.53566 1.29106 0
M  V30 1606 C 139.607 -2.29161 1.56143 0
M  V30 1607 H 142.558 -0.990083 1.24028 0
M  V30 1608 H 142.579 -3.69219 0.919643 0
M  V30 1609 H 142.091 -2.90978 2.56814 0
M  V30 1610 H 140.192 -3.71835 0.238713 0
M  V30 1611 H 140.305 -4.34661 2.01511 0
M  V30 1612 H 138.669 -2.34978 0.982717 0
M  V30 1613 H 139.452 -2.18705 2.64619 0
M  V30 1614 N 141.898 -0.863906 -1.31812 0
M  V30 1615 C 143.123 -0.48527 -2.01643 0
M  V30 1616 C 143.548 0.913058 -1.64453 0
M  V30 1617 O 142.906 1.6014 -0.849985 0
M  V30 1618 C 142.954 -0.642625 -3.54828 0
M  V30 1619 O 142.058 0.320659 -4.11151 0
M  V30 1620 H 141.399 -0.193793 -0.635091 0
M  V30 1621 H 143.929 -1.16565 -1.68148 0
M  V30 1622 H 143.939 -0.533628 -4.04495 0
M  V30 1623 H 142.614 -1.66227 -3.81237 0
M  V30 1624 H 141.191 0.167126 -3.72525 0
M  V30 1625 N 143.376 1.44774 -0.622745 0
M  V30 1626 C 144.308 2.28856 0.125485 0
M  V30 1627 C 145.321 1.40811 0.817069 0
M  V30 1628 O 146.51 1.65044 0.679918 0
M  V30 1629 C 143.61 3.16963 1.19949 0
M  V30 1630 C 142.783 4.33374 0.592064 0
M  V30 1631 C 141.842 5.02577 1.55893 0
M  V30 1632 O 140.868 5.58873 1.07933 0
M  V30 1633 N 142.07 5.03256 2.89334 0
M  V30 1634 H 144.835 2.93713 -0.596068 0
M  V30 1635 H 142.396 1.55129 -0.463303 0
M  V30 1636 H 144.388 3.60123 1.84644 0
M  V30 1637 H 142.958 2.53913 1.82337 0
M  V30 1638 H 142.178 3.93509 -0.233322 0
M  V30 1639 H 143.466 5.08527 0.166738 0
M  V30 1640 H 142.864 4.58836 3.30887 0
M  V30 1641 H 141.421 5.50232 3.49412 0
M  V30 1642 N 144.854 0.36279 1.53368 0
M  V30 1643 C 145.784 -0.476976 2.28576 0
M  V30 1644 C 146.765 -1.08631 1.30894 0
M  V30 1645 O 147.95 -1.10409 1.59761 0
M  V30 1646 C 145.08 -1.61828 3.07293 0
M  V30 1647 C 144.034 -1.13633 4.1264 0
M  V30 1648 C 143.36 -2.36766 4.79423 0
M  V30 1649 C 144.66 -0.223061 5.21823 0
M  V30 1650 H 146.354 0.150474 2.99022 0
M  V30 1651 H 143.9 0.0738103 1.43811 0
M  V30 1652 H 145.853 -2.21237 3.58653 0
M  V30 1653 H 144.577 -2.27292 2.34533 0
M  V30 1654 H 143.236 -0.564945 3.62221 0
M  V30 1655 H 142.884 -3.0068 4.03238 0
M  V30 1656 H 142.584 -2.05192 5.50609 0
M  V30 1657 H 144.108 -2.96865 5.33576 0
M  V30 1658 H 145.522 -0.724545 5.68703 0
M  V30 1659 H 143.919 0.001678 6.001 0
M  V30 1660 H 144.989 0.735553 4.79289 0
M  V30 1661 N 146.332 -1.57332 0.0918853 0
M  V30 1662 C 147.28 -2.15075 -0.885747 0
M  V30 1663 C 148.274 -1.09277 -1.29441 0
M  V30 1664 O 149.48 -1.27627 -1.26931 0
M  V30 1665 H 145.855 -0.687966 -0.303656 0
M  V30 1666 H 147.826 -2.96047 -0.373995 0
M  V30 1667 C 146.575 -2.74325 -2.13638 0
M  V30 1668 H 145.898 -3.55418 -1.8308 0
M  V30 1669 H 147.338 -3.183 -2.80109 0
M  V30 1670 C 145.797 -1.70062 -2.90827 0
M  V30 1671 O 146.327 -1.13763 -3.85254 0
M  V30 1672 N 144.533 -1.40628 -2.54307 0
M  V30 1673 H 144.08 -1.866 -1.7759 0
M  V30 1674 H 144.038 -0.711043 -3.06254 0
M  V30 1675 N 147.81 0.181792 -1.56548 0
M  V30 1676 C 149.056 0.901431 -1.81665 0
M  V30 1677 C 149.389 1.82347 -0.668075 0
M  V30 1678 O 148.664 1.91669 0.330615 0
M  V30 1679 C 148.947 1.70618 -3.17115 0
M  V30 1680 C 148.8 0.807964 -4.42484 0
M  V30 1681 C 150.119 2.67605 -3.49393 0
M  V30 1682 H 147.238 0.32627 -0.660846 0
M  V30 1683 H 149.88 0.168134 -1.89255 0
M  V30 1684 H 148.03 2.33133 -3.10775 0
M  V30 1685 H 149.702 0.19649 -4.60881 0
M  V30 1686 H 147.945 0.115411 -4.33646 0
M  V30 1687 H 148.616 1.40632 -5.33785 0
M  V30 1688 H 151.092 2.15218 -3.56118 0
M  V30 1689 H 149.968 3.20985 -4.45264 0
M  V30 1690 H 150.229 3.47298 -2.73563 0
M  V30 1691 N 149.288 1.51039 0.449983 0
M  V30 1692 C 150.236 1.71995 1.5659 0
M  V30 1693 C 151.23 0.586029 1.5894 0
M  V30 1694 O 152.436 0.76709 1.62837 0
M  V30 1695 H 148.811 0.543233 0.520001 0
M  V30 1696 H 150.782 2.65562 1.36085 0
M  V30 1697 C 149.531 1.8506 2.9436 0
M  V30 1698 H 148.854 2.71712 2.93279 0
M  V30 1699 H 150.294 2.0374 3.71842 0
M  V30 1700 C 148.753 0.607277 3.31382 0
M  V30 1701 O 149.283 -0.243903 4.00959 0
M  V30 1702 N 147.489 0.455073 2.87015 0
M  V30 1703 H 147.036 1.14879 2.30566 0
M  V30 1704 H 146.994 -0.375611 3.12148 0
M  V30 1705 N 150.766 -0.704594 1.40972 0
M  V30 1706 C 152.013 -1.46458 1.39844 0
M  V30 1707 C 152.341 -1.94499 0.00447594 0
M  V30 1708 O 151.596 -1.69275 -0.982057 0
M  V30 1709 C 151.895 -2.698 2.34399 0
M  V30 1710 C 151.561 -2.40464 3.81429 0
M  V30 1711 C 150.223 -2.32174 4.21484 0
M  V30 1712 C 152.575 -2.16086 4.74296 0
M  V30 1713 C 149.903 -1.97589 5.52427 0
M  V30 1714 C 152.255 -1.83011 6.05549 0
M  V30 1715 C 150.919 -1.7321 6.44635 0
M  V30 1716 H 150.189 -0.535927 0.511725 0
M  V30 1717 H 152.836 -0.806124 1.73706 0
M  V30 1718 H 151.141 -3.40536 1.93759 0
M  V30 1719 H 152.838 -3.27919 2.30804 0
M  V30 1720 H 149.428 -2.47808 3.49699 0
M  V30 1721 H 153.612 -2.2144 4.4416 0
M  V30 1722 H 148.868 -1.88547 5.81601 0
M  V30 1723 H 153.042 -1.63164 6.77016 0
M  V30 1724 H 150.669 -1.46179 7.46013 0
M  V30 1725 N 152.244 -1.26651 -0.937939 0
M  V30 1726 C 153.207 -1.08546 -2.01867 0
M  V30 1727 C 154.207 -0.0327327 -1.60767 0
M  V30 1728 O 155.397 -0.276427 -1.71993 0
M  V30 1729 C 152.529 -0.651711 -3.34613 0
M  V30 1730 H 153.722 -2.04502 -2.1936 0
M  V30 1731 H 151.275 -1.09294 -1.11734 0
M  V30 1732 H 152.01 0.309696 -3.22818 0
M  V30 1733 H 151.795 -1.41189 -3.65798 0
M  V30 1734 H 153.285 -0.546973 -4.14002 0
M  V30 1735 N 153.722 1.14298 -1.08507 0
M  V30 1736 C 154.97 1.84993 -0.813763 0
M  V30 1737 C 155.291 1.83405 0.662393 0
M  V30 1738 O 154.561 1.28319 1.48024 0
M  V30 1739 H 153.141 0.684966 -0.298045 0
M  V30 1740 H 155.803 1.385 -1.37126 0
M  V30 1741 H 154.899 2.89788 -1.15884 0
M  V30 1742 N 155.201 0.870884 1.31352 0
M  V30 1743 C 156.612 0.534714 1.78879 0
M  V30 1744 C 156.963 -0.948423 1.71754 0
M  V30 1745 O 156.088 -1.74055 1.28584 0
M  V30 1746 C 156.683 0.963839 3.24801 0
M  V30 1747 C 155.242 0.679311 3.70219 0
M  V30 1748 C 154.389 1.15465 2.52117 0
M  V30 1749 H 157.34 1.05651 1.18421 0
M  V30 1750 H 157.361 0.286892 3.79417 0
M  V30 1751 H 156.873 2.04332 3.29955 0
M  V30 1752 H 154.974 -0.388769 3.70566 0
M  V30 1753 H 155.087 1.25698 4.62317 0
M  V30 1754 H 153.451 0.574383 2.48139 0
M  V30 1755 H 154.234 2.24157 2.60016 0
M  V30 1756 N 156.679 -1.44442 0.630414 0
M  V30 1757 C 157.642 -2.29107 -0.0652523 0
M  V30 1758 C 158.642 -1.41002 -0.772995 0
M  V30 1759 O 159.832 -1.62881 -0.617692 0
M  V30 1760 C 156.964 -3.22564 -1.10296 0
M  V30 1761 H 158.157 -2.92103 0.679401 0
M  V30 1762 H 155.71 -1.51343 0.390517 0
M  V30 1763 H 156.445 -2.64416 -1.87762 0
M  V30 1764 H 156.23 -3.87491 -0.59941 0
M  V30 1765 H 157.72 -3.86167 -1.5895 0
M  V30 1766 N 158.157 -0.370918 -1.53173 0
M  V30 1767 C 159.12 0.460778 -2.24521 0
M  V30 1768 C 160.12 1.00536 -1.25496 0
M  V30 1769 O 161.31 0.890266 -1.49733 0
M  V30 1770 C 158.442 1.64457 -2.98608 0
M  V30 1771 H 159.635 -0.163613 -2.99453 0
M  V30 1772 H 157.188 -0.122699 -1.55818 0
M  V30 1773 H 157.923 2.30691 -2.2793 0
M  V30 1774 H 157.708 1.26099 -3.7127 0
M  V30 1775 H 159.198 2.23384 -3.5283 0
M  V30 1776 N 159.635 1.57281 -0.100228 0
M  V30 1777 C 160.585 2.10848 0.86759 0
M  V30 1778 C 161.569 1.02473 1.24049 0
M  V30 1779 O 162.761 1.28739 1.21471 0
M  V30 1780 C 159.89 2.69648 2.12474 0
M  V30 1781 C 158.976 3.85074 1.77704 0
M  V30 1782 N 159.367 4.92897 1.13518 0
M  V30 1783 C 157.665 3.94905 2.07282 0
M  V30 1784 C 158.366 5.73475 0.974735 0
M  V30 1785 N 157.342 5.22675 1.4937 0
M  V30 1786 H 161.144 2.91594 0.367471 0
M  V30 1787 H 158.658 1.62074 0.102829 0
M  V30 1788 H 160.655 3.06356 2.82757 0
M  V30 1789 H 159.315 1.90359 2.63047 0
M  V30 1790 H 160.326 5.11662 0.801381 0
M  V30 1791 H 157.003 3.26633 2.60033 0
M  V30 1792 H 158.393 6.70238 0.472364 0
M  V30 1793 N 161.113 -0.173488 1.56642 0
M  V30 1794 C 162.36 -0.890465 1.81871 0
M  V30 1795 C 162.688 -1.82339 0.67696 0
M  V30 1796 O 161.943 -1.92795 -0.335926 0
M  V30 1797 C 162.242 -1.72069 3.13252 0
M  V30 1798 C 161.908 -0.936878 4.41059 0
M  V30 1799 C 160.57 -0.720545 4.75775 0
M  V30 1800 C 162.922 -0.386919 5.19762 0
M  V30 1801 C 160.25 0.0568829 5.86672 0
M  V30 1802 C 162.602 0.37741 6.31473 0
M  V30 1803 C 161.266 0.604563 6.64757 0
M  V30 1804 H 160.536 -0.325844 0.665512 0
M  V30 1805 H 163.183 -0.155527 1.90867 0
M  V30 1806 H 161.488 -2.52496 2.99588 0
M  V30 1807 H 163.185 -2.27844 3.29982 0
M  V30 1808 H 159.775 -1.11553 4.13828 0
M  V30 1809 H 163.959 -0.541398 4.93338 0
M  V30 1810 H 159.215 0.242635 6.10918 0
M  V30 1811 H 163.389 0.810825 6.91664 0
M  V30 1812 H 161.016 1.20885 7.50527 0
M  V30 1813 N 162.591 -1.51276 -0.441967 0
M  V30 1814 C 163.501 -1.75092 -1.56141 0
M  V30 1815 C 164.517 -0.634963 -1.62001 0
M  V30 1816 O 165.693 -0.916686 -1.79329 0
M  V30 1817 C 162.758 -1.86666 -2.92158 0
M  V30 1818 C 161.819 -3.10506 -2.96453 0
M  V30 1819 C 161.052 -3.21519 -4.25982 0
M  V30 1820 O 161.275 -2.38586 -5.18105 0
M  V30 1821 O 160.209 -4.14465 -4.36466 0
M  V30 1822 H 164.035 -2.70044 -1.38961 0
M  V30 1823 H 161.62 -1.35722 -0.624499 0
M  V30 1824 H 163.502 -1.96292 -3.72891 0
M  V30 1825 H 162.177 -0.949014 -3.09476 0
M  V30 1826 H 161.084 -3.06363 -2.14692 0
M  V30 1827 H 162.417 -4.01945 -2.84079 0
M  V30 1828 N 164.069 0.697108 -1.41344 0
M  V30 1829 C 165.019 1.80313 -1.39539 0
M  V30 1830 C 166.003 1.58618 -0.270001 0
M  V30 1831 O 167.195 1.69477 -0.510551 0
M  V30 1832 C 164.324 3.18606 -1.27848 0
M  V30 1833 C 163.41 3.46001 -2.45244 0
M  V30 1834 N 163.801 3.44103 -3.70711 0
M  V30 1835 C 162.099 3.76542 -2.39023 0
M  V30 1836 C 162.8 3.7036 -4.48563 0
M  V30 1837 N 161.776 3.90027 -3.78655 0
M  V30 1838 H 165.578 1.77207 -2.34468 0
M  V30 1839 H 163.092 0.897031 -1.35378 0
M  V30 1840 H 165.089 3.97833 -1.24637 0
M  V30 1841 H 163.749 3.22925 -0.339032 0
M  V30 1842 H 164.76 3.2452 -4.03618 0
M  V30 1843 H 161.437 3.88241 -1.53542 0
M  V30 1844 H 162.827 3.75042 -5.57488 0
M  V30 1845 N 165.547 1.27147 0.931209 0
M  V30 1846 C 166.777 1.15914 1.71019 0
M  V30 1847 C 167.185 -0.287112 1.87009 0
M  V30 1848 O 166.528 -1.20761 1.38429 0
M  V30 1849 C 166.59 1.76647 3.13107 0
M  V30 1850 C 166.254 3.25807 3.20467 0
M  V30 1851 C 167.251 4.22489 3.02983 0
M  V30 1852 C 164.936 3.66452 3.43538 0
M  V30 1853 C 166.93 5.57794 3.08454 0
M  V30 1854 C 164.617 5.01888 3.48643 0
M  V30 1855 C 165.615 5.97369 3.31119 0
M  V30 1856 O 165.303 7.30337 3.35952 0
M  V30 1857 H 165.035 0.404062 0.54195 0
M  V30 1858 H 167.589 1.68457 1.17521 0
M  V30 1859 H 165.819 1.18578 3.68071 0
M  V30 1860 H 167.508 1.60179 3.72958 0
M  V30 1861 H 168.274 3.92425 2.85004 0
M  V30 1862 H 164.153 2.92611 3.5623 0
M  V30 1863 H 167.697 6.32298 2.94694 0
M  V30 1864 H 163.594 5.31609 3.66145 0
M  V30 1865 H 164.362 7.38739 3.5243 0
M  V30 1866 N 167.025 -1.13721 1.09112 0
M  V30 1867 C 168.271 -1.85413 0.836283 0
M  V30 1868 C 168.626 -1.8175 -0.631249 0
M  V30 1869 O 167.919 -1.24238 -1.45861 0
M  V30 1870 C 168.113 -3.32861 1.30146 0
M  V30 1871 C 167.942 -3.50882 2.81268 0
M  V30 1872 C 166.712 -3.65312 3.49106 0
M  V30 1873 C 168.91 -3.47196 3.7942 0
M  V30 1874 N 166.892 -3.71563 4.88686 0
M  V30 1875 C 168.263 -3.59777 5.04936 0
M  V30 1876 C 170.318 -3.30577 3.72321 0
M  V30 1877 C 169.021 -3.57455 6.24194 0
M  V30 1878 C 171.047 -3.29562 4.91063 0
M  V30 1879 C 170.409 -3.42691 6.15421 0
M  V30 1880 H 166.508 -0.694812 0.358832 0
M  V30 1881 H 169.092 -1.36246 1.39087 0
M  V30 1882 H 167.263 -3.80602 0.774361 0
M  V30 1883 H 168.995 -3.92346 0.99229 0
M  V30 1884 H 165.75 -3.6685 2.9953 0
M  V30 1885 H 166.174 -3.78387 5.61384 0
M  V30 1886 H 170.816 -3.19332 2.77105 0
M  V30 1887 H 168.534 -3.67475 7.19714 0
M  V30 1888 H 172.12 -3.17905 4.87266 0
M  V30 1889 H 171 -3.41862 7.05762 0
M  V30 1890 N 168.503 -0.877838 -1.30888 0
M  V30 1891 C 169.914 -0.544193 -1.78593 0
M  V30 1892 C 170.265 0.939301 -1.72254 0
M  V30 1893 O 169.39 1.7337 -1.29505 0
M  V30 1894 C 169.985 -0.98105 -3.24285 0
M  V30 1895 C 168.544 -0.698935 -3.69854 0
M  V30 1896 C 167.691 -1.168 -2.51502 0
M  V30 1897 H 170.642 -1.06278 -1.17859 0
M  V30 1898 H 170.663 -0.307009 -3.79259 0
M  V30 1899 H 170.175 -2.06079 -3.28866 0
M  V30 1900 H 168.276 0.369112 -3.70767 0
M  V30 1901 H 168.389 -1.28148 -4.61644 0
M  V30 1902 H 166.753 -0.587535 -2.47831 0
M  V30 1903 H 167.536 -2.25533 -2.58824 0
M  V30 1904 N 169.982 1.44106 -0.638065 0
M  V30 1905 C 171.393 1.85316 -0.226894 0
M  V30 1906 C 171.744 1.53399 1.22324 0
M  V30 1907 O 170.869 0.975463 1.93167 0
M  V30 1908 C 171.464 3.3637 -0.405013 0
M  V30 1909 C 170.023 3.76369 -0.0482902 0
M  V30 1910 C 169.17 2.67921 -0.715108 0
M  V30 1911 H 172.121 1.34474 -0.842764 0
M  V30 1912 H 172.142 3.7885 0.354 0
M  V30 1913 H 171.654 3.59569 -1.46053 0
M  V30 1914 H 169.755 3.58784 1.00522 0
M  V30 1915 H 169.868 4.76856 -0.463187 0
M  V30 1916 H 168.232 2.54259 -0.149753 0
M  V30 1917 H 169.015 2.93951 -1.77335 0
M  V30 1918 N 171.46 0.379036 1.52974 0
M  V30 1919 C 172.407 -0.461048 2.26148 0
M  V30 1920 C 173.377 -1.06637 1.27349 0
M  V30 1921 O 174.562 -1.09633 1.56157 0
M  V30 1922 C 171.702 -1.58782 3.06402 0
M  V30 1923 C 170.815 -1.00636 4.20115 0
M  V30 1924 C 169.95 -2.10334 4.87784 0
M  V30 1925 C 168.989 -1.49724 5.93506 0
M  V30 1926 N 168.126 -2.5331 6.54812 0
M  V30 1927 H 172.966 0.169429 2.97518 0
M  V30 1928 H 170.503 0.0953806 1.4679 0
M  V30 1929 H 172.461 -2.25174 3.51215 0
M  V30 1930 H 171.091 -2.18876 2.37261 0
M  V30 1931 H 170.143 -0.232332 3.7969 0
M  V30 1932 H 171.455 -0.523343 4.96047 0
M  V30 1933 H 170.609 -2.84519 5.35849 0
M  V30 1934 H 169.348 -2.61992 4.11353 0
M  V30 1935 H 168.353 -0.740598 5.44789 0
M  V30 1936 H 169.578 -0.988732 6.71864 0
M  V30 1937 H 167.524 -3.04156 5.81227 0
M  V30 1938 H 167.441 -2.09734 7.26325 0
M  V30 1939 H 168.709 -3.27155 7.07524 0
M  V30 1940 N 172.938 -1.57226 0.108567 0
M  V30 1941 C 173.848 -2.18292 -0.859401 0
M  V30 1942 C 174.864 -1.15612 -1.30038 0
M  V30 1943 O 176.04 -1.48039 -1.36552 0
M  V30 1944 C 173.105 -2.762 -2.09558 0
M  V30 1945 C 172.166 -3.93881 -1.70752 0
M  V30 1946 C 171.399 -4.49018 -2.88477 0
M  V30 1947 O 171.622 -4.03068 -4.036 0
M  V30 1948 O 170.556 -5.39852 -2.66164 0
M  V30 1949 H 174.382 -3.01441 -0.369769 0
M  V30 1950 H 171.967 -1.48945 -0.1165 0
M  V30 1951 H 173.849 -3.13156 -2.81978 0
M  V30 1952 H 172.524 -1.96089 -2.57548 0
M  V30 1953 H 171.431 -3.61713 -0.954714 0
M  V30 1954 H 172.764 -4.75396 -1.27513 0
M  V30 1955 N 174.416 0.165178 -1.56732 0
M  V30 1956 C 175.664 0.879068 -1.8198 0
M  V30 1957 C 175.985 1.82514 -0.686561 0
M  V30 1958 O 175.255 1.93694 0.293146 0
M  V30 1959 H 173.835 0.327608 -0.671329 0
M  V30 1960 H 176.497 0.163526 -1.94213 0
M  V30 1961 H 175.593 1.45228 -2.76252 0
M  V30 1962 N 175.894 1.51508 0.433938 0
M  V30 1963 C 177.122 1.68157 1.20543 0
M  V30 1964 C 177.537 0.380362 1.84929 0
M  V30 1965 O 176.894 -0.641446 1.70856 0
M  V30 1966 C 176.945 2.79965 2.28696 0
M  V30 1967 O 176.666 4.05045 1.66943 0
M  V30 1968 C 178.167 3.07912 3.18912 0
M  V30 1969 H 175.387 0.56421 0.363191 0
M  V30 1970 H 177.931 1.97941 0.513754 0
M  V30 1971 H 176.086 2.5277 2.93574 0
M  V30 1972 H 176.5 4.67165 2.38448 0
M  V30 1973 H 177.974 3.89719 3.90926 0
M  V30 1974 H 178.451 2.20456 3.79863 0
M  V30 1975 H 179.057 3.36779 2.59731 0
M  V30 1976 N 177.372 -0.689602 1.41712 0
M  V30 1977 C 178.304 -1.815 1.39966 0
M  V30 1978 C 179.317 -1.59995 0.300917 0
M  V30 1979 O 180.506 -1.69387 0.563039 0
M  V30 1980 C 177.606 -3.18364 1.16179 0
M  V30 1981 C 176.779 -3.66847 2.38206 0
M  V30 1982 C 175.838 -4.82398 2.10186 0
M  V30 1983 O 174.864 -4.93706 2.83272 0
M  V30 1984 N 176.066 -5.70064 1.0958 0
M  V30 1985 H 178.831 -1.83488 2.36965 0
M  V30 1986 H 176.392 -0.872149 1.36401 0
M  V30 1987 H 178.384 -3.93301 0.953756 0
M  V30 1988 H 176.954 -3.11365 0.27756 0
M  V30 1989 H 176.174 -2.82751 2.74673 0
M  V30 1990 H 177.462 -3.95978 3.19498 0
M  V30 1991 H 176.86 -5.63565 0.491019 0
M  V30 1992 H 175.417 -6.44874 0.947656 0
M  V30 1993 N 178.85 -1.27639 -0.924453 0
M  V30 1994 C 179.78 -1.13166 -2.04244 0
M  V30 1995 C 180.761 -0.032256 -1.70069 0
M  V30 1996 O 181.946 -0.207328 -1.9309 0
M  V30 1997 C 179.076 -0.781496 -3.38393 0
M  V30 1998 C 178.03 -1.83449 -3.86692 0
M  V30 1999 C 177.356 -1.33822 -5.17683 0
M  V30 2000 C 178.656 -3.23917 -4.09726 0
M  V30 2001 H 180.35 -2.06689 -2.1661 0
M  V30 2002 H 177.896 -0.995136 -1.04082 0
M  V30 2003 H 179.849 -0.667057 -4.16087 0
M  V30 2004 H 178.573 0.189439 -3.2605 0
M  V30 2005 H 177.232 -1.93789 -3.11193 0
M  V30 2006 H 176.88 -0.35665 -5.01734 0
M  V30 2007 H 176.58 -2.04224 -5.50968 0
M  V30 2008 H 178.104 -1.23679 -5.97943 0
M  V30 2009 H 179.518 -3.16559 -4.77978 0
M  V30 2010 H 177.915 -3.92059 -4.54324 0
M  V30 2011 H 178.985 -3.68729 -3.14908 0
M  V30 2012 N 180.328 1.1314 -1.09713 0
M  V30 2013 C 181.238 2.22242 -0.751367 0
M  V30 2014 C 182.254 1.72224 0.247938 0
M  V30 2015 O 183.43 2.01205 0.0885463 0
M  V30 2016 C 180.495 3.46231 -0.180274 0
M  V30 2017 C 179.556 4.11125 -1.2359 0
M  V30 2018 C 178.789 5.29195 -0.691966 0
M  V30 2019 O 179.012 5.68342 0.48414 0
M  V30 2020 O 177.946 5.84214 -1.44838 0
M  V30 2021 H 181.772 2.54197 -1.66186 0
M  V30 2022 H 179.357 1.21331 -0.871735 0
M  V30 2023 H 181.239 4.21185 0.134739 0
M  V30 2024 H 179.914 3.1597 0.703185 0
M  V30 2025 H 178.821 3.37985 -1.60366 0
M  V30 2026 H 180.154 4.45524 -2.09211 0
M  V30 2027 N 181.806 0.884767 1.30421 0
M  V30 2028 C 183.222 0.57874 1.48737 0
M  V30 2029 C 183.422 -0.883567 1.81095 0
M  V30 2030 O 182.478 -1.6648 1.89844 0
M  V30 2031 C 183.791 1.49171 2.61091 0
M  V30 2032 C 185.339 1.49532 2.74971 0
M  V30 2033 C 185.814 2.39421 3.90438 0
M  V30 2034 N 187.305 2.37383 3.97748 0
M  V30 2035 C 188.04 3.03647 4.86401 0
M  V30 2036 N 187.536 3.79136 5.79852 0
M  V30 2037 N 189.329 2.9288 4.79768 0
M  V30 2038 H 181.48 1.83075 1.0769 0
M  V30 2039 H 183.743 0.783637 0.533495 0
M  V30 2040 H 183.449 2.53291 2.44001 0
M  V30 2041 H 183.323 1.20113 3.57565 0
M  V30 2042 H 185.71 0.46163 2.91467 0
M  V30 2043 H 185.791 1.8262 1.79119 0
M  V30 2044 H 185.435 3.42874 3.74699 0
M  V30 2045 H 185.365 2.03649 4.85628 0
M  V30 2046 H 187.856 1.82525 3.30897 0
M  V30 2047 H 188.169 4.26789 6.4426 0
M  V30 2048 H 186.514 3.83243 5.79784 0
M  V30 2049 H 189.705 2.33433 4.05742 0
M  V30 2050 H 189.878 3.448 5.4865 0
M  V30 2051 N 183.284 -1.43765 0.645699 0
M  V30 2052 C 184.532 -2.01499 0.155731 0
M  V30 2053 C 184.853 -1.51151 -1.232 0
M  V30 2054 O 184.123 -0.721044 -1.82148 0
M  V30 2055 H 182.703 -0.745003 0.0545817 0
M  V30 2056 H 185.365 -1.76075 0.835677 0
M  V30 2057 H 184.461 -3.1181 0.134577 0
M  V30 2058 N 184.763 -0.387143 -1.52771 0
M  V30 2059 C 185.988 0.198407 -2.06449 0
M  V30 2060 C 186.413 1.39918 -1.25716 0
M  V30 2061 O 185.771 1.79099 -0.281657 0
M  V30 2062 C 185.819 0.548893 -3.56398 0
M  V30 2063 O 184.923 1.64315 -3.78252 0
M  V30 2064 H 184.264 0.0237731 -0.663574 0
M  V30 2065 H 186.794 -0.553989 -1.96957 0
M  V30 2066 H 186.804 0.813812 -3.99801 0
M  V30 2067 H 185.479 -0.329005 -4.14597 0
M  V30 2068 H 184.056 1.37211 -3.46738 0
M  V30 2069 N 186.241 1.57166 -0.116904 0
M  V30 2070 C 187.49 1.94298 0.541407 0
M  V30 2071 C 187.803 1.00236 1.67964 0
M  V30 2072 O 189.009 1.26826 2.40057 0
M  V30 2073 C 187.465 3.45306 1.01449 0
M  V30 2074 C 187.073 4.47899 -0.0951738 0
M  V30 2075 C 188.817 3.91361 1.6443 0
M  V30 2076 C 186.724 5.90083 0.394491 0
M  V30 2077 H 185.654 0.725308 0.206019 0
M  V30 2078 H 188.305 1.82446 -0.196419 0
M  V30 2079 H 186.687 3.52385 1.80667 0
M  V30 2080 H 187.861 4.52486 -0.871374 0
M  V30 2081 H 186.176 4.11583 -0.631505 0
M  V30 2082 H 188.773 4.95004 2.02176 0
M  V30 2083 H 189.116 3.3122 2.52189 0
M  V30 2084 H 189.649 3.87073 0.917559 0
M  V30 2085 H 186.388 6.53974 -0.447004 0
M  V30 2086 H 185.908 5.88921 1.13722 0
M  V30 2087 H 187.587 6.41307 0.856399 0
M  V30 2088 N 187.719 -0.156864 1.56817 0
M  V30 2089 C 188.947 -0.886316 1.86955 0
M  V30 2090 C 189.362 -1.75185 0.703975 0
M  V30 2091 O 188.719 -1.79555 -0.326552 0
M  V30 2092 C 188.77 -1.75117 3.16253 0
M  V30 2093 O 188.491 -0.920537 4.2832 0
M  V30 2094 C 189.992 -2.58905 3.59837 0
M  V30 2095 H 187.212 -0.25678 0.619923 0
M  V30 2096 H 189.756 -0.152615 2.0393 0
M  V30 2097 H 187.911 -2.43805 3.01062 0
M  V30 2098 H 188.325 -1.51337 5.02192 0
M  V30 2099 H 189.799 -3.1518 4.53172 0
M  V30 2100 H 190.276 -3.34472 2.84649 0
M  V30 2101 H 190.882 -1.95526 3.7769 0
M  V30 2102 N 189.197 -1.51736 -0.425897 0
M  V30 2103 C 190.127 -1.76827 -1.52494 0
M  V30 2104 C 191.108 -0.618524 -1.58456 0
M  V30 2105 O 192.293 -0.862416 -1.74 0
M  V30 2106 C 189.423 -1.90374 -2.90474 0
M  V30 2107 C 188.377 -3.0588 -2.99369 0
M  V30 2108 C 187.703 -3.04625 -4.3944 0
M  V30 2109 C 189.003 -4.45644 -2.72394 0
M  V30 2110 H 190.697 -2.68855 -1.31748 0
M  V30 2111 H 188.243 -1.29372 -0.632362 0
M  V30 2112 H 190.196 -2.0651 -3.6733 0
M  V30 2113 H 188.92 -0.95004 -3.12477 0
M  V30 2114 H 187.579 -2.89467 -2.24954 0
M  V30 2115 H 187.227 -2.0701 -4.58428 0
M  V30 2116 H 186.927 -3.82195 -4.46319 0
M  V30 2117 H 188.451 -3.22869 -5.18255 0
M  V30 2118 H 189.865 -4.62348 -3.38979 0
M  V30 2119 H 188.262 -5.25006 -2.9067 0
M  V30 2120 H 189.332 -4.54893 -1.67929 0
M  V30 2121 N 190.675 0.682077 -1.42076 0
M  V30 2122 C 191.921 1.44283 -1.43366 0
M  V30 2123 C 192.276 1.92344 -0.0465775 0
M  V30 2124 O 191.569 1.67517 0.929973 0
M  V30 2125 C 191.763 2.66036 -2.38662 0
M  V30 2126 C 191.592 2.29889 -3.86499 0
M  V30 2127 C 190.362 2.19599 -4.55087 0
M  V30 2128 C 192.56 1.91999 -4.77117 0
M  V30 2129 N 190.542 1.76478 -5.87987 0
M  V30 2130 C 191.913 1.59741 -5.99068 0
M  V30 2131 C 193.968 1.78927 -4.64639 0
M  V30 2132 C 192.671 1.15723 -7.0993 0
M  V30 2133 C 194.697 1.36314 -5.75476 0
M  V30 2134 C 194.059 1.04975 -6.96534 0
M  V30 2135 H 190.158 0.524739 -0.579805 0
M  V30 2136 H 192.742 0.787834 -1.78048 0
M  V30 2137 H 190.913 3.29237 -2.06053 0
M  V30 2138 H 192.645 3.32588 -2.30581 0
M  V30 2139 H 189.4 2.38433 -4.09202 0
M  V30 2140 H 189.824 1.57362 -6.58458 0
M  V30 2141 H 194.466 2.01805 -3.7153 0
M  V30 2142 H 192.184 0.91591 -8.02893 0
M  V30 2143 H 195.77 1.26731 -5.6783 0
M  V30 2144 H 194.65 0.725017 -7.80841 0
M  V30 2145 N 192.153 1.28127 0.917671 0
M  V30 2146 C 193.103 1.08361 2.00604 0
M  V30 2147 C 194.087 0.00847518 1.60898 0
M  V30 2148 O 195.279 0.228167 1.75523 0
M  V30 2149 C 192.408 0.743376 3.35155 0
M  V30 2150 C 191.494 1.85716 3.81275 0
M  V30 2151 N 191.885 3.09822 3.99805 0
M  V30 2152 C 190.183 1.74612 4.10398 0
M  V30 2153 C 190.884 3.82368 4.38372 0
M  V30 2154 N 189.86 3.10192 4.4641 0
M  V30 2155 H 193.662 2.02531 2.12975 0
M  V30 2156 H 191.176 1.18989 1.10523 0
M  V30 2157 H 193.173 0.582859 4.12805 0
M  V30 2158 H 191.833 -0.190595 3.2414 0
M  V30 2159 H 192.844 3.45475 3.85833 0
M  V30 2160 H 189.521 0.883657 4.08041 0
M  V30 2161 H 190.911 4.89082 4.60704 0
M  V30 2162 N 193.631 -1.12557 1.10312 0
M  V30 2163 C 194.579 -2.20325 0.745629 0
M  V30 2164 C 195.573 -1.67429 -0.25763 0
M  V30 2165 O 196.779 -1.79612 -0.118132 0
M  V30 2166 H 193.154 -0.718118 0.223182 0
M  V30 2167 H 195.125 -2.47733 1.66346 0
M  V30 2168 C 193.874 -3.47168 0.192262 0
M  V30 2169 H 193.197 -3.88215 0.955475 0
M  V30 2170 H 194.637 -4.23995 -0.0198274 0
M  V30 2171 C 193.096 -3.19298 -1.07472 0
M  V30 2172 O 193.626 -3.3891 -2.15645 0
M  V30 2173 N 191.832 -2.73113 -0.992847 0
M  V30 2174 H 191.379 -2.57354 -0.112474 0
M  V30 2175 H 191.337 -2.54842 -1.84127 0
M  V30 2176 N 195.109 -0.891671 -1.2995 0
M  V30 2177 C 196.039 -0.379797 -2.30391 0
M  V30 2178 C 197.02 0.540919 -1.6127 0
M  V30 2179 O 198.205 0.453352 -1.88834 0
M  V30 2180 C 195.335 0.400654 -3.44981 0
M  V30 2181 C 194.289 -0.428905 -4.25846 0
M  V30 2182 C 193.615 0.478557 -5.32554 0
M  V30 2183 C 194.915 -1.67458 -4.94727 0
M  V30 2184 H 196.609 -1.21914 -2.73454 0
M  V30 2185 H 194.155 -0.587675 -1.31462 0
M  V30 2186 H 196.108 0.769434 -4.14316 0
M  V30 2187 H 194.832 1.27371 -3.0074 0
M  V30 2188 H 193.491 -0.779911 -3.58208 0
M  V30 2189 H 193.139 1.34951 -4.84559 0
M  V30 2190 H 192.839 -0.0727433 -5.87555 0
M  V30 2191 H 194.363 0.843705 -6.04743 0
M  V30 2192 H 195.777 -1.376 -5.56542 0
M  V30 2193 H 194.174 -2.16659 -5.59624 0
M  V30 2194 H 195.244 -2.41518 -4.20473 0
M  V30 2195 N 196.587 1.43421 -0.653314 0
M  V30 2196 C 197.535 2.32546 0.0501531 0
M  V30 2197 C 198.529 1.48617 0.812985 0
M  V30 2198 O 199.735 1.64825 0.723375 0
M  V30 2199 H 196.11 0.751185 0.0350032 0
M  V30 2200 H 198.081 2.89602 -0.719261 0
M  V30 2201 C 196.83 3.32925 1.00279 0
M  V30 2202 H 196.153 3.97532 0.425236 0
M  V30 2203 H 197.593 3.9792 1.46409 0
M  V30 2204 C 196.052 2.63532 2.09886 0
M  V30 2205 O 196.582 2.45092 3.18265 0
M  V30 2206 N 194.788 2.22905 1.86445 0
M  V30 2207 H 194.335 2.38103 0.98309 0
M  V30 2208 H 194.293 1.76805 2.59976 0
M  V30 2209 N 198.065 0.39524 1.52563 0
M  V30 2210 C 199.295 -0.184675 2.05773 0
M  V30 2211 C 199.703 -1.40571 1.26635 0
M  V30 2212 O 199.046 -1.81105 0.30769 0
M  V30 2213 C 199.108 -0.613551 3.54226 0
M  V30 2214 C 198.772 0.49484 4.54313 0
M  V30 2215 C 199.769 1.3541 5.01956 0
M  V30 2216 C 197.454 0.663565 4.97898 0
M  V30 2217 C 199.448 2.36716 5.91814 0
M  V30 2218 C 197.135 1.67996 5.87555 0
M  V30 2219 C 198.133 2.53017 6.34406 0
M  V30 2220 O 197.821 3.52917 7.22291 0
M  V30 2221 H 197.553 -0.030077 0.675331 0
M  V30 2222 H 200.107 0.560708 1.97599 0
M  V30 2223 H 198.337 -1.411 3.60038 0
M  V30 2224 H 200.026 -1.11981 3.90148 0
M  V30 2225 H 200.792 1.23509 4.6901 0
M  V30 2226 H 196.671 0.0114913 4.60999 0
M  V30 2227 H 200.215 3.03113 6.28306 0
M  V30 2228 H 196.112 1.79933 6.19915 0
M  V30 2229 H 196.88 3.48996 7.40367 0
M  V30 2230 N 199.544 -1.57102 0.125237 0
M  V30 2231 C 200.79 -1.96488 -0.525753 0
M  V30 2232 C 201.145 -1.00786 -1.6389 0
M  V30 2233 O 200.438 -0.038979 -1.9156 0
M  V30 2234 C 200.632 -3.40096 -1.09862 0
M  V30 2235 C 200.461 -4.4968 -0.0425004 0
M  V30 2236 C 199.231 -5.03781 0.391463 0
M  V30 2237 C 201.429 -5.08936 0.740829 0
M  V30 2238 N 199.411 -5.96948 1.4327 0
M  V30 2239 C 200.782 -5.98105 1.6331 0
M  V30 2240 C 202.837 -4.91576 0.791029 0
M  V30 2241 C 201.54 -6.71774 2.57122 0
M  V30 2242 C 203.566 -5.6593 1.71688 0
M  V30 2243 C 202.928 -6.5479 2.59672 0
M  V30 2244 H 199.027 -0.765072 -0.161831 0
M  V30 2245 H 201.611 -1.93511 0.214801 0
M  V30 2246 H 199.782 -3.43707 -1.80887 0
M  V30 2247 H 201.514 -3.66591 -1.71444 0
M  V30 2248 H 198.269 -4.736 -0.00213584 0
M  V30 2249 H 198.693 -6.48236 1.95243 0
M  V30 2250 H 203.335 -4.22615 0.124915 0
M  V30 2251 H 201.053 -7.39977 3.24744 0
M  V30 2252 H 204.639 -5.54501 1.76125 0
M  V30 2253 H 203.519 -7.11316 3.30149 0
M  V30 2254 N 201.022 0.148545 -1.56898 0
M  V30 2255 C 201.954 1.20852 -1.9475 0
M  V30 2256 C 202.967 1.39265 -0.843152 0
M  V30 2257 O 204.156 1.38864 -1.12156 0
M  V30 2258 C 201.256 2.57362 -2.20495 0
M  V30 2259 C 200.429 2.59947 -3.51776 0
M  V30 2260 C 199.488 3.77984 -3.6608 0
M  V30 2261 O 198.514 3.62929 -4.38487 0
M  V30 2262 N 199.716 4.95375 -3.02629 0
M  V30 2263 H 202.481 0.886804 -2.86279 0
M  V30 2264 H 200.042 0.338121 -1.5833 0
M  V30 2265 H 202.034 3.34833 -2.27307 0
M  V30 2266 H 200.604 2.81832 -1.35238 0
M  V30 2267 H 199.824 1.68403 -3.56419 0
M  V30 2268 H 201.112 2.58704 -4.38121 0
M  V30 2269 H 200.51 5.10509 -2.43715 0
M  V30 2270 H 199.067 5.70627 -3.15004 0
M  V30 2271 N 202.5 1.5196 0.417844 0
M  V30 2272 C 203.43 1.77634 1.51554 0
M  V30 2273 C 204.411 0.626918 1.58126 0
M  V30 2274 O 205.596 0.871632 1.7354 0
M  V30 2275 C 202.726 1.91911 2.8946 0
M  V30 2276 C 201.68 3.07463 2.97743 0
M  V30 2277 C 201.006 3.06951 4.37819 0
M  V30 2278 C 202.306 4.47082 2.70027 0
M  V30 2279 H 204 2.6955 1.3032 0
M  V30 2280 H 201.546 1.29706 0.625492 0
M  V30 2281 H 203.499 2.08455 3.6623 0
M  V30 2282 H 202.223 0.966598 3.11969 0
M  V30 2283 H 200.882 2.90656 2.23416 0
M  V30 2284 H 200.53 2.09438 4.57323 0
M  V30 2285 H 200.23 3.84556 4.44286 0
M  V30 2286 H 201.754 3.25613 5.16535 0
M  V30 2287 H 203.168 4.6414 3.36522 0
M  V30 2288 H 201.565 5.2654 2.87881 0
M  V30 2289 H 202.635 4.55777 1.65514 0
M  V30 2290 N 203.978 -0.674533 1.42435 0
M  V30 2291 C 204.908 -1.80009 1.48724 0
M  V30 2292 C 205.889 -1.6659 0.343793 0
M  V30 2293 O 207.074 -1.86007 0.558137 0
M  V30 2294 C 204.204 -3.18306 1.38919 0
M  V30 2295 C 203.158 -3.46461 2.51294 0
M  V30 2296 C 202.484 -4.84335 2.26547 0
M  V30 2297 C 203.784 -3.43328 3.93603 0
M  V30 2298 H 205.478 -1.75004 2.42928 0
M  V30 2299 H 203.024 -0.840533 1.16923 0
M  V30 2300 H 204.977 -3.9678 1.41927 0
M  V30 2301 H 203.701 -3.2399 0.412094 0
M  V30 2302 H 202.36 -2.70348 2.47604 0
M  V30 2303 H 202.008 -4.86669 1.2713 0
M  V30 2304 H 201.708 -5.04136 3.01861 0
M  V30 2305 H 203.232 -5.65094 2.31304 0
M  V30 2306 H 204.646 -4.11772 3.98894 0
M  V30 2307 H 203.043 -3.74664 4.68771 0
M  V30 2308 H 204.113 -2.41897 4.20255 0
M  V30 2309 N 205.456 -1.28612 -0.910864 0
M  V30 2310 C 206.872 -1.06381 -1.18976 0
M  V30 2311 C 207.072 0.191998 -2.00583 0
M  V30 2312 O 206.128 0.892869 -2.36187 0
M  V30 2313 C 207.441 -2.31295 -1.92154 0
M  V30 2314 C 208.989 -2.36503 -2.05025 0
M  V30 2315 C 209.464 -3.61191 -2.81612 0
M  V30 2316 N 210.955 -3.61847 -2.89172 0
M  V30 2317 C 211.69 -4.55004 -3.4894 0
M  V30 2318 N 211.186 -5.58482 -4.09963 0
M  V30 2319 N 212.979 -4.42594 -3.46506 0
M  V30 2320 H 205.13 -2.09221 -0.366094 0
M  V30 2321 H 207.393 -0.921003 -0.224629 0
M  V30 2322 H 207.099 -3.228 -1.39618 0
M  V30 2323 H 206.973 -2.37934 -2.9269 0
M  V30 2324 H 209.36 -1.45494 -2.5674 0
M  V30 2325 H 209.441 -2.33857 -1.03657 0
M  V30 2326 H 209.085 -4.52545 -2.30576 0
M  V30 2327 H 209.015 -3.61092 -3.83302 0
M  V30 2328 H 211.506 -2.87022 -2.45819 0
M  V30 2329 H 211.819 -6.25704 -4.53557 0
M  V30 2330 H 210.164 -5.62305 -4.08459 0
M  V30 2331 H 213.355 -3.60953 -2.98045 0
M  V30 2332 H 213.528 -5.15381 -3.92793 0
M  V30 2333 N 206.934 1.1197 -1.10907 0
M  V30 2334 C 207.881 2.17846 -0.762345 0
M  V30 2335 C 208.851 1.63995 0.263599 0
M  V30 2336 O 210.036 1.90273 0.141773 0
M  V30 2337 C 207.176 3.44487 -0.205651 0
M  V30 2338 C 206.289 4.12369 -1.28748 0
M  V30 2339 C 205.424 5.26674 -0.691919 0
M  V30 2340 C 204.463 5.86431 -1.75399 0
M  V30 2341 N 203.6 6.92142 -1.17833 0
M  V30 2342 H 208.44 2.46851 -1.6694 0
M  V30 2343 H 205.977 1.21188 -0.833776 0
M  V30 2344 H 207.935 4.16981 0.135037 0
M  V30 2345 H 206.565 3.15884 0.664613 0
M  V30 2346 H 205.617 3.38003 -1.74522 0
M  V30 2347 H 206.929 4.52844 -2.09125 0
M  V30 2348 H 206.083 6.05953 -0.300963 0
M  V30 2349 H 204.822 4.8749 0.143232 0
M  V30 2350 H 203.827 5.05835 -2.15432 0
M  V30 2351 H 205.052 6.27685 -2.59208 0
M  V30 2352 H 202.998 6.54985 -0.364725 0
M  V30 2353 H 202.915 7.31242 -1.91887 0
M  V30 2354 H 204.183 7.75237 -0.81408 0
M  V30 2355 N 208.412 0.89855 1.29475 0
M  V30 2356 C 209.322 0.379974 2.31502 0
M  V30 2357 C 210.338 -0.524695 1.659 0
M  V30 2358 O 211.514 -0.414551 1.97087 0
M  V30 2359 C 208.579 -0.385138 3.44554 0
M  V30 2360 C 207.64 0.550914 4.2575 0
M  V30 2361 C 206.873 -0.177778 5.33404 0
M  V30 2362 O 207.096 -1.40189 5.52904 0
M  V30 2363 O 206.03 0.479106 5.9999 0
M  V30 2364 H 209.856 1.22639 2.77837 0
M  V30 2365 H 207.441 0.662834 1.33891 0
M  V30 2366 H 209.323 -0.817841 4.13388 0
M  V30 2367 H 207.998 -1.20763 3.0033 0
M  V30 2368 H 206.905 1.03271 3.59564 0
M  V30 2369 H 208.238 1.33979 4.73614 0
M  V30 2370 N 209.89 -1.43072 0.660911 0
M  V30 2371 C 210.837 -2.30785 -0.0259884 0
M  V30 2372 C 211.807 -1.45184 -0.806888 0
M  V30 2373 O 212.992 -1.74041 -0.781943 0
M  V30 2374 C 210.132 -3.30861 -0.981067 0
M  V30 2375 C 209.245 -4.31558 -0.195458 0
M  V30 2376 C 208.38 -5.18712 -1.14503 0
M  V30 2377 C 207.419 -6.11097 -0.350299 0
M  V30 2378 N 206.556 -6.90849 -1.25186 0
M  V30 2379 H 211.396 -2.88975 0.727846 0
M  V30 2380 H 208.933 -1.42353 0.370682 0
M  V30 2381 H 210.891 -3.87399 -1.54849 0
M  V30 2382 H 209.521 -2.74304 -1.70169 0
M  V30 2383 H 208.573 -3.77252 0.488374 0
M  V30 2384 H 209.885 -4.9701 0.422176 0
M  V30 2385 H 209.039 -5.79914 -1.78284 0
M  V30 2386 H 207.778 -4.53404 -1.79656 0
M  V30 2387 H 206.783 -5.48976 0.300808 0
M  V30 2388 H 208.008 -6.7845 0.296941 0
M  V30 2389 H 205.954 -6.28182 -1.89005 0
M  V30 2390 H 205.871 -7.52854 -0.688971 0
M  V30 2391 H 207.139 -7.5655 -1.87757 0
M  V30 2392 N 211.368 -0.403325 -1.52352 0
M  V30 2393 C 212.614 0.174605 -2.02047 0
M  V30 2394 C 212.947 1.45282 -1.28867 0
M  V30 2395 O 212.222 1.90483 -0.393257 0
M  V30 2396 C 212.505 0.428238 -3.57545 0
M  V30 2397 C 212.358 -0.866248 -4.4138 0
M  V30 2398 C 213.677 1.21287 -4.23057 0
M  V30 2399 H 210.796 0.0619851 -0.734389 0
M  V30 2400 H 213.438 -0.53565 -1.82293 0
M  V30 2401 H 211.588 1.03327 -3.74507 0
M  V30 2402 H 213.26 -1.50265 -4.3614 0
M  V30 2403 H 211.503 -1.47851 -4.07827 0
M  V30 2404 H 212.174 -0.643249 -5.48239 0
M  V30 2405 H 214.65 0.700703 -4.10158 0
M  V30 2406 H 213.526 1.35909 -5.31808 0
M  V30 2407 H 213.787 2.23193 -3.81625 0
M  V30 2408 N 212.846 1.57033 -0.133567 0
M  V30 2409 C 214.257 1.82593 0.389464 0
M  V30 2410 C 214.608 1.05156 1.6564 0
M  V30 2411 O 213.733 0.292644 2.14412 0
M  V30 2412 C 214.328 3.31204 0.713377 0
M  V30 2413 C 212.887 3.57393 1.18098 0
M  V30 2414 C 212.034 2.76598 0.197126 0
M  V30 2415 H 214.985 1.54598 -0.358481 0
M  V30 2416 H 215.006 3.46627 1.56939 0
M  V30 2417 H 214.518 3.87537 -0.2089 0
M  V30 2418 H 212.619 3.06433 2.11966 0
M  V30 2419 H 212.732 4.65915 1.11624 0
M  V30 2420 H 211.096 2.45257 0.687088 0
M  V30 2421 H 211.879 3.35697 -0.718504 0
M  V30 2422 N 214.325 -0.140222 1.56975 0
M  V30 2423 C 215.571 -0.852949 1.83991 0
M  V30 2424 C 215.904 -1.80512 0.716187 0
M  V30 2425 O 215.179 -1.92479 -0.279681 0
M  V30 2426 C 215.462 -1.6215 3.21527 0
M  V30 2427 C 215.315 -0.690363 4.4447 0
M  V30 2428 C 216.634 -2.58247 3.56366 0
M  V30 2429 H 213.753 -0.308634 0.669264 0
M  V30 2430 H 216.395 -0.117898 1.89634 0
M  V30 2431 H 214.545 -2.24812 3.16847 0
M  V30 2432 H 216.217 -0.0742264 4.6124 0
M  V30 2433 H 214.46 -0.000396433 4.338 0
M  V30 2434 H 215.131 -1.2643 5.37326 0
M  V30 2435 H 217.607 -2.05701 3.61699 0
M  V30 2436 H 216.483 -3.09067 4.53617 0
M  V30 2437 H 216.744 -3.39923 2.82674 0
M  V30 2438 N 215.803 -1.52179 -0.40978 0
M  V30 2439 C 216.753 -1.71857 -1.49831 0
M  V30 2440 C 217.737 -0.572469 -1.50372 0
M  V30 2441 O 218.929 -0.829509 -1.56359 0
M  V30 2442 C 216.058 -1.87206 -2.87765 0
M  V30 2443 C 215.144 -3.07685 -2.91875 0
M  V30 2444 N 215.535 -4.30403 -2.65683 0
M  V30 2445 C 213.833 -3.07505 -3.23043 0
M  V30 2446 C 214.534 -5.11868 -2.76344 0
M  V30 2447 N 213.51 -4.47101 -3.09195 0
M  V30 2448 H 217.312 -2.64381 -1.28375 0
M  V30 2449 H 214.826 -1.50203 -0.617479 0
M  V30 2450 H 216.823 -1.99419 -3.66111 0
M  V30 2451 H 215.483 -0.958814 -3.10221 0
M  V30 2452 H 216.494 -4.58887 -2.4009 0
M  V30 2453 H 213.171 -2.25915 -3.51096 0
M  V30 2454 H 214.561 -6.19634 -2.59814 0
M  V30 2455 N 217.281 0.66697 -1.42791 0
M  V30 2456 C 218.228 1.7803 -1.4688 0
M  V30 2457 C 219.198 1.6299 -0.319919 0
M  V30 2458 O 220.383 1.83432 -0.525118 0
M  V30 2459 C 217.523 3.1611 -1.38451 0
M  V30 2460 C 216.636 3.42381 -2.63437 0
M  V30 2461 C 215.771 4.70232 -2.47094 0
M  V30 2462 C 214.81 4.89564 -3.67415 0
M  V30 2463 N 213.947 6.08661 -3.49966 0
M  V30 2464 H 218.787 1.7387 -2.42019 0
M  V30 2465 H 216.324 0.84868 -1.20149 0
M  V30 2466 H 218.282 3.95914 -1.31561 0
M  V30 2467 H 216.912 3.19374 -0.469033 0
M  V30 2468 H 215.964 2.56774 -2.80662 0
M  V30 2469 H 217.276 3.52557 -3.52853 0
M  V30 2470 H 216.43 5.5814 -2.37834 0
M  V30 2471 H 215.169 4.62353 -1.5518 0
M  V30 2472 H 214.174 4.00096 -3.77099 0
M  V30 2473 H 215.399 4.99282 -4.6032 0
M  V30 2474 H 213.345 6.0194 -2.60776 0
M  V30 2475 H 213.262 6.19733 -4.32975 0
M  V30 2476 H 214.53 6.99226 -3.44532 0
M  V30 2477 N 218.759 1.29093 0.90403 0
M  V30 2478 C 220.005 1.16986 1.65656 0
M  V30 2479 C 220.338 -0.278925 1.92186 0
M  V30 2480 O 219.613 -1.2019 1.5292 0
M  V30 2481 C 219.896 1.97908 3.0084 0
M  V30 2482 C 219.749 3.50903 2.81403 0
M  V30 2483 C 221.068 1.80208 4.01513 0
M  V30 2484 H 218.187 0.426346 0.601164 0
M  V30 2485 H 220.829 1.58518 1.04747 0
M  V30 2486 H 218.979 1.62616 3.52829 0
M  V30 2487 H 220.651 3.96153 2.36348 0
M  V30 2488 H 218.894 3.76045 2.1627 0
M  V30 2489 H 219.565 4.02791 3.77443 0
M  V30 2490 H 222.041 2.11025 3.58619 0
M  V30 2491 H 220.917 2.39184 4.94047 0
M  V30 2492 H 221.178 0.756119 4.35586 0
M  V30 2493 N 220.237 -1.11381 1.11499 0
M  V30 2494 C 221.485 -1.8277 0.862524 0
M  V30 2495 C 221.806 -1.85097 -0.613534 0
M  V30 2496 O 221.076 -1.32198 -1.4457 0
M  V30 2497 H 219.656 -0.676823 0.316101 0
M  V30 2498 H 222.318 -1.34816 1.4075 0
M  V30 2499 H 221.414 -2.86614 1.23527 0
M  V30 2500 N 221.715 -0.905404 -1.28997 0
M  V30 2501 C 222.663 -0.377431 -2.29517 0
M  V30 2502 C 223.657 0.526461 -1.61012 0
M  V30 2503 O 224.863 0.40863 -1.753 0
M  V30 2504 H 221.238 -0.103437 -0.744852 0
M  V30 2505 H 223.209 -1.23848 -2.71485 0
M  V30 2506 C 221.958 0.374833 -3.45674 0
M  V30 2507 H 221.281 -0.311474 -3.98585 0
M  V30 2508 H 222.721 0.70903 -4.1803 0
M  V30 2509 C 221.18 1.57963 -2.97572 0
M  V30 2510 O 221.71 2.67886 -2.99333 0
M  V30 2511 N 219.916 1.42375 -2.53333 0
M  V30 2512 H 219.463 0.529466 -2.521 0
M  V30 2513 H 219.421 2.23117 -2.21509 0
M  V30 2514 N 223.193 1.4272 -0.668489 0
M  V30 2515 C 224.421 2.05966 -0.196348 0
M  V30 2516 C 224.836 1.50191 1.14403 0
M  V30 2517 O 224.193 0.639208 1.7094 0
M  V30 2518 C 224.244 3.61314 -0.115815 0
M  V30 2519 O 223.965 4.1502 -1.40322 0
M  V30 2520 C 225.466 4.41663 0.380579 0
M  V30 2521 H 222.686 0.663954 -0.0969829 0
M  V30 2522 H 225.23 1.82966 -0.913446 0
M  V30 2523 H 223.385 3.83448 0.551931 0
M  V30 2524 H 223.799 5.08832 -1.27243 0
M  V30 2525 H 225.273 5.5065 0.385848 0
M  V30 2526 H 225.75 4.15792 1.41471 0
M  V30 2527 H 226.356 4.24534 -0.255209 0
M  V30 2528 N 224.671 0.411399 1.52136 0
M  V30 2529 C 226.082 -0.0576826 1.86611 0
M  V30 2530 C 226.433 -1.44238 1.33003 0
M  V30 2531 O 225.558 -2.05759 0.670228 0
M  V30 2532 C 226.153 -0.111448 3.38617 0
M  V30 2533 C 224.712 -0.52487 3.72723 0
M  V30 2534 C 223.859 0.299176 2.75681 0
M  V30 2535 H 226.81 0.628368 1.4573 0
M  V30 2536 H 226.831 -0.926252 3.69054 0
M  V30 2537 H 226.343 0.896488 3.77604 0
M  V30 2538 H 224.444 -1.53936 3.39315 0
M  V30 2539 H 224.557 -0.267681 4.78352 0
M  V30 2540 H 222.921 -0.238814 2.53578 0
M  V30 2541 H 223.704 1.3055 3.17508 0
M  V30 2542 N 226.149 -1.5696 0.141893 0
M  V30 2543 C 227.079 -2.19516 -0.795936 0
M  V30 2544 C 228.06 -1.14187 -1.26077 0
M  V30 2545 O 229.245 -1.42511 -1.31925 0
M  V30 2546 C 226.375 -2.81272 -2.03723 0
M  V30 2547 C 225.329 -3.92384 -1.70936 0
M  V30 2548 C 224.655 -4.41052 -3.02287 0
M  V30 2549 C 225.955 -5.13403 -0.959954 0
M  V30 2550 H 227.649 -2.98138 -0.274596 0
M  V30 2551 H 225.195 -1.43406 -0.130636 0
M  V30 2552 H 227.148 -3.237 -2.69808 0
M  V30 2553 H 225.872 -1.99973 -2.58221 0
M  V30 2554 H 224.531 -3.50566 -1.07232 0
M  V30 2555 H 224.179 -3.56582 -3.54765 0
M  V30 2556 H 223.879 -5.15993 -2.81114 0
M  V30 2557 H 225.403 -4.86146 -3.69451 0
M  V30 2558 H 226.817 -5.52706 -1.52279 0
M  V30 2559 H 225.214 -5.94073 -0.848357 0
M  V30 2560 H 226.284 -4.84875 0.0492434 0
M  V30 2561 N 227.627 0.131896 -1.57047 0
M  V30 2562 C 228.904 0.871495 -1.75112 0
M  V30 2563 C 229.284 1.9866 -0.713949 0
M  V30 2564 O 228.632 2.26965 0.264447 0
M  V30 2565 C 228.842 1.40007 -3.19686 0
M  V30 2566 C 230.19 1.85752 -3.81813 0
M  V30 2567 O 231.214 1.49715 -3.23209 0
M  V30 2568 O 230.073 2.5226 -4.84796 0
M  V30 2569 H 227.167 0.412919 -0.716538 0
M  V30 2570 H 229.713 0.116641 -1.69299 0
M  V30 2571 H 228.485 0.599404 -3.86682 0
M  V30 2572 H 228.108 2.218 -3.29986 0
M  V30 2573 N 229.106 1.52395 0.401703 0
M  V30 2574 C 230.039 1.70999 1.51111 0
M  V30 2575 C 231.017 0.55765 1.52738 0
M  V30 2576 O 232.201 0.785912 1.71335 0
M  V30 2577 C 229.328 1.75607 2.8962 0
M  V30 2578 C 228.374 2.97227 3.05873 0
M  V30 2579 S 229.207 4.57439 2.78405 0
M  V30 2580 C 230.363 4.64844 4.19131 0
M  V30 2581 H 230.596 2.6483 1.35102 0
M  V30 2582 H 228.129 1.42527 0.593762 0
M  V30 2583 H 230.087 1.78947 3.69443 0
M  V30 2584 H 228.748 0.828914 3.02965 0
M  V30 2585 H 227.941 2.96955 4.07227 0
M  V30 2586 H 227.543 2.91813 2.33925 0
M  V30 2587 H 229.835 4.42677 5.12877 0
M  V30 2588 H 230.778 5.66807 4.24424 0
M  V30 2589 H 231.186 3.93804 4.04448 0
M  V30 2590 N 230.584 -0.659388 1.43143 0
M  V30 2591 C 231.532 -1.79374 1.4808 0
M  V30 2592 C 232.526 -1.65639 0.354988 0
M  V30 2593 O 233.732 -1.7206 0.528704 0
M  V30 2594 H 230.107 -0.591705 0.4641 0
M  V30 2595 H 232.078 -1.72329 2.43609 0
M  V30 2596 C 230.827 -3.17606 1.41499 0
M  V30 2597 H 230.15 -3.28809 2.27431 0
M  V30 2598 H 231.59 -3.96951 1.49015 0
M  V30 2599 C 230.049 -3.36642 0.131765 0
M  V30 2600 O 230.579 -3.93461 -0.809386 0
M  V30 2601 N 228.785 -2.90567 0.0439396 0
M  V30 2602 H 228.332 -2.44513 0.810619 0
M  V30 2603 H 228.29 -3.03681 -0.813969 0
M  V30 2604 N 232.062 -1.29571 -0.897171 0
M  V30 2605 C 232.994 -1.10724 -2.00681 0
M  V30 2606 C 234.007 -0.0540026 -1.6271 0
M  V30 2607 O 235.196 -0.298783 -1.75982 0
M  V30 2608 C 232.296 -0.663912 -3.32333 0
M  V30 2609 C 231.469 -1.79622 -3.98816 0
M  V30 2610 C 230.528 -1.34349 -5.0876 0
M  V30 2611 O 229.554 -2.04864 -5.31055 0
M  V30 2612 N 230.756 -0.215764 -5.80099 0
M  V30 2613 H 233.521 -2.06291 -2.17403 0
M  V30 2614 H 231.082 -1.21544 -1.06951 0
M  V30 2615 H 233.074 -0.344295 -4.03233 0
M  V30 2616 H 231.644 0.199375 -3.11964 0
M  V30 2617 H 230.864 -2.28459 -3.21248 0
M  V30 2618 H 232.152 -2.55535 -4.39976 0
M  V30 2619 H 231.55 0.372091 -5.64475 0
M  V30 2620 H 230.107 0.0444707 -6.51785 0
M  V30 2621 N 233.54 1.10788 -1.12088 0
M  V30 2622 C 234.787 1.82671 -0.873931 0
M  V30 2623 C 235.115 1.85004 0.600311 0
M  V30 2624 O 234.37 1.30365 1.45957 0
M  V30 2625 C 234.669 3.29294 -1.38926 0
M  V30 2626 C 234.335 3.47113 -2.87791 0
M  V30 2627 C 232.997 3.51684 -3.28439 0
M  V30 2628 C 235.349 3.52808 -3.83635 0
M  V30 2629 C 232.677 3.59513 -4.63646 0
M  V30 2630 C 235.029 3.62169 -5.18668 0
M  V30 2631 C 233.693 3.65003 -5.58864 0
M  V30 2632 H 232.963 0.668441 -0.319794 0
M  V30 2633 H 235.61 1.30613 -1.40045 0
M  V30 2634 H 233.915 3.83894 -0.783122 0
M  V30 2635 H 235.612 3.83416 -1.17443 0
M  V30 2636 H 232.202 3.4423 -2.5535 0
M  V30 2637 H 236.386 3.4853 -3.53328 0
M  V30 2638 H 231.642 3.59987 -4.94185 0
M  V30 2639 H 235.816 3.6552 -5.92763 0
M  V30 2640 H 233.443 3.70822 -6.63623 0
M  V30 2641 N 235.018 0.912232 1.28515 0
M  V30 2642 C 236.434 0.610159 1.47476 0
M  V30 2643 C 236.634 -0.844955 1.82928 0
M  V30 2644 O 235.69 -1.62416 1.93332 0
M  V30 2645 C 237.003 1.54675 2.57868 0
M  V30 2646 C 238.551 1.55331 2.71738 0
M  V30 2647 C 239.026 2.47649 3.85272 0
M  V30 2648 N 240.517 2.45767 3.92623 0
M  V30 2649 C 241.252 3.13896 4.79851 0
M  V30 2650 N 240.748 3.9135 5.71679 0
M  V30 2651 N 242.541 3.02991 4.73448 0
M  V30 2652 H 234.692 1.85318 1.03783 0
M  V30 2653 H 236.955 0.794777 0.516753 0
M  V30 2654 H 236.661 2.5841 2.38574 0
M  V30 2655 H 236.535 1.27671 3.54937 0
M  V30 2656 H 238.922 0.52335 2.90422 0
M  V30 2657 H 239.003 1.86378 1.75205 0
M  V30 2658 H 238.647 3.50745 3.67342 0
M  V30 2659 H 238.577 2.13904 4.81199 0
M  V30 2660 H 241.068 1.89503 3.26951 0
M  V30 2661 H 241.381 4.40359 6.35062 0
M  V30 2662 H 239.726 3.95455 5.71524 0
M  V30 2663 H 242.917 2.41987 4.007 0
M  V30 2664 H 243.09 3.5636 5.41213 0
M  V30 2665 N 236.496 -1.42363 0.676048 0
M  V30 2666 C 237.429 -2.28141 -0.0516916 0
M  V30 2667 C 238.407 -1.41135 -0.807439 0
M  V30 2668 O 239.591 -1.70573 -0.802305 0
M  V30 2669 C 236.718 -3.21007 -1.08039 0
M  V30 2670 C 235.764 -4.24426 -0.420076 0
M  V30 2671 S 236.597 -5.29134 0.823246 0
M  V30 2672 C 237.753 -6.25566 -0.204344 0
M  V30 2673 H 237.986 -2.89515 0.675884 0
M  V30 2674 H 235.519 -1.47211 0.465635 0
M  V30 2675 H 237.477 -3.75048 -1.66881 0
M  V30 2676 H 236.138 -2.58766 -1.78042 0
M  V30 2677 H 235.331 -4.89596 -1.19633 0
M  V30 2678 H 234.933 -3.7388 0.0947845 0
M  V30 2679 H 237.225 -6.69098 -1.06369 0
M  V30 2680 H 238.168 -7.06895 0.412915 0
M  V30 2681 H 238.576 -5.61811 -0.55038 0
M  V30 2682 N 237.974 -0.419461 -1.51915 0
M  V30 2683 C 238.904 0.391813 -2.30189 0
M  V30 2684 C 239.885 1.03699 -1.34836 0
M  V30 2685 O 241.07 1.04403 -1.63748 0
M  V30 2686 C 238.2 1.50312 -3.13087 0
M  V30 2687 C 237.154 0.9824 -4.16573 0
M  V30 2688 C 236.48 2.18809 -4.8788 0
M  V30 2689 C 237.78 0.0292356 -5.22292 0
M  V30 2690 H 239.474 -0.26135 -2.98257 0
M  V30 2691 H 237.02 -0.127134 -1.43438 0
M  V30 2692 H 238.973 2.07773 -3.66617 0
M  V30 2693 H 237.697 2.18431 -2.42807 0
M  V30 2694 H 236.356 0.430119 -3.64068 0
M  V30 2695 H 236.004 2.85507 -4.14119 0
M  V30 2696 H 235.704 1.84615 -5.57845 0
M  V30 2697 H 237.228 2.76858 -5.44226 0
M  V30 2698 H 238.642 0.512976 -5.71 0
M  V30 2699 H 237.039 -0.2244 -5.9968 0
M  V30 2700 H 238.109 -0.912931 -4.76228 0
M  V30 2701 N 239.452 1.56882 -0.150215 0
M  V30 2702 C 240.699 1.96228 0.500093 0
M  V30 2703 C 241.027 1.03522 1.64661 0
M  V30 2704 O 240.282 0.0650683 1.95592 0
M  V30 2705 C 240.581 3.41801 1.04437 0
M  V30 2706 C 240.247 4.50897 0.0159671 0
M  V30 2707 C 238.909 4.8046 -0.266731 0
M  V30 2708 C 241.261 5.16703 -0.683192 0
M  V30 2709 C 238.589 5.73135 -1.25434 0
M  V30 2710 C 240.941 6.10441 -1.65964 0
M  V30 2711 C 239.605 6.38382 -1.95 0
M  V30 2712 H 238.875 0.718048 0.182997 0
M  V30 2713 H 241.522 1.90019 -0.237724 0
M  V30 2714 H 239.827 3.44857 1.85959 0
M  V30 2715 H 241.524 3.69573 1.55618 0
M  V30 2716 H 238.114 4.27891 0.246485 0
M  V30 2717 H 242.298 4.93993 -0.477983 0
M  V30 2718 H 237.554 5.93074 -1.48571 0
M  V30 2719 H 241.728 6.60507 -2.20689 0
M  V30 2720 H 239.355 7.09996 -2.71679 0
M  V30 2721 N 240.93 -0.123565 1.57115 0
M  V30 2722 C 242.155 -0.850398 1.89164 0
M  V30 2723 C 242.58 -1.7286 0.741688 0
M  V30 2724 O 241.938 -1.78665 -0.307958 0
M  V30 2725 C 241.986 -1.66353 3.19936 0
M  V30 2726 O 241.09 -2.77004 3.0552 0
M  V30 2727 H 240.431 -0.235454 0.620852 0
M  V30 2728 H 242.961 -0.107335 2.04318 0
M  V30 2729 H 242.971 -2.05372 3.52543 0
M  V30 2730 H 241.646 -1.01881 4.03228 0
M  V30 2731 H 240.223 -2.41221 2.84371 0
M  V30 2732 N 242.408 -1.52605 -0.393616 0
M  V30 2733 C 243.636 -1.71294 -1.16043 0
M  V30 2734 C 244.051 -0.429259 -1.83855 0
M  V30 2735 O 243.408 0.595921 -1.72496 0
M  V30 2736 C 243.459 -2.8593 -2.21193 0
M  V30 2737 O 243.18 -4.09329 -1.56146 0
M  V30 2738 C 244.681 -3.16259 -3.10636 0
M  V30 2739 H 241.901 -0.573641 -0.348104 0
M  V30 2740 H 244.445 -1.99234 -0.461092 0
M  V30 2741 H 242.6 -2.60465 -2.86769 0
M  V30 2742 H 243.014 -4.73323 -2.25978 0
M  V30 2743 H 244.488 -3.99946 -3.80456 0
M  V30 2744 H 244.965 -2.3045 -3.73884 0
M  V30 2745 H 245.571 -3.43547 -2.50711 0
M  V30 2746 N 243.887 0.651787 -1.4349 0
M  V30 2747 C 245.127 1.42345 -1.46688 0
M  V30 2748 C 245.491 1.91793 -0.0891023 0
M  V30 2749 O 246.692 2.688 0.00423594 0
M  V30 2750 C 244.963 2.57221 -2.48137 0
M  V30 2751 S 246.522 3.45725 -2.70221 0
M  V30 2752 H 243.34 0.485878 -0.51908 0
M  V30 2753 H 245.942 0.756578 -1.80267 0
M  V30 2754 H 244.646 2.1917 -3.46976 0
M  V30 2755 H 244.177 3.28757 -2.16061 0
M  V30 2756 H 246.192 4.53996 -2.00255 0
M  V30 2757 N 245.365 1.30045 0.890287 0
M  V30 2758 C 246.312 1.15976 1.99545 0
M  V30 2759 C 247.282 0.0506202 1.66023 0
M  V30 2760 O 248.467 0.219847 1.89529 0
M  V30 2761 C 245.607 0.852054 3.34416 0
M  V30 2762 C 244.72 2.04255 3.80662 0
M  V30 2763 C 243.855 1.6734 5.04154 0
M  V30 2764 C 242.894 2.82916 5.42794 0
M  V30 2765 N 242.031 2.46333 6.57468 0
M  V30 2766 H 246.871 2.10524 2.10911 0
M  V30 2767 H 244.408 1.04749 1.03276 0
M  V30 2768 H 246.366 0.654296 4.12037 0
M  V30 2769 H 244.996 -0.0565502 3.2275 0
M  V30 2770 H 244.048 2.35172 2.98995 0
M  V30 2771 H 245.36 2.90826 4.05242 0
M  V30 2772 H 244.514 1.43908 5.89386 0
M  V30 2773 H 243.253 0.779308 4.81433 0
M  V30 2774 H 242.258 3.0702 4.56091 0
M  V30 2775 H 243.483 3.73004 5.6749 0
M  V30 2776 H 241.429 1.59423 6.36334 0
M  V30 2777 H 241.346 3.26436 6.81891 0
M  V30 2778 H 242.614 2.26244 7.45945 0
M  V30 2779 N 246.843 -1.10192 1.12674 0
M  V30 2780 C 248.089 -1.82475 0.884915 0
M  V30 2781 C 248.422 -1.85093 -0.58773 0
M  V30 2782 O 247.697 -1.3134 -1.43457 0
M  V30 2783 C 247.98 -3.29018 1.46353 0
M  V30 2784 C 247.833 -3.34718 3.00473 0
M  V30 2785 C 249.152 -4.25473 1.12519 0
M  V30 2786 H 246.271 -0.662492 0.322915 0
M  V30 2787 H 248.913 -1.2913 1.39375 0
M  V30 2788 H 247.063 -3.74576 1.03077 0
M  V30 2789 H 248.735 -2.97622 3.52447 0
M  V30 2790 H 246.978 -2.74541 3.35872 0
M  V30 2791 H 247.649 -4.37918 3.36053 0
M  V30 2792 H 250.125 -3.88161 1.499 0
M  V30 2793 H 249.001 -5.26365 1.55663 0
M  V30 2794 H 249.262 -4.42084 0.0377407 0
M  V30 2795 N 248.321 -0.919034 -1.28029 0
M  V30 2796 C 249.732 -0.600735 -1.76771 0
M  V30 2797 C 250.083 0.884024 -1.75156 0
M  V30 2798 O 249.208 1.69163 -1.34956 0
M  V30 2799 C 249.803 -1.08372 -3.21 0
M  V30 2800 C 248.362 -0.816248 -3.67443 0
M  V30 2801 C 247.509 -1.24742 -2.47658 0
M  V30 2802 H 250.46 -1.09974 -1.14418 0
M  V30 2803 H 250.481 -0.427512 -3.78091 0
M  V30 2804 H 249.993 -2.16437 -3.22144 0
M  V30 2805 H 248.094 0.250968 -3.71754 0
M  V30 2806 H 248.207 -1.4277 -4.57333 0
M  V30 2807 H 246.571 -0.666083 -2.45836 0
M  V30 2808 H 247.354 -2.33653 -2.51518 0
M  V30 2809 N 249.799 1.42003 -0.683588 0
M  V30 2810 C 251.047 2.01015 -0.209101 0
M  V30 2811 C 251.368 1.54365 1.19149 0
M  V30 2812 O 250.638 0.769083 1.80172 0
M  V30 2813 H 249.218 0.743294 -0.074315 0
M  V30 2814 H 251.88 1.73798 -0.882066 0
M  V30 2815 H 250.976 3.11343 -0.2172 0
M  V30 2816 N 251.277 0.427512 1.51691 0
M  V30 2817 C 252.526 -0.143679 2.01188 0
M  V30 2818 C 252.839 -1.44642 1.31674 0
M  V30 2819 O 254.045 -2.09997 1.72086 0
M  V30 2820 C 252.501 -0.306602 3.58592 0
M  V30 2821 C 252.109 0.985125 4.37035 0
M  V30 2822 C 253.853 -0.832091 4.16265 0
M  V30 2823 C 251.76 0.788382 5.86122 0
M  V30 2824 H 250.69 -0.0574701 0.751807 0
M  V30 2825 H 253.341 0.555772 1.74881 0
M  V30 2826 H 251.723 -1.06882 3.81303 0
M  V30 2827 H 252.897 1.75492 4.26074 0
M  V30 2828 H 251.212 1.4384 3.90767 0
M  V30 2829 H 253.809 -0.995617 5.25349 0
M  V30 2830 H 254.152 -1.81186 3.74803 0
M  V30 2831 H 254.685 -0.128444 3.97593 0
M  V30 2832 H 251.424 1.74025 6.31978 0
M  V30 2833 H 250.944 0.0582143 5.99772 0
M  V30 2834 H 252.623 0.437722 6.45518 0
M  V30 2835 N 252.755 -1.56801 0.158532 0
M  V30 2836 C 253.983 -2.00859 -0.496303 0
M  V30 2837 C 254.398 -1.03871 -1.57659 0
M  V30 2838 O 253.755 -0.0375165 -1.82461 0
M  V30 2839 C 253.806 -3.4479 -1.08638 0
M  V30 2840 O 253.527 -4.38072 -0.0492322 0
M  V30 2841 C 255.028 -4.04185 -1.8207 0
M  V30 2842 H 252.248 -0.65864 -0.128199 0
M  V30 2843 H 254.792 -2.02885 0.256506 0
M  V30 2844 H 252.947 -3.43579 -1.78975 0
M  V30 2845 H 253.361 -5.2227 -0.483102 0
M  V30 2846 H 254.835 -5.06857 -2.18633 0
M  V30 2847 H 255.312 -3.45549 -2.71095 0
M  V30 2848 H 255.918 -4.0906 -1.16405 0
M  V30 2849 N 254.233 0.115231 -1.57178 0
M  V30 2850 C 255.649 0.468877 -1.52557 0
M  V30 2851 C 255.849 1.81649 -0.872125 0
M  V30 2852 O 254.905 2.48347 -0.45606 0
M  V30 2853 C 256.218 0.4499 -2.97315 0
M  V30 2854 C 257.766 0.533185 -3.08425 0
M  V30 2855 C 258.241 0.54456 -4.54751 0
M  V30 2856 N 259.732 0.605892 -4.5922 0
M  V30 2857 C 260.467 0.636203 -5.6986 0
M  V30 2858 N 259.963 0.623931 -6.89985 0
M  V30 2859 N 261.756 0.679496 -5.57978 0
M  V30 2860 H 253.907 -0.767712 -1.9804 0
M  V30 2861 H 256.17 -0.283609 -0.904583 0
M  V30 2862 H 255.876 -0.472721 -3.48509 0
M  V30 2863 H 255.75 1.27632 -3.5495 0
M  V30 2864 H 258.137 1.44623 -2.57232 0
M  V30 2865 H 258.218 -0.320995 -2.53778 0
M  V30 2866 H 257.862 -0.364452 -5.06591 0
M  V30 2867 H 257.792 1.41568 -5.07214 0
M  V30 2868 H 260.283 0.621386 -3.72756 0
M  V30 2869 H 260.596 0.649787 -7.70063 0
M  V30 2870 H 258.941 0.591296 -6.9248 0
M  V30 2871 H 262.132 0.686472 -4.63039 0
M  V30 2872 H 262.305 0.69965 -6.44212 0
M  V30 2873 N 255.711 1.52812 0.385517 0
M  V30 2874 C 256.988 1.5861 1.14465 0
M  V30 2875 C 257.368 0.381402 2.07626 0
M  V30 2876 O 256.716 -0.629999 2.19643 0
M  V30 2877 C 256.926 2.92664 1.90128 0
M  V30 2878 C 258.274 3.46526 2.45367 0
M  V30 2879 O 259.298 2.94562 2.0028 0
M  V30 2880 O 258.157 4.37323 3.27736 0
M  V30 2881 H 255.251 0.639855 0.523941 0
M  V30 2882 H 257.797 1.65149 0.390389 0
M  V30 2883 H 256.569 3.71788 1.22022 0
M  V30 2884 H 256.192 2.89527 2.72507 0
M  V30 2885 N 257.189 -0.644168 1.43834 0
M  V30 2886 C 258.414 -1.43642 1.49605 0
M  V30 2887 C 258.839 -1.8773 0.117913 0
M  V30 2888 O 258.197 -1.57938 -0.890239 0
M  V30 2889 C 258.245 -2.6416 2.45463 0
M  V30 2890 O 257.349 -3.63538 1.94714 0
M  V30 2891 H 256.69 -0.430329 0.50568 0
M  V30 2892 H 259.22 -0.787448 1.8884 0
M  V30 2893 H 259.23 -3.11864 2.63068 0
M  V30 2894 H 257.905 -2.31414 3.45572 0
M  V30 2895 H 256.482 -3.2273 1.86814 0
M  V30 2896 N 258.668 -1.30515 -0.883378 0
M  V30 2897 C 259.917 -1.18795 -1.63005 0
M  V30 2898 C 260.23 0.255923 -1.93919 0
M  V30 2899 O 261.436 0.494654 -2.66956 0
M  V30 2900 C 259.892 -2.07878 -2.93794 0
M  V30 2901 C 259.5 -3.57184 -2.70414 0
M  V30 2902 C 261.244 -2.04924 -3.71761 0
M  V30 2903 C 259.151 -4.38317 -3.97029 0
M  V30 2904 H 258.081 -0.441031 -0.611562 0
M  V30 2905 H 260.732 -1.55275 -0.977854 0
M  V30 2906 H 259.114 -1.64283 -3.60315 0
M  V30 2907 H 260.288 -4.08937 -2.12384 0
M  V30 2908 H 258.603 -3.61976 -2.0582 0
M  V30 2909 H 261.2 -2.62792 -4.65665 0
M  V30 2910 H 261.543 -1.0331 -4.03277 0
M  V30 2911 H 262.076 -2.46649 -3.12104 0
M  V30 2912 H 258.815 -5.40632 -3.70671 0
M  V30 2913 H 258.335 -3.91326 -4.54559 0
M  V30 2914 H 260.014 -4.49834 -4.65036 0
M  V30 2915 N 260.146 1.09593 -1.13257 0
M  V30 2916 C 261.079 2.15451 -0.752061 0
M  V30 2917 C 262.057 1.60493 0.260913 0
M  V30 2918 O 263.241 1.8788 0.152819 0
M  V30 2919 C 260.368 3.38506 -0.114594 0
M  V30 2920 C 259.414 4.12183 -1.09579 0
M  V30 2921 S 260.247 4.6661 -2.62745 0
M  V30 2922 C 261.403 5.92966 -2.00354 0
M  V30 2923 H 261.636 2.47395 -1.64872 0
M  V30 2924 H 259.169 1.21515 -0.952545 0
M  V30 2925 H 261.127 4.09757 0.246808 0
M  V30 2926 H 259.788 3.04784 0.759309 0
M  V30 2927 H 258.981 5.00445 -0.597545 0
M  V30 2928 H 258.583 3.46785 -1.40057 0
M  V30 2929 H 260.875 6.63882 -1.35156 0
M  V30 2930 H 261.818 6.47467 -2.86691 0
M  V30 2931 H 262.226 5.45405 -1.4558 0
M  V30 2932 N 261.624 0.925811 1.2754 0
M  V30 2933 C 262.572 0.413897 2.28888 0
M  V30 2934 C 263.566 -0.500779 1.61829 0
M  V30 2935 O 264.772 -0.38069 1.75928 0
M  V30 2936 H 261.147 0.115274 0.743112 0
M  V30 2937 H 263.118 1.28151 2.69481 0
M  V30 2938 C 261.867 -0.319792 3.46226 0
M  V30 2939 H 261.19 0.374846 3.98039 0
M  V30 2940 H 262.63 -0.642435 4.19105 0
M  V30 2941 C 261.089 -1.53209 3.00048 0
M  V30 2942 O 261.619 -2.6309 3.03557 0
M  V30 2943 N 259.825 -1.38326 2.55566 0
M  V30 2944 H 259.372 -0.489292 2.5291 0
M  V30 2945 H 259.33 -2.19564 2.25031 0
M  V30 2946 N 263.102 -1.41638 0.69111 0
M  V30 2947 C 264.332 -2.0533 0.228758 0
M  V30 2948 C 264.74 -1.52089 -1.12541 0
M  V30 2949 O 264.083 -0.662145 -1.71351 0
M  V30 2950 C 264.145 -3.59349 0.10407 0
M  V30 2951 C 263.809 -4.35362 1.38956 0
M  V30 2952 C 264.806 -4.64942 2.32648 0
M  V30 2953 C 262.491 -4.74714 1.64169 0
M  V30 2954 C 264.485 -5.32828 3.49818 0
M  V30 2955 C 262.172 -5.42338 2.81625 0
M  V30 2956 C 263.17 -5.71322 3.74273 0
M  V30 2957 O 262.858 -6.37554 4.89673 0
M  V30 2958 H 262.59 -0.667796 0.104997 0
M  V30 2959 H 265.144 -1.82477 0.942938 0
M  V30 2960 H 263.374 -3.80924 -0.665839 0
M  V30 2961 H 265.063 -4.04633 -0.320519 0
M  V30 2962 H 265.829 -4.35025 2.14425 0
M  V30 2963 H 261.708 -4.51538 0.929202 0
M  V30 2964 H 265.252 -5.55368 4.22152 0
M  V30 2965 H 261.149 -5.71673 2.99768 0
M  V30 2966 H 261.917 -6.56049 4.8943 0
M  V30 2967 N 264.58 -0.43555 -1.51462 0
M  V30 2968 C 265.827 0.131514 -2.02072 0
M  V30 2969 C 266.155 1.42868 -1.31981 0
M  V30 2970 O 265.41 1.91076 -0.422883 0
M  V30 2971 C 265.709 0.39942 -3.55161 0
M  V30 2972 C 265.375 -0.81172 -4.43533 0
M  V30 2973 C 264.037 -1.14387 -4.67407 0
M  V30 2974 C 266.389 -1.61976 -4.95392 0
M  V30 2975 C 263.717 -2.28477 -5.40384 0
M  V30 2976 C 266.069 -2.75164 -5.6962 0
M  V30 2977 C 264.733 -3.08835 -5.91758 0
M  V30 2978 H 264.003 0.0481244 -0.739436 0
M  V30 2979 H 266.65 -0.58238 -1.8243 0
M  V30 2980 H 264.955 1.19519 -3.73125 0
M  V30 2981 H 266.652 0.85157 -3.91854 0
M  V30 2982 H 263.242 -0.542898 -4.25148 0
M  V30 2983 H 267.426 -1.37637 -4.76833 0
M  V30 2984 H 262.682 -2.5488 -5.55739 0
M  V30 2985 H 266.856 -3.38147 -6.08793 0
M  V30 2986 H 264.483 -3.97353 -6.48086 0
M  V30 2987 N 266.058 1.56714 -0.166846 0
M  V30 2988 C 267.474 1.58473 0.189372 0
M  V30 2989 C 267.674 1.18201 1.63189 0
M  V30 2990 O 266.73 0.891528 2.36237 0
M  V30 2991 C 268.043 3.00573 -0.0873872 0
M  V30 2992 C 269.591 3.1299 -0.0252443 0
M  V30 2993 C 270.066 4.57174 -0.274934 0
M  V30 2994 N 271.557 4.62665 -0.222553 0
M  V30 2995 C 272.292 5.72072 -0.389985 0
M  V30 2996 N 271.788 6.90054 -0.616229 0
M  V30 2997 N 273.581 5.61153 -0.326202 0
M  V30 2998 H 265.732 1.8118 -1.10849 0
M  V30 2999 H 267.995 0.839525 -0.440342 0
M  V30 3000 H 267.701 3.34497 -1.0865 0
M  V30 3001 H 267.575 3.72019 0.623037 0
M  V30 3002 H 269.962 2.78895 0.96444 0
M  V30 3003 H 270.043 2.43989 -0.768309 0
M  V30 3004 H 269.687 4.91976 -1.26181 0
M  V30 3005 H 269.617 5.24328 0.48869 0
M  V30 3006 H 272.108 3.77863 -0.0531512 0
M  V30 3007 H 272.421 7.69311 -0.733559 0
M  V30 3008 H 270.766 6.91927 -0.652791 0
M  V30 3009 H 273.957 4.67859 -0.150072 0
M  V30 3010 H 274.13 6.46364 -0.460116 0
M  V30 3011 N 267.536 -0.106894 1.57237 0
M  V30 3012 C 268.764 -0.826389 1.8968 0
M  V30 3013 C 269.179 -1.72856 0.759353 0
M  V30 3014 O 268.536 -1.80503 -0.269263 0
M  V30 3015 C 268.587 -1.64967 3.21665 0
M  V30 3016 O 268.308 -0.783804 4.31031 0
M  V30 3017 C 269.809 -2.47326 3.67892 0
M  V30 3018 H 267.029 -0.236927 0.627779 0
M  V30 3019 H 269.573 -0.0876593 2.04312 0
M  V30 3020 H 267.728 -2.34103 3.08666 0
M  V30 3021 H 268.142 -1.35284 5.06753 0
M  V30 3022 H 269.616 -3.00604 4.6297 0
M  V30 3023 H 270.093 -3.25247 2.95146 0
M  V30 3024 H 270.699 -1.83411 3.83719 0
M  V30 3025 N 269.014 -1.53014 -0.377408 0
M  V30 3026 C 269.924 -1.81557 -1.48574 0
M  V30 3027 C 270.94 -0.703102 -1.59162 0
M  V30 3028 O 272.116 -0.99192 -1.75279 0
M  V30 3029 C 269.181 -1.9889 -2.83978 0
M  V30 3030 C 268.242 -3.22801 -2.83016 0
M  V30 3031 C 267.475 -3.39298 -4.11962 0
M  V30 3032 O 267.698 -2.60345 -5.0752 0
M  V30 3033 O 266.632 -4.32604 -4.18494 0
M  V30 3034 H 270.458 -2.75695 -1.27382 0
M  V30 3035 H 268.043 -1.38248 -0.566373 0
M  V30 3036 H 269.925 -2.11931 -3.6423 0
M  V30 3037 H 268.6 -1.07942 -3.05172 0
M  V30 3038 H 267.507 -3.15193 -2.01505 0
M  V30 3039 H 268.84 -4.13632 -2.66775 0
M  V30 3040 N 270.492 0.636531 -1.44174 0
M  V30 3041 C 271.717 1.42847 -1.50364 0
M  V30 3042 C 272.142 1.87665 -0.127867 0
M  V30 3043 O 271.5 1.58408 0.88185 0
M  V30 3044 C 271.548 2.62854 -2.4686 0
M  V30 3045 O 270.652 3.62501 -1.9664 0
M  V30 3046 H 269.993 0.427642 -0.507955 0
M  V30 3047 H 272.523 0.777422 -1.89255 0
M  V30 3048 H 272.533 3.10465 -2.64718 0
M  V30 3049 H 271.208 2.29578 -3.46795 0
M  V30 3050 H 269.785 3.21735 -1.88523 0
M  V30 3051 N 271.97 1.30982 0.876444 0
M  V30 3052 C 272.88 1.2003 2.01569 0
M  V30 3053 C 273.896 0.11838 1.73597 0
M  V30 3054 O 275.072 0.33495 1.98595 0
M  V30 3055 C 272.137 0.901637 3.34771 0
M  V30 3056 C 271.198 2.06979 3.76109 0
M  V30 3057 C 270.431 1.78529 5.02954 0
M  V30 3058 O 270.654 0.717296 5.65872 0
M  V30 3059 O 269.588 2.64019 5.40905 0
M  V30 3060 H 273.414 2.15753 2.13739 0
M  V30 3061 H 270.999 1.10658 1.00375 0
M  V30 3062 H 272.881 0.750645 4.1466 0
M  V30 3063 H 271.556 -0.0256141 3.2369 0
M  V30 3064 H 270.463 2.27616 2.96887 0
M  V30 3065 H 271.796 2.97907 3.91807 0
M  V30 3066 N 273.449 -1.08991 1.13837 0
M  V30 3067 C 274.697 -1.80899 0.901098 0
M  V30 3068 C 275.018 -1.86356 -0.574134 0
M  V30 3069 O 274.288 -1.35235 -1.41733 0
M  V30 3070 H 272.868 -0.669966 0.330386 0
M  V30 3071 H 275.53 -1.318 1.43578 0
M  V30 3072 H 274.626 -2.83929 1.29578 0
M  V30 3073 N 274.927 -0.932562 -1.27047 0
M  V30 3074 C 276.343 -0.633544 -1.46487 0
M  V30 3075 C 276.543 0.815746 -1.84249 0
M  V30 3076 O 275.599 1.59319 -1.95892 0
M  V30 3077 C 276.912 -1.58758 -2.55375 0
M  V30 3078 C 278.46 -1.59634 -2.69232 0
M  V30 3079 C 278.935 -2.53747 -3.81283 0
M  V30 3080 N 280.426 -2.51982 -3.88664 0
M  V30 3081 C 281.161 -3.21491 -4.74796 0
M  V30 3082 N 280.657 -4.00395 -5.65381 0
M  V30 3083 N 282.45 -3.10485 -4.68568 0
M  V30 3084 H 274.601 -1.86946 -1.00821 0
M  V30 3085 H 276.864 -0.802897 -0.504044 0
M  V30 3086 H 276.57 -2.62172 -2.34432 0
M  V30 3087 H 276.444 -1.33301 -3.52861 0
M  V30 3088 H 278.831 -0.569488 -2.89553 0
M  V30 3089 H 278.912 -1.89142 -1.72218 0
M  V30 3090 H 278.556 -3.56545 -3.61715 0
M  V30 3091 H 278.486 -2.21532 -4.77735 0
M  V30 3092 H 280.977 -1.94681 -3.23895 0
M  V30 3093 H 281.29 -4.50406 -6.27976 0
M  V30 3094 H 279.635 -4.04498 -5.65161 0
M  V30 3095 H 282.826 -2.48331 -3.96799 0
M  V30 3096 H 282.999 -3.64925 -5.35475 0
M  V30 3097 N 276.405 1.4127 -0.698611 0
M  V30 3098 C 277.63 2.06024 -0.238512 0
M  V30 3099 C 278.055 1.5224 1.10475 0
M  V30 3100 O 277.413 0.650623 1.69223 0
M  V30 3101 C 277.461 3.59988 -0.209952 0
M  V30 3102 O 276.565 4.04282 0.814235 0
M  V30 3103 H 275.906 0.653829 -0.115775 0
M  V30 3104 H 278.436 1.8098 -0.954326 0
M  V30 3105 H 278.446 4.07979 -0.0418436 0
M  V30 3106 H 277.121 3.98503 -1.1903 0
M  V30 3107 H 275.698 3.6779 0.615234 0
M  V30 3108 N 277.883 0.443576 1.51229 0
M  V30 3109 C 279.294 -0.0180867 1.86691 0
M  V30 3110 C 279.645 -1.41384 1.36033 0
M  V30 3111 O 278.77 -2.04291 0.713722 0
M  V30 3112 C 279.365 -0.039597 3.38777 0
M  V30 3113 C 277.924 -0.445692 3.73752 0
M  V30 3114 C 277.071 0.357584 2.74985 0
M  V30 3115 H 280.022 0.659138 1.44364 0
M  V30 3116 H 280.043 -0.847761 3.70936 0
M  V30 3117 H 279.555 0.976382 3.75617 0
M  V30 3118 H 277.656 -1.46704 3.42503 0
M  V30 3119 H 277.769 -0.166155 4.78812 0
M  V30 3120 H 276.133 -0.184973 2.54027 0
M  V30 3121 H 276.916 1.37256 3.14668 0
M  V30 3122 N 279.361 -1.56624 0.175154 0
M  V30 3123 C 280.309 -2.19468 -0.770495 0
M  V30 3124 C 281.303 -1.15985 -1.23466 0
M  V30 3125 O 282.509 -1.34176 -1.19987 0
M  V30 3126 H 278.884 -0.703095 -0.266761 0
M  V30 3127 H 280.855 -2.97613 -0.216542 0
M  V30 3128 C 279.604 -2.85264 -1.98796 0
M  V30 3129 H 278.927 -3.64623 -1.63983 0
M  V30 3130 H 280.367 -3.327 -2.62843 0
M  V30 3131 C 278.826 -1.85239 -2.81404 0
M  V30 3132 O 279.356 -1.34024 -3.78682 0
M  V30 3133 N 277.562 -1.53911 -2.46495 0
M  V30 3134 H 277.109 -1.95751 -1.67449 0
M  V30 3135 H 277.067 -0.872382 -3.02054 0
M  V30 3136 N 280.839 0.0985539 -1.57292 0
M  V30 3137 C 281.789 1.1261 -1.9825 0
M  V30 3138 C 282.773 1.35961 -0.860426 0
M  V30 3139 O 283.965 1.36711 -1.12424 0
M  V30 3140 C 281.094 2.44727 -2.40757 0
M  V30 3141 C 280.18 2.24764 -3.59642 0
M  V30 3142 N 280.571 1.74661 -4.74687 0
M  V30 3143 C 278.869 2.55344 -3.65672 0
M  V30 3144 C 279.57 1.68887 -5.56644 0
M  V30 3145 N 278.546 2.13976 -4.99715 0
M  V30 3146 H 282.348 0.731604 -2.84648 0
M  V30 3147 H 279.862 0.306029 -1.59491 0
M  V30 3148 H 281.859 3.19072 -2.68326 0
M  V30 3149 H 280.519 2.84917 -1.55733 0
M  V30 3150 H 281.53 1.43908 -4.97505 0
M  V30 3151 H 278.207 2.99081 -2.91302 0
M  V30 3152 H 279.597 1.3123 -6.5896 0
M  V30 3153 N 282.317 1.53212 0.369288 0
M  V30 3154 C 283.566 1.68436 1.10961 0
M  V30 3155 C 283.879 0.440738 1.9057 0
M  V30 3156 O 285.085 0.473446 2.6734 0
M  V30 3157 C 283.541 2.97744 2.0218 0
M  V30 3158 C 283.149 4.29355 1.279 0
M  V30 3159 C 284.893 3.22334 2.76226 0
M  V30 3160 C 282.8 5.49755 2.17999 0
M  V30 3161 H 281.73 0.627568 0.41794 0
M  V30 3162 H 284.381 1.79713 0.370884 0
M  V30 3163 H 282.763 2.8026 2.79768 0
M  V30 3164 H 283.937 4.57458 0.554007 0
M  V30 3165 H 282.252 4.11179 0.657311 0
M  V30 3166 H 284.849 4.09471 3.43857 0
M  V30 3167 H 285.192 2.38238 3.41392 0
M  V30 3168 H 285.725 3.40475 2.05723 0
M  V30 3169 H 282.464 6.36318 1.57417 0
M  V30 3170 H 281.984 5.25937 2.88359 0
M  V30 3171 H 283.663 5.84401 2.77641 0
M  V30 3172 N 283.795 -0.628877 1.44509 0
M  V30 3173 C 285.041 -1.39045 1.47629 0
M  V30 3174 C 285.374 -1.93892 0.109343 0
M  V30 3175 O 284.649 -1.7379 -0.87334 0
M  V30 3176 C 284.932 -2.55408 2.53848 0
M  V30 3177 C 284.785 -2.05896 3.99909 0
M  V30 3178 C 286.104 -3.5759 2.56549 0
M  V30 3179 H 283.223 -0.504232 0.537512 0
M  V30 3180 H 285.865 -0.710854 1.76201 0
M  V30 3181 H 284.015 -3.13384 2.29615 0
M  V30 3182 H 285.687 -1.52734 4.35282 0
M  V30 3183 H 283.93 -1.37061 4.11578 0
M  V30 3184 H 284.601 -2.89681 4.69882 0
M  V30 3185 H 287.077 -3.09419 2.78207 0
M  V30 3186 H 285.953 -4.36527 3.32769 0
M  V30 3187 H 286.214 -4.11808 1.60832 0
M  V30 3188 N 285.273 -1.31445 -0.869486 0
M  V30 3189 C 286.519 -1.21337 -1.62496 0
M  V30 3190 C 286.852 0.227872 -1.92858 0
M  V30 3191 O 286.127 1.16094 -1.56053 0
M  V30 3192 C 286.41 -2.05814 -2.95487 0
M  V30 3193 C 286.263 -3.5824 -2.72 0
M  V30 3194 C 287.582 -1.9079 -3.96594 0
M  V30 3195 H 284.701 -0.442135 -0.589649 0
M  V30 3196 H 287.343 -1.6124 -1.00507 0
M  V30 3197 H 285.493 -1.71913 -3.48394 0
M  V30 3198 H 287.165 -4.0228 -2.25762 0
M  V30 3199 H 285.408 -3.81647 -2.06224 0
M  V30 3200 H 286.079 -4.12657 -3.66631 0
M  V30 3201 H 288.555 -2.20459 -3.52898 0
M  V30 3202 H 287.431 -2.52199 -4.87531 0
M  V30 3203 H 287.692 -0.871341 -4.33428 0
M  V30 3204 N 286.751 1.08385 -1.14413 0
M  V30 3205 C 287.681 2.17321 -0.854044 0
M  V30 3206 C 288.662 1.69024 0.191049 0
M  V30 3207 O 289.847 1.94141 0.0476779 0
M  V30 3208 C 286.977 3.45719 -0.330983 0
M  V30 3209 C 285.931 4.07409 -1.31155 0
M  V30 3210 C 285.257 5.30762 -0.64778 0
M  V30 3211 C 286.557 4.48665 -2.67388 0
M  V30 3212 H 288.251 2.41845 -1.76498 0
M  V30 3213 H 285.797 1.16233 -0.850051 0
M  V30 3214 H 287.75 4.21241 -0.115645 0
M  V30 3215 H 286.474 3.2075 0.615381 0
M  V30 3216 H 285.133 3.33919 -1.51306 0
M  V30 3217 H 284.781 5.02078 0.304398 0
M  V30 3218 H 284.481 5.72992 -1.30207 0
M  V30 3219 H 286.005 6.08998 -0.441972 0
M  V30 3220 H 287.419 5.15364 -2.51143 0
M  V30 3221 H 285.816 5.01814 -3.29093 0
M  V30 3222 H 286.886 3.60543 -3.24248 0
M  V30 3223 N 288.23 0.939286 1.26551 0
M  V30 3224 C 289.47 0.5933 1.956 0
M  V30 3225 C 289.834 -0.851515 1.72085 0
M  V30 3226 O 291.035 -1.30634 2.34921 0
M  V30 3227 C 289.306 0.923996 3.45249 0
M  V30 3228 S 290.865 0.688269 4.33369 0
M  V30 3229 H 287.683 0.218591 0.676564 0
M  V30 3230 H 290.285 1.2102 1.5354 0
M  V30 3231 H 288.989 1.97297 3.59864 0
M  V30 3232 H 288.52 0.296746 3.92279 0
M  V30 3233 H 290.535 -0.448434 4.9417 0
M  V30 3234 N 289.708 -1.40897 0.706093 0
M  V30 3235 C 291.124 -1.55042 0.37869 0
M  V30 3236 C 291.324 -1.67944 -1.11342 0
M  V30 3237 O 290.38 -1.66372 -1.89938 0
M  V30 3238 C 291.693 -2.78398 1.13643 0
M  V30 3239 C 293.241 -2.92206 1.12181 0
M  V30 3240 C 293.716 -4.18463 1.86152 0
M  V30 3241 N 295.207 -4.25443 1.83173 0
M  V30 3242 C 295.942 -5.2202 2.37239 0
M  V30 3243 N 295.438 -6.24563 2.99821 0
M  V30 3244 N 297.231 -5.14033 2.27435 0
M  V30 3245 H 289.382 -1.30769 1.67372 0
M  V30 3246 H 291.645 -0.631653 0.706907 0
M  V30 3247 H 291.351 -2.7511 2.19106 0
M  V30 3248 H 291.225 -3.70228 0.721853 0
M  V30 3249 H 293.612 -2.95004 0.0754171 0
M  V30 3250 H 293.693 -2.01521 1.57554 0
M  V30 3251 H 293.337 -4.16427 2.90776 0
M  V30 3252 H 293.267 -5.08141 1.38206 0
M  V30 3253 H 295.758 -3.51976 1.37556 0
M  V30 3254 H 296.071 -6.94665 3.38616 0
M  V30 3255 H 294.416 -6.25035 3.03902 0
M  V30 3256 H 297.607 -4.3285 1.78208 0
M  V30 3257 H 297.78 -5.89129 2.69873 0
M  V30 3258 N 291.186 -0.45159 -1.50991 0
M  V30 3259 C 292.434 0.109857 -2.01801 0
M  V30 3260 C 292.755 1.41958 -1.3369 0
M  V30 3261 O 292.025 1.9003 -0.475951 0
M  V30 3262 H 290.605 0.0435884 -0.745727 0
M  V30 3263 H 293.267 -0.597557 -1.85514 0
M  V30 3264 H 292.363 0.275489 -3.10882 0
M  V30 3265 N 292.664 1.56529 -0.183458 0
M  V30 3266 C 294.08 1.58664 0.172554 0
M  V30 3267 C 294.28 1.19925 1.61926 0
M  V30 3268 O 293.336 0.916534 2.35278 0
M  V30 3269 C 294.649 3.00463 -0.119262 0
M  V30 3270 C 296.197 3.12945 -0.0584396 0
M  V30 3271 C 296.672 4.56857 -0.323408 0
M  V30 3272 N 298.163 4.62403 -0.271612 0
M  V30 3273 C 298.898 5.71626 -0.450639 0
M  V30 3274 N 298.394 6.89362 -0.689384 0
M  V30 3275 N 300.187 5.60775 -0.385701 0
M  V30 3276 H 292.338 1.79994 -1.12765 0
M  V30 3277 H 294.601 0.834808 -0.449222 0
M  V30 3278 H 294.307 3.33326 -1.12192 0
M  V30 3279 H 294.181 3.72659 0.583544 0
M  V30 3280 H 296.568 2.79902 0.934805 0
M  V30 3281 H 296.649 2.4316 -0.794144 0
M  V30 3282 H 296.293 4.9061 -1.31392 0
M  V30 3283 H 296.223 5.24816 0.43305 0
M  V30 3284 H 298.714 3.77785 -0.0932256 0
M  V30 3285 H 299.027 7.68489 -0.815113 0
M  V30 3286 H 297.372 6.91196 -0.726142 0
M  V30 3287 H 300.563 4.67674 -0.199687 0
M  V30 3288 H 300.736 6.4584 -0.528646 0
M  V30 3289 N 294.142 -0.090211 1.57342 0
M  V30 3290 C 295.105 -1.09335 2.01441 0
M  V30 3291 C 296.105 -1.32666 0.908641 0
M  V30 3292 O 297.295 -1.28697 1.174 0
M  V30 3293 C 294.427 -2.44136 2.3793 0
M  V30 3294 H 295.62 -0.713662 2.91285 0
M  V30 3295 H 293.173 -0.335404 1.52659 0
M  V30 3296 H 293.908 -2.86972 1.51055 0
M  V30 3297 H 293.693 -2.28548 3.18603 0
M  V30 3298 H 295.183 -3.16277 2.72688 0
M  V30 3299 N 295.62 -1.53406 -0.361157 0
M  V30 3300 C 296.867 -1.69802 -1.10333 0
M  V30 3301 C 297.195 -0.452087 -1.89173 0
M  V30 3302 O 296.45 0.566017 -1.87336 0
M  V30 3303 C 296.749 -2.90211 -2.08596 0
M  V30 3304 C 296.415 -4.26539 -1.46203 0
M  V30 3305 C 295.077 -4.6361 -1.28915 0
M  V30 3306 C 297.429 -5.113 -1.01101 0
M  V30 3307 C 294.757 -5.83075 -0.651157 0
M  V30 3308 C 297.109 -6.31415 -0.387007 0
M  V30 3309 C 295.773 -6.67195 -0.201657 0
M  V30 3310 H 295.043 -0.621351 -0.403737 0
M  V30 3311 H 297.69 -1.87598 -0.384609 0
M  V30 3312 H 295.995 -2.66946 -2.86788 0
M  V30 3313 H 297.692 -3.00091 -2.65982 0
M  V30 3314 H 294.282 -3.97352 -1.60653 0
M  V30 3315 H 298.466 -4.83206 -1.13249 0
M  V30 3316 H 293.722 -6.09385 -0.496006 0
M  V30 3317 H 297.896 -6.96394 -0.0293563 0
M  V30 3318 H 295.523 -7.59628 0.294766 0
M  V30 3319 N 297.098 0.621204 -1.44841 0
M  V30 3320 C 298.344 1.3826 -1.48365 0
M  V30 3321 C 298.677 1.93831 -0.119624 0
M  V30 3322 O 297.952 1.74251 0.864111 0
M  V30 3323 C 298.235 2.54058 -2.55199 0
M  V30 3324 C 298.088 2.03772 -4.00995 0
M  V30 3325 C 299.407 3.56225 -2.58442 0
M  V30 3326 H 296.526 0.501374 -0.540179 0
M  V30 3327 H 299.168 0.7015 -1.76576 0
M  V30 3328 H 297.318 3.12162 -2.31274 0
M  V30 3329 H 298.99 1.50423 -4.36086 0
M  V30 3330 H 297.233 1.34876 -4.12299 0
M  V30 3331 H 297.904 2.87185 -4.71411 0
M  V30 3332 H 300.38 3.07939 -2.79844 0
M  V30 3333 H 299.256 4.34756 -3.3508 0
M  V30 3334 H 299.517 4.10949 -1.63013 0
M  V30 3335 N 298.576 1.31904 0.862503 0
M  V30 3336 C 299.823 1.22017 1.61611 0
M  V30 3337 C 300.151 -0.21991 1.93253 0
M  V30 3338 O 299.406 -1.17076 1.56817 0
M  V30 3339 C 299.705 2.01713 2.95037 0
M  V30 3340 C 299.371 3.51145 2.82857 0
M  V30 3341 C 298.033 3.91889 2.79243 0
M  V30 3342 C 300.385 4.46204 2.69353 0
M  V30 3343 C 297.713 5.25947 2.59993 0
M  V30 3344 C 300.065 5.80397 2.5164 0
M  V30 3345 C 298.729 6.20352 2.46413 0
M  V30 3346 H 297.999 0.44649 0.591378 0
M  V30 3347 H 300.646 1.63248 1.00111 0
M  V30 3348 H 298.951 1.53185 3.60613 0
M  V30 3349 H 300.648 1.91437 3.52353 0
M  V30 3350 H 297.238 3.1878 2.86491 0
M  V30 3351 H 301.422 4.15652 2.71196 0
M  V30 3352 H 296.678 5.5597 2.54376 0
M  V30 3353 H 300.852 6.53676 2.40169 0
M  V30 3354 H 298.479 7.24172 2.31256 0
M  V30 3355 N 300.054 -1.07777 1.14986 0
M  V30 3356 C 301.331 -1.7699 0.832695 0
M  V30 3357 C 301.711 -2.001 -0.672561 0
M  V30 3358 O 301.059 -1.61598 -1.6155 0
M  V30 3359 C 301.269 -3.08139 1.63863 0
M  V30 3360 C 302.617 -3.8256 1.84208 0
M  V30 3361 O 303.641 -3.17939 1.60603 0
M  V30 3362 O 302.5 -4.98612 2.23714 0
M  V30 3363 H 299.594 -0.768389 0.305791 0
M  V30 3364 H 302.14 -1.14182 1.25541 0
M  V30 3365 H 300.912 -2.86909 2.6608 0
M  V30 3366 H 300.535 -3.78678 1.21197 0
M  V30 3367 N 301.532 -0.945985 -1.26051 0
M  V30 3368 C 302.778 -0.597002 -1.93814 0
M  V30 3369 C 303.111 0.862484 -1.73997 0
M  V30 3370 O 302.386 1.61769 -1.07986 0
M  V30 3371 C 302.669 -0.945937 -3.47454 0
M  V30 3372 C 302.522 -2.46052 -3.76535 0
M  V30 3373 C 303.841 -0.464785 -4.37639 0
M  V30 3374 H 300.96 -0.218366 -0.703907 0
M  V30 3375 H 303.602 -1.18107 -1.48831 0
M  V30 3376 H 301.752 -0.448902 -3.85898 0
M  V30 3377 H 303.424 -3.03065 -3.47778 0
M  V30 3378 H 301.667 -2.90194 -3.22444 0
M  V30 3379 H 302.338 -2.65517 -4.83947 0
M  V30 3380 H 304.814 -0.891016 -4.06448 0
M  V30 3381 H 303.69 -0.737712 -5.4392 0
M  V30 3382 H 303.951 0.635274 -4.37512 0
M  V30 3383 N 303.011 1.40521 -0.713556 0
M  V30 3384 C 304.26 2.00155 -0.249192 0
M  V30 3385 C 304.573 1.57224 1.16362 0
M  V30 3386 O 305.779 2.09542 1.72639 0
M  V30 3387 C 304.235 3.5773 -0.3946 0
M  V30 3388 C 303.843 4.09635 -1.81392 0
M  V30 3389 C 305.587 4.24499 0.00907364 0
M  V30 3390 C 303.494 5.59707 -1.91003 0
M  V30 3391 H 302.424 0.74868 -0.0894114 0
M  V30 3392 H 305.075 1.60784 -0.884352 0
M  V30 3393 H 303.457 3.94792 0.30911 0
M  V30 3394 H 304.631 3.83955 -2.54785 0
M  V30 3395 H 302.946 3.55456 -2.16888 0
M  V30 3396 H 305.543 5.34683 -0.0420404 0
M  V30 3397 H 305.886 4.02824 1.05065 0
M  V30 3398 H 306.419 3.92536 -0.645007 0
M  V30 3399 H 303.158 5.86234 -2.93275 0
M  V30 3400 H 302.678 5.87258 -1.22019 0
M  V30 3401 H 304.357 6.24776 -1.6812 0
M  V30 3402 N 304.489 0.459591 1.5075 0
M  V30 3403 C 305.439 -0.358926 2.25157 0
M  V30 3404 C 306.423 -0.971285 1.28276 0
M  V30 3405 O 307.615 -0.885739 1.53244 0
M  V30 3406 C 304.744 -1.44695 3.11317 0
M  V30 3407 C 303.83 -0.842894 4.15639 0
M  V30 3408 N 304.221 0.0299373 5.05791 0
M  V30 3409 C 302.519 -1.10809 4.32015 0
M  V30 3410 C 303.22 0.371563 5.80512 0
M  V30 3411 N 302.196 -0.250409 5.43023 0
M  V30 3412 H 305.998 0.313636 2.92222 0
M  V30 3413 H 303.512 0.273021 1.60089 0
M  V30 3414 H 305.509 -2.04641 3.63218 0
M  V30 3415 H 304.169 -2.12162 2.45799 0
M  V30 3416 H 305.18 0.39797 5.16369 0
M  V30 3417 H 301.857 -1.7786 3.77719 0
M  V30 3418 H 303.247 1.08319 6.63111 0
M  V30 3419 N 305.967 -1.56429 0.191757 0
M  V30 3420 C 306.877 -2.22541 -0.742481 0
M  V30 3421 C 307.893 -1.22342 -1.23727 0
M  V30 3422 O 309.069 -1.55069 -1.28513 0
M  V30 3423 C 306.134 -2.8692 -1.94623 0
M  V30 3424 C 305.195 -4.02378 -1.49633 0
M  V30 3425 C 304.428 -4.63678 -2.6427 0
M  V30 3426 O 304.651 -4.23895 -3.81666 0
M  V30 3427 O 303.585 -5.53202 -2.37174 0
M  V30 3428 H 307.411 -3.02977 -0.209462 0
M  V30 3429 H 304.996 -1.49353 -0.0373832 0
M  V30 3430 H 306.878 -3.27663 -2.64982 0
M  V30 3431 H 305.553 -2.09466 -2.46791 0
M  V30 3432 H 304.46 -3.66265 -0.761636 0
M  V30 3433 H 305.793 -4.81487 -1.02134 0
M  V30 3434 N 307.445 0.0818655 -1.57387 0
M  V30 3435 C 308.693 0.781368 -1.86384 0
M  V30 3436 C 309.014 1.78618 -0.782342 0
M  V30 3437 O 308.284 1.94976 0.190061 0
M  V30 3438 H 306.864 0.291562 -0.687751 0
M  V30 3439 H 309.526 0.060348 -1.94807 0
M  V30 3440 H 308.622 1.3038 -2.83562 0
M  V30 3441 N 308.923 1.53595 0.353017 0
M  V30 3442 C 310.163 1.72094 1.10286 0
M  V30 3443 C 310.527 0.469217 1.86178 0
M  V30 3444 O 311.728 0.531083 2.63501 0
M  V30 3445 C 309.999 2.94386 2.02661 0
M  V30 3446 S 311.558 3.33651 2.84996 0
M  V30 3447 H 308.376 0.605433 0.372789 0
M  V30 3448 H 310.978 1.91722 0.38248 0
M  V30 3449 H 309.682 3.83669 1.45691 0
M  V30 3450 H 309.213 2.77197 2.79152 0
M  V30 3451 H 311.228 2.86645 4.0503 0
M  V30 3452 N 310.401 -0.613514 1.45168 0
M  V30 3453 C 311.331 -1.7354 1.56225 0
M  V30 3454 C 312.312 -1.64981 0.41414 0
M  V30 3455 O 313.497 -1.83472 0.636526 0
M  V30 3456 C 310.627 -3.12128 1.52295 0
M  V30 3457 C 309.581 -3.35491 2.65762 0
M  V30 3458 C 308.907 -4.74291 2.46885 0
M  V30 3459 C 310.207 -3.26325 4.0781 0
M  V30 3460 H 311.901 -1.64543 2.50132 0
M  V30 3461 H 309.447 -0.790185 1.20383 0
M  V30 3462 H 311.4 -3.90404 1.58628 0
M  V30 3463 H 310.124 -3.2195 0.549139 0
M  V30 3464 H 308.783 -2.59603 2.58847 0
M  V30 3465 H 308.431 -4.80839 1.47657 0
M  V30 3466 H 308.131 -4.9088 3.22972 0
M  V30 3467 H 309.655 -5.54775 2.55063 0
M  V30 3468 H 311.069 -3.94483 4.16 0
M  V30 3469 H 309.466 -3.54445 4.8424 0
M  V30 3470 H 310.536 -2.23855 4.30136 0
M  V30 3471 N 311.879 -1.3236 -0.855495 0
M  V30 3472 C 313.125 -1.23054 -1.612 0
M  V30 3473 C 313.458 0.207404 -1.93089 0
M  V30 3474 O 312.733 1.14432 -1.57275 0
M  V30 3475 C 313.016 -2.08937 -2.93287 0
M  V30 3476 C 312.869 -3.61105 -2.68185 0
M  V30 3477 C 314.188 -1.94986 -3.94549 0
M  V30 3478 H 311.307 -0.448364 -0.584926 0
M  V30 3479 H 313.949 -1.62297 -0.987917 0
M  V30 3480 H 312.099 -1.75599 -3.46551 0
M  V30 3481 H 313.771 -4.04652 -2.21483 0
M  V30 3482 H 312.014 -3.83813 -2.02164 0
M  V30 3483 H 312.685 -4.16522 -3.62234 0
M  V30 3484 H 315.161 -2.24189 -3.5054 0
M  V30 3485 H 314.037 -2.57356 -4.84829 0
M  V30 3486 H 314.298 -0.917263 -4.3248 0
M  V30 3487 N 313.357 1.07166 -1.15556 0
M  V30 3488 C 314.585 1.83514 -0.955519 0
M  V30 3489 C 315 1.82163 0.49621 0
M  V30 3490 O 314.357 1.23441 1.34419 0
M  V30 3491 C 314.408 3.30515 -1.46432 0
M  V30 3492 O 314.129 3.31937 -2.85918 0
M  V30 3493 C 315.63 4.23625 -1.30603 0
M  V30 3494 H 312.85 0.578926 -0.339244 0
M  V30 3495 H 315.394 1.35265 -1.53374 0
M  V30 3496 H 313.549 3.76106 -0.928584 0
M  V30 3497 H 313.963 4.23794 -3.09029 0
M  V30 3498 H 315.437 5.24831 -1.71047 0
M  V30 3499 H 315.914 4.38485 -0.250441 0
M  V30 3500 H 316.52 3.83871 -1.83094 0
M  V30 3501 N 314.835 0.952656 1.25548 0
M  V30 3502 C 316.246 0.647392 1.75116 0
M  V30 3503 C 316.597 -0.837274 1.77438 0
M  V30 3504 O 315.722 -1.65525 1.39393 0
M  V30 3505 C 316.317 1.16845 3.18014 0
M  V30 3506 C 314.876 0.913382 3.6515 0
M  V30 3507 C 314.023 1.31265 2.44264 0
M  V30 3508 H 316.974 1.12968 1.11462 0
M  V30 3509 H 316.995 0.527606 3.76824 0
M  V30 3510 H 316.507 2.24902 3.16292 0
M  V30 3511 H 314.608 -0.152316 3.72289 0
M  V30 3512 H 314.721 1.54845 4.53387 0
M  V30 3513 H 313.085 0.731028 2.43984 0
M  V30 3514 H 313.868 2.40239 2.45234 0
M  V30 3515 N 316.313 -1.40141 0.720998 0
M  V30 3516 C 317.724 -1.83678 0.334553 0
M  V30 3517 C 318.075 -1.6027 -1.13173 0
M  V30 3518 O 317.2 -1.08643 -1.87152 0
M  V30 3519 C 317.795 -3.33437 0.600437 0
M  V30 3520 C 316.354 -3.75447 0.267642 0
M  V30 3521 C 315.501 -2.63296 0.870097 0
M  V30 3522 H 318.452 -1.29331 0.919732 0
M  V30 3523 H 318.473 -3.80269 -0.132517 0
M  V30 3524 H 317.985 -3.50442 1.66768 0
M  V30 3525 H 316.086 -3.64035 -0.794329 0
M  V30 3526 H 316.199 -4.73344 0.74042 0
M  V30 3527 H 314.563 -2.52954 0.297739 0
M  V30 3528 H 315.346 -2.83112 1.94172 0
M  V30 3529 N 317.792 -0.46758 -1.50504 0
M  V30 3530 C 318.702 0.33382 -2.32213 0
M  V30 3531 C 319.718 0.999323 -1.42441 0
M  V30 3532 O 320.894 0.988068 -1.75497 0
M  V30 3533 C 317.959 1.4035 -3.17022 0
M  V30 3534 C 317.02 0.754961 -4.2261 0
M  V30 3535 C 316.253 1.77367 -5.03365 0
M  V30 3536 O 316.476 2.99976 -4.8515 0
M  V30 3537 O 315.41 1.34744 -5.86624 0
M  V30 3538 H 319.236 -0.334067 -3.01857 0
M  V30 3539 H 316.821 -0.229496 -1.47627 0
M  V30 3540 H 318.703 2.02318 -3.69656 0
M  V30 3541 H 317.378 2.05492 -2.5011 0
M  V30 3542 H 316.285 0.0964244 -3.73976 0
M  V30 3543 H 317.618 0.146545 -4.91982 0
M  V30 3544 N 319.27 1.56325 -0.20005 0
M  V30 3545 C 320.2 2.22318 0.713916 0
M  V30 3546 C 321.181 1.18788 1.21752 0
M  V30 3547 O 322.366 1.47309 1.26545 0
M  V30 3548 C 319.496 2.88639 1.93144 0
M  V30 3549 C 318.45 3.98457 1.56255 0
M  V30 3550 C 317.776 4.51967 2.85709 0
M  V30 3551 C 319.076 5.16612 0.768747 0
M  V30 3552 H 320.77 2.98952 0.163755 0
M  V30 3553 H 318.316 1.43792 0.0773219 0
M  V30 3554 H 320.269 3.33491 2.57608 0
M  V30 3555 H 318.993 2.09419 2.50621 0
M  V30 3556 H 317.652 3.54305 0.941471 0
M  V30 3557 H 317.3 3.69503 3.41287 0
M  V30 3558 H 317 5.26071 2.6177 0
M  V30 3559 H 318.524 4.99523 3.51154 0
M  V30 3560 H 319.938 5.57977 1.3166 0
M  V30 3561 H 318.335 5.96812 0.627286 0
M  V30 3562 H 319.405 4.84358 -0.229168 0
M  V30 3563 N 320.748 -0.0735177 1.57428 0
M  V30 3564 C 321.678 -1.0879 2.06608 0
M  V30 3565 C 322.659 -1.40473 0.959237 0
M  V30 3566 O 323.844 -1.5013 1.23185 0
M  V30 3567 C 320.974 -2.40183 2.50857 0
M  V30 3568 C 319.928 -2.22858 3.65402 0
M  V30 3569 C 319.254 -3.59619 3.957 0
M  V30 3570 C 320.554 -1.65123 4.95511 0
M  V30 3571 H 322.248 -0.678673 2.91607 0
M  V30 3572 H 319.794 -0.325013 1.40284 0
M  V30 3573 H 321.747 -3.11437 2.83874 0
M  V30 3574 H 320.471 -2.83083 1.62885 0
M  V30 3575 H 319.13 -1.54045 3.32664 0
M  V30 3576 H 318.778 -4.00086 3.04861 0
M  V30 3577 H 318.478 -3.48866 4.72828 0
M  V30 3578 H 320.002 -4.32306 4.31212 0
M  V30 3579 H 321.416 -2.26241 5.26771 0
M  V30 3580 H 319.813 -1.65071 5.7695 0
M  V30 3581 H 320.883 -0.612559 4.81015 0
M  V30 3582 N 322.226 -1.5378 -0.344866 0
M  V30 3583 C 323.642 -1.44015 -0.687888 0
M  V30 3584 C 323.842 -0.595834 -1.92489 0
M  V30 3585 O 322.898 -0.0863064 -2.52352 0
M  V30 3586 C 324.211 -2.87481 -0.881758 0
M  V30 3587 C 325.759 -2.97247 -0.980459 0
M  V30 3588 C 326.234 -4.41819 -1.20665 0
M  V30 3589 N 327.725 -4.45339 -1.27389 0
M  V30 3590 C 328.46 -5.54333 -1.46639 0
M  V30 3591 N 327.956 -6.73335 -1.63071 0
M  V30 3592 N 329.749 -5.41944 -1.49176 0
M  V30 3593 H 321.9 -2.07169 0.468475 0
M  V30 3594 H 324.163 -0.93643 0.147655 0
M  V30 3595 H 323.869 -3.51672 -0.0443444 0
M  V30 3596 H 323.743 -3.32352 -1.78388 0
M  V30 3597 H 326.13 -2.33197 -1.8084 0
M  V30 3598 H 326.211 -2.5574 -0.0552713 0
M  V30 3599 H 325.855 -5.06449 -0.383652 0
M  V30 3600 H 325.785 -4.80917 -2.14539 0
M  V30 3601 H 328.276 -3.59585 -1.1622 0
M  V30 3602 H 328.589 -7.52165 -1.77391 0
M  V30 3603 H 326.934 -6.76282 -1.60209 0
M  V30 3604 H 330.125 -4.47932 -1.3592 0
M  V30 3605 H 330.298 -6.26946 -1.63837 0
M  V30 3606 N 323.704 0.605807 -1.45491 0
M  V30 3607 C 324.636 1.73031 -1.5031 0
M  V30 3608 C 325.649 1.57968 -0.393687 0
M  V30 3609 O 326.838 1.65817 -0.660839 0
M  V30 3610 C 323.938 3.11049 -1.34543 0
M  V30 3611 C 323.111 3.52334 -2.59189 0
M  V30 3612 C 322.17 4.69323 -2.37954 0
M  V30 3613 O 321.196 4.7635 -3.11575 0
M  V30 3614 N 322.398 5.62705 -1.4263 0
M  V30 3615 H 325.163 1.6936 -2.4726 0
M  V30 3616 H 322.724 0.79114 -1.41254 0
M  V30 3617 H 324.716 3.87071 -1.18144 0
M  V30 3618 H 323.286 3.09217 -0.458623 0
M  V30 3619 H 322.506 2.66256 -2.90691 0
M  V30 3620 H 323.794 3.76677 -3.42041 0
M  V30 3621 H 323.192 5.59744 -0.818758 0
M  V30 3622 H 321.749 6.38252 -1.32202 0
M  V30 3623 N 325.182 1.32811 0.848464 0
M  V30 3624 C 326.112 1.24882 1.97299 0
M  V30 3625 C 327.093 0.131357 1.69592 0
M  V30 3626 O 328.278 0.319553 1.91553 0
M  V30 3627 C 325.408 0.97746 3.33261 0
M  V30 3628 C 324.362 2.05682 3.75338 0
M  V30 3629 C 323.688 1.63777 5.09 0
M  V30 3630 C 324.988 3.47254 3.90144 0
M  V30 3631 H 326.682 2.18966 2.04191 0
M  V30 3632 H 324.228 1.05413 0.981029 0
M  V30 3633 H 326.181 0.908513 4.1149 0
M  V30 3634 H 324.905 0.000980011 3.266 0
M  V30 3635 H 323.564 2.11603 2.99366 0
M  V30 3636 H 323.212 0.648569 4.98801 0
M  V30 3637 H 322.912 2.36 5.38124 0
M  V30 3638 H 324.436 1.5833 5.89715 0
M  V30 3639 H 325.85 3.43888 4.58709 0
M  V30 3640 H 324.247 4.1788 4.30693 0
M  V30 3641 H 325.317 3.86462 2.92874 0
M  V30 3642 N 326.66 -1.06551 1.16123 0
M  V30 3643 C 327.888 -1.83005 0.965237 0
M  V30 3644 C 328.303 -1.82423 -0.486542 0
M  V30 3645 O 327.66 -1.24152 -1.33763 0
M  V30 3646 C 327.711 -3.29733 1.48183 0
M  V30 3647 O 327.432 -3.30416 2.87674 0
M  V30 3648 C 328.933 -4.22926 1.32848 0
M  V30 3649 H 326.153 -0.577118 0.342309 0
M  V30 3650 H 328.697 -1.3445 1.54089 0
M  V30 3651 H 326.852 -3.75609 0.948517 0
M  V30 3652 H 327.266 -4.22149 3.11272 0
M  V30 3653 H 328.74 -5.23916 1.73827 0
M  V30 3654 H 329.217 -4.38346 0.273692 0
M  V30 3655 H 329.823 -3.82894 1.85127 0
M  V30 3656 N 328.138 -0.959301 -1.25041 0
M  V30 3657 C 329.368 -0.63303 -1.96663 0
M  V30 3658 C 329.776 0.800031 -1.71453 0
M  V30 3659 O 329.119 1.54736 -0.99008 0
M  V30 3660 C 329.181 -0.817523 -3.50081 0
M  V30 3661 C 328.845 -2.22863 -3.98975 0
M  V30 3662 C 329.842 -3.20569 -4.09306 0
M  V30 3663 C 327.527 -2.55407 -4.32519 0
M  V30 3664 C 329.521 -4.4891 -4.52503 0
M  V30 3665 C 327.208 -3.83976 -4.754 0
M  V30 3666 C 328.206 -4.8054 -4.85356 0
M  V30 3667 O 327.894 -6.06817 -5.27284 0
M  V30 3668 H 327.626 -0.235866 -0.633516 0
M  V30 3669 H 330.18 -1.2874 -1.60047 0
M  V30 3670 H 328.41 -0.105992 -3.86555 0
M  V30 3671 H 330.099 -0.491604 -4.02912 0
M  V30 3672 H 330.865 -2.96753 -3.83618 0
M  V30 3673 H 326.744 -1.8097 -4.23994 0
M  V30 3674 H 330.288 -5.24283 -4.60188 0
M  V30 3675 H 326.185 -4.07596 -5.00535 0
M  V30 3676 H 326.953 -6.10262 -5.45457 0
M  V30 3677 N 329.616 1.39756 -0.72842 0
M  V30 3678 C 330.865 1.99879 -0.270407 0
M  V30 3679 C 331.178 1.58449 1.14688 0
M  V30 3680 O 332.384 2.11362 1.70407 0
M  V30 3681 C 330.84 3.57292 -0.43252 0
M  V30 3682 C 330.448 4.07688 -1.85727 0
M  V30 3683 C 332.192 4.24485 -0.0359507 0
M  V30 3684 C 330.099 5.5765 -1.96928 0
M  V30 3685 H 329.029 0.747689 -0.0973472 0
M  V30 3686 H 331.68 1.59837 -0.901355 0
M  V30 3687 H 330.062 3.95097 0.267219 0
M  V30 3688 H 331.236 3.81231 -2.58843 0
M  V30 3689 H 329.551 3.53135 -2.20646 0
M  V30 3690 H 332.148 5.34609 -0.0987484 0
M  V30 3691 H 332.491 4.03915 1.00787 0
M  V30 3692 H 333.024 3.9183 -0.686604 0
M  V30 3693 H 329.763 5.8309 -2.99476 0
M  V30 3694 H 329.283 5.8593 -1.28241 0
M  V30 3695 H 330.962 6.22957 -1.74737 0
M  V30 3696 N 331.094 0.475555 1.50254 0
M  V30 3697 C 332.044 -0.335025 2.25525 0
M  V30 3698 C 333.028 -0.957625 1.29299 0
M  V30 3699 O 334.22 -0.869436 1.54175 0
M  V30 3700 C 331.349 -1.41385 3.12834 0
M  V30 3701 C 330.435 -0.798762 4.1651 0
M  V30 3702 N 330.826 0.0835815 5.05731 0
M  V30 3703 C 329.124 -1.06221 4.33166 0
M  V30 3704 C 329.825 0.433113 5.80085 0
M  V30 3705 N 328.801 -0.1928 5.43258 0
M  V30 3706 H 332.603 0.344612 2.91873 0
M  V30 3707 H 330.117 0.289986 1.5979 0
M  V30 3708 H 332.114 -2.00777 3.65368 0
M  V30 3709 H 330.774 -2.09543 2.48036 0
M  V30 3710 H 331.785 0.452715 5.15918 0
M  V30 3711 H 328.462 -1.73844 3.79585 0
M  V30 3712 H 329.852 1.15346 6.61925 0
M  V30 3713 N 332.573 -1.56217 0.208337 0
M  V30 3714 C 333.52 -2.19699 -0.707192 0
M  V30 3715 C 334.49 -1.14836 -1.20008 0
M  V30 3716 O 335.675 -1.4314 -1.26157 0
M  V30 3717 C 332.815 -2.87061 -1.91546 0
M  V30 3718 C 331.928 -4.06483 -1.46271 0
M  V30 3719 C 331.063 -4.61665 -2.62752 0
M  V30 3720 C 330.102 -5.73417 -2.14147 0
M  V30 3721 N 329.239 -6.22948 -3.23853 0
M  V30 3722 H 334.079 -2.97575 -0.159111 0
M  V30 3723 H 331.616 -1.46948 -0.0667874 0
M  V30 3724 H 333.574 -3.24294 -2.62468 0
M  V30 3725 H 332.204 -2.11725 -2.43664 0
M  V30 3726 H 331.256 -3.74825 -0.648886 0
M  V30 3727 H 332.568 -4.87271 -1.06622 0
M  V30 3728 H 331.722 -5.01272 -3.41776 0
M  V30 3729 H 330.461 -3.80013 -3.05682 0
M  V30 3730 H 329.466 -5.33326 -1.33581 0
M  V30 3731 H 330.691 -6.56897 -1.72232 0
M  V30 3732 H 328.637 -5.44213 -3.6629 0
M  V30 3733 H 328.554 -6.98823 -2.88414 0
M  V30 3734 H 329.822 -6.6721 -4.03052 0
M  V30 3735 N 334.051 0.0651679 -1.57465 0
M  V30 3736 C 334.998 1.07675 -2.04144 0
M  V30 3737 C 335.968 1.38071 -0.923335 0
M  V30 3738 O 337.153 1.49026 -1.19146 0
M  V30 3739 C 334.293 2.38337 -2.49579 0
M  V30 3740 C 333.406 2.14413 -3.75035 0
M  V30 3741 C 332.541 3.38686 -4.09225 0
M  V30 3742 C 331.58 3.10156 -5.27702 0
M  V30 3743 N 330.717 4.26778 -5.57499 0
M  V30 3744 H 335.557 0.671716 -2.90331 0
M  V30 3745 H 333.094 0.3201 -1.43575 0
M  V30 3746 H 335.052 3.14632 -2.73975 0
M  V30 3747 H 333.682 2.7663 -1.6636 0
M  V30 3748 H 332.734 1.2878 -3.57939 0
M  V30 3749 H 334.046 1.89344 -4.61466 0
M  V30 3750 H 333.2 4.23373 -4.34558 0
M  V30 3751 H 331.939 3.66837 -3.21374 0
M  V30 3752 H 330.944 2.23866 -5.02159 0
M  V30 3753 H 332.169 2.8332 -6.17176 0
M  V30 3754 H 330.115 4.54948 -4.72608 0
M  V30 3755 H 330.032 4.05005 -6.38362 0
M  V30 3756 H 331.3 5.12443 -5.87386 0
M  V30 3757 N 335.529 1.53961 0.336706 0
M  V30 3758 C 336.769 1.73254 1.08454 0
M  V30 3759 C 337.133 0.488937 1.8567 0
M  V30 3760 O 338.334 0.559001 2.62923 0
M  V30 3761 C 336.605 2.96519 1.99528 0
M  V30 3762 S 338.164 3.36655 2.81441 0
M  V30 3763 H 334.982 0.609353 0.366347 0
M  V30 3764 H 337.584 1.92117 0.362124 0
M  V30 3765 H 336.288 3.85193 1.41614 0
M  V30 3766 H 335.819 2.80142 2.76196 0
M  V30 3767 H 337.834 2.90925 4.01967 0
M  V30 3768 N 337.007 -0.598083 1.45811 0
M  V30 3769 C 337.957 -1.70272 1.51629 0
M  V30 3770 C 338.941 -1.56382 0.378629 0
M  V30 3771 O 340.133 -1.65557 0.626087 0
M  V30 3772 C 337.262 -3.09042 1.49493 0
M  V30 3773 C 336.348 -3.28284 2.68496 0
M  V30 3774 N 336.739 -3.17748 3.93535 0
M  V30 3775 C 335.037 -3.59182 2.64394 0
M  V30 3776 C 335.738 -3.38579 4.7301 0
M  V30 3777 N 334.714 -3.63016 4.04624 0
M  V30 3778 H 338.516 -1.60634 2.46118 0
M  V30 3779 H 336.03 -0.801642 1.41235 0
M  V30 3780 H 338.027 -3.88302 1.51747 0
M  V30 3781 H 336.687 -3.19823 0.560683 0
M  V30 3782 H 337.698 -2.95944 4.25014 0
M  V30 3783 H 334.375 -3.76742 1.79922 0
M  V30 3784 H 335.765 -3.35747 5.82 0
M  V30 3785 N 338.485 -1.33259 -0.841409 0
M  V30 3786 C 339.71 -1.2775 -1.63385 0
M  V30 3787 C 340.135 0.149188 -1.87507 0
M  V30 3788 O 339.493 1.10498 -1.43736 0
M  V30 3789 C 339.541 -2.05571 -2.96265 0
M  V30 3790 O 338.645 -1.41257 -3.87453 0
M  V30 3791 H 337.986 -0.439627 -0.497618 0
M  V30 3792 H 340.516 -1.75782 -1.04699 0
M  V30 3793 H 340.526 -2.16241 -3.45982 0
M  V30 3794 H 339.201 -3.09309 -2.7803 0
M  V30 3795 H 337.778 -1.39217 -3.45938 0
M  V30 3796 N 339.963 1.05934 -1.16686 0
M  V30 3797 C 340.873 2.17014 -0.891183 0
M  V30 3798 C 341.889 1.73453 0.137907 0
M  V30 3799 O 343.065 2.01361 -0.039592 0
M  V30 3800 C 340.13 3.44384 -0.400099 0
M  V30 3801 C 339.191 4.02433 -1.49486 0
M  V30 3802 C 338.424 5.23723 -1.02711 0
M  V30 3803 O 338.647 5.7027 0.121716 0
M  V30 3804 O 337.581 5.7382 -1.81699 0
M  V30 3805 H 341.407 2.43113 -1.82015 0
M  V30 3806 H 338.992 1.15541 -0.947132 0
M  V30 3807 H 340.874 4.21189 -0.133392 0
M  V30 3808 H 339.549 3.19802 0.500817 0
M  V30 3809 H 338.456 3.27102 -1.81535 0
M  V30 3810 H 339.789 4.31317 -2.37121 0
M  V30 3811 N 341.441 0.965919 1.2453 0
M  V30 3812 C 342.852 0.665929 1.7442 0
M  V30 3813 C 343.203 -0.818407 1.78316 0
M  V30 3814 O 342.328 -1.64037 1.41141 0
M  V30 3815 C 342.923 1.20211 3.16757 0
M  V30 3816 C 341.482 0.952059 3.6416 0
M  V30 3817 C 340.629 1.33848 2.42858 0
M  V30 3818 H 343.58 1.14144 1.10258 0
M  V30 3819 H 343.601 0.567544 3.76244 0
M  V30 3820 H 343.113 2.28244 3.13889 0
M  V30 3821 H 341.214 -0.112821 3.72429 0
M  V30 3822 H 341.327 1.59645 4.51719 0
M  V30 3823 H 339.691 0.756864 2.43195 0
M  V30 3824 H 340.474 2.42827 2.42673 0
M  V30 3825 N 342.919 -1.39368 0.735821 0
M  V30 3826 C 344.196 -1.94465 0.210395 0
M  V30 3827 C 344.576 -1.67254 -1.28799 0
M  V30 3828 O 343.924 -1.00123 -2.05396 0
M  V30 3829 C 344.134 -3.4472 0.544897 0
M  V30 3830 C 345.482 -4.21708 0.494689 0
M  V30 3831 O 346.506 -3.52922 0.482136 0
M  V30 3832 O 345.365 -5.44299 0.489947 0
M  V30 3833 H 342.459 -0.826096 0.0386666 0
M  V30 3834 H 345.005 -1.48863 0.814735 0
M  V30 3835 H 343.777 -3.57963 1.58045 0
M  V30 3836 H 343.4 -3.97502 -0.08837 0
M  V30 3837 N 344.397 -0.483516 -1.5 0
M  V30 3838 C 345.645 0.067027 -2.01989 0
M  V30 3839 C 345.966 1.3909 -1.36671 0
M  V30 3840 O 345.236 1.88978 -0.516152 0
M  V30 3841 H 343.816 0.0277606 -0.746484 0
M  V30 3842 H 346.478 -0.636773 -1.84204 0
M  V30 3843 H 345.574 0.209484 -3.11396 0
M  V30 3844 N 345.875 1.56104 -0.216619 0
M  V30 3845 C 347.286 1.844 0.292128 0
M  V30 3846 C 347.637 1.13788 1.59833 0
M  V30 3847 O 346.762 0.405888 2.12559 0
M  V30 3848 C 347.357 3.3452 0.53681 0
M  V30 3849 C 345.916 3.63151 0.989876 0
M  V30 3850 C 345.063 2.77255 0.0502302 0
M  V30 3851 H 348.014 1.52481 -0.439926 0
M  V30 3852 H 348.035 3.54459 1.38345 0
M  V30 3853 H 347.547 3.85885 -0.414031 0
M  V30 3854 H 345.648 3.17238 1.95425 0
M  V30 3855 H 345.761 4.71177 0.867698 0
M  V30 3856 H 344.125 2.48555 0.556117 0
M  V30 3857 H 344.908 3.31416 -0.89544 0
M  V30 3858 N 347.353 -0.0568162 1.57498 0
M  V30 3859 C 348.601 -0.751617 1.87604 0
M  V30 3860 C 348.922 -1.77351 0.81066 0
M  V30 3861 O 348.192 -1.95254 -0.159018 0
M  V30 3862 H 346.772 -0.280583 0.692302 0
M  V30 3863 H 349.434 -0.0293483 1.94878 0
M  V30 3864 H 348.53 -1.25852 2.856 0
M  V30 3865 N 348.832 -1.54138 -0.328536 0
M  V30 3866 C 350.081 -1.71318 -1.06456 0
M  V30 3867 C 350.394 -0.491109 -1.89334 0
M  V30 3868 O 351.6 -0.54416 -2.65991 0
M  V30 3869 C 350.056 -3.03 -1.94214 0
M  V30 3870 C 349.664 -4.32595 -1.16471 0
M  V30 3871 C 351.408 -3.29544 -2.67583 0
M  V30 3872 C 349.315 -5.55341 -2.03347 0
M  V30 3873 H 348.245 -0.638429 -0.401155 0
M  V30 3874 H 350.896 -1.80633 -0.323106 0
M  V30 3875 H 349.278 -2.87579 -2.72239 0
M  V30 3876 H 350.452 -4.58766 -0.432525 0
M  V30 3877 H 348.767 -4.12777 -0.548063 0
M  V30 3878 H 351.364 -4.18444 -3.3288 0
M  V30 3879 H 351.707 -2.47206 -3.34955 0
M  V30 3880 H 352.24 -3.45809 -1.96623 0
M  V30 3881 H 348.979 -6.40268 -1.40491 0
M  V30 3882 H 348.499 -5.33397 -2.74313 0
M  V30 3883 H 350.178 -5.91557 -2.62049 0
M  V30 3884 N 350.31 0.590341 -1.46126 0
M  V30 3885 C 351.273 1.68194 -1.55703 0
M  V30 3886 C 352.273 1.54808 -0.434868 0
M  V30 3887 O 353.463 1.59564 -0.698928 0
M  V30 3888 C 350.595 3.07575 -1.47005 0
M  V30 3889 H 351.788 1.61064 -2.52979 0
M  V30 3890 H 349.341 0.807541 -1.33823 0
M  V30 3891 H 350.076 3.20268 -0.509785 0
M  V30 3892 H 349.861 3.187 -2.28414 0
M  V30 3893 H 351.351 3.87055 -1.56776 0
M  V30 3894 N 351.788 1.33704 0.83433 0
M  V30 3895 C 352.751 1.24244 1.92603 0
M  V30 3896 C 353.751 0.160383 1.59998 0
M  V30 3897 O 354.941 0.412228 1.69252 0
M  V30 3898 C 352.073 0.91555 3.28376 0
M  V30 3899 H 353.266 2.21287 2.02416 0
M  V30 3900 H 350.819 1.17827 1.02696 0
M  V30 3901 H 351.554 -0.0521886 3.24258 0
M  V30 3902 H 351.339 1.69811 3.53422 0
M  V30 3903 H 352.829 0.874231 4.08347 0
M  V30 3904 N 353.266 -1.05314 1.17247 0
M  V30 3905 C 354.196 -2.1498 0.911362 0
M  V30 3906 C 355.177 -1.69471 -0.146169 0
M  V30 3907 O 356.362 -1.942 0.003812 0
M  V30 3908 C 353.492 -3.4472 0.422528 0
M  V30 3909 C 352.446 -4.03789 1.4191 0
M  V30 3910 C 351.772 -5.28858 0.788274 0
M  V30 3911 C 353.072 -4.41418 2.7919 0
M  V30 3912 H 354.766 -2.3708 1.82848 0
M  V30 3913 H 352.312 -1.13938 0.880569 0
M  V30 3914 H 354.265 -4.20787 0.227289 0
M  V30 3915 H 352.989 -3.22269 -0.530123 0
M  V30 3916 H 351.648 -3.2979 1.60106 0
M  V30 3917 H 351.296 -5.02709 -0.171173 0
M  V30 3918 H 350.996 -5.69338 1.45353 0
M  V30 3919 H 352.52 -6.07612 0.603282 0
M  V30 3920 H 353.934 -5.08524 2.64719 0
M  V30 3921 H 352.331 -4.92913 3.42282 0
M  V30 3922 H 353.401 -3.51819 3.33693 0
M  V30 3923 N 354.744 -0.972509 -1.24016 0
M  V30 3924 C 355.972 -0.654803 -1.96265 0
M  V30 3925 C 356.387 0.776708 -1.72083 0
M  V30 3926 O 355.744 1.52171 -1.00748 0
M  V30 3927 C 355.795 -0.92592 -3.49441 0
M  V30 3928 O 355.516 -2.30116 -3.72798 0
M  V30 3929 C 357.017 -0.623068 -4.38899 0
M  V30 3930 H 354.237 -0.243907 -0.6251 0
M  V30 3931 H 356.781 -1.30175 -1.57717 0
M  V30 3932 H 354.936 -0.325108 -3.86033 0
M  V30 3933 H 355.35 -2.38483 -4.67147 0
M  V30 3934 H 356.824 -0.863189 -5.45209 0
M  V30 3935 H 357.301 0.442754 -4.36963 0
M  V30 3936 H 357.907 -1.204 -4.07902 0
M  V30 3937 N 356.222 1.38976 -0.743202 0
M  V30 3938 C 357.447 2.05161 -0.303936 0
M  V30 3939 C 357.872 1.55677 1.05576 0
M  V30 3940 O 357.23 0.704131 1.67068 0
M  V30 3941 C 357.278 3.59138 -0.324373 0
M  V30 3942 O 356.382 4.06668 0.685204 0
M  V30 3943 H 355.723 0.649815 -0.136518 0
M  V30 3944 H 358.253 1.77852 -1.01142 0
M  V30 3945 H 358.263 4.07639 -0.171618 0
M  V30 3946 H 356.938 3.94515 -1.31647 0
M  V30 3947 H 355.515 3.69561 0.497913 0
M  V30 3948 N 357.7 0.491464 1.49741 0
M  V30 3949 C 358.61 -0.296835 2.32715 0
M  V30 3950 C 359.626 -0.976536 1.44013 0
M  V30 3951 O 360.802 -0.960023 1.77047 0
M  V30 3952 C 357.867 -1.35288 3.19215 0
M  V30 3953 C 356.928 -0.687632 4.23757 0
M  V30 3954 C 356.161 -1.69336 5.06123 0
M  V30 3955 O 356.384 -2.92219 4.89861 0
M  V30 3956 O 355.318 -1.25394 5.88693 0
M  V30 3957 H 359.144 0.382048 3.01287 0
M  V30 3958 H 356.729 0.252953 1.47243 0
M  V30 3959 H 358.611 -1.96411 3.72828 0
M  V30 3960 H 357.286 -2.01487 2.53347 0
M  V30 3961 H 356.193 -0.0369159 3.74082 0
M  V30 3962 H 357.526 -0.0682566 4.92153 0
M  V30 3963 N 359.178 -1.55987 0.224894 0
M  V30 3964 C 360.088 -2.24066 -0.69511 0
M  V30 3965 C 361.104 -1.24939 -1.21104 0
M  V30 3966 O 362.28 -1.5776 -1.25195 0
M  V30 3967 C 359.345 -2.90983 -1.88493 0
M  V30 3968 C 358.406 -4.05462 -1.41064 0
M  V30 3969 C 357.639 -4.69179 -2.54375 0
M  V30 3970 O 357.862 -4.31895 -3.72589 0
M  V30 3971 O 356.796 -5.58108 -2.25386 0
M  V30 3972 H 360.622 -3.03353 -0.145149 0
M  V30 3973 H 358.207 -1.49399 -0.00569476 0
M  V30 3974 H 360.089 -3.33209 -2.57972 0
M  V30 3975 H 358.764 -2.14653 -2.42293 0
M  V30 3976 H 357.671 -3.67798 -0.683774 0
M  V30 3977 H 359.004 -4.83545 -0.918985 0
M  V30 3978 N 360.656 0.0484629 -1.57525 0
M  V30 3979 C 362.072 0.40375 -1.54409 0
M  V30 3980 C 362.272 1.77786 -0.948384 0
M  V30 3981 O 361.328 2.46189 -0.560983 0
M  V30 3982 C 362.641 0.323394 -2.98956 0
M  V30 3983 C 364.189 0.401892 -3.10409 0
M  V30 3984 C 364.664 0.351195 -4.56652 0
M  V30 3985 N 366.155 0.410576 -4.61377 0
M  V30 3986 C 366.89 0.393933 -5.72045 0
M  V30 3987 N 366.386 0.330724 -6.9201 0
M  V30 3988 N 368.179 0.442227 -5.60358 0
M  V30 3989 H 360.33 -0.851016 -1.94606 0
M  V30 3990 H 362.593 -0.321721 -0.89174 0
M  V30 3991 H 362.299 -0.62011 -3.4619 0
M  V30 3992 H 362.173 1.12463 -3.60044 0
M  V30 3993 H 364.56 1.33582 -2.63134 0
M  V30 3994 H 364.641 -0.428342 -2.52188 0
M  V30 3995 H 364.285 -0.578987 -5.04589 0
M  V30 3996 H 364.215 1.19928 -5.12762 0
M  V30 3997 H 366.706 0.462729 -3.75056 0
M  V30 3998 H 367.019 0.322592 -7.72126 0
M  V30 3999 H 365.364 0.29706 -6.94365 0
M  V30 4000 H 368.555 0.489464 -4.65534 0
M  V30 4001 H 368.728 0.425788 -6.466 0
M  V30 4002 N 362.134 1.5431 0.320358 0
M  V30 4003 C 363.362 1.76636 1.07738 0
M  V30 4004 C 363.777 0.51649 1.81598 0
M  V30 4005 O 363.134 -0.512942 1.75143 0
M  V30 4006 C 363.185 2.96158 2.07299 0
M  V30 4007 O 362.906 4.16313 1.36438 0
M  V30 4008 C 364.407 3.3072 2.95193 0
M  V30 4009 H 361.627 0.589597 0.320339 0
M  V30 4010 H 364.171 2.01207 0.36551 0
M  V30 4011 H 362.326 2.73851 2.74016 0
M  V30 4012 H 362.74 4.83565 2.03138 0
M  V30 4013 H 364.214 4.17643 3.60941 0
M  V30 4014 H 364.691 2.48026 3.62463 0
M  V30 4015 H 365.297 3.55117 2.34034 0
M  V30 4016 N 363.613 -0.582584 1.46437 0
M  V30 4017 C 365.029 -0.905962 1.31394 0
M  V30 4018 C 365.229 -1.99468 0.285476 0
M  V30 4019 O 364.285 -2.50566 -0.311914 0
M  V30 4020 C 365.598 -1.3232 2.70022 0
M  V30 4021 C 367.146 -1.43604 2.78113 0
M  V30 4022 C 367.621 -1.88694 4.17323 0
M  V30 4023 N 369.112 -1.95887 4.19741 0
M  V30 4024 C 369.847 -2.32051 5.24347 0
M  V30 4025 N 369.343 -2.67006 6.39281 0
M  V30 4026 N 371.136 -2.32606 5.11713 0
M  V30 4027 H 363.287 0.1366 2.1196 0
M  V30 4028 H 365.55 -0.00155736 0.947999 0
M  V30 4029 H 365.256 -0.597242 3.46592 0
M  V30 4030 H 365.13 -2.28469 3.00136 0
M  V30 4031 H 367.517 -2.15286 2.01832 0
M  V30 4032 H 367.598 -0.457059 2.51684 0
M  V30 4033 H 367.242 -1.1759 4.941 0
M  V30 4034 H 367.172 -2.8755 4.4116 0
M  V30 4035 H 369.663 -1.71362 3.36814 0
M  V30 4036 H 369.976 -2.93554 7.14875 0
M  V30 4037 H 368.321 -2.64644 6.42642 0
M  V30 4038 H 371.512 -2.04721 4.2096 0
M  V30 4039 H 371.685 -2.60462 5.93349 0
M  V30 4040 N 365.091 -1.34144 -0.827227 0
M  V30 4041 C 366.337 -1.27455 -1.58515 0
M  V30 4042 C 366.692 0.155271 -1.91772 0
M  V30 4043 O 365.985 1.10042 -1.56848 0
M  V30 4044 C 366.179 -2.09464 -2.89585 0
M  V30 4045 C 366.008 -3.60276 -2.69131 0
M  V30 4046 C 364.778 -4.29565 -2.66087 0
M  V30 4047 C 366.976 -4.54367 -2.40947 0
M  V30 4048 N 364.958 -5.66252 -2.37132 0
M  V30 4049 C 366.329 -5.79027 -2.21648 0
M  V30 4050 C 368.384 -4.43327 -2.26639 0
M  V30 4051 C 367.087 -6.93891 -1.89492 0
M  V30 4052 C 369.113 -5.58019 -1.95878 0
M  V30 4053 C 368.475 -6.81695 -1.774 0
M  V30 4054 H 364.574 -0.521614 -0.582617 0
M  V30 4055 H 367.158 -1.68811 -0.970105 0
M  V30 4056 H 365.329 -1.70411 -3.49019 0
M  V30 4057 H 367.061 -1.94453 -3.54923 0
M  V30 4058 H 363.816 -3.81959 -2.80008 0
M  V30 4059 H 364.24 -6.38338 -2.25507 0
M  V30 4060 H 368.882 -3.48333 -2.39633 0
M  V30 4061 H 366.6 -7.88871 -1.75236 0
M  V30 4062 H 370.186 -5.5142 -1.85546 0
M  V30 4063 H 369.066 -7.68942 -1.53941 0
M  V30 4064 N 366.569 1.04691 -1.17803 0
M  V30 4065 C 367.532 2.10724 -0.901545 0
M  V30 4066 C 368.532 1.6042 0.110437 0
M  V30 4067 O 369.722 1.7377 -0.122303 0
M  V30 4068 C 366.854 3.39084 -0.351409 0
M  V30 4069 H 368.047 2.36686 -1.84174 0
M  V30 4070 H 365.6 1.21015 -0.98919 0
M  V30 4071 H 366.335 3.18782 0.59569 0
M  V30 4072 H 366.12 3.76909 -1.08083 0
M  V30 4073 H 367.61 4.17227 -0.176451 0
M  V30 4074 N 368.047 0.979072 1.23499 0
M  V30 4075 C 368.994 0.517904 2.24914 0
M  V30 4076 C 369.964 -0.442525 1.60097 0
M  V30 4077 O 371.149 -0.350365 1.87556 0
M  V30 4078 C 368.289 -0.174813 3.44657 0
M  V30 4079 C 367.402 0.825721 4.24035 0
M  V30 4080 C 366.537 0.107946 5.3109 0
M  V30 4081 C 365.576 1.09778 6.02175 0
M  V30 4082 N 364.713 0.40925 7.00906 0
M  V30 4083 H 369.553 1.38751 2.63727 0
M  V30 4084 H 367.09 0.695303 1.2963 0
M  V30 4085 H 369.048 -0.593233 4.12961 0
M  V30 4086 H 367.678 -1.0083 3.06648 0
M  V30 4087 H 366.73 1.36253 3.55161 0
M  V30 4088 H 368.042 1.58005 4.73113 0
M  V30 4089 H 367.196 -0.367904 6.05583 0
M  V30 4090 H 365.935 -0.678994 4.8295 0
M  V30 4091 H 364.94 1.5844 5.26476 0
M  V30 4092 H 366.165 1.88536 6.52404 0
M  V30 4093 H 364.111 -0.358506 6.5502 0
M  V30 4094 H 364.028 1.10226 7.47921 0
M  V30 4095 H 365.296 -0.0442557 7.79487 0
M  V30 4096 N 369.525 -1.3858 0.750561 0
M  V30 4097 C 370.488 -2.28836 0.129152 0
M  V30 4098 C 371.488 -1.47045 -0.650714 0
M  V30 4099 O 372.678 -1.6753 -0.477428 0
M  V30 4100 C 369.81 -3.30751 -0.825622 0
M  V30 4101 H 371.003 -2.85294 0.924516 0
M  V30 4102 H 368.556 -1.47489 0.517376 0
M  V30 4103 H 369.291 -2.79378 -1.64677 0
M  V30 4104 H 369.076 -3.91177 -0.268852 0
M  V30 4105 H 370.566 -3.98249 -1.2565 0
M  V30 4106 N 371.003 -0.499398 -1.49478 0
M  V30 4107 C 372.419 -0.155261 -1.58843 0
M  V30 4108 C 372.619 1.34008 -1.50479 0
M  V30 4109 O 371.675 2.11589 -1.37791 0
M  V30 4110 C 372.988 -0.730636 -2.91689 0
M  V30 4111 C 374.536 -0.696599 -3.0515 0
M  V30 4112 C 375.011 -1.25001 -4.40612 0
M  V30 4113 N 376.502 -1.21064 -4.47099 0
M  V30 4114 C 377.237 -1.60905 -5.50361 0
M  V30 4115 N 376.733 -2.08331 -6.60735 0
M  V30 4116 N 378.526 -1.52331 -5.41065 0
M  V30 4117 H 370.677 -1.47162 -1.53158 0
M  V30 4118 H 372.94 -0.610309 -0.725415 0
M  V30 4119 H 372.646 -1.77928 -3.03372 0
M  V30 4120 H 372.52 -0.190161 -3.7672 0
M  V30 4121 H 374.907 0.343204 -2.93097 0
M  V30 4122 H 374.988 -1.2742 -2.21806 0
M  V30 4123 H 374.632 -2.28859 -4.53416 0
M  V30 4124 H 374.562 -0.64836 -5.22593 0
M  V30 4125 H 377.053 -0.863128 -3.67911 0
M  V30 4126 H 377.366 -2.36805 -7.35624 0
M  V30 4127 H 375.711 -2.12304 -6.6178 0
M  V30 4128 H 378.902 -1.151 -4.53729 0
M  V30 4129 H 379.075 -1.83704 -6.21415 0
M  V30 4130 N 372.481 1.55866 -0.233164 0
M  V30 4131 C 373.391 2.24431 0.683217 0
M  V30 4132 C 374.407 1.2558 1.2044 0
M  V30 4133 O 375.583 1.58422 1.24356 0
M  V30 4134 C 372.648 2.91979 1.86947 0
M  V30 4135 C 371.709 4.06204 1.38912 0
M  V30 4136 C 370.942 4.70522 2.51883 0
M  V30 4137 O 371.165 4.33865 3.70293 0
M  V30 4138 O 370.099 5.59296 2.22423 0
M  V30 4139 H 373.925 3.03426 0.129059 0
M  V30 4140 H 371.51 1.494 -0.0022283 0
M  V30 4141 H 373.392 3.34573 2.56201 0
M  V30 4142 H 372.067 2.15935 2.41151 0
M  V30 4143 H 370.974 3.68155 0.664259 0
M  V30 4144 H 372.307 4.84025 0.893328 0
M  V30 4145 N 373.959 -0.0401083 1.57549 0
M  V30 4146 C 375.189 -0.744115 1.92734 0
M  V30 4147 C 375.597 -1.70005 0.830348 0
M  V30 4148 O 374.94 -1.82576 -0.20286 0
M  V30 4149 C 375.002 -1.56516 3.2364 0
M  V30 4150 C 374.666 -0.7752 4.50377 0
M  V30 4151 C 375.663 -0.0803326 5.19838 0
M  V30 4152 C 373.348 -0.733002 4.96923 0
M  V30 4153 C 375.342 0.646154 6.34116 0
M  V30 4154 C 373.029 -0.00276321 6.111 0
M  V30 4155 C 374.027 0.685585 6.7955 0
M  V30 4156 O 373.715 1.40399 7.91545 0
M  V30 4157 H 373.447 -0.214861 0.640945 0
M  V30 4158 H 376.001 -0.00503675 2.05399 0
M  V30 4159 H 374.231 -2.3478 3.07271 0
M  V30 4160 H 375.92 -2.15076 3.44234 0
M  V30 4161 H 376.686 -0.104035 4.84888 0
M  V30 4162 H 372.565 -1.25827 4.43496 0
M  V30 4163 H 376.109 1.18398 6.87479 0
M  V30 4164 H 372.006 0.0229012 6.45496 0
M  V30 4165 H 372.774 1.31653 8.07843 0
M  V30 4166 N 375.437 -1.54477 -0.31217 0
M  V30 4167 C 376.367 -1.87652 -1.38957 0
M  V30 4168 C 377.348 -0.734358 -1.53431 0
M  V30 4169 O 378.533 -0.98911 -1.67123 0
M  V30 4170 C 375.663 -2.11396 -2.75552 0
M  V30 4171 C 374.617 -3.27243 -2.75855 0
M  V30 4172 C 373.943 -3.36382 -4.15633 0
M  V30 4173 C 375.243 -4.64622 -2.38587 0
M  V30 4174 H 376.937 -2.77887 -1.11442 0
M  V30 4175 H 374.483 -1.33707 -0.534655 0
M  V30 4176 H 376.436 -2.33189 -3.51 0
M  V30 4177 H 375.16 -1.17921 -3.04569 0
M  V30 4178 H 373.819 -3.05356 -2.02863 0
M  V30 4179 H 373.467 -2.40445 -4.41809 0
M  V30 4180 H 373.167 -4.14249 -4.1674 0
M  V30 4181 H 374.691 -3.60422 -4.92877 0
M  V30 4182 H 376.105 -4.86219 -3.03749 0
M  V30 4183 H 374.502 -5.45121 -2.50925 0
M  V30 4184 H 375.572 -4.66097 -1.33723 0
M  V30 4185 N 376.915 0.57481 -1.46744 0
M  V30 4186 C 378.164 1.32898 -1.51727 0
M  V30 4187 C 378.477 1.948 -0.176692 0
M  V30 4188 O 379.683 2.71299 -0.104385 0
M  V30 4189 C 378.139 2.40901 -2.67385 0
M  V30 4190 C 377.747 1.85266 -4.07898 0
M  V30 4191 C 379.491 3.17609 -2.81646 0
M  V30 4192 C 377.398 2.90945 -5.14883 0
M  V30 4193 H 376.328 0.499631 -0.564699 0
M  V30 4194 H 378.979 0.612536 -1.72975 0
M  V30 4195 H 377.361 3.15379 -2.39483 0
M  V30 4196 H 378.535 1.17278 -4.45626 0
M  V30 4197 H 376.85 1.21199 -3.98371 0
M  V30 4198 H 379.447 3.96493 -3.58744 0
M  V30 4199 H 379.79 3.70696 -1.89448 0
M  V30 4200 H 380.323 2.50239 -3.09233 0
M  V30 4201 H 377.062 2.42736 -6.089 0
M  V30 4202 H 376.582 3.57398 -4.81691 0
M  V30 4203 H 378.261 3.54755 -5.41071 0
M  V30 4204 N 378.394 1.34581 0.820102 0
M  V30 4205 C 379.642 1.26845 1.57336 0
M  V30 4206 C 379.963 -0.160667 1.94337 0
M  V30 4207 O 379.233 -1.09396 1.6251 0
M  V30 4208 H 377.813 0.466514 0.583415 0
M  V30 4209 H 380.475 1.68526 0.979027 0
M  V30 4210 H 379.571 1.87513 2.4949 0
M  V30 4211 N 379.872 -1.04064 1.18357 0
M  V30 4212 C 380.802 -2.14001 0.934113 0
M  V30 4213 C 381.783 -1.69616 -0.128186 0
M  V30 4214 O 382.968 -1.94185 0.0244093 0
M  V30 4215 C 380.098 -3.44253 0.459066 0
M  V30 4216 C 379.052 -4.02261 1.46185 0
M  V30 4217 C 378.378 -5.27992 0.844322 0
M  V30 4218 C 379.678 -4.38432 2.83856 0
M  V30 4219 H 381.372 -2.35127 1.85352 0
M  V30 4220 H 378.918 -1.12998 0.892604 0
M  V30 4221 H 380.871 -4.20522 0.271907 0
M  V30 4222 H 379.595 -3.22813 -0.495912 0
M  V30 4223 H 378.254 -3.28074 1.63595 0
M  V30 4224 H 377.902 -5.02862 -0.117845 0
M  V30 4225 H 377.602 -5.67765 1.51384 0
M  V30 4226 H 379.126 -6.06938 0.667693 0
M  V30 4227 H 380.54 -5.05688 2.70098 0
M  V30 4228 H 378.937 -4.89254 3.47491 0
M  V30 4229 H 380.007 -3.4826 3.37406 0
M  V30 4230 N 381.35 -0.985608 -1.22978 0
M  V30 4231 C 382.627 -0.573599 -1.87001 0
M  V30 4232 C 383.007 0.949213 -1.88555 0
M  V30 4233 O 382.355 1.82811 -1.37086 0
M  V30 4234 C 382.565 -1.18564 -3.28243 0
M  V30 4235 C 383.913 -1.28163 -4.04796 0
M  V30 4236 O 384.937 -1.13949 -3.37482 0
M  V30 4237 O 383.796 -1.50832 -5.25273 0
M  V30 4238 H 380.89 -0.193868 -0.803955 0
M  V30 4239 H 383.436 -1.08102 -1.30813 0
M  V30 4240 H 382.208 -2.22758 -3.21706 0
M  V30 4241 H 381.831 -0.663363 -3.92027 0
M  V30 4242 N 382.828 1.3818 -0.7579 0
M  V30 4243 C 384.239 1.82726 -0.383134 0
M  V30 4244 C 384.59 1.63214 1.08884 0
M  V30 4245 O 383.715 1.13566 1.84205 0
M  V30 4246 C 384.31 3.31728 -0.688631 0
M  V30 4247 C 382.869 3.74606 -0.367091 0
M  V30 4248 C 382.016 2.60896 -0.939599 0
M  V30 4249 H 384.967 1.26847 -0.953699 0
M  V30 4250 H 384.988 3.80487 0.0316492 0
M  V30 4251 H 384.5 3.45898 -1.76001 0
M  V30 4252 H 382.601 3.66013 0.697532 0
M  V30 4253 H 382.714 4.71215 -0.865658 0
M  V30 4254 H 381.078 2.52075 -0.3647 0
M  V30 4255 H 381.861 2.77864 -2.0161 0
M  V30 4256 N 384.306 0.507319 1.49211 0
M  V30 4257 C 385.216 -0.272136 2.33016 0
M  V30 4258 C 386.232 -0.961206 1.45041 0
M  V30 4259 O 387.408 -0.941191 1.78055 0
M  V30 4260 C 384.473 -1.31895 3.20631 0
M  V30 4261 C 383.534 -0.642648 4.24463 0
M  V30 4262 C 382.767 -1.63959 5.07891 0
M  V30 4263 O 382.99 -2.87007 4.92933 0
M  V30 4264 O 381.924 -1.19143 5.8999 0
M  V30 4265 H 385.75 0.413982 3.00865 0
M  V30 4266 H 383.335 0.268556 1.46966 0
M  V30 4267 H 385.217 -1.92446 3.7489 0
M  V30 4268 H 383.892 -1.98788 2.5547 0
M  V30 4269 H 382.799 0.00276252 3.741 0
M  V30 4270 H 384.132 -0.0160534 4.92197 0
M  V30 4271 N 385.784 -1.5574 0.241426 0
M  V30 4272 C 386.732 -2.22538 -0.676718 0
M  V30 4273 C 387.726 -1.21117 -1.18436 0
M  V30 4274 O 388.932 -1.39144 -1.14188 0
M  V30 4275 H 385.307 -0.713776 -0.236701 0
M  V30 4276 H 387.278 -2.98264 -0.0901187 0
M  V30 4277 C 386.027 -2.93439 -1.86518 0
M  V30 4278 H 385.35 -3.7125 -1.4837 0
M  V30 4279 H 386.79 -3.43549 -2.48495 0
M  V30 4280 C 385.249 -1.97008 -2.73294 0
M  V30 4281 O 385.779 -1.49965 -3.72657 0
M  V30 4282 N 383.985 -1.64227 -2.39745 0
M  V30 4283 H 383.532 -2.02677 -1.58996 0
M  V30 4284 H 383.49 -0.999708 -2.98083 0
M  V30 4285 N 387.262 0.0317525 -1.57568 0
M  V30 4286 C 388.192 1.03274 -2.0942 0
M  V30 4287 C 389.173 1.3788 -0.996143 0
M  V30 4288 O 390.358 1.46811 -1.27122 0
M  V30 4289 C 387.488 2.33448 -2.57137 0
M  V30 4290 C 386.442 2.13091 -3.71182 0
M  V30 4291 C 385.768 3.49001 -4.05095 0
M  V30 4292 C 387.068 1.51928 -4.99715 0
M  V30 4293 H 388.762 0.60112 -2.93303 0
M  V30 4294 H 386.308 0.287705 -1.41097 0
M  V30 4295 H 388.261 3.03802 -2.92032 0
M  V30 4296 H 386.985 2.78665 -1.70333 0
M  V30 4297 H 385.644 1.45171 -3.36632 0
M  V30 4298 H 385.292 3.91862 -3.15362 0
M  V30 4299 H 384.992 3.36207 -4.81911 0
M  V30 4300 H 386.516 4.20721 -4.42522 0
M  V30 4301 H 387.93 2.12196 -5.32584 0
M  V30 4302 H 386.327 1.49716 -5.81124 0
M  V30 4303 H 387.397 0.484811 -4.8247 0
M  V30 4304 N 388.74 1.54641 0.303973 0
M  V30 4305 C 389.703 1.84646 1.35789 0
M  V30 4306 C 390.703 0.7192 1.4382 0
M  V30 4307 O 391.893 0.987491 1.43507 0
M  V30 4308 C 389.025 2.02407 2.74307 0
M  V30 4309 H 390.218 2.78829 1.10429 0
M  V30 4310 H 387.771 1.46658 0.540487 0
M  V30 4311 H 388.506 1.10502 3.04893 0
M  V30 4312 H 388.291 2.84453 2.69868 0
M  V30 4313 H 389.781 2.27002 3.50514 0
M  V30 4314 N 390.218 -0.567019 1.47046 0
M  V30 4315 C 391.148 -1.68482 1.61667 0
M  V30 4316 C 392.129 -1.6358 0.466418 0
M  V30 4317 O 393.314 -1.81354 0.694574 0
M  V30 4318 C 390.444 -3.07124 1.62148 0
M  V30 4319 C 389.398 -3.26867 2.76301 0
M  V30 4320 C 388.724 -4.66196 2.61849 0
M  V30 4321 C 390.024 -3.13186 4.17986 0
M  V30 4322 H 391.718 -1.56502 2.5524 0
M  V30 4323 H 389.264 -0.751486 1.22836 0
M  V30 4324 H 391.217 -3.8516 1.70968 0
M  V30 4325 H 389.941 -3.2004 0.651287 0
M  V30 4326 H 388.6 -2.51237 2.66975 0
M  V30 4327 H 388.248 -4.75898 1.62879 0
M  V30 4328 H 387.948 -4.80356 3.38425 0
M  V30 4329 H 389.472 -5.46379 2.72584 0
M  V30 4330 H 390.886 -3.81049 4.2834 0
M  V30 4331 H 389.283 -3.3886 4.95272 0
M  V30 4332 H 390.353 -2.10057 4.3704 0
M  V30 4333 N 391.696 -1.35014 -0.812953 0
M  V30 4334 C 392.626 -1.30069 -1.93919 0
M  V30 4335 C 393.607 -0.176275 -1.69184 0
M  V30 4336 O 394.792 -0.370227 -1.90638 0
M  V30 4337 C 391.922 -1.06547 -3.30552 0
M  V30 4338 C 390.876 -2.15561 -3.69753 0
M  V30 4339 C 390.202 -1.77214 -5.04479 0
M  V30 4340 C 391.502 -3.57476 -3.808 0
M  V30 4341 H 393.196 -2.24303 -1.98314 0
M  V30 4342 H 390.742 -1.07977 -0.952736 0
M  V30 4343 H 392.695 -1.01729 -4.08937 0
M  V30 4344 H 391.419 -0.0875719 -3.26483 0
M  V30 4345 H 390.078 -2.19466 -2.9365 0
M  V30 4346 H 389.726 -0.780589 -4.96906 0
M  V30 4347 H 389.426 -2.50184 -5.31678 0
M  V30 4348 H 390.95 -1.7391 -5.8531 0
M  V30 4349 H 392.364 -3.55929 -4.4943 0
M  V30 4350 H 390.761 -4.29152 -4.19462 0
M  V30 4351 H 391.831 -3.94091 -2.82525 0
M  V30 4352 N 393.175 1.03435 -1.18907 0
M  V30 4353 C 394.085 2.15075 -0.937015 0
M  V30 4354 C 395.101 1.73706 0.101085 0
M  V30 4355 O 396.277 2.01232 -0.0822948 0
M  V30 4356 C 393.342 3.43458 -0.473057 0
M  V30 4357 C 392.403 3.99172 -1.57989 0
M  V30 4358 C 391.636 5.21427 -1.13797 0
M  V30 4359 O 391.859 5.704 0.000725941 0
M  V30 4360 O 390.793 5.69837 -1.9383 0
M  V30 4361 H 394.619 2.39198 -1.87131 0
M  V30 4362 H 392.204 1.13506 -0.971427 0
M  V30 4363 H 394.086 4.20811 -0.222702 0
M  V30 4364 H 392.761 3.20793 0.432869 0
M  V30 4365 H 391.668 3.23178 -1.88433 0
M  V30 4366 H 393.001 4.2619 -2.46217 0
M  V30 4367 N 394.653 0.992116 1.22453 0
M  V30 4368 C 395.6 0.541731 2.24352 0
M  V30 4369 C 396.57 -0.425519 1.60557 0
M  V30 4370 O 397.755 -0.330453 1.87917 0
M  V30 4371 C 394.895 -0.138248 3.44823 0
M  V30 4372 C 394.008 0.870649 4.23136 0
M  V30 4373 C 393.143 0.164269 5.30946 0
M  V30 4374 C 392.182 1.16159 6.00977 0
M  V30 4375 N 391.319 0.483568 7.00433 0
M  V30 4376 H 396.159 1.41541 2.62241 0
M  V30 4377 H 393.696 0.709013 1.28885 0
M  V30 4378 H 395.654 -0.5494 4.13567 0
M  V30 4379 H 394.284 -0.975721 3.077 0
M  V30 4380 H 393.336 1.40013 3.53696 0
M  V30 4381 H 394.648 1.63014 4.7141 0
M  V30 4382 H 393.802 -0.303653 6.0594 0
M  V30 4383 H 392.541 -0.627733 4.83643 0
M  V30 4384 H 391.546 1.64015 5.24766 0
M  V30 4385 H 392.771 1.95445 6.50368 0
M  V30 4386 H 390.717 -0.289012 6.55363 0
M  V30 4387 H 390.634 1.18152 7.4671 0
M  V30 4388 H 391.902 0.0384219 7.79491 0
M  V30 4389 N 396.131 -1.37776 0.765217 0
M  V30 4390 C 397.38 -1.99092 0.323307 0
M  V30 4391 C 397.693 -1.61434 -1.10446 0
M  V30 4392 O 398.899 -2.15805 -1.64743 0
M  V30 4393 C 397.355 -3.56019 0.527098 0
M  V30 4394 C 396.963 -4.0262 1.96471 0
M  V30 4395 C 398.707 -4.2424 0.148483 0
M  V30 4396 C 396.614 -5.52233 2.11644 0
M  V30 4397 H 395.544 -0.744846 0.117137 0
M  V30 4398 H 398.195 -1.57391 0.943417 0
M  V30 4399 H 396.577 -3.95667 -0.162372 0
M  V30 4400 H 397.751 -3.74234 2.68859 0
M  V30 4401 H 396.066 -3.47161 2.29931 0
M  V30 4402 H 398.663 -5.34159 0.240456 0
M  V30 4403 H 399.006 -4.06446 -0.900422 0
M  V30 4404 H 399.539 -3.89872 0.79025 0
M  V30 4405 H 396.278 -5.74945 3.1483 0
M  V30 4406 H 395.798 -5.82324 1.4373 0
M  V30 4407 H 397.477 -6.18106 1.91193 0
M  V30 4408 N 397.609 -0.515225 -1.4894 0
M  V30 4409 C 398.541 0.292481 -2.27326 0
M  V30 4410 C 399.554 0.917838 -1.3446 0
M  V30 4411 O 400.743 0.798772 -1.5963 0
M  V30 4412 C 397.843 1.42803 -3.07344 0
M  V30 4413 C 397.016 0.907347 -4.27885 0
M  V30 4414 C 396.075 1.92222 -4.89834 0
M  V30 4415 O 395.101 1.48506 -5.49486 0
M  V30 4416 N 396.303 3.25355 -4.80754 0
M  V30 4417 H 399.068 -0.379721 -2.97285 0
M  V30 4418 H 396.629 -0.348638 -1.58102 0
M  V30 4419 H 398.621 2.10481 -3.45658 0
M  V30 4420 H 397.191 2.00414 -2.39902 0
M  V30 4421 H 396.411 0.0550218 -3.94162 0
M  V30 4422 H 397.699 0.538108 -5.05946 0
M  V30 4423 H 397.097 3.6355 -4.33414 0
M  V30 4424 H 395.654 3.88707 -5.23211 0
M  V30 4425 N 399.087 1.5561 -0.249682 0
M  V30 4426 C 400.312 2.03865 0.381305 0
M  V30 4427 C 400.737 1.12769 1.50548 0
M  V30 4428 O 400.095 0.121189 1.80895 0
M  V30 4429 C 400.143 3.50101 0.863816 0
M  V30 4430 O 399.247 3.62132 1.97318 0
M  V30 4431 H 398.588 0.658827 0.0827194 0
M  V30 4432 H 401.118 2.01105 -0.376552 0
M  V30 4433 H 401.128 3.90975 1.1663 0
M  V30 4434 H 399.803 4.1588 0.0411816 0
M  V30 4435 H 398.38 3.33155 1.67517 0
M  V30 4436 N 400.565 -0.0233959 1.57583 0
M  V30 4437 C 401.79 -0.728376 1.94189 0
M  V30 4438 C 402.215 -1.67793 0.850119 0
M  V30 4439 O 401.573 -1.80262 -0.19371 0
M  V30 4440 C 401.621 -1.45669 3.29868 0
M  V30 4441 O 400.725 -2.57013 3.22518 0
M  V30 4442 H 400.066 -0.195493 0.63457 0
M  V30 4443 H 402.596 0.0228214 2.04587 0
M  V30 4444 H 402.606 -1.82535 3.6489 0
M  V30 4445 H 401.281 -0.760314 4.08891 0
M  V30 4446 H 399.858 -2.22648 2.99136 0
M  V30 4447 N 402.043 -1.548 -0.295768 0
M  V30 4448 C 402.973 -1.89115 -1.36959 0
M  V30 4449 C 403.954 -0.75059 -1.52644 0
M  V30 4450 O 405.139 -1.00678 -1.66065 0
M  V30 4451 C 402.269 -2.14307 -2.73295 0
M  V30 4452 C 401.223 -3.30151 -2.72368 0
M  V30 4453 C 400.549 -3.40772 -4.12042 0
M  V30 4454 C 401.849 -4.67126 -2.33646 0
M  V30 4455 H 403.543 -2.79053 -1.08488 0
M  V30 4456 H 401.089 -1.34266 -0.520443 0
M  V30 4457 H 403.042 -2.36898 -3.48507 0
M  V30 4458 H 401.766 -1.21145 -3.03301 0
M  V30 4459 H 400.425 -3.0749 -1.99613 0
M  V30 4460 H 400.073 -2.45117 -4.39234 0
M  V30 4461 H 399.773 -4.18645 -4.12322 0
M  V30 4462 H 401.297 -3.6563 -4.89027 0
M  V30 4463 H 402.711 -4.89414 -2.98575 0
M  V30 4464 H 401.108 -5.47751 -2.45129 0
M  V30 4465 H 402.178 -4.67489 -1.28772 0
M  V30 4466 N 403.521 0.559213 -1.47345 0
M  V30 4467 C 404.451 1.67622 -1.62558 0
M  V30 4468 C 405.432 1.63331 -0.475087 0
M  V30 4469 O 406.617 1.80983 -0.704182 0
M  V30 4470 C 403.747 3.0626 -1.63774 0
M  V30 4471 C 402.701 3.25397 -2.7803 0
M  V30 4472 C 402.027 4.64801 -2.64318 0
M  V30 4473 C 403.327 3.10965 -4.19641 0
M  V30 4474 H 405.021 1.55146 -2.56067 0
M  V30 4475 H 402.567 0.744961 -1.23233 0
M  V30 4476 H 404.52 3.84247 -1.73008 0
M  V30 4477 H 403.244 3.1969 -0.66825 0
M  V30 4478 H 401.903 2.49817 -2.68304 0
M  V30 4479 H 401.551 4.75028 -1.65401 0
M  V30 4480 H 401.251 4.78555 -3.40968 0
M  V30 4481 H 402.775 5.44926 -2.75478 0
M  V30 4482 H 404.189 3.78772 -4.30354 0
M  V30 4483 H 402.586 3.36229 -4.97062 0
M  V30 4484 H 403.656 2.07736 -4.38148 0
M  V30 4485 N 404.999 1.35443 0.805782 0
M  V30 4486 C 406.245 1.28952 1.56522 0
M  V30 4487 C 406.578 -0.135597 1.93726 0
M  V30 4488 O 405.853 -1.08516 1.61414 0
M  V30 4489 C 406.136 2.19678 2.85331 0
M  V30 4490 C 405.989 3.7081 2.54598 0
M  V30 4491 C 407.308 2.09495 3.8704 0
M  V30 4492 H 404.427 0.469764 0.567883 0
M  V30 4493 H 407.069 1.65851 0.927001 0
M  V30 4494 H 405.219 1.8834 3.39795 0
M  V30 4495 H 406.891 4.12593 2.06312 0
M  V30 4496 H 405.134 3.91051 1.8778 0
M  V30 4497 H 405.805 4.29679 3.46525 0
M  V30 4498 H 408.281 2.37045 3.41978 0
M  V30 4499 H 407.157 2.75173 4.74943 0
M  V30 4500 H 407.418 1.07714 4.28777 0
M  V30 4501 N 406.477 -1.02803 1.19454 0
M  V30 4502 C 407.707 -1.79581 1.02149 0
M  V30 4503 C 408.115 -1.84182 -0.432851 0
M  V30 4504 O 407.458 -1.28534 -1.31243 0
M  V30 4505 C 407.52 -3.25993 1.51554 0
M  V30 4506 C 407.184 -3.45025 2.99678 0
M  V30 4507 C 408.181 -3.35175 3.97434 0
M  V30 4508 C 405.866 -3.71212 3.38389 0
M  V30 4509 C 407.86 -3.51238 5.31893 0
M  V30 4510 C 405.547 -3.8692 4.73008 0
M  V30 4511 C 406.545 -3.76936 5.69569 0
M  V30 4512 O 406.233 -3.92179 7.01748 0
M  V30 4513 H 405.965 -0.571962 0.360327 0
M  V30 4514 H 408.519 -1.30367 1.58725 0
M  V30 4515 H 406.749 -3.76235 0.893543 0
M  V30 4516 H 408.438 -3.84368 1.30444 0
M  V30 4517 H 409.204 -3.14895 3.68872 0
M  V30 4518 H 405.083 -3.78075 2.6378 0
M  V30 4519 H 408.627 -3.43362 6.07247 0
M  V30 4520 H 404.524 -4.06699 5.01265 0
M  V30 4521 H 405.292 -4.09265 7.08833 0
M  V30 4522 N 407.956 -0.998596 -1.21925 0
M  V30 4523 C 409.181 -0.696015 -1.95372 0
M  V30 4524 C 409.606 0.733826 -1.73195 0
M  V30 4525 O 408.964 1.50242 -1.01474 0
M  V30 4526 C 409.012 -1.01466 -3.4603 0
M  V30 4527 O 408.116 -0.116415 -4.12236 0
M  V30 4528 H 407.457 -0.259938 -0.611006 0
M  V30 4529 H 409.987 -1.33711 -1.54863 0
M  V30 4530 H 409.997 -0.958855 -3.96573 0
M  V30 4531 H 408.672 -2.05653 -3.61497 0
M  V30 4532 H 407.249 -0.228193 -3.72201 0
M  V30 4533 N 409.434 1.37368 -0.772513 0
M  V30 4534 C 410.367 2.27956 -0.105593 0
M  V30 4535 C 411.345 1.46362 0.708295 0
M  V30 4536 O 412.529 1.75695 0.682895 0
M  V30 4537 C 409.656 3.27687 0.856686 0
M  V30 4538 C 408.702 4.26312 0.1267 0
M  V30 4539 S 409.535 5.22206 -1.1858 0
M  V30 4540 C 410.691 6.25488 -0.227081 0
M  V30 4541 H 410.924 2.84171 -0.87372 0
M  V30 4542 H 408.457 1.43654 -0.565939 0
M  V30 4543 H 410.415 3.85653 1.40648 0
M  V30 4544 H 409.076 2.70417 1.59793 0
M  V30 4545 H 408.269 4.96674 0.856212 0
M  V30 4546 H 407.871 3.72339 -0.352117 0
M  V30 4547 H 410.163 6.74836 0.600231 0
M  V30 4548 H 411.106 7.02371 -0.898899 0
M  V30 4549 H 411.514 5.64267 0.162053 0
M  V30 4550 N 410.912 0.523116 1.48665 0
M  V30 4551 C 411.822 -0.247406 2.33292 0
M  V30 4552 C 412.838 -0.945769 1.46052 0
M  V30 4553 O 414.014 -0.922253 1.79043 0
M  V30 4554 C 411.079 -1.28487 3.22012 0
M  V30 4555 C 410.14 -0.597592 4.2512 0
M  V30 4556 C 409.373 -1.58563 5.09601 0
M  V30 4557 O 409.596 -2.81763 4.95949 0
M  V30 4558 O 408.53 -1.12879 5.91221 0
M  V30 4559 H 412.356 0.445869 3.00409 0
M  V30 4560 H 409.941 0.284128 1.46673 0
M  V30 4561 H 411.823 -1.88459 3.7691 0
M  V30 4562 H 410.498 -1.96068 2.57564 0
M  V30 4563 H 409.405 0.0424407 3.74076 0
M  V30 4564 H 410.738 0.0361517 4.92187 0
M  V30 4565 N 412.39 -1.55475 0.257931 0
M  V30 4566 C 413.667 -1.91155 -0.414629 0
M  V30 4567 C 414.047 -1.18008 -1.75035 0
M  V30 4568 O 413.395 -0.301193 -2.26506 0
M  V30 4569 C 413.605 -3.44283 -0.571859 0
M  V30 4570 C 414.953 -4.15744 -0.862678 0
M  V30 4571 O 415.977 -3.50083 -0.657314 0
M  V30 4572 O 414.836 -5.31909 -1.2544 0
M  V30 4573 H 411.93 -0.796016 -0.22425 0
M  V30 4574 H 414.476 -1.66976 0.302814 0
M  V30 4575 H 413.248 -3.89558 0.368844 0
M  V30 4576 H 412.871 -3.7436 -1.33943 0
M  V30 4577 N 413.868 0.0150385 -1.57593 0
M  V30 4578 C 415.093 0.718067 -1.94573 0
M  V30 4579 C 415.518 1.6734 -0.859005 0
M  V30 4580 O 414.876 1.80362 0.184147 0
M  V30 4581 C 414.924 1.43918 -3.30636 0
M  V30 4582 O 414.028 2.55299 -3.23876 0
M  V30 4583 H 413.369 0.192125 -0.635597 0
M  V30 4584 H 415.899 -0.0336708 -2.04572 0
M  V30 4585 H 415.909 1.80598 -3.65853 0
M  V30 4586 H 414.584 0.738619 -4.09289 0
M  V30 4587 H 413.161 2.21058 -3.00312 0
M  V30 4588 N 415.346 1.54954 0.287554 0
M  V30 4589 C 416.571 1.79209 1.04397 0
M  V30 4590 C 416.996 0.556431 1.79682 0
M  V30 4591 O 416.354 -0.493518 1.74454 0
M  V30 4592 C 416.402 3.00739 1.98969 0
M  V30 4593 O 415.506 2.74805 3.075 0
M  V30 4594 H 414.847 0.592755 0.299227 0
M  V30 4595 H 417.377 2.02068 0.320886 0
M  V30 4596 H 417.387 3.29077 2.4119 0
M  V30 4597 H 416.062 3.90329 1.43582 0
M  V30 4598 H 414.639 2.57523 2.69697 0
M  V30 4599 N 416.824 -0.551391 1.4764 0
M  V30 4600 C 418.235 -1.13349 1.48354 0
M  V30 4601 C 418.586 -1.94709 0.241432 0
M  V30 4602 O 417.711 -2.06306 -0.653205 0
M  V30 4603 C 418.306 -2.0623 2.68802 0
M  V30 4604 C 416.865 -2.597 2.72457 0
M  V30 4605 C 416.012 -1.36201 2.41546 0
M  V30 4606 H 418.963 -0.337698 1.55065 0
M  V30 4607 H 418.984 -2.90196 2.46103 0
M  V30 4608 H 418.496 -1.46987 3.59188 0
M  V30 4609 H 416.597 -3.22724 1.86225 0
M  V30 4610 H 416.71 -3.00296 3.73308 0
M  V30 4611 H 415.074 -1.67068 1.9225 0
M  V30 4612 H 415.857 -0.787425 3.34147 0
M  V30 4613 N 418.302 -1.35869 -0.798587 0
M  V30 4614 C 419.252 -1.25982 -1.90033 0
M  V30 4615 C 420.236 -0.153303 -1.60168 0
M  V30 4616 O 421.428 -0.38527 -1.72756 0
M  V30 4617 C 418.557 -1.04211 -3.27101 0
M  V30 4618 C 417.643 -2.19289 -3.63006 0
M  V30 4619 N 418.034 -3.44559 -3.70287 0
M  V30 4620 C 416.332 -2.10852 -3.93011 0
M  V30 4621 C 417.033 -4.20283 -4.02166 0
M  V30 4622 N 416.009 -3.49124 -4.16669 0
M  V30 4623 H 419.811 -2.20883 -1.93876 0
M  V30 4624 H 417.325 -1.28457 -0.993614 0
M  V30 4625 H 419.322 -0.952155 -4.05881 0
M  V30 4626 H 417.982 -0.102013 -3.2454 0
M  V30 4627 H 418.993 -3.7881 -3.53162 0
M  V30 4628 H 415.67 -1.24744 -3.98428 0
M  V30 4629 H 417.06 -5.28575 -4.14799 0
M  V30 4630 N 419.78 1.02168 -1.19998 0
M  V30 4631 C 421.026 1.75945 -1.00852 0
M  V30 4632 C 421.359 1.88702 0.458828 0
M  V30 4633 O 420.634 1.40911 1.34069 0
M  V30 4634 C 420.917 3.18154 -1.68671 0
M  V30 4635 C 420.77 3.13224 -3.22817 0
M  V30 4636 C 422.089 4.16711 -1.41561 0
M  V30 4637 H 419.208 0.638673 -0.367785 0
M  V30 4638 H 421.85 1.19222 -1.4794 0
M  V30 4639 H 420 3.66586 -1.28636 0
M  V30 4640 H 421.672 2.72635 -3.72112 0
M  V30 4641 H 419.915 2.50751 -3.53986 0
M  V30 4642 H 420.586 4.13728 -3.65422 0
M  V30 4643 H 423.062 3.76913 -1.76284 0
M  V30 4644 H 421.938 5.14391 -1.91553 0
M  V30 4645 H 422.199 4.40774 -0.342193 0
M  V30 4646 N 421.258 1.00505 1.21394 0
M  V30 4647 C 422.486 0.706609 1.9446 0
M  V30 4648 C 422.901 -0.73081 1.74082 0
M  V30 4649 O 422.258 -1.49446 1.04747 0
M  V30 4650 C 422.309 1.01824 3.46863 0
M  V30 4651 O 422.03 2.39919 3.66566 0
M  V30 4652 C 423.531 0.739216 4.37093 0
M  V30 4653 H 420.751 0.260394 0.618414 0
M  V30 4654 H 423.295 1.34311 1.54211 0
M  V30 4655 H 421.45 0.427343 3.85036 0
M  V30 4656 H 421.864 2.50784 4.6066 0
M  V30 4657 H 423.338 1.00744 5.42729 0
M  V30 4658 H 423.815 -0.326746 4.37983 0
M  V30 4659 H 424.421 1.31173 4.04566 0
M  V30 4660 N 422.737 -1.36956 0.779787 0
M  V30 4661 C 424.148 -1.82094 0.412156 0
M  V30 4662 C 424.499 -1.64926 -1.06273 0
M  V30 4663 O 423.624 -1.16483 -1.82375 0
M  V30 4664 C 424.219 -3.3059 0.741319 0
M  V30 4665 C 422.778 -3.73974 0.426641 0
M  V30 4666 C 421.925 -2.59368 0.980987 0
M  V30 4667 H 424.876 -1.25314 0.973758 0
M  V30 4668 H 424.897 -3.80489 0.028887 0
M  V30 4669 H 424.409 -3.43054 1.81482 0
M  V30 4670 H 422.51 -3.67076 -0.639215 0
M  V30 4671 H 422.623 -4.69778 0.940515 0
M  V30 4672 H 420.987 -2.51463 0.404757 0
M  V30 4673 H 421.77 -2.74621 2.06005 0
M  V30 4674 N 424.215 -0.530993 -1.48385 0
M  V30 4675 C 425.125 0.23503 -2.3342 0
M  V30 4676 C 426.141 0.93801 -1.46552 0
M  V30 4677 O 427.317 0.912745 -1.7953 0
M  V30 4678 C 424.382 1.26778 -3.22689 0
M  V30 4679 C 423.443 0.575038 -4.25431 0
M  V30 4680 C 422.676 1.55858 -5.10435 0
M  V30 4681 O 422.899 2.79129 -4.97437 0
M  V30 4682 O 421.833 1.09742 -5.91811 0
M  V30 4683 H 425.659 -0.461794 -3.00169 0
M  V30 4684 H 423.244 -0.291903 -1.46521 0
M  V30 4685 H 425.126 1.86457 -3.77904 0
M  V30 4686 H 423.801 1.94699 -2.586 0
M  V30 4687 H 422.708 -0.0622782 -3.74048 0
M  V30 4688 H 424.041 -0.062253 -4.92161 0
M  V30 4689 N 425.693 1.55336 -0.266172 0
M  V30 4690 C 426.97 1.91372 0.404486 0
M  V30 4691 C 427.35 1.18935 1.74407 0
M  V30 4692 O 426.698 0.3132 2.26343 0
M  V30 4693 C 426.908 3.44581 0.553593 0
M  V30 4694 C 428.256 4.16196 0.840618 0
M  V30 4695 O 429.28 3.50426 0.638739 0
M  V30 4696 O 428.139 5.32567 1.22618 0
M  V30 4697 H 425.233 0.797194 0.220025 0
M  V30 4698 H 427.779 1.66813 -0.311664 0
M  V30 4699 H 426.551 3.89357 -0.389498 0
M  V30 4700 H 426.174 3.75065 1.31955 0
M  V30 4701 N 427.171 -0.0066808 1.57599 0
M  V30 4702 C 428.401 -0.703066 1.94269 0
M  V30 4703 C 428.809 -1.68206 0.866222 0
M  V30 4704 O 428.152 -1.82966 -0.164087 0
M  V30 4705 C 428.214 -1.49616 3.26887 0
M  V30 4706 C 427.878 -0.679494 4.5192 0
M  V30 4707 C 428.875 0.0299508 5.19891 0
M  V30 4708 C 426.56 -0.627433 4.98366 0
M  V30 4709 C 428.554 0.780514 6.32603 0
M  V30 4710 C 426.241 0.126861 6.10968 0
M  V30 4711 C 427.239 0.829574 6.77943 0
M  V30 4712 O 426.927 1.57157 7.88389 0
M  V30 4713 H 426.659 -0.201217 0.645359 0
M  V30 4714 H 429.213 0.0385326 2.05364 0
M  V30 4715 H 427.443 -2.28209 3.12182 0
M  V30 4716 H 429.132 -2.07726 3.48719 0
M  V30 4717 H 429.898 -0.00115963 4.85 0
M  V30 4718 H 425.777 -1.16392 4.46065 0
M  V30 4719 H 429.321 1.32954 6.84813 0
M  V30 4720 H 425.218 0.159815 6.45302 0
M  V30 4721 H 425.986 1.48758 8.04868 0
M  V30 4722 N 428.649 -1.55105 -0.279332 0
M  V30 4723 C 429.874 -1.7976 -1.03446 0
M  V30 4724 C 430.299 -0.565952 -1.79384 0
M  V30 4725 O 429.657 0.484259 -1.74713 0
M  V30 4726 C 429.705 -3.0179 -1.97371 0
M  V30 4727 O 428.809 -2.76432 -3.06038 0
M  V30 4728 H 428.15 -0.594334 -0.29608 0
M  V30 4729 H 430.68 -2.02235 -0.310165 0
M  V30 4730 H 430.69 -3.30351 -2.39441 0
M  V30 4731 H 429.365 -3.91085 -1.4151 0
M  V30 4732 H 427.942 -2.58949 -2.68328 0
M  V30 4733 N 430.127 0.543554 -1.4793 0
M  V30 4734 C 431.037 1.67657 -1.64098 0
M  V30 4735 C 432.053 1.65934 -0.523622 0
M  V30 4736 O 433.229 1.85133 -0.792943 0
M  V30 4737 C 430.294 3.04146 -1.66421 0
M  V30 4738 C 429.355 3.16831 -2.89684 0
M  V30 4739 C 428.588 4.46809 -2.91886 0
M  V30 4740 O 428.811 5.33095 -2.02895 0
M  V30 4741 O 427.745 4.63573 -3.83906 0
M  V30 4742 H 431.571 1.56957 -2.59997 0
M  V30 4743 H 429.156 0.715116 -1.31173 0
M  V30 4744 H 431.038 3.85346 -1.70548 0
M  V30 4745 H 429.713 3.152 -0.736923 0
M  V30 4746 H 428.62 2.34977 -2.91095 0
M  V30 4747 H 429.953 3.10687 -3.81752 0
M  V30 4748 N 431.605 1.3629 0.791371 0
M  V30 4749 C 432.854 1.29742 1.54434 0
M  V30 4750 C 433.167 -0.121729 1.95221 0
M  V30 4751 O 434.373 -0.309579 2.69729 0
M  V30 4752 C 432.829 2.27623 2.78776 0
M  V30 4753 C 432.437 3.74963 2.45166 0
M  V30 4754 C 434.181 2.30047 3.56761 0
M  V30 4755 C 432.088 4.64626 3.65891 0
M  V30 4756 H 431.018 0.482113 0.579727 0
M  V30 4757 H 433.669 1.61642 0.868565 0
M  V30 4758 H 432.051 1.88714 3.48142 0
M  V30 4759 H 433.225 4.22596 1.83709 0
M  V30 4760 H 431.54 3.75295 1.80396 0
M  V30 4761 H 434.137 2.94247 4.46456 0
M  V30 4762 H 434.48 1.30846 3.95203 0
M  V30 4763 H 435.013 2.67563 2.94372 0
M  V30 4764 H 431.752 5.64883 3.32547 0
M  V30 4765 H 431.272 4.2171 4.26521 0
M  V30 4766 H 432.951 4.80801 4.32943 0
M  V30 4767 N 433.083 -1.0153 1.20538 0
M  V30 4768 C 434.332 -1.74558 1.01057 0
M  V30 4769 C 434.645 -1.90168 -0.457756 0
M  V30 4770 O 435.851 -2.60301 -0.771722 0
M  V30 4771 C 434.307 -3.13963 1.75941 0
M  V30 4772 C 433.915 -3.06361 3.26875 0
M  V30 4773 C 435.659 -3.91191 1.64832 0
M  V30 4774 C 433.566 -4.40782 3.94291 0
M  V30 4775 H 432.496 -0.654417 0.374505 0
M  V30 4776 H 435.147 -1.13521 1.44171 0
M  V30 4777 H 433.529 -3.75549 1.25614 0
M  V30 4778 H 434.703 -2.54074 3.84425 0
M  V30 4779 H 433.018 -2.42625 3.38411 0
M  V30 4780 H 435.615 -4.90644 2.12539 0
M  V30 4781 H 435.958 -4.11884 0.604745 0
M  V30 4782 H 436.491 -3.36236 2.12579 0
M  V30 4783 H 433.23 -4.25292 4.98805 0
M  V30 4784 H 432.75 -4.9307 3.41529 0
M  V30 4785 H 434.429 -5.09621 3.98617 0
M  V30 4786 N 434.561 -1.01147 -1.20859 0
M  V30 4787 C 435.524 -0.582224 -2.21682 0
M  V30 4788 C 436.524 0.344887 -1.57058 0
M  V30 4789 O 437.714 0.134281 -1.73682 0
M  V30 4790 C 434.846 0.150496 -3.40568 0
M  V30 4791 H 436.039 -1.47408 -2.61172 0
M  V30 4792 H 433.592 -0.800695 -1.34233 0
M  V30 4793 H 434.327 1.0575 -3.06574 0
M  V30 4794 H 434.112 -0.515444 -3.88697 0
M  V30 4795 H 435.602 0.438344 -4.15293 0
M  V30 4796 N 436.039 1.36541 -0.78704 0
M  V30 4797 C 437.002 2.28413 -0.189778 0
M  V30 4798 C 438.002 1.48719 0.611499 0
M  V30 4799 O 439.192 1.68737 0.432842 0
M  V30 4800 C 436.324 3.32824 0.737638 0
M  V30 4801 H 437.517 2.82743 -0.999831 0
M  V30 4802 H 435.07 1.46065 -0.556298 0
M  V30 4803 H 435.805 2.83646 1.57212 0
M  V30 4804 H 435.59 3.91752 0.165044 0
M  V30 4805 H 437.08 4.0144 1.15047 0
M  V30 4806 N 437.518 0.538854 1.48102 0
M  V30 4807 C 438.767 0.0059532 2.01699 0
M  V30 4808 C 439.08 -1.34476 1.42041 0
M  V30 4809 O 440.286 -1.96653 1.87189 0
M  V30 4810 C 438.742 -0.0397627 3.59878 0
M  V30 4811 C 438.35 1.30659 4.28523 0
M  V30 4812 C 440.094 -0.521024 4.2129 0
M  V30 4813 C 438.001 1.22098 5.78659 0
M  V30 4814 H 436.931 -0.00154456 0.753998 0
M  V30 4815 H 439.582 0.683963 1.70277 0
M  V30 4816 H 437.964 -0.783037 3.88181 0
M  V30 4817 H 439.138 2.06613 4.11883 0
M  V30 4818 H 437.453 1.7243 3.79021 0
M  V30 4819 H 440.05 -0.603184 5.31287 0
M  V30 4820 H 440.393 -1.52885 3.8721 0
M  V30 4821 H 440.926 0.166834 3.9745 0
M  V30 4822 H 437.665 2.20424 6.17328 0
M  V30 4823 H 437.185 0.50295 5.97688 0
M  V30 4824 H 438.864 0.915345 6.40492 0
M  V30 4825 N 438.996 -1.55193 0.274407 0
M  V30 4826 C 439.926 -2.25471 -0.607032 0
M  V30 4827 C 440.907 -1.24461 -1.15946 0
M  V30 4828 O 442.092 -1.53179 -1.19373 0
M  V30 4829 C 439.222 -2.97526 -1.79153 0
M  V30 4830 C 438.176 -4.05459 -1.37067 0
M  V30 4831 C 437.502 -4.65084 -2.6382 0
M  V30 4832 C 438.802 -5.19691 -0.521389 0
M  V30 4833 H 440.496 -2.99393 -0.0209343 0
M  V30 4834 H 438.042 -1.43997 -0.00862866 0
M  V30 4835 H 439.995 -3.45402 -2.41404 0
M  V30 4836 H 438.719 -2.21138 -2.40344 0
M  V30 4837 H 437.378 -3.58393 -0.771355 0
M  V30 4838 H 437.026 -3.85365 -3.23268 0
M  V30 4839 H 436.726 -5.37961 -2.36372 0
M  V30 4840 H 438.25 -5.15708 -3.26921 0
M  V30 4841 H 439.664 -5.63623 -1.04889 0
M  V30 4842 H 438.061 -5.99126 -0.341825 0
M  V30 4843 H 439.131 -4.82713 0.46 0
M  V30 4844 N 440.474 -0.00167713 -1.576 0
M  V30 4845 C 441.723 0.682021 -1.89819 0
M  V30 4846 C 442.036 1.74844 -0.876871 0
M  V30 4847 O 443.242 2.48688 -1.08934 0
M  V30 4848 C 441.698 1.26425 -3.36964 0
M  V30 4849 C 441.306 0.232568 -4.47396 0
M  V30 4850 C 443.05 1.92604 -3.78291 0
M  V30 4851 C 440.957 0.824882 -5.85619 0
M  V30 4852 H 439.887 0.258499 -0.708304 0
M  V30 4853 H 442.538 -0.0624957 -1.83394 0
M  V30 4854 H 440.92 2.05949 -3.38232 0
M  V30 4855 H 442.094 -0.5382 -4.57646 0
M  V30 4856 H 440.409 -0.32888 -4.15099 0
M  V30 4857 H 443.006 2.37827 -4.78897 0
M  V30 4858 H 443.349 2.75732 -3.11894 0
M  V30 4859 H 443.882 1.19812 -3.79328 0
M  V30 4860 H 440.621 0.0323542 -6.55492 0
M  V30 4861 H 440.141 1.56477 -5.79029 0
M  V30 4862 H 441.82 1.32301 -6.33329 0
M  V30 4863 N 441.952 1.55251 0.271103 0
M  V30 4864 C 443.2 1.75599 1.00047 0
M  V30 4865 C 443.521 0.561188 1.8675 0
M  V30 4866 O 442.791 -0.423846 1.9126 0
M  V30 4867 H 441.371 0.647562 0.372387 0
M  V30 4868 H 444.033 1.92656 0.294876 0
M  V30 4869 H 443.129 2.65766 1.6363 0
M  V30 4870 N 443.43 -0.535701 1.48216 0
M  V30 4871 C 444.707 -1.29683 1.46429 0
M  V30 4872 C 445.087 -2.10391 0.172852 0
M  V30 4873 O 444.435 -2.12282 -0.845488 0
M  V30 4874 C 444.645 -2.18313 2.72287 0
M  V30 4875 C 445.993 -2.78639 3.20383 0
M  V30 4876 O 447.017 -2.28604 2.73164 0
M  V30 4877 O 445.876 -3.69636 4.02531 0
M  V30 4878 H 442.97 -0.585026 0.584529 0
M  V30 4879 H 445.516 -0.552827 1.60443 0
M  V30 4880 H 444.288 -1.58421 3.57797 0
M  V30 4881 H 443.911 -2.99971 2.60966 0
M  V30 4882 N 444.908 -1.36708 -0.784132 0
M  V30 4883 C 446.319 -1.27947 -1.35965 0
M  V30 4884 C 446.67 0.0784013 -1.96043 0
M  V30 4885 O 445.795 0.979989 -1.92938 0
M  V30 4886 C 446.39 -2.31689 -2.47195 0
M  V30 4887 C 444.949 -2.26601 -3.00548 0
M  V30 4888 C 444.096 -2.16184 -1.73666 0
M  V30 4889 H 447.047 -1.4751 -0.585358 0
M  V30 4890 H 447.068 -1.95638 -3.26352 0
M  V30 4891 H 446.58 -3.30506 -2.03439 0
M  V30 4892 H 444.681 -1.31268 -3.48711 0
M  V30 4893 H 444.794 -3.19508 -3.57004 0
M  V30 4894 H 443.158 -1.62524 -1.96107 0
M  V30 4895 H 443.941 -3.16896 -1.32031 0
M  V30 4896 N 446.386 1.0089 -1.21074 0
M  V30 4897 C 447.614 1.78191 -1.05145 0
M  V30 4898 C 448.029 1.84537 0.398952 0
M  V30 4899 O 447.386 1.30393 1.27687 0
M  V30 4900 C 447.437 3.22288 -1.63746 0
M  V30 4901 O 447.158 3.16315 -3.03111 0
M  V30 4902 C 448.659 4.16106 -1.52875 0
M  V30 4903 H 445.879 0.560129 -0.369454 0
M  V30 4904 H 448.423 1.26945 -1.60328 0
M  V30 4905 H 446.578 3.70655 -1.12664 0
M  V30 4906 H 446.992 4.06817 -3.31059 0
M  V30 4907 H 448.466 5.15026 -1.98626 0
M  V30 4908 H 448.943 4.36541 -0.482521 0
M  V30 4909 H 449.549 3.73625 -2.03185 0
M  V30 4910 N 447.864 1.01787 1.20321 0
M  V30 4911 C 449.11 0.708985 1.90003 0
M  V30 4912 C 449.443 -0.759572 1.78729 0
M  V30 4913 O 448.718 -1.55198 1.17234 0
M  V30 4914 C 449.001 1.1469 3.41348 0
M  V30 4915 C 448.854 2.67586 3.61549 0
M  V30 4916 C 450.173 0.71915 4.34185 0
M  V30 4917 H 447.292 0.259034 0.689978 0
M  V30 4918 H 449.934 1.26584 1.41692 0
M  V30 4919 H 448.084 0.673128 3.82624 0
M  V30 4920 H 449.756 3.22826 3.29517 0
M  V30 4921 H 447.999 3.085 3.04976 0
M  V30 4922 H 448.67 2.93281 4.67643 0
M  V30 4923 H 451.146 1.12647 4.00562 0
M  V30 4924 H 450.022 1.05358 5.38694 0
M  V30 4925 H 450.283 -0.379111 4.40472 0
M  V30 4926 N 449.342 -1.36122 0.79427 0
M  V30 4927 C 450.758 -1.5232 0.476525 0
M  V30 4928 C 450.958 -1.74685 -1.00436 0
M  V30 4929 O 450.014 -1.78115 -1.78973 0
M  V30 4930 C 451.327 -2.70607 1.31119 0
M  V30 4931 C 452.875 -2.8448 1.30537 0
M  V30 4932 C 453.35 -4.05778 2.12387 0
M  V30 4933 N 454.841 -4.12933 2.09859 0
M  V30 4934 C 455.576 -5.05876 2.69957 0
M  V30 4935 N 455.072 -6.04232 3.38934 0
M  V30 4936 N 456.865 -4.98528 2.59665 0
M  V30 4937 H 449.016 -1.1986 1.75349 0
M  V30 4938 H 451.279 -0.585418 0.745647 0
M  V30 4939 H 450.985 -2.60619 2.36158 0
M  V30 4940 H 450.859 -3.64888 0.955843 0
M  V30 4941 H 453.246 -2.93927 0.262876 0
M  V30 4942 H 453.327 -1.91093 1.70051 0
M  V30 4943 H 452.971 -3.97092 3.1667 0
M  V30 4944 H 452.901 -4.98323 1.70242 0
M  V30 4945 H 455.392 -3.42515 1.59662 0
M  V30 4946 H 455.705 -6.71724 3.82109 0
M  V30 4947 H 454.05 -6.04443 3.43036 0
M  V30 4948 H 457.241 -4.20641 2.05375 0
M  V30 4949 H 457.414 -5.70773 3.06793 0
M  V30 4950 N 450.82 -0.546701 -1.47814 0
M  V30 4951 C 452.066 -0.0269594 -2.03382 0
M  V30 4952 C 452.421 1.30406 -1.41464 0
M  V30 4953 O 451.714 1.8332 -0.557151 0
M  V30 4954 C 451.908 0.134869 -3.57145 0
M  V30 4955 C 451.737 -1.17891 -4.33972 0
M  V30 4956 C 450.507 -1.74336 -4.74273 0
M  V30 4957 C 452.705 -2.09361 -4.69758 0
M  V30 4958 N 450.687 -2.99829 -5.35701 0
M  V30 4959 C 452.058 -3.19431 -5.31379 0
M  V30 4960 C 454.113 -2.09484 -4.51687 0
M  V30 4961 C 452.816 -4.2971 -5.76838 0
M  V30 4962 C 454.842 -3.18767 -4.98138 0
M  V30 4963 C 454.204 -4.27557 -5.59799 0
M  V30 4964 H 450.303 -0.0517733 -0.780284 0
M  V30 4965 H 452.887 -0.731673 -1.80429 0
M  V30 4966 H 451.058 0.80869 -3.79888 0
M  V30 4967 H 452.79 0.655726 -3.99352 0
M  V30 4968 H 449.545 -1.28265 -4.559 0
M  V30 4969 H 449.969 -3.63765 -5.70968 0
M  V30 4970 H 454.611 -1.26663 -4.03381 0
M  V30 4971 H 452.329 -5.13297 -6.24141 0
M  V30 4972 H 455.915 -3.19937 -4.85934 0
M  V30 4973 H 454.795 -5.10725 -5.95088 0
M  V30 4974 N 452.299 1.55045 -0.282633 0
M  V30 4975 C 453.547 1.99365 0.331334 0
M  V30 4976 C 453.868 1.1725 1.55812 0
M  V30 4977 O 453.138 0.263871 1.94115 0
M  V30 4978 H 451.718 0.736397 0.125414 0
M  V30 4979 H 454.38 1.90964 -0.389711 0
M  V30 4980 H 453.476 3.0596 0.616036 0
M  V30 4981 N 453.777 0.010035 1.57597 0
M  V30 4982 C 455.054 -0.710296 1.82248 0
M  V30 4983 C 455.434 -1.91426 0.889911 0
M  V30 4984 O 454.782 -2.28424 -0.0590292 0
M  V30 4985 C 454.992 -1.10655 3.30993 0
M  V30 4986 C 456.34 -1.50621 3.96987 0
M  V30 4987 O 457.364 -1.20007 3.35375 0
M  V30 4988 O 456.223 -2.07587 5.05539 0
M  V30 4989 H 453.317 -0.34673 0.750804 0
M  V30 4990 H 455.863 0.0362578 1.69661 0
M  V30 4991 H 454.635 -0.248826 3.90508 0
M  V30 4992 H 454.258 -1.91189 3.48615 0
M  V30 4993 N 455.255 -1.55392 -0.262866 0
M  V30 4994 C 456.202 -1.88966 -1.32516 0
M  V30 4995 C 457.172 -0.742187 -1.48596 0
M  V30 4996 O 458.357 -0.99439 -1.62839 0
M  V30 4997 C 455.497 -2.17592 -2.67858 0
M  V30 4998 C 454.61 -3.45061 -2.59917 0
M  V30 4999 C 453.745 -3.63336 -3.87505 0
M  V30 5000 C 452.784 -4.84462 -3.74116 0
M  V30 5001 N 451.921 -4.99342 -4.93561 0
M  V30 5002 H 456.761 -2.79566 -1.03184 0
M  V30 5003 H 454.298 -1.38404 -0.498285 0
M  V30 5004 H 456.256 -2.3219 -3.46617 0
M  V30 5005 H 454.886 -1.30215 -2.95371 0
M  V30 5006 H 453.938 -3.38881 -1.72812 0
M  V30 5007 H 455.25 -4.3396 -2.45926 0
M  V30 5008 H 454.404 -3.77807 -4.74707 0
M  V30 5009 H 453.143 -2.72641 -4.04374 0
M  V30 5010 H 452.148 -4.69985 -2.85297 0
M  V30 5011 H 453.373 -5.76603 -3.58757 0
M  V30 5012 H 451.319 -4.1158 -5.10821 0
M  V30 5013 H 451.236 -5.82303 -4.82141 0
M  V30 5014 H 452.504 -5.18208 -5.82306 0
M  V30 5015 N 456.733 0.527833 -1.48498 0
M  V30 5016 C 457.958 1.313 -1.60546 0
M  V30 5017 C 458.383 1.86199 -0.26672 0
M  V30 5018 O 457.741 1.64513 0.761918 0
M  V30 5019 C 457.789 2.43818 -2.65678 0
M  V30 5020 O 456.893 3.46916 -2.22987 0
M  V30 5021 H 456.234 0.388784 -0.538277 0
M  V30 5022 H 458.764 0.634896 -1.945 0
M  V30 5023 H 458.774 2.89973 -2.87018 0
M  V30 5024 H 457.449 2.03222 -3.62869 0
M  V30 5025 H 456.026 3.06864 -2.11869 0
M  V30 5026 N 458.211 1.37122 0.776871 0
M  V30 5027 C 459.441 1.35034 1.56363 0
M  V30 5028 C 459.849 -0.0674681 1.8908 0
M  V30 5029 O 459.192 -1.03826 1.51545 0
M  V30 5030 C 459.254 2.11894 2.90415 0
M  V30 5031 C 458.918 3.60897 2.80362 0
M  V30 5032 C 459.915 4.54887 2.51742 0
M  V30 5033 C 457.6 4.03951 2.98545 0
M  V30 5034 C 459.594 5.89909 2.41426 0
M  V30 5035 C 457.281 5.3906 2.87849 0
M  V30 5036 C 458.279 6.31852 2.5933 0
M  V30 5037 O 457.967 7.64479 2.48651 0
M  V30 5038 H 457.699 0.464402 0.49123 0
M  V30 5039 H 460.253 1.80992 0.971127 0
M  V30 5040 H 458.483 1.60618 3.51765 0
M  V30 5041 H 460.172 2.02505 3.51776 0
M  V30 5042 H 460.938 4.22934 2.37385 0
M  V30 5043 H 456.817 3.3209 3.19746 0
M  V30 5044 H 460.361 6.62304 2.19086 0
M  V30 5045 H 456.258 5.70617 3.01773 0
M  V30 5046 H 457.026 7.74742 2.64039 0
M  V30 5047 N 459.689 -1.00246 1.21608 0
M  V30 5048 C 460.637 -2.11193 0.97469 0
M  V30 5049 C 461.631 -1.69216 -0.0789303 0
M  V30 5050 O 462.837 -1.79853 0.0726806 0
M  V30 5051 H 459.212 -0.690455 0.297953 0
M  V30 5052 H 461.183 -2.2873 1.91638 0
M  V30 5053 C 459.932 -3.43182 0.558717 0
M  V30 5054 H 459.255 -3.75918 1.3611 0
M  V30 5055 H 460.695 -4.21823 0.429154 0
M  V30 5056 C 459.154 -3.28882 -0.730648 0
M  V30 5057 O 459.684 -3.59835 -1.78554 0
M  V30 5058 N 457.89 -2.8209 -0.698131 0
M  V30 5059 H 457.437 -2.57099 0.16061 0
M  V30 5060 H 457.395 -2.72903 -1.56113 0
M  V30 5061 N 461.167 -1.02423 -1.1978 0
M  V30 5062 C 462.097 -0.62157 -2.25075 0
M  V30 5063 C 463.078 0.367148 -1.6609 0
M  V30 5064 O 464.263 0.250892 -1.92573 0
M  V30 5065 C 461.393 0.0331826 -3.47284 0
M  V30 5066 C 460.347 -0.877323 -4.18912 0
M  V30 5067 C 459.673 -0.0879296 -5.34628 0
M  V30 5068 C 460.973 -2.18892 -4.74219 0
M  V30 5069 H 462.667 -1.50179 -2.59011 0
M  V30 5070 H 460.213 -0.723547 -1.24502 0
M  V30 5071 H 462.166 0.326488 -4.20133 0
M  V30 5072 H 460.89 0.948164 -3.12534 0
M  V30 5073 H 459.549 -1.15475 -3.47938 0
M  V30 5074 H 459.197 0.828941 -4.96123 0
M  V30 5075 H 458.897 -0.694359 -5.83483 0
M  V30 5076 H 460.421 0.198743 -6.10276 0
M  V30 5077 H 461.835 -1.95746 -5.38847 0
M  V30 5078 H 460.232 -2.74686 -5.33542 0
M  V30 5079 H 461.302 -2.84674 -3.92541 0
M  V30 5080 N 462.645 1.35699 -0.801477 0
M  V30 5081 C 463.894 1.98165 -0.375979 0
M  V30 5082 C 464.207 1.64306 1.06127 0
M  V30 5083 O 465.413 2.20097 1.58964 0
M  V30 5084 C 463.869 3.54497 -0.621305 0
M  V30 5085 C 463.477 3.9727 -2.07076 0
M  V30 5086 C 465.221 4.23697 -0.26091 0
M  V30 5087 C 463.128 5.46427 -2.26211 0
M  V30 5088 H 462.058 0.741478 -0.136844 0
M  V30 5089 H 464.709 1.54834 -0.984814 0
M  V30 5090 H 463.091 3.95958 0.0574112 0
M  V30 5091 H 464.265 3.66974 -2.78687 0
M  V30 5092 H 462.58 3.40943 -2.39054 0
M  V30 5093 H 465.177 5.33334 -0.381994 0
M  V30 5094 H 465.52 4.0869 0.792344 0
M  V30 5095 H 466.053 3.87639 -0.893339 0
M  V30 5096 H 462.792 5.66396 -3.29963 0
M  V30 5097 H 462.312 5.78309 -1.59119 0
M  V30 5098 H 463.991 6.12819 -2.07513 0
M  V30 5099 N 464.123 0.554532 1.47522 0
M  V30 5100 C 465.348 0.0322661 2.07375 0
M  V30 5101 C 465.773 -1.25079 1.40488 0
M  V30 5102 O 465.131 -1.74859 0.47896 0
M  V30 5103 C 465.179 -0.149397 3.6029 0
M  V30 5104 O 464.283 -1.21259 3.9417 0
M  V30 5105 H 463.624 0.0501228 0.662106 0
M  V30 5106 H 466.154 0.769452 1.8958 0
M  V30 5107 H 466.164 -0.364437 4.06369 0
M  V30 5108 H 464.839 0.787743 4.08372 0
M  V30 5109 H 463.416 -0.97825 3.5984 0
M  V30 5110 N 465.601 -1.54893 0.290851 0
M  V30 5111 C 466.848 -1.99933 -0.321391 0
M  V30 5112 C 467.176 -1.17927 -1.54672 0
M  V30 5113 O 466.431 -0.240902 -1.94212 0
M  V30 5114 C 466.73 -3.49815 -0.732397 0
M  V30 5115 C 466.396 -4.4921 0.390056 0
M  V30 5116 C 465.058 -4.76107 0.698223 0
M  V30 5117 C 467.41 -5.08453 1.14562 0
M  V30 5118 C 464.738 -5.59514 1.76526 0
M  V30 5119 C 467.09 -5.9302 2.2025 0
M  V30 5120 C 465.754 -6.18232 2.51684 0
M  V30 5121 H 465.024 -0.731608 -0.117605 0
M  V30 5122 H 467.671 -1.87107 0.407839 0
M  V30 5123 H 465.976 -3.60199 -1.54155 0
M  V30 5124 H 467.673 -3.82083 -1.21712 0
M  V30 5125 H 464.263 -4.28372 0.13976 0
M  V30 5126 H 468.447 -4.87683 0.920801 0
M  V30 5127 H 463.703 -5.77289 2.01364 0
M  V30 5128 H 467.877 -6.37955 2.7926 0
M  V30 5129 H 465.504 -6.82653 3.34499 0
M  V30 5130 N 467.08 -0.0183926 -1.57589 0
M  V30 5131 C 468.305 0.676634 -1.96052 0
M  V30 5132 C 468.73 1.6548 -0.894307 0
M  V30 5133 O 468.088 1.80712 0.145849 0
M  V30 5134 C 468.136 1.36872 -3.33614 0
M  V30 5135 O 467.24 2.48372 -3.29219 0
M  V30 5136 H 466.581 0.1786 -0.63953 0
M  V30 5137 H 469.111 -0.077056 -2.04455 0
M  V30 5138 H 469.121 1.72797 -3.69601 0
M  V30 5139 H 467.796 0.651636 -4.10763 0
M  V30 5140 H 466.373 2.14639 -3.04934 0
M  V30 5141 N 468.558 1.5553 0.254621 0
M  V30 5142 C 469.506 1.9048 1.33492 0
M  V30 5143 C 470.5 0.78304 1.50216 0
M  V30 5144 O 471.706 0.967582 1.51782 0
M  V30 5145 H 468.081 0.604846 0.44684 0
M  V30 5146 H 470.052 2.80688 1.01275 0
M  V30 5147 C 468.801 2.20928 2.68489 0
M  V30 5148 H 468.124 3.06742 2.56417 0
M  V30 5149 H 469.564 2.49291 3.42972 0
M  V30 5150 C 468.023 1.023 3.20993 0
M  V30 5151 O 468.553 0.267027 4.00811 0
M  V30 5152 N 466.759 0.815714 2.78917 0
M  V30 5153 H 466.306 1.43217 2.14119 0
M  V30 5154 H 466.264 0.0236532 3.14391 0
M  V30 5155 N 470.036 -0.519951 1.48776 0
M  V30 5156 C 471.284 -1.2727 1.56993 0
M  V30 5157 C 471.605 -1.9339 0.25004 0
M  V30 5158 O 470.875 -1.81822 -0.729216 0
M  V30 5159 H 469.455 -0.472732 0.578389 0
M  V30 5160 H 472.117 -0.604234 1.85297 0
M  V30 5161 H 471.213 -2.04669 2.3562 0
M  V30 5162 N 471.514 -1.37532 -0.769588 0
M  V30 5163 C 472.76 -1.33057 -1.53048 0
M  V30 5164 C 473.093 0.0841865 -1.94017 0
M  V30 5165 O 472.368 1.04198 -1.64235 0
M  V30 5166 C 472.651 -2.27166 -2.79406 0
M  V30 5167 C 472.504 -3.77429 -2.44677 0
M  V30 5168 C 473.823 -2.19683 -3.81349 0
M  V30 5169 H 470.942 -0.484655 -0.555228 0
M  V30 5170 H 473.584 -1.68251 -0.882702 0
M  V30 5171 H 471.734 -1.97283 -3.34682 0
M  V30 5172 H 473.406 -4.17918 -1.953 0
M  V30 5173 H 471.649 -3.95892 -1.77346 0
M  V30 5174 H 472.32 -4.38716 -3.35011 0
M  V30 5175 H 474.796 -2.46029 -3.35573 0
M  V30 5176 H 473.672 -2.87668 -4.67481 0
M  V30 5177 H 473.933 -1.19045 -4.25771 0
M  V30 5178 N 472.992 0.995999 -1.22138 0
M  V30 5179 C 474.239 1.7351 -1.04406 0
M  V30 5180 C 474.567 1.89884 0.421244 0
M  V30 5181 O 473.822 1.43683 1.32867 0
M  V30 5182 C 474.121 3.14553 -1.6968 0
M  V30 5183 C 473.787 3.18102 -3.19565 0
M  V30 5184 C 472.449 3.18778 -3.60464 0
M  V30 5185 C 474.801 3.14636 -4.15516 0
M  V30 5186 C 472.129 3.13684 -4.95801 0
M  V30 5187 C 474.481 3.11084 -5.50826 0
M  V30 5188 C 473.145 3.10074 -5.91109 0
M  V30 5189 H 472.415 0.634916 -0.38205 0
M  V30 5190 H 475.062 1.1667 -1.51857 0
M  V30 5191 H 473.367 3.74682 -1.14546 0
M  V30 5192 H 475.064 3.70477 -1.53454 0
M  V30 5193 H 471.654 3.18324 -2.86998 0
M  V30 5194 H 475.838 3.13266 -3.84939 0
M  V30 5195 H 471.094 3.11245 -5.26247 0
M  V30 5196 H 475.268 3.07357 -6.24904 0
M  V30 5197 H 472.895 3.05882 -6.95946 0
M  V30 5198 N 474.47 1.03057 1.19235 0
M  V30 5199 C 475.718 0.726581 1.88587 0
M  V30 5200 C 476.039 -0.747227 1.80115 0
M  V30 5201 O 475.309 -1.53849 1.21274 0
M  V30 5202 H 473.889 0.265768 0.698124 0
M  V30 5203 H 476.551 1.30516 1.44746 0
M  V30 5204 H 475.647 1.0224 2.94879 0
M  V30 5205 N 475.948 -1.35272 0.808662 0
M  V30 5206 C 477.188 -2.00534 0.395668 0
M  V30 5207 C 477.552 -1.62755 -1.01857 0
M  V30 5208 O 478.753 -2.20752 -1.53368 0
M  V30 5209 C 477.024 -3.52732 0.575771 0
M  V30 5210 S 478.583 -4.38067 0.253507 0
M  V30 5211 H 475.401 -0.694962 0.150165 0
M  V30 5212 H 478.003 -1.64823 1.05137 0
M  V30 5213 H 476.707 -3.77714 1.60499 0
M  V30 5214 H 476.238 -3.93285 -0.0951739 0
M  V30 5215 H 478.253 -4.87252 -0.938068 0
M  V30 5216 N 477.426 -0.562348 -1.47226 0
M  V30 5217 C 478.374 0.195476 -2.31777 0
M  V30 5218 C 479.368 0.90433 -1.43242 0
M  V30 5219 O 480.574 0.825031 -1.59979 0
M  V30 5220 H 476.949 0.0819095 -0.747526 0
M  V30 5221 H 478.92 -0.536753 -2.93533 0
M  V30 5222 C 477.669 1.20902 -3.26003 0
M  V30 5223 H 476.992 0.672997 -3.94095 0
M  V30 5224 H 478.432 1.71006 -3.87986 0
M  V30 5225 C 476.891 2.25955 -2.49891 0
M  V30 5226 O 477.421 3.32969 -2.2471 0
M  V30 5227 N 475.627 2.00019 -2.1081 0
M  V30 5228 H 475.174 1.13006 -2.31489 0
M  V30 5229 H 475.132 2.70523 -1.60201 0
M  V30 5230 N 478.904 1.54736 -0.299062 0
M  V30 5231 C 480.144 2.0201 0.31168 0
M  V30 5232 C 480.508 1.18281 1.5124 0
M  V30 5233 O 481.709 1.55243 2.19438 0
M  V30 5234 C 479.98 3.5123 0.661227 0
M  V30 5235 S 481.539 4.20467 1.2551 0
M  V30 5236 H 478.357 0.704523 0.0957517 0
M  V30 5237 H 480.959 1.90791 -0.426482 0
M  V30 5238 H 479.663 4.09804 -0.221171 0
M  V30 5239 H 479.194 3.66481 1.43023 0
M  V30 5240 H 481.209 4.26083 2.54298 0
M  V30 5241 N 480.382 0.0267497 1.57577 0
M  V30 5242 C 481.659 -0.690926 1.82991 0
M  V30 5243 C 482.039 -1.90471 0.910164 0
M  V30 5244 O 481.387 -2.28474 -0.0347985 0
M  V30 5245 C 481.597 -1.07139 3.32148 0
M  V30 5246 C 482.945 -1.46402 3.98562 0
M  V30 5247 O 483.969 -1.16443 3.36629 0
M  V30 5248 O 482.828 -2.02214 5.07712 0
M  V30 5249 H 479.922 -0.338747 0.75444 0
M  V30 5250 H 482.468 0.0542506 1.69613 0
M  V30 5251 H 481.24 -0.207394 3.9075 0
M  V30 5252 H 480.863 -1.87481 3.50623 0
M  V30 5253 N 481.861 -1.55662 -0.24637 0
M  V30 5254 C 482.811 -1.86753 -1.30795 0
M  V30 5255 C 483.795 -0.728445 -1.43466 0
M  V30 5256 O 484.987 -0.99038 -1.46699 0
M  V30 5257 C 482.116 -2.16618 -2.66329 0
M  V30 5258 C 481.202 -3.36855 -2.57661 0
M  V30 5259 N 481.593 -4.56111 -2.18624 0
M  V30 5260 C 479.891 -3.39976 -2.88673 0
M  V30 5261 C 480.592 -5.38247 -2.20601 0
M  V30 5262 N 479.568 -4.77322 -2.60124 0
M  V30 5263 H 483.37 -2.76486 -0.996642 0
M  V30 5264 H 480.884 -1.55896 -0.454994 0
M  V30 5265 H 482.881 -2.37057 -3.42942 0
M  V30 5266 H 481.541 -1.28185 -2.98327 0
M  V30 5267 H 482.552 -4.81726 -1.9016 0
M  V30 5268 H 479.229 -2.61815 -3.25206 0
M  V30 5269 H 480.619 -6.43657 -1.92756 0
M  V30 5270 N 483.339 0.512053 -1.4905 0
M  V30 5271 C 484.302 1.59704 -1.64399 0
M  V30 5272 C 485.302 1.52285 -0.516317 0
M  V30 5273 O 486.492 1.55635 -0.782527 0
M  V30 5274 C 483.624 2.9935 -1.63102 0
M  V30 5275 H 484.817 1.47428 -2.61161 0
M  V30 5276 H 482.37 0.735469 -1.37915 0
M  V30 5277 H 483.105 3.17116 -0.678836 0
M  V30 5278 H 482.89 3.06144 -2.44986 0
M  V30 5279 H 484.38 3.782 -1.77072 0
M  V30 5280 N 484.817 1.37938 0.762283 0
M  V30 5281 C 486.228 1.30094 1.33912 0
M  V30 5282 C 486.579 -0.0472026 1.96143 0
M  V30 5283 O 485.704 -0.94917 1.94473 0
M  V30 5284 C 486.299 2.35592 2.43478 0
M  V30 5285 C 484.858 2.31353 2.96905 0
M  V30 5286 C 484.005 2.18919 1.70205 0
M  V30 5287 H 486.956 1.48423 0.561816 0
M  V30 5288 H 486.977 2.00806 3.23199 0
M  V30 5289 H 486.489 3.33701 1.98155 0
M  V30 5290 H 484.59 1.36799 3.46579 0
M  V30 5291 H 484.703 3.25147 3.51875 0
M  V30 5292 H 483.067 1.65624 1.93496 0
M  V30 5293 H 483.85 3.18956 1.26973 0
M  V30 5294 N 486.295 -0.989507 1.22664 0
M  V30 5295 C 487.542 -1.72953 1.05325 0
M  V30 5296 C 487.87 -1.90104 -0.411168 0
M  V30 5297 O 487.125 -1.44386 -1.32103 0
M  V30 5298 C 487.424 -3.13649 1.71345 0
M  V30 5299 C 487.09 -3.16403 3.21248 0
M  V30 5300 C 485.752 -3.16862 3.62149 0
M  V30 5301 C 488.104 -3.12428 4.17179 0
M  V30 5302 C 485.432 -3.11051 4.97458 0
M  V30 5303 C 487.784 -3.08159 5.52468 0
M  V30 5304 C 486.448 -3.06935 5.92746 0
M  V30 5305 H 485.718 -0.632881 0.385412 0
M  V30 5306 H 488.365 -1.15863 1.52473 0
M  V30 5307 H 486.67 -3.74069 1.16532 0
M  V30 5308 H 488.367 -3.69658 1.55416 0
M  V30 5309 H 484.957 -3.16798 2.88682 0
M  V30 5310 H 489.141 -3.11221 3.86595 0
M  V30 5311 H 484.397 -3.0845 5.27891 0
M  V30 5312 H 488.571 -3.04039 6.26525 0
M  V30 5313 H 486.198 -3.02186 6.97558 0
M  V30 5314 N 487.773 -1.03688 -1.18687 0
M  V30 5315 C 489.05 -0.652397 -1.84399 0
M  V30 5316 C 489.43 0.868386 -1.92412 0
M  V30 5317 O 488.778 1.76832 -1.44716 0
M  V30 5318 C 488.988 -1.3238 -3.22919 0
M  V30 5319 C 490.336 -1.45216 -3.98996 0
M  V30 5320 O 491.36 -1.2816 -3.32345 0
M  V30 5321 O 490.219 -1.72975 -5.18403 0
M  V30 5322 H 487.313 -0.227793 -0.795009 0
M  V30 5323 H 489.859 -1.13553 -1.2611 0
M  V30 5324 H 488.631 -2.36202 -3.11968 0
M  V30 5325 H 488.254 -0.829039 -3.88861 0
M  V30 5326 N 489.251 1.34841 -0.815825 0
M  V30 5327 C 490.214 2.27959 -0.238185 0
M  V30 5328 C 491.214 1.49983 0.579816 0
M  V30 5329 O 492.404 1.69617 0.396953 0
M  V30 5330 C 489.536 3.34314 0.666876 0
M  V30 5331 H 490.729 2.80558 -1.05958 0
M  V30 5332 H 488.282 1.44852 -0.587156 0
M  V30 5333 H 489.017 2.86916 1.5116 0
M  V30 5334 H 488.802 3.92014 0.0819106 0
M  V30 5335 H 490.292 4.0379 1.06506 0
M  V30 5336 N 490.729 0.570148 1.46925 0
M  V30 5337 C 491.662 -0.218362 2.27153 0
M  V30 5338 C 492.64 -0.90847 1.34854 0
M  V30 5339 O 493.824 -0.924875 1.64251 0
M  V30 5340 C 490.951 -1.3122 3.12248 0
M  V30 5341 C 489.997 -0.729277 4.20219 0
M  V30 5342 S 490.83 0.434159 5.33737 0
M  V30 5343 C 491.986 -0.661188 6.22398 0
M  V30 5344 H 492.219 0.462393 2.93682 0
M  V30 5345 H 489.752 0.356753 1.50222 0
M  V30 5346 H 491.71 -1.93856 3.61842 0
M  V30 5347 H 490.371 -1.96485 2.45056 0
M  V30 5348 H 489.564 -1.5511 4.79538 0
M  V30 5349 H 489.166 -0.178836 3.73572 0
M  V30 5350 H 491.458 -1.55006 6.5953 0
M  V30 5351 H 492.401 -0.105046 7.08022 0
M  V30 5352 H 492.809 -0.959682 5.56283 0
M  V30 5353 N 492.207 -1.54576 0.307264 0
M  V30 5354 C 493.456 -1.99442 -0.300976 0
M  V30 5355 C 493.769 -1.19928 -1.5452 0
M  V30 5356 O 494.975 -1.55092 -2.22842 0
M  V30 5357 C 493.431 -3.55084 -0.586809 0
M  V30 5358 C 493.039 -4.43413 0.639438 0
M  V30 5359 C 494.783 -4.0846 -1.1559 0
M  V30 5360 C 492.69 -5.90499 0.326411 0
M  V30 5361 H 491.62 -0.744986 -0.116238 0
M  V30 5362 H 494.271 -1.787 0.416947 0
M  V30 5363 H 492.653 -3.71749 -1.36449 0
M  V30 5364 H 493.827 -4.38522 1.41545 0
M  V30 5365 H 492.142 -4.00842 1.1276 0
M  V30 5366 H 494.739 -5.15926 -1.40445 0
M  V30 5367 H 495.082 -3.59443 -2.10015 0
M  V30 5368 H 495.615 -3.95362 -0.439778 0
M  V30 5369 H 492.354 -6.43676 1.23939 0
M  V30 5370 H 491.874 -5.98382 -0.412212 0
M  V30 5371 H 493.553 -6.46962 -0.0697393 0
M  V30 5372 N 493.685 -0.035106 -1.57561 0
M  V30 5373 C 494.618 0.979673 -2.06101 0
M  V30 5374 C 495.596 1.31378 -0.958046 0
M  V30 5375 O 496.78 1.42942 -1.22881 0
M  V30 5376 C 493.907 2.29809 -2.48808 0
M  V30 5377 C 492.953 2.11817 -3.70184 0
M  V30 5378 S 493.786 1.41143 -5.16565 0
M  V30 5379 C 494.942 2.74341 -5.62572 0
M  V30 5380 H 495.175 0.566506 -2.91853 0
M  V30 5381 H 492.708 0.176744 -1.53385 0
M  V30 5382 H 494.666 3.056 -2.74078 0
M  V30 5383 H 493.327 2.68257 -1.63392 0
M  V30 5384 H 492.52 3.09299 -3.97933 0
M  V30 5385 H 492.122 1.44168 -3.45097 0
M  V30 5386 H 494.414 3.70562 -5.67177 0
M  V30 5387 H 495.357 2.51249 -6.62027 0
M  V30 5388 H 495.765 2.79863 -4.90242 0
M  V30 5389 N 495.163 1.55791 0.238111 0
M  V30 5390 C 496.409 1.78297 0.966337 0
M  V30 5391 C 496.742 0.601903 1.84637 0
M  V30 5392 O 496.017 -0.399499 1.90353 0
M  V30 5393 C 496.3 3.10758 1.81939 0
M  V30 5394 C 496.153 4.39283 0.966958 0
M  V30 5395 C 497.472 3.39519 2.80027 0
M  V30 5396 H 494.591 0.648654 0.349882 0
M  V30 5397 H 497.233 1.88525 0.236253 0
M  V30 5398 H 495.383 3.02168 2.44185 0
M  V30 5399 H 497.055 4.59873 0.362514 0
M  V30 5400 H 495.298 4.32948 0.271669 0
M  V30 5401 H 495.969 5.28368 1.59784 0
M  V30 5402 H 498.445 3.48128 2.27917 0
M  V30 5403 H 497.321 4.33402 3.36829 0
M  V30 5404 H 497.582 2.60864 3.56934 0
M  V30 5405 N 496.642 -0.504142 1.49319 0
M  V30 5406 C 497.59 -1.62689 1.66238 0
M  V30 5407 C 498.584 -1.6095 0.528349 0
M  V30 5408 O 499.79 -1.65496 0.707887 0
M  V30 5409 H 496.165 -0.539247 0.524134 0
M  V30 5410 H 498.136 -1.45571 2.60484 0
M  V30 5411 C 496.885 -3.00841 1.74328 0
M  V30 5412 H 496.208 -3.02884 2.60963 0
M  V30 5413 H 497.648 -3.78945 1.90202 0
M  V30 5414 C 496.107 -3.33355 0.487416 0
M  V30 5415 O 496.637 -3.99819 -0.388294 0
M  V30 5416 N 494.843 -2.88469 0.351306 0
M  V30 5417 H 494.39 -2.34557 1.06492 0
M  V30 5418 H 494.348 -3.10591 -0.487899 0
M  V30 5419 N 498.12 -1.38341 -0.754957 0
M  V30 5420 C 499.369 -1.33791 -1.5094 0
M  V30 5421 C 499.682 0.0699267 -1.95475 0
M  V30 5422 O 500.888 0.237956 -2.70455 0
M  V30 5423 C 499.344 -2.34934 -2.72643 0
M  V30 5424 C 498.952 -3.81332 -2.35138 0
M  V30 5425 C 500.696 -2.39425 -3.50536 0
M  V30 5426 C 498.603 -4.74164 -3.53444 0
M  V30 5427 H 497.533 -0.497314 -0.566741 0
M  V30 5428 H 500.184 -1.63888 -0.825403 0
M  V30 5429 H 498.566 -1.97878 -3.43017 0
M  V30 5430 H 499.74 -4.27319 -1.7244 0
M  V30 5431 H 498.055 -3.79946 -1.70382 0
M  V30 5432 H 500.652 -3.0598 -4.38498 0
M  V30 5433 H 500.995 -1.41278 -3.91594 0
M  V30 5434 H 501.528 -2.75274 -2.87174 0
M  V30 5435 H 498.267 -5.73501 -3.17453 0
M  V30 5436 H 497.787 -4.3287 -4.15191 0
M  V30 5437 H 499.466 -4.92111 -4.20043 0
M  V30 5438 N 499.598 0.982988 -1.23187 0
M  V30 5439 C 500.823 1.76455 -1.08988 0
M  V30 5440 C 501.248 1.84726 0.354691 0
M  V30 5441 O 500.606 1.30699 1.25649 0
M  V30 5442 C 500.654 3.17094 -1.71708 0
M  V30 5443 O 499.758 4.00648 -0.977477 0
M  V30 5444 H 499.099 0.542988 -0.382177 0
M  V30 5445 H 501.629 1.23413 -1.63188 0
M  V30 5446 H 501.639 3.67684 -1.76841 0
M  V30 5447 H 500.314 3.10389 -2.76823 0
M  V30 5448 H 498.891 3.59161 -1.0029 0
M  V30 5449 N 501.076 1.04316 1.18135 0
M  V30 5450 C 502.306 0.767003 1.91835 0
M  V30 5451 C 502.714 -0.68002 1.76557 0
M  V30 5452 O 502.057 -1.47548 1.09432 0
M  V30 5453 C 502.119 1.05674 3.43618 0
M  V30 5454 C 501.783 2.49818 3.82675 0
M  V30 5455 C 502.78 3.48003 3.86251 0
M  V30 5456 C 500.465 2.84596 4.13897 0
M  V30 5457 C 502.459 4.79016 4.20503 0
M  V30 5458 C 500.146 4.15813 4.4782 0
M  V30 5459 C 501.144 5.12834 4.51099 0
M  V30 5460 O 500.832 6.41699 4.84229 0
M  V30 5461 H 500.564 0.278948 0.615763 0
M  V30 5462 H 503.118 1.3946 1.50798 0
M  V30 5463 H 501.348 0.372029 3.84906 0
M  V30 5464 H 503.037 0.767994 3.98568 0
M  V30 5465 H 503.803 3.22475 3.62264 0
M  V30 5466 H 499.682 2.09748 4.1052 0
M  V30 5467 H 503.226 5.54739 4.22978 0
M  V30 5468 H 499.123 4.41109 4.71268 0
M  V30 5469 H 499.891 6.46387 5.02121 0
M  V30 5470 N 502.554 -1.34406 0.822964 0
M  V30 5471 C 503.784 -2.02214 0.423424 0
M  V30 5472 C 504.192 -1.62124 -0.975322 0
M  V30 5473 O 503.535 -0.822452 -1.6426 0
M  V30 5474 C 503.597 -3.56721 0.446107 0
M  V30 5475 C 503.261 -4.20136 1.79819 0
M  V30 5476 C 504.258 -4.4065 2.75904 0
M  V30 5477 C 501.943 -4.56906 2.08669 0
M  V30 5478 C 503.937 -4.9706 3.99012 0
M  V30 5479 C 501.624 -5.13026 3.32036 0
M  V30 5480 C 502.622 -5.33047 4.27024 0
M  V30 5481 O 502.31 -5.87979 5.48211 0
M  V30 5482 H 502.042 -0.654748 0.168169 0
M  V30 5483 H 504.596 -1.72659 1.11257 0
M  V30 5484 H 502.826 -3.85537 -0.299734 0
M  V30 5485 H 504.515 -4.05845 0.0666114 0
M  V30 5486 H 505.281 -4.12607 2.54912 0
M  V30 5487 H 501.16 -4.40626 1.35535 0
M  V30 5488 H 504.704 -5.12603 4.73164 0
M  V30 5489 H 500.601 -5.40498 3.52891 0
M  V30 5490 H 501.369 -6.06413 5.49732 0
M  V30 5491 N 504.032 -0.577932 -1.46621 0
M  V30 5492 C 505.278 -0.0617793 -2.02706 0
M  V30 5493 C 505.611 1.29294 -1.44903 0
M  V30 5494 O 504.886 1.8461 -0.61232 0
M  V30 5495 C 505.169 0.00911824 -3.60099 0
M  V30 5496 C 505.022 -1.37416 -4.28295 0
M  V30 5497 C 506.341 0.712159 -4.343 0
M  V30 5498 H 503.46 -0.0239246 -0.736612 0
M  V30 5499 H 506.102 -0.744211 -1.74818 0
M  V30 5500 H 504.252 0.590292 -3.83989 0
M  V30 5501 H 505.924 -2.00013 -4.15683 0
M  V30 5502 H 504.167 -1.94319 -3.87843 0
M  V30 5503 H 504.838 -1.27707 -5.37024 0
M  V30 5504 H 507.314 0.218486 -4.15526 0
M  V30 5505 H 506.19 0.730782 -5.44014 0
M  V30 5506 H 506.451 1.77251 -4.05012 0
M  V30 5507 N 505.51 1.54411 -0.315457 0
M  V30 5508 C 506.787 1.92562 0.343398 0
M  V30 5509 C 507.167 1.24423 1.70535 0
M  V30 5510 O 506.515 0.385051 2.25232 0
M  V30 5511 C 506.725 3.46168 0.443687 0
M  V30 5512 C 508.073 4.18659 0.707783 0
M  V30 5513 O 509.097 3.52281 0.52693 0
M  V30 5514 O 507.956 5.36198 1.05612 0
M  V30 5515 H 505.05 0.80379 0.194552 0
M  V30 5516 H 507.596 1.65738 -0.364577 0
M  V30 5517 H 506.368 3.8792 -0.513172 0
M  V30 5518 H 505.991 3.79073 1.19956 0
M  V30 5519 N 506.988 0.0434614 1.5754 0
M  V30 5520 C 507.898 -0.94893 2.14552 0
M  V30 5521 C 508.914 -1.34707 1.10136 0
M  V30 5522 O 510.09 -1.42557 1.42266 0
M  V30 5523 C 507.155 -2.208 2.67298 0
M  V30 5524 C 506.216 -1.86893 3.86484 0
M  V30 5525 C 505.449 -3.06797 4.36705 0
M  V30 5526 O 505.672 -4.19921 3.86034 0
M  V30 5527 O 504.606 -2.8826 5.28384 0
M  V30 5528 H 508.432 -0.494099 2.99654 0
M  V30 5529 H 506.017 -0.177989 1.48336 0
M  V30 5530 H 507.899 -2.94686 3.01228 0
M  V30 5531 H 506.574 -2.65436 1.85272 0
M  V30 5532 H 505.481 -1.10347 3.57455 0
M  V30 5533 H 506.814 -1.47062 4.69716 0
M  V30 5534 N 508.466 -1.55915 -0.229846 0
M  V30 5535 C 509.413 -1.91734 -1.28478 0
M  V30 5536 C 510.383 -0.773539 -1.46988 0
M  V30 5537 O 511.568 -1.02871 -1.60693 0
M  V30 5538 C 508.708 -2.23224 -2.63182 0
M  V30 5539 C 507.821 -3.50497 -2.52539 0
M  V30 5540 C 506.956 -3.71474 -3.79711 0
M  V30 5541 C 505.995 -4.92289 -3.63755 0
M  V30 5542 N 505.132 -5.09698 -4.82858 0
M  V30 5543 H 509.972 -2.81692 -0.972308 0
M  V30 5544 H 507.509 -1.39429 -0.468815 0
M  V30 5545 H 509.467 -2.3949 -3.41614 0
M  V30 5546 H 508.097 -1.36451 -2.92542 0
M  V30 5547 H 507.149 -3.4247 -1.65585 0
M  V30 5548 H 508.461 -4.39079 -2.36666 0
M  V30 5549 H 507.615 -3.87791 -4.66586 0
M  V30 5550 H 506.354 -2.81157 -3.985 0
M  V30 5551 H 505.359 -4.7593 -2.75264 0
M  V30 5552 H 506.584 -5.84083 -3.46445 0
M  V30 5553 H 504.53 -4.22322 -5.01976 0
M  V30 5554 H 504.447 -5.92399 -4.69681 0
M  V30 5555 H 505.715 -5.30443 -5.71183 0
M  V30 5556 N 509.944 0.496216 -1.49584 0
M  V30 5557 C 511.193 1.24668 -1.58558 0
M  V30 5558 C 511.506 1.9359 -0.279703 0
M  V30 5559 O 512.712 2.70365 -0.248048 0
M  V30 5560 C 511.168 2.26388 -2.79779 0
M  V30 5561 C 510.776 1.63384 -4.17145 0
M  V30 5562 C 512.52 3.02233 -2.98086 0
M  V30 5563 C 510.427 2.63243 -5.29582 0
M  V30 5564 H 509.357 0.468995 -0.590389 0
M  V30 5565 H 512.008 0.519985 -1.75978 0
M  V30 5566 H 510.39 3.02241 -2.55863 0
M  V30 5567 H 511.564 0.93491 -4.51216 0
M  V30 5568 H 509.879 0.999121 -4.04236 0
M  V30 5569 H 512.476 3.76919 -3.79257 0
M  V30 5570 H 512.819 3.60132 -2.08831 0
M  V30 5571 H 513.352 2.33495 -3.22063 0
M  V30 5572 H 510.091 2.10119 -6.20911 0
M  V30 5573 H 509.611 3.31363 -4.99959 0
M  V30 5574 H 511.29 3.25575 -5.59115 0
M  V30 5575 N 511.423 1.38739 0.74761 0
M  V30 5576 C 512.67 1.35274 1.50689 0
M  V30 5577 C 512.998 -0.0553359 1.94421 0
M  V30 5578 O 512.253 -1.03365 1.66175 0
M  V30 5579 C 512.552 2.25992 2.7688 0
M  V30 5580 C 512.218 3.73854 2.5208 0
M  V30 5581 C 510.88 4.14145 2.45025 0
M  V30 5582 C 513.232 4.67427 2.30568 0
M  V30 5583 C 510.56 5.4609 2.14483 0
M  V30 5584 C 512.912 5.99635 2.01545 0
M  V30 5585 C 511.576 6.39004 1.92951 0
M  V30 5586 H 510.846 0.495003 0.55141 0
M  V30 5587 H 513.493 1.71145 0.859158 0
M  V30 5588 H 511.798 1.83196 3.46333 0
M  V30 5589 H 513.495 2.20611 3.34861 0
M  V30 5590 H 510.085 3.41913 2.58444 0
M  V30 5591 H 514.269 4.3714 2.34994 0
M  V30 5592 H 509.525 5.75528 2.06342 0
M  V30 5593 H 513.699 6.71678 1.83906 0
M  V30 5594 H 511.326 7.41165 1.6905 0
M  V30 5595 N 512.901 -0.976442 1.23707 0
M  V30 5596 C 513.833 -2.07212 0.979574 0
M  V30 5597 C 514.846 -1.6273 -0.0478528 0
M  V30 5598 O 516.035 -1.77506 0.18815 0
M  V30 5599 C 513.135 -3.35835 0.45479 0
M  V30 5600 C 512.308 -4.09268 1.54331 0
M  V30 5601 C 511.367 -5.16166 1.02271 0
M  V30 5602 O 510.393 -5.42827 1.71254 0
M  V30 5603 N 511.595 -5.80313 -0.147419 0
M  V30 5604 H 514.36 -2.29878 1.92292 0
M  V30 5605 H 511.921 -1.14343 1.14618 0
M  V30 5606 H 513.913 -4.04597 0.0914631 0
M  V30 5607 H 512.483 -3.10106 -0.394068 0
M  V30 5608 H 511.703 -3.34906 2.07923 0
M  V30 5609 H 512.991 -4.55095 2.27522 0
M  V30 5610 H 512.389 -5.61043 -0.724353 0
M  V30 5611 H 510.946 -6.50231 -0.451972 0
M  V30 5612 N 514.379 -1.04941 -1.1758 0
M  V30 5613 C 515.327 -0.64204 -2.23563 0
M  V30 5614 C 516.321 0.335453 -1.66045 0
M  V30 5615 O 517.527 0.20179 -1.78865 0
M  V30 5616 H 513.902 -0.18944 -0.727748 0
M  V30 5617 H 515.873 -1.54609 -2.55223 0
M  V30 5618 C 514.622 -0.0301051 -3.47687 0
M  V30 5619 H 513.945 -0.773339 -3.92249 0
M  V30 5620 H 515.385 0.217592 -4.23441 0
M  V30 5621 C 513.844 1.2225 -3.13937 0
M  V30 5622 O 514.374 2.3122 -3.28482 0
M  V30 5623 N 512.58 1.11917 -2.68185 0
M  V30 5624 H 512.127 0.232403 -2.5655 0
M  V30 5625 H 512.085 1.95814 -2.45976 0
M  V30 5626 N 515.857 1.33968 -0.830081 0
M  V30 5627 C 516.767 2.33164 -0.259207 0
M  V30 5628 C 517.783 1.62951 0.610164 0
M  V30 5629 O 518.959 1.94668 0.516369 0
M  V30 5630 C 516.024 3.42088 0.563598 0
M  V30 5631 C 515.085 4.28037 -0.329014 0
M  V30 5632 C 514.318 5.3176 0.454616 0
M  V30 5633 O 514.541 5.44876 1.6872 0
M  V30 5634 O 513.475 6.01669 -0.166794 0
M  V30 5635 H 517.301 2.83832 -1.08041 0
M  V30 5636 H 514.886 1.37154 -0.59239 0
M  V30 5637 H 516.768 4.08581 1.03147 0
M  V30 5638 H 515.443 2.93651 1.36201 0
M  V30 5639 H 514.35 3.64443 -0.844538 0
M  V30 5640 H 515.683 4.79934 -1.09196 0
M  V30 5641 N 517.335 0.585699 1.46312 0
M  V30 5642 C 518.583 0.072278 2.01971 0
M  V30 5643 C 518.904 -1.29345 1.45928 0
M  V30 5644 O 518.174 -1.84973 0.645109 0
M  V30 5645 H 516.754 0.023729 0.746623 0
M  V30 5646 H 519.416 0.762155 1.7938 0
M  V30 5647 H 518.512 0.00552767 3.121 0
M  V30 5648 N 518.813 -1.54241 0.323641 0
M  V30 5649 C 520.229 -1.59574 -0.0290018 0
M  V30 5650 C 520.429 -1.34017 -1.50472 0
M  V30 5651 O 519.485 -1.12464 -2.26071 0
M  V30 5652 C 520.798 -2.98169 0.389295 0
M  V30 5653 C 522.346 -3.11148 0.339958 0
M  V30 5654 C 522.821 -4.5209 0.733418 0
M  V30 5655 N 524.312 -4.5808 0.686827 0
M  V30 5656 C 525.047 -5.65248 0.963464 0
M  V30 5657 N 524.543 -6.80355 1.30724 0
M  V30 5658 N 526.336 -5.55025 0.88902 0
M  V30 5659 H 518.487 -1.6911 1.28512 0
M  V30 5660 H 520.75 -0.790972 0.522558 0
M  V30 5661 H 520.456 -3.21871 1.41746 0
M  V30 5662 H 520.33 -3.76399 -0.245657 0
M  V30 5663 H 522.717 -2.87182 -0.679002 0
M  V30 5664 H 522.798 -2.35023 1.00985 0
M  V30 5665 H 522.442 -4.76788 1.75029 0
M  V30 5666 H 522.372 -5.26584 0.0412189 0
M  V30 5667 H 524.863 -3.75411 0.43298 0
M  V30 5668 H 525.176 -7.58029 1.5037 0
M  V30 5669 H 523.521 -6.81851 1.3455 0
M  V30 5670 H 526.712 -4.63977 0.619939 0
M  V30 5671 H 526.885 -6.38458 1.10797 0
M  V30 5672 N 520.291 -0.0518155 -1.57515 0
M  V30 5673 C 521.537 0.616839 -1.93821 0
M  V30 5674 C 521.892 1.68413 -0.930307 0
M  V30 5675 O 521.185 1.91534 0.0504231 0
M  V30 5676 C 521.379 1.25607 -3.34601 0
M  V30 5677 C 521.208 0.252222 -4.48992 0
M  V30 5678 C 519.978 -0.156031 -5.05059 0
M  V30 5679 C 522.176 -0.502613 -5.11838 0
M  V30 5680 N 520.158 -1.15267 -6.02981 0
M  V30 5681 C 521.529 -1.35232 -6.05072 0
M  V30 5682 C 523.584 -0.560855 -4.94731 0
M  V30 5683 C 522.287 -2.25505 -6.83037 0
M  V30 5684 C 524.313 -1.45102 -5.73323 0
M  V30 5685 C 523.675 -2.28845 -6.6619 0
M  V30 5686 H 519.774 0.197344 -0.75669 0
M  V30 5687 H 522.358 -0.124297 -1.94303 0
M  V30 5688 H 520.529 1.96723 -3.34895 0
M  V30 5689 H 522.261 1.88358 -3.58195 0
M  V30 5690 H 519.016 0.22306 -4.73074 0
M  V30 5691 H 519.44 -1.64791 -6.56638 0
M  V30 5692 H 524.082 0.0723639 -4.22738 0
M  V30 5693 H 521.8 -2.89872 -7.54321 0
M  V30 5694 H 525.386 -1.50066 -5.62113 0
M  V30 5695 H 524.266 -2.96608 -7.25943 0
M  V30 5696 N 521.769 1.56035 0.221574 0
M  V30 5697 C 522.716 1.92413 1.27459 0
M  V30 5698 C 523.686 0.781323 1.46576 0
M  V30 5699 O 524.871 1.03721 1.60145 0
M  V30 5700 C 522.011 2.24617 2.61995 0
M  V30 5701 C 521.124 3.51831 2.50677 0
M  V30 5702 C 520.259 3.73482 3.77736 0
M  V30 5703 C 519.298 4.94211 3.6114 0
M  V30 5704 N 518.435 5.12252 4.80148 0
M  V30 5705 H 523.275 2.82203 0.957355 0
M  V30 5706 H 520.812 1.39676 0.461415 0
M  V30 5707 H 522.77 2.41298 3.40339 0
M  V30 5708 H 521.4 1.38 2.91815 0
M  V30 5709 H 520.452 3.43343 1.63767 0
M  V30 5710 H 521.764 4.40328 2.34334 0
M  V30 5711 H 520.918 3.9026 4.64523 0
M  V30 5712 H 519.657 2.83266 3.97003 0
M  V30 5713 H 518.662 4.77384 2.72736 0
M  V30 5714 H 519.887 5.85912 3.43343 0
M  V30 5715 H 517.833 4.24978 4.99729 0
M  V30 5716 H 517.75 5.94881 4.66532 0
M  V30 5717 H 519.018 5.33465 5.68362 0
M  V30 5718 N 523.247 -0.488276 1.49845 0
M  V30 5719 C 524.495 -1.23911 1.59657 0
M  V30 5720 C 524.816 -1.92816 0.291005 0
M  V30 5721 O 524.086 -1.83328 -0.690485 0
M  V30 5722 H 522.666 -0.460357 0.588286 0
M  V30 5723 H 525.328 -0.564794 1.86537 0
M  V30 5724 H 524.424 -1.99625 2.39909 0
M  V30 5725 N 524.725 -1.39134 -0.740242 0
M  V30 5726 C 525.95 -1.39518 -1.53459 0
M  V30 5727 C 526.375 0.00968883 -1.88098 0
M  V30 5728 O 525.733 0.995312 -1.51536 0
M  V30 5729 C 525.781 -2.26981 -2.802 0
M  V30 5730 O 524.885 -1.69609 -3.75908 0
M  V30 5731 H 524.226 -0.475328 -0.463637 0
M  V30 5732 H 526.756 -1.83064 -0.913717 0
M  V30 5733 H 526.766 -2.41309 -3.28989 0
M  V30 5734 H 525.441 -3.29081 -2.5432 0
M  V30 5735 H 524.018 -1.64495 -3.34658 0
M  V30 5736 N 526.204 0.969867 -1.24223 0
M  V30 5737 C 527.114 2.09806 -1.0497 0
M  V30 5738 C 528.13 1.73998 0.00886455 0
M  V30 5739 O 529.306 2.00513 -0.188848 0
M  V30 5740 C 526.371 3.40467 -0.654452 0
M  V30 5741 C 525.432 3.90236 -1.78926 0
M  V30 5742 C 524.665 5.14662 -1.41277 0
M  V30 5743 O 524.888 5.69602 -0.301632 0
M  V30 5744 O 523.822 5.58761 -2.23763 0
M  V30 5745 H 527.648 2.28942 -1.99548 0
M  V30 5746 H 525.233 1.08197 -1.03023 0
M  V30 5747 H 527.115 4.19039 -0.445452 0
M  V30 5748 H 525.79 3.22636 0.262216 0
M  V30 5749 H 524.697 3.12735 -2.05299 0
M  V30 5750 H 526.03 4.1254 -2.68462 0
M  V30 5751 N 527.682 1.05563 1.17022 0
M  V30 5752 C 528.629 0.659893 2.21165 0
M  V30 5753 C 529.599 -0.339813 1.62587 0
M  V30 5754 O 530.784 -0.230378 1.89404 0
M  V30 5755 C 527.924 0.0447297 3.45071 0
M  V30 5756 C 527.037 1.09372 4.17926 0
M  V30 5757 C 526.172 0.445481 5.29329 0
M  V30 5758 C 525.211 1.47852 5.93975 0
M  V30 5759 N 524.348 0.854172 6.96885 0
M  V30 5760 H 529.188 1.55243 2.54369 0
M  V30 5761 H 526.725 0.776336 1.24946 0
M  V30 5762 H 528.683 -0.329404 4.15898 0
M  V30 5763 H 527.313 -0.811244 3.1244 0
M  V30 5764 H 526.365 1.58564 3.45777 0
M  V30 5765 H 527.677 1.87773 4.62107 0
M  V30 5766 H 526.831 0.0179688 6.06697 0
M  V30 5767 H 525.57 -0.370481 4.86291 0
M  V30 5768 H 524.575 1.91601 5.15334 0
M  V30 5769 H 525.8 2.29645 6.39093 0
M  V30 5770 H 523.746 0.0587882 6.55974 0
M  V30 5771 H 523.663 1.57567 7.39397 0
M  V30 5772 H 524.931 0.451559 7.78191 0
M  V30 5773 N 529.16 -1.33526 0.837174 0
M  V30 5774 C 530.406 -1.9813 0.432704 0
M  V30 5775 C 530.739 -1.66168 -1.00508 0
M  V30 5776 O 530.014 -0.94069 -1.70239 0
M  V30 5777 C 530.297 -3.54151 0.651834 0
M  V30 5778 C 530.15 -3.95806 2.13676 0
M  V30 5779 C 531.469 -4.39993 0.0968937 0
M  V30 5780 H 528.588 -0.719713 0.15869 0
M  V30 5781 H 531.23 -1.58193 1.05237 0
M  V30 5782 H 529.38 -3.88301 0.124369 0
M  V30 5783 H 531.052 -3.71921 2.72896 0
M  V30 5784 H 529.295 -3.45599 2.62191 0
M  V30 5785 H 529.966 -5.0447 2.24084 0
M  V30 5786 H 532.442 -4.12479 0.547733 0
M  V30 5787 H 531.318 -5.48186 0.279917 0
M  V30 5788 H 531.579 -4.3066 -0.9992 0
M  V30 5789 N 530.638 -0.59345 -1.46 0
M  V30 5790 C 532.054 -0.255965 -1.57534 0
M  V30 5791 C 532.254 1.24167 -1.58697 0
M  V30 5792 O 531.31 2.02398 -1.50968 0
M  V30 5793 C 532.623 -0.91466 -2.86451 0
M  V30 5794 C 534.171 -0.889253 -3.00102 0
M  V30 5795 C 534.646 -1.52769 -4.3177 0
M  V30 5796 N 536.137 -1.49253 -4.38495 0
M  V30 5797 C 536.872 -1.9558 -5.39014 0
M  V30 5798 N 536.368 -2.49929 -6.46148 0
M  V30 5799 N 538.161 -1.86432 -5.30282 0
M  V30 5800 H 530.312 -1.56604 -1.43489 0
M  V30 5801 H 532.575 -0.655207 -0.685133 0
M  V30 5802 H 532.281 -1.96861 -2.91442 0
M  V30 5803 H 532.155 -0.429356 -3.74748 0
M  V30 5804 H 534.542 0.156111 -2.94687 0
M  V30 5805 H 534.623 -1.41268 -2.13253 0
M  V30 5806 H 534.267 -2.57231 -4.37944 0
M  V30 5807 H 534.197 -0.979398 -5.17412 0
M  V30 5808 H 536.688 -1.09536 -3.61677 0
M  V30 5809 H 537.001 -2.83109 -7.19075 0
M  V30 5810 H 535.346 -2.53961 -6.46938 0
M  V30 5811 H 538.537 -1.43722 -4.4549 0
M  V30 5812 H 538.71 -2.22852 -6.08474 0
M  V30 5813 N 532.116 1.54067 -0.331816 0
M  V30 5814 C 533.393 1.92915 0.322955 0
M  V30 5815 C 533.773 1.26225 1.69205 0
M  V30 5816 O 533.121 0.408919 2.24811 0
M  V30 5817 C 533.331 3.46619 0.406946 0
M  V30 5818 C 534.679 4.19386 0.663339 0
M  V30 5819 O 535.703 3.5282 0.489536 0
M  V30 5820 O 534.562 5.37288 0.999193 0
M  V30 5821 H 531.656 0.805808 0.186016 0
M  V30 5822 H 534.202 1.65342 -0.382135 0
M  V30 5823 H 532.974 3.87354 -0.554287 0
M  V30 5824 H 532.597 3.80324 1.15929 0
M  V30 5825 N 533.594 0.0601682 1.57485 0
M  V30 5826 C 534.843 -0.611101 1.9222 0
M  V30 5827 C 535.156 -1.71469 0.941159 0
M  V30 5828 O 536.362 -2.44473 1.18089 0
M  V30 5829 C 534.818 -1.13832 3.41424 0
M  V30 5830 C 534.426 -0.0663596 4.47951 0
M  V30 5831 C 536.17 -1.78432 3.85178 0
M  V30 5832 C 534.077 -0.606965 5.88277 0
M  V30 5833 H 533.007 -0.232033 0.71741 0
M  V30 5834 H 535.658 0.130518 1.83035 0
M  V30 5835 H 534.04 -1.93254 3.45643 0
M  V30 5836 H 535.214 0.707682 4.55333 0
M  V30 5837 H 533.529 0.482715 4.13593 0
M  V30 5838 H 536.126 -2.1989 4.87394 0
M  V30 5839 H 536.469 -2.63966 3.21913 0
M  V30 5840 H 537.002 -1.05651 3.83514 0
M  V30 5841 H 533.741 0.21095 6.5516 0
M  V30 5842 H 533.261 -1.34879 5.84438 0
M  V30 5843 H 534.94 -1.08704 6.37803 0
M  V30 5844 N 535.072 -1.5615 -0.213296 0
M  V30 5845 C 536.483 -1.69645 -0.779582 0
M  V30 5846 C 536.834 -0.663615 -1.84636 0
M  V30 5847 O 535.959 0.183633 -2.15619 0
M  V30 5848 C 536.554 -3.07567 -1.42084 0
M  V30 5849 C 535.113 -3.22889 -1.93442 0
M  V30 5850 C 534.26 -2.65581 -0.797612 0
M  V30 5851 H 537.211 -1.58696 0.0114951 0
M  V30 5852 H 537.232 -3.03884 -2.28986 0
M  V30 5853 H 536.744 -3.82716 -0.644187 0
M  V30 5854 H 534.845 -2.52623 -2.73884 0
M  V30 5855 H 534.958 -4.30197 -2.10872 0
M  V30 5856 H 533.322 -2.24278 -1.20712 0
M  V30 5857 H 534.105 -3.43284 -0.033494 0
M  V30 5858 N 536.55 0.480323 -1.50102 0
M  V30 5859 C 537.48 1.58769 -1.71215 0
M  V30 5860 C 538.461 1.60583 -0.560997 0
M  V30 5861 O 539.646 1.76996 -0.799127 0
M  V30 5862 C 536.776 2.97148 -1.79778 0
M  V30 5863 C 535.73 3.10201 -2.94888 0
M  V30 5864 C 535.056 4.50137 -2.88584 0
M  V30 5865 C 536.356 2.88283 -4.35534 0
M  V30 5866 H 538.05 1.41354 -2.6393 0
M  V30 5867 H 535.596 0.678591 -1.27008 0
M  V30 5868 H 537.549 3.74536 -1.93133 0
M  V30 5869 H 536.273 3.15699 -0.836772 0
M  V30 5870 H 534.932 2.35244 -2.81169 0
M  V30 5871 H 534.58 4.65593 -1.90349 0
M  V30 5872 H 534.28 4.59808 -3.65856 0
M  V30 5873 H 535.804 5.29558 -3.03976 0
M  V30 5874 H 537.218 3.55427 -4.49827 0
M  V30 5875 H 535.615 3.09408 -5.14186 0
M  V30 5876 H 536.685 1.84219 -4.48544 0
M  V30 5877 N 538.028 1.39524 0.732853 0
M  V30 5878 C 539.439 1.32905 1.31122 0
M  V30 5879 C 539.79 -0.00558708 1.96199 0
M  V30 5880 O 538.915 -0.907706 1.96443 0
M  V30 5881 C 539.51 2.40704 2.38426 0
M  V30 5882 C 538.069 2.37599 2.91931 0
M  V30 5883 C 537.216 2.2248 1.65523 0
M  V30 5884 H 540.167 1.49581 0.530207 0
M  V30 5885 H 540.188 2.07616 3.18867 0
M  V30 5886 H 539.7 3.37829 1.91033 0
M  V30 5887 H 537.801 1.44119 3.43599 0
M  V30 5888 H 537.914 3.32538 3.44899 0
M  V30 5889 H 536.278 1.69691 1.8994 0
M  V30 5890 H 537.061 3.21577 1.20178 0
M  V30 5891 N 539.506 -0.963266 1.24736 0
M  V30 5892 C 540.416 -2.09246 1.06082 0
M  V30 5893 C 541.432 -1.74 0.000363101 0
M  V30 5894 O 542.608 -2.0041 0.199479 0
M  V30 5895 C 539.673 -3.40115 0.672498 0
M  V30 5896 C 538.734 -3.89282 1.80993 0
M  V30 5897 C 537.967 -5.13905 1.44004 0
M  V30 5898 O 538.19 -5.69434 0.331835 0
M  V30 5899 O 537.124 -5.57566 2.26723 0
M  V30 5900 H 540.95 -2.27881 2.00759 0
M  V30 5901 H 538.535 -1.07649 1.03595 0
M  V30 5902 H 540.417 -4.18797 0.467668 0
M  V30 5903 H 539.092 -3.22771 -0.245102 0
M  V30 5904 H 537.999 -3.11642 2.06955 0
M  V30 5905 H 539.332 -4.1111 2.70646 0
M  V30 5906 N 540.985 -1.06182 -1.16461 0
M  V30 5907 C 541.895 -0.682671 -2.24448 0
M  V30 5908 C 542.911 0.30078 -1.71381 0
M  V30 5909 O 544.087 0.150376 -2.00838 0
M  V30 5910 C 541.152 -0.0737202 -3.46622 0
M  V30 5911 C 540.213 -1.10889 -4.14731 0
M  V30 5912 C 539.446 -0.528908 -5.31073 0
M  V30 5913 O 539.669 0.65868 -5.66584 0
M  V30 5914 O 538.603 -1.26805 -5.88391 0
M  V30 5915 H 542.429 -1.58291 -2.59187 0
M  V30 5916 H 540.014 -0.834013 -1.23954 0
M  V30 5917 H 541.896 0.264192 -4.20571 0
M  V30 5918 H 540.571 0.800015 -3.13658 0
M  V30 5919 H 539.478 -1.49896 -3.42756 0
M  V30 5920 H 540.811 -1.95412 -4.51747 0
M  V30 5921 N 542.463 1.3308 -0.844243 0
M  V30 5922 C 543.393 2.3161 -0.296493 0
M  V30 5923 C 544.374 1.59215 0.598707 0
M  V30 5924 O 545.559 1.87077 0.521134 0
M  V30 5925 C 542.689 3.43313 0.524762 0
M  V30 5926 C 541.643 4.27115 -0.275106 0
M  V30 5927 C 540.969 5.30483 0.670236 0
M  V30 5928 C 542.269 5.00443 -1.49514 0
M  V30 5929 H 543.963 2.77672 -1.11976 0
M  V30 5930 H 541.509 1.33496 -0.539899 0
M  V30 5931 H 543.462 4.11273 0.918298 0
M  V30 5932 H 542.186 2.95952 1.3813 0
M  V30 5933 H 540.845 3.60787 -0.650267 0
M  V30 5934 H 540.493 4.79379 1.52332 0
M  V30 5935 H 540.193 5.87435 0.139123 0
M  V30 5936 H 541.717 6.01308 1.06117 0
M  V30 5937 H 543.131 5.61141 -1.17447 0
M  V30 5938 H 541.528 5.67071 -1.96343 0
M  V30 5939 H 542.598 4.28906 -2.26202 0
M  V30 5940 N 543.941 0.601185 1.45683 0
M  V30 5941 C 545.19 0.0914953 2.01492 0
M  V30 5942 C 545.503 -1.28331 1.47616 0
M  V30 5943 O 546.709 -1.88537 1.95362 0
M  V30 5944 C 545.165 0.11291 3.59723 0
M  V30 5945 C 544.773 1.48717 4.22596 0
M  V30 5946 C 546.517 -0.341871 4.23121 0
M  V30 5947 C 544.424 1.46531 5.7296 0
M  V30 5948 H 543.354 0.0304365 0.753385 0
M  V30 5949 H 546.005 0.755568 1.67223 0
M  V30 5950 H 544.387 -0.617692 3.91153 0
M  V30 5951 H 545.561 2.23897 4.02749 0
M  V30 5952 H 543.876 1.88351 3.71366 0
M  V30 5953 H 546.473 -0.377304 5.33367 0
M  V30 5954 H 546.816 -1.36325 3.93346 0
M  V30 5955 H 547.349 0.335256 3.96385 0
M  V30 5956 H 544.088 2.46408 6.07423 0
M  V30 5957 H 543.608 0.755997 5.95017 0
M  V30 5958 H 545.287 1.18618 6.36034 0
M  V30 5959 N 545.419 -1.53889 0.339982 0
M  V30 5960 C 546.666 -2.00855 -0.257621 0
M  V30 5961 C 546.994 -1.22788 -1.50842 0
M  V30 5962 O 546.249 -0.302567 -1.93347 0
M  V30 5963 C 546.548 -3.51968 -0.620735 0
M  V30 5964 C 546.214 -4.47741 0.532771 0
M  V30 5965 C 544.876 -4.73645 0.849339 0
M  V30 5966 C 547.228 -5.04551 1.3068 0
M  V30 5967 C 544.556 -5.53614 1.94237 0
M  V30 5968 C 546.908 -5.85713 2.39005 0
M  V30 5969 C 545.572 -6.09912 2.71225 0
M  V30 5970 H 544.842 -0.734979 -0.0942703 0
M  V30 5971 H 547.489 -1.85714 0.467159 0
M  V30 5972 H 545.794 -3.64921 -1.42618 0
M  V30 5973 H 547.491 -3.85762 -1.09495 0
M  V30 5974 H 544.081 -4.27711 0.275973 0
M  V30 5975 H 548.265 -4.84507 1.07549 0
M  V30 5976 H 543.521 -5.7059 2.19628 0
M  V30 5977 H 547.695 -6.28748 2.99415 0
M  V30 5978 H 545.322 -6.71665 3.56047 0
M  V30 5979 N 546.897 -0.0685191 -1.57451 0
M  V30 5980 C 548.146 0.600898 -1.92541 0
M  V30 5981 C 548.459 1.70967 -0.950239 0
M  V30 5982 O 549.665 2.43844 -1.19384 0
M  V30 5983 C 548.121 1.12019 -3.42023 0
M  V30 5984 C 547.729 0.0426028 -4.4798 0
M  V30 5985 C 549.473 1.76386 -3.86119 0
M  V30 5986 C 547.38 0.575759 -5.88591 0
M  V30 5987 H 546.31 0.228225 -0.71863 0
M  V30 5988 H 548.961 -0.140223 -1.82963 0
M  V30 5989 H 547.343 1.91418 -3.46663 0
M  V30 5990 H 548.517 -0.73182 -4.54952 0
M  V30 5991 H 546.832 -0.504642 -4.13331 0
M  V30 5992 H 549.429 2.17302 -4.88553 0
M  V30 5993 H 549.772 2.62255 -3.23308 0
M  V30 5994 H 550.305 1.03615 -3.84069 0
M  V30 5995 H 547.044 -0.245691 -6.55039 0
M  V30 5996 H 546.564 1.31778 -5.85145 0
M  V30 5997 H 548.243 1.0532 -6.3837 0
M  V30 5998 N 548.375 1.56261 0.205012 0
M  V30 5999 C 549.621 1.80306 0.9283 0
M  V30 6000 C 549.954 0.640932 1.83319 0
M  V30 6001 O 549.229 -0.359032 1.91158 0
M  V30 6002 C 549.512 3.14547 1.75306 0
M  V30 6003 C 549.365 4.41236 0.873562 0
M  V30 6004 C 550.684 3.45382 2.72762 0
M  V30 6005 H 547.803 0.655929 0.336044 0
M  V30 6006 H 550.445 1.88984 0.196211 0
M  V30 6007 H 548.595 3.0728 2.37721 0
M  V30 6008 H 550.267 4.60539 0.264887 0
M  V30 6009 H 548.51 4.33427 0.179773 0
M  V30 6010 H 549.181 5.31639 1.48541 0
M  V30 6011 H 551.657 3.52884 2.20481 0
M  V30 6012 H 550.533 4.40449 3.2756 0
M  V30 6013 H 550.794 2.68377 3.51321 0
M  V30 6014 N 549.853 -0.472356 1.50355 0
M  V30 6015 C 551.13 -1.23356 1.51798 0
M  V30 6016 C 551.51 -2.09469 0.26193 0
M  V30 6017 O 550.858 -2.15677 -0.754691 0
M  V30 6018 C 551.068 -2.06568 2.81302 0
M  V30 6019 C 552.416 -2.648 3.31913 0
M  V30 6020 O 553.44 -2.16812 2.82614 0
M  V30 6021 O 552.299 -3.52231 4.17846 0
M  V30 6022 H 549.393 -0.559707 0.608816 0
M  V30 6023 H 551.939 -0.48428 1.62643 0
M  V30 6024 H 550.711 -1.43103 3.64194 0
M  V30 6025 H 550.334 -2.88633 2.73454 0
M  V30 6026 N 551.331 -1.39911 -0.725443 0
M  V30 6027 C 552.241 -1.41688 -1.8698 0
M  V30 6028 C 553.257 -0.310579 -1.71206 0
M  V30 6029 O 554.433 -0.55359 -1.93642 0
M  V30 6030 C 551.498 -1.26811 -3.22676 0
M  V30 6031 C 550.559 -2.47497 -3.50776 0
M  V30 6032 C 549.792 -2.3332 -4.79997 0
M  V30 6033 O 550.015 -1.34175 -5.54394 0
M  V30 6034 O 548.949 -3.22498 -5.08211 0
M  V30 6035 H 552.775 -2.38171 -1.88436 0
M  V30 6036 H 550.36 -1.21128 -0.874548 0
M  V30 6037 H 552.242 -1.20684 -4.03749 0
M  V30 6038 H 550.917 -0.334289 -3.21969 0
M  V30 6039 H 549.824 -2.59201 -2.69751 0
M  V30 6040 H 551.157 -3.39606 -3.5627 0
M  V30 6041 N 552.809 0.956637 -1.25245 0
M  V30 6042 C 553.756 2.053 -1.05454 0
M  V30 6043 C 554.726 1.66062 0.0356889 0
M  V30 6044 O 555.911 1.90415 -0.121099 0
M  V30 6045 C 553.051 3.38391 -0.677191 0
M  V30 6046 C 552.164 3.90758 -1.84206 0
M  V30 6047 C 551.299 5.12165 -1.40926 0
M  V30 6048 C 550.338 5.56757 -2.54338 0
M  V30 6049 N 549.475 6.69376 -2.11848 0
M  V30 6050 H 554.315 2.21562 -1.99284 0
M  V30 6051 H 551.852 1.08578 -0.992434 0
M  V30 6052 H 553.81 4.1488 -0.43938 0
M  V30 6053 H 552.44 3.22021 0.224127 0
M  V30 6054 H 551.492 3.10808 -2.19323 0
M  V30 6055 H 552.804 4.19802 -2.69383 0
M  V30 6056 H 551.958 5.96065 -1.13098 0
M  V30 6057 H 550.697 4.84832 -0.528175 0
M  V30 6058 H 549.702 4.71423 -2.82913 0
M  V30 6059 H 550.927 5.861 -3.43022 0
M  V30 6060 H 548.873 6.43756 -1.26153 0
M  V30 6061 H 548.79 6.97927 -2.90574 0
M  V30 6062 H 550.058 7.5669 -1.87191 0
M  V30 6063 N 554.287 1.06798 1.15896 0
M  V30 6064 C 555.533 0.788934 1.86825 0
M  V30 6065 C 555.866 -0.683084 1.8179 0
M  V30 6066 O 555.141 -1.50086 1.23711 0
M  V30 6067 C 555.424 1.29065 3.36176 0
M  V30 6068 C 555.277 2.8268 3.49874 0
M  V30 6069 C 556.596 0.902655 4.30744 0
M  V30 6070 H 553.715 0.288066 0.678371 0
M  V30 6071 H 556.357 1.32479 1.36195 0
M  V30 6072 H 554.507 0.834806 3.79425 0
M  V30 6073 H 556.179 3.36511 3.15528 0
M  V30 6074 H 554.422 3.21157 2.91617 0
M  V30 6075 H 555.093 3.12852 4.54783 0
M  V30 6076 H 557.569 1.29535 3.95424 0
M  V30 6077 H 556.445 1.28111 5.3374 0
M  V30 6078 H 556.706 -0.191951 4.41683 0
M  V30 6079 N 555.766 -1.3263 0.851289 0
M  V30 6080 C 556.696 -2.31449 0.308771 0
M  V30 6081 C 557.677 -1.59531 -0.590255 0
M  V30 6082 O 558.862 -1.87351 -0.511205 0
M  V30 6083 C 555.992 -3.43586 -0.506548 0
M  V30 6084 C 554.946 -4.26963 0.297753 0
M  V30 6085 C 554.272 -5.30831 -0.642094 0
M  V30 6086 C 555.572 -4.99643 1.52166 0
M  V30 6087 H 557.266 -2.77074 1.13447 0
M  V30 6088 H 554.812 -1.33207 0.546971 0
M  V30 6089 H 556.765 -4.11754 -0.896474 0
M  V30 6090 H 555.489 -2.96681 -1.36558 0
M  V30 6091 H 554.148 -3.60437 0.669391 0
M  V30 6092 H 553.796 -4.8018 -1.49788 0
M  V30 6093 H 553.496 -5.87501 -0.107968 0
M  V30 6094 H 555.02 -6.01862 -1.02927 0
M  V30 6095 H 556.434 -5.6051 1.20421 0
M  V30 6096 H 554.831 -5.66022 1.99347 0
M  V30 6097 H 555.901 -4.27701 2.28474 0
M  V30 6098 N 557.244 -0.608902 -1.45362 0
M  V30 6099 C 558.192 0.121639 -2.32282 0
M  V30 6100 C 559.186 0.858301 -1.46046 0
M  V30 6101 O 560.392 0.773718 -1.62523 0
M  V30 6102 H 556.767 0.058086 -0.749753 0
M  V30 6103 H 558.738 -0.629866 -2.91677 0
M  V30 6104 C 557.487 1.1047 -3.29684 0
M  V30 6105 H 556.81 0.547278 -3.96036 0
M  V30 6106 H 558.25 1.58576 -3.9323 0
M  V30 6107 C 556.709 2.17891 -2.56954 0
M  V30 6108 O 557.239 3.25652 -2.35189 0
M  V30 6109 N 555.445 1.93211 -2.17066 0
M  V30 6110 H 554.992 1.05584 -2.34967 0
M  V30 6111 H 554.95 2.6529 -1.68727 0
M  V30 6112 N 558.722 1.53707 -0.348139 0
M  V30 6113 C 559.999 1.93247 0.302475 0
M  V30 6114 C 560.379 1.28012 1.67857 0
M  V30 6115 O 559.727 0.43274 2.24365 0
M  V30 6116 C 559.937 3.47031 0.370159 0
M  V30 6117 C 561.285 4.20066 0.61882 0
M  V30 6118 O 562.309 3.53319 0.452087 0
M  V30 6119 O 561.168 5.38318 0.94215 0
M  V30 6120 H 558.262 0.807736 0.177458 0
M  V30 6121 H 560.808 1.64927 -0.399651 0
M  V30 6122 H 559.58 3.86745 -0.59534 0
M  V30 6123 H 559.203 3.81532 1.11888 0
M  V30 6124 N 560.2 0.0768682 1.57412 0
M  V30 6125 C 561.449 -0.590679 1.92857 0
M  V30 6126 C 561.762 -1.70461 0.959293 0
M  V30 6127 O 562.968 -2.43207 1.20675 0
M  V30 6128 C 561.424 -1.10204 3.42612 0
M  V30 6129 C 561.032 -0.0188447 4.47996 0
M  V30 6130 C 562.776 -1.74336 3.87049 0
M  V30 6131 C 560.683 -0.544536 5.88888 0
M  V30 6132 H 559.613 -0.224411 0.71983 0
M  V30 6133 H 562.264 0.149924 1.82887 0
M  V30 6134 H 560.646 -1.89577 3.47673 0
M  V30 6135 H 561.82 0.755936 4.54557 0
M  V30 6136 H 560.135 0.526555 4.13057 0
M  V30 6137 H 562.732 -2.14708 4.89699 0
M  V30 6138 H 563.075 -2.60537 3.24694 0
M  V30 6139 H 563.608 -1.01577 3.84613 0
M  V30 6140 H 560.347 0.280426 6.549 0
M  V30 6141 H 559.867 -1.28673 5.85836 0
M  V30 6142 H 561.546 -1.01933 6.3892 0
M  V30 6143 N 561.678 -1.56367 -0.196722 0
M  V30 6144 C 562.626 -1.95304 -1.2633 0
M  V30 6145 C 563.62 -0.838252 -1.47206 0
M  V30 6146 O 564.826 -1.02325 -1.48087 0
M  V30 6147 H 561.201 -0.621013 -0.424083 0
M  V30 6148 H 563.172 -2.84254 -0.907879 0
M  V30 6149 C 561.921 -2.3074 -2.60104 0
M  V30 6150 H 561.244 -3.16047 -2.44856 0
M  V30 6151 H 562.684 -2.61849 -3.33484 0
M  V30 6152 C 561.143 -1.14143 -3.16975 0
M  V30 6153 O 561.673 -0.415602 -3.99544 0
M  V30 6154 N 559.879 -0.91867 -2.75697 0
M  V30 6155 H 559.426 -1.51065 -2.08656 0
M  V30 6156 H 559.384 -0.140321 -3.14087 0
M  V30 6157 N 563.156 0.464375 -1.50603 0
M  V30 6158 C 564.088 1.57916 -1.66118 0
M  V30 6159 C 565.101 1.53497 -0.54246 0
M  V30 6160 O 566.29 1.58763 -0.815877 0
M  V30 6161 C 563.39 2.96809 -1.63577 0
M  V30 6162 C 562.563 3.26026 -2.91592 0
M  V30 6163 C 561.622 4.44506 -2.81604 0
M  V30 6164 O 560.648 4.44484 -3.55559 0
M  V30 6165 N 561.85 5.46549 -1.95614 0
M  V30 6166 H 564.615 1.45022 -2.62276 0
M  V30 6167 H 562.176 0.652903 -1.48151 0
M  V30 6168 H 564.168 3.74048 -1.54499 0
M  V30 6169 H 562.738 3.03438 -0.751262 0
M  V30 6170 H 561.958 2.37337 -3.14746 0
M  V30 6171 H 563.246 3.42361 -3.76386 0
M  V30 6172 H 562.644 5.49391 -1.34854 0
M  V30 6173 H 561.201 6.22746 -1.92435 0
M  V30 6174 N 564.634 1.40294 0.718013 0
M  V30 6175 C 565.597 1.4012 1.81381 0
M  V30 6176 C 566.597 0.295405 1.58063 0
M  V30 6177 O 567.787 0.554187 1.6515 0
M  V30 6178 C 564.919 1.19056 3.19435 0
M  V30 6179 H 566.112 2.37645 1.82933 0
M  V30 6180 H 563.665 1.26107 0.923405 0
M  V30 6181 H 564.4 0.222809 3.23534 0
M  V30 6182 H 564.185 1.99152 3.37758 0
M  V30 6183 H 565.675 1.21716 3.99468 0
M  V30 6184 N 566.112 -0.949982 1.2575 0
M  V30 6185 C 567.059 -2.04738 1.06541 0
M  V30 6186 C 568.029 -1.66078 -0.0268818 0
M  V30 6187 O 569.214 -1.90348 0.131196 0
M  V30 6188 C 566.354 -3.38027 0.695127 0
M  V30 6189 C 565.467 -3.89776 1.86276 0
M  V30 6190 C 564.602 -5.11411 1.4364 0
M  V30 6191 C 563.641 -5.554 2.57287 0
M  V30 6192 N 562.778 -6.68244 2.15395 0
M  V30 6193 H 567.618 -2.20502 2.00457 0
M  V30 6194 H 565.155 -1.0805 0.998178 0
M  V30 6195 H 567.113 -4.14641 0.461375 0
M  V30 6196 H 565.743 -3.22135 -0.207046 0
M  V30 6197 H 564.795 -3.0964 2.20969 0
M  V30 6198 H 566.107 -4.18368 2.71606 0
M  V30 6199 H 565.261 -5.95457 1.16257 0
M  V30 6200 H 564 -4.84545 0.553879 0
M  V30 6201 H 563.005 -4.69916 2.85409 0
M  V30 6202 H 564.23 -5.84272 3.46125 0
M  V30 6203 H 562.176 -6.43078 1.29565 0
M  V30 6204 H 562.093 -6.96377 2.94272 0
M  V30 6205 H 563.361 -7.55687 1.91201 0
M  V30 6206 N 567.59 -1.07411 -1.15328 0
M  V30 6207 C 568.553 -0.698914 -2.18284 0
M  V30 6208 C 569.553 0.261149 -1.58665 0
M  V30 6209 O 570.743 0.0420277 -1.74149 0
M  V30 6210 C 567.875 -0.0302427 -3.40887 0
M  V30 6211 H 569.068 -1.61045 -2.52991 0
M  V30 6212 H 566.621 -0.870724 -1.298 0
M  V30 6213 H 567.356 0.893505 -3.11748 0
M  V30 6214 H 567.141 -0.720759 -3.85419 0
M  V30 6215 H 568.631 0.21759 -4.17033 0
M  V30 6216 N 569.068 1.32177 -0.85831 0
M  V30 6217 C 570 2.27688 -0.262835 0
M  V30 6218 C 571.013 1.52588 0.567513 0
M  V30 6219 O 572.202 1.74156 0.391407 0
M  V30 6220 C 569.302 3.32668 0.646937 0
M  V30 6221 C 568.475 4.37148 -0.148372 0
M  V30 6222 C 567.534 5.21686 0.687728 0
M  V30 6223 O 566.56 5.69074 0.119934 0
M  V30 6224 N 567.762 5.44892 2.00182 0
M  V30 6225 H 570.527 2.79426 -1.08356 0
M  V30 6226 H 568.088 1.45076 -0.718647 0
M  V30 6227 H 570.08 3.86134 1.2117 0
M  V30 6228 H 568.65 2.81061 1.36834 0
M  V30 6229 H 567.87 3.83915 -0.894572 0
M  V30 6230 H 569.158 5.04038 -0.694514 0
M  V30 6231 H 568.556 5.08128 2.4864 0
M  V30 6232 H 567.113 6.0134 2.51463 0
M  V30 6233 N 570.547 0.616602 1.45037 0
M  V30 6234 C 571.777 0.121791 2.06241 0
M  V30 6235 C 572.185 -1.20289 1.46038 0
M  V30 6236 O 571.528 -1.7456 0.572242 0
M  V30 6237 C 571.59 -0.0827345 3.59405 0
M  V30 6238 C 571.254 1.16153 4.41993 0
M  V30 6239 C 572.251 2.08183 4.76399 0
M  V30 6240 C 569.936 1.39288 4.82601 0
M  V30 6241 C 571.93 3.21668 5.5028 0
M  V30 6242 C 569.617 2.53073 5.56235 0
M  V30 6243 C 570.615 3.44091 5.89992 0
M  V30 6244 O 570.303 4.55894 6.6213 0
M  V30 6245 H 570.035 0.0701667 0.672349 0
M  V30 6246 H 572.589 0.846877 1.87129 0
M  V30 6247 H 570.819 -0.862812 3.76952 0
M  V30 6248 H 572.508 -0.530273 4.02421 0
M  V30 6249 H 573.274 1.91538 4.45576 0
M  V30 6250 H 569.153 0.693396 4.55755 0
M  V30 6251 H 572.697 3.92733 5.76547 0
M  V30 6252 H 568.594 2.69667 5.86472 0
M  V30 6253 H 569.362 4.5469 6.80587 0
M  V30 6254 N 572.025 -1.5352 0.356285 0
M  V30 6255 C 572.955 -2.28372 -0.486661 0
M  V30 6256 C 573.936 -1.30432 -1.09185 0
M  V30 6257 O 575.121 -1.59291 -1.11085 0
M  V30 6258 C 572.251 -3.06604 -1.63129 0
M  V30 6259 C 571.205 -4.12154 -1.15381 0
M  V30 6260 C 570.531 -4.78415 -2.38796 0
M  V30 6261 C 571.831 -5.21724 -0.245179 0
M  V30 6262 H 573.525 -2.99083 0.137797 0
M  V30 6263 H 571.071 -1.43841 0.0677134 0
M  V30 6264 H 573.024 -3.57712 -2.22755 0
M  V30 6265 H 571.748 -2.33568 -2.28284 0
M  V30 6266 H 570.407 -3.61978 -0.580294 0
M  V30 6267 H 570.055 -4.01959 -3.02387 0
M  V30 6268 H 569.755 -5.49734 -2.07524 0
M  V30 6269 H 571.279 -5.32313 -2.99125 0
M  V30 6270 H 572.693 -5.68391 -0.748646 0
M  V30 6271 H 571.09 -6.00095 -0.0237608 0
M  V30 6272 H 572.16 -4.79596 0.715229 0
M  V30 6273 N 573.503 -0.0852151 -1.57369 0
M  V30 6274 C 574.919 0.271436 -1.57275 0
M  V30 6275 C 575.119 1.69109 -1.09565 0
M  V30 6276 O 574.175 2.40549 -0.767611 0
M  V30 6277 C 575.488 0.0688638 -3.00621 0
M  V30 6278 C 577.036 0.137373 -3.12698 0
M  V30 6279 C 577.511 -0.0370832 -4.57985 0
M  V30 6280 N 579.002 0.0180794 -4.63196 0
M  V30 6281 C 579.737 -0.0922953 -5.73326 0
M  V30 6282 N 579.233 -0.256948 -6.92323 0
M  V30 6283 N 581.026 -0.0342702 -5.6209 0
M  V30 6284 H 573.177 -1.01288 -1.86693 0
M  V30 6285 H 575.44 -0.396138 -0.861266 0
M  V30 6286 H 575.146 -0.911277 -3.39689 0
M  V30 6287 H 575.02 0.815442 -3.6828 0
M  V30 6288 H 577.407 1.10801 -2.73509 0
M  V30 6289 H 577.488 -0.640532 -2.47651 0
M  V30 6290 H 577.132 -1.00455 -4.97867 0
M  V30 6291 H 577.062 0.760392 -5.21081 0
M  V30 6292 H 579.553 0.143202 -3.77629 0
M  V30 6293 H 579.866 -0.332949 -7.72082 0
M  V30 6294 H 578.211 -0.292487 -6.94384 0
M  V30 6295 H 581.402 0.0931605 -4.68007 0
M  V30 6296 H 581.575 -0.12374 -6.47882 0
M  V30 6297 N 574.981 1.5647 0.188427 0
M  V30 6298 C 575.891 1.98285 1.2538 0
M  V30 6299 C 576.907 0.891535 1.49424 0
M  V30 6300 O 578.083 1.19782 1.61908 0
M  V30 6301 C 575.148 2.31965 2.57669 0
M  V30 6302 C 574.209 3.54838 2.41638 0
M  V30 6303 C 573.442 3.86901 3.67618 0
M  V30 6304 O 573.665 3.20163 4.72072 0
M  V30 6305 O 572.599 4.80309 3.62749 0
M  V30 6306 H 576.425 2.89145 0.928912 0
M  V30 6307 H 574.01 1.44112 0.393955 0
M  V30 6308 H 575.892 2.54673 3.35737 0
M  V30 6309 H 574.567 1.44271 2.89771 0
M  V30 6310 H 573.474 3.37369 1.61658 0
M  V30 6311 H 574.807 4.43019 2.14465 0
M  V30 6312 N 576.459 -0.456382 1.50847 0
M  V30 6313 C 577.422 -1.53493 1.70213 0
M  V30 6314 C 578.422 -1.50264 0.572481 0
M  V30 6315 O 579.612 -1.52623 0.839751 0
M  V30 6316 C 576.744 -2.93091 1.741 0
M  V30 6317 H 577.937 -1.37633 2.66453 0
M  V30 6318 H 575.49 -0.683776 1.4055 0
M  V30 6319 H 576.225 -3.14378 0.796063 0
M  V30 6320 H 576.01 -2.9684 2.5618 0
M  V30 6321 H 577.5 -3.71368 1.90987 0
M  V30 6322 N 577.937 -1.40673 -0.710563 0
M  V30 6323 C 579.162 -1.42741 -1.50465 0
M  V30 6324 C 579.587 -0.0302116 -1.88076 0
M  V30 6325 O 578.945 0.962945 -1.53613 0
M  V30 6326 C 578.993 -2.32873 -2.75322 0
M  V30 6327 O 578.097 -1.77544 -3.72226 0
M  V30 6328 H 577.438 -0.485056 -0.45345 0
M  V30 6329 H 579.968 -1.84961 -0.874681 0
M  V30 6330 H 579.978 -2.48233 -3.23797 0
M  V30 6331 H 578.653 -3.34401 -2.47283 0
M  V30 6332 H 577.23 -1.71556 -3.31093 0
M  V30 6333 N 579.415 0.9433 -1.26252 0
M  V30 6334 C 580.692 1.66639 -1.02424 0
M  V30 6335 C 581.072 2.06335 0.446006 0
M  V30 6336 O 580.42 1.78551 1.42589 0
M  V30 6337 C 580.63 2.88019 -1.97094 0
M  V30 6338 C 581.978 3.59718 -2.25584 0
M  V30 6339 O 583.002 2.9812 -1.94943 0
M  V30 6340 O 581.861 4.7066 -2.77743 0
M  V30 6341 H 578.955 0.729643 -0.389294 0
M  V30 6342 H 581.501 0.995218 -1.37454 0
M  V30 6343 H 580.273 2.5556 -2.96319 0
M  V30 6344 H 579.896 3.62863 -1.62532 0
M  V30 6345 N 580.893 1.08022 1.14757 0
M  V30 6346 C 581.823 0.728248 2.21853 0
M  V30 6347 C 582.804 -0.287486 1.67653 0
M  V30 6348 O 583.989 -0.158727 1.9355 0
M  V30 6349 C 581.119 0.132549 3.47047 0
M  V30 6350 C 580.073 1.07619 4.14249 0
M  V30 6351 C 579.399 0.342907 5.33599 0
M  V30 6352 C 580.699 2.41268 4.63235 0
M  V30 6353 H 582.393 1.62365 2.51551 0
M  V30 6354 H 579.939 0.782125 1.20908 0
M  V30 6355 H 581.892 -0.125665 4.21213 0
M  V30 6356 H 580.616 -0.797971 3.16702 0
M  V30 6357 H 579.275 1.31944 3.42033 0
M  V30 6358 H 578.923 -0.59129 4.99513 0
M  V30 6359 H 578.623 0.971955 5.79506 0
M  V30 6360 H 580.147 0.0926538 6.1053 0
M  V30 6361 H 581.561 2.21232 5.28894 0
M  V30 6362 H 579.958 2.9983 5.19829 0
M  V30 6363 H 581.028 3.03079 3.78512 0
M  V30 6364 N 582.371 -1.3172 0.865308 0
M  V30 6365 C 583.303 -2.27545 0.274906 0
M  V30 6366 C 584.316 -1.52887 -0.559413 0
M  V30 6367 O 585.505 -1.74361 -0.382166 0
M  V30 6368 C 582.605 -3.33006 -0.629286 0
M  V30 6369 C 581.778 -4.37063 0.171553 0
M  V30 6370 C 580.837 -5.22044 -0.660052 0
M  V30 6371 O 579.863 -5.69129 -0.0897527 0
M  V30 6372 N 581.065 -5.45946 -1.97289 0
M  V30 6373 H 583.83 -2.78848 1.09836 0
M  V30 6374 H 581.391 -1.44693 0.726331 0
M  V30 6375 H 583.383 -3.86772 -1.19121 0
M  V30 6376 H 581.953 -2.81782 -1.35342 0
M  V30 6377 H 581.173 -3.83436 0.914919 0
M  V30 6378 H 582.461 -5.03662 0.721235 0
M  V30 6379 H 581.859 -5.0944 -2.45942 0
M  V30 6380 H 580.416 -6.02665 -2.4827 0
M  V30 6381 N 583.85 -0.624285 -1.44708 0
M  V30 6382 C 585.099 -0.123539 -2.01321 0
M  V30 6383 C 585.412 1.25966 -1.49639 0
M  V30 6384 O 586.618 1.85405 -1.98336 0
M  V30 6385 C 585.074 -0.170124 -3.59498 0
M  V30 6386 C 584.682 -1.55421 -4.20176 0
M  V30 6387 C 586.426 0.274513 -4.23611 0
M  V30 6388 C 584.332 -1.55628 -5.70556 0
M  V30 6389 H 583.263 -0.0424183 -0.752806 0
M  V30 6390 H 585.913 -0.782076 -1.65999 0
M  V30 6391 H 584.296 0.555385 -3.92086 0
M  V30 6392 H 585.47 -2.30276 -3.99136 0
M  V30 6393 H 583.784 -1.94235 -3.68323 0
M  V30 6394 H 586.382 0.292402 -5.339 0
M  V30 6395 H 586.725 1.3005 -3.95465 0
M  V30 6396 H 587.258 -0.398275 -3.95801 0
M  V30 6397 H 583.997 -2.56041 -6.03426 0
M  V30 6398 H 583.517 -0.850563 -5.93739 0
M  V30 6399 H 585.196 -1.28721 -6.34066 0
M  V30 6400 N 585.328 1.53329 -0.364422 0
M  V30 6401 C 586.291 2.24323 0.470292 0
M  V30 6402 C 587.291 1.25068 1.01067 0
M  V30 6403 O 588.481 1.49354 0.896605 0
M  V30 6404 C 585.613 2.97908 1.65722 0
M  V30 6405 H 586.806 2.9952 -0.150917 0
M  V30 6406 H 584.359 1.55868 -0.116092 0
M  V30 6407 H 585.094 2.2695 2.31655 0
M  V30 6408 H 584.879 3.70732 1.27671 0
M  V30 6409 H 586.369 3.5188 2.24878 0
M  V30 6410 N 586.806 0.0935595 1.57322 0
M  V30 6411 C 587.769 -0.851426 2.12799 0
M  V30 6412 C 588.769 -1.21187 1.0569 0
M  V30 6413 O 589.959 -1.14156 1.31583 0
M  V30 6414 C 587.091 -2.14779 2.64731 0
M  V30 6415 H 588.284 -0.369733 2.97612 0
M  V30 6416 H 585.837 -0.155417 1.55525 0
M  V30 6417 H 586.572 -2.67437 1.83434 0
M  V30 6418 H 586.357 -1.89907 3.43042 0
M  V30 6419 H 587.847 -2.82383 3.07651 0
M  V30 6420 N 588.284 -1.56567 -0.180126 0
M  V30 6421 C 589.514 -1.85349 -0.912647 0
M  V30 6422 C 589.922 -0.675795 -1.76719 0
M  V30 6423 O 589.265 0.3645 -1.80047 0
M  V30 6424 C 589.327 -3.08431 -1.84691 0
M  V30 6425 C 588.991 -4.41694 -1.17284 0
M  V30 6426 C 589.988 -5.17062 -0.542532 0
M  V30 6427 C 587.673 -4.8843 -1.17223 0
M  V30 6428 C 589.667 -6.37351 0.0793953 0
M  V30 6429 C 587.354 -6.08652 -0.54647 0
M  V30 6430 C 588.352 -6.82955 0.0782458 0
M  V30 6431 O 588.04 -8.00897 0.694158 0
M  V30 6432 H 587.772 -0.619286 -0.271036 0
M  V30 6433 H 590.326 -2.0454 -0.187768 0
M  V30 6434 H 588.556 -2.85163 -2.61188 0
M  V30 6435 H 590.245 -3.23733 -2.44851 0
M  V30 6436 H 591.011 -4.8204 -0.535045 0
M  V30 6437 H 586.89 -4.30542 -1.64788 0
M  V30 6438 H 590.434 -6.95287 0.567612 0
M  V30 6439 H 586.331 -6.4314 -0.55151 0
M  V30 6440 H 587.099 -8.16352 0.592537 0
M  V30 6441 N 589.762 0.448376 -1.51087 0
M  V30 6442 C 590.725 1.52588 -1.71025 0
M  V30 6443 C 591.725 1.49958 -0.580442 0
M  V30 6444 O 592.915 1.52176 -0.847833 0
M  V30 6445 C 590.047 2.92163 -1.75652 0
M  V30 6446 H 591.24 1.36218 -2.67179 0
M  V30 6447 H 588.793 0.676313 -1.4091 0
M  V30 6448 H 589.528 3.13951 -0.812724 0
M  V30 6449 H 589.313 2.95478 -2.57751 0
M  V30 6450 H 590.803 3.70349 -1.92953 0
M  V30 6451 N 591.24 1.41047 0.703093 0
M  V30 6452 C 592.487 1.4 1.46309 0
M  V30 6453 C 592.815 0.00654574 1.94499 0
M  V30 6454 O 592.07 -0.980255 1.6938 0
M  V30 6455 C 592.369 2.34686 2.6955 0
M  V30 6456 C 592.035 3.81684 2.40058 0
M  V30 6457 C 590.697 4.21731 2.31725 0
M  V30 6458 C 593.049 4.74525 2.15581 0
M  V30 6459 C 590.377 5.52637 1.97001 0
M  V30 6460 C 592.729 6.05744 1.82366 0
M  V30 6461 C 591.393 6.44819 1.72524 0
M  V30 6462 H 590.663 0.512295 0.535382 0
M  V30 6463 H 593.31 1.73792 0.804275 0
M  V30 6464 H 591.615 1.94122 3.40329 0
M  V30 6465 H 593.312 2.31152 3.27673 0
M  V30 6466 H 589.902 3.49963 2.47435 0
M  V30 6467 H 594.086 4.44395 2.20968 0
M  V30 6468 H 589.342 5.81802 1.87928 0
M  V30 6469 H 593.516 6.77189 1.62444 0
M  V30 6470 H 591.143 7.46168 1.45385 0
M  V30 6471 N 592.718 -0.936591 1.26751 0
M  V30 6472 C 593.946 -1.71758 1.15355 0
M  V30 6473 C 594.361 -1.86549 -0.290683 0
M  V30 6474 O 593.718 -1.37616 -1.19868 0
M  V30 6475 C 593.769 -3.12193 1.82258 0
M  V30 6476 O 593.49 -2.98105 3.21038 0
M  V30 6477 C 594.991 -4.06485 1.76875 0
M  V30 6478 H 592.211 -0.537636 0.401483 0
M  V30 6479 H 594.755 -1.17382 1.67457 0
M  V30 6480 H 592.91 -3.63456 1.34083 0
M  V30 6481 H 593.324 -3.86824 3.54214 0
M  V30 6482 H 594.798 -5.02569 2.28316 0
M  V30 6483 H 595.275 -4.32986 0.736216 0
M  V30 6484 H 595.881 -3.61144 2.24623 0
M  V30 6485 N 594.196 -1.08629 -1.14182 0
M  V30 6486 C 595.421 -0.83902 -1.89671 0
M  V30 6487 C 595.846 0.603332 -1.78161 0
M  V30 6488 O 595.204 1.42301 -1.12339 0
M  V30 6489 C 595.252 -1.26854 -3.37551 0
M  V30 6490 O 594.356 -0.42188 -4.10236 0
M  V30 6491 H 593.697 -0.304545 -0.590041 0
M  V30 6492 H 596.227 -1.4483 -1.44518 0
M  V30 6493 H 596.237 -1.25038 -3.88368 0
M  V30 6494 H 594.912 -2.31901 -3.45246 0
M  V30 6495 H 593.489 -0.503654 -3.69483 0
M  V30 6496 N 595.674 1.31259 -0.872281 0
M  V30 6497 C 596.921 1.96622 -0.484365 0
M  V30 6498 C 597.249 1.68939 0.963841 0
M  V30 6499 O 596.504 0.97974 1.6941 0
M  V30 6500 C 596.803 3.50659 -0.690889 0
M  V30 6501 C 596.469 3.98366 -2.11224 0
M  V30 6502 C 595.131 4.11104 -2.50094 0
M  V30 6503 C 597.483 4.23425 -3.0391 0
M  V30 6504 C 594.811 4.46254 -3.80887 0
M  V30 6505 C 597.163 4.60039 -4.3422 0
M  V30 6506 C 595.827 4.70984 -4.73001 0
M  V30 6507 H 595.097 0.71949 -0.177242 0
M  V30 6508 H 597.744 1.56353 -1.10571 0
M  V30 6509 H 596.049 3.91798 0.0135782 0
M  V30 6510 H 597.746 3.99284 -0.370534 0
M  V30 6511 H 594.336 3.88949 -1.80047 0
M  V30 6512 H 598.52 4.13075 -2.75104 0
M  V30 6513 H 593.776 4.52926 -4.10692 0
M  V30 6514 H 597.95 4.78381 -5.06088 0
M  V30 6515 H 595.577 4.97977 -5.7439 0
M  V30 6516 N 597.152 0.631951 1.44375 0
M  V30 6517 C 598.4 0.136497 2.01639 0
M  V30 6518 C 598.721 -1.24637 1.49969 0
M  V30 6519 O 597.991 -1.82827 0.70363 0
M  V30 6520 H 596.571 0.0474703 0.74549 0
M  V30 6521 H 599.233 0.818837 1.76865 0
M  V30 6522 H 598.329 0.104817 3.11924 0
M  V30 6523 N 598.631 -1.53133 0.372548 0
M  V30 6524 C 599.578 -2.25951 -0.470631 0
M  V30 6525 C 600.548 -1.26895 -1.07176 0
M  V30 6526 O 601.733 -1.55691 -1.10294 0
M  V30 6527 C 598.873 -3.05726 -1.6008 0
M  V30 6528 C 597.986 -4.19684 -1.02416 0
M  V30 6529 C 597.121 -4.86888 -2.124 0
M  V30 6530 C 596.16 -5.92866 -1.52238 0
M  V30 6531 N 595.297 -6.53732 -2.56084 0
M  V30 6532 H 600.137 -2.97587 0.156816 0
M  V30 6533 H 597.674 -1.4683 0.0891571 0
M  V30 6534 H 599.632 -3.50258 -2.26661 0
M  V30 6535 H 598.262 -2.36331 -2.1988 0
M  V30 6536 H 597.314 -3.79588 -0.248426 0
M  V30 6537 H 598.626 -4.95821 -0.544366 0
M  V30 6538 H 597.78 -5.34638 -2.86787 0
M  V30 6539 H 596.519 -4.10239 -2.63734 0
M  V30 6540 H 595.524 -5.4447 -0.763685 0
M  V30 6541 H 596.749 -6.71439 -1.0172 0
M  V30 6542 H 594.695 -5.79932 -3.06618 0
M  V30 6543 H 594.612 -7.25429 -2.12811 0
M  V30 6544 H 595.88 -7.0613 -3.30152 0
M  V30 6545 N 600.109 -0.101901 -1.5727 0
M  V30 6546 C 601.056 0.854577 -2.14396 0
M  V30 6547 C 602.026 1.27521 -1.06432 0
M  V30 6548 O 603.211 1.35575 -1.34253 0
M  V30 6549 C 600.351 2.10576 -2.73408 0
M  V30 6550 C 599.464 1.73504 -3.95626 0
M  V30 6551 C 598.599 2.9346 -4.42781 0
M  V30 6552 C 597.638 2.52547 -5.57572 0
M  V30 6553 N 596.775 3.65359 -5.99547 0
M  V30 6554 H 601.615 0.360578 -2.9581 0
M  V30 6555 H 599.152 0.166303 -1.46157 0
M  V30 6556 H 601.11 2.83859 -3.05745 0
M  V30 6557 H 599.74 2.57463 -1.94711 0
M  V30 6558 H 598.792 0.901622 -3.6956 0
M  V30 6559 H 600.104 1.39426 -4.78917 0
M  V30 6560 H 599.258 3.74988 -4.76937 0
M  V30 6561 H 597.997 3.30753 -3.58404 0
M  V30 6562 H 597.002 1.69446 -5.23037 0
M  V30 6563 H 598.227 2.1639 -6.43702 0
M  V30 6564 H 596.173 4.02358 -5.18116 0
M  V30 6565 H 596.09 3.35148 -6.77652 0
M  V30 6566 H 597.358 4.47378 -6.38336 0
M  V30 6567 N 601.587 1.56661 0.17182 0
M  V30 6568 C 602.517 1.99401 1.21498 0
M  V30 6569 C 603.498 0.869516 1.46197 0
M  V30 6570 O 604.683 1.13556 1.57539 0
M  V30 6571 C 601.813 2.35346 2.55401 0
M  V30 6572 C 600.767 3.5075 2.45272 0
M  V30 6573 C 600.093 3.72437 3.8366 0
M  V30 6574 C 601.393 4.84216 1.95787 0
M  V30 6575 H 603.087 2.86792 0.859699 0
M  V30 6576 H 600.633 1.37977 0.412103 0
M  V30 6577 H 602.586 2.63843 3.2858 0
M  V30 6578 H 601.31 1.44864 2.92715 0
M  V30 6579 H 599.969 3.2238 1.74547 0
M  V30 6580 H 599.617 2.79246 4.18367 0
M  V30 6581 H 599.317 4.50087 3.77751 0
M  V30 6582 H 600.841 4.03334 4.58426 0
M  V30 6583 H 602.255 5.11592 2.5874 0
M  V30 6584 H 600.652 5.65498 2.00827 0
M  V30 6585 H 601.722 4.76243 0.912159 0
M  V30 6586 N 603.065 -0.440357 1.51323 0
M  V30 6587 C 604.293 -1.21255 1.67645 0
M  V30 6588 C 604.708 -1.85088 0.37252 0
M  V30 6589 O 604.065 -1.70582 -0.648683 0
M  V30 6590 C 604.116 -2.29881 2.78993 0
M  V30 6591 O 603.837 -1.68659 4.04334 0
M  V30 6592 C 605.338 -3.20214 3.06558 0
M  V30 6593 H 602.558 -0.36558 0.562666 0
M  V30 6594 H 605.102 -0.52214 1.97722 0
M  V30 6595 H 603.257 -2.94643 2.51524 0
M  V30 6596 H 603.671 -2.40426 4.6615 0
M  V30 6597 H 605.145 -3.92575 3.88058 0
M  V30 6598 H 605.622 -3.80794 2.18844 0
M  V30 6599 H 606.228 -2.61156 3.35675 0
M  V30 6600 N 604.543 -1.41418 -0.695603 0
M  V30 6601 C 605.49 -1.43264 -1.80954 0
M  V30 6602 C 606.46 -0.287016 -1.63601 0
M  V30 6603 O 607.645 -0.488054 -1.84452 0
M  V30 6604 C 604.785 -1.32054 -3.18835 0
M  V30 6605 C 603.898 -2.56485 -3.4762 0
M  V30 6606 C 603.033 -2.3757 -4.75115 0
M  V30 6607 C 602.072 -3.57477 -4.96867 0
M  V30 6608 N 601.209 -3.37632 -6.15588 0
M  V30 6609 H 606.049 -2.38467 -1.78711 0
M  V30 6610 H 603.586 -1.18415 -0.872715 0
M  V30 6611 H 605.544 -1.23558 -3.98484 0
M  V30 6612 H 604.174 -0.404592 -3.20254 0
M  V30 6613 H 603.226 -2.75432 -2.62376 0
M  V30 6614 H 604.538 -3.45678 -3.59594 0
M  V30 6615 H 603.692 -2.2654 -5.62818 0
M  V30 6616 H 602.431 -1.45834 -4.65386 0
M  V30 6617 H 601.436 -3.68961 -4.07612 0
M  V30 6618 H 602.661 -4.50167 -5.08455 0
M  V30 6619 H 600.607 -2.48596 -6.07072 0
M  V30 6620 H 600.524 -4.20401 -6.2833 0
M  V30 6621 H 601.792 -3.30375 -7.06026 0
M  V30 6622 N 606.021 0.929856 -1.27246 0
M  V30 6623 C 606.969 2.05151 -1.09616 0
M  V30 6624 C 607.963 1.69388 -0.0198617 0
M  V30 6625 O 609.169 1.79124 -0.177417 0
M  V30 6626 H 605.544 0.671909 -0.337701 0
M  V30 6627 H 607.515 2.17168 -2.04648 0
M  V30 6628 C 606.264 3.3934 -0.757851 0
M  V30 6629 H 605.587 3.67343 -1.57795 0
M  V30 6630 H 607.027 4.18603 -0.674358 0
M  V30 6631 C 605.486 3.32582 0.537658 0
M  V30 6632 O 606.016 3.69633 1.57271 0
M  V30 6633 N 604.222 2.8568 0.532478 0
M  V30 6634 H 603.769 2.55725 -0.310233 0
M  V30 6635 H 603.727 2.81541 1.39936 0
M  V30 6636 N 607.499 1.09233 1.13605 0
M  V30 6637 C 608.446 0.729921 2.18954 0
M  V30 6638 C 609.416 -0.287916 1.63586 0
M  V30 6639 O 610.601 -0.170003 1.90041 0
M  V30 6640 C 607.741 0.154489 3.44754 0
M  V30 6641 C 606.854 1.22613 4.14234 0
M  V30 6642 C 605.989 0.613657 5.27644 0
M  V30 6643 C 605.028 1.66674 5.8897 0
M  V30 6644 N 604.165 1.07545 6.93814 0
M  V30 6645 H 609.005 1.63257 2.49302 0
M  V30 6646 H 606.542 0.815693 1.22413 0
M  V30 6647 H 608.5 -0.196923 4.16735 0
M  V30 6648 H 607.13 -0.711433 3.14863 0
M  V30 6649 H 606.182 1.69485 3.40557 0
M  V30 6650 H 607.494 2.0238 4.55899 0
M  V30 6651 H 606.648 0.210976 6.06333 0
M  V30 6652 H 605.387 -0.215584 4.87223 0
M  V30 6653 H 604.392 2.07899 5.08978 0
M  V30 6654 H 605.617 2.49861 6.31464 0
M  V30 6655 H 603.563 0.267451 6.55455 0
M  V30 6656 H 603.48 1.81011 7.3401 0
M  V30 6657 H 604.748 0.698906 7.7636 0
M  V30 6658 N 608.977 -1.30795 0.87923 0
M  V30 6659 C 609.91 -2.26396 0.286404 0
M  V30 6660 C 610.888 -1.51528 -0.589748 0
M  V30 6661 O 612.072 -1.80566 -0.541119 0
M  V30 6662 C 609.199 -3.33458 -0.593581 0
M  V30 6663 C 608.245 -4.2597 0.21247 0
M  V30 6664 S 609.078 -5.11132 1.59702 0
M  V30 6665 C 610.234 -6.21705 0.723408 0
M  V30 6666 H 610.467 -2.7633 1.09677 0
M  V30 6667 H 608 -1.38703 0.678305 0
M  V30 6668 H 609.958 -3.9561 -1.09557 0
M  V30 6669 H 608.619 -2.82259 -1.37799 0
M  V30 6670 H 607.812 -5.01907 -0.458822 0
M  V30 6671 H 607.414 -3.68363 0.646883 0
M  V30 6672 H 609.706 -6.77472 -0.0620739 0
M  V30 6673 H 610.649 -6.93007 1.4542 0
M  V30 6674 H 611.057 -5.63771 0.286855 0
M  V30 6675 N 610.455 -0.639598 -1.44038 0
M  V30 6676 C 611.385 0.0469443 -2.33453 0
M  V30 6677 C 612.366 0.82609 -1.48694 0
M  V30 6678 O 613.551 0.790285 -1.77393 0
M  V30 6679 C 610.681 1.02338 -3.3188 0
M  V30 6680 C 609.635 0.355284 -4.26523 0
M  V30 6681 C 608.961 1.44221 -5.14883 0
M  V30 6682 C 610.261 -0.743798 -5.16977 0
M  V30 6683 H 611.955 -0.699735 -2.91108 0
M  V30 6684 H 609.501 -0.337946 -1.39978 0
M  V30 6685 H 611.454 1.51247 -3.93322 0
M  V30 6686 H 610.178 1.80105 -2.72451 0
M  V30 6687 H 608.837 -0.113239 -3.66425 0
M  V30 6688 H 608.485 2.21097 -4.51802 0
M  V30 6689 H 608.185 1.00052 -5.79019 0
M  V30 6690 H 609.709 1.93295 -5.79197 0
M  V30 6691 H 611.123 -0.337444 -5.72306 0
M  V30 6692 H 609.52 -1.10914 -5.89761 0
M  V30 6693 H 610.59 -1.60745 -4.57481 0
M  V30 6694 N 611.933 1.52934 -0.380664 0
M  V30 6695 C 612.883 2.22989 0.475399 0
M  V30 6696 C 613.867 1.23058 1.03661 0
M  V30 6697 O 615.059 1.48436 0.964146 0
M  V30 6698 C 612.188 3.0338 1.60671 0
M  V30 6699 C 611.274 4.107 1.05766 0
M  V30 6700 N 611.665 5.05264 0.232837 0
M  V30 6701 C 609.963 4.25676 1.33101 0
M  V30 6702 C 610.664 5.81658 -0.0695134 0
M  V30 6703 N 609.64 5.40989 0.532144 0
M  V30 6704 H 613.442 2.93456 -0.161418 0
M  V30 6705 H 610.956 1.61291 -0.189495 0
M  V30 6706 H 612.953 3.52098 2.23232 0
M  V30 6707 H 611.613 2.34446 2.24644 0
M  V30 6708 H 612.624 5.17739 -0.129204 0
M  V30 6709 H 609.301 3.6797 1.97241 0
M  V30 6710 H 610.691 6.67843 -0.737269 0
M  V30 6711 N 613.412 0.11024 1.57214 0
M  V30 6712 C 614.823 -0.416527 1.81994 0
M  V30 6713 C 615.174 -1.67183 1.02686 0
M  V30 6714 O 614.299 -2.14823 0.260782 0
M  V30 6715 C 614.894 -0.762466 3.30109 0
M  V30 6716 C 613.453 -1.23391 3.556 0
M  V30 6717 C 612.6 -0.238166 2.76275 0
M  V30 6718 H 615.551 0.335491 1.55113 0
M  V30 6719 H 615.572 -1.62068 3.44259 0
M  V30 6720 H 615.084 0.151346 3.87805 0
M  V30 6721 H 613.185 -2.16492 3.03253 0
M  V30 6722 H 613.298 -1.18528 4.64207 0
M  V30 6723 H 611.662 -0.723421 2.4421 0
M  V30 6724 H 612.445 0.668591 3.36727 0
M  V30 6725 N 614.89 -1.56749 -0.16351 0
M  V30 6726 C 616.167 -1.73321 -0.906599 0
M  V30 6727 C 616.547 -0.673779 -2.00059 0
M  V30 6728 O 615.895 0.310121 -2.26386 0
M  V30 6729 C 616.105 -3.168 -1.46419 0
M  V30 6730 C 617.453 -3.77993 -1.93407 0
M  V30 6731 O 618.477 -3.20127 -1.56196 0
M  V30 6732 O 617.336 -4.79615 -2.61976 0
M  V30 6733 H 614.43 -0.708073 -0.427272 0
M  V30 6734 H 616.976 -1.69029 -0.150727 0
M  V30 6735 H 615.748 -3.85396 -0.677189 0
M  V30 6736 H 615.371 -3.2545 -2.28403 0
M  V30 6737 N 616.368 0.432326 -1.51554 0
M  V30 6738 C 617.596 1.20364 -1.68286 0
M  V30 6739 C 618.011 1.84888 -0.38233 0
M  V30 6740 O 617.368 1.70924 0.639627 0
M  V30 6741 C 617.419 2.28398 -2.80208 0
M  V30 6742 O 617.14 1.66512 -4.05223 0
M  V30 6743 C 618.641 3.18584 -3.08251 0
M  V30 6744 H 615.861 0.36259 -0.564596 0
M  V30 6745 H 618.405 0.511647 -1.97996 0
M  V30 6746 H 616.56 2.93305 -2.53083 0
M  V30 6747 H 616.974 2.37951 -4.67418 0
M  V30 6748 H 618.448 3.90511 -3.90135 0
M  V30 6749 H 618.925 3.79628 -2.2086 0
M  V30 6750 H 619.531 2.59372 -3.37055 0
M  V30 6751 N 617.846 1.41785 0.688094 0
M  V30 6752 C 619.093 1.41544 1.44816 0
M  V30 6753 C 619.421 0.0271746 1.94481 0
M  V30 6754 O 618.676 -0.962235 1.7041 0
M  V30 6755 C 618.975 2.37532 2.67046 0
M  V30 6756 C 618.641 3.84209 2.35996 0
M  V30 6757 C 617.303 4.24165 2.27239 0
M  V30 6758 C 619.655 4.76785 2.10536 0
M  V30 6759 C 616.983 5.54695 1.91128 0
M  V30 6760 C 619.335 6.07644 1.75931 0
M  V30 6761 C 617.999 6.46613 1.65675 0
M  V30 6762 H 617.269 0.517945 0.529919 0
M  V30 6763 H 619.916 1.74635 0.785797 0
M  V30 6764 H 618.221 1.9772 3.38251 0
M  V30 6765 H 619.918 2.34615 3.25203 0
M  V30 6766 H 616.508 3.52567 2.4371 0
M  V30 6767 H 620.692 4.46714 2.16242 0
M  V30 6768 H 615.948 5.83762 1.81746 0
M  V30 6769 H 620.122 6.78874 1.55252 0
M  V30 6770 H 617.749 7.47668 1.37463 0
M  V30 6771 N 619.324 -0.923095 1.27737 0
M  V30 6772 C 620.573 -1.66581 1.13727 0
M  V30 6773 C 620.886 -1.9304 -0.315433 0
M  V30 6774 O 622.092 -2.65309 -0.57651 0
M  V30 6775 C 620.548 -3.00047 1.98745 0
M  V30 6776 C 620.156 -2.8127 3.48699 0
M  V30 6777 C 621.9 -3.77887 1.93395 0
M  V30 6778 C 619.807 -4.1032 4.25901 0
M  V30 6779 H 618.737 -0.624834 0.422017 0
M  V30 6780 H 621.388 -1.02514 1.52194 0
M  V30 6781 H 619.77 -3.65197 1.53125 0
M  V30 6782 H 620.944 -2.24859 4.02213 0
M  V30 6783 H 619.259 -2.16854 3.55476 0
M  V30 6784 H 621.856 -4.73526 2.48348 0
M  V30 6785 H 622.199 -4.06264 0.908605 0
M  V30 6786 H 622.732 -3.19541 2.36935 0
M  V30 6787 H 619.471 -3.8712 5.28978 0
M  V30 6788 H 618.991 -4.66377 3.77163 0
M  V30 6789 H 620.67 -4.78648 4.35321 0
M  V30 6790 N 620.802 -1.09834 -1.13024 0
M  V30 6791 C 621.734 -0.699379 -2.18269 0
M  V30 6792 C 622.747 0.260841 -1.60697 0
M  V30 6793 O 623.936 0.0462538 -1.7844 0
M  V30 6794 C 621.036 -0.0104537 -3.38898 0
M  V30 6795 C 620.209 -0.993275 -4.25973 0
M  V30 6796 C 619.268 -0.336982 -5.2512 0
M  V30 6797 O 618.294 -0.985892 -5.60597 0
M  V30 6798 N 619.496 0.90716 -5.73368 0
M  V30 6799 H 622.261 -1.60486 -2.5311 0
M  V30 6800 H 619.822 -0.986337 -1.28386 0
M  V30 6801 H 621.814 0.43991 -4.02302 0
M  V30 6802 H 620.384 0.797335 -3.0226 0
M  V30 6803 H 619.604 -1.62208 -3.5928 0
M  V30 6804 H 620.892 -1.65876 -4.81002 0
M  V30 6805 H 620.29 1.45384 -5.46699 0
M  V30 6806 H 618.847 1.30077 -6.38689 0
M  V30 6807 N 622.28 1.30327 -0.886154 0
M  V30 6808 C 623.21 2.30549 -0.370028 0
M  V30 6809 C 624.191 1.61039 0.547751 0
M  V30 6810 O 625.376 1.8864 0.461353 0
M  V30 6811 C 622.506 3.44808 0.415275 0
M  V30 6812 C 621.46 4.26024 -0.41085 0
M  V30 6813 C 620.786 5.32347 0.501128 0
M  V30 6814 C 622.086 4.95433 -1.65359 0
M  V30 6815 H 623.78 2.73969 -1.20754 0
M  V30 6816 H 621.326 1.3171 -0.582097 0
M  V30 6817 H 623.279 4.13986 0.78699 0
M  V30 6818 H 622.003 3.00197 1.28644 0
M  V30 6819 H 620.662 3.58535 -0.764719 0
M  V30 6820 H 620.31 4.83982 1.37004 0
M  V30 6821 H 620.01 5.87581 -0.0478356 0
M  V30 6822 H 621.534 6.0438 0.869333 0
M  V30 6823 H 622.948 5.5712 -1.35239 0
M  V30 6824 H 621.345 5.60537 -2.14284 0
M  V30 6825 H 622.415 4.21493 -2.39733 0
M  V30 6826 N 623.758 0.647228 1.43697 0
M  V30 6827 C 624.721 -0.0385101 2.29168 0
M  V30 6828 C 625.721 -0.756487 1.41894 0
M  V30 6829 O 626.911 -0.598641 1.63591 0
M  V30 6830 C 624.043 -1.06524 3.23829 0
M  V30 6831 H 625.236 0.713445 2.9129 0
M  V30 6832 H 622.789 0.408153 1.50877 0
M  V30 6833 H 623.524 -1.84664 2.66589 0
M  V30 6834 H 623.309 -0.554147 3.88164 0
M  V30 6835 H 624.799 -1.54432 3.87996 0
M  V30 6836 N 625.236 -1.5273 0.388769 0
M  V30 6837 C 626.166 -2.29353 -0.438111 0
M  V30 6838 C 627.147 -1.32719 -1.06394 0
M  V30 6839 O 628.332 -1.61612 -1.07681 0
M  V30 6840 C 625.462 -3.09995 -1.56589 0
M  V30 6841 C 624.416 -4.14509 -1.06613 0
M  V30 6842 C 623.742 -4.83372 -2.28594 0
M  V30 6843 C 625.042 -5.22127 -0.134459 0
M  V30 6844 H 626.736 -2.98723 0.201206 0
M  V30 6845 H 624.282 -1.43665 0.0982089 0
M  V30 6846 H 626.235 -3.62357 -2.15118 0
M  V30 6847 H 624.959 -2.38357 -2.23279 0
M  V30 6848 H 623.618 -3.63128 -0.503383 0
M  V30 6849 H 623.266 -4.08283 -2.93792 0
M  V30 6850 H 622.966 -5.54012 -1.95817 0
M  V30 6851 H 624.49 -5.38538 -2.87766 0
M  V30 6852 H 625.904 -5.69851 -0.627914 0
M  V30 6853 H 624.301 -6.00011 0.103534 0
M  V30 6854 H 625.371 -4.77971 0.816798 0
M  V30 6855 N 626.714 -0.118576 -1.57153 0
M  V30 6856 C 627.646 0.862247 -2.12363 0
M  V30 6857 C 628.659 1.23025 -1.06625 0
M  V30 6858 O 629.848 1.17927 -1.33998 0
M  V30 6859 C 626.948 2.16425 -2.60794 0
M  V30 6860 C 626.121 1.96801 -3.90626 0
M  V30 6861 C 625.18 3.10726 -4.2466 0
M  V30 6862 O 624.206 2.83659 -4.93484 0
M  V30 6863 N 625.408 4.37147 -3.81946 0
M  V30 6864 H 628.173 0.390564 -2.97144 0
M  V30 6865 H 625.734 0.0658591 -1.61766 0
M  V30 6866 H 627.726 2.91633 -2.80593 0
M  V30 6867 H 626.296 2.54943 -1.80895 0
M  V30 6868 H 625.516 1.05787 -3.7974 0
M  V30 6869 H 626.804 1.80993 -4.7552 0
M  V30 6870 H 626.202 4.62014 -3.26435 0
M  V30 6871 H 624.759 5.09229 -4.06853 0
M  V30 6872 N 628.193 1.56834 0.155195 0
M  V30 6873 C 629.123 2.00678 1.19376 0
M  V30 6874 C 630.104 0.884973 1.45266 0
M  V30 6875 O 631.289 1.1522 1.56326 0
M  V30 6876 C 628.419 2.38042 2.5289 0
M  V30 6877 C 627.373 3.53332 2.41538 0
M  V30 6878 C 626.699 3.76485 3.79688 0
M  V30 6879 C 627.999 4.86265 1.9064 0
M  V30 6880 H 629.693 2.87688 0.829232 0
M  V30 6881 H 627.239 1.38407 0.397445 0
M  V30 6882 H 629.192 2.67314 3.25763 0
M  V30 6883 H 627.916 1.4796 2.91162 0
M  V30 6884 H 626.575 3.24213 1.71117 0
M  V30 6885 H 626.223 2.83667 4.15382 0
M  V30 6886 H 625.923 4.54068 3.72956 0
M  V30 6887 H 627.447 4.08174 4.54122 0
M  V30 6888 H 628.861 5.14308 2.53299 0
M  V30 6889 H 627.258 5.67597 1.94818 0
M  V30 6890 H 628.328 4.77184 0.861596 0
M  V30 6891 N 629.671 -0.424282 1.51781 0
M  V30 6892 C 630.634 -1.49848 1.73431 0
M  V30 6893 C 631.634 -1.49016 0.604225 0
M  V30 6894 O 632.824 -1.50808 0.871935 0
M  V30 6895 C 629.956 -2.89332 1.80277 0
M  V30 6896 H 631.149 -1.3195 2.69312 0
M  V30 6897 H 628.702 -0.653809 1.41968 0
M  V30 6898 H 629.437 -3.12618 0.862568 0
M  V30 6899 H 629.222 -2.9134 2.62419 0
M  V30 6900 H 630.712 -3.67233 1.98821 0
M  V30 6901 N 631.149 -1.42148 -0.680565 0
M  V30 6902 C 632.379 -1.45485 -1.46689 0
M  V30 6903 C 632.787 -0.0629451 -1.89095 0
M  V30 6904 O 632.13 0.931397 -1.58337 0
M  V30 6905 C 632.192 -2.31397 -2.75129 0
M  V30 6906 C 631.856 -3.79353 -2.54834 0
M  V30 6907 C 632.853 -4.71148 -2.19808 0
M  V30 6908 C 630.538 -4.23557 -2.70008 0
M  V30 6909 C 632.532 -6.05139 -2.00215 0
M  V30 6910 C 630.219 -5.57609 -2.50031 0
M  V30 6911 C 631.217 -6.48216 -2.15187 0
M  V30 6912 O 630.905 -7.79792 -1.95397 0
M  V30 6913 H 630.637 -0.497139 -0.458071 0
M  V30 6914 H 633.191 -1.87252 -0.844139 0
M  V30 6915 H 631.421 -1.84468 -3.39865 0
M  V30 6916 H 633.11 -2.26257 -3.36991 0
M  V30 6917 H 633.876 -4.38282 -2.07686 0
M  V30 6918 H 629.755 -3.53327 -2.96109 0
M  V30 6919 H 633.299 -6.75823 -1.72941 0
M  V30 6920 H 629.196 -5.9005 -2.61748 0
M  V30 6921 H 629.964 -7.91091 -2.10042 0
M  V30 6922 N 632.627 0.916307 -1.28225 0
M  V30 6923 C 633.857 1.69654 -1.17902 0
M  V30 6924 C 634.265 1.87331 0.265268 0
M  V30 6925 O 633.608 1.39828 1.19137 0
M  V30 6926 C 633.67 3.11024 -1.80289 0
M  V30 6927 C 633.334 3.16643 -3.29525 0
M  V30 6928 C 634.331 2.98032 -4.25997 0
M  V30 6929 C 632.016 3.39238 -3.70436 0
M  V30 6930 C 634.01 3.01924 -5.61356 0
M  V30 6931 C 631.697 3.42762 -5.05922 0
M  V30 6932 C 632.695 3.24125 -6.01192 0
M  V30 6933 O 632.383 3.27406 -7.34208 0
M  V30 6934 H 632.115 0.537197 -0.41036 0
M  V30 6935 H 634.669 1.15547 -1.69817 0
M  V30 6936 H 632.899 3.66662 -1.22865 0
M  V30 6937 H 634.588 3.71063 -1.6452 0
M  V30 6938 H 635.354 2.80405 -3.95725 0
M  V30 6939 H 631.233 3.52791 -2.96749 0
M  V30 6940 H 634.777 2.87295 -6.35694 0
M  V30 6941 H 630.674 3.59916 -5.35846 0
M  V30 6942 H 631.442 3.43784 -7.42802 0
M  V30 6943 N 634.105 1.10431 1.1244 0
M  V30 6944 C 635.521 0.836096 1.35947 0
M  V30 6945 C 635.721 -0.544475 1.94004 0
M  V30 6946 O 634.777 -1.29735 2.16622 0
M  V30 6947 C 636.09 1.93575 2.30107 0
M  V30 6948 C 637.638 1.9642 2.43697 0
M  V30 6949 C 638.113 3.05559 3.41171 0
M  V30 6950 N 639.604 3.04865 3.48728 0
M  V30 6951 C 640.339 3.85954 4.24061 0
M  V30 6952 N 639.835 4.76977 5.02458 0
M  V30 6953 N 641.628 3.74172 4.19466 0
M  V30 6954 H 633.779 1.9942 0.731124 0
M  V30 6955 H 636.042 0.866607 0.384312 0
M  V30 6956 H 635.748 2.92943 1.94621 0
M  V30 6957 H 635.622 1.8229 3.30227 0
M  V30 6958 H 638.009 0.97685 2.78463 0
M  V30 6959 H 638.09 2.11782 1.43465 0
M  V30 6960 H 637.734 4.04513 3.07135 0
M  V30 6961 H 637.664 2.87438 4.41234 0
M  V30 6962 H 640.155 2.38908 2.92799 0
M  V30 6963 H 640.468 5.35409 5.57277 0
M  V30 6964 H 638.813 4.81006 5.01655 0
M  V30 6965 H 642.004 3.02412 3.57302 0
M  V30 6966 H 642.177 4.37602 4.77921 0
M  V30 6967 N 635.583 -1.29855 0.893053 0
M  V30 6968 C 636.513 -2.3035 0.382249 0
M  V30 6969 C 637.494 -1.61328 -0.539203 0
M  V30 6970 O 638.679 -1.88882 -0.451342 0
M  V30 6971 C 635.809 -3.45024 -0.396983 0
M  V30 6972 C 634.763 -4.258 0.433437 0
M  V30 6973 C 634.089 -5.32605 -0.472889 0
M  V30 6974 C 635.389 -4.94549 1.67984 0
M  V30 6975 H 637.083 -2.73325 1.22205 0
M  V30 6976 H 634.629 -1.314 0.589073 0
M  V30 6977 H 636.582 -4.14398 -0.765024 0
M  V30 6978 H 635.306 -3.00875 -1.2705 0
M  V30 6979 H 633.965 -3.58125 0.783723 0
M  V30 6980 H 633.613 -4.84702 -1.34435 0
M  V30 6981 H 633.313 -5.87547 0.0789958 0
M  V30 6982 H 634.837 -6.04832 -0.837269 0
M  V30 6983 H 636.251 -5.56395 1.38192 0
M  V30 6984 H 634.648 -5.59393 2.17254 0
M  V30 6985 H 635.718 -4.20215 2.41965 0
M  V30 6986 N 637.061 -0.65484 -1.43351 0
M  V30 6987 C 638.011 0.0581325 -2.27926 0
M  V30 6988 C 638.995 0.793188 -1.3999 0
M  V30 6989 O 640.187 0.675387 -1.63608 0
M  V30 6990 C 637.316 1.02272 -3.27712 0
M  V30 6991 C 636.402 0.286048 -4.23134 0
M  V30 6992 N 636.793 -0.698298 -5.00957 0
M  V30 6993 C 635.091 0.527272 -4.42872 0
M  V30 6994 C 635.792 -1.1357 -5.70506 0
M  V30 6995 N 634.768 -0.469631 -5.41568 0
M  V30 6996 H 638.57 -0.697182 -2.85511 0
M  V30 6997 H 636.084 -0.482252 -1.55074 0
M  V30 6998 H 638.081 1.5483 -3.87083 0
M  V30 6999 H 636.741 1.77807 -2.71688 0
M  V30 7000 H 637.752 -1.07708 -5.06576 0
M  V30 7001 H 634.429 1.26367 -3.97916 0
M  V30 7002 H 635.819 -1.95027 -6.42973 0
M  V30 7003 N 638.539 1.52521 -0.396863 0
M  V30 7004 C 639.787 2.01274 0.182536 0
M  V30 7005 C 640.108 1.28485 1.46685 0
M  V30 7006 O 639.378 0.407134 1.91623 0
M  V30 7007 H 637.958 0.743671 0.0704442 0
M  V30 7008 H 640.62 1.87547 -0.530289 0
M  V30 7009 H 639.716 3.09687 0.387385 0
M  V30 7010 N 640.017 0.126909 1.57088 0
M  V30 7011 C 640.967 -0.831678 2.1229 0
M  V30 7012 C 641.951 -1.22292 1.04564 0
M  V30 7013 O 643.143 -1.19269 1.30782 0
M  V30 7014 C 640.272 -2.07866 2.73215 0
M  V30 7015 C 639.358 -1.71143 3.88035 0
M  V30 7016 N 639.749 -1.05136 4.94753 0
M  V30 7017 C 638.047 -2.00549 3.98367 0
M  V30 7018 C 638.748 -0.877257 5.75047 0
M  V30 7019 N 637.724 -1.40477 5.25135 0
M  V30 7020 H 641.526 -0.317926 2.92175 0
M  V30 7021 H 639.04 -0.0753052 1.62225 0
M  V30 7022 H 641.037 -2.77516 3.11111 0
M  V30 7023 H 639.697 -2.59778 1.94796 0
M  V30 7024 H 640.708 -0.71442 5.12949 0
M  V30 7025 H 637.385 -2.54452 3.30999 0
M  V30 7026 H 638.775 -0.358536 6.70943 0
M  V30 7027 N 641.495 -1.56914 -0.146875 0
M  V30 7028 C 642.906 -1.72799 -0.706928 0
M  V30 7029 C 643.257 -0.741329 -1.81656 0
M  V30 7030 O 642.382 0.0920162 -2.16204 0
M  V30 7031 C 642.977 -3.13317 -1.28911 0
M  V30 7032 C 641.536 -3.30803 -1.79573 0
M  V30 7033 C 640.683 -2.68725 -0.684252 0
M  V30 7034 H 643.634 -1.58504 0.0787931 0
M  V30 7035 H 643.655 -3.13323 -2.15891 0
M  V30 7036 H 643.167 -3.85104 -0.481284 0
M  V30 7037 H 641.268 -2.64012 -2.62923 0
M  V30 7038 H 641.381 -4.38754 -1.92436 0
M  V30 7039 H 639.745 -2.29196 -1.11091 0
M  V30 7040 H 640.528 -3.43117 0.112134 0
M  V30 7041 N 642.974 0.416227 -1.52004 0
M  V30 7042 C 644.222 1.16153 -1.65387 0
M  V30 7043 C 644.543 1.91208 -0.382669 0
M  V30 7044 O 643.813 1.86413 0.602231 0
M  V30 7045 H 642.393 0.431765 -0.60958 0
M  V30 7046 H 645.055 0.475151 -1.89019 0
M  V30 7047 H 644.151 1.87952 -2.4916 0
M  V30 7048 N 644.452 1.42507 0.673017 0
M  V30 7049 C 645.692 1.44559 1.44507 0
M  V30 7050 C 646.056 0.0606206 1.91904 0
M  V30 7051 O 647.257 -0.044139 2.68764 0
M  V30 7052 C 645.528 2.44291 2.60877 0
M  V30 7053 S 647.087 2.65059 3.49699 0
M  V30 7054 H 643.905 0.51181 0.49353 0
M  V30 7055 H 646.507 1.79124 0.783256 0
M  V30 7056 H 645.211 3.43685 2.24297 0
M  V30 7057 H 644.742 2.11157 3.31928 0
M  V30 7058 H 646.757 1.93494 4.56919 0
M  V30 7059 N 645.93 -0.909495 1.28709 0
M  V30 7060 C 647.17 -1.67344 1.17368 0
M  V30 7061 C 647.534 -1.90058 -0.272419 0
M  V30 7062 O 648.735 -2.63944 -0.508617 0
M  V30 7063 C 647.006 -2.99219 1.95455 0
M  V30 7064 S 648.565 -3.90295 2.00538 0
M  V30 7065 H 645.383 -0.57466 0.418672 0
M  V30 7066 H 647.985 -1.08144 1.62865 0
M  V30 7067 H 646.689 -2.80393 2.9968 0
M  V30 7068 H 646.22 -3.63464 1.50524 0
M  V30 7069 H 648.235 -4.83511 1.11496 0
M  V30 7070 N 647.408 -1.11026 -1.11852 0
M  V30 7071 C 648.638 -0.877544 -1.87037 0
M  V30 7072 C 649.046 0.575925 -1.80221 0
M  V30 7073 O 648.389 1.40916 -1.17849 0
M  V30 7074 C 648.451 -1.25529 -3.36872 0
M  V30 7075 C 648.115 -2.71704 -3.67459 0
M  V30 7076 C 649.112 -3.69931 -3.65304 0
M  V30 7077 C 646.797 -3.08243 -3.966 0
M  V30 7078 C 648.791 -5.02717 -3.9186 0
M  V30 7079 C 646.478 -4.41215 -4.22815 0
M  V30 7080 C 647.476 -5.38262 -4.20432 0
M  V30 7081 O 647.164 -6.68839 -4.45992 0
M  V30 7082 H 646.896 -0.314374 -0.598452 0
M  V30 7083 H 649.45 -1.48015 -1.42411 0
M  V30 7084 H 647.68 -0.595808 -3.82082 0
M  V30 7085 H 649.369 -0.999064 -3.93413 0
M  V30 7086 H 650.135 -3.43047 -3.42846 0
M  V30 7087 H 646.014 -2.33326 -3.97593 0
M  V30 7088 H 649.558 -5.78456 -3.89916 0
M  V30 7089 H 645.455 -4.67835 -4.44748 0
M  V30 7090 H 646.223 -6.74563 -4.63581 0
M  V30 7091 N 648.886 1.2938 -0.899927 0
M  V30 7092 C 649.796 2.31462 -0.382437 0
M  V30 7093 C 650.812 1.65956 0.522929 0
M  V30 7094 O 651.988 1.97131 0.412454 0
M  V30 7095 C 649.053 3.44595 0.381472 0
M  V30 7096 C 648.114 4.25692 -0.555444 0
M  V30 7097 C 647.347 5.33422 0.172102 0
M  V30 7098 O 647.57 5.53053 1.396 0
M  V30 7099 O 646.504 5.99939 -0.485491 0
M  V30 7100 H 650.33 2.77706 -1.22934 0
M  V30 7101 H 647.915 1.33821 -0.664259 0
M  V30 7102 H 649.797 4.13474 0.813442 0
M  V30 7103 H 648.472 3.00458 1.20443 0
M  V30 7104 H 647.379 3.59453 -1.03653 0
M  V30 7105 H 648.712 4.73471 -1.34483 0
M  V30 7106 N 650.364 0.662433 1.43002 0
M  V30 7107 C 651.592 0.187615 2.06048 0
M  V30 7108 C 652.007 -1.15039 1.49705 0
M  V30 7109 O 651.364 -1.71209 0.631956 0
M  V30 7110 C 651.415 0.100498 3.6136 0
M  V30 7111 O 651.136 1.38562 4.15611 0
M  V30 7112 C 652.637 -0.399298 4.41498 0
M  V30 7113 H 649.857 0.0941675 0.664359 0
M  V30 7114 H 652.401 0.905681 1.83351 0
M  V30 7115 H 650.556 -0.568181 3.83211 0
M  V30 7116 H 650.97 1.25084 5.09366 0
M  V30 7117 H 652.444 -0.409187 5.50481 0
M  V30 7118 H 652.921 -1.43232 4.15188 0
M  V30 7119 H 653.527 0.23721 4.24638 0
M  V30 7120 N 651.842 -1.52309 0.404946 0
M  V30 7121 C 652.805 -2.25491 -0.410651 0
M  V30 7122 C 653.805 -1.27704 -0.977154 0
M  V30 7123 O 654.995 -1.51679 -0.856691 0
M  V30 7124 C 652.127 -3.02197 -1.57765 0
M  V30 7125 H 653.32 -2.99015 0.230277 0
M  V30 7126 H 650.873 -1.55506 0.157377 0
M  V30 7127 H 651.608 -2.33013 -2.25556 0
M  V30 7128 H 651.393 -3.73987 -1.17797 0
M  V30 7129 H 652.883 -3.57719 -2.15469 0
M  V30 7130 N 653.32 -0.135238 -1.57019 0
M  V30 7131 C 654.253 0.846618 -2.11914 0
M  V30 7132 C 655.231 1.25019 -1.03966 0
M  V30 7133 O 656.415 1.34838 -1.31723 0
M  V30 7134 C 653.542 2.1352 -2.6292 0
M  V30 7135 C 652.588 1.87846 -3.82905 0
M  V30 7136 S 653.421 1.08005 -5.24495 0
M  V30 7137 C 654.577 2.38008 -5.78881 0
M  V30 7138 H 654.81 0.379752 -2.94865 0
M  V30 7139 H 652.343 0.0788387 -1.54199 0
M  V30 7140 H 654.301 2.87551 -2.92958 0
M  V30 7141 H 652.962 2.57323 -1.80121 0
M  V30 7142 H 652.155 2.83365 -4.16797 0
M  V30 7143 H 651.757 1.21929 -3.53567 0
M  V30 7144 H 654.049 3.33742 -5.89595 0
M  V30 7145 H 654.992 2.08638 -6.76665 0
M  V30 7146 H 655.4 2.48119 -5.07048 0
M  V30 7147 N 654.798 1.5699 0.138552 0
M  V30 7148 C 656.026 1.87976 0.864437 0
M  V30 7149 C 656.441 0.724372 1.74351 0
M  V30 7150 O 655.798 -0.305575 1.79924 0
M  V30 7151 C 655.849 3.18276 1.71414 0
M  V30 7152 O 655.57 4.29365 0.870487 0
M  V30 7153 C 657.071 3.62834 2.54688 0
M  V30 7154 H 654.291 0.622878 0.249528 0
M  V30 7155 H 656.835 2.04094 0.128805 0
M  V30 7156 H 654.99 3.03886 2.40274 0
M  V30 7157 H 655.404 5.03924 1.45466 0
M  V30 7158 H 656.878 4.5682 3.0987 0
M  V30 7159 H 657.355 2.88533 3.31127 0
M  V30 7160 H 657.961 3.79946 1.91105 0
M  V30 7161 N 656.276 -0.40816 1.52223 0
M  V30 7162 C 657.692 -0.74685 1.41047 0
M  V30 7163 C 657.892 -1.94788 0.51573 0
M  V30 7164 O 656.948 -2.52494 -0.0181156 0
M  V30 7165 C 658.261 -0.999878 2.83589 0
M  V30 7166 C 659.809 -1.10253 2.92939 0
M  V30 7167 C 660.284 -1.38832 4.36451 0
M  V30 7168 N 661.775 -1.45694 4.3969 0
M  V30 7169 C 662.51 -1.69435 5.47795 0
M  V30 7170 N 662.006 -1.90774 6.66016 0
M  V30 7171 N 663.799 -1.71458 5.35312 0
M  V30 7172 H 655.95 0.382409 2.08929 0
M  V30 7173 H 658.213 0.108807 0.941735 0
M  V30 7174 H 657.919 -0.189723 3.51188 0
M  V30 7175 H 657.793 -1.91978 3.24691 0
M  V30 7176 H 660.18 -1.90328 2.2552 0
M  V30 7177 H 660.261 -0.160973 2.55293 0
M  V30 7178 H 659.905 -0.592741 5.04429 0
M  V30 7179 H 659.835 -2.34241 4.71634 0
M  V30 7180 H 662.326 -1.3099 3.54472 0
M  V30 7181 H 662.639 -2.08342 7.44186 0
M  V30 7182 H 660.984 -1.88037 6.69079 0
M  V30 7183 H 664.175 -1.54326 4.41929 0
M  V30 7184 H 664.348 -1.89621 6.19635 0
M  V30 7185 N 657.755 -1.42862 -0.66545 0
M  V30 7186 C 658.705 -1.43521 -1.7716 0
M  V30 7187 C 659.689 -0.305267 -1.57978 0
M  V30 7188 O 660.881 -0.548176 -1.68297 0
M  V30 7189 C 658.01 -1.34914 -3.15679 0
M  V30 7190 C 657.096 -2.5289 -3.40452 0
M  V30 7191 N 657.487 -3.78284 -3.3576 0
M  V30 7192 C 655.785 -2.47351 -3.71124 0
M  V30 7193 C 656.486 -4.56701 -3.60276 0
M  V30 7194 N 655.462 -3.87249 -3.81496 0
M  V30 7195 H 659.264 -2.38357 -1.7194 0
M  V30 7196 H 656.778 -1.37342 -0.866653 0
M  V30 7197 H 658.775 -1.33468 -3.94958 0
M  V30 7198 H 657.435 -0.410881 -3.2209 0
M  V30 7199 H 658.446 -4.10746 -3.15448 0
M  V30 7200 H 655.123 -1.62152 -3.84725 0
M  V30 7201 H 656.513 -5.65704 -3.6253 0
M  V30 7202 N 659.233 0.902656 -1.29189 0
M  V30 7203 C 660.48 1.65287 -1.16989 0
M  V30 7204 C 660.808 1.92485 0.279232 0
M  V30 7205 O 660.063 1.53143 1.21843 0
M  V30 7206 C 660.362 3.011 -1.92545 0
M  V30 7207 C 660.028 2.93521 -3.42281 0
M  V30 7208 C 658.69 2.91161 -3.83117 0
M  V30 7209 C 661.042 2.82947 -4.3771 0
M  V30 7210 C 658.37 2.76043 -5.17704 0
M  V30 7211 C 660.722 2.69368 -5.72384 0
M  V30 7212 C 659.386 2.65373 -6.12482 0
M  V30 7213 H 658.656 0.604828 -0.428094 0
M  V30 7214 H 661.303 1.05084 -1.60092 0
M  V30 7215 H 659.608 3.65153 -1.42024 0
M  V30 7216 H 661.305 3.58073 -1.80512 0
M  V30 7217 H 657.895 2.96158 -3.09819 0
M  V30 7218 H 662.079 2.83849 -4.07116 0
M  V30 7219 H 657.335 2.71352 -5.47885 0
M  V30 7220 H 661.509 2.60156 -6.45981 0
M  V30 7221 H 659.136 2.53415 -7.16718 0
M  V30 7222 N 660.711 1.11618 1.11262 0
M  V30 7223 C 661.941 0.88745 1.86569 0
M  V30 7224 C 662.349 -0.56636 1.80524 0
M  V30 7225 O 661.692 -1.40289 1.18594 0
M  V30 7226 C 661.754 1.27313 3.36202 0
M  V30 7227 C 661.418 2.73649 3.66013 0
M  V30 7228 C 662.415 3.71863 3.63337 0
M  V30 7229 C 660.1 3.10342 3.9496 0
M  V30 7230 C 662.094 5.04788 3.89188 0
M  V30 7231 C 659.781 4.43451 4.20469 0
M  V30 7232 C 660.779 5.40484 4.17572 0
M  V30 7233 O 660.467 6.71195 4.42439 0
M  V30 7234 H 660.199 0.317543 0.596777 0
M  V30 7235 H 662.753 1.48768 1.41624 0
M  V30 7236 H 660.983 0.616062 3.81761 0
M  V30 7237 H 662.672 1.01991 3.92877 0
M  V30 7238 H 663.438 3.44861 3.41022 0
M  V30 7239 H 659.317 2.35431 3.9635 0
M  V30 7240 H 662.861 5.80516 3.86842 0
M  V30 7241 H 658.758 4.70187 4.42261 0
M  V30 7242 H 659.526 6.77012 4.59997 0
M  V30 7243 N 662.189 -1.289 0.906776 0
M  V30 7244 C 663.139 -2.25122 0.361109 0
M  V30 7245 C 664.123 -1.52169 -0.52283 0
M  V30 7246 O 665.315 -1.73223 -0.363691 0
M  V30 7247 C 662.444 -3.40915 -0.403982 0
M  V30 7248 C 661.53 -4.21198 0.495279 0
M  V30 7249 N 661.921 -4.79636 1.60572 0
M  V30 7250 C 660.219 -4.45027 0.294372 0
M  V30 7251 C 660.92 -5.39977 2.16332 0
M  V30 7252 N 659.896 -5.23753 1.45546 0
M  V30 7253 H 663.698 -2.67869 1.20927 0
M  V30 7254 H 661.212 -1.43592 0.758632 0
M  V30 7255 H 663.209 -4.08922 -0.811695 0
M  V30 7256 H 661.869 -2.99703 -1.24932 0
M  V30 7257 H 662.88 -4.78209 1.98838 0
M  V30 7258 H 659.557 -4.14348 -0.512021 0
M  V30 7259 H 660.947 -5.96266 3.09704 0
M  V30 7260 N 663.667 -0.670007 -1.42649 0
M  V30 7261 C 664.915 -0.18991 -2.01206 0
M  V30 7262 C 665.236 1.20617 -1.53221 0
M  V30 7263 O 664.506 1.80898 -0.751856 0
M  V30 7264 H 663.086 -0.0672189 -0.743969 0
M  V30 7265 H 665.748 -0.865442 -1.74631 0
M  V30 7266 H 664.844 -0.187481 -3.11536 0
M  V30 7267 N 665.145 1.52092 -0.413018 0
M  V30 7268 C 666.561 1.59471 -0.0640836 0
M  V30 7269 C 666.761 1.42562 1.42402 0
M  V30 7270 O 665.817 1.25453 2.19129 0
M  V30 7271 C 667.13 2.95392 -0.562474 0
M  V30 7272 C 668.678 3.08637 -0.520788 0
M  V30 7273 C 669.153 4.47044 -0.995752 0
M  V30 7274 N 670.644 4.53296 -0.952732 0
M  V30 7275 C 671.379 5.58669 -1.29138 0
M  V30 7276 N 670.875 6.71576 -1.70168 0
M  V30 7277 N 672.668 5.48898 -1.2111 0
M  V30 7278 H 664.819 1.6133 -1.38153 0
M  V30 7279 H 667.082 0.75916 -0.567785 0
M  V30 7280 H 666.788 3.13059 -1.60271 0
M  V30 7281 H 666.662 3.77191 0.0257875 0
M  V30 7282 H 669.049 2.90652 0.510412 0
M  V30 7283 H 669.13 2.28735 -1.14515 0
M  V30 7284 H 668.774 4.65773 -2.0253 0
M  V30 7285 H 668.704 5.25448 -0.348162 0
M  V30 7286 H 671.195 3.72248 -0.651119 0
M  V30 7287 H 671.508 7.47973 -1.9431 0
M  V30 7288 H 669.853 6.72847 -1.74075 0
M  V30 7289 H 673.044 4.59573 -0.889396 0
M  V30 7290 H 673.217 6.30912 -1.47833 0
M  V30 7291 N 666.623 0.143563 1.56945 0
M  V30 7292 C 667.851 -0.515447 2.00377 0
M  V30 7293 C 668.266 -1.58643 1.02361 0
M  V30 7294 O 667.623 -1.82489 0.0201039 0
M  V30 7295 C 667.674 -1.11923 3.43737 0
M  V30 7296 O 667.395 -0.0910318 4.38005 0
M  V30 7297 C 668.896 -1.85918 4.02429 0
M  V30 7298 H 666.116 -0.134478 0.657386 0
M  V30 7299 H 668.66 0.237135 2.0312 0
M  V30 7300 H 666.815 -1.82245 3.41856 0
M  V30 7301 H 667.229 -0.532916 5.21786 0
M  V30 7302 H 668.703 -2.2346 5.04747 0
M  V30 7303 H 669.18 -2.7438 3.42947 0
M  V30 7304 H 669.786 -1.20303 4.07931 0
M  V30 7305 N 668.101 -1.57061 -0.130224 0
M  V30 7306 C 669.011 -2.02802 -1.17934 0
M  V30 7307 C 670.027 -0.946378 -1.46013 0
M  V30 7308 O 671.203 -1.25708 -1.57351 0
M  V30 7309 C 668.268 -2.41368 -2.48882 0
M  V30 7310 C 667.329 -3.63561 -2.28301 0
M  V30 7311 C 666.562 -4.00279 -3.53005 0
M  V30 7312 O 666.785 -3.37463 -4.59864 0
M  V30 7313 O 665.719 -4.93441 -3.44673 0
M  V30 7314 H 669.545 -2.92394 -0.820958 0
M  V30 7315 H 667.13 -1.45475 -0.340197 0
M  V30 7316 H 669.012 -2.66958 -3.26054 0
M  V30 7317 H 667.687 -1.54926 -2.84217 0
M  V30 7318 H 666.594 -3.43136 -1.49025 0
M  V30 7319 H 667.927 -4.50673 -1.97875 0
M  V30 7320 N 669.579 0.400081 -1.52437 0
M  V30 7321 C 670.807 1.16768 -1.70801 0
M  V30 7322 C 671.222 1.84036 -0.421462 0
M  V30 7323 O 670.579 1.72242 0.603228 0
M  V30 7324 C 670.63 2.22403 -2.8499 0
M  V30 7325 O 670.351 1.57879 -4.08663 0
M  V30 7326 C 671.852 3.11974 -3.1494 0
M  V30 7327 H 669.072 0.350533 -0.57216 0
M  V30 7328 H 671.616 0.469534 -1.99037 0
M  V30 7329 H 669.771 2.87871 -2.59247 0
M  V30 7330 H 670.185 2.27982 -4.7236 0
M  V30 7331 H 671.659 3.82148 -3.9833 0
M  V30 7332 H 672.136 3.74858 -2.28863 0
M  V30 7333 H 672.742 2.52165 -3.42481 0
M  V30 7334 N 671.057 1.43213 0.657864 0
M  V30 7335 C 671.99 1.42456 1.78273 0
M  V30 7336 C 672.968 0.286598 1.60054 0
M  V30 7337 O 674.152 0.479467 1.823 0
M  V30 7338 C 671.279 1.23169 3.15511 0
M  V30 7339 C 670.325 2.40181 3.52442 0
M  V30 7340 S 671.158 4.02729 3.52944 0
M  V30 7341 C 672.314 3.85816 4.92846 0
M  V30 7342 H 672.547 2.37642 1.78644 0
M  V30 7343 H 670.08 1.30188 0.830084 0
M  V30 7344 H 672.038 1.12728 3.94719 0
M  V30 7345 H 670.699 0.295398 3.12708 0
M  V30 7346 H 669.892 2.22478 4.52239 0
M  V30 7347 H 669.494 2.47224 2.80636 0
M  V30 7348 H 671.786 3.47853 5.81381 0
M  V30 7349 H 672.729 4.85348 5.15599 0
M  V30 7350 H 673.137 3.18361 4.66162 0
M  V30 7351 N 672.536 -0.895792 1.29666 0
M  V30 7352 C 673.952 -1.17726 1.07763 0
M  V30 7353 C 674.152 -2.00794 -0.168576 0
M  V30 7354 O 673.208 -2.37213 -0.865244 0
M  V30 7355 C 674.521 -1.89441 2.33522 0
M  V30 7356 C 676.069 -2.02251 2.3888 0
M  V30 7357 C 676.544 -2.77378 3.64452 0
M  V30 7358 N 678.035 -2.8493 3.65198 0
M  V30 7359 C 678.77 -3.43606 4.59045 0
M  V30 7360 N 678.266 -4.03417 5.63228 0
M  V30 7361 N 680.059 -3.41317 4.46608 0
M  V30 7362 H 672.21 -0.341652 2.09634 0
M  V30 7363 H 674.473 -0.213865 0.923561 0
M  V30 7364 H 674.179 -1.35842 3.24407 0
M  V30 7365 H 674.053 -2.89893 2.41334 0
M  V30 7366 H 676.44 -2.55025 1.4848 0
M  V30 7367 H 676.521 -1.0092 2.3505 0
M  V30 7368 H 676.165 -2.25279 4.55205 0
M  V30 7369 H 676.095 -3.79062 3.65541 0
M  V30 7370 H 678.586 -2.42453 2.89871 0
M  V30 7371 H 678.899 -4.46224 6.30955 0
M  V30 7372 H 677.244 -4.01868 5.67033 0
M  V30 7373 H 680.435 -2.93812 3.64407 0
M  V30 7374 H 680.608 -3.86751 5.1993 0
M  V30 7375 N 674.014 -1.12206 -1.10668 0
M  V30 7376 C 675.239 -0.898938 -1.86906 0
M  V30 7377 C 675.664 0.546346 -1.79991 0
M  V30 7378 O 675.022 1.38655 -1.1681 0
M  V30 7379 C 675.07 -1.37529 -3.33344 0
M  V30 7380 O 674.174 -0.55218 -4.08687 0
M  V30 7381 H 673.515 -0.323163 -0.580053 0
M  V30 7382 H 676.045 -1.49355 -1.39837 0
M  V30 7383 H 676.055 -1.3733 -3.84193 0
M  V30 7384 H 674.73 -2.42767 -3.37693 0
M  V30 7385 H 673.307 -0.620947 -3.67694 0
M  V30 7386 N 675.492 1.28418 -0.913599 0
M  V30 7387 C 676.732 1.96756 -0.553771 0
M  V30 7388 C 677.096 1.70334 0.886013 0
M  V30 7389 O 678.297 2.32242 1.35341 0
M  V30 7390 C 676.568 3.47041 -0.854249 0
M  V30 7391 S 678.127 4.34667 -0.600816 0
M  V30 7392 H 674.945 0.680831 -0.204915 0
M  V30 7393 H 677.547 1.55947 -1.17902 0
M  V30 7394 H 676.251 3.63766 -1.90007 0
M  V30 7395 H 675.782 3.92797 -0.217651 0
M  V30 7396 H 677.797 4.93166 0.547906 0
M  V30 7397 N 676.97 0.677563 1.42291 0
M  V30 7398 C 678.198 0.209459 2.05837 0
M  V30 7399 C 678.613 -1.13444 1.50917 0
M  V30 7400 O 677.97 -1.70529 0.65008 0
M  V30 7401 C 678.021 0.138819 3.61233 0
M  V30 7402 O 677.742 1.42962 4.14118 0
M  V30 7403 C 679.243 -0.352449 4.41897 0
M  V30 7404 H 676.463 0.101209 0.663323 0
M  V30 7405 H 679.007 0.925077 1.8238 0
M  V30 7406 H 677.162 -0.527505 3.83792 0
M  V30 7407 H 677.576 1.3048 5.08011 0
M  V30 7408 H 679.05 -0.350778 5.50884 0
M  V30 7409 H 679.527 -1.3882 4.16684 0
M  V30 7410 H 680.133 0.282236 4.24362 0
M  V30 7411 N 678.448 -1.51871 0.421078 0
M  V30 7412 C 679.694 -2.02237 -0.151014 0
M  V30 7413 C 680.027 -1.30554 -1.43768 0
M  V30 7414 O 679.302 -0.41546 -1.90011 0
M  V30 7415 C 679.585 -3.5802 -0.386482 0
M  V30 7416 C 679.438 -4.40339 0.9177 0
M  V30 7417 C 680.757 -4.24444 -1.16342 0
M  V30 7418 H 677.876 -0.735062 -0.0534102 0
M  V30 7419 H 680.518 -1.81656 0.556888 0
M  V30 7420 H 678.668 -3.75688 -0.989494 0
M  V30 7421 H 680.34 -4.34357 1.55344 0
M  V30 7422 H 678.583 -4.06073 1.526 0
M  V30 7423 H 679.254 -5.47451 0.707187 0
M  V30 7424 H 681.73 -4.10948 -0.652788 0
M  V30 7425 H 680.606 -5.33358 -1.29693 0
M  V30 7426 H 680.867 -3.84204 -2.18724 0
M  V30 7427 N 679.926 -0.151884 -1.56866 0
M  V30 7428 C 680.836 0.798876 -2.20579 0
M  V30 7429 C 681.852 1.268 -1.19154 0
M  V30 7430 O 683.028 1.32418 -1.51748 0
M  V30 7431 C 680.093 2.01861 -2.81874 0
M  V30 7432 C 679.154 1.59825 -3.9844 0
M  V30 7433 C 678.387 2.75984 -4.56802 0
M  V30 7434 O 678.61 3.92331 -4.14044 0
M  V30 7435 O 677.544 2.51175 -5.46987 0
M  V30 7436 H 681.37 0.2865 -3.02346 0
M  V30 7437 H 678.955 0.0753806 -1.4921 0
M  V30 7438 H 680.837 2.73235 -3.20813 0
M  V30 7439 H 679.512 2.52042 -2.03117 0
M  V30 7440 H 678.419 0.854601 -3.64208 0
M  V30 7441 H 679.752 1.14355 -4.78731 0
M  V30 7442 N 681.404 1.57128 0.121893 0
M  V30 7443 C 682.367 1.99197 1.13372 0
M  V30 7444 C 683.367 0.881728 1.3447 0
M  V30 7445 O 684.557 1.14783 1.31036 0
M  V30 7446 C 681.689 2.32963 2.4888 0
M  V30 7447 H 682.882 2.89788 0.772204 0
M  V30 7448 H 680.435 1.51952 0.366093 0
M  V30 7449 H 681.17 1.45243 2.89957 0
M  V30 7450 H 680.955 3.13934 2.34921 0
M  V30 7451 H 682.445 2.66261 3.21706 0
M  V30 7452 N 682.882 -0.391992 1.52647 0
M  V30 7453 C 684.128 -1.139 1.67793 0
M  V30 7454 C 684.461 -1.89711 0.41514 0
M  V30 7455 O 683.736 -1.85431 -0.586979 0
M  V30 7456 C 684.019 -2.11966 2.91105 0
M  V30 7457 C 683.872 -1.39939 4.27478 0
M  V30 7458 C 685.191 -3.1243 3.09961 0
M  V30 7459 H 682.31 -0.412707 0.610608 0
M  V30 7460 H 684.952 -0.422725 1.85238 0
M  V30 7461 H 683.102 -2.73048 2.76364 0
M  V30 7462 H 684.774 -0.818439 4.53982 0
M  V30 7463 H 683.017 -0.701246 4.28095 0
M  V30 7464 H 683.688 -2.1158 5.09841 0
M  V30 7465 H 686.164 -2.61435 3.23714 0
M  V30 7466 H 685.04 -3.78294 3.97725 0
M  V30 7467 H 685.301 -3.81127 2.24042 0
M  V30 7468 N 684.36 -1.4356 -0.65026 0
M  V30 7469 C 685.776 -1.27025 -0.966269 0
M  V30 7470 C 685.976 -0.192117 -2.00582 0
M  V30 7471 O 685.032 0.428459 -2.48838 0
M  V30 7472 C 686.345 -2.63556 -1.44772 0
M  V30 7473 C 687.893 -2.71111 -1.56421 0
M  V30 7474 C 688.368 -4.08067 -2.07956 0
M  V30 7475 N 689.859 -4.10146 -2.15254 0
M  V30 7476 C 690.594 -5.12952 -2.56258 0
M  V30 7477 N 690.09 -6.26129 -2.96537 0
M  V30 7478 N 691.883 -5.00306 -2.56224 0
M  V30 7479 H 684.034 -2.12367 0.0375758 0
M  V30 7480 H 686.297 -0.946894 -0.0457782 0
M  V30 7481 H 686.003 -3.43429 -0.758271 0
M  V30 7482 H 685.877 -2.89152 -2.42221 0
M  V30 7483 H 688.264 -1.91569 -2.24467 0
M  V30 7484 H 688.345 -2.49277 -0.573967 0
M  V30 7485 H 687.989 -4.88077 -1.40511 0
M  V30 7486 H 687.919 -4.27266 -3.07817 0
M  V30 7487 H 690.41 -3.28453 -1.86887 0
M  V30 7488 H 690.723 -7.00403 -3.26582 0
M  V30 7489 H 689.068 -6.29597 -2.94334 0
M  V30 7490 H 692.259 -4.10952 -2.24135 0
M  V30 7491 H 692.432 -5.80553 -2.87857 0
M  V30 7492 N 685.838 0.888903 -1.30139 0
M  V30 7493 C 687.084 1.64288 -1.19922 0
M  V30 7494 C 687.439 1.90839 0.244561 0
M  V30 7495 O 686.732 1.51544 1.17239 0
M  V30 7496 C 686.926 2.99041 -1.95728 0
M  V30 7497 C 686.755 2.85644 -3.47329 0
M  V30 7498 C 685.525 2.85836 -4.16685 0
M  V30 7499 C 687.723 2.6188 -4.42632 0
M  V30 7500 N 685.705 2.63289 -5.54574 0
M  V30 7501 C 687.076 2.48418 -5.68057 0
M  V30 7502 C 689.131 2.47073 -4.32272 0
M  V30 7503 C 687.834 2.21655 -6.84296 0
M  V30 7504 C 689.86 2.21695 -5.48275 0
M  V30 7505 C 689.222 2.09007 -6.72678 0
M  V30 7506 H 685.321 0.606315 -0.493868 0
M  V30 7507 H 687.905 1.0478 -1.64102 0
M  V30 7508 H 686.076 3.56589 -1.53945 0
M  V30 7509 H 687.808 3.63607 -1.77685 0
M  V30 7510 H 684.563 2.97521 -3.68481 0
M  V30 7511 H 684.987 2.55039 -6.27124 0
M  V30 7512 H 689.629 2.55621 -3.36776 0
M  V30 7513 H 687.347 2.11845 -7.79838 0
M  V30 7514 H 690.933 2.11067 -5.42164 0
M  V30 7515 H 689.813 1.89643 -7.60924 0
M  V30 7516 N 687.317 1.12792 1.10072 0
M  V30 7517 C 688.557 0.895691 1.8373 0
M  V30 7518 C 688.921 -0.568131 1.83402 0
M  V30 7519 O 690.122 -0.917666 2.52651 0
M  V30 7520 C 688.393 1.4593 3.2625 0
M  V30 7521 S 689.952 1.36615 4.16991 0
M  V30 7522 H 686.77 0.323017 0.633389 0
M  V30 7523 H 689.372 1.43816 1.32428 0
M  V30 7524 H 688.076 2.51818 3.24062 0
M  V30 7525 H 687.607 0.914478 3.82624 0
M  V30 7526 H 689.622 0.340131 4.95033 0
M  V30 7527 N 688.795 -1.27931 0.920396 0
M  V30 7528 C 689.727 -2.26175 0.371169 0
M  V30 7529 C 690.74 -1.55122 -0.494065 0
M  V30 7530 O 691.929 -1.75825 -0.30787 0
M  V30 7531 C 689.029 -3.35376 -0.487481 0
M  V30 7532 C 688.202 -4.35943 0.356772 0
M  V30 7533 C 687.261 -5.24374 -0.438042 0
M  V30 7534 O 686.287 -5.68998 0.151715 0
M  V30 7535 N 687.489 -5.53823 -1.73956 0
M  V30 7536 H 690.254 -2.73938 1.21564 0
M  V30 7537 H 687.815 -1.41482 0.787047 0
M  V30 7538 H 689.807 -3.91476 -1.02609 0
M  V30 7539 H 688.377 -2.87269 -1.23269 0
M  V30 7540 H 687.597 -3.7921 1.07672 0
M  V30 7541 H 688.885 -5.0015 0.934206 0
M  V30 7542 H 688.283 -5.19413 -2.24114 0
M  V30 7543 H 686.84 -6.12653 -2.22486 0
M  V30 7544 N 690.273 -0.685099 -1.4193 0
M  V30 7545 C 691.498 -0.218842 -2.06242 0
M  V30 7546 C 691.923 1.11923 -1.51178 0
M  V30 7547 O 691.281 1.69837 -0.634446 0
M  V30 7548 C 691.329 -0.175592 -3.60172 0
M  V30 7549 O 690.433 0.852776 -4.03487 0
M  V30 7550 H 689.774 -0.109531 -0.654904 0
M  V30 7551 H 692.304 -0.937013 -1.81882 0
M  V30 7552 H 692.314 -0.00291151 -4.08 0
M  V30 7553 H 690.989 -1.15222 -3.99621 0
M  V30 7554 H 689.566 0.650301 -3.67186 0
M  V30 7555 N 691.751 1.51645 -0.429126 0
M  V30 7556 C 692.684 2.24083 0.431492 0
M  V30 7557 C 693.662 1.25691 1.03153 0
M  V30 7558 O 694.846 1.54802 1.07557 0
M  V30 7559 C 691.973 2.9849 1.60067 0
M  V30 7560 C 691.019 4.11474 1.12211 0
M  V30 7561 S 691.852 5.35453 0.0708449 0
M  V30 7562 C 693.008 6.13395 1.24488 0
M  V30 7563 H 693.241 2.96733 -0.183525 0
M  V30 7564 H 690.774 1.52916 -0.213574 0
M  V30 7565 H 692.732 3.4196 2.27099 0
M  V30 7566 H 691.393 2.25445 2.18708 0
M  V30 7567 H 690.586 4.62784 1.99618 0
M  V30 7568 H 690.188 3.70223 0.530149 0
M  V30 7569 H 692.48 6.41984 2.16479 0
M  V30 7570 H 693.423 7.0388 0.771921 0
M  V30 7571 H 693.831 5.44761 1.47973 0
M  V30 7572 N 693.229 0.160201 1.56784 0
M  V30 7573 C 694.161 -0.80564 2.14574 0
M  V30 7574 C 695.174 -1.20154 1.09849 0
M  V30 7575 O 696.363 -1.14333 1.37078 0
M  V30 7576 C 693.463 -2.09434 2.6644 0
M  V30 7577 C 692.636 -1.86375 3.95706 0
M  V30 7578 C 691.695 -2.99358 4.32749 0
M  V30 7579 O 690.721 -2.70475 5.00831 0
M  V30 7580 N 691.923 -4.26867 3.93402 0
M  V30 7581 H 694.688 -0.311644 2.98075 0
M  V30 7582 H 692.249 -0.0229465 1.61884 0
M  V30 7583 H 694.241 -2.84091 2.88226 0
M  V30 7584 H 692.811 -2.50057 1.8759 0
M  V30 7585 H 692.031 -0.956821 3.82412 0
M  V30 7586 H 693.319 -1.68322 4.80151 0
M  V30 7587 H 692.717 -4.53197 3.38569 0
M  V30 7588 H 691.274 -4.98263 4.20211 0
M  V30 7589 N 694.707 -1.5719 -0.113559 0
M  V30 7590 C 695.984 -1.76117 -0.850999 0
M  V30 7591 C 696.364 -0.737085 -1.97814 0
M  V30 7592 O 695.712 0.237942 -2.27258 0
M  V30 7593 C 695.922 -3.21298 -1.36266 0
M  V30 7594 C 697.27 -3.83955 -1.81283 0
M  V30 7595 O 698.294 -3.24934 -1.45933 0
M  V30 7596 O 697.153 -4.87707 -2.46585 0
M  V30 7597 H 694.247 -0.721308 -0.404529 0
M  V30 7598 H 696.793 -1.69423 -0.0968756 0
M  V30 7599 H 695.565 -3.87355 -0.554235 0
M  V30 7600 H 695.188 -3.32552 -2.17933 0
M  V30 7601 N 696.185 0.383891 -1.52853 0
M  V30 7602 C 697.596 0.961591 -1.60032 0
M  V30 7603 C 697.947 1.90819 -0.456333 0
M  V30 7604 O 697.072 2.12288 0.419873 0
M  V30 7605 C 697.667 1.75078 -2.90057 0
M  V30 7606 C 696.226 2.2781 -2.99632 0
M  V30 7607 C 695.373 1.08512 -2.55187 0
M  V30 7608 H 698.324 0.163269 -1.57858 0
M  V30 7609 H 698.345 2.61046 -2.7683 0
M  V30 7610 H 697.857 1.06157 -3.73299 0
M  V30 7611 H 695.958 3.00028 -2.20939 0
M  V30 7612 H 696.071 2.56947 -4.0437 0
M  V30 7613 H 694.435 1.44667 -2.09627 0
M  V30 7614 H 695.218 0.41118 -3.40829 0
M  V30 7615 N 697.663 1.43903 0.642637 0
M  V30 7616 C 698.888 1.49758 1.43483 0
M  V30 7617 C 699.313 0.119911 1.87717 0
M  V30 7618 O 698.671 -0.888558 1.58033 0
M  V30 7619 C 698.719 2.45744 2.63898 0
M  V30 7620 O 697.823 1.95101 3.63331 0
M  V30 7621 H 697.164 0.506138 0.429791 0
M  V30 7622 H 699.694 1.88923 0.785438 0
M  V30 7623 H 699.704 2.63399 3.11584 0
M  V30 7624 H 698.379 3.45818 2.31046 0
M  V30 7625 H 696.956 1.87158 3.22531 0
M  V30 7626 N 699.141 -0.881989 1.30609 0
M  V30 7627 C 700.387 -1.63647 1.19781 0
M  V30 7628 C 700.72 -1.92632 -0.246265 0
M  V30 7629 O 699.995 -1.54938 -1.17577 0
M  V30 7630 C 700.278 -2.97437 2.02985 0
M  V30 7631 C 700.131 -2.75406 3.55628 0
M  V30 7632 C 701.45 -3.98397 1.86997 0
M  V30 7633 H 698.569 -0.593841 0.436488 0
M  V30 7634 H 701.211 -1.02041 1.60273 0
M  V30 7635 H 699.361 -3.50018 1.68581 0
M  V30 7636 H 701.033 -2.2959 4.00107 0
M  V30 7637 H 699.276 -2.09856 3.79662 0
M  V30 7638 H 699.947 -3.70552 4.09139 0
M  V30 7639 H 702.423 -3.54986 2.17081 0
M  V30 7640 H 701.299 -4.89916 2.47536 0
M  V30 7641 H 701.56 -4.3424 0.829943 0
M  V30 7642 N 700.619 -1.13374 -1.09472 0
M  V30 7643 C 701.567 -0.806105 -2.18185 0
M  V30 7644 C 702.561 0.21136 -1.68076 0
M  V30 7645 O 703.767 0.0685558 -1.79869 0
M  V30 7646 H 700.142 -0.242901 -0.71169 0
M  V30 7647 H 702.113 -1.73115 -2.43051 0
M  V30 7648 C 700.862 -0.287928 -3.46506 0
M  V30 7649 H 700.185 -1.06217 -3.85432 0
M  V30 7650 H 701.625 -0.0971054 -4.23889 0
M  V30 7651 C 700.084 0.986256 -3.22141 0
M  V30 7652 O 700.614 2.06217 -3.44728 0
M  V30 7653 N 698.82 0.917153 -2.75747 0
M  V30 7654 H 698.367 0.0414609 -2.57567 0
M  V30 7655 H 698.325 1.77029 -2.59823 0
M  V30 7656 N 702.098 1.27442 -0.927168 0
M  V30 7657 C 703.028 2.29256 -0.443188 0
M  V30 7658 C 704.009 1.62701 0.49624 0
M  V30 7659 O 705.194 1.90013 0.401105 0
M  V30 7660 C 702.324 3.45955 0.305366 0
M  V30 7661 C 701.278 4.24501 -0.546178 0
M  V30 7662 C 700.604 5.33671 0.331512 0
M  V30 7663 C 701.904 4.89921 -1.81037 0
M  V30 7664 H 703.598 2.69988 -1.29409 0
M  V30 7665 H 701.144 1.29792 -0.623705 0
M  V30 7666 H 703.097 4.1628 0.654885 0
M  V30 7667 H 701.821 3.04138 1.19029 0
M  V30 7668 H 700.48 3.55921 -0.878398 0
M  V30 7669 H 700.128 4.88096 1.21537 0
M  V30 7670 H 699.828 5.87131 -0.234746 0
M  V30 7671 H 701.352 6.0684 0.676614 0
M  V30 7672 H 702.766 5.52536 -1.52895 0
M  V30 7673 H 701.163 5.53436 -2.32009 0
M  V30 7674 H 702.233 4.13652 -2.53021 0
M  V30 7675 N 703.576 0.692616 1.41565 0
M  V30 7676 C 704.992 0.363878 1.55397 0
M  V30 7677 C 705.192 -1.1294 1.66874 0
M  V30 7678 O 704.248 -1.91517 1.64552 0
M  V30 7679 C 705.561 1.10982 2.7947 0
M  V30 7680 C 707.109 1.09387 2.93263 0
M  V30 7681 C 707.584 1.8215 4.20221 0
M  V30 7682 N 709.075 1.79105 4.27172 0
M  V30 7683 C 709.81 2.32247 5.2426 0
M  V30 7684 N 709.306 2.93847 6.27396 0
M  V30 7685 N 711.099 2.22519 5.1618 0
M  V30 7686 H 703.25 1.66116 1.3236 0
M  V30 7687 H 705.513 0.700848 0.63837 0
M  V30 7688 H 705.219 2.1647 2.77188 0
M  V30 7689 H 705.093 0.686492 3.709 0
M  V30 7690 H 707.48 0.0472638 2.95062 0
M  V30 7691 H 707.561 1.55623 2.03015 0
M  V30 7692 H 707.205 2.86789 4.19183 0
M  V30 7693 H 707.135 1.33351 5.09436 0
M  V30 7694 H 709.626 1.34191 3.53272 0
M  V30 7695 H 709.939 3.31972 6.97864 0
M  V30 7696 H 708.284 2.97924 6.27906 0
M  V30 7697 H 711.475 1.7407 4.34531 0
M  V30 7698 H 711.648 2.64239 5.91677 0
M  V30 7699 N 705.054 -1.51416 0.437162 0
M  V30 7700 C 705.964 -2.31493 -0.380537 0
M  V30 7701 C 706.98 -1.40399 -1.02782 0
M  V30 7702 O 708.156 -1.73471 -1.02323 0
M  V30 7703 C 705.221 -3.1413 -1.46709 0
M  V30 7704 C 704.282 -4.21003 -0.839953 0
M  V30 7705 C 703.515 -4.9969 -1.87473 0
M  V30 7706 O 703.738 -4.79008 -3.09689 0
M  V30 7707 O 702.672 -5.8379 -1.46536 0
M  V30 7708 H 706.498 -3.02469 0.273183 0
M  V30 7709 H 704.083 -1.48059 0.199706 0
M  V30 7710 H 705.965 -3.65505 -2.09724 0
M  V30 7711 H 704.64 -2.45919 -2.10489 0
M  V30 7712 H 703.547 -3.73706 -0.171752 0
M  V30 7713 H 704.88 -4.91587 -0.245638 0
M  V30 7714 N 706.532 -0.168513 -1.56696 0
M  V30 7715 C 707.948 0.187686 -1.58493 0
M  V30 7716 C 708.148 1.63063 -1.18375 0
M  V30 7717 O 707.204 2.36142 -0.894042 0
M  V30 7718 C 708.517 -0.0905858 -3.00564 0
M  V30 7719 C 710.065 -0.028575 -3.12987 0
M  V30 7720 C 710.54 -0.279799 -4.57145 0
M  V30 7721 N 712.031 -0.227476 -4.62641 0
M  V30 7722 C 712.766 -0.396073 -5.7203 0
M  V30 7723 N 712.262 -0.623572 -6.89988 0
M  V30 7724 N 714.055 -0.332173 -5.61118 0
M  V30 7725 H 706.206 -1.11042 -1.81062 0
M  V30 7726 H 708.469 -0.441235 -0.839056 0
M  V30 7727 H 708.175 -1.09006 -3.34381 0
M  V30 7728 H 708.049 0.619078 -3.72085 0
M  V30 7729 H 710.436 0.961471 -2.78998 0
M  V30 7730 H 710.517 -0.770905 -2.43907 0
M  V30 7731 H 710.161 -1.26704 -4.91842 0
M  V30 7732 H 710.091 0.48311 -5.24379 0
M  V30 7733 H 712.582 -0.0571723 -3.77857 0
M  V30 7734 H 712.895 -0.741745 -7.69232 0
M  V30 7735 H 711.24 -0.660153 -6.91858 0
M  V30 7736 H 714.431 -0.155051 -4.67843 0
M  V30 7737 H 714.604 -0.466994 -6.46315 0
M  V30 7738 N 708.01 1.57248 0.105221 0
M  V30 7739 C 708.942 1.98008 1.15436 0
M  V30 7740 C 709.955 0.881236 1.36887 0
M  V30 7741 O 711.144 1.15943 1.35718 0
M  V30 7742 C 708.244 2.27509 2.51183 0
M  V30 7743 C 707.417 3.58811 2.50147 0
M  V30 7744 C 706.476 3.76365 3.67745 0
M  V30 7745 O 705.502 4.48329 3.50699 0
M  V30 7746 N 706.704 3.16174 4.86841 0
M  V30 7747 H 709.469 2.88616 0.807519 0
M  V30 7748 H 707.03 1.59202 0.29433 0
M  V30 7749 H 709.022 2.36455 3.28438 0
M  V30 7750 H 707.592 1.42959 2.77995 0
M  V30 7751 H 706.812 3.60927 1.5851 0
M  V30 7752 H 708.1 4.45088 2.46524 0
M  V30 7753 H 707.498 2.57701 5.03594 0
M  V30 7754 H 706.055 3.30621 5.61723 0
M  V30 7755 N 709.488 -0.375779 1.53054 0
M  V30 7756 C 710.42 -1.47963 1.75042 0
M  V30 7757 C 711.433 -1.50073 0.631031 0
M  V30 7758 O 712.622 -1.53736 0.907052 0
M  V30 7759 C 709.722 -2.86767 1.80604 0
M  V30 7760 C 708.895 -3.08471 3.10104 0
M  V30 7761 C 707.954 -4.27332 3.07041 0
M  V30 7762 O 706.98 -4.22998 3.80869 0
M  V30 7763 N 708.182 -5.34214 2.27147 0
M  V30 7764 H 710.947 -1.29484 2.70285 0
M  V30 7765 H 708.508 -0.565416 1.51706 0
M  V30 7766 H 710.5 -3.64404 1.76045 0
M  V30 7767 H 709.07 -2.98542 0.926897 0
M  V30 7768 H 708.29 -2.18583 3.28048 0
M  V30 7769 H 709.578 -3.19834 3.95706 0
M  V30 7770 H 708.976 -5.40594 1.66656 0
M  V30 7771 H 707.533 -6.10467 2.28415 0
M  V30 7772 N 710.966 -1.44241 -0.634997 0
M  V30 7773 C 711.913 -1.5081 -1.74714 0
M  V30 7774 C 712.883 -0.356147 -1.62237 0
M  V30 7775 O 714.068 -0.565848 -1.82216 0
M  V30 7776 C 711.208 -1.45458 -3.12947 0
M  V30 7777 C 710.321 -2.70998 -3.36428 0
M  V30 7778 C 709.456 -2.57507 -4.64611 0
M  V30 7779 C 708.495 -3.78229 -4.81258 0
M  V30 7780 N 707.632 -3.63438 -6.00714 0
M  V30 7781 H 712.472 -2.45832 -1.68436 0
M  V30 7782 H 710.009 -1.2201 -0.821706 0
M  V30 7783 H 711.967 -1.40347 -3.92885 0
M  V30 7784 H 710.597 -0.540058 -3.1825 0
M  V30 7785 H 709.649 -2.86312 -2.50458 0
M  V30 7786 H 710.961 -3.60619 -3.44609 0
M  V30 7787 H 710.115 -2.50207 -5.52703 0
M  V30 7788 H 708.854 -1.65441 -4.58782 0
M  V30 7789 H 707.859 -3.85918 -3.91596 0
M  V30 7790 H 709.084 -4.71327 -4.88904 0
M  V30 7791 H 707.03 -2.7412 -5.95982 0
M  V30 7792 H 706.947 -4.46672 -6.09934 0
M  V30 7793 H 708.215 -3.60022 -6.91378 0
M  V30 7794 N 712.444 0.87505 -1.31075 0
M  V30 7795 C 713.377 1.98471 -1.12625 0
M  V30 7796 C 714.355 1.6257 -0.0311379 0
M  V30 7797 O 715.539 1.87574 -0.186594 0
M  V30 7798 C 712.666 3.30963 -0.719799 0
M  V30 7799 C 711.712 3.85849 -1.81722 0
M  V30 7800 S 712.545 4.11926 -3.42165 0
M  V30 7801 C 713.701 5.47423 -3.03445 0
M  V30 7802 H 713.934 2.13817 -2.06566 0
M  V30 7803 H 711.467 1.02463 -1.15502 0
M  V30 7804 H 713.425 4.07541 -0.492035 0
M  V30 7805 H 712.086 3.1346 0.200413 0
M  V30 7806 H 711.279 4.81616 -1.48533 0
M  V30 7807 H 710.881 3.16046 -1.99977 0
M  V30 7808 H 713.173 6.28881 -2.52023 0
M  V30 7809 H 714.116 5.85557 -3.98157 0
M  V30 7810 H 714.524 5.10455 -2.41031 0
M  V30 7811 N 713.922 1.13953 1.08869 0
M  V30 7812 C 714.852 0.844824 2.17681 0
M  V30 7813 C 715.833 -0.198213 1.68941 0
M  V30 7814 O 717.018 -0.0559073 1.9412 0
M  V30 7815 C 714.148 0.316325 3.45856 0
M  V30 7816 C 713.102 1.29426 4.07962 0
M  V30 7817 C 712.428 0.625275 5.31031 0
M  V30 7818 C 713.728 2.65484 4.49795 0
M  V30 7819 H 715.422 1.75471 2.42591 0
M  V30 7820 H 712.968 0.845116 1.16592 0
M  V30 7821 H 714.921 0.0977876 4.21287 0
M  V30 7822 H 713.645 -0.628972 3.20486 0
M  V30 7823 H 712.304 1.49889 3.34558 0
M  V30 7824 H 711.952 -0.325678 5.01945 0
M  V30 7825 H 711.652 1.27777 5.73539 0
M  V30 7826 H 713.176 0.416152 6.0918 0
M  V30 7827 H 714.59 2.48957 5.16424 0
M  V30 7828 H 712.987 3.26963 5.03205 0
M  V30 7829 H 714.057 3.22717 3.61914 0
M  V30 7830 N 715.4 -1.26948 0.933913 0
M  V30 7831 C 716.332 -2.25768 0.395137 0
M  V30 7832 C 717.345 -1.55637 -0.477585 0
M  V30 7833 O 718.534 -1.76142 -0.289204 0
M  V30 7834 C 715.634 -3.35874 -0.451882 0
M  V30 7835 C 714.807 -4.3554 0.40299 0
M  V30 7836 C 713.866 -5.24809 -0.3824 0
M  V30 7837 O 712.892 -5.68805 0.212057 0
M  V30 7838 N 714.094 -5.55636 -1.68072 0
M  V30 7839 H 716.859 -2.72634 1.24463 0
M  V30 7840 H 714.42 -1.40639 0.802008 0
M  V30 7841 H 716.412 -3.92542 -0.984516 0
M  V30 7842 H 714.982 -2.8856 -1.20215 0
M  V30 7843 H 714.202 -3.78047 1.11688 0
M  V30 7844 H 715.49 -4.99131 0.987201 0
M  V30 7845 H 714.888 -5.2176 -2.18592 0
M  V30 7846 H 713.445 -6.14978 -2.15975 0
M  V30 7847 N 716.879 -0.700114 -1.41195 0
M  V30 7848 C 717.842 -0.0465706 -2.29153 0
M  V30 7849 C 718.842 0.703302 -1.44604 0
M  V30 7850 O 720.032 0.537513 -1.657 0
M  V30 7851 C 717.164 0.944324 -3.2756 0
M  V30 7852 H 718.357 -0.821064 -2.88442 0
M  V30 7853 H 715.91 -0.463869 -1.49258 0
M  V30 7854 H 716.645 1.74642 -2.73259 0
M  V30 7855 H 716.43 0.409701 -3.89954 0
M  V30 7856 H 717.92 1.39925 -3.9346 0
M  V30 7857 N 718.357 1.51182 -0.445186 0
M  V30 7858 C 719.604 2.02152 0.118645 0
M  V30 7859 C 719.932 1.32888 1.42025 0
M  V30 7860 O 719.187 0.435041 1.90803 0
M  V30 7861 C 719.486 3.55408 0.376797 0
M  V30 7862 C 719.152 4.43008 -0.839945 0
M  V30 7863 C 717.814 4.66669 -1.17361 0
M  V30 7864 C 720.166 4.9435 -1.65127 0
M  V30 7865 C 717.494 5.38919 -2.31913 0
M  V30 7866 C 719.846 5.67857 -2.78786 0
M  V30 7867 C 718.51 5.89779 -3.12597 0
M  V30 7868 H 717.78 0.739727 0.0434152 0
M  V30 7869 H 720.427 1.82055 -0.593984 0
M  V30 7870 H 718.732 3.73879 1.1714 0
M  V30 7871 H 720.429 3.92388 0.826602 0
M  V30 7872 H 717.019 4.24793 -0.569958 0
M  V30 7873 H 721.203 4.75947 -1.4067 0
M  V30 7874 H 716.459 5.54105 -2.58413 0
M  V30 7875 H 720.633 6.06628 -3.42017 0
M  V30 7876 H 718.26 6.45542 -4.01471 0
M  V30 7877 N 719.835 0.176821 1.56605 0
M  V30 7878 C 720.798 -0.737429 2.17013 0
M  V30 7879 C 721.798 -1.15414 1.11965 0
M  V30 7880 O 722.988 -1.0702 1.37449 0
M  V30 7881 C 720.12 -2.00445 2.75744 0
M  V30 7882 H 721.313 -0.211455 2.99154 0
M  V30 7883 H 718.866 -0.0727582 1.56131 0
M  V30 7884 H 719.601 -2.57338 1.97352 0
M  V30 7885 H 719.386 -1.71456 3.52626 0
M  V30 7886 H 720.876 -2.65679 3.22187 0
M  V30 7887 N 721.313 -1.57302 -0.09688 0
M  V30 7888 C 722.26 -2.01933 -1.11766 0
M  V30 7889 C 723.23 -0.895329 -1.39904 0
M  V30 7890 O 724.415 -1.16119 -1.51397 0
M  V30 7891 C 721.555 -2.44726 -2.43317 0
M  V30 7892 C 720.668 -3.70639 -2.21925 0
M  V30 7893 C 719.803 -4.02318 -3.46862 0
M  V30 7894 C 718.842 -5.21346 -3.20725 0
M  V30 7895 N 717.979 -5.48787 -4.37924 0
M  V30 7896 H 722.819 -2.88919 -0.730075 0
M  V30 7897 H 720.356 -1.42901 -0.348962 0
M  V30 7898 H 722.314 -2.6758 -3.20088 0
M  V30 7899 H 720.944 -1.60753 -2.79926 0
M  V30 7900 H 719.996 -3.55271 -1.35965 0
M  V30 7901 H 721.308 -4.57557 -1.98603 0
M  V30 7902 H 720.462 -4.25939 -4.32042 0
M  V30 7903 H 719.201 -3.13918 -3.73238 0
M  V30 7904 H 718.206 -4.97547 -2.33938 0
M  V30 7905 H 719.431 -6.11343 -2.95697 0
M  V30 7906 H 717.377 -4.63346 -4.64378 0
M  V30 7907 H 717.294 -6.30073 -4.17785 0
M  V30 7908 H 718.562 -5.76943 -5.24173 0
M  V30 7909 N 722.791 0.367657 -1.53252 0
M  V30 7910 C 723.741 1.45035 -1.75923 0
M  V30 7911 C 724.725 1.48736 -0.613719 0
M  V30 7912 O 725.917 1.54012 -0.872313 0
M  V30 7913 C 723.046 2.82493 -1.9507 0
M  V30 7914 C 722.132 2.83279 -3.15617 0
M  V30 7915 N 722.523 2.53712 -4.37566 0
M  V30 7916 C 720.821 3.1444 -3.16297 0
M  V30 7917 C 721.522 2.62123 -5.19294 0
M  V30 7918 N 720.498 2.96747 -4.55458 0
M  V30 7919 H 724.3 1.21035 -2.6782 0
M  V30 7920 H 721.814 0.575822 -1.51849 0
M  V30 7921 H 723.811 3.60473 -2.0944 0
M  V30 7922 H 722.471 3.07459 -1.044 0
M  V30 7923 H 723.482 2.27344 -4.65333 0
M  V30 7924 H 720.159 3.44733 -2.35511 0
M  V30 7925 H 721.549 2.42628 -6.26563 0
M  V30 7926 N 724.269 1.44576 0.627338 0
M  V30 7927 C 725.217 1.52039 1.76031 0
M  V30 7928 C 726.211 0.391796 1.64807 0
M  V30 7929 O 727.417 0.5669 1.7084 0
M  V30 7930 H 723.792 0.477165 0.581221 0
M  V30 7931 H 725.763 2.47387 1.6686 0
M  V30 7932 C 724.512 1.48539 3.14375 0
M  V30 7933 H 723.835 2.34699 3.23661 0
M  V30 7934 H 725.275 1.57821 3.93534 0
M  V30 7935 C 723.734 0.20672 3.36265 0
M  V30 7936 O 724.264 -0.72154 3.95167 0
M  V30 7937 N 722.47 0.108654 2.90397 0
M  V30 7938 H 722.017 0.864884 2.42647 0
M  V30 7939 H 721.975 -0.746121 3.05418 0
M  V30 7940 N 725.747 -0.868086 1.31537 0
M  V30 7941 C 726.694 -1.97548 1.19346 0
M  V30 7942 C 727.664 -1.65913 0.0787922 0
M  V30 7943 O 728.849 -1.89129 0.251985 0
M  V30 7944 C 725.989 -3.32922 0.908692 0
M  V30 7945 C 725.102 -3.77141 2.10687 0
M  V30 7946 C 724.237 -5.01241 1.75873 0
M  V30 7947 C 723.276 -5.37914 2.92088 0
M  V30 7948 N 722.413 -6.53192 2.57457 0
M  V30 7949 H 727.253 -2.07307 2.14074 0
M  V30 7950 H 724.79 -1.01483 1.06487 0
M  V30 7951 H 726.748 -4.10867 0.724138 0
M  V30 7952 H 725.378 -3.228 -0.0017611 0
M  V30 7953 H 724.43 -2.94961 2.40213 0
M  V30 7954 H 725.742 -4.00248 2.97663 0
M  V30 7955 H 724.896 -5.86858 1.53891 0
M  V30 7956 H 723.635 -4.80041 0.86091 0
M  V30 7957 H 722.64 -4.50814 3.14717 0
M  V30 7958 H 723.865 -5.61077 3.82582 0
M  V30 7959 H 721.811 -6.33536 1.702 0
M  V30 7960 H 721.728 -6.76252 3.37963 0
M  V30 7961 H 722.996 -7.41997 2.38873 0
M  V30 7962 N 727.225 -1.14528 -1.08264 0
M  V30 7963 C 728.158 -0.777154 -2.14559 0
M  V30 7964 C 729.136 0.242165 -1.60787 0
M  V30 7965 O 730.32 0.130882 -1.88045 0
M  V30 7966 C 727.447 -0.154092 -3.38349 0
M  V30 7967 C 726.493 -1.14382 -4.10876 0
M  V30 7968 S 727.326 -2.68173 -4.63512 0
M  V30 7969 C 728.482 -2.0726 -5.90588 0
M  V30 7970 H 728.715 -1.67748 -2.45454 0
M  V30 7971 H 726.248 -0.966661 -1.20395 0
M  V30 7972 H 728.206 0.19897 -4.10018 0
M  V30 7973 H 726.867 0.723688 -3.05649 0
M  V30 7974 H 726.06 -0.655908 -4.99714 0
M  V30 7975 H 725.662 -1.44095 -3.45127 0
M  V30 7976 H 727.954 -1.42895 -6.62259 0
M  V30 7977 H 728.897 -2.94227 -6.44078 0
M  V30 7978 H 729.305 -1.51935 -5.43669 0
M  V30 7979 N 728.703 1.26451 -0.940633 0
M  V30 7980 C 729.636 2.24771 -0.394094 0
M  V30 7981 C 730.614 1.54169 0.516781 0
M  V30 7982 O 731.798 1.82942 0.454352 0
M  V30 7983 C 728.925 3.3591 0.433807 0
M  V30 7984 C 727.971 4.24472 -0.415464 0
M  V30 7985 S 728.804 5.0293 -1.83907 0
M  V30 7986 C 729.96 6.17546 -1.01921 0
M  V30 7987 H 730.193 2.70782 -1.22737 0
M  V30 7988 H 727.726 1.35308 -0.743709 0
M  V30 7989 H 729.684 4.00387 0.905576 0
M  V30 7990 H 728.345 2.88512 1.24175 0
M  V30 7991 H 727.538 5.03525 0.218833 0
M  V30 7992 H 727.14 3.64857 -0.821897 0
M  V30 7993 H 729.432 6.76996 -0.261227 0
M  V30 7994 H 730.375 6.8528 -1.78318 0
M  V30 7995 H 730.783 5.6176 -0.555511 0
M  V30 7996 N 730.181 0.707592 1.40822 0
M  V30 7997 C 731.128 0.0499029 2.30746 0
M  V30 7998 C 732.098 -0.758718 1.47759 0
M  V30 7999 O 733.283 -0.724299 1.76518 0
M  V30 8000 C 730.423 -0.871756 3.33908 0
M  V30 8001 C 729.536 -0.0534655 4.31967 0
M  V30 8002 C 728.671 -0.973869 5.22197 0
M  V30 8003 C 727.71 -0.149194 6.11918 0
M  V30 8004 N 726.847 -1.02404 6.94592 0
M  V30 8005 H 731.687 0.822461 2.86426 0
M  V30 8006 H 729.224 0.417285 1.41057 0
M  V30 8007 H 731.182 -1.42028 3.9228 0
M  V30 8008 H 729.812 -1.61058 2.7975 0
M  V30 8009 H 728.864 0.612142 3.75442 0
M  V30 8010 H 730.176 0.585354 4.95353 0
M  V30 8011 H 729.33 -1.59121 5.85462 0
M  V30 8012 H 728.069 -1.64652 4.59065 0
M  V30 8013 H 727.074 0.481137 5.47691 0
M  V30 8014 H 728.299 0.519841 6.77107 0
M  V30 8015 H 726.245 -1.6825 6.34057 0
M  V30 8016 H 726.162 -0.441076 7.54712 0
M  V30 8017 H 727.43 -1.62782 7.62314 0
M  V30 8018 N 731.66 -1.50943 0.453197 0
M  V30 8019 C 732.937 -1.94872 -0.168633 0
M  V30 8020 C 733.317 -1.39272 -1.5864 0
M  V30 8021 O 732.665 -0.586272 -2.20851 0
M  V30 8022 C 732.875 -3.48757 -0.130217 0
M  V30 8023 C 734.223 -4.23331 -0.327975 0
M  V30 8024 O 735.247 -3.55594 -0.207619 0
M  V30 8025 O 734.106 -5.43529 -0.569077 0
M  V30 8026 H 731.2 -0.818042 -0.121394 0
M  V30 8027 H 733.746 -1.61782 0.512316 0
M  V30 8028 H 732.518 -3.81725 0.860346 0
M  V30 8029 H 732.141 -3.88333 -0.853397 0
M  V30 8030 N 733.138 -0.185124 -1.56509 0
M  V30 8031 C 734.378 0.458547 -1.9919 0
M  V30 8032 C 734.742 1.59484 -1.06906 0
M  V30 8033 O 735.943 2.30201 -1.38783 0
M  V30 8034 C 734.214 0.916263 -3.45455 0
M  V30 8035 S 735.773 1.55918 -4.10165 0
M  V30 8036 H 732.591 0.147008 -0.695636 0
M  V30 8037 H 735.193 -0.285841 -1.93399 0
M  V30 8038 H 733.897 0.0790543 -4.10324 0
M  V30 8039 H 733.428 1.69436 -3.55042 0
M  V30 8040 H 735.443 2.84771 -4.0635 0
M  V30 8041 N 734.616 1.57351 0.0885366 0
M  V30 8042 C 735.841 1.91011 0.80805 0
M  V30 8043 C 736.266 0.780009 1.71165 0
M  V30 8044 O 735.624 -0.268083 1.79307 0
M  V30 8045 C 735.672 3.23562 1.59185 0
M  V30 8046 O 734.776 3.11615 2.7013 0
M  V30 8047 H 734.117 0.625943 0.221565 0
M  V30 8048 H 736.647 2.04507 0.0617954 0
M  V30 8049 H 736.657 3.5703 1.97468 0
M  V30 8050 H 735.332 4.05398 0.928741 0
M  V30 8051 H 733.909 2.89673 2.34827 0
M  V30 8052 N 736.094 -0.359525 1.53444 0
M  V30 8053 C 737.057 -1.42357 1.7963 0
M  V30 8054 C 738.057 -1.46319 0.666884 0
M  V30 8055 O 739.247 -1.46974 0.935113 0
M  V30 8056 C 736.379 -2.81425 1.92387 0
M  V30 8057 H 737.572 -1.20409 2.74666 0
M  V30 8058 H 735.125 -0.593007 1.44614 0
M  V30 8059 H 735.86 -3.08679 0.994384 0
M  V30 8060 H 735.645 -2.79947 2.74539 0
M  V30 8061 H 737.135 -3.5847 2.14218 0
M  V30 8062 N 737.572 -1.44907 -0.619662 0
M  V30 8063 C 738.82 -1.47999 -1.37625 0
M  V30 8064 C 739.141 -0.118295 -1.94641 0
M  V30 8065 O 738.411 0.85086 -1.76457 0
M  V30 8066 H 736.991 -0.544993 -0.510873 0
M  V30 8067 H 739.653 -1.80772 -0.728522 0
M  V30 8068 H 738.749 -2.21196 -2.20179 0
M  V30 8069 N 739.05 0.861098 -1.31996 0
M  V30 8070 C 739.997 1.96912 -1.20392 0
M  V30 8071 C 740.967 1.65869 -0.0875899 0
M  V30 8072 O 742.152 1.88992 -0.262011 0
M  V30 8073 C 739.292 3.32435 -0.926335 0
M  V30 8074 C 738.405 3.76018 -2.12684 0
M  V30 8075 C 737.54 5.00301 -1.78529 0
M  V30 8076 C 736.579 5.36357 -2.94937 0
M  V30 8077 N 735.716 6.51818 -2.60917 0
M  V30 8078 H 740.556 2.06169 -2.1517 0
M  V30 8079 H 738.093 1.00917 -1.07024 0
M  V30 8080 H 740.051 4.10478 -0.745917 0
M  V30 8081 H 738.681 3.22796 -0.0153578 0
M  V30 8082 H 737.733 2.93683 -2.41774 0
M  V30 8083 H 739.045 3.98664 -2.99781 0
M  V30 8084 H 738.199 5.86034 -1.57001 0
M  V30 8085 H 736.938 4.79578 -0.886356 0
M  V30 8086 H 735.943 4.49139 -3.17103 0
M  V30 8087 H 737.168 5.59041 -3.85552 0
M  V30 8088 H 735.114 6.32624 -1.73558 0
M  V30 8089 H 735.031 6.7445 -3.41544 0
M  V30 8090 H 736.299 7.4072 -2.42804 0
M  V30 8091 N 740.528 1.15101 1.07655 0
M  V30 8092 C 741.776 0.922149 1.79836 0
M  V30 8093 C 742.097 -0.552346 1.87014 0
M  V30 8094 O 741.367 -1.40145 1.3688 0
M  V30 8095 H 739.947 0.338182 0.666064 0
M  V30 8096 H 742.609 1.45107 1.30115 0
M  V30 8097 H 741.705 1.32883 2.82398 0
M  V30 8098 N 742.006 -1.2595 0.947325 0
M  V30 8099 C 743.253 -1.93463 0.598178 0
M  V30 8100 C 743.581 -1.74271 -0.863705 0
M  V30 8101 O 742.836 -1.07684 -1.63409 0
M  V30 8102 C 743.135 -3.46034 0.894158 0
M  V30 8103 C 742.801 -3.85373 2.3409 0
M  V30 8104 C 741.463 -3.95823 2.73637 0
M  V30 8105 C 743.815 -4.04986 3.2808 0
M  V30 8106 C 741.143 -4.23288 4.06257 0
M  V30 8107 C 743.495 -4.3394 4.60303 0
M  V30 8108 C 742.159 -4.42606 4.99656 0
M  V30 8109 H 741.429 -0.707933 0.218889 0
M  V30 8110 H 744.076 -1.4964 1.19499 0
M  V30 8111 H 742.381 -3.9121 0.214874 0
M  V30 8112 H 744.078 -3.96445 0.602698 0
M  V30 8113 H 740.668 -3.7779 2.02417 0
M  V30 8114 H 744.852 -3.96333 2.9872 0
M  V30 8115 H 740.108 -4.28211 4.36401 0
M  V30 8116 H 744.282 -4.48061 5.33118 0
M  V30 8117 H 741.909 -4.63641 6.02446 0
M  V30 8118 N 743.484 -0.715051 -1.40445 0
M  V30 8119 C 744.761 -0.181503 -1.94756 0
M  V30 8120 C 745.141 1.31268 -1.65324 0
M  V30 8121 O 744.489 2.0686 -0.970631 0
M  V30 8122 C 744.699 -0.493663 -3.45491 0
M  V30 8123 C 746.047 -0.432032 -4.22396 0
M  V30 8124 O 747.071 -0.429692 -3.53599 0
M  V30 8125 O 745.93 -0.409091 -5.44967 0
M  V30 8126 H 743.024 -0.0263989 -0.826579 0
M  V30 8127 H 745.57 -0.792546 -1.50056 0
M  V30 8128 H 744.342 -1.52713 -3.6027 0
M  V30 8129 H 743.965 0.14737 -3.97327 0
M  V30 8130 N 744.962 1.50701 -0.461195 0
M  V30 8131 C 746.378 1.59187 -0.114786 0
M  V30 8132 C 746.578 1.4702 1.37794 0
M  V30 8133 O 745.634 1.32361 2.15027 0
M  V30 8134 C 746.947 2.93453 -0.656167 0
M  V30 8135 C 748.495 3.06824 -0.618715 0
M  V30 8136 C 748.97 4.4365 -1.13747 0
M  V30 8137 N 750.461 4.50035 -1.09646 0
M  V30 8138 C 751.196 5.54278 -1.46846 0
M  V30 8139 N 750.692 6.65822 -1.91448 0
M  V30 8140 N 752.485 5.44767 -1.38512 0
M  V30 8141 H 744.636 1.56853 -1.43216 0
M  V30 8142 H 746.899 0.740712 -0.59165 0
M  V30 8143 H 746.605 3.07802 -1.7015 0
M  V30 8144 H 746.479 3.77082 -0.0942261 0
M  V30 8145 H 748.866 2.92129 0.417685 0
M  V30 8146 H 748.947 2.24976 -1.21734 0
M  V30 8147 H 748.591 4.59093 -2.17245 0
M  V30 8148 H 748.521 5.24074 -0.515153 0
M  V30 8149 H 751.012 3.69988 -0.769217 0
M  V30 8150 H 751.325 7.41413 -2.18007 0
M  V30 8151 H 749.67 6.66968 -1.95393 0
M  V30 8152 H 752.861 4.56511 -1.03516 0
M  V30 8153 H 753.034 6.25889 -1.6783 0
M  V30 8154 N 746.441 0.193421 1.56409 0
M  V30 8155 C 747.391 -0.74089 2.15627 0
M  V30 8156 C 748.375 -1.17747 1.09656 0
M  V30 8157 O 749.567 -1.13615 1.35723 0
M  V30 8158 C 746.696 -1.96091 2.81786 0
M  V30 8159 C 745.782 -1.54531 3.94944 0
M  V30 8160 N 746.173 -0.840569 4.98767 0
M  V30 8161 C 744.471 -1.83473 4.06514 0
M  V30 8162 C 745.172 -0.632571 5.7825 0
M  V30 8163 N 744.148 -1.18078 5.30621 0
M  V30 8164 H 747.95 -0.193718 2.93261 0
M  V30 8165 H 745.464 -0.00643211 1.62399 0
M  V30 8166 H 747.461 -2.64071 3.22602 0
M  V30 8167 H 746.121 -2.51282 2.05639 0
M  V30 8168 H 747.132 -0.496218 5.15517 0
M  V30 8169 H 743.809 -2.40184 3.41493 0
M  V30 8170 H 745.199 -0.0736433 6.7186 0
M  V30 8171 N 747.919 -1.57396 -0.0801906 0
M  V30 8172 C 748.849 -2.06145 -1.09665 0
M  V30 8173 C 749.83 -0.953273 -1.40878 0
M  V30 8174 O 751.015 -1.22548 -1.50651 0
M  V30 8175 C 748.145 -2.49836 -2.41245 0
M  V30 8176 C 747.099 -3.64454 -2.24405 0
M  V30 8177 C 746.425 -3.94172 -3.61293 0
M  V30 8178 C 747.725 -4.94807 -1.67223 0
M  V30 8179 H 749.419 -2.91316 -0.691028 0
M  V30 8180 H 746.965 -1.40145 -0.330957 0
M  V30 8181 H 748.918 -2.82552 -3.12638 0
M  V30 8182 H 747.642 -1.61683 -2.83771 0
M  V30 8183 H 746.301 -3.32008 -1.55454 0
M  V30 8184 H 745.949 -3.03163 -4.01374 0
M  V30 8185 H 745.649 -4.71345 -3.50867 0
M  V30 8186 H 747.173 -4.29376 -4.3413 0
M  V30 8187 H 748.587 -5.25807 -2.28472 0
M  V30 8188 H 746.984 -5.76245 -1.67515 0
M  V30 8189 H 748.054 -4.80751 -0.632944 0
M  V30 8190 N 749.397 0.351382 -1.53633 0
M  V30 8191 C 750.327 1.43688 -1.84055 0
M  V30 8192 C 751.308 1.55251 -0.695073 0
M  V30 8193 O 752.493 1.69587 -0.946257 0
M  V30 8194 C 749.623 2.80843 -2.04315 0
M  V30 8195 C 748.577 2.84094 -3.20117 0
M  V30 8196 C 747.903 4.2406 -3.25696 0
M  V30 8197 C 749.203 2.50334 -4.58399 0
M  V30 8198 H 750.897 1.18478 -2.74961 0
M  V30 8199 H 748.443 0.568509 -1.32303 0
M  V30 8200 H 750.396 3.56821 -2.2418 0
M  V30 8201 H 749.12 3.07471 -1.10132 0
M  V30 8202 H 747.779 2.10568 -3.00094 0
M  V30 8203 H 747.427 4.47785 -2.29123 0
M  V30 8204 H 747.127 4.27147 -4.03509 0
M  V30 8205 H 748.651 5.0189 -3.47762 0
M  V30 8206 H 750.065 3.16025 -4.78332 0
M  V30 8207 H 748.462 2.64717 -5.38558 0
M  V30 8208 H 749.532 1.45542 -4.62543 0
M  V30 8209 N 750.875 1.45233 0.611969 0
M  V30 8210 C 752.123 1.48727 1.36838 0
M  V30 8211 C 752.444 0.128616 1.94575 0
M  V30 8212 O 751.714 -0.84149 1.76906 0
M  V30 8213 H 750.294 0.547695 0.507976 0
M  V30 8214 H 752.956 1.81156 0.718925 0
M  V30 8215 H 752.052 2.2236 2.19003 0
M  V30 8216 N 752.353 -0.854086 1.3245 0
M  V30 8217 C 753.283 -1.97827 1.24044 0
M  V30 8218 C 754.264 -1.69646 0.124166 0
M  V30 8219 O 755.449 -1.91687 0.31143 0
M  V30 8220 C 752.579 -3.33673 0.963324 0
M  V30 8221 C 751.533 -3.76207 2.04089 0
M  V30 8222 C 750.859 -5.0969 1.61618 0
M  V30 8223 C 752.159 -3.91612 3.45597 0
M  V30 8224 H 753.853 -2.05118 2.18099 0
M  V30 8225 H 751.399 -0.985489 1.04996 0
M  V30 8226 H 753.352 -4.11871 0.891061 0
M  V30 8227 H 752.076 -3.26597 -0.0128649 0
M  V30 8228 H 750.735 -3.0026 2.10332 0
M  V30 8229 H 750.383 -4.99072 0.627418 0
M  V30 8230 H 750.083 -5.3912 2.33717 0
M  V30 8231 H 751.607 -5.90381 1.55829 0
M  V30 8232 H 753.021 -4.60163 3.4194 0
M  V30 8233 H 751.418 -4.3246 4.16051 0
M  V30 8234 H 752.488 -2.9451 3.85217 0
M  V30 8235 N 753.831 -1.1567 -1.07043 0
M  V30 8236 C 754.761 -0.879348 -2.16309 0
M  V30 8237 C 755.742 0.171311 -1.69235 0
M  V30 8238 O 756.927 0.0250175 -1.94184 0
M  V30 8239 C 754.057 -0.371307 -3.45309 0
M  V30 8240 C 753.011 -1.359 -4.05851 0
M  V30 8241 C 752.337 -0.709678 -5.29969 0
M  V30 8242 C 753.637 -2.72606 -4.45514 0
M  V30 8243 H 755.331 -1.79308 -2.39768 0
M  V30 8244 H 752.877 -0.863558 -1.15233 0
M  V30 8245 H 754.83 -0.164798 -4.21078 0
M  V30 8246 H 753.554 0.577906 -3.21446 0
M  V30 8247 H 752.213 -1.55193 -3.32131 0
M  V30 8248 H 751.861 0.245782 -5.02399 0
M  V30 8249 H 751.561 -1.36886 -5.71433 0
M  V30 8250 H 753.085 -0.513015 -6.08441 0
M  V30 8251 H 754.499 -2.57141 -5.12398 0
M  V30 8252 H 752.896 -3.34927 -4.97939 0
M  V30 8253 H 753.966 -3.28434 -3.56734 0
M  V30 8254 N 755.309 1.25446 -0.953992 0
M  V30 8255 C 756.239 2.28264 -0.491717 0
M  V30 8256 C 757.22 1.63717 0.461617 0
M  V30 8257 O 758.405 1.90821 0.36071 0
M  V30 8258 C 755.535 3.46525 0.231915 0
M  V30 8259 C 754.489 4.23247 -0.636098 0
M  V30 8260 C 753.815 5.34254 0.218238 0
M  V30 8261 C 755.115 4.85971 -1.91389 0
M  V30 8262 H 756.809 2.67183 -1.35106 0
M  V30 8263 H 754.355 1.2844 -0.651095 0
M  V30 8264 H 756.308 4.17576 0.566439 0
M  V30 8265 H 755.032 3.06594 1.12551 0
M  V30 8266 H 753.691 3.53978 -0.953696 0
M  V30 8267 H 753.339 4.90564 1.11156 0
M  V30 8268 H 753.039 5.86501 -0.359232 0
M  V30 8269 H 754.563 6.08138 0.547743 0
M  V30 8270 H 755.977 5.49168 -1.64581 0
M  V30 8271 H 754.374 5.48391 -2.43696 0
M  V30 8272 H 755.444 4.08192 -2.61738 0
M  V30 8273 N 756.787 0.722489 1.40064 0
M  V30 8274 C 758.036 0.261932 1.99992 0
M  V30 8275 C 758.349 -1.15358 1.57961 0
M  V30 8276 O 759.555 -1.71301 2.10637 0
M  V30 8277 C 758.011 0.41737 3.57472 0
M  V30 8278 C 757.619 1.83997 4.08472 0
M  V30 8279 C 759.363 0.0179561 4.24496 0
M  V30 8280 C 757.27 1.94563 5.5848 0
M  V30 8281 H 756.2 0.0941768 0.748095 0
M  V30 8282 H 758.851 0.894572 1.60218 0
M  V30 8283 H 757.233 -0.283965 3.94981 0
M  V30 8284 H 758.407 2.57224 3.82325 0
M  V30 8285 H 756.722 2.19147 3.54067 0
M  V30 8286 H 759.319 0.076085 5.34646 0
M  V30 8287 H 759.662 -1.02498 4.03485 0
M  V30 8288 H 760.195 0.669988 3.92117 0
M  V30 8289 H 756.934 2.97001 5.84355 0
M  V30 8290 H 756.454 1.25756 5.86469 0
M  V30 8291 H 758.133 1.72095 6.23692 0
M  V30 8292 N 758.265 -1.50454 0.469181 0
M  V30 8293 C 759.228 -2.2703 -0.314643 0
M  V30 8294 C 760.228 -1.31734 -0.922111 0
M  V30 8295 O 761.418 -1.55176 -0.791588 0
M  V30 8296 C 758.55 -3.08616 -1.44806 0
M  V30 8297 H 759.743 -2.97769 0.356892 0
M  V30 8298 H 757.296 -1.54698 0.223191 0
M  V30 8299 H 758.031 -2.42369 -2.1547 0
M  V30 8300 H 757.816 -3.78647 -1.01829 0
M  V30 8301 H 759.306 -3.66536 -2.00103 0
M  V30 8302 N 759.743 -0.201713 -1.56304 0
M  V30 8303 C 760.69 0.716499 -2.19397 0
M  V30 8304 C 761.66 1.20494 -1.14326 0
M  V30 8305 O 762.845 1.26763 -1.42604 0
M  V30 8306 C 759.985 1.92762 -2.86246 0
M  V30 8307 C 759.098 1.47993 -4.0586 0
M  V30 8308 C 758.233 2.64706 -4.60547 0
M  V30 8309 C 757.272 2.16576 -5.72504 0
M  V30 8310 N 756.409 3.26491 -6.21569 0
M  V30 8311 H 761.249 0.171724 -2.97505 0
M  V30 8312 H 758.786 0.073016 -1.46919 0
M  V30 8313 H 760.744 2.6384 -3.23178 0
M  V30 8314 H 759.374 2.44559 -2.10691 0
M  V30 8315 H 758.426 0.66477 -3.74546 0
M  V30 8316 H 759.738 1.08686 -4.86815 0
M  V30 8317 H 758.892 3.43898 -4.99819 0
M  V30 8318 H 757.631 3.0729 -3.78713 0
M  V30 8319 H 756.636 1.3584 -5.32755 0
M  V30 8320 H 757.861 1.75015 -6.56161 0
M  V30 8321 H 755.807 3.68594 -5.42655 0
M  V30 8322 H 755.724 2.91374 -6.97594 0
M  V30 8323 H 756.992 4.05877 -6.65495 0
M  V30 8324 N 761.222 1.57436 0.0718424 0
M  V30 8325 C 762.132 2.07039 1.10326 0
M  V30 8326 C 763.148 0.999918 1.424 0
M  V30 8327 O 764.324 1.31462 1.52577 0
M  V30 8328 C 761.389 2.50439 2.39752 0
M  V30 8329 C 760.45 3.71784 2.14651 0
M  V30 8330 C 759.683 4.13104 3.37906 0
M  V30 8331 O 759.906 3.54298 4.47023 0
M  V30 8332 O 758.84 5.05894 3.26121 0
M  V30 8333 H 762.666 2.95239 0.711872 0
M  V30 8334 H 760.251 1.46638 0.28597 0
M  V30 8335 H 762.133 2.78876 3.15921 0
M  V30 8336 H 760.808 1.65368 2.78271 0
M  V30 8337 H 759.715 3.48431 1.36187 0
M  V30 8338 H 761.048 4.57707 1.81012 0
M  V30 8339 N 762.7 -0.34323 1.53817 0
M  V30 8340 C 763.61 -1.44493 1.84821 0
M  V30 8341 C 764.626 -1.57556 0.738381 0
M  V30 8342 O 765.802 -1.73026 1.03072 0
M  V30 8343 C 762.867 -2.79478 2.05166 0
M  V30 8344 C 761.928 -2.75756 3.29025 0
M  V30 8345 C 761.161 -4.04302 3.4839 0
M  V30 8346 O 761.384 -5.01595 2.71586 0
M  V30 8347 O 760.318 -4.08754 4.41819 0
M  V30 8348 H 764.144 -1.21209 2.78464 0
M  V30 8349 H 761.729 -0.535437 1.39476 0
M  V30 8350 H 763.611 -3.59419 2.19991 0
M  V30 8351 H 762.286 -3.02692 1.14713 0
M  V30 8352 H 761.193 -1.94434 3.19603 0
M  V30 8353 H 762.526 -2.57495 4.19472 0
M  V30 8354 N 764.178 -1.45556 -0.604258 0
M  V30 8355 C 765.426 -1.4945 -1.36048 0
M  V30 8356 C 765.747 -0.138933 -1.94504 0
M  V30 8357 O 765.017 0.832097 -1.7735 0
M  V30 8358 H 763.597 -0.550381 -0.505064 0
M  V30 8359 H 766.259 -1.81535 -0.709308 0
M  V30 8360 H 765.355 -2.23519 -2.17821 0
M  V30 8361 N 765.656 0.84705 -1.32902 0
M  V30 8362 C 766.586 1.97166 -1.25091 0
M  V30 8363 C 767.567 1.69578 -0.133161 0
M  V30 8364 O 768.752 1.91519 -0.321591 0
M  V30 8365 C 765.882 3.33157 -0.981006 0
M  V30 8366 C 764.836 3.75119 -2.06082 0
M  V30 8367 C 764.162 5.08826 -1.64318 0
M  V30 8368 C 765.462 3.89774 -3.47669 0
M  V30 8369 H 767.156 2.03958 -2.19184 0
M  V30 8370 H 764.702 0.979907 -1.05517 0
M  V30 8371 H 766.655 4.11393 -0.912891 0
M  V30 8372 H 765.379 3.266 -0.00445559 0
M  V30 8373 H 764.038 2.9914 -2.11921 0
M  V30 8374 H 763.686 4.98732 -0.653876 0
M  V30 8375 H 763.386 5.37873 -2.36572 0
M  V30 8376 H 764.91 5.89546 -1.58958 0
M  V30 8377 H 766.324 4.58343 -3.44376 0
M  V30 8378 H 764.721 4.30248 -4.18338 0
M  V30 8379 H 765.791 2.92463 -3.86773 0
M  V30 8380 N 767.134 1.16236 1.06428 0
M  V30 8381 C 768.545 0.950942 1.60667 0
M  V30 8382 C 768.896 -0.505491 1.89576 0
M  V30 8383 O 768.021 -1.37843 1.66818 0
M  V30 8384 C 768.616 1.71982 2.91904 0
M  V30 8385 C 767.175 1.55342 3.4285 0
M  V30 8386 C 766.322 1.72942 2.16763 0
M  V30 8387 H 769.273 1.31126 0.893959 0
M  V30 8388 H 769.294 1.19483 3.61253 0
M  V30 8389 H 768.806 2.77978 2.70831 0
M  V30 8390 H 766.907 0.5178 3.68985 0
M  V30 8391 H 767.02 2.33643 4.18267 0
M  V30 8392 H 765.384 1.15673 2.26918 0
M  V30 8393 H 766.167 2.80324 1.98175 0
M  V30 8394 N 768.612 -1.24939 0.960631 0
M  V30 8395 C 769.858 -1.93104 0.61958 0
M  V30 8396 C 770.191 -1.74991 -0.84212 0
M  V30 8397 O 769.466 -1.09867 -1.60498 0
M  V30 8398 C 769.749 -3.46326 0.986422 0
M  V30 8399 C 769.602 -3.73638 2.50429 0
M  V30 8400 C 770.921 -4.37067 0.515827 0
M  V30 8401 H 768.04 -0.701311 0.226566 0
M  V30 8402 H 770.682 -1.47442 1.19836 0
M  V30 8403 H 768.832 -3.85348 0.493907 0
M  V30 8404 H 770.504 -3.44217 3.07103 0
M  V30 8405 H 768.747 -3.19035 2.93937 0
M  V30 8406 H 769.418 -4.80815 2.71147 0
M  V30 8407 H 771.894 -4.05381 0.938389 0
M  V30 8408 H 770.77 -5.43022 0.80114 0
M  V30 8409 H 771.031 -4.38224 -0.584171 0
M  V30 8410 N 770.09 -0.729906 -1.39679 0
M  V30 8411 C 771.501 -0.346241 -1.83461 0
M  V30 8412 C 771.852 1.1215 -1.60987 0
M  V30 8413 O 770.977 1.86456 -1.09832 0
M  V30 8414 C 771.572 -0.621656 -3.33048 0
M  V30 8415 C 770.131 -0.291543 -3.75269 0
M  V30 8416 C 769.278 -0.886844 -2.62736 0
M  V30 8417 H 772.229 -0.927949 -1.28743 0
M  V30 8418 H 772.25 0.108301 -3.80346 0
M  V30 8419 H 771.762 -1.68996 -3.49373 0
M  V30 8420 H 769.863 0.771133 -3.64533 0
M  V30 8421 H 769.976 -0.770544 -4.72863 0
M  V30 8422 H 768.34 -0.313839 -2.52759 0
M  V30 8423 H 769.123 -1.95971 -2.81869 0
M  V30 8424 N 771.568 1.50203 -0.477153 0
M  V30 8425 C 772.478 2.32421 0.319027 0
M  V30 8426 C 773.494 1.43075 0.990233 0
M  V30 8427 O 774.67 1.76123 0.976873 0
M  V30 8428 C 771.735 3.17909 1.38328 0
M  V30 8429 C 770.796 4.23082 0.728036 0
M  V30 8430 C 770.029 5.04484 1.74158 0
M  V30 8431 O 770.252 4.8705 2.96881 0
M  V30 8432 O 769.186 5.8747 1.31006 0
M  V30 8433 H 773.012 3.01638 -0.353281 0
M  V30 8434 H 770.597 1.47478 -0.238891 0
M  V30 8435 H 772.479 3.70937 1.9996 0
M  V30 8436 H 771.154 2.51413 2.03895 0
M  V30 8437 H 770.061 3.7403 0.07261 0
M  V30 8438 H 771.394 4.92065 0.115216 0
M  V30 8439 N 773.046 0.209999 1.56195 0
M  V30 8440 C 773.976 -0.699746 2.22769 0
M  V30 8441 C 774.957 -1.20993 1.1956 0
M  V30 8442 O 776.142 -1.25605 1.48112 0
M  V30 8443 C 773.272 -1.91302 2.89863 0
M  V30 8444 C 772.226 -1.53715 3.99444 0
M  V30 8445 C 771.552 -2.82826 4.53777 0
M  V30 8446 C 772.852 -0.735836 5.17091 0
M  V30 8447 H 774.546 -0.144716 2.9905 0
M  V30 8448 H 772.092 -0.0681645 1.43839 0
M  V30 8449 H 774.045 -2.5548 3.35124 0
M  V30 8450 H 772.769 -2.49283 2.11011 0
M  V30 8451 H 771.428 -0.918892 3.54897 0
M  V30 8452 H 771.076 -3.38927 3.71669 0
M  V30 8453 H 770.776 -2.58415 5.27727 0
M  V30 8454 H 772.3 -3.47966 5.01749 0
M  V30 8455 H 773.714 -1.28105 5.58804 0
M  V30 8456 H 772.111 -0.589272 5.972 0
M  V30 8457 H 773.181 0.260004 4.84202 0
M  V30 8458 N 774.524 -1.57472 -0.0634922 0
M  V30 8459 C 775.771 -1.87654 -0.761066 0
M  V30 8460 C 776.099 -0.802847 -1.77157 0
M  V30 8461 O 775.354 0.200244 -1.94673 0
M  V30 8462 C 775.653 -3.24521 -1.49736 0
M  V30 8463 C 775.319 -4.46532 -0.626065 0
M  V30 8464 C 773.981 -4.7965 -0.385978 0
M  V30 8465 C 776.333 -5.21195 -0.0224001 0
M  V30 8466 C 773.661 -5.84837 0.467118 0
M  V30 8467 C 776.013 -6.27286 0.818198 0
M  V30 8468 C 774.677 -6.58899 1.06808 0
M  V30 8469 H 773.947 -0.686675 -0.278494 0
M  V30 8470 H 776.594 -1.91488 -0.0216348 0
M  V30 8471 H 774.899 -3.16516 -2.30921 0
M  V30 8472 H 776.596 -3.45111 -2.04204 0
M  V30 8473 H 773.186 -4.20618 -0.823325 0
M  V30 8474 H 777.37 -4.95917 -0.194985 0
M  V30 8475 H 772.626 -6.07725 0.669375 0
M  V30 8476 H 776.8 -6.84298 1.29265 0
M  V30 8477 H 774.427 -7.40233 1.73088 0
M  V30 8478 N 776.003 0.335068 -1.53997 0
M  V30 8479 C 777.231 1.09418 -1.756 0
M  V30 8480 C 777.646 1.82083 -0.499138 0
M  V30 8481 O 777.003 1.74646 0.529631 0
M  V30 8482 C 777.054 2.10115 -2.94166 0
M  V30 8483 O 776.775 1.40404 -4.14992 0
M  V30 8484 C 778.276 2.98336 -3.27888 0
M  V30 8485 H 775.496 0.32595 -0.586513 0
M  V30 8486 H 778.04 0.384693 -2.00849 0
M  V30 8487 H 776.195 2.76616 -2.71224 0
M  V30 8488 H 776.609 2.07743 -4.81605 0
M  V30 8489 H 778.083 3.6491 -4.1418 0
M  V30 8490 H 778.56 3.64814 -2.44556 0
M  V30 8491 H 779.166 2.37412 -3.52868 0
M  V30 8492 N 777.481 1.45874 0.596531 0
M  V30 8493 C 778.758 1.40942 1.35627 0
M  V30 8494 C 779.138 0.0857066 2.10926 0
M  V30 8495 O 778.486 -0.932544 2.08605 0
M  V30 8496 C 778.696 2.63027 2.29386 0
M  V30 8497 C 780.044 3.08588 2.91649 0
M  V30 8498 O 781.068 2.63478 2.39704 0
M  V30 8499 O 779.927 3.86902 3.85965 0
M  V30 8500 H 777.021 0.559838 0.608696 0
M  V30 8501 H 779.567 1.5802 0.618698 0
M  V30 8502 H 778.339 3.5094 1.7308 0
M  V30 8503 H 777.962 2.48338 3.10506 0
M  V30 8504 N 778.959 -0.83999 1.33349 0
M  V30 8505 C 780.37 -1.41139 1.22216 0
M  V30 8506 C 780.721 -1.95551 -0.159398 0
M  V30 8507 O 779.846 -1.88721 -1.05893 0
M  V30 8508 C 780.441 -2.56564 2.21269 0
M  V30 8509 C 779 -3.09661 2.13979 0
M  V30 8510 C 778.147 -1.82457 2.08818 0
M  V30 8511 H 781.098 -0.645853 1.44964 0
M  V30 8512 H 781.119 -3.34163 1.81976 0
M  V30 8513 H 780.631 -2.16932 3.21811 0
M  V30 8514 H 778.732 -3.53841 1.16736 0
M  V30 8515 H 778.845 -3.6991 3.04472 0
M  V30 8516 H 777.209 -2.0266 1.54276 0
M  V30 8517 H 777.992 -1.45022 3.11165 0
M  V30 8518 N 780.437 -1.16799 -1.0581 0
M  V30 8519 C 781.367 -0.902241 -2.15364 0
M  V30 8520 C 782.348 0.153351 -1.69407 0
M  V30 8521 O 783.533 0.00442032 -1.94199 0
M  V30 8522 C 780.663 -0.407911 -3.44896 0
M  V30 8523 C 779.617 -1.40197 -4.04387 0
M  V30 8524 C 778.943 -0.765848 -5.29187 0
M  V30 8525 C 780.243 -2.77316 -4.42598 0
M  V30 8526 H 781.937 -1.81841 -2.37853 0
M  V30 8527 H 779.483 -0.875731 -1.14311 0
M  V30 8528 H 781.436 -0.20945 -4.20879 0
M  V30 8529 H 780.16 0.54378 -3.22041 0
M  V30 8530 H 778.819 -1.58707 -3.30466 0
M  V30 8531 H 778.467 0.192482 -5.02632 0
M  V30 8532 H 778.167 -1.42939 -5.69949 0
M  V30 8533 H 779.691 -0.577519 -6.07863 0
M  V30 8534 H 781.105 -2.62561 -5.09642 0
M  V30 8535 H 779.502 -3.4019 -4.94359 0
M  V30 8536 H 780.572 -3.32199 -3.53231 0
M  V30 8537 N 781.915 1.24427 -0.967243 0
M  V30 8538 C 783.162 1.92487 -0.62888 0
M  V30 8539 C 783.49 1.75623 0.835871 0
M  V30 8540 O 782.745 1.1027 1.61675 0
M  V30 8541 C 783.044 3.44568 -0.949096 0
M  V30 8542 C 782.71 3.816 -2.40192 0
M  V30 8543 C 781.372 3.9142 -2.799 0
M  V30 8544 C 783.724 3.99715 -3.34481 0
M  V30 8545 C 781.052 4.16771 -4.12939 0
M  V30 8546 C 783.404 4.26562 -4.67148 0
M  V30 8547 C 782.068 4.34601 -5.06634 0
M  V30 8548 H 781.338 0.704361 -0.230124 0
M  V30 8549 H 783.985 1.4772 -1.21864 0
M  V30 8550 H 782.29 3.90819 -0.277085 0
M  V30 8551 H 783.987 3.95436 -0.665692 0
M  V30 8552 H 780.577 3.74522 -2.08402 0
M  V30 8553 H 784.761 3.91531 -3.04987 0
M  V30 8554 H 780.017 4.21214 -4.43158 0
M  V30 8555 H 784.191 4.39523 -5.40178 0
M  V30 8556 H 781.818 4.53998 -6.09746 0
M  V30 8557 N 783.393 0.737304 1.3929 0
M  V30 8558 C 784.618 0.295237 2.05288 0
M  V30 8559 C 785.043 -1.06235 1.55228 0
M  V30 8560 O 784.401 -1.67365 0.697043 0
M  V30 8561 C 784.449 0.309146 3.59272 0
M  V30 8562 O 783.553 -0.702437 4.06374 0
M  V30 8563 H 782.894 0.133762 0.650387 0
M  V30 8564 H 785.424 1.00387 1.78279 0
M  V30 8565 H 785.434 0.154336 4.07708 0
M  V30 8566 H 784.109 1.29974 3.95069 0
M  V30 8567 H 782.686 -0.513574 3.69346 0
M  V30 8568 N 784.871 -1.49948 0.485112 0
M  V30 8569 C 785.818 -2.28819 -0.301729 0
M  V30 8570 C 786.788 -1.34496 -0.974683 0
M  V30 8571 O 787.973 -1.63444 -0.984418 0
M  V30 8572 C 785.113 -3.16758 -1.36961 0
M  V30 8573 C 784.226 -4.26125 -0.710027 0
M  V30 8574 C 783.361 -5.01302 -1.75699 0
M  V30 8575 C 782.4 -6.02525 -1.07841 0
M  V30 8576 N 781.537 -6.70927 -2.06886 0
M  V30 8577 H 786.377 -2.95604 0.377127 0
M  V30 8578 H 783.914 -1.45764 0.197826 0
M  V30 8579 H 785.872 -3.66106 -2.00056 0
M  V30 8580 H 784.502 -2.51991 -2.01744 0
M  V30 8581 H 783.554 -3.80385 0.0338278 0
M  V30 8582 H 784.866 -4.98493 -0.175079 0
M  V30 8583 H 784.02 -5.54438 -2.46339 0
M  V30 8584 H 782.759 -4.28672 -2.32577 0
M  V30 8585 H 781.764 -5.48635 -0.357706 0
M  V30 8586 H 782.989 -6.77134 -0.516345 0
M  V30 8587 H 780.935 -6.01079 -2.62755 0
M  V30 8588 H 780.852 -7.39216 -1.58414 0
M  V30 8589 H 782.12 -7.28675 -2.76863 0
M  V30 8590 N 786.349 -0.21828 -1.56081 0
M  V30 8591 C 787.574 0.422302 -2.03055 0
M  V30 8592 C 787.999 1.5279 -1.09713 0
M  V30 8593 O 787.357 1.81102 -0.0847187 0
M  V30 8594 C 787.405 0.934177 -3.48289 0
M  V30 8595 O 786.509 2.04574 -3.58083 0
M  V30 8596 H 785.85 0.0959764 -0.657027 0
M  V30 8597 H 788.38 -0.335958 -2.01823 0
M  V30 8598 H 788.39 1.24484 -3.88546 0
M  V30 8599 H 787.065 0.124963 -4.15712 0
M  V30 8600 H 785.642 1.74196 -3.29712 0
M  V30 8601 N 787.827 1.57504 0.0551401 0
M  V30 8602 C 789.075 1.87684 0.74962 0
M  V30 8603 C 789.396 0.812547 1.77264 0
M  V30 8604 O 788.666 -0.15694 1.9527 0
M  V30 8605 H 787.246 0.6926 0.279846 0
M  V30 8606 H 789.908 1.94881 0.0272745 0
M  V30 8607 H 789.004 2.85734 1.25548 0
M  V30 8608 N 789.305 -0.326896 1.54172 0
M  V30 8609 C 790.553 -1.06313 1.71878 0
M  V30 8610 C 790.874 -1.88652 0.493498 0
M  V30 8611 O 790.144 -1.89608 -0.492522 0
M  V30 8612 H 788.724 -0.39549 0.633716 0
M  V30 8613 H 791.386 -0.364139 1.91468 0
M  V30 8614 H 790.482 -1.73105 2.59694 0
M  V30 8615 N 790.784 -1.46188 -0.588786 0
M  V30 8616 C 792.032 -1.50885 -1.34455 0
M  V30 8617 C 792.353 -0.159555 -1.94346 0
M  V30 8618 O 791.623 0.813239 -1.78222 0
M  V30 8619 H 790.203 -0.555707 -0.499198 0
M  V30 8620 H 792.865 -1.82277 -0.690014 0
M  V30 8621 H 791.961 -2.25816 -2.15438 0
M  V30 8622 N 792.262 0.832906 -1.33792 0
M  V30 8623 C 793.51 1.58539 -1.25338 0
M  V30 8624 C 793.831 1.94175 0.179204 0
M  V30 8625 O 793.101 1.61458 1.10941 0
M  V30 8626 H 791.681 0.58784 -0.460926 0
M  V30 8627 H 794.343 0.995064 -1.67584 0
M  V30 8628 H 793.439 2.51268 -1.85123 0
M  V30 8629 N 793.74 1.17359 1.05189 0
M  V30 8630 C 794.688 0.886527 2.15043 0
M  V30 8631 C 795.682 -0.148834 1.68745 0
M  V30 8632 O 796.888 -0.00175123 1.8 0
M  V30 8633 H 793.263 0.269147 0.702185 0
M  V30 8634 H 795.234 1.82016 2.36459 0
M  V30 8635 C 793.983 0.416333 3.45198 0
M  V30 8636 H 793.306 1.20449 3.81225 0
M  V30 8637 H 794.746 0.254362 4.23236 0
M  V30 8638 C 793.205 -0.866016 3.25579 0
M  V30 8639 O 793.735 -1.9328 3.52144 0
M  V30 8640 N 791.941 -0.814179 2.78961 0
M  V30 8641 H 791.488 0.0541618 2.57543 0
M  V30 8642 H 791.446 -1.67264 2.66214 0
M  V30 8643 N 795.218 -1.23913 0.973828 0
M  V30 8644 C 796.465 -1.92151 0.639079 0
M  V30 8645 C 796.793 -1.76064 -0.826545 0
M  V30 8646 O 796.048 -1.11126 -1.61088 0
M  V30 8647 C 796.347 -3.4406 0.967356 0
M  V30 8648 C 796.013 -3.80321 2.42212 0
M  V30 8649 C 794.675 -3.8993 2.81971 0
M  V30 8650 C 797.027 -3.97935 3.36596 0
M  V30 8651 C 794.355 -4.14575 4.15144 0
M  V30 8652 C 796.707 -4.24079 4.69404 0
M  V30 8653 C 795.371 -4.31908 5.08932 0
M  V30 8654 H 794.641 -0.70313 0.233856 0
M  V30 8655 H 797.288 -1.47072 1.22646 0
M  V30 8656 H 795.593 -3.90667 0.297807 0
M  V30 8657 H 797.29 -3.95077 0.686654 0
M  V30 8658 H 793.88 -3.73411 2.10385 0
M  V30 8659 H 798.064 -3.89908 3.07059 0
M  V30 8660 H 793.32 -4.18858 4.45385 0
M  V30 8661 H 797.494 -4.36652 5.42502 0
M  V30 8662 H 795.121 -4.50758 6.12145 0
M  V30 8663 N 796.696 -0.74468 -1.38897 0
M  V30 8664 C 797.942 -0.297324 -2.00609 0
M  V30 8665 C 798.275 1.11547 -1.58968 0
M  V30 8666 O 797.55 1.76227 -0.823057 0
M  V30 8667 C 797.833 -0.410125 -3.57757 0
M  V30 8668 C 797.686 -1.86338 -4.09387 0
M  V30 8669 C 799.005 0.20176 -4.39637 0
M  V30 8670 H 796.124 -0.109509 -0.728819 0
M  V30 8671 H 798.766 -0.942653 -1.64967 0
M  V30 8672 H 796.916 0.139287 -3.8825 0
M  V30 8673 H 798.588 -2.47042 -3.89574 0
M  V30 8674 H 796.831 -2.38146 -3.62586 0
M  V30 8675 H 797.502 -1.89352 -5.18507 0
M  V30 8676 H 799.978 -0.266703 -4.15244 0
M  V30 8677 H 798.854 0.0925415 -5.48822 0
M  V30 8678 H 799.115 1.289 -4.22891 0
M  V30 8679 N 798.174 1.49689 -0.493057 0
M  V30 8680 C 799.104 2.31826 0.279073 0
M  V30 8681 C 800.085 1.39733 0.969987 0
M  V30 8682 O 801.27 1.68646 0.962925 0
M  V30 8683 C 798.4 3.20046 1.34862 0
M  V30 8684 C 797.354 4.20869 0.77805 0
M  V30 8685 C 796.68 4.97971 1.94753 0
M  V30 8686 C 797.98 5.21813 -0.225543 0
M  V30 8687 H 799.674 2.96627 -0.406512 0
M  V30 8688 H 797.22 1.42647 -0.196943 0
M  V30 8689 H 799.173 3.76315 1.89645 0
M  V30 8690 H 797.897 2.53172 2.06328 0
M  V30 8691 H 796.556 3.65733 0.252036 0
M  V30 8692 H 796.204 4.27552 2.64969 0
M  V30 8693 H 795.904 5.66186 1.57187 0
M  V30 8694 H 797.428 5.57082 2.49984 0
M  V30 8695 H 798.842 5.72823 0.233864 0
M  V30 8696 H 797.239 5.97872 -0.516622 0
M  V30 8697 H 798.309 4.71209 -1.14412 0
M  V30 8698 N 799.652 0.226554 1.55963 0
M  V30 8699 C 800.877 -0.411527 2.03276 0
M  V30 8700 C 801.302 -1.52206 1.10521 0
M  V30 8701 O 800.66 -1.81054 0.0943217 0
M  V30 8702 C 800.708 -0.915694 3.4878 0
M  V30 8703 O 799.812 -2.02672 3.59163 0
M  V30 8704 H 799.153 -0.0924907 0.657527 0
M  V30 8705 H 801.683 0.346656 2.01642 0
M  V30 8706 H 801.693 -1.22421 3.892 0
M  V30 8707 H 800.368 -0.102915 4.15773 0
M  V30 8708 H 798.945 -1.72445 3.30632 0
M  V30 8709 N 801.13 -1.57531 -0.0467866 0
M  V30 8710 C 802.358 -1.92696 -0.753371 0
M  V30 8711 C 802.773 -0.824792 -1.69831 0
M  V30 8712 O 802.13 0.200155 -1.81399 0
M  V30 8713 C 802.181 -3.27728 -1.52566 0
M  V30 8714 O 801.902 -4.3371 -0.618674 0
M  V30 8715 C 803.403 -3.77066 -2.33101 0
M  V30 8716 H 800.623 -0.636367 -0.212788 0
M  V30 8717 H 803.167 -2.04498 -0.00959361 0
M  V30 8718 H 801.322 -3.17378 -2.22148 0
M  V30 8719 H 801.736 -5.11548 -1.15839 0
M  V30 8720 H 803.21 -4.74109 -2.82709 0
M  V30 8721 H 803.687 -3.07348 -3.13741 0
M  V30 8722 H 804.293 -3.90442 -1.68628 0
M  V30 8723 N 802.608 0.318715 -1.54344 0
M  V30 8724 C 803.833 1.07987 -1.77069 0
M  V30 8725 C 804.258 1.80766 -0.520117 0
M  V30 8726 O 803.616 1.73424 0.528566 0
M  V30 8727 C 803.664 2.04987 -2.96669 0
M  V30 8728 O 802.768 3.12974 -2.68554 0
M  V30 8729 H 802.109 0.311109 -0.586606 0
M  V30 8730 H 804.639 0.361533 -2.0138 0
M  V30 8731 H 804.649 2.47771 -3.2415 0
M  V30 8732 H 803.324 1.51417 -3.87357 0
M  V30 8733 H 801.901 2.74831 -2.52037 0
M  V30 8734 N 804.086 1.46499 0.581025 0
M  V30 8735 C 805.016 1.60052 1.70017 0
M  V30 8736 C 805.997 0.450788 1.64018 0
M  V30 8737 O 807.182 0.677237 1.82009 0
M  V30 8738 C 804.312 1.5921 3.08658 0
M  V30 8739 C 803.266 2.73169 3.29488 0
M  V30 8740 C 802.592 2.57389 4.68674 0
M  V30 8741 C 803.892 4.14978 3.1716 0
M  V30 8742 H 805.586 2.53735 1.5893 0
M  V30 8743 H 803.132 1.22113 0.763173 0
M  V30 8744 H 805.085 1.67285 3.86773 0
M  V30 8745 H 803.809 0.620718 3.20647 0
M  V30 8746 H 802.468 2.64566 2.53773 0
M  V30 8747 H 802.116 1.58331 4.77431 0
M  V30 8748 H 801.816 3.33826 4.83564 0
M  V30 8749 H 803.34 2.67358 5.48956 0
M  V30 8750 H 804.754 4.24684 3.85119 0
M  V30 8751 H 803.151 4.92016 3.4357 0
M  V30 8752 H 804.221 4.35016 2.14218 0
M  V30 8753 N 805.565 -0.825799 1.34232 0
M  V30 8754 C 806.811 -1.58419 1.26614 0
M  V30 8755 C 807.144 -1.93503 -0.164341 0
M  V30 8756 O 806.419 -1.59785 -1.109 0
M  V30 8757 C 806.702 -2.8856 2.15418 0
M  V30 8758 C 806.555 -2.60075 3.66989 0
M  V30 8759 C 807.874 -3.90107 2.03726 0
M  V30 8760 H 804.993 -0.574794 0.461282 0
M  V30 8761 H 807.635 -0.951519 1.64457 0
M  V30 8762 H 805.785 -3.42553 1.83275 0
M  V30 8763 H 807.457 -2.12414 4.09485 0
M  V30 8764 H 805.7 -1.93565 3.88221 0
M  V30 8765 H 806.371 -3.52866 4.24488 0
M  V30 8766 H 808.847 -3.45459 2.31942 0
M  V30 8767 H 807.723 -4.78976 2.68092 0
M  V30 8768 H 807.984 -4.30329 1.01337 0
M  V30 8769 N 807.043 -1.17915 -1.04565 0
M  V30 8770 C 808.291 -0.969505 -1.77327 0
M  V30 8771 C 808.612 0.502569 -1.88412 0
M  V30 8772 O 807.882 1.36467 -1.40547 0
M  V30 8773 H 806.462 -0.355723 -0.656864 0
M  V30 8774 H 809.124 -1.48506 -1.26223 0
M  V30 8775 H 808.22 -1.40324 -2.78775 0
M  V30 8776 N 808.521 1.23394 -0.980386 0
M  V30 8777 C 809.751 1.9556 -0.666319 0
M  V30 8778 C 810.159 1.72786 0.770815 0
M  V30 8779 O 809.502 1.0162 1.53033 0
M  V30 8780 C 809.564 3.48643 -0.876825 0
M  V30 8781 C 809.228 3.95135 -2.29602 0
M  V30 8782 C 810.225 4.03806 -3.2747 0
M  V30 8783 C 807.91 4.28122 -2.62711 0
M  V30 8784 C 809.904 4.44818 -4.56526 0
M  V30 8785 C 807.591 4.68814 -3.9199 0
M  V30 8786 C 808.589 4.77129 -4.88709 0
M  V30 8787 O 808.277 5.16908 -6.15679 0
M  V30 8788 H 808.009 0.629422 -0.246585 0
M  V30 8789 H 810.563 1.57839 -1.31438 0
M  V30 8790 H 808.793 3.86319 -0.171587 0
M  V30 8791 H 810.482 4.0202 -0.55992 0
M  V30 8792 H 811.248 3.78526 -3.03222 0
M  V30 8793 H 807.127 4.20861 -1.8814 0
M  V30 8794 H 810.671 4.51223 -5.32018 0
M  V30 8795 H 806.568 4.93545 -4.16033 0
M  V30 8796 H 807.336 5.3502 -6.19432 0
M  V30 8797 N 809.999 0.752036 1.385 0
M  V30 8798 C 810.929 0.138718 2.33088 0
M  V30 8799 C 811.91 -0.705318 1.54788 0
M  V30 8800 O 813.095 -0.646821 1.83112 0
M  V30 8801 C 810.225 -0.75641 3.38963 0
M  V30 8802 C 809.179 -0.0152239 4.27997 0
M  V30 8803 C 808.505 -1.0285 5.24715 0
M  V30 8804 C 809.805 1.15226 5.09431 0
M  V30 8805 H 811.499 0.928852 2.84627 0
M  V30 8806 H 809.045 0.448111 1.3685 0
M  V30 8807 H 810.998 -1.19513 4.04097 0
M  V30 8808 H 809.722 -1.57885 2.85902 0
M  V30 8809 H 808.381 0.404061 3.64366 0
M  V30 8810 H 808.029 -1.84496 4.67943 0
M  V30 8811 H 807.729 -0.537238 5.85139 0
M  V30 8812 H 809.253 -1.46657 5.92726 0
M  V30 8813 H 810.667 0.791161 5.67815 0
M  V30 8814 H 809.064 1.57428 5.79082 0
M  V30 8815 H 810.134 1.9659 4.43261 0
M  V30 8816 N 811.477 -1.49425 0.500989 0
M  V30 8817 C 812.893 -1.58826 0.156951 0
M  V30 8818 C 813.093 -1.50622 -1.33848 0
M  V30 8819 O 812.149 -1.38016 -2.11442 0
M  V30 8820 C 813.462 -2.91611 0.73374 0
M  V30 8821 C 815.01 -3.05076 0.699846 0
M  V30 8822 C 815.485 -4.40479 1.2547 0
M  V30 8823 N 816.976 -4.4697 1.2154 0
M  V30 8824 C 817.711 -5.50189 1.6149 0
M  V30 8825 N 817.207 -6.60512 2.09034 0
M  V30 8826 N 819 -5.40903 1.52907 0
M  V30 8827 H 811.151 -1.53001 1.47324 0
M  V30 8828 H 813.414 -0.724765 0.61108 0
M  V30 8829 H 813.12 -3.03182 1.78251 0
M  V30 8830 H 812.994 -3.767 0.19417 0
M  V30 8831 H 815.381 -2.93134 -0.340085 0
M  V30 8832 H 815.462 -2.2167 1.27656 0
M  V30 8833 H 815.106 -4.53172 2.29341 0
M  V30 8834 H 815.036 -5.22524 0.653921 0
M  V30 8835 H 817.527 -3.67819 0.867043 0
M  V30 8836 H 817.84 -7.35372 2.37588 0
M  V30 8837 H 816.185 -6.61553 2.13008 0
M  V30 8838 H 819.376 -4.53606 1.15583 0
M  V30 8839 H 819.549 -6.21219 1.84365 0
M  V30 8840 N 812.955 -0.234822 -1.55841 0
M  V30 8841 C 814.201 0.393843 -1.98939 0
M  V30 8842 C 814.534 1.58466 -1.1226 0
M  V30 8843 O 813.809 1.93635 -0.183242 0
M  V30 8844 C 814.092 0.815492 -3.50745 0
M  V30 8845 C 813.945 -0.379878 -4.48193 0
M  V30 8846 C 815.264 1.66687 -4.07312 0
M  V30 8847 H 812.383 0.141681 -0.723253 0
M  V30 8848 H 815.025 -0.333716 -1.87046 0
M  V30 8849 H 813.175 1.43541 -3.6101 0
M  V30 8850 H 814.847 -1.0182 -4.49923 0
M  V30 8851 H 813.09 -1.02507 -4.21515 0
M  V30 8852 H 813.761 -0.0417069 -5.51984 0
M  V30 8853 H 816.237 1.14369 -4.00074 0
M  V30 8854 H 815.113 1.93078 -5.13821 0
M  V30 8855 H 815.374 2.63468 -3.55017 0
M  V30 8856 N 814.433 1.57553 0.0384317 0
M  V30 8857 C 815.365 2.02726 1.06934 0
M  V30 8858 C 816.378 0.938502 1.33026 0
M  V30 8859 O 817.567 1.21595 1.30678 0
M  V30 8860 C 814.667 2.37958 2.41308 0
M  V30 8861 C 813.84 3.69098 2.34703 0
M  V30 8862 C 812.899 3.91623 3.51451 0
M  V30 8863 O 811.925 4.628 3.31368 0
M  V30 8864 N 813.127 3.36538 4.72993 0
M  V30 8865 H 815.892 2.91781 0.684381 0
M  V30 8866 H 813.453 1.60307 0.226542 0
M  V30 8867 H 815.445 2.50172 3.18113 0
M  V30 8868 H 814.015 1.54621 2.71682 0
M  V30 8869 H 813.235 3.67325 1.43059 0
M  V30 8870 H 814.523 4.55144 2.27424 0
M  V30 8871 H 813.921 2.78828 4.92211 0
M  V30 8872 H 812.478 3.54148 5.47195 0
M  V30 8873 N 815.911 -0.310526 1.54511 0
M  V30 8874 C 817.159 -1.04484 1.72996 0
M  V30 8875 C 817.48 -1.88118 0.513479 0
M  V30 8876 O 816.75 -1.90119 -0.472384 0
M  V30 8877 H 815.33 -0.388747 0.637875 0
M  V30 8878 H 817.992 -0.343811 1.91844 0
M  V30 8879 H 817.088 -1.70341 2.61515 0
M  V30 8880 N 817.389 -1.46805 -0.573248 0
M  V30 8881 C 818.635 -1.5283 -1.33307 0
M  V30 8882 C 818.968 -0.183287 -1.93333 0
M  V30 8883 O 818.243 0.806354 -1.76998 0
M  V30 8884 C 818.526 -2.63414 -2.45531 0
M  V30 8885 C 818.379 -4.07478 -1.90478 0
M  V30 8886 C 819.698 -2.70014 -3.47535 0
M  V30 8887 H 816.817 -0.556371 -0.483343 0
M  V30 8888 H 819.459 -1.78787 -0.643066 0
M  V30 8889 H 817.609 -2.41412 -3.04389 0
M  V30 8890 H 819.281 -4.40795 -1.36004 0
M  V30 8891 H 817.524 -4.16511 -1.21248 0
M  V30 8892 H 818.195 -4.80598 -2.71531 0
M  V30 8893 H 820.671 -2.89817 -2.98572 0
M  V30 8894 H 819.547 -3.49192 -4.23504 0
M  V30 8895 H 819.808 -1.76436 -4.05367 0
M  V30 8896 N 818.867 0.818669 -1.34668 0
M  V30 8897 C 820.113 1.57746 -1.27453 0
M  V30 8898 C 820.446 1.93588 0.154077 0
M  V30 8899 O 819.721 1.60371 1.10051 0
M  V30 8900 C 820.004 2.87414 -2.16945 0
M  V30 8901 C 819.857 2.58125 -3.68363 0
M  V30 8902 C 821.176 3.89021 -2.05792 0
M  V30 8903 H 818.295 0.572339 -0.464324 0
M  V30 8904 H 820.937 0.942784 -1.64959 0
M  V30 8905 H 819.087 3.41576 -1.85089 0
M  V30 8906 H 820.759 2.10239 -4.10606 0
M  V30 8907 H 819.002 1.91503 -3.89242 0
M  V30 8908 H 819.673 3.5061 -4.26353 0
M  V30 8909 H 822.149 3.44224 -2.33771 0
M  V30 8910 H 821.025 4.77548 -2.70628 0
M  V30 8911 H 821.286 4.29786 -1.03618 0
M  V30 8912 N 820.346 1.18468 1.03938 0
M  V30 8913 C 821.592 0.982286 1.77423 0
M  V30 8914 C 821.925 -0.48679 1.88 0
M  V30 8915 O 821.2 -1.36146 1.38905 0
M  V30 8916 C 821.483 1.63929 3.20623 0
M  V30 8917 C 821.336 3.18132 3.17982 0
M  V30 8918 C 822.655 1.3536 4.18767 0
M  V30 8919 H 819.774 0.358264 0.644062 0
M  V30 8920 H 822.416 1.46154 1.21405 0
M  V30 8921 H 820.566 1.2318 3.68455 0
M  V30 8922 H 822.238 3.68024 2.78129 0
M  V30 8923 H 820.481 3.50225 2.55978 0
M  V30 8924 H 821.152 3.5924 4.19107 0
M  V30 8925 H 823.628 1.70669 3.79488 0
M  V30 8926 H 822.504 1.83896 5.17178 0
M  V30 8927 H 822.765 0.276722 4.41233 0
M  V30 8928 N 821.824 -1.22873 0.986916 0
M  V30 8929 C 823.235 -1.73264 0.695438 0
M  V30 8930 C 823.586 -1.79679 -0.788023 0
M  V30 8931 O 822.711 -1.43905 -1.61618 0
M  V30 8932 C 823.306 -3.14671 1.2557 0
M  V30 8933 C 821.865 -3.62492 1.01373 0
M  V30 8934 C 821.012 -2.40551 1.37951 0
M  V30 8935 H 823.963 -1.08304 1.15999 0
M  V30 8936 H 823.984 -3.75226 0.631322 0
M  V30 8937 H 823.496 -3.0997 2.33539 0
M  V30 8938 H 821.597 -3.72567 -0.0495917 0
M  V30 8939 H 821.71 -4.48944 1.67289 0
M  V30 8940 H 820.074 -2.41875 0.798033 0
M  V30 8941 H 820.857 -2.38516 2.46911 0
M  V30 8942 N 823.302 -0.75937 -1.38099 0
M  V30 8943 C 824.235 -0.0838362 -2.28046 0
M  V30 8944 C 825.213 0.722229 -1.4568 0
M  V30 8945 O 826.397 0.699629 -1.75036 0
M  V30 8946 C 823.524 0.887916 -3.26854 0
M  V30 8947 C 822.57 0.167374 -4.26171 0
M  V30 8948 S 823.403 -1.13592 -5.23314 0
M  V30 8949 C 824.559 -0.167385 -6.25676 0
M  V30 8950 H 824.792 -0.846564 -2.84992 0
M  V30 8951 H 822.325 -0.552206 -1.44188 0
M  V30 8952 H 824.283 1.44322 -3.84293 0
M  V30 8953 H 822.944 1.62366 -2.68879 0
M  V30 8954 H 822.137 0.903567 -4.95834 0
M  V30 8955 H 821.739 -0.316572 -3.72658 0
M  V30 8956 H 824.031 0.664598 -6.74232 0
M  V30 8957 H 824.974 -0.831836 -7.03197 0
M  V30 8958 H 825.382 0.21589 -5.64087 0
M  V30 8959 N 824.78 1.49157 -0.508906 0
M  V30 8960 C 826.026 2.02773 0.0328469 0
M  V30 8961 C 826.359 1.38714 1.35912 0
M  V30 8962 O 825.634 0.525536 1.87266 0
M  V30 8963 C 825.917 3.59664 0.177088 0
M  V30 8964 C 825.77 4.34239 -1.17287 0
M  V30 8965 C 827.089 4.30505 0.913977 0
M  V30 8966 H 824.208 0.736926 0.0104631 0
M  V30 8967 H 826.85 1.781 -0.661851 0
M  V30 8968 H 825 3.80818 0.768774 0
M  V30 8969 H 826.672 4.24561 -1.80404 0
M  V30 8970 H 824.915 3.96486 -1.76016 0
M  V30 8971 H 825.586 5.42397 -1.02516 0
M  V30 8972 H 828.062 4.14054 0.412084 0
M  V30 8973 H 826.938 5.40012 0.983759 0
M  V30 8974 H 827.199 3.96302 1.95951 0
M  V30 8975 N 826.258 0.243083 1.55714 0
M  V30 8976 C 827.208 -0.671915 2.17875 0
M  V30 8977 C 828.192 -1.14199 1.13347 0
M  V30 8978 O 829.384 -1.09239 1.39269 0
M  V30 8979 C 826.513 -1.87027 2.87881 0
M  V30 8980 C 825.599 -1.41888 3.99661 0
M  V30 8981 N 825.99 -0.681465 5.01188 0
M  V30 8982 C 824.288 -1.70447 4.12145 0
M  V30 8983 C 824.989 -0.448285 5.7997 0
M  V30 8984 N 823.965 -1.01137 5.34109 0
M  V30 8985 H 827.767 -0.100321 2.93729 0
M  V30 8986 H 825.281 0.0452371 1.62337 0
M  V30 8987 H 827.278 -2.53674 3.3084 0
M  V30 8988 H 825.938 -2.44613 2.13529 0
M  V30 8989 H 826.949 -0.331959 5.16835 0
M  V30 8990 H 823.626 -2.29198 3.48962 0
M  V30 8991 H 825.016 0.140141 6.71754 0
M  V30 8992 N 827.736 -1.57571 -0.0300757 0
M  V30 8993 C 828.684 -2.0758 -1.04944 0
M  V30 8994 C 829.678 -0.989384 -1.37505 0
M  V30 8995 O 830.884 -1.17427 -1.36422 0
M  V30 8996 H 827.259 -0.662419 -0.355956 0
M  V30 8997 H 829.23 -2.92268 -0.601848 0
M  V30 8998 C 827.979 -2.5698 -2.34215 0
M  V30 8999 H 827.302 -3.40193 -2.10021 0
M  V30 9000 H 828.742 -2.95682 -3.03888 0
M  V30 9001 C 827.201 -1.47059 -3.03109 0
M  V30 9002 O 827.731 -0.83625 -3.92899 0
M  V30 9003 N 825.937 -1.20538 -2.64422 0
M  V30 9004 H 825.484 -1.72305 -1.9149 0
M  V30 9005 H 825.442 -0.472045 -3.10836 0
M  V30 9006 N 829.214 0.302327 -1.54673 0
M  V30 9007 C 830.462 1.03565 -1.73547 0
M  V30 9008 C 830.783 1.87843 -0.523448 0
M  V30 9009 O 830.053 1.90367 0.462295 0
M  V30 9010 H 828.633 0.385358 -0.639928 0
M  V30 9011 H 831.295 0.333632 -1.92023 0
M  V30 9012 H 830.391 1.68952 -2.62415 0
M  V30 9013 N 830.692 1.47107 0.565454 0
M  V30 9014 C 831.922 1.56681 1.34664 0
M  V30 9015 C 832.33 0.213011 1.87997 0
M  V30 9016 O 831.673 -0.802629 1.65238 0
M  V30 9017 C 831.735 2.52528 2.55871 0
M  V30 9018 C 831.399 3.98403 2.23883 0
M  V30 9019 C 832.396 4.87125 1.81673 0
M  V30 9020 C 830.081 4.43674 2.35496 0
M  V30 9021 C 832.075 6.19135 1.51494 0
M  V30 9022 C 829.762 5.75714 2.0493 0
M  V30 9023 C 830.76 6.63266 1.62996 0
M  V30 9024 O 830.448 7.92853 1.32813 0
M  V30 9025 H 830.18 0.531967 0.417117 0
M  V30 9026 H 832.734 1.93368 0.692669 0
M  V30 9027 H 830.964 2.10893 3.24131 0
M  V30 9028 H 832.653 2.5232 3.17945 0
M  V30 9029 H 833.419 4.534 1.72201 0
M  V30 9030 H 829.298 3.7574 2.67096 0
M  V30 9031 H 832.842 6.87429 1.1869 0
M  V30 9032 H 828.739 6.08983 2.14031 0
M  V30 9033 H 829.507 8.0528 1.46513 0
M  V30 9034 N 832.17 -0.811516 1.35101 0
M  V30 9035 C 833.418 -1.56525 1.27845 0
M  V30 9036 C 833.739 -1.94435 -0.14829 0
M  V30 9037 O 833.009 -1.63203 -1.08359 0
M  V30 9038 H 831.589 -0.580433 0.47022 0
M  V30 9039 H 834.251 -0.968277 1.69146 0
M  V30 9040 H 833.347 -2.48291 1.89097 0
M  V30 9041 N 833.648 -1.19017 -1.03309 0
M  V30 9042 C 834.895 -0.990214 -1.76638 0
M  V30 9043 C 835.223 0.479435 -1.88498 0
M  V30 9044 O 834.478 1.37223 -1.39529 0
M  V30 9045 C 834.777 -1.59927 -3.19622 0
M  V30 9046 C 834.443 -3.09632 -3.27779 0
M  V30 9047 C 833.105 -3.50491 -3.29712 0
M  V30 9048 C 835.457 -4.05644 -3.27264 0
M  V30 9049 C 832.785 -4.85921 -3.28782 0
M  V30 9050 C 835.137 -5.41 -3.27875 0
M  V30 9051 C 833.801 -5.81295 -3.28104 0
M  V30 9052 H 833.071 -0.362345 -0.646364 0
M  V30 9053 H 835.718 -1.48197 -1.21284 0
M  V30 9054 H 834.023 -1.0297 -3.78027 0
M  V30 9055 H 835.72 -1.41989 -3.7502 0
M  V30 9056 H 832.31 -2.77073 -3.26999 0
M  V30 9057 H 836.494 -3.75124 -3.24955 0
M  V30 9058 H 831.75 -5.16427 -3.27281 0
M  V30 9059 H 835.924 -6.15157 -3.26428 0
M  V30 9060 H 833.551 -6.86211 -3.27138 0
M  V30 9061 N 835.127 1.22348 -0.993418 0
M  V30 9062 C 836.374 1.9111 -0.669568 0
M  V30 9063 C 836.702 1.77357 0.79843 0
M  V30 9064 O 835.957 1.13675 1.593 0
M  V30 9065 C 836.256 3.42477 -1.02197 0
M  V30 9066 C 835.922 3.7642 -2.48232 0
M  V30 9067 C 834.584 3.85395 -2.88139 0
M  V30 9068 C 836.936 3.9253 -3.42884 0
M  V30 9069 C 834.264 4.07918 -4.21687 0
M  V30 9070 C 836.616 4.16557 -4.76091 0
M  V30 9071 C 835.28 4.23757 -5.15739 0
M  V30 9072 H 834.55 0.699321 -0.245012 0
M  V30 9073 H 837.197 1.45102 -1.2497 0
M  V30 9074 H 835.502 3.90143 -0.359921 0
M  V30 9075 H 837.199 3.93935 -0.74942 0
M  V30 9076 H 833.789 3.70017 -2.16299 0
M  V30 9077 H 837.973 3.84974 -3.13224 0
M  V30 9078 H 833.229 4.11719 -4.51993 0
M  V30 9079 H 837.403 4.27966 -5.4938 0
M  V30 9080 H 835.03 4.40962 -6.19239 0
M  V30 9081 N 836.605 0.766683 1.37694 0
M  V30 9082 C 837.835 0.339446 2.03792 0
M  V30 9083 C 838.243 -1.04153 1.57952 0
M  V30 9084 O 837.586 -1.67521 0.753826 0
M  V30 9085 C 837.648 0.29822 3.58261 0
M  V30 9086 C 837.312 1.62293 4.27212 0
M  V30 9087 C 838.309 2.57447 4.51682 0
M  V30 9088 C 835.994 1.89597 4.65143 0
M  V30 9089 C 837.988 3.78117 5.13134 0
M  V30 9090 C 835.675 3.10538 5.26317 0
M  V30 9091 C 836.673 4.04617 5.50249 0
M  V30 9092 O 836.361 5.23429 6.10145 0
M  V30 9093 H 836.093 0.140952 0.661142 0
M  V30 9094 H 838.647 1.04022 1.77111 0
M  V30 9095 H 836.877 -0.458897 3.83967 0
M  V30 9096 H 838.566 -0.101263 4.05774 0
M  V30 9097 H 839.332 2.37633 4.22795 0
M  V30 9098 H 835.211 1.17199 4.45854 0
M  V30 9099 H 838.755 4.51563 5.3173 0
M  V30 9100 H 834.652 3.3024 5.54628 0
M  V30 9101 H 835.42 5.24187 6.28626 0
M  V30 9102 N 838.083 -1.48885 0.516809 0
M  V30 9103 C 839.033 -2.26363 -0.272704 0
M  V30 9104 C 840.017 -1.31891 -0.921604 0
M  V30 9105 O 841.209 -1.56514 -0.826589 0
M  V30 9106 C 838.338 -3.16614 -1.32705 0
M  V30 9107 C 837.424 -4.18554 -0.683598 0
M  V30 9108 N 837.815 -5.05308 0.223015 0
M  V30 9109 C 836.113 -4.35931 -0.942351 0
M  V30 9110 C 836.814 -5.7867 0.592918 0
M  V30 9111 N 835.79 -5.43583 -0.042912 0
M  V30 9112 H 839.592 -2.90811 0.424971 0
M  V30 9113 H 837.106 -1.5893 0.333941 0
M  V30 9114 H 839.103 -3.70766 -1.90625 0
M  V30 9115 H 837.763 -2.5372 -2.02624 0
M  V30 9116 H 838.774 -5.14473 0.594818 0
M  V30 9117 H 835.451 -3.84234 -1.6331 0
M  V30 9118 H 836.841 -6.58493 1.33556 0
M  V30 9119 N 839.561 -0.251338 -1.55583 0
M  V30 9120 C 840.81 0.372681 -1.98227 0
M  V30 9121 C 841.123 1.58743 -1.1428 0
M  V30 9122 O 842.329 2.28289 -1.46957 0
M  V30 9123 C 840.785 0.714439 -3.52738 0
M  V30 9124 C 840.393 -0.479168 -4.4543 0
M  V30 9125 C 842.137 1.3024 -4.04027 0
M  V30 9126 C 840.044 -0.113318 -5.91291 0
M  V30 9127 H 838.974 0.14302 -0.740312 0
M  V30 9128 H 841.625 -0.352253 -1.80087 0
M  V30 9129 H 840.007 1.49762 -3.66589 0
M  V30 9130 H 841.181 -1.25644 -4.4334 0
M  V30 9131 H 839.496 -0.982359 -4.04646 0
M  V30 9132 H 842.093 1.58953 -5.10527 0
M  V30 9133 H 842.436 2.22837 -3.51638 0
M  V30 9134 H 842.969 0.582024 -3.93519 0
M  V30 9135 H 839.708 -1.00654 -6.47726 0
M  V30 9136 H 839.228 0.627666 -5.96507 0
M  V30 9137 H 840.907 0.30293 -6.4629 0
M  V30 9138 N 841.039 1.57585 0.0217189 0
M  V30 9139 C 842.455 1.55072 0.377484 0
M  V30 9140 C 842.655 0.978423 1.76151 0
M  V30 9141 O 841.711 0.602688 2.45202 0
M  V30 9142 C 843.024 2.99462 0.272605 0
M  V30 9143 C 844.572 3.11047 0.349148 0
M  V30 9144 C 845.047 4.57182 0.273636 0
M  V30 9145 N 846.538 4.62007 0.332206 0
M  V30 9146 C 847.273 5.72631 0.296782 0
M  V30 9147 N 846.769 6.92472 0.21322 0
M  V30 9148 N 848.562 5.61028 0.347053 0
M  V30 9149 H 840.713 1.93133 -0.883925 0
M  V30 9150 H 842.976 0.886151 -0.33681 0
M  V30 9151 H 842.682 3.45088 -0.67878 0
M  V30 9152 H 842.556 3.61901 1.06335 0
M  V30 9153 H 844.943 2.65364 1.29097 0
M  V30 9154 H 845.024 2.51425 -0.471085 0
M  V30 9155 H 844.668 5.03534 -0.664548 0
M  V30 9156 H 844.598 5.14724 1.11207 0
M  V30 9157 H 847.089 3.75788 0.399003 0
M  V30 9158 H 847.402 7.72563 0.191492 0
M  V30 9159 H 845.747 6.94769 0.179161 0
M  V30 9160 H 848.938 4.66298 0.410378 0
M  V30 9161 H 849.111 6.47229 0.315979 0
M  V30 9162 N 842.517 -0.29412 1.54831 0
M  V30 9163 C 843.794 -1.04847 1.65126 0
M  V30 9164 C 844.174 -2.04996 0.503986 0
M  V30 9165 O 843.522 -2.22996 -0.498496 0
M  V30 9166 C 843.732 -1.72418 3.03435 0
M  V30 9167 C 845.08 -2.24362 3.60481 0
M  V30 9168 O 846.104 -1.8244 3.05932 0
M  V30 9169 O 844.963 -3.01196 4.56008 0
M  V30 9170 H 842.057 -0.485032 0.669831 0
M  V30 9171 H 844.603 -0.291659 1.67175 0
M  V30 9172 H 843.375 -0.997351 3.78376 0
M  V30 9173 H 842.998 -2.54839 3.05193 0
M  V30 9174 N 843.995 -1.47404 -0.557645 0
M  V30 9175 C 845.272 -1.44488 -1.31843 0
M  V30 9176 C 845.652 -0.1416 -2.10625 0
M  V30 9177 O 845 0.876908 -2.11004 0
M  V30 9178 C 845.21 -2.69016 -2.22331 0
M  V30 9179 C 846.558 -3.16212 -2.83364 0
M  V30 9180 O 847.582 -2.69741 -2.32634 0
M  V30 9181 O 846.441 -3.96999 -3.75571 0
M  V30 9182 H 843.535 -0.57578 -0.593639 0
M  V30 9183 H 846.081 -1.59605 -0.576584 0
M  V30 9184 H 844.853 -3.55406 -1.63715 0
M  V30 9185 H 844.476 -2.56484 -3.03812 0
M  V30 9186 N 845.473 0.80434 -1.35529 0
M  V30 9187 C 846.889 1.10023 -1.15616 0
M  V30 9188 C 847.089 2.01478 0.0298535 0
M  V30 9189 O 846.145 2.42609 0.699778 0
M  V30 9190 C 847.458 1.72905 -2.46017 0
M  V30 9191 C 849.006 1.85315 -2.52245 0
M  V30 9192 C 849.481 2.51612 -3.82695 0
M  V30 9193 N 850.972 2.59095 -3.83958 0
M  V30 9194 C 851.707 3.11167 -4.81625 0
M  V30 9195 N 851.203 3.63659 -5.89681 0
M  V30 9196 N 852.996 3.09741 -4.6906 0
M  V30 9197 H 845.147 0.196428 -2.1149 0
M  V30 9198 H 847.41 0.149735 -0.9361 0
M  V30 9199 H 847.116 1.13171 -3.32994 0
M  V30 9200 H 846.99 2.72579 -2.6073 0
M  V30 9201 H 849.377 2.44191 -1.65695 0
M  V30 9202 H 849.458 0.844886 -2.41444 0
M  V30 9203 H 849.102 1.93385 -4.69643 0
M  V30 9204 H 849.032 3.5298 -3.90785 0
M  V30 9205 H 851.523 2.21908 -3.05884 0
M  V30 9206 H 851.836 4.01699 -6.60195 0
M  V30 9207 H 850.181 3.61852 -5.9337 0
M  V30 9208 H 853.372 2.68011 -3.83781 0
M  V30 9209 H 853.545 3.50016 -5.45338 0
M  V30 9210 N 846.951 1.19563 1.02676 0
M  V30 9211 C 848.198 0.999568 1.7611 0
M  V30 9212 C 848.526 -0.469432 1.8875 0
M  V30 9213 O 847.781 -1.36481 1.40255 0
M  V30 9214 C 848.08 1.61619 3.18769 0
M  V30 9215 C 847.746 3.11366 3.26132 0
M  V30 9216 C 846.408 3.52234 3.27848 0
M  V30 9217 C 848.76 4.07374 3.25109 0
M  V30 9218 C 846.088 4.87658 3.26201 0
M  V30 9219 C 848.44 5.42731 3.25002 0
M  V30 9220 C 847.104 5.83027 3.25017 0
M  V30 9221 H 846.374 0.365768 0.644434 0
M  V30 9222 H 849.021 1.48838 1.20497 0
M  V30 9223 H 847.326 1.04974 3.77476 0
M  V30 9224 H 849.023 1.43975 3.74262 0
M  V30 9225 H 845.613 2.78804 3.25525 0
M  V30 9226 H 849.797 3.76842 3.22961 0
M  V30 9227 H 845.053 5.18156 3.24537 0
M  V30 9228 H 849.227 6.16879 3.23161 0
M  V30 9229 H 846.854 6.87936 3.23494 0
M  V30 9230 N 848.429 -1.21819 0.999893 0
M  V30 9231 C 849.675 -1.91035 0.680701 0
M  V30 9232 C 850.008 -1.77582 -0.786021 0
M  V30 9233 O 849.283 -1.14917 -1.56921 0
M  V30 9234 C 849.566 -3.43013 1.0961 0
M  V30 9235 C 849.419 -3.65481 2.6219 0
M  V30 9236 C 850.738 -4.35204 0.654616 0
M  V30 9237 H 847.857 -0.693748 0.248763 0
M  V30 9238 H 850.499 -1.43555 1.24466 0
M  V30 9239 H 848.649 -3.83581 0.616253 0
M  V30 9240 H 850.321 -3.34273 3.17899 0
M  V30 9241 H 848.564 -3.09522 3.03938 0
M  V30 9242 H 849.235 -4.71945 2.86307 0
M  V30 9243 H 851.711 -4.0219 1.06688 0
M  V30 9244 H 850.587 -5.40198 0.973492 0
M  V30 9245 H 850.848 -4.3986 -0.444458 0
M  V30 9246 N 849.908 -0.773975 -1.37286 0
M  V30 9247 C 851.154 -0.339809 -1.99933 0
M  V30 9248 C 851.487 1.0815 -1.61299 0
M  V30 9249 O 850.762 1.74442 -0.860252 0
M  V30 9250 C 851.045 -0.485919 -3.56806 0
M  V30 9251 C 850.898 -1.9498 -4.05343 0
M  V30 9252 C 852.217 0.108461 -4.39966 0
M  V30 9253 H 849.336 -0.124944 -0.726332 0
M  V30 9254 H 851.978 -0.977433 -1.6293 0
M  V30 9255 H 850.128 0.0569023 -3.88458 0
M  V30 9256 H 851.8 -2.5525 -3.84246 0
M  V30 9257 H 850.043 -2.45784 -3.57453 0
M  V30 9258 H 850.714 -2.00308 -5.14374 0
M  V30 9259 H 853.19 -0.354722 -4.14585 0
M  V30 9260 H 852.066 -0.0238926 -5.48895 0
M  V30 9261 H 852.327 1.19901 -4.25531 0
M  V30 9262 N 851.386 1.48609 -0.524698 0
M  V30 9263 C 852.349 2.28041 0.230166 0
M  V30 9264 C 853.349 1.35065 0.872584 0
M  V30 9265 O 854.539 1.58007 0.73345 0
M  V30 9266 C 851.671 3.13778 1.33252 0
M  V30 9267 H 852.864 2.96239 -0.467161 0
M  V30 9268 H 850.417 1.53763 -0.280452 0
M  V30 9269 H 851.152 2.502 2.06327 0
M  V30 9270 H 850.937 3.82165 0.877058 0
M  V30 9271 H 852.427 3.7371 1.86362 0
M  V30 9272 N 852.864 0.259585 1.55447 0
M  V30 9273 C 854.104 -0.362989 2.01151 0
M  V30 9274 C 854.468 -1.54201 1.14394 0
M  V30 9275 O 855.669 -2.23318 1.49608 0
M  V30 9276 C 853.94 -0.750399 3.49434 0
M  V30 9277 S 855.499 -1.3617 4.17137 0
M  V30 9278 H 852.317 -0.11365 0.701858 0
M  V30 9279 H 854.919 0.377788 1.91815 0
M  V30 9280 H 853.623 0.116807 4.10234 0
M  V30 9281 H 853.154 -1.52303 3.62722 0
M  V30 9282 H 855.169 -2.65059 4.19474 0
M  V30 9283 N 854.342 -1.57594 -0.0133615 0
M  V30 9284 C 855.567 -1.94649 -0.715996 0
M  V30 9285 C 855.992 -0.860786 -1.67249 0
M  V30 9286 O 855.35 0.182228 -1.80382 0
M  V30 9287 C 855.398 -3.30789 -1.43566 0
M  V30 9288 O 854.502 -3.24148 -2.54955 0
M  V30 9289 H 853.843 -0.635801 -0.191449 0
M  V30 9290 H 856.373 -2.04569 0.0358478 0
M  V30 9291 H 856.383 -3.66045 -1.80208 0
M  V30 9292 H 855.058 -4.09367 -0.734263 0
M  V30 9293 H 853.635 -3.00548 -2.20739 0
M  V30 9294 N 855.82 0.285905 -1.54985 0
M  V30 9295 C 856.783 1.33625 -1.86218 0
M  V30 9296 C 857.783 1.42971 -0.735936 0
M  V30 9297 O 858.973 1.42345 -1.00417 0
M  V30 9298 C 856.105 2.71926 -2.05595 0
M  V30 9299 H 857.298 1.07167 -2.80099 0
M  V30 9300 H 854.851 0.523335 -1.47278 0
M  V30 9301 H 855.586 3.03583 -1.14053 0
M  V30 9302 H 855.371 2.6653 -2.87583 0
M  V30 9303 H 856.861 3.47841 -2.31077 0
M  V30 9304 N 857.298 1.47698 0.54982 0
M  V30 9305 C 858.544 1.55914 1.30624 0
M  V30 9306 C 858.899 0.221596 1.9112 0
M  V30 9307 O 858.192 -0.77351 1.75292 0
M  V30 9308 C 858.386 2.61903 2.4319 0
M  V30 9309 C 858.215 4.05833 1.93725 0
M  V30 9310 C 856.985 4.73199 1.77231 0
M  V30 9311 C 859.183 4.92624 1.47738 0
M  V30 9312 N 857.165 6.01618 1.22183 0
M  V30 9313 C 858.536 6.11129 1.04505 0
M  V30 9314 C 860.591 4.79006 1.35857 0
M  V30 9315 C 859.294 7.1752 0.505722 0
M  V30 9316 C 861.32 5.85501 0.833254 0
M  V30 9317 C 860.682 7.03201 0.410894 0
M  V30 9318 H 856.781 0.625194 0.469741 0
M  V30 9319 H 859.365 1.84485 0.622369 0
M  V30 9320 H 857.536 2.35188 3.09098 0
M  V30 9321 H 859.268 2.59919 3.102 0
M  V30 9322 H 856.023 4.29221 2.00166 0
M  V30 9323 H 856.447 6.70054 0.967263 0
M  V30 9324 H 861.089 3.88369 1.67122 0
M  V30 9325 H 858.807 8.07898 0.180721 0
M  V30 9326 H 862.393 5.77013 0.744781 0
M  V30 9327 H 861.273 7.84199 0.0107086 0
M  V30 9328 N 858.776 -0.797141 1.35954 0
M  V30 9329 C 859.723 -1.90944 1.2965 0
M  V30 9330 C 860.693 -1.65262 0.166628 0
M  V30 9331 O 861.878 -1.87527 0.351883 0
M  V30 9332 C 859.018 -3.27637 1.08389 0
M  V30 9333 C 858.131 -3.65442 2.30382 0
M  V30 9334 C 857.266 -4.91213 2.02195 0
M  V30 9335 C 856.305 -5.21674 3.20191 0
M  V30 9336 N 855.442 -6.38627 2.91719 0
M  V30 9337 H 860.282 -1.95668 2.24762 0
M  V30 9338 H 857.819 -0.95696 1.11717 0
M  V30 9339 H 859.777 -4.06451 0.940912 0
M  V30 9340 H 858.407 -3.22355 0.169351 0
M  V30 9341 H 857.459 -2.81813 2.55511 0
M  V30 9342 H 858.771 -3.83907 3.18461 0
M  V30 9343 H 857.925 -5.77876 1.84783 0
M  V30 9344 H 856.664 -4.74803 1.11416 0
M  V30 9345 H 855.669 -4.33498 3.38171 0
M  V30 9346 H 856.894 -5.40009 4.11786 0
M  V30 9347 H 854.84 -6.23623 2.03543 0
M  V30 9348 H 854.757 -6.57387 3.73334 0
M  V30 9349 H 856.025 -7.28292 2.77868 0
M  V30 9350 N 860.254 -1.20106 -1.0204 0
M  V30 9351 C 861.479 -1.0351 -1.79723 0
M  V30 9352 C 861.904 0.411328 -1.83548 0
M  V30 9353 O 861.262 1.29608 -1.26773 0
M  V30 9354 C 861.31 -1.61876 -3.22224 0
M  V30 9355 O 860.414 -0.853813 -4.03465 0
M  V30 9356 H 859.755 -0.365299 -0.554484 0
M  V30 9357 H 862.285 -1.59316 -1.28373 0
M  V30 9358 H 862.295 -1.65451 -3.72948 0
M  V30 9359 H 860.97 -2.67148 -3.18755 0
M  V30 9360 H 859.547 -0.891983 -3.62075 0
M  V30 9361 N 861.732 1.21287 -1.00634 0
M  V30 9362 C 862.972 1.92106 -0.698194 0
M  V30 9363 C 863.336 1.76437 0.757222 0
M  V30 9364 O 864.537 2.41641 1.17741 0
M  V30 9365 C 862.808 3.39748 -1.10932 0
M  V30 9366 S 864.367 4.29013 -0.921586 0
M  V30 9367 H 861.185 0.663755 -0.254853 0
M  V30 9368 H 863.787 1.46772 -1.29145 0
M  V30 9369 H 862.491 3.48669 -2.16467 0
M  V30 9370 H 862.022 3.90101 -0.508419 0
M  V30 9371 H 864.037 4.95871 0.180578 0
M  V30 9372 N 863.21 0.781244 1.36873 0
M  V30 9373 C 864.621 0.414093 1.8205 0
M  V30 9374 C 864.972 -1.06098 1.65039 0
M  V30 9375 O 864.097 -1.82251 1.16677 0
M  V30 9376 C 864.692 0.744837 3.30511 0
M  V30 9377 C 863.251 0.430621 3.73929 0
M  V30 9378 C 862.398 0.983746 2.59264 0
M  V30 9379 H 865.349 0.975091 1.2521 0
M  V30 9380 H 865.37 0.032936 3.80486 0
M  V30 9381 H 864.882 1.81847 3.42861 0
M  V30 9382 H 862.983 -0.635308 3.67144 0
M  V30 9383 H 863.096 0.945514 4.69677 0
M  V30 9384 H 861.46 0.407433 2.5142 0
M  V30 9385 H 862.243 2.06297 2.74402 0
M  V30 9386 N 864.689 -1.48329 0.532571 0
M  V30 9387 C 865.599 -2.33445 -0.232546 0
M  V30 9388 C 866.615 -1.46651 -0.93645 0
M  V30 9389 O 867.791 -1.79627 -0.910834 0
M  V30 9390 C 864.856 -3.22824 -1.26434 0
M  V30 9391 C 863.917 -4.25492 -0.570511 0
M  V30 9392 C 863.15 -5.10601 -1.55315 0
M  V30 9393 O 863.373 -4.97733 -2.78599 0
M  V30 9394 O 862.307 -5.91927 -1.09112 0
M  V30 9395 H 866.133 -3.00119 0.464988 0
M  V30 9396 H 863.718 -1.46489 0.293462 0
M  V30 9397 H 865.6 -3.78103 -1.86055 0
M  V30 9398 H 864.275 -2.58807 -1.94424 0
M  V30 9399 H 863.182 -3.74041 0.0662587 0
M  V30 9400 H 864.515 -4.92154 0.0674904 0
M  V30 9401 N 866.167 -0.267825 -1.55308 0
M  V30 9402 C 867.395 0.354587 -2.03839 0
M  V30 9403 C 867.81 1.50007 -1.14644 0
M  V30 9404 O 867.167 1.81752 -0.165055 0
M  V30 9405 C 867.218 0.84254 -3.51544 0
M  V30 9406 O 866.939 -0.257318 -4.37344 0
M  V30 9407 C 868.44 1.53351 -4.15931 0
M  V30 9408 H 865.66 0.0818131 -0.665994 0
M  V30 9409 H 868.204 -0.397795 -2.00594 0
M  V30 9410 H 866.359 1.54503 -3.55257 0
M  V30 9411 H 866.773 0.116593 -5.2437 0
M  V30 9412 H 868.247 1.82643 -5.20908 0
M  V30 9413 H 868.724 2.4626 -3.63666 0
M  V30 9414 H 869.33 0.87506 -4.162 0
M  V30 9415 N 867.645 1.57599 0.00500368 0
M  V30 9416 C 868.922 1.81561 0.727654 0
M  V30 9417 C 869.302 0.871604 1.92266 0
M  V30 9418 O 868.65 -0.0808232 2.28357 0
M  V30 9419 C 868.86 3.29922 1.13809 0
M  V30 9420 C 870.208 3.95531 1.54403 0
M  V30 9421 O 871.232 3.34215 1.23202 0
M  V30 9422 O 870.091 5.03535 2.12402 0
M  V30 9423 H 867.185 0.747462 0.353878 0
M  V30 9424 H 869.731 1.69688 -0.0200667 0
M  V30 9425 H 868.503 3.90253 0.286078 0
M  V30 9426 H 868.126 3.46775 1.94507 0
M  V30 9427 N 869.123 -0.277682 1.55134 0
M  V30 9428 C 870.086 -1.32635 1.86924 0
M  V30 9429 C 871.086 -1.42578 0.743507 0
M  V30 9430 O 872.276 -1.4181 1.01171 0
M  V30 9431 C 869.408 -2.70832 2.07034 0
M  V30 9432 H 870.601 -1.0568 2.80663 0
M  V30 9433 H 868.154 -0.515517 1.47554 0
M  V30 9434 H 868.889 -3.02974 1.15661 0
M  V30 9435 H 868.674 -2.65001 2.88993 0
M  V30 9436 H 870.164 -3.46611 2.32918 0
M  V30 9437 N 870.601 -1.47988 -0.541979 0
M  V30 9438 C 871.511 -1.64276 -1.67483 0
M  V30 9439 C 872.527 -0.525387 -1.65879 0
M  V30 9440 O 873.703 -0.794912 -1.85049 0
M  V30 9441 C 870.768 -1.66744 -3.03969 0
M  V30 9442 C 869.829 -2.90021 -3.16522 0
M  V30 9443 C 869.062 -2.92362 -4.46498 0
M  V30 9444 O 869.285 -2.03462 -5.32878 0
M  V30 9445 O 868.219 -3.84399 -4.63164 0
M  V30 9446 H 872.045 -2.60164 -1.5668 0
M  V30 9447 H 869.63 -1.31249 -0.71372 0
M  V30 9448 H 871.512 -1.70958 -3.85164 0
M  V30 9449 H 870.187 -0.740277 -3.15122 0
M  V30 9450 H 869.094 -2.91345 -2.34667 0
M  V30 9451 H 870.427 -3.82082 -3.10281 0
M  V30 9452 N 872.079 0.78992 -1.36375 0
M  V30 9453 C 873.026 1.90254 -1.3066 0
M  V30 9454 C 873.996 1.65171 -0.17539 0
M  V30 9455 O 875.181 1.87338 -0.361824 0
M  V30 9456 C 872.321 3.27057 -1.10125 0
M  V30 9457 C 871.434 3.64215 -2.32317 0
M  V30 9458 C 870.569 4.90134 -2.04798 0
M  V30 9459 C 869.608 5.19969 -3.22953 0
M  V30 9460 N 868.745 6.37071 -2.95102 0
M  V30 9461 H 873.585 1.94474 -2.25796 0
M  V30 9462 H 871.122 0.951022 -1.12223 0
M  V30 9463 H 873.08 4.05947 -0.962453 0
M  V30 9464 H 871.71 3.22261 -0.186444 0
M  V30 9465 H 870.762 2.80454 -2.57002 0
M  V30 9466 H 872.074 3.82212 -3.20492 0
M  V30 9467 H 871.228 5.76888 -1.87845 0
M  V30 9468 H 869.967 4.74205 -1.13932 0
M  V30 9469 H 868.972 4.31699 -3.40465 0
M  V30 9470 H 870.197 5.37817 -4.14644 0
M  V30 9471 H 868.143 6.22535 -2.06848 0
M  V30 9472 H 868.06 6.55398 -3.76815 0
M  V30 9473 H 869.328 7.26808 -2.81727 0
M  V30 9474 N 873.557 1.20646 1.01402 0
M  V30 9475 C 874.487 0.98155 2.11867 0
M  V30 9476 C 875.468 -0.0903712 1.6986 0
M  V30 9477 O 876.653 0.0676586 1.94082 0
M  V30 9478 C 873.783 0.535636 3.43145 0
M  V30 9479 C 872.737 1.55109 3.98905 0
M  V30 9480 C 872.063 0.961725 5.2598 0
M  V30 9481 C 873.363 2.93552 4.32001 0
M  V30 9482 H 875.057 1.90544 2.3094 0
M  V30 9483 H 872.603 0.917554 1.10982 0
M  V30 9484 H 874.556 0.365512 4.19812 0
M  V30 9485 H 873.28 -0.423882 3.23838 0
M  V30 9486 H 871.939 1.70862 3.24348 0
M  V30 9487 H 871.587 -0.00580108 5.03 0
M  V30 9488 H 871.287 1.63993 5.64252 0
M  V30 9489 H 872.811 0.802726 6.053 0
M  V30 9490 H 874.225 2.81295 4.99546 0
M  V30 9491 H 872.622 3.58303 4.81393 0
M  V30 9492 H 873.692 3.4508 3.40658 0
M  V30 9493 N 875.035 -1.20752 1.01276 0
M  V30 9494 C 876.281 -1.90302 0.700924 0
M  V30 9495 C 876.614 -1.78406 -0.767142 0
M  V30 9496 O 875.889 -1.16575 -1.55694 0
M  V30 9497 C 876.172 -3.41831 1.13242 0
M  V30 9498 C 876.025 -3.6268 2.66051 0
M  V30 9499 C 877.344 -4.34486 0.700738 0
M  V30 9500 H 874.463 -0.69107 0.256107 0
M  V30 9501 H 877.105 -1.42227 1.25982 0
M  V30 9502 H 875.255 -3.82906 0.656902 0
M  V30 9503 H 876.927 -3.30882 3.21426 0
M  V30 9504 H 875.17 -3.06281 3.07204 0
M  V30 9505 H 875.841 -4.68882 2.91296 0
M  V30 9506 H 878.317 -4.01036 1.10948 0
M  V30 9507 H 877.193 -5.39136 1.03073 0
M  V30 9508 H 877.454 -4.40307 -0.39778 0
M  V30 9509 N 876.513 -0.788492 -1.36457 0
M  V30 9510 C 877.445 -0.144208 -2.28746 0
M  V30 9511 C 878.458 0.646009 -1.49434 0
M  V30 9512 O 879.647 0.481344 -1.71888 0
M  V30 9513 C 876.747 0.818869 -3.28858 0
M  V30 9514 C 875.92 0.0789055 -4.37329 0
M  V30 9515 C 874.979 0.957791 -5.1741 0
M  V30 9516 O 874.005 0.415378 -5.67682 0
M  V30 9517 N 875.207 2.28216 -5.33758 0
M  V30 9518 H 877.972 -0.936949 -2.84678 0
M  V30 9519 H 875.533 -0.642317 -1.48613 0
M  V30 9520 H 877.525 1.41065 -3.79319 0
M  V30 9521 H 876.095 1.51249 -2.73573 0
M  V30 9522 H 875.315 -0.693939 -3.88044 0
M  V30 9523 H 876.603 -0.431753 -5.06965 0
M  V30 9524 H 876.001 2.747 -4.94527 0
M  V30 9525 H 874.558 2.8236 -5.87466 0
M  V30 9526 N 877.991 1.48044 -0.54043 0
M  V30 9527 C 878.921 2.32597 0.205178 0
M  V30 9528 C 879.902 1.42748 0.925041 0
M  V30 9529 O 881.087 1.71624 0.908784 0
M  V30 9530 C 878.217 3.24175 1.24612 0
M  V30 9531 C 877.171 4.23131 0.64376 0
M  V30 9532 C 876.497 5.03915 1.78812 0
M  V30 9533 C 877.797 5.20831 -0.39144 0
M  V30 9534 H 879.491 2.95184 -0.500676 0
M  V30 9535 H 877.037 1.41948 -0.242225 0
M  V30 9536 H 878.99 3.82158 1.77576 0
M  V30 9537 H 877.714 2.59608 1.98169 0
M  V30 9538 H 876.373 3.66349 0.135554 0
M  V30 9539 H 876.021 4.35765 2.51232 0
M  V30 9540 H 875.721 5.709 1.39094 0
M  V30 9541 H 877.245 5.64753 2.32134 0
M  V30 9542 H 878.659 5.73277 0.0515064 0
M  V30 9543 H 877.056 5.95926 -0.706569 0
M  V30 9544 H 878.126 4.6733 -1.29345 0
M  V30 9545 N 879.47 0.276058 1.55163 0
M  V30 9546 C 880.698 -0.343772 2.04024 0
M  V30 9547 C 881.113 -1.49397 1.15438 0
M  V30 9548 O 880.47 -1.81662 0.174692 0
M  V30 9549 C 880.521 -0.823885 3.51986 0
M  V30 9550 O 880.242 0.280507 4.37201 0
M  V30 9551 C 881.743 -1.51143 4.16738 0
M  V30 9552 H 878.963 -0.07828 0.666418 0
M  V30 9553 H 881.507 0.408427 2.0038 0
M  V30 9554 H 879.662 -1.52617 3.56071 0
M  V30 9555 H 880.076 -0.0887831 5.24425 0
M  V30 9556 H 881.55 -1.79878 5.2187 0
M  V30 9557 H 882.027 -2.44327 3.64967 0
M  V30 9558 H 882.633 -0.852975 4.16659 0
M  V30 9559 N 880.948 -1.576 0.00335426 0
M  V30 9560 C 882.195 -1.90713 -0.680791 0
M  V30 9561 C 882.523 -0.877263 -1.73592 0
M  V30 9562 O 881.778 0.117497 -1.95347 0
M  V30 9563 C 882.077 -3.3058 -1.35837 0
M  V30 9564 C 881.743 -4.48786 -0.436111 0
M  V30 9565 C 880.405 -4.80855 -0.182195 0
M  V30 9566 C 882.757 -5.20821 0.198677 0
M  V30 9567 C 880.085 -5.8233 0.714747 0
M  V30 9568 C 882.437 -6.23252 1.08351 0
M  V30 9569 C 881.101 -6.53776 1.34658 0
M  V30 9570 H 880.371 -0.697869 -0.249119 0
M  V30 9571 H 883.018 -1.91407 0.0596011 0
M  V30 9572 H 881.323 -3.26026 -2.17289 0
M  V30 9573 H 883.02 -3.53462 -1.89383 0
M  V30 9574 H 879.61 -4.23731 -0.644186 0
M  V30 9575 H 883.794 -4.96298 0.0155259 0
M  V30 9576 H 879.05 -6.04339 0.926529 0
M  V30 9577 H 883.224 -6.78199 1.58172 0
M  V30 9578 H 880.851 -7.32225 2.04328 0
M  V30 9579 N 882.426 0.269451 -1.5528 0
M  V30 9580 C 883.666 1.00819 -1.77806 0
M  V30 9581 C 884.03 1.83369 -0.569198 0
M  V30 9582 O 885.231 2.60244 -0.672783 0
M  V30 9583 C 883.502 1.86447 -3.04913 0
M  V30 9584 S 885.061 2.66538 -3.48573 0
M  V30 9585 H 881.879 0.339508 -0.624704 0
M  V30 9586 H 884.481 0.278256 -1.9351 0
M  V30 9587 H 883.185 1.24733 -3.90986 0
M  V30 9588 H 882.716 2.63755 -2.91885 0
M  V30 9589 H 884.731 3.88938 -3.08126 0
M  V30 9590 N 883.904 1.48273 0.534124 0
M  V30 9591 C 884.867 1.6201 1.62127 0
M  V30 9592 C 885.867 0.493653 1.53035 0
M  V30 9593 O 887.057 0.759337 1.56779 0
M  V30 9594 C 884.189 1.5864 3.01739 0
M  V30 9595 H 885.382 2.58944 1.51288 0
M  V30 9596 H 882.935 1.36808 0.755861 0
M  V30 9597 H 883.67 0.631685 3.18088 0
M  V30 9598 H 883.455 2.40415 3.09747 0
M  V30 9599 H 884.945 1.71438 3.80787 0
M  V30 9600 N 885.382 -0.782676 1.36792 0
M  V30 9601 C 886.629 -1.54083 1.31395 0
M  V30 9602 C 886.957 -1.94217 -0.104797 0
M  V30 9603 O 886.212 -1.63491 -1.0756 0
M  V30 9604 C 886.511 -2.82542 2.18872 0
M  V30 9605 C 886.177 -2.61512 3.67317 0
M  V30 9606 C 884.839 -2.55486 4.07775 0
M  V30 9607 C 887.191 -2.42389 4.61407 0
M  V30 9608 C 884.519 -2.28311 5.40454 0
M  V30 9609 C 886.871 -2.1674 5.94312 0
M  V30 9610 C 885.535 -2.09151 6.33887 0
M  V30 9611 H 884.805 -0.563829 0.48081 0
M  V30 9612 H 887.452 -0.902436 1.68903 0
M  V30 9613 H 885.757 -3.50883 1.74323 0
M  V30 9614 H 887.454 -3.40367 2.12017 0
M  V30 9615 H 884.044 -2.67062 3.35225 0
M  V30 9616 H 888.228 -2.46043 4.31018 0
M  V30 9617 H 883.484 -2.20922 5.70091 0
M  V30 9618 H 887.658 -2.0094 6.6678 0
M  V30 9619 H 885.285 -1.87857 7.36623 0
M  V30 9620 N 886.86 -1.21182 -1.00761 0
M  V30 9621 C 887.81 -0.936247 -2.0789 0
M  V30 9622 C 888.794 0.107482 -1.60541 0
M  V30 9623 O 889.986 -0.1011 -1.76711 0
M  V30 9624 C 887.115 -0.499949 -3.3964 0
M  V30 9625 C 886.201 -1.5776 -3.93666 0
M  V30 9626 N 886.592 -2.80208 -4.2109 0
M  V30 9627 C 884.89 -1.44586 -4.21913 0
M  V30 9628 C 885.591 -3.49787 -4.64784 0
M  V30 9629 N 884.567 -2.7722 -4.676 0
M  V30 9630 H 888.369 -1.86659 -2.27015 0
M  V30 9631 H 885.883 -1.10716 -1.1881 0
M  V30 9632 H 887.88 -0.283897 -4.15932 0
M  V30 9633 H 886.54 0.423659 -3.21924 0
M  V30 9634 H 887.551 -3.16776 -4.09724 0
M  V30 9635 H 884.228 -0.587346 -4.13348 0
M  V30 9636 H 885.618 -4.54615 -4.94747 0
M  V30 9637 N 888.338 1.20213 -1.01915 0
M  V30 9638 C 889.615 1.85348 -0.62495 0
M  V30 9639 C 889.995 1.91101 0.896854 0
M  V30 9640 O 889.343 1.42075 1.78961 0
M  V30 9641 C 889.553 3.24849 -1.27571 0
M  V30 9642 C 890.901 4.01107 -1.39277 0
M  V30 9643 O 891.925 3.34211 -1.23212 0
M  V30 9644 O 890.784 5.20914 -1.6526 0
M  V30 9645 H 887.878 0.798303 -0.215965 0
M  V30 9646 H 890.424 1.27782 -1.11669 0
M  V30 9647 H 889.196 3.1544 -2.31545 0
M  V30 9648 H 888.819 3.90049 -0.77122 0
M  V30 9649 N 889.816 0.795718 1.36037 0
M  V30 9650 C 890.749 0.144269 2.27744 0
M  V30 9651 C 891.727 -0.683351 1.47543 0
M  V30 9652 O 892.911 -0.652976 1.76829 0
M  V30 9653 C 890.038 -0.800944 3.29094 0
M  V30 9654 C 889.084 -0.0543234 4.26465 0
M  V30 9655 S 889.917 1.27426 5.20118 0
M  V30 9656 C 891.073 0.333213 6.25012 0
M  V30 9657 H 891.306 0.921827 2.82648 0
M  V30 9658 H 888.839 0.590241 1.42673 0
M  V30 9659 H 890.797 -1.34082 3.87985 0
M  V30 9660 H 889.458 -1.5518 2.7309 0
M  V30 9661 H 888.651 -0.771788 4.98056 0
M  V30 9662 H 888.253 0.415264 3.71687 0
M  V30 9663 H 890.545 -0.485604 6.75757 0
M  V30 9664 H 891.488 1.01798 7.00744 0
M  V30 9665 H 891.896 -0.066256 5.64461 0
M  V30 9666 N 891.294 -1.47756 0.548274 0
M  V30 9667 C 892.543 -2.01691 0.0187961 0
M  V30 9668 C 892.856 -1.42894 -1.33569 0
M  V30 9669 O 894.062 -1.88438 -1.95457 0
M  V30 9670 C 892.518 -3.59896 -0.016847 0
M  V30 9671 C 892.126 -4.27683 1.33385 0
M  V30 9672 C 893.87 -4.21614 -0.494188 0
M  V30 9673 C 891.777 -5.7787 1.2578 0
M  V30 9674 H 890.707 -0.753993 0.00325648 0
M  V30 9675 H 893.358 -1.69838 0.694792 0
M  V30 9676 H 891.74 -3.88672 -0.758304 0
M  V30 9677 H 892.914 -4.10559 2.09232 0
M  V30 9678 H 891.229 -3.77915 1.7484 0
M  V30 9679 H 893.826 -5.3166 -0.569342 0
M  V30 9680 H 894.169 -3.88176 -1.50417 0
M  V30 9681 H 894.702 -3.97336 0.192138 0
M  V30 9682 H 891.441 -6.15912 2.2435 0
M  V30 9683 H 890.961 -5.97355 0.540997 0
M  V30 9684 H 892.64 -6.39897 0.956109 0
M  V30 9685 N 892.772 -0.284283 -1.55015 0
M  V30 9686 C 893.704 0.63258 -2.20298 0
M  V30 9687 C 894.717 1.11045 -1.1905 0
M  V30 9688 O 895.906 1.03078 -1.4573 0
M  V30 9689 C 893.006 1.87599 -2.82241 0
M  V30 9690 C 892.179 1.5434 -4.09265 0
M  V30 9691 C 891.238 2.64023 -4.55169 0
M  V30 9692 O 890.264 2.29821 -5.20741 0
M  V30 9693 N 891.466 3.94255 -4.26079 0
M  V30 9694 H 894.231 0.0737928 -2.99609 0
M  V30 9695 H 891.792 -0.105767 -1.61554 0
M  V30 9696 H 893.784 2.60289 -3.0989 0
M  V30 9697 H 892.354 2.3436 -2.06868 0
M  V30 9698 H 891.574 0.649912 -3.88806 0
M  V30 9699 H 892.862 1.29634 -4.92009 0
M  V30 9700 H 892.26 4.24859 -3.73512 0
M  V30 9701 H 890.817 4.63295 -4.58477 0
M  V30 9702 N 894.251 1.57596 -0.0117121 0
M  V30 9703 C 895.181 2.12188 0.9746 0
M  V30 9704 C 896.162 1.03379 1.35081 0
M  V30 9705 O 897.347 1.31123 1.4325 0
M  V30 9706 C 894.477 2.63477 2.26268 0
M  V30 9707 C 893.431 3.76917 2.02774 0
M  V30 9708 C 892.757 4.14566 3.37697 0
M  V30 9709 C 894.057 5.03715 1.38089 0
M  V30 9710 H 895.751 2.9485 0.520007 0
M  V30 9711 H 893.297 1.41836 0.248685 0
M  V30 9712 H 895.25 3.00299 2.95633 0
M  V30 9713 H 893.974 1.77953 2.73862 0
M  V30 9714 H 892.633 3.40507 1.35832 0
M  V30 9715 H 892.281 3.26048 3.83016 0
M  V30 9716 H 891.981 4.91 3.22789 0
M  V30 9717 H 893.505 4.53956 4.08358 0
M  V30 9718 H 894.919 5.38233 1.97428 0
M  V30 9719 H 893.316 5.85032 1.33634 0
M  V30 9720 H 894.386 4.83624 0.351575 0
M  V30 9721 N 895.729 -0.261212 1.5542 0
M  V30 9722 C 896.662 -1.34906 1.84054 0
M  V30 9723 C 897.64 -1.47024 0.694466 0
M  V30 9724 O 898.824 -1.63463 0.938719 0
M  V30 9725 C 895.951 -2.7242 2.01259 0
M  V30 9726 C 894.997 -2.77526 3.23855 0
M  V30 9727 S 895.83 -2.35578 4.80898 0
M  V30 9728 C 896.986 -3.75045 5.01091 0
M  V30 9729 H 897.219 -1.10416 2.76035 0
M  V30 9730 H 894.752 -0.461461 1.47343 0
M  V30 9731 H 896.71 -3.51606 2.11857 0
M  V30 9732 H 895.371 -2.94155 1.10145 0
M  V30 9733 H 894.564 -3.78483 3.32816 0
M  V30 9734 H 894.166 -2.0637 3.11909 0
M  V30 9735 H 896.458 -4.7042 4.87556 0
M  V30 9736 H 897.401 -3.71027 6.03112 0
M  V30 9737 H 897.809 -3.66894 4.29009 0
M  V30 9738 N 897.207 -1.48554 -0.526253 0
M  V30 9739 C 898.155 -1.63804 -1.65139 0
M  V30 9740 C 899.149 -0.504398 -1.61716 0
M  V30 9741 O 900.355 -0.683241 -1.66529 0
M  V30 9742 H 896.73 -0.516071 -0.546969 0
M  V30 9743 H 898.701 -2.58294 -1.49421 0
M  V30 9744 C 897.45 -1.69843 -3.03395 0
M  V30 9745 H 896.773 -2.56438 -3.06724 0
M  V30 9746 H 898.213 -1.84555 -3.81727 0
M  V30 9747 C 896.672 -0.437875 -3.34042 0
M  V30 9748 O 897.202 0.447604 -3.99198 0
M  V30 9749 N 895.408 -0.308444 -2.88958 0
M  V30 9750 H 894.955 -1.02998 -2.36112 0
M  V30 9751 H 894.913 0.533952 -3.09833 0
M  V30 9752 N 898.685 0.775411 -1.37205 0
M  V30 9753 C 899.91 1.5696 -1.35567 0
M  V30 9754 C 900.335 1.88012 0.0575554 0
M  V30 9755 O 899.693 1.48954 1.03355 0
M  V30 9756 C 899.741 2.85886 -2.19776 0
M  V30 9757 O 898.845 3.80103 -1.59987 0
M  V30 9758 H 898.186 0.475583 -0.463375 0
M  V30 9759 H 900.716 0.96001 -1.80679 0
M  V30 9760 H 900.726 3.35024 -2.32859 0
M  V30 9761 H 899.401 2.62613 -3.22502 0
M  V30 9762 H 897.978 3.38736 -1.55924 0
M  V30 9763 N 900.163 1.21714 1.00117 0
M  V30 9764 C 901.391 1.06278 1.77518 0
M  V30 9765 C 901.806 -0.387193 1.84787 0
M  V30 9766 O 901.163 -1.26854 1.31203 0
M  V30 9767 C 901.214 1.65795 3.21239 0
M  V30 9768 O 900.935 3.05119 3.14378 0
M  V30 9769 C 902.436 1.55521 4.15124 0
M  V30 9770 H 899.656 0.373013 0.557765 0
M  V30 9771 H 902.2 1.61133 1.25922 0
M  V30 9772 H 900.355 1.15022 3.69931 0
M  V30 9773 H 900.769 3.33643 4.04701 0
M  V30 9774 H 902.243 2.01902 5.13751 0
M  V30 9775 H 902.72 0.510307 4.36225 0
M  V30 9776 H 903.326 2.0556 3.72324 0
M  V30 9777 N 901.641 -1.19671 1.02551 0
M  V30 9778 C 902.591 -2.20655 0.574037 0
M  V30 9779 C 903.575 -1.56459 -0.375412 0
M  V30 9780 O 904.767 -1.75901 -0.196929 0
M  V30 9781 C 901.896 -3.43213 -0.0772031 0
M  V30 9782 C 900.982 -4.1456 0.894485 0
M  V30 9783 N 901.373 -4.62147 2.05557 0
M  V30 9784 C 899.671 -4.40196 0.717205 0
M  V30 9785 C 900.372 -5.16899 2.66814 0
M  V30 9786 N 899.348 -5.07496 1.94804 0
M  V30 9787 H 903.15 -2.55124 1.45908 0
M  V30 9788 H 900.664 -1.35707 0.89204 0
M  V30 9789 H 902.661 -4.14797 -0.41824 0
M  V30 9790 H 901.321 -3.10247 -0.957973 0
M  V30 9791 H 902.332 -4.5708 2.43513 0
M  V30 9792 H 899.009 -4.17342 -0.114758 0
M  V30 9793 H 900.399 -5.64032 3.65126 0
M  V30 9794 N 903.119 -0.802921 -1.35613 0
M  V30 9795 C 904.049 -0.225131 -2.32412 0
M  V30 9796 C 905.03 0.647383 -1.57299 0
M  V30 9797 O 906.215 0.578414 -1.85386 0
M  V30 9798 C 903.345 0.630085 -3.41537 0
M  V30 9799 C 902.299 -0.143635 -4.27759 0
M  V30 9800 C 901.625 0.833046 -5.28171 0
M  V30 9801 C 902.925 -1.34054 -5.04804 0
M  V30 9802 H 904.619 -1.03385 -2.80984 0
M  V30 9803 H 902.165 -0.498593 -1.35093 0
M  V30 9804 H 904.118 1.04433 -4.08254 0
M  V30 9805 H 902.842 1.47165 -2.91565 0
M  V30 9806 H 901.501 -0.539015 -3.62616 0
M  V30 9807 H 901.149 1.67001 -4.74468 0
M  V30 9808 H 900.849 0.319697 -5.8673 0
M  V30 9809 H 902.373 1.24558 -5.97761 0
M  V30 9810 H 903.787 -1.00136 -5.64487 0
M  V30 9811 H 902.184 -1.78812 -5.72841 0
M  V30 9812 H 903.254 -2.12906 -4.35659 0
M  V30 9813 O 904.636 1.45677 -0.697175 0
M  V30 9814 H 905.327 1.92252 -0.236425 0
M  V30 END ATOM
M  V30 BEGIN BOND
M  V30 END BOND
M  V30 END CTAB
M  END
$$$$
