drugbank_target|Q9UKQ2 Disintegrin and metalloproteinase domain-containing protein 28 (DB02046; DB02215; DB02255; DB02996; DB03088; DB03880; DB08733)
 OpenBabel12092120423D

  0  0  0     0  0            999 V3000
M  V30 BEGIN CTAB
M  V30 COUNTS 12050 12184 0 0 0
M  V30 BEGIN ATOM
M  V30 1 H -0.908 1.98254 -0.117106 0
M  V30 2 N 0 1.576 0 0
M  V30 3 C 0.933 2.03868 1.02534 0
M  V30 4 C 1.911 0.928543 1.3348 0
M  V30 5 O 3.095 1.19667 1.45644 0
M  V30 6 C 0.222 2.43627 2.35294 0
M  V30 7 C -0.732 3.65373 2.2001 0
M  V30 8 S 0.101 5.13292 1.52614 0
M  V30 9 C 1.257 5.56322 2.86805 0
M  V30 10 H 1.49 2.90518 0.631377 0
M  V30 11 H -0.977 1.52953 0.210867 0
M  V30 12 H 0.981 2.67203 3.11629 0
M  V30 13 H -0.358 1.57376 2.7183 0
M  V30 14 H -1.165 3.90944 3.18086 0
M  V30 15 H -1.563 3.418 1.51819 0
M  V30 16 H 0.729 5.58782 3.83104 0
M  V30 17 H 1.672 6.56266 2.65933 0
M  V30 18 H 2.08 4.83886 2.90714 0
M  V30 19 N 1.4781 -0.272755 1.55222 0
M  V30 20 C 2.4081 -1.34136 1.91127 0
M  V30 21 C 3.3891 -1.51513 0.773168 0
M  V30 22 O 4.5741 -1.64552 1.03132 0
M  V30 23 C 1.7041 -2.70083 2.1834 0
M  V30 24 C 0.6581 -2.67437 3.34158 0
M  V30 25 C -0.0159 -4.06938 3.46851 0
M  V30 26 C 1.2841 -2.26686 4.70543 0
M  V30 27 H 2.9781 -1.04333 2.80633 0
M  V30 28 H 0.5241 -0.500454 1.35024 0
M  V30 29 H 2.4771 -3.44952 2.42046 0
M  V30 30 H 1.2011 -3.01469 1.25634 0
M  V30 31 H -0.1399 -1.95026 3.1042 0
M  V30 32 H -0.4919 -4.35547 2.51611 0
M  V30 33 H -0.7919 -4.06062 4.2472 0
M  V30 34 H 0.7321 -4.83545 3.72849 0
M  V30 35 H 2.1461 -2.91277 4.93792 0
M  V30 36 H 0.5431 -2.36971 5.5133 0
M  V30 37 H 1.6131 -1.21818 4.69349 0
M  V30 38 N 2.9562 -1.48159 -0.537278 0
M  V30 39 C 3.8882 -1.58218 -1.65831 0
M  V30 40 C 4.9012 -0.466948 -1.5596 0
M  V30 41 O 6.0902 -0.73747 -1.62553 0
M  V30 42 C 3.1902 -1.48906 -3.04434 0
M  V30 43 C 2.3632 -2.75343 -3.3986 0
M  V30 44 C 1.4222 -2.59588 -4.57712 0
M  V30 45 O 0.4482 -3.33457 -4.61297 0
M  V30 46 N 1.6502 -1.68724 -5.55439 0
M  V30 47 H 4.4152 -2.54891 -1.57641 0
M  V30 48 H 1.9762 -1.4479 -0.724386 0
M  V30 49 H 3.9682 -1.36072 -3.81139 0
M  V30 50 H 2.5382 -0.602368 -3.06741 0
M  V30 51 H 1.7582 -3.02795 -2.52406 0
M  V30 52 H 3.0462 -3.5924 -3.60311 0
M  V30 53 H 2.4442 -1.07898 -5.55315 0
M  V30 54 H 1.0012 -1.61832 -6.3139 0
M  V30 55 N 4.4343 0.785586 -1.36625 0
M  V30 56 C 5.6823 1.54057 -1.30808 0
M  V30 57 C 6.0033 1.94683 0.111157 0
M  V30 58 O 5.2733 1.65241 1.05224 0
M  V30 59 H 3.8533 0.571354 -0.481211 0
M  V30 60 H 6.5153 0.935821 -1.70963 0
M  V30 61 H 5.6113 2.44637 -1.93801 0
M  V30 62 N 5.9124 1.20967 1.01018 0
M  V30 63 C 6.8424 0.988272 2.11555 0
M  V30 64 C 7.8234 -0.0849778 1.69888 0
M  V30 65 O 9.0084 0.0738202 1.9406 0
M  V30 66 C 6.1384 0.546528 3.42973 0
M  V30 67 C 5.0924 1.56375 3.9841 0
M  V30 68 C 4.4184 0.97842 5.25672 0
M  V30 69 C 5.7184 2.94922 4.31066 0
M  V30 70 H 7.4124 1.91276 2.30334 0
M  V30 71 H 4.9584 0.921073 1.1069 0
M  V30 72 H 6.9114 0.378839 4.19694 0
M  V30 73 H 5.6354 -0.413598 3.23971 0
M  V30 74 H 4.2944 1.71891 3.23804 0
M  V30 75 H 3.9424 0.0101688 5.02999 0
M  V30 76 H 3.6424 1.65784 5.63728 0
M  V30 77 H 5.1664 0.821939 6.05043 0
M  V30 78 H 6.5804 2.8288 4.9865 0
M  V30 79 H 4.9774 3.5983 4.80253 0
M  V30 80 H 6.0474 3.4616 3.39561 0
M  V30 81 N 7.3905 -1.2043 1.01659 0
M  V30 82 C 8.3205 -2.25466 0.607226 0
M  V30 83 C 9.3015 -1.65853 -0.377716 0
M  V30 84 O 10.4865 -1.92409 -0.263149 0
M  V30 85 C 7.6165 -3.47256 -0.0552949 0
M  V30 86 C 6.5705 -4.19462 0.850632 0
M  V30 87 C 5.8965 -5.34673 0.0538859 0
M  V30 88 C 7.1965 -4.75603 2.15868 0
M  V30 89 H 8.8905 -2.59962 1.48526 0
M  V30 90 H 6.4365 -1.2496 0.715605 0
M  V30 91 H 8.3895 -4.19917 -0.353233 0
M  V30 92 H 7.1135 -3.11924 -0.968045 0
M  V30 93 H 5.7725 -3.48667 1.13257 0
M  V30 94 H 5.4205 -4.95585 -0.860514 0
M  V30 95 H 5.1205 -5.83913 0.657192 0
M  V30 96 H 6.6445 -6.10138 -0.237598 0
M  V30 97 H 8.0585 -5.40083 1.92311 0
M  V30 98 H 6.4555 -5.3528 2.71284 0
M  V30 99 H 7.5255 -3.94346 2.82169 0
M  V30 100 N 8.8686 -0.792821 -1.36206 0
M  V30 101 C 10.2796 -0.429513 -1.81692 0
M  V30 102 C 10.6306 1.04695 -1.65932 0
M  V30 103 O 9.7556 1.81256 -1.18218 0
M  V30 104 C 10.3506 -0.772831 -3.29868 0
M  V30 105 C 8.9096 -0.462307 -3.7355 0
M  V30 106 C 8.0566 -1.00569 -2.5842 0
M  V30 107 H 11.0076 -0.985672 -1.24379 0
M  V30 108 H 11.0286 -0.0651928 -3.80444 0
M  V30 109 H 10.5406 -1.84747 -3.41307 0
M  V30 110 H 8.6416 0.604158 -3.67669 0
M  V30 111 H 8.7546 -0.985299 -4.68859 0
M  V30 112 H 7.1186 -0.428734 -2.51066 0
M  V30 113 H 7.9016 -2.08616 -2.72643 0
M  V30 114 N 10.3467 1.47872 -0.545128 0
M  V30 115 C 11.5927 2.02793 -0.0166104 0
M  V30 116 C 11.9257 1.41987 1.32489 0
M  V30 117 O 11.2007 0.571045 1.85928 0
M  V30 118 C 11.4837 3.59989 0.0893294 0
M  V30 119 C 11.3367 4.3125 -1.27841 0
M  V30 120 C 12.6557 4.32606 0.808724 0
M  V30 121 H 9.7747 0.736962 -0.00751035 0
M  V30 122 H 12.4167 1.76433 -0.705085 0
M  V30 123 H 10.5667 3.82579 0.675681 0
M  V30 124 H 12.2387 4.20035 -1.90704 0
M  V30 125 H 10.4817 3.92076 -1.85632 0
M  V30 126 H 11.1527 5.39736 -1.15713 0
M  V30 127 H 13.6287 4.14936 0.310992 0
M  V30 128 H 12.5047 5.42251 0.851782 0
M  V30 129 H 12.7657 4.00963 1.86229 0
M  V30 130 N 11.8248 0.280983 1.55075 0
M  V30 131 C 13.0498 -0.340154 2.04592 0
M  V30 132 C 13.4748 -1.48246 1.15779 0
M  V30 133 O 12.8328 -1.80614 0.15761 0
M  V30 134 C 12.8808 -0.793104 3.5177 0
M  V30 135 O 11.9848 -1.89981 3.66034 0
M  V30 136 H 11.3258 -0.0694289 0.66036 0
M  V30 137 H 13.8558 0.416993 2.00306 0
M  V30 138 H 13.8658 -1.08729 3.93245 0
M  V30 139 H 12.5408 0.0426163 4.15878 0
M  V30 140 H 11.1178 -1.60771 3.36463 0
M  V30 141 N 13.3029 -1.57598 0.00835791 0
M  V30 142 C 14.2329 -2.1198 -0.979113 0
M  V30 143 C 15.2139 -1.03091 -1.35301 0
M  V30 144 O 16.3989 -1.30818 -1.43528 0
M  V30 145 C 13.5289 -2.62995 -2.26828 0
M  V30 146 C 12.4829 -3.76485 -2.03576 0
M  V30 147 C 11.8089 -4.13846 -3.38579 0
M  V30 148 C 13.1089 -5.0342 -1.39161 0
M  V30 149 H 14.8029 -2.94738 -0.526281 0
M  V30 150 H 12.3489 -1.41783 -0.251704 0
M  V30 151 H 14.3019 -2.99669 -2.96271 0
M  V30 152 H 13.0259 -1.7737 -2.7424 0
M  V30 153 H 11.6849 -3.40217 -1.36557 0
M  V30 154 H 11.3329 -3.25232 -3.83709 0
M  V30 155 H 11.0329 -4.90312 -3.23834 0
M  V30 156 H 12.5569 -4.53086 -4.09323 0
M  V30 157 H 13.9709 -5.37812 -1.98573 0
M  V30 158 H 12.3679 -5.84746 -1.34878 0
M  V30 159 H 13.4379 -4.83548 -0.361868 0
M  V30 160 N 14.781 0.264519 -1.55364 0
M  V30 161 C 15.711 1.33121 -1.91836 0
M  V30 162 C 16.692 1.51101 -0.781192 0
M  V30 163 O 17.877 1.64003 -1.04003 0
M  V30 164 C 15.007 2.68921 -2.19769 0
M  V30 165 C 13.961 2.65661 -3.35571 0
M  V30 166 C 13.287 4.05093 -3.49004 0
M  V30 167 C 14.587 2.24187 -4.71739 0
M  V30 168 H 16.281 1.02844 -2.81182 0
M  V30 169 H 13.827 0.493286 -1.35287 0
M  V30 170 H 15.78 3.43663 -2.43872 0
M  V30 171 H 14.504 3.00799 -1.27231 0
M  V30 172 H 13.163 1.93377 -3.1145 0
M  V30 173 H 12.811 4.34206 -2.53917 0
M  V30 174 H 12.511 4.03804 -4.26868 0
M  V30 175 H 14.035 4.81561 -3.75408 0
M  V30 176 H 15.449 2.88654 -4.9533 0
M  V30 177 H 13.846 2.34044 -5.52579 0
M  V30 178 H 14.916 1.19327 -4.69988 0
M  V30 179 N 16.2591 1.48442 0.529413 0
M  V30 180 C 17.1891 1.65902 1.64313 0
M  V30 181 C 18.1701 0.507897 1.6234 0
M  V30 182 O 19.3551 0.740503 1.79528 0
M  V30 183 C 16.4851 1.69911 3.02898 0
M  V30 184 C 15.4391 2.8453 3.19729 0
M  V30 185 C 14.7651 2.73629 4.59381 0
M  V30 186 C 16.0651 4.25821 3.02447 0
M  V30 187 H 17.7591 2.5914 1.49955 0
M  V30 188 H 15.3051 1.24709 0.719982 0
M  V30 189 H 17.2581 1.80715 3.80684 0
M  V30 190 H 15.9821 0.732524 3.18279 0
M  V30 191 H 14.6411 2.73283 2.44361 0
M  V30 192 H 14.2891 1.74938 4.71599 0
M  V30 193 H 13.9891 3.50541 4.71588 0
M  V30 194 H 15.5131 2.86401 5.39265 0
M  V30 195 H 16.9271 4.37898 3.70024 0
M  V30 196 H 15.3241 5.03735 3.26146 0
M  V30 197 H 16.3941 4.42244 1.98867 0
M  V30 198 N 17.7372 -0.778329 1.37039 0
M  V30 199 C 18.9622 -1.57248 1.35233 0
M  V30 200 C 19.3872 -1.87999 -0.0615568 0
M  V30 201 O 18.7452 -1.48734 -1.03672 0
M  V30 202 C 18.7932 -2.86353 2.19167 0
M  V30 203 O 17.8972 -3.80442 1.59178 0
M  V30 204 H 17.2382 -0.476569 0.462362 0
M  V30 205 H 19.7682 -0.963853 1.80474 0
M  V30 206 H 19.7782 -3.35519 2.32145 0
M  V30 207 H 18.4532 -2.63299 3.21942 0
M  V30 208 H 17.0302 -3.39067 1.55203 0
M  V30 209 N 19.2153 -1.21501 -1.00376 0
M  V30 210 C 20.4613 -1.03452 -1.74429 0
M  V30 211 C 20.7943 0.430764 -1.89362 0
M  V30 212 O 20.0693 1.31962 -1.42886 0
M  V30 213 C 20.3523 -1.73375 -3.15615 0
M  V30 214 C 20.2053 -3.27431 -3.08397 0
M  V30 215 C 21.5243 -1.47732 -4.14564 0
M  V30 216 H 18.6433 -0.377226 -0.633143 0
M  V30 217 H 21.2853 -1.49693 -1.17013 0
M  V30 218 H 19.4353 -1.34064 -3.64636 0
M  V30 219 H 21.1073 -3.76119 -2.67081 0
M  V30 220 H 19.3503 -3.5767 -2.45468 0
M  V30 221 H 20.0213 -3.71524 -4.08258 0
M  V30 222 H 22.4973 -1.8186 -3.74254 0
M  V30 223 H 21.3733 -1.99169 -5.11491 0
M  V30 224 H 21.6343 -0.407589 -4.40217 0
M  V30 225 N 20.6934 1.19889 -1.02296 0
M  V30 226 C 21.6564 2.21116 -0.603351 0
M  V30 227 C 22.6564 1.5738 0.329884 0
M  V30 228 O 23.8464 1.73802 0.117702 0
M  V30 229 C 20.9784 3.40696 0.117992 0
M  V30 230 H 22.1714 2.59754 -1.49893 0
M  V30 231 H 19.7244 1.33463 -0.813468 0
M  V30 232 H 20.4594 3.07569 1.0282 0
M  V30 233 H 20.2444 3.88188 -0.552511 0
M  V30 234 H 21.7344 4.15692 0.398696 0
M  V30 235 N 22.1715 0.800033 1.35784 0
M  V30 236 C 23.4175 0.377901 1.99248 0
M  V30 237 C 23.7505 -1.05052 1.63333 0
M  V30 238 O 23.0255 -1.72768 0.893385 0
M  V30 239 C 23.3085 0.553922 3.55814 0
M  V30 240 C 23.1615 2.0268 4.01548 0
M  V30 241 C 24.4805 -0.0244802 4.40093 0
M  V30 242 H 21.5995 0.138782 0.723815 0
M  V30 243 H 24.2415 1.00835 1.61035 0
M  V30 244 H 22.3915 0.0172398 3.88496 0
M  V30 245 H 24.0635 2.62536 3.79305 0
M  V30 246 H 22.3065 2.5256 3.52698 0
M  V30 247 H 22.9775 2.10087 5.10458 0
M  V30 248 H 25.4535 0.433775 4.13833 0
M  V30 249 H 24.3295 0.128637 5.48749 0
M  V30 250 H 24.5905 -1.11758 4.27741 0
M  V30 251 N 23.6496 -1.47581 0.552962 0
M  V30 252 C 24.8746 -2.07378 0.0300593 0
M  V30 253 C 25.2996 -1.40355 -1.25229 0
M  V30 254 O 24.6576 -0.477099 -1.7491 0
M  V30 255 C 24.7056 -3.60274 -0.153231 0
M  V30 256 O 23.8096 -3.94041 -1.21678 0
M  V30 257 H 23.1506 -0.662158 0.0494182 0
M  V30 258 H 25.6806 -1.89662 0.767434 0
M  V30 259 H 25.6906 -4.0633 -0.368761 0
M  V30 260 H 24.3656 -4.08455 0.783397 0
M  V30 261 H 22.9426 -3.59735 -0.982079 0
M  V30 262 N 25.1277 -0.289203 -1.54924 0
M  V30 263 C 26.0907 0.579144 -2.21762 0
M  V30 264 C 27.0907 1.07047 -1.1999 0
M  V30 265 O 28.2807 0.968384 -1.44803 0
M  V30 266 C 25.4127 1.80055 -2.8947 0
M  V30 267 H 26.6057 -0.00464908 -2.999 0
M  V30 268 H 24.1587 -0.0399306 -1.56249 0
M  V30 269 H 24.8937 2.42449 -2.15381 0
M  V30 270 H 24.6787 1.45602 -3.64064 0
M  V30 271 H 26.1687 2.41773 -3.40493 0
M  V30 272 N 26.6058 1.57591 -0.0167156 0
M  V30 273 C 27.8548 1.90461 0.663877 0
M  V30 274 C 28.1678 0.893515 1.73999 0
M  V30 275 O 29.3738 1.11302 2.47637 0
M  V30 276 C 27.8298 3.38155 1.23204 0
M  V30 277 C 27.4378 4.47597 0.189866 0
M  V30 278 C 29.1818 3.80111 1.88986 0
M  V30 279 C 27.0888 5.86379 0.768964 0
M  V30 280 H 26.0188 0.710738 0.251729 0
M  V30 281 H 28.6698 1.83326 -0.0799926 0
M  V30 282 H 27.0518 3.40182 2.02712 0
M  V30 283 H 28.2258 4.57112 -0.581846 0
M  V30 284 H 26.5408 4.14766 -0.368475 0
M  V30 285 H 29.1378 4.81145 2.33247 0
M  V30 286 H 29.4808 3.14511 2.72743 0
M  V30 287 H 30.0138 3.80454 1.16187 0
M  V30 288 H 26.7528 6.55493 -0.0301957 0
M  V30 289 H 26.2728 5.80496 1.50945 0
M  V30 290 H 27.9518 6.34563 1.26251 0
M  V30 291 N 28.0839 -0.256276 1.55502 0
M  V30 292 C 29.0309 -1.31714 1.89526 0
M  V30 293 C 30.0009 -1.4828 0.748479 0
M  V30 294 O 31.1859 -1.62416 1.00128 0
M  V30 295 C 28.3259 -2.66933 2.18725 0
M  V30 296 C 27.4389 -2.58452 3.4616 0
M  V30 297 C 26.5739 -3.85961 3.64976 0
M  V30 298 C 25.6129 -3.72059 4.86044 0
M  V30 299 N 24.7499 -4.9144 5.01429 0
M  V30 300 H 29.5899 -1.01998 2.80001 0
M  V30 301 H 27.1269 -0.492413 1.38613 0
M  V30 302 H 29.0849 -3.4563 2.33657 0
M  V30 303 H 27.7149 -2.94816 1.31466 0
M  V30 304 H 26.7669 -1.71374 3.3961 0
M  V30 305 H 28.0789 -2.44085 4.34999 0
M  V30 306 H 27.2329 -4.73101 3.79816 0
M  V30 307 H 25.9719 -4.03215 2.74353 0
M  V30 308 H 24.9769 -2.83302 4.7119 0
M  V30 309 H 26.2019 -3.56309 5.78118 0
M  V30 310 H 24.1479 -5.09072 4.13741 0
M  V30 311 H 24.0649 -4.79668 5.84341 0
M  V30 312 H 25.3329 -5.80104 5.20672 0
M  V30 313 N 29.562 -1.4872 -0.521534 0
M  V30 314 C 30.472 -1.66569 -1.65203 0
M  V30 315 C 31.488 -0.548197 -1.65139 0
M  V30 316 O 32.664 -0.820339 -1.83936 0
M  V30 317 C 29.729 -1.70917 -3.01642 0
M  V30 318 C 28.79 -2.94356 -3.12495 0
M  V30 319 C 28.023 -2.98487 -4.42426 0
M  V30 320 O 28.246 -2.10786 -5.30024 0
M  V30 321 O 27.18 -3.90746 -4.57822 0
M  V30 322 H 31.006 -2.62298 -1.5308 0
M  V30 323 H 28.591 -1.3222 -0.695565 0
M  V30 324 H 30.473 -1.7625 -3.82771 0
M  V30 325 H 29.148 -0.783633 -3.14071 0
M  V30 326 H 28.055 -2.94552 -2.3063 0
M  V30 327 H 29.388 -3.86322 -3.04986 0
M  V30 328 N 31.0401 0.771051 -1.3745 0
M  V30 329 C 31.9701 1.89827 -1.3597 0
M  V30 330 C 32.9511 1.68562 -0.228216 0
M  V30 331 O 34.1361 1.8941 -0.428675 0
M  V30 332 C 31.2661 3.2712 -1.16662 0
M  V30 333 C 30.2201 3.6295 -2.2683 0
M  V30 334 C 29.5461 4.98791 -1.92644 0
M  V30 335 C 30.8461 3.69627 -3.69017 0
M  V30 336 H 32.5401 1.91323 -2.30295 0
M  V30 337 H 30.0861 0.919082 -1.10855 0
M  V30 338 H 32.0391 4.05615 -1.14256 0
M  V30 339 H 30.7631 3.26059 -0.187926 0
M  V30 340 H 29.4221 2.86763 -2.28392 0
M  V30 341 H 29.0701 4.94271 -0.933021 0
M  V30 342 H 28.7701 5.23733 -2.66416 0
M  V30 343 H 30.2941 5.79685 -1.91826 0
M  V30 344 H 31.7081 4.38273 -3.69581 0
M  V30 345 H 30.1051 4.06067 -4.41848 0
M  V30 346 H 31.1751 2.70273 -4.02592 0
M  V30 347 N 32.5182 1.22032 0.997298 0
M  V30 348 C 33.9292 1.0397 1.55071 0
M  V30 349 C 34.2802 -0.398192 1.92117 0
M  V30 350 O 33.4052 -1.28254 1.74298 0
M  V30 351 C 34.0002 1.88109 2.81781 0
M  V30 352 C 32.5592 1.74357 3.33581 0
M  V30 353 C 31.7062 1.84846 2.06706 0
M  V30 354 H 34.6572 1.35941 0.818883 0
M  V30 355 H 34.6782 1.39589 3.53971 0
M  V30 356 H 34.1902 2.92754 2.54787 0
M  V30 357 H 32.2912 0.72427 3.65493 0
M  V30 358 H 32.4042 2.56772 4.04481 0
M  V30 359 H 30.7682 1.28238 2.20062 0
M  V30 360 H 31.5512 2.91014 1.82114 0
M  V30 361 N 33.9963 -1.19345 1.0293 0
M  V30 362 C 35.2443 -1.88665 0.724574 0
M  V30 363 C 35.5653 -1.80036 -0.749144 0
M  V30 364 O 34.8353 -1.2111 -1.53978 0
M  V30 365 H 33.4153 -0.698406 0.265025 0
M  V30 366 H 36.0773 -1.44885 1.30362 0
M  V30 367 H 35.1733 -2.94987 1.01926 0
M  V30 368 N 35.4744 -0.807222 -1.35358 0
M  V30 369 C 36.7204 -0.388463 -1.99045 0
M  V30 370 C 37.0534 1.04184 -1.63888 0
M  V30 371 O 36.3284 1.72292 -0.902535 0
M  V30 372 C 36.6114 -0.572783 -3.55515 0
M  V30 373 C 36.4644 -2.04807 -4.00468 0
M  V30 374 C 37.7834 0.00114064 -4.401 0
M  V30 375 H 34.9024 -0.142619 -0.723069 0
M  V30 376 H 37.5444 -1.01687 -1.60498 0
M  V30 377 H 35.6944 -0.0378425 -3.88482 0
M  V30 378 H 37.3664 -2.64544 -3.77908 0
M  V30 379 H 35.6094 -2.54427 -3.51353 0
M  V30 380 H 36.2804 -2.12792 -5.09337 0
M  V30 381 H 38.7564 -0.455716 -4.13597 0
M  V30 382 H 37.6324 -0.157737 -5.48673 0
M  V30 383 H 37.8934 1.09488 -4.28328 0
M  V30 384 N 36.9525 1.47285 -0.560781 0
M  V30 385 C 37.8995 2.30058 0.18491 0
M  V30 386 C 38.8695 1.39281 0.904986 0
M  V30 387 O 40.0545 1.68241 0.899979 0
M  V30 388 C 37.1945 3.23317 1.20666 0
M  V30 389 C 36.3075 4.29186 0.492285 0
M  V30 390 C 35.4425 5.09592 1.49964 0
M  V30 391 C 34.4815 6.07232 0.770439 0
M  V30 392 N 33.6185 6.80584 1.72479 0
M  V30 393 H 38.4585 2.93302 -0.527048 0
M  V30 394 H 35.9955 1.44568 -0.271738 0
M  V30 395 H 37.9535 3.75811 1.81168 0
M  V30 396 H 36.5835 2.61929 1.88661 0
M  V30 397 H 35.6355 3.7972 -0.227333 0
M  V30 398 H 36.9475 4.98738 -0.0787929 0
M  V30 399 H 36.1015 5.66254 2.17809 0
M  V30 400 H 34.8405 4.3995 2.10464 0
M  V30 401 H 33.8455 5.49745 0.0780846 0
M  V30 402 H 35.0705 6.78884 0.171134 0
M  V30 403 H 33.0165 6.1367 2.3183 0
M  V30 404 H 32.9335 7.46319 1.20596 0
M  V30 405 H 34.2015 7.41818 2.39428 0
M  V30 406 N 38.4306 0.297415 1.54768 0
M  V30 407 C 39.3776 -0.580276 2.23386 0
M  V30 408 C 40.3476 -1.13238 1.21517 0
M  V30 409 O 41.5326 -1.17757 1.50126 0
M  V30 410 C 38.6726 -1.74801 2.97555 0
M  V30 411 C 37.7856 -1.22764 4.1419 0
M  V30 412 C 36.9206 -2.35895 4.75949 0
M  V30 413 C 35.9596 -1.80974 5.84735 0
M  V30 414 N 35.0966 -2.87664 6.40464 0
M  V30 415 H 39.9366 0.0114833 2.97998 0
M  V30 416 H 37.4736 0.0174361 1.4709 0
M  V30 417 H 39.4316 -2.43475 3.38786 0
M  V30 418 H 38.0616 -2.31145 2.25326 0
M  V30 419 H 37.1136 -0.433271 3.77924 0
M  V30 420 H 38.4256 -0.785551 4.92575 0
M  V30 421 H 37.5796 -3.12523 5.20014 0
M  V30 422 H 36.3186 -2.83429 3.96887 0
M  V30 423 H 35.3236 -1.02834 5.40097 0
M  V30 424 H 36.5486 -1.34348 6.65678 0
M  V30 425 H 34.4946 -3.34538 5.64287 0
M  V30 426 H 34.4116 -2.4794 7.14186 0
M  V30 427 H 35.6796 -3.642 6.89187 0
M  V30 428 N 39.9087 -1.5758 0.0250728 0
M  V30 429 C 41.1387 -1.95646 -0.663783 0
M  V30 430 C 41.5467 -0.899935 -1.66427 0
M  V30 431 O 40.8897 0.127191 -1.83259 0
M  V30 432 C 40.9517 -3.29835 -1.43 0
M  V30 433 C 40.6157 -4.53197 -0.588305 0
M  V30 434 C 41.6127 -5.19726 0.13469 0
M  V30 435 C 39.2977 -4.99529 -0.526897 0
M  V30 436 C 41.2917 -6.30902 0.90781 0
M  V30 437 C 38.9787 -6.10589 0.24993 0
M  V30 438 C 39.9767 -6.76134 0.965994 0
M  V30 439 O 39.6647 -7.85062 1.7301 0
M  V30 440 H 39.3967 -0.649282 -0.188174 0
M  V30 441 H 41.9507 -2.05245 0.0799006 0
M  V30 442 H 40.1807 -3.16716 -2.21873 0
M  V30 443 H 41.8697 -3.52833 -2.00658 0
M  V30 444 H 42.6357 -4.84904 0.0965562 0
M  V30 445 H 38.5147 -4.48319 -1.07381 0
M  V30 446 H 42.0587 -6.81995 1.46724 0
M  V30 447 H 37.9557 -6.44849 0.289795 0
M  V30 448 H 38.7237 -8.01708 1.64944 0
M  V30 449 N 41.3868 0.248026 -1.55636 0
M  V30 450 C 42.2968 1.32859 -1.93354 0
M  V30 451 C 43.3128 1.52719 -0.833838 0
M  V30 452 O 44.4888 1.66363 -1.13513 0
M  V30 453 C 41.5538 2.66337 -2.21958 0
M  V30 454 C 40.6148 2.55008 -3.45354 0
M  V30 455 C 39.8478 3.82121 -3.72584 0
M  V30 456 O 40.0708 4.83951 -3.01907 0
M  V30 457 O 39.0048 3.80822 -4.6611 0
M  V30 458 H 42.8308 1.03862 -2.85388 0
M  V30 459 H 40.4158 0.448686 -1.42503 0
M  V30 460 H 42.2978 3.45216 -2.4167 0
M  V30 461 H 40.9728 2.95068 -1.33103 0
M  V30 462 H 39.8798 1.7442 -3.30951 0
M  V30 463 H 41.2128 2.31222 -4.34508 0
M  V30 464 N 42.8649 1.48995 0.513639 0
M  V30 465 C 44.1109 1.58076 1.27042 0
M  V30 466 C 44.4439 0.261026 1.92438 0
M  V30 467 O 43.7189 -0.734393 1.80103 0
M  V30 468 C 44.0019 2.73091 2.34719 0
M  V30 469 C 43.8549 4.14821 1.73907 0
M  V30 470 C 45.1739 2.83796 3.36375 0
M  V30 471 H 42.2929 0.575391 0.460536 0
M  V30 472 H 44.9349 1.81232 0.570516 0
M  V30 473 H 43.0849 2.53479 2.94416 0
M  V30 474 H 44.7569 4.45917 1.18135 0
M  V30 475 H 42.9999 4.21058 1.0437 0
M  V30 476 H 43.6709 4.91147 2.51949 0
M  V30 477 H 46.1469 3.01611 2.86653 0
M  V30 478 H 45.0229 3.65971 4.09093 0
M  V30 479 H 45.2839 1.92624 3.9793 0
M  V30 480 N 44.343 -0.763751 1.37857 0
M  V30 481 C 45.589 -1.52483 1.33704 0
M  V30 482 C 45.922 -1.94051 -0.0759612 0
M  V30 483 O 45.197 -1.64675 -1.03501 0
M  V30 484 C 45.48 -2.78441 2.28348 0
M  V30 485 C 45.333 -2.43075 3.78463 0
M  V30 486 C 46.652 -3.80415 2.21298 0
M  V30 487 H 43.771 -0.553169 0.487005 0
M  V30 488 H 46.413 -0.875562 1.68624 0
M  V30 489 H 44.563 -3.33842 1.987 0
M  V30 490 H 46.235 -1.93527 4.18742 0
M  V30 491 H 44.478 -1.75666 3.96641 0
M  V30 492 H 45.149 -3.33149 4.40132 0
M  V30 493 H 47.625 -3.34527 2.47449 0
M  V30 494 H 46.501 -4.66257 2.89647 0
M  V30 495 H 46.762 -4.25262 1.20849 0
M  V30 496 N 45.8211 -1.22559 -0.990812 0
M  V30 497 C 47.0511 -1.07623 -1.76355 0
M  V30 498 C 47.4591 0.37601 -1.85426 0
M  V30 499 O 46.8021 1.27228 -1.32509 0
M  V30 500 C 46.8641 -1.61507 -3.21179 0
M  V30 501 C 46.5281 -3.10146 -3.35646 0
M  V30 502 C 47.5251 -4.07553 -3.22796 0
M  V30 503 C 45.2101 -3.49644 -3.60631 0
M  V30 504 C 47.2041 -5.42442 -3.34716 0
M  V30 505 C 44.8911 -4.84682 -3.72192 0
M  V30 506 C 45.8891 -5.8089 -3.59243 0
M  V30 507 O 45.5771 -7.13476 -3.70415 0
M  V30 508 H 45.3091 -0.377745 -0.560611 0
M  V30 509 H 47.8631 -1.62658 -1.25425 0
M  V30 510 H 46.0931 -1.00881 -3.73309 0
M  V30 511 H 47.7821 -1.42202 -3.80175 0
M  V30 512 H 48.5481 -3.78381 -3.03403 0
M  V30 513 H 44.4271 -2.75282 -3.69785 0
M  V30 514 H 47.9711 -6.17518 -3.24526 0
M  V30 515 H 43.8681 -5.13534 -3.91092 0
M  V30 516 H 44.6361 -7.21083 -3.87275 0
M  V30 517 N 47.2992 1.18797 -1.03562 0
M  V30 518 C 48.7102 1.70322 -0.764676 0
M  V30 519 C 49.0612 1.82708 0.714996 0
M  V30 520 O 48.1862 1.50299 1.55689 0
M  V30 521 C 48.7812 3.09356 -1.38145 0
M  V30 522 C 47.3402 3.58114 -1.15895 0
M  V30 523 C 46.4872 2.34798 -1.4753 0
M  V30 524 H 49.4382 1.03543 -1.20268 0
M  V30 525 H 49.4592 3.72378 -0.781977 0
M  V30 526 H 48.9712 3.00309 -2.45837 0
M  V30 527 H 47.0722 3.72464 -0.100544 0
M  V30 528 H 47.1852 4.4184 -1.8524 0
M  V30 529 H 45.5492 2.38464 -0.894829 0
M  V30 530 H 46.3322 2.28375 -2.56319 0
M  V30 531 N 48.7773 0.814389 1.34928 0
M  V30 532 C 50.0263 0.394871 1.97797 0
M  V30 533 C 50.3393 -1.04555 1.65311 0
M  V30 534 O 51.5453 -1.56856 2.21604 0
M  V30 535 C 50.0013 0.655103 3.53888 0
M  V30 536 C 49.6093 2.10858 3.95276 0
M  V30 537 C 51.3533 0.301329 4.23429 0
M  V30 538 C 49.2603 2.31415 5.44244 0
M  V30 539 H 48.1903 0.143913 0.740139 0
M  V30 540 H 50.8413 0.999544 1.53888 0
M  V30 541 H 49.2233 -0.0196253 3.95995 0
M  V30 542 H 50.3973 2.82176 3.64298 0
M  V30 543 H 48.7123 2.42297 3.38646 0
M  V30 544 H 51.3093 0.432869 5.32945 0
M  V30 545 H 51.6523 -0.75331 4.09428 0
M  V30 546 H 52.1853 0.930288 3.86769 0
M  V30 547 H 48.9243 3.35353 5.63222 0
M  V30 548 H 48.4443 1.6463 5.76764 0
M  V30 549 H 50.1233 2.13352 6.10811 0
M  V30 550 N 50.2554 -1.46986 0.568584 0
M  V30 551 C 51.6714 -1.57946 0.229189 0
M  V30 552 C 51.8714 -1.56567 -1.26843 0
M  V30 553 O 50.9274 -1.47511 -2.04931 0
M  V30 554 C 52.2404 -2.87963 0.865909 0
M  V30 555 C 53.7884 -3.01568 0.838188 0
M  V30 556 C 54.2634 -4.34301 1.45419 0
M  V30 557 N 55.7544 -4.40965 1.41788 0
M  V30 558 C 56.4894 -5.42256 1.86403 0
M  V30 559 N 55.9854 -6.50297 2.38926 0
M  V30 560 N 57.7784 -5.3337 1.77405 0
M  V30 561 H 49.9294 -1.46126 1.54146 0
M  V30 562 H 52.1924 -0.696156 0.643484 0
M  V30 563 H 51.8984 -2.94742 1.91886 0
M  V30 564 H 51.7724 -3.75423 0.365687 0
M  V30 565 H 54.1594 -2.94379 -0.206106 0
M  V30 566 H 54.2404 -2.1562 1.37629 0
M  V30 567 H 53.8844 -4.42247 2.49761 0
M  V30 568 H 53.8144 -5.19 0.891435 0
M  V30 569 H 56.3054 -3.63484 1.03381 0
M  V30 570 H 56.6184 -7.23777 2.70863 0
M  V30 571 H 54.9634 -6.51155 2.42944 0
M  V30 572 H 58.1544 -4.47865 1.3614 0
M  V30 573 H 58.3274 -6.12169 2.12492 0
M  V30 574 N 51.7335 -0.305618 -1.54608 0
M  V30 575 C 52.6635 0.561482 -2.26649 0
M  V30 576 C 53.6445 1.13415 -1.26772 0
M  V30 577 O 54.8295 1.16262 -1.55553 0
M  V30 578 C 51.9595 1.73122 -3.01075 0
M  V30 579 C 50.9135 1.2887 -4.08138 0
M  V30 580 C 50.2395 2.54396 -4.70305 0
M  V30 581 C 51.5395 0.416578 -5.20636 0
M  V30 582 H 53.2335 -0.0393902 -2.99374 0
M  V30 583 H 50.7795 -0.020385 -1.43986 0
M  V30 584 H 52.7325 2.34396 -3.50195 0
M  V30 585 H 51.4565 2.3584 -2.25936 0
M  V30 586 H 50.1155 0.698991 -3.59875 0
M  V30 587 H 49.7635 3.15439 -3.918 0
M  V30 588 H 49.4635 2.25486 -5.42614 0
M  V30 589 H 50.9875 3.16464 -5.2219 0
M  V30 590 H 52.4015 0.935116 -5.65622 0
M  V30 591 H 50.7985 0.221046 -5.99693 0
M  V30 592 H 51.8685 -0.557162 -4.81688 0
M  V30 593 N 53.2116 1.57565 -0.0334293 0
M  V30 594 C 54.1616 2.06978 0.956237 0
M  V30 595 C 55.1456 0.971193 1.28283 0
M  V30 596 O 56.3376 1.23471 1.26822 0
M  V30 597 C 53.4666 2.60393 2.23719 0
M  V30 598 C 52.5526 3.7719 1.93877 0
M  V30 599 N 52.9436 4.87639 1.34321 0
M  V30 600 C 51.2416 3.85758 2.23845 0
M  V30 601 C 51.9426 5.68825 1.21709 0
M  V30 602 N 50.9186 5.1587 1.71404 0
M  V30 603 H 54.7206 2.89773 0.490815 0
M  V30 604 H 52.2346 1.61492 0.171478 0
M  V30 605 H 54.2316 2.94088 2.95496 0
M  V30 606 H 52.8916 1.79031 2.70884 0
M  V30 607 H 53.9026 5.07803 1.01767 0
M  V30 608 H 50.5796 3.1531 2.73653 0
M  V30 609 H 51.9696 6.67631 0.75621 0
M  V30 610 N 54.6897 -0.239769 1.55765 0
M  V30 611 C 56.1007 -0.808263 1.68297 0
M  V30 612 C 56.4517 -1.85736 0.632181 0
M  V30 613 O 55.5767 -2.15277 -0.220204 0
M  V30 614 C 56.1717 -1.47284 3.05111 0
M  V30 615 C 54.7307 -1.98895 3.19559 0
M  V30 616 C 53.8777 -0.842575 2.64189 0
M  V30 617 H 56.8287 -0.0154422 1.58692 0
M  V30 618 H 56.8497 -2.34111 2.99954 0
M  V30 619 H 56.3617 -0.709053 3.81568 0
M  V30 620 H 54.4627 -2.78132 2.47938 0
M  V30 621 H 54.5757 -2.18143 4.26556 0
M  V30 622 H 52.9397 -1.24501 2.22197 0
M  V30 623 H 53.7227 -0.0917552 3.43177 0
M  V30 624 N 56.1678 -1.49265 -0.50573 0
M  V30 625 C 57.0978 -1.68495 -1.61653 0
M  V30 626 C 58.0788 -0.53366 -1.61512 0
M  V30 627 O 59.2638 -0.76897 -1.78327 0
M  V30 628 C 56.3938 -1.74709 -3.00157 0
M  V30 629 C 55.3478 -2.89581 -3.15162 0
M  V30 630 C 54.6738 -2.80903 -4.5497 0
M  V30 631 C 55.9738 -4.30578 -2.95634 0
M  V30 632 H 57.6678 -2.61493 -1.45814 0
M  V30 633 H 55.2138 -1.25838 -0.70005 0
M  V30 634 H 57.1668 -1.86748 -3.77761 0
M  V30 635 H 55.8908 -0.783067 -3.17074 0
M  V30 636 H 54.5498 -2.77136 -2.39982 0
M  V30 637 H 54.1978 -1.82419 -4.68756 0
M  V30 638 H 53.8978 -3.57999 -4.65951 0
M  V30 639 H 55.4218 -2.94944 -5.34641 0
M  V30 640 H 56.8358 -4.4373 -3.63011 0
M  V30 641 H 55.2328 -5.0886 -3.18091 0
M  V30 642 H 56.3028 -4.45352 -1.91806 0
M  V30 643 N 57.6459 0.756429 -1.3826 0
M  V30 644 C 58.5959 1.86069 -1.31766 0
M  V30 645 C 59.5799 1.59621 -0.202483 0
M  V30 646 O 60.7719 1.7149 -0.438211 0
M  V30 647 C 57.9009 3.23742 -1.1422 0
M  V30 648 C 56.9869 3.56091 -2.30348 0
M  V30 649 N 57.3779 3.59517 -3.55783 0
M  V30 650 C 55.6759 3.86341 -2.22838 0
M  V30 651 C 56.3769 3.89052 -4.32451 0
M  V30 652 N 55.3529 4.05736 -3.61772 0
M  V30 653 H 59.1549 1.86992 -2.26741 0
M  V30 654 H 56.6689 0.953643 -1.31451 0
M  V30 655 H 58.6659 4.02761 -1.07652 0
M  V30 656 H 57.3259 3.24073 -0.201763 0
M  V30 657 H 58.3369 3.41347 -3.89491 0
M  V30 658 H 55.0139 3.94404 -1.36937 0
M  V30 659 H 56.4039 3.98349 -5.4108 0
M  V30 660 N 59.124 1.23083 0.984299 0
M  V30 661 C 60.071 1.00854 2.07598 0
M  V30 662 C 61.041 -0.0726709 1.65941 0
M  V30 663 O 62.226 0.0786535 1.90638 0
M  V30 664 C 59.366 0.601645 3.39815 0
M  V30 665 C 58.479 1.75456 3.94765 0
M  V30 666 C 57.614 1.29482 5.15177 0
M  V30 667 C 56.653 2.41873 5.62284 0
M  V30 668 N 55.79 1.96885 6.73929 0
M  V30 669 H 60.63 1.943 2.25946 0
M  V30 670 H 58.167 0.968001 1.10762 0
M  V30 671 H 60.125 0.346854 4.15756 0
M  V30 672 H 58.755 -0.295803 3.21442 0
M  V30 673 H 57.807 2.12346 3.15616 0
M  V30 674 H 59.119 2.59965 4.25699 0
M  V30 675 H 58.273 0.997923 5.98437 0
M  V30 676 H 57.012 0.420046 4.85888 0
M  V30 677 H 56.017 2.72342 4.77608 0
M  V30 678 H 57.242 3.29881 5.93595 0
M  V30 679 H 55.188 1.11782 6.46406 0
M  V30 680 H 55.105 2.74956 7.04227 0
M  V30 681 H 56.373 1.70289 7.60672 0
M  V30 682 N 60.6021 -1.18246 1.0419 0
M  V30 683 C 62.0181 -1.40269 0.761366 0
M  V30 684 C 62.2181 -1.90777 -0.648578 0
M  V30 685 O 61.2741 -2.0929 -1.41258 0
M  V30 686 C 62.5871 -2.40237 1.8085 0
M  V30 687 C 64.1351 -2.53961 1.82955 0
M  V30 688 C 64.6101 -3.57194 2.86664 0
M  V30 689 N 66.1011 -3.64702 2.85563 0
M  V30 690 C 66.8361 -4.44309 3.6246 0
M  V30 691 N 66.3321 -5.27514 4.49111 0
M  V30 692 N 68.1251 -4.39084 3.50944 0
M  V30 693 H 60.2761 -0.837882 1.95175 0
M  V30 694 H 62.5391 -0.430608 0.84456 0
M  V30 695 H 62.2451 -2.10176 2.81991 0
M  V30 696 H 62.1191 -3.39601 1.64168 0
M  V30 697 H 64.5061 -2.83338 0.824855 0
M  V30 698 H 64.5871 -1.54706 2.03715 0
M  V30 699 H 64.2311 -3.28558 3.87314 0
M  V30 700 H 64.1611 -4.5613 2.6316 0
M  V30 701 H 66.6521 -3.05289 2.22727 0
M  V30 702 H 66.9651 -5.85411 5.04493 0
M  V30 703 H 65.3101 -5.2693 4.53178 0
M  V30 704 H 68.5011 -3.7313 2.82651 0
M  V30 705 H 68.6741 -5.00883 4.11121 0
M  V30 706 N 62.0802 -0.821533 -1.34494 0
M  V30 707 C 62.9902 -0.244355 -2.33324 0
M  V30 708 C 64.0062 0.620527 -1.62559 0
M  V30 709 O 65.1822 0.528754 -1.94335 0
M  V30 710 C 62.2472 0.585368 -3.41723 0
M  V30 711 C 61.3082 -0.301752 -4.28238 0
M  V30 712 C 60.5412 0.488466 -5.3146 0
M  V30 713 O 60.7642 1.72186 -5.4379 0
M  V30 714 O 59.6982 -0.12848 -6.01763 0
M  V30 715 H 63.5242 -1.06231 -2.84515 0
M  V30 716 H 61.1092 -0.583645 -1.37528 0
M  V30 717 H 62.9912 1.05747 -4.07916 0
M  V30 718 H 61.6662 1.38068 -2.92778 0
M  V30 719 H 60.5732 -0.821315 -3.64973 0
M  V30 720 H 61.9062 -1.06138 -4.8062 0
M  V30 721 N 63.5583 1.46682 -0.576371 0
M  V30 722 C 64.5213 2.28707 0.150239 0
M  V30 723 C 65.5213 1.38035 0.824794 0
M  V30 724 O 66.7113 1.60476 0.677719 0
M  V30 725 C 63.8433 3.18248 1.22192 0
M  V30 726 H 65.0363 2.94423 -0.570521 0
M  V30 727 H 62.5893 1.52688 -0.334078 0
M  V30 728 H 63.3243 2.57265 1.97447 0
M  V30 729 H 63.1093 3.85 0.742812 0
M  V30 730 H 64.5993 3.80001 1.73172 0
M  V30 731 N 65.0364 0.313813 1.54444 0
M  V30 732 C 65.9834 -0.55655 2.23989 0
M  V30 733 C 66.9534 -1.11943 1.22711 0
M  V30 734 O 68.1384 -1.16158 1.51367 0
M  V30 735 C 65.2784 -1.71635 2.99392 0
M  V30 736 C 64.3914 -1.18364 4.15468 0
M  V30 737 C 63.5264 -2.30834 4.78424 0
M  V30 738 C 62.5654 -1.74762 5.86622 0
M  V30 739 N 61.7024 -2.80855 6.43479 0
M  V30 740 H 66.5424 0.0430893 2.97969 0
M  V30 741 H 64.0794 0.0330359 1.47063 0
M  V30 742 H 66.0374 -2.39868 3.41349 0
M  V30 743 H 64.6674 -2.28742 2.27765 0
M  V30 744 H 63.7194 -0.393163 3.78363 0
M  V30 745 H 65.0314 -0.733262 4.93381 0
M  V30 746 H 64.1854 -3.0699 5.23299 0
M  V30 747 H 62.9244 -2.79204 3.99871 0
M  V30 748 H 61.9294 -0.970995 5.41158 0
M  V30 749 H 63.1544 -1.2728 6.67066 0
M  V30 750 H 61.1004 -3.28535 5.67804 0
M  V30 751 H 61.0174 -2.40351 7.16776 0
M  V30 752 H 62.2854 -3.5687 6.93011 0
M  V30 753 N 66.5145 -1.57545 0.0417849 0
M  V30 754 C 67.4245 -2.14451 -0.951213 0
M  V30 755 C 68.4405 -1.09992 -1.34825 0
M  V30 756 O 69.6165 -1.42114 -1.42708 0
M  V30 757 C 66.6815 -2.67063 -2.21084 0
M  V30 758 C 65.7425 -3.86284 -1.87304 0
M  V30 759 C 64.9755 -4.36378 -3.07261 0
M  V30 760 O 65.1985 -3.85587 -4.20332 0
M  V30 761 O 64.1325 -5.28077 -2.88822 0
M  V30 762 H 67.9585 -2.99601 -0.497287 0
M  V30 763 H 65.5435 -1.48317 -0.179567 0
M  V30 764 H 67.4255 -3.00914 -2.95006 0
M  V30 765 H 66.1005 -1.84989 -2.65633 0
M  V30 766 H 65.0075 -3.57338 -1.10727 0
M  V30 767 H 66.3405 -4.6956 -1.47562 0
M  V30 768 N 67.9926 0.231505 -1.5589 0
M  V30 769 C 69.4036 0.799327 -1.68724 0
M  V30 770 C 69.7546 1.85398 -0.642022 0
M  V30 771 O 68.8796 2.1539 0.208784 0
M  V30 772 C 69.4746 1.45664 -3.05888 0
M  V30 773 C 68.0336 1.97197 -3.20609 0
M  V30 774 C 67.1806 0.828552 -2.64632 0
M  V30 775 H 70.1316 0.00702616 -1.58698 0
M  V30 776 H 70.1526 2.32517 -3.01191 0
M  V30 777 H 69.6646 0.688808 -3.81939 0
M  V30 778 H 67.7656 2.76813 -2.4941 0
M  V30 779 H 67.8786 2.15878 -4.27707 0
M  V30 780 H 66.2426 1.23321 -2.22854 0
M  V30 781 H 67.0256 0.0735544 -3.43221 0
M  V30 782 N 69.4707 1.49531 0.497807 0
M  V30 783 C 70.3807 1.69176 1.62532 0
M  V30 784 C 71.3967 0.5744 1.64246 0
M  V30 785 O 72.5727 0.849497 1.82608 0
M  V30 786 C 69.6377 1.75695 2.98885 0
M  V30 787 C 68.6987 2.9929 3.07773 0
M  V30 788 C 67.9317 3.05488 4.37622 0
M  V30 789 O 68.1547 2.19192 5.26603 0
M  V30 790 O 67.0887 3.9798 4.51548 0
M  V30 791 H 70.9147 2.647 1.48887 0
M  V30 792 H 68.4997 1.3331 0.674441 0
M  V30 793 H 70.3817 1.82317 3.79919 0
M  V30 794 H 69.0567 0.8335 3.12785 0
M  V30 795 H 67.9637 2.98183 2.25915 0
M  V30 796 H 69.2967 3.91125 2.98801 0
M  V30 797 N 70.9488 -0.749086 1.3866 0
M  V30 798 C 71.8808 -1.87273 1.32142 0
M  V30 799 C 72.8938 -1.61127 0.232787 0
M  V30 800 O 74.0828 -1.71623 0.49069 0
M  V30 801 C 71.1828 -3.23005 1.02571 0
M  V30 802 C 70.3558 -3.7662 2.22433 0
M  V30 803 C 69.4148 -4.90879 1.89537 0
M  V30 804 O 68.4408 -5.05276 2.62078 0
M  V30 805 N 69.6428 -5.74198 0.853031 0
M  V30 806 H 72.4078 -1.93373 2.28969 0
M  V30 807 H 69.9688 -0.929216 1.32579 0
M  V30 808 H 71.9608 -3.96992 0.786085 0
M  V30 809 H 70.5308 -3.12262 0.145249 0
M  V30 810 H 69.7508 -2.94147 2.62434 0
M  V30 811 H 71.0388 -4.09173 3.02415 0
M  V30 812 H 70.4368 -5.6514 0.25155 0
M  V30 813 H 68.9938 -6.48313 0.67329 0
M  V30 814 N 72.4269 -1.23603 -0.977757 0
M  V30 815 C 73.3589 -0.977369 -2.07317 0
M  V30 816 C 74.3719 0.0495845 -1.62724 0
M  V30 817 O 75.5609 -0.186261 -1.77526 0
M  V30 818 C 72.6609 -0.451216 -3.35883 0
M  V30 819 C 71.8339 -1.53896 -4.09432 0
M  V30 820 C 70.8929 -1.01721 -5.16274 0
M  V30 821 O 69.9189 -1.70676 -5.43009 0
M  V30 822 N 71.1209 0.153594 -5.80297 0
M  V30 823 H 73.8859 -1.92047 -2.30082 0
M  V30 824 H 71.4469 -1.14497 -1.14465 0
M  V30 825 H 73.4389 -0.0871574 -4.04606 0
M  V30 826 H 72.0089 0.397368 -3.10064 0
M  V30 827 H 71.2289 -2.07566 -3.35127 0
M  V30 828 H 72.5169 -2.27037 -4.55337 0
M  V30 829 H 71.9149 0.730323 -5.60966 0
M  V30 830 H 70.4719 0.458892 -6.50183 0
M  V30 831 N 73.905 1.17692 -1.04816 0
M  V30 832 C 74.815 2.25229 -0.65643 0
M  V30 833 C 75.831 1.71018 0.320761 0
M  V30 834 O 77.007 2.00649 0.173805 0
M  V30 835 C 74.072 3.46684 -0.0332629 0
M  V30 836 C 73.133 4.15997 -1.06042 0
M  V30 837 C 72.366 5.31654 -0.466893 0
M  V30 838 O 72.589 5.65777 0.724758 0
M  V30 839 O 71.523 5.89831 -1.1993 0
M  V30 840 H 75.349 2.61016 -1.55255 0
M  V30 841 H 72.934 1.24919 -0.81949 0
M  V30 842 H 74.816 4.20234 0.313256 0
M  V30 843 H 73.491 3.12703 0.836566 0
M  V30 844 H 72.398 3.44482 -1.45886 0
M  V30 845 H 73.731 4.53996 -1.90127 0
M  V30 846 N 75.3831 0.828654 1.34056 0
M  V30 847 C 76.3151 0.212052 2.28217 0
M  V30 848 C 77.3281 -0.601362 1.51286 0
M  V30 849 O 78.5171 -0.430104 1.73241 0
M  V30 850 C 75.6171 -0.72088 3.31144 0
M  V30 851 C 74.7901 0.0509587 4.3737 0
M  V30 852 C 73.8491 -0.803766 5.20025 0
M  V30 853 O 72.8751 -0.246667 5.68665 0
M  V30 854 N 74.0771 -2.1227 5.40298 0
M  V30 855 H 76.8421 1.02105 2.81771 0
M  V30 856 H 74.4031 0.686153 1.46641 0
M  V30 857 H 76.3951 -1.29742 3.8334 0
M  V30 858 H 74.9651 -1.43061 2.77943 0
M  V30 859 H 74.1851 0.808831 3.85813 0
M  V30 860 H 75.4731 0.582065 5.0546 0
M  V30 861 H 74.8711 -2.59898 5.02464 0
M  V30 862 H 73.4281 -2.64796 5.95589 0
M  V30 863 N 76.8612 -1.46375 0.584142 0
M  V30 864 C 78.1082 -2.02378 0.0702675 0
M  V30 865 C 78.4362 -1.45545 -1.29023 0
M  V30 866 O 77.6912 -0.610967 -1.85918 0
M  V30 867 C 77.9902 -3.57373 -0.0439342 0
M  V30 868 C 77.6562 -4.33252 1.24915 0
M  V30 869 C 76.3182 -4.53701 1.60341 0
M  V30 870 C 78.6702 -4.7681 2.1048 0
M  V30 871 C 75.9982 -5.1496 2.81128 0
M  V30 872 C 78.3502 -5.39404 3.30494 0
M  V30 873 C 77.0142 -5.5808 3.66201 0
M  V30 874 H 76.2842 -0.740554 0.0257127 0
M  V30 875 H 78.9312 -1.75727 0.761065 0
M  V30 876 H 77.2362 -3.83169 -0.817869 0
M  V30 877 H 78.9332 -3.98384 -0.457318 0
M  V30 878 H 75.5232 -4.17633 0.963364 0
M  V30 879 H 79.7072 -4.60766 1.84414 0
M  V30 880 H 74.9632 -5.27611 3.08928 0
M  V30 881 H 79.1372 -5.72114 3.97063 0
M  V30 882 H 76.7642 -6.05318 4.59885 0
M  V30 883 N 78.3393 -0.321999 -1.54275 0
M  V30 884 C 79.2493 0.553631 -2.27974 0
M  V30 885 C 80.2653 1.13054 -1.32268 0
M  V30 886 O 81.4413 1.15084 -1.6528 0
M  V30 887 C 78.5063 1.69927 -3.02201 0
M  V30 888 C 77.5673 1.15433 -4.1349 0
M  V30 889 C 76.8003 2.24537 -4.84168 0
M  V30 890 O 77.0233 3.44852 -4.5435 0
M  V30 891 O 75.9573 1.90044 -5.7111 0
M  V30 892 H 79.7833 -0.0448345 -3.03667 0
M  V30 893 H 77.3683 -0.0877418 -1.49142 0
M  V30 894 H 79.2503 2.3663 -3.48689 0
M  V30 895 H 77.9253 2.28395 -2.29385 0
M  V30 896 H 76.8323 0.452436 -3.71354 0
M  V30 897 H 78.1653 0.614805 -4.88345 0
M  V30 898 N 79.8174 1.5752 -0.0501392 0
M  V30 899 C 81.0454 1.96963 0.633492 0
M  V30 900 C 81.4604 0.927631 1.6444 0
M  V30 901 O 80.8174 -0.0882665 1.82286 0
M  V30 902 C 80.8684 3.36487 1.32132 0
M  V30 903 O 80.5894 4.36693 0.350894 0
M  V30 904 C 82.0904 3.90682 2.09481 0
M  V30 905 H 79.3104 0.648244 0.173266 0
M  V30 906 H 81.8544 2.0417 -0.116134 0
M  V30 907 H 80.0094 3.30434 2.02218 0
M  V30 908 H 80.4234 5.17702 0.841735 0
M  V30 909 H 81.8974 4.90591 2.5303 0
M  V30 910 H 82.3744 3.26053 2.94255 0
M  V30 911 H 82.9804 4.00069 1.44307 0
M  V30 912 N 81.2955 -0.223234 1.56011 0
M  V30 913 C 82.2055 -1.29766 1.95443 0
M  V30 914 C 83.2215 -1.51373 0.858028 0
M  V30 915 O 84.3975 -1.64536 1.16146 0
M  V30 916 C 81.4625 -2.62772 2.26167 0
M  V30 917 C 80.5235 -2.49482 3.49367 0
M  V30 918 C 79.7565 -3.76145 3.78616 0
M  V30 919 O 79.9795 -4.79087 3.09568 0
M  V30 920 O 78.9135 -3.73358 4.72109 0
M  V30 921 H 82.7395 -0.99309 2.87004 0
M  V30 922 H 80.3245 -0.425958 1.43199 0
M  V30 923 H 82.2065 -3.41327 2.47131 0
M  V30 924 H 80.8815 -2.92913 1.37781 0
M  V30 925 H 79.7885 -1.69133 3.33684 0
M  V30 926 H 81.1215 -2.2428 4.38131 0
M  V30 927 N 82.7736 -1.49793 -0.48987 0
M  V30 928 C 83.7036 -1.70201 -1.59856 0
M  V30 929 C 84.6846 -0.55076 -1.60937 0
M  V30 930 O 85.8696 -0.787841 -1.77501 0
M  V30 931 C 82.9996 -1.77882 -2.98287 0
M  V30 932 C 81.9536 -2.92907 -3.12073 0
M  V30 933 C 81.2796 -2.85712 -4.51965 0
M  V30 934 C 82.5796 -4.3369 -2.91051 0
M  V30 935 H 84.2736 -2.63025 -1.43032 0
M  V30 936 H 81.8196 -1.26574 -0.686664 0
M  V30 937 H 83.7726 -1.90744 -3.75759 0
M  V30 938 H 82.4966 -0.816653 -3.16225 0
M  V30 939 H 81.1556 -2.79665 -2.37029 0
M  V30 940 H 80.8036 -1.8738 -4.66795 0
M  V30 941 H 80.5036 -3.62921 -4.62128 0
M  V30 942 H 82.0276 -3.00598 -5.31482 0
M  V30 943 H 83.4416 -4.47555 -3.58284 0
M  V30 944 H 81.8386 -5.12205 -3.12675 0
M  V30 945 H 82.9086 -4.47362 -1.87071 0
M  V30 946 N 84.2517 0.741722 -1.39055 0
M  V30 947 C 85.1987 1.85566 -1.37237 0
M  V30 948 C 86.1687 1.64457 -0.233072 0
M  V30 949 O 87.3537 1.85957 -0.427147 0
M  V30 950 C 84.4937 3.23004 -1.215 0
M  V30 951 C 83.6067 3.55864 -2.44918 0
M  V30 952 C 82.7417 4.82669 -2.21821 0
M  V30 953 C 81.7807 5.08351 -3.40948 0
M  V30 954 N 80.9177 6.26356 -3.17211 0
M  V30 955 H 85.7577 1.86455 -2.32462 0
M  V30 956 H 83.2947 0.911176 -1.15482 0
M  V30 957 H 85.2527 4.02331 -1.10389 0
M  V30 958 H 83.8827 3.21411 -0.29908 0
M  V30 959 H 82.9347 2.7129 -2.66657 0
M  V30 960 H 84.2467 3.70765 -3.33668 0
M  V30 961 H 83.4007 5.69962 -2.07914 0
M  V30 962 H 82.1397 4.69929 -1.30454 0
M  V30 963 H 81.1447 4.19522 -3.55361 0
M  V30 964 H 82.3697 5.22981 -4.33207 0
M  V30 965 H 80.3157 6.14917 -2.28502 0
M  V30 966 H 80.2327 6.41813 -3.99515 0
M  V30 967 H 81.5007 7.16506 -3.06984 0
M  V30 968 N 85.7298 1.2412 0.971189 0
M  V30 969 C 86.9598 1.10415 1.7462 0
M  V30 970 C 87.3678 -0.346462 1.86001 0
M  V30 971 O 86.7108 -1.25104 1.34517 0
M  V30 972 C 86.7728 1.66596 3.18568 0
M  V30 973 C 86.4368 3.15446 3.3067 0
M  V30 974 C 87.4338 4.12636 3.16271 0
M  V30 975 C 85.1188 3.55337 3.55022 0
M  V30 976 C 87.1128 5.47699 3.26044 0
M  V30 977 C 84.7998 4.90542 3.64434 0
M  V30 978 C 85.7978 5.86532 3.49956 0
M  V30 979 O 85.4858 7.19279 3.59017 0
M  V30 980 H 85.2178 0.386616 0.55453 0
M  V30 981 H 87.7718 1.64633 1.22821 0
M  V30 982 H 86.0018 1.06808 3.71657 0
M  V30 983 H 87.6908 1.48232 3.77865 0
M  V30 984 H 88.4568 3.8316 2.97344 0
M  V30 985 H 84.3358 2.8113 3.65359 0
M  V30 986 H 87.8798 6.22603 3.14661 0
M  V30 987 H 83.7768 5.19691 3.82873 0
M  V30 988 H 84.5448 7.27153 3.75754 0
M  V30 989 N 87.2079 -1.17134 1.05439 0
M  V30 990 C 88.1549 -2.21235 0.657539 0
M  V30 991 C 89.1249 -1.62551 -0.341543 0
M  V30 992 O 90.3099 -1.89379 -0.232393 0
M  V30 993 C 87.4499 -3.45076 0.0410575 0
M  V30 994 C 86.5629 -4.18042 1.08927 0
M  V30 995 C 85.6979 -5.29376 0.439848 0
M  V30 996 C 84.7369 -5.94132 1.4722 0
M  V30 997 N 83.8739 -6.96975 0.846756 0
M  V30 998 H 88.7139 -2.54534 1.54972 0
M  V30 999 H 86.2509 -1.25028 0.775006 0
M  V30 1000 H 88.2089 -4.15862 -0.33383 0
M  V30 1001 H 86.8389 -3.12353 -0.814568 0
M  V30 1002 H 85.8909 -3.45945 1.58196 0
M  V30 1003 H 87.2029 -4.62306 1.87282 0
M  V30 1004 H 86.3569 -6.06699 0.0115125 0
M  V30 1005 H 85.0959 -4.86251 -0.375656 0
M  V30 1006 H 84.1009 -5.15538 1.91052 0
M  V30 1007 H 85.3259 -6.39337 2.28965 0
M  V30 1008 H 83.2719 -6.5598 0.0518075 0
M  V30 1009 H 83.1889 -7.39565 1.5678 0
M  V30 1010 H 84.4569 -7.78239 0.443277 0
M  V30 1011 N 88.686 -0.835752 -1.33615 0
M  V30 1012 C 89.619 -0.211815 -2.27215 0
M  V30 1013 C 90.597 0.639249 -1.49507 0
M  V30 1014 O 91.781 0.600193 -1.78689 0
M  V30 1015 C 88.908 0.702893 -3.31326 0
M  V30 1016 C 87.954 -0.0723049 -4.26439 0
M  V30 1017 S 88.787 -1.42811 -5.16106 0
M  V30 1018 C 89.943 -0.518613 -6.23748 0
M  V30 1019 H 90.176 -1.00533 -2.79786 0
M  V30 1020 H 87.709 -0.632336 -1.40858 0
M  V30 1021 H 89.667 1.22505 -3.91794 0
M  V30 1022 H 88.328 1.47004 -2.77576 0
M  V30 1023 H 87.521 0.62359 -5.00127 0
M  V30 1024 H 87.123 -0.525424 -3.70291 0
M  V30 1025 H 89.415 0.284778 -6.76901 0
M  V30 1026 H 90.358 -1.22556 -6.97413 0
M  V30 1027 H 90.766 -0.101344 -5.64409 0
M  V30 1028 N 90.1641 1.46063 -0.591896 0
M  V30 1029 C 91.3921 2.06717 -0.0868936 0
M  V30 1030 C 91.8071 1.43916 1.22203 0
M  V30 1031 O 91.1641 0.547698 1.74088 0
M  V30 1032 C 91.2151 3.6142 0.0758725 0
M  V30 1033 O 90.9361 4.21874 -1.18126 0
M  V30 1034 C 92.4371 4.39025 0.61416 0
M  V30 1035 H 89.6571 0.668162 -0.0616518 0
M  V30 1036 H 92.2011 1.8755 -0.815175 0
M  V30 1037 H 90.3561 3.79983 0.754413 0
M  V30 1038 H 90.7701 5.14861 -1.00092 0
M  V30 1039 H 92.2441 5.4783 0.677193 0
M  V30 1040 H 92.7211 4.07708 1.63312 0
M  V30 1041 H 93.3271 4.2529 -0.0298142 0
M  V30 1042 N 91.6422 0.330177 1.54103 0
M  V30 1043 C 92.8912 -0.271336 1.99867 0
M  V30 1044 C 93.2042 -1.52723 1.22209 0
M  V30 1045 O 94.4102 -2.20515 1.58383 0
M  V30 1046 C 92.8662 -0.534032 3.55916 0
M  V30 1047 C 92.4742 0.705193 4.42415 0
M  V30 1048 C 94.2182 -1.09514 4.1013 0
M  V30 1049 C 92.1252 0.414035 5.89949 0
M  V30 1050 H 91.0552 -0.105166 0.74663 0
M  V30 1051 H 93.7062 0.443429 1.78062 0
M  V30 1052 H 92.0882 -1.30915 3.73734 0
M  V30 1053 H 93.2622 1.4804 4.36372 0
M  V30 1054 H 91.5772 1.18698 3.99124 0
M  V30 1055 H 94.1742 -1.3277 5.17954 0
M  V30 1056 H 94.5172 -2.04656 3.62521 0
M  V30 1057 H 95.0502 -0.381038 3.95971 0
M  V30 1058 H 91.7892 1.33481 6.41766 0
M  V30 1059 H 91.3092 -0.323336 5.98928 0
M  V30 1060 H 92.9882 0.0263105 6.46995 0
M  V30 1061 N 93.1203 -1.57491 0.0584922 0
M  V30 1062 C 94.0683 -2.13148 -0.931168 0
M  V30 1063 C 95.0623 -1.06507 -1.31729 0
M  V30 1064 O 96.2683 -1.24906 -1.29609 0
M  V30 1065 H 92.6433 -0.68137 -0.31818 0
M  V30 1066 H 94.6143 -2.95187 -0.436707 0
M  V30 1067 C 93.3633 -2.69732 -2.19408 0
M  V30 1068 H 92.6863 -3.51454 -1.90578 0
M  V30 1069 H 94.1263 -3.12287 -2.86798 0
M  V30 1070 C 92.5853 -1.63855 -2.94369 0
M  V30 1071 O 93.1153 -1.05565 -3.87581 0
M  V30 1072 N 91.3213 -1.35202 -2.57233 0
M  V30 1073 H 90.8683 -1.82791 -1.81508 0
M  V30 1074 H 90.8263 -0.645922 -3.07693 0
M  V30 1075 N 94.5984 0.214957 -1.56127 0
M  V30 1076 C 95.8464 0.936518 -1.79091 0
M  V30 1077 C 96.1674 1.84606 -0.628148 0
M  V30 1078 O 95.4374 1.92664 0.35462 0
M  V30 1079 H 94.0174 0.3488 -0.660566 0
M  V30 1080 H 96.6794 0.22523 -1.93594 0
M  V30 1081 H 95.7754 1.53943 -2.71492 0
M  V30 1082 N 96.0765 1.50051 0.48192 0
M  V30 1083 C 97.0235 1.68122 1.58125 0
M  V30 1084 C 97.9935 0.522545 1.57666 0
M  V30 1085 O 99.1785 0.751844 1.75362 0
M  V30 1086 C 96.3185 1.77142 2.96167 0
M  V30 1087 C 95.4315 3.0444 3.06497 0
M  V30 1088 C 94.5665 3.04321 4.35387 0
M  V30 1089 C 93.6055 4.26118 4.3942 0
M  V30 1090 N 92.7425 4.238 5.59766 0
M  V30 1091 H 97.5825 2.6198 1.42022 0
M  V30 1092 H 95.1195 1.29877 0.690687 0
M  V30 1093 H 97.0775 1.80352 3.76203 0
M  V30 1094 H 95.7075 0.867329 3.1093 0
M  V30 1095 H 94.7595 3.10752 2.19402 0
M  V30 1096 H 96.0715 3.94426 3.05336 0
M  V30 1097 H 95.2255 3.062 5.23762 0
M  V30 1098 H 93.9645 2.12147 4.39141 0
M  V30 1099 H 92.9695 4.24463 3.49444 0
M  V30 1100 H 94.1945 5.19507 4.37366 0
M  V30 1101 H 92.1405 3.34474 5.64326 0
M  V30 1102 H 92.0575 5.07542 5.60301 0
M  V30 1103 H 93.3255 4.2981 6.50295 0
M  V30 1104 N 97.5546 -0.734337 1.39446 0
M  V30 1105 C 98.8036 -1.48937 1.36017 0
M  V30 1106 C 99.1166 -1.95557 -0.0409005 0
M  V30 1107 O 100.323 -2.70779 -0.19778 0
M  V30 1108 C 98.7786 -2.69125 2.38955 0
M  V30 1109 C 98.3866 -2.29452 3.8478 0
M  V30 1110 C 100.131 -3.46944 2.44603 0
M  V30 1111 C 98.0376 -3.46366 4.79358 0
M  V30 1112 H 96.9676 -0.559296 0.505672 0
M  V30 1113 H 99.6186 -0.800983 1.65095 0
M  V30 1114 H 98.0006 -3.40041 2.02948 0
M  V30 1115 H 99.1746 -1.66077 4.29831 0
M  V30 1116 H 97.4896 -1.64723 3.82433 0
M  V30 1117 H 100.087 -4.33907 3.12456 0
M  V30 1118 H 100.43 -3.89454 1.47076 0
M  V30 1119 H 100.963 -2.83056 2.79507 0
M  V30 1120 H 97.7016 -3.08905 5.78151 0
M  V30 1121 H 97.2216 -4.08719 4.38986 0
M  V30 1122 H 98.9006 -4.12691 4.98292 0
M  V30 1123 N 99.0327 -1.24633 -0.964593 0
M  V30 1124 C 99.9957 -1.0424 -2.04124 0
M  V30 1125 C 100.996 0.00137563 -1.608 0
M  V30 1126 O 102.186 -0.239883 -1.7254 0
M  V30 1127 C 99.3177 -0.580588 -3.3592 0
M  V30 1128 H 100.511 -1.99803 -2.23649 0
M  V30 1129 H 98.0637 -1.06899 -1.14027 0
M  V30 1130 H 98.7987 0.3781 -3.22088 0
M  V30 1131 H 98.5837 -1.33398 -3.6871 0
M  V30 1132 H 100.074 -0.459034 -4.15069 0
M  V30 1133 N 100.511 1.16574 -1.06058 0
M  V30 1134 C 101.757 1.87324 -0.777022 0
M  V30 1135 C 102.09 1.81351 0.694645 0
M  V30 1136 O 101.365 1.22753 1.50871 0
M  V30 1137 C 101.648 3.36991 -1.26922 0
M  V30 1138 C 101.501 3.51667 -2.80447 0
M  V30 1139 C 102.82 4.3131 -0.87521 0
M  V30 1140 H 99.9388 0.680191 -0.28374 0
M  V30 1141 H 102.581 1.37036 -1.3161 0
M  V30 1142 H 100.731 3.79949 -0.81063 0
M  V30 1143 H 102.403 3.17664 -3.34495 0
M  V30 1144 H 100.646 2.93656 -3.19294 0
M  V30 1145 H 101.317 4.56766 -3.0995 0
M  V30 1146 H 103.793 3.9624 -1.27014 0
M  V30 1147 H 102.669 5.34545 -1.2471 0
M  V30 1148 H 102.93 4.41552 0.220071 0
M  V30 1149 N 101.989 0.842826 1.3317 0
M  V30 1150 C 102.919 0.294028 2.31641 0
M  V30 1151 C 103.9 -0.600401 1.59151 0
M  V30 1152 O 105.085 -0.523124 1.87022 0
M  V30 1153 C 102.215 -0.528416 3.43257 0
M  V30 1154 C 101.169 0.27056 4.27144 0
M  V30 1155 C 100.495 -0.675881 5.30411 0
M  V30 1156 C 101.795 1.48981 5.00602 0
M  V30 1157 H 103.489 1.11681 2.77791 0
M  V30 1158 H 101.035 0.538478 1.33553 0
M  V30 1159 H 102.988 -0.922674 4.11175 0
M  V30 1160 H 101.712 -1.38445 2.95805 0
M  V30 1161 H 100.371 0.646427 3.60856 0
M  V30 1162 H 100.019 -1.52842 4.79216 0
M  V30 1163 H 99.7189 -0.145374 5.8742 0
M  V30 1164 H 101.243 -1.06757 6.01195 0
M  V30 1165 H 102.657 1.16849 5.61266 0
M  V30 1166 H 101.054 1.95739 5.6728 0
M  V30 1167 H 102.124 2.25746 4.29147 0
M  V30 1168 N 103.467 -1.45747 0.599634 0
M  V30 1169 C 104.697 -2.06369 0.0977132 0
M  V30 1170 C 105.105 -1.44624 -1.21985 0
M  V30 1171 O 104.448 -0.551831 -1.75216 0
M  V30 1172 C 104.51 -3.59284 -0.124673 0
M  V30 1173 C 104.174 -4.43318 1.10987 0
M  V30 1174 C 105.171 -4.78796 2.02609 0
M  V30 1175 C 102.856 -4.84194 1.33647 0
M  V30 1176 C 104.85 -5.53997 3.15224 0
M  V30 1177 C 102.537 -5.5915 2.46565 0
M  V30 1178 C 103.535 -5.93968 3.37182 0
M  V30 1179 O 103.223 -6.67405 4.48136 0
M  V30 1180 H 102.955 -0.673122 0.0623153 0
M  V30 1181 H 105.509 -1.88104 0.824981 0
M  V30 1182 H 103.739 -3.75919 -0.906745 0
M  V30 1183 H 105.428 -4.01775 -0.577201 0
M  V30 1184 H 106.194 -4.47781 1.86325 0
M  V30 1185 H 102.073 -4.56534 0.64016 0
M  V30 1186 H 105.617 -5.81091 3.85978 0
M  V30 1187 H 101.514 -5.89579 2.62805 0
M  V30 1188 H 102.282 -6.85847 4.46717 0
M  V30 1189 N 104.945 -0.338344 -1.53925 0
M  V30 1190 C 105.875 0.51328 -2.27789 0
M  V30 1191 C 106.856 1.107 -1.29149 0
M  V30 1192 O 108.041 1.12937 -1.57984 0
M  V30 1193 C 105.171 1.66697 -3.04679 0
M  V30 1194 C 104.125 1.20183 -4.1078 0
M  V30 1195 C 103.451 2.44363 -4.75595 0
M  V30 1196 C 104.751 0.30605 -5.21403 0
M  V30 1197 H 106.445 -0.102883 -2.99223 0
M  V30 1198 H 103.991 -0.0509219 -1.4391 0
M  V30 1199 H 105.944 2.26915 -3.55088 0
M  V30 1200 H 104.668 2.30995 -2.30887 0
M  V30 1201 H 103.327 0.622499 -3.61276 0
M  V30 1202 H 102.975 3.07057 -3.98403 0
M  V30 1203 H 102.675 2.13925 -5.47275 0
M  V30 1204 H 104.199 3.05317 -5.28786 0
M  V30 1205 H 105.613 0.814929 -5.67478 0
M  V30 1206 H 104.01 0.0937929 -6.00027 0
M  V30 1207 H 105.08 -0.65921 -4.80398 0
M  V30 1208 N 106.423 1.57458 -0.0668435 0
M  V30 1209 C 107.37 2.12439 0.902122 0
M  V30 1210 C 108.34 1.03565 1.2986 0
M  V30 1211 O 109.525 1.312 1.38532 0
M  V30 1212 C 106.665 2.6865 2.16614 0
M  V30 1213 C 105.778 3.91663 1.82274 0
M  V30 1214 C 104.913 4.36134 3.0325 0
M  V30 1215 C 103.952 5.51808 2.64904 0
M  V30 1216 N 103.089 5.9126 3.78624 0
M  V30 1217 H 107.929 2.94934 0.426382 0
M  V30 1218 H 105.466 1.4575 0.198819 0
M  V30 1219 H 107.424 2.99346 2.90599 0
M  V30 1220 H 106.054 1.88928 2.61737 0
M  V30 1221 H 105.106 3.6746 0.983719 0
M  V30 1222 H 106.418 4.75693 1.50059 0
M  V30 1223 H 105.572 4.68465 3.85519 0
M  V30 1224 H 104.311 3.50948 3.38655 0
M  V30 1225 H 103.316 5.19133 1.81055 0
M  V30 1226 H 104.541 6.38722 2.30675 0
M  V30 1227 H 102.487 5.09024 4.138 0
M  V30 1228 H 102.404 6.70018 3.5016 0
M  V30 1229 H 103.672 6.28212 4.61486 0
M  V30 1230 N 107.901 -0.206675 1.56239 0
M  V30 1231 C 108.848 -1.25617 1.93621 0
M  V30 1232 C 109.818 -1.45824 0.795274 0
M  V30 1233 O 111.003 -1.59148 1.05245 0
M  V30 1234 C 108.143 -2.59839 2.27107 0
M  V30 1235 C 107.256 -2.47308 3.54207 0
M  V30 1236 C 106.391 -3.74155 3.7707 0
M  V30 1237 C 105.43 -3.56407 4.97635 0
M  V30 1238 N 104.567 -4.75238 5.1681 0
M  V30 1239 H 109.407 -0.930383 2.83104 0
M  V30 1240 H 106.944 -0.448065 1.4011 0
M  V30 1241 H 108.902 -3.38021 2.44535 0
M  V30 1242 H 107.532 -2.90485 1.40778 0
M  V30 1243 H 106.584 -1.60483 3.4489 0
M  V30 1244 H 107.896 -2.30122 4.42544 0
M  V30 1245 H 107.05 -4.60778 3.94675 0
M  V30 1246 H 105.789 -3.94282 2.87042 0
M  V30 1247 H 104.794 -2.68168 4.79964 0
M  V30 1248 H 106.019 -3.37736 5.89161 0
M  V30 1249 H 103.965 -4.95651 4.29728 0
M  V30 1250 H 103.882 -4.60835 5.99306 0
M  V30 1251 H 105.15 -5.63246 5.38864 0
M  V30 1252 N 109.379 -1.50304 -0.473955 0
M  V30 1253 C 110.327 -1.69482 -1.59307 0
M  V30 1254 C 111.321 -0.560669 -1.59853 0
M  V30 1255 O 112.527 -0.741087 -1.64036 0
M  V30 1256 H 108.902 -0.534892 -0.528578 0
M  V30 1257 H 110.873 -2.63364 -1.40293 0
M  V30 1258 C 109.622 -1.80354 -2.97267 0
M  V30 1259 H 108.945 -2.67012 -2.97564 0
M  V30 1260 H 110.385 -1.97798 -3.75036 0
M  V30 1261 C 108.844 -0.55448 -3.32306 0
M  V30 1262 O 109.374 0.307661 -4.0052 0
M  V30 1263 N 107.58 -0.409354 -2.87702 0
M  V30 1264 H 107.127 -1.11196 -2.32364 0
M  V30 1265 H 107.085 0.425223 -3.11511 0
M  V30 1266 N 110.857 0.726932 -1.39834 0
M  V30 1267 C 111.804 1.841 -1.39197 0
M  V30 1268 C 112.774 1.642 -0.250502 0
M  V30 1269 O 113.959 1.85494 -0.446846 0
M  V30 1270 C 111.099 3.21697 -1.24919 0
M  V30 1271 C 110.212 3.53247 -2.48678 0
M  V30 1272 C 109.347 4.80289 -2.26928 0
M  V30 1273 C 108.386 5.04707 -3.4632 0
M  V30 1274 N 107.523 6.22956 -3.23836 0
M  V30 1275 H 112.363 1.83979 -2.34427 0
M  V30 1276 H 109.9 0.898876 -1.16442 0
M  V30 1277 H 111.858 4.01137 -1.1465 0
M  V30 1278 H 110.488 3.21076 -0.333153 0
M  V30 1279 H 109.54 2.68447 -2.69519 0
M  V30 1280 H 110.852 3.67205 -3.37582 0
M  V30 1281 H 110.006 5.67725 -2.13947 0
M  V30 1282 H 108.745 4.68519 -1.35431 0
M  V30 1283 H 107.75 4.1573 -3.5979 0
M  V30 1284 H 108.975 5.18357 -4.38729 0
M  V30 1285 H 106.921 6.12459 -2.35011 0
M  V30 1286 H 106.838 6.37539 -4.063 0
M  V30 1287 H 108.106 7.1321 -3.14566 0
M  V30 1288 N 112.336 1.25143 0.95797 0
M  V30 1289 C 113.284 1.05019 2.07542 0
M  V30 1290 C 114.278 -0.0178751 1.69391 0
M  V30 1291 O 115.484 0.137472 1.79474 0
M  V30 1292 H 111.859 0.32265 0.679265 0
M  V30 1293 H 113.83 1.99759 2.21673 0
M  V30 1294 C 112.579 0.682074 3.40944 0
M  V30 1295 H 111.902 1.49573 3.70767 0
M  V30 1296 H 113.342 0.580945 4.20001 0
M  V30 1297 C 111.801 -0.611608 3.31302 0
M  V30 1298 O 112.331 -1.65465 3.66038 0
M  V30 1299 N 110.537 -0.595982 2.84423 0
M  V30 1300 H 110.084 0.253192 2.56353 0
M  V30 1301 H 110.042 -1.46173 2.78354 0
M  V30 1302 N 113.814 -1.1601 1.06675 0
M  V30 1303 C 114.744 -2.22688 0.702307 0
M  V30 1304 C 115.725 -1.67306 -0.307032 0
M  V30 1305 O 116.91 -1.93352 -0.181305 0
M  V30 1306 C 114.04 -3.47178 0.092038 0
M  V30 1307 C 112.994 -4.15477 1.02777 0
M  V30 1308 C 112.32 -5.33963 0.28061 0
M  V30 1309 C 113.62 -4.66019 2.35846 0
M  V30 1310 H 115.314 -2.53429 1.59419 0
M  V30 1311 H 112.86 -1.21813 0.767961 0
M  V30 1312 H 114.813 -4.21037 -0.174814 0
M  V30 1313 H 113.537 -3.15749 -0.834877 0
M  V30 1314 H 112.196 -3.43549 1.27944 0
M  V30 1315 H 111.844 -4.98788 -0.649545 0
M  V30 1316 H 111.544 -5.806 0.904258 0
M  V30 1317 H 113.068 -6.10596 0.021396 0
M  V30 1318 H 114.482 -5.3144 2.15045 0
M  V30 1319 H 112.879 -5.23293 2.93743 0
M  V30 1320 H 113.949 -3.82023 2.98641 0
M  V30 1321 N 115.292 -0.849877 -1.32721 0
M  V30 1322 C 116.222 -0.306308 -2.31482 0
M  V30 1323 C 117.203 0.591952 -1.59468 0
M  V30 1324 O 118.388 0.513199 -1.87296 0
M  V30 1325 C 115.518 0.510204 -3.43532 0
M  V30 1326 C 114.472 -0.293209 -4.26994 0
M  V30 1327 C 113.798 0.647743 -5.30762 0
M  V30 1328 C 115.098 -1.51634 -4.99804 0
M  V30 1329 H 116.792 -1.13153 -2.77195 0
M  V30 1330 H 114.338 -0.545553 -1.33266 0
M  V30 1331 H 116.291 0.900856 -4.11658 0
M  V30 1332 H 115.015 1.36874 -2.96535 0
M  V30 1333 H 113.674 -0.665555 -3.60508 0
M  V30 1334 H 113.322 1.50299 -4.8002 0
M  V30 1335 H 113.022 0.11422 -5.87489 0
M  V30 1336 H 114.546 1.03567 -6.01753 0
M  V30 1337 H 115.96 -1.19824 -5.60638 0
M  V30 1338 H 114.357 -1.98745 -5.66234 0
M  V30 1339 H 115.427 -2.28018 -4.27943 0
M  V30 1340 N 116.77 1.45427 -0.607355 0
M  V30 1341 C 117.733 2.28974 0.101693 0
M  V30 1342 C 118.733 1.39754 0.795329 0
M  V30 1343 O 119.923 1.61878 0.643527 0
M  V30 1344 C 117.055 3.20768 1.15414 0
M  V30 1345 H 118.248 2.93147 -0.632844 0
M  V30 1346 H 115.801 1.51945 -0.366391 0
M  V30 1347 H 116.536 2.61395 1.91945 0
M  V30 1348 H 116.321 3.86489 0.66098 0
M  V30 1349 H 117.811 3.83589 1.65073 0
M  V30 1350 N 118.248 0.346503 1.53744 0
M  V30 1351 C 119.659 -0.136779 1.86198 0
M  V30 1352 C 120.01 -1.49749 1.26766 0
M  V30 1353 O 119.135 -2.08417 0.582355 0
M  V30 1354 C 119.73 -0.254966 3.37839 0
M  V30 1355 C 118.289 -0.682482 3.70161 0
M  V30 1356 C 117.436 0.181981 2.76702 0
M  V30 1357 H 120.387 0.565994 1.48264 0
M  V30 1358 H 120.408 -1.08195 3.64793 0
M  V30 1359 H 119.92 0.735526 3.81066 0
M  V30 1360 H 118.021 -1.68189 3.3248 0
M  V30 1361 H 118.134 -0.470326 4.76786 0
M  V30 1362 H 116.498 -0.34615 2.52337 0
M  V30 1363 H 117.281 1.16966 3.2276 0
M  V30 1364 N 119.726 -1.57421 0.075193 0
M  V30 1365 C 120.974 -1.93236 -0.591974 0
M  V30 1366 C 121.295 -0.956241 -1.69944 0
M  V30 1367 O 120.565 -0.00494792 -1.95899 0
M  V30 1368 H 119.145 -0.713355 -0.22166 0
M  V30 1369 H 121.807 -1.9444 0.133848 0
M  V30 1370 H 120.903 -2.95131 -1.01509 0
M  V30 1371 N 121.204 0.198386 -1.56346 0
M  V30 1372 C 122.434 0.934215 -1.84271 0
M  V30 1373 C 122.842 1.77496 -0.655125 0
M  V30 1374 O 122.185 1.7961 0.385488 0
M  V30 1375 C 122.247 1.88278 -3.06254 0
M  V30 1376 C 121.911 1.22431 -4.40295 0
M  V30 1377 C 122.908 0.602839 -5.16393 0
M  V30 1378 C 120.593 1.22915 -4.87029 0
M  V30 1379 C 122.587 -0.0050083 -6.374 0
M  V30 1380 C 120.274 0.617465 -6.07973 0
M  V30 1381 C 121.272 0.00146341 -6.83 0
M  V30 1382 O 120.96 -0.600642 -8.01653 0
M  V30 1383 H 120.692 0.278245 -0.616081 0
M  V30 1384 H 123.246 0.211626 -2.04307 0
M  V30 1385 H 121.476 2.64498 -2.82095 0
M  V30 1386 H 123.165 2.48612 -3.20853 0
M  V30 1387 H 123.931 0.591265 -4.81382 0
M  V30 1388 H 119.81 1.69801 -4.28589 0
M  V30 1389 H 123.354 -0.48643 -6.95902 0
M  V30 1390 H 119.251 0.62653 -6.42452 0
M  V30 1391 H 120.019 -0.497225 -8.16988 0
M  V30 1392 N 122.682 1.50554 0.465978 0
M  V30 1393 C 123.91 1.65563 1.24083 0
M  V30 1394 C 124.325 0.341051 1.85694 0
M  V30 1395 O 123.682 -0.677543 1.69457 0
M  V30 1396 C 123.733 2.75051 2.34583 0
M  V30 1397 O 123.454 4.01413 1.75497 0
M  V30 1398 C 124.955 3.01078 3.25372 0
M  V30 1399 H 122.175 0.55638 0.375077 0
M  V30 1400 H 124.719 1.96807 0.555624 0
M  V30 1401 H 122.874 2.46486 2.9887 0
M  V30 1402 H 123.288 4.62002 2.48303 0
M  V30 1403 H 124.762 3.81339 3.99105 0
M  V30 1404 H 125.239 2.12349 3.84453 0
M  V30 1405 H 125.845 3.31194 2.66816 0
M  V30 1406 N 124.16 -0.719506 1.40217 0
M  V30 1407 C 125.07 -1.86378 1.42479 0
M  V30 1408 C 126.086 -1.71073 0.317834 0
M  V30 1409 O 127.262 -1.93406 0.561794 0
M  V30 1410 C 124.327 -3.22136 1.28178 0
M  V30 1411 C 123.388 -3.49723 2.48982 0
M  V30 1412 C 122.621 -4.79004 2.35353 0
M  V30 1413 O 122.844 -5.53821 1.36524 0
M  V30 1414 O 121.778 -5.06839 3.2465 0
M  V30 1415 H 125.604 -1.87425 2.38968 0
M  V30 1416 H 123.189 -0.869405 1.21498 0
M  V30 1417 H 125.071 -4.03234 1.22395 0
M  V30 1418 H 123.746 -3.21825 0.347934 0
M  V30 1419 H 122.653 -2.6865 2.60342 0
M  V30 1420 H 123.986 -3.54828 3.41113 0
M  V30 1421 N 125.638 -1.25649 -0.95132 0
M  V30 1422 C 126.866 -1.13343 -1.73092 0
M  V30 1423 C 127.281 0.312434 -1.86197 0
M  V30 1424 O 126.638 1.21465 -1.36207 0
M  V30 1425 C 126.689 -1.78602 -3.14299 0
M  V30 1426 O 126.41 -3.17537 -3.01831 0
M  V30 1427 C 127.911 -1.72119 -4.08522 0
M  V30 1428 H 125.131 -0.395181 -0.542285 0
M  V30 1429 H 127.675 -1.66076 -1.19328 0
M  V30 1430 H 125.83 -1.29832 -3.64996 0
M  V30 1431 H 126.244 -3.49676 -3.90931 0
M  V30 1432 H 127.718 -2.22435 -5.052 0
M  V30 1433 H 128.195 -0.685635 -4.33815 0
M  V30 1434 H 128.801 -2.20393 -3.63741 0
M  V30 1435 N 127.117 1.15442 -1.07289 0
M  V30 1436 C 128.347 1.89821 -0.815576 0
M  V30 1437 C 128.755 1.7823 0.634867 0
M  V30 1438 O 128.098 1.13152 1.44715 0
M  V30 1439 C 128.16 3.40817 -1.14385 0
M  V30 1440 C 127.824 3.76193 -2.59476 0
M  V30 1441 C 128.821 3.77269 -3.57721 0
M  V30 1442 C 126.506 4.0652 -2.95037 0
M  V30 1443 C 128.5 4.08176 -4.89562 0
M  V30 1444 C 126.187 4.37092 -4.27076 0
M  V30 1445 C 127.185 4.37902 -5.24148 0
M  V30 1446 O 126.873 4.67741 -6.53815 0
M  V30 1447 H 126.605 0.608465 -0.294528 0
M  V30 1448 H 129.159 1.472 -1.43252 0
M  V30 1449 H 127.389 3.83835 -0.469865 0
M  V30 1450 H 129.078 3.96485 -0.869179 0
M  V30 1451 H 129.844 3.5394 -3.3159 0
M  V30 1452 H 125.723 4.05049 -2.20128 0
M  V30 1453 H 129.267 4.08723 -5.65324 0
M  V30 1454 H 125.164 4.59889 -4.5296 0
M  V30 1455 H 125.932 4.85509 -6.58957 0
M  V30 1456 N 128.595 0.856903 1.32268 0
M  V30 1457 C 129.825 0.47475 2.01071 0
M  V30 1458 C 130.233 -0.933746 1.64553 0
M  V30 1459 O 129.576 -1.62114 0.863989 0
M  V30 1460 C 129.638 0.536746 3.55471 0
M  V30 1461 C 129.302 1.90453 4.15423 0
M  V30 1462 C 130.299 2.87029 4.33486 0
M  V30 1463 C 127.984 2.20229 4.51447 0
M  V30 1464 C 129.978 4.11532 4.86744 0
M  V30 1465 C 127.665 3.44984 5.0441 0
M  V30 1466 C 128.663 4.40452 5.22007 0
M  V30 1467 O 128.351 5.62998 5.73837 0
M  V30 1468 H 128.083 0.184778 0.650256 0
M  V30 1469 H 130.637 1.15615 1.69771 0
M  V30 1470 H 128.867 -0.20152 3.86175 0
M  V30 1471 H 130.556 0.169875 4.05544 0
M  V30 1472 H 131.322 2.6533 4.05986 0
M  V30 1473 H 127.201 1.46705 4.37034 0
M  V30 1474 H 130.745 4.86056 5.00395 0
M  V30 1475 H 126.642 3.66532 5.31342 0
M  V30 1476 H 127.41 5.64987 5.92226 0
M  V30 1477 N 130.073 -1.45103 0.615059 0
M  V30 1478 C 131.021 -2.32331 -0.111791 0
M  V30 1479 C 132.015 -1.46409 -0.852102 0
M  V30 1480 O 133.221 -1.62849 -0.766821 0
M  V30 1481 H 129.596 -0.749993 -0.0549072 0
M  V30 1482 H 131.567 -2.91407 0.642225 0
M  V30 1483 C 130.316 -3.3015 -1.09071 0
M  V30 1484 H 129.639 -3.96265 -0.530485 0
M  V30 1485 H 131.079 -3.93898 -1.56908 0
M  V30 1486 C 129.538 -2.57875 -2.168 0
M  V30 1487 O 130.068 -2.36567 -3.24652 0
M  V30 1488 N 128.274 -2.17884 -1.92289 0
M  V30 1489 H 127.821 -2.35413 -1.04587 0
M  V30 1490 H 127.779 -1.6985 -2.64572 0
M  V30 1491 N 131.551 -0.354651 -1.53558 0
M  V30 1492 C 132.776 0.242153 -2.05981 0
M  V30 1493 C 133.201 1.42553 -1.2272 0
M  V30 1494 O 132.559 1.79656 -0.243604 0
M  V30 1495 C 132.607 0.624367 -3.55154 0
M  V30 1496 O 131.711 1.72301 -3.74681 0
M  V30 1497 H 131.052 0.0378432 -0.662921 0
M  V30 1498 H 133.582 -0.512087 -1.98088 0
M  V30 1499 H 133.592 0.898433 -3.97985 0
M  V30 1500 H 132.267 -0.240989 -4.15201 0
M  V30 1501 H 130.844 1.44535 -3.4375 0
M  V30 1502 N 133.029 1.57378 -0.0835403 0
M  V30 1503 C 134.257 1.98263 0.59157 0
M  V30 1504 C 134.672 0.962302 1.62435 0
M  V30 1505 O 134.029 -0.049581 1.82433 0
M  V30 1506 C 134.08 3.39214 1.24965 0
M  V30 1507 O 133.801 4.37339 0.258186 0
M  V30 1508 C 135.302 3.95038 2.01147 0
M  V30 1509 H 132.522 0.651773 0.159477 0
M  V30 1510 H 135.066 2.03878 -0.159415 0
M  V30 1511 H 133.221 3.34649 1.95164 0
M  V30 1512 H 133.635 5.19371 0.731734 0
M  V30 1513 H 135.109 4.95848 2.42567 0
M  V30 1514 H 135.586 3.32222 2.87272 0
M  V30 1515 H 136.192 4.0304 1.35789 0
M  V30 1516 N 134.507 -0.190092 1.56449 0
M  V30 1517 C 135.755 -0.907908 1.80559 0
M  V30 1518 C 136.076 -1.83583 0.657438 0
M  V30 1519 O 135.346 -1.93203 -0.323924 0
M  V30 1520 H 133.926 -0.338247 0.666032 0
M  V30 1521 H 136.588 -0.194403 1.93928 0
M  V30 1522 H 135.684 -1.49604 2.73907 0
M  V30 1523 N 135.985 -1.50799 -0.457987 0
M  V30 1524 C 136.932 -1.70617 -1.5543 0
M  V30 1525 C 137.902 -0.547562 -1.56815 0
M  V30 1526 O 139.087 -0.779647 -1.74144 0
M  V30 1527 C 136.227 -1.81831 -2.93311 0
M  V30 1528 C 135.34 -3.09278 -3.01615 0
M  V30 1529 C 134.475 -3.11209 -4.30491 0
M  V30 1530 C 133.514 -4.33055 -4.32585 0
M  V30 1531 N 132.651 -4.32652 -5.52952 0
M  V30 1532 H 137.491 -2.64207 -1.37836 0
M  V30 1533 H 135.028 -1.30959 -0.669937 0
M  V30 1534 H 136.986 -1.86314 -3.73287 0
M  V30 1535 H 135.616 -0.916685 -3.0951 0
M  V30 1536 H 134.668 -3.14203 -2.1443 0
M  V30 1537 H 135.98 -3.99233 -2.99022 0
M  V30 1538 H 135.134 -3.14494 -5.18824 0
M  V30 1539 H 133.873 -2.19106 -4.35711 0
M  V30 1540 H 132.878 -4.29969 -3.42647 0
M  V30 1541 H 134.103 -5.264 -4.29046 0
M  V30 1542 H 132.049 -3.43409 -5.58933 0
M  V30 1543 H 131.966 -5.16392 -5.52155 0
M  V30 1544 H 133.234 -4.40101 -6.43375 0
M  V30 1545 N 137.463 0.71206 -1.40597 0
M  V30 1546 C 138.373 1.8562 -1.43466 0
M  V30 1547 C 139.389 1.70902 -0.326902 0
M  V30 1548 O 140.565 1.93105 -0.572043 0
M  V30 1549 C 137.63 3.21451 -1.29884 0
M  V30 1550 C 136.691 3.48398 -2.50833 0
M  V30 1551 C 135.924 4.77749 -2.3789 0
M  V30 1552 O 136.147 5.53089 -1.39459 0
M  V30 1553 O 135.081 5.05111 -3.27333 0
M  V30 1554 H 138.907 1.86155 -2.39958 0
M  V30 1555 H 136.492 0.86295 -1.21957 0
M  V30 1556 H 138.374 4.02579 -1.24531 0
M  V30 1557 H 137.049 3.21636 -0.364997 0
M  V30 1558 H 135.956 2.67265 -2.61763 0
M  V30 1559 H 137.289 3.53014 -3.4299 0
M  V30 1560 N 138.941 1.26152 0.944643 0
M  V30 1561 C 140.19 1.10883 1.68487 0
M  V30 1562 C 140.503 -0.348153 1.92477 0
M  V30 1563 O 141.709 -0.621459 2.64292 0
M  V30 1564 C 140.165 1.93624 3.03377 0
M  V30 1565 C 139.773 3.43875 2.87148 0
M  V30 1566 C 141.517 1.86954 3.81115 0
M  V30 1567 C 139.424 4.18875 4.1749 0
M  V30 1568 H 138.354 0.41135 0.631907 0
M  V30 1569 H 141.005 1.50433 1.05082 0
M  V30 1570 H 139.387 1.46904 3.67743 0
M  V30 1571 H 140.561 3.98338 2.31653 0
M  V30 1572 H 138.876 3.51744 2.22856 0
M  V30 1573 H 141.473 2.40275 4.77673 0
M  V30 1574 H 141.816 0.839518 4.07747 0
M  V30 1575 H 142.349 2.31477 3.23517 0
M  V30 1576 H 139.088 5.22332 3.96043 0
M  V30 1577 H 138.608 3.69193 4.72712 0
M  V30 1578 H 140.287 4.27134 4.85968 0
M  V30 1579 N 140.419 -1.14872 1.07899 0
M  V30 1580 C 141.647 -1.89661 0.82683 0
M  V30 1581 C 142.062 -1.78312 -0.620519 0
M  V30 1582 O 141.419 -1.13888 -1.42604 0
M  V30 1583 C 141.47 -3.39817 1.23316 0
M  V30 1584 O 141.191 -3.50845 2.62372 0
M  V30 1585 C 142.692 -4.31615 1.0111 0
M  V30 1586 H 139.912 -0.60092 0.298557 0
M  V30 1587 H 142.456 -1.4551 1.43691 0
M  V30 1588 H 140.611 -3.8161 0.667286 0
M  V30 1589 H 141.025 -4.44076 2.79101 0
M  V30 1590 H 142.499 -5.35367 1.34486 0
M  V30 1591 H 142.976 -4.39169 -0.0522168 0
M  V30 1592 H 143.582 -3.95572 1.56215 0
M  V30 1593 N 141.898 -0.863906 -1.31812 0
M  V30 1594 C 143.126 -0.486111 -2.01108 0
M  V30 1595 C 143.541 0.919755 -1.64882 0
M  V30 1596 O 142.898 1.60162 -0.874893 0
M  V30 1597 C 142.949 -0.626435 -3.56031 0
M  V30 1598 O 142.67 -1.97693 -3.90959 0
M  V30 1599 C 144.171 -0.248857 -4.42601 0
M  V30 1600 H 141.391 -0.190052 -0.643523 0
M  V30 1601 H 143.935 -1.1634 -1.68182 0
M  V30 1602 H 142.09 0.00322717 -3.874 0
M  V30 1603 H 142.504 -1.98034 -4.85678 0
M  V30 1604 H 143.978 -0.398016 -5.50563 0
M  V30 1605 H 144.455 0.811489 -4.31638 0
M  V30 1606 H 145.061 -0.853971 -4.16638 0
M  V30 1607 N 143.376 1.44774 -0.622745 0
M  V30 1608 C 144.601 2.06999 -0.128968 0
M  V30 1609 C 145.026 1.4617 1.1839 0
M  V30 1610 O 144.384 0.560007 1.72434 0
M  V30 1611 C 144.432 3.60595 -0.0188351 0
M  V30 1612 O 143.536 3.99398 1.02739 0
M  V30 1613 H 142.877 0.659047 -0.0809544 0
M  V30 1614 H 145.407 1.85784 -0.85705 0
M  V30 1615 H 145.417 4.07627 0.174476 0
M  V30 1616 H 144.092 4.04252 -0.977384 0
M  V30 1617 H 142.669 3.64011 0.809326 0
M  V30 1618 N 144.854 0.36279 1.53368 0
M  V30 1619 C 146.265 -0.117022 1.86333 0
M  V30 1620 C 146.616 -1.48397 1.28347 0
M  V30 1621 O 145.741 -2.07787 0.604428 0
M  V30 1622 C 146.336 -0.21912 3.38091 0
M  V30 1623 C 144.895 -0.643184 3.70864 0
M  V30 1624 C 144.042 0.211318 2.76494 0
M  V30 1625 H 146.993 0.581687 1.47655 0
M  V30 1626 H 147.014 -1.04319 3.6592 0
M  V30 1627 H 146.526 0.775902 3.80265 0
M  V30 1628 H 144.627 -1.64654 3.34245 0
M  V30 1629 H 144.74 -0.41973 4.77258 0
M  V30 1630 H 143.104 -0.319367 2.5269 0
M  V30 1631 H 143.887 1.20383 3.21501 0
M  V30 1632 N 146.332 -1.57332 0.0918853 0
M  V30 1633 C 147.264 -2.10869 -0.898168 0
M  V30 1634 C 148.277 -1.04521 -1.24817 0
M  V30 1635 O 149.466 -1.31977 -1.20184 0
M  V30 1636 C 146.566 -2.57083 -2.2082 0
M  V30 1637 C 145.739 -3.87229 -2.03402 0
M  V30 1638 C 144.798 -4.19324 -3.17889 0
M  V30 1639 O 143.824 -4.88598 -2.91994 0
M  V30 1640 N 145.026 -3.74471 -4.43567 0
M  V30 1641 H 147.791 -2.96439 -0.440943 0
M  V30 1642 H 145.352 -1.61631 -0.0933064 0
M  V30 1643 H 147.344 -2.75602 -2.96354 0
M  V30 1644 H 145.914 -1.76541 -2.57977 0
M  V30 1645 H 145.134 -3.7789 -1.12218 0
M  V30 1646 H 146.422 -4.72379 -1.89038 0
M  V30 1647 H 145.82 -3.18546 -4.67488 0
M  V30 1648 H 144.377 -3.98151 -5.16061 0
M  V30 1649 N 147.81 0.181792 -1.56548 0
M  V30 1650 C 149.059 0.898348 -1.8059 0
M  V30 1651 C 149.372 1.83862 -0.667379 0
M  V30 1652 O 150.578 2.59678 -0.792446 0
M  V30 1653 C 149.034 1.64791 -3.19956 0
M  V30 1654 C 148.642 0.751789 -4.41647 0
M  V30 1655 C 150.386 2.35331 -3.53298 0
M  V30 1656 C 148.293 1.50098 -5.72035 0
M  V30 1657 H 147.223 0.339194 -0.673397 0
M  V30 1658 H 149.874 0.151413 -1.82874 0
M  V30 1659 H 148.256 2.43921 -3.11959 0
M  V30 1660 H 149.43 -0.0018076 -4.608 0
M  V30 1661 H 147.745 0.156562 -4.16106 0
M  V30 1662 H 150.342 2.91958 -4.47956 0
M  V30 1663 H 150.685 3.10164 -2.77676 0
M  V30 1664 H 151.218 1.63154 -3.62803 0
M  V30 1665 H 147.957 0.795175 -6.50659 0
M  V30 1666 H 147.477 2.22817 -5.56878 0
M  V30 1667 H 149.156 2.05125 -6.13622 0
M  V30 1668 N 149.288 1.51039 0.449983 0
M  V30 1669 C 150.221 1.66105 1.56474 0
M  V30 1670 C 151.199 0.508776 1.54435 0
M  V30 1671 O 152.383 0.731005 1.73749 0
M  V30 1672 C 149.51 1.66304 2.9506 0
M  V30 1673 C 148.556 2.87346 3.15174 0
M  V30 1674 S 149.389 4.4835 2.92818 0
M  V30 1675 C 150.545 4.51274 4.33708 0
M  V30 1676 H 150.778 2.60397 1.43459 0
M  V30 1677 H 148.311 1.40565 0.638805 0
M  V30 1678 H 150.269 1.67103 3.74949 0
M  V30 1679 H 148.93 0.732108 3.05449 0
M  V30 1680 H 148.123 2.83849 4.16468 0
M  V30 1681 H 147.725 2.84223 2.43091 0
M  V30 1682 H 150.017 4.26136 5.26701 0
M  V30 1683 H 150.96 5.53017 4.42242 0
M  V30 1684 H 151.368 3.80738 4.16772 0
M  V30 1685 N 150.766 -0.704594 1.40972 0
M  V30 1686 C 152.043 -1.45847 1.30338 0
M  V30 1687 C 152.423 -2.10973 -0.0732344 0
M  V30 1688 O 151.771 -2.00997 -1.08685 0
M  V30 1689 C 151.981 -2.48525 2.45023 0
M  V30 1690 C 153.329 -3.1404 2.8577 0
M  V30 1691 O 154.353 -2.58848 2.44696 0
M  V30 1692 O 153.212 -4.13981 3.56766 0
M  V30 1693 H 150.306 -0.649092 0.512454 0
M  V30 1694 H 152.852 -0.735836 1.52917 0
M  V30 1695 H 151.624 -1.98994 3.36923 0
M  V30 1696 H 151.247 -3.2831 2.24272 0
M  V30 1697 N 152.244 -1.26651 -0.937939 0
M  V30 1698 C 153.521 -1.0313 -1.66204 0
M  V30 1699 C 153.901 0.437256 -2.06522 0
M  V30 1700 O 153.249 1.41831 -1.79154 0
M  V30 1701 C 153.459 -1.98314 -2.87181 0
M  V30 1702 C 154.807 -2.27107 -3.58758 0
M  V30 1703 O 155.831 -1.96205 -2.97291 0
M  V30 1704 O 154.69 -2.79736 -4.69479 0
M  V30 1705 H 151.784 -0.392384 -0.727986 0
M  V30 1706 H 154.33 -1.37874 -0.989382 0
M  V30 1707 H 153.102 -2.97399 -2.54302 0
M  V30 1708 H 152.725 -1.64068 -3.6217 0
M  V30 1709 N 153.722 1.14298 -1.08507 0
M  V30 1710 C 154.962 1.87016 -0.824894 0
M  V30 1711 C 155.326 1.81099 0.637735 0
M  V30 1712 O 156.527 2.48963 1.01345 0
M  V30 1713 C 154.798 3.31584 -1.33368 0
M  V30 1714 S 156.357 4.21903 -1.20596 0
M  V30 1715 H 153.175 0.645259 -0.2986 0
M  V30 1716 H 155.777 1.37822 -1.38656 0
M  V30 1717 H 154.481 3.33439 -2.39262 0
M  V30 1718 H 154.012 3.85836 -0.767734 0
M  V30 1719 H 156.027 4.95971 -0.150891 0
M  V30 1720 N 155.201 0.870884 1.31352 0
M  V30 1721 C 156.431 0.496049 2.00557 0
M  V30 1722 C 156.839 -0.916241 1.65534 0
M  V30 1723 O 156.182 -1.61188 0.881134 0
M  V30 1724 C 156.244 0.574418 3.54881 0
M  V30 1725 C 155.908 1.94849 4.1338 0
M  V30 1726 C 156.905 2.91611 4.30417 0
M  V30 1727 C 154.59 2.25005 4.49086 0
M  V30 1728 C 156.584 4.16672 4.82352 0
M  V30 1729 C 154.271 3.50315 5.00722 0
M  V30 1730 C 155.269 4.45964 5.17306 0
M  V30 1731 O 154.957 5.69052 5.67833 0
M  V30 1732 H 154.689 0.191664 0.64826 0
M  V30 1733 H 157.243 1.17409 1.68536 0
M  V30 1734 H 155.473 -0.160549 3.86367 0
M  V30 1735 H 157.162 0.212879 4.05341 0
M  V30 1736 H 157.928 2.69622 4.03149 0
M  V30 1737 H 153.807 1.51332 4.35453 0
M  V30 1738 H 157.351 4.91336 4.95211 0
M  V30 1739 H 153.248 3.72147 5.27424 0
M  V30 1740 H 154.016 5.71236 5.86201 0
M  V30 1741 N 156.679 -1.44442 0.630414 0
M  V30 1742 C 157.909 -2.06115 0.141465 0
M  V30 1743 C 158.317 -1.47179 -1.1889 0
M  V30 1744 O 157.66 -0.588873 -1.74006 0
M  V30 1745 C 157.722 -3.59467 -0.0484355 0
M  V30 1746 C 157.386 -4.40864 1.20366 0
M  V30 1747 C 158.383 -4.74391 2.12719 0
M  V30 1748 C 156.068 -4.8125 1.43887 0
M  V30 1749 C 158.062 -5.47186 3.26904 0
M  V30 1750 C 155.749 -5.53795 2.5837 0
M  V30 1751 C 156.747 -5.86682 3.49705 0
M  V30 1752 O 156.435 -6.57749 4.62191 0
M  V30 1753 H 156.167 -0.671648 0.0765792 0
M  V30 1754 H 158.721 -1.86312 0.864695 0
M  V30 1755 H 156.951 -3.77758 -0.826803 0
M  V30 1756 H 158.64 -4.02909 -0.491849 0
M  V30 1757 H 159.406 -4.43728 1.95781 0
M  V30 1758 H 155.285 -4.55073 0.736853 0
M  V30 1759 H 158.829 -5.72773 3.98217 0
M  V30 1760 H 154.726 -5.83872 2.75251 0
M  V30 1761 H 155.494 -6.76217 4.61164 0
M  V30 1762 N 158.157 -0.370918 -1.53173 0
M  V30 1763 C 159.089 0.507823 -2.23503 0
M  V30 1764 C 160.102 1.04182 -1.251 0
M  V30 1765 O 161.291 0.947286 -1.5129 0
M  V30 1766 C 158.391 1.71447 -2.92334 0
M  V30 1767 C 157.564 1.31105 -4.17289 0
M  V30 1768 C 156.623 2.38035 -4.69282 0
M  V30 1769 O 155.649 2.00204 -5.32829 0
M  V30 1770 N 156.851 3.69697 -4.47554 0
M  V30 1771 H 159.616 -0.0946382 -2.99551 0
M  V30 1772 H 157.177 -0.196358 -1.60705 0
M  V30 1773 H 159.169 2.42469 -3.24023 0
M  V30 1774 H 157.739 2.22368 -2.19707 0
M  V30 1775 H 156.959 0.430462 -3.91843 0
M  V30 1776 H 158.247 1.0179 -4.98514 0
M  V30 1777 H 157.645 4.03205 -3.9679 0
M  V30 1778 H 156.202 4.36807 -4.8378 0
M  V30 1779 N 159.635 1.57281 -0.100228 0
M  V30 1780 C 160.883 1.94153 0.561157 0
M  V30 1781 C 161.204 0.983157 1.68401 0
M  V30 1782 O 160.474 0.0361132 1.95867 0
M  V30 1783 H 159.054 0.716791 0.210283 0
M  V30 1784 H 161.716 1.94202 -0.164765 0
M  V30 1785 H 160.812 2.96709 0.968008 0
M  V30 1786 N 161.113 -0.173488 1.56642 0
M  V30 1787 C 162.063 -1.21941 1.92651 0
M  V30 1788 C 163.047 -1.39912 0.794577 0
M  V30 1789 O 164.239 -1.41919 1.05773 0
M  V30 1790 C 161.368 -2.55935 2.28806 0
M  V30 1791 C 160.454 -2.41667 3.48508 0
M  V30 1792 N 160.845 -1.9711 4.65813 0
M  V30 1793 C 159.143 -2.72499 3.53072 0
M  V30 1794 C 159.844 -1.95253 5.47952 0
M  V30 1795 N 158.82 -2.37575 4.88937 0
M  V30 1796 H 162.622 -0.866581 2.80834 0
M  V30 1797 H 160.136 -0.381776 1.57849 0
M  V30 1798 H 162.133 -3.31511 2.52797 0
M  V30 1799 H 160.793 -2.92022 1.41961 0
M  V30 1800 H 161.804 -1.67481 4.90072 0
M  V30 1801 H 158.481 -3.12639 2.767 0
M  V30 1802 H 159.871 -1.6252 6.51948 0
M  V30 1803 N 162.591 -1.51276 -0.441967 0
M  V30 1804 C 163.84 -1.6295 -1.18871 0
M  V30 1805 C 164.153 -0.349312 -1.92456 0
M  V30 1806 O 165.359 -0.345355 -2.69295 0
M  V30 1807 C 163.815 -2.87759 -2.16155 0
M  V30 1808 C 163.423 -4.22764 -1.48239 0
M  V30 1809 C 165.167 -3.08788 -2.91291 0
M  V30 1810 C 163.074 -5.38728 -2.4398 0
M  V30 1811 H 162.004 -0.606913 -0.447406 0
M  V30 1812 H 164.655 -1.77739 -0.456205 0
M  V30 1813 H 163.037 -2.66593 -2.92821 0
M  V30 1814 H 164.211 -4.54293 -0.771635 0
M  V30 1815 H 162.526 -4.07575 -0.852741 0
M  V30 1816 H 165.123 -3.92599 -3.63002 0
M  V30 1817 H 165.466 -2.21679 -3.5237 0
M  V30 1818 H 165.999 -3.30272 -2.21733 0
M  V30 1819 H 162.738 -6.28082 -1.87598 0
M  V30 1820 H 162.258 -5.1158 -3.13123 0
M  V30 1821 H 163.937 -5.70489 -3.05207 0
M  V30 1822 N 164.069 0.697108 -1.41344 0
M  V30 1823 C 164.999 1.82353 -1.45841 0
M  V30 1824 C 165.98 1.67115 -0.317247 0
M  V30 1825 O 167.165 1.86871 -0.528474 0
M  V30 1826 C 164.295 3.20476 -1.33838 0
M  V30 1827 C 163.249 3.50415 -2.4575 0
M  V30 1828 C 162.575 4.87878 -2.18813 0
M  V30 1829 C 163.875 3.49546 -3.88091 0
M  V30 1830 H 165.569 1.78846 -2.40113 0
M  V30 1831 H 163.115 0.859028 -1.15571 0
M  V30 1832 H 165.068 3.98988 -1.35596 0
M  V30 1833 H 163.792 3.24604 -0.360498 0
M  V30 1834 H 162.451 2.74253 -2.43271 0
M  V30 1835 H 162.099 4.8863 -1.19371 0
M  V30 1836 H 161.799 5.08875 -2.93803 0
M  V30 1837 H 163.323 5.68702 -2.22284 0
M  V30 1838 H 164.737 4.18066 -3.92293 0
M  V30 1839 H 163.134 3.82075 -4.62751 0
M  V30 1840 H 164.204 2.48552 -4.16353 0
M  V30 1841 N 165.547 1.27147 0.931209 0
M  V30 1842 C 166.495 1.09398 2.05268 0
M  V30 1843 C 167.489 0.0180591 1.6939 0
M  V30 1844 O 168.695 0.17551 1.79142 0
M  V30 1845 H 165.07 0.336986 0.672268 0
M  V30 1846 H 167.041 2.04416 2.17386 0
M  V30 1847 C 165.79 0.75424 3.39421 0
M  V30 1848 H 165.113 1.57404 3.67511 0
M  V30 1849 H 166.553 0.669903 4.18674 0
M  V30 1850 C 165.012 -0.541197 3.32525 0
M  V30 1851 O 165.542 -1.57664 3.69466 0
M  V30 1852 N 163.748 -0.535517 2.85623 0
M  V30 1853 H 163.295 0.307511 2.55758 0
M  V30 1854 H 163.253 -1.40236 2.81392 0
M  V30 1855 N 167.025 -1.13721 1.09112 0
M  V30 1856 C 167.935 -2.22638 0.73957 0
M  V30 1857 C 168.951 -1.72091 -0.257068 0
M  V30 1858 O 170.127 -2.01155 -0.0992154 0
M  V30 1859 C 167.192 -3.46322 0.16191 0
M  V30 1860 C 166.253 -4.11775 1.21408 0
M  V30 1861 C 165.486 -5.29555 0.663891 0
M  V30 1862 O 165.709 -5.68077 -0.514274 0
M  V30 1863 O 164.643 -5.84973 1.41738 0
M  V30 1864 H 168.469 -2.55074 1.64836 0
M  V30 1865 H 166.054 -1.21791 0.865289 0
M  V30 1866 H 167.936 -4.21107 -0.157073 0
M  V30 1867 H 166.611 -3.15593 -0.719932 0
M  V30 1868 H 165.518 -3.3883 1.58571 0
M  V30 1869 H 166.851 -4.46627 2.06845 0
M  V30 1870 N 168.503 -0.877838 -1.30888 0
M  V30 1871 C 169.45 -0.337538 -2.28318 0
M  V30 1872 C 170.42 0.568346 -1.56074 0
M  V30 1873 O 171.605 0.498298 -1.84178 0
M  V30 1874 C 168.745 0.448142 -3.42178 0
M  V30 1875 C 167.858 -0.48615 -4.29256 0
M  V30 1876 C 166.993 0.314427 -5.30269 0
M  V30 1877 C 166.032 -0.615791 -6.08995 0
M  V30 1878 N 165.169 0.14902 -7.01942 0
M  V30 1879 H 170.009 -1.17356 -2.73919 0
M  V30 1880 H 167.546 -0.590094 -1.34745 0
M  V30 1881 H 169.504 0.919517 -4.06941 0
M  V30 1882 H 168.134 1.24879 -2.97666 0
M  V30 1883 H 167.186 -1.076 -3.64865 0
M  V30 1884 H 168.498 -1.19909 -4.84173 0
M  V30 1885 H 167.652 0.847969 -6.00745 0
M  V30 1886 H 166.391 1.06062 -4.76027 0
M  V30 1887 H 165.396 -1.16102 -5.37401 0
M  V30 1888 H 166.621 -1.36097 -6.65323 0
M  V30 1889 H 164.567 0.877884 -6.50099 0
M  V30 1890 H 164.484 -0.504433 -7.54315 0
M  V30 1891 H 165.752 0.663537 -7.76671 0
M  V30 1892 N 169.982 1.44106 -0.638065 0
M  V30 1893 C 171.228 2.02277 -0.145546 0
M  V30 1894 C 171.561 1.50125 1.23191 0
M  V30 1895 O 170.836 0.688133 1.8192 0
M  V30 1896 C 171.119 3.59829 -0.139791 0
M  V30 1897 C 170.972 4.22247 -1.55008 0
M  V30 1898 C 172.291 4.36873 0.531966 0
M  V30 1899 H 169.41 0.734992 -0.0543632 0
M  V30 1900 H 172.052 1.71592 -0.815863 0
M  V30 1901 H 170.202 3.86102 0.431007 0
M  V30 1902 H 171.874 4.07057 -2.1703 0
M  V30 1903 H 170.117 3.79476 -2.10191 0
M  V30 1904 H 170.788 5.31284 -1.49804 0
M  V30 1905 H 173.264 4.16074 0.0464781 0
M  V30 1906 H 172.14 5.4657 0.505206 0
M  V30 1907 H 172.401 4.11995 1.60352 0
M  V30 1908 N 171.46 0.379036 1.52974 0
M  V30 1909 C 172.685 -0.209353 2.06341 0
M  V30 1910 C 173.11 -1.40583 1.24972 0
M  V30 1911 O 172.468 -1.79246 0.272155 0
M  V30 1912 C 172.516 -0.567786 3.56102 0
M  V30 1913 O 171.62 -1.66318 3.77375 0
M  V30 1914 H 170.961 -0.0272919 0.663439 0
M  V30 1915 H 173.491 0.543536 1.97248 0
M  V30 1916 H 173.501 -0.835003 3.99364 0
M  V30 1917 H 172.176 0.307013 4.14765 0
M  V30 1918 H 170.753 -1.39048 3.46006 0
M  V30 1919 N 172.938 -1.57226 0.108567 0
M  V30 1920 C 174.215 -1.86333 -0.594939 0
M  V30 1921 C 174.595 -1.00788 -1.85486 0
M  V30 1922 O 173.943 -0.0839293 -2.28346 0
M  V30 1923 C 174.153 -3.37265 -0.897405 0
M  V30 1924 C 175.501 -4.05629 -1.25501 0
M  V30 1925 O 176.525 -3.42224 -0.987998 0
M  V30 1926 O 175.384 -5.17531 -1.75567 0
M  V30 1927 H 172.478 -0.771018 -0.2991 0
M  V30 1928 H 175.024 -1.69102 0.142283 0
M  V30 1929 H 173.796 -3.913 -0.00413806 0
M  V30 1930 H 173.419 -3.59889 -1.69014 0
M  V30 1931 N 174.416 0.165178 -1.56732 0
M  V30 1932 C 175.379 1.18822 -1.95995 0
M  V30 1933 C 176.379 1.3685 -0.84431 0
M  V30 1934 O 177.569 1.34152 -1.11126 0
M  V30 1935 C 174.701 2.5521 -2.26011 0
M  V30 1936 H 175.894 0.851825 -2.87548 0
M  V30 1937 H 173.447 0.407857 -1.50885 0
M  V30 1938 H 174.182 2.93852 -1.37191 0
M  V30 1939 H 173.967 2.43489 -3.07336 0
M  V30 1940 H 175.457 3.28927 -2.57288 0
M  V30 1941 N 175.894 1.51508 0.433938 0
M  V30 1942 C 177.119 1.68443 1.21003 0
M  V30 1943 C 177.544 0.382636 1.84167 0
M  V30 1944 O 176.902 -0.65755 1.68956 0
M  V30 1945 C 176.95 2.80405 2.26727 0
M  V30 1946 O 176.054 2.44245 3.32292 0
M  V30 1947 H 175.395 0.561536 0.354363 0
M  V30 1948 H 177.925 1.9809 0.512024 0
M  V30 1949 H 177.935 3.0459 2.71457 0
M  V30 1950 H 176.61 3.74867 1.80132 0
M  V30 1951 H 175.187 2.30644 2.93015 0
M  V30 1952 N 177.372 -0.689602 1.41712 0
M  V30 1953 C 178.621 -1.44534 1.40686 0
M  V30 1954 C 178.934 -1.95588 0.0213352 0
M  V30 1955 O 180.14 -2.71271 -0.111534 0
M  V30 1956 C 178.596 -2.61387 2.47396 0
M  V30 1957 C 178.204 -2.17094 3.91885 0
M  V30 1958 C 179.948 -3.38986 2.55517 0
M  V30 1959 C 177.855 -3.3094 4.90135 0
M  V30 1960 H 176.785 -0.542925 0.52321 0
M  V30 1961 H 179.436 -0.748054 1.6756 0
M  V30 1962 H 177.818 -3.33412 2.13664 0
M  V30 1963 H 178.992 -1.52318 4.34897 0
M  V30 1964 H 177.307 -1.52473 3.8748 0
M  V30 1965 H 179.904 -4.23747 3.26102 0
M  V30 1966 H 180.247 -3.84578 1.59391 0
M  V30 1967 H 180.78 -2.74021 2.8837 0
M  V30 1968 H 177.519 -2.90355 5.87685 0
M  V30 1969 H 177.039 -3.94546 4.51767 0
M  V30 1970 H 178.718 -3.9663 5.11169 0
M  V30 1971 N 178.85 -1.27639 -0.924453 0
M  V30 1972 C 180.075 -1.17101 -1.71179 0
M  V30 1973 C 180.5 0.268134 -1.86179 0
M  V30 1974 O 179.858 1.19415 -1.36418 0
M  V30 1975 C 179.906 -1.86313 -3.08739 0
M  V30 1976 O 179.01 -1.16331 -3.95652 0
M  V30 1977 H 178.351 -0.407091 -0.524569 0
M  V30 1978 H 180.881 -1.68767 -1.15666 0
M  V30 1979 H 180.891 -1.938 -3.59034 0
M  V30 1980 H 179.566 -2.91001 -2.97138 0
M  V30 1981 H 178.143 -1.16935 -3.54091 0
M  V30 1982 N 180.328 1.1314 -1.09713 0
M  V30 1983 C 181.556 1.88321 -0.856898 0
M  V30 1984 C 181.971 1.79276 0.592073 0
M  V30 1985 O 181.328 1.16142 1.40774 0
M  V30 1986 C 181.379 3.37812 -1.28706 0
M  V30 1987 O 181.1 3.46627 -2.67921 0
M  V30 1988 C 182.601 4.29952 -1.07964 0
M  V30 1989 H 179.821 0.596094 -0.308079 0
M  V30 1990 H 182.365 1.43205 -1.45988 0
M  V30 1991 H 180.52 3.805 -0.727912 0
M  V30 1992 H 180.934 4.39579 -2.8613 0
M  V30 1993 H 182.408 5.33159 -1.42986 0
M  V30 1994 H 182.885 4.39196 -0.0176577 0
M  V30 1995 H 183.491 3.93036 -1.62489 0
M  V30 1996 N 181.806 0.884767 1.30421 0
M  V30 1997 C 183.046 0.509806 1.9794 0
M  V30 1998 C 183.41 -0.923736 1.68319 0
M  V30 1999 O 184.611 -1.40481 2.29169 0
M  V30 2000 C 182.882 0.776732 3.48858 0
M  V30 2001 S 184.441 0.503843 4.35898 0
M  V30 2002 H 181.259 0.189699 0.685227 0
M  V30 2003 H 183.861 1.14399 1.58535 0
M  V30 2004 H 182.565 1.81857 3.67908 0
M  V30 2005 H 182.096 0.1301 3.93185 0
M  V30 2006 H 184.111 -0.657625 4.91823 0
M  V30 2007 N 183.284 -1.43765 0.645699 0
M  V30 2008 C 184.7 -1.56509 0.312591 0
M  V30 2009 C 184.9 -1.6307 -1.18365 0
M  V30 2010 O 183.956 -1.58167 -1.96824 0
M  V30 2011 C 185.269 -2.82968 1.01733 0
M  V30 2012 C 186.817 -2.96701 0.996865 0
M  V30 2013 C 187.292 -4.25982 1.68236 0
M  V30 2014 N 188.783 -4.32829 1.64964 0
M  V30 2015 C 189.518 -5.31613 2.14885 0
M  V30 2016 N 189.014 -6.36718 2.73061 0
M  V30 2017 N 190.807 -5.23217 2.05428 0
M  V30 2018 H 182.958 -1.3775 1.61675 0
M  V30 2019 H 185.221 -0.661067 0.679481 0
M  V30 2020 H 184.927 -2.84156 2.0724 0
M  V30 2021 H 184.801 -3.72957 0.564177 0
M  V30 2022 H 187.188 -2.95058 -0.0497719 0
M  V30 2023 H 187.269 -2.08022 1.48865 0
M  V30 2024 H 186.913 -4.28386 2.72852 0
M  V30 2025 H 186.843 -5.13545 1.16529 0
M  V30 2026 H 189.334 -3.57493 1.22503 0
M  V30 2027 H 189.647 -7.08401 3.08848 0
M  V30 2028 H 187.992 -6.37362 2.77118 0
M  V30 2029 H 191.183 -4.40019 1.59689 0
M  V30 2030 H 191.356 -6.00045 2.44643 0
M  V30 2031 N 184.763 -0.387143 -1.52771 0
M  V30 2032 C 186.011 0.195349 -2.01154 0
M  V30 2033 C 186.332 1.475 -1.27549 0
M  V30 2034 O 185.602 1.91878 -0.394924 0
M  V30 2035 H 184.182 0.075178 -0.743207 0
M  V30 2036 H 186.844 -0.518337 -1.87881 0
M  V30 2037 H 185.94 0.407096 -3.09434 0
M  V30 2038 N 186.241 1.57166 -0.116904 0
M  V30 2039 C 187.171 2.18222 0.830759 0
M  V30 2040 C 188.152 1.12167 1.27877 0
M  V30 2041 O 189.337 1.40394 1.34176 0
M  V30 2042 C 186.467 2.77996 2.08172 0
M  V30 2043 C 185.421 3.89614 1.77157 0
M  V30 2044 C 184.747 4.36187 3.09265 0
M  V30 2045 C 186.047 5.1181 1.04151 0
M  V30 2046 H 187.741 2.97664 0.321992 0
M  V30 2047 H 185.287 1.4318 0.153434 0
M  V30 2048 H 187.24 3.19366 2.74924 0
M  V30 2049 H 185.964 1.9584 2.6137 0
M  V30 2050 H 184.623 3.48816 1.12796 0
M  V30 2051 H 184.271 3.50893 3.60393 0
M  V30 2052 H 183.971 5.11455 2.89288 0
M  V30 2053 H 185.495 4.80207 3.77139 0
M  V30 2054 H 186.909 5.50214 1.61052 0
M  V30 2055 H 185.306 5.92648 0.942762 0
M  V30 2056 H 186.376 4.84892 0.0279022 0
M  V30 2057 N 187.719 -0.156864 1.56817 0
M  V30 2058 C 189.135 -0.50916 1.5126 0
M  V30 2059 C 189.335 -1.83897 0.823658 0
M  V30 2060 O 188.391 -2.49469 0.390055 0
M  V30 2061 C 189.704 -0.52857 2.96018 0
M  V30 2062 C 191.252 -0.614771 3.06903 0
M  V30 2063 C 191.727 -0.664938 4.53147 0
M  V30 2064 N 193.218 -0.727433 4.57452 0
M  V30 2065 C 193.953 -0.787067 5.67973 0
M  V30 2066 N 193.449 -0.806649 6.88088 0
M  V30 2067 N 195.242 -0.827195 5.5598 0
M  V30 2068 H 187.393 0.714935 2.00006 0
M  V30 2069 H 189.656 0.259526 0.911784 0
M  V30 2070 H 189.362 0.380154 3.49639 0
M  V30 2071 H 189.236 -1.36998 3.51442 0
M  V30 2072 H 191.623 -1.51392 2.53307 0
M  V30 2073 H 191.704 0.253597 2.5454 0
M  V30 2074 H 191.348 0.230011 5.07379 0
M  V30 2075 H 191.278 -1.54966 5.03282 0
M  V30 2076 H 193.769 -0.719998 3.70978 0
M  V30 2077 H 194.082 -0.853727 7.6807 0
M  V30 2078 H 192.427 -0.774687 6.90669 0
M  V30 2079 H 195.618 -0.808998 4.61056 0
M  V30 2080 H 195.791 -0.870206 6.4213 0
M  V30 2081 N 189.197 -1.51736 -0.425897 0
M  V30 2082 C 190.445 -1.64644 -1.17204 0
M  V30 2083 C 190.766 -0.370486 -1.91448 0
M  V30 2084 O 190.036 0.614088 -1.86026 0
M  V30 2085 H 188.616 -0.606819 -0.435638 0
M  V30 2086 H 191.278 -1.88713 -0.487177 0
M  V30 2087 H 190.374 -2.47958 -1.89534 0
M  V30 2088 N 190.675 0.682077 -1.42076 0
M  V30 2089 C 191.905 1.46844 -1.45329 0
M  V30 2090 C 192.313 1.89102 -0.0609328 0
M  V30 2091 O 191.656 1.58238 0.933082 0
M  V30 2092 C 191.718 2.75375 -2.31104 0
M  V30 2093 C 191.382 2.55238 -3.79081 0
M  V30 2094 C 192.379 2.20309 -4.70914 0
M  V30 2095 C 190.064 2.70459 -4.2327 0
M  V30 2096 C 192.058 2.00859 -6.04925 0
M  V30 2097 C 189.745 2.50624 -5.57343 0
M  V30 2098 C 190.743 2.15876 -6.47986 0
M  V30 2099 O 190.431 1.96227 -7.79583 0
M  V30 2100 H 190.163 0.4586 -0.496651 0
M  V30 2101 H 192.717 0.846131 -1.87162 0
M  V30 2102 H 190.947 3.40061 -1.84107 0
M  V30 2103 H 192.636 3.37231 -2.25898 0
M  V30 2104 H 193.402 2.08153 -4.38061 0
M  V30 2105 H 189.281 2.96485 -3.53012 0
M  V30 2106 H 192.825 1.7366 -6.75639 0
M  V30 2107 H 188.722 2.62375 -5.89771 0
M  V30 2108 H 189.49 2.10883 -7.90867 0
M  V30 2109 N 192.153 1.28127 0.917671 0
M  V30 2110 C 193.4 1.15052 1.66641 0
M  V30 2111 C 193.728 -0.301677 1.92146 0
M  V30 2112 O 192.983 -1.23622 1.51711 0
M  V30 2113 C 193.282 1.89018 3.03327 0
M  V30 2114 C 192.948 3.38832 2.97496 0
M  V30 2115 C 191.61 3.79693 2.95613 0
M  V30 2116 C 193.962 4.34378 2.88036 0
M  V30 2117 C 191.29 5.14447 2.82066 0
M  V30 2118 C 193.642 5.69201 2.7603 0
M  V30 2119 C 192.306 6.09343 2.72502 0
M  V30 2120 H 191.576 0.421006 0.609783 0
M  V30 2121 H 194.223 1.58855 1.06945 0
M  V30 2122 H 192.528 1.37752 3.66785 0
M  V30 2123 H 194.225 1.76321 3.60156 0
M  V30 2124 H 190.815 3.06342 2.99754 0
M  V30 2125 H 194.999 4.03775 2.88581 0
M  V30 2126 H 190.255 5.44681 2.77728 0
M  V30 2127 H 194.429 6.42901 2.67678 0
M  V30 2128 H 192.056 7.13712 2.61762 0
M  V30 2129 N 193.631 -1.12557 1.10312 0
M  V30 2130 C 194.856 -1.88405 0.867085 0
M  V30 2131 C 195.281 -1.79038 -0.576817 0
M  V30 2132 O 194.639 -1.14439 -1.40618 0
M  V30 2133 C 194.687 -3.3563 1.31851 0
M  V30 2134 O 193.791 -4.09565 0.482734 0
M  V30 2135 H 193.132 -0.585455 0.313271 0
M  V30 2136 H 195.662 -1.42352 1.4696 0
M  V30 2137 H 195.672 -3.86469 1.3079 0
M  V30 2138 H 194.347 -3.41765 2.37001 0
M  V30 2139 H 192.924 -3.68695 0.558448 0
M  V30 2140 N 195.109 -0.891671 -1.2995 0
M  V30 2141 C 196.041 -0.320695 -2.26945 0
M  V30 2142 C 197.054 0.528497 -1.53983 0
M  V30 2143 O 198.243 0.346959 -1.75096 0
M  V30 2144 C 195.343 0.562066 -3.34207 0
M  V30 2145 C 194.516 -0.259576 -4.36629 0
M  V30 2146 C 193.575 0.554739 -5.23268 0
M  V30 2147 O 192.601 -0.0249311 -5.69195 0
M  V30 2148 N 193.803 1.8625 -5.4981 0
M  V30 2149 H 196.568 -1.15432 -2.76578 0
M  V30 2150 H 194.129 -0.755336 -1.432 0
M  V30 2151 H 196.121 1.11304 -3.89093 0
M  V30 2152 H 194.691 1.29637 -2.84452 0
M  V30 2153 H 193.911 -0.991986 -3.81514 0
M  V30 2154 H 195.199 -0.822564 -5.02107 0
M  V30 2155 H 194.597 2.35628 -5.14292 0
M  V30 2156 H 193.154 2.36078 -6.07545 0
M  V30 2157 N 196.587 1.43421 -0.653314 0
M  V30 2158 C 197.835 2.01414 -0.166415 0
M  V30 2159 C 198.156 1.51803 1.22397 0
M  V30 2160 O 197.426 0.730693 1.81763 0
M  V30 2161 H 196.006 0.744703 -0.0585319 0
M  V30 2162 H 198.668 1.75629 -0.845003 0
M  V30 2163 H 197.764 3.11734 -0.151111 0
M  V30 2164 N 198.065 0.39524 1.52563 0
M  V30 2165 C 199.342 -0.242908 1.94086 0
M  V30 2166 C 199.722 -1.63841 1.33114 0
M  V30 2167 O 199.07 -2.22928 0.501529 0
M  V30 2168 C 199.28 -0.26327 3.48006 0
M  V30 2169 C 200.628 -0.489354 4.21771 0
M  V30 2170 O 201.652 -0.343226 3.54543 0
M  V30 2171 O 200.511 -0.776169 5.4096 0
M  V30 2172 H 197.605 -0.152536 0.812811 0
M  V30 2173 H 200.151 0.450178 1.6362 0
M  V30 2174 H 198.923 0.713985 3.84731 0
M  V30 2175 H 198.546 -1.00103 3.84792 0
M  V30 2176 N 199.544 -1.57102 0.125237 0
M  V30 2177 C 200.476 -2.12726 -0.853237 0
M  V30 2178 C 201.489 -1.07145 -1.22571 0
M  V30 2179 O 202.678 -1.34497 -1.17358 0
M  V30 2180 C 199.778 -2.61709 -2.15317 0
M  V30 2181 C 198.951 -3.91456 -1.95143 0
M  V30 2182 C 198.01 -4.25973 -3.08923 0
M  V30 2183 O 197.036 -4.94682 -2.81564 0
M  V30 2184 N 198.238 -3.83795 -4.35524 0
M  V30 2185 H 201.003 -2.97307 -0.377964 0
M  V30 2186 H 198.564 -1.61792 -0.0590011 0
M  V30 2187 H 200.556 -2.81826 -2.90441 0
M  V30 2188 H 199.126 -1.81974 -2.54174 0
M  V30 2189 H 198.346 -3.80185 -1.04177 0
M  V30 2190 H 199.634 -4.76283 -1.78976 0
M  V30 2191 H 199.032 -3.2839 -4.60626 0
M  V30 2192 H 197.589 -4.09008 -5.07499 0
M  V30 2193 N 201.022 0.148545 -1.56898 0
M  V30 2194 C 202.438 0.501131 -1.51528 0
M  V30 2195 C 202.638 1.83458 -0.833399 0
M  V30 2196 O 201.694 2.49259 -0.40328 0
M  V30 2197 C 203.007 0.512864 -2.96294 0
M  V30 2198 C 204.555 0.598487 -3.07225 0
M  V30 2199 C 205.03 0.640897 -4.53494 0
M  V30 2200 N 206.521 0.703163 -4.57832 0
M  V30 2201 C 207.256 0.756935 -5.68382 0
M  V30 2202 N 206.752 0.770147 -6.88506 0
M  V30 2203 N 208.545 0.797698 -5.56411 0
M  V30 2204 H 200.696 -0.725532 -1.99624 0
M  V30 2205 H 202.959 -0.264358 -0.910395 0
M  V30 2206 H 202.665 -0.398691 -3.49433 0
M  V30 2207 H 202.539 1.35133 -3.52163 0
M  V30 2208 H 204.926 1.50046 -2.54106 0
M  V30 2209 H 205.007 -0.267093 -2.54402 0
M  V30 2210 H 204.651 -0.256915 -5.0725 0
M  V30 2211 H 204.581 1.52295 -5.04097 0
M  V30 2212 H 207.072 0.700314 -3.71354 0
M  V30 2213 H 207.385 0.812983 -7.68512 0
M  V30 2214 H 205.73 0.738049 -6.9107 0
M  V30 2215 H 208.921 0.784535 -4.61479 0
M  V30 2216 H 209.094 0.83614 -6.42583 0
M  V30 2217 N 202.5 1.5196 0.417844 0
M  V30 2218 C 203.73 1.69181 1.18581 0
M  V30 2219 C 204.138 0.397104 1.84986 0
M  V30 2220 O 203.481 -0.636011 1.72339 0
M  V30 2221 C 203.543 2.76497 2.29759 0
M  V30 2222 C 203.207 4.18514 1.83563 0
M  V30 2223 C 204.204 5.02648 1.32821 0
M  V30 2224 C 201.889 4.64708 1.90661 0
M  V30 2225 C 203.883 6.31044 0.897894 0
M  V30 2226 C 201.57 5.93096 1.47241 0
M  V30 2227 C 202.568 6.76093 0.968891 0
M  V30 2228 O 202.256 8.02078 0.540924 0
M  V30 2229 H 201.988 0.570457 0.362705 0
M  V30 2230 H 204.542 1.99249 0.498885 0
M  V30 2231 H 202.772 2.41786 3.01789 0
M  V30 2232 H 204.461 2.82403 2.91553 0
M  V30 2233 H 205.227 4.68154 1.26716 0
M  V30 2234 H 201.106 4.00216 2.28797 0
M  V30 2235 H 204.65 6.95776 0.504192 0
M  V30 2236 H 200.547 6.271 1.53022 0
M  V30 2237 H 201.315 8.15794 0.66502 0
M  V30 2238 N 203.978 -0.674533 1.42435 0
M  V30 2239 C 205.225 -1.43459 1.42919 0
M  V30 2240 C 205.553 -1.94446 0.0457312 0
M  V30 2241 O 204.808 -1.7132 -0.94593 0
M  V30 2242 C 205.107 -2.64767 2.40069 0
M  V30 2243 C 204.773 -2.3232 3.86443 0
M  V30 2244 C 203.435 -2.23182 4.26314 0
M  V30 2245 C 205.787 -2.05977 4.78773 0
M  V30 2246 C 203.115 -1.85827 5.56494 0
M  V30 2247 C 205.467 -1.70125 6.09295 0
M  V30 2248 C 204.131 -1.59498 6.48164 0
M  V30 2249 H 203.401 -0.524952 0.522978 0
M  V30 2250 H 206.048 -0.769097 1.75377 0
M  V30 2251 H 204.353 -3.36349 2.00939 0
M  V30 2252 H 206.05 -3.22949 2.37707 0
M  V30 2253 H 202.64 -2.40334 3.54877 0
M  V30 2254 H 206.824 -2.11969 4.48757 0
M  V30 2255 H 202.08 -1.76168 5.8547 0
M  V30 2256 H 206.254 -1.48767 6.80324 0
M  V30 2257 H 203.881 -1.30322 7.48946 0
M  V30 2258 N 205.456 -1.28612 -0.910864 0
M  V30 2259 C 206.705 -1.15311 -1.65488 0
M  V30 2260 C 207.018 0.296999 -1.93332 0
M  V30 2261 O 208.224 0.551168 -2.65847 0
M  V30 2262 C 206.68 -2.01599 -2.98137 0
M  V30 2263 C 206.288 -3.51367 -2.7793 0
M  V30 2264 C 208.032 -1.96993 -3.76024 0
M  V30 2265 C 205.939 -4.29797 -4.06237 0
M  V30 2266 H 204.869 -0.42796 -0.620779 0
M  V30 2267 H 207.52 -1.53166 -1.01057 0
M  V30 2268 H 205.902 -1.56603 -3.63719 0
M  V30 2269 H 207.076 -4.0434 -2.21011 0
M  V30 2270 H 205.391 -3.57529 -2.13452 0
M  V30 2271 H 207.988 -2.52856 -4.71135 0
M  V30 2272 H 208.331 -0.94733 -4.05378 0
M  V30 2273 H 208.864 -2.39973 -3.17266 0
M  V30 2274 H 205.603 -5.32648 -3.82055 0
M  V30 2275 H 205.123 -3.81596 -4.62757 0
M  V30 2276 H 206.802 -4.39869 -4.74473 0
M  V30 2277 N 206.934 1.1197 -1.10907 0
M  V30 2278 C 207.844 2.21433 -0.774896 0
M  V30 2279 C 208.86 1.72478 0.229657 0
M  V30 2280 O 210.036 2.01288 0.0672008 0
M  V30 2281 C 207.101 3.4602 -0.216986 0
M  V30 2282 C 206.162 4.09791 -1.27944 0
M  V30 2283 C 205.395 5.28431 -0.748055 0
M  V30 2284 O 205.618 5.68823 0.423833 0
M  V30 2285 O 204.552 5.82644 -1.51027 0
M  V30 2286 H 208.378 2.5242 -1.68873 0
M  V30 2287 H 205.963 1.20399 -0.884555 0
M  V30 2288 H 207.845 4.21304 0.090059 0
M  V30 2289 H 206.52 3.16698 0.669633 0
M  V30 2290 H 205.427 3.36265 -1.63941 0
M  V30 2291 H 206.76 4.4328 -2.13925 0
M  V30 2292 N 208.412 0.89855 1.29475 0
M  V30 2293 C 209.823 0.572537 1.77705 0
M  V30 2294 C 210.174 -0.911778 1.73727 0
M  V30 2295 O 209.299 -1.71288 1.32247 0
M  V30 2296 C 209.894 1.03252 3.22683 0
M  V30 2297 C 208.453 0.757687 3.68695 0
M  V30 2298 C 207.6 1.20787 2.49612 0
M  V30 2299 H 210.551 1.08139 1.16153 0
M  V30 2300 H 210.572 0.367307 3.78723 0
M  V30 2301 H 210.084 2.11285 3.25546 0
M  V30 2302 H 208.185 -0.310079 3.71308 0
M  V30 2303 H 208.298 1.35476 4.59547 0
M  V30 2304 H 206.662 0.626888 2.46865 0
M  V30 2305 H 207.445 2.29622 2.55203 0
M  V30 2306 N 209.89 -1.43072 0.660911 0
M  V30 2307 C 210.82 -2.33497 -0.0122829 0
M  V30 2308 C 211.801 -1.49903 -0.803925 0
M  V30 2309 O 212.986 -1.78546 -0.763864 0
M  V30 2310 C 210.116 -3.33363 -0.973994 0
M  V30 2311 C 209.07 -4.27003 -0.291928 0
M  V30 2312 C 208.396 -5.16967 -1.36562 0
M  V30 2313 C 209.696 -5.15816 0.820462 0
M  V30 2314 H 211.39 -2.90038 0.742873 0
M  V30 2315 H 208.936 -1.39461 0.358688 0
M  V30 2316 H 210.889 -3.95524 -1.45392 0
M  V30 2317 H 209.613 -2.75095 -1.7604 0
M  V30 2318 H 208.272 -3.66217 0.167623 0
M  V30 2319 H 207.92 -4.55034 -2.14366 0
M  V30 2320 H 207.62 -5.80441 -0.914454 0
M  V30 2321 H 209.144 -5.82003 -1.84675 0
M  V30 2322 H 210.558 -5.71742 0.422366 0
M  V30 2323 H 208.955 -5.8805 1.19656 0
M  V30 2324 H 210.025 -4.55045 1.67518 0
M  V30 2325 N 211.368 -0.403325 -1.52352 0
M  V30 2326 C 212.593 0.176499 -2.06648 0
M  V30 2327 C 213.018 1.38577 -1.27193 0
M  V30 2328 O 212.376 1.7879 -0.300637 0
M  V30 2329 C 212.424 0.511061 -3.5696 0
M  V30 2330 O 211.528 1.60294 -3.79973 0
M  V30 2331 H 210.869 0.0167337 -0.663789 0
M  V30 2332 H 213.399 -0.574848 -1.96359 0
M  V30 2333 H 213.409 0.771362 -4.00642 0
M  V30 2334 H 212.084 -0.37296 -4.14224 0
M  V30 2335 H 210.661 1.33526 -3.48174 0
M  V30 2336 N 212.846 1.57033 -0.133567 0
M  V30 2337 C 214.257 1.82593 0.389464 0
M  V30 2338 C 214.608 1.05156 1.6564 0
M  V30 2339 O 213.733 0.292644 2.14412 0
M  V30 2340 C 214.328 3.31204 0.713377 0
M  V30 2341 C 212.887 3.57393 1.18098 0
M  V30 2342 C 212.034 2.76598 0.197126 0
M  V30 2343 H 214.985 1.54598 -0.358481 0
M  V30 2344 H 215.006 3.46627 1.56939 0
M  V30 2345 H 214.518 3.87537 -0.2089 0
M  V30 2346 H 212.619 3.06433 2.11966 0
M  V30 2347 H 212.732 4.65915 1.11624 0
M  V30 2348 H 211.096 2.45257 0.687088 0
M  V30 2349 H 211.879 3.35697 -0.718504 0
M  V30 2350 N 214.325 -0.140222 1.56975 0
M  V30 2351 C 215.574 -0.850152 1.82908 0
M  V30 2352 C 215.887 -1.82028 0.715892 0
M  V30 2353 O 217.093 -2.57485 0.861016 0
M  V30 2354 C 215.549 -1.5625 3.24213 0
M  V30 2355 C 215.157 -0.63443 4.43485 0
M  V30 2356 C 216.901 -2.25881 3.59413 0
M  V30 2357 C 214.808 -1.34879 5.75814 0
M  V30 2358 H 213.738 -0.321221 0.682153 0
M  V30 2359 H 216.389 -0.102874 1.83211 0
M  V30 2360 H 214.771 -2.35565 3.18316 0
M  V30 2361 H 215.945 0.12398 4.60633 0
M  V30 2362 H 214.26 -0.0461836 4.16374 0
M  V30 2363 H 216.857 -2.79978 4.5554 0
M  V30 2364 H 217.2 -3.02693 2.85802 0
M  V30 2365 H 217.733 -1.53477 3.67001 0
M  V30 2366 H 214.472 -0.622385 6.52539 0
M  V30 2367 H 213.992 -2.07974 5.6259 0
M  V30 2368 H 215.671 -1.88784 6.18845 0
M  V30 2369 N 215.803 -1.52179 -0.40978 0
M  V30 2370 C 216.753 -1.71857 -1.49831 0
M  V30 2371 C 217.737 -0.572469 -1.50372 0
M  V30 2372 O 218.929 -0.829509 -1.56359 0
M  V30 2373 C 216.058 -1.87206 -2.87765 0
M  V30 2374 C 215.144 -3.07685 -2.91875 0
M  V30 2375 N 215.535 -4.30403 -2.65683 0
M  V30 2376 C 213.833 -3.07505 -3.23043 0
M  V30 2377 C 214.534 -5.11868 -2.76344 0
M  V30 2378 N 213.51 -4.47101 -3.09195 0
M  V30 2379 H 217.312 -2.64381 -1.28375 0
M  V30 2380 H 214.826 -1.50203 -0.617479 0
M  V30 2381 H 216.823 -1.99419 -3.66111 0
M  V30 2382 H 215.483 -0.958814 -3.10221 0
M  V30 2383 H 216.494 -4.58887 -2.4009 0
M  V30 2384 H 213.171 -2.25915 -3.51096 0
M  V30 2385 H 214.561 -6.19634 -2.59814 0
M  V30 2386 N 217.281 0.66697 -1.42791 0
M  V30 2387 C 218.697 0.981027 -1.25889 0
M  V30 2388 C 218.897 2.00793 -0.168695 0
M  V30 2389 O 217.953 2.48321 0.45747 0
M  V30 2390 C 219.266 1.47838 -2.61848 0
M  V30 2391 C 220.814 1.59575 -2.69267 0
M  V30 2392 C 221.289 2.12704 -4.05612 0
M  V30 2393 N 222.78 2.20026 -4.07606 0
M  V30 2394 C 223.515 2.62227 -5.09926 0
M  V30 2395 N 223.011 3.03824 -6.22626 0
M  V30 2396 N 224.804 2.62045 -4.97281 0
M  V30 2397 H 216.955 -0.0127891 -2.12396 0
M  V30 2398 H 219.218 0.0568258 -0.946295 0
M  V30 2399 H 218.924 0.798299 -3.4252 0
M  V30 2400 H 218.798 2.45579 -2.86305 0
M  V30 2401 H 221.185 2.26687 -1.88936 0
M  V30 2402 H 221.266 0.60302 -2.48591 0
M  V30 2403 H 220.91 1.46198 -4.86404 0
M  V30 2404 H 220.84 3.12782 -4.23645 0
M  V30 2405 H 223.331 1.90708 -3.2625 0
M  V30 2406 H 223.644 3.34734 -6.96544 0
M  V30 2407 H 221.989 3.01662 -6.26119 0
M  V30 2408 H 225.18 2.28916 -4.08308 0
M  V30 2409 H 225.353 2.94613 -5.77154 0
M  V30 2410 N 218.759 1.29093 0.90403 0
M  V30 2411 C 220.036 1.075 1.63411 0
M  V30 2412 C 220.416 -0.382346 2.07609 0
M  V30 2413 O 219.764 -1.37031 1.82851 0
M  V30 2414 C 219.974 2.05858 2.81822 0
M  V30 2415 C 221.322 2.36539 3.52611 0
M  V30 2416 O 222.346 2.04019 2.91984 0
M  V30 2417 O 221.205 2.92085 4.61897 0
M  V30 2418 H 218.299 0.411547 0.717327 0
M  V30 2419 H 220.845 1.40449 0.952479 0
M  V30 2420 H 219.617 3.04037 2.46327 0
M  V30 2421 H 219.24 1.73613 3.57693 0
M  V30 2422 N 220.237 -1.11381 1.11499 0
M  V30 2423 C 221.485 -1.8277 0.862524 0
M  V30 2424 C 221.806 -1.85097 -0.613534 0
M  V30 2425 O 221.076 -1.32198 -1.4457 0
M  V30 2426 H 219.656 -0.676823 0.316101 0
M  V30 2427 H 222.318 -1.34816 1.4075 0
M  V30 2428 H 221.414 -2.86614 1.23527 0
M  V30 2429 N 221.715 -0.905404 -1.28997 0
M  V30 2430 C 222.647 -0.344748 -2.26592 0
M  V30 2431 C 223.66 0.512135 -1.54535 0
M  V30 2432 O 224.849 0.328368 -1.75454 0
M  V30 2433 C 221.949 0.526587 -3.34784 0
M  V30 2434 C 221.122 -0.305871 -4.36329 0
M  V30 2435 C 220.181 0.499209 -5.23827 0
M  V30 2436 O 219.207 -0.0853004 -5.69136 0
M  V30 2437 N 220.409 1.80408 -5.51755 0
M  V30 2438 H 223.174 -1.18359 -2.75338 0
M  V30 2439 H 220.735 -0.770481 -1.42391 0
M  V30 2440 H 222.727 1.07171 -3.90252 0
M  V30 2441 H 221.297 1.26613 -2.85811 0
M  V30 2442 H 220.517 -1.0324 -3.80441 0
M  V30 2443 H 221.805 -0.875773 -5.01206 0
M  V30 2444 H 221.203 2.3016 -5.16762 0
M  V30 2445 H 219.76 2.29621 -6.10014 0
M  V30 2446 N 223.193 1.4272 -0.668489 0
M  V30 2447 C 224.103 2.34596 0.0139753 0
M  V30 2448 C 225.119 1.5474 0.795703 0
M  V30 2449 O 226.295 1.87334 0.739466 0
M  V30 2450 C 223.36 3.33202 0.957982 0
M  V30 2451 C 222.421 4.28957 0.17149 0
M  V30 2452 C 221.654 5.22853 1.07053 0
M  V30 2453 O 221.877 5.21531 2.31001 0
M  V30 2454 O 220.811 5.9952 0.534727 0
M  V30 2455 H 224.637 2.9448 -0.742661 0
M  V30 2456 H 222.222 1.43117 -0.428705 0
M  V30 2457 H 224.104 3.93796 1.50008 0
M  V30 2458 H 222.779 2.758 1.69458 0
M  V30 2459 H 221.686 3.71796 -0.414558 0
M  V30 2460 H 223.019 4.89383 -0.52586 0
M  V30 2461 N 224.671 0.411399 1.52136 0
M  V30 2462 C 225.621 -0.430376 2.23901 0
M  V30 2463 C 226.605 -1.0116 1.25121 0
M  V30 2464 O 227.797 -0.934044 1.50348 0
M  V30 2465 C 224.926 -1.54527 3.06556 0
M  V30 2466 C 224.012 -0.9747 4.12747 0
M  V30 2467 N 224.403 -0.130991 5.0563 0
M  V30 2468 C 222.701 -1.24497 4.28271 0
M  V30 2469 C 223.402 0.186689 5.814 0
M  V30 2470 N 222.378 -0.42304 5.41951 0
M  V30 2471 H 226.18 0.220509 2.93072 0
M  V30 2472 H 223.694 0.221952 1.60876 0
M  V30 2473 H 225.691 -2.16093 3.56524 0
M  V30 2474 H 224.351 -2.19875 2.38925 0
M  V30 2475 H 225.362 0.23349 5.17373 0
M  V30 2476 H 222.039 -1.89787 3.7187 0
M  V30 2477 H 223.429 0.871673 6.66222 0
M  V30 2478 N 226.149 -1.5696 0.141893 0
M  V30 2479 C 227.112 -2.15316 -0.785587 0
M  V30 2480 C 228.112 -1.09366 -1.1788 0
M  V30 2481 O 229.302 -1.35031 -1.10056 0
M  V30 2482 C 226.434 -2.71211 -2.06537 0
M  V30 2483 H 227.627 -2.98608 -0.278041 0
M  V30 2484 H 225.18 -1.5593 -0.107519 0
M  V30 2485 H 225.915 -1.91571 -2.6167 0
M  V30 2486 H 225.7 -3.4872 -1.79268 0
M  V30 2487 H 227.19 -3.16189 -2.72789 0
M  V30 2488 N 227.627 0.131896 -1.57047 0
M  V30 2489 C 228.557 1.16384 -2.02428 0
M  V30 2490 C 229.538 1.43936 -0.90644 0
M  V30 2491 O 230.723 1.54599 -1.17528 0
M  V30 2492 C 227.853 2.49328 -2.4177 0
M  V30 2493 C 226.807 2.36266 -3.56879 0
M  V30 2494 C 226.133 3.74057 -3.8208 0
M  V30 2495 C 227.433 1.834 -4.89042 0
M  V30 2496 H 229.127 0.786433 -2.88887 0
M  V30 2497 H 226.673 0.376855 -1.38981 0
M  V30 2498 H 228.626 3.21759 -2.7212 0
M  V30 2499 H 227.35 2.88934 -1.52266 0
M  V30 2500 H 226.009 1.66286 -3.26718 0
M  V30 2501 H 225.657 4.11125 -2.89803 0
M  V30 2502 H 225.357 3.66174 -4.59554 0
M  V30 2503 H 226.881 4.48012 -4.1487 0
M  V30 2504 H 228.295 2.45636 -5.18011 0
M  V30 2505 H 226.692 1.8637 -5.70426 0
M  V30 2506 H 227.762 0.790662 -4.7841 0
M  V30 2507 N 229.106 1.52395 0.401703 0
M  V30 2508 C 230.353 1.66817 1.14796 0
M  V30 2509 C 230.681 0.401772 1.90305 0
M  V30 2510 O 229.936 -0.615487 1.85769 0
M  V30 2511 C 230.235 2.84578 2.16217 0
M  V30 2512 C 229.901 4.22513 1.5746 0
M  V30 2513 C 228.563 4.60029 1.41161 0
M  V30 2514 C 230.915 5.0844 1.14622 0
M  V30 2515 C 228.243 5.81144 0.80552 0
M  V30 2516 C 230.595 6.30167 0.55428 0
M  V30 2517 C 229.259 6.66426 0.378482 0
M  V30 2518 H 228.529 0.610428 0.420069 0
M  V30 2519 H 231.176 1.86512 0.434212 0
M  V30 2520 H 229.481 2.59248 2.93764 0
M  V30 2521 H 231.178 2.92933 2.73845 0
M  V30 2522 H 227.768 3.92953 1.71132 0
M  V30 2523 H 231.952 4.80034 1.26021 0
M  V30 2524 H 227.208 6.07855 0.657399 0
M  V30 2525 H 231.382 6.96071 0.213983 0
M  V30 2526 H 229.009 7.60143 -0.0932606 0
M  V30 2527 N 230.584 -0.659388 1.43143 0
M  V30 2528 C 231.531 -1.77249 1.47822 0
M  V30 2529 C 232.501 -1.62818 0.328558 0
M  V30 2530 O 233.686 -1.83151 0.534838 0
M  V30 2531 C 230.826 -3.15371 1.40126 0
M  V30 2532 C 229.939 -3.4098 2.65249 0
M  V30 2533 C 229.074 -4.68915 2.49584 0
M  V30 2534 C 228.113 -4.87608 3.70006 0
M  V30 2535 N 227.25 -6.06796 3.53189 0
M  V30 2536 H 232.09 -1.72584 2.42938 0
M  V30 2537 H 229.627 -0.842297 1.20598 0
M  V30 2538 H 231.585 -3.9521 1.33659 0
M  V30 2539 H 230.215 -3.19121 0.485964 0
M  V30 2540 H 229.267 -2.55282 2.8202 0
M  V30 2541 H 230.579 -3.50681 3.54717 0
M  V30 2542 H 229.733 -5.56871 2.4079 0
M  V30 2543 H 228.472 -4.61524 1.5763 0
M  V30 2544 H 227.477 -3.9809 3.79215 0
M  V30 2545 H 228.702 -4.96834 4.62961 0
M  V30 2546 H 226.648 -6.00549 2.63965 0
M  V30 2547 H 226.565 -6.17428 4.36255 0
M  V30 2548 H 227.833 -6.9739 3.48236 0
M  V30 2549 N 232.062 -1.29571 -0.897171 0
M  V30 2550 C 233.292 -1.20408 -1.67886 0
M  V30 2551 C 233.7 0.237429 -1.87704 0
M  V30 2552 O 233.043 1.17048 -1.41582 0
M  V30 2553 C 233.105 -1.84887 -3.08314 0
M  V30 2554 C 232.769 -3.34189 -3.11716 0
M  V30 2555 C 233.766 -4.30374 -2.91675 0
M  V30 2556 C 231.451 -3.75431 -3.33701 0
M  V30 2557 C 233.445 -5.65776 -2.93557 0
M  V30 2558 C 231.132 -5.10955 -3.35214 0
M  V30 2559 C 232.13 -6.05938 -3.15164 0
M  V30 2560 O 231.818 -7.38987 -3.1647 0
M  V30 2561 H 231.55 -0.418289 -0.531046 0
M  V30 2562 H 234.104 -1.71514 -1.13014 0
M  V30 2563 H 232.334 -1.28295 -3.64798 0
M  V30 2564 H 234.023 -1.70011 -3.6858 0
M  V30 2565 H 234.789 -3.99844 -2.74499 0
M  V30 2566 H 230.668 -3.01953 -3.48347 0
M  V30 2567 H 234.212 -6.39889 -2.77826 0
M  V30 2568 H 230.109 -5.4113 -3.51922 0
M  V30 2569 H 230.877 -7.47823 -3.3272 0
M  V30 2570 N 233.54 1.10788 -1.12088 0
M  V30 2571 C 234.488 2.19111 -0.780587 0
M  V30 2572 C 235.482 1.67818 0.230961 0
M  V30 2573 O 236.688 1.79777 0.0895427 0
M  V30 2574 H 233.063 0.714477 -0.234578 0
M  V30 2575 H 235.034 2.45055 -1.70266 0
M  V30 2576 C 233.783 3.46818 -0.24747 0
M  V30 2577 H 233.106 3.86646 -1.01712 0
M  V30 2578 H 234.546 4.23973 -0.0476291 0
M  V30 2579 C 233.005 3.20968 1.02378 0
M  V30 2580 O 233.535 3.42298 2.10226 0
M  V30 2581 N 231.741 2.74658 0.949271 0
M  V30 2582 H 231.288 2.57501 0.0715173 0
M  V30 2583 H 231.246 2.57739 1.80049 0
M  V30 2584 N 235.018 0.912232 1.28515 0
M  V30 2585 C 236.429 0.591352 1.77087 0
M  V30 2586 C 236.78 -0.8933 1.74684 0
M  V30 2587 O 235.905 -1.69876 1.34056 0
M  V30 2588 C 236.5 1.06668 3.2157 0
M  V30 2589 C 235.059 0.79675 3.67871 0
M  V30 2590 C 234.206 1.23427 2.48316 0
M  V30 2591 H 237.157 1.09365 1.15 0
M  V30 2592 H 237.178 0.407455 3.78312 0
M  V30 2593 H 236.69 2.14726 3.23287 0
M  V30 2594 H 234.791 -0.270679 3.71616 0
M  V30 2595 H 234.904 1.40343 4.58084 0
M  V30 2596 H 233.268 0.653036 2.46186 0
M  V30 2597 H 234.051 2.32316 2.52753 0
M  V30 2598 N 236.496 -1.42363 0.676048 0
M  V30 2599 C 237.773 -1.95183 0.127726 0
M  V30 2600 C 238.153 -1.61641 -1.35777 0
M  V30 2601 O 237.501 -0.913216 -2.09458 0
M  V30 2602 C 237.711 -3.46721 0.398199 0
M  V30 2603 C 239.059 -4.23427 0.315383 0
M  V30 2604 O 240.083 -3.54649 0.332016 0
M  V30 2605 O 238.942 -5.45888 0.25865 0
M  V30 2606 H 236.036 -0.826992 0.00359427 0
M  V30 2607 H 238.582 -1.52184 0.750864 0
M  V30 2608 H 237.354 -3.64344 1.4272 0
M  V30 2609 H 236.977 -3.96769 -0.256885 0
M  V30 2610 N 237.974 -0.419461 -1.51915 0
M  V30 2611 C 238.884 0.407528 -2.31033 0
M  V30 2612 C 239.9 1.04413 -1.3919 0
M  V30 2613 O 241.076 1.0434 -1.72265 0
M  V30 2614 C 238.141 1.50365 -3.12396 0
M  V30 2615 C 237.202 0.889029 -4.19994 0
M  V30 2616 C 236.435 1.93291 -4.97468 0
M  V30 2617 O 236.658 3.15259 -4.75361 0
M  V30 2618 O 235.592 1.53339 -5.8204 0
M  V30 2619 H 239.418 -0.237865 -3.02767 0
M  V30 2620 H 237.003 -0.182413 -1.48282 0
M  V30 2621 H 238.885 2.13975 -3.63032 0
M  V30 2622 H 237.56 2.13345 -2.43445 0
M  V30 2623 H 236.467 0.215353 -3.7348 0
M  V30 2624 H 237.8 0.302991 -4.91267 0
M  V30 2625 N 239.452 1.56882 -0.150215 0
M  V30 2626 C 240.399 2.16922 0.788244 0
M  V30 2627 C 241.369 1.10303 1.24187 0
M  V30 2628 O 242.554 1.38359 1.31383 0
M  V30 2629 C 239.694 2.79754 2.02068 0
M  V30 2630 C 238.807 4.00775 1.61257 0
M  V30 2631 C 237.942 4.51595 2.79705 0
M  V30 2632 C 236.981 5.65074 2.35282 0
M  V30 2633 N 236.118 6.10499 3.4675 0
M  V30 2634 H 240.958 2.96779 0.269444 0
M  V30 2635 H 238.495 1.46599 0.12128 0
M  V30 2636 H 240.453 3.14329 2.74323 0
M  V30 2637 H 239.083 2.02536 2.51354 0
M  V30 2638 H 238.135 3.72158 0.787553 0
M  V30 2639 H 239.447 4.82978 1.24633 0
M  V30 2640 H 238.601 4.88242 3.60145 0
M  V30 2641 H 237.34 3.68406 3.19576 0
M  V30 2642 H 236.345 5.28 1.53283 0
M  V30 2643 H 237.57 6.50052 1.96493 0
M  V30 2644 H 235.516 5.30243 3.86236 0
M  V30 2645 H 235.433 6.87637 3.14152 0
M  V30 2646 H 236.701 6.51791 4.27537 0
M  V30 2647 N 240.93 -0.123565 1.57115 0
M  V30 2648 C 241.878 -1.17082 2.00984 0
M  V30 2649 C 242.872 -1.43136 0.906009 0
M  V30 2650 O 244.078 -1.43152 1.09121 0
M  V30 2651 H 240.453 -0.394653 0.64012 0
M  V30 2652 H 242.424 -0.774292 2.88179 0
M  V30 2653 C 241.173 -2.49057 2.42623 0
M  V30 2654 H 240.496 -2.29846 3.27125 0
M  V30 2655 H 241.936 -3.20906 2.7712 0
M  V30 2656 C 240.395 -3.11305 1.28805 0
M  V30 2657 O 240.925 -3.97171 0.60153 0
M  V30 2658 N 239.131 -2.71111 1.04628 0
M  V30 2659 H 238.678 -2.01382 1.60634 0
M  V30 2660 H 238.636 -3.1309 0.286685 0
M  V30 2661 N 242.408 -1.52605 -0.393616 0
M  V30 2662 C 243.638 -1.71046 -1.15874 0
M  V30 2663 C 244.046 -0.426483 -1.84331 0
M  V30 2664 O 243.389 0.608513 -1.73329 0
M  V30 2665 C 243.451 -2.80118 -2.25332 0
M  V30 2666 C 243.115 -4.21381 -1.76881 0
M  V30 2667 C 244.112 -5.04697 -1.24808 0
M  V30 2668 C 241.797 -4.67683 -1.83244 0
M  V30 2669 C 243.791 -6.32393 -0.797387 0
M  V30 2670 C 241.478 -5.95364 -1.37787 0
M  V30 2671 C 242.476 -6.77549 -0.861208 0
M  V30 2672 O 242.164 -8.02837 -0.413252 0
M  V30 2673 H 241.896 -0.576155 -0.353583 0
M  V30 2674 H 244.45 -2.00018 -0.467123 0
M  V30 2675 H 242.68 -2.46557 -2.97904 0
M  V30 2676 H 244.369 -2.87006 -2.87023 0
M  V30 2677 H 245.135 -4.70111 -1.19252 0
M  V30 2678 H 241.014 -4.03805 -2.22401 0
M  V30 2679 H 244.558 -6.9649 -0.393437 0
M  V30 2680 H 240.455 -6.29455 -1.43026 0
M  V30 2681 H 241.223 -8.16749 -0.53515 0
M  V30 2682 N 243.887 0.651787 -1.4349 0
M  V30 2683 C 245.164 1.40909 -1.35661 0
M  V30 2684 C 245.544 2.11099 -0.00511733 0
M  V30 2685 O 244.892 2.04892 1.0115 0
M  V30 2686 C 245.102 2.3926 -2.54078 0
M  V30 2687 C 246.45 3.03217 -2.97228 0
M  V30 2688 O 247.474 2.49588 -2.54135 0
M  V30 2689 O 246.333 4.00455 -3.71885 0
M  V30 2690 H 243.427 0.629625 -0.536191 0
M  V30 2691 H 245.973 0.678575 -1.55542 0
M  V30 2692 H 244.745 1.86352 -3.44076 0
M  V30 2693 H 244.368 3.1976 -2.36303 0
M  V30 2694 N 245.365 1.30045 0.890287 0
M  V30 2695 C 246.59 1.21598 1.68014 0
M  V30 2696 C 247.015 -0.218678 1.86825 0
M  V30 2697 O 246.373 -1.15756 1.39536 0
M  V30 2698 C 246.421 1.94434 3.03691 0
M  V30 2699 O 245.525 1.2678 3.92429 0
M  V30 2700 H 244.866 0.420856 0.513592 0
M  V30 2701 H 247.396 1.71775 1.11151 0
M  V30 2702 H 247.406 2.03251 3.5377 0
M  V30 2703 H 246.081 2.98777 2.89318 0
M  V30 2704 H 244.658 1.26282 3.50866 0
M  V30 2705 N 246.843 -1.10192 1.12674 0
M  V30 2706 C 248.071 -1.85983 0.906527 0
M  V30 2707 C 248.486 -1.80783 -0.544333 0
M  V30 2708 O 247.843 -1.19834 -1.37645 0
M  V30 2709 C 247.894 -3.34281 1.37618 0
M  V30 2710 O 247.615 -3.39401 2.77017 0
M  V30 2711 C 249.116 -4.26938 1.19325 0
M  V30 2712 H 246.336 -0.587716 0.323775 0
M  V30 2713 H 248.88 -1.39284 1.49734 0
M  V30 2714 H 247.035 -3.78436 0.828539 0
M  V30 2715 H 247.449 -4.31838 2.97684 0
M  V30 2716 H 248.923 -5.29181 1.57071 0
M  V30 2717 H 249.4 -4.38995 0.134097 0
M  V30 2718 H 250.006 -3.8859 1.72852 0
M  V30 2719 N 248.321 -0.919034 -1.28029 0
M  V30 2720 C 249.561 -0.562107 -1.96519 0
M  V30 2721 C 249.925 0.878784 -1.70708 0
M  V30 2722 O 251.126 1.34355 -2.32813 0
M  V30 2723 C 249.397 -0.868953 -3.46676 0
M  V30 2724 S 250.956 -0.619237 -4.34409 0
M  V30 2725 H 247.774 -0.2078 -0.679956 0
M  V30 2726 H 250.376 -1.18562 -1.55446 0
M  V30 2727 H 249.08 -1.91547 -3.62957 0
M  V30 2728 H 248.611 -0.234301 -3.92702 0
M  V30 2729 H 250.626 0.526995 -4.93394 0
M  V30 2730 N 249.799 1.42003 -0.683588 0
M  V30 2731 C 251.047 2.01015 -0.209101 0
M  V30 2732 C 251.368 1.54365 1.19149 0
M  V30 2733 O 250.638 0.769083 1.80172 0
M  V30 2734 H 249.218 0.743294 -0.074315 0
M  V30 2735 H 251.88 1.73798 -0.882066 0
M  V30 2736 H 250.976 3.11343 -0.2172 0
M  V30 2737 N 251.277 0.427512 1.51691 0
M  V30 2738 C 252.21 -0.433876 2.24037 0
M  V30 2739 C 253.188 -1.03287 1.25581 0
M  V30 2740 O 254.372 -1.07722 1.54688 0
M  V30 2741 C 251.499 -1.60385 2.98319 0
M  V30 2742 C 250.545 -1.12648 4.11355 0
M  V30 2743 S 251.378 -0.076543 5.35445 0
M  V30 2744 C 252.534 -1.25141 6.13262 0
M  V30 2745 H 252.767 0.180367 2.96752 0
M  V30 2746 H 250.3 0.211946 1.52938 0
M  V30 2747 H 252.258 -2.27462 3.41718 0
M  V30 2748 H 250.919 -2.18948 2.25213 0
M  V30 2749 H 250.112 -2.0011 4.62571 0
M  V30 2750 H 249.714 -0.534088 3.70167 0
M  V30 2751 H 252.006 -2.17162 6.41753 0
M  V30 2752 H 252.949 -0.779411 7.03797 0
M  V30 2753 H 253.357 -1.48553 5.44603 0
M  V30 2754 N 252.755 -1.56801 0.158532 0
M  V30 2755 C 254.032 -1.88131 -0.535357 0
M  V30 2756 C 254.412 -1.06638 -1.82186 0
M  V30 2757 O 253.76 -0.156533 -2.27963 0
M  V30 2758 C 253.97 -3.39949 -0.789653 0
M  V30 2759 C 255.318 -4.09416 -1.12533 0
M  V30 2760 O 256.342 -3.45194 -0.878622 0
M  V30 2761 O 255.201 -5.22855 -1.59014 0
M  V30 2762 H 252.295 -0.780143 -0.27442 0
M  V30 2763 H 254.841 -1.68564 0.19601 0
M  V30 2764 H 253.613 -3.91115 0.120353 0
M  V30 2765 H 253.236 -3.65084 -1.57479 0
M  V30 2766 N 254.233 0.115231 -1.57178 0
M  V30 2767 C 255.481 0.820727 -1.84685 0
M  V30 2768 C 255.802 1.80237 -0.744279 0
M  V30 2769 O 255.072 1.94529 0.231375 0
M  V30 2770 H 253.652 0.306084 -0.681411 0
M  V30 2771 H 256.314 0.101656 -1.94635 0
M  V30 2772 H 255.41 1.36366 -2.80733 0
M  V30 2773 N 255.711 1.52812 0.385517 0
M  V30 2774 C 256.957 1.68275 1.13188 0
M  V30 2775 C 257.29 0.423179 1.89533 0
M  V30 2776 O 256.565 -0.579113 1.85679 0
M  V30 2777 C 256.848 2.92001 2.1073 0
M  V30 2778 C 256.701 4.28067 1.38125 0
M  V30 2779 C 258.02 3.11283 3.11113 0
M  V30 2780 H 255.139 0.612352 0.410115 0
M  V30 2781 H 257.781 1.85415 0.414869 0
M  V30 2782 H 255.931 2.77519 2.71874 0
M  V30 2783 H 257.603 4.54324 0.799187 0
M  V30 2784 H 255.846 4.28388 0.683092 0
M  V30 2785 H 256.517 5.10733 2.09417 0
M  V30 2786 H 258.993 3.2482 2.6006 0
M  V30 2787 H 257.869 3.99325 3.76605 0
M  V30 2788 H 258.13 2.25656 3.80173 0
M  V30 2789 N 257.189 -0.644168 1.43834 0
M  V30 2790 C 258.119 -1.76814 1.52509 0
M  V30 2791 C 259.1 -1.65823 0.379052 0
M  V30 2792 O 260.285 -1.84781 0.597466 0
M  V30 2793 C 257.415 -3.15288 1.4564 0
M  V30 2794 C 256.369 -3.41053 2.58586 0
M  V30 2795 C 255.695 -4.79421 2.36769 0
M  V30 2796 C 256.995 -3.34902 4.00797 0
M  V30 2797 H 258.689 -1.69812 2.46586 0
M  V30 2798 H 256.235 -0.815542 1.1868 0
M  V30 2799 H 258.188 -3.93681 1.50311 0
M  V30 2800 H 256.912 -3.23043 0.480725 0
M  V30 2801 H 255.571 -2.65035 2.53282 0
M  V30 2802 H 255.219 -4.83863 1.37424 0
M  V30 2803 H 254.919 -4.9762 3.12487 0
M  V30 2804 H 256.443 -5.6006 2.43238 0
M  V30 2805 H 257.857 -4.03218 4.07539 0
M  V30 2806 H 256.254 -3.64637 4.76613 0
M  V30 2807 H 257.324 -2.32928 4.25291 0
M  V30 2808 N 258.668 -1.30515 -0.883378 0
M  V30 2809 C 259.914 -1.20617 -1.63778 0
M  V30 2810 C 260.269 0.236469 -1.90941 0
M  V30 2811 O 259.562 1.16596 -1.52039 0
M  V30 2812 C 259.756 -1.96994 -2.98209 0
M  V30 2813 C 259.585 -3.48537 -2.84169 0
M  V30 2814 C 258.355 -4.17893 -2.84067 0
M  V30 2815 C 260.553 -4.43738 -2.60001 0
M  V30 2816 N 258.535 -5.55685 -2.60936 0
M  V30 2817 C 259.906 -5.69105 -2.46007 0
M  V30 2818 C 261.961 -4.33316 -2.45239 0
M  V30 2819 C 260.664 -6.8523 -2.18752 0
M  V30 2820 C 262.69 -5.4921 -2.19369 0
M  V30 2821 C 262.052 -6.73558 -2.06153 0
M  V30 2822 H 258.151 -0.496434 -0.604216 0
M  V30 2823 H 260.735 -1.64544 -1.04083 0
M  V30 2824 H 258.906 -1.55455 -3.55933 0
M  V30 2825 H 260.638 -1.79225 -3.62851 0
M  V30 2826 H 257.393 -3.69739 -2.95956 0
M  V30 2827 H 257.817 -6.28199 -2.52378 0
M  V30 2828 H 262.459 -3.37856 -2.54191 0
M  V30 2829 H 260.177 -7.80729 -2.08537 0
M  V30 2830 H 263.763 -5.43054 -2.08766 0
M  V30 2831 H 262.643 -7.61721 -1.86416 0
M  V30 2832 N 260.146 1.09593 -1.13257 0
M  V30 2833 C 261.109 2.14359 -0.811358 0
M  V30 2834 C 262.109 1.59808 0.178377 0
M  V30 2835 O 263.299 1.74132 -0.0484911 0
M  V30 2836 C 260.431 3.40269 -0.207276 0
M  V30 2837 H 261.624 2.44284 -1.73969 0
M  V30 2838 H 259.177 1.25102 -0.936973 0
M  V30 2839 H 259.912 3.15969 0.73036 0
M  V30 2840 H 259.697 3.81154 -0.919992 0
M  V30 2841 H 261.187 4.176 0.000667944 0
M  V30 2842 N 261.624 0.925811 1.2754 0
M  V30 2843 C 262.574 0.394488 2.24561 0
M  V30 2844 C 263.558 -0.500183 1.52928 0
M  V30 2845 O 264.75 -0.337936 1.73744 0
M  V30 2846 C 261.879 -0.353328 3.41477 0
M  V30 2847 C 260.965 0.557752 4.20416 0
M  V30 2848 N 261.356 1.67674 4.77199 0
M  V30 2849 C 259.654 0.360404 4.44541 0
M  V30 2850 C 260.355 2.24324 5.36706 0
M  V30 2851 N 259.331 1.53305 5.21535 0
M  V30 2852 H 263.133 1.2489 2.66045 0
M  V30 2853 H 260.647 0.779864 1.4245 0
M  V30 2854 H 262.644 -0.7509 4.10082 0
M  V30 2855 H 261.304 -1.20469 3.01525 0
M  V30 2856 H 262.315 2.05915 4.75204 0
M  V30 2857 H 258.992 -0.450454 4.15063 0
M  V30 2858 H 260.382 3.18521 5.91603 0
M  V30 2859 N 263.102 -1.41638 0.69111 0
M  V30 2860 C 264.379 -1.95036 0.148421 0
M  V30 2861 C 264.759 -1.63072 -1.34055 0
M  V30 2862 O 264.107 -0.93538 -2.08478 0
M  V30 2863 C 264.317 -3.46279 0.434951 0
M  V30 2864 C 265.665 -4.23069 0.360275 0
M  V30 2865 O 266.689 -3.54277 0.369613 0
M  V30 2866 O 265.548 -5.45583 0.316534 0
M  V30 2867 H 262.642 -0.826908 0.0123654 0
M  V30 2868 H 265.188 -1.5138 0.766963 0
M  V30 2869 H 263.96 -3.6281 1.46576 0
M  V30 2870 H 263.583 -3.97019 -0.214787 0
M  V30 2871 N 264.58 -0.43555 -1.51462 0
M  V30 2872 C 265.51 0.367376 -2.30592 0
M  V30 2873 C 266.491 1.02263 -1.35928 0
M  V30 2874 O 267.676 1.02661 -1.64847 0
M  V30 2875 C 264.806 1.46983 -3.14664 0
M  V30 2876 C 263.76 0.938161 -4.17591 0
M  V30 2877 C 263.086 2.13622 -4.90173 0
M  V30 2878 C 264.386 -0.0261621 -5.22293 0
M  V30 2879 H 266.08 -0.292969 -2.97963 0
M  V30 2880 H 263.626 -0.14234 -1.43295 0
M  V30 2881 H 265.579 2.03873 -3.688 0
M  V30 2882 H 264.303 2.15843 -2.4511 0
M  V30 2883 H 262.962 0.391481 -3.64504 0
M  V30 2884 H 262.61 2.81098 -4.17124 0
M  V30 2885 H 262.31 1.78688 -5.59772 0
M  V30 2886 H 263.834 2.7107 -5.47132 0
M  V30 2887 H 265.248 0.452384 -5.71512 0
M  V30 2888 H 263.645 -0.287992 -5.99409 0
M  V30 2889 H 264.715 -0.963391 -4.75233 0
M  V30 2890 N 266.058 1.56714 -0.166846 0
M  V30 2891 C 266.99 2.14914 0.796537 0
M  V30 2892 C 268.003 1.10357 1.19688 0
M  V30 2893 O 269.192 1.37561 1.13751 0
M  V30 2894 C 266.292 2.67326 2.08303 0
M  V30 2895 C 265.465 3.96493 1.84696 0
M  V30 2896 C 264.524 4.34014 2.97521 0
M  V30 2897 O 263.55 5.01973 2.6835 0
M  V30 2898 N 264.752 3.95208 4.25196 0
M  V30 2899 H 267.517 2.98205 0.299006 0
M  V30 2900 H 265.078 1.61892 0.0160839 0
M  V30 2901 H 267.07 2.89428 2.82867 0
M  V30 2902 H 265.64 1.88649 2.4926 0
M  V30 2903 H 264.86 3.82814 0.940602 0
M  V30 2904 H 266.148 4.8086 1.66285 0
M  V30 2905 H 265.546 3.40487 4.51758 0
M  V30 2906 H 264.103 4.2232 4.96477 0
M  V30 2907 N 267.536 -0.106894 1.57237 0
M  V30 2908 C 268.468 -1.15646 1.97885 0
M  V30 2909 C 269.481 -1.36981 0.879779 0
M  V30 2910 O 270.67 -1.35841 1.15799 0
M  V30 2911 C 267.77 -2.51425 2.27241 0
M  V30 2912 C 266.943 -2.50529 3.58545 0
M  V30 2913 C 266.002 -3.68145 3.75973 0
M  V30 2914 O 265.028 -3.51176 4.47956 0
M  V30 2915 N 266.23 -4.87177 3.15656 0
M  V30 2916 H 268.995 -0.81059 2.8853 0
M  V30 2917 H 266.556 -0.296024 1.59171 0
M  V30 2918 H 268.548 -3.28689 2.36105 0
M  V30 2919 H 267.118 -2.78147 1.42663 0
M  V30 2920 H 266.338 -1.58894 3.60758 0
M  V30 2921 H 267.626 -2.46997 4.44826 0
M  V30 2922 H 267.024 -5.03868 2.57165 0
M  V30 2923 H 265.581 -5.62075 3.30023 0
M  V30 2924 N 269.014 -1.53014 -0.377408 0
M  V30 2925 C 269.962 -1.7927 -1.48206 0
M  V30 2926 C 270.956 -0.661195 -1.55963 0
M  V30 2927 O 272.162 -0.843908 -1.58991 0
M  V30 2928 H 268.537 -0.567425 -0.493491 0
M  V30 2929 H 270.508 -2.71753 -1.2326 0
M  V30 2930 C 269.257 -1.98894 -2.85196 0
M  V30 2931 H 268.58 -2.85395 -2.79981 0
M  V30 2932 H 270.02 -2.21249 -3.61698 0
M  V30 2933 C 268.479 -0.764691 -3.28107 0
M  V30 2934 O 269.009 0.0523226 -4.01666 0
M  V30 2935 N 267.215 -0.591493 -2.84517 0
M  V30 2936 H 266.762 -1.25749 -2.24822 0
M  V30 2937 H 266.72 0.226253 -3.13585 0
M  V30 2938 N 270.492 0.636531 -1.44174 0
M  V30 2939 C 271.741 1.39213 -1.45954 0
M  V30 2940 C 272.054 1.95374 -0.0939119 0
M  V30 2941 O 273.26 2.71498 0.0107767 0
M  V30 2942 C 271.716 2.52025 -2.56927 0
M  V30 2943 C 271.324 2.024 -3.99673 0
M  V30 2944 C 273.068 3.29269 -2.67922 0
M  V30 2945 C 270.975 3.12521 -5.0208 0
M  V30 2946 H 269.905 0.523132 -0.542999 0
M  V30 2947 H 272.556 0.685349 -1.70221 0
M  V30 2948 H 270.938 3.25253 -2.25891 0
M  V30 2949 H 272.112 1.36073 -4.40251 0
M  V30 2950 H 270.427 1.37987 -3.92872 0
M  V30 2951 H 273.024 4.11352 -3.41605 0
M  V30 2952 H 273.367 3.78397 -1.73555 0
M  V30 2953 H 273.9 2.63129 -2.98342 0
M  V30 2954 H 270.639 2.68343 -5.98057 0
M  V30 2955 H 270.159 3.77507 -4.66099 0
M  V30 2956 H 271.838 3.77385 -5.25538 0
M  V30 2957 N 271.97 1.30982 0.876444 0
M  V30 2958 C 272.933 1.18054 1.96459 0
M  V30 2959 C 273.933 0.109399 1.60427 0
M  V30 2960 O 275.123 0.358173 1.70478 0
M  V30 2961 C 272.255 0.810616 3.31122 0
M  V30 2962 H 273.448 2.14735 2.09354 0
M  V30 2963 H 271.001 1.145 1.06392 0
M  V30 2964 H 271.736 -0.155322 3.23928 0
M  V30 2965 H 271.521 1.58481 3.58645 0
M  V30 2966 H 273.011 0.743876 4.10921 0
M  V30 2967 N 273.449 -1.08991 1.13837 0
M  V30 2968 C 274.379 -2.17771 0.842507 0
M  V30 2969 C 275.36 -1.6892 -0.20001 0
M  V30 2970 O 276.545 -1.94113 -0.0579731 0
M  V30 2971 C 273.675 -3.4589 0.312644 0
M  V30 2972 C 272.629 -4.08099 1.28992 0
M  V30 2973 C 271.955 -5.31098 0.619623 0
M  V30 2974 C 273.255 -4.50077 2.65005 0
M  V30 2975 H 274.949 -2.42777 1.75213 0
M  V30 2976 H 272.495 -1.16682 0.843875 0
M  V30 2977 H 274.448 -4.21297 0.0933043 0
M  V30 2978 H 273.172 -3.20419 -0.632382 0
M  V30 2979 H 271.831 -3.34717 1.49533 0
M  V30 2980 H 271.479 -5.0191 -0.33102 0
M  V30 2981 H 271.179 -5.73674 1.27167 0
M  V30 2982 H 272.703 -6.09224 0.409669 0
M  V30 2983 H 274.117 -5.16688 2.48407 0
M  V30 2984 H 272.514 -5.03553 3.26427 0
M  V30 2985 H 273.584 -3.62257 3.22332 0
M  V30 2986 N 274.927 -0.932562 -1.27047 0
M  V30 2987 C 276.338 -0.619451 -1.76124 0
M  V30 2988 C 276.689 0.865397 -1.76083 0
M  V30 2989 O 275.814 1.67722 -1.36742 0
M  V30 2990 C 276.409 -1.11771 -3.19832 0
M  V30 2991 C 274.968 -0.855174 -3.66557 0
M  V30 2992 C 274.115 -1.27362 -2.46321 0
M  V30 2993 H 277.066 -1.11181 -1.13245 0
M  V30 2994 H 277.087 -0.46759 -3.77616 0
M  V30 2995 H 276.599 -2.19842 -3.1983 0
M  V30 2996 H 274.7 0.211524 -3.71999 0
M  V30 2997 H 274.813 -1.47613 -4.55793 0
M  V30 2998 H 273.177 -0.692119 -2.45116 0
M  V30 2999 H 273.96 -2.36307 -2.49025 0
M  V30 3000 N 276.405 1.4127 -0.698611 0
M  V30 3001 C 277.368 2.29158 -0.044132 0
M  V30 3002 C 278.368 1.44529 0.704841 0
M  V30 3003 O 279.558 1.65643 0.539276 0
M  V30 3004 C 276.69 3.27459 0.947809 0
M  V30 3005 H 277.883 2.88529 -0.817994 0
M  V30 3006 H 275.436 1.49307 -0.46228 0
M  V30 3007 H 276.171 2.73073 1.74933 0
M  V30 3008 H 275.956 3.8991 0.41385 0
M  V30 3009 H 277.446 3.93311 1.40344 0
M  V30 3010 N 277.883 0.443576 1.51229 0
M  V30 3011 C 279.111 -0.11929 2.06556 0
M  V30 3012 C 279.526 -1.35921 1.31038 0
M  V30 3013 O 278.883 -1.78675 0.371704 0
M  V30 3014 C 278.934 -0.435228 3.5887 0
M  V30 3015 O 278.655 0.755486 4.31537 0
M  V30 3016 C 280.156 -1.04808 4.30732 0
M  V30 3017 H 277.376 -0.0051584 0.67098 0
M  V30 3018 H 279.92 0.624453 1.94733 0
M  V30 3019 H 278.075 -1.12887 3.70588 0
M  V30 3020 H 278.489 0.483491 5.22267 0
M  V30 3021 H 279.963 -1.2191 5.3837 0
M  V30 3022 H 280.44 -2.03081 3.89429 0
M  V30 3023 H 281.046 -0.393637 4.23474 0
M  V30 3024 N 279.361 -1.56624 0.175154 0
M  V30 3025 C 280.308 -2.18149 -0.753634 0
M  V30 3026 C 281.278 -1.12265 -1.22417 0
M  V30 3027 O 282.463 -1.40432 -1.29165 0
M  V30 3028 C 279.603 -2.82933 -1.97592 0
M  V30 3029 C 278.716 -4.03289 -1.5486 0
M  V30 3030 C 277.851 -4.55988 -2.72485 0
M  V30 3031 C 276.89 -5.68746 -2.26262 0
M  V30 3032 N 276.027 -6.15938 -3.36994 0
M  V30 3033 H 280.867 -2.9717 -0.222195 0
M  V30 3034 H 278.404 -1.46774 -0.0979422 0
M  V30 3035 H 280.362 -3.18653 -2.69288 0
M  V30 3036 H 278.992 -2.06509 -2.481 0
M  V30 3037 H 278.044 -3.73364 -0.728246 0
M  V30 3038 H 279.356 -4.849 -1.16933 0
M  V30 3039 H 278.51 -4.9391 -3.52332 0
M  V30 3040 H 277.249 -3.73443 -3.13674 0
M  V30 3041 H 276.254 -5.30372 -1.44863 0
M  V30 3042 H 277.479 -6.53095 -1.86127 0
M  V30 3043 H 275.425 -5.36321 -3.77751 0
M  V30 3044 H 275.342 -6.92548 -3.03172 0
M  V30 3045 H 276.61 -6.58511 -4.17114 0
M  V30 3046 N 280.839 0.0985539 -1.57292 0
M  V30 3047 C 281.769 1.12064 -2.04851 0
M  V30 3048 C 282.75 1.41981 -0.936767 0
M  V30 3049 O 283.935 1.52071 -1.20781 0
M  V30 3050 C 281.065 2.44144 -2.47004 0
M  V30 3051 C 280.019 2.28643 -3.6181 0
M  V30 3052 C 279.345 3.65869 -3.89929 0
M  V30 3053 C 280.645 1.72986 -4.92822 0
M  V30 3054 H 282.339 0.724979 -2.9049 0
M  V30 3055 H 279.885 0.34729 -1.39749 0
M  V30 3056 H 281.838 3.15914 -2.78884 0
M  V30 3057 H 280.562 2.85639 -1.5836 0
M  V30 3058 H 279.221 1.59318 -3.30172 0
M  V30 3059 H 278.869 4.04885 -2.98458 0
M  V30 3060 H 278.569 3.56344 -4.67218 0
M  V30 3061 H 280.093 4.39112 -4.2428 0
M  V30 3062 H 281.507 2.34593 -5.23105 0
M  V30 3063 H 279.904 1.74229 -5.74251 0
M  V30 3064 H 280.974 0.689007 -4.7998 0
M  V30 3065 N 282.317 1.53212 0.369288 0
M  V30 3066 C 283.563 1.69466 1.11397 0
M  V30 3067 C 283.896 0.443257 1.89074 0
M  V30 3068 O 283.171 -0.559386 1.86282 0
M  V30 3069 C 283.454 2.9422 2.07621 0
M  V30 3070 C 283.307 4.29508 1.33577 0
M  V30 3071 C 284.626 3.14565 3.07794 0
M  V30 3072 H 281.745 0.616667 0.403597 0
M  V30 3073 H 284.387 1.85845 0.395179 0
M  V30 3074 H 282.537 2.80387 2.68916 0
M  V30 3075 H 284.209 4.55147 0.750955 0
M  V30 3076 H 282.452 4.29088 0.637618 0
M  V30 3077 H 283.123 5.12926 2.03989 0
M  V30 3078 H 285.599 3.2756 2.56601 0
M  V30 3079 H 284.475 4.03297 3.72348 0
M  V30 3080 H 284.736 2.29675 3.77759 0
M  V30 3081 N 283.795 -0.628877 1.44509 0
M  V30 3082 C 284.742 -1.74074 1.51549 0
M  V30 3083 C 285.712 -1.62084 0.363021 0
M  V30 3084 O 286.897 -1.81975 0.573567 0
M  V30 3085 C 284.037 -3.12328 1.46784 0
M  V30 3086 C 283.15 -3.35277 2.72422 0
M  V30 3087 C 282.285 -4.63515 2.59475 0
M  V30 3088 C 281.324 -4.7965 3.80266 0
M  V30 3089 N 280.461 -5.99168 3.65981 0
M  V30 3090 H 285.301 -1.67392 2.46544 0
M  V30 3091 H 282.838 -0.816527 1.22357 0
M  V30 3092 H 284.796 -3.92286 1.42012 0
M  V30 3093 H 283.426 -3.18018 0.553544 0
M  V30 3094 H 282.478 -2.49242 2.87372 0
M  V30 3095 H 283.79 -3.43078 3.62076 0
M  V30 3096 H 282.944 -5.51638 2.52548 0
M  V30 3097 H 281.683 -4.58076 1.67384 0
M  V30 3098 H 280.688 -3.89957 3.87574 0
M  V30 3099 H 281.913 -4.86902 4.73395 0
M  V30 3100 H 279.859 -5.94814 2.76644 0
M  V30 3101 H 279.776 -6.08035 4.49254 0
M  V30 3102 H 281.044 -6.89846 3.6295 0
M  V30 3103 N 285.273 -1.31445 -0.869486 0
M  V30 3104 C 286.203 -1.21727 -1.99261 0
M  V30 3105 C 287.184 -0.104359 -1.6978 0
M  V30 3106 O 288.369 -0.289038 -1.92037 0
M  V30 3107 C 285.499 -0.924317 -3.34774 0
M  V30 3108 C 284.453 -1.99685 -3.78563 0
M  V30 3109 C 283.779 -1.55658 -5.11541 0
M  V30 3110 C 285.079 -3.41003 -3.95619 0
M  V30 3111 H 286.773 -2.1569 -2.07649 0
M  V30 3112 H 284.319 -1.03839 -0.997675 0
M  V30 3113 H 286.272 -0.842934 -4.12883 0
M  V30 3114 H 284.996 0.0509793 -3.2656 0
M  V30 3115 H 283.655 -2.06813 -3.02694 0
M  V30 3116 H 283.303 -0.569132 -4.9977 0
M  V30 3117 H 283.003 -2.27409 -5.41811 0
M  V30 3118 H 284.527 -1.48928 -5.92159 0
M  V30 3119 H 285.941 -3.36547 -4.64122 0
M  V30 3120 H 284.338 -4.10975 -4.37286 0
M  V30 3121 H 285.408 -3.81754 -2.98985 0
M  V30 3122 N 286.751 1.08385 -1.14413 0
M  V30 3123 C 287.698 2.15311 -0.831265 0
M  V30 3124 C 288.668 1.64751 0.211292 0
M  V30 3125 O 289.853 1.90627 0.0811674 0
M  V30 3126 C 286.993 3.43658 -0.315143 0
M  V30 3127 C 286.106 4.08064 -1.41802 0
M  V30 3128 C 285.241 5.24207 -0.859126 0
M  V30 3129 C 284.28 5.80554 -1.93967 0
M  V30 3130 N 283.417 6.88042 -1.39793 0
M  V30 3131 H 288.257 2.41415 -1.74708 0
M  V30 3132 H 285.794 1.18474 -0.871909 0
M  V30 3133 H 287.752 4.172 0.00230884 0
M  V30 3134 H 286.382 3.17839 0.56378 0
M  V30 3135 H 285.434 3.3228 -1.85187 0
M  V30 3136 H 286.746 4.45962 -2.23427 0
M  V30 3137 H 285.9 6.04689 -0.49359 0
M  V30 3138 H 284.639 4.87699 -0.011932 0
M  V30 3139 H 283.644 4.98725 -2.31415 0
M  V30 3140 H 284.869 6.19121 -2.79046 0
M  V30 3141 H 282.815 6.53493 -0.572919 0
M  V30 3142 H 282.732 7.24767 -2.15054 0
M  V30 3143 H 284 7.72255 -1.0603 0
M  V30 3144 N 288.23 0.939286 1.26551 0
M  V30 3145 C 289.507 0.5038 1.89001 0
M  V30 3146 C 289.887 -1.01854 1.84903 0
M  V30 3147 O 289.235 -1.87773 1.30206 0
M  V30 3148 C 289.445 1.063 3.32417 0
M  V30 3149 C 290.793 1.13051 4.09273 0
M  V30 3150 O 291.817 1.01345 3.41479 0
M  V30 3151 O 290.676 1.31233 5.30509 0
M  V30 3152 H 287.77 0.163897 0.810597 0
M  V30 3153 H 290.316 1.03173 1.34735 0
M  V30 3154 H 289.088 2.10665 3.29752 0
M  V30 3155 H 288.711 0.517408 3.94219 0
M  V30 3156 N 289.708 -1.40897 0.706093 0
M  V30 3157 C 291.124 -1.55042 0.37869 0
M  V30 3158 C 291.324 -1.67944 -1.11342 0
M  V30 3159 O 290.38 -1.66372 -1.89938 0
M  V30 3160 C 291.693 -2.78398 1.13643 0
M  V30 3161 C 293.241 -2.92206 1.12181 0
M  V30 3162 C 293.716 -4.18463 1.86152 0
M  V30 3163 N 295.207 -4.25443 1.83173 0
M  V30 3164 C 295.942 -5.2202 2.37239 0
M  V30 3165 N 295.438 -6.24563 2.99821 0
M  V30 3166 N 297.231 -5.14033 2.27435 0
M  V30 3167 H 289.382 -1.30769 1.67372 0
M  V30 3168 H 291.645 -0.631653 0.706907 0
M  V30 3169 H 291.351 -2.7511 2.19106 0
M  V30 3170 H 291.225 -3.70228 0.721853 0
M  V30 3171 H 293.612 -2.95004 0.0754171 0
M  V30 3172 H 293.693 -2.01521 1.57554 0
M  V30 3173 H 293.337 -4.16427 2.90776 0
M  V30 3174 H 293.267 -5.08141 1.38206 0
M  V30 3175 H 295.758 -3.51976 1.37556 0
M  V30 3176 H 296.071 -6.94665 3.38616 0
M  V30 3177 H 294.416 -6.25035 3.03902 0
M  V30 3178 H 297.607 -4.3285 1.78208 0
M  V30 3179 H 297.78 -5.89129 2.69873 0
M  V30 3180 N 291.186 -0.45159 -1.50991 0
M  V30 3181 C 292.133 0.352625 -2.2809 0
M  V30 3182 C 293.103 1.0044 -1.32291 0
M  V30 3183 O 294.288 1.02058 -1.6121 0
M  V30 3184 C 291.428 1.43983 -3.13629 0
M  V30 3185 C 290.541 0.804772 -4.24438 0
M  V30 3186 C 289.676 1.86822 -4.97263 0
M  V30 3187 C 288.715 1.21236 -5.99973 0
M  V30 3188 N 287.852 2.2178 -6.66152 0
M  V30 3189 H 292.692 -0.311186 -2.96371 0
M  V30 3190 H 290.229 -0.165308 -1.46168 0
M  V30 3191 H 292.187 2.08161 -3.61559 0
M  V30 3192 H 290.817 2.07307 -2.47434 0
M  V30 3193 H 289.869 0.0509129 -3.80366 0
M  V30 3194 H 291.181 0.286076 -4.97979 0
M  V30 3195 H 290.335 2.58628 -5.48813 0
M  V30 3196 H 289.074 2.42068 -4.23385 0
M  V30 3197 H 288.079 0.479828 -5.47702 0
M  V30 3198 H 289.304 0.667051 -6.75816 0
M  V30 3199 H 287.25 2.76079 -5.95077 0
M  V30 3200 H 287.167 1.74841 -7.35504 0
M  V30 3201 H 288.435 2.93026 -7.22327 0
M  V30 3202 N 292.664 1.56529 -0.183458 0
M  V30 3203 C 293.91 1.97537 0.459036 0
M  V30 3204 C 294.243 1.06989 1.62071 0
M  V30 3205 O 293.518 0.11948 1.94133 0
M  V30 3206 C 293.801 3.47874 0.930368 0
M  V30 3207 C 293.654 4.492 -0.232317 0
M  V30 3208 C 294.973 4.01612 1.79989 0
M  V30 3209 H 292.092 0.718204 0.165383 0
M  V30 3210 H 294.734 1.88042 -0.272038 0
M  V30 3211 H 292.884 3.56095 1.55333 0
M  V30 3212 H 294.556 4.53027 -0.86972 0
M  V30 3213 H 292.799 4.24657 -0.885928 0
M  V30 3214 H 293.47 5.51823 0.139796 0
M  V30 3215 H 295.946 3.96097 1.27461 0
M  V30 3216 H 294.822 5.07195 2.09867 0
M  V30 3217 H 295.083 3.46163 2.74998 0
M  V30 3218 N 294.142 -0.090211 1.57342 0
M  V30 3219 C 295.074 -1.13541 1.99101 0
M  V30 3220 C 296.087 -1.3604 0.894258 0
M  V30 3221 O 297.276 -1.34606 1.17233 0
M  V30 3222 C 294.376 -2.49001 2.29895 0
M  V30 3223 C 293.549 -2.46712 3.61182 0
M  V30 3224 C 292.608 -3.64136 3.79857 0
M  V30 3225 O 291.634 -3.46405 4.51655 0
M  V30 3226 N 292.836 -4.83802 3.20806 0
M  V30 3227 H 295.601 -0.779942 2.89373 0
M  V30 3228 H 293.162 -0.279125 1.59476 0
M  V30 3229 H 295.154 -3.26166 2.39578 0
M  V30 3230 H 293.724 -2.76619 1.45605 0
M  V30 3231 H 292.944 -1.55058 3.62423 0
M  V30 3232 H 294.232 -2.42265 4.4742 0
M  V30 3233 H 293.63 -5.01112 2.62494 0
M  V30 3234 H 292.187 -5.58543 3.35966 0
M  V30 3235 N 295.62 -1.53406 -0.361157 0
M  V30 3236 C 296.53 -1.83122 -1.4664 0
M  V30 3237 C 297.546 -0.719943 -1.58407 0
M  V30 3238 O 298.722 -1.01046 -1.74218 0
M  V30 3239 C 295.787 -2.01891 -2.81853 0
M  V30 3240 C 294.848 -3.25784 -2.79577 0
M  V30 3241 C 294.081 -3.43648 -4.0834 0
M  V30 3242 O 294.304 -2.65714 -5.0473 0
M  V30 3243 O 293.238 -4.37018 -4.13883 0
M  V30 3244 H 297.064 -2.7703 -1.24451 0
M  V30 3245 H 294.649 -1.38841 -0.551678 0
M  V30 3246 H 296.531 -2.15782 -3.61962 0
M  V30 3247 H 295.206 -1.11173 -3.0401 0
M  V30 3248 H 294.113 -3.17312 -1.98151 0
M  V30 3249 H 295.446 -4.16439 -2.62373 0
M  V30 3250 N 297.098 0.621204 -1.44841 0
M  V30 3251 C 298.048 1.72663 -1.48901 0
M  V30 3252 C 299.032 1.56964 -0.353702 0
M  V30 3253 O 300.224 1.66532 -0.599669 0
M  V30 3254 C 297.353 3.11381 -1.44557 0
M  V30 3255 C 296.439 3.32514 -2.6324 0
M  V30 3256 N 296.83 3.23969 -3.8843 0
M  V30 3257 C 295.128 3.63343 -2.58647 0
M  V30 3258 C 295.829 3.46062 -4.67564 0
M  V30 3259 N 294.805 3.69407 -3.98797 0
M  V30 3260 H 298.607 1.64529 -2.43531 0
M  V30 3261 H 296.121 0.82401 -1.39942 0
M  V30 3262 H 298.118 3.90667 -1.4555 0
M  V30 3263 H 296.778 3.20674 -0.509731 0
M  V30 3264 H 297.789 3.02669 -4.20252 0
M  V30 3265 H 294.466 3.79556 -1.73906 0
M  V30 3266 H 295.856 3.44963 -5.76585 0
M  V30 3267 N 298.576 1.31904 0.862503 0
M  V30 3268 C 299.486 1.22161 2.00285 0
M  V30 3269 C 300.502 0.136785 1.73462 0
M  V30 3270 O 301.678 0.355994 1.98229 0
M  V30 3271 C 298.743 0.937093 3.33796 0
M  V30 3272 C 297.804 2.10957 3.73893 0
M  V30 3273 C 297.037 1.83853 5.01033 0
M  V30 3274 O 297.26 0.777274 5.65079 0
M  V30 3275 O 296.194 2.69741 5.38074 0
M  V30 3276 H 300.02 2.18008 2.11439 0
M  V30 3277 H 297.605 1.11716 0.991957 0
M  V30 3278 H 299.487 0.794583 4.13841 0
M  V30 3279 H 298.162 0.00871894 3.23699 0
M  V30 3280 H 297.069 2.30752 2.94456 0
M  V30 3281 H 298.402 3.02046 3.88625 0
M  V30 3282 N 300.054 -1.07777 1.14986 0
M  V30 3283 C 301.001 -2.14867 0.842672 0
M  V30 3284 C 301.971 -1.6486 -0.202552 0
M  V30 3285 O 303.156 -1.90668 -0.0710568 0
M  V30 3286 C 300.296 -3.43486 0.333363 0
M  V30 3287 C 299.409 -4.07306 1.43965 0
M  V30 3288 C 298.544 -5.23744 0.886914 0
M  V30 3289 C 297.583 -5.79517 1.97043 0
M  V30 3290 N 296.72 -6.87291 1.4344 0
M  V30 3291 H 301.56 -2.40485 1.75986 0
M  V30 3292 H 299.097 -1.1801 0.878179 0
M  V30 3293 H 301.055 -4.17195 0.0198163 0
M  V30 3294 H 299.685 -3.18133 -0.546916 0
M  V30 3295 H 298.737 -3.31293 1.86946 0
M  V30 3296 H 300.049 -4.44771 2.25788 0
M  V30 3297 H 299.203 -6.04419 0.525651 0
M  V30 3298 H 297.942 -4.87685 0.0377957 0
M  V30 3299 H 296.947 -4.97491 2.34057 0
M  V30 3300 H 298.172 -6.17632 2.82325 0
M  V30 3301 H 296.118 -6.5318 0.607567 0
M  V30 3302 H 296.035 -7.23617 2.18895 0
M  V30 3303 H 297.303 -7.71682 1.10124 0
M  V30 3304 N 301.532 -0.945985 -1.26051 0
M  V30 3305 C 302.762 -0.612136 -1.97323 0
M  V30 3306 C 303.17 0.818171 -1.70595 0
M  V30 3307 O 302.513 1.55777 -0.973613 0
M  V30 3308 C 302.575 -0.780347 -3.50929 0
M  V30 3309 C 302.239 -2.18619 -4.01317 0
M  V30 3310 C 303.236 -3.16209 -4.12683 0
M  V30 3311 C 300.921 -2.50805 -4.35203 0
M  V30 3312 C 302.915 -4.44085 -4.57238 0
M  V30 3313 C 300.602 -3.78912 -4.79446 0
M  V30 3314 C 301.6 -4.75365 -4.90425 0
M  V30 3315 O 301.288 -6.01191 -5.3369 0
M  V30 3316 H 301.02 -0.229134 -0.635982 0
M  V30 3317 H 303.574 -1.27036 -1.61404 0
M  V30 3318 H 301.804 -0.0649864 -3.86645 0
M  V30 3319 H 303.493 -0.448842 -4.03411 0
M  V30 3320 H 304.259 -2.92668 -3.86744 0
M  V30 3321 H 300.138 -1.76463 -4.2589 0
M  V30 3322 H 303.682 -5.19373 -4.65723 0
M  V30 3323 H 299.579 -4.02265 -5.0483 0
M  V30 3324 H 300.347 -6.04442 -5.51899 0
M  V30 3325 N 303.011 1.40521 -0.713556 0
M  V30 3326 C 304.26 2.00155 -0.249192 0
M  V30 3327 C 304.573 1.57224 1.16362 0
M  V30 3328 O 305.779 2.09542 1.72639 0
M  V30 3329 C 304.235 3.5773 -0.3946 0
M  V30 3330 C 303.843 4.09635 -1.81392 0
M  V30 3331 C 305.587 4.24499 0.00907364 0
M  V30 3332 C 303.494 5.59707 -1.91003 0
M  V30 3333 H 302.424 0.74868 -0.0894114 0
M  V30 3334 H 305.075 1.60784 -0.884352 0
M  V30 3335 H 303.457 3.94792 0.30911 0
M  V30 3336 H 304.631 3.83955 -2.54785 0
M  V30 3337 H 302.946 3.55456 -2.16888 0
M  V30 3338 H 305.543 5.34683 -0.0420404 0
M  V30 3339 H 305.886 4.02824 1.05065 0
M  V30 3340 H 306.419 3.92536 -0.645007 0
M  V30 3341 H 303.158 5.86234 -2.93275 0
M  V30 3342 H 302.678 5.87258 -1.22019 0
M  V30 3343 H 304.357 6.24776 -1.6812 0
M  V30 3344 N 304.489 0.459591 1.5075 0
M  V30 3345 C 305.399 -0.34613 2.32033 0
M  V30 3346 C 306.415 -1.00686 1.41909 0
M  V30 3347 O 307.591 -0.997361 1.7497 0
M  V30 3348 C 304.656 -1.42029 3.16273 0
M  V30 3349 C 303.717 -0.777362 4.22203 0
M  V30 3350 C 302.95 -1.80034 5.02418 0
M  V30 3351 O 303.173 -3.02544 4.83553 0
M  V30 3352 O 302.107 -1.37853 5.85901 0
M  V30 3353 H 305.933 0.318054 3.0203 0
M  V30 3354 H 303.518 0.221663 1.47746 0
M  V30 3355 H 305.4 -2.04275 3.68578 0
M  V30 3356 H 304.075 -2.06815 2.49016 0
M  V30 3357 H 302.982 -0.116256 3.73919 0
M  V30 3358 H 304.315 -0.172634 4.91897 0
M  V30 3359 N 305.967 -1.56429 0.191757 0
M  V30 3360 C 307.197 -2.01574 -0.452928 0
M  V30 3361 C 307.605 -1.07107 -1.55964 0
M  V30 3362 O 306.948 -0.067534 -1.83576 0
M  V30 3363 C 307.01 -3.43121 -1.07278 0
M  V30 3364 C 306.674 -4.56879 -0.105214 0
M  V30 3365 C 307.671 -5.15379 0.684149 0
M  V30 3366 C 305.356 -5.023 0.00489824 0
M  V30 3367 C 307.35 -6.17746 1.57062 0
M  V30 3368 C 305.037 -6.04511 0.894935 0
M  V30 3369 C 306.035 -6.62108 1.67637 0
M  V30 3370 O 305.723 -7.62335 2.55149 0
M  V30 3371 H 305.455 -0.665554 -0.118379 0
M  V30 3372 H 308.009 -2.03245 0.296737 0
M  V30 3373 H 306.239 -3.38425 -1.87097 0
M  V30 3374 H 307.928 -3.72093 -1.62177 0
M  V30 3375 H 308.694 -4.81157 0.609365 0
M  V30 3376 H 304.573 -4.57168 -0.593156 0
M  V30 3377 H 308.117 -6.6263 2.181 0
M  V30 3378 H 304.014 -6.38157 0.970847 0
M  V30 3379 H 304.782 -7.79741 2.48892 0
M  V30 3380 N 307.445 0.0818655 -1.57387 0
M  V30 3381 C 308.675 0.794954 -1.90694 0
M  V30 3382 C 309.083 1.72147 -0.784982 0
M  V30 3383 O 308.426 1.81974 0.251196 0
M  V30 3384 C 308.488 1.65042 -3.19376 0
M  V30 3385 C 308.152 0.894337 -4.48164 0
M  V30 3386 C 309.149 0.21813 -5.19442 0
M  V30 3387 C 306.834 0.864495 -4.94805 0
M  V30 3388 C 308.828 -0.477802 -6.35607 0
M  V30 3389 C 306.515 0.164785 -6.10878 0
M  V30 3390 C 307.513 -0.505173 -6.81129 0
M  V30 3391 O 307.201 -1.19363 -7.94989 0
M  V30 3392 H 306.933 0.231779 -0.635023 0
M  V30 3393 H 309.487 0.059493 -2.05314 0
M  V30 3394 H 307.717 2.42844 -3.00938 0
M  V30 3395 H 309.406 2.24127 -3.38411 0
M  V30 3396 H 310.172 0.232558 -4.84442 0
M  V30 3397 H 306.051 1.37542 -4.40004 0
M  V30 3398 H 309.595 -1.00129 -6.90377 0
M  V30 3399 H 305.492 0.148249 -6.4533 0
M  V30 3400 H 306.26 -1.10188 -8.11049 0
M  V30 3401 N 308.923 1.53595 0.353017 0
M  V30 3402 C 309.853 1.83902 1.43883 0
M  V30 3403 C 310.834 0.693421 1.55324 0
M  V30 3404 O 312.019 0.944452 1.69687 0
M  V30 3405 C 309.149 2.04016 2.8106 0
M  V30 3406 C 308.103 3.19814 2.84434 0
M  V30 3407 C 307.429 3.25244 4.24406 0
M  V30 3408 C 308.729 4.58133 2.50822 0
M  V30 3409 H 310.423 2.74835 1.1877 0
M  V30 3410 H 307.969 1.32242 0.569917 0
M  V30 3411 H 309.922 2.238 3.57059 0
M  V30 3412 H 308.646 1.09804 3.07588 0
M  V30 3413 H 307.305 2.9987 2.10887 0
M  V30 3414 H 306.953 2.28646 4.48029 0
M  V30 3415 H 306.653 4.03054 4.27576 0
M  V30 3416 H 308.177 3.47228 5.0226 0
M  V30 3417 H 309.591 4.77995 3.16534 0
M  V30 3418 H 307.988 5.38276 2.6529 0
M  V30 3419 H 309.058 4.62387 1.46034 0
M  V30 3420 N 310.401 -0.613514 1.45168 0
M  V30 3421 C 311.647 -1.37471 1.49096 0
M  V30 3422 C 311.98 -1.93765 0.129901 0
M  V30 3423 O 311.255 -1.74707 -0.854858 0
M  V30 3424 C 311.538 -2.52701 2.56542 0
M  V30 3425 C 311.391 -2.01643 4.0207 0
M  V30 3426 C 312.71 -3.54849 2.60327 0
M  V30 3427 H 309.829 -0.498502 0.54283 0
M  V30 3428 H 312.471 -0.692125 1.76945 0
M  V30 3429 H 310.621 -3.10931 2.32926 0
M  V30 3430 H 312.293 -1.48108 4.36877 0
M  V30 3431 H 310.536 -1.32688 4.13009 0
M  V30 3432 H 311.207 -2.84681 4.72928 0
M  V30 3433 H 313.683 -3.0645 2.81474 0
M  V30 3434 H 312.559 -4.32973 3.37381 0
M  V30 3435 H 312.82 -4.10079 1.6519 0
M  V30 3436 N 311.879 -1.3236 -0.855495 0
M  V30 3437 C 312.809 -1.23833 -1.97958 0
M  V30 3438 C 313.79 -0.122361 -1.69659 0
M  V30 3439 O 314.975 -0.30939 -1.9172 0
M  V30 3440 C 312.105 -0.959772 -3.33775 0
M  V30 3441 C 311.059 -2.03689 -3.76424 0
M  V30 3442 C 310.385 -1.61075 -5.09862 0
M  V30 3443 C 311.685 -3.4518 -3.9198 0
M  V30 3444 H 313.379 -2.1788 -2.0535 0
M  V30 3445 H 310.925 -1.04891 -0.986605 0
M  V30 3446 H 312.878 -0.886678 -4.11966 0
M  V30 3447 H 311.602 0.0163404 -3.26596 0
M  V30 3448 H 310.261 -2.10012 -3.00484 0
M  V30 3449 H 309.909 -0.622107 -4.99138 0
M  V30 3450 H 309.609 -2.33143 -5.39368 0
M  V30 3451 H 311.133 -1.55201 -5.90546 0
M  V30 3452 H 312.547 -3.4145 -4.60526 0
M  V30 3453 H 310.944 -4.1559 -4.32903 0
M  V30 3454 H 312.014 -3.84903 -2.94919 0
M  V30 3455 N 313.357 1.07166 -1.15556 0
M  V30 3456 C 314.634 1.76546 -0.842069 0
M  V30 3457 C 315.014 2.00453 0.661939 0
M  V30 3458 O 314.362 1.62452 1.60691 0
M  V30 3459 C 314.572 3.07266 -1.65495 0
M  V30 3460 C 315.92 3.81578 -1.86234 0
M  V30 3461 O 316.944 3.17083 -1.62287 0
M  V30 3462 O 315.803 4.97419 -2.26355 0
M  V30 3463 H 312.897 0.766756 -0.309862 0
M  V30 3464 H 315.443 1.13514 -1.26145 0
M  V30 3465 H 314.215 2.85494 -2.67598 0
M  V30 3466 H 313.838 3.7803 -1.23203 0
M  V30 3467 N 314.835 0.952656 1.25548 0
M  V30 3468 C 315.783 0.462354 2.27958 0
M  V30 3469 C 316.777 -0.46634 1.62855 0
M  V30 3470 O 317.983 -0.343287 1.76696 0
M  V30 3471 H 314.358 0.13101 0.7405 0
M  V30 3472 H 316.329 1.33839 2.66702 0
M  V30 3473 C 315.078 -0.24628 3.46827 0
M  V30 3474 H 314.401 0.459192 3.97154 0
M  V30 3475 H 315.841 -0.553393 4.20373 0
M  V30 3476 C 314.3 -1.4681 3.0323 0
M  V30 3477 O 314.83 -2.56591 3.09069 0
M  V30 3478 N 313.036 -1.32874 2.58443 0
M  V30 3479 H 312.583 -0.435536 2.53891 0
M  V30 3480 H 312.541 -2.14742 2.29637 0
M  V30 3481 N 316.313 -1.40141 0.720998 0
M  V30 3482 C 317.561 -2.0039 0.262323 0
M  V30 3483 C 317.882 -1.57469 -1.15015 0
M  V30 3484 O 317.152 -0.816582 -1.78069 0
M  V30 3485 H 315.732 -0.741063 0.093996 0
M  V30 3486 H 318.394 -1.71398 0.927835 0
M  V30 3487 H 317.49 -3.10658 0.299671 0
M  V30 3488 N 317.792 -0.46758 -1.50504 0
M  V30 3489 C 318.702 0.33382 -2.32213 0
M  V30 3490 C 319.718 0.999323 -1.42441 0
M  V30 3491 O 320.894 0.988068 -1.75497 0
M  V30 3492 C 317.959 1.4035 -3.17022 0
M  V30 3493 C 317.02 0.754961 -4.2261 0
M  V30 3494 C 316.253 1.77367 -5.03365 0
M  V30 3495 O 316.476 2.99976 -4.8515 0
M  V30 3496 O 315.41 1.34744 -5.86624 0
M  V30 3497 H 319.236 -0.334067 -3.01857 0
M  V30 3498 H 316.821 -0.229496 -1.47627 0
M  V30 3499 H 318.703 2.02318 -3.69656 0
M  V30 3500 H 317.378 2.05492 -2.5011 0
M  V30 3501 H 316.285 0.0964244 -3.73976 0
M  V30 3502 H 317.618 0.146545 -4.91982 0
M  V30 3503 N 319.27 1.56325 -0.20005 0
M  V30 3504 C 320.517 1.97719 0.437411 0
M  V30 3505 C 320.845 1.08709 1.61284 0
M  V30 3506 O 320.1 0.127261 1.95286 0
M  V30 3507 C 320.399 3.4495 0.935103 0
M  V30 3508 C 320.065 4.5072 -0.12749 0
M  V30 3509 C 318.727 4.79368 -0.419451 0
M  V30 3510 C 321.079 5.14268 -0.847231 0
M  V30 3511 C 318.407 5.68854 -1.43604 0
M  V30 3512 C 320.759 6.04852 -1.85301 0
M  V30 3513 C 319.423 6.31855 -2.15211 0
M  V30 3514 H 318.693 0.723507 0.16006 0
M  V30 3515 H 321.34 1.89166 -0.298056 0
M  V30 3516 H 319.645 3.50599 1.74894 0
M  V30 3517 H 321.342 3.74337 1.43781 0
M  V30 3518 H 317.932 4.28458 0.11023 0
M  V30 3519 H 322.116 4.92222 -0.634901 0
M  V30 3520 H 317.372 5.88047 -1.67364 0
M  V30 3521 H 321.546 6.53152 -2.41591 0
M  V30 3522 H 319.173 7.00994 -2.94129 0
M  V30 3523 N 320.748 -0.0735177 1.57428 0
M  V30 3524 C 321.695 -1.08756 2.0357 0
M  V30 3525 C 322.665 -1.38559 0.916 0
M  V30 3526 O 323.85 -1.49656 1.18354 0
M  V30 3527 C 320.99 -2.39657 2.48311 0
M  V30 3528 C 320.103 -2.16399 3.73892 0
M  V30 3529 C 319.238 -3.40852 4.07423 0
M  V30 3530 C 318.277 -3.1295 5.2605 0
M  V30 3531 N 317.414 -4.29729 5.55228 0
M  V30 3532 H 322.254 -0.687104 2.8997 0
M  V30 3533 H 319.791 -0.327709 1.43403 0
M  V30 3534 H 321.749 -3.16081 2.72303 0
M  V30 3535 H 320.379 -2.77508 1.64891 0
M  V30 3536 H 319.431 -1.30676 3.57251 0
M  V30 3537 H 320.743 -1.91788 4.60455 0
M  V30 3538 H 319.897 -4.25671 4.32306 0
M  V30 3539 H 318.636 -3.68537 3.19425 0
M  V30 3540 H 317.641 -2.26526 5.00965 0
M  V30 3541 H 318.866 -2.86589 6.15665 0
M  V30 3542 H 316.812 -4.57448 4.70188 0
M  V30 3543 H 316.729 -4.08385 6.36206 0
M  V30 3544 H 317.997 -5.1555 5.84661 0
M  V30 3545 N 322.226 -1.5378 -0.344866 0
M  V30 3546 C 323.642 -1.44015 -0.687888 0
M  V30 3547 C 323.842 -0.595834 -1.92489 0
M  V30 3548 O 322.898 -0.0863064 -2.52352 0
M  V30 3549 C 324.211 -2.87481 -0.881758 0
M  V30 3550 C 325.759 -2.97247 -0.980459 0
M  V30 3551 C 326.234 -4.41819 -1.20665 0
M  V30 3552 N 327.725 -4.45339 -1.27389 0
M  V30 3553 C 328.46 -5.54333 -1.46639 0
M  V30 3554 N 327.956 -6.73335 -1.63071 0
M  V30 3555 N 329.749 -5.41944 -1.49176 0
M  V30 3556 H 321.9 -2.07169 0.468475 0
M  V30 3557 H 324.163 -0.93643 0.147655 0
M  V30 3558 H 323.869 -3.51672 -0.0443444 0
M  V30 3559 H 323.743 -3.32352 -1.78388 0
M  V30 3560 H 326.13 -2.33197 -1.8084 0
M  V30 3561 H 326.211 -2.5574 -0.0552713 0
M  V30 3562 H 325.855 -5.06449 -0.383652 0
M  V30 3563 H 325.785 -4.80917 -2.14539 0
M  V30 3564 H 328.276 -3.59585 -1.1622 0
M  V30 3565 H 328.589 -7.52165 -1.77391 0
M  V30 3566 H 326.934 -6.76282 -1.60209 0
M  V30 3567 H 330.125 -4.47932 -1.3592 0
M  V30 3568 H 330.298 -6.26946 -1.63837 0
M  V30 3569 N 323.704 0.605807 -1.45491 0
M  V30 3570 C 324.934 1.38934 -1.52908 0
M  V30 3571 C 325.342 1.88513 -0.161086 0
M  V30 3572 O 324.685 1.62962 0.847891 0
M  V30 3573 C 324.747 2.62737 -2.45376 0
M  V30 3574 C 324.411 2.34785 -3.92078 0
M  V30 3575 C 325.408 1.95038 -4.8193 0
M  V30 3576 C 323.093 2.47642 -4.37011 0
M  V30 3577 C 325.087 1.68511 -6.14722 0
M  V30 3578 C 322.774 2.20728 -5.69844 0
M  V30 3579 C 323.772 1.81225 -6.58519 0
M  V30 3580 O 323.46 1.54627 -7.88889 0
M  V30 3581 H 323.192 0.431629 -0.520262 0
M  V30 3582 H 325.746 0.74573 -1.91384 0
M  V30 3583 H 323.976 3.29824 -2.01874 0
M  V30 3584 H 325.665 3.24783 -2.43456 0
M  V30 3585 H 326.431 1.84639 -4.48479 0
M  V30 3586 H 322.31 2.77356 -3.68232 0
M  V30 3587 H 325.854 1.37602 -6.83894 0
M  V30 3588 H 321.751 2.30744 -6.02849 0
M  V30 3589 H 322.519 1.68665 -8.00933 0
M  V30 3590 N 325.182 1.32811 0.848464 0
M  V30 3591 C 326.13 1.22231 1.97895 0
M  V30 3592 C 327.124 0.125749 1.68933 0
M  V30 3593 O 328.33 0.289083 1.77663 0
M  V30 3594 H 324.705 0.379058 0.649476 0
M  V30 3595 H 326.676 2.17828 2.03945 0
M  V30 3596 C 325.425 0.968572 3.33937 0
M  V30 3597 H 324.748 1.80458 3.56756 0
M  V30 3598 H 326.188 0.934808 4.13567 0
M  V30 3599 C 324.647 -0.328628 3.35293 0
M  V30 3600 O 325.177 -1.33848 3.78745 0
M  V30 3601 N 323.383 -0.352788 2.88451 0
M  V30 3602 H 322.93 0.469541 2.53285 0
M  V30 3603 H 322.888 -1.22057 2.89741 0
M  V30 3604 N 326.66 -1.06551 1.16123 0
M  V30 3605 C 327.57 -2.17484 0.879662 0
M  V30 3606 C 328.586 -1.73377 -0.147104 0
M  V30 3607 O 329.762 -2.01379 0.0289128 0
M  V30 3608 C 326.827 -3.44591 0.381829 0
M  V30 3609 C 325.888 -4.0322 1.4735 0
M  V30 3610 C 325.121 -5.24261 0.999324 0
M  V30 3611 O 325.344 -5.70198 -0.151957 0
M  V30 3612 O 324.278 -5.74775 1.78653 0
M  V30 3613 H 328.104 -2.44075 1.80724 0
M  V30 3614 H 325.689 -1.16042 0.940992 0
M  V30 3615 H 327.571 -4.21254 0.111053 0
M  V30 3616 H 326.246 -3.19532 -0.51777 0
M  V30 3617 H 325.153 -3.2806 1.79798 0
M  V30 3618 H 326.486 -4.32568 2.34831 0
M  V30 3619 N 328.138 -0.959301 -1.25041 0
M  V30 3620 C 329.086 -0.474437 -2.2771 0
M  V30 3621 C 330.08 0.457697 -1.631 0
M  V30 3622 O 331.286 0.333912 -1.76876 0
M  V30 3623 H 327.661 -0.134936 -0.739795 0
M  V30 3624 H 329.632 -1.35251 -2.65988 0
M  V30 3625 C 328.381 0.227884 -3.46952 0
M  V30 3626 H 327.704 -0.480248 -3.96905 0
M  V30 3627 H 329.144 0.531091 -4.20661 0
M  V30 3628 C 327.603 1.452 -3.04004 0
M  V30 3629 O 328.133 2.54949 -3.10426 0
M  V30 3630 N 326.339 1.31502 -2.59144 0
M  V30 3631 H 325.886 0.422065 -2.54119 0
M  V30 3632 H 325.844 2.13521 -2.30773 0
M  V30 3633 N 329.616 1.39756 -0.72842 0
M  V30 3634 C 330.548 2.29157 -0.0446202 0
M  V30 3635 C 331.561 1.46484 0.710367 0
M  V30 3636 O 332.75 1.69632 0.55562 0
M  V30 3637 C 329.85 3.24987 0.961071 0
M  V30 3638 C 329.023 4.36572 0.268967 0
M  V30 3639 C 328.082 5.12756 1.18184 0
M  V30 3640 O 327.108 5.6534 0.661794 0
M  V30 3641 N 328.31 5.23331 2.51206 0
M  V30 3642 H 331.075 2.88482 -0.812295 0
M  V30 3643 H 328.636 1.51265 -0.577098 0
M  V30 3644 H 330.628 3.72827 1.57423 0
M  V30 3645 H 329.198 2.66739 1.63 0
M  V30 3646 H 328.418 3.90694 -0.524574 0
M  V30 3647 H 329.706 5.08363 -0.210934 0
M  V30 3648 H 329.104 4.82116 2.9594 0
M  V30 3649 H 327.661 5.74634 3.07634 0
M  V30 3650 N 331.094 0.475555 1.50254 0
M  V30 3651 C 332.371 -0.139685 1.95101 0
M  V30 3652 C 332.751 -1.56555 1.41611 0
M  V30 3653 O 332.099 -2.19956 0.618993 0
M  V30 3654 C 332.309 -0.0784298 3.48912 0
M  V30 3655 C 333.657 -0.265095 4.23772 0
M  V30 3656 O 334.681 -0.154808 3.55863 0
M  V30 3657 O 333.54 -0.488327 5.44314 0
M  V30 3658 H 330.634 -0.109236 0.819754 0
M  V30 3659 H 333.18 0.536276 1.61004 0
M  V30 3660 H 331.952 0.916918 3.80405 0
M  V30 3661 H 331.575 -0.795655 3.89558 0
M  V30 3662 N 332.573 -1.56217 0.208337 0
M  V30 3663 C 333.483 -2.23316 -0.718836 0
M  V30 3664 C 334.499 -1.23648 -1.22422 0
M  V30 3665 O 335.675 -1.56423 -1.26861 0
M  V30 3666 C 332.74 -2.88968 -1.91568 0
M  V30 3667 C 331.801 -4.03943 -1.45357 0
M  V30 3668 C 331.034 -4.66455 -2.59337 0
M  V30 3669 O 331.257 -4.27919 -3.77149 0
M  V30 3670 O 330.191 -5.55686 -2.31293 0
M  V30 3671 H 334.017 -3.03182 -0.177315 0
M  V30 3672 H 331.602 -1.49384 -0.0215402 0
M  V30 3673 H 333.484 -3.30455 -2.61491 0
M  V30 3674 H 332.159 -2.12071 -2.44556 0
M  V30 3675 H 331.066 -3.67052 -0.722746 0
M  V30 3676 H 332.399 -4.82543 -0.970219 0
M  V30 3677 N 334.051 0.0651679 -1.57465 0
M  V30 3678 C 335.3 0.761916 -1.86756 0
M  V30 3679 C 335.613 1.78406 -0.801925 0
M  V30 3680 O 336.819 2.53084 -0.982885 0
M  V30 3681 C 335.275 1.40603 -3.31299 0
M  V30 3682 C 334.883 0.422115 -4.46007 0
M  V30 3683 C 336.627 2.08476 -3.69781 0
M  V30 3684 C 334.534 1.07252 -5.81593 0
M  V30 3685 H 333.464 0.288308 -0.696702 0
M  V30 3686 H 336.115 0.015344 -1.83494 0
M  V30 3687 H 334.497 2.20109 -3.29193 0
M  V30 3688 H 335.671 -0.343613 -4.59517 0
M  V30 3689 H 333.986 -0.152527 -4.16121 0
M  V30 3690 H 336.583 2.57925 -4.68379 0
M  V30 3691 H 336.926 2.88712 -2.99919 0
M  V30 3692 H 337.459 1.35792 -3.73905 0
M  V30 3693 H 334.198 0.310342 -6.54765 0
M  V30 3694 H 333.718 1.80895 -5.71872 0
M  V30 3695 H 335.397 1.59043 -6.27148 0
M  V30 3696 N 335.529 1.53961 0.336706 0
M  V30 3697 C 336.945 1.44378 0.680241 0
M  V30 3698 C 337.145 0.606034 1.9217 0
M  V30 3699 O 336.201 0.099688 2.52303 0
M  V30 3700 C 337.514 2.87945 0.8665 0
M  V30 3701 C 339.062 2.97763 0.964682 0
M  V30 3702 C 339.537 4.42453 1.18321 0
M  V30 3703 N 341.028 4.46008 1.25025 0
M  V30 3704 C 341.763 5.55102 1.43697 0
M  V30 3705 N 341.259 6.7419 1.59498 0
M  V30 3706 N 343.052 5.42727 1.463 0
M  V30 3707 H 335.203 2.06918 -0.479455 0
M  V30 3708 H 337.466 0.935634 -0.152619 0
M  V30 3709 H 337.172 3.51691 0.0256937 0
M  V30 3710 H 337.046 3.33293 1.76623 0
M  V30 3711 H 339.433 2.34153 1.796 0
M  V30 3712 H 339.514 2.55766 0.041708 0
M  V30 3713 H 339.158 5.06645 0.356788 0
M  V30 3714 H 339.088 4.82048 2.11985 0
M  V30 3715 H 341.579 3.60196 1.14312 0
M  V30 3716 H 341.892 7.53095 1.734 0
M  V30 3717 H 340.237 6.77123 1.56621 0
M  V30 3718 H 343.428 4.48647 1.33543 0
M  V30 3719 H 343.601 6.27806 1.6051 0
M  V30 3720 N 337.007 -0.598083 1.45811 0
M  V30 3721 C 337.954 -1.7082 1.55207 0
M  V30 3722 C 338.924 -1.61278 0.39732 0
M  V30 3723 O 340.109 -1.80717 0.612038 0
M  V30 3724 C 337.249 -3.09144 1.53376 0
M  V30 3725 C 336.362 -3.29423 2.79472 0
M  V30 3726 C 335.497 -4.57907 2.69248 0
M  V30 3727 C 334.536 -4.71476 3.90354 0
M  V30 3728 N 333.673 -5.9127 3.78608 0
M  V30 3729 H 338.513 -1.62125 2.50039 0
M  V30 3730 H 336.05 -0.790389 1.24062 0
M  V30 3731 H 338.008 -3.89186 1.50301 0
M  V30 3732 H 336.638 -3.16773 0.620876 0
M  V30 3733 H 335.69 -2.43091 2.92594 0
M  V30 3734 H 337.002 -3.3532 3.69272 0
M  V30 3735 H 336.156 -5.46157 2.64192 0
M  V30 3736 H 334.895 -4.54423 1.77063 0
M  V30 3737 H 333.9 -3.81648 3.95759 0
M  V30 3738 H 335.125 -4.76751 4.83617 0
M  V30 3739 H 333.071 -5.88813 2.89199 0
M  V30 3740 H 332.988 -5.98369 4.6205 0
M  V30 3741 H 334.256 -6.81992 3.77501 0
M  V30 3742 N 338.485 -1.33259 -0.841409 0
M  V30 3743 C 339.901 -1.12538 -1.13169 0
M  V30 3744 C 340.101 0.0854037 -2.01319 0
M  V30 3745 O 339.157 0.766417 -2.40587 0
M  V30 3746 C 340.47 -2.41156 -1.79623 0
M  V30 3747 C 342.018 -2.47038 -1.922 0
M  V30 3748 C 342.493 -3.7561 -2.6207 0
M  V30 3749 N 343.984 -3.76667 -2.69585 0
M  V30 3750 C 344.719 -4.72861 -3.2433 0
M  V30 3751 N 344.215 -5.79428 -3.79783 0
M  V30 3752 N 346.008 -4.6034 -3.22558 0
M  V30 3753 H 338.159 -2.10868 -0.254676 0
M  V30 3754 H 340.422 -0.931615 -0.175493 0
M  V30 3755 H 340.128 -3.29747 -1.22311 0
M  V30 3756 H 340.002 -2.53114 -2.79666 0
M  V30 3757 H 342.389 -1.58898 -2.48667 0
M  V30 3758 H 342.47 -2.39022 -0.911148 0
M  V30 3759 H 342.114 -4.64131 -2.06263 0
M  V30 3760 H 342.044 -3.80902 -3.63622 0
M  V30 3761 H 344.535 -2.99648 -2.30259 0
M  V30 3762 H 344.848 -6.48867 -4.19752 0
M  V30 3763 H 343.193 -5.83166 -3.78078 0
M  V30 3764 H 346.384 -3.76244 -2.78492 0
M  V30 3765 H 346.557 -5.35478 -3.64921 0
M  V30 3766 N 339.963 1.05934 -1.16686 0
M  V30 3767 C 341.209 1.79065 -0.95203 0
M  V30 3768 C 341.542 1.87147 0.518629 0
M  V30 3769 O 340.817 1.36574 1.38484 0
M  V30 3770 C 341.1 3.23359 -1.58464 0
M  V30 3771 C 340.953 3.23336 -3.12689 0
M  V30 3772 C 342.272 4.21004 -1.28232 0
M  V30 3773 H 339.391 0.65005 -0.34728 0
M  V30 3774 H 342.033 1.23868 -1.44072 0
M  V30 3775 H 340.183 3.70493 -1.16908 0
M  V30 3776 H 341.855 2.84336 -3.6325 0
M  V30 3777 H 340.098 2.61886 -3.4583 0
M  V30 3778 H 340.769 4.25144 -3.52075 0
M  V30 3779 H 343.245 3.8233 -1.64203 0
M  V30 3780 H 342.121 5.20225 -1.75092 0
M  V30 3781 H 342.382 4.41639 -0.201791 0
M  V30 3782 N 341.441 0.965919 1.2453 0
M  V30 3783 C 342.688 0.626831 1.92554 0
M  V30 3784 C 343.016 -0.837739 1.75534 0
M  V30 3785 O 342.271 -1.61793 1.10098 0
M  V30 3786 C 342.57 0.945428 3.44669 0
M  V30 3787 C 342.236 2.39785 3.81856 0
M  V30 3788 C 340.898 2.79483 3.91718 0
M  V30 3789 C 343.25 3.34055 4.00071 0
M  V30 3790 C 340.578 4.12496 4.1721 0
M  V30 3791 C 342.93 4.66694 4.27059 0
M  V30 3792 C 341.594 5.06172 4.3514 0
M  V30 3793 H 340.864 0.229374 0.704605 0
M  V30 3794 H 343.511 1.21707 1.4785 0
M  V30 3795 H 341.816 0.272926 3.90848 0
M  V30 3796 H 343.513 0.661484 3.95507 0
M  V30 3797 H 340.103 2.08003 3.74743 0
M  V30 3798 H 344.287 3.04571 3.91855 0
M  V30 3799 H 339.543 4.42709 4.21685 0
M  V30 3800 H 343.717 5.3971 4.40097 0
M  V30 3801 H 341.344 6.09262 4.54646 0
M  V30 3802 N 342.919 -1.39368 0.735821 0
M  V30 3803 C 343.829 -2.34395 0.0979693 0
M  V30 3804 C 344.845 -1.58361 -0.720968 0
M  V30 3805 O 346.021 -1.90648 -0.649245 0
M  V30 3806 C 343.086 -3.37393 -0.797916 0
M  V30 3807 C 342.147 -4.29287 0.0333662 0
M  V30 3808 C 341.38 -5.27365 -0.819854 0
M  V30 3809 O 341.603 -5.31959 -2.05855 0
M  V30 3810 O 340.537 -6.01389 -0.248079 0
M  V30 3811 H 344.363 -2.90601 0.882315 0
M  V30 3812 H 341.948 -1.40909 0.4965 0
M  V30 3813 H 343.83 -4.00505 -1.31048 0
M  V30 3814 H 342.505 -2.83571 -1.56106 0
M  V30 3815 H 341.412 -3.69395 0.591475 0
M  V30 3816 H 342.745 -4.86317 0.758752 0
M  V30 3817 N 344.397 -0.483516 -1.5 0
M  V30 3818 C 345.33 0.350427 -2.25493 0
M  V30 3819 C 346.308 0.985549 -1.29328 0
M  V30 3820 O 347.492 1.01906 -1.58579 0
M  V30 3821 C 344.619 1.49202 -3.04066 0
M  V30 3822 C 343.665 0.973036 -4.15252 0
M  V30 3823 S 344.498 -0.122237 -5.3536 0
M  V30 3824 C 345.654 1.02294 -6.17484 0
M  V30 3825 H 345.887 -0.290381 -2.95878 0
M  V30 3826 H 343.42 -0.268562 -1.52046 0
M  V30 3827 H 345.378 2.14623 -3.49925 0
M  V30 3828 H 344.039 2.10438 -2.33183 0
M  V30 3829 H 343.232 1.82804 -4.69679 0
M  V30 3830 H 342.834 0.396335 -3.71894 0
M  V30 3831 H 345.126 1.93195 -6.49371 0
M  V30 3832 H 346.069 0.517664 -7.06205 0
M  V30 3833 H 346.477 1.28238 -5.49741 0
M  V30 3834 N 345.875 1.56104 -0.216619 0
M  V30 3835 C 346.838 2.18819 0.681962 0
M  V30 3836 C 347.838 1.14866 1.12528 0
M  V30 3837 O 349.028 1.40128 1.03488 0
M  V30 3838 C 346.16 2.80756 1.93362 0
M  V30 3839 H 347.353 2.99595 0.135254 0
M  V30 3840 H 344.906 1.56265 0.0330003 0
M  V30 3841 H 345.641 2.03837 2.52232 0
M  V30 3842 H 345.426 3.56876 1.62426 0
M  V30 3843 H 346.916 3.28844 2.57393 0
M  V30 3844 N 347.353 -0.0568162 1.57498 0
M  V30 3845 C 348.301 -1.08452 2.05769 0
M  V30 3846 C 349.295 -1.39164 0.965903 0
M  V30 3847 O 350.501 -1.38395 1.15095 0
M  V30 3848 H 346.876 -0.367148 0.656282 0
M  V30 3849 H 348.847 -0.651368 2.91204 0
M  V30 3850 C 347.596 -2.38543 2.52968 0
M  V30 3851 H 346.919 -2.15765 3.36579 0
M  V30 3852 H 348.359 -3.08863 2.90481 0
M  V30 3853 C 346.818 -3.05562 1.41893 0
M  V30 3854 O 347.348 -3.94262 0.769442 0
M  V30 3855 N 345.554 -2.6643 1.16032 0
M  V30 3856 H 345.101 -1.94387 1.6903 0
M  V30 3857 H 345.059 -3.11593 0.419219 0
M  V30 3858 N 348.832 -1.54138 -0.328536 0
M  V30 3859 C 350.062 -1.75807 -1.08516 0
M  V30 3860 C 350.47 -0.50428 -1.82356 0
M  V30 3861 O 349.813 0.534451 -1.75754 0
M  V30 3862 C 349.875 -2.89423 -2.13248 0
M  V30 3863 C 349.539 -4.28504 -1.5885 0
M  V30 3864 C 350.536 -5.09536 -1.03289 0
M  V30 3865 C 348.221 -4.75034 -1.63243 0
M  V30 3866 C 350.215 -6.35206 -0.52845 0
M  V30 3867 C 347.902 -6.00672 -1.12411 0
M  V30 3868 C 348.9 -6.80592 -0.573062 0
M  V30 3869 O 348.588 -8.03867 -0.0723692 0
M  V30 3870 H 348.32 -0.590633 -0.328829 0
M  V30 3871 H 350.874 -2.01819 -0.381868 0
M  V30 3872 H 349.104 -2.5897 -2.87178 0
M  V30 3873 H 350.793 -2.98921 -2.74592 0
M  V30 3874 H 351.559 -4.74745 -0.99206 0
M  V30 3875 H 347.438 -4.12875 -2.05074 0
M  V30 3876 H 350.982 -6.97532 -0.0976774 0
M  V30 3877 H 346.879 -6.34955 -1.162 0
M  V30 3878 H 347.647 -8.18283 -0.188258 0
M  V30 3879 N 350.31 0.590341 -1.46126 0
M  V30 3880 C 351.556 1.35082 -1.51264 0
M  V30 3881 C 351.889 1.93534 -0.160711 0
M  V30 3882 O 351.164 1.76045 0.826956 0
M  V30 3883 C 351.447 2.48588 -2.6053 0
M  V30 3884 C 351.3 1.95221 -4.05227 0
M  V30 3885 C 352.619 3.50662 -2.6594 0
M  V30 3886 H 349.738 0.489803 -0.550692 0
M  V30 3887 H 352.38 0.663887 -1.78024 0
M  V30 3888 H 350.53 3.07186 -2.37843 0
M  V30 3889 H 352.202 1.41139 -4.39178 0
M  V30 3890 H 350.445 1.26101 -4.15068 0
M  V30 3891 H 351.116 2.77121 -4.77397 0
M  V30 3892 H 353.592 3.01934 -2.86313 0
M  V30 3893 H 352.468 4.27551 -3.44226 0
M  V30 3894 H 352.729 4.07399 -1.71694 0
M  V30 3895 N 351.788 1.33704 0.83433 0
M  V30 3896 C 352.736 1.24323 1.96587 0
M  V30 3897 C 353.73 0.143659 1.6879 0
M  V30 3898 O 354.936 0.30791 1.77347 0
M  V30 3899 H 351.311 0.385925 0.645419 0
M  V30 3900 H 353.282 2.19978 2.01624 0
M  V30 3901 C 352.031 1.00394 3.32891 0
M  V30 3902 H 351.354 1.84231 3.54822 0
M  V30 3903 H 352.794 0.97862 4.12552 0
M  V30 3904 C 351.253 -0.293047 3.35623 0
M  V30 3905 O 351.783 -1.29823 3.80143 0
M  V30 3906 N 349.989 -0.322174 2.88809 0
M  V30 3907 H 349.536 0.496379 2.52772 0
M  V30 3908 H 349.494 -1.18977 2.91019 0
M  V30 3909 N 353.266 -1.05314 1.17247 0
M  V30 3910 C 354.199 -2.12512 0.831507 0
M  V30 3911 C 355.177 -1.61351 -0.201168 0
M  V30 3912 O 356.361 -1.88317 -0.0829831 0
M  V30 3913 C 353.488 -3.37848 0.24015 0
M  V30 3914 C 352.534 -4.07832 1.24801 0
M  V30 3915 S 353.367 -4.56537 2.79882 0
M  V30 3916 C 354.523 -5.85122 2.22223 0
M  V30 3917 H 354.756 -2.41106 1.7394 0
M  V30 3918 H 352.289 -1.17896 0.996988 0
M  V30 3919 H 354.247 -4.10391 -0.0945588 0
M  V30 3920 H 352.908 -3.07392 -0.645668 0
M  V30 3921 H 352.101 -4.97883 0.78287 0
M  V30 3922 H 351.703 -3.41348 1.52831 0
M  V30 3923 H 353.995 -6.58408 1.59703 0
M  V30 3924 H 354.938 -6.36381 3.10523 0
M  V30 3925 H 355.346 -5.39626 1.65722 0
M  V30 3926 N 354.744 -0.972509 -1.24016 0
M  V30 3927 C 355.674 -0.525548 -2.27509 0
M  V30 3928 C 356.655 0.437262 -1.64384 0
M  V30 3929 O 357.84 0.332343 -1.91335 0
M  V30 3930 C 354.97 0.180448 -3.46831 0
M  V30 3931 C 353.924 -0.698859 -4.22256 0
M  V30 3932 C 353.25 0.138903 -5.3452 0
M  V30 3933 C 354.55 -1.98582 -4.83076 0
M  V30 3934 H 356.244 -1.39058 -2.65148 0
M  V30 3935 H 353.79 -0.67009 -1.27459 0
M  V30 3936 H 355.743 0.504387 -4.18371 0
M  V30 3937 H 354.467 1.07987 -3.08231 0
M  V30 3938 H 353.126 -1.00614 -3.52523 0
M  V30 3939 H 352.774 1.03862 -4.9216 0
M  V30 3940 H 352.474 -0.446259 -5.85903 0
M  V30 3941 H 353.998 0.457404 -6.08884 0
M  V30 3942 H 355.412 -1.72715 -5.46665 0
M  V30 3943 H 353.809 -2.5181 -5.44713 0
M  V30 3944 H 354.879 -2.67769 -4.04262 0
M  V30 3945 N 356.222 1.38976 -0.743202 0
M  V30 3946 C 357.452 2.04339 -0.304807 0
M  V30 3947 C 357.86 1.56162 1.06819 0
M  V30 3948 O 357.203 0.725284 1.68776 0
M  V30 3949 C 357.265 3.58716 -0.237369 0
M  V30 3950 C 356.929 4.29905 -1.55018 0
M  V30 3951 C 357.926 4.55987 -2.49744 0
M  V30 3952 C 355.611 4.68294 -1.81675 0
M  V30 3953 C 357.605 5.19478 -3.69353 0
M  V30 3954 C 355.292 5.31512 -3.0156 0
M  V30 3955 C 356.29 5.57037 -3.9522 0
M  V30 3956 O 355.978 6.18941 -5.12998 0
M  V30 3957 H 355.71 0.663439 -0.12971 0
M  V30 3958 H 358.264 1.78852 -1.01001 0
M  V30 3959 H 356.494 3.83133 0.524003 0
M  V30 3960 H 358.183 4.05543 0.170121 0
M  V30 3961 H 358.949 4.26767 -2.30423 0
M  V30 3962 H 354.828 4.47779 -1.09615 0
M  V30 3963 H 358.372 5.39318 -4.42473 0
M  V30 3964 H 354.269 5.60153 -3.20778 0
M  V30 3965 H 355.037 6.37433 -5.13441 0
M  V30 3966 N 357.7 0.491464 1.49741 0
M  V30 3967 C 358.647 -0.292027 2.28945 0
M  V30 3968 C 359.617 -0.968973 1.34908 0
M  V30 3969 O 360.802 -0.97748 1.6386 0
M  V30 3970 C 357.942 -1.35617 3.17336 0
M  V30 3971 C 357.055 -0.691957 4.26422 0
M  V30 3972 C 356.19 -1.73572 5.02042 0
M  V30 3973 C 355.229 -1.05286 6.02977 0
M  V30 3974 N 354.366 -2.0404 6.71798 0
M  V30 3975 H 359.206 0.389654 2.95442 0
M  V30 3976 H 356.743 0.204003 1.45679 0
M  V30 3977 H 358.701 -1.98502 3.66951 0
M  V30 3978 H 357.331 -2.00674 2.52844 0
M  V30 3979 H 356.383 0.0499523 3.80367 0
M  V30 3980 H 357.695 -0.153946 4.98562 0
M  V30 3981 H 356.849 -2.43987 5.55478 0
M  V30 3982 H 355.588 -2.30757 4.29654 0
M  V30 3983 H 354.593 -0.334446 5.48782 0
M  V30 3984 H 355.818 -0.487636 6.77347 0
M  V30 3985 H 353.764 -2.60205 6.02187 0
M  V30 3986 H 353.681 -1.55279 7.39881 0
M  V30 3987 H 354.949 -2.73772 7.29842 0
M  V30 3988 N 359.178 -1.55987 0.224894 0
M  V30 3989 C 360.125 -2.20436 -0.68385 0
M  V30 3990 C 361.095 -1.16102 -1.18783 0
M  V30 3991 O 362.28 -1.4447 -1.24632 0
M  V30 3992 C 359.42 -2.89076 -1.88491 0
M  V30 3993 C 358.533 -4.08012 -1.41951 0
M  V30 3994 C 357.668 -4.64426 -2.5784 0
M  V30 3995 C 356.707 -5.75656 -2.08053 0
M  V30 3996 N 355.844 -6.26347 -3.17227 0
M  V30 3997 H 360.684 -2.97727 -0.12754 0
M  V30 3998 H 358.221 -1.47011 -0.0511978 0
M  V30 3999 H 360.179 -3.27059 -2.59014 0
M  V30 4000 H 358.809 -2.14298 -2.41405 0
M  V30 4001 H 357.861 -3.75492 -0.609095 0
M  V30 4002 H 359.173 -4.88375 -1.01447 0
M  V30 4003 H 358.327 -5.04869 -3.3644 0
M  V30 4004 H 357.066 -3.83233 -3.01635 0
M  V30 4005 H 356.071 -5.34712 -1.27916 0
M  V30 4006 H 357.296 -6.58686 -1.65255 0
M  V30 4007 H 355.242 -5.48067 -3.60497 0
M  V30 4008 H 355.159 -7.01843 -2.80986 0
M  V30 4009 H 356.427 -6.71447 -3.95953 0
M  V30 4010 N 360.656 0.0484629 -1.57525 0
M  V30 4011 C 361.586 1.0549 -2.08313 0
M  V30 4012 C 362.567 1.38929 -0.981463 0
M  V30 4013 O 363.752 1.48151 -1.25558 0
M  V30 4014 C 360.882 2.36162 -2.54646 0
M  V30 4015 C 359.836 2.17016 -3.68901 0
M  V30 4016 C 359.162 3.53278 -4.01371 0
M  V30 4017 C 360.462 1.57219 -4.98076 0
M  V30 4018 H 362.156 0.632195 -2.92649 0
M  V30 4019 H 359.702 0.302654 -1.40784 0
M  V30 4020 H 361.655 3.06882 -2.88793 0
M  V30 4021 H 360.379 2.80456 -1.67368 0
M  V30 4022 H 359.038 1.48733 -3.35073 0
M  V30 4023 H 358.686 3.95185 -3.11188 0
M  V30 4024 H 358.386 3.41299 -4.78318 0
M  V30 4025 H 359.91 4.25391 -4.38035 0
M  V30 4026 H 361.324 2.17832 -5.30304 0
M  V30 4027 H 359.721 1.55871 -5.79503 0
M  V30 4028 H 360.791 0.535956 -4.81929 0
M  V30 4029 N 362.134 1.5431 0.320358 0
M  V30 4030 C 363.082 1.84647 1.4145 0
M  V30 4031 C 364.076 0.718624 1.53402 0
M  V30 4032 O 365.282 0.902335 1.5575 0
M  V30 4033 H 361.657 0.585349 0.472091 0
M  V30 4034 H 363.628 2.7614 1.13089 0
M  V30 4035 C 362.377 2.09341 2.77617 0
M  V30 4036 H 361.7 2.9559 2.69196 0
M  V30 4037 H 363.14 2.3452 3.53237 0
M  V30 4038 C 361.599 0.885939 3.25043 0
M  V30 4039 O 362.129 0.0967891 4.01583 0
M  V30 4040 N 360.335 0.696682 2.82125 0
M  V30 4041 H 359.882 1.34006 2.2 0
M  V30 4042 H 359.84 -0.109712 3.14209 0
M  V30 4043 N 363.613 -0.582584 1.46437 0
M  V30 4044 C 364.841 -1.36682 1.55324 0
M  V30 4045 C 365.256 -1.87796 0.194409 0
M  V30 4046 O 364.613 -1.63623 -0.808318 0
M  V30 4047 C 364.664 -2.55426 2.55812 0
M  V30 4048 O 364.385 -2.0643 3.86417 0
M  V30 4049 C 365.886 -3.47976 2.74641 0
M  V30 4050 H 363.106 -0.417545 0.525259 0
M  V30 4051 H 365.65 -0.708219 1.91845 0
M  V30 4052 H 363.805 -3.17275 2.22295 0
M  V30 4053 H 364.219 -2.83762 4.41111 0
M  V30 4054 H 365.693 -4.27775 3.48874 0
M  V30 4055 H 366.17 -3.99919 1.81553 0
M  V30 4056 H 366.776 -2.91962 3.09255 0
M  V30 4057 N 365.091 -1.34144 -0.827227 0
M  V30 4058 C 366.041 -1.21923 -1.92663 0
M  V30 4059 C 367.025 -0.119294 -1.60457 0
M  V30 4060 O 368.217 -0.348539 -1.73534 0
M  V30 4061 C 365.346 -0.972492 -3.29238 0
M  V30 4062 C 364.432 -2.1154 -3.67576 0
M  V30 4063 N 364.823 -3.36627 -3.77512 0
M  V30 4064 C 363.121 -2.02468 -3.97395 0
M  V30 4065 C 363.822 -4.11658 -4.1099 0
M  V30 4066 N 362.798 -3.40207 -4.23981 0
M  V30 4067 H 366.6 -2.16721 -1.98517 0
M  V30 4068 H 364.114 -1.2632 -1.02064 0
M  V30 4069 H 366.111 -0.865847 -4.0781 0
M  V30 4070 H 364.771 -0.0331509 -3.24683 0
M  V30 4071 H 365.782 -3.71234 -3.61118 0
M  V30 4072 H 362.459 -1.16265 -4.00985 0
M  V30 4073 H 363.849 -5.19657 -4.25918 0
M  V30 4074 N 366.569 1.04691 -1.17803 0
M  V30 4075 C 367.815 1.78045 -0.970969 0
M  V30 4076 C 368.148 1.87686 0.498751 0
M  V30 4077 O 367.423 1.38035 1.37027 0
M  V30 4078 C 367.706 3.2166 -1.61884 0
M  V30 4079 C 367.559 3.20001 -3.161 0
M  V30 4080 C 368.878 4.1962 -1.3269 0
M  V30 4081 H 365.997 0.64633 -0.354155 0
M  V30 4082 H 368.639 1.22333 -1.45378 0
M  V30 4083 H 366.789 3.69232 -1.20831 0
M  V30 4084 H 368.461 2.80467 -3.66246 0
M  V30 4085 H 366.704 2.58203 -3.48588 0
M  V30 4086 H 367.375 4.21386 -3.56564 0
M  V30 4087 H 369.851 3.80567 -1.68249 0
M  V30 4088 H 368.727 5.18339 -1.80599 0
M  V30 4089 H 368.988 4.414 -0.248622 0
M  V30 4090 N 368.047 0.979072 1.23499 0
M  V30 4091 C 369.01 0.523244 2.23147 0
M  V30 4092 C 370.01 -0.386406 1.56088 0
M  V30 4093 O 371.2 -0.180283 1.73265 0
M  V30 4094 C 368.332 -0.240739 3.40049 0
M  V30 4095 H 369.525 1.40432 2.64989 0
M  V30 4096 H 367.078 0.764824 1.36309 0
M  V30 4097 H 367.813 -1.13841 3.03662 0
M  V30 4098 H 367.598 0.412207 3.89927 0
M  V30 4099 H 369.088 -0.548297 4.13985 0
M  V30 4100 N 369.525 -1.3858 0.750561 0
M  V30 4101 C 370.455 -2.33102 0.136237 0
M  V30 4102 C 371.436 -1.54713 -0.706965 0
M  V30 4103 O 372.621 -1.83043 -0.648769 0
M  V30 4104 C 369.751 -3.38882 -0.760017 0
M  V30 4105 C 368.705 -4.27995 -0.0197785 0
M  V30 4106 C 368.031 -5.24605 -1.03408 0
M  V30 4107 C 369.331 -5.09554 1.14684 0
M  V30 4108 H 371.025 -2.84726 0.925822 0
M  V30 4109 H 368.571 -1.36898 0.446654 0
M  V30 4110 H 370.524 -4.0397 -1.19943 0
M  V30 4111 H 369.248 -2.85734 -1.58189 0
M  V30 4112 H 367.907 -3.64409 0.400184 0
M  V30 4113 H 367.555 -4.67746 -1.84994 0
M  V30 4114 H 367.255 -5.85081 -0.543464 0
M  V30 4115 H 368.779 -5.9257 -1.47288 0
M  V30 4116 H 370.193 -5.67899 0.785118 0
M  V30 4117 H 368.59 -5.7925 1.56812 0
M  V30 4118 H 369.66 -4.4347 1.96118 0
M  V30 4119 N 371.003 -0.499398 -1.49478 0
M  V30 4120 C 372.249 0.0457576 -2.02748 0
M  V30 4121 C 372.582 1.36793 -1.37846 0
M  V30 4122 O 371.857 1.87596 -0.513601 0
M  V30 4123 C 372.14 0.199986 -3.59544 0
M  V30 4124 C 371.993 -1.1452 -4.34977 0
M  V30 4125 C 373.312 0.94137 -4.29914 0
M  V30 4126 H 370.431 0.0151552 -0.736844 0
M  V30 4127 H 373.073 -0.650498 -1.78518 0
M  V30 4128 H 371.223 0.793007 -3.8032 0
M  V30 4129 H 372.895 -1.77697 -4.25701 0
M  V30 4130 H 371.138 -1.73488 -3.97598 0
M  V30 4131 H 371.809 -0.990607 -5.43039 0
M  V30 4132 H 374.285 0.43844 -4.13784 0
M  V30 4133 H 373.161 1.01812 -5.39375 0
M  V30 4134 H 373.422 1.98471 -3.95046 0
M  V30 4135 N 372.481 1.55866 -0.233164 0
M  V30 4136 C 373.729 1.9821 0.394593 0
M  V30 4137 C 374.05 1.12234 1.59463 0
M  V30 4138 O 373.32 0.201981 1.94856 0
M  V30 4139 H 371.9 0.732034 0.148778 0
M  V30 4140 H 374.562 1.92107 -0.32876 0
M  V30 4141 H 373.658 3.03845 0.713063 0
M  V30 4142 N 373.959 -0.0401083 1.57549 0
M  V30 4143 C 374.892 -1.07689 2.01192 0
M  V30 4144 C 375.87 -1.358 0.894273 0
M  V30 4145 O 377.054 -1.48642 1.15921 0
M  V30 4146 C 374.181 -2.41418 2.3756 0
M  V30 4147 C 373.227 -2.29237 3.59656 0
M  V30 4148 S 374.06 -1.65628 5.09242 0
M  V30 4149 C 375.216 -3.0087 5.48843 0
M  V30 4150 H 375.449 -0.705108 2.88817 0
M  V30 4151 H 372.982 -0.249724 1.52367 0
M  V30 4152 H 374.94 -3.18329 2.59186 0
M  V30 4153 H 373.601 -2.75747 1.50407 0
M  V30 4154 H 372.794 -3.27932 3.82722 0
M  V30 4155 H 372.396 -1.60469 3.37825 0
M  V30 4156 H 374.688 -3.97201 5.48851 0
M  V30 4157 H 375.631 -2.82549 6.49286 0
M  V30 4158 H 376.039 -3.02934 4.76331 0
M  V30 4159 N 375.437 -1.54477 -0.31217 0
M  V30 4160 C 376.347 -1.87695 -1.4074 0
M  V30 4161 C 377.363 -0.769975 -1.56036 0
M  V30 4162 O 378.539 -1.06537 -1.70915 0
M  V30 4163 C 375.604 -2.10755 -2.75287 0
M  V30 4164 C 374.665 -3.34514 -2.69071 0
M  V30 4165 C 373.898 -3.56465 -3.97201 0
M  V30 4166 O 374.121 -2.81637 -4.96021 0
M  V30 4167 O 373.055 -4.49964 -3.9977 0
M  V30 4168 H 376.881 -2.80849 -1.15574 0
M  V30 4169 H 374.466 -1.40526 -0.507228 0
M  V30 4170 H 376.348 -2.27188 -3.54913 0
M  V30 4171 H 375.023 -1.20788 -3.0032 0
M  V30 4172 H 373.93 -3.23456 -1.87955 0
M  V30 4173 H 375.263 -4.24575 -2.48992 0
M  V30 4174 N 376.915 0.57481 -1.46744 0
M  V30 4175 C 378.164 1.32898 -1.51727 0
M  V30 4176 C 378.477 1.948 -0.176692 0
M  V30 4177 O 379.683 2.71299 -0.104385 0
M  V30 4178 C 378.139 2.40901 -2.67385 0
M  V30 4179 C 377.747 1.85266 -4.07898 0
M  V30 4180 C 379.491 3.17609 -2.81646 0
M  V30 4181 C 377.398 2.90945 -5.14883 0
M  V30 4182 H 376.328 0.499631 -0.564699 0
M  V30 4183 H 378.979 0.612536 -1.72975 0
M  V30 4184 H 377.361 3.15379 -2.39483 0
M  V30 4185 H 378.535 1.17278 -4.45626 0
M  V30 4186 H 376.85 1.21199 -3.98371 0
M  V30 4187 H 379.447 3.96493 -3.58744 0
M  V30 4188 H 379.79 3.70696 -1.89448 0
M  V30 4189 H 380.323 2.50239 -3.09233 0
M  V30 4190 H 377.062 2.42736 -6.089 0
M  V30 4191 H 376.582 3.57398 -4.81691 0
M  V30 4192 H 378.261 3.54755 -5.41071 0
M  V30 4193 N 378.394 1.34581 0.820102 0
M  V30 4194 C 379.64 1.28294 1.57836 0
M  V30 4195 C 379.995 -0.145099 1.91852 0
M  V30 4196 O 379.288 -1.09209 1.57429 0
M  V30 4197 C 379.482 2.10997 2.8847 0
M  V30 4198 C 379.311 3.61698 2.67216 0
M  V30 4199 C 378.081 4.3097 2.63805 0
M  V30 4200 C 380.279 4.55638 2.38534 0
M  V30 4201 N 378.261 5.67502 2.34126 0
M  V30 4202 C 379.632 5.80194 2.18574 0
M  V30 4203 C 381.687 4.44523 2.24285 0
M  V30 4204 C 380.39 6.94886 1.8581 0
M  V30 4205 C 382.416 5.5905 1.92916 0
M  V30 4206 C 381.778 6.82627 1.73782 0
M  V30 4207 H 377.877 0.524697 0.579842 0
M  V30 4208 H 380.461 1.69323 0.961139 0
M  V30 4209 H 378.632 1.7226 3.48111 0
M  V30 4210 H 380.364 1.96333 3.53886 0
M  V30 4211 H 377.119 3.83438 2.77978 0
M  V30 4212 H 377.543 6.39525 2.22118 0
M  V30 4213 H 382.185 3.49599 2.37782 0
M  V30 4214 H 379.903 7.89789 1.7105 0
M  V30 4215 H 383.489 5.52396 1.82619 0
M  V30 4216 H 382.369 7.69748 1.49861 0
M  V30 4217 N 379.872 -1.04064 1.18357 0
M  V30 4218 C 381.1 -1.80916 1.00384 0
M  V30 4219 C 381.515 -1.83414 -0.447738 0
M  V30 4220 O 380.872 -1.26962 -1.31099 0
M  V30 4221 C 380.923 -3.26516 1.55144 0
M  V30 4222 O 380.644 -3.2424 2.94618 0
M  V30 4223 C 382.145 -4.20013 1.41789 0
M  V30 4224 H 379.365 -0.569728 0.354474 0
M  V30 4225 H 381.909 -1.31151 1.56906 0
M  V30 4226 H 380.064 -3.73512 1.02798 0
M  V30 4227 H 380.478 -4.15452 3.20156 0
M  V30 4228 H 381.952 -5.20111 1.84901 0
M  V30 4229 H 382.429 -4.37667 0.36661 0
M  V30 4230 H 383.035 -3.78881 1.93207 0
M  V30 4231 N 381.35 -0.985608 -1.22978 0
M  V30 4232 C 382.627 -0.573599 -1.87001 0
M  V30 4233 C 383.007 0.949213 -1.88555 0
M  V30 4234 O 382.355 1.82811 -1.37086 0
M  V30 4235 C 382.565 -1.18564 -3.28243 0
M  V30 4236 C 383.913 -1.28163 -4.04796 0
M  V30 4237 O 384.937 -1.13949 -3.37482 0
M  V30 4238 O 383.796 -1.50832 -5.25273 0
M  V30 4239 H 380.89 -0.193868 -0.803955 0
M  V30 4240 H 383.436 -1.08102 -1.30813 0
M  V30 4241 H 382.208 -2.22758 -3.21706 0
M  V30 4242 H 381.831 -0.663363 -3.92027 0
M  V30 4243 N 382.828 1.3818 -0.7579 0
M  V30 4244 C 383.775 2.30416 -0.133057 0
M  V30 4245 C 384.745 1.50398 0.704957 0
M  V30 4246 O 385.93 1.79014 0.660192 0
M  V30 4247 C 383.07 3.36834 0.750813 0
M  V30 4248 C 382.183 4.31879 -0.102297 0
M  V30 4249 C 381.318 5.25368 0.784979 0
M  V30 4250 C 380.357 6.12058 -0.0715046 0
M  V30 4251 N 379.494 6.97832 0.772972 0
M  V30 4252 H 384.334 2.83274 -0.925186 0
M  V30 4253 H 381.871 1.39461 -0.467866 0
M  V30 4254 H 383.829 3.97145 1.27794 0
M  V30 4255 H 382.459 2.85374 1.50868 0
M  V30 4256 H 381.511 3.72991 -0.747095 0
M  V30 4257 H 382.823 4.92921 -0.763552 0
M  V30 4258 H 381.977 5.90818 1.37911 0
M  V30 4259 H 380.716 4.64703 1.47996 0
M  V30 4260 H 379.721 5.456 -0.678272 0
M  V30 4261 H 380.946 6.74793 -0.763606 0
M  V30 4262 H 378.892 6.3971 1.45282 0
M  V30 4263 H 378.809 7.55812 0.168709 0
M  V30 4264 H 380.077 7.67687 1.35194 0
M  V30 4265 N 384.306 0.507319 1.49211 0
M  V30 4266 C 385.583 -0.0982702 1.95353 0
M  V30 4267 C 385.963 -1.53516 1.449 0
M  V30 4268 O 385.311 -2.18594 0.66551 0
M  V30 4269 C 385.521 -0.00440283 3.49 0
M  V30 4270 C 386.869 -0.175147 4.24239 0
M  V30 4271 O 387.893 -0.0792891 3.56112 0
M  V30 4272 O 386.752 -0.37276 5.45227 0
M  V30 4273 H 383.846 -0.0918236 0.821887 0
M  V30 4274 H 386.392 0.570307 1.5983 0
M  V30 4275 H 385.164 0.997402 3.78375 0
M  V30 4276 H 384.787 -0.712845 3.91158 0
M  V30 4277 N 385.784 -1.5574 0.241426 0
M  V30 4278 C 386.731 -2.21149 -0.660432 0
M  V30 4279 C 387.701 -1.17356 -1.17545 0
M  V30 4280 O 388.886 -1.45784 -1.23093 0
M  V30 4281 C 386.026 -2.91059 -1.85414 0
M  V30 4282 C 385.139 -4.09495 -1.37616 0
M  V30 4283 C 384.274 -4.67135 -2.529 0
M  V30 4284 C 383.313 -5.77831 -2.01936 0
M  V30 4285 N 382.45 -6.29677 -3.10566 0
M  V30 4286 H 387.29 -2.97845 -0.095955 0
M  V30 4287 H 384.827 -1.47057 -0.0356024 0
M  V30 4288 H 386.785 -3.29788 -2.5553 0
M  V30 4289 H 385.415 -2.16846 -2.39118 0
M  V30 4290 H 384.467 -3.76117 -0.569235 0
M  V30 4291 H 385.779 -4.89423 -0.962618 0
M  V30 4292 H 384.933 -5.08409 -3.31067 0
M  V30 4293 H 383.672 -3.86411 -2.97553 0
M  V30 4294 H 382.677 -5.36039 -1.22238 0
M  V30 4295 H 383.902 -6.60402 -1.58259 0
M  V30 4296 H 381.848 -5.5186 -3.54664 0
M  V30 4297 H 381.765 -7.04783 -2.73526 0
M  V30 4298 H 383.033 -6.75609 -3.88809 0
M  V30 4299 N 387.262 0.0317525 -1.57568 0
M  V30 4300 C 388.511 0.722131 -1.8833 0
M  V30 4301 C 388.824 1.76664 -0.839587 0
M  V30 4302 O 390.03 2.50942 -1.03635 0
M  V30 4303 C 388.486 1.33544 -3.34207 0
M  V30 4304 C 388.094 0.327415 -4.46802 0
M  V30 4305 C 389.838 2.00585 -3.7412 0
M  V30 4306 C 387.745 0.948915 -5.83738 0
M  V30 4307 H 386.675 0.273466 -0.702661 0
M  V30 4308 H 389.326 -0.0235811 -1.83485 0
M  V30 4309 H 387.708 2.13077 -3.33788 0
M  V30 4310 H 388.882 -0.441006 -4.58685 0
M  V30 4311 H 387.197 -0.240758 -4.15703 0
M  V30 4312 H 389.794 2.47932 -4.73744 0
M  V30 4313 H 390.137 2.82285 -3.05975 0
M  V30 4314 H 390.67 1.27831 -3.76702 0
M  V30 4315 H 387.409 0.171387 -6.55276 0
M  V30 4316 H 386.929 1.68724 -5.7558 0
M  V30 4317 H 388.608 1.45705 -6.3038 0
M  V30 4318 N 388.74 1.54641 0.303973 0
M  V30 4319 C 389.687 1.85386 1.37479 0
M  V30 4320 C 390.657 0.702528 1.50512 0
M  V30 4321 O 391.842 0.950867 1.65418 0
M  V30 4322 C 388.982 2.10413 2.73533 0
M  V30 4323 C 388.095 3.38049 2.68974 0
M  V30 4324 C 387.23 3.52934 3.97002 0
M  V30 4325 C 386.269 4.74373 3.86829 0
M  V30 4326 N 385.406 4.8608 5.06627 0
M  V30 4327 H 390.246 2.76732 1.1056 0
M  V30 4328 H 387.783 1.37034 0.534805 0
M  V30 4329 H 389.741 2.22919 3.52652 0
M  V30 4330 H 388.371 1.22338 2.98719 0
M  V30 4331 H 387.423 3.3418 1.81736 0
M  V30 4332 H 388.735 4.27288 2.57346 0
M  V30 4333 H 387.889 3.65088 4.84557 0
M  V30 4334 H 386.628 2.61824 4.1146 0
M  V30 4335 H 385.633 4.62255 2.97658 0
M  V30 4336 H 386.858 5.66888 3.73918 0
M  V30 4337 H 384.804 3.97891 5.21554 0
M  V30 4338 H 384.721 5.69315 4.9741 0
M  V30 4339 H 385.989 5.02587 5.95841 0
M  V30 4340 N 390.218 -0.567019 1.47046 0
M  V30 4341 C 391.467 -1.32091 1.5243 0
M  V30 4342 C 391.78 -1.94704 0.187021 0
M  V30 4343 O 392.986 -2.7124 0.118771 0
M  V30 4344 C 391.442 -2.39479 2.68659 0
M  V30 4345 C 391.05 -1.831 4.08874 0
M  V30 4346 C 392.794 -3.16111 2.83327 0
M  V30 4347 C 390.701 -2.8821 5.16419 0
M  V30 4348 H 389.631 -0.496629 0.56734 0
M  V30 4349 H 392.282 -0.603354 1.73297 0
M  V30 4350 H 390.664 -3.14105 2.41152 0
M  V30 4351 H 391.838 -1.14913 4.46242 0
M  V30 4352 H 390.153 -1.19085 3.99008 0
M  V30 4353 H 392.75 -3.94585 3.60842 0
M  V30 4354 H 393.093 -3.69686 1.91411 0
M  V30 4355 H 393.626 -2.48595 3.10556 0
M  V30 4356 H 390.365 -2.39504 6.10179 0
M  V30 4357 H 389.885 -3.54839 4.8358 0
M  V30 4358 H 391.564 -3.51881 5.42945 0
M  V30 4359 N 391.696 -1.35014 -0.812953 0
M  V30 4360 C 392.924 -1.31031 -1.6012 0
M  V30 4361 C 393.339 0.113558 -1.88458 0
M  V30 4362 O 392.696 1.06363 -1.48301 0
M  V30 4363 C 392.747 -2.10872 -2.93624 0
M  V30 4364 O 392.468 -3.47706 -2.66518 0
M  V30 4365 C 393.969 -2.14401 -3.88004 0
M  V30 4366 H 391.189 -0.45037 -0.497401 0
M  V30 4367 H 393.733 -1.77775 -1.01076 0
M  V30 4368 H 391.888 -1.67744 -3.492 0
M  V30 4369 H 392.302 -3.89097 -3.51715 0
M  V30 4370 H 393.776 -2.74669 -4.78812 0
M  V30 4371 H 394.253 -1.14105 -4.24119 0
M  V30 4372 H 394.859 -2.57662 -3.38364 0
M  V30 4373 N 393.175 1.03435 -1.18907 0
M  V30 4374 C 394.586 1.58195 -0.991523 0
M  V30 4375 C 394.937 1.90801 0.457081 0
M  V30 4376 O 394.062 1.70272 1.33553 0
M  V30 4377 C 394.657 2.87432 -1.79355 0
M  V30 4378 C 393.216 3.38785 -1.64017 0
M  V30 4379 C 392.363 2.12292 -1.78402 0
M  V30 4380 H 395.314 0.860299 -1.33359 0
M  V30 4381 H 395.335 3.58096 -1.28638 0
M  V30 4382 H 394.847 2.63669 -2.84781 0
M  V30 4383 H 392.948 3.67547 -0.611536 0
M  V30 4384 H 393.061 4.12186 -2.44212 0
M  V30 4385 H 391.425 2.23901 -1.2141 0
M  V30 4386 H 392.208 1.90977 -2.85277 0
M  V30 4387 N 394.653 0.992116 1.22453 0
M  V30 4388 C 395.601 0.534644 2.26372 0
M  V30 4389 C 396.595 -0.414293 1.64256 0
M  V30 4390 O 397.801 -0.286899 1.77699 0
M  V30 4391 H 394.176 0.154502 0.735957 0
M  V30 4392 H 396.147 1.42256 2.62309 0
M  V30 4393 C 394.896 -0.135815 3.47435 0
M  V30 4394 H 394.219 0.585311 3.95492 0
M  V30 4395 H 395.659 -0.419374 4.21921 0
M  V30 4396 C 394.118 -1.37089 3.07747 0
M  V30 4397 O 394.648 -2.46629 3.17076 0
M  V30 4398 N 392.854 -1.24585 2.62539 0
M  V30 4399 H 392.401 -0.354542 2.55149 0
M  V30 4400 H 392.359 -2.07327 2.36353 0
M  V30 4401 N 396.131 -1.37776 0.765217 0
M  V30 4402 C 397.094 -2.28686 0.153416 0
M  V30 4403 C 398.094 -1.47727 -0.635081 0
M  V30 4404 O 399.284 -1.68027 -0.459632 0
M  V30 4405 C 396.416 -3.31608 -0.790495 0
M  V30 4406 H 397.609 -2.84297 0.954723 0
M  V30 4407 H 395.162 -1.46932 0.53299 0
M  V30 4408 H 395.897 -2.81109 -1.61705 0
M  V30 4409 H 395.682 -3.9144 -0.227348 0
M  V30 4410 H 397.172 -3.99559 -1.21419 0
M  V30 4411 N 397.609 -0.515225 -1.4894 0
M  V30 4412 C 398.834 0.022727 -2.07388 0
M  V30 4413 C 399.259 1.2876 -1.37122 0
M  V30 4414 O 398.617 1.76067 -0.432431 0
M  V30 4415 C 398.665 0.244869 -3.59768 0
M  V30 4416 O 397.769 1.31667 -3.90817 0
M  V30 4417 H 397.11 -0.0325506 -0.663202 0
M  V30 4418 H 399.64 -0.718918 -1.91553 0
M  V30 4419 H 399.65 0.47205 -4.0526 0
M  V30 4420 H 398.325 -0.679194 -4.10317 0
M  V30 4421 H 396.902 1.07331 -3.5712 0
M  V30 4422 N 399.087 1.5561 -0.249682 0
M  V30 4423 C 400.334 1.99011 0.374287 0
M  V30 4424 C 400.662 1.13785 1.57744 0
M  V30 4425 O 399.917 0.189326 1.94782 0
M  V30 4426 C 400.216 3.4775 0.824887 0
M  V30 4427 C 399.882 4.50086 -0.270819 0
M  V30 4428 C 398.544 4.77791 -0.571746 0
M  V30 4429 C 400.896 5.11312 -1.01041 0
M  V30 4430 C 398.224 5.63997 -1.61629 0
M  V30 4431 C 400.576 5.98651 -2.0445 0
M  V30 4432 C 399.24 6.24688 -2.35204 0
M  V30 4433 H 398.51 0.728233 0.136961 0
M  V30 4434 H 401.157 1.88122 -0.358087 0
M  V30 4435 H 399.462 3.55985 1.63651 0
M  V30 4436 H 401.159 3.78721 1.31799 0
M  V30 4437 H 397.749 4.28592 -0.026136 0
M  V30 4438 H 401.933 4.89953 -0.791177 0
M  V30 4439 H 397.189 5.82425 -1.85988 0
M  V30 4440 H 401.363 6.45135 -2.62248 0
M  V30 4441 H 398.99 6.91281 -3.16282 0
M  V30 4442 N 400.565 -0.0233959 1.57583 0
M  V30 4443 C 401.793 -0.724682 1.93794 0
M  V30 4444 C 402.208 -1.68588 0.849912 0
M  V30 4445 O 401.565 -1.81676 -0.173204 0
M  V30 4446 C 401.616 -1.47684 3.29957 0
M  V30 4447 O 401.337 -0.554222 4.3458 0
M  V30 4448 C 402.838 -2.27477 3.80485 0
M  V30 4449 H 400.058 -0.203317 0.639455 0
M  V30 4450 H 402.602 0.0207653 2.04489 0
M  V30 4451 H 400.757 -2.17412 3.20641 0
M  V30 4452 H 401.171 -1.08232 5.13212 0
M  V30 4453 H 402.645 -2.7564 4.78254 0
M  V30 4454 H 403.122 -3.09144 3.11972 0
M  V30 4455 H 403.728 -1.62813 3.92902 0
M  V30 4456 N 402.043 -1.548 -0.295768 0
M  V30 4457 C 402.973 -1.89115 -1.36959 0
M  V30 4458 C 403.954 -0.75059 -1.52644 0
M  V30 4459 O 405.139 -1.00678 -1.66065 0
M  V30 4460 C 402.269 -2.14307 -2.73295 0
M  V30 4461 C 401.223 -3.30151 -2.72368 0
M  V30 4462 C 400.549 -3.40772 -4.12042 0
M  V30 4463 C 401.849 -4.67126 -2.33646 0
M  V30 4464 H 403.543 -2.79053 -1.08488 0
M  V30 4465 H 401.089 -1.34266 -0.520443 0
M  V30 4466 H 403.042 -2.36898 -3.48507 0
M  V30 4467 H 401.766 -1.21145 -3.03301 0
M  V30 4468 H 400.425 -3.0749 -1.99613 0
M  V30 4469 H 400.073 -2.45117 -4.39234 0
M  V30 4470 H 399.773 -4.18645 -4.12322 0
M  V30 4471 H 401.297 -3.6563 -4.89027 0
M  V30 4472 H 402.711 -4.89414 -2.98575 0
M  V30 4473 H 401.108 -5.47751 -2.45129 0
M  V30 4474 H 402.178 -4.67489 -1.28772 0
M  V30 4475 N 403.521 0.559213 -1.47345 0
M  V30 4476 C 404.431 1.69388 -1.62311 0
M  V30 4477 C 405.447 1.6648 -0.505993 0
M  V30 4478 O 406.623 1.85964 -0.773262 0
M  V30 4479 C 403.688 3.05894 -1.63185 0
M  V30 4480 C 402.749 3.19885 -2.86307 0
M  V30 4481 C 401.982 4.49879 -2.87131 0
M  V30 4482 O 402.205 5.35217 -1.97229 0
M  V30 4483 O 401.139 4.67618 -3.78968 0
M  V30 4484 H 404.965 1.59706 -2.58317 0
M  V30 4485 H 402.55 0.728989 -1.30407 0
M  V30 4486 H 404.432 3.87133 -1.66451 0
M  V30 4487 H 403.107 3.15964 -0.70345 0
M  V30 4488 H 402.014 2.38052 -2.88587 0
M  V30 4489 H 403.347 3.14718 -3.78435 0
M  V30 4490 N 404.999 1.35443 0.805782 0
M  V30 4491 C 405.947 1.28465 1.93906 0
M  V30 4492 C 406.941 0.17943 1.68447 0
M  V30 4493 O 408.147 0.345459 1.76654 0
M  V30 4494 H 404.522 0.399528 0.637088 0
M  V30 4495 H 406.493 2.24206 1.96912 0
M  V30 4496 C 405.242 1.07432 3.30687 0
M  V30 4497 H 404.565 1.91716 3.50835 0
M  V30 4498 H 406.005 1.06591 4.10383 0
M  V30 4499 C 404.464 -0.22179 3.36169 0
M  V30 4500 O 404.994 -1.21731 3.82811 0
M  V30 4501 N 403.2 -0.260841 2.89427 0
M  V30 4502 H 402.747 0.549884 2.51663 0
M  V30 4503 H 402.705 -1.12777 2.93477 0
M  V30 4504 N 406.477 -1.02803 1.19454 0
M  V30 4505 C 407.724 -1.76217 0.997693 0
M  V30 4506 C 408.052 -1.887 -0.47144 0
M  V30 4507 O 407.307 -1.4011 -1.3663 0
M  V30 4508 C 407.606 -3.18941 1.6128 0
M  V30 4509 C 407.272 -3.26463 3.11019 0
M  V30 4510 C 405.934 -3.28223 3.51885 0
M  V30 4511 C 408.286 -3.25542 4.07028 0
M  V30 4512 C 405.614 -3.26719 4.8731 0
M  V30 4513 C 407.966 -3.25579 5.42385 0
M  V30 4514 C 406.63 -3.25637 5.82681 0
M  V30 4515 H 405.9 -0.644823 0.365082 0
M  V30 4516 H 408.547 -1.20655 1.4871 0
M  V30 4517 H 406.852 -3.77587 1.04572 0
M  V30 4518 H 408.549 -3.74415 1.43577 0
M  V30 4519 H 405.139 -3.25822 2.78457 0
M  V30 4520 H 409.323 -3.23362 3.76498 0
M  V30 4521 H 404.579 -3.25089 5.1781 0
M  V30 4522 H 408.753 -3.23817 6.16535 0
M  V30 4523 H 406.38 -3.24226 6.87591 0
M  V30 4524 N 407.956 -0.998596 -1.21925 0
M  V30 4525 C 409.181 -0.696015 -1.95372 0
M  V30 4526 C 409.606 0.733826 -1.73195 0
M  V30 4527 O 408.964 1.50242 -1.01474 0
M  V30 4528 C 409.012 -1.01466 -3.4603 0
M  V30 4529 O 408.116 -0.116415 -4.12236 0
M  V30 4530 H 407.457 -0.259938 -0.611006 0
M  V30 4531 H 409.987 -1.33711 -1.54863 0
M  V30 4532 H 409.997 -0.958855 -3.96573 0
M  V30 4533 H 408.672 -2.05653 -3.61497 0
M  V30 4534 H 407.249 -0.228193 -3.72201 0
M  V30 4535 N 409.434 1.37368 -0.772513 0
M  V30 4536 C 410.381 2.30262 -0.157488 0
M  V30 4537 C 411.351 1.51137 0.688965 0
M  V30 4538 O 412.536 1.79704 0.641168 0
M  V30 4539 C 409.676 3.37611 0.715045 0
M  V30 4540 C 408.789 4.31746 -0.148098 0
M  V30 4541 C 407.924 5.26171 0.729213 0
M  V30 4542 C 406.963 6.11948 -0.136418 0
M  V30 4543 N 406.1 6.98613 0.698914 0
M  V30 4544 H 410.94 2.82277 -0.955179 0
M  V30 4545 H 408.477 1.38957 -0.482631 0
M  V30 4546 H 410.435 3.98479 1.23575 0
M  V30 4547 H 409.065 2.86959 1.47833 0
M  V30 4548 H 408.117 3.72178 -0.786613 0
M  V30 4549 H 409.429 4.92084 -0.81579 0
M  V30 4550 H 408.583 5.92247 1.31637 0
M  V30 4551 H 407.322 4.66246 1.43059 0
M  V30 4552 H 406.327 5.4485 -0.736102 0
M  V30 4553 H 407.552 6.73945 -0.835134 0
M  V30 4554 H 405.498 6.41215 1.38489 0
M  V30 4555 H 405.415 7.55948 0.0885358 0
M  V30 4556 H 406.683 7.69077 1.27044 0
M  V30 4557 N 410.912 0.523116 1.48665 0
M  V30 4558 C 412.158 -0.00540031 2.03399 0
M  V30 4559 C 412.513 -1.3264 1.39372 0
M  V30 4560 O 411.806 -1.84184 0.527916 0
M  V30 4561 C 412 -0.191671 3.56886 0
M  V30 4562 C 411.829 1.10972 4.35793 0
M  V30 4563 C 410.599 1.66769 4.76987 0
M  V30 4564 C 412.797 2.01861 4.73029 0
M  V30 4565 N 410.779 2.91268 5.40404 0
M  V30 4566 C 412.15 3.10937 5.36394 0
M  V30 4567 C 414.205 2.02271 4.54962 0
M  V30 4568 C 412.908 4.20478 5.83601 0
M  V30 4569 C 414.934 3.10802 5.03146 0
M  V30 4570 C 414.296 4.18597 5.6653 0
M  V30 4571 H 410.395 0.0393531 0.781009 0
M  V30 4572 H 412.979 0.702876 1.8157 0
M  V30 4573 H 411.15 -0.869025 3.78553 0
M  V30 4574 H 412.882 -0.719177 3.98259 0
M  V30 4575 H 409.637 1.20996 4.57883 0
M  V30 4576 H 410.061 3.54635 5.76683 0
M  V30 4577 H 414.703 1.2023 4.05345 0
M  V30 4578 H 412.421 5.03303 6.32228 0
M  V30 4579 H 416.007 3.12166 4.90962 0
M  V30 4580 H 414.887 5.01193 6.03138 0
M  V30 4581 N 412.39 -1.55475 0.257931 0
M  V30 4582 C 413.806 -1.59307 -0.0966563 0
M  V30 4583 C 414.006 -1.27514 -1.5602 0
M  V30 4584 O 413.062 -1.02774 -2.30637 0
M  V30 4585 C 414.375 -2.99552 0.262481 0
M  V30 4586 C 415.923 -3.1231 0.207683 0
M  V30 4587 C 416.398 -4.54793 0.541012 0
M  V30 4588 N 417.889 -4.6058 0.491921 0
M  V30 4589 C 418.624 -5.68825 0.722857 0
M  V30 4590 N 418.12 -6.85287 1.0175 0
M  V30 4591 N 419.913 -5.58296 0.652815 0
M  V30 4592 H 412.064 -1.74409 1.21224 0
M  V30 4593 H 414.327 -0.812424 0.48854 0
M  V30 4594 H 414.033 -3.27593 1.27967 0
M  V30 4595 H 413.907 -3.75019 -0.40508 0
M  V30 4596 H 416.294 -2.84044 -0.800195 0
M  V30 4597 H 416.375 -2.39095 0.909255 0
M  V30 4598 H 416.019 -4.83783 1.5465 0
M  V30 4599 H 415.949 -5.26285 -0.18216 0
M  V30 4600 H 418.44 -3.7691 0.273366 0
M  V30 4601 H 418.753 -7.63725 1.18084 0
M  V30 4602 H 417.098 -6.86945 1.05509 0
M  V30 4603 H 420.289 -4.66189 0.422592 0
M  V30 4604 H 420.462 -6.42582 0.836182 0
M  V30 4605 N 413.868 0.0150385 -1.57593 0
M  V30 4606 C 415.116 0.701613 -1.8953 0
M  V30 4607 C 415.437 1.75139 -0.857396 0
M  V30 4608 O 414.707 1.95607 0.107194 0
M  V30 4609 H 413.287 0.26213 -0.699498 0
M  V30 4610 H 415.949 -0.0223304 -1.94887 0
M  V30 4611 H 415.045 1.18236 -2.88837 0
M  V30 4612 N 415.346 1.54954 0.287554 0
M  V30 4613 C 416.571 1.79209 1.04397 0
M  V30 4614 C 416.996 0.556431 1.79682 0
M  V30 4615 O 416.354 -0.493518 1.74454 0
M  V30 4616 C 416.402 3.00739 1.98969 0
M  V30 4617 O 415.506 2.74805 3.075 0
M  V30 4618 H 414.847 0.592755 0.299227 0
M  V30 4619 H 417.377 2.02068 0.320886 0
M  V30 4620 H 417.387 3.29077 2.4119 0
M  V30 4621 H 416.062 3.90329 1.43582 0
M  V30 4622 H 414.639 2.57523 2.69697 0
M  V30 4623 N 416.824 -0.551391 1.4764 0
M  V30 4624 C 418.07 -1.31024 1.54792 0
M  V30 4625 C 418.403 -1.9304 0.211967 0
M  V30 4626 O 417.678 -1.78175 -0.77999 0
M  V30 4627 C 417.961 -2.41593 2.67029 0
M  V30 4628 C 417.814 -1.84408 4.10261 0
M  V30 4629 C 419.133 -3.43488 2.75143 0
M  V30 4630 H 416.252 -0.475031 0.563485 0
M  V30 4631 H 418.894 -0.616454 1.79722 0
M  V30 4632 H 417.044 -3.00772 2.45904 0
M  V30 4633 H 418.716 -1.29445 4.42766 0
M  V30 4634 H 416.959 -1.15051 4.18265 0
M  V30 4635 H 417.63 -2.64367 4.84576 0
M  V30 4636 H 420.106 -2.94236 2.94218 0
M  V30 4637 H 418.982 -4.18274 3.55441 0
M  V30 4638 H 419.243 -4.02703 1.82435 0
M  V30 4639 N 418.302 -1.35869 -0.798587 0
M  V30 4640 C 419.232 -1.32118 -1.92528 0
M  V30 4641 C 420.213 -0.194209 -1.68988 0
M  V30 4642 O 421.398 -0.390426 -1.90235 0
M  V30 4643 C 418.528 -1.10047 -3.29404 0
M  V30 4644 C 417.482 -2.19471 -3.67446 0
M  V30 4645 C 416.808 -1.82555 -5.02571 0
M  V30 4646 C 418.108 -3.61495 -3.76987 0
M  V30 4647 H 419.802 -2.26394 -1.95924 0
M  V30 4648 H 417.348 -1.08981 -0.94123 0
M  V30 4649 H 419.301 -1.06061 -4.07835 0
M  V30 4650 H 418.025 -0.122195 -3.26371 0
M  V30 4651 H 416.684 -2.22568 -2.91306 0
M  V30 4652 H 416.332 -0.833249 -4.9605 0
M  V30 4653 H 416.032 -2.5581 -5.28995 0
M  V30 4654 H 417.556 -1.80108 -5.83432 0
M  V30 4655 H 418.97 -3.60676 -4.4563 0
M  V30 4656 H 417.367 -4.33577 -4.14887 0
M  V30 4657 H 418.437 -3.97065 -2.78329 0
M  V30 4658 N 419.78 1.02168 -1.19998 0
M  V30 4659 C 421.005 1.79833 -1.03319 0
M  V30 4660 C 421.43 1.83504 0.413281 0
M  V30 4661 O 420.788 1.26635 1.29743 0
M  V30 4662 C 420.836 3.22396 -1.61533 0
M  V30 4663 O 419.94 4.03555 -0.849519 0
M  V30 4664 H 419.281 0.554872 -0.364709 0
M  V30 4665 H 421.811 1.28542 -1.59179 0
M  V30 4666 H 421.821 3.73124 -1.65054 0
M  V30 4667 H 420.496 3.19039 -2.66809 0
M  V30 4668 H 419.073 3.62169 -0.888129 0
M  V30 4669 N 421.258 1.00505 1.21394 0
M  V30 4670 C 422.674 0.717873 1.42544 0
M  V30 4671 C 422.874 -0.706936 1.88692 0
M  V30 4672 O 421.93 -1.47627 2.04847 0
M  V30 4673 C 423.243 1.73377 2.45684 0
M  V30 4674 C 424.791 1.75059 2.59467 0
M  V30 4675 C 425.266 2.75545 3.6584 0
M  V30 4676 N 426.757 2.74213 3.73311 0
M  V30 4677 C 427.492 3.48626 4.55245 0
M  V30 4678 N 426.988 4.32678 5.41075 0
M  V30 4679 N 428.781 3.37276 4.49668 0
M  V30 4680 H 420.932 1.92506 0.897503 0
M  V30 4681 H 423.195 0.830919 0.456375 0
M  V30 4682 H 422.901 2.75395 2.18748 0
M  V30 4683 H 422.775 1.53647 3.44489 0
M  V30 4684 H 425.162 0.737337 2.8574 0
M  V30 4685 H 425.243 1.98861 1.60897 0
M  V30 4686 H 424.887 3.77028 3.40313 0
M  V30 4687 H 424.817 2.49009 4.64007 0
M  V30 4688 H 427.308 2.13234 3.11993 0
M  V30 4689 H 427.621 4.86253 6.00648 0
M  V30 4690 H 425.966 4.3676 5.40616 0
M  V30 4691 H 429.157 2.71043 3.81646 0
M  V30 4692 H 429.33 3.95524 5.13288 0
M  V30 4693 N 422.737 -1.36956 0.779787 0
M  V30 4694 C 424.153 -1.52817 0.460342 0
M  V30 4695 C 424.353 -1.7361 -1.02283 0
M  V30 4696 O 423.409 -1.76207 -1.80852 0
M  V30 4697 C 424.722 -2.71983 1.28241 0
M  V30 4698 C 426.27 -2.85849 1.27512 0
M  V30 4699 C 426.745 -4.08008 2.08072 0
M  V30 4700 N 428.236 -4.15135 2.05467 0
M  V30 4701 C 428.971 -5.08711 2.64577 0
M  V30 4702 N 428.467 -6.07792 3.32506 0
M  V30 4703 N 430.26 -5.01254 2.54363 0
M  V30 4704 H 422.411 -1.21713 1.74068 0
M  V30 4705 H 424.674 -0.593294 0.739396 0
M  V30 4706 H 424.38 -2.63109 2.33381 0
M  V30 4707 H 424.254 -3.65882 0.917088 0
M  V30 4708 H 426.641 -2.94189 0.231686 0
M  V30 4709 H 426.722 -1.92886 1.68014 0
M  V30 4710 H 426.366 -4.00429 3.12441 0
M  V30 4711 H 426.296 -5.001 1.64947 0
M  V30 4712 H 428.787 -3.44189 1.5602 0
M  V30 4713 H 429.1 -6.75739 3.74963 0
M  V30 4714 H 427.445 -6.08047 3.36606 0
M  V30 4715 H 430.636 -4.22795 2.00902 0
M  V30 4716 H 430.809 -5.73995 3.00722 0
M  V30 4717 N 424.215 -0.530993 -1.48385 0
M  V30 4718 C 425.162 0.231223 -2.29639 0
M  V30 4719 C 426.132 0.932864 -1.37429 0
M  V30 4720 O 427.317 0.933692 -1.66394 0
M  V30 4721 C 424.457 1.27155 -3.2082 0
M  V30 4722 C 423.57 0.578655 -4.28107 0
M  V30 4723 C 422.705 1.602 -5.06467 0
M  V30 4724 C 421.744 0.892625 -6.05556 0
M  V30 4725 N 420.881 1.86157 -6.76971 0
M  V30 4726 H 425.721 -0.467848 -2.94305 0
M  V30 4727 H 423.258 -0.242556 -1.45086 0
M  V30 4728 H 425.216 1.88703 -3.72085 0
M  V30 4729 H 423.846 1.939 -2.58075 0
M  V30 4730 H 422.898 -0.150782 -3.80101 0
M  V30 4731 H 424.21 0.0217065 -4.98795 0
M  V30 4732 H 423.364 2.29173 -5.61751 0
M  V30 4733 H 422.103 2.19285 -4.35621 0
M  V30 4734 H 421.108 0.188829 -5.49476 0
M  V30 4735 H 422.333 0.307878 -6.78402 0
M  V30 4736 H 420.279 2.44147 -6.08875 0
M  V30 4737 H 420.196 1.35608 -7.43738 0
M  V30 4738 H 421.464 2.54325 -7.36844 0
M  V30 4739 N 425.693 1.55336 -0.266172 0
M  V30 4740 C 427.109 1.59356 0.0882065 0
M  V30 4741 C 427.309 1.2834 1.55342 0
M  V30 4742 O 426.365 1.03996 2.30089 0
M  V30 4743 C 427.678 2.99409 -0.278364 0
M  V30 4744 C 429.226 3.12196 -0.224243 0
M  V30 4745 C 429.701 4.545 -0.565123 0
M  V30 4746 N 431.192 4.60313 -0.51634 0
M  V30 4747 C 431.927 5.68434 -0.753013 0
M  V30 4748 N 431.423 6.84738 -1.05383 0
M  V30 4749 N 433.216 5.57942 -0.682414 0
M  V30 4750 H 425.367 1.73764 -1.22147 0
M  V30 4751 H 427.63 0.809822 -0.492841 0
M  V30 4752 H 427.336 3.2691 -1.29703 0
M  V30 4753 H 427.21 3.75228 0.385186 0
M  V30 4754 H 429.597 2.84464 0.78512 0
M  V30 4755 H 429.678 2.38609 -0.921922 0
M  V30 4756 H 429.322 4.82956 -1.57213 0
M  V30 4757 H 429.252 5.26374 0.154248 0
M  V30 4758 H 431.743 3.7676 -0.29335 0
M  V30 4759 H 432.056 7.63088 -1.22133 0
M  V30 4760 H 430.401 6.86375 -1.09151 0
M  V30 4761 H 433.592 4.65958 -0.44731 0
M  V30 4762 H 433.765 6.4213 -0.870248 0
M  V30 4763 N 427.171 -0.0066808 1.57599 0
M  V30 4764 C 428.121 -1.0086 2.04478 0
M  V30 4765 C 429.105 -1.30714 0.938231 0
M  V30 4766 O 430.297 -1.29924 1.20203 0
M  V30 4767 C 427.426 -2.30273 2.54615 0
M  V30 4768 C 426.512 -2.03413 3.72134 0
M  V30 4769 N 426.903 -1.46688 4.84062 0
M  V30 4770 C 425.201 -2.33589 3.79937 0
M  V30 4771 C 425.902 -1.36146 5.65543 0
M  V30 4772 N 424.878 -1.84477 5.1134 0
M  V30 4773 H 428.68 -0.564402 2.8843 0
M  V30 4774 H 426.194 -0.212521 1.61003 0
M  V30 4775 H 428.191 -3.02885 2.86472 0
M  V30 4776 H 426.851 -2.75352 1.72079 0
M  V30 4777 H 427.862 -1.14658 5.05049 0
M  V30 4778 H 424.539 -2.81589 3.08243 0
M  V30 4779 H 425.929 -0.925873 6.6549 0
M  V30 4780 N 428.649 -1.55105 -0.279332 0
M  V30 4781 C 429.926 -1.66119 -1.03267 0
M  V30 4782 C 430.306 -0.523525 -2.04505 0
M  V30 4783 O 429.654 0.477194 -2.23462 0
M  V30 4784 C 429.864 -3.05067 -1.69515 0
M  V30 4785 C 431.212 -3.62606 -2.20912 0
M  V30 4786 O 432.236 -3.07659 -1.79512 0
M  V30 4787 O 431.095 -4.58861 -2.96831 0
M  V30 4788 H 428.189 -0.674429 -0.478618 0
M  V30 4789 H 430.735 -1.67446 -0.275694 0
M  V30 4790 H 429.507 -3.79311 -0.9612 0
M  V30 4791 H 429.13 -3.07611 -2.51915 0
M  V30 4792 N 430.127 0.543554 -1.4793 0
M  V30 4793 C 431.376 1.29649 -1.54512 0
M  V30 4794 C 431.689 1.94382 -0.217973 0
M  V30 4795 O 432.895 2.71017 -0.161908 0
M  V30 4796 C 431.351 2.35175 -2.72435 0
M  V30 4797 C 430.959 1.76572 -4.11736 0
M  V30 4798 C 432.703 3.11564 -2.8832 0
M  V30 4799 C 430.61 2.79958 -5.20939 0
M  V30 4800 H 429.54 0.487541 -0.57517 0
M  V30 4801 H 432.191 0.575708 -1.74235 0
M  V30 4802 H 430.573 3.10229 -2.46118 0
M  V30 4803 H 431.747 1.07799 -4.48013 0
M  V30 4804 H 430.062 1.12722 -4.00852 0
M  V30 4805 H 432.659 3.88794 -3.67074 0
M  V30 4806 H 433.002 3.66594 -1.97268 0
M  V30 4807 H 433.535 2.43623 -3.14472 0
M  V30 4808 H 430.274 2.29766 -6.13912 0
M  V30 4809 H 429.794 3.47101 -4.89164 0
M  V30 4810 H 431.473 3.43198 -5.48474 0
M  V30 4811 N 431.605 1.3629 0.791371 0
M  V30 4812 C 432.568 1.30309 1.88553 0
M  V30 4813 C 433.568 0.211204 1.59407 0
M  V30 4814 O 434.758 0.465865 1.67855 0
M  V30 4815 C 431.89 1.01956 3.25297 0
M  V30 4816 H 433.083 2.27614 1.95273 0
M  V30 4817 H 430.636 1.21035 0.988953 0
M  V30 4818 H 431.371 0.050998 3.2426 0
M  V30 4819 H 431.156 1.80968 3.4784 0
M  V30 4820 H 432.646 1.0037 4.05359 0
M  V30 4821 N 433.083 -1.0153 1.20538 0
M  V30 4822 C 434.015 -2.10224 0.913155 0
M  V30 4823 C 435.028 -1.62495 -0.0995998 0
M  V30 4824 O 436.217 -1.78014 0.131582 0
M  V30 4825 C 433.317 -3.37111 0.347717 0
M  V30 4826 C 432.49 -4.13971 1.41233 0
M  V30 4827 C 431.549 -5.19158 0.857976 0
M  V30 4828 O 430.575 -5.48 1.53897 0
M  V30 4829 N 431.777 -5.7955 -0.331966 0
M  V30 4830 H 434.542 -2.35879 1.84881 0
M  V30 4831 H 432.103 -1.17931 1.10923 0
M  V30 4832 H 434.095 -4.04683 -0.0373026 0
M  V30 4833 H 432.665 -3.08696 -0.492527 0
M  V30 4834 H 431.885 -3.41351 1.97163 0
M  V30 4835 H 433.173 -4.62103 2.12928 0
M  V30 4836 H 432.571 -5.58455 -0.902478 0
M  V30 4837 H 431.128 -6.48464 -0.65861 0
M  V30 4838 N 434.561 -1.01147 -1.20859 0
M  V30 4839 C 435.491 -0.597663 -2.25722 0
M  V30 4840 C 436.472 0.384744 -1.65692 0
M  V30 4841 O 437.657 0.271303 -1.92296 0
M  V30 4842 C 434.787 0.0700149 -3.47229 0
M  V30 4843 C 433.741 -0.832843 -4.19819 0
M  V30 4844 C 433.067 -0.0312202 -5.34691 0
M  V30 4845 C 434.367 -2.1385 -4.76514 0
M  V30 4846 H 436.061 -1.47423 -2.60589 0
M  V30 4847 H 433.607 -0.710301 -1.25263 0
M  V30 4848 H 435.56 0.37103 -4.19763 0
M  V30 4849 H 434.284 0.981259 -3.11511 0
M  V30 4850 H 432.943 -1.11778 -3.49144 0
M  V30 4851 H 432.591 0.881515 -4.95215 0
M  V30 4852 H 432.291 -0.632434 -5.84187 0
M  V30 4853 H 433.815 0.26346 -6.10031 0
M  V30 4854 H 435.229 -1.9002 -5.40893 0
M  V30 4855 H 433.626 -2.69012 -5.36426 0
M  V30 4856 H 434.696 -2.80495 -3.95538 0
M  V30 4857 N 436.039 1.36541 -0.78704 0
M  V30 4858 C 437.288 1.98552 -0.35494 0
M  V30 4859 C 437.601 1.63171 1.07864 0
M  V30 4860 O 438.807 2.18399 1.61289 0
M  V30 4861 C 437.263 3.55136 -0.583671 0
M  V30 4862 C 436.871 3.99444 -2.02851 0
M  V30 4863 C 438.615 4.2395 -0.215957 0
M  V30 4864 C 436.522 5.48796 -2.20403 0
M  V30 4865 H 435.452 0.742888 -0.128972 0
M  V30 4866 H 438.103 1.5587 -0.968337 0
M  V30 4867 H 436.485 3.95875 0.0994046 0
M  V30 4868 H 437.659 3.6991 -2.74779 0
M  V30 4869 H 435.974 3.43459 -2.35425 0
M  V30 4870 H 438.571 5.33709 -0.325405 0
M  V30 4871 H 438.914 4.07827 0.835646 0
M  V30 4872 H 439.447 3.88565 -0.852175 0
M  V30 4873 H 436.186 5.69864 -3.23937 0
M  V30 4874 H 435.706 5.79964 -1.52977 0
M  V30 4875 H 437.385 6.14986 -2.01002 0
M  V30 4876 N 437.518 0.538854 1.48102 0
M  V30 4877 C 438.746 0.0123136 2.06896 0
M  V30 4878 C 439.161 -1.27312 1.39417 0
M  V30 4879 O 438.518 -1.75949 0.484582 0
M  V30 4880 C 438.569 -0.206118 3.60912 0
M  V30 4881 O 438.29 1.0284 4.25859 0
M  V30 4882 C 439.791 -0.772033 4.36526 0
M  V30 4883 H 437.011 0.0375239 0.66995 0
M  V30 4884 H 439.555 0.747032 1.90367 0
M  V30 4885 H 437.71 -0.89091 3.77017 0
M  V30 4886 H 438.124 0.814654 5.18135 0
M  V30 4887 H 439.598 -0.874251 5.45033 0
M  V30 4888 H 440.075 -1.77904 4.01555 0
M  V30 4889 H 440.681 -0.123526 4.25121 0
M  V30 4890 N 438.996 -1.55193 0.274407 0
M  V30 4891 C 439.959 -2.212 -0.600279 0
M  V30 4892 C 440.959 -1.18963 -1.08187 0
M  V30 4893 O 442.149 -1.43873 -0.982158 0
M  V30 4894 C 439.281 -2.87739 -1.82809 0
M  V30 4895 H 440.474 -2.9989 -0.0239682 0
M  V30 4896 H 438.027 -1.5628 0.0250192 0
M  V30 4897 H 438.762 -2.13058 -2.44493 0
M  V30 4898 H 438.547 -3.62658 -1.49069 0
M  V30 4899 H 440.037 -3.38171 -2.45011 0
M  V30 4900 N 440.474 -0.00167713 -1.576 0
M  V30 4901 C 441.702 0.693759 -1.94922 0
M  V30 4902 C 442.117 1.67215 -0.876626 0
M  V30 4903 O 441.474 1.81929 0.144279 0
M  V30 4904 C 441.525 1.42416 -3.32265 0
M  V30 4905 O 441.246 0.485014 -4.35407 0
M  V30 4906 C 442.747 2.21395 -3.84056 0
M  V30 4907 H 439.967 0.193118 -0.642609 0
M  V30 4908 H 442.511 -0.0532952 -2.04431 0
M  V30 4909 H 440.666 2.12284 -3.24059 0
M  V30 4910 H 441.08 1.00053 -5.14868 0
M  V30 4911 H 442.554 2.67996 -4.82578 0
M  V30 4912 H 443.031 3.04142 -3.16851 0
M  V30 4913 H 443.637 1.56542 -3.95443 0
M  V30 4914 N 441.952 1.55251 0.271103 0
M  V30 4915 C 442.862 1.9136 1.35714 0
M  V30 4916 C 443.878 0.811075 1.5394 0
M  V30 4917 O 445.054 1.11031 1.6803 0
M  V30 4918 C 442.119 2.1798 2.69603 0
M  V30 4919 C 441.18 3.4153 2.60107 0
M  V30 4920 C 440.413 3.66871 3.8761 0
M  V30 4921 O 440.636 2.94689 4.8838 0
M  V30 4922 O 439.57 4.60405 3.87699 0
M  V30 4923 H 443.396 2.83815 1.08088 0
M  V30 4924 H 440.981 1.41821 0.469792 0
M  V30 4925 H 442.863 2.36518 3.48765 0
M  V30 4926 H 441.538 1.28708 2.97012 0
M  V30 4927 H 440.445 3.28325 1.79314 0
M  V30 4928 H 441.778 4.31027 2.37647 0
M  V30 4929 N 443.43 -0.535701 1.48216 0
M  V30 4930 C 444.36 -1.65014 1.65204 0
M  V30 4931 C 445.341 -1.62554 0.501011 0
M  V30 4932 O 446.526 -1.7984 0.732886 0
M  V30 4933 C 443.656 -3.03616 1.68626 0
M  V30 4934 C 442.61 -3.20932 2.83172 0
M  V30 4935 C 441.936 -4.60537 2.71679 0
M  V30 4936 C 443.236 -3.04249 4.24535 0
M  V30 4937 H 444.93 -1.51053 2.58502 0
M  V30 4938 H 442.476 -0.725262 1.24402 0
M  V30 4939 H 444.429 -3.81446 1.79099 0
M  V30 4940 H 443.153 -3.18587 0.719026 0
M  V30 4941 H 441.812 -2.45517 2.72244 0
M  V30 4942 H 441.46 -4.72336 1.72937 0
M  V30 4943 H 441.16 -4.73069 3.48538 0
M  V30 4944 H 442.684 -5.40475 2.84112 0
M  V30 4945 H 444.098 -3.71877 4.36326 0
M  V30 4946 H 442.495 -3.28278 5.02348 0
M  V30 4947 H 443.565 -2.00739 4.41397 0
M  V30 4948 N 444.908 -1.36708 -0.784132 0
M  V30 4949 C 445.871 -1.31307 -1.87859 0
M  V30 4950 C 446.871 -0.219654 -1.59293 0
M  V30 4951 O 448.061 -0.47476 -1.67606 0
M  V30 4952 C 445.193 -1.03679 -3.24751 0
M  V30 4953 H 446.386 -2.28647 -1.94064 0
M  V30 4954 H 443.939 -1.21558 -0.98252 0
M  V30 4955 H 444.674 -0.0681936 -3.24228 0
M  V30 4956 H 444.459 -1.82811 -3.46876 0
M  V30 4957 H 445.949 -1.02518 -4.04821 0
M  V30 4958 N 446.386 1.0089 -1.21074 0
M  V30 4959 C 447.634 1.74262 -1.02358 0
M  V30 4960 C 447.955 1.89869 0.444393 0
M  V30 4961 O 447.225 1.44677 1.32081 0
M  V30 4962 H 445.805 0.645615 -0.375754 0
M  V30 4963 H 448.467 1.21596 -1.52317 0
M  V30 4964 H 447.563 2.74328 -1.4883 0
M  V30 4965 N 447.864 1.01787 1.20321 0
M  V30 4966 C 449.092 0.727194 1.937 0
M  V30 4967 C 449.507 -0.712305 1.74848 0
M  V30 4968 O 448.864 -1.48327 1.06327 0
M  V30 4969 C 448.915 1.05497 3.45764 0
M  V30 4970 O 448.636 2.43794 3.64 0
M  V30 4971 C 450.137 0.785534 4.36285 0
M  V30 4972 H 447.357 0.266939 0.615617 0
M  V30 4973 H 449.901 1.35939 1.52777 0
M  V30 4974 H 448.056 0.468158 3.84561 0
M  V30 4975 H 448.47 2.55656 4.57974 0
M  V30 4976 H 449.944 1.06495 5.4163 0
M  V30 4977 H 450.421 -0.280273 4.38305 0
M  V30 4978 H 451.027 1.35456 4.03152 0
M  V30 4979 N 449.342 -1.36122 0.79427 0
M  V30 4980 C 450.57 -2.03362 0.380989 0
M  V30 4981 C 450.985 -1.59881 -1.00416 0
M  V30 4982 O 450.342 -0.790515 -1.6449 0
M  V30 4983 C 450.393 -3.58804 0.440649 0
M  V30 4984 O 450.114 -4.007 1.77118 0
M  V30 4985 C 451.615 -4.43296 0.0186117 0
M  V30 4986 H 448.835 -0.652526 0.156367 0
M  V30 4987 H 451.379 -1.73998 1.07447 0
M  V30 4988 H 449.534 -3.8686 -0.204458 0
M  V30 4989 H 449.948 -4.95309 1.72538 0
M  V30 4990 H 451.422 -5.51887 0.111488 0
M  V30 4991 H 451.899 -4.2684 -1.03461 0
M  V30 4992 H 452.505 -4.20512 0.636395 0
M  V30 4993 N 450.82 -0.546701 -1.47814 0
M  V30 4994 C 452.066 -0.0187684 -2.02791 0
M  V30 4995 C 452.399 1.32338 -1.42128 0
M  V30 4996 O 451.674 1.85867 -0.573023 0
M  V30 4997 C 451.957 0.0854985 -3.59998 0
M  V30 4998 C 451.81 -1.283 -4.31114 0
M  V30 4999 C 453.129 0.80412 -4.32691 0
M  V30 5000 H 450.248 -0.0082946 -0.736953 0
M  V30 5001 H 452.89 -0.706962 -1.76358 0
M  V30 5002 H 451.04 0.671609 -3.82651 0
M  V30 5003 H 452.712 -1.91151 -4.19832 0
M  V30 5004 H 450.955 -1.86049 -3.91878 0
M  V30 5005 H 451.626 -1.16287 -5.39612 0
M  V30 5006 H 454.102 0.306576 -4.14969 0
M  V30 5007 H 452.978 0.846011 -5.42341 0
M  V30 5008 H 453.239 1.85802 -4.01161 0
M  V30 5009 N 452.299 1.55045 -0.282633 0
M  V30 5010 C 453.547 1.99365 0.331334 0
M  V30 5011 C 453.868 1.1725 1.55812 0
M  V30 5012 O 453.138 0.263871 1.94115 0
M  V30 5013 H 451.718 0.736397 0.125414 0
M  V30 5014 H 454.38 1.90964 -0.389711 0
M  V30 5015 H 453.476 3.0596 0.616036 0
M  V30 5016 N 453.777 0.010035 1.57597 0
M  V30 5017 C 454.707 -0.976857 2.12084 0
M  V30 5018 C 455.688 -1.35191 1.03235 0
M  V30 5019 O 456.873 -1.43389 1.3097 0
M  V30 5020 C 454.003 -2.26548 2.63236 0
M  V30 5021 C 452.957 -2.03175 3.76701 0
M  V30 5022 C 452.283 -3.38138 4.14206 0
M  V30 5023 C 453.583 -1.38625 5.03568 0
M  V30 5024 H 455.277 -0.523145 2.94794 0
M  V30 5025 H 452.823 -0.250195 1.4181 0
M  V30 5026 H 454.776 -2.95952 2.99984 0
M  V30 5027 H 453.5 -2.74051 1.77661 0
M  V30 5028 H 452.159 -1.36195 3.40362 0
M  V30 5029 H 451.807 -3.83363 3.25641 0
M  V30 5030 H 451.507 -3.23312 4.90656 0
M  V30 5031 H 453.031 -4.08841 4.53521 0
M  V30 5032 H 454.445 -1.98 5.38023 0
M  V30 5033 H 452.842 -1.34256 5.84889 0
M  V30 5034 H 453.912 -0.356722 4.83586 0
M  V30 5035 N 455.255 -1.55392 -0.262866 0
M  V30 5036 C 456.218 -1.88181 -1.30846 0
M  V30 5037 C 457.218 -0.757079 -1.41862 0
M  V30 5038 O 458.408 -1.02519 -1.40838 0
M  V30 5039 C 455.54 -2.09609 -2.68844 0
M  V30 5040 H 456.733 -2.81659 -1.02997 0
M  V30 5041 H 454.286 -1.48039 -0.501414 0
M  V30 5042 H 455.021 -1.18547 -3.01856 0
M  V30 5043 H 454.806 -2.91508 -2.62231 0
M  V30 5044 H 456.296 -2.36215 -3.44372 0
M  V30 5045 N 456.733 0.527833 -1.48498 0
M  V30 5046 C 457.98 1.28354 -1.56625 0
M  V30 5047 C 458.308 1.93 -0.241096 0
M  V30 5048 O 457.563 1.79967 0.768798 0
M  V30 5049 C 457.862 2.39275 -2.65485 0
M  V30 5050 C 457.528 1.92268 -4.07853 0
M  V30 5051 C 456.19 1.79166 -4.46602 0
M  V30 5052 C 458.542 1.56771 -4.97064 0
M  V30 5053 C 455.87 1.28905 -5.72364 0
M  V30 5054 C 458.222 1.07972 -6.23318 0
M  V30 5055 C 456.886 0.934887 -6.60921 0
M  V30 5056 H 456.156 0.469682 -0.573131 0
M  V30 5057 H 458.803 0.588781 -1.82224 0
M  V30 5058 H 457.108 3.1443 -2.33754 0
M  V30 5059 H 458.805 2.974 -2.68988 0
M  V30 5060 H 455.395 2.03417 -3.77252 0
M  V30 5061 H 459.579 1.65753 -4.67803 0
M  V30 5062 H 454.835 1.16381 -6.00221 0
M  V30 5063 H 459.009 0.795775 -6.91838 0
M  V30 5064 H 456.636 0.543231 -7.58257 0
M  V30 5065 N 458.211 1.37122 0.776871 0
M  V30 5066 C 459.144 1.26835 1.89705 0
M  V30 5067 C 460.122 0.14992 1.61907 0
M  V30 5068 O 461.306 0.323242 1.85708 0
M  V30 5069 C 458.433 0.95986 3.24814 0
M  V30 5070 C 457.479 2.09447 3.7153 0
M  V30 5071 S 458.312 3.71368 3.85806 0
M  V30 5072 C 459.468 3.42659 5.23771 0
M  V30 5073 H 459.701 2.21647 1.98141 0
M  V30 5074 H 457.234 1.22685 0.937433 0
M  V30 5075 H 459.192 0.788696 4.02852 0
M  V30 5076 H 457.853 0.0293137 3.14086 0
M  V30 5077 H 457.046 1.8335 4.69467 0
M  V30 5078 H 456.648 2.2255 3.00578 0
M  V30 5079 H 458.94 2.9733 6.0877 0
M  V30 5080 H 459.883 4.39905 5.54878 0
M  V30 5081 H 460.291 2.77708 4.91466 0
M  V30 5082 N 459.689 -1.00246 1.21608 0
M  V30 5083 C 460.914 -1.78167 1.06167 0
M  V30 5084 C 461.339 -1.84138 -0.384035 0
M  V30 5085 O 460.697 -1.28683 -1.27712 0
M  V30 5086 C 460.745 -3.19786 1.66642 0
M  V30 5087 O 459.849 -4.02153 0.913613 0
M  V30 5088 H 459.19 -0.549 0.37349 0
M  V30 5089 H 461.72 -1.25994 1.61204 0
M  V30 5090 H 461.73 -3.70451 1.70969 0
M  V30 5091 H 460.405 -3.14754 2.7185 0
M  V30 5092 H 458.982 -3.60711 0.945635 0
M  V30 5093 N 461.167 -1.02423 -1.1978 0
M  V30 5094 C 462.395 -0.737456 -1.93311 0
M  V30 5095 C 462.81 0.703023 -1.75223 0
M  V30 5096 O 462.167 1.47761 -1.07112 0
M  V30 5097 C 462.218 -1.0733 -3.45199 0
M  V30 5098 O 461.939 -2.4572 -3.62702 0
M  V30 5099 C 463.44 -0.80866 -4.35862 0
M  V30 5100 H 460.66 -0.2702 -0.614193 0
M  V30 5101 H 463.204 -1.36747 -1.52054 0
M  V30 5102 H 461.359 -0.488545 -3.84307 0
M  V30 5103 H 461.773 -2.58081 -4.56612 0
M  V30 5104 H 463.247 -1.09365 -5.41057 0
M  V30 5105 H 463.724 0.257025 -4.38447 0
M  V30 5106 H 464.33 -1.37592 -4.02428 0
M  V30 5107 N 462.645 1.35699 -0.801477 0
M  V30 5108 C 463.578 2.2768 -0.153922 0
M  V30 5109 C 464.556 1.47832 0.67709 0
M  V30 5110 O 465.74 1.77104 0.645474 0
M  V30 5111 C 462.867 3.2943 0.786986 0
M  V30 5112 C 461.913 4.26485 0.0362447 0
M  V30 5113 S 462.746 5.19573 -1.2963 0
M  V30 5114 C 463.902 6.24866 -0.359705 0
M  V30 5115 H 464.135 2.82254 -0.9338 0
M  V30 5116 H 461.668 1.42421 -0.596283 0
M  V30 5117 H 463.626 3.8855 1.32436 0
M  V30 5118 H 462.287 2.73745 1.54021 0
M  V30 5119 H 461.48 4.98378 0.750668 0
M  V30 5120 H 461.082 3.71508 -0.431017 0
M  V30 5121 H 463.374 6.75957 0.456954 0
M  V30 5122 H 464.317 7.00307 -1.04768 0
M  V30 5123 H 464.725 5.64484 0.0423274 0
M  V30 5124 N 464.123 0.554532 1.47522 0
M  V30 5125 C 465.363 0.0317994 2.04375 0
M  V30 5126 C 465.727 -1.29242 1.41988 0
M  V30 5127 O 466.928 -1.90269 1.89872 0
M  V30 5128 C 465.199 -0.0623344 3.57346 0
M  V30 5129 S 466.758 -0.531578 4.35568 0
M  V30 5130 H 463.576 0.0238553 0.7106 0
M  V30 5131 H 466.178 0.74066 1.80927 0
M  V30 5132 H 464.882 0.905857 4.00278 0
M  V30 5133 H 464.413 -0.794831 3.85287 0
M  V30 5134 H 466.428 -1.79175 4.62721 0
M  V30 5135 N 465.601 -1.54893 0.290851 0
M  V30 5136 C 466.826 -2.04804 -0.32712 0
M  V30 5137 C 467.251 -1.16721 -1.47506 0
M  V30 5138 O 466.609 -0.169107 -1.8051 0
M  V30 5139 C 466.657 -3.52268 -0.770689 0
M  V30 5140 O 465.761 -3.67236 -1.87647 0
M  V30 5141 H 465.102 -0.660789 -0.0652227 0
M  V30 5142 H 467.632 -2.00036 0.429739 0
M  V30 5143 H 467.642 -3.9393 -1.06223 0
M  V30 5144 H 466.317 -4.15843 0.069096 0
M  V30 5145 H 464.894 -3.37479 -1.58626 0
M  V30 5146 N 467.08 -0.0183926 -1.57589 0
M  V30 5147 C 468.491 0.521927 -1.79256 0
M  V30 5148 C 468.842 1.72885 -0.927636 0
M  V30 5149 O 467.967 2.15978 -0.135091 0
M  V30 5150 C 468.562 0.953632 -3.25102 0
M  V30 5151 C 467.121 1.43913 -3.47801 0
M  V30 5152 C 466.268 0.398837 -2.74417 0
M  V30 5153 H 469.219 -0.244485 -1.56805 0
M  V30 5154 H 469.24 1.81863 -3.34224 0
M  V30 5155 H 468.752 0.0750123 -3.88028 0
M  V30 5156 H 466.853 2.33804 -2.90115 0
M  V30 5157 H 466.966 1.45391 -4.56507 0
M  V30 5158 H 465.33 0.864572 -2.39577 0
M  V30 5159 H 466.113 -0.471132 -3.40052 0
M  V30 5160 N 468.558 1.5553 0.254621 0
M  V30 5161 C 469.788 1.80784 1.00004 0
M  V30 5162 C 470.196 0.59071 1.79742 0
M  V30 5163 O 469.539 -0.449988 1.78103 0
M  V30 5164 C 469.601 2.99268 1.99196 0
M  V30 5165 C 469.265 4.35595 1.38224 0
M  V30 5166 C 470.262 5.13884 0.788611 0
M  V30 5167 C 467.947 4.82281 1.40393 0
M  V30 5168 C 469.941 6.37004 0.224783 0
M  V30 5169 C 467.628 6.05351 0.836243 0
M  V30 5170 C 468.626 6.82551 0.24769 0
M  V30 5171 O 468.314 8.03297 -0.311249 0
M  V30 5172 H 468.046 0.60565 0.300274 0
M  V30 5173 H 470.6 2.03411 0.285143 0
M  V30 5174 H 468.83 2.72377 2.74496 0
M  V30 5175 H 470.519 3.11682 2.60018 0
M  V30 5176 H 471.285 4.78938 0.764423 0
M  V30 5177 H 467.164 4.22189 1.85142 0
M  V30 5178 H 470.708 6.97203 -0.235235 0
M  V30 5179 H 466.605 6.39776 0.857733 0
M  V30 5180 H 467.373 8.1825 -0.20237 0
M  V30 5181 N 470.036 -0.519951 1.48776 0
M  V30 5182 C 471.261 -1.30447 1.6124 0
M  V30 5183 C 471.686 -1.86055 0.276591 0
M  V30 5184 O 471.044 -1.64915 -0.753183 0
M  V30 5185 C 471.092 -2.42406 2.66967 0
M  V30 5186 O 470.196 -3.45728 2.24824 0
M  V30 5187 H 469.537 -0.385924 0.540332 0
M  V30 5188 H 472.067 -0.624572 1.94834 0
M  V30 5189 H 472.077 -2.88447 2.88552 0
M  V30 5190 H 470.752 -2.01294 3.63941 0
M  V30 5191 H 469.329 -3.05737 2.13494 0
M  V30 5192 N 471.514 -1.37532 -0.769588 0
M  V30 5193 C 472.76 -1.33057 -1.53048 0
M  V30 5194 C 473.093 0.0841865 -1.94017 0
M  V30 5195 O 472.368 1.04198 -1.64235 0
M  V30 5196 C 472.651 -2.27166 -2.79406 0
M  V30 5197 C 472.504 -3.77429 -2.44677 0
M  V30 5198 C 473.823 -2.19683 -3.81349 0
M  V30 5199 H 470.942 -0.484655 -0.555228 0
M  V30 5200 H 473.584 -1.68251 -0.882702 0
M  V30 5201 H 471.734 -1.97283 -3.34682 0
M  V30 5202 H 473.406 -4.17918 -1.953 0
M  V30 5203 H 471.649 -3.95892 -1.77346 0
M  V30 5204 H 472.32 -4.38716 -3.35011 0
M  V30 5205 H 474.796 -2.46029 -3.35573 0
M  V30 5206 H 473.672 -2.87668 -4.67481 0
M  V30 5207 H 473.933 -1.19045 -4.25771 0
M  V30 5208 N 472.992 0.995999 -1.22138 0
M  V30 5209 C 474.24 1.73167 -1.042 0
M  V30 5210 C 474.561 1.90329 0.42423 0
M  V30 5211 O 473.831 1.4607 1.30539 0
M  V30 5212 H 472.411 0.641593 -0.38258 0
M  V30 5213 H 475.073 1.19974 -1.53598 0
M  V30 5214 H 474.169 2.72734 -1.51731 0
M  V30 5215 N 474.47 1.03057 1.19235 0
M  V30 5216 C 475.716 0.729098 1.89241 0
M  V30 5217 C 476.049 -0.740573 1.79525 0
M  V30 5218 O 475.324 -1.53946 1.18874 0
M  V30 5219 C 475.607 1.18304 3.40112 0
M  V30 5220 C 475.46 2.71406 3.5869 0
M  V30 5221 C 476.779 0.765161 4.33397 0
M  V30 5222 H 473.898 0.266338 0.687192 0
M  V30 5223 H 476.54 1.28079 1.40341 0
M  V30 5224 H 474.69 0.713672 3.81889 0
M  V30 5225 H 476.362 3.26303 3.26074 0
M  V30 5226 H 474.605 3.11717 3.01687 0
M  V30 5227 H 475.276 2.98225 4.64506 0
M  V30 5228 H 477.752 1.16889 3.99345 0
M  V30 5229 H 476.628 1.11065 5.37546 0
M  V30 5230 H 476.889 -0.332372 4.40849 0
M  V30 5231 N 475.948 -1.35272 0.808662 0
M  V30 5232 C 477.194 -1.99003 0.390581 0
M  V30 5233 C 477.527 -1.63999 -1.0401 0
M  V30 5234 O 476.802 -0.904368 -1.72196 0
M  V30 5235 C 477.085 -3.55454 0.576566 0
M  V30 5236 C 476.938 -4.00249 2.05233 0
M  V30 5237 C 478.257 -4.401 0.00354277 0
M  V30 5238 H 475.376 -0.722917 0.143388 0
M  V30 5239 H 478.018 -1.6039 1.01858 0
M  V30 5240 H 476.168 -3.88477 0.0419766 0
M  V30 5241 H 477.84 -3.77626 2.64946 0
M  V30 5242 H 476.083 -3.51082 2.54801 0
M  V30 5243 H 476.754 -5.0911 2.13333 0
M  V30 5244 H 479.23 -4.13548 0.460117 0
M  V30 5245 H 478.106 -5.48656 0.163575 0
M  V30 5246 H 478.367 -4.28444 -1.09032 0
M  V30 5247 N 477.426 -0.562348 -1.47226 0
M  V30 5248 C 478.358 0.220011 -2.28142 0
M  V30 5249 C 479.371 0.874596 -1.37312 0
M  V30 5250 O 480.56 0.747583 -1.62091 0
M  V30 5251 C 477.66 1.32953 -3.11732 0
M  V30 5252 C 476.833 0.770759 -4.30556 0
M  V30 5253 C 475.892 1.76541 -4.95701 0
M  V30 5254 O 474.918 1.3095 -5.53932 0
M  V30 5255 N 476.12 3.09896 -4.90861 0
M  V30 5256 H 478.885 -0.474107 -2.95926 0
M  V30 5257 H 476.446 -0.398761 -1.56912 0
M  V30 5258 H 478.438 1.99378 -3.5218 0
M  V30 5259 H 477.008 1.92681 -2.46156 0
M  V30 5260 H 476.228 -0.0704056 -3.94137 0
M  V30 5261 H 477.516 0.376872 -5.07402 0
M  V30 5262 H 476.914 3.49577 -4.44761 0
M  V30 5263 H 475.471 3.71865 -5.35313 0
M  V30 5264 N 478.904 1.54736 -0.299062 0
M  V30 5265 C 480.181 1.92187 0.363802 0
M  V30 5266 C 480.561 1.22607 1.71845 0
M  V30 5267 O 479.909 0.361141 2.25628 0
M  V30 5268 C 480.119 3.45678 0.480377 0
M  V30 5269 C 481.467 4.17885 0.752147 0
M  V30 5270 O 482.491 3.51702 0.564264 0
M  V30 5271 O 481.35 5.35048 1.11294 0
M  V30 5272 H 478.444 0.801681 0.203066 0
M  V30 5273 H 480.99 1.66115 -0.346978 0
M  V30 5274 H 479.762 3.88443 -0.471999 0
M  V30 5275 H 479.385 3.77779 1.2397 0
M  V30 5276 N 480.382 0.0267497 1.57577 0
M  V30 5277 C 481.332 -0.965003 2.06571 0
M  V30 5278 C 482.316 -1.28694 0.965746 0
M  V30 5279 O 483.508 -1.27345 1.22932 0
M  V30 5280 C 480.637 -2.24821 2.59443 0
M  V30 5281 C 479.723 -1.95474 3.76365 0
M  V30 5282 N 480.114 -1.36387 4.87065 0
M  V30 5283 C 478.412 -2.25478 3.84806 0
M  V30 5284 C 479.113 -1.24119 5.68304 0
M  V30 5285 N 478.089 -1.7359 5.15138 0
M  V30 5286 H 481.891 -0.503095 2.89562 0
M  V30 5287 H 479.405 -0.178322 1.61418 0
M  V30 5288 H 481.402 -2.9674 2.92833 0
M  V30 5289 H 480.062 -2.7164 1.77881 0
M  V30 5290 H 481.073 -1.03919 5.07367 0
M  V30 5291 H 477.75 -2.74987 3.14147 0
M  V30 5292 H 479.14 -0.784504 6.67304 0
M  V30 5293 N 481.861 -1.55662 -0.24637 0
M  V30 5294 C 483.086 -1.81914 -0.996093 0
M  V30 5295 C 483.511 -0.603875 -1.78143 0
M  V30 5296 O 482.869 0.447091 -1.75701 0
M  V30 5297 C 482.917 -3.05908 -1.90925 0
M  V30 5298 O 482.021 -2.82861 -3.00105 0
M  V30 5299 H 481.362 -0.600481 -0.283406 0
M  V30 5300 H 483.892 -2.02848 -0.267199 0
M  V30 5301 H 483.902 -3.35356 -2.3238 0
M  V30 5302 H 482.577 -3.93999 -1.33183 0
M  V30 5303 H 481.154 -2.64583 -2.62775 0
M  V30 5304 N 483.339 0.512053 -1.4905 0
M  V30 5305 C 484.616 1.27337 -1.48474 0
M  V30 5306 C 484.996 2.1009 -0.206301 0
M  V30 5307 O 484.344 2.136 0.811609 0
M  V30 5308 C 484.554 2.13954 -2.75726 0
M  V30 5309 C 485.902 2.73507 -3.24776 0
M  V30 5310 O 486.926 2.24229 -2.76767 0
M  V30 5311 O 485.785 3.63186 -4.08361 0
M  V30 5312 H 482.879 0.575652 -0.593762 0
M  V30 5313 H 485.425 0.527232 -1.61302 0
M  V30 5314 H 484.197 1.52709 -3.60272 0
M  V30 5315 H 483.82 2.95782 -2.65705 0
M  V30 5316 N 484.817 1.37938 0.762283 0
M  V30 5317 C 485.765 1.34569 1.89721 0
M  V30 5318 C 486.759 0.232929 1.67791 0
M  V30 5319 O 487.965 0.401485 1.75465 0
M  V30 5320 H 484.34 0.419594 0.624055 0
M  V30 5321 H 486.311 2.30357 1.8968 0
M  V30 5322 C 485.06 1.17898 3.27101 0
M  V30 5323 H 484.383 2.02781 3.44558 0
M  V30 5324 H 485.823 1.19593 4.06784 0
M  V30 5325 C 484.282 -0.114728 3.36705 0
M  V30 5326 O 484.812 -1.0949 3.8649 0
M  V30 5327 N 483.018 -0.16863 2.9011 0
M  V30 5328 H 482.565 0.62967 2.49786 0
M  V30 5329 H 482.523 -1.03383 2.96916 0
M  V30 5330 N 486.295 -0.989507 1.22664 0
M  V30 5331 C 487.225 -2.09847 1.02404 0
M  V30 5332 C 488.206 -1.70007 -0.0561303 0
M  V30 5333 O 489.391 -1.93906 0.106748 0
M  V30 5334 C 486.521 -3.41996 0.604663 0
M  V30 5335 C 485.475 -3.95699 1.63115 0
M  V30 5336 C 484.801 -5.23936 1.0675 0
M  V30 5337 C 486.101 -4.25999 3.02196 0
M  V30 5338 H 487.795 -2.27054 1.95158 0
M  V30 5339 H 485.341 -1.09111 0.939727 0
M  V30 5340 H 487.294 -4.1899 0.45002 0
M  V30 5341 H 486.018 -3.24626 -0.35855 0
M  V30 5342 H 484.677 -3.2084 1.77362 0
M  V30 5343 H 484.325 -5.02909 0.0955422 0
M  V30 5344 H 484.025 -5.60833 1.75328 0
M  V30 5345 H 485.549 -6.0356 0.924516 0
M  V30 5346 H 486.963 -4.93777 2.91303 0
M  V30 5347 H 485.36 -4.74076 3.67929 0
M  V30 5348 H 486.43 -3.33636 3.51873 0
M  V30 5349 N 487.773 -1.03688 -1.18687 0
M  V30 5350 C 488.703 -0.645407 -2.24403 0
M  V30 5351 C 489.684 0.349511 -1.66471 0
M  V30 5352 O 490.869 0.230453 -1.92828 0
M  V30 5353 C 487.999 -0.00365337 -3.473 0
M  V30 5354 C 486.953 -0.921705 -4.17958 0
M  V30 5355 C 486.279 -0.144629 -5.34504 0
M  V30 5356 C 487.579 -2.23909 -4.71871 0
M  V30 5357 H 489.273 -1.52917 -2.57404 0
M  V30 5358 H 486.819 -0.736711 -1.23728 0
M  V30 5359 H 488.772 0.281908 -4.20456 0
M  V30 5360 H 487.496 0.914963 -3.13522 0
M  V30 5361 H 486.155 -1.19159 -3.46694 0
M  V30 5362 H 485.803 0.776274 -4.96974 0
M  V30 5363 H 485.503 -0.756206 -5.82714 0
M  V30 5364 H 487.027 0.134004 -6.10453 0
M  V30 5365 H 488.441 -2.0145 -5.36741 0
M  V30 5366 H 486.838 -2.8033 -5.30599 0
M  V30 5367 H 487.908 -2.88822 -3.895 0
M  V30 5368 N 489.251 1.34841 -0.815825 0
M  V30 5369 C 490.667 1.51543 -0.500697 0
M  V30 5370 C 490.867 1.76261 0.976444 0
M  V30 5371 O 489.923 1.8094 1.76117 0
M  V30 5372 C 491.236 2.68487 -1.35407 0
M  V30 5373 C 492.784 2.82368 -1.35046 0
M  V30 5374 C 493.259 4.02347 -2.18816 0
M  V30 5375 N 494.75 4.09542 -2.16402 0
M  V30 5376 C 495.485 5.01517 -2.77971 0
M  V30 5377 N 494.981 5.98763 -3.48503 0
M  V30 5378 N 496.774 4.94334 -2.67563 0
M  V30 5379 H 488.925 1.17055 -1.77234 0
M  V30 5380 H 491.188 0.573481 -0.754866 0
M  V30 5381 H 490.894 2.56829 -2.40274 0
M  V30 5382 H 490.768 3.63321 -1.01377 0
M  V30 5383 H 493.155 2.93471 -0.309604 0
M  V30 5384 H 493.236 1.88363 -1.73069 0
M  V30 5385 H 492.88 3.92004 -3.22948 0
M  V30 5386 H 492.81 4.95551 -1.78148 0
M  V30 5387 H 495.301 3.39932 -1.65091 0
M  V30 5388 H 495.614 6.6556 -3.92747 0
M  V30 5389 H 493.959 5.98909 -3.52609 0
M  V30 5390 H 497.15 4.1732 -2.12041 0
M  V30 5391 H 497.323 5.6582 -3.15834 0
M  V30 5392 N 490.729 0.570148 1.46925 0
M  V30 5393 C 491.975 0.0510284 2.02736 0
M  V30 5394 C 492.308 -1.3006 1.44215 0
M  V30 5395 O 491.583 -1.84932 0.602521 0
M  V30 5396 C 491.866 -0.028215 3.60089 0
M  V30 5397 C 491.719 1.35142 4.29018 0
M  V30 5398 C 493.038 -0.735181 4.33916 0
M  V30 5399 H 490.157 0.0200178 0.736728 0
M  V30 5400 H 492.799 0.73493 1.75211 0
M  V30 5401 H 490.949 -0.610648 3.83671 0
M  V30 5402 H 492.621 1.97806 4.16738 0
M  V30 5403 H 490.864 1.9226 3.88868 0
M  V30 5404 H 491.535 1.24857 5.37694 0
M  V30 5405 H 494.011 -0.240519 4.15404 0
M  V30 5406 H 492.887 -0.759622 5.43618 0
M  V30 5407 H 493.148 -1.79397 4.04066 0
M  V30 5408 N 492.207 -1.54576 0.307264 0
M  V30 5409 C 493.17 -2.22423 -0.553224 0
M  V30 5410 C 494.17 -1.21231 -1.05639 0
M  V30 5411 O 495.36 -1.45923 -0.951419 0
M  V30 5412 C 492.492 -2.91552 -1.76664 0
M  V30 5413 H 493.685 -2.99874 0.0396484 0
M  V30 5414 H 491.238 -1.56192 0.0581629 0
M  V30 5415 H 491.973 -2.18196 -2.39918 0
M  V30 5416 H 491.758 -3.65738 -1.41343 0
M  V30 5417 H 493.248 -3.43292 -2.37783 0
M  V30 5418 N 493.685 -0.035106 -1.57561 0
M  V30 5419 C 494.933 0.64096 -1.91667 0
M  V30 5420 C 495.254 1.72323 -0.912681 0
M  V30 5421 O 494.524 1.95849 0.0449089 0
M  V30 5422 H 493.104 0.239743 -0.707483 0
M  V30 5423 H 495.766 -0.084321 -1.94718 0
M  V30 5424 H 494.862 1.08987 -2.92452 0
M  V30 5425 N 495.163 1.55791 0.238111 0
M  V30 5426 C 496.391 1.82098 0.982233 0
M  V30 5427 C 496.806 0.612025 1.78605 0
M  V30 5428 O 496.163 -0.419381 1.77616 0
M  V30 5429 C 496.214 3.0673 1.91309 0
M  V30 5430 O 495.935 4.2296 1.14179 0
M  V30 5431 C 497.436 3.45903 2.77248 0
M  V30 5432 H 494.656 0.605748 0.288635 0
M  V30 5433 H 497.2 2.02862 0.258341 0
M  V30 5434 H 495.355 2.87991 2.59114 0
M  V30 5435 H 495.769 4.93653 1.7722 0
M  V30 5436 H 497.243 4.36189 3.38295 0
M  V30 5437 H 497.72 2.66891 3.48806 0
M  V30 5438 H 498.326 3.67024 2.14881 0
M  V30 5439 N 496.642 -0.504142 1.49319 0
M  V30 5440 C 497.575 -1.62361 1.60356 0
M  V30 5441 C 498.553 -1.56169 0.45277 0
M  V30 5442 O 499.737 -1.76271 0.667892 0
M  V30 5443 C 496.864 -3.00864 1.55559 0
M  V30 5444 C 495.91 -3.25328 2.75797 0
M  V30 5445 S 496.743 -3.08791 4.37503 0
M  V30 5446 C 497.899 -4.49695 4.35345 0
M  V30 5447 H 498.132 -1.52753 2.55056 0
M  V30 5448 H 495.665 -0.689065 1.38171 0
M  V30 5449 H 497.623 -3.8073 1.53477 0
M  V30 5450 H 496.284 -3.0789 0.621515 0
M  V30 5451 H 495.477 -4.2643 2.68651 0
M  V30 5452 H 495.079 -2.53179 2.75275 0
M  V30 5453 H 497.371 -5.41721 4.06871 0
M  V30 5454 H 498.314 -4.61891 5.36714 0
M  V30 5455 H 498.722 -4.30227 3.65465 0
M  V30 5456 N 498.12 -1.38341 -0.754957 0
M  V30 5457 C 499.083 -1.35262 -1.85032 0
M  V30 5458 C 500.083 -0.253393 -1.58791 0
M  V30 5459 O 501.273 -0.510205 -1.66561 0
M  V30 5460 C 498.405 -1.10544 -3.22479 0
M  V30 5461 H 499.598 -2.32712 -1.8917 0
M  V30 5462 H 497.151 -1.23614 -0.956515 0
M  V30 5463 H 497.886 -0.136952 -3.24011 0
M  V30 5464 H 497.671 -1.90127 -3.4292 0
M  V30 5465 H 499.161 -1.11082 -4.02555 0
M  V30 5466 N 499.598 0.982988 -1.23187 0
M  V30 5467 C 500.548 2.05962 -0.977942 0
M  V30 5468 C 501.532 1.60725 0.0751148 0
M  V30 5469 O 502.724 1.76471 -0.136683 0
M  V30 5470 C 499.853 3.38564 -0.568276 0
M  V30 5471 C 498.939 3.90407 -1.6566 0
M  V30 5472 N 499.33 4.15359 -2.88635 0
M  V30 5473 C 497.628 4.18915 -1.53058 0
M  V30 5474 C 498.329 4.57642 -3.5908 0
M  V30 5475 N 497.305 4.6192 -2.86584 0
M  V30 5476 H 501.107 2.23208 -1.91195 0
M  V30 5477 H 498.621 1.16555 -1.13087 0
M  V30 5478 H 500.618 4.15276 -0.36764 0
M  V30 5479 H 499.278 3.22712 0.358713 0
M  V30 5480 H 500.289 4.03258 -3.24966 0
M  V30 5481 H 496.966 4.12081 -0.670506 0
M  V30 5482 H 498.356 4.85488 -4.6449 0
M  V30 5483 N 501.076 1.04316 1.18135 0
M  V30 5484 C 501.986 0.646876 2.25505 0
M  V30 5485 C 503.002 -0.328008 1.7088 0
M  V30 5486 O 504.178 -0.182309 2.00573 0
M  V30 5487 C 501.243 0.0185664 3.46695 0
M  V30 5488 C 500.304 1.04277 4.16443 0
M  V30 5489 C 499.537 0.444352 5.31847 0
M  V30 5490 O 499.76 -0.748735 5.65465 0
M  V30 5491 O 498.694 1.17428 5.90334 0
M  V30 5492 H 502.52 1.54147 2.61672 0
M  V30 5493 H 500.105 0.814188 1.25265 0
M  V30 5494 H 501.987 -0.331068 4.20097 0
M  V30 5495 H 500.662 -0.849814 3.12346 0
M  V30 5496 H 499.569 1.44425 3.45098 0
M  V30 5497 H 500.902 1.882 4.54798 0
M  V30 5498 N 502.554 -1.34406 0.822964 0
M  V30 5499 C 503.487 -2.27407 0.190124 0
M  V30 5500 C 504.465 -1.4889 -0.653486 0
M  V30 5501 O 505.649 -1.78109 -0.617216 0
M  V30 5502 C 502.776 -3.3064 -0.734477 0
M  V30 5503 C 501.822 -4.26488 0.0316099 0
M  V30 5504 S 502.655 -5.17445 1.3788 0
M  V30 5505 C 503.811 -6.24214 0.45907 0
M  V30 5506 H 504.044 -2.80733 0.978586 0
M  V30 5507 H 501.577 -1.41455 0.618866 0
M  V30 5508 H 503.535 -3.90607 -1.26238 0
M  V30 5509 H 502.196 -2.76161 -1.49646 0
M  V30 5510 H 501.389 -4.9951 -0.671285 0
M  V30 5511 H 500.991 -3.70775 0.490066 0
M  V30 5512 H 503.283 -6.76599 -0.349357 0
M  V30 5513 H 504.226 -6.98551 1.15896 0
M  V30 5514 H 504.634 -5.6448 0.0474825 0
M  V30 5515 N 504.032 -0.577932 -1.46621 0
M  V30 5516 C 505.28 -0.061566 -2.02006 0
M  V30 5517 C 505.601 1.30117 -1.4524 0
M  V30 5518 O 504.871 1.85313 -0.63529 0
M  V30 5519 H 503.451 -0.0197692 -0.746738 0
M  V30 5520 H 506.113 -0.752631 -1.79782 0
M  V30 5521 H 505.209 0.0110238 -3.12098 0
M  V30 5522 N 505.51 1.54411 -0.315457 0
M  V30 5523 C 506.46 2.20772 0.569549 0
M  V30 5524 C 507.444 1.18551 1.08787 0
M  V30 5525 O 508.636 1.44213 1.02624 0
M  V30 5526 C 505.765 2.96293 1.73394 0
M  V30 5527 C 504.851 4.05844 1.2309 0
M  V30 5528 N 505.242 5.03822 0.446927 0
M  V30 5529 C 503.54 4.19648 1.51035 0
M  V30 5530 C 504.241 5.8143 0.17725 0
M  V30 5531 N 503.217 5.38245 0.761118 0
M  V30 5532 H 507.019 2.93877 -0.0368076 0
M  V30 5533 H 504.533 1.61949 -0.120915 0
M  V30 5534 H 506.53 3.42313 2.37965 0
M  V30 5535 H 505.19 2.24708 2.34386 0
M  V30 5536 H 506.201 5.17821 0.0905027 0
M  V30 5537 H 502.878 3.59274 2.1267 0
M  V30 5538 H 504.268 6.70369 -0.45335 0
M  V30 5539 N 506.988 0.0434614 1.5754 0
M  V30 5540 C 507.936 -0.951465 2.1225 0
M  V30 5541 C 508.93 -1.3274 1.05245 0
M  V30 5542 O 510.136 -1.30795 1.23663 0
M  V30 5543 H 506.511 -0.324667 0.678303 0
M  V30 5544 H 508.482 -0.464855 2.94757 0
M  V30 5545 C 507.231 -2.21972 2.67626 0
M  V30 5546 H 506.554 -1.93923 3.4962 0
M  V30 5547 H 507.994 -2.89765 3.09536 0
M  V30 5548 C 506.453 -2.95919 1.61038 0
M  V30 5549 O 506.983 -3.8857 1.01862 0
M  V30 5550 N 505.189 -2.58511 1.32741 0
M  V30 5551 H 504.736 -1.83244 1.81051 0
M  V30 5552 H 504.694 -3.08296 0.616531 0
M  V30 5553 N 508.466 -1.55915 -0.229846 0
M  V30 5554 C 509.713 -1.78542 -0.955452 0
M  V30 5555 C 510.041 -0.610785 -1.84661 0
M  V30 5556 O 509.296 0.405213 -1.91459 0
M  V30 5557 C 509.595 -3.06845 -1.8325 0
M  V30 5558 C 509.261 -4.37395 -1.09528 0
M  V30 5559 C 507.923 -4.72868 -0.891598 0
M  V30 5560 C 510.275 -5.18029 -0.574046 0
M  V30 5561 C 507.603 -5.86496 -0.154655 0
M  V30 5562 C 509.955 -6.32423 0.149513 0
M  V30 5563 C 508.619 -6.66504 0.364519 0
M  V30 5564 H 507.889 -0.653333 -0.349625 0
M  V30 5565 H 510.536 -1.90183 -0.224235 0
M  V30 5566 H 508.841 -2.90291 -2.63132 0
M  V30 5567 H 510.538 -3.21553 -2.39592 0
M  V30 5568 H 507.128 -4.09538 -1.26399 0
M  V30 5569 H 511.312 -4.91066 -0.718899 0
M  V30 5570 H 506.568 -6.11396 0.0222356 0
M  V30 5571 H 510.742 -6.94137 0.560947 0
M  V30 5572 H 508.369 -7.54397 0.937495 0
M  V30 5573 N 509.944 0.496216 -1.49584 0
M  V30 5574 C 511.192 1.24756 -1.58998 0
M  V30 5575 C 511.513 1.92968 -0.280775 0
M  V30 5576 O 510.783 1.82959 0.700198 0
M  V30 5577 H 509.363 0.463471 -0.585836 0
M  V30 5578 H 512.025 0.574678 -1.86235 0
M  V30 5579 H 511.121 2.00895 -2.38847 0
M  V30 5580 N 511.423 1.38739 0.74761 0
M  V30 5581 C 512.356 1.3083 1.86972 0
M  V30 5582 C 513.334 0.184229 1.61553 0
M  V30 5583 O 514.518 0.36256 1.8498 0
M  V30 5584 C 511.645 1.02854 3.22705 0
M  V30 5585 C 510.691 2.17281 3.67003 0
M  V30 5586 S 511.524 3.79468 3.77842 0
M  V30 5587 C 512.68 3.53692 5.16385 0
M  V30 5588 H 512.913 2.258 1.93395 0
M  V30 5589 H 510.446 1.24646 0.911199 0
M  V30 5590 H 512.404 0.87397 4.01089 0
M  V30 5591 H 511.065 0.0959295 3.13953 0
M  V30 5592 H 510.258 1.93267 4.65472 0
M  V30 5593 H 509.86 2.28876 2.9579 0
M  V30 5594 H 512.152 3.10176 6.02327 0
M  V30 5595 H 513.095 4.51576 5.45422 0
M  V30 5596 H 513.503 2.8807 4.85464 0
M  V30 5597 N 512.901 -0.976442 1.23707 0
M  V30 5598 C 514.148 -1.71827 1.07153 0
M  V30 5599 C 514.476 -1.9053 -0.390982 0
M  V30 5600 O 513.731 -1.45779 -1.30564 0
M  V30 5601 C 514.03 -3.11814 1.74662 0
M  V30 5602 C 513.696 -3.12978 3.24585 0
M  V30 5603 C 512.358 -3.13003 3.6549 0
M  V30 5604 C 514.71 -3.07986 4.20469 0
M  V30 5605 C 512.038 -3.05757 5.00729 0
M  V30 5606 C 514.39 -3.02282 5.55705 0
M  V30 5607 C 513.054 -3.00631 5.95968 0
M  V30 5608 H 512.324 -0.628758 0.392102 0
M  V30 5609 H 514.971 -1.14239 1.53693 0
M  V30 5610 H 513.276 -3.72812 1.20492 0
M  V30 5611 H 514.973 -3.67989 1.59328 0
M  V30 5612 H 511.563 -3.13718 2.92026 0
M  V30 5613 H 515.747 -3.07103 3.89874 0
M  V30 5614 H 511.003 -3.02834 5.31132 0
M  V30 5615 H 515.177 -2.97376 6.29714 0
M  V30 5616 H 512.804 -2.94771 7.00724 0
M  V30 5617 N 514.379 -1.04941 -1.1758 0
M  V30 5618 C 515.329 -0.618378 -2.19454 0
M  V30 5619 C 516.313 0.343813 -1.57184 0
M  V30 5620 O 517.505 0.16145 -1.76262 0
M  V30 5621 C 514.634 0.00803847 -3.43299 0
M  V30 5622 C 513.72 -0.977827 -4.12673 0
M  V30 5623 N 514.111 -2.14826 -4.57912 0
M  V30 5624 C 512.409 -0.805748 -4.38661 0
M  V30 5625 C 513.11 -2.77174 -5.11419 0
M  V30 5626 N 512.086 -2.04989 -5.03468 0
M  V30 5627 H 515.888 -1.51018 -2.52132 0
M  V30 5628 H 513.402 -0.919201 -1.33882 0
M  V30 5629 H 515.399 0.334584 -4.15555 0
M  V30 5630 H 514.059 0.895272 -3.12114 0
M  V30 5631 H 515.07 -2.52673 -4.52081 0
M  V30 5632 H 511.747 0.0306506 -4.17489 0
M  V30 5633 H 513.137 -3.76416 -5.56562 0
M  V30 5634 N 515.857 1.33968 -0.830081 0
M  V30 5635 C 517.134 1.92554 -0.343858 0
M  V30 5636 C 517.514 1.7573 1.16971 0
M  V30 5637 O 516.862 1.14035 1.98011 0
M  V30 5638 C 517.072 3.40147 -0.781073 0
M  V30 5639 C 518.42 4.17299 -0.78402 0
M  V30 5640 O 519.444 3.48762 -0.724112 0
M  V30 5641 O 518.303 5.39631 -0.863739 0
M  V30 5642 H 515.397 0.821469 -0.0954827 0
M  V30 5643 H 517.943 1.42897 -0.915348 0
M  V30 5644 H 516.715 3.46225 -1.82329 0
M  V30 5645 H 516.338 3.97166 -0.18567 0
M  V30 5646 N 517.335 0.585699 1.46312 0
M  V30 5647 C 518.612 0.00542031 1.95599 0
M  V30 5648 C 518.992 -1.45619 1.52834 0
M  V30 5649 O 518.34 -2.14759 0.780446 0
M  V30 5650 C 518.55 0.180601 3.48532 0
M  V30 5651 C 519.898 0.049979 4.24571 0
M  V30 5652 O 520.922 0.109589 3.56031 0
M  V30 5653 O 519.781 -0.0832226 5.46437 0
M  V30 5654 H 516.875 -0.0481281 0.825598 0
M  V30 5655 H 519.421 0.654227 1.56582 0
M  V30 5656 H 518.193 1.19657 3.72556 0
M  V30 5657 H 517.816 -0.504498 3.94386 0
M  V30 5658 N 518.813 -1.54241 0.323641 0
M  V30 5659 C 520.043 -2.04687 -0.280464 0
M  V30 5660 C 520.451 -1.19939 -1.46326 0
M  V30 5661 O 519.794 -0.222872 -1.82343 0
M  V30 5662 C 519.856 -3.50978 -0.778123 0
M  V30 5663 C 519.52 -4.56127 0.282371 0
M  V30 5664 C 520.517 -5.07726 1.11847 0
M  V30 5665 C 518.202 -5.00451 0.430582 0
M  V30 5666 C 520.196 -6.02212 2.08851 0
M  V30 5667 C 517.883 -5.94752 1.40404 0
M  V30 5668 C 518.881 -6.45519 2.23147 0
M  V30 5669 O 518.569 -7.37968 3.1884 0
M  V30 5670 H 518.301 -0.673192 -0.0615473 0
M  V30 5671 H 520.855 -1.99999 0.467921 0
M  V30 5672 H 519.085 -3.53064 -1.57742 0
M  V30 5673 H 520.774 -3.84499 -1.30058 0
M  V30 5674 H 521.54 -4.74261 1.01496 0
M  V30 5675 H 517.419 -4.6055 -0.203569 0
M  V30 5676 H 520.963 -6.41761 2.73474 0
M  V30 5677 H 516.86 -6.27633 1.5082 0
M  V30 5678 H 517.628 -7.55841 3.14079 0
M  V30 5679 N 520.291 -0.0518155 -1.57515 0
M  V30 5680 C 521.516 0.634896 -1.97443 0
M  V30 5681 C 521.941 1.63546 -0.929207 0
M  V30 5682 O 521.299 1.80981 0.107484 0
M  V30 5683 C 521.347 1.29765 -3.36442 0
M  V30 5684 O 520.451 2.41333 -3.34413 0
M  V30 5685 H 519.792 0.164994 -0.643174 0
M  V30 5686 H 522.322 -0.120407 -2.04245 0
M  V30 5687 H 522.332 1.64918 -3.73184 0
M  V30 5688 H 521.007 0.564361 -4.12053 0
M  V30 5689 H 519.584 2.08122 -3.09418 0
M  V30 5690 N 521.769 1.56035 0.221574 0
M  V30 5691 C 523.009 1.80822 0.953038 0
M  V30 5692 C 523.373 0.625316 1.81532 0
M  V30 5693 O 524.574 0.752491 2.58052 0
M  V30 5694 C 522.845 3.10503 1.76983 0
M  V30 5695 S 524.404 3.56604 2.55693 0
M  V30 5696 H 521.222 0.634849 0.320137 0
M  V30 5697 H 523.824 1.94274 0.218619 0
M  V30 5698 H 522.528 3.94636 1.12651 0
M  V30 5699 H 522.059 2.99858 2.54655 0
M  V30 5700 H 524.074 3.1994 3.79279 0
M  V30 5701 N 523.247 -0.488276 1.49845 0
M  V30 5702 C 524.194 -1.58836 1.67451 0
M  V30 5703 C 525.164 -1.57886 0.515857 0
M  V30 5704 O 526.349 -1.75679 0.744403 0
M  V30 5705 C 523.489 -2.96915 1.75885 0
M  V30 5706 C 522.602 -3.07784 3.03138 0
M  V30 5707 C 521.737 -4.36673 3.02473 0
M  V30 5708 C 520.776 -4.41222 4.24252 0
M  V30 5709 N 519.913 -5.61557 4.21424 0
M  V30 5710 H 524.753 -1.43131 2.61376 0
M  V30 5711 H 522.29 -0.696186 1.29583 0
M  V30 5712 H 524.248 -3.76965 1.78755 0
M  V30 5713 H 522.878 -3.11295 0.85414 0
M  V30 5714 H 521.93 -2.20717 3.09819 0
M  V30 5715 H 523.242 -3.07005 3.93128 0
M  V30 5716 H 522.396 -5.25055 3.03977 0
M  V30 5717 H 521.135 -4.40037 2.10283 0
M  V30 5718 H 520.14 -3.5124 4.22978 0
M  V30 5719 H 521.365 -4.39564 5.17649 0
M  V30 5720 H 519.311 -5.65738 3.32078 0
M  V30 5721 H 519.228 -5.62447 5.05163 0
M  V30 5722 H 520.496 -6.52111 4.2705 0
M  V30 5723 N 524.725 -1.39134 -0.740242 0
M  V30 5724 C 525.965 -1.37499 -1.51239 0
M  V30 5725 C 526.329 0.0310084 -1.91975 0
M  V30 5726 O 527.53 0.172319 -2.68247 0
M  V30 5727 C 525.801 -2.31566 -2.72235 0
M  V30 5728 S 527.36 -2.48073 -3.61947 0
M  V30 5729 H 524.178 -0.48768 -0.517387 0
M  V30 5730 H 526.78 -1.75183 -0.867826 0
M  V30 5731 H 525.484 -3.32592 -2.40439 0
M  V30 5732 H 525.015 -1.9508 -3.41625 0
M  V30 5733 H 527.03 -1.71473 -4.6563 0
M  V30 5734 N 526.204 0.969867 -1.24223 0
M  V30 5735 C 527.615 1.52717 -1.07399 0
M  V30 5736 C 527.966 1.92956 0.355298 0
M  V30 5737 O 527.091 1.77112 1.2434 0
M  V30 5738 C 527.686 2.77521 -1.94339 0
M  V30 5739 C 526.245 3.29615 -1.81744 0
M  V30 5740 C 525.392 2.02537 -1.89405 0
M  V30 5741 H 528.343 0.788399 -1.37732 0
M  V30 5742 H 528.364 3.50773 -1.47439 0
M  V30 5743 H 527.876 2.48203 -2.98357 0
M  V30 5744 H 525.977 3.63789 -0.805505 0
M  V30 5745 H 526.09 3.98661 -2.65718 0
M  V30 5746 H 524.454 2.17151 -1.33108 0
M  V30 5747 H 525.237 1.75587 -2.94999 0
M  V30 5748 N 527.682 1.05563 1.17022 0
M  V30 5749 C 528.907 0.788437 1.91829 0
M  V30 5750 C 529.332 -0.650356 1.76499 0
M  V30 5751 O 528.69 -1.45229 1.08527 0
M  V30 5752 C 528.738 1.1786 3.40795 0
M  V30 5753 O 527.842 0.312965 4.11211 0
M  V30 5754 H 527.183 0.288794 0.597908 0
M  V30 5755 H 529.713 1.40948 1.48307 0
M  V30 5756 H 529.723 1.14697 3.91546 0
M  V30 5757 H 528.398 2.22666 3.51273 0
M  V30 5758 H 526.975 0.405515 3.70689 0
M  V30 5759 N 529.16 -1.33526 0.837174 0
M  V30 5760 C 530.388 -2.02047 0.445494 0
M  V30 5761 C 530.803 -1.62995 -0.952788 0
M  V30 5762 O 530.16 -0.842447 -1.61892 0
M  V30 5763 C 530.211 -3.57221 0.554577 0
M  V30 5764 O 529.932 -3.94863 1.89776 0
M  V30 5765 C 531.433 -4.43012 0.159634 0
M  V30 5766 H 528.653 -0.647221 0.177048 0
M  V30 5767 H 531.197 -1.70492 1.12928 0
M  V30 5768 H 529.352 -3.87315 -0.0812781 0
M  V30 5769 H 529.766 -4.89569 1.88208 0
M  V30 5770 H 531.24 -5.51253 0.28701 0
M  V30 5771 H 531.717 -4.29916 -0.898289 0
M  V30 5772 H 532.323 -4.18274 0.769855 0
M  V30 5773 N 530.638 -0.59345 -1.46 0
M  V30 5774 C 531.887 -0.0808084 -2.01538 0
M  V30 5775 C 532.2 1.29112 -1.46934 0
M  V30 5776 O 533.406 1.8957 -1.94359 0
M  V30 5777 C 531.862 -0.0938311 -3.59778 0
M  V30 5778 C 531.47 -1.46474 -4.23379 0
M  V30 5779 C 533.214 0.364306 -4.22934 0
M  V30 5780 C 531.121 -1.4349 -5.73729 0
M  V30 5781 H 530.051 -0.0264407 -0.753536 0
M  V30 5782 H 532.702 -0.746689 -1.67621 0
M  V30 5783 H 531.084 0.638427 -3.9082 0
M  V30 5784 H 532.258 -2.21758 -4.03931 0
M  V30 5785 H 530.573 -1.86379 -3.7236 0
M  V30 5786 H 533.17 0.405584 -5.3316 0
M  V30 5787 H 533.513 1.38409 -3.92618 0
M  V30 5788 H 534.046 -0.31423 -3.96557 0
M  V30 5789 H 530.785 -2.43184 -6.08722 0
M  V30 5790 H 530.305 -0.724431 -5.95409 0
M  V30 5791 H 531.984 -1.15243 -6.36654 0
M  V30 5792 N 532.116 1.54067 -0.331816 0
M  V30 5793 C 533.356 2.02625 0.26876 0
M  V30 5794 C 533.72 1.21462 1.48697 0
M  V30 5795 O 534.921 1.59863 2.16096 0
M  V30 5796 C 533.192 3.52554 0.586577 0
M  V30 5797 S 534.751 4.23035 1.16563 0
M  V30 5798 H 531.569 0.706395 0.0807862 0
M  V30 5799 H 534.171 1.89844 -0.466856 0
M  V30 5800 H 532.875 4.09242 -0.308046 0
M  V30 5801 H 532.406 3.69432 1.35217 0
M  V30 5802 H 534.421 4.31382 2.45203 0
M  V30 5803 N 533.594 0.0601682 1.57485 0
M  V30 5804 C 534.84 -0.612501 1.93329 0
M  V30 5805 C 535.173 -1.6996 0.939526 0
M  V30 5806 O 534.448 -1.94472 -0.0330957 0
M  V30 5807 C 534.731 -1.20025 3.39508 0
M  V30 5808 C 534.584 -0.12059 4.49638 0
M  V30 5809 C 535.903 -2.10923 3.86264 0
M  V30 5810 H 533.022 -0.221185 0.703027 0
M  V30 5811 H 535.664 0.123768 1.89596 0
M  V30 5812 H 533.814 -1.82774 3.42821 0
M  V30 5813 H 535.486 0.51185 4.58452 0
M  V30 5814 H 533.729 0.550251 4.30296 0
M  V30 5815 H 534.4 -0.572019 5.49028 0
M  V30 5816 H 536.876 -1.58124 3.84884 0
M  V30 5817 H 535.752 -2.48987 4.8918 0
M  V30 5818 H 536.013 -3.01292 3.23536 0
M  V30 5819 N 535.072 -1.5615 -0.213296 0
M  V30 5820 C 536.005 -1.88115 -1.29182 0
M  V30 5821 C 536.983 -0.739348 -1.44819 0
M  V30 5822 O 538.167 -0.988541 -1.605 0
M  V30 5823 C 535.294 -2.09541 -2.66102 0
M  V30 5824 C 534.34 -3.32236 -2.67436 0
M  V30 5825 S 535.173 -4.87915 -2.20679 0
M  V30 5826 C 536.329 -5.12387 -3.59458 0
M  V30 5827 H 536.562 -2.793 -1.01876 0
M  V30 5828 H 534.095 -1.48692 -0.415934 0
M  V30 5829 H 536.053 -2.22568 -3.44925 0
M  V30 5830 H 534.714 -1.19138 -2.90628 0
M  V30 5831 H 533.907 -3.44297 -3.6807 0
M  V30 5832 H 533.509 -3.18108 -1.96681 0
M  V30 5833 H 535.801 -5.01791 -4.55205 0
M  V30 5834 H 536.744 -6.14236 -3.52306 0
M  V30 5835 H 537.152 -4.40089 -3.53528 0
M  V30 5836 N 536.55 0.480323 -1.50102 0
M  V30 5837 C 537.827 1.24159 -1.51142 0
M  V30 5838 C 538.207 2.09605 -0.250818 0
M  V30 5839 O 537.555 2.15274 0.766118 0
M  V30 5840 C 537.765 2.08057 -2.80202 0
M  V30 5841 C 539.113 2.66556 -3.30504 0
M  V30 5842 O 540.137 2.18308 -2.81461 0
M  V30 5843 O 538.996 3.54442 -4.15973 0
M  V30 5844 H 536.09 0.562928 -0.605839 0
M  V30 5845 H 538.636 0.492899 -1.62384 0
M  V30 5846 H 537.408 1.45032 -3.6343 0
M  V30 5847 H 537.031 2.90079 -2.71919 0
M  V30 5848 N 538.028 1.39524 0.732853 0
M  V30 5849 C 538.975 1.38416 1.84688 0
M  V30 5850 C 539.945 0.243539 1.64305 0
M  V30 5851 O 541.13 0.438979 1.85681 0
M  V30 5852 C 538.27 1.23555 3.22224 0
M  V30 5853 C 537.383 2.47179 3.54298 0
M  V30 5854 C 536.518 2.2489 4.81246 0
M  V30 5855 C 535.557 3.44178 5.0617 0
M  V30 5856 N 534.694 3.21192 6.24323 0
M  V30 5857 H 539.534 2.33645 1.84971 0
M  V30 5858 H 537.071 1.16059 0.903804 0
M  V30 5859 H 539.029 1.12949 4.0162 0
M  V30 5860 H 537.659 0.31954 3.21215 0
M  V30 5861 H 536.711 2.68379 2.69587 0
M  V30 5862 H 538.023 3.36022 3.68633 0
M  V30 5863 H 537.177 2.11538 5.68627 0
M  V30 5864 H 535.916 1.33443 4.69089 0
M  V30 5865 H 534.921 3.58025 4.17251 0
M  V30 5866 H 536.146 4.36528 5.20212 0
M  V30 5867 H 534.092 2.32413 6.1345 0
M  V30 5868 H 534.009 4.03594 6.39256 0
M  V30 5869 H 535.277 3.1154 7.14537 0
M  V30 5870 N 539.506 -0.963266 1.24736 0
M  V30 5871 C 540.469 -2.04013 1.04457 0
M  V30 5872 C 541.469 -1.608 0.000335555 0
M  V30 5873 O 542.659 -1.72515 0.241719 0
M  V30 5874 C 539.791 -3.35858 0.584162 0
M  V30 5875 H 540.984 -2.23436 2.00041 0
M  V30 5876 H 538.537 -1.13914 1.07021 0
M  V30 5877 H 539.272 -3.22128 -0.374673 0
M  V30 5878 H 539.057 -3.68568 1.3379 0
M  V30 5879 H 540.547 -4.1502 0.463451 0
M  V30 5880 N 540.985 -1.06182 -1.16461 0
M  V30 5881 C 541.915 -0.692861 -2.22984 0
M  V30 5882 C 542.896 0.314122 -1.67174 0
M  V30 5883 O 544.081 0.189499 -1.93273 0
M  V30 5884 C 541.211 -0.07732 -3.47214 0
M  V30 5885 C 540.165 -1.01015 -4.15909 0
M  V30 5886 C 539.491 -0.257973 -5.34077 0
M  V30 5887 C 540.791 -2.33868 -4.67015 0
M  V30 5888 H 542.485 -1.58343 -2.54102 0
M  V30 5889 H 540.031 -0.76279 -1.22137 0
M  V30 5890 H 541.984 0.19266 -4.20959 0
M  V30 5891 H 540.708 0.848254 -3.15392 0
M  V30 5892 H 539.367 -1.26486 -3.44088 0
M  V30 5893 H 539.015 0.670684 -4.98509 0
M  V30 5894 H 538.715 -0.879638 -5.80979 0
M  V30 5895 H 540.239 0.00448788 -6.106 0
M  V30 5896 H 541.653 -2.1279 -5.32347 0
M  V30 5897 H 540.05 -2.91522 -5.24533 0
M  V30 5898 H 541.12 -2.97019 -3.83286 0
M  V30 5899 N 542.463 1.3308 -0.844243 0
M  V30 5900 C 543.688 2.02341 -0.455282 0
M  V30 5901 C 544.113 1.6308 0.93737 0
M  V30 5902 O 543.471 0.826118 1.61385 0
M  V30 5903 C 543.519 3.55743 -0.58988 0
M  V30 5904 O 542.623 4.1063 0.38166 0
M  V30 5905 H 541.964 0.637898 -0.184343 0
M  V30 5906 H 544.494 1.6986 -1.14056 0
M  V30 5907 H 544.504 4.05243 -0.473522 0
M  V30 5908 H 543.179 3.83662 -1.60549 0
M  V30 5909 H 541.756 3.72236 0.22241 0
M  V30 5910 N 543.941 0.601185 1.45683 0
M  V30 5911 C 545.188 0.0938811 2.02282 0
M  V30 5912 C 545.516 -1.27315 1.47041 0
M  V30 5913 O 544.771 -1.85193 0.632623 0
M  V30 5914 C 545.07 -0.00222425 3.574 0
M  V30 5915 C 544.736 1.29963 4.31764 0
M  V30 5916 C 543.398 1.65625 4.51798 0
M  V30 5917 C 545.75 2.1603 4.74321 0
M  V30 5918 C 543.078 2.87119 5.11644 0
M  V30 5919 C 545.43 3.36766 5.3551 0
M  V30 5920 C 544.094 3.72689 5.53768 0
M  V30 5921 H 543.364 0.0343535 0.740203 0
M  V30 5922 H 546.011 0.781522 1.74827 0
M  V30 5923 H 544.316 -0.773096 3.84097 0
M  V30 5924 H 546.013 -0.410794 3.9889 0
M  V30 5925 H 542.603 1.01204 4.1648 0
M  V30 5926 H 546.787 1.89778 4.58582 0
M  V30 5927 H 542.043 3.15065 5.2397 0
M  V30 5928 H 546.217 4.03713 5.67441 0
M  V30 5929 H 543.844 4.66918 5.99909 0
M  V30 5930 N 545.419 -1.53889 0.339982 0
M  V30 5931 C 546.649 -2.04973 -0.258738 0
M  V30 5932 C 547.057 -1.21485 -1.45045 0
M  V30 5933 O 546.4 -0.2422 -1.82096 0
M  V30 5934 C 546.462 -3.51783 -0.740853 0
M  V30 5935 C 546.126 -4.55802 0.330734 0
M  V30 5936 C 547.123 -5.06512 1.17226 0
M  V30 5937 C 544.808 -4.99966 0.483637 0
M  V30 5938 C 546.802 -5.99963 2.15227 0
M  V30 5939 C 544.489 -5.93229 1.46704 0
M  V30 5940 C 545.487 -6.43115 2.29981 0
M  V30 5941 O 545.175 -7.34545 3.26649 0
M  V30 5942 H 544.907 -0.673807 -0.0544037 0
M  V30 5943 H 547.461 -1.99492 0.489107 0
M  V30 5944 H 545.691 -3.54717 -1.53988 0
M  V30 5945 H 547.38 -3.85857 -1.25973 0
M  V30 5946 H 548.146 -4.73158 1.0652 0
M  V30 5947 H 544.025 -4.6074 -0.15471 0
M  V30 5948 H 547.569 -6.38825 2.80265 0
M  V30 5949 H 543.466 -6.25998 1.57468 0
M  V30 5950 H 544.234 -7.52468 3.22078 0
M  V30 5951 N 546.897 -0.0685191 -1.57451 0
M  V30 5952 C 548.146 0.600898 -1.92541 0
M  V30 5953 C 548.459 1.70967 -0.950239 0
M  V30 5954 O 549.665 2.43844 -1.19384 0
M  V30 5955 C 548.121 1.12019 -3.42023 0
M  V30 5956 C 547.729 0.0426028 -4.4798 0
M  V30 5957 C 549.473 1.76386 -3.86119 0
M  V30 5958 C 547.38 0.575759 -5.88591 0
M  V30 5959 H 546.31 0.228225 -0.71863 0
M  V30 5960 H 548.961 -0.140223 -1.82963 0
M  V30 5961 H 547.343 1.91418 -3.46663 0
M  V30 5962 H 548.517 -0.73182 -4.54952 0
M  V30 5963 H 546.832 -0.504642 -4.13331 0
M  V30 5964 H 549.429 2.17302 -4.88553 0
M  V30 5965 H 549.772 2.62255 -3.23308 0
M  V30 5966 H 550.305 1.03615 -3.84069 0
M  V30 5967 H 547.044 -0.245691 -6.55039 0
M  V30 5968 H 546.564 1.31778 -5.85145 0
M  V30 5969 H 548.243 1.0532 -6.3837 0
M  V30 5970 N 548.375 1.56261 0.205012 0
M  V30 5971 C 549.786 1.70056 0.770574 0
M  V30 5972 C 550.137 0.673398 1.84282 0
M  V30 5973 O 549.262 -0.172196 2.15714 0
M  V30 5974 C 549.857 3.08316 1.40451 0
M  V30 5975 C 548.416 3.2391 1.91727 0
M  V30 5976 C 547.563 2.66001 0.783516 0
M  V30 5977 H 550.514 1.58688 -0.019911 0
M  V30 5978 H 550.535 3.05094 2.27371 0
M  V30 5979 H 550.047 3.83053 0.623882 0
M  V30 5980 H 548.148 2.54072 2.7254 0
M  V30 5981 H 548.261 4.3131 2.08588 0
M  V30 5982 H 546.625 2.24915 1.19521 0
M  V30 5983 H 547.408 3.43297 0.0152883 0
M  V30 5984 N 549.853 -0.472356 1.50355 0
M  V30 5985 C 551.081 -1.24784 1.65035 0
M  V30 5986 C 551.496 -1.85837 0.333176 0
M  V30 5987 O 550.853 -1.69168 -0.68472 0
M  V30 5988 C 550.904 -2.35747 2.74054 0
M  V30 5989 O 550.625 -1.77197 4.00665 0
M  V30 5990 C 552.126 -3.26645 2.99696 0
M  V30 5991 H 549.346 -0.377432 0.554785 0
M  V30 5992 H 551.89 -0.563962 1.9657 0
M  V30 5993 H 550.045 -2.99912 2.45217 0
M  V30 5994 H 550.459 -2.5026 4.60945 0
M  V30 5995 H 551.933 -4.00718 3.79644 0
M  V30 5996 H 552.41 -3.8535 2.10718 0
M  V30 5997 H 553.016 -2.68218 3.3006 0
M  V30 5998 N 551.331 -1.39911 -0.725443 0
M  V30 5999 C 552.608 -1.28158 -1.47766 0
M  V30 6000 C 552.988 0.104545 -2.10841 0
M  V30 6001 O 552.336 1.11657 -1.99361 0
M  V30 6002 C 552.546 -2.41306 -2.52135 0
M  V30 6003 C 553.894 -2.81076 -3.18247 0
M  V30 6004 O 554.918 -2.40827 -2.62452 0
M  V30 6005 O 553.777 -3.50581 -4.19231 0
M  V30 6006 H 550.871 -0.502761 -0.656628 0
M  V30 6007 H 553.417 -1.51808 -0.758456 0
M  V30 6008 H 552.189 -3.33932 -2.03974 0
M  V30 6009 H 551.812 -2.19374 -3.31603 0
M  V30 6010 N 552.809 0.956637 -1.25245 0
M  V30 6011 C 554.056 1.701 -1.09874 0
M  V30 6012 C 554.384 1.91128 0.36062 0
M  V30 6013 O 553.639 1.47837 1.28229 0
M  V30 6014 C 553.938 3.08996 -1.79601 0
M  V30 6015 C 553.604 3.07774 -3.29523 0
M  V30 6016 C 552.266 3.07149 -3.70423 0
M  V30 6017 C 554.618 3.01257 -4.25316 0
M  V30 6018 C 551.946 2.97752 -5.0553 0
M  V30 6019 C 554.298 2.93403 -5.60444 0
M  V30 6020 C 552.962 2.91111 -6.00675 0
M  V30 6021 H 552.232 0.62244 -0.402056 0
M  V30 6022 H 554.879 1.1178 -1.55491 0
M  V30 6023 H 553.184 3.70848 -1.26408 0
M  V30 6024 H 554.881 3.65407 -1.65162 0
M  V30 6025 H 551.471 3.09032 -2.9698 0
M  V30 6026 H 555.655 3.00861 -3.9471 0
M  V30 6027 H 550.911 2.94346 -5.35883 0
M  V30 6028 H 555.085 2.87321 -6.34366 0
M  V30 6029 H 552.712 2.83586 -7.05325 0
M  V30 6030 N 554.287 1.06798 1.15896 0
M  V30 6031 C 555.512 0.808739 1.90982 0
M  V30 6032 C 555.937 -0.6316 1.77179 0
M  V30 6033 O 555.295 -1.4407 1.10061 0
M  V30 6034 C 555.343 1.21468 3.39526 0
M  V30 6035 O 554.447 0.356562 4.10856 0
M  V30 6036 H 553.788 0.29512 0.594811 0
M  V30 6037 H 556.318 1.42513 1.46804 0
M  V30 6038 H 556.328 1.18844 3.90308 0
M  V30 6039 H 555.003 2.26379 3.48891 0
M  V30 6040 H 553.58 0.444808 3.70238 0
M  V30 6041 N 555.766 -1.3263 0.851289 0
M  V30 6042 C 556.991 -2.02097 0.466006 0
M  V30 6043 C 557.416 -1.63574 -0.928709 0
M  V30 6044 O 556.774 -0.834665 -1.60944 0
M  V30 6045 C 556.822 -3.55425 0.608737 0
M  V30 6046 O 555.926 -4.10827 -0.359878 0
M  V30 6047 H 555.267 -0.636911 0.187724 0
M  V30 6048 H 557.797 -1.69253 1.14955 0
M  V30 6049 H 557.807 -4.04986 0.495006 0
M  V30 6050 H 556.482 -3.82806 1.62581 0
M  V30 6051 H 555.059 -3.72349 -0.202666 0
M  V30 6052 N 557.244 -0.608902 -1.45362 0
M  V30 6053 C 558.484 -0.10763 -2.04116 0
M  V30 6054 C 558.848 1.23883 -1.46686 0
M  V30 6055 O 560.049 1.83091 -1.96803 0
M  V30 6056 C 558.32 -0.0703351 -3.57331 0
M  V30 6057 S 559.879 0.369554 -4.37241 0
M  V30 6058 H 556.697 -0.0502123 -0.709225 0
M  V30 6059 H 559.299 -0.8073 -1.78053 0
M  V30 6060 H 558.003 -1.05379 -3.9664 0
M  V30 6061 H 557.534 0.651287 -3.87971 0
M  V30 6062 H 559.549 1.61878 -4.69052 0
M  V30 6063 N 558.722 1.53707 -0.348139 0
M  V30 6064 C 559.947 2.05877 0.250883 0
M  V30 6065 C 560.372 1.22115 1.43072 0
M  V30 6066 O 559.73 0.235986 1.79758 0
M  V30 6067 C 559.778 3.54886 0.639416 0
M  V30 6068 O 558.882 3.73948 1.73888 0
M  V30 6069 H 558.223 0.662754 0.040653 0
M  V30 6070 H 560.753 1.98303 -0.503685 0
M  V30 6071 H 560.763 3.97601 0.915295 0
M  V30 6072 H 559.438 4.153 -0.223386 0
M  V30 6073 H 558.015 3.43134 1.45991 0
M  V30 6074 N 560.2 0.0768682 1.57412 0
M  V30 6075 C 561.616 -0.279772 1.57129 0
M  V30 6076 C 561.816 -1.69688 1.08666 0
M  V30 6077 O 560.872 -2.40953 0.754843 0
M  V30 6078 C 562.185 -0.0848055 3.0058 0
M  V30 6079 C 563.733 -0.153954 3.12621 0
M  V30 6080 C 564.208 0.0127946 4.57998 0
M  V30 6081 N 565.699 -0.0426435 4.6318 0
M  V30 6082 C 566.434 0.0618892 5.73367 0
M  V30 6083 N 565.93 0.220229 6.9245 0
M  V30 6084 N 567.723 0.00446072 5.621 0
M  V30 6085 H 559.874 1.00297 1.87228 0
M  V30 6086 H 562.137 0.391565 0.863354 0
M  V30 6087 H 561.843 0.89325 3.40168 0
M  V30 6088 H 561.717 -0.834961 3.67843 0
M  V30 6089 H 564.104 -1.1225 2.72917 0
M  V30 6090 H 564.185 0.627389 2.47987 0
M  V30 6091 H 563.829 0.978128 4.98392 0
M  V30 6092 H 563.759 -0.788016 5.20671 0
M  V30 6093 H 566.25 -0.163226 3.77547 0
M  V30 6094 H 566.563 0.291999 7.72248 0
M  V30 6095 H 564.908 0.255658 6.9453 0
M  V30 6096 H 568.099 -0.117979 4.67951 0
M  V30 6097 H 568.272 0.0893796 6.47938 0
M  V30 6098 N 561.678 -1.56367 -0.196722 0
M  V30 6099 C 562.608 -1.97442 -1.24655 0
M  V30 6100 C 563.589 -0.846147 -1.47561 0
M  V30 6101 O 564.774 -1.11035 -1.59326 0
M  V30 6102 C 561.904 -2.31253 -2.59112 0
M  V30 6103 C 560.858 -3.46804 -2.50821 0
M  V30 6104 C 560.184 -3.66286 -3.89536 0
M  V30 6105 C 561.484 -4.8104 -2.03465 0
M  V30 6106 H 563.178 -2.85388 -0.905216 0
M  V30 6107 H 560.724 -1.37304 -0.434002 0
M  V30 6108 H 562.677 -2.58583 -3.32736 0
M  V30 6109 H 561.401 -1.40188 -2.94983 0
M  V30 6110 H 560.06 -3.19563 -1.79653 0
M  V30 6111 H 559.708 -2.72555 -4.22756 0
M  V30 6112 H 559.408 -4.4402 -3.84864 0
M  V30 6113 H 560.932 -3.9599 -4.64784 0
M  V30 6114 H 562.346 -5.07411 -2.66846 0
M  V30 6115 H 560.743 -5.62232 -2.09798 0
M  V30 6116 H 561.813 -4.74732 -0.98781 0
M  V30 6117 N 563.156 0.464375 -1.50603 0
M  V30 6118 C 564.381 1.24372 -1.65971 0
M  V30 6119 C 564.806 1.84901 -0.345453 0
M  V30 6120 O 564.164 1.67596 0.691457 0
M  V30 6121 C 564.212 2.32331 -2.7578 0
M  V30 6122 O 563.316 3.37146 -2.375 0
M  V30 6123 H 562.657 0.365604 -0.554283 0
M  V30 6124 H 565.187 0.55183 -1.97018 0
M  V30 6125 H 565.197 2.77539 -2.99059 0
M  V30 6126 H 563.872 1.87648 -3.71162 0
M  V30 6127 H 562.449 2.97602 -2.24694 0
M  V30 6128 N 564.634 1.40294 0.718013 0
M  V30 6129 C 565.864 1.41544 1.50495 0
M  V30 6130 C 566.272 0.0127877 1.89196 0
M  V30 6131 O 565.615 -0.97305 1.55812 0
M  V30 6132 C 565.677 2.24021 2.81167 0
M  V30 6133 C 565.341 3.72463 2.64803 0
M  V30 6134 C 566.338 4.65154 2.32223 0
M  V30 6135 C 564.023 4.1625 2.81143 0
M  V30 6136 C 566.017 5.99618 2.16189 0
M  V30 6137 C 563.704 5.50784 2.64727 0
M  V30 6138 C 564.702 6.42283 2.32297 0
M  V30 6139 O 564.39 7.74337 2.16004 0
M  V30 6140 H 564.122 0.484819 0.471091 0
M  V30 6141 H 566.676 1.84948 0.893488 0
M  V30 6142 H 564.906 1.75393 3.44636 0
M  V30 6143 H 566.595 2.17243 3.42871 0
M  V30 6144 H 567.361 4.32622 2.19234 0
M  V30 6145 H 563.24 3.45352 3.05373 0
M  V30 6146 H 566.784 6.71 1.90799 0
M  V30 6147 H 562.681 5.82902 2.773 0
M  V30 6148 H 563.449 7.85244 2.30942 0
M  V30 6149 N 566.112 -0.949982 1.2575 0
M  V30 6150 C 567.389 -1.6718 1.01539 0
M  V30 6151 C 567.769 -2.06095 -0.456942 0
M  V30 6152 O 567.117 -1.77792 -1.43534 0
M  V30 6153 C 567.327 -2.8906 1.95564 0
M  V30 6154 C 568.675 -3.60909 2.23673 0
M  V30 6155 O 569.699 -2.9915 1.9336 0
M  V30 6156 O 568.558 -4.72127 2.75243 0
M  V30 6157 H 565.652 -0.731697 0.385419 0
M  V30 6158 H 568.198 -1.00249 1.36924 0
M  V30 6159 H 566.97 -2.57128 2.94959 0
M  V30 6160 H 566.593 -3.63719 1.60605 0
M  V30 6161 N 567.59 -1.07411 -1.15328 0
M  V30 6162 C 568.537 -0.694995 -2.20087 0
M  V30 6163 C 569.507 0.313904 -1.63107 0
M  V30 6164 O 570.692 0.200216 -1.89747 0
M  V30 6165 C 567.832 -0.0996218 -3.44956 0
M  V30 6166 C 566.945 -1.16007 -4.16133 0
M  V30 6167 C 566.08 -0.529636 -5.28553 0
M  V30 6168 C 565.119 -1.57283 -5.91548 0
M  V30 6169 N 564.256 -0.964932 -6.95438 0
M  V30 6170 H 569.096 -1.5927 -2.51867 0
M  V30 6171 H 566.633 -0.796115 -1.23695 0
M  V30 6172 H 568.591 0.263197 -4.16369 0
M  V30 6173 H 567.221 0.761435 -3.13691 0
M  V30 6174 H 566.273 -1.64045 -3.4321 0
M  V30 6175 H 567.585 -1.95101 -4.59061 0
M  V30 6176 H 566.739 -0.114487 -6.06592 0
M  V30 6177 H 565.478 0.29307 -4.86819 0
M  V30 6178 H 564.483 -1.99775 -5.12221 0
M  V30 6179 H 565.708 -2.39783 -6.35359 0
M  V30 6180 H 563.654 -0.16314 -6.55797 0
M  V30 6181 H 563.571 -1.69311 -7.36797 0
M  V30 6182 H 564.839 -0.575305 -7.77374 0
M  V30 6183 N 569.068 1.32177 -0.85831 0
M  V30 6184 C 570.315 1.97125 -0.463484 0
M  V30 6185 C 570.643 1.67907 0.981705 0
M  V30 6186 O 569.898 0.961717 1.70439 0
M  V30 6187 C 570.197 3.51372 -0.653658 0
M  V30 6188 C 569.863 4.00584 -2.06987 0
M  V30 6189 C 568.525 4.13733 -2.4572 0
M  V30 6190 C 570.877 4.26624 -2.99402 0
M  V30 6191 C 568.205 4.50268 -3.76132 0
M  V30 6192 C 570.557 4.64618 -4.29316 0
M  V30 6193 C 569.221 4.75975 -4.67979 0
M  V30 6194 H 568.491 0.72133 -0.169601 0
M  V30 6195 H 571.138 1.57517 -1.08907 0
M  V30 6196 H 569.443 3.91761 0.0551328 0
M  V30 6197 H 571.14 3.99655 -0.328163 0
M  V30 6198 H 567.73 3.90837 -1.75911 0
M  V30 6199 H 571.914 4.1597 -2.70708 0
M  V30 6200 H 567.17 4.57256 -4.05865 0
M  V30 6201 H 571.344 4.83722 -5.00985 0
M  V30 6202 H 568.971 5.04041 -5.69076 0
M  V30 6203 N 570.547 0.616602 1.45037 0
M  V30 6204 C 571.794 0.115331 2.02171 0
M  V30 6205 C 572.122 -1.25748 1.48383 0
M  V30 6206 O 571.377 -1.84511 0.652229 0
M  V30 6207 C 571.676 0.0356829 3.57382 0
M  V30 6208 C 571.342 1.34535 4.30362 0
M  V30 6209 C 570.004 1.70408 4.50016 0
M  V30 6210 C 572.356 2.21049 4.72003 0
M  V30 6211 C 569.684 2.92529 5.0857 0
M  V30 6212 C 572.036 3.42427 5.31908 0
M  V30 6213 C 570.7 3.78541 5.49784 0
M  V30 6214 H 569.97 0.0422024 0.739797 0
M  V30 6215 H 572.617 0.80002 1.73988 0
M  V30 6216 H 570.922 -0.732314 3.84895 0
M  V30 6217 H 572.619 -0.368463 3.99304 0
M  V30 6218 H 569.209 1.05615 4.15383 0
M  V30 6219 H 573.393 1.94632 4.56544 0
M  V30 6220 H 568.649 3.20605 5.20598 0
M  V30 6221 H 572.823 4.09709 5.63127 0
M  V30 6222 H 570.45 4.73255 5.94923 0
M  V30 6223 N 572.025 -1.5352 0.356285 0
M  V30 6224 C 572.935 -2.29151 -0.502712 0
M  V30 6225 C 573.951 -1.34753 -1.1008 0
M  V30 6226 O 575.127 -1.67803 -1.11374 0
M  V30 6227 C 572.192 -3.05911 -1.63154 0
M  V30 6228 C 571.253 -4.15958 -1.06194 0
M  V30 6229 C 570.486 -4.8905 -2.13696 0
M  V30 6230 O 570.709 -4.61919 -3.34645 0
M  V30 6231 O 569.643 -5.75202 -1.77275 0
M  V30 6232 H 573.469 -3.03492 0.112466 0
M  V30 6233 H 571.054 -1.4891 0.120942 0
M  V30 6234 H 572.936 -3.53874 -2.28804 0
M  V30 6235 H 571.611 -2.34415 -2.23229 0
M  V30 6236 H 570.518 -3.7227 -0.369603 0
M  V30 6237 H 571.851 -4.89593 -0.505872 0
M  V30 6238 N 573.503 -0.0852151 -1.57369 0
M  V30 6239 C 574.78 0.622534 -1.85429 0
M  V30 6240 C 575.16 1.86962 -0.980229 0
M  V30 6241 O 574.508 2.28445 -0.0500219 0
M  V30 6242 C 574.718 0.947374 -3.35896 0
M  V30 6243 C 576.066 1.31509 -4.03721 0
M  V30 6244 O 577.09 1.03869 -3.40719 0
M  V30 6245 O 575.949 1.83231 -5.14868 0
M  V30 6246 H 573.043 0.310513 -0.766492 0
M  V30 6247 H 575.589 -0.117164 -1.69295 0
M  V30 6248 H 574.361 0.0622264 -3.91251 0
M  V30 6249 H 573.984 1.74338 -3.5734 0
M  V30 6250 N 574.981 1.5647 0.188427 0
M  V30 6251 C 575.928 1.95073 1.23349 0
M  V30 6252 C 576.898 0.812238 1.44886 0
M  V30 6253 O 578.083 1.07095 1.57909 0
M  V30 6254 C 575.223 2.30124 2.57171 0
M  V30 6255 C 574.336 3.57069 2.43157 0
M  V30 6256 C 573.471 3.81411 3.69729 0
M  V30 6257 C 572.51 5.0176 3.50575 0
M  V30 6258 N 571.647 5.22321 4.69175 0
M  V30 6259 H 576.487 2.84171 0.89728 0
M  V30 6260 H 574.024 1.40623 0.431683 0
M  V30 6261 H 575.982 2.48463 3.35145 0
M  V30 6262 H 574.612 1.44159 2.88822 0
M  V30 6263 H 573.664 3.4674 1.56447 0
M  V30 6264 H 574.976 4.452 2.24942 0
M  V30 6265 H 574.13 4.00026 4.56141 0
M  V30 6266 H 572.869 2.91624 3.90905 0
M  V30 6267 H 571.874 4.83061 2.62549 0
M  V30 6268 H 573.099 5.93063 3.30837 0
M  V30 6269 H 571.045 4.35483 4.90602 0
M  V30 6270 H 570.962 6.04643 4.53809 0
M  V30 6271 H 572.23 5.45401 5.56919 0
M  V30 6272 N 576.459 -0.456382 1.50847 0
M  V30 6273 C 577.389 -1.56025 1.73719 0
M  V30 6274 C 578.37 -1.5967 0.586473 0
M  V30 6275 O 579.555 -1.75702 0.827185 0
M  V30 6276 C 576.685 -2.94251 1.84483 0
M  V30 6277 C 575.639 -3.05471 2.99786 0
M  V30 6278 C 574.965 -4.45489 2.95709 0
M  V30 6279 C 576.265 -2.81318 4.40065 0
M  V30 6280 H 577.959 -1.37138 2.66146 0
M  V30 6281 H 575.505 -0.658299 1.28072 0
M  V30 6282 H 577.458 -3.71417 1.99067 0
M  V30 6283 H 576.182 -3.14328 0.886891 0
M  V30 6284 H 574.841 -2.30741 2.84876 0
M  V30 6285 H 574.489 -4.62505 1.97732 0
M  V30 6286 H 574.189 -4.53929 3.73125 0
M  V30 6287 H 575.713 -5.24655 3.12362 0
M  V30 6288 H 577.127 -3.48226 4.55425 0
M  V30 6289 H 575.524 -3.01188 5.19043 0
M  V30 6290 H 576.594 -1.7706 4.51418 0
M  V30 6291 N 577.937 -1.40673 -0.710563 0
M  V30 6292 C 579.162 -1.42741 -1.50465 0
M  V30 6293 C 579.587 -0.0302116 -1.88076 0
M  V30 6294 O 578.945 0.962945 -1.53613 0
M  V30 6295 C 578.993 -2.32873 -2.75322 0
M  V30 6296 O 578.097 -1.77544 -3.72226 0
M  V30 6297 H 577.438 -0.485056 -0.45345 0
M  V30 6298 H 579.968 -1.84961 -0.874681 0
M  V30 6299 H 579.978 -2.48233 -3.23797 0
M  V30 6300 H 578.653 -3.34401 -2.47283 0
M  V30 6301 H 577.23 -1.71556 -3.31093 0
M  V30 6302 N 579.415 0.9433 -1.26252 0
M  V30 6303 C 580.363 2.06302 -1.07434 0
M  V30 6304 C 581.357 1.694 -0.00189471 0
M  V30 6305 O 582.563 1.79302 -0.158408 0
M  V30 6306 H 578.938 0.675453 -0.330556 0
M  V30 6307 H 580.909 2.19326 -2.02333 0
M  V30 6308 C 579.658 3.40125 -0.721817 0
M  V30 6309 H 578.981 3.68996 -1.5389 0
M  V30 6310 H 580.421 4.19295 -0.629922 0
M  V30 6311 C 578.88 3.31993 0.572902 0
M  V30 6312 O 579.41 3.67945 1.61182 0
M  V30 6313 N 577.616 2.85099 0.562748 0
M  V30 6314 H 577.163 2.5604 -0.283092 0
M  V30 6315 H 577.121 2.80041 1.42915 0
M  V30 6316 N 580.893 1.08022 1.14757 0
M  V30 6317 C 582.133 0.816959 1.87364 0
M  V30 6318 C 582.497 -0.645407 1.80827 0
M  V30 6319 O 583.698 -1.024 2.48531 0
M  V30 6320 C 581.969 1.31961 3.32146 0
M  V30 6321 S 583.528 1.18806 4.2241 0
M  V30 6322 H 580.346 0.295862 0.646519 0
M  V30 6323 H 582.948 1.3807 1.38408 0
M  V30 6324 H 581.652 2.37847 3.3445 0
M  V30 6325 H 581.183 0.751371 3.86158 0
M  V30 6326 H 583.198 0.129865 4.9603 0
M  V30 6327 N 582.371 -1.3172 0.865308 0
M  V30 6328 C 583.301 -2.31109 0.333302 0
M  V30 6329 C 584.282 -1.60148 -0.573301 0
M  V30 6330 O 585.467 -1.87882 -0.491305 0
M  V30 6331 C 582.597 -3.44104 -0.470078 0
M  V30 6332 C 581.551 -4.26623 0.343021 0
M  V30 6333 C 580.877 -5.31482 -0.585756 0
M  V30 6334 C 582.177 -4.98001 1.57456 0
M  V30 6335 H 583.871 -2.75855 1.1638 0
M  V30 6336 H 581.417 -1.3262 0.561069 0
M  V30 6337 H 583.37 -4.12682 -0.852752 0
M  V30 6338 H 582.094 -2.98112 -1.33404 0
M  V30 6339 H 580.753 -3.59707 0.707583 0
M  V30 6340 H 580.401 -4.81741 -1.44686 0
M  V30 6341 H 580.101 -5.87582 -0.0456494 0
M  V30 6342 H 581.625 -6.0292 -0.965375 0
M  V30 6343 H 583.039 -5.59201 1.26359 0
M  V30 6344 H 581.436 -5.63876 2.05339 0
M  V30 6345 H 582.506 -4.25253 2.32997 0
M  V30 6346 N 583.85 -0.624285 -1.44708 0
M  V30 6347 C 585.096 -0.126051 -2.02107 0
M  V30 6348 C 585.425 1.2496 -1.49048 0
M  V30 6349 O 584.68 1.84163 -0.662005 0
M  V30 6350 C 584.979 -0.0546353 -3.57358 0
M  V30 6351 C 584.644 -1.36815 -4.29642 0
M  V30 6352 C 583.307 -1.72792 -4.49106 0
M  V30 6353 C 585.659 -2.23549 -4.70824 0
M  V30 6354 C 582.986 -2.95222 -5.07012 0
M  V30 6355 C 585.339 -3.45243 -5.30085 0
M  V30 6356 C 584.003 -3.81452 -5.47769 0
M  V30 6357 H 583.273 -0.0461252 -0.739563 0
M  V30 6358 H 585.92 -0.809236 -1.73562 0
M  V30 6359 H 584.225 0.711891 -3.85278 0
M  V30 6360 H 585.922 0.347282 -3.99493 0
M  V30 6361 H 582.512 -1.07817 -4.14817 0
M  V30 6362 H 586.696 -1.9705 -4.55505 0
M  V30 6363 H 581.952 -3.23361 -5.18891 0
M  V30 6364 H 586.125 -4.12689 -5.60946 0
M  V30 6365 H 583.753 -4.76403 -5.92405 0
M  V30 6366 N 585.328 1.53329 -0.364422 0
M  V30 6367 C 586.276 2.27212 0.497737 0
M  V30 6368 C 587.27 1.30146 1.08437 0
M  V30 6369 O 588.476 1.47778 1.0277 0
M  V30 6370 H 584.851 0.730329 0.179232 0
M  V30 6371 H 586.822 2.98037 -0.147182 0
M  V30 6372 C 585.571 3.07333 1.6261 0
M  V30 6373 H 584.894 3.81866 1.184 0
M  V30 6374 H 586.334 3.62209 2.20409 0
M  V30 6375 C 584.793 2.18102 2.56775 0
M  V30 6376 O 585.323 1.79104 3.59562 0
M  V30 6377 N 583.529 1.82759 2.25937 0
M  V30 6378 H 583.076 2.14671 1.42387 0
M  V30 6379 H 583.034 1.23342 2.89196 0
M  V30 6380 N 586.806 0.0935595 1.57322 0
M  V30 6381 C 587.769 -0.851426 2.12799 0
M  V30 6382 C 588.769 -1.21187 1.0569 0
M  V30 6383 O 589.959 -1.14156 1.31583 0
M  V30 6384 C 587.091 -2.14779 2.64731 0
M  V30 6385 H 588.284 -0.369733 2.97612 0
M  V30 6386 H 585.837 -0.155417 1.55525 0
M  V30 6387 H 586.572 -2.67437 1.83434 0
M  V30 6388 H 586.357 -1.89907 3.43042 0
M  V30 6389 H 587.847 -2.82383 3.07651 0
M  V30 6390 N 588.284 -1.56567 -0.180126 0
M  V30 6391 C 589.695 -1.7126 -0.743422 0
M  V30 6392 C 590.046 -0.70263 -1.83187 0
M  V30 6393 O 589.171 0.137856 -2.1596 0
M  V30 6394 C 589.766 -3.10512 -1.35528 0
M  V30 6395 C 588.325 -3.26919 -1.8655 0
M  V30 6396 C 587.472 -2.67213 -0.741099 0
M  V30 6397 H 590.423 -1.58636 0.0451543 0
M  V30 6398 H 590.444 -3.08673 -2.22489 0
M  V30 6399 H 589.956 -3.83997 -0.562862 0
M  V30 6400 H 588.057 -2.58376 -2.68464 0
M  V30 6401 H 588.17 -4.34574 -2.01699 0
M  V30 6402 H 586.534 -2.26788 -1.15927 0
M  V30 6403 H 587.317 -3.43277 0.0393291 0
M  V30 6404 N 589.762 0.448376 -1.51087 0
M  V30 6405 C 590.692 1.55102 -1.74544 0
M  V30 6406 C 591.673 1.59357 -0.594932 0
M  V30 6407 O 592.858 1.75261 -0.836491 0
M  V30 6408 C 589.988 2.93268 -1.86041 0
M  V30 6409 C 588.942 3.03877 -3.01402 0
M  V30 6410 C 588.268 4.43914 -2.98068 0
M  V30 6411 C 589.568 2.7898 -4.41551 0
M  V30 6412 H 591.262 1.35724 -2.66869 0
M  V30 6413 H 588.808 0.651498 -1.28419 0
M  V30 6414 H 590.761 3.70356 -2.01034 0
M  V30 6415 H 589.485 3.13853 -0.903548 0
M  V30 6416 H 588.144 2.29227 -2.86096 0
M  V30 6417 H 587.792 4.6145 -2.00182 0
M  V30 6418 H 587.492 4.51944 -3.75527 0
M  V30 6419 H 589.016 5.22991 -3.1514 0
M  V30 6420 H 590.43 3.45805 -4.57265 0
M  V30 6421 H 588.827 2.98431 -5.20633 0
M  V30 6422 H 589.897 1.74663 -4.5235 0
M  V30 6423 N 591.24 1.41047 0.703093 0
M  V30 6424 C 592.651 1.35657 1.28274 0
M  V30 6425 C 593.002 0.0360309 1.96167 0
M  V30 6426 O 592.127 -0.865833 1.98324 0
M  V30 6427 C 592.722 2.45707 2.33267 0
M  V30 6428 C 591.281 2.43738 2.86825 0
M  V30 6429 C 590.428 2.25941 1.60767 0
M  V30 6430 H 593.379 1.50672 0.49836 0
M  V30 6431 H 593.4 2.14333 3.14391 0
M  V30 6432 H 592.912 3.41805 1.83824 0
M  V30 6433 H 591.013 1.51375 3.40465 0
M  V30 6434 H 591.126 3.39779 3.37768 0
M  V30 6435 H 589.49 1.73681 1.86298 0
M  V30 6436 H 590.273 3.24054 1.1333 0
M  V30 6437 N 592.718 -0.936591 1.26751 0
M  V30 6438 C 593.946 -1.71758 1.15355 0
M  V30 6439 C 594.361 -1.86549 -0.290683 0
M  V30 6440 O 593.718 -1.37616 -1.19868 0
M  V30 6441 C 593.769 -3.12193 1.82258 0
M  V30 6442 O 593.49 -2.98105 3.21038 0
M  V30 6443 C 594.991 -4.06485 1.76875 0
M  V30 6444 H 592.211 -0.537636 0.401483 0
M  V30 6445 H 594.755 -1.17382 1.67457 0
M  V30 6446 H 592.91 -3.63456 1.34083 0
M  V30 6447 H 593.324 -3.86824 3.54214 0
M  V30 6448 H 594.798 -5.02569 2.28316 0
M  V30 6449 H 595.275 -4.32986 0.736216 0
M  V30 6450 H 595.881 -3.61144 2.24623 0
M  V30 6451 N 594.196 -1.08629 -1.14182 0
M  V30 6452 C 595.473 -0.73002 -1.81466 0
M  V30 6453 C 595.853 0.785996 -1.95922 0
M  V30 6454 O 595.201 1.70535 -1.52086 0
M  V30 6455 C 595.411 -1.45957 -3.17014 0
M  V30 6456 C 596.759 -1.62008 -3.92477 0
M  V30 6457 O 597.783 -1.42141 -3.26611 0
M  V30 6458 O 596.642 -1.94806 -5.106 0
M  V30 6459 H 593.736 -0.261307 -0.784632 0
M  V30 6460 H 596.282 -1.188 -1.2118 0
M  V30 6461 H 595.054 -2.49221 -3.01669 0
M  V30 6462 H 594.677 -0.993222 -3.84995 0
M  V30 6463 N 595.674 1.31259 -0.872281 0
M  V30 6464 C 596.923 1.95893 -0.480493 0
M  V30 6465 C 597.236 1.697 0.972688 0
M  V30 6466 O 598.442 2.28214 1.47073 0
M  V30 6467 C 596.898 3.50705 -0.808342 0
M  V30 6468 C 596.506 3.85735 -2.27844 0
M  V30 6469 C 598.25 4.21719 -0.485136 0
M  V30 6470 C 596.157 5.33668 -2.54858 0
M  V30 6471 H 595.087 0.733182 -0.175955 0
M  V30 6472 H 597.738 1.49396 -1.0655 0
M  V30 6473 H 596.12 3.95706 -0.152558 0
M  V30 6474 H 597.294 3.51686 -2.97748 0
M  V30 6475 H 595.609 3.27792 -2.56791 0
M  V30 6476 H 598.206 5.30559 -0.664166 0
M  V30 6477 H 598.549 4.12316 0.574592 0
M  V30 6478 H 599.082 3.82359 -1.09756 0
M  V30 6479 H 595.821 5.48109 -3.59523 0
M  V30 6480 H 595.341 5.69061 -1.8955 0
M  V30 6481 H 597.02 6.00958 -2.39706 0
M  V30 6482 N 597.152 0.631951 1.44375 0
M  V30 6483 C 598.401 0.134214 2.01253 0
M  V30 6484 C 598.714 -1.25171 1.50305 0
M  V30 6485 O 599.92 -1.8435 1.99317 0
M  V30 6486 C 598.376 0.189187 3.59402 0
M  V30 6487 C 597.984 1.57647 4.19346 0
M  V30 6488 C 599.728 -0.252044 4.23751 0
M  V30 6489 C 597.635 1.58651 5.69722 0
M  V30 6490 H 596.565 0.0464101 0.75257 0
M  V30 6491 H 599.216 0.790868 1.65582 0
M  V30 6492 H 597.598 -0.534584 3.92375 0
M  V30 6493 H 598.772 2.32389 3.97909 0
M  V30 6494 H 597.087 1.96186 3.67288 0
M  V30 6495 H 599.684 -0.264084 5.34047 0
M  V30 6496 H 600.027 -1.27951 3.96149 0
M  V30 6497 H 600.56 0.41926 3.95584 0
M  V30 6498 H 597.299 2.59237 6.0206 0
M  V30 6499 H 596.819 0.882039 5.93279 0
M  V30 6500 H 598.498 1.32082 6.33375 0
M  V30 6501 N 598.631 -1.53133 0.372548 0
M  V30 6502 C 599.856 -2.0625 -0.218098 0
M  V30 6503 C 600.281 -1.24375 -1.41111 0
M  V30 6504 O 599.639 -0.264554 -1.79359 0
M  V30 6505 C 599.687 -3.55858 -0.582876 0
M  V30 6506 O 598.791 -3.76667 -1.67917 0
M  V30 6507 H 598.132 -0.663317 -0.030104 0
M  V30 6508 H 600.662 -1.97477 0.535169 0
M  V30 6509 H 600.672 -3.99007 -0.851925 0
M  V30 6510 H 599.347 -4.14892 0.289428 0
M  V30 6511 H 597.924 -3.45413 -1.40513 0
M  V30 6512 N 600.109 -0.101901 -1.5727 0
M  V30 6513 C 601.337 0.568392 -1.98939 0
M  V30 6514 C 601.752 1.61301 -0.981194 0
M  V30 6515 O 601.109 1.82478 0.0282869 0
M  V30 6516 C 601.16 1.20997 -3.40649 0
M  V30 6517 O 600.881 0.207129 -4.3761 0
M  V30 6518 C 602.382 1.96523 -3.97358 0
M  V30 6519 H 599.602 0.15186 -0.65359 0
M  V30 6520 H 602.146 -0.183198 -2.03678 0
M  V30 6521 H 600.301 1.91245 -3.36904 0
M  V30 6522 H 600.715 0.671071 -5.20189 0
M  V30 6523 H 602.189 2.36764 -4.98645 0
M  V30 6524 H 602.666 2.83376 -3.35552 0
M  V30 6525 H 603.272 1.31076 -4.04598 0
M  V30 6526 N 601.587 1.56661 0.17182 0
M  V30 6527 C 602.998 1.71652 0.734329 0
M  V30 6528 C 603.349 0.712335 1.82812 0
M  V30 6529 O 602.474 -0.126401 2.16031 0
M  V30 6530 C 603.069 3.11226 1.3388 0
M  V30 6531 C 601.628 3.27904 1.84813 0
M  V30 6532 C 600.775 2.67603 0.726917 0
M  V30 6533 H 603.726 1.5861 -0.0535665 0
M  V30 6534 H 603.747 3.09849 2.20849 0
M  V30 6535 H 603.259 3.8429 0.54249 0
M  V30 6536 H 601.36 2.59796 2.6709 0
M  V30 6537 H 601.473 4.35637 1.99392 0
M  V30 6538 H 599.837 2.274 1.14723 0
M  V30 6539 H 600.62 3.43252 -0.0575334 0
M  V30 6540 N 603.065 -0.440357 1.51323 0
M  V30 6541 C 604.314 -1.18697 1.63076 0
M  V30 6542 C 604.627 -1.92418 0.35136 0
M  V30 6543 O 605.833 -2.69258 0.348221 0
M  V30 6544 C 604.289 -2.15849 2.87988 0
M  V30 6545 C 603.897 -1.47789 4.22921 0
M  V30 6546 C 605.641 -2.90962 3.09098 0
M  V30 6547 C 603.548 -2.43407 5.38987 0
M  V30 6548 H 602.478 -0.44676 0.607389 0
M  V30 6549 H 605.129 -0.454313 1.77787 0
M  V30 6550 H 603.511 -2.92537 2.66905 0
M  V30 6551 H 604.685 -0.7668 4.54375 0
M  V30 6552 H 603 -0.848404 4.07665 0
M  V30 6553 H 605.597 -3.62584 3.92985 0
M  V30 6554 H 605.94 -3.52133 2.22053 0
M  V30 6555 H 606.473 -2.21381 3.30507 0
M  V30 6556 H 603.212 -1.86929 6.28282 0
M  V30 6557 H 602.732 -3.12579 5.11913 0
M  V30 6558 H 604.411 -3.046 5.70813 0
M  V30 6559 N 604.543 -1.41418 -0.695603 0
M  V30 6560 C 605.783 -1.42241 -1.46788 0
M  V30 6561 C 606.147 -0.0300827 -1.91976 0
M  V30 6562 O 607.348 0.0868914 -2.6866 0
M  V30 6563 C 605.619 -2.4011 -2.6473 0
M  V30 6564 S 607.178 -2.59462 -3.53871 0
M  V30 6565 H 603.996 -0.503893 -0.50161 0
M  V30 6566 H 606.598 -1.77855 -0.811654 0
M  V30 6567 H 605.302 -3.40073 -2.29736 0
M  V30 6568 H 604.833 -2.05849 -3.35246 0
M  V30 6569 H 606.848 -1.862 -4.59939 0
M  V30 6570 N 606.021 0.929856 -1.27246 0
M  V30 6571 C 607.269 1.674 -1.13233 0
M  V30 6572 C 607.59 1.92311 0.322744 0
M  V30 6573 O 606.86 1.52784 1.22612 0
M  V30 6574 H 605.44 0.620411 -0.416052 0
M  V30 6575 H 608.102 1.11663 -1.59741 0
M  V30 6576 H 607.198 2.64308 -1.65975 0
M  V30 6577 N 607.499 1.09233 1.13605 0
M  V30 6578 C 608.447 0.724572 2.21027 0
M  V30 6579 C 609.441 -0.273595 1.67176 0
M  V30 6580 O 610.647 -0.135266 1.79491 0
M  V30 6581 H 607.022 0.216319 0.720215 0
M  V30 6582 H 608.993 1.63975 2.49309 0
M  V30 6583 C 607.742 0.159126 3.47336 0
M  V30 6584 H 607.065 0.918387 3.89109 0
M  V30 6585 H 608.505 -0.0602851 4.23957 0
M  V30 6586 C 606.964 -1.10514 3.18258 0
M  V30 6587 O 607.494 -2.18869 3.36837 0
M  V30 6588 N 605.7 -1.01886 2.72154 0
M  V30 6589 H 605.247 -0.137027 2.57235 0
M  V30 6590 H 605.205 -1.8655 2.53074 0
M  V30 6591 N 608.977 -1.30795 0.87923 0
M  V30 6592 C 609.909 -2.27241 0.299025 0
M  V30 6593 C 610.922 -1.53472 -0.543166 0
M  V30 6594 O 612.111 -1.74756 -0.363651 0
M  V30 6595 C 609.211 -3.33655 -0.593931 0
M  V30 6596 C 608.384 -4.36857 0.2179 0
M  V30 6597 C 607.443 -5.22715 -0.604646 0
M  V30 6598 O 606.469 -5.69192 -0.0293838 0
M  V30 6599 N 607.671 -5.48008 -1.91488 0
M  V30 6600 H 610.436 -2.77667 1.12788 0
M  V30 6601 H 607.997 -1.43914 0.741637 0
M  V30 6602 H 609.989 -3.88013 -1.15012 0
M  V30 6603 H 608.559 -2.83202 -1.32346 0
M  V30 6604 H 607.779 -3.82444 0.955536 0
M  V30 6605 H 609.067 -5.02869 0.774614 0
M  V30 6606 H 608.465 -5.1202 -2.40525 0
M  V30 6607 H 607.022 -6.05264 -2.41864 0
M  V30 6608 N 610.455 -0.639598 -1.44038 0
M  V30 6609 C 611.385 0.0469443 -2.33453 0
M  V30 6610 C 612.366 0.82609 -1.48694 0
M  V30 6611 O 613.551 0.790285 -1.77393 0
M  V30 6612 C 610.681 1.02338 -3.3188 0
M  V30 6613 C 609.635 0.355284 -4.26523 0
M  V30 6614 C 608.961 1.44221 -5.14883 0
M  V30 6615 C 610.261 -0.743798 -5.16977 0
M  V30 6616 H 611.955 -0.699735 -2.91108 0
M  V30 6617 H 609.501 -0.337946 -1.39978 0
M  V30 6618 H 611.454 1.51247 -3.93322 0
M  V30 6619 H 610.178 1.80105 -2.72451 0
M  V30 6620 H 608.837 -0.113239 -3.66425 0
M  V30 6621 H 608.485 2.21097 -4.51802 0
M  V30 6622 H 608.185 1.00052 -5.79019 0
M  V30 6623 H 609.709 1.93295 -5.79197 0
M  V30 6624 H 611.123 -0.337444 -5.72306 0
M  V30 6625 H 609.52 -1.10914 -5.89761 0
M  V30 6626 H 610.59 -1.60745 -4.57481 0
M  V30 6627 N 611.933 1.52934 -0.380664 0
M  V30 6628 C 613.179 2.01765 0.20458 0
M  V30 6629 C 613.512 1.26696 1.47179 0
M  V30 6630 O 612.787 0.364936 1.91046 0
M  V30 6631 C 613.07 3.56869 0.481269 0
M  V30 6632 C 612.923 4.42617 -0.800629 0
M  V30 6633 C 614.242 4.2121 1.27554 0
M  V30 6634 H 611.361 0.733388 0.0728803 0
M  V30 6635 H 614.003 1.83068 -0.50853 0
M  V30 6636 H 612.153 3.72932 1.08875 0
M  V30 6637 H 613.825 4.38323 -1.43773 0
M  V30 6638 H 612.068 4.09977 -1.4178 0
M  V30 6639 H 612.739 5.49134 -0.561791 0
M  V30 6640 H 615.215 4.09072 0.761514 0
M  V30 6641 H 614.091 5.29732 1.43788 0
M  V30 6642 H 614.352 3.78269 2.28833 0
M  V30 6643 N 613.412 0.11024 1.57214 0
M  V30 6644 C 614.322 -0.857077 2.18383 0
M  V30 6645 C 615.338 -1.29915 1.1575 0
M  V30 6646 O 616.514 -1.36394 1.48184 0
M  V30 6647 C 613.579 -2.09264 2.76423 0
M  V30 6648 C 612.64 -1.70333 3.94063 0
M  V30 6649 C 611.873 -2.87999 4.49324 0
M  V30 6650 O 612.096 -4.0317 4.03497 0
M  V30 6651 O 611.03 -2.6559 5.40135 0
M  V30 6652 H 614.856 -0.366561 3.0148 0
M  V30 6653 H 612.441 -0.114914 1.48957 0
M  V30 6654 H 614.323 -2.81644 3.13456 0
M  V30 6655 H 612.998 -2.57339 1.96363 0
M  V30 6656 H 611.905 -0.950864 3.61814 0
M  V30 6657 H 613.238 -1.27007 4.75531 0
M  V30 6658 N 614.89 -1.56749 -0.16351 0
M  V30 6659 C 615.823 -1.9213 -1.23132 0
M  V30 6660 C 616.801 -0.785047 -1.42393 0
M  V30 6661 O 617.985 -1.0391 -1.57273 0
M  V30 6662 C 615.112 -2.17901 -2.59301 0
M  V30 6663 C 614.158 -3.40576 -2.5673 0
M  V30 6664 S 614.991 -4.94689 -2.05045 0
M  V30 6665 C 616.147 -5.23564 -3.42975 0
M  V30 6666 H 616.38 -2.824 -0.929383 0
M  V30 6667 H 613.913 -1.4994 -0.368418 0
M  V30 6668 H 615.871 -2.33429 -3.3767 0
M  V30 6669 H 614.532 -1.28324 -2.86691 0
M  V30 6670 H 613.725 -3.55833 -3.5693 0
M  V30 6671 H 613.327 -3.24204 -1.86462 0
M  V30 6672 H 615.619 -5.16019 -4.3901 0
M  V30 6673 H 616.562 -6.25134 -3.32586 0
M  V30 6674 H 616.97 -4.51113 -3.39348 0
M  V30 6675 N 616.368 0.432326 -1.51554 0
M  V30 6676 C 617.616 1.17901 -1.64146 0
M  V30 6677 C 617.937 1.91604 -0.362367 0
M  V30 6678 O 617.207 1.85764 0.621968 0
M  V30 6679 H 615.787 0.438206 -0.604966 0
M  V30 6680 H 618.449 0.495172 -1.88505 0
M  V30 6681 H 617.545 1.90584 -2.47152 0
M  V30 6682 N 617.846 1.41785 0.688094 0
M  V30 6683 C 618.756 1.46596 1.83158 0
M  V30 6684 C 619.772 0.355862 1.70322 0
M  V30 6685 O 620.948 0.604737 1.92106 0
M  V30 6686 C 618.013 1.35322 3.192 0
M  V30 6687 C 617.074 2.56711 3.4409 0
M  V30 6688 C 616.307 2.45965 4.73642 0
M  V30 6689 O 616.53 1.48827 5.50642 0
M  V30 6690 O 615.464 3.35859 4.99482 0
M  V30 6691 H 619.29 2.43083 1.82056 0
M  V30 6692 H 616.875 1.23404 0.842126 0
M  V30 6693 H 618.757 1.31347 4.00407 0
M  V30 6694 H 617.432 0.419536 3.2097 0
M  V30 6695 H 616.339 2.66262 2.62784 0
M  V30 6696 H 617.672 3.48933 3.47141 0
M  V30 6697 N 619.324 -0.923095 1.27737 0
M  V30 6698 C 620.601 -1.64989 1.05062 0
M  V30 6699 C 620.981 -2.07018 -0.413124 0
M  V30 6700 O 620.329 -1.80797 -1.39731 0
M  V30 6701 C 620.539 -2.84847 2.01652 0
M  V30 6702 C 621.887 -3.56083 2.31279 0
M  V30 6703 O 622.911 -2.94981 1.99662 0
M  V30 6704 O 621.77 -4.66182 2.85196 0
M  V30 6705 H 618.864 -0.723357 0.400853 0
M  V30 6706 H 621.41 -0.973224 1.3902 0
M  V30 6707 H 620.182 -2.50814 3.00347 0
M  V30 6708 H 619.805 -3.60231 1.68284 0
M  V30 6709 N 620.802 -1.09834 -1.13024 0
M  V30 6710 C 622.042 -0.846664 -1.8604 0
M  V30 6711 C 622.406 0.616557 -1.81831 0
M  V30 6712 O 623.607 0.984329 -2.50129 0
M  V30 6713 C 621.878 -1.37228 -3.30005 0
M  V30 6714 S 623.437 -1.25511 -4.20467 0
M  V30 6715 H 620.255 -0.30611 -0.64173 0
M  V30 6716 H 622.857 -1.40255 -1.36194 0
M  V30 6717 H 621.561 -2.43138 -3.30624 0
M  V30 6718 H 621.092 -0.81271 -3.84914 0
M  V30 6719 H 623.107 -0.208762 -4.95761 0
M  V30 6720 N 622.28 1.30327 -0.886154 0
M  V30 6721 C 623.557 1.90922 -0.425217 0
M  V30 6722 C 623.937 1.80533 1.09413 0
M  V30 6723 O 623.285 1.2233 1.92996 0
M  V30 6724 C 623.495 3.36529 -0.924638 0
M  V30 6725 C 624.843 4.13598 -0.960305 0
M  V30 6726 O 625.867 3.45377 -0.871382 0
M  V30 6727 O 624.726 5.35482 -1.09184 0
M  V30 6728 H 621.82 0.81668 -0.130238 0
M  V30 6729 H 624.366 1.38886 -0.975132 0
M  V30 6730 H 623.138 3.38181 -1.96849 0
M  V30 6731 H 622.761 3.96021 -0.353955 0
M  V30 6732 N 623.758 0.647228 1.43697 0
M  V30 6733 C 624.998 0.16171 2.03759 0
M  V30 6734 C 625.362 -1.19951 1.49919 0
M  V30 6735 O 626.563 -1.77808 2.01588 0
M  V30 6736 C 624.834 0.16505 3.57019 0
M  V30 6737 S 626.393 -0.253497 4.38067 0
M  V30 6738 H 623.211 0.0689985 0.707644 0
M  V30 6739 H 625.813 0.854224 1.7585 0
M  V30 6740 H 624.517 1.15858 3.93707 0
M  V30 6741 H 624.048 -0.548194 3.89562 0
M  V30 6742 H 626.063 -1.49385 4.73179 0
M  V30 6743 N 625.236 -1.5273 0.388769 0
M  V30 6744 C 626.484 -2.01174 -0.193208 0
M  V30 6745 C 626.805 -1.27705 -1.47365 0
M  V30 6746 O 626.075 -0.396966 -1.91836 0
M  V30 6747 H 624.655 -0.743287 -0.0743871 0
M  V30 6748 H 627.317 -1.87826 0.520336 0
M  V30 6749 H 626.413 -3.09477 -0.403803 0
M  V30 6750 N 626.714 -0.118576 -1.57153 0
M  V30 6751 C 627.942 0.54726 -1.99531 0
M  V30 6752 C 628.357 1.60251 -0.998246 0
M  V30 6753 O 627.714 1.82498 0.00893106 0
M  V30 6754 C 627.765 1.17378 -3.41913 0
M  V30 6755 O 627.486 0.160703 -4.37805 0
M  V30 6756 C 628.987 1.92297 -3.9942 0
M  V30 6757 H 626.207 0.144919 -0.655164 0
M  V30 6758 H 628.751 -0.20479 -2.03472 0
M  V30 6759 H 626.906 1.87661 -3.38913 0
M  V30 6760 H 627.32 0.61586 -5.20872 0
M  V30 6761 H 628.794 2.31462 -5.01128 0
M  V30 6762 H 629.271 2.79801 -3.38538 0
M  V30 6763 H 629.877 1.26777 -4.05965 0
M  V30 6764 N 628.193 1.56834 0.155195 0
M  V30 6765 C 629.418 1.87412 0.888337 0
M  V30 6766 C 629.843 0.70671 1.74319 0
M  V30 6767 O 629.201 -0.343892 1.78009 0
M  V30 6768 C 629.249 3.1652 1.72765 0
M  V30 6769 O 628.353 2.99877 2.83103 0
M  V30 6770 H 627.694 0.615983 0.247914 0
M  V30 6771 H 630.224 2.04061 0.148478 0
M  V30 6772 H 630.234 3.48334 2.12433 0
M  V30 6773 H 628.909 4.01094 1.09985 0
M  V30 6774 H 627.486 2.79453 2.46902 0
M  V30 6775 N 629.671 -0.424282 1.51781 0
M  V30 6776 C 630.581 -1.54087 1.76902 0
M  V30 6777 C 631.597 -1.61249 0.653826 0
M  V30 6778 O 632.773 -1.78247 0.937552 0
M  V30 6779 C 629.838 -2.8996 1.90063 0
M  V30 6780 C 628.899 -2.92809 3.13945 0
M  V30 6781 C 628.132 -4.22201 3.26469 0
M  V30 6782 O 628.355 -5.15286 2.44616 0
M  V30 6783 O 627.289 -4.31599 4.1953 0
M  V30 6784 H 631.115 -1.358 2.71647 0
M  V30 6785 H 628.7 -0.608618 1.36441 0
M  V30 6786 H 630.582 -3.70575 2.0063 0
M  V30 6787 H 629.257 -3.08347 0.985067 0
M  V30 6788 H 628.164 -2.11102 3.08847 0
M  V30 6789 H 629.497 -2.79369 4.05233 0
M  V30 6790 N 631.149 -1.42148 -0.680565 0
M  V30 6791 C 632.059 -1.47565 -1.82378 0
M  V30 6792 C 633.075 -0.36489 -1.70131 0
M  V30 6793 O 634.251 -0.614916 -1.91783 0
M  V30 6794 C 631.316 -1.37013 -3.18478 0
M  V30 6795 C 630.377 -2.58532 -3.42724 0
M  V30 6796 C 629.61 -2.48473 -4.72331 0
M  V30 6797 O 629.833 -1.51745 -5.49845 0
M  V30 6798 O 628.767 -3.38503 -4.97694 0
M  V30 6799 H 632.593 -2.44045 -1.80764 0
M  V30 6800 H 630.178 -1.23849 -0.835569 0
M  V30 6801 H 632.06 -1.33468 -3.99705 0
M  V30 6802 H 630.735 -0.436552 -3.20743 0
M  V30 6803 H 629.642 -2.67652 -2.61368 0
M  V30 6804 H 630.975 -3.50769 -3.45286 0
M  V30 6805 N 632.627 0.916307 -1.28225 0
M  V30 6806 C 633.867 1.67964 -1.16479 0
M  V30 6807 C 634.231 1.8991 0.282494 0
M  V30 6808 O 635.432 2.63671 0.522607 0
M  V30 6809 C 633.703 3.00251 -1.93866 0
M  V30 6810 S 635.262 3.91353 -1.98465 0
M  V30 6811 H 632.08 0.576873 -0.415619 0
M  V30 6812 H 634.682 1.09006 -1.62289 0
M  V30 6813 H 633.386 2.81978 -2.98189 0
M  V30 6814 H 632.917 3.64257 -1.48595 0
M  V30 6815 H 634.932 4.84096 -1.0893 0
M  V30 6816 N 634.105 1.10431 1.1244 0
M  V30 6817 C 635.333 0.868872 1.87772 0
M  V30 6818 C 635.748 -0.580645 1.7965 0
M  V30 6819 O 635.105 -1.40031 1.17036 0
M  V30 6820 C 635.156 1.30855 3.36986 0
M  V30 6821 O 634.877 2.70123 3.44914 0
M  V30 6822 C 636.378 1.107 4.29256 0
M  V30 6823 H 633.598 0.311868 0.59412 0
M  V30 6824 H 636.142 1.46897 1.42273 0
M  V30 6825 H 634.297 0.752126 3.80029 0
M  V30 6826 H 634.711 2.88923 4.37748 0
M  V30 6827 H 636.185 1.46378 5.32238 0
M  V30 6828 H 636.662 0.0456228 4.39176 0
M  V30 6829 H 637.268 1.64988 3.91994 0
M  V30 6830 N 635.583 -1.29855 0.893053 0
M  V30 6831 C 636.531 -2.29867 0.355512 0
M  V30 6832 C 637.525 -1.60502 -0.541801 0
M  V30 6833 O 638.731 -1.74902 -0.425339 0
M  V30 6834 H 635.106 -0.745805 0.0963247 0
M  V30 6835 H 637.077 -2.72655 1.21252 0
M  V30 6836 C 635.826 -3.453 -0.407801 0
M  V30 6837 H 635.149 -3.98864 0.273426 0
M  V30 6838 H 636.589 -4.17334 -0.748887 0
M  V30 6839 C 635.048 -2.96051 -1.60795 0
M  V30 6840 O 635.578 -2.96763 -2.7073 0
M  V30 6841 N 633.784 -2.51963 -1.44786 0
M  V30 6842 H 633.331 -2.51583 -0.553498 0
M  V30 6843 H 633.289 -2.1937 -2.2522 0
M  V30 6844 N 637.061 -0.65484 -1.43351 0
M  V30 6845 C 638.31 -0.166215 -2.01014 0
M  V30 6846 C 638.623 1.22764 -1.52278 0
M  V30 6847 O 639.829 1.81156 -2.02224 0
M  V30 6848 C 638.285 -0.246341 -3.59056 0
M  V30 6849 C 637.893 -1.64299 -4.16785 0
M  V30 6850 C 639.637 0.184597 -4.24098 0
M  V30 6851 C 637.544 -1.67695 -5.67126 0
M  V30 6852 H 636.474 -0.0583769 -0.751737 0
M  V30 6853 H 639.125 -0.817111 -1.64303 0
M  V30 6854 H 637.507 0.472092 -3.93176 0
M  V30 6855 H 638.681 -2.3869 -3.94162 0
M  V30 6856 H 636.996 -2.02004 -3.6412 0
M  V30 6857 H 639.593 0.179088 -5.344 0
M  V30 6858 H 639.936 1.21632 -3.98135 0
M  V30 6859 H 640.469 -0.482141 -3.94867 0
M  V30 6860 H 637.208 -2.68783 -5.9786 0
M  V30 6861 H 636.728 -0.976313 -5.91801 0
M  V30 6862 H 638.407 -1.42142 -6.31193 0
M  V30 6863 N 638.539 1.52521 -0.396863 0
M  V30 6864 C 639.779 2.03583 0.182578 0
M  V30 6865 C 640.143 1.2766 1.43412 0
M  V30 6866 O 641.344 1.68884 2.09121 0
M  V30 6867 C 639.615 3.54724 0.436519 0
M  V30 6868 S 641.174 4.27598 0.985163 0
M  V30 6869 H 637.992 0.709186 0.0507529 0
M  V30 6870 H 640.594 1.87693 -0.546955 0
M  V30 6871 H 639.298 4.07567 -0.481343 0
M  V30 6872 H 638.829 3.74834 1.19427 0
M  V30 6873 H 640.844 4.41393 2.26686 0
M  V30 6874 N 640.017 0.126909 1.57088 0
M  V30 6875 C 641.257 -0.53216 1.97351 0
M  V30 6876 C 641.621 -1.63342 1.00913 0
M  V30 6877 O 642.822 -2.35194 1.30144 0
M  V30 6878 C 641.093 -1.04385 3.41817 0
M  V30 6879 S 642.652 -1.71033 4.04095 0
M  V30 6880 H 639.47 -0.172724 0.689701 0
M  V30 6881 H 642.072 0.213865 1.94327 0
M  V30 6882 H 640.776 -0.231289 4.09748 0
M  V30 6883 H 640.307 -1.82496 3.48509 0
M  V30 6884 H 642.322 -2.99656 3.95501 0
M  V30 6885 N 641.495 -1.56914 -0.146875 0
M  V30 6886 C 642.772 -1.74273 -0.888165 0
M  V30 6887 C 643.152 -0.69496 -1.99333 0
M  V30 6888 O 642.5 0.286093 -2.26702 0
M  V30 6889 C 642.71 -3.18336 -1.43051 0
M  V30 6890 C 644.058 -3.80024 -1.89387 0
M  V30 6891 O 645.082 -3.21765 -1.52792 0
M  V30 6892 O 643.941 -4.82367 -2.56874 0
M  V30 6893 H 641.035 -0.712565 -0.419738 0
M  V30 6894 H 643.581 -1.6918 -0.132791 0
M  V30 6895 H 642.353 -3.86092 -0.636274 0
M  V30 6896 H 641.976 -3.27854 -2.24938 0
M  V30 6897 N 642.974 0.416227 -1.52004 0
M  V30 6898 C 643.937 1.48926 -1.74223 0
M  V30 6899 C 644.937 1.48693 -0.612119 0
M  V30 6900 O 646.127 1.50343 -0.879921 0
M  V30 6901 C 643.259 2.88372 -1.81809 0
M  V30 6902 H 644.452 1.3052 -2.70008 0
M  V30 6903 H 642.005 0.646271 -1.42313 0
M  V30 6904 H 642.74 3.12157 -0.879135 0
M  V30 6905 H 642.525 2.89944 -2.6396 0
M  V30 6906 H 644.015 3.66173 -2.00766 0
M  V30 6907 N 644.452 1.42507 0.673017 0
M  V30 6908 C 645.399 1.46124 1.78651 0
M  V30 6909 C 646.369 0.313007 1.63124 0
M  V30 6910 O 647.554 0.517337 1.83653 0
M  V30 6911 C 644.694 1.3711 3.16694 0
M  V30 6912 C 643.807 2.61983 3.43495 0
M  V30 6913 C 642.942 2.45098 4.71275 0
M  V30 6914 C 641.981 3.65336 4.91117 0
M  V30 6915 N 641.118 3.47383 6.10139 0
M  V30 6916 H 645.958 2.4128 1.74895 0
M  V30 6917 H 643.495 1.19788 0.853766 0
M  V30 6918 H 645.453 1.29881 3.96468 0
M  V30 6919 H 644.083 0.45549 3.1957 0
M  V30 6920 H 643.135 2.79571 2.57961 0
M  V30 6921 H 644.447 3.51355 3.5405 0
M  V30 6922 H 643.601 2.35466 5.59143 0
M  V30 6923 H 642.34 1.53219 4.63007 0
M  V30 6924 H 641.345 3.754 4.0169 0
M  V30 6925 H 642.57 4.58199 5.01229 0
M  V30 6926 H 640.516 2.58222 6.0304 0
M  V30 6927 H 640.433 4.30344 6.21563 0
M  V30 6928 H 641.701 3.41565 7.00681 0
M  V30 6929 N 645.93 -0.909495 1.28709 0
M  V30 6930 C 647.158 -1.69272 1.18973 0
M  V30 6931 C 647.573 -1.87123 -0.251048 0
M  V30 6932 O 646.93 -1.40127 -1.16922 0
M  V30 6933 C 646.981 -3.08257 1.88839 0
M  V30 6934 O 646.702 -2.91228 3.27289 0
M  V30 6935 C 648.203 -4.02642 1.85457 0
M  V30 6936 H 645.423 -0.528999 0.412797 0
M  V30 6937 H 647.967 -1.13803 1.69909 0
M  V30 6938 H 646.122 -3.6053 1.41762 0
M  V30 6939 H 646.536 -3.79223 3.6234 0
M  V30 6940 H 648.01 -4.97613 2.38925 0
M  V30 6941 H 648.487 -4.31327 0.827893 0
M  V30 6942 H 649.093 -3.56298 2.32233 0
M  V30 6943 N 647.408 -1.11026 -1.11852 0
M  V30 6944 C 648.648 -0.866348 -1.85132 0
M  V30 6945 C 649.012 0.597236 -1.82475 0
M  V30 6946 O 650.213 0.957744 -2.51159 0
M  V30 6947 C 648.484 -1.40721 -3.28531 0
M  V30 6948 S 650.043 -1.29964 -4.19112 0
M  V30 6949 H 646.861 -0.312899 -0.638447 0
M  V30 6950 H 649.463 -1.41691 -1.34699 0
M  V30 6951 H 648.167 -2.46631 -3.28027 0
M  V30 6952 H 647.698 -0.85349 -3.8403 0
M  V30 6953 H 649.713 -0.261333 -4.95511 0
M  V30 6954 N 648.886 1.2938 -0.899927 0
M  V30 6955 C 649.833 2.27713 -0.376243 0
M  V30 6956 C 650.803 1.57016 0.541774 0
M  V30 6957 O 651.988 1.84997 0.466966 0
M  V30 6958 C 649.128 3.42889 0.39 0
M  V30 6959 C 648.241 4.28369 -0.558938 0
M  V30 6960 C 647.376 5.30726 0.224379 0
M  V30 6961 C 646.415 6.07862 -0.719068 0
M  V30 6962 N 645.552 7.02094 0.0298569 0
M  V30 6963 H 650.392 2.71888 -1.21988 0
M  V30 6964 H 647.929 1.33724 -0.612879 0
M  V30 6965 H 649.887 4.08443 0.850314 0
M  V30 6966 H 648.517 2.99743 1.19809 0
M  V30 6967 H 647.569 3.62986 -1.13777 0
M  V30 6968 H 648.881 4.82068 -1.2811 0
M  V30 6969 H 648.035 6.02098 0.745881 0
M  V30 6970 H 646.774 4.77759 0.979674 0
M  V30 6971 H 645.779 5.35353 -1.25207 0
M  V30 6972 H 647.004 6.62917 -1.4737 0
M  V30 6973 H 644.95 6.51496 0.767415 0
M  V30 6974 H 644.867 7.5335 -0.632391 0
M  V30 6975 H 646.135 7.77685 0.531615 0
M  V30 6976 N 650.364 0.662433 1.43002 0
M  V30 6977 C 651.613 0.176873 2.00923 0
M  V30 6978 C 651.926 -1.21954 1.52927 0
M  V30 6979 O 653.132 -1.80081 2.03182 0
M  V30 6980 C 651.588 0.265379 3.5892 0
M  V30 6981 C 651.196 1.66507 4.15908 0
M  V30 6982 C 652.94 -0.162103 4.2419 0
M  V30 6983 C 650.847 1.707 5.66229 0
M  V30 6984 H 649.777 0.0623627 0.751417 0
M  V30 6985 H 652.428 0.825813 1.63868 0
M  V30 6986 H 650.81 -0.451235 3.93421 0
M  V30 6987 H 651.984 2.40777 3.92891 0
M  V30 6988 H 650.299 2.03932 3.63044 0
M  V30 6989 H 652.896 -0.150745 5.34487 0
M  V30 6990 H 653.239 -1.19519 3.98774 0
M  V30 6991 H 653.772 0.503075 3.94606 0
M  V30 6992 H 650.511 2.7195 5.96426 0
M  V30 6993 H 650.031 1.00768 5.91275 0
M  V30 6994 H 651.71 1.45487 6.3043 0
M  V30 6995 N 651.842 -1.52309 0.404946 0
M  V30 6996 C 652.789 -2.26898 -0.422597 0
M  V30 6997 C 653.759 -1.2914 -1.04461 0
M  V30 6998 O 654.944 -1.57996 -1.06967 0
M  V30 6999 C 652.084 -3.09053 -1.53559 0
M  V30 7000 C 651.197 -4.21762 -0.934908 0
M  V30 7001 C 650.332 -4.91283 -2.02025 0
M  V30 7002 C 649.371 -5.95962 -1.39628 0
M  V30 7003 N 648.508 -6.59017 -2.42159 0
M  V30 7004 H 653.348 -2.97188 0.219903 0
M  V30 7005 H 650.885 -1.46607 0.120282 0
M  V30 7006 H 652.843 -3.54987 -2.19181 0
M  V30 7007 H 651.473 -2.40942 -2.14818 0
M  V30 7008 H 650.525 -3.80029 -0.167854 0
M  V30 7009 H 651.837 -4.96864 -0.439073 0
M  V30 7010 H 650.991 -5.40601 -2.75383 0
M  V30 7011 H 649.73 -4.15741 -2.54973 0
M  V30 7012 H 648.735 -5.45968 -0.648023 0
M  V30 7013 H 649.96 -6.73445 -0.874553 0
M  V30 7014 H 647.906 -5.86306 -2.94247 0
M  V30 7015 H 647.823 -7.2978 -1.97376 0
M  V30 7016 H 649.091 -7.12974 -3.15099 0
M  V30 7017 N 653.32 -0.135238 -1.57019 0
M  V30 7018 C 654.283 0.794707 -2.14981 0
M  V30 7019 C 655.283 1.18342 -1.08866 0
M  V30 7020 O 656.473 1.10627 -1.34563 0
M  V30 7021 C 653.605 2.07685 -2.70333 0
M  V30 7022 H 654.798 0.290696 -2.98488 0
M  V30 7023 H 652.351 0.114128 -1.55883 0
M  V30 7024 H 653.086 2.6248 -1.9046 0
M  V30 7025 H 652.871 1.80745 -3.47957 0
M  V30 7026 H 654.361 2.74127 -3.1503 0
M  V30 7027 N 654.798 1.5699 0.138552 0
M  V30 7028 C 656.026 1.87976 0.864437 0
M  V30 7029 C 656.441 0.724372 1.74351 0
M  V30 7030 O 655.798 -0.305575 1.79924 0
M  V30 7031 C 655.849 3.18276 1.71414 0
M  V30 7032 O 655.57 4.29365 0.870487 0
M  V30 7033 C 657.071 3.62834 2.54688 0
M  V30 7034 H 654.291 0.622878 0.249528 0
M  V30 7035 H 656.835 2.04094 0.128805 0
M  V30 7036 H 654.99 3.03886 2.40274 0
M  V30 7037 H 655.404 5.03924 1.45466 0
M  V30 7038 H 656.878 4.5682 3.0987 0
M  V30 7039 H 657.355 2.88533 3.31127 0
M  V30 7040 H 657.961 3.79946 1.91105 0
M  V30 7041 N 656.276 -0.40816 1.52223 0
M  V30 7042 C 657.523 -1.15502 1.66329 0
M  V30 7043 C 657.851 -1.90474 0.393701 0
M  V30 7044 O 657.106 -1.85507 -0.623356 0
M  V30 7045 C 657.405 -2.17422 2.83659 0
M  V30 7046 C 657.071 -1.5925 4.21841 0
M  V30 7047 C 655.733 -1.4311 4.59427 0
M  V30 7048 C 658.085 -1.16776 5.0795 0
M  V30 7049 C 655.413 -0.830148 5.80797 0
M  V30 7050 C 657.765 -0.580988 6.29926 0
M  V30 7051 C 656.429 -0.406729 6.6626 0
M  V30 7052 H 655.699 -0.422653 0.608642 0
M  V30 7053 H 658.346 -0.442114 1.86327 0
M  V30 7054 H 656.651 -2.94861 2.58001 0
M  V30 7055 H 658.348 -2.75084 2.9177 0
M  V30 7056 H 654.938 -1.72796 3.92224 0
M  V30 7057 H 659.122 -1.28055 4.79495 0
M  V30 7058 H 654.378 -0.68316 6.07571 0
M  V30 7059 H 658.552 -0.243488 6.95974 0
M  V30 7060 H 656.179 0.0610366 7.60175 0
M  V30 7061 N 657.755 -1.42862 -0.66545 0
M  V30 7062 C 658.687 -1.43026 -1.79098 0
M  V30 7063 C 659.7 -0.32803 -1.59461 0
M  V30 7064 O 660.889 -0.591709 -1.68407 0
M  V30 7065 C 657.989 -1.21566 -3.16346 0
M  V30 7066 C 657.162 -2.44399 -3.62751 0
M  V30 7067 C 656.221 -2.18344 -4.78761 0
M  V30 7068 O 655.247 -2.91611 -4.88827 0
M  V30 7069 N 656.449 -1.1924 -5.68122 0
M  V30 7070 H 659.214 -2.40045 -1.79439 0
M  V30 7071 H 656.775 -1.37861 -0.848872 0
M  V30 7072 H 658.767 -1.02037 -3.91625 0
M  V30 7073 H 657.337 -0.330368 -3.10849 0
M  V30 7074 H 656.557 -2.79433 -2.78048 0
M  V30 7075 H 657.845 -3.26173 -3.90498 0
M  V30 7076 H 657.243 -0.586603 -5.6265 0
M  V30 7077 H 655.8 -1.05698 -6.43173 0
M  V30 7078 N 659.233 0.902656 -1.29189 0
M  V30 7079 C 660.473 1.6672 -1.18254 0
M  V30 7080 C 660.837 1.90199 0.262336 0
M  V30 7081 O 662.038 2.6421 0.494612 0
M  V30 7082 C 660.309 2.98178 -1.9704 0
M  V30 7083 S 661.868 3.89226 -2.02605 0
M  V30 7084 H 658.686 0.572432 -0.421714 0
M  V30 7085 H 661.288 1.07279 -1.63436 0
M  V30 7086 H 659.992 2.788 -3.01163 0
M  V30 7087 H 659.523 3.62661 -1.5245 0
M  V30 7088 H 661.538 4.82913 -1.14059 0
M  V30 7089 N 660.711 1.11618 1.11262 0
M  V30 7090 C 661.674 0.779447 2.15539 0
M  V30 7091 C 662.674 -0.202081 1.59525 0
M  V30 7092 O 663.864 0.0226356 1.74185 0
M  V30 7093 C 660.996 0.15674 3.40539 0
M  V30 7094 H 662.189 1.70324 2.4684 0
M  V30 7095 H 659.742 0.918298 1.26479 0
M  V30 7096 H 660.477 -0.777186 3.1485 0
M  V30 7097 H 660.262 0.863308 3.82478 0
M  V30 7098 H 661.752 -0.062661 4.17553 0
M  V30 7099 N 662.189 -1.289 0.906776 0
M  V30 7100 C 663.119 -2.29932 0.406659 0
M  V30 7101 C 664.1 -1.6189 -0.522061 0
M  V30 7102 O 665.285 -1.8935 -0.431283 0
M  V30 7103 C 662.415 -3.45425 -0.360366 0
M  V30 7104 C 661.369 -4.25316 0.478574 0
M  V30 7105 C 660.695 -5.33076 -0.416373 0
M  V30 7106 C 661.995 -4.92739 1.7322 0
M  V30 7107 H 663.689 -2.72013 1.25097 0
M  V30 7108 H 661.235 -1.30768 0.602977 0
M  V30 7109 H 663.188 -4.15186 -0.721029 0
M  V30 7110 H 661.912 -3.02206 -1.23852 0
M  V30 7111 H 660.571 -3.57273 0.821662 0
M  V30 7112 H 660.219 -4.86101 -1.29287 0
M  V30 7113 H 659.919 -5.8743 0.141309 0
M  V30 7114 H 661.443 -6.05686 -0.773072 0
M  V30 7115 H 662.857 -5.54898 1.44086 0
M  V30 7116 H 661.254 -5.57057 2.23175 0
M  V30 7117 H 662.324 -4.17625 2.46408 0
M  V30 7118 N 663.667 -0.670007 -1.42649 0
M  V30 7119 C 664.915 -0.18991 -2.01206 0
M  V30 7120 C 665.236 1.20617 -1.53221 0
M  V30 7121 O 664.506 1.80898 -0.751856 0
M  V30 7122 H 663.086 -0.0672189 -0.743969 0
M  V30 7123 H 665.748 -0.865442 -1.74631 0
M  V30 7124 H 664.844 -0.187481 -3.11536 0
M  V30 7125 N 665.145 1.52092 -0.413018 0
M  V30 7126 C 666.055 2.30858 0.417318 0
M  V30 7127 C 667.071 1.38746 1.05003 0
M  V30 7128 O 668.247 1.71821 1.05069 0
M  V30 7129 C 665.312 3.11756 1.51687 0
M  V30 7130 C 664.373 4.19613 0.906825 0
M  V30 7131 C 663.606 4.96644 1.95399 0
M  V30 7132 O 663.829 4.7402 3.17271 0
M  V30 7133 O 662.763 5.81385 1.55805 0
M  V30 7134 H 666.589 3.02865 -0.225028 0
M  V30 7135 H 664.174 1.48358 -0.176126 0
M  V30 7136 H 666.056 3.62122 2.15512 0
M  V30 7137 H 664.731 2.42539 2.14375 0
M  V30 7138 H 663.638 3.73385 0.231183 0
M  V30 7139 H 664.971 4.91134 0.323814 0
M  V30 7140 N 666.623 0.143563 1.56945 0
M  V30 7141 C 667.863 -0.511198 1.97904 0
M  V30 7142 C 668.227 -1.62262 1.0264 0
M  V30 7143 O 669.428 -2.338 1.32631 0
M  V30 7144 C 667.699 -1.00753 3.42905 0
M  V30 7145 S 669.258 -1.66737 4.05887 0
M  V30 7146 H 666.076 -0.165399 0.691494 0
M  V30 7147 H 668.678 0.234464 1.94089 0
M  V30 7148 H 667.382 -0.187817 4.0997 0
M  V30 7149 H 666.913 -1.7879 3.50425 0
M  V30 7150 H 668.928 -2.95444 3.98657 0
M  V30 7151 N 668.101 -1.57061 -0.130224 0
M  V30 7152 C 669.341 -1.86071 -0.845993 0
M  V30 7153 C 669.705 -0.73009 -1.77577 0
M  V30 7154 O 670.906 -0.901663 -2.53226 0
M  V30 7155 C 669.177 -3.20293 -1.58579 0
M  V30 7156 S 670.736 -3.70905 -2.34467 0
M  V30 7157 H 667.554 -0.652434 -0.282579 0
M  V30 7158 H 670.156 -1.95218 -0.10498 0
M  V30 7159 H 668.86 -4.00533 -0.894509 0
M  V30 7160 H 668.391 -3.14195 -2.36739 0
M  V30 7161 H 670.406 -3.41509 -3.59981 0
M  V30 7162 N 669.579 0.400081 -1.52437 0
M  V30 7163 C 670.489 1.51253 -1.79331 0
M  V30 7164 C 671.505 1.60188 -0.679396 0
M  V30 7165 O 672.681 1.76733 -0.965791 0
M  V30 7166 C 669.746 2.869 -1.94652 0
M  V30 7167 C 668.807 2.87777 -3.18564 0
M  V30 7168 C 668.04 4.16954 -3.33145 0
M  V30 7169 O 668.263 5.11329 -2.52783 0
M  V30 7170 O 667.197 4.2487 -4.26343 0
M  V30 7171 H 671.023 1.31461 -2.73773 0
M  V30 7172 H 668.608 0.586834 -1.37392 0
M  V30 7173 H 670.49 3.67336 -2.065 0
M  V30 7174 H 669.165 3.06741 -1.034 0
M  V30 7175 H 668.072 2.06162 -3.12167 0
M  V30 7176 H 669.405 2.72886 -4.09627 0
M  V30 7177 N 671.057 1.43213 0.657864 0
M  V30 7178 C 672.004 1.48011 1.77092 0
M  V30 7179 C 672.974 0.330291 1.62783 0
M  V30 7180 O 674.159 0.536787 1.83094 0
M  V30 7181 C 671.299 1.40461 3.15222 0
M  V30 7182 C 670.412 2.65612 3.40697 0
M  V30 7183 C 669.547 2.50083 4.68649 0
M  V30 7184 C 668.586 3.70525 4.87214 0
M  V30 7185 N 667.723 3.53835 6.0642 0
M  V30 7186 H 672.563 2.43121 1.72326 0
M  V30 7187 H 670.1 1.20687 0.841013 0
M  V30 7188 H 672.058 1.34079 3.95068 0
M  V30 7189 H 670.688 0.489359 3.19069 0
M  V30 7190 H 669.74 2.82292 2.54982 0
M  V30 7191 H 671.052 3.5509 3.50303 0
M  V30 7192 H 670.206 2.41383 5.56614 0
M  V30 7193 H 668.945 1.58121 4.61356 0
M  V30 7194 H 667.95 3.79639 3.97686 0
M  V30 7195 H 669.175 4.63489 4.96341 0
M  V30 7196 H 667.121 2.64604 6.00267 0
M  V30 7197 H 667.038 4.36912 6.16963 0
M  V30 7198 H 668.306 3.48978 6.97019 0
M  V30 7199 N 672.536 -0.895792 1.29666 0
M  V30 7200 C 673.776 -1.6609 1.19136 0
M  V30 7201 C 674.14 -1.90336 -0.252245 0
M  V30 7202 O 675.341 -2.64469 -0.480593 0
M  V30 7203 C 673.612 -2.97129 1.98618 0
M  V30 7204 S 675.171 -3.88146 2.04666 0
M  V30 7205 H 671.989 -0.570188 0.424744 0
M  V30 7206 H 674.591 -1.06411 1.64003 0
M  V30 7207 H 673.295 -2.77199 3.02637 0
M  V30 7208 H 672.826 -3.61847 1.54371 0
M  V30 7209 H 674.841 -4.82301 1.16618 0
M  V30 7210 N 674.014 -1.12206 -1.10668 0
M  V30 7211 C 674.946 -0.74552 -2.16736 0
M  V30 7212 C 675.959 0.226696 -1.61214 0
M  V30 7213 O 677.148 0.0083936 -1.78498 0
M  V30 7214 C 674.248 -0.0823368 -3.388 0
M  V30 7215 C 673.421 -1.08341 -4.2377 0
M  V30 7216 C 672.48 -0.448292 -5.24287 0
M  V30 7217 O 671.506 -1.10458 -5.58379 0
M  V30 7218 N 672.708 0.785336 -5.75163 0
M  V30 7219 H 675.473 -1.65818 -2.49649 0
M  V30 7220 H 673.034 -1.01335 -1.26265 0
M  V30 7221 H 675.026 0.354476 -4.03145 0
M  V30 7222 H 673.596 0.733041 -3.03884 0
M  V30 7223 H 672.816 -1.69792 -3.55759 0
M  V30 7224 H 674.104 -1.76042 -4.77375 0
M  V30 7225 H 673.502 1.33755 -5.4966 0
M  V30 7226 H 672.059 1.16501 -6.41304 0
M  V30 7227 N 675.492 1.28418 -0.913599 0
M  V30 7228 C 676.739 1.94981 -0.546674 0
M  V30 7229 C 677.067 1.7192 0.909606 0
M  V30 7230 O 676.322 1.03314 1.66207 0
M  V30 7231 C 676.621 3.48283 -0.802099 0
M  V30 7232 C 676.287 3.91444 -2.2379 0
M  V30 7233 C 674.949 4.02939 -2.63046 0
M  V30 7234 C 677.301 4.13542 -3.17227 0
M  V30 7235 C 674.629 4.3391 -3.94891 0
M  V30 7236 C 676.981 4.45992 -4.48636 0
M  V30 7237 C 675.645 4.55698 -4.87746 0
M  V30 7238 H 674.915 0.713487 -0.200042 0
M  V30 7239 H 677.562 1.52756 -1.15489 0
M  V30 7240 H 675.867 3.91643 -0.111076 0
M  V30 7241 H 677.564 3.97903 -0.497375 0
M  V30 7242 H 674.154 3.83024 -1.9233 0
M  V30 7243 H 678.338 4.04114 -2.88107 0
M  V30 7244 H 673.594 4.39631 -4.24894 0
M  V30 7245 H 677.768 4.62038 -5.21051 0
M  V30 7246 H 675.395 4.79451 -5.89942 0
M  V30 7247 N 676.97 0.677563 1.42291 0
M  V30 7248 C 677.917 0.000947061 2.308 0
M  V30 7249 C 678.887 -0.789889 1.46116 0
M  V30 7250 O 680.072 -0.761578 1.74942 0
M  V30 7251 C 677.212 -0.942387 3.31984 0
M  V30 7252 C 676.325 -0.14508 4.31756 0
M  V30 7253 C 675.46 -1.08442 5.20013 0
M  V30 7254 C 674.499 -0.278958 6.11464 0
M  V30 7255 N 673.636 -1.17115 6.92263 0
M  V30 7256 H 678.476 0.761521 2.88106 0
M  V30 7257 H 676.013 0.38727 1.41911 0
M  V30 7258 H 677.971 -1.50317 3.89179 0
M  V30 7259 H 676.601 -1.66956 2.76271 0
M  V30 7260 H 675.653 0.532368 3.76656 0
M  V30 7261 H 676.965 0.48015 4.96484 0
M  V30 7262 H 676.119 -1.71504 5.81955 0
M  V30 7263 H 674.858 -1.74353 4.55469 0
M  V30 7264 H 673.863 0.364856 5.48588 0
M  V30 7265 H 675.088 0.376099 6.78058 0
M  V30 7266 H 673.034 -1.81661 6.30345 0
M  V30 7267 H 672.951 -0.601063 7.53607 0
M  V30 7268 H 674.219 -1.78915 7.58689 0
M  V30 7269 N 678.448 -1.51871 0.421078 0
M  V30 7270 C 679.395 -2.27334 -0.398508 0
M  V30 7271 C 680.365 -1.30241 -1.03085 0
M  V30 7272 O 681.55 -1.59121 -1.05285 0
M  V30 7273 C 678.69 -3.10664 -1.50272 0
M  V30 7274 C 677.803 -4.2273 -0.890122 0
M  V30 7275 C 676.938 -4.93399 -1.96803 0
M  V30 7276 C 675.977 -5.97409 -1.333 0
M  V30 7277 N 675.114 -6.61548 -2.35156 0
M  V30 7278 H 679.954 -2.96938 0.251411 0
M  V30 7279 H 677.491 -1.46472 0.135825 0
M  V30 7280 H 679.449 -3.57292 -2.15403 0
M  V30 7281 H 678.079 -2.43207 -2.1225 0
M  V30 7282 H 677.131 -3.80186 -0.127537 0
M  V30 7283 H 678.443 -4.97302 -0.386349 0
M  V30 7284 H 677.597 -5.43491 -2.69633 0
M  V30 7285 H 676.336 -4.18421 -2.50549 0
M  V30 7286 H 675.341 -5.46624 -0.59008 0
M  V30 7287 H 676.566 -6.74335 -0.803076 0
M  V30 7288 H 674.512 -5.89394 -2.88012 0
M  V30 7289 H 674.429 -7.31832 -1.89624 0
M  V30 7290 H 675.697 -7.16276 -3.0752 0
M  V30 7291 N 679.926 -0.151884 -1.56866 0
M  V30 7292 C 680.889 0.771861 -2.15812 0
M  V30 7293 C 681.889 1.17181 -1.10115 0
M  V30 7294 O 683.079 1.09194 -1.35729 0
M  V30 7295 C 680.211 2.04806 -2.7252 0
M  V30 7296 H 681.404 0.259021 -2.98779 0
M  V30 7297 H 678.957 0.097588 -1.55995 0
M  V30 7298 H 679.692 2.60445 -1.93233 0
M  V30 7299 H 679.477 1.77044 -3.49854 0
M  V30 7300 H 680.967 2.70771 -3.1792 0
M  V30 7301 N 681.404 1.57128 0.121893 0
M  V30 7302 C 682.652 1.84335 0.828548 0
M  V30 7303 C 682.973 0.736632 1.80551 0
M  V30 7304 O 682.243 -0.23962 1.94429 0
M  V30 7305 H 680.823 0.680108 0.30897 0
M  V30 7306 H 683.485 1.9459 0.109906 0
M  V30 7307 H 682.581 2.80152 1.37554 0
M  V30 7308 N 682.882 -0.391992 1.52647 0
M  V30 7309 C 683.815 -1.50019 1.71958 0
M  V30 7310 C 684.793 -1.5238 0.567365 0
M  V30 7311 O 685.977 -1.70831 0.796806 0
M  V30 7312 C 683.104 -2.88496 1.77447 0
M  V30 7313 C 682.15 -3.03974 2.99169 0
M  V30 7314 S 682.983 -2.75487 4.59203 0
M  V30 7315 C 684.139 -4.16163 4.67503 0
M  V30 7316 H 684.372 -1.33413 2.65685 0
M  V30 7317 H 681.905 -0.584674 1.42902 0
M  V30 7318 H 683.863 -3.68296 1.81296 0
M  V30 7319 H 682.524 -3.02431 0.848188 0
M  V30 7320 H 681.717 -4.05328 2.99542 0
M  V30 7321 H 681.319 -2.32062 2.93297 0
M  V30 7322 H 683.611 -5.10048 4.45934 0
M  V30 7323 H 684.554 -4.20806 5.69498 0
M  V30 7324 H 684.962 -4.01933 3.96371 0
M  V30 7325 N 684.36 -1.4356 -0.65026 0
M  V30 7326 C 685.606 -1.45549 -1.41221 0
M  V30 7327 C 685.939 -0.0805472 -1.94033 0
M  V30 7328 O 685.214 0.899043 -1.72475 0
M  V30 7329 C 685.497 -2.50028 -2.59148 0
M  V30 7330 C 685.35 -3.96808 -2.1181 0
M  V30 7331 C 686.669 -2.51212 -3.61359 0
M  V30 7332 H 683.788 -0.529967 -0.512156 0
M  V30 7333 H 686.43 -1.75127 -0.736933 0
M  V30 7334 H 684.58 -2.24937 -3.16758 0
M  V30 7335 H 686.252 -4.32966 -1.59178 0
M  V30 7336 H 684.495 -4.09498 -1.43156 0
M  V30 7337 H 685.166 -4.6553 -2.96625 0
M  V30 7338 H 687.642 -2.73583 -3.13515 0
M  V30 7339 H 686.518 -3.26252 -4.41419 0
M  V30 7340 H 686.779 -1.54701 -4.1415 0
M  V30 7341 N 685.838 0.888903 -1.30139 0
M  V30 7342 C 687.078 1.65456 -1.20015 0
M  V30 7343 C 687.442 1.90467 0.242148 0
M  V30 7344 O 688.643 2.6472 0.466561 0
M  V30 7345 C 686.914 2.96071 -2.00191 0
M  V30 7346 S 688.473 3.87055 -2.06721 0
M  V30 7347 H 685.291 0.567927 -0.427761 0
M  V30 7348 H 687.893 1.05539 -1.64565 0
M  V30 7349 H 686.597 2.7559 -3.04103 0
M  V30 7350 H 686.128 3.61023 -1.56288 0
M  V30 7351 H 688.143 4.81676 -1.19174 0
M  V30 7352 N 687.317 1.12792 1.10072 0
M  V30 7353 C 688.733 0.864745 1.34143 0
M  V30 7354 C 688.933 -0.503201 1.95116 0
M  V30 7355 O 687.989 -1.25111 2.19325 0
M  V30 7356 C 689.302 1.98413 2.25949 0
M  V30 7357 C 690.85 2.01545 2.39476 0
M  V30 7358 C 691.325 3.12727 3.34613 0
M  V30 7359 N 692.816 3.12194 3.42183 0
M  V30 7360 C 693.551 3.94862 4.15779 0
M  V30 7361 N 693.047 4.87528 4.92228 0
M  V30 7362 N 694.84 3.82985 4.11435 0
M  V30 7363 H 686.991 2.00926 0.68866 0
M  V30 7364 H 689.254 0.874564 0.365844 0
M  V30 7365 H 688.96 2.97005 1.88364 0
M  V30 7366 H 688.834 1.89254 3.26287 0
M  V30 7367 H 691.221 1.0357 2.76328 0
M  V30 7368 H 691.302 2.14777 1.3894 0
M  V30 7369 H 690.946 4.10936 2.98486 0
M  V30 7370 H 690.876 2.96732 4.35037 0
M  V30 7371 H 693.367 2.45065 2.87666 0
M  V30 7372 H 693.68 5.47109 5.45794 0
M  V30 7373 H 692.025 4.91539 4.9134 0
M  V30 7374 H 695.216 3.09923 3.50807 0
M  V30 7375 H 695.389 4.47641 4.68531 0
M  V30 7376 N 688.795 -1.27931 0.920396 0
M  V30 7377 C 690.206 -1.76707 0.602616 0
M  V30 7378 C 690.557 -1.75249 -0.882159 0
M  V30 7379 O 689.682 -1.35135 -1.69019 0
M  V30 7380 C 690.277 -3.20884 1.08714 0
M  V30 7381 C 688.836 -3.67356 0.820157 0
M  V30 7382 C 687.983 -2.47525 1.25006 0
M  V30 7383 H 690.934 -1.14301 1.10095 0
M  V30 7384 H 690.955 -3.78045 0.431535 0
M  V30 7385 H 690.467 -3.21913 2.1678 0
M  V30 7386 H 688.568 -3.7178 -0.247012 0
M  V30 7387 H 688.681 -4.57181 1.43257 0
M  V30 7388 H 687.045 -2.45765 0.668698 0
M  V30 7389 H 687.828 -2.51269 2.3392 0
M  V30 7390 N 690.273 -0.685099 -1.4193 0
M  V30 7391 C 691.236 -0.0222632 -2.29189 0
M  V30 7392 C 692.236 0.7186 -1.4385 0
M  V30 7393 O 693.426 0.555058 -1.6512 0
M  V30 7394 C 690.558 0.979013 -3.2654 0
M  V30 7395 H 691.751 -0.790424 -2.89296 0
M  V30 7396 H 689.304 -0.448012 -1.49742 0
M  V30 7397 H 690.039 1.77531 -2.71392 0
M  V30 7398 H 689.824 0.451037 -3.89497 0
M  V30 7399 H 691.314 1.44091 -3.91954 0
M  V30 7400 N 691.751 1.51645 -0.429126 0
M  V30 7401 C 692.698 2.27542 0.386446 0
M  V30 7402 C 693.668 1.30786 1.02393 0
M  V30 7403 O 694.853 1.59678 1.0444 0
M  V30 7404 C 691.993 3.11457 1.48623 0
M  V30 7405 C 691.106 4.23196 0.867691 0
M  V30 7406 C 690.241 4.94435 1.94183 0
M  V30 7407 C 689.28 5.98108 1.30129 0
M  V30 7408 N 688.417 6.62786 2.31644 0
M  V30 7409 H 693.257 2.968 -0.267155 0
M  V30 7410 H 690.794 1.46397 -0.143591 0
M  V30 7411 H 692.752 3.58429 2.13506 0
M  V30 7412 H 691.382 2.44329 2.10957 0
M  V30 7413 H 690.434 3.80248 0.107373 0
M  V30 7414 H 691.746 4.97499 0.35997 0
M  V30 7415 H 690.9 5.44914 2.66747 0
M  V30 7416 H 689.639 4.19744 2.48326 0
M  V30 7417 H 688.644 5.4693 0.561082 0
M  V30 7418 H 689.869 6.74751 0.767303 0
M  V30 7419 H 687.815 5.90913 2.84883 0
M  V30 7420 H 687.732 7.32828 1.85741 0
M  V30 7421 H 689 7.17897 3.03717 0
M  V30 7422 N 693.229 0.160201 1.56784 0
M  V30 7423 C 694.506 -0.533355 1.88188 0
M  V30 7424 C 694.886 -1.82072 1.06831 0
M  V30 7425 O 694.234 -2.27946 0.158959 0
M  V30 7426 C 694.444 -0.786034 3.40033 0
M  V30 7427 C 695.792 -1.12097 4.09536 0
M  V30 7428 O 696.816 -0.874949 3.45287 0
M  V30 7429 O 695.675 -1.58457 5.23023 0
M  V30 7430 H 692.769 -0.273589 0.780434 0
M  V30 7431 H 695.315 0.197803 1.68543 0
M  V30 7432 H 694.087 0.124515 3.91102 0
M  V30 7433 H 693.71 -1.57091 3.65251 0
M  V30 7434 N 694.707 -1.5719 -0.113559 0
M  V30 7435 C 695.617 -2.04041 -1.15777 0
M  V30 7436 C 696.633 -0.961812 -1.45001 0
M  V30 7437 O 697.809 -1.2737 -1.56009 0
M  V30 7438 C 694.874 -2.43994 -2.46308 0
M  V30 7439 C 693.935 -3.65962 -2.24433 0
M  V30 7440 C 693.168 -4.04 -3.4874 0
M  V30 7441 O 693.391 -3.42321 -4.56259 0
M  V30 7442 O 692.325 -4.97069 -3.3942 0
M  V30 7443 H 696.151 -2.93248 -0.789899 0
M  V30 7444 H 693.736 -1.45828 -0.324748 0
M  V30 7445 H 695.618 -2.70401 -3.23204 0
M  V30 7446 H 694.293 -1.57932 -2.82558 0
M  V30 7447 H 693.2 -3.44697 -1.45377 0
M  V30 7448 H 694.533 -4.52746 -1.93084 0
M  V30 7449 N 696.185 0.383891 -1.52853 0
M  V30 7450 C 697.425 1.13731 -1.69837 0
M  V30 7451 C 697.789 1.87086 -0.431611 0
M  V30 7452 O 698.99 2.64518 -0.477886 0
M  V30 7453 C 697.261 2.08551 -2.90243 0
M  V30 7454 S 698.82 2.9166 -3.27841 0
M  V30 7455 H 695.638 0.384911 -0.5978 0
M  V30 7456 H 698.24 0.42103 -1.90913 0
M  V30 7457 H 696.944 1.53392 -3.80656 0
M  V30 7458 H 696.475 2.8468 -2.71516 0
M  V30 7459 H 698.49 4.10723 -2.78426 0
M  V30 7460 N 697.663 1.43903 0.642637 0
M  V30 7461 C 698.94 1.36556 1.40043 0
M  V30 7462 C 699.32 0.0185588 2.11092 0
M  V30 7463 O 698.668 -0.998438 2.05532 0
M  V30 7464 C 698.878 2.55596 2.37638 0
M  V30 7465 C 700.226 2.99153 3.01318 0
M  V30 7466 O 701.25 2.55719 2.47965 0
M  V30 7467 O 700.109 3.74427 3.98078 0
M  V30 7468 H 697.203 0.540189 0.626198 0
M  V30 7469 H 699.749 1.55971 0.668657 0
M  V30 7470 H 698.521 3.45256 1.84158 0
M  V30 7471 H 698.144 2.38334 3.18249 0
M  V30 7472 N 699.141 -0.881989 1.30609 0
M  V30 7473 C 700.071 -2.00413 1.1982 0
M  V30 7474 C 701.052 -1.69871 0.0881538 0
M  V30 7475 O 702.237 -1.92304 0.2707 0
M  V30 7476 C 699.367 -3.35641 0.89233 0
M  V30 7477 C 698.321 -3.80451 1.96064 0
M  V30 7478 C 697.647 -5.13003 1.5077 0
M  V30 7479 C 698.947 -3.98855 3.37213 0
M  V30 7480 H 700.641 -2.09698 2.13699 0
M  V30 7481 H 698.187 -1.00754 1.02882 0
M  V30 7482 H 700.14 -4.13669 0.803497 0
M  V30 7483 H 698.864 -3.26497 -0.0821381 0
M  V30 7484 H 697.523 -3.04654 2.03916 0
M  V30 7485 H 697.171 -5.0029 0.521417 0
M  V30 7486 H 696.871 -5.43956 2.22229 0
M  V30 7487 H 698.395 -5.93554 1.43271 0
M  V30 7488 H 699.809 -4.67312 3.32103 0
M  V30 7489 H 698.206 -4.41188 4.06784 0
M  V30 7490 H 699.276 -3.02614 3.78883 0
M  V30 7491 N 700.619 -1.13374 -1.09472 0
M  V30 7492 C 702.03 -0.90801 -1.63132 0
M  V30 7493 C 702.381 0.555576 -1.8817 0
M  V30 7494 O 701.506 1.42218 -1.63104 0
M  V30 7495 C 702.101 -1.64182 -2.96361 0
M  V30 7496 C 700.66 -1.46197 -3.46848 0
M  V30 7497 C 699.807 -1.67134 -2.21273 0
M  V30 7498 H 702.758 -1.2871 -0.928411 0
M  V30 7499 H 702.779 -1.09863 -3.64294 0
M  V30 7500 H 702.291 -2.707 -2.78106 0
M  V30 7501 H 700.392 -0.419788 -3.70228 0
M  V30 7502 H 700.505 -2.22472 -4.24315 0
M  V30 7503 H 698.869 -1.09616 -2.29905 0
M  V30 7504 H 699.652 -2.74971 -2.05538 0
M  V30 7505 N 702.098 1.27442 -0.927168 0
M  V30 7506 C 703.008 2.30599 -0.431448 0
M  V30 7507 C 704.024 1.67028 0.48761 0
M  V30 7508 O 705.2 1.97962 0.370546 0
M  V30 7509 C 702.265 3.45327 0.308292 0
M  V30 7510 C 701.326 4.24418 -0.645615 0
M  V30 7511 C 700.559 5.33667 0.0589164 0
M  V30 7512 O 700.782 5.5589 1.27838 0
M  V30 7513 O 699.716 5.98774 -0.612638 0
M  V30 7514 H 703.542 2.75036 -1.28797 0
M  V30 7515 H 701.127 1.32382 -0.692495 0
M  V30 7516 H 703.009 4.15107 0.725555 0
M  V30 7517 H 701.684 3.02945 1.14043 0
M  V30 7518 H 700.591 3.57174 -1.11255 0
M  V30 7519 H 701.924 4.70512 -1.44496 0
M  V30 7520 N 703.576 0.692616 1.41565 0
M  V30 7521 C 704.509 -0.025063 2.28186 0
M  V30 7522 C 705.487 -0.790912 1.42068 0
M  V30 7523 O 706.671 -0.782344 1.71498 0
M  V30 7524 C 703.798 -1.04285 3.22246 0
M  V30 7525 C 702.844 -0.370515 4.24888 0
M  V30 7526 S 703.677 0.884942 5.28137 0
M  V30 7527 C 704.833 -0.131324 6.25762 0
M  V30 7528 H 705.066 0.709626 2.88707 0
M  V30 7529 H 702.599 0.482783 1.46658 0
M  V30 7530 H 704.557 -1.62493 3.7697 0
M  V30 7531 H 703.218 -1.7501 2.60827 0
M  V30 7532 H 702.411 -1.13911 4.90959 0
M  V30 7533 H 702.013 0.138411 3.73744 0
M  V30 7534 H 704.305 -0.985527 6.70294 0
M  V30 7535 H 705.248 0.495384 7.06365 0
M  V30 7536 H 705.656 -0.484777 5.62415 0
M  V30 7537 N 705.054 -1.51416 0.437162 0
M  V30 7538 C 706.294 -2.03995 -0.128538 0
M  V30 7539 C 706.658 -1.31417 -1.39977 0
M  V30 7540 O 707.859 -1.74369 -2.0457 0
M  V30 7541 C 706.13 -3.55757 -0.342317 0
M  V30 7542 S 707.689 -4.3006 -0.871446 0
M  V30 7543 H 704.507 -0.710283 -0.0319322 0
M  V30 7544 H 707.109 -1.86177 0.596526 0
M  V30 7545 H 705.813 -4.06148 0.589233 0
M  V30 7546 H 705.344 -3.77869 -1.09447 0
M  V30 7547 H 707.359 -4.47248 -2.14903 0
M  V30 7548 N 706.532 -0.168513 -1.56696 0
M  V30 7549 C 707.48 0.779791 -2.19139 0
M  V30 7550 C 708.474 1.23957 -1.1546 0
M  V30 7551 O 709.68 1.20555 -1.33666 0
M  V30 7552 H 706.055 0.269739 -0.701958 0
M  V30 7553 H 708.026 0.229156 -2.97519 0
M  V30 7554 C 706.775 2.00003 -2.84419 0
M  V30 7555 H 706.098 1.65527 -3.63924 0
M  V30 7556 H 707.538 2.64251 -3.31583 0
M  V30 7557 C 705.997 2.82187 -1.84044 0
M  V30 7558 O 706.527 3.79247 -1.32418 0
M  V30 7559 N 704.733 2.47145 -1.52864 0
M  V30 7560 H 704.28 1.68277 -1.9504 0
M  V30 7561 H 704.238 3.02422 -0.859569 0
M  V30 7562 N 708.01 1.57248 0.105221 0
M  V30 7563 C 709.258 1.85204 0.808951 0
M  V30 7564 C 709.579 0.75574 1.7976 0
M  V30 7565 O 708.849 -0.218984 1.94672 0
M  V30 7566 H 707.429 0.683346 0.301739 0
M  V30 7567 H 710.091 1.94695 0.0892605 0
M  V30 7568 H 709.187 2.81595 1.34575 0
M  V30 7569 N 709.488 -0.375779 1.53054 0
M  V30 7570 C 710.435 -1.45978 1.78771 0
M  V30 7571 C 711.405 -1.53625 0.631552 0
M  V30 7572 O 712.59 -1.69674 0.872667 0
M  V30 7573 C 709.73 -2.8305 1.97425 0
M  V30 7574 C 708.843 -2.84451 3.25134 0
M  V30 7575 C 707.978 -4.13034 3.34031 0
M  V30 7576 C 707.017 -4.08536 4.55812 0
M  V30 7577 N 706.154 -5.2875 4.61918 0
M  V30 7578 H 710.994 -1.23349 2.71273 0
M  V30 7579 H 708.531 -0.598147 1.3439 0
M  V30 7580 H 710.489 -3.62666 2.06225 0
M  V30 7581 H 709.119 -3.04101 1.0827 0
M  V30 7582 H 708.171 -1.97127 3.25338 0
M  V30 7583 H 709.483 -2.76998 4.14818 0
M  V30 7584 H 708.637 -5.0106 3.42087 0
M  V30 7585 H 707.376 -4.23226 2.42345 0
M  V30 7586 H 706.381 -3.18897 4.47867 0
M  V30 7587 H 707.606 -3.99955 5.48828 0
M  V30 7588 H 705.552 -5.39547 3.73129 0
M  V30 7589 H 705.469 -5.23426 5.45492 0
M  V30 7590 H 706.737 -6.18637 4.74245 0
M  V30 7591 N 710.966 -1.44241 -0.634997 0
M  V30 7592 C 712.191 -1.50516 -1.42687 0
M  V30 7593 C 712.616 -0.129864 -1.87651 0
M  V30 7594 O 711.974 0.880164 -1.58502 0
M  V30 7595 C 712.022 -2.4714 -2.62591 0
M  V30 7596 O 711.126 -1.97025 -3.62291 0
M  V30 7597 H 710.467 -0.50841 -0.427101 0
M  V30 7598 H 712.997 -1.89337 -0.775408 0
M  V30 7599 H 713.007 -2.65048 -3.10183 0
M  V30 7600 H 711.682 -3.47039 -2.29209 0
M  V30 7601 H 710.259 -1.88866 -3.21534 0
M  V30 7602 N 712.444 0.87505 -1.31075 0
M  V30 7603 C 713.692 1.62447 -1.20231 0
M  V30 7604 C 714.013 1.93506 0.240888 0
M  V30 7605 O 713.283 1.57847 1.16022 0
M  V30 7606 H 711.863 0.602207 -0.441991 0
M  V30 7607 H 714.525 1.04788 -1.64334 0
M  V30 7608 H 713.621 2.57031 -1.77036 0
M  V30 7609 N 713.922 1.13953 1.08869 0
M  V30 7610 C 714.87 0.817664 2.17754 0
M  V30 7611 C 715.864 -0.202444 1.68186 0
M  V30 7612 O 717.07 -0.0590159 1.79903 0
M  V30 7613 H 713.445 0.246671 0.710392 0
M  V30 7614 H 715.416 1.74401 2.4213 0
M  V30 7615 C 714.165 0.3063 3.46348 0
M  V30 7616 H 713.488 1.08259 3.84864 0
M  V30 7617 H 714.928 0.119584 4.23831 0
M  V30 7618 C 713.387 -0.969158 3.22659 0
M  V30 7619 O 713.917 -2.04386 3.45817 0
M  V30 7620 N 712.123 -0.902516 2.7623 0
M  V30 7621 H 711.67 -0.027801 2.57585 0
M  V30 7622 H 711.628 -1.75649 2.60758 0
M  V30 7623 N 715.4 -1.26948 0.933913 0
M  V30 7624 C 716.64 -1.9585 0.585003 0
M  V30 7625 C 717.004 -1.71722 -0.858802 0
M  V30 7626 O 718.205 -2.34366 -1.31629 0
M  V30 7627 C 716.476 -3.45638 0.909352 0
M  V30 7628 S 718.035 -4.33656 0.669892 0
M  V30 7629 H 714.853 -0.677485 0.215721 0
M  V30 7630 H 717.455 -1.54051 1.20368 0
M  V30 7631 H 716.159 -3.60697 1.9577 0
M  V30 7632 H 715.69 -3.92401 0.280115 0
M  V30 7633 H 717.705 -4.93975 -0.469378 0
M  V30 7634 N 716.879 -0.700114 -1.41195 0
M  V30 7635 C 718.29 -0.307249 -1.84154 0
M  V30 7636 C 718.641 1.15539 -1.58572 0
M  V30 7637 O 717.766 1.88744 -1.05852 0
M  V30 7638 C 718.361 -0.550872 -3.34292 0
M  V30 7639 C 716.92 -0.211877 -3.75803 0
M  V30 7640 C 716.067 -0.830915 -2.64558 0
M  V30 7641 H 719.018 -0.900431 -1.30683 0
M  V30 7642 H 719.039 0.188954 -3.80031 0
M  V30 7643 H 718.551 -1.61548 -3.5288 0
M  V30 7644 H 716.652 0.848283 -3.62815 0
M  V30 7645 H 716.765 -0.67007 -4.74391 0
M  V30 7646 H 715.129 -0.260155 -2.53368 0
M  V30 7647 H 715.912 -1.89948 -2.85963 0
M  V30 7648 N 718.357 1.51182 -0.445186 0
M  V30 7649 C 719.634 1.9478 0.178965 0
M  V30 7650 C 720.014 1.38428 1.59376 0
M  V30 7651 O 719.362 0.574552 2.21159 0
M  V30 7652 C 719.572 3.48683 0.148711 0
M  V30 7653 C 720.92 4.23152 0.35042 0
M  V30 7654 O 721.944 3.55479 0.226474 0
M  V30 7655 O 720.803 5.4322 0.597893 0
M  V30 7656 H 717.897 0.817387 0.12573 0
M  V30 7657 H 720.443 1.62051 -0.503729 0
M  V30 7658 H 719.215 3.82176 -0.84009 0
M  V30 7659 H 718.838 3.87875 0.873979 0
M  V30 7660 N 719.835 0.176821 1.56605 0
M  V30 7661 C 721.112 -0.513365 1.88743 0
M  V30 7662 C 721.492 -1.80929 1.08757 0
M  V30 7663 O 720.84 -2.27765 0.183127 0
M  V30 7664 C 721.05 -0.749925 3.40848 0
M  V30 7665 C 722.398 -1.07747 4.10701 0
M  V30 7666 O 723.422 -0.838277 3.46196 0
M  V30 7667 O 722.281 -1.52901 5.24675 0
M  V30 7668 H 719.375 -0.265296 0.783292 0
M  V30 7669 H 721.921 0.215669 1.68324 0
M  V30 7670 H 720.693 0.16599 3.90948 0
M  V30 7671 H 720.316 -1.53208 3.66897 0
M  V30 7672 N 721.313 -1.57302 -0.09688 0
M  V30 7673 C 722.729 -1.53094 -0.451041 0
M  V30 7674 C 722.929 -0.893265 -1.80618 0
M  V30 7675 O 721.985 -0.485013 -2.47798 0
M  V30 7676 C 723.298 -2.9782 -0.415172 0
M  V30 7677 C 724.846 -3.09026 -0.497155 0
M  V30 7678 C 725.321 -4.55356 -0.491452 0
M  V30 7679 N 726.812 -4.59896 -0.552258 0
M  V30 7680 C 727.547 -5.70563 -0.569654 0
M  V30 7681 N 727.043 -6.90666 -0.543365 0
M  V30 7682 N 728.836 -5.58733 -0.614331 0
M  V30 7683 H 720.987 -1.97131 0.790771 0
M  V30 7684 H 723.25 -0.901211 0.294147 0
M  V30 7685 H 722.956 -3.47933 0.513362 0
M  V30 7686 H 722.83 -3.56416 -1.23481 0
M  V30 7687 H 725.217 -2.58902 -1.41611 0
M  V30 7688 H 725.298 -2.53386 0.35059 0
M  V30 7689 H 724.942 -5.06131 0.423549 0
M  V30 7690 H 724.872 -5.08832 -1.35639 0
M  V30 7691 H 727.363 -3.73456 -0.577842 0
M  V30 7692 H 727.676 -7.70769 -0.559873 0
M  V30 7693 H 726.021 -6.93123 -0.510441 0
M  V30 7694 H 729.212 -4.63809 -0.632387 0
M  V30 7695 H 729.385 -6.44984 -0.62442 0
M  V30 7696 N 722.791 0.367657 -1.53252 0
M  V30 7697 C 724.038 1.11052 -1.69333 0
M  V30 7698 C 724.366 1.89363 -0.444064 0
M  V30 7699 O 723.621 1.87094 0.573953 0
M  V30 7700 C 723.92 2.09825 -2.89324 0
M  V30 7701 C 723.586 1.4801 -4.25915 0
M  V30 7702 C 722.248 1.30879 -4.6306 0
M  V30 7703 C 724.6 1.03268 -5.10867 0
M  V30 7704 C 721.928 0.675868 -5.82794 0
M  V30 7705 C 724.28 0.41377 -6.31245 0
M  V30 7706 C 722.944 0.229939 -6.67104 0
M  V30 7707 H 722.214 0.406367 -0.619634 0
M  V30 7708 H 724.861 0.392558 -1.87433 0
M  V30 7709 H 723.166 2.87917 -2.65728 0
M  V30 7710 H 724.863 2.67252 -2.98961 0
M  V30 7711 H 721.453 1.62336 -3.96667 0
M  V30 7712 H 725.637 1.15297 -4.82722 0
M  V30 7713 H 720.893 0.521833 -6.09169 0
M  V30 7714 H 725.067 0.0588768 -6.96375 0
M  V30 7715 H 722.694 -0.262562 -7.59746 0
M  V30 7716 N 724.269 1.44576 0.627338 0
M  V30 7717 C 725.201 1.47724 1.75243 0
M  V30 7718 C 726.214 0.370193 1.58535 0
M  V30 7719 O 727.403 0.636151 1.66779 0
M  V30 7720 C 724.503 1.2991 3.13012 0
M  V30 7721 C 723.676 2.5393 3.56143 0
M  V30 7722 C 722.735 2.30961 4.72804 0
M  V30 7723 O 721.761 3.04469 4.80923 0
M  V30 7724 N 722.963 1.34261 5.6476 0
M  V30 7725 H 725.728 2.44718 1.73012 0
M  V30 7726 H 723.289 1.40064 0.812022 0
M  V30 7727 H 725.281 1.12385 3.88782 0
M  V30 7728 H 723.851 0.412668 3.09864 0
M  V30 7729 H 723.071 2.86707 2.70542 0
M  V30 7730 H 724.359 3.36411 3.81713 0
M  V30 7731 H 723.757 0.735573 5.60897 0
M  V30 7732 H 722.314 1.22713 6.40144 0
M  V30 7733 N 725.747 -0.868086 1.31537 0
M  V30 7734 C 726.993 -1.62367 1.2151 0
M  V30 7735 C 727.326 -1.92883 -0.225819 0
M  V30 7736 O 726.601 -1.56176 -1.15927 0
M  V30 7737 C 726.884 -2.95268 2.06129 0
M  V30 7738 C 726.737 -2.71619 3.58529 0
M  V30 7739 C 728.056 -3.96391 1.91212 0
M  V30 7740 H 725.175 -0.589178 0.442762 0
M  V30 7741 H 727.817 -1.00336 1.61347 0
M  V30 7742 H 725.967 -3.4821 1.72284 0
M  V30 7743 H 727.639 -2.25334 4.0252 0
M  V30 7744 H 725.882 -2.05817 3.81866 0
M  V30 7745 H 726.553 -3.66192 4.13047 0
M  V30 7746 H 729.029 -3.52663 2.20834 0
M  V30 7747 H 727.905 -4.87263 2.52718 0
M  V30 7748 H 728.166 -4.33335 0.875953 0
M  V30 7749 N 727.225 -1.14528 -1.08264 0
M  V30 7750 C 728.173 -0.829201 -2.17318 0
M  V30 7751 C 729.167 0.193521 -1.68291 0
M  V30 7752 O 730.373 0.0494744 -1.79932 0
M  V30 7753 H 726.748 -0.250435 -0.709074 0
M  V30 7754 H 728.719 -1.75683 -2.41201 0
M  V30 7755 C 727.468 -0.324663 -3.46181 0
M  V30 7756 H 726.791 -1.10299 -3.84284 0
M  V30 7757 H 728.231 -0.142059 -4.23762 0
M  V30 7758 C 726.69 0.952033 -3.23169 0
M  V30 7759 O 727.22 2.02549 -3.46896 0
M  V30 7760 N 725.426 0.887854 -2.76705 0
M  V30 7761 H 724.973 0.0141402 -2.57596 0
M  V30 7762 H 724.931 1.74263 -2.61686 0
M  V30 7763 N 728.703 1.26451 -0.940633 0
M  V30 7764 C 729.951 1.93395 -0.586748 0
M  V30 7765 C 730.272 1.7417 0.876921 0
M  V30 7766 O 729.542 1.097 1.62304 0
M  V30 7767 H 728.122 0.715687 -0.214012 0
M  V30 7768 H 730.784 1.53902 -1.19584 0
M  V30 7769 H 729.88 3.01565 -0.804059 0
M  V30 7770 N 730.181 0.707592 1.40822 0
M  V30 7771 C 731.428 0.243671 2.01029 0
M  V30 7772 C 731.756 -1.16057 1.5608 0
M  V30 7773 O 731.011 -1.7999 0.768251 0
M  V30 7774 C 731.31 0.262892 3.56432 0
M  V30 7775 C 730.976 1.61632 4.20935 0
M  V30 7776 C 729.638 1.98682 4.38268 0
M  V30 7777 C 731.99 2.50619 4.5699 0
M  V30 7778 C 729.318 3.2428 4.88937 0
M  V30 7779 C 731.67 3.75562 5.09054 0
M  V30 7780 C 730.334 4.12739 5.24598 0
M  V30 7781 H 729.604 0.0891654 0.735616 0
M  V30 7782 H 732.251 0.909051 1.68548 0
M  V30 7783 H 730.556 -0.486052 3.88773 0
M  V30 7784 H 732.253 -0.113775 4.00839 0
M  V30 7785 H 728.843 1.31818 4.07826 0
M  V30 7786 H 733.027 2.23272 4.43242 0
M  V30 7787 H 728.283 3.53064 4.99155 0
M  V30 7788 H 732.457 4.44692 5.35931 0
M  V30 7789 H 730.084 5.10132 5.63622 0
M  V30 7790 N 731.66 -1.50943 0.453197 0
M  V30 7791 C 733.071 -1.86699 -0.00619892 0
M  V30 7792 C 733.422 -1.3693 -1.40515 0
M  V30 7793 O 732.547 -0.726715 -2.03833 0
M  V30 7794 C 733.142 -3.38795 -0.018025 0
M  V30 7795 C 731.701 -3.74028 -0.421885 0
M  V30 7796 C 730.848 -2.74752 0.375087 0
M  V30 7797 H 733.799 -1.43942 0.668317 0
M  V30 7798 H 733.82 -3.71468 -0.824125 0
M  V30 7799 H 733.332 -3.74988 1.00028 0
M  V30 7800 H 731.433 -3.43431 -1.44521 0
M  V30 7801 H 731.546 -4.78908 -0.135664 0
M  V30 7802 H 729.91 -2.5414 -0.168794 0
M  V30 7803 H 730.693 -3.13787 1.39256 0
M  V30 7804 N 733.138 -0.185124 -1.56509 0
M  V30 7805 C 734.378 0.458547 -1.9919 0
M  V30 7806 C 734.742 1.59484 -1.06906 0
M  V30 7807 O 735.943 2.30201 -1.38783 0
M  V30 7808 C 734.214 0.916263 -3.45455 0
M  V30 7809 S 735.773 1.55918 -4.10165 0
M  V30 7810 H 732.591 0.147008 -0.695636 0
M  V30 7811 H 735.193 -0.285841 -1.93399 0
M  V30 7812 H 733.897 0.0790543 -4.10324 0
M  V30 7813 H 733.428 1.69436 -3.55042 0
M  V30 7814 H 735.443 2.84771 -4.0635 0
M  V30 7815 N 734.616 1.57351 0.0885366 0
M  V30 7816 C 735.566 1.98963 1.11346 0
M  V30 7817 C 736.55 0.869065 1.35411 0
M  V30 7818 O 737.742 1.13292 1.35992 0
M  V30 7819 C 734.871 2.4231 2.43189 0
M  V30 7820 C 733.957 3.61065 2.22469 0
M  V30 7821 N 734.348 4.75789 1.71635 0
M  V30 7822 C 732.646 3.6729 2.5301 0
M  V30 7823 C 733.347 5.57708 1.65339 0
M  V30 7824 N 732.323 5.01067 2.1079 0
M  V30 7825 H 736.125 2.85109 0.713465 0
M  V30 7826 H 733.639 1.59682 0.295868 0
M  V30 7827 H 735.636 2.70352 3.17357 0
M  V30 7828 H 734.296 1.57544 2.83919 0
M  V30 7829 H 735.307 4.98411 1.40738 0
M  V30 7830 H 731.984 2.932 2.9722 0
M  V30 7831 H 733.374 6.59782 1.27031 0
M  V30 7832 N 736.094 -0.359525 1.53444 0
M  V30 7833 C 737.044 -1.441 1.7669 0
M  V30 7834 C 738.028 -1.48408 0.621599 0
M  V30 7835 O 739.22 -1.53547 0.880468 0
M  V30 7836 C 736.349 -2.81455 1.96566 0
M  V30 7837 C 735.435 -2.81601 3.17115 0
M  V30 7838 N 735.826 -2.51388 4.38905 0
M  V30 7839 C 734.124 -3.12758 3.1796 0
M  V30 7840 C 734.825 -2.59365 5.20677 0
M  V30 7841 N 733.801 -2.94328 4.57025 0
M  V30 7842 H 737.603 -1.19613 2.68458 0
M  V30 7843 H 735.117 -0.567761 1.52152 0
M  V30 7844 H 737.114 -3.59357 2.11348 0
M  V30 7845 H 735.774 -3.06901 1.06029 0
M  V30 7846 H 736.785 -2.24873 4.66533 0
M  V30 7847 H 733.462 -3.43479 2.37336 0
M  V30 7848 H 734.852 -2.39301 6.27841 0
M  V30 7849 N 737.572 -1.44907 -0.619662 0
M  V30 7850 C 738.82 -1.47999 -1.37625 0
M  V30 7851 C 739.141 -0.118295 -1.94641 0
M  V30 7852 O 738.411 0.85086 -1.76457 0
M  V30 7853 H 736.991 -0.544993 -0.510873 0
M  V30 7854 H 739.653 -1.80772 -0.728522 0
M  V30 7855 H 738.749 -2.21196 -2.20179 0
M  V30 7856 N 739.05 0.861098 -1.31996 0
M  V30 7857 C 739.997 1.96912 -1.20392 0
M  V30 7858 C 740.967 1.65869 -0.0875899 0
M  V30 7859 O 742.152 1.88992 -0.262011 0
M  V30 7860 C 739.292 3.32435 -0.926335 0
M  V30 7861 C 738.405 3.76018 -2.12684 0
M  V30 7862 C 737.54 5.00301 -1.78529 0
M  V30 7863 C 736.579 5.36357 -2.94937 0
M  V30 7864 N 735.716 6.51818 -2.60917 0
M  V30 7865 H 740.556 2.06169 -2.1517 0
M  V30 7866 H 738.093 1.00917 -1.07024 0
M  V30 7867 H 740.051 4.10478 -0.745917 0
M  V30 7868 H 738.681 3.22796 -0.0153578 0
M  V30 7869 H 737.733 2.93683 -2.41774 0
M  V30 7870 H 739.045 3.98664 -2.99781 0
M  V30 7871 H 738.199 5.86034 -1.57001 0
M  V30 7872 H 736.938 4.79578 -0.886356 0
M  V30 7873 H 735.943 4.49139 -3.17103 0
M  V30 7874 H 737.168 5.59041 -3.85552 0
M  V30 7875 H 735.114 6.32624 -1.73558 0
M  V30 7876 H 735.031 6.7445 -3.41544 0
M  V30 7877 H 736.299 7.4072 -2.42804 0
M  V30 7878 N 740.528 1.15101 1.07655 0
M  V30 7879 C 741.776 0.922149 1.79836 0
M  V30 7880 C 742.097 -0.552346 1.87014 0
M  V30 7881 O 741.367 -1.40145 1.3688 0
M  V30 7882 H 739.947 0.338182 0.666064 0
M  V30 7883 H 742.609 1.45107 1.30115 0
M  V30 7884 H 741.705 1.32883 2.82398 0
M  V30 7885 N 742.006 -1.2595 0.947325 0
M  V30 7886 C 742.956 -2.23859 0.432547 0
M  V30 7887 C 743.94 -1.53755 -0.474154 0
M  V30 7888 O 745.132 -1.74293 -0.308397 0
M  V30 7889 C 742.261 -3.42027 -0.295318 0
M  V30 7890 C 741.347 -4.19409 0.62903 0
M  V30 7891 N 741.738 -4.74284 1.7575 0
M  V30 7892 C 740.036 -4.43866 0.435805 0
M  V30 7893 C 740.737 -5.32821 2.33401 0
M  V30 7894 N 739.713 -5.18858 1.62135 0
M  V30 7895 H 743.515 -2.63886 1.29388 0
M  V30 7896 H 741.029 -1.41105 0.80393 0
M  V30 7897 H 743.026 -4.11297 -0.681188 0
M  V30 7898 H 741.686 -3.03526 -1.15334 0
M  V30 7899 H 742.697 -4.71641 2.13952 0
M  V30 7900 H 739.374 -4.15768 -0.37994 0
M  V30 7901 H 740.764 -5.86111 3.28517 0
M  V30 7902 N 743.484 -0.715051 -1.40445 0
M  V30 7903 C 744.724 -0.258742 -2.02756 0
M  V30 7904 C 745.088 1.12661 -1.55472 0
M  V30 7905 O 746.289 1.67988 -2.09842 0
M  V30 7906 C 744.56 -0.335201 -3.55825 0
M  V30 7907 S 746.119 0.044201 -4.38778 0
M  V30 7908 H 742.937 -0.102683 -0.703546 0
M  V30 7909 H 745.539 -0.937151 -1.71574 0
M  V30 7910 H 744.243 -1.34511 -3.87731 0
M  V30 7911 H 743.774 0.361705 -3.91734 0
M  V30 7912 H 745.789 1.26639 -4.79768 0
M  V30 7913 N 744.962 1.50701 -0.461195 0
M  V30 7914 C 745.892 2.31182 0.328184 0
M  V30 7915 C 746.873 1.37644 0.999408 0
M  V30 7916 O 748.058 1.66565 0.99848 0
M  V30 7917 C 745.188 3.17113 1.41621 0
M  V30 7918 C 744.142 4.19124 0.867148 0
M  V30 7919 C 743.468 4.93728 2.05272 0
M  V30 7920 C 744.768 5.22174 -0.114808 0
M  V30 7921 H 746.462 2.97423 -0.343501 0
M  V30 7922 H 744.008 1.43033 -0.166641 0
M  V30 7923 H 745.961 3.72208 1.97584 0
M  V30 7924 H 744.685 2.48739 2.11652 0
M  V30 7925 H 743.344 3.65116 0.329557 0
M  V30 7926 H 742.992 4.21835 2.73978 0
M  V30 7927 H 742.692 5.62724 1.69161 0
M  V30 7928 H 744.216 5.51654 2.61744 0
M  V30 7929 H 745.63 5.72198 0.355316 0
M  V30 7930 H 744.027 5.98833 -0.389689 0
M  V30 7931 H 745.097 4.7353 -1.04391 0
M  V30 7932 N 746.441 0.193421 1.56409 0
M  V30 7933 C 747.374 -0.767384 2.1491 0
M  V30 7934 C 748.352 -1.21075 1.08534 0
M  V30 7935 O 749.536 -1.29856 1.36637 0
M  V30 7936 C 746.663 -2.03615 2.70663 0
M  V30 7937 C 745.709 -1.73505 3.89613 0
M  V30 7938 S 746.542 -0.884645 5.28142 0
M  V30 7939 C 747.698 -2.1636 5.87315 0
M  V30 7940 H 747.931 -0.270053 2.96071 0
M  V30 7941 H 745.464 -0.0215546 1.54385 0
M  V30 7942 H 747.422 -2.7648 3.03429 0
M  V30 7943 H 746.083 -2.50461 1.89547 0
M  V30 7944 H 745.276 -2.67701 4.27027 0
M  V30 7945 H 744.878 -1.08723 3.57848 0
M  V30 7946 H 747.17 -3.11629 6.01576 0
M  V30 7947 H 748.113 -1.8338 6.83943 0
M  V30 7948 H 748.521 -2.29129 5.15907 0
M  V30 7949 N 747.919 -1.57396 -0.0801906 0
M  V30 7950 C 749.167 -1.86467 -0.779384 0
M  V30 7951 C 749.488 -0.784243 -1.78535 0
M  V30 7952 O 748.758 0.187986 -1.94996 0
M  V30 7953 H 747.338 -0.68806 -0.29083 0
M  V30 7954 H 750 -1.94813 -0.0582749 0
M  V30 7955 H 749.096 -2.83701 -1.30078 0
M  V30 7956 N 749.397 0.351382 -1.53633 0
M  V30 7957 C 750.625 1.11275 -1.74429 0
M  V30 7958 C 751.04 1.82602 -0.479798 0
M  V30 7959 O 750.397 1.74074 0.548125 0
M  V30 7960 C 750.448 2.13223 -2.91921 0
M  V30 7961 O 750.169 1.44798 -4.13479 0
M  V30 7962 C 751.67 3.01797 -3.24706 0
M  V30 7963 H 748.89 0.332153 -0.583023 0
M  V30 7964 H 751.434 0.405974 -2.0043 0
M  V30 7965 H 749.589 2.79477 -2.68274 0
M  V30 7966 H 750.003 2.12839 -4.79374 0
M  V30 7967 H 751.477 3.69282 -4.10286 0
M  V30 7968 H 751.954 3.67387 -2.40673 0
M  V30 7969 H 752.56 2.41141 -3.5033 0
M  V30 7970 N 750.875 1.45233 0.611969 0
M  V30 7971 C 752.115 1.50558 1.38245 0
M  V30 7972 C 752.479 0.141959 1.91474 0
M  V30 7973 O 753.68 0.0698926 2.68709 0
M  V30 7974 C 751.951 2.55136 2.50281 0
M  V30 7975 S 753.51 2.79652 3.38142 0
M  V30 7976 H 750.328 0.532281 0.471378 0
M  V30 7977 H 752.93 1.82285 0.706578 0
M  V30 7978 H 751.634 3.52888 2.09518 0
M  V30 7979 H 751.165 2.25045 3.22674 0
M  V30 7980 H 753.18 2.12699 4.48301 0
M  V30 7981 N 752.353 -0.854086 1.3245 0
M  V30 7982 C 753.764 -1.42427 1.20712 0
M  V30 7983 C 754.115 -1.95371 -0.18013 0
M  V30 7984 O 753.24 -1.87587 -1.07889 0
M  V30 7985 C 753.835 -2.58897 2.18536 0
M  V30 7986 C 752.394 -3.11913 2.10683 0
M  V30 7987 C 751.541 -1.84661 2.06871 0
M  V30 7988 H 754.492 -0.661192 1.4427 0
M  V30 7989 H 754.513 -3.36074 1.78422 0
M  V30 7990 H 754.025 -2.20333 3.19492 0
M  V30 7991 H 752.126 -3.55059 1.12977 0
M  V30 7992 H 752.239 -3.73119 3.00532 0
M  V30 7993 H 750.603 -2.04285 1.52118 0
M  V30 7994 H 751.386 -1.48314 3.09609 0
M  V30 7995 N 753.831 -1.1567 -1.07043 0
M  V30 7996 C 755.059 -0.957471 -1.83412 0
M  V30 7997 C 755.474 0.494271 -1.82215 0
M  V30 7998 O 754.831 1.34288 -1.23584 0
M  V30 7999 C 754.882 -1.46784 -3.30359 0
M  V30 8000 O 754.603 -2.86271 -3.31633 0
M  V30 8001 C 756.104 -1.31054 -4.23485 0
M  V30 8002 H 753.324 -0.33986 -0.578564 0
M  V30 8003 H 755.868 -1.53518 -1.35102 0
M  V30 8004 H 754.023 -0.932586 -3.76007 0
M  V30 8005 H 754.437 -3.0948 -4.23465 0
M  V30 8006 H 755.911 -1.71605 -5.24648 0
M  V30 8007 H 756.388 -0.255107 -4.38458 0
M  V30 8008 H 756.994 -1.83503 -3.83676 0
M  V30 8009 N 755.309 1.25446 -0.953992 0
M  V30 8010 C 756.239 2.28264 -0.491717 0
M  V30 8011 C 757.22 1.63717 0.461617 0
M  V30 8012 O 758.405 1.90821 0.36071 0
M  V30 8013 C 755.535 3.46525 0.231915 0
M  V30 8014 C 754.489 4.23247 -0.636098 0
M  V30 8015 C 753.815 5.34254 0.218238 0
M  V30 8016 C 755.115 4.85971 -1.91389 0
M  V30 8017 H 756.809 2.67183 -1.35106 0
M  V30 8018 H 754.355 1.2844 -0.651095 0
M  V30 8019 H 756.308 4.17576 0.566439 0
M  V30 8020 H 755.032 3.06594 1.12551 0
M  V30 8021 H 753.691 3.53978 -0.953696 0
M  V30 8022 H 753.339 4.90564 1.11156 0
M  V30 8023 H 753.039 5.86501 -0.359232 0
M  V30 8024 H 754.563 6.08138 0.547743 0
M  V30 8025 H 755.977 5.49168 -1.64581 0
M  V30 8026 H 754.374 5.48391 -2.43696 0
M  V30 8027 H 755.444 4.08192 -2.61738 0
M  V30 8028 N 756.787 0.722489 1.40064 0
M  V30 8029 C 757.719 0.0349057 2.29173 0
M  V30 8030 C 758.732 -0.716571 1.46182 0
M  V30 8031 O 759.921 -0.562806 1.69395 0
M  V30 8032 C 757.021 -0.974839 3.24577 0
M  V30 8033 C 756.194 -0.287471 4.36454 0
M  V30 8034 C 755.253 -1.20356 5.12251 0
M  V30 8035 O 754.279 -0.685753 5.65054 0
M  V30 8036 N 755.481 -2.53422 5.22262 0
M  V30 8037 H 758.246 0.800058 2.88824 0
M  V30 8038 H 755.807 0.57068 1.51509 0
M  V30 8039 H 757.799 -1.59002 3.72157 0
M  V30 8040 H 756.369 -1.6413 2.66046 0
M  V30 8041 H 755.589 0.508008 3.90913 0
M  V30 8042 H 756.877 0.189382 5.08447 0
M  V30 8043 H 756.275 -2.97981 4.80857 0
M  V30 8044 H 754.832 -3.10067 5.73325 0
M  V30 8045 N 758.265 -1.50454 0.469181 0
M  V30 8046 C 759.175 -2.32248 -0.331349 0
M  V30 8047 C 760.191 -1.42548 -0.997807 0
M  V30 8048 O 761.367 -1.75602 -0.9862 0
M  V30 8049 C 758.432 -3.17171 -1.40012 0
M  V30 8050 C 757.493 -4.2269 -0.750463 0
M  V30 8051 C 756.726 -5.03554 -1.76831 0
M  V30 8052 O 756.949 -4.85469 -2.99459 0
M  V30 8053 O 755.883 -5.86767 -1.3412 0
M  V30 8054 H 759.709 -3.01821 0.337279 0
M  V30 8055 H 757.294 -1.47602 0.231066 0
M  V30 8056 H 759.176 -3.69871 -2.01924 0
M  V30 8057 H 757.851 -2.50328 -2.05226 0
M  V30 8058 H 756.758 -3.73986 -0.0924446 0
M  V30 8059 H 758.091 -4.91997 -0.14131 0
M  V30 8060 N 759.743 -0.201713 -1.56304 0
M  V30 8061 C 760.675 0.748466 -2.16635 0
M  V30 8062 C 761.688 1.172 -1.12996 0
M  V30 8063 O 762.877 1.10658 -1.40061 0
M  V30 8064 C 759.977 2.02296 -2.719 0
M  V30 8065 C 759.15 1.75818 -4.00508 0
M  V30 8066 C 758.209 2.87779 -4.40533 0
M  V30 8067 O 757.235 2.57101 -5.07826 0
M  V30 8068 N 758.437 4.16287 -4.04581 0
M  V30 8069 H 761.202 0.232505 -2.98797 0
M  V30 8070 H 758.763 -0.0199822 -1.61888 0
M  V30 8071 H 760.755 2.7635 -2.95657 0
M  V30 8072 H 759.325 2.44996 -1.94154 0
M  V30 8073 H 758.545 0.855095 -3.84814 0
M  V30 8074 H 759.833 1.55532 -4.84445 0
M  V30 8075 H 759.231 4.44061 -3.50466 0
M  V30 8076 H 757.788 4.86946 -4.33274 0
M  V30 8077 N 761.222 1.57436 0.0718424 0
M  V30 8078 C 762.462 1.89082 0.776351 0
M  V30 8079 C 762.826 0.795494 1.74745 0
M  V30 8080 O 764.027 0.995025 2.49705 0
M  V30 8081 C 762.298 3.25958 1.46582 0
M  V30 8082 S 763.857 3.79352 2.2054 0
M  V30 8083 H 760.675 0.662472 0.25817 0
M  V30 8084 H 763.277 1.95473 0.0324536 0
M  V30 8085 H 761.981 4.03577 0.745237 0
M  V30 8086 H 761.512 3.22764 2.24915 0
M  V30 8087 H 763.527 3.54634 3.47058 0
M  V30 8088 N 762.7 -0.34323 1.53817 0
M  V30 8089 C 763.928 -1.10348 1.75017 0
M  V30 8090 C 764.343 -1.82345 0.489475 0
M  V30 8091 O 763.7 -1.74362 -0.538886 0
M  V30 8092 C 763.751 -2.11672 2.93048 0
M  V30 8093 O 763.472 -1.42603 4.14241 0
M  V30 8094 C 764.973 -3.0007 3.26301 0
M  V30 8095 H 762.193 -0.329056 0.584776 0
M  V30 8096 H 764.737 -0.395339 2.00642 0
M  V30 8097 H 762.892 -2.78051 2.69753 0
M  V30 8098 H 763.306 -2.10294 4.80496 0
M  V30 8099 H 764.78 -3.67101 4.12239 0
M  V30 8100 H 765.257 -3.66105 2.42618 0
M  V30 8101 H 765.863 -2.3928 3.51604 0
M  V30 8102 N 764.178 -1.45556 -0.604258 0
M  V30 8103 C 765.088 -1.57025 -1.74299 0
M  V30 8104 C 766.104 -0.45456 -1.67958 0
M  V30 8105 O 767.28 -0.715711 -1.88254 0
M  V30 8106 C 764.345 -1.53702 -3.10768 0
M  V30 8107 C 763.406 -2.76335 -3.28538 0
M  V30 8108 C 762.639 -2.73161 -4.58496 0
M  V30 8109 O 762.862 -1.80678 -5.41028 0
M  V30 8110 O 761.796 -3.64409 -4.79051 0
M  V30 8111 H 765.622 -2.53284 -1.67573 0
M  V30 8112 H 763.207 -1.28104 -0.768745 0
M  V30 8113 H 765.089 -1.54468 -3.92068 0
M  V30 8114 H 763.764 -0.605957 -3.17978 0
M  V30 8115 H 762.671 -2.8113 -2.46813 0
M  V30 8116 H 764.004 -3.68578 -3.26207 0
M  V30 8117 N 765.656 0.84705 -1.32902 0
M  V30 8118 C 766.586 1.97166 -1.25091 0
M  V30 8119 C 767.567 1.69578 -0.133161 0
M  V30 8120 O 768.752 1.91519 -0.321591 0
M  V30 8121 C 765.882 3.33157 -0.981006 0
M  V30 8122 C 764.836 3.75119 -2.06082 0
M  V30 8123 C 764.162 5.08826 -1.64318 0
M  V30 8124 C 765.462 3.89774 -3.47669 0
M  V30 8125 H 767.156 2.03958 -2.19184 0
M  V30 8126 H 764.702 0.979907 -1.05517 0
M  V30 8127 H 766.655 4.11393 -0.912891 0
M  V30 8128 H 765.379 3.266 -0.00445559 0
M  V30 8129 H 764.038 2.9914 -2.11921 0
M  V30 8130 H 763.686 4.98732 -0.653876 0
M  V30 8131 H 763.386 5.37873 -2.36572 0
M  V30 8132 H 764.91 5.89546 -1.58958 0
M  V30 8133 H 766.324 4.58343 -3.44376 0
M  V30 8134 H 764.721 4.30248 -4.18338 0
M  V30 8135 H 765.791 2.92463 -3.86773 0
M  V30 8136 N 767.134 1.16236 1.06428 0
M  V30 8137 C 768.38 0.954417 1.79617 0
M  V30 8138 C 768.735 -0.512411 1.85451 0
M  V30 8139 O 768.028 -1.37523 1.33409 0
M  V30 8140 C 768.222 1.51396 3.2375 0
M  V30 8141 C 768.051 3.03367 3.31962 0
M  V30 8142 C 766.821 3.71996 3.41975 0
M  V30 8143 C 769.019 4.01075 3.21937 0
M  V30 8144 N 767.001 5.11688 3.39187 0
M  V30 8145 C 768.372 5.27142 3.26376 0
M  V30 8146 C 770.427 3.92917 3.05812 0
M  V30 8147 C 769.13 6.46 3.16348 0
M  V30 8148 C 771.156 5.11344 2.97121 0
M  V30 8149 C 770.518 6.36291 3.02181 0
M  V30 8150 H 766.617 0.403007 0.670156 0
M  V30 8151 H 769.201 1.47605 1.26968 0
M  V30 8152 H 767.372 1.01883 3.74799 0
M  V30 8153 H 769.104 1.2439 3.85109 0
M  V30 8154 H 765.859 3.22623 3.46715 0
M  V30 8155 H 766.283 5.84676 3.41297 0
M  V30 8156 H 770.925 2.97172 3.00746 0
M  V30 8157 H 768.643 7.41968 3.2017 0
M  V30 8158 H 772.229 5.06801 2.85734 0
M  V30 8159 H 771.109 7.26389 2.95513 0
M  V30 8160 N 768.612 -1.24939 0.960631 0
M  V30 8161 C 769.86 -1.92437 0.617441 0
M  V30 8162 C 770.181 -1.75543 -0.849101 0
M  V30 8163 O 769.451 -1.12269 -1.60538 0
M  V30 8164 H 768.031 -0.712192 0.225371 0
M  V30 8165 H 770.693 -1.5198 1.22017 0
M  V30 8166 H 769.789 -3.00247 0.851933 0
M  V30 8167 N 770.09 -0.729906 -1.39679 0
M  V30 8168 C 771.501 -0.346241 -1.83461 0
M  V30 8169 C 771.852 1.1215 -1.60987 0
M  V30 8170 O 770.977 1.86456 -1.09832 0
M  V30 8171 C 771.572 -0.621656 -3.33048 0
M  V30 8172 C 770.131 -0.291543 -3.75269 0
M  V30 8173 C 769.278 -0.886844 -2.62736 0
M  V30 8174 H 772.229 -0.927949 -1.28743 0
M  V30 8175 H 772.25 0.108301 -3.80346 0
M  V30 8176 H 771.762 -1.68996 -3.49373 0
M  V30 8177 H 769.863 0.771133 -3.64533 0
M  V30 8178 H 769.976 -0.770544 -4.72863 0
M  V30 8179 H 768.34 -0.313839 -2.52759 0
M  V30 8180 H 769.123 -1.95971 -2.81869 0
M  V30 8181 N 771.568 1.50203 -0.477153 0
M  V30 8182 C 772.816 2.01959 0.0755889 0
M  V30 8183 C 773.137 1.3608 1.39668 0
M  V30 8184 O 772.407 0.508136 1.89195 0
M  V30 8185 H 770.987 0.74636 0.0309248 0
M  V30 8186 H 773.649 1.84473 -0.628959 0
M  V30 8187 H 772.745 3.11305 0.222683 0
M  V30 8188 N 773.046 0.209999 1.56195 0
M  V30 8189 C 774.274 -0.429996 2.02382 0
M  V30 8190 C 774.689 -1.54159 1.08998 0
M  V30 8191 O 774.046 -1.82239 0.0974856 0
M  V30 8192 C 774.097 -0.972433 3.48175 0
M  V30 8193 O 773.818 0.0948231 4.37997 0
M  V30 8194 C 775.319 -1.68683 4.09952 0
M  V30 8195 H 772.539 -0.106475 0.662498 0
M  V30 8196 H 775.083 0.323072 2.01932 0
M  V30 8197 H 773.238 -1.67582 3.49278 0
M  V30 8198 H 773.652 -0.31113 5.23576 0
M  V30 8199 H 775.126 -2.01851 5.13771 0
M  V30 8200 H 775.603 -2.59587 3.54276 0
M  V30 8201 H 776.209 -1.02893 4.12666 0
M  V30 8202 N 774.524 -1.57472 -0.0634922 0
M  V30 8203 C 775.434 -2.07621 -1.09227 0
M  V30 8204 C 776.45 -1.00746 -1.41867 0
M  V30 8205 O 777.626 -1.32269 -1.51878 0
M  V30 8206 C 774.691 -2.51707 -2.38421 0
M  V30 8207 C 773.752 -3.72917 -2.12676 0
M  V30 8208 C 772.985 -4.14891 -3.3571 0
M  V30 8209 O 773.208 -3.56663 -4.45137 0
M  V30 8210 O 772.142 -5.07616 -3.23434 0
M  V30 8211 H 775.968 -2.95612 -0.696205 0
M  V30 8212 H 773.553 -1.46787 -0.27819 0
M  V30 8213 H 775.435 -2.80547 -3.14438 0
M  V30 8214 H 774.11 -1.66842 -2.77391 0
M  V30 8215 H 773.017 -3.49148 -1.34337 0
M  V30 8216 H 774.35 -4.5866 -1.78583 0
M  V30 8217 N 776.003 0.335068 -1.53997 0
M  V30 8218 C 777.249 1.07594 -1.71905 0
M  V30 8219 C 777.582 1.88039 -0.485264 0
M  V30 8220 O 776.857 1.87482 0.517752 0
M  V30 8221 C 777.14 2.01016 -2.98772 0
M  V30 8222 C 776.993 1.23977 -4.32377 0
M  V30 8223 C 778.312 3.0071 -3.21343 0
M  V30 8224 H 775.431 0.38976 -0.625505 0
M  V30 8225 H 778.073 0.353684 -1.86679 0
M  V30 8226 H 776.223 2.62603 -2.86307 0
M  V30 8227 H 777.895 0.649383 -4.56706 0
M  V30 8228 H 776.138 0.541878 -4.30402 0
M  V30 8229 H 776.809 1.92512 -5.17342 0
M  V30 8230 H 779.285 2.4924 -3.33194 0
M  V30 8231 H 778.161 3.63272 -4.11491 0
M  V30 8232 H 778.422 3.72549 -2.38033 0
M  V30 8233 N 777.481 1.45874 0.596531 0
M  V30 8234 C 778.444 1.54988 1.68853 0
M  V30 8235 C 779.444 0.428302 1.54991 0
M  V30 8236 O 780.634 0.692158 1.59859 0
M  V30 8237 C 777.766 1.457 3.08195 0
M  V30 8238 H 778.959 2.52294 1.62135 0
M  V30 8239 H 776.512 1.33479 0.813206 0
M  V30 8240 H 777.247 0.496204 3.20481 0
M  V30 8241 H 777.032 2.27061 3.19665 0
M  V30 8242 H 778.522 1.55133 3.87716 0
M  V30 8243 N 778.959 -0.83999 1.33349 0
M  V30 8244 C 780.236 -1.57973 1.15342 0
M  V30 8245 C 780.616 -2.09226 -0.280632 0
M  V30 8246 O 779.964 -1.89317 -1.2795 0
M  V30 8247 C 780.174 -2.71446 2.19359 0
M  V30 8248 C 781.522 -3.40654 2.53456 0
M  V30 8249 O 782.546 -2.81686 2.18017 0
M  V30 8250 O 781.405 -4.47101 3.14266 0
M  V30 8251 H 778.499 -0.6964 0.446044 0
M  V30 8252 H 781.045 -0.882843 1.44927 0
M  V30 8253 H 779.817 -2.31205 3.1569 0
M  V30 8254 H 779.44 -3.488 1.90852 0
M  V30 8255 N 780.437 -1.16799 -1.0581 0
M  V30 8256 C 781.384 -0.87902 -2.13405 0
M  V30 8257 C 782.354 0.174541 -1.6518 0
M  V30 8258 O 783.539 0.0386843 -1.90761 0
M  V30 8259 C 780.679 -0.391616 -3.42871 0
M  V30 8260 C 779.792 -1.50857 -4.04804 0
M  V30 8261 C 778.927 -0.975682 -5.22163 0
M  V30 8262 C 777.966 -2.06851 -5.76089 0
M  V30 8263 N 777.103 -1.55085 -6.84758 0
M  V30 8264 H 781.943 -1.80043 -2.37463 0
M  V30 8265 H 779.48 -0.898083 -1.16503 0
M  V30 8266 H 781.438 -0.0906247 -4.17102 0
M  V30 8267 H 780.068 0.49284 -3.19016 0
M  V30 8268 H 779.12 -1.92542 -3.28073 0
M  V30 8269 H 780.432 -2.33305 -4.40874 0
M  V30 8270 H 779.586 -0.628165 -6.03439 0
M  V30 8271 H 778.325 -0.120566 -4.87551 0
M  V30 8272 H 777.33 -2.42467 -4.93447 0
M  V30 8273 H 778.555 -2.92768 -6.12751 0
M  V30 8274 H 776.501 -0.718345 -6.52055 0
M  V30 8275 H 776.418 -2.31145 -7.19797 0
M  V30 8276 H 777.686 -1.23206 -7.69702 0
M  V30 8277 N 781.915 1.24427 -0.967243 0
M  V30 8278 C 783.14 1.9708 -0.646069 0
M  V30 8279 C 783.565 1.71272 0.777665 0
M  V30 8280 O 782.923 0.976179 1.52776 0
M  V30 8281 C 782.971 3.48501 -0.926266 0
M  V30 8282 O 782.075 4.12398 -0.0114653 0
M  V30 8283 H 781.416 0.617423 -0.244304 0
M  V30 8284 H 783.946 1.58215 -1.29727 0
M  V30 8285 H 783.956 3.98885 -0.857619 0
M  V30 8286 H 782.631 3.66613 -1.96386 0
M  V30 8287 H 781.208 3.72661 -0.133396 0
M  V30 8288 N 783.393 0.737304 1.3929 0
M  V30 8289 C 784.633 0.290966 2.02318 0
M  V30 8290 C 784.997 -1.10174 1.57244 0
M  V30 8291 O 786.198 -1.64628 2.12488 0
M  V30 8292 C 784.469 0.391767 3.55246 0
M  V30 8293 S 786.028 0.0256103 4.38793 0
M  V30 8294 H 782.846 0.113862 0.701824 0
M  V30 8295 H 785.448 0.964329 1.70062 0
M  V30 8296 H 784.152 1.40662 3.85542 0
M  V30 8297 H 783.683 -0.299338 3.9226 0
M  V30 8298 H 785.698 -1.18991 4.81722 0
M  V30 8299 N 784.871 -1.49948 0.485112 0
M  V30 8300 C 786.101 -2.06506 -0.0621921 0
M  V30 8301 C 786.509 -1.34756 -1.32806 0
M  V30 8302 O 785.852 -0.41466 -1.78959 0
M  V30 8303 C 785.914 -3.57243 -0.402182 0
M  V30 8304 C 785.578 -4.50574 0.763671 0
M  V30 8305 C 786.575 -4.93032 1.6497 0
M  V30 8306 C 784.26 -4.9308 0.957973 0
M  V30 8307 C 786.254 -5.76718 2.71432 0
M  V30 8308 C 783.941 -5.76546 2.0258 0
M  V30 8309 C 784.939 -6.18267 2.90232 0
M  V30 8310 O 784.627 -7.00066 3.95174 0
M  V30 8311 H 784.359 -0.675925 0.0100672 0
M  V30 8312 H 786.913 -1.93922 0.677023 0
M  V30 8313 H 785.143 -3.6778 -1.19478 0
M  V30 8314 H 786.832 -3.96107 -0.886219 0
M  V30 8315 H 787.598 -4.60851 1.51134 0
M  V30 8316 H 783.477 -4.60117 0.285144 0
M  V30 8317 H 787.021 -6.09203 3.39878 0
M  V30 8318 H 782.918 -6.0814 2.16417 0
M  V30 8319 H 783.686 -7.18343 3.92333 0
M  V30 8320 N 786.349 -0.21828 -1.56081 0
M  V30 8321 C 787.297 0.709679 -2.21509 0
M  V30 8322 C 788.291 1.20221 -1.19346 0
M  V30 8323 O 789.497 1.16241 -1.37433 0
M  V30 8324 H 785.872 0.247271 -0.710184 0
M  V30 8325 H 787.843 0.134386 -2.98097 0
M  V30 8326 C 786.592 1.90853 -2.90638 0
M  V30 8327 H 785.915 1.53865 -3.69006 0
M  V30 8328 H 787.355 2.53568 -3.39822 0
M  V30 8329 C 785.814 2.76189 -1.92929 0
M  V30 8330 O 786.344 3.74842 -1.44416 0
M  V30 8331 N 784.55 2.42157 -1.6065 0
M  V30 8332 H 784.097 1.61987 -2.00294 0
M  V30 8333 H 784.055 2.99534 -0.955347 0
M  V30 8334 N 787.827 1.57504 0.0551401 0
M  V30 8335 C 789.243 1.54236 0.410292 0
M  V30 8336 C 789.443 0.940839 1.78187 0
M  V30 8337 O 788.499 0.550541 2.46425 0
M  V30 8338 C 789.812 2.98816 0.336064 0
M  V30 8339 C 791.36 3.10236 0.415047 0
M  V30 8340 C 791.835 4.56499 0.37055 0
M  V30 8341 N 793.326 4.61199 0.43013 0
M  V30 8342 C 794.061 5.71873 0.418179 0
M  V30 8343 N 793.557 6.91864 0.360056 0
M  V30 8344 N 795.35 5.60165 0.465977 0
M  V30 8345 H 787.501 1.94965 -0.842759 0
M  V30 8346 H 789.764 0.893096 -0.317937 0
M  V30 8347 H 789.47 3.4645 -0.605429 0
M  V30 8348 H 789.344 3.59564 1.13988 0
M  V30 8349 H 791.731 2.62566 1.34697 0
M  V30 8350 H 791.812 2.52367 -0.417648 0
M  V30 8351 H 791.456 5.0483 -0.557592 0
M  V30 8352 H 791.386 5.12249 1.221 0
M  V30 8353 H 793.877 3.74857 0.478623 0
M  V30 8354 H 794.19 7.71983 0.35532 0
M  V30 8355 H 792.535 6.94233 0.326492 0
M  V30 8356 H 795.726 4.65322 0.509194 0
M  V30 8357 H 795.899 6.46413 0.453194 0
M  V30 8358 N 789.305 -0.326896 1.54172 0
M  V30 8359 C 790.253 -1.42232 1.84046 0
M  V30 8360 C 791.247 -1.53705 0.712115 0
M  V30 8361 O 792.453 -1.56131 0.895724 0
M  V30 8362 H 788.828 -0.474568 0.583343 0
M  V30 8363 H 790.799 -1.14259 2.75658 0
M  V30 8364 C 789.548 -2.78502 2.08163 0
M  V30 8365 H 788.871 -2.70447 2.94446 0
M  V30 8366 H 790.311 -3.54228 2.33021 0
M  V30 8367 C 788.77 -3.25415 0.872152 0
M  V30 8368 O 789.3 -4.01621 0.0797648 0
M  V30 8369 N 787.506 -2.82418 0.684716 0
M  V30 8370 H 787.053 -2.20566 1.33072 0
M  V30 8371 H 787.011 -3.14159 -0.123031 0
M  V30 8372 N 790.784 -1.46188 -0.588786 0
M  V30 8373 C 791.694 -1.58865 -1.72624 0
M  V30 8374 C 792.71 -0.472348 -1.67466 0
M  V30 8375 O 793.886 -0.735638 -1.87484 0
M  V30 8376 C 790.951 -1.56989 -3.0912 0
M  V30 8377 C 790.012 -2.79804 -3.25589 0
M  V30 8378 C 789.245 -2.78009 -4.55573 0
M  V30 8379 O 789.468 -1.86406 -5.39082 0
M  V30 8380 O 788.402 -3.6947 -4.75159 0
M  V30 8381 H 792.228 -2.55047 -1.64878 0
M  V30 8382 H 789.813 -1.28912 -0.755115 0
M  V30 8383 H 791.695 -1.58618 -3.90408 0
M  V30 8384 H 790.37 -0.639648 -3.17317 0
M  V30 8385 H 789.277 -2.83732 -2.43818 0
M  V30 8386 H 790.61 -3.72017 -3.22279 0
M  V30 8387 N 792.262 0.832906 -1.33792 0
M  V30 8388 C 793.51 1.58539 -1.25338 0
M  V30 8389 C 793.831 1.94175 0.179204 0
M  V30 8390 O 793.101 1.61458 1.10941 0
M  V30 8391 H 791.681 0.58784 -0.460926 0
M  V30 8392 H 794.343 0.995064 -1.67584 0
M  V30 8393 H 793.439 2.51268 -1.85123 0
M  V30 8394 N 793.74 1.17359 1.05189 0
M  V30 8395 C 794.988 0.960087 1.77839 0
M  V30 8396 C 795.309 -0.512554 1.88143 0
M  V30 8397 O 794.579 -1.3721 1.39822 0
M  V30 8398 H 793.159 0.352234 0.658741 0
M  V30 8399 H 795.821 1.47834 1.27008 0
M  V30 8400 H 794.917 1.38843 2.79516 0
M  V30 8401 N 795.218 -1.23913 0.973828 0
M  V30 8402 C 796.443 -1.96735 0.656511 0
M  V30 8403 C 796.868 -1.71682 -0.768571 0
M  V30 8404 O 796.226 -0.984267 -1.52256 0
M  V30 8405 C 796.274 -3.48004 0.944735 0
M  V30 8406 O 795.378 -4.12387 0.0333357 0
M  V30 8407 H 794.719 -0.616119 0.247575 0
M  V30 8408 H 797.249 -1.57525 1.30564 0
M  V30 8409 H 797.259 -3.98424 0.87876 0
M  V30 8410 H 795.934 -3.65567 1.98328 0
M  V30 8411 H 794.511 -3.72585 0.153157 0
M  V30 8412 N 796.696 -0.74468 -1.38897 0
M  V30 8413 C 797.643 -0.111064 -2.30533 0
M  V30 8414 C 798.613 0.719276 -1.49719 0
M  V30 8415 O 799.798 0.677244 -1.78376 0
M  V30 8416 C 796.938 0.78292 -3.36102 0
M  V30 8417 C 796.051 -0.0610817 -4.31957 0
M  V30 8418 C 795.186 0.835075 -5.24595 0
M  V30 8419 C 794.225 -0.0130974 -6.12099 0
M  V30 8420 N 793.362 0.839525 -6.97063 0
M  V30 8421 H 798.202 -0.898113 -2.84144 0
M  V30 8422 H 795.739 -0.454537 -1.39901 0
M  V30 8423 H 797.697 1.31578 -3.95908 0
M  V30 8424 H 796.327 1.53585 -2.83922 0
M  V30 8425 H 795.379 -0.711469 -3.73687 0
M  V30 8426 H 796.691 -0.716482 -4.93627 0
M  V30 8427 H 795.845 1.43542 -5.89475 0
M  V30 8428 H 794.584 1.52423 -4.63269 0
M  V30 8429 H 793.589 -0.626179 -5.46223 0
M  V30 8430 H 794.814 -0.699181 -6.75491 0
M  V30 8431 H 792.76 1.5138 -6.38295 0
M  V30 8432 H 792.677 0.240823 -7.55616 0
M  V30 8433 H 793.945 1.42513 -7.66362 0
M  V30 8434 N 798.174 1.49689 -0.493057 0
M  V30 8435 C 799.404 2.06536 0.0512397 0
M  V30 8436 C 799.812 1.35459 1.32089 0
M  V30 8437 O 799.155 0.424145 1.78736 0
M  V30 8438 C 799.217 3.57452 0.383231 0
M  V30 8439 C 798.881 4.50163 -0.787555 0
M  V30 8440 C 799.878 4.92151 -1.67582 0
M  V30 8441 C 797.563 4.92565 -0.984109 0
M  V30 8442 C 799.557 5.7527 -2.74487 0
M  V30 8443 C 797.244 5.75463 -2.05634 0
M  V30 8444 C 798.242 6.16719 -2.93507 0
M  V30 8445 O 797.93 6.97961 -3.98881 0
M  V30 8446 H 797.662 0.675862 -0.0136516 0
M  V30 8447 H 800.216 1.9356 -0.687298 0
M  V30 8448 H 798.446 3.68408 1.17526 0
M  V30 8449 H 800.135 3.96572 0.8652 0
M  V30 8450 H 800.901 4.60043 -1.53575 0
M  V30 8451 H 796.78 4.5996 -0.309541 0
M  V30 8452 H 800.324 6.07392 -3.43104 0
M  V30 8453 H 796.221 6.06983 -2.19639 0
M  V30 8454 H 796.989 7.16253 -3.96137 0
M  V30 8455 N 799.652 0.226554 1.55963 0
M  V30 8456 C 800.9 -0.402991 1.98041 0
M  V30 8457 C 801.221 -1.59938 1.11557 0
M  V30 8458 O 800.491 -1.9494 0.193719 0
M  V30 8459 H 799.071 -0.15188 0.731397 0
M  V30 8460 H 801.733 0.320613 1.92245 0
M  V30 8461 H 800.829 -0.725937 3.0354 0
M  V30 8462 N 801.13 -1.57531 -0.0467866 0
M  V30 8463 C 802.36 -1.92417 -0.752279 0
M  V30 8464 C 802.768 -0.823134 -1.70356 0
M  V30 8465 O 802.111 0.210598 -1.82489 0
M  V30 8466 C 802.173 -3.22974 -1.57887 0
M  V30 8467 C 801.837 -4.50045 -0.794285 0
M  V30 8468 C 802.834 -5.19799 -0.102368 0
M  V30 8469 C 800.519 -4.96608 -0.754061 0
M  V30 8470 C 802.513 -6.34385 0.619267 0
M  V30 8471 C 800.2 -6.11093 -0.0286682 0
M  V30 8472 C 801.198 -6.79835 0.656772 0
M  V30 8473 O 800.886 -7.92133 1.37042 0
M  V30 8474 H 800.618 -0.640029 -0.217576 0
M  V30 8475 H 803.172 -2.05395 -0.0137438 0
M  V30 8476 H 801.402 -3.06273 -2.3608 0
M  V30 8477 H 803.091 -3.43319 -2.16533 0
M  V30 8478 H 803.857 -4.8484 -0.124589 0
M  V30 8479 H 799.736 -4.42958 -1.27706 0
M  V30 8480 H 803.28 -6.87975 1.15483 0
M  V30 8481 H 799.177 -6.455 -0.00446214 0
M  V30 8482 H 799.945 -8.08394 1.28227 0
M  V30 8483 N 802.608 0.318715 -1.54344 0
M  V30 8484 C 803.848 1.06425 -1.74508 0
M  V30 8485 C 804.212 1.85087 -0.510572 0
M  V30 8486 O 805.413 2.62253 -0.589647 0
M  V30 8487 C 803.684 1.96054 -2.98827 0
M  V30 8488 S 805.243 2.77493 -3.39916 0
M  V30 8489 H 802.061 0.35921 -0.613587 0
M  V30 8490 H 804.663 0.339679 -1.92526 0
M  V30 8491 H 803.367 1.37109 -3.8682 0
M  V30 8492 H 802.898 2.72908 -2.83346 0
M  V30 8493 H 804.913 3.98544 -2.95596 0
M  V30 8494 N 804.086 1.46499 0.581025 0
M  V30 8495 C 805.502 1.31491 0.904563 0
M  V30 8496 C 805.702 0.287598 1.99437 0
M  V30 8497 O 804.758 -0.309247 2.50599 0
M  V30 8498 C 806.071 2.70163 1.32032 0
M  V30 8499 C 807.619 2.78266 1.43308 0
M  V30 8500 C 808.094 4.17524 1.8825 0
M  V30 8501 N 809.585 4.19949 1.9544 0
M  V30 8502 C 810.32 5.24594 2.31493 0
M  V30 8503 N 809.816 6.39564 2.66326 0
M  V30 8504 N 811.609 5.11961 2.32062 0
M  V30 8505 H 803.76 2.11946 -0.138856 0
M  V30 8506 H 806.023 0.948 0.000548528 0
M  V30 8507 H 805.729 3.46655 0.593554 0
M  V30 8508 H 805.603 3.00379 2.2815 0
M  V30 8509 H 807.99 2.02061 2.15071 0
M  V30 8510 H 808.071 2.51732 0.45438 0
M  V30 8511 H 807.715 4.94225 1.17065 0
M  V30 8512 H 807.645 4.41466 2.87081 0
M  V30 8513 H 810.136 3.36996 1.71004 0
M  V30 8514 H 810.449 7.15187 2.92793 0
M  V30 8515 H 808.794 6.42923 2.6396 0
M  V30 8516 H 811.985 4.21177 2.04272 0
M  V30 8517 H 812.158 5.93626 2.5983 0
M  V30 8518 N 805.565 -0.825799 1.34232 0
M  V30 8519 C 806.981 -1.11848 1.13851 0
M  V30 8520 C 807.181 -2.01405 -0.0619031 0
M  V30 8521 O 806.237 -2.41465 -0.738287 0
M  V30 8522 C 807.55 -1.76797 2.43235 0
M  V30 8523 C 809.098 -1.89304 2.49265 0
M  V30 8524 C 809.573 -2.57669 3.78643 0
M  V30 8525 N 811.064 -2.65171 3.79788 0
M  V30 8526 C 811.799 -3.1879 4.76614 0
M  V30 8527 N 811.295 -3.72995 5.83821 0
M  V30 8528 N 813.088 -3.17164 4.64073 0
M  V30 8529 H 805.239 -0.230049 2.11151 0
M  V30 8530 H 807.502 -0.164609 0.9336 0
M  V30 8531 H 807.208 -1.18455 3.31152 0
M  V30 8532 H 807.082 -2.76693 2.56361 0
M  V30 8533 H 809.469 -2.46796 1.6179 0
M  V30 8534 H 809.55 -0.883191 2.4007 0
M  V30 8535 H 809.194 -2.00833 4.66507 0
M  V30 8536 H 809.124 -3.59152 3.8512 0
M  V30 8537 H 811.615 -2.26746 3.02315 0
M  V30 8538 H 811.928 -4.12151 6.53721 0
M  V30 8539 H 810.273 -3.71246 5.87538 0
M  V30 8540 H 813.464 -2.74082 3.79469 0
M  V30 8541 H 813.637 -3.58647 5.397 0
M  V30 8542 N 807.043 -1.17915 -1.04565 0
M  V30 8543 C 808.289 -0.972863 -1.77942 0
M  V30 8544 C 808.622 0.496753 -1.87739 0
M  V30 8545 O 807.897 1.3688 -1.38181 0
M  V30 8546 C 808.18 -1.62227 -3.21488 0
M  V30 8547 C 808.033 -3.16441 -3.19664 0
M  V30 8548 C 809.352 -1.33137 -4.19479 0
M  V30 8549 H 806.471 -0.354843 -0.645953 0
M  V30 8550 H 809.113 -1.45508 -1.22178 0
M  V30 8551 H 807.263 -1.21224 -3.69103 0
M  V30 8552 H 808.935 -3.66544 -2.80077 0
M  V30 8553 H 807.178 -3.48863 -2.57832 0
M  V30 8554 H 807.849 -3.57012 -4.21006 0
M  V30 8555 H 810.325 -1.68654 -3.80388 0
M  V30 8556 H 809.201 -1.81151 -5.18146 0
M  V30 8557 H 809.462 -0.253319 -4.41374 0
M  V30 8558 N 808.521 1.23394 -0.980386 0
M  V30 8559 C 809.798 1.87242 -0.565667 0
M  V30 8560 C 810.178 1.88151 0.957197 0
M  V30 8561 O 809.526 1.36309 1.8339 0
M  V30 8562 C 809.736 3.28743 -1.17172 0
M  V30 8563 C 811.084 4.05335 -1.26446 0
M  V30 8564 O 812.108 3.37962 -1.12517 0
M  V30 8565 O 810.967 5.25908 -1.48604 0
M  V30 8566 H 808.061 0.80477 -0.190459 0
M  V30 8567 H 810.607 1.3127 -1.07547 0
M  V30 8568 H 809.379 3.22647 -2.21392 0
M  V30 8569 H 809.002 3.92305 -0.646739 0
M  V30 8570 N 809.999 0.752036 1.385 0
M  V30 8571 C 811.276 0.233075 1.94206 0
M  V30 8572 C 811.656 -1.26838 1.68746 0
M  V30 8573 O 811.004 -2.04214 1.02513 0
M  V30 8574 C 811.214 0.58509 3.44061 0
M  V30 8575 C 812.562 0.543871 4.21102 0
M  V30 8576 O 813.586 0.523291 3.52335 0
M  V30 8577 O 812.445 0.553436 5.4369 0
M  V30 8578 H 809.539 0.0483049 0.825588 0
M  V30 8579 H 812.085 0.832053 1.47902 0
M  V30 8580 H 810.857 1.62212 3.56094 0
M  V30 8581 H 810.48 -0.0419738 3.97578 0
M  V30 8582 N 811.477 -1.49425 0.500989 0
M  V30 8583 C 812.705 -2.06861 -0.0403443 0
M  V30 8584 C 813.12 -1.36132 -1.30819 0
M  V30 8585 O 812.477 -0.439647 -1.77125 0
M  V30 8586 C 812.528 -3.6027 -0.297902 0
M  V30 8587 O 812.249 -4.28338 0.919686 0
M  V30 8588 C 813.75 -4.34419 -0.882876 0
M  V30 8589 H 810.97 -0.670688 0.0204619 0
M  V30 8590 H 813.514 -1.92207 0.698342 0
M  V30 8591 H 811.669 -3.74627 -0.98657 0
M  V30 8592 H 812.083 -5.2004 0.682528 0
M  V30 8593 H 813.557 -5.42631 -1.01268 0
M  V30 8594 H 814.034 -3.96898 -1.88066 0
M  V30 8595 H 814.64 -4.24669 -0.231677 0
M  V30 8596 N 812.955 -0.234822 -1.55841 0
M  V30 8597 C 813.885 0.664217 -2.23854 0
M  V30 8598 C 814.866 1.19076 -1.2147 0
M  V30 8599 O 816.051 1.23232 -1.50091 0
M  V30 8600 C 813.181 1.86666 -2.9287 0
M  V30 8601 C 812.135 1.47341 -4.01839 0
M  V30 8602 C 811.461 2.75571 -4.58219 0
M  V30 8603 C 812.761 0.653479 -5.18196 0
M  V30 8604 H 814.455 0.0971213 -2.99242 0
M  V30 8605 H 812.001 0.0452724 -1.43929 0
M  V30 8606 H 813.954 2.50116 -3.39146 0
M  V30 8607 H 812.678 2.45894 -2.1495 0
M  V30 8608 H 811.337 0.862314 -3.56314 0
M  V30 8609 H 810.985 3.32971 -3.77014 0
M  V30 8610 H 810.685 2.49987 -5.31771 0
M  V30 8611 H 812.209 3.39939 -5.07221 0
M  V30 8612 H 813.623 1.19198 -5.60771 0
M  V30 8613 H 812.02 0.494188 -5.98062 0
M  V30 8614 H 813.09 -0.337004 -4.83728 0
M  V30 8615 N 814.433 1.57553 0.0384317 0
M  V30 8616 C 815.682 1.88022 0.730108 0
M  V30 8617 C 815.995 0.83209 1.77019 0
M  V30 8618 O 817.201 1.0257 2.51379 0
M  V30 8619 C 815.657 3.33637 1.3496 0
M  V30 8620 C 815.265 4.46659 0.346352 0
M  V30 8621 C 817.009 3.73266 2.02169 0
M  V30 8622 C 814.916 5.8333 0.973652 0
M  V30 8623 H 813.846 0.701496 0.276442 0
M  V30 8624 H 816.497 1.83493 -0.0158028 0
M  V30 8625 H 814.879 3.32882 2.1449 0
M  V30 8626 H 816.053 4.58868 -0.421558 0
M  V30 8627 H 814.368 4.15802 -0.223133 0
M  V30 8628 H 816.965 4.72689 2.49938 0
M  V30 8629 H 817.308 3.04776 2.8358 0
M  V30 8630 H 817.841 3.76156 1.29427 0
M  V30 8631 H 814.58 6.55197 0.199163 0
M  V30 8632 H 814.1 5.7486 1.71162 0
M  V30 8633 H 815.779 6.29757 1.48376 0
M  V30 8634 N 815.911 -0.310526 1.54511 0
M  V30 8635 C 817.322 -0.884142 1.64438 0
M  V30 8636 C 817.673 -1.88425 0.546855 0
M  V30 8637 O 816.798 -2.14049 -0.31811 0
M  V30 8638 C 817.393 -1.6104 2.9808 0
M  V30 8639 C 815.952 -2.13255 3.1016 0
M  V30 8640 C 815.099 -0.96213 2.60074 0
M  V30 8641 H 818.05 -0.0877666 1.58457 0
M  V30 8642 H 818.071 -2.47541 2.8897 0
M  V30 8643 H 817.583 -0.882255 3.77939 0
M  V30 8644 H 815.684 -2.89145 2.35002 0
M  V30 8645 H 815.797 -2.37361 4.16169 0
M  V30 8646 H 814.161 -1.34501 2.16291 0
M  V30 8647 H 814.944 -0.248098 3.42402 0
M  V30 8648 N 817.389 -1.46805 -0.573248 0
M  V30 8649 C 818.629 -1.5417 -1.34205 0
M  V30 8650 C 818.993 -0.192675 -1.91031 0
M  V30 8651 O 820.194 -0.141111 -2.68429 0
M  V30 8652 C 818.465 -2.61682 -2.43428 0
M  V30 8653 S 820.024 -2.88519 -3.30609 0
M  V30 8654 H 816.842 -0.544592 -0.4571 0
M  V30 8655 H 819.444 -1.84094 -0.658001 0
M  V30 8656 H 818.148 -3.58319 -2.00088 0
M  V30 8657 H 817.679 -2.33521 -3.16594 0
M  V30 8658 H 819.694 -2.2451 -4.42504 0
M  V30 8659 N 818.867 0.818669 -1.34668 0
M  V30 8660 C 819.814 1.92983 -1.26595 0
M  V30 8661 C 820.784 1.65506 -0.140315 0
M  V30 8662 O 821.969 1.88063 -0.322005 0
M  V30 8663 C 819.109 3.2932 -1.03163 0
M  V30 8664 C 818.222 3.69061 -2.24539 0
M  V30 8665 C 817.357 4.94368 -1.94355 0
M  V30 8666 C 816.396 5.26702 -3.11851 0
M  V30 8667 N 815.533 6.43187 -2.81522 0
M  V30 8668 H 820.373 1.99219 -2.2162 0
M  V30 8669 H 817.91 0.974612 -1.1018 0
M  V30 8670 H 819.868 4.07897 -0.87613 0
M  V30 8671 H 818.498 3.22584 -0.118045 0
M  V30 8672 H 817.55 2.85842 -2.50995 0
M  V30 8673 H 818.862 3.88924 -3.12313 0
M  V30 8674 H 818.016 5.80742 -1.75566 0
M  V30 8675 H 816.755 4.76515 -1.03848 0
M  V30 8676 H 815.76 4.38823 -3.31231 0
M  V30 8677 H 816.985 5.46492 -4.03142 0
M  V30 8678 H 814.931 6.26783 -1.93596 0
M  V30 8679 H 814.848 6.63243 -3.62829 0
M  V30 8680 H 816.116 7.32621 -2.66247 0
M  V30 8681 N 820.346 1.18468 1.03938 0
M  V30 8682 C 821.309 0.914944 2.10146 0
M  V30 8683 C 822.309 -0.10022 1.60487 0
M  V30 8684 O 823.499 0.133365 1.73689 0
M  V30 8685 C 820.631 0.372993 3.38853 0
M  V30 8686 H 821.824 1.85677 2.35508 0
M  V30 8687 H 819.377 0.996876 1.20383 0
M  V30 8688 H 820.112 -0.57538 3.19155 0
M  V30 8689 H 819.897 1.1048 3.76213 0
M  V30 8690 H 821.387 0.203014 4.17106 0
M  V30 8691 N 821.824 -1.22873 0.986916 0
M  V30 8692 C 822.772 -2.26597 0.525043 0
M  V30 8693 C 823.766 -1.64079 -0.421252 0
M  V30 8694 O 824.972 -1.77576 -0.294429 0
M  V30 8695 H 821.347 -0.736606 0.151381 0
M  V30 8696 H 823.318 -2.62909 1.41142 0
M  V30 8697 C 822.067 -3.47374 -0.150542 0
M  V30 8698 H 821.39 -3.95737 0.568541 0
M  V30 8699 H 822.83 -4.21739 -0.437256 0
M  V30 8700 C 821.289 -3.07163 -1.38392 0
M  V30 8701 O 821.819 -3.16028 -2.47971 0
M  V30 8702 N 820.025 -2.62009 -1.25697 0
M  V30 8703 H 819.572 -2.54996 -0.365355 0
M  V30 8704 H 819.53 -2.35472 -2.08327 0
M  V30 8705 N 823.302 -0.75937 -1.38099 0
M  V30 8706 C 824.579 -0.243371 -1.9408 0
M  V30 8707 C 824.959 1.25942 -1.69416 0
M  V30 8708 O 824.307 2.03667 -1.03595 0
M  V30 8709 C 824.517 -0.603328 -3.43745 0
M  V30 8710 C 825.865 -0.566195 -4.20808 0
M  V30 8711 O 826.889 -0.541969 -3.52053 0
M  V30 8712 O 825.748 -0.582261 -5.43389 0
M  V30 8713 H 822.842 -0.0526825 -0.82532 0
M  V30 8714 H 825.388 -0.839884 -1.47459 0
M  V30 8715 H 824.16 -1.64098 -3.55229 0
M  V30 8716 H 823.783 0.0208887 -3.97595 0
M  V30 8717 N 824.78 1.49157 -0.508906 0
M  V30 8718 C 826.008 2.06879 0.0293734 0
M  V30 8719 C 826.423 1.36823 1.30095 0
M  V30 8720 O 825.78 0.449034 1.7689 0
M  V30 8721 C 825.831 3.60423 0.278791 0
M  V30 8722 O 825.552 4.27844 -0.942389 0
M  V30 8723 C 827.053 4.34881 0.859825 0
M  V30 8724 H 824.273 0.67057 -0.0240184 0
M  V30 8725 H 826.817 1.91834 -0.708526 0
M  V30 8726 H 824.972 3.75145 0.966689 0
M  V30 8727 H 825.386 5.19671 -0.710097 0
M  V30 8728 H 826.86 5.43161 0.983884 0
M  V30 8729 H 827.337 3.9789 1.85958 0
M  V30 8730 H 827.943 4.24785 0.209152 0
M  V30 8731 N 826.258 0.243083 1.55714 0
M  V30 8732 C 827.191 -0.698623 2.17243 0
M  V30 8733 C 828.169 -1.1756 1.12331 0
M  V30 8734 O 829.353 -1.25444 1.40699 0
M  V30 8735 C 826.48 -1.94901 2.77004 0
M  V30 8736 C 825.526 -1.61022 3.94936 0
M  V30 8737 S 826.359 -0.716173 5.30689 0
M  V30 8738 C 827.515 -1.97565 5.93901 0
M  V30 8739 H 827.748 -0.175724 2.9678 0
M  V30 8740 H 825.281 0.0275727 1.54375 0
M  V30 8741 H 827.239 -2.66687 3.12071 0
M  V30 8742 H 825.9 -2.44304 1.9742 0
M  V30 8743 H 825.093 -2.5398 4.35328 0
M  V30 8744 H 824.695 -0.972829 3.61126 0
M  V30 8745 H 826.987 -2.92333 6.11186 0
M  V30 8746 H 827.93 -1.61528 6.8943 0
M  V30 8747 H 828.338 -2.126 5.22935 0
M  V30 8748 N 827.736 -1.57571 -0.0300757 0
M  V30 8749 C 828.976 -1.91074 -0.725946 0
M  V30 8750 C 829.34 -0.841545 -1.72575 0
M  V30 8751 O 830.541 -1.06088 -2.46979 0
M  V30 8752 C 828.812 -3.2973 -1.37888 0
M  V30 8753 S 830.371 -3.85065 -2.10405 0
M  V30 8754 H 827.189 -0.669084 -0.240515 0
M  V30 8755 H 829.791 -1.9549 0.019384 0
M  V30 8756 H 828.495 -4.05411 -0.637974 0
M  V30 8757 H 828.026 -3.28614 -2.16278 0
M  V30 8758 H 830.041 -3.63711 -3.37533 0
M  V30 8759 N 829.214 0.302327 -1.54673 0
M  V30 8760 C 830.462 1.03565 -1.73547 0
M  V30 8761 C 830.783 1.87843 -0.523448 0
M  V30 8762 O 830.053 1.90367 0.462295 0
M  V30 8763 H 828.633 0.385358 -0.639928 0
M  V30 8764 H 831.295 0.333632 -1.92023 0
M  V30 8765 H 830.391 1.68952 -2.62415 0
M  V30 8766 N 830.692 1.47107 0.565454 0
M  V30 8767 C 831.639 1.58974 1.6732 0
M  V30 8768 C 832.609 0.433146 1.60353 0
M  V30 8769 O 833.794 0.652141 1.79309 0
M  V30 8770 C 830.934 1.60224 3.05651 0
M  V30 8771 C 830.047 2.86741 3.23116 0
M  V30 8772 C 829.182 2.79381 4.51796 0
M  V30 8773 C 828.221 4.0076 4.62664 0
M  V30 8774 N 827.358 3.91685 5.8269 0
M  V30 8775 H 832.198 2.53588 1.56515 0
M  V30 8776 H 829.735 1.25791 0.762558 0
M  V30 8777 H 831.693 1.58933 3.85741 0
M  V30 8778 H 830.323 0.691285 3.15311 0
M  V30 8779 H 829.375 2.97936 2.36513 0
M  V30 8780 H 830.687 3.7665 3.27011 0
M  V30 8781 H 829.841 2.76293 5.40136 0
M  V30 8782 H 828.58 1.87142 4.50366 0
M  V30 8783 H 827.585 4.04162 3.72738 0
M  V30 8784 H 828.81 4.94117 4.6586 0
M  V30 8785 H 826.756 3.02243 5.82224 0
M  V30 8786 H 826.673 4.75264 5.87929 0
M  V30 8787 H 827.941 3.92599 6.73414 0
M  V30 8788 N 832.17 -0.811516 1.35101 0
M  V30 8789 C 833.1 -1.9378 1.30275 0
M  V30 8790 C 834.081 -1.69165 0.178075 0
M  V30 8791 O 835.266 -1.90599 0.372256 0
M  V30 8792 C 832.396 -3.30439 1.06899 0
M  V30 8793 C 831.35 -3.69523 2.15955 0
M  V30 8794 C 830.676 -5.0429 1.77751 0
M  V30 8795 C 831.976 -3.80419 3.57881 0
M  V30 8796 H 833.67 -1.98075 2.24514 0
M  V30 8797 H 831.216 -0.951586 1.08078 0
M  V30 8798 H 833.169 -4.08828 1.02164 0
M  V30 8799 H 831.893 -3.26473 0.0910462 0
M  V30 8800 H 830.552 -2.93416 2.19778 0
M  V30 8801 H 830.2 -4.96823 0.785876 0
M  V30 8802 H 829.9 -5.31411 2.5075 0
M  V30 8803 H 831.424 -5.85125 1.74533 0
M  V30 8804 H 832.838 -4.49051 3.56407 0
M  V30 8805 H 831.235 -4.19005 4.29598 0
M  V30 8806 H 832.305 -2.82105 3.94391 0
M  V30 8807 N 833.648 -1.19017 -1.03309 0
M  V30 8808 C 834.895 -0.990214 -1.76638 0
M  V30 8809 C 835.223 0.479435 -1.88498 0
M  V30 8810 O 834.478 1.37223 -1.39529 0
M  V30 8811 C 834.777 -1.59927 -3.19622 0
M  V30 8812 C 834.443 -3.09632 -3.27779 0
M  V30 8813 C 833.105 -3.50491 -3.29712 0
M  V30 8814 C 835.457 -4.05644 -3.27264 0
M  V30 8815 C 832.785 -4.85921 -3.28782 0
M  V30 8816 C 835.137 -5.41 -3.27875 0
M  V30 8817 C 833.801 -5.81295 -3.28104 0
M  V30 8818 H 833.071 -0.362345 -0.646364 0
M  V30 8819 H 835.718 -1.48197 -1.21284 0
M  V30 8820 H 834.023 -1.0297 -3.78027 0
M  V30 8821 H 835.72 -1.41989 -3.7502 0
M  V30 8822 H 832.31 -2.77073 -3.26999 0
M  V30 8823 H 836.494 -3.75124 -3.24955 0
M  V30 8824 H 831.75 -5.16427 -3.27281 0
M  V30 8825 H 835.924 -6.15157 -3.26428 0
M  V30 8826 H 833.551 -6.86211 -3.27138 0
M  V30 8827 N 835.127 1.22348 -0.993418 0
M  V30 8828 C 836.367 1.92835 -0.677779 0
M  V30 8829 C 836.731 1.75624 0.775893 0
M  V30 8830 O 837.932 2.40379 1.20297 0
M  V30 8831 C 836.203 3.40906 -1.07322 0
M  V30 8832 S 837.762 4.29966 -0.876032 0
M  V30 8833 H 834.58 0.666421 -0.247799 0
M  V30 8834 H 837.182 1.48133 -1.27581 0
M  V30 8835 H 835.886 3.50946 -2.12756 0
M  V30 8836 H 835.417 3.90618 -0.467015 0
M  V30 8837 H 837.432 4.95652 0.233162 0
M  V30 8838 N 836.605 0.766683 1.37694 0
M  V30 8839 C 837.537 0.107798 2.28946 0
M  V30 8840 C 838.55 -0.669701 1.48387 0
M  V30 8841 O 839.739 -0.508629 1.711 0
M  V30 8842 C 836.839 -0.871084 3.27514 0
M  V30 8843 C 836.012 -0.148471 4.37148 0
M  V30 8844 C 835.071 -1.03998 5.1582 0
M  V30 8845 O 834.097 -0.505639 5.6695 0
M  V30 8846 N 835.299 -2.36679 5.3006 0
M  V30 8847 H 838.064 0.89154 2.86132 0
M  V30 8848 H 835.625 0.618593 1.49616 0
M  V30 8849 H 837.617 -1.47081 3.77027 0
M  V30 8850 H 836.187 -1.55582 2.71133 0
M  V30 8851 H 835.407 0.632117 3.89099 0
M  V30 8852 H 836.695 0.351045 5.07588 0
M  V30 8853 H 836.093 -2.82532 4.90094 0
M  V30 8854 H 834.65 -2.9167 5.82899 0
M  V30 8855 N 838.083 -1.48885 0.516809 0
M  V30 8856 C 839.331 -2.02088 -0.0220166 0
M  V30 8857 C 839.652 -1.39735 -1.36011 0
M  V30 8858 O 838.922 -0.558119 -1.87781 0
M  V30 8859 H 837.502 -0.746917 -0.0111255 0
M  V30 8860 H 840.164 -1.8274 0.677647 0
M  V30 8861 H 839.26 -3.11786 -0.140067 0
M  V30 8862 N 839.561 -0.251338 -1.55583 0
M  V30 8863 C 840.809 0.371434 -1.98657 0
M  V30 8864 C 841.13 1.58143 -1.14087 0
M  V30 8865 O 840.4 1.94607 -0.224708 0
M  V30 8866 H 838.98 0.140225 -0.733721 0
M  V30 8867 H 841.642 -0.351157 -1.9171 0
M  V30 8868 H 840.738 0.677554 -3.04657 0
M  V30 8869 N 841.039 1.57585 0.0217189 0
M  V30 8870 C 842.264 1.94267 0.726309 0
M  V30 8871 C 842.689 0.851904 1.67703 0
M  V30 8872 O 842.047 -0.191792 1.80283 0
M  V30 8873 C 842.095 3.30023 1.45318 0
M  V30 8874 O 841.199 3.22791 2.5667 0
M  V30 8875 H 840.54 0.634777 0.194818 0
M  V30 8876 H 843.07 2.04585 -0.0249985 0
M  V30 8877 H 843.08 3.65084 1.82147 0
M  V30 8878 H 841.755 4.08972 0.755962 0
M  V30 8879 H 840.332 2.99373 2.2233 0
M  V30 8880 N 842.517 -0.29412 1.54831 0
M  V30 8881 C 843.794 -1.04847 1.65126 0
M  V30 8882 C 844.174 -2.04996 0.503986 0
M  V30 8883 O 843.522 -2.22996 -0.498496 0
M  V30 8884 C 843.732 -1.72418 3.03435 0
M  V30 8885 C 845.08 -2.24362 3.60481 0
M  V30 8886 O 846.104 -1.8244 3.05932 0
M  V30 8887 O 844.963 -3.01196 4.56008 0
M  V30 8888 H 842.057 -0.485032 0.669831 0
M  V30 8889 H 844.603 -0.291659 1.67175 0
M  V30 8890 H 843.375 -0.997351 3.78376 0
M  V30 8891 H 842.998 -2.54839 3.05193 0
M  V30 8892 N 843.995 -1.47404 -0.557645 0
M  V30 8893 C 844.943 -1.60265 -1.68576 0
M  V30 8894 C 845.937 -0.469982 -1.6275 0
M  V30 8895 O 847.143 -0.647764 -1.67941 0
M  V30 8896 H 843.518 -0.504353 -0.557792 0
M  V30 8897 H 845.489 -2.55066 -1.54867 0
M  V30 8898 C 844.238 -1.63369 -3.0693 0
M  V30 8899 H 843.561 -2.49874 -3.12095 0
M  V30 8900 H 845.001 -1.76417 -3.85556 0
M  V30 8901 C 843.46 -0.366921 -3.34896 0
M  V30 8902 O 843.99 0.53218 -3.98159 0
M  V30 8903 N 842.196 -0.247082 -2.89548 0
M  V30 8904 H 841.743 -0.979669 -2.38244 0
M  V30 8905 H 841.701 0.599552 -3.0863 0
M  V30 8906 N 845.473 0.80434 -1.35529 0
M  V30 8907 C 846.403 1.93086 -1.31301 0
M  V30 8908 C 847.384 1.69068 -0.187044 0
M  V30 8909 O 848.569 1.90399 -0.382359 0
M  V30 8910 C 845.699 3.29867 -1.0865 0
M  V30 8911 C 844.653 3.68373 -2.17911 0
M  V30 8912 C 843.979 5.0334 -1.80423 0
M  V30 8913 C 845.279 3.78516 -3.59893 0
M  V30 8914 H 846.973 1.96882 -2.25561 0
M  V30 8915 H 844.519 0.945841 -1.08581 0
M  V30 8916 H 846.472 4.08281 -1.04331 0
M  V30 8917 H 845.196 3.2642 -0.108359 0
M  V30 8918 H 843.855 2.92247 -2.21331 0
M  V30 8919 H 843.503 4.96399 -0.812213 0
M  V30 8920 H 843.203 5.30074 -2.53565 0
M  V30 8921 H 844.727 5.84191 -1.77633 0
M  V30 8922 H 846.141 4.47155 -3.58783 0
M  V30 8923 H 844.538 4.16721 -4.31814 0
M  V30 8924 H 845.608 2.8001 -3.95882 0
M  V30 8925 N 846.951 1.19563 1.02676 0
M  V30 8926 C 848.362 1.00158 1.57561 0
M  V30 8927 C 848.713 -0.444922 1.91089 0
M  V30 8928 O 847.838 -1.32466 1.71119 0
M  V30 8929 C 848.433 1.81181 2.86284 0
M  V30 8930 C 846.992 1.66171 3.37734 0
M  V30 8931 C 846.139 1.7975 2.11152 0
M  V30 8932 H 849.09 1.33904 0.85179 0
M  V30 8933 H 849.111 1.30916 3.57269 0
M  V30 8934 H 848.623 2.86454 2.6185 0
M  V30 8935 H 846.724 0.634927 3.6715 0
M  V30 8936 H 846.837 2.46832 4.10622 0
M  V30 8937 H 845.201 1.22833 2.23123 0
M  V30 8938 H 845.984 2.86487 1.89157 0
M  V30 8939 N 848.429 -1.21819 0.999893 0
M  V30 8940 C 849.675 -1.91325 0.690373 0
M  V30 8941 C 850.03 -1.76323 -0.769929 0
M  V30 8942 O 849.323 -1.12585 -1.55033 0
M  V30 8943 C 849.517 -3.4193 1.04012 0
M  V30 8944 C 849.346 -3.71585 2.53287 0
M  V30 8945 C 848.116 -3.91219 3.19806 0
M  V30 8946 C 850.314 -3.75502 3.5143 0
M  V30 8947 N 848.296 -4.08246 4.58485 0
M  V30 8948 C 849.667 -3.97753 4.75597 0
M  V30 8949 C 851.722 -3.58383 3.45638 0
M  V30 8950 C 850.425 -4.04662 5.94677 0
M  V30 8951 C 852.451 -3.66555 4.64103 0
M  V30 8952 C 851.813 -3.89263 5.87072 0
M  V30 8953 H 847.912 -0.720484 0.304018 0
M  V30 8954 H 850.496 -1.46595 1.28133 0
M  V30 8955 H 848.667 -3.85452 0.477671 0
M  V30 8956 H 850.399 -3.98846 0.685864 0
M  V30 8957 H 847.154 -3.88917 2.7026 0
M  V30 8958 H 847.578 -4.20673 5.30437 0
M  V30 8959 H 852.22 -3.39807 2.51576 0
M  V30 8960 H 849.938 -4.22039 6.89136 0
M  V30 8961 H 853.524 -3.54639 4.61218 0
M  V30 8962 H 852.404 -3.95424 6.77207 0
M  V30 8963 N 849.908 -0.773975 -1.37286 0
M  V30 8964 C 850.855 -0.159938 -2.30245 0
M  V30 8965 C 851.825 0.687356 -1.51211 0
M  V30 8966 O 853.01 0.639255 -1.79773 0
M  V30 8967 C 850.15 0.711452 -3.37687 0
M  V30 8968 C 849.263 -0.152692 -4.3173 0
M  V30 8969 C 848.398 0.723613 -5.26248 0
M  V30 8970 C 847.437 -0.14293 -6.11933 0
M  V30 8971 N 846.574 0.691479 -6.98687 0
M  V30 8972 H 851.414 -0.958182 -2.82175 0
M  V30 8973 H 848.951 -0.48411 -1.38906 0
M  V30 8974 H 850.909 1.2315 -3.9861 0
M  V30 8975 H 849.539 1.47528 -2.87116 0
M  V30 8976 H 848.591 -0.790574 -3.72094 0
M  V30 8977 H 849.903 -0.821027 -4.91997 0
M  V30 8978 H 849.057 1.31006 -5.92387 0
M  V30 8979 H 847.796 1.42562 -4.66398 0
M  V30 8980 H 846.801 -0.7419 -5.44771 0
M  V30 8981 H 848.026 -0.842305 -6.73856 0
M  V30 8982 H 845.972 1.37806 -6.41362 0
M  V30 8983 H 845.889 0.0804911 -7.55957 0
M  V30 8984 H 847.157 1.26225 -7.69212 0
M  V30 8985 N 851.386 1.48609 -0.524698 0
M  V30 8986 C 852.634 2.02097 0.0112991 0
M  V30 8987 C 852.955 1.40455 1.35268 0
M  V30 8988 O 852.225 0.56807 1.87483 0
M  V30 8989 H 850.805 0.746966 0.00716426 0
M  V30 8990 H 853.467 1.82378 -0.687329 0
M  V30 8991 H 852.563 3.11855 0.123531 0
M  V30 8992 N 852.864 0.259585 1.55447 0
M  V30 8993 C 854.28 -0.094961 1.59317 0
M  V30 8994 C 854.48 -1.55884 1.2768 0
M  V30 8995 O 853.536 -2.30528 1.0302 0
M  V30 8996 C 854.849 0.265669 2.99524 0
M  V30 8997 C 856.397 0.211007 3.12288 0
M  V30 8998 C 856.872 0.545851 4.54736 0
M  V30 8999 N 858.363 0.496823 4.60528 0
M  V30 9000 C 859.098 0.728909 5.68748 0
M  V30 9001 N 858.594 1.02479 6.85179 0
M  V30 9002 N 860.387 0.658756 5.58226 0
M  V30 9003 H 852.538 1.2141 1.7428 0
M  V30 9004 H 854.801 0.489404 0.811904 0
M  V30 9005 H 854.507 1.28316 3.27457 0
M  V30 9006 H 854.381 -0.401089 3.75061 0
M  V30 9007 H 856.768 -0.797172 2.84129 0
M  V30 9008 H 856.849 0.911799 2.38998 0
M  V30 9009 H 856.493 1.55164 4.83618 0
M  V30 9010 H 856.423 -0.17656 5.26304 0
M  V30 9011 H 858.914 0.277376 3.76881 0
M  V30 9012 H 859.227 1.18897 7.63599 0
M  V30 9013 H 857.572 1.0624 6.86832 0
M  V30 9014 H 860.763 0.427553 4.66143 0
M  V30 9015 H 860.936 0.84302 6.42493 0
M  V30 9016 N 854.342 -1.57594 -0.0133615 0
M  V30 9017 C 855.591 -1.8916 -0.700103 0
M  V30 9018 C 855.904 -0.860147 -1.75673 0
M  V30 9019 O 857.11 -1.06556 -2.49716 0
M  V30 9020 C 855.566 -3.35742 -1.29635 0
M  V30 9021 C 855.174 -4.47154 -0.275249 0
M  V30 9022 C 856.918 -3.76436 -1.96205 0
M  V30 9023 C 854.825 -5.84805 -0.880726 0
M  V30 9024 H 853.755 -0.705805 -0.265247 0
M  V30 9025 H 856.406 -1.83445 0.044993 0
M  V30 9026 H 854.788 -3.36252 -2.09167 0
M  V30 9027 H 855.962 -4.58139 0.494506 0
M  V30 9028 H 854.277 -4.15394 0.289256 0
M  V30 9029 H 856.874 -4.76606 -2.42386 0
M  V30 9030 H 857.217 -3.09249 -2.78695 0
M  V30 9031 H 857.75 -3.78168 -1.23426 0
M  V30 9032 H 854.489 -6.55431 -0.0949013 0
M  V30 9033 H 854.009 -5.7751 -1.61995 0
M  V30 9034 H 855.688 -6.32038 -1.38338 0
M  V30 9035 N 855.82 0.285905 -1.54985 0
M  V30 9036 C 857.066 1.02071 -1.75241 0
M  V30 9037 C 857.399 1.864 -0.544842 0
M  V30 9038 O 856.674 1.89034 0.457844 0
M  V30 9039 C 856.957 1.91409 -3.05016 0
M  V30 9040 C 856.81 1.10158 -4.36102 0
M  V30 9041 C 858.129 2.90335 -3.30747 0
M  V30 9042 H 855.248 0.369663 -0.637588 0
M  V30 9043 H 857.89 0.294114 -1.8771 0
M  V30 9044 H 856.04 2.53362 -2.94517 0
M  V30 9045 H 857.712 0.503756 -4.58541 0
M  V30 9046 H 855.955 0.404675 -4.31908 0
M  V30 9047 H 856.626 1.75956 -5.23205 0
M  V30 9048 H 859.102 2.38514 -3.40955 0
M  V30 9049 H 857.978 3.49997 -4.2284 0
M  V30 9050 H 858.239 3.64787 -2.49765 0
M  V30 9051 N 857.298 1.47698 0.54982 0
M  V30 9052 C 858.526 1.5833 1.33188 0
M  V30 9053 C 858.941 0.236193 1.87317 0
M  V30 9054 O 858.298 -0.77167 1.65383 0
M  V30 9055 C 858.349 2.61438 2.49664 0
M  V30 9056 O 858.07 3.9092 1.97771 0
M  V30 9057 C 859.571 2.82324 3.41772 0
M  V30 9058 H 856.791 0.53443 0.405741 0
M  V30 9059 H 859.335 1.93375 0.665309 0
M  V30 9060 H 857.49 2.29307 3.12245 0
M  V30 9061 H 857.904 4.47323 2.73866 0
M  V30 9062 H 859.378 3.58316 4.19897 0
M  V30 9063 H 859.855 1.90416 3.95776 0
M  V30 9064 H 860.461 3.15682 2.85 0
M  V30 9065 N 858.776 -0.797141 1.35954 0
M  V30 9066 C 860.023 -1.55468 1.29754 0
M  V30 9067 C 860.351 -1.94095 -0.125391 0
M  V30 9068 O 859.606 -1.62341 -1.09288 0
M  V30 9069 C 859.905 -2.84847 2.15863 0
M  V30 9070 C 859.571 -2.65394 3.64523 0
M  V30 9071 C 858.233 -2.59796 4.05042 0
M  V30 9072 C 860.585 -2.4727 4.58811 0
M  V30 9073 C 857.913 -2.3403 5.38002 0
M  V30 9074 C 860.265 -2.23032 5.91979 0
M  V30 9075 C 858.929 -2.15862 6.31633 0
M  V30 9076 H 858.199 -0.568897 0.474803 0
M  V30 9077 H 860.846 -0.920299 1.67937 0
M  V30 9078 H 859.151 -3.52712 1.70591 0
M  V30 9079 H 860.848 -3.42597 2.08395 0
M  V30 9080 H 857.438 -2.70602 3.32374 0
M  V30 9081 H 861.622 -2.506 4.28384 0
M  V30 9082 H 856.878 -2.26956 5.67715 0
M  V30 9083 H 861.052 -2.08001 6.64612 0
M  V30 9084 H 858.679 -1.9566 7.34589 0
M  V30 9085 N 860.254 -1.20106 -1.0204 0
M  V30 9086 C 861.184 -0.970301 -2.12385 0
M  V30 9087 C 862.165 0.099378 -1.69809 0
M  V30 9088 O 863.35 -0.057365 -1.94115 0
M  V30 9089 C 860.48 -0.517431 -3.43424 0
M  V30 9090 C 859.434 -1.52992 -3.99722 0
M  V30 9091 C 858.76 -0.933817 -5.26483 0
M  V30 9092 C 860.06 -2.91257 -4.33551 0
M  V30 9093 H 861.754 -1.89316 -2.31948 0
M  V30 9094 H 859.3 -0.911655 -1.11467 0
M  V30 9095 H 861.253 -0.343243 -4.2 0
M  V30 9096 H 859.977 0.441049 -3.23608 0
M  V30 9097 H 858.636 -1.6914 -3.2525 0
M  V30 9098 H 858.284 0.0324763 -5.0299 0
M  V30 9099 H 857.984 -1.60999 -5.65113 0
M  V30 9100 H 859.508 -0.770614 -6.05718 0
M  V30 9101 H 860.922 -2.78642 -5.0103 0
M  V30 9102 H 859.319 -3.55745 -4.83286 0
M  V30 9103 H 860.389 -3.43269 -3.42483 0
M  V30 9104 N 861.732 1.21287 -1.00634 0
M  V30 9105 C 862.96 1.94385 -0.708678 0
M  V30 9106 C 863.375 1.7416 0.728957 0
M  V30 9107 O 862.732 1.04906 1.49335 0
M  V30 9108 C 862.783 3.46755 -1.02193 0
M  V30 9109 O 862.504 3.6631 -2.40309 0
M  V30 9110 C 864.005 4.37014 -0.743867 0
M  V30 9111 H 861.225 0.618136 -0.261052 0
M  V30 9112 H 863.769 1.54067 -1.34475 0
M  V30 9113 H 861.924 3.8499 -0.431441 0
M  V30 9114 H 862.338 4.60393 -2.51274 0
M  V30 9115 H 863.812 5.42621 -1.01321 0
M  V30 9116 H 864.289 4.38017 0.322084 0
M  V30 9117 H 864.895 4.04426 -1.31603 0
M  V30 9118 N 863.21 0.781244 1.36873 0
M  V30 9119 C 864.45 0.355185 2.0129 0
M  V30 9120 C 864.814 -1.05115 1.6067 0
M  V30 9121 O 866.015 -1.57785 2.17618 0
M  V30 9122 C 864.286 0.504587 3.5382 0
M  V30 9123 S 865.845 0.165196 4.38489 0
M  V30 9124 H 862.663 0.136133 0.697846 0
M  V30 9125 H 865.265 1.01794 1.66908 0
M  V30 9126 H 863.969 1.52857 3.80871 0
M  V30 9127 H 863.5 -0.174392 3.93013 0
M  V30 9128 H 865.515 -1.03605 4.85263 0
M  V30 9129 N 864.689 -1.48329 0.532571 0
M  V30 9130 C 865.636 -2.29663 -0.228779 0
M  V30 9131 C 866.606 -1.37529 -0.931401 0
M  V30 9132 O 867.791 -1.66493 -0.931921 0
M  V30 9133 C 864.931 -3.20955 -1.26814 0
M  V30 9134 C 864.044 -4.28168 -0.574099 0
M  V30 9135 C 863.179 -5.06638 -1.59661 0
M  V30 9136 C 862.218 -6.05651 -0.88618 0
M  V30 9137 N 861.355 -6.77169 -1.85436 0
M  V30 9138 H 866.195 -2.94255 0.47098 0
M  V30 9139 H 863.732 -1.45061 0.2441 0
M  V30 9140 H 865.69 -3.72285 -1.88307 0
M  V30 9141 H 864.32 -2.58281 -1.93625 0
M  V30 9142 H 863.372 -3.80085 0.154827 0
M  V30 9143 H 864.684 -4.98797 -0.0163984 0
M  V30 9144 H 863.838 -5.61995 -2.28576 0
M  V30 9145 H 862.577 -4.35854 -2.18821 0
M  V30 9146 H 861.582 -5.49495 -0.182981 0
M  V30 9147 H 862.807 -6.78434 -0.300659 0
M  V30 9148 H 860.753 -6.09134 -2.43499 0
M  V30 9149 H 860.67 -7.43882 -1.34816 0
M  V30 9150 H 861.938 -7.37114 -2.53541 0
M  V30 9151 N 866.167 -0.267825 -1.55308 0
M  V30 9152 C 867.395 0.354587 -2.03839 0
M  V30 9153 C 867.81 1.50007 -1.14644 0
M  V30 9154 O 867.167 1.81752 -0.165055 0
M  V30 9155 C 867.218 0.84254 -3.51544 0
M  V30 9156 O 866.939 -0.257318 -4.37344 0
M  V30 9157 C 868.44 1.53351 -4.15931 0
M  V30 9158 H 865.66 0.0818131 -0.665994 0
M  V30 9159 H 868.204 -0.397795 -2.00594 0
M  V30 9160 H 866.359 1.54503 -3.55257 0
M  V30 9161 H 866.773 0.116593 -5.2437 0
M  V30 9162 H 868.247 1.82643 -5.20908 0
M  V30 9163 H 868.724 2.4626 -3.63666 0
M  V30 9164 H 869.33 0.87506 -4.162 0
M  V30 9165 N 867.645 1.57599 0.00500368 0
M  V30 9166 C 868.892 1.90349 0.690895 0
M  V30 9167 C 869.22 0.868045 1.74055 0
M  V30 9168 O 868.475 -0.127855 1.95282 0
M  V30 9169 C 868.774 3.29855 1.37588 0
M  V30 9170 C 868.44 4.48548 0.459906 0
M  V30 9171 C 867.102 4.80752 0.207693 0
M  V30 9172 C 869.454 5.20919 -0.171054 0
M  V30 9173 C 866.782 5.82701 -0.683855 0
M  V30 9174 C 869.134 6.23818 -1.05045 0
M  V30 9175 C 867.798 6.54481 -1.31189 0
M  V30 9176 H 867.068 0.696538 0.252816 0
M  V30 9177 H 869.715 1.91436 -0.0494495 0
M  V30 9178 H 868.02 3.24869 2.19015 0
M  V30 9179 H 869.717 3.52452 1.91255 0
M  V30 9180 H 866.307 4.23384 0.666648 0
M  V30 9181 H 870.491 4.96299 0.0107942 0
M  V30 9182 H 865.747 6.04822 -0.894467 0
M  V30 9183 H 869.921 6.79029 -1.54574 0
M  V30 9184 H 867.548 7.33299 -2.00442 0
M  V30 9185 N 869.123 -0.277682 1.55134 0
M  V30 9186 C 870.4 -1.0309 1.66228 0
M  V30 9187 C 870.78 -2.0445 0.525701 0
M  V30 9188 O 870.128 -2.23512 -0.474816 0
M  V30 9189 C 870.338 -1.6919 3.05247 0
M  V30 9190 C 871.686 -2.20526 3.62841 0
M  V30 9191 O 872.71 -1.79185 3.07849 0
M  V30 9192 O 871.569 -2.96342 4.59177 0
M  V30 9193 H 868.663 -0.4779 0.674937 0
M  V30 9194 H 871.209 -0.273912 1.67475 0
M  V30 9195 H 869.981 -0.957163 3.79413 0
M  V30 9196 H 869.604 -2.51587 3.07879 0
M  V30 9197 N 870.601 -1.47988 -0.541979 0
M  V30 9198 C 872.012 -1.49073 -1.12402 0
M  V30 9199 C 872.363 -0.253825 -1.94551 0
M  V30 9200 O 871.488 0.640056 -2.06718 0
M  V30 9201 C 872.083 -2.7011 -2.04514 0
M  V30 9202 C 870.642 -2.74105 -2.5796 0
M  V30 9203 C 869.789 -2.42409 -1.3466 0
M  V30 9204 H 872.74 -1.55277 -0.327818 0
M  V30 9205 H 872.761 -2.47946 -2.88623 0
M  V30 9206 H 872.273 -3.60117 -1.44697 0
M  V30 9207 H 870.374 -1.88276 -3.21532 0
M  V30 9208 H 870.487 -3.75213 -2.97913 0
M  V30 9209 H 868.851 -1.9331 -1.65841 0
M  V30 9210 H 869.634 -3.34642 -0.766133 0
M  V30 9211 N 872.079 0.78992 -1.36375 0
M  V30 9212 C 872.989 1.93386 -1.32812 0
M  V30 9213 C 874.005 1.72468 -0.230377 0
M  V30 9214 O 875.181 1.96014 -0.462657 0
M  V30 9215 C 872.246 3.2824 -1.11621 0
M  V30 9216 C 871.307 3.61939 -2.30865 0
M  V30 9217 C 870.54 4.90359 -2.10675 0
M  V30 9218 O 870.763 5.6005 -1.08168 0
M  V30 9219 O 869.697 5.22702 -2.9844 0
M  V30 9220 H 873.523 1.99342 -2.29121 0
M  V30 9221 H 871.108 0.9301 -1.16917 0
M  V30 9222 H 872.99 4.08939 -1.01719 0
M  V30 9223 H 871.665 3.23178 -0.183732 0
M  V30 9224 H 870.572 2.81549 -2.46335 0
M  V30 9225 H 871.905 3.71725 -3.22617 0
M  V30 9226 N 873.557 1.20646 1.01402 0
M  V30 9227 C 874.834 0.927176 1.72229 0
M  V30 9228 C 875.214 -0.563382 2.03443 0
M  V30 9229 O 874.562 -1.52576 1.70096 0
M  V30 9230 C 874.772 1.80285 2.98828 0
M  V30 9231 C 876.12 2.04624 3.72041 0
M  V30 9232 O 877.144 1.77559 3.0879 0
M  V30 9233 O 876.003 2.50347 4.85787 0
M  V30 9234 H 873.097 0.346891 0.75073 0
M  V30 9235 H 875.643 1.31532 1.07227 0
M  V30 9236 H 874.415 2.81204 2.72102 0
M  V30 9237 H 874.038 1.41495 3.71571 0
M  V30 9238 N 875.035 -1.20752 1.01276 0
M  V30 9239 C 876.263 -1.94006 0.718976 0
M  V30 9240 C 876.678 -1.74544 -0.719711 0
M  V30 9241 O 876.035 -1.05697 -1.48776 0
M  V30 9242 C 876.086 -3.46208 1.04031 0
M  V30 9243 O 875.807 -3.65031 2.42248 0
M  V30 9244 C 877.308 -4.36614 0.767032 0
M  V30 9245 H 874.528 -0.616743 0.264327 0
M  V30 9246 H 877.072 -1.53352 1.3529 0
M  V30 9247 H 875.227 -3.84756 0.451852 0
M  V30 9248 H 875.641 -4.59054 2.53712 0
M  V30 9249 H 877.115 -5.42076 1.04198 0
M  V30 9250 H 877.592 -4.38182 -0.298851 0
M  V30 9251 H 878.198 -4.03723 1.33746 0
M  V30 9252 N 876.513 -0.788492 -1.36457 0
M  V30 9253 C 877.738 -0.371224 -2.04051 0
M  V30 9254 C 878.163 1.004 -1.59064 0
M  V30 9255 O 877.521 1.64663 -0.758679 0
M  V30 9256 C 877.569 -0.442275 -3.57877 0
M  V30 9257 O 876.673 0.55113 -4.08701 0
M  V30 9258 H 876.014 -0.157808 -0.644975 0
M  V30 9259 H 878.544 -1.06935 -1.74431 0
M  V30 9260 H 878.554 -0.305548 -4.06854 0
M  V30 9261 H 877.229 -1.44547 -3.89973 0
M  V30 9262 H 875.806 0.37614 -3.70998 0
M  V30 9263 N 877.991 1.48044 -0.54043 0
M  V30 9264 C 878.923 2.2779 0.253854 0
M  V30 9265 C 879.936 1.35999 0.894883 0
M  V30 9266 O 881.125 1.60963 0.771563 0
M  V30 9267 C 878.225 3.09724 1.37566 0
M  V30 9268 C 877.398 4.29364 0.83459 0
M  V30 9269 C 876.457 4.93026 1.83881 0
M  V30 9270 O 875.483 5.51927 1.39159 0
M  V30 9271 N 876.685 4.86207 3.17149 0
M  V30 9272 H 879.45 2.96597 -0.430125 0
M  V30 9273 H 877.011 1.57487 -0.375423 0
M  V30 9274 H 879.003 3.49181 2.04584 0
M  V30 9275 H 877.573 2.43269 1.96314 0
M  V30 9276 H 876.793 3.94198 -0.0118878 0
M  V30 9277 H 878.081 5.06787 0.452155 0
M  V30 9278 H 877.479 4.39523 3.56141 0
M  V30 9279 H 876.036 5.29733 3.79771 0
M  V30 9280 N 879.47 0.276058 1.55163 0
M  V30 9281 C 880.38 -0.621066 2.2623 0
M  V30 9282 C 881.396 -1.16931 1.28853 0
M  V30 9283 O 882.572 -1.1994 1.61791 0
M  V30 9284 C 879.637 -1.78824 2.97023 0
M  V30 9285 C 878.698 -1.27657 4.09881 0
M  V30 9286 C 877.931 -2.38812 4.77289 0
M  V30 9287 O 878.154 -3.58188 4.43912 0
M  V30 9288 O 877.088 -2.06915 5.65217 0
M  V30 9289 H 880.914 -0.0453346 3.03666 0
M  V30 9290 H 878.499 0.0434275 1.49337 0
M  V30 9291 H 880.381 -2.46877 3.41511 0
M  V30 9292 H 879.056 -2.35104 2.22503 0
M  V30 9293 H 877.963 -0.56248 3.69847 0
M  V30 9294 H 879.296 -0.759509 4.86305 0
M  V30 9295 N 880.948 -1.576 0.00335426 0
M  V30 9296 C 882.197 -1.89892 -0.680001 0
M  V30 9297 C 882.51 -0.878731 -1.7475 0
M  V30 9298 O 883.716 -1.09199 -2.48572 0
M  V30 9299 C 882.172 -3.37098 -1.26066 0
M  V30 9300 C 881.78 -4.4742 -0.227807 0
M  V30 9301 C 883.524 -3.78495 -1.92202 0
M  V30 9302 C 881.431 -5.85706 -0.81865 0
M  V30 9303 H 880.361 -0.708578 -0.257746 0
M  V30 9304 H 883.012 -1.83387 0.0644472 0
M  V30 9305 H 881.394 -3.38451 -2.05589 0
M  V30 9306 H 882.568 -4.57589 0.54307 0
M  V30 9307 H 880.883 -4.15064 0.333297 0
M  V30 9308 H 883.48 -4.7915 -2.37318 0
M  V30 9309 H 883.823 -3.12187 -2.75399 0
M  V30 9310 H 884.356 -3.79456 -1.19408 0
M  V30 9311 H 881.095 -6.55495 -0.0253787 0
M  V30 9312 H 880.615 -5.79196 -1.55861 0
M  V30 9313 H 882.294 -6.33469 -1.31627 0
M  V30 9314 N 882.426 0.269451 -1.5528 0
M  V30 9315 C 883.674 0.998604 -1.75705 0
M  V30 9316 C 883.995 1.86691 -0.563175 0
M  V30 9317 O 883.265 1.91305 0.421811 0
M  V30 9318 H 881.845 0.371698 -0.647958 0
M  V30 9319 H 884.507 0.292826 -1.92688 0
M  V30 9320 H 883.603 1.63348 -2.6594 0
M  V30 9321 N 883.904 1.48273 0.534124 0
M  V30 9322 C 884.837 1.57053 1.65559 0
M  V30 9323 C 885.815 0.421213 1.5705 0
M  V30 9324 O 886.999 0.632242 1.77581 0
M  V30 9325 C 884.126 1.49465 3.03937 0
M  V30 9326 C 883.172 2.69186 3.30819 0
M  V30 9327 S 884.005 4.31192 3.17543 0
M  V30 9328 C 885.161 4.26197 4.58375 0
M  V30 9329 H 885.394 2.51927 1.57861 0
M  V30 9330 H 882.927 1.36755 0.716763 0
M  V30 9331 H 884.885 1.45775 3.83745 0
M  V30 9332 H 883.546 0.559357 3.09079 0
M  V30 9333 H 882.739 2.60005 4.31756 0
M  V30 9334 H 882.341 2.70118 2.58674 0
M  V30 9335 H 884.633 3.95874 5.49809 0
M  V30 9336 H 885.576 5.27299 4.72611 0
M  V30 9337 H 885.984 3.56723 4.37503 0
M  V30 9338 N 885.382 -0.782676 1.36792 0
M  V30 9339 C 886.628 -1.54311 1.3159 0
M  V30 9340 C 886.961 -1.93928 -0.102696 0
M  V30 9341 O 886.236 -1.63233 -1.05761 0
M  V30 9342 C 886.519 -2.81561 2.24489 0
M  V30 9343 C 886.372 -2.48268 3.75078 0
M  V30 9344 C 887.691 -3.83428 2.16034 0
M  V30 9345 H 884.81 -0.559828 0.479335 0
M  V30 9346 H 887.452 -0.898717 1.67401 0
M  V30 9347 H 885.602 -3.36549 1.9408 0
M  V30 9348 H 887.274 -1.99279 4.16036 0
M  V30 9349 H 885.517 -1.81116 3.94182 0
M  V30 9350 H 886.188 -3.39183 4.35499 0
M  V30 9351 H 888.664 -3.37905 2.42815 0
M  V30 9352 H 887.54 -4.70204 2.83194 0
M  V30 9353 H 887.801 -4.26887 1.14976 0
M  V30 9354 N 886.86 -1.21182 -1.00761 0
M  V30 9355 C 887.823 -0.970339 -2.07646 0
M  V30 9356 C 888.823 0.0576345 -1.60697 0
M  V30 9357 O 890.013 -0.179369 -1.73274 0
M  V30 9358 C 887.145 -0.462703 -3.37745 0
M  V30 9359 H 888.338 -1.91856 -2.30502 0
M  V30 9360 H 885.891 -1.02844 -1.17698 0
M  V30 9361 H 886.626 0.490559 -3.20568 0
M  V30 9362 H 886.411 -1.20416 -3.73152 0
M  V30 9363 H 887.901 -0.313531 -4.16421 0
M  V30 9364 N 888.338 1.20213 -1.01915 0
M  V30 9365 C 889.286 2.25125 -0.584936 0
M  V30 9366 C 890.28 1.65138 0.377602 0
M  V30 9367 O 891.486 1.78294 0.247245 0
M  V30 9368 H 887.861 0.732333 -0.170858 0
M  V30 9369 H 889.832 2.59075 -1.48063 0
M  V30 9370 C 888.581 3.47651 0.058389 0
M  V30 9371 H 887.904 3.9409 -0.673263 0
M  V30 9372 H 889.344 4.2275 0.325285 0
M  V30 9373 C 887.803 3.10725 1.30199 0
M  V30 9374 O 888.333 3.22491 2.39505 0
M  V30 9375 N 886.539 2.6525 1.18706 0
M  V30 9376 H 886.086 2.55875 0.297618 0
M  V30 9377 H 886.044 2.40913 2.02011 0
M  V30 9378 N 889.816 0.795718 1.36037 0
M  V30 9379 C 891.064 0.370291 1.98679 0
M  V30 9380 C 891.385 -1.06332 1.63458 0
M  V30 9381 O 890.655 -1.73394 0.911671 0
M  V30 9382 H 889.235 0.133928 0.734896 0
M  V30 9383 H 891.897 1.01915 1.6613 0
M  V30 9384 H 890.993 0.467207 3.08583 0
M  V30 9385 N 891.294 -1.47756 0.548274 0
M  V30 9386 C 892.522 -2.06884 0.0254873 0
M  V30 9387 C 892.937 -1.40225 -1.26422 0
M  V30 9388 O 892.294 -0.495776 -1.75637 0
M  V30 9389 C 892.345 -3.61036 -0.183134 0
M  V30 9390 O 892.066 -4.25195 1.05549 0
M  V30 9391 C 893.567 -4.37008 -0.744222 0
M  V30 9392 H 890.787 -0.669697 0.041789 0
M  V30 9393 H 893.331 -1.89888 0.759138 0
M  V30 9394 H 891.486 -3.77576 -0.866886 0
M  V30 9395 H 891.9 -5.17606 0.847629 0
M  V30 9396 H 893.374 -5.45579 -0.839529 0
M  V30 9397 H 893.851 -4.0268 -1.75344 0
M  V30 9398 H 894.457 -4.25191 -0.0964542 0
M  V30 9399 N 892.772 -0.284283 -1.55015 0
M  V30 9400 C 893.719 0.599194 -2.22886 0
M  V30 9401 C 894.689 1.14264 -1.20553 0
M  V30 9402 O 895.874 1.19025 -1.49123 0
M  V30 9403 C 893.014 1.77317 -2.96062 0
M  V30 9404 C 892.127 1.26271 -4.13134 0
M  V30 9405 C 891.262 2.39922 -4.73931 0
M  V30 9406 C 890.301 1.85925 -5.8318 0
M  V30 9407 N 889.438 2.93084 -6.38002 0
M  V30 9408 H 894.278 0.0137816 -2.97997 0
M  V30 9409 H 891.815 -0.00496503 -1.47099 0
M  V30 9410 H 893.773 2.46339 -3.36709 0
M  V30 9411 H 892.403 2.33047 -2.23358 0
M  V30 9412 H 891.455 0.465296 -3.77544 0
M  V30 9413 H 892.767 0.827284 -4.91892 0
M  V30 9414 H 891.921 3.1692 -5.17346 0
M  V30 9415 H 890.66 2.86784 -3.9447 0
M  V30 9416 H 889.665 1.07409 -5.39206 0
M  V30 9417 H 890.89 1.39987 -6.64515 0
M  V30 9418 H 888.836 3.3931 -5.61431 0
M  V30 9419 H 888.753 2.53986 -7.12058 0
M  V30 9420 H 890.021 3.7003 -6.86075 0
M  V30 9421 N 894.251 1.57596 -0.0117121 0
M  V30 9422 C 895.491 1.92932 0.675031 0
M  V30 9423 C 895.855 0.887004 1.70283 0
M  V30 9424 O 897.056 1.12599 2.4408 0
M  V30 9425 C 895.327 3.3327 1.29098 0
M  V30 9426 S 896.886 3.90509 2.00121 0
M  V30 9427 H 893.704 0.675226 0.22269 0
M  V30 9428 H 896.306 1.9537 -0.071208 0
M  V30 9429 H 895.01 4.0696 0.530262 0
M  V30 9430 H 894.541 3.34233 2.0749 0
M  V30 9431 H 896.556 3.72532 3.27771 0
M  V30 9432 N 895.729 -0.261212 1.5542 0
M  V30 9433 C 896.977 -0.989272 1.76232 0
M  V30 9434 C 897.298 -1.86389 0.573067 0
M  V30 9435 O 896.568 -1.91526 -0.41166 0
M  V30 9436 H 895.148 -0.368256 0.64992 0
M  V30 9437 H 897.81 -0.282603 1.9284 0
M  V30 9438 H 896.906 -1.61935 2.66802 0
M  V30 9439 N 897.207 -1.48554 -0.526253 0
M  V30 9440 C 898.484 -1.47252 -1.28748 0
M  V30 9441 C 898.864 -0.186245 -2.10277 0
M  V30 9442 O 898.212 0.831954 -2.12816 0
M  V30 9443 C 898.422 -2.73672 -2.16575 0
M  V30 9444 C 899.77 -3.22151 -2.76593 0
M  V30 9445 O 900.794 -2.74614 -2.2686 0
M  V30 9446 O 899.653 -4.04877 -3.67066 0
M  V30 9447 H 896.747 -0.588242 -0.581292 0
M  V30 9448 H 899.293 -1.60792 -0.5426 0
M  V30 9449 H 898.065 -3.58798 -1.56139 0
M  V30 9450 H 897.688 -2.6287 -2.98304 0
M  V30 9451 N 898.685 0.775411 -1.37205 0
M  V30 9452 C 899.633 1.90996 -1.32752 0
M  V30 9453 C 900.627 1.68006 -0.216907 0
M  V30 9454 O 901.833 1.7584 -0.384723 0
M  V30 9455 H 898.208 0.62803 -0.413621 0
M  V30 9456 H 900.179 1.91869 -2.28536 0
M  V30 9457 C 898.928 3.28211 -1.14772 0
M  V30 9458 H 898.251 3.46477 -1.99484 0
M  V30 9459 H 899.691 4.07907 -1.15706 0
M  V30 9460 C 898.15 3.3658 0.146852 0
M  V30 9461 O 898.68 3.85428 1.13173 0
M  V30 9462 N 896.886 2.89936 0.196305 0
M  V30 9463 H 896.433 2.50375 -0.605807 0
M  V30 9464 H 896.391 2.95916 1.06212 0
M  V30 9465 N 900.163 1.21714 1.00117 0
M  V30 9466 C 901.11 0.979837 2.08968 0
M  V30 9467 C 902.08 -0.0955324 1.65825 0
M  V30 9468 O 903.265 0.0523742 1.90728 0
M  V30 9469 C 900.405 0.554758 3.40612 0
M  V30 9470 C 899.518 1.69999 3.97145 0
M  V30 9471 C 898.653 1.2237 5.16913 0
M  V30 9472 C 897.692 2.34101 5.65564 0
M  V30 9473 N 896.829 1.87579 6.76579 0
M  V30 9474 H 901.669 1.91167 2.28602 0
M  V30 9475 H 899.206 0.952645 1.12085 0
M  V30 9476 H 901.164 0.289526 4.16194 0
M  V30 9477 H 899.794 -0.340073 3.21004 0
M  V30 9478 H 898.846 2.07976 3.18512 0
M  V30 9479 H 900.158 2.54074 4.29241 0
M  V30 9480 H 899.312 0.915358 5.99755 0
M  V30 9481 H 898.051 0.353045 4.8642 0
M  V30 9482 H 897.056 2.65734 4.81316 0
M  V30 9483 H 898.281 3.21669 5.98085 0
M  V30 9484 H 896.227 1.02863 6.47885 0
M  V30 9485 H 896.144 2.65225 7.07949 0
M  V30 9486 H 897.412 1.5979 7.62947 0
M  V30 9487 N 901.641 -1.19671 1.02551 0
M  V30 9488 C 902.887 -1.89548 0.721069 0
M  V30 9489 C 903.22 -1.79209 -0.748176 0
M  V30 9490 O 902.495 -1.1822 -1.54448 0
M  V30 9491 C 902.778 -3.4061 1.16861 0
M  V30 9492 C 902.631 -3.59838 2.69883 0
M  V30 9493 C 903.95 -4.33718 0.746782 0
M  V30 9494 H 901.069 -0.688315 0.263422 0
M  V30 9495 H 903.711 -1.40883 1.27483 0
M  V30 9496 H 901.861 -3.82188 0.697477 0
M  V30 9497 H 903.533 -3.27454 3.24917 0
M  V30 9498 H 901.776 -3.03005 3.10435 0
M  V30 9499 H 902.447 -4.65766 2.96253 0
M  V30 9500 H 904.923 -3.99837 1.15195 0
M  V30 9501 H 903.799 -5.38012 1.08786 0
M  V30 9502 H 904.06 -4.40704 -0.351057 0
M  V30 9503 N 903.119 -0.802921 -1.35613 0
M  V30 9504 C 904.359 -0.387163 -2.007 0
M  V30 9505 C 904.723 1.02546 -1.62322 0
M  V30 9506 O 905.924 1.54303 -2.201 0
M  V30 9507 C 904.195 -0.560813 -3.52973 0
M  V30 9508 S 905.754 -0.234935 -4.38171 0
M  V30 9509 H 902.572 -0.147218 -0.695592 0
M  V30 9510 H 905.174 -1.04437 -1.65267 0
M  V30 9511 H 903.878 -1.58897 -3.78391 0
M  V30 9512 H 903.409 0.111845 -3.93241 0
M  V30 9513 H 905.424 0.958715 -4.8685 0
M  V30 9514 N 904.597 1.47463 -0.556102 0
M  V30 9515 C 905.846 2.01678 -0.029492 0
M  V30 9516 C 906.159 1.436 1.32809 0
M  V30 9517 O 907.365 1.89472 1.94455 0
M  V30 9518 C 905.821 3.599 -0.00223937 0
M  V30 9519 C 905.429 4.26969 -1.35651 0
M  V30 9520 C 907.173 4.2187 0.471822 0
M  V30 9521 C 905.08 5.77194 -1.28843 0
M  V30 9522 H 904.01 0.753965 -0.00725504 0
M  V30 9523 H 906.661 1.69467 -0.703789 0
M  V30 9524 H 905.043 3.89068 0.737682 0
M  V30 9525 H 906.217 4.09444 -2.11406 0
M  V30 9526 H 904.532 3.76983 -1.76842 0
M  V30 9527 H 907.129 5.31955 0.541139 0
M  V30 9528 H 907.472 3.88968 1.48356 0
M  V30 9529 H 908.005 3.97228 -0.213207 0
M  V30 9530 H 904.744 6.14713 -2.27613 0
M  V30 9531 H 904.264 5.9706 -0.572668 0
M  V30 9532 H 905.943 6.3938 -0.990031 0
M  V30 9533 N 906.075 0.2925 1.54862 0
M  V30 9534 C 907.023 -0.603186 2.24643 0
M  V30 9535 C 908.017 -1.1439 1.24946 0
M  V30 9536 O 909.223 -1.09552 1.42823 0
M  V30 9537 H 905.598 -0.213105 0.721173 0
M  V30 9538 H 907.569 0.00799278 2.98399 0
M  V30 9539 C 906.318 -1.76769 2.99413 0
M  V30 9540 H 905.641 -1.36084 3.75927 0
M  V30 9541 H 907.081 -2.37066 3.51533 0
M  V30 9542 C 905.54 -2.66669 2.05886 0
M  V30 9543 O 906.07 -3.67525 1.62136 0
M  V30 9544 N 904.276 -2.34216 1.7202 0
M  V30 9545 H 903.823 -1.52246 2.07795 0
M  V30 9546 H 903.781 -2.94635 1.09717 0
M  V30 9547 N 907.553 -1.57587 0.0200696 0
M  V30 9548 C 908.516 -2.08595 -0.949767 0
M  V30 9549 C 909.516 -0.999215 -1.25985 0
M  V30 9550 O 910.706 -1.26115 -1.2017 0
M  V30 9551 C 907.838 -2.54424 -2.26895 0
M  V30 9552 H 909.031 -2.95563 -0.508161 0
M  V30 9553 H 906.584 -1.54631 -0.227798 0
M  V30 9554 H 907.319 -1.70758 -2.75703 0
M  V30 9555 H 907.104 -3.3381 -2.05702 0
M  V30 9556 H 908.594 -2.94144 -2.96427 0
M  V30 9557 N 909.032 0.252966 -1.55557 0
M  V30 9558 C 909.942 1.33472 -1.92931 0
M  V30 9559 C 910.958 1.52983 -0.828985 0
M  V30 9560 O 912.134 1.66723 -1.12984 0
M  V30 9561 C 909.199 2.6704 -2.21112 0
M  V30 9562 C 908.26 2.56103 -3.44542 0
M  V30 9563 C 907.493 3.83302 -3.71369 0
M  V30 9564 O 907.716 4.84907 -3.00368 0
M  V30 9565 O 906.65 3.823 -4.64898 0
M  V30 9566 H 910.476 1.04768 -2.85057 0
M  V30 9567 H 908.061 0.453208 -1.4236 0
M  V30 9568 H 909.943 3.45981 -2.40572 0
M  V30 9569 H 908.618 2.95489 -1.32166 0
M  V30 9570 H 907.525 1.7547 -3.30396 0
M  V30 9571 H 908.858 2.32601 -4.33772 0
M  V30 9572 N 910.51 1.48831 0.518367 0
M  V30 9573 C 911.75 1.59045 1.28391 0
M  V30 9574 C 912.114 0.263443 1.90184 0
M  V30 9575 O 913.315 0.24064 2.67721 0
M  V30 9576 C 911.586 2.70536 2.33548 0
M  V30 9577 S 913.145 3.00591 3.19673 0
M  V30 9578 H 909.963 0.561182 0.436573 0
M  V30 9579 H 912.565 1.86409 0.589222 0
M  V30 9580 H 911.269 3.65499 1.86652 0
M  V30 9581 H 910.8 2.4511 3.07708 0
M  V30 9582 H 912.815 2.40779 4.33866 0
M  V30 9583 N 911.988 -0.768124 1.37614 0
M  V30 9584 C 913.234 -1.52907 1.33219 0
M  V30 9585 C 913.567 -1.94026 -0.0821218 0
M  V30 9586 O 912.842 -1.64345 -1.04023 0
M  V30 9587 C 913.125 -2.79164 2.27463 0
M  V30 9588 C 912.978 -2.44276 3.7769 0
M  V30 9589 C 914.297 -3.81115 2.20089 0
M  V30 9590 H 911.416 -0.554712 0.485246 0
M  V30 9591 H 914.058 -0.880911 1.68345 0
M  V30 9592 H 912.208 -3.34472 1.97639 0
M  V30 9593 H 913.88 -1.94855 4.18126 0
M  V30 9594 H 912.123 -1.76925 3.96081 0
M  V30 9595 H 912.794 -3.34544 4.39072 0
M  V30 9596 H 915.27 -3.35311 2.46386 0
M  V30 9597 H 914.146 -4.67174 2.88166 0
M  V30 9598 H 914.407 -4.25644 1.19498 0
M  V30 9599 N 913.466 -1.22244 -0.994698 0
M  V30 9600 C 914.743 -0.954459 -1.70732 0
M  V30 9601 C 915.123 0.530945 -2.04314 0
M  V30 9602 O 914.471 1.49851 -1.72502 0
M  V30 9603 C 914.681 -1.85016 -2.95922 0
M  V30 9604 C 916.029 -2.10517 -3.68738 0
M  V30 9605 O 917.053 -1.82449 -3.05926 0
M  V30 9606 O 915.912 -2.58044 -4.81742 0
M  V30 9607 H 913.006 -0.35879 -0.745116 0
M  V30 9608 H 915.552 -1.33221 -1.0512 0
M  V30 9609 H 914.324 -2.85498 -2.67594 0
M  V30 9610 H 913.947 -1.47388 -3.69273 0
M  V30 9611 N 914.944 1.19125 -1.03184 0
M  V30 9612 C 916.193 1.8821 -0.725264 0
M  V30 9613 C 916.506 1.80674 0.749411 0
M  V30 9614 O 917.712 2.45037 1.16915 0
M  V30 9615 C 916.168 3.37607 -1.24697 0
M  V30 9616 C 915.776 3.53693 -2.74964 0
M  V30 9617 C 917.52 4.12149 -1.01652 0
M  V30 9618 C 915.427 4.97001 -3.20538 0
M  V30 9619 H 914.357 0.704916 -0.267599 0
M  V30 9620 H 917.008 1.34663 -1.24652 0
M  V30 9621 H 915.39 3.90569 -0.653614 0
M  V30 9622 H 916.564 3.11046 -3.39981 0
M  V30 9623 H 914.879 2.92544 -2.96322 0
M  V30 9624 H 917.476 5.17837 -1.33226 0
M  V30 9625 H 917.819 4.16274 0.0465712 0
M  V30 9626 H 918.352 3.65334 -1.57403 0
M  V30 9627 H 915.091 4.9804 -4.26189 0
M  V30 9628 H 914.611 5.40398 -2.60251 0
M  V30 9629 H 916.29 5.65669 -3.14049 0
M  V30 9630 N 916.422 0.810101 1.35185 0
M  V30 9631 C 917.332 0.224565 2.33523 0
M  V30 9632 C 918.348 -0.634287 1.62027 0
M  V30 9633 O 919.524 -0.545211 1.9388 0
M  V30 9634 C 916.589 -0.614319 3.41214 0
M  V30 9635 C 915.65 0.265435 4.28479 0
M  V30 9636 C 914.883 -0.533506 5.31027 0
M  V30 9637 O 915.106 -1.7679 5.42311 0
M  V30 9638 O 914.04 0.0774573 6.0185 0
M  V30 9639 H 917.866 1.03815 2.85405 0
M  V30 9640 H 915.451 0.571964 1.38018 0
M  V30 9641 H 917.333 -1.09201 4.07005 0
M  V30 9642 H 916.008 -1.40545 2.91597 0
M  V30 9643 H 914.915 0.790343 3.65656 0
M  V30 9644 H 916.248 1.0206 4.81503 0
M  V30 9645 N 917.9 -1.47166 0.563914 0
M  V30 9646 C 918.847 -2.30097 -0.180013 0
M  V30 9647 C 919.817 -1.39473 -0.902019 0
M  V30 9648 O 921.002 -1.68432 -0.896396 0
M  V30 9649 C 918.142 -3.23573 -1.19978 0
M  V30 9650 C 917.255 -4.2929 -0.483149 0
M  V30 9651 C 916.39 -5.0991 -1.48879 0
M  V30 9652 C 915.429 -6.07395 -0.757513 0
M  V30 9653 N 914.566 -6.8095 -1.71031 0
M  V30 9654 H 919.406 -2.93189 0.53329 0
M  V30 9655 H 916.943 -1.4451 0.274814 0
M  V30 9656 H 918.901 -3.76196 -1.80368 0
M  V30 9657 H 917.531 -2.6233 -1.88103 0
M  V30 9658 H 916.583 -3.79671 0.235414 0
M  V30 9659 H 917.895 -4.9872 0.0894075 0
M  V30 9660 H 917.049 -5.66717 -2.16603 0
M  V30 9661 H 915.788 -4.40397 -2.09527 0
M  V30 9662 H 914.793 -5.4976 -0.0663841 0
M  V30 9663 H 916.018 -6.78919 -0.156685 0
M  V30 9664 H 913.964 -6.14162 -2.30524 0
M  V30 9665 H 913.881 -7.46574 -1.19007 0
M  V30 9666 H 915.149 -7.42326 -2.37849 0
M  V30 9667 N 919.378 -0.300708 -1.54705 0
M  V30 9668 C 920.341 0.562648 -2.22187 0
M  V30 9669 C 921.341 1.06152 -1.20782 0
M  V30 9670 O 922.531 0.957596 -1.45519 0
M  V30 9671 C 919.663 1.77899 -2.908 0
M  V30 9672 H 920.856 -0.0269361 -2.99888 0
M  V30 9673 H 918.409 -0.0515412 -1.56215 0
M  V30 9674 H 919.144 2.40841 -2.17177 0
M  V30 9675 H 918.929 1.42892 -3.65136 0
M  V30 9676 H 920.419 2.39236 -3.42281 0
M  V30 9677 N 920.856 1.57574 -0.0284266 0
M  V30 9678 C 922.086 1.95787 0.659617 0
M  V30 9679 C 922.494 0.903475 1.66235 0
M  V30 9680 O 921.837 -0.12329 1.83286 0
M  V30 9681 C 921.899 3.30139 1.42298 0
M  V30 9682 C 921.563 4.53322 0.578658 0
M  V30 9683 C 922.56 5.19696 -0.145751 0
M  V30 9684 C 920.245 4.9964 0.516264 0
M  V30 9685 C 922.239 6.30708 -0.921235 0
M  V30 9686 C 919.926 6.10534 -0.262925 0
M  V30 9687 C 920.924 6.75927 -0.980382 0
M  V30 9688 O 920.612 7.84692 -1.7468 0
M  V30 9689 H 920.344 0.649681 0.186792 0
M  V30 9690 H 922.898 2.05227 -0.0842687 0
M  V30 9691 H 921.128 3.17188 2.21199 0
M  V30 9692 H 922.817 3.53259 1.99906 0
M  V30 9693 H 923.583 4.84882 -0.106876 0
M  V30 9694 H 919.462 4.48547 1.06427 0
M  V30 9695 H 923.006 6.81682 -1.48176 0
M  V30 9696 H 918.903 6.44786 -0.303519 0
M  V30 9697 H 919.671 8.01355 -1.6665 0
M  V30 9698 N 922.334 -0.244713 1.55689 0
M  V30 9699 C 923.281 -1.30301 1.905 0
M  V30 9700 C 924.251 -1.4772 0.759478 0
M  V30 9701 O 925.436 -1.61667 1.01333 0
M  V30 9702 C 922.576 -2.653 2.20703 0
M  V30 9703 C 921.689 -2.55872 3.48071 0
M  V30 9704 C 920.824 -3.83238 3.67834 0
M  V30 9705 C 919.863 -3.68436 4.88796 0
M  V30 9706 N 919 -4.877 5.05068 0
M  V30 9707 H 923.84 -0.999143 2.80751 0
M  V30 9708 H 921.377 -0.482099 1.38976 0
M  V30 9709 H 923.335 -3.43884 2.36219 0
M  V30 9710 H 921.965 -2.93831 1.33653 0
M  V30 9711 H 921.017 -1.68846 3.40874 0
M  V30 9712 H 922.329 -2.40845 4.36801 0
M  V30 9713 H 921.483 -4.70266 3.83321 0
M  V30 9714 H 920.222 -4.01165 2.77341 0
M  V30 9715 H 919.227 -2.79793 4.73282 0
M  V30 9716 H 920.452 -3.52003 5.8075 0
M  V30 9717 H 918.398 -5.05983 4.17513 0
M  V30 9718 H 918.315 -4.75312 5.8789 0
M  V30 9719 H 919.583 -5.76219 5.24969 0
M  V30 9720 N 923.813 -1.49104 -0.510467 0
M  V30 9721 C 925.038 -1.62068 -1.29417 0
M  V30 9722 C 925.463 -0.288432 -1.85875 0
M  V30 9723 O 924.821 0.742667 -1.65391 0
M  V30 9724 C 924.869 -2.68506 -2.40701 0
M  V30 9725 O 923.973 -2.27021 -3.4429 0
M  V30 9726 H 923.314 -0.542778 -0.382476 0
M  V30 9727 H 925.844 -1.95228 -0.612154 0
M  V30 9728 H 925.854 -2.90383 -2.86604 0
M  V30 9729 H 924.529 -3.65216 -1.98973 0
M  V30 9730 H 923.106 -2.15436 -3.04371 0
M  V30 9731 N 925.291 0.760815 -1.38019 0
M  V30 9732 C 926.519 1.55001 -1.37048 0
M  V30 9733 C 926.934 1.88754 0.0415261 0
M  V30 9734 O 926.291 1.52254 1.00624 0
M  V30 9735 C 926.342 2.8536 -2.21928 0
M  V30 9736 O 926.063 2.53049 -3.57628 0
M  V30 9737 C 927.564 3.79536 -2.29057 0
M  V30 9738 H 924.784 0.479844 -0.469032 0
M  V30 9739 H 927.328 0.942148 -1.81504 0
M  V30 9740 H 925.483 3.42542 -1.80953 0
M  V30 9741 H 925.897 3.36604 -4.02241 0
M  V30 9742 H 927.371 4.67977 -2.92749 0
M  V30 9743 H 927.848 4.19453 -1.30213 0
M  V30 9744 H 928.454 3.28281 -2.70392 0
M  V30 9745 N 926.769 1.22769 0.988202 0
M  V30 9746 C 927.717 0.999271 2.10041 0
M  V30 9747 C 928.711 -0.0591767 1.69297 0
M  V30 9748 O 929.917 0.0936653 1.79756 0
M  V30 9749 H 926.292 0.30599 0.686931 0
M  V30 9750 H 928.263 1.94294 2.26478 0
M  V30 9751 C 927.012 0.59873 3.42506 0
M  V30 9752 H 926.335 1.40487 3.74304 0
M  V30 9753 H 927.775 0.478353 4.21293 0
M  V30 9754 C 926.234 -0.692216 3.29712 0
M  V30 9755 O 926.764 -1.74342 3.61895 0
M  V30 9756 N 924.97 -0.665163 2.82885 0
M  V30 9757 H 924.517 0.190604 2.56894 0
M  V30 9758 H 924.475 -1.52917 2.74706 0
M  V30 9759 N 928.247 -1.18576 1.03814 0
M  V30 9760 C 929.487 -1.90187 0.748882 0
M  V30 9761 C 929.851 -1.78383 -0.710177 0
M  V30 9762 O 931.052 -2.44678 -1.11293 0
M  V30 9763 C 929.323 -3.36688 1.19901 0
M  V30 9764 S 930.882 -4.26419 1.03501 0
M  V30 9765 H 927.7 -0.656765 0.272362 0
M  V30 9766 H 930.302 -1.43296 1.32991 0
M  V30 9767 H 929.006 -3.42808 2.25635 0
M  V30 9768 H 928.537 -3.88616 0.611669 0
M  V30 9769 H 930.552 -4.96176 -0.0490431 0
M  V30 9770 N 929.725 -0.817259 -1.34754 0
M  V30 9771 C 930.95 -0.414423 -2.03217 0
M  V30 9772 C 931.375 0.970037 -1.61158 0
M  V30 9773 O 930.733 1.63016 -0.793436 0
M  V30 9774 C 930.781 -0.518087 -3.56859 0
M  V30 9775 O 929.885 0.464314 -4.09778 0
M  V30 9776 H 929.226 -0.171454 -0.641482 0
M  V30 9777 H 931.756 -1.10611 -1.72123 0
M  V30 9778 H 931.766 -0.391779 -4.06115 0
M  V30 9779 H 930.441 -1.52786 -3.86819 0
M  V30 9780 H 929.018 0.297361 -3.71712 0
M  V30 9781 N 931.203 1.46865 -0.571711 0
M  V30 9782 C 932.428 2.07323 -0.0564655 0
M  V30 9783 C 932.853 1.41938 1.23431 0
M  V30 9784 O 932.211 0.499334 1.74288 0
M  V30 9785 C 932.259 3.6044 0.107339 0
M  V30 9786 O 931.363 3.95558 1.1665 0
M  V30 9787 H 930.704 0.661475 -0.0578465 0
M  V30 9788 H 933.234 1.88669 -0.791524 0
M  V30 9789 H 933.244 4.06767 0.316987 0
M  V30 9790 H 931.919 4.07425 -0.835348 0
M  V30 9791 H 930.496 3.60957 0.936189 0
M  V30 9792 N 932.681 0.308908 1.54543 0
M  V30 9793 C 933.628 -0.563659 2.23811 0
M  V30 9794 C 934.598 -1.12332 1.22355 0
M  V30 9795 O 935.783 -1.16638 1.50997 0
M  V30 9796 C 932.923 -1.72585 2.98845 0
M  V30 9797 C 932.036 -1.19682 4.1509 0
M  V30 9798 C 931.171 -2.32351 4.77688 0
M  V30 9799 C 930.21 -1.76623 5.86064 0
M  V30 9800 N 929.347 -2.82896 6.42584 0
M  V30 9801 H 934.187 0.0336288 2.97981 0
M  V30 9802 H 931.724 0.0283666 1.47073 0
M  V30 9803 H 933.682 -2.40951 3.40586 0
M  V30 9804 H 932.312 -2.29464 2.27037 0
M  V30 9805 H 931.364 -0.405173 3.78236 0
M  V30 9806 H 932.676 -0.748923 4.93146 0
M  V30 9807 H 931.83 -3.0865 5.22322 0
M  V30 9808 H 930.569 -2.80472 3.98982 0
M  V30 9809 H 929.574 -0.988171 5.40847 0
M  V30 9810 H 930.799 -1.29398 6.66658 0
M  V30 9811 H 928.745 -3.30336 5.66758 0
M  V30 9812 H 928.662 -2.42626 7.16009 0
M  V30 9813 H 929.93 -3.59068 6.91875 0
M  V30 9814 N 934.159 -1.57557 0.0367827 0
M  V30 9815 C 935.399 -1.93981 -0.644252 0
M  V30 9816 C 935.763 -0.913982 -1.6885 0
M  V30 9817 O 936.964 -1.16468 -2.42257 0
M  V30 9818 C 935.235 -3.35281 -1.23779 0
M  V30 9819 S 936.794 -3.93643 -1.93883 0
M  V30 9820 H 933.612 -0.678683 -0.21192 0
M  V30 9821 H 936.214 -1.95232 0.102281 0
M  V30 9822 H 934.918 -4.07752 -0.465451 0
M  V30 9823 H 934.449 -3.37492 -2.02146 0
M  V30 9824 H 936.464 -3.777 -3.21803 0
M  V30 9825 N 935.637 0.236453 -1.55816 0
M  V30 9826 C 936.584 1.29289 -1.91188 0
M  V30 9827 C 937.554 1.47315 -0.767301 0
M  V30 9828 O 938.739 1.61128 -1.02189 0
M  V30 9829 C 935.879 2.64126 -2.22107 0
M  V30 9830 C 934.992 2.54022 -3.49423 0
M  V30 9831 C 934.127 3.81282 -3.69861 0
M  V30 9832 C 933.166 3.65839 -4.90743 0
M  V30 9833 N 932.303 4.85014 -5.07647 0
M  V30 9834 H 937.143 0.98424 -2.81277 0
M  V30 9835 H 934.68 0.474722 -1.39229 0
M  V30 9836 H 936.638 3.42626 -2.3804 0
M  V30 9837 H 935.268 2.93118 -1.35209 0
M  V30 9838 H 934.32 1.67036 -3.41765 0
M  V30 9839 H 935.632 2.38525 -4.38072 0
M  V30 9840 H 934.786 4.68226 -3.8581 0
M  V30 9841 H 933.525 3.99688 -2.79465 0
M  V30 9842 H 932.53 2.77279 -4.74759 0
M  V30 9843 H 933.755 3.48918 -5.82609 0
M  V30 9844 H 931.701 5.03762 -4.20191 0
M  V30 9845 H 931.618 4.72188 -5.90402 0
M  V30 9846 H 932.886 5.73427 -5.28017 0
M  V30 9847 N 937.115 1.49373 0.502552 0
M  V30 9848 C 938.363 1.58467 1.25429 0
M  V30 9849 C 938.684 0.272593 1.93085 0
M  V30 9850 O 937.954 -0.707947 1.82661 0
M  V30 9851 H 936.534 0.583866 0.46595 0
M  V30 9852 H 939.196 1.8599 0.582568 0
M  V30 9853 H 938.292 2.37993 2.01906 0
M  V30 9854 N 938.594 -0.753485 1.38421 0
M  V30 9855 C 939.544 -1.85788 1.32162 0
M  V30 9856 C 940.528 -1.59577 0.20588 0
M  V30 9857 O 941.72 -1.71396 0.44186 0
M  V30 9858 C 938.849 -3.23498 1.14909 0
M  V30 9859 C 937.935 -3.556 2.31105 0
M  V30 9860 N 938.326 -3.58759 3.56547 0
M  V30 9861 C 936.624 -3.85866 2.23659 0
M  V30 9862 C 937.325 -3.8813 4.33278 0
M  V30 9863 N 936.301 -4.04966 3.62635 0
M  V30 9864 H 940.103 -1.86509 2.27138 0
M  V30 9865 H 937.617 -0.950843 1.31654 0
M  V30 9866 H 939.614 -4.02531 1.08509 0
M  V30 9867 H 938.274 -3.24029 0.20866 0
M  V30 9868 H 939.285 -3.40517 3.90216 0
M  V30 9869 H 935.962 -3.94112 1.37776 0
M  V30 9870 H 937.352 -3.97197 5.41926 0
M  V30 9871 N 940.072 -1.23292 -0.981677 0
M  V30 9872 C 941.035 -1.01417 -2.05542 0
M  V30 9873 C 942.035 0.0235354 -1.60783 0
M  V30 9874 O 943.225 -0.216082 -1.72855 0
M  V30 9875 C 940.357 -0.534239 -3.36688 0
M  V30 9876 H 941.55 -1.96702 -2.26381 0
M  V30 9877 H 939.103 -1.05318 -1.1549 0
M  V30 9878 H 939.838 0.422452 -3.21537 0
M  V30 9879 H 939.623 -1.28304 -3.70514 0
M  V30 9880 H 941.113 -0.40179 -4.15663 0
M  V30 9881 N 941.55 1.18024 -1.04442 0
M  V30 9882 C 942.796 1.88377 -0.751133 0
M  V30 9883 C 943.129 1.80377 0.719571 0
M  V30 9884 O 942.404 1.20662 1.52548 0
M  V30 9885 C 942.687 3.38708 -1.22265 0
M  V30 9886 C 942.54 3.55499 -2.75574 0
M  V30 9887 C 943.859 4.32475 -0.815688 0
M  V30 9888 H 940.978 0.684037 -0.27434 0
M  V30 9889 H 943.62 1.38837 -1.29709 0
M  V30 9890 H 941.77 3.8103 -0.758192 0
M  V30 9891 H 943.442 3.22244 -3.30086 0
M  V30 9892 H 941.685 2.98028 -3.15217 0
M  V30 9893 H 942.356 4.60994 -3.03625 0
M  V30 9894 H 944.832 3.97953 -1.21542 0
M  V30 9895 H 943.708 5.36213 -1.17331 0
M  V30 9896 H 943.969 4.41207 0.280901 0
M  V30 9897 N 943.028 0.824394 1.34319 0
M  V30 9898 C 944.268 0.419044 2.00058 0
M  V30 9899 C 944.632 -0.999504 1.63933 0
M  V30 9900 O 945.833 -1.50781 2.22527 0
M  V30 9901 C 944.104 0.616897 3.52036 0
M  V30 9902 S 945.663 0.304614 4.37741 0
M  V30 9903 H 942.481 0.158265 0.693162 0
M  V30 9904 H 945.083 1.07053 1.63585 0
M  V30 9905 H 943.787 1.64896 3.75816 0
M  V30 9906 H 943.318 -0.0492693 3.93369 0
M  V30 9907 H 945.333 -0.88114 4.88314 0
M  V30 9908 N 944.506 -1.46559 0.579492 0
M  V30 9909 C 945.783 -1.956 -0.00287136 0
M  V30 9910 C 946.163 -1.52215 -1.46266 0
M  V30 9911 O 945.511 -0.771335 -2.15088 0
M  V30 9912 C 945.721 -3.48606 0.165824 0
M  V30 9913 C 947.069 -4.24588 0.0319807 0
M  V30 9914 O 948.093 -3.56075 0.094496 0
M  V30 9915 O 946.952 -5.46396 -0.106386 0
M  V30 9916 H 944.046 -0.825387 -0.0516274 0
M  V30 9917 H 946.592 -1.56858 0.647584 0
M  V30 9918 H 945.364 -3.7306 1.18076 0
M  V30 9919 H 944.987 -3.94169 -0.521212 0
M  V30 9920 N 945.984 -0.3171 -1.54377 0
M  V30 9921 C 946.934 0.567199 -2.20832 0
M  V30 9922 C 947.918 1.08661 -1.18666 0
M  V30 9923 O 949.11 1.0247 -1.44322 0
M  V30 9924 C 946.239 1.73079 -2.96477 0
M  V30 9925 C 945.325 1.22658 -4.05975 0
M  V30 9926 N 945.716 0.441565 -5.03869 0
M  V30 9927 C 944.014 1.50589 -4.19808 0
M  V30 9928 C 944.715 0.171063 -5.81448 0
M  V30 9929 N 943.691 0.755389 -5.38326 0
M  V30 9930 H 947.493 -0.0399349 -2.93873 0
M  V30 9931 H 945.007 -0.122639 -1.61936 0
M  V30 9932 H 947.004 2.37601 -3.42566 0
M  V30 9933 H 945.664 2.34146 -2.24957 0
M  V30 9934 H 946.675 0.0849921 -5.1783 0
M  V30 9935 H 943.352 2.12288 -3.595 0
M  V30 9936 H 944.742 -0.460484 -6.7032 0
M  V30 9937 N 947.462 1.57535 -0.0451378 0
M  V30 9938 C 948.372 2.14653 0.946646 0
M  V30 9939 C 949.388 1.10279 1.3459 0
M  V30 9940 O 950.564 1.42417 1.42405 0
M  V30 9941 C 947.629 2.67533 2.20515 0
M  V30 9942 C 946.69 3.86682 1.86481 0
M  V30 9943 C 945.923 4.37031 3.06332 0
M  V30 9944 O 946.146 3.86481 4.1951 0
M  V30 9945 O 945.08 5.28691 2.87697 0
M  V30 9946 H 948.906 2.99706 0.49091 0
M  V30 9947 H 946.491 1.48355 0.17641 0
M  V30 9948 H 948.373 3.01542 2.94365 0
M  V30 9949 H 947.048 1.85554 2.65238 0
M  V30 9950 H 945.955 3.57573 1.09966 0
M  V30 9951 H 947.288 4.69873 1.46562 0
M  V30 9952 N 948.94 -0.228186 1.55939 0
M  V30 9953 C 949.87 -1.28607 1.94891 0
M  V30 9954 C 950.851 -1.49236 0.816245 0
M  V30 9955 O 952.036 -1.61531 1.07803 0
M  V30 9956 C 949.166 -2.63719 2.25986 0
M  V30 9957 C 948.12 -2.57757 3.4168 0
M  V30 9958 C 947.446 -3.96837 3.58364 0
M  V30 9959 C 948.746 -2.13116 4.76843 0
M  V30 9960 H 950.44 -0.962531 2.83506 0
M  V30 9961 H 947.986 -0.461577 1.36402 0
M  V30 9962 H 949.939 -3.37878 2.51826 0
M  V30 9963 H 948.663 -2.97747 1.34217 0
M  V30 9964 H 947.322 -1.86055 3.15878 0
M  V30 9965 H 946.97 -4.28162 2.63982 0
M  V30 9966 H 946.67 -3.93731 4.36176 0
M  V30 9967 H 948.194 -4.72668 3.86545 0
M  V30 9968 H 949.608 -2.77015 5.01932 0
M  V30 9969 H 948.005 -2.21083 5.57891 0
M  V30 9970 H 949.075 -1.08326 4.72645 0
M  V30 9971 N 950.418 -1.49637 -0.494624 0
M  V30 9972 C 951.35 -1.62902 -1.61231 0
M  V30 9973 C 952.363 -0.511425 -1.54558 0
M  V30 9974 O 953.552 -0.783724 -1.60375 0
M  V30 9975 C 950.652 -1.57564 -3.00045 0
M  V30 9976 C 949.825 -2.84964 -3.31835 0
M  V30 9977 C 948.884 -2.72591 -4.5009 0
M  V30 9978 O 947.91 -3.46532 -4.51558 0
M  V30 9979 N 949.112 -1.84563 -5.50379 0
M  V30 9980 H 951.877 -2.59301 -1.50276 0
M  V30 9981 H 949.438 -1.46806 -0.68262 0
M  V30 9982 H 951.43 -1.46932 -3.77085 0
M  V30 9983 H 950 -0.689974 -3.0489 0
M  V30 9984 H 949.22 -3.099 -2.4363 0
M  V30 9985 H 950.508 -3.69412 -3.49875 0
M  V30 9986 H 949.906 -1.23758 -5.51997 0
M  V30 9987 H 948.463 -1.79849 -6.26496 0
M  V30 9988 N 951.896 0.746133 -1.38819 0
M  V30 9989 C 953.136 1.51821 -1.36857 0
M  V30 9990 C 953.5 1.9196 0.0391461 0
M  V30 9991 O 954.701 2.68172 0.183689 0
M  V30 9992 C 952.972 2.73214 -2.3041 0
M  V30 9993 S 954.531 3.62995 -2.46536 0
M  V30 9994 H 951.349 0.51945 -0.485482 0
M  V30 9995 H 953.951 0.875244 -1.74813 0
M  V30 9996 H 952.655 2.41847 -3.31569 0
M  V30 9997 H 952.186 3.42449 -1.9363 0
M  V30 9998 H 954.201 4.66353 -1.69498 0
M  V30 9999 N 953.375 1.23811 0.975125 0
M  V30 10000 C 954.307 0.981779 2.07108 0
M  V30 10001 C 955.32 -0.0461211 1.62735 0
M  V30 10002 O 956.509 0.190039 1.77486 0
M  V30 10003 C 953.609 0.458364 3.35786 0
M  V30 10004 C 952.782 1.54767 4.09104 0
M  V30 10005 C 951.841 1.0282 5.16057 0
M  V30 10006 O 950.867 1.71831 5.42644 0
M  V30 10007 N 952.069 -0.141243 5.80328 0
M  V30 10008 H 954.834 1.92537 2.29673 0
M  V30 10009 H 952.395 1.1474 1.14221 0
M  V30 10010 H 954.387 0.0957686 4.04587 0
M  V30 10011 H 952.957 -0.390768 3.10148 0
M  V30 10012 H 952.177 2.08279 3.34684 0
M  V30 10013 H 953.465 2.28006 4.54853 0
M  V30 10014 H 952.863 -0.718382 5.6112 0
M  V30 10015 H 951.42 -0.445052 6.50279 0
M  V30 10016 N 954.853 -1.17469 1.05066 0
M  V30 10017 C 956.093 -1.89382 0.769012 0
M  V30 10018 C 956.457 -1.79126 -0.691217 0
M  V30 10019 O 957.658 -2.45845 -1.08692 0
M  V30 10020 C 955.929 -3.35397 1.23465 0
M  V30 10021 S 957.488 -4.25297 1.08018 0
M  V30 10022 H 954.306 -0.653839 0.279312 0
M  V30 10023 H 956.908 -1.41877 1.34503 0
M  V30 10024 H 955.612 -3.40395 2.29258 0
M  V30 10025 H 955.143 -3.87945 0.652853 0
M  V30 10026 H 957.158 -4.962 0.00358573 0
M  V30 10027 N 956.331 -0.831506 -1.3388 0
M  V30 10028 C 957.241 -0.261688 -2.33136 0
M  V30 10029 C 958.257 0.608429 -1.63016 0
M  V30 10030 O 959.433 0.514297 -1.94723 0
M  V30 10031 C 956.498 0.559957 -3.42148 0
M  V30 10032 C 955.559 -0.333569 -4.28002 0
M  V30 10033 C 954.792 0.448956 -5.31808 0
M  V30 10034 O 955.015 1.6814 -5.45055 0
M  V30 10035 O 953.949 -0.173197 -6.01651 0
M  V30 10036 H 957.775 -1.08343 -2.83717 0
M  V30 10037 H 955.36 -0.593849 -1.3709 0
M  V30 10038 H 957.242 1.02712 -4.08691 0
M  V30 10039 H 955.917 1.35888 -2.93796 0
M  V30 10040 H 954.824 -0.848416 -3.64352 0
M  V30 10041 H 956.157 -1.09707 -4.79818 0
M  V30 10042 N 957.809 1.4625 -0.587256 0
M  V30 10043 C 958.719 2.34147 0.145744 0
M  V30 10044 C 959.735 1.50026 0.881376 0
M  V30 10045 O 960.911 1.82884 0.843539 0
M  V30 10046 C 957.976 3.27294 1.14366 0
M  V30 10047 C 957.037 4.27317 0.412199 0
M  V30 10048 C 956.27 5.16013 1.36257 0
M  V30 10049 O 956.493 5.0773 2.59934 0
M  V30 10050 O 955.427 5.95569 0.870681 0
M  V30 10051 H 959.253 2.98187 -0.576055 0
M  V30 10052 H 956.838 1.45299 -0.347628 0
M  V30 10053 H 958.72 3.84747 1.71894 0
M  V30 10054 H 957.395 2.65845 1.84684 0
M  V30 10055 H 956.302 3.73538 -0.205036 0
M  V30 10056 H 957.635 4.91564 -0.250104 0
M  V30 10057 N 959.287 0.325282 1.54207 0
M  V30 10058 C 960.535 -0.276229 2.00203 0
M  V30 10059 C 960.856 -1.52519 1.21503 0
M  V30 10060 O 960.126 -1.93313 0.317302 0
M  V30 10061 H 958.706 -0.105059 0.739575 0
M  V30 10062 H 961.368 0.442225 1.89817 0
M  V30 10063 H 960.464 -0.531427 3.07542 0
M  V30 10064 N 960.765 -1.57509 0.0534917 0
M  V30 10065 C 962.011 -1.93887 -0.614776 0
M  V30 10066 C 962.366 -0.932098 -1.68314 0
M  V30 10067 O 961.659 0.0483848 -1.91539 0
M  V30 10068 C 961.853 -3.34734 -1.25251 0
M  V30 10069 C 961.682 -4.49019 -0.247444 0
M  V30 10070 C 960.452 -5.05042 0.161406 0
M  V30 10071 C 962.65 -5.11784 0.508059 0
M  V30 10072 N 960.632 -6.02858 1.15909 0
M  V30 10073 C 962.003 -6.04928 1.35876 0
M  V30 10074 C 964.058 -4.94671 0.56612 0
M  V30 10075 C 962.761 -6.82797 2.26232 0
M  V30 10076 C 964.787 -5.73168 1.45712 0
M  V30 10077 C 964.149 -6.65946 2.29554 0
M  V30 10078 H 960.248 -0.756899 -0.196538 0
M  V30 10079 H 962.832 -1.94289 0.126365 0
M  V30 10080 H 961.003 -3.35104 -1.96367 0
M  V30 10081 H 962.735 -3.58395 -1.87977 0
M  V30 10082 H 959.49 -4.73098 -0.218025 0
M  V30 10083 H 959.914 -6.56462 1.6549 0
M  V30 10084 H 964.556 -4.22746 -0.0678652 0
M  V30 10085 H 962.274 -7.54012 2.90675 0
M  V30 10086 H 965.86 -5.61953 1.50664 0
M  V30 10087 H 964.74 -7.25627 2.97381 0
M  V30 10088 N 962.243 0.219913 -1.56058 0
M  V30 10089 C 963.492 0.942119 -1.78345 0
M  V30 10090 C 963.805 1.85435 -0.622344 0
M  V30 10091 O 965.011 2.61533 -0.728886 0
M  V30 10092 C 963.467 1.72544 -3.15843 0
M  V30 10093 C 963.075 0.859263 -4.39682 0
M  V30 10094 C 964.819 2.43876 -3.47455 0
M  V30 10095 C 962.726 1.64003 -5.68205 0
M  V30 10096 H 961.656 0.355514 -0.664925 0
M  V30 10097 H 964.307 0.195963 -1.82451 0
M  V30 10098 H 962.689 2.51456 -3.05918 0
M  V30 10099 H 963.863 0.110562 -4.60667 0
M  V30 10100 H 962.178 0.257985 -4.156 0
M  V30 10101 H 964.775 3.02794 -4.40704 0
M  V30 10102 H 965.118 3.16843 -2.7003 0
M  V30 10103 H 965.651 1.71952 -3.58716 0
M  V30 10104 H 962.39 0.953606 -6.48526 0
M  V30 10105 H 961.91 2.3633 -5.51279 0
M  V30 10106 H 963.589 2.20028 -6.08438 0
M  V30 10107 N 963.721 1.49897 0.486681 0
M  V30 10108 C 965.132 1.53142 1.06792 0
M  V30 10109 C 965.483 0.325856 1.93475 0
M  V30 10110 O 964.608 -0.562893 2.08951 0
M  V30 10111 C 965.203 2.77514 1.94348 0
M  V30 10112 C 963.762 2.83491 2.47609 0
M  V30 10113 C 962.909 2.47239 1.2557 0
M  V30 10114 H 965.86 1.56387 0.269962 0
M  V30 10115 H 965.881 2.58487 2.79221 0
M  V30 10116 H 965.393 3.65239 1.31232 0
M  V30 10117 H 963.494 2.0008 3.14323 0
M  V30 10118 H 963.607 3.86011 2.83782 0
M  V30 10119 H 961.971 1.99332 1.58552 0
M  V30 10120 H 962.754 3.37255 0.641404 0
M  V30 10121 N 965.199 -0.738761 1.39212 0
M  V30 10122 C 966.61 -1.31684 1.32348 0
M  V30 10123 C 966.961 -1.96195 -0.0139041 0
M  V30 10124 O 966.086 -1.96056 -0.916025 0
M  V30 10125 C 966.681 -2.39444 2.39691 0
M  V30 10126 C 965.24 -2.92935 2.36359 0
M  V30 10127 C 964.387 -1.66465 2.21776 0
M  V30 10128 H 967.338 -0.536543 1.49355 0
M  V30 10129 H 967.359 -3.19744 2.06262 0
M  V30 10130 H 966.871 -1.92463 3.37016 0
M  V30 10131 H 964.972 -3.44207 1.42662 0
M  V30 10132 H 965.085 -3.46306 3.31073 0
M  V30 10133 H 963.449 -1.90657 1.68884 0
M  V30 10134 H 964.232 -1.21541 3.21065 0
M  V30 10135 N 966.677 -1.24326 -0.968545 0
M  V30 10136 C 967.954 -0.990459 -1.68669 0
M  V30 10137 C 968.334 0.487487 -2.05394 0
M  V30 10138 O 967.682 1.46158 -1.75642 0
M  V30 10139 C 967.892 -1.91251 -2.91931 0
M  V30 10140 C 969.24 -2.18291 -3.6419 0
M  V30 10141 O 970.264 -1.88897 -3.01987 0
M  V30 10142 O 969.123 -2.68204 -4.76161 0
M  V30 10143 H 966.217 -0.374515 -0.737338 0
M  V30 10144 H 968.763 -1.35421 -1.02271 0
M  V30 10145 H 967.535 -2.9111 -2.61478 0
M  V30 10146 H 967.158 -1.55188 -3.66064 0
M  V30 10147 N 968.156 1.1691 -1.05688 0
M  V30 10148 C 969.396 1.88972 -0.779044 0
M  V30 10149 C 969.76 1.7949 0.681708 0
M  V30 10150 O 970.961 2.46418 1.07386 0
M  V30 10151 C 969.232 3.34737 -1.25242 0
M  V30 10152 S 970.791 4.24718 -1.10272 0
M  V30 10153 H 967.609 0.652349 -0.282776 0
M  V30 10154 H 970.211 1.41162 -1.35254 0
M  V30 10155 H 968.915 3.39175 -2.3106 0
M  V30 10156 H 968.446 3.87593 -0.673417 0
M  V30 10157 H 970.461 4.96191 -0.0299004 0
M  V30 10158 N 969.634 0.838594 1.33437 0
M  V30 10159 C 970.911 0.356112 1.92331 0
M  V30 10160 C 971.291 -1.1585 1.76471 0
M  V30 10161 O 970.639 -1.97281 1.15293 0
M  V30 10162 C 970.849 0.802715 3.39643 0
M  V30 10163 C 972.197 0.810575 4.16791 0
M  V30 10164 O 973.221 0.746304 3.48294 0
M  V30 10165 O 972.08 0.898082 5.3907 0
M  V30 10166 H 969.174 0.100711 0.820845 0
M  V30 10167 H 971.72 0.924428 1.42311 0
M  V30 10168 H 970.492 1.84529 3.45057 0
M  V30 10169 H 970.115 0.210956 3.9704 0
M  V30 10170 N 971.112 -1.45937 0.595003 0
M  V30 10171 C 972.389 -1.95592 0.0178748 0
M  V30 10172 C 972.769 -1.53758 -1.44643 0
M  V30 10173 O 972.117 -0.794104 -2.14257 0
M  V30 10174 C 972.327 -3.4841 0.202789 0
M  V30 10175 C 973.675 -4.2453 0.0770121 0
M  V30 10176 O 974.699 -3.55954 0.132257 0
M  V30 10177 O 973.558 -5.46479 -0.0484271 0
M  V30 10178 H 970.652 -0.825888 -0.0428702 0
M  V30 10179 H 973.198 -1.56162 0.664184 0
M  V30 10180 H 971.97 -3.71787 1.22027 0
M  V30 10181 H 971.593 -3.947 -0.479376 0
M  V30 10182 N 972.59 -0.333456 -1.54032 0
M  V30 10183 C 973.815 0.270517 -2.05628 0
M  V30 10184 C 974.24 1.44231 -1.20744 0
M  V30 10185 O 973.598 1.79975 -0.218822 0
M  V30 10186 C 973.646 0.673251 -3.54259 0
M  V30 10187 O 972.75 1.77448 -3.72271 0
M  V30 10188 H 972.091 0.0469753 -0.662336 0
M  V30 10189 H 974.621 -0.484739 -1.98775 0
M  V30 10190 H 974.631 0.953194 -3.96709 0
M  V30 10191 H 973.306 -0.183747 -4.15494 0
M  V30 10192 H 971.883 1.49259 -3.41725 0
M  V30 10193 N 974.068 1.57479 -0.061844 0
M  V30 10194 C 975.293 1.97843 0.622311 0
M  V30 10195 C 975.718 0.939602 1.62951 0
M  V30 10196 O 975.076 -0.095958 1.81046 0
M  V30 10197 C 975.124 3.37262 1.2762 0
M  V30 10198 O 974.228 3.35943 2.39199 0
M  V30 10199 H 973.569 0.644212 0.160896 0
M  V30 10200 H 976.099 2.04165 -0.133409 0
M  V30 10201 H 976.109 3.74226 1.62539 0
M  V30 10202 H 974.784 4.12404 0.538112 0
M  V30 10203 H 973.361 3.10737 2.06148 0
M  V30 10204 N 975.546 -0.211634 1.56173 0
M  V30 10205 C 976.792 -0.935935 1.79911 0
M  V30 10206 C 977.125 -1.83589 0.633155 0
M  V30 10207 O 976.4 -1.91004 -0.367132 0
M  V30 10208 C 976.683 -1.76638 3.13801 0
M  V30 10209 C 976.536 -0.892259 4.40861 0
M  V30 10210 C 977.855 -2.74224 3.44223 0
M  V30 10211 H 974.974 -0.338822 0.654499 0
M  V30 10212 H 977.616 -0.20422 1.88899 0
M  V30 10213 H 975.766 -2.39021 3.0627 0
M  V30 10214 H 977.438 -0.284407 4.60422 0
M  V30 10215 H 975.681 -0.198145 4.33347 0
M  V30 10216 H 976.352 -1.50793 5.31004 0
M  V30 10217 H 978.828 -2.21975 3.51946 0
M  V30 10218 H 977.704 -3.29424 4.39057 0
M  V30 10219 H 977.965 -3.52455 2.66885 0
M  V30 10220 N 977.024 -1.50153 -0.478725 0
M  V30 10221 C 978.27 -1.60998 -1.23318 0
M  V30 10222 C 978.603 -0.305868 -1.91776 0
M  V30 10223 O 977.878 0.692158 -1.81767 0
M  V30 10224 C 978.161 -2.78495 -2.28282 0
M  V30 10225 C 978.014 -4.18767 -1.64178 0
M  V30 10226 C 979.333 -2.91569 -3.2966 0
M  V30 10227 H 976.452 -0.585983 -0.446982 0
M  V30 10228 H 979.094 -1.82514 -0.528063 0
M  V30 10229 H 977.244 -2.60281 -2.8842 0
M  V30 10230 H 978.916 -4.48552 -1.07696 0
M  V30 10231 H 977.159 -4.23379 -0.94514 0
M  V30 10232 H 977.83 -4.96894 -2.40417 0
M  V30 10233 H 980.306 -3.08219 -2.79536 0
M  V30 10234 H 979.182 -3.75419 -4.0044 0
M  V30 10235 H 979.443 -2.01859 -3.93326 0
M  V30 10236 N 978.502 0.731368 -1.39602 0
M  V30 10237 C 979.749 1.491 -1.37024 0
M  V30 10238 C 980.077 1.94473 0.0326423 0
M  V30 10239 O 979.332 1.6737 1.01418 0
M  V30 10240 C 979.631 2.74224 -2.29208 0
M  V30 10241 C 979.297 2.477 -3.7677 0
M  V30 10242 C 977.959 2.40175 -4.16976 0
M  V30 10243 C 980.311 2.25098 -4.70086 0
M  V30 10244 C 977.639 2.08095 -5.48556 0
M  V30 10245 C 979.991 1.94534 -6.01946 0
M  V30 10246 C 978.655 1.85481 -6.41212 0
M  V30 10247 H 977.925 0.545595 -0.501405 0
M  V30 10248 H 980.572 0.839127 -1.72136 0
M  V30 10249 H 978.877 3.44171 -1.87225 0
M  V30 10250 H 980.574 3.32264 -2.24504 0
M  V30 10251 H 977.164 2.54436 -3.44906 0
M  V30 10252 H 981.348 2.29876 -4.39853 0
M  V30 10253 H 976.604 1.99611 -5.77897 0
M  V30 10254 H 980.778 1.76054 -6.73779 0
M  V30 10255 H 978.405 1.60389 -7.43088 0
M  V30 10256 N 979.98 1.24838 0.961938 0
M  V30 10257 C 980.93 1.01276 2.04272 0
M  V30 10258 C 981.914 -0.0478239 1.60829 0
M  V30 10259 O 983.106 0.166616 1.76214 0
M  V30 10260 C 980.235 0.625659 3.37551 0
M  V30 10261 C 979.321 1.72262 3.87539 0
M  V30 10262 N 979.712 2.95644 4.104 0
M  V30 10263 C 978.01 1.60146 4.16256 0
M  V30 10264 C 978.711 3.66796 4.51482 0
M  V30 10265 N 977.687 2.94383 4.56989 0
M  V30 10266 H 981.489 1.94956 2.19931 0
M  V30 10267 H 979.003 1.15049 1.14619 0
M  V30 10268 H 981 0.438072 4.14592 0
M  V30 10269 H 979.66 -0.303887 3.23275 0
M  V30 10270 H 980.671 3.31764 3.97685 0
M  V30 10271 H 977.348 0.740353 4.10883 0
M  V30 10272 H 978.738 4.72664 4.77534 0
M  V30 10273 N 981.458 -1.16348 1.06306 0
M  V30 10274 C 982.705 -1.86881 0.779852 0
M  V30 10275 C 983.033 -1.8171 -0.693668 0
M  V30 10276 O 982.288 -1.22769 -1.52401 0
M  V30 10277 C 982.587 -3.35936 1.21991 0
M  V30 10278 C 982.253 -3.61307 2.69756 0
M  V30 10279 C 980.915 -3.6794 3.10119 0
M  V30 10280 C 983.267 -3.71871 3.65187 0
M  V30 10281 C 980.595 -3.82639 4.44752 0
M  V30 10282 C 982.947 -3.88091 4.99568 0
M  V30 10283 C 981.611 -3.92967 5.39568 0
M  V30 10284 H 980.881 -0.683847 0.285368 0
M  V30 10285 H 983.528 -1.37569 1.33218 0
M  V30 10286 H 981.833 -3.87381 0.586774 0
M  V30 10287 H 983.53 -3.88895 0.977821 0
M  V30 10288 H 980.12 -3.56777 2.37504 0
M  V30 10289 H 984.304 -3.66057 3.35136 0
M  V30 10290 H 979.56 -3.84666 4.75228 0
M  V30 10291 H 983.734 -3.95207 5.73397 0
M  V30 10292 H 981.361 -4.04109 6.43895 0
M  V30 10293 N 982.937 -0.845659 -1.3299 0
M  V30 10294 C 984.162 -0.457435 -2.02293 0
M  V30 10295 C 984.587 0.935634 -1.63179 0
M  V30 10296 O 983.945 1.61297 -0.827835 0
M  V30 10297 C 983.993 -0.593665 -3.5568 0
M  V30 10298 O 983.097 0.37729 -4.10671 0
M  V30 10299 H 982.438 -0.185022 -0.637701 0
M  V30 10300 H 984.968 -1.14237 -1.69738 0
M  V30 10301 H 984.978 -0.477834 -4.05192 0
M  V30 10302 H 983.653 -1.60957 -3.83491 0
M  V30 10303 H 982.23 0.218448 -3.7226 0
M  V30 10304 N 984.415 1.45619 -0.602734 0
M  V30 10305 C 985.664 2.01483 -0.0936395 0
M  V30 10306 C 985.977 1.47753 1.28173 0
M  V30 10307 O 987.183 1.95562 1.88329 0
M  V30 10308 C 985.639 3.59711 -0.116738 0
M  V30 10309 C 985.247 4.22437 -1.49166 0
M  V30 10310 C 986.991 4.23157 0.337368 0
M  V30 10311 C 984.898 5.72803 -1.47141 0
M  V30 10312 H 983.828 0.753353 -0.0312382 0
M  V30 10313 H 986.479 1.67142 -0.757347 0
M  V30 10314 H 984.861 3.91218 0.613529 0
M  V30 10315 H 986.035 4.02511 -2.24325 0
M  V30 10316 H 984.35 3.71166 -1.88746 0
M  V30 10317 H 986.947 5.33407 0.371628 0
M  V30 10318 H 987.29 3.93491 1.35906 0
M  V30 10319 H 987.823 3.96349 -0.339474 0
M  V30 10320 H 984.562 6.07161 -2.47055 0
M  V30 10321 H 984.082 5.94936 -0.762329 0
M  V30 10322 H 985.761 6.35907 -1.19294 0
M  V30 10323 N 985.893 0.34162 1.53853 0
M  V30 10324 C 987.139 -0.255862 2.01179 0
M  V30 10325 C 987.472 -1.50356 1.22909 0
M  V30 10326 O 986.747 -1.91913 0.316198 0
M  V30 10327 C 987.03 -0.571934 3.55529 0
M  V30 10328 C 986.883 0.687727 4.44511 0
M  V30 10329 C 988.202 -1.38233 4.17827 0
M  V30 10330 H 985.321 -0.091521 0.731295 0
M  V30 10331 H 987.963 0.461775 1.84303 0
M  V30 10332 H 986.113 -1.18331 3.70041 0
M  V30 10333 H 987.785 1.32572 4.4184 0
M  V30 10334 H 986.028 1.313 4.13452 0
M  V30 10335 H 986.699 0.421858 5.50386 0
M  V30 10336 H 989.175 -0.865374 4.07002 0
M  V30 10337 H 988.051 -1.57223 5.25901 0
M  V30 10338 H 988.312 -2.38386 3.72323 0
M  V30 10339 N 987.371 -1.57444 0.0701946 0
M  V30 10340 C 988.617 -1.93716 -0.600178 0
M  V30 10341 C 988.95 -0.950329 -1.69359 0
M  V30 10342 O 988.225 0.0207123 -1.94489 0
M  V30 10343 C 988.508 -3.40266 -1.17861 0
M  V30 10344 C 988.361 -4.49706 -0.0919575 0
M  V30 10345 C 989.68 -3.87599 -2.08459 0
M  V30 10346 H 986.799 -0.704421 -0.216704 0
M  V30 10347 H 989.441 -1.89514 0.135838 0
M  V30 10348 H 987.591 -3.43977 -1.80587 0
M  V30 10349 H 989.263 -4.58116 0.541031 0
M  V30 10350 H 987.506 -4.29937 0.577639 0
M  V30 10351 H 988.177 -5.49381 -0.537048 0
M  V30 10352 H 990.653 -3.85883 -1.5567 0
M  V30 10353 H 989.529 -4.90755 -2.45867 0
M  V30 10354 H 989.79 -3.25448 -2.99226 0
M  V30 10355 N 988.849 0.203349 -1.56283 0
M  V30 10356 C 990.097 0.923183 -1.79782 0
M  V30 10357 C 990.418 1.84134 -0.64185 0
M  V30 10358 O 989.688 1.92922 0.340292 0
M  V30 10359 H 988.268 0.343881 -0.66314 0
M  V30 10360 H 990.93 0.210837 -1.93756 0
M  V30 10361 H 990.026 1.51921 -2.72629 0
M  V30 10362 N 990.327 1.50405 0.470755 0
M  V30 10363 C 991.573 1.6165 1.22462 0
M  V30 10364 C 991.906 0.316034 1.91611 0
M  V30 10365 O 991.181 -0.682509 1.82132 0
M  V30 10366 C 991.464 2.79702 2.26801 0
M  V30 10367 C 991.317 4.19631 1.61955 0
M  V30 10368 C 992.636 2.93313 3.28109 0
M  V30 10369 H 989.755 0.588345 0.443868 0
M  V30 10370 H 992.397 1.82792 0.518376 0
M  V30 10371 H 990.547 2.61807 2.87036 0
M  V30 10372 H 992.219 4.49117 1.05316 0
M  V30 10373 H 990.462 4.23874 0.922674 0
M  V30 10374 H 991.133 4.98162 2.37779 0
M  V30 10375 H 993.609 3.09697 2.77897 0
M  V30 10376 H 992.485 3.77537 3.98443 0
M  V30 10377 H 992.746 2.03942 3.9225 0
M  V30 10378 N 991.805 -0.723954 1.39988 0
M  V30 10379 C 992.735 -1.85103 1.42335 0
M  V30 10380 C 993.716 -1.6769 0.285297 0
M  V30 10381 O 994.901 -1.87846 0.492716 0
M  V30 10382 C 992.031 -3.22972 1.27697 0
M  V30 10383 C 990.985 -3.55041 2.39018 0
M  V30 10384 C 990.311 -4.91965 2.09462 0
M  V30 10385 C 991.611 -3.56889 3.8135 0
M  V30 10386 H 993.305 -1.83396 2.36656 0
M  V30 10387 H 990.851 -0.880926 1.13911 0
M  V30 10388 H 992.804 -4.01503 1.27958 0
M  V30 10389 H 991.528 -3.25233 0.298487 0
M  V30 10390 H 990.187 -2.78845 2.37993 0
M  V30 10391 H 989.835 -4.90819 1.10025 0
M  V30 10392 H 989.535 -5.14389 2.84038 0
M  V30 10393 H 991.059 -5.7284 2.11391 0
M  V30 10394 H 992.473 -4.25476 3.84243 0
M  V30 10395 H 990.87 -3.90836 4.55376 0
M  V30 10396 H 991.94 -2.56452 4.11534 0
M  V30 10397 N 993.283 -1.25346 -0.955304 0
M  V30 10398 C 994.53 -1.10055 -1.69983 0
M  V30 10399 C 994.858 0.358586 -1.91166 0
M  V30 10400 O 994.113 1.28071 -1.47974 0
M  V30 10401 C 994.412 -1.7993 -3.08804 0
M  V30 10402 C 994.078 -3.29851 -3.07424 0
M  V30 10403 C 992.74 -3.7075 -3.06754 0
M  V30 10404 C 995.092 -4.25636 -3.00805 0
M  V30 10405 C 992.42 -5.05847 -2.97214 0
M  V30 10406 C 994.772 -5.60756 -2.92806 0
M  V30 10407 C 993.436 -6.00984 -2.90472 0
M  V30 10408 H 992.706 -0.402718 -0.622012 0
M  V30 10409 H 995.353 -1.5561 -1.11614 0
M  V30 10410 H 993.658 -1.26803 -3.70713 0
M  V30 10411 H 995.355 -1.65551 -3.65231 0
M  V30 10412 H 991.945 -2.97308 -3.08716 0
M  V30 10413 H 996.129 -3.9503 -3.00441 0
M  V30 10414 H 991.385 -5.36196 -2.93775 0
M  V30 10415 H 995.559 -6.34671 -2.86645 0
M  V30 10416 H 993.186 -7.05626 -2.82835 0
M  V30 10417 N 994.761 1.15782 -1.06922 0
M  V30 10418 C 996.172 1.68062 -0.813144 0
M  V30 10419 C 996.523 1.84681 0.662374 0
M  V30 10420 O 995.648 1.54696 1.51321 0
M  V30 10421 C 996.243 3.05273 -1.46949 0
M  V30 10422 C 994.802 3.54647 -1.26104 0
M  V30 10423 C 993.949 2.30477 -1.54194 0
M  V30 10424 H 996.9 1.00056 -1.23185 0
M  V30 10425 H 996.921 3.69986 -0.888308 0
M  V30 10426 H 996.433 2.93145 -2.54337 0
M  V30 10427 H 994.534 3.72024 -0.20718 0
M  V30 10428 H 994.647 4.36354 -1.97819 0
M  V30 10429 H 993.011 2.35803 -0.96276 0
M  V30 10430 H 993.794 2.2094 -2.62755 0
M  V30 10431 N 996.239 0.8527 1.3254 0
M  V30 10432 C 997.172 0.240733 2.26927 0
M  V30 10433 C 998.15 -0.620158 1.50309 0
M  V30 10434 O 999.334 -0.577389 1.79439 0
M  V30 10435 C 996.461 -0.660644 3.32195 0
M  V30 10436 C 995.507 0.126604 4.26312 0
M  V30 10437 S 996.34 1.49372 5.14245 0
M  V30 10438 C 997.496 0.598002 6.23037 0
M  V30 10439 H 997.729 1.04088 2.78483 0
M  V30 10440 H 995.262 0.650222 1.40041 0
M  V30 10441 H 997.22 -1.17506 3.93323 0
M  V30 10442 H 995.881 -1.43458 2.79426 0
M  V30 10443 H 995.074 -0.559851 5.00881 0
M  V30 10444 H 994.676 0.572536 3.69592 0
M  V30 10445 H 996.968 -0.198555 6.77209 0
M  V30 10446 H 997.911 1.31428 6.95796 0
M  V30 10447 H 998.319 0.173211 5.64234 0
M  V30 10448 N 997.718 -1.45297 0.610449 0
M  V30 10449 C 998.681 -2.28995 -0.0968194 0
M  V30 10450 C 999.681 -1.39923 -0.792353 0
M  V30 10451 O 1000.87 -1.62014 -0.64008 0
M  V30 10452 C 998.003 -3.21013 -1.14731 0
M  V30 10453 H 999.196 -2.93012 0.639082 0
M  V30 10454 H 996.749 -1.51867 0.369624 0
M  V30 10455 H 997.484 -2.61803 -1.91388 0
M  V30 10456 H 997.269 -3.86628 -0.652753 0
M  V30 10457 H 998.759 -3.8394 -1.64256 0
M  V30 10458 N 999.196 -0.349774 -1.5367 0
M  V30 10459 C 1000.44 0.245189 -2.01312 0
M  V30 10460 C 1000.77 1.49702 -1.23705 0
M  V30 10461 O 1000.05 1.91742 -0.326371 0
M  V30 10462 C 1000.33 0.553071 -3.55827 0
M  V30 10463 C 1000.19 -0.71129 -4.4414 0
M  V30 10464 C 1001.5 1.36015 -4.18555 0
M  V30 10465 H 998.624 0.0876415 -0.73177 0
M  V30 10466 H 1001.27 -0.471543 -1.84056 0
M  V30 10467 H 999.416 1.16367 -3.70663 0
M  V30 10468 H 1001.09 -1.34913 -4.41131 0
M  V30 10469 H 999.331 -1.33491 -4.1275 0
M  V30 10470 H 1000 -0.45104 -5.50154 0
M  V30 10471 H 1002.48 0.843778 -4.07455 0
M  V30 10472 H 1001.35 1.54432 -5.26728 0
M  V30 10473 H 1001.61 2.36408 -3.73582 0
M  V30 10474 N 1000.67 1.57404 -0.0785433 0
M  V30 10475 C 1001.92 1.9292 0.588626 0
M  V30 10476 C 1002.24 0.961106 1.70359 0
M  V30 10477 O 1003.44 1.20934 2.43079 0
M  V30 10478 C 1001.9 3.42729 1.09839 0
M  V30 10479 C 1001.51 4.47998 0.0140773 0
M  V30 10480 C 1003.25 3.87235 1.73924 0
M  V30 10481 C 1001.16 5.88945 0.538269 0
M  V30 10482 H 1000.09 0.720069 0.223645 0
M  V30 10483 H 1002.74 1.8287 -0.15187 0
M  V30 10484 H 1001.12 3.47875 1.89207 0
M  V30 10485 H 1002.29 4.54476 -0.760773 0
M  V30 10486 H 1000.61 4.13001 -0.53095 0
M  V30 10487 H 1003.21 4.89927 2.14186 0
M  V30 10488 H 1003.55 3.24971 2.60191 0
M  V30 10489 H 1004.08 3.84721 1.01168 0
M  V30 10490 H 1000.82 6.5487 -0.287395 0
M  V30 10491 H 1000.34 5.85972 1.28049 0
M  V30 10492 H 1002.02 6.39028 1.01253 0
M  V30 10493 N 1002.15 -0.195058 1.56388 0
M  V30 10494 C 1003.4 -0.915444 1.80626 0
M  V30 10495 C 1003.73 -1.83255 0.651768 0
M  V30 10496 O 1002.98 -1.92314 -0.362464 0
M  V30 10497 C 1003.28 -1.7637 3.10851 0
M  V30 10498 C 1002.95 -0.997572 4.39726 0
M  V30 10499 C 1001.61 -0.786043 4.74737 0
M  V30 10500 C 1003.96 -0.45851 5.19179 0
M  V30 10501 C 1001.29 -0.023972 5.86695 0
M  V30 10502 C 1003.64 0.29035 6.31933 0
M  V30 10503 C 1002.3 0.512895 6.65527 0
M  V30 10504 H 1001.57 -0.334985 0.660959 0
M  V30 10505 H 1004.22 -0.181815 1.90635 0
M  V30 10506 H 1002.53 -2.566 2.9608 0
M  V30 10507 H 1004.22 -2.3237 3.26811 0
M  V30 10508 H 1000.81 -1.17245 4.12252 0
M  V30 10509 H 1005 -0.609334 4.92545 0
M  V30 10510 H 1000.25 0.158421 6.11195 0
M  V30 10511 H 1004.43 0.715429 6.92715 0
M  V30 10512 H 1002.05 1.10531 7.52122 0
M  V30 10513 N 1003.63 -1.50653 -0.462772 0
M  V30 10514 C 1004.88 -1.62297 -1.21603 0
M  V30 10515 C 1005.21 -0.326191 -1.91441 0
M  V30 10516 O 1004.48 0.67284 -1.82491 0
M  V30 10517 C 1004.77 -2.80901 -2.25315 0
M  V30 10518 C 1004.62 -4.20484 -1.59728 0
M  V30 10519 C 1005.94 -2.95049 -3.26549 0
M  V30 10520 H 1003.06 -0.590691 -0.440741 0
M  V30 10521 H 1005.7 -1.83064 -0.508675 0
M  V30 10522 H 1003.85 -2.63325 -2.85643 0
M  V30 10523 H 1005.52 -4.49669 -1.02932 0
M  V30 10524 H 1003.76 -4.24357 -0.900181 0
M  V30 10525 H 1004.44 -4.99416 -2.35133 0
M  V30 10526 H 1006.91 -3.11166 -2.76251 0
M  V30 10527 H 1005.79 -3.79645 -3.96435 0
M  V30 10528 H 1006.05 -2.06019 -3.91163 0
M  V30 10529 N 1005.11 0.71652 -1.4037 0
M  V30 10530 C 1006.35 1.47857 -1.38803 0
M  V30 10531 C 1006.69 1.94197 0.0100536 0
M  V30 10532 O 1005.96 1.68093 0.978521 0
M  V30 10533 C 1006.25 2.7053 -2.37667 0
M  V30 10534 C 1006.1 2.3009 -3.86496 0
M  V30 10535 C 1007.42 3.72684 -2.34082 0
M  V30 10536 H 1004.54 0.53632 -0.505499 0
M  V30 10537 H 1007.18 0.817824 -1.71498 0
M  V30 10538 H 1005.33 3.26906 -2.09916 0
M  V30 10539 H 1007 1.79202 -4.2507 0
M  V30 10540 H 1005.24 1.62102 -4.02375 0
M  V30 10541 H 1005.91 3.18018 -4.51186 0
M  V30 10542 H 1008.39 3.25935 -2.58661 0
M  V30 10543 H 1007.27 4.56157 -3.05306 0
M  V30 10544 H 1007.53 4.20916 -1.35213 0
M  V30 10545 N 1006.59 1.25851 0.948643 0
M  V30 10546 C 1007.83 1.11119 1.69648 0
M  V30 10547 C 1008.17 -0.345995 1.91093 0
M  V30 10548 O 1007.44 -1.25467 1.48621 0
M  V30 10549 C 1007.72 1.87261 3.0758 0
M  V30 10550 C 1007.58 3.40842 2.93507 0
M  V30 10551 C 1008.9 1.6605 4.07573 0
M  V30 10552 H 1006.01 0.405052 0.615713 0
M  V30 10553 H 1008.66 1.54756 1.10229 0
M  V30 10554 H 1006.81 1.50172 3.58303 0
M  V30 10555 H 1008.48 3.87641 2.50064 0
M  V30 10556 H 1006.72 3.68248 2.29294 0
M  V30 10557 H 1007.39 3.89339 3.91305 0
M  V30 10558 H 1009.87 1.98348 3.65783 0
M  V30 10559 H 1008.74 2.21753 5.02113 0
M  V30 10560 H 1009.01 0.603256 4.37965 0
M  V30 10561 N 1008.06 -1.15214 1.07534 0
M  V30 10562 C 1009.03 -2.18209 0.701237 0
M  V30 10563 C 1010.03 -1.58693 -0.25946 0
M  V30 10564 O 1011.22 -1.74154 -0.0401744 0
M  V30 10565 C 1008.35 -3.40883 0.0338703 0
M  V30 10566 H 1009.54 -2.5282 1.61314 0
M  V30 10567 H 1007.1 -1.29707 0.872105 0
M  V30 10568 H 1007.83 -3.11843 -0.890187 0
M  V30 10569 H 1007.62 -3.85342 0.72486 0
M  V30 10570 H 1009.11 -4.17056 -0.213152 0
M  V30 10571 N 1009.54 -0.859717 -1.32086 0
M  V30 10572 C 1010.48 -0.252764 -2.26796 0
M  V30 10573 C 1011.45 0.612178 -1.50636 0
M  V30 10574 O 1012.64 0.567865 -1.79743 0
M  V30 10575 C 1009.76 0.643017 -3.3254 0
M  V30 10576 C 1008.81 -0.149211 -4.26239 0
M  V30 10577 S 1009.64 -1.52097 -5.13446 0
M  V30 10578 C 1010.8 -0.631035 -6.22711 0
M  V30 10579 H 1011.03 -1.05563 -2.77928 0
M  V30 10580 H 1008.57 -0.657639 -1.39694 0
M  V30 10581 H 1010.52 1.15418 -3.9394 0
M  V30 10582 H 1009.18 1.41974 -2.80183 0
M  V30 10583 H 1008.38 0.53328 -5.01171 0
M  V30 10584 H 1007.98 -0.592128 -3.69283 0
M  V30 10585 H 1010.27 0.162638 -6.77305 0
M  V30 10586 H 1011.21 -1.35116 -6.95089 0
M  V30 10587 H 1011.62 -0.203131 -5.64134 0
M  V30 10588 N 1011.02 1.44971 -0.618145 0
M  V30 10589 C 1012.27 2.02458 -0.117656 0
M  V30 10590 C 1012.6 1.48413 1.25248 0
M  V30 10591 O 1011.87 0.662997 1.82851 0
M  V30 10592 C 1012.16 3.59987 -0.0901897 0
M  V30 10593 C 1012.01 4.24343 -1.49175 0
M  V30 10594 C 1013.33 4.36099 0.592121 0
M  V30 10595 H 1010.45 0.735672 -0.0442291 0
M  V30 10596 H 1013.09 1.727 -0.792138 0
M  V30 10597 H 1011.24 3.85471 0.484175 0
M  V30 10598 H 1012.91 4.10009 -2.114 0
M  V30 10599 H 1011.16 3.82337 -2.04941 0
M  V30 10600 H 1011.83 5.33298 -1.42468 0
M  V30 10601 H 1014.3 4.1597 0.103813 0
M  V30 10602 H 1013.18 5.45822 0.580481 0
M  V30 10603 H 1013.44 4.09746 1.66015 0
M  V30 10604 N 1012.5 0.357919 1.53482 0
M  V30 10605 C 1013.75 -0.235241 2.00324 0
M  V30 10606 C 1014.06 -1.50494 1.24944 0
M  V30 10607 O 1015.27 -2.17623 1.62335 0
M  V30 10608 C 1013.72 -0.469748 3.56821 0
M  V30 10609 C 1013.33 0.784877 4.41071 0
M  V30 10610 C 1015.07 -1.02098 4.12039 0
M  V30 10611 C 1012.98 0.520377 5.89106 0
M  V30 10612 H 1011.91 -0.0916816 0.748405 0
M  V30 10613 H 1014.56 0.475474 1.77233 0
M  V30 10614 H 1012.94 -1.24153 3.76035 0
M  V30 10615 H 1014.12 1.55886 4.33631 0
M  V30 10616 H 1012.43 1.25878 3.96918 0
M  V30 10617 H 1015.03 -1.23406 5.20264 0
M  V30 10618 H 1015.37 -1.98084 3.66154 0
M  V30 10619 H 1015.91 -0.309554 3.96594 0
M  V30 10620 H 1012.65 1.45035 6.39254 0
M  V30 10621 H 1012.17 -0.215254 5.99414 0
M  V30 10622 H 1013.84 0.143006 6.46842 0
M  V30 10623 N 1013.98 -1.5736 0.0868897 0
M  V30 10624 C 1015.39 -1.57304 -0.269762 0
M  V30 10625 C 1015.59 -1.09745 -1.68992 0
M  V30 10626 O 1014.65 -0.77017 -2.40468 0
M  V30 10627 C 1015.96 -3.00628 -0.0656646 0
M  V30 10628 C 1017.51 -3.12713 -0.134045 0
M  V30 10629 C 1017.98 -4.57981 0.0419569 0
M  V30 10630 N 1019.48 -4.63198 -0.0131501 0
M  V30 10631 C 1020.21 -5.73316 0.0983964 0
M  V30 10632 N 1019.71 -6.92296 0.264315 0
M  V30 10633 N 1021.5 -5.62086 0.0402517 0
M  V30 10634 H 1013.65 -1.86585 1.01487 0
M  V30 10635 H 1015.91 -0.860843 0.397055 0
M  V30 10636 H 1015.62 -3.39592 0.914891 0
M  V30 10637 H 1015.49 -3.68367 -0.811522 0
M  V30 10638 H 1017.88 -2.73627 -1.1051 0
M  V30 10639 H 1017.96 -2.47582 0.643167 0
M  V30 10640 H 1017.61 -4.9776 1.00984 0
M  V30 10641 H 1017.54 -5.21162 -0.754847 0
M  V30 10642 H 1020.03 -3.77644 -0.139183 0
M  V30 10643 H 1020.34 -7.72047 0.341165 0
M  V30 10644 H 1018.68 -6.94353 0.299876 0
M  V30 10645 H 1021.88 -4.68017 -0.0881801 0
M  V30 10646 H 1022.05 -6.47868 0.130635 0
M  V30 10647 N 1015.45 0.186762 -1.56489 0
M  V30 10648 C 1016.4 1.2357 -1.9161 0
M  V30 10649 C 1017.39 1.4058 -0.782686 0
M  V30 10650 O 1018.58 1.42811 -1.04566 0
M  V30 10651 C 1015.71 2.57865 -2.26628 0
M  V30 10652 C 1014.8 2.44613 -3.46447 0
M  V30 10653 N 1015.19 2.01052 -4.64125 0
M  V30 10654 C 1013.48 2.75483 -3.50749 0
M  V30 10655 C 1014.19 1.99891 -5.46277 0
M  V30 10656 N 1013.16 2.41711 -4.86905 0
M  V30 10657 H 1016.96 0.890359 -2.80089 0
M  V30 10658 H 1014.48 0.395144 -1.57519 0
M  V30 10659 H 1016.47 3.33642 -2.49977 0
M  V30 10660 H 1015.13 2.93215 -1.39481 0
M  V30 10661 H 1016.15 1.7163 -4.88634 0
M  V30 10662 H 1012.82 3.14974 -2.7404 0
M  V30 10663 H 1014.21 1.68042 -6.50547 0
M  V30 10664 N 1016.93 1.50896 0.454776 0
M  V30 10665 C 1017.86 1.6712 1.56855 0
M  V30 10666 C 1018.88 0.552223 1.53148 0
M  V30 10667 O 1020.07 0.825969 1.5824 0
M  V30 10668 C 1017.17 1.65464 2.95762 0
M  V30 10669 C 1016.34 2.93662 3.24163 0
M  V30 10670 C 1015.4 2.84428 4.42704 0
M  V30 10671 O 1014.42 3.58382 4.42211 0
M  V30 10672 N 1015.63 1.9909 5.45292 0
M  V30 10673 H 1018.39 2.63194 1.43349 0
M  V30 10674 H 1015.95 1.48564 0.643457 0
M  V30 10675 H 1017.94 1.56878 3.73057 0
M  V30 10676 H 1016.51 0.770568 3.02954 0
M  V30 10677 H 1015.73 3.16251 2.35328 0
M  V30 10678 H 1017.02 3.78558 3.39957 0
M  V30 10679 H 1016.42 1.3835 5.48521 0
M  V30 10680 H 1014.98 1.96396 6.21508 0
M  V30 10681 N 1018.41 -0.709066 1.40748 0
M  V30 10682 C 1019.64 -1.50313 1.42901 0
M  V30 10683 C 1020.06 -1.88072 0.032213 0
M  V30 10684 O 1019.42 -1.53716 -0.96131 0
M  V30 10685 C 1019.47 -2.75074 2.33166 0
M  V30 10686 O 1018.57 -3.72036 1.7794 0
M  V30 10687 H 1017.91 -0.452934 0.485538 0
M  V30 10688 H 1020.44 -0.872712 1.85054 0
M  V30 10689 H 1020.45 -3.23532 2.48578 0
M  V30 10690 H 1019.13 -2.46927 3.34664 0
M  V30 10691 H 1017.7 -3.30911 1.71908 0
M  V30 10692 N 1019.89 -1.26353 -0.941956 0
M  V30 10693 C 1021.11 -1.14731 -1.72776 0
M  V30 10694 C 1021.54 0.293766 -1.85792 0
M  V30 10695 O 1020.9 1.21284 -1.34759 0
M  V30 10696 C 1020.95 -1.82041 -3.11277 0
M  V30 10697 O 1020.05 -1.10867 -3.97218 0
M  V30 10698 H 1019.39 -0.399823 -0.53013 0
M  V30 10699 H 1021.92 -1.67157 -1.17981 0
M  V30 10700 H 1021.93 -1.88834 -3.61671 0
M  V30 10701 H 1020.61 -2.86879 -3.0112 0
M  V30 10702 H 1019.18 -1.12044 -3.55669 0
M  V30 10703 N 1021.37 1.14642 -1.08144 0
M  V30 10704 C 1022.78 1.37604 -0.808537 0
M  V30 10705 C 1022.98 1.92868 0.583452 0
M  V30 10706 O 1022.04 2.13964 1.34073 0
M  V30 10707 C 1023.35 2.3396 -1.889 0
M  V30 10708 C 1024.9 2.47605 -1.9147 0
M  V30 10709 C 1025.38 3.47258 -2.98623 0
M  V30 10710 N 1026.87 3.548 -2.97777 0
M  V30 10711 C 1027.6 4.31751 -3.77331 0
M  V30 10712 N 1027.1 5.11966 -4.66757 0
M  V30 10713 N 1028.89 4.2692 -3.65645 0
M  V30 10714 H 1021.04 0.771154 -1.97906 0
M  V30 10715 H 1023.3 0.401694 -0.858688 0
M  V30 10716 H 1023.01 2.00484 -2.88962 0
M  V30 10717 H 1022.88 3.33833 -1.756 0
M  V30 10718 H 1025.27 2.80375 -0.920548 0
M  V30 10719 H 1025.35 1.47702 -2.08848 0
M  V30 10720 H 1025 3.15223 -3.98243 0
M  V30 10721 H 1024.93 4.46935 -2.7849 0
M  V30 10722 H 1027.42 2.97553 -2.3296 0
M  V30 10723 H 1027.73 5.67951 -5.24072 0
M  V30 10724 H 1026.08 5.11245 -4.70801 0
M  V30 10725 H 1029.27 3.63322 -2.95152 0
M  V30 10726 H 1029.44 4.8664 -4.27885 0
M  V30 10727 N 1022.85 0.866709 1.31628 0
M  V30 10728 C 1023.76 0.323408 2.3236 0
M  V30 10729 C 1024.77 -0.564995 1.64572 0
M  V30 10730 O 1025.95 -0.462489 1.96018 0
M  V30 10731 C 1023.01 -0.469045 3.43513 0
M  V30 10732 C 1022.07 0.446928 4.26967 0
M  V30 10733 C 1021.31 -0.307799 5.32812 0
M  V30 10734 O 1021.53 -1.5363 5.49321 0
M  V30 10735 O 1020.46 0.332653 6.0098 0
M  V30 10736 H 1024.29 1.15827 2.80745 0
M  V30 10737 H 1021.87 0.629987 1.35468 0
M  V30 10738 H 1023.76 -0.918405 4.1127 0
M  V30 10739 H 1022.43 -1.28051 2.97296 0
M  V30 10740 H 1021.34 0.944719 3.61975 0
M  V30 10741 H 1022.67 1.2239 4.76741 0
M  V30 10742 N 1024.32 -1.44642 0.625825 0
M  V30 10743 C 1025.27 -2.30653 -0.082259 0
M  V30 10744 C 1026.24 -1.43174 -0.842052 0
M  V30 10745 O 1027.43 -1.72082 -0.824151 0
M  V30 10746 C 1024.57 -3.2837 -1.06146 0
M  V30 10747 C 1023.68 -4.30953 -0.300638 0
M  V30 10748 C 1022.81 -5.15766 -1.27118 0
M  V30 10749 C 1021.85 -6.10061 -0.499215 0
M  V30 10750 N 1020.99 -6.87591 -1.41995 0
M  V30 10751 H 1025.83 -2.90664 0.657161 0
M  V30 10752 H 1023.37 -1.43215 0.335859 0
M  V30 10753 H 1025.32 -3.83507 -1.6425 0
M  V30 10754 H 1023.95 -2.70072 -1.76807 0
M  V30 10755 H 1023.01 -3.78331 0.396234 0
M  V30 10756 H 1024.32 -4.97892 0.300851 0
M  V30 10757 H 1023.47 -5.75394 -1.92372 0
M  V30 10758 H 1022.21 -4.48888 -1.9066 0
M  V30 10759 H 1021.22 -5.49547 0.166848 0
M  V30 10760 H 1022.44 -6.78973 0.131409 0
M  V30 10761 H 1020.39 -6.23387 -2.04267 0
M  V30 10762 H 1020.3 -7.5095 -0.872354 0
M  V30 10763 H 1021.57 -7.51746 -2.0615 0
M  V30 10764 N 1025.8 -0.366053 -1.5329 0
M  V30 10765 C 1026.73 0.514916 -2.23341 0
M  V30 10766 C 1027.75 1.04579 -1.24768 0
M  V30 10767 O 1028.94 0.952084 -1.50989 0
M  V30 10768 C 1026.04 1.72374 -2.91788 0
M  V30 10769 C 1025.21 1.32429 -4.16871 0
M  V30 10770 C 1024.27 2.39524 -4.68524 0
M  V30 10771 O 1023.29 2.01895 -5.32191 0
M  V30 10772 N 1024.5 3.71116 -4.46378 0
M  V30 10773 H 1027.26 -0.0851272 -2.99579 0
M  V30 10774 H 1024.82 -0.191255 -1.60766 0
M  V30 10775 H 1026.81 2.43496 -3.23252 0
M  V30 10776 H 1025.38 2.23064 -2.19 0
M  V30 10777 H 1024.6 0.442901 -3.91704 0
M  V30 10778 H 1025.89 1.03372 -4.98188 0
M  V30 10779 H 1025.29 4.04463 -3.95508 0
M  V30 10780 H 1023.85 4.38341 -4.82391 0
M  V30 10781 N 1027.28 1.57312 -0.0952337 0
M  V30 10782 C 1028.23 2.14032 0.863657 0
M  V30 10783 C 1029.2 1.0589 1.27971 0
M  V30 10784 O 1030.38 1.33678 1.36143 0
M  V30 10785 C 1027.52 2.72513 2.11733 0
M  V30 10786 C 1026.63 3.94887 1.7518 0
M  V30 10787 C 1025.77 4.41533 2.95334 0
M  V30 10788 C 1024.81 5.56496 2.54908 0
M  V30 10789 N 1023.95 5.97993 3.67897 0
M  V30 10790 H 1028.79 2.95655 0.373115 0
M  V30 10791 H 1026.32 1.46085 0.172497 0
M  V30 10792 H 1028.28 3.04539 2.85153 0
M  V30 10793 H 1026.91 1.93618 2.58287 0
M  V30 10794 H 1025.96 3.69175 0.917279 0
M  V30 10795 H 1027.27 4.78322 1.41455 0
M  V30 10796 H 1026.43 4.75343 3.77007 0
M  V30 10797 H 1025.17 3.56999 3.3227 0
M  V30 10798 H 1024.17 5.22314 1.71662 0
M  V30 10799 H 1025.4 6.42779 2.19117 0
M  V30 10800 H 1023.34 5.16405 4.04551 0
M  V30 10801 H 1023.26 6.76225 3.38018 0
M  V30 10802 H 1024.53 6.36434 4.5008 0
M  V30 10803 N 1028.76 -0.17846 1.56586 0
M  V30 10804 C 1029.7 -1.22104 1.95855 0
M  V30 10805 C 1030.67 -1.44366 0.821447 0
M  V30 10806 O 1031.86 -1.57224 1.08098 0
M  V30 10807 C 1029 -2.55701 2.31757 0
M  V30 10808 C 1028.11 -2.40879 3.5861 0
M  V30 10809 C 1027.25 -3.67293 3.83757 0
M  V30 10810 C 1026.29 -3.47373 5.03982 0
M  V30 10811 N 1025.42 -4.65839 5.25298 0
M  V30 10812 H 1030.26 -0.879168 2.84736 0
M  V30 10813 H 1027.8 -0.422721 1.40895 0
M  V30 10814 H 1029.76 -3.33556 2.50592 0
M  V30 10815 H 1028.39 -2.87898 1.45995 0
M  V30 10816 H 1027.44 -1.54236 3.47729 0
M  V30 10817 H 1028.75 -2.22102 4.46623 0
M  V30 10818 H 1027.91 -4.53584 4.02922 0
M  V30 10819 H 1026.65 -3.89041 2.94107 0
M  V30 10820 H 1025.65 -2.59467 4.84723 0
M  V30 10821 H 1026.88 -3.27055 5.95157 0
M  V30 10822 H 1024.82 -4.8782 4.38598 0
M  V30 10823 H 1024.74 -4.4995 6.0752 0
M  V30 10824 H 1026.01 -5.53435 5.48936 0
M  V30 10825 N 1030.24 -1.51135 -0.446768 0
M  V30 10826 C 1031.51 -1.5387 -1.20762 0
M  V30 10827 C 1031.89 -0.297446 -2.08994 0
M  V30 10828 O 1031.24 0.717975 -2.16927 0
M  V30 10829 C 1031.45 -2.84767 -2.01764 0
M  V30 10830 C 1032.8 -3.3636 -2.59128 0
M  V30 10831 O 1033.82 -2.86254 -2.11984 0
M  V30 10832 O 1032.68 -4.23765 -3.45088 0
M  V30 10833 H 1029.78 -0.618228 -0.549293 0
M  V30 10834 H 1032.32 -1.63442 -0.456605 0
M  V30 10835 H 1031.09 -3.6657 -1.36901 0
M  V30 10836 H 1030.72 -2.78313 -2.8395 0
M  V30 10837 N 1031.71 0.701592 -1.41122 0
M  V30 10838 C 1032.65 1.8268 -1.38422 0
M  V30 10839 C 1033.66 1.60244 -0.287342 0
M  V30 10840 O 1034.85 1.69859 -0.548658 0
M  V30 10841 C 1031.95 3.19338 -1.13475 0
M  V30 10842 C 1031.12 3.68853 -2.35088 0
M  V30 10843 C 1030.18 4.84163 -2.06089 0
M  V30 10844 O 1029.21 4.9609 -2.79077 0
M  V30 10845 N 1030.41 5.70972 -1.04743 0
M  V30 10846 H 1033.17 1.8549 -2.35401 0
M  V30 10847 H 1030.73 0.883682 -1.35656 0
M  V30 10848 H 1032.73 3.94095 -0.920377 0
M  V30 10849 H 1031.3 3.11589 -0.251152 0
M  V30 10850 H 1030.52 2.8507 -2.72266 0
M  V30 10851 H 1031.8 3.98673 -3.16129 0
M  V30 10852 H 1031.2 5.63961 -0.443221 0
M  V30 10853 H 1029.76 6.45654 -0.892949 0
M  V30 10854 N 1033.19 1.2685 0.935242 0
M  V30 10855 C 1034.61 1.04091 1.20984 0
M  V30 10856 C 1034.81 -0.230242 2.0018 0
M  V30 10857 O 1033.86 -0.93778 2.3444 0
M  V30 10858 C 1035.18 2.27586 1.96533 0
M  V30 10859 C 1036.72 2.32547 2.09501 0
M  V30 10860 C 1037.2 3.55751 2.88454 0
M  V30 10861 N 1038.69 3.56263 2.96025 0
M  V30 10862 C 1039.43 4.48262 3.57559 0
M  V30 10863 N 1038.92 5.50557 4.20546 0
M  V30 10864 N 1040.71 4.35901 3.5489 0
M  V30 10865 H 1032.87 2.08484 0.405954 0
M  V30 10866 H 1035.13 0.916548 0.242164 0
M  V30 10867 H 1034.83 3.20076 1.45753 0
M  V30 10868 H 1034.71 2.32305 2.97177 0
M  V30 10869 H 1037.1 1.40568 2.5947 0
M  V30 10870 H 1037.18 2.31836 1.08101 0
M  V30 10871 H 1036.82 4.48063 2.3917 0
M  V30 10872 H 1036.75 3.53711 3.90123 0
M  V30 10873 H 1039.24 2.82278 2.51252 0
M  V30 10874 H 1039.55 6.16935 4.65415 0
M  V30 10875 H 1037.9 5.54407 4.19115 0
M  V30 10876 H 1041.09 3.552 3.04879 0
M  V30 10877 H 1041.26 5.07792 4.02557 0
M  V30 10878 N 1034.67 -1.14067 1.0875 0
M  V30 10879 C 1036.08 -1.66747 0.839778 0
M  V30 10880 C 1036.43 -1.85711 -0.632909 0
M  V30 10881 O 1035.56 -1.57084 -1.48841 0
M  V30 10882 C 1036.15 -3.02896 1.51787 0
M  V30 10883 C 1034.71 -3.52596 1.3173 0
M  V30 10884 C 1033.86 -2.27994 1.57841 0
M  V30 10885 H 1036.81 -0.980838 1.24761 0
M  V30 10886 H 1036.83 -3.68526 0.947057 0
M  V30 10887 H 1036.34 -2.89062 2.58969 0
M  V30 10888 H 1034.44 -3.71647 0.266339 0
M  V30 10889 H 1034.56 -4.33151 2.04736 0
M  V30 10890 H 1032.92 -2.34241 1.00015 0
M  V30 10891 H 1033.7 -2.16732 2.66237 0
M  V30 10892 N 1036.15 -0.873678 -1.31166 0
M  V30 10893 C 1037.08 -0.348011 -2.30892 0
M  V30 10894 C 1038.06 0.563092 -1.60509 0
M  V30 10895 O 1039.24 0.479332 -1.88192 0
M  V30 10896 C 1036.37 0.448158 -3.44396 0
M  V30 10897 C 1035.33 -0.370179 -4.26396 0
M  V30 10898 C 1034.65 0.551903 -5.31844 0
M  V30 10899 C 1035.95 -1.60624 -4.96988 0
M  V30 10900 H 1037.65 -1.18134 -2.75109 0
M  V30 10901 H 1035.19 -0.569502 -1.3226 0
M  V30 10902 H 1037.15 0.826458 -4.13216 0
M  V30 10903 H 1035.87 1.31503 -2.98956 0
M  V30 10904 H 1034.53 -0.730472 -3.59249 0
M  V30 10905 H 1034.18 1.41616 -4.82653 0
M  V30 10906 H 1033.88 0.00823478 -5.87599 0
M  V30 10907 H 1035.4 0.926965 -6.03523 0
M  V30 10908 H 1036.82 -1.29917 -5.58386 0
M  V30 10909 H 1035.21 -2.08926 -5.62557 0
M  V30 10910 H 1036.28 -2.357 -4.23761 0
M  V30 10911 N 1037.63 1.44308 -0.633487 0
M  V30 10912 C 1038.85 2.06897 -0.144347 0
M  V30 10913 C 1039.28 1.47045 1.173 0
M  V30 10914 O 1038.63 0.572806 1.72013 0
M  V30 10915 C 1038.68 3.60571 -0.0456324 0
M  V30 10916 O 1037.79 4.0015 0.997682 0
M  V30 10917 H 1037.13 0.658427 -0.0858499 0
M  V30 10918 H 1039.66 1.85142 -0.870833 0
M  V30 10919 H 1039.67 4.07745 0.144178 0
M  V30 10920 H 1038.34 4.03515 -1.0074 0
M  V30 10921 H 1036.92 3.64603 0.782252 0
M  V30 10922 N 1039.1 0.374177 1.53094 0
M  V30 10923 C 1040.33 -0.213325 2.05797 0
M  V30 10924 C 1040.75 -1.41753 1.24706 0
M  V30 10925 O 1040.1 -1.80183 0.289868 0
M  V30 10926 C 1040.16 -0.598367 3.56513 0
M  V30 10927 O 1039.88 0.557983 4.34532 0
M  V30 10928 C 1041.38 -1.24334 4.25507 0
M  V30 10929 H 1038.6 -0.0357398 0.670048 0
M  V30 10930 H 1041.14 0.535035 1.97377 0
M  V30 10931 H 1039.3 -1.29663 3.65056 0
M  V30 10932 H 1039.71 0.244911 5.23928 0
M  V30 10933 H 1041.18 -1.46325 5.32253 0
M  V30 10934 H 1041.66 -2.20622 3.79766 0
M  V30 10935 H 1042.27 -0.586269 4.2124 0
M  V30 10936 N 1040.58 -1.57259 0.103575 0
M  V30 10937 C 1041.81 -1.99 -0.566275 0
M  V30 10938 C 1042.23 -0.982909 -1.61197 0
M  V30 10939 O 1041.58 0.026345 -1.82481 0
M  V30 10940 C 1041.63 -3.40778 -1.20635 0
M  V30 10941 O 1041.35 -4.37632 -0.202472 0
M  V30 10942 C 1042.86 -3.97567 -1.961 0
M  V30 10943 H 1040.08 -0.653751 -0.151164 0
M  V30 10944 H 1042.62 -2.03658 0.185365 0
M  V30 10945 H 1040.77 -3.37107 -1.90886 0
M  V30 10946 H 1041.19 -5.2026 -0.665535 0
M  V30 10947 H 1042.66 -4.98897 -2.36233 0
M  V30 10948 H 1043.14 -3.35853 -2.83018 0
M  V30 10949 H 1043.75 -4.04737 -1.30645 0
M  V30 10950 N 1042.06 0.170153 -1.56679 0
M  V30 10951 C 1043.31 0.884841 -1.817 0
M  V30 10952 C 1043.63 1.82731 -0.680763 0
M  V30 10953 O 1042.9 1.936 0.299294 0
M  V30 10954 H 1041.48 0.329738 -0.670285 0
M  V30 10955 H 1044.14 0.169691 -1.9416 0
M  V30 10956 H 1043.24 1.46104 -2.7579 0
M  V30 10957 N 1043.54 1.5137 0.438746 0
M  V30 10958 C 1044.77 1.67774 1.21077 0
M  V30 10959 C 1045.18 0.374489 1.85049 0
M  V30 10960 O 1044.54 -0.646867 1.70651 0
M  V30 10961 C 1044.59 2.79238 2.29584 0
M  V30 10962 O 1044.31 4.04513 1.68228 0
M  V30 10963 C 1045.81 3.06898 3.19888 0
M  V30 10964 H 1043.03 0.563054 0.364981 0
M  V30 10965 H 1045.58 1.97777 0.520035 0
M  V30 10966 H 1043.73 2.51837 2.94375 0
M  V30 10967 H 1044.14 4.66405 2.3993 0
M  V30 10968 H 1045.62 3.88476 3.92162 0
M  V30 10969 H 1046.1 2.19249 3.80561 0
M  V30 10970 H 1046.7 3.35952 2.60799 0
M  V30 10971 N 1045.02 -0.694098 1.41492 0
M  V30 10972 C 1046.43 -1.00487 1.23994 0
M  V30 10973 C 1046.63 -2.01078 0.130346 0
M  V30 10974 O 1045.69 -2.47403 -0.504775 0
M  V30 10975 C 1047 -1.52808 2.58979 0
M  V30 10976 C 1048.55 -1.64684 2.66173 0
M  V30 10977 C 1049.02 -2.20406 4.01479 0
M  V30 10978 N 1050.52 -2.27765 4.03333 0
M  V30 10979 C 1051.25 -2.7191 5.04829 0
M  V30 10980 N 1050.75 -3.1565 6.16714 0
M  V30 10981 N 1052.54 -2.71487 4.9219 0
M  V30 10982 H 1044.69 -0.027746 2.12382 0
M  V30 10983 H 1046.95 -0.0748741 0.945039 0
M  V30 10984 H 1046.66 -0.863519 3.40934 0
M  V30 10985 H 1046.53 -2.50998 2.81566 0
M  V30 10986 H 1048.92 -2.30251 1.84576 0
M  V30 10987 H 1049 -0.65035 2.47395 0
M  V30 10988 H 1048.65 -1.55454 4.83525 0
M  V30 10989 H 1048.58 -3.2081 4.17599 0
M  V30 10990 H 1051.07 -1.96899 3.22551 0
M  V30 10991 H 1051.38 -3.47966 6.90029 0
M  V30 10992 H 1049.72 -3.13555 6.20248 0
M  V30 10993 H 1052.92 -2.36666 4.03865 0
M  V30 10994 H 1053.09 -3.05573 5.71427 0
M  V30 10995 N 1046.49 -1.27344 -0.928501 0
M  V30 10996 C 1047.91 -1.12361 -1.49103 0
M  V30 10997 C 1048.26 0.291667 -1.9402 0
M  V30 10998 O 1047.38 1.18449 -1.81104 0
M  V30 10999 C 1047.98 -2.03358 -2.70981 0
M  V30 11000 C 1046.54 -1.92483 -3.23461 0
M  V30 11001 C 1045.68 -1.95961 -1.962 0
M  V30 11002 H 1048.63 -1.40249 -0.742689 0
M  V30 11003 H 1048.65 -1.58892 -3.45736 0
M  V30 11004 H 1048.17 -3.06356 -2.38259 0
M  V30 11005 H 1046.27 -0.924676 -3.60944 0
M  V30 11006 H 1046.38 -2.78682 -3.89709 0
M  V30 11007 H 1044.74 -1.40175 -2.12657 0
M  V30 11008 H 1045.53 -3.00612 -1.65793 0
M  V30 11009 N 1047.97 1.13488 -1.09353 0
M  V30 11010 C 1048.92 2.16933 -0.701709 0
M  V30 11011 C 1049.91 1.58382 0.283553 0
M  V30 11012 O 1051.1 1.7675 0.0940391 0
M  V30 11013 C 1048.23 3.43079 -0.123031 0
M  V30 11014 C 1047.31 4.08639 -1.13466 0
M  V30 11015 N 1047.7 4.49377 -2.32152 0
M  V30 11016 C 1046 4.35265 -0.972632 0
M  V30 11017 C 1046.7 5.00464 -2.96497 0
M  V30 11018 N 1045.68 4.95275 -2.24061 0
M  V30 11019 H 1049.48 2.46183 -1.60534 0
M  V30 11020 H 1047 1.30275 -0.969644 0
M  V30 11021 H 1048.99 4.1653 0.17569 0
M  V30 11022 H 1047.65 3.15304 0.775461 0
M  V30 11023 H 1048.66 4.42105 -2.69748 0
M  V30 11024 H 1045.34 4.17301 -0.12876 0
M  V30 11025 H 1046.73 5.41785 -3.9739 0
M  V30 11026 N 1049.45 0.880621 1.30701 0
M  V30 11027 C 1050.4 0.342397 2.28246 0
M  V30 11028 C 1051.37 -0.565023 1.56194 0
M  V30 11029 O 1052.55 -0.494377 1.84284 0
M  V30 11030 C 1049.69 -0.440859 3.42272 0
M  V30 11031 C 1048.81 0.495284 4.29151 0
M  V30 11032 C 1047.94 -0.303141 5.30334 0
M  V30 11033 C 1046.98 0.628751 6.08862 0
M  V30 11034 N 1046.12 -0.13408 7.01972 0
M  V30 11035 H 1050.96 1.17938 2.73669 0
M  V30 11036 H 1048.49 0.59296 1.34619 0
M  V30 11037 H 1050.45 -0.910854 4.07135 0
M  V30 11038 H 1049.08 -1.24245 2.97931 0
M  V30 11039 H 1048.13 1.08376 3.64635 0
M  V30 11040 H 1049.45 1.2094 4.83916 0
M  V30 11041 H 1048.6 -0.835181 6.00924 0
M  V30 11042 H 1047.34 -1.05049 4.76252 0
M  V30 11043 H 1046.34 1.17246 5.37153 0
M  V30 11044 H 1047.57 1.37512 6.65032 0
M  V30 11045 H 1045.52 -0.864046 6.50285 0
M  V30 11046 H 1045.43 0.520486 7.54206 0
M  V30 11047 H 1046.7 -0.647005 7.7681 0
M  V30 11048 N 1050.93 -1.4397 0.641131 0
M  V30 11049 C 1051.86 -2.28997 -0.0963315 0
M  V30 11050 C 1052.87 -1.4184 -0.799071 0
M  V30 11051 O 1054.06 -1.65896 -0.658846 0
M  V30 11052 C 1051.16 -3.18465 -1.15903 0
M  V30 11053 C 1050.34 -4.34093 -0.536828 0
M  V30 11054 C 1049.4 -5.04522 -1.4948 0
M  V30 11055 O 1048.42 -5.60202 -1.00807 0
M  V30 11056 N 1049.62 -5.06899 -2.82901 0
M  V30 11057 H 1052.39 -2.9293 0.633422 0
M  V30 11058 H 1049.95 -1.54527 0.48302 0
M  V30 11059 H 1051.94 -3.62445 -1.80044 0
M  V30 11060 H 1050.51 -2.56214 -1.79089 0
M  V30 11061 H 1049.73 -3.9318 0.283414 0
M  V30 11062 H 1051.02 -5.08698 -0.101966 0
M  V30 11063 H 1050.42 -4.63012 -3.25017 0
M  V30 11064 H 1048.97 -5.54637 -3.42376 0
M  V30 11065 N 1052.41 -0.382291 -1.52893 0
M  V30 11066 C 1053.35 0.456234 -2.26246 0
M  V30 11067 C 1054.32 1.06366 -1.27575 0
M  V30 11068 O 1055.51 1.09301 -1.5639 0
M  V30 11069 C 1052.65 1.5813 -3.06739 0
M  V30 11070 C 1051.76 0.997416 -4.20328 0
M  V30 11071 C 1050.9 2.09296 -4.8823 0
M  V30 11072 C 1049.94 1.4846 -5.93823 0
M  V30 11073 N 1049.07 2.51916 -6.55349 0
M  V30 11074 H 1053.91 -0.175761 -2.97481 0
M  V30 11075 H 1051.45 -0.0985046 -1.4677 0
M  V30 11076 H 1053.41 2.24426 -3.51694 0
M  V30 11077 H 1052.04 2.18371 -2.37727 0
M  V30 11078 H 1051.09 0.224251 -3.79738 0
M  V30 11079 H 1052.4 0.512784 -4.96157 0
M  V30 11080 H 1051.56 2.83377 -5.36453 0
M  V30 11081 H 1050.3 2.61116 -4.1191 0
M  V30 11082 H 1049.3 0.729001 -5.44946 0
M  V30 11083 H 1050.53 0.97443 -6.72073 0
M  V30 11084 H 1048.47 3.02919 -5.81873 0
M  V30 11085 H 1048.39 2.08188 -7.26769 0
M  V30 11086 H 1049.66 3.25649 -7.08218 0
M  V30 11087 N 1053.89 1.57202 -0.111913 0
M  V30 11088 C 1055.3 1.57713 0.244702 0
M  V30 11089 C 1055.5 1.12419 1.67225 0
M  V30 11090 O 1054.56 0.808329 2.39212 0
M  V30 11091 C 1055.87 3.00695 0.0178289 0
M  V30 11092 C 1057.42 3.12887 0.0842781 0
M  V30 11093 C 1057.89 4.57856 -0.114812 0
M  V30 11094 N 1059.38 4.6316 -0.0605423 0
M  V30 11095 C 1060.12 5.73086 -0.189594 0
M  V30 11096 N 1059.62 6.91787 -0.37442 0
M  V30 11097 N 1061.41 5.6195 -0.12967 0
M  V30 11098 H 1053.56 1.84947 -1.04443 0
M  V30 11099 H 1055.82 0.854418 -0.4107 0
M  V30 11100 H 1055.53 3.38093 -0.968802 0
M  V30 11101 H 1055.4 3.69611 0.752815 0
M  V30 11102 H 1057.79 2.7535 1.06143 0
M  V30 11103 H 1057.87 2.46528 -0.682474 0
M  V30 11104 H 1057.51 4.9609 -1.0889 0
M  V30 11105 H 1057.44 5.22297 0.671839 0
M  V30 11106 H 1059.94 3.77817 0.0790856 0
M  V30 11107 H 1060.25 7.71406 -0.463948 0
M  V30 11108 H 1058.59 6.93788 -0.410303 0
M  V30 11109 H 1061.78 4.68098 0.0137115 0
M  V30 11110 H 1061.96 6.47578 -0.233688 0
M  V30 11111 N 1055.36 -0.161842 1.56767 0
M  V30 11112 C 1056.31 -1.2002 1.97139 0
M  V30 11113 C 1057.28 -1.43486 0.836713 0
M  V30 11114 O 1058.47 -1.56069 1.0976 0
M  V30 11115 C 1055.61 -2.53228 2.34456 0
M  V30 11116 C 1054.72 -2.37062 3.61145 0
M  V30 11117 C 1053.85 -3.63202 3.87631 0
M  V30 11118 C 1052.89 -3.42008 5.07638 0
M  V30 11119 N 1052.03 -4.60242 5.30209 0
M  V30 11120 H 1056.87 -0.848918 2.85653 0
M  V30 11121 H 1054.41 -0.407753 1.41336 0
M  V30 11122 H 1056.36 -3.30879 2.54116 0
M  V30 11123 H 1054.99 -2.86333 1.4904 0
M  V30 11124 H 1054.05 -1.50539 3.49345 0
M  V30 11125 H 1055.36 -2.17353 4.48953 0
M  V30 11126 H 1054.51 -4.49285 4.0771 0
M  V30 11127 H 1053.25 -3.85899 2.98216 0
M  V30 11128 H 1052.26 -2.54312 4.87448 0
M  V30 11129 H 1053.48 -3.20724 5.98593 0
M  V30 11130 H 1051.43 -4.8314 4.43747 0
M  V30 11131 H 1051.34 -4.43481 6.12259 0
M  V30 11132 H 1052.61 -5.47581 5.54775 0
M  V30 11133 N 1056.84 -1.516 -0.430713 0
M  V30 11134 C 1058.25 -1.57 -1.01035 0
M  V30 11135 C 1058.6 -0.397439 -1.92132 0
M  V30 11136 O 1057.73 0.484954 -2.10896 0
M  V30 11137 C 1058.32 -2.84536 -1.83915 0
M  V30 11138 C 1056.88 -2.92485 -2.36917 0
M  V30 11139 C 1056.03 -2.5173 -1.16308 0
M  V30 11140 H 1058.98 -1.57281 -0.211734 0
M  V30 11141 H 1059 -2.68672 -2.69435 0
M  V30 11142 H 1058.51 -3.69858 -1.17586 0
M  V30 11143 H 1056.61 -2.11608 -3.0668 0
M  V30 11144 H 1056.73 -3.96277 -2.6926 0
M  V30 11145 H 1055.09 -2.05079 -1.51045 0
M  V30 11146 H 1055.87 -3.39403 -0.515793 0
M  V30 11147 N 1058.32 0.686584 -1.41858 0
M  V30 11148 C 1059.25 1.81202 -1.40352 0
M  V30 11149 C 1060.26 1.5993 -0.304322 0
M  V30 11150 O 1061.45 1.69267 -0.566643 0
M  V30 11151 C 1058.55 3.18116 -1.16856 0
M  V30 11152 C 1057.73 3.66339 -2.38987 0
M  V30 11153 C 1056.79 4.8195 -2.11212 0
M  V30 11154 O 1055.81 4.93102 -2.84323 0
M  V30 11155 N 1057.01 5.69829 -1.10793 0
M  V30 11156 H 1059.78 1.82983 -2.37355 0
M  V30 11157 H 1057.34 0.869244 -1.36586 0
M  V30 11158 H 1059.33 3.93097 -0.962125 0
M  V30 11159 H 1057.9 3.11306 -0.284186 0
M  V30 11160 H 1057.12 2.82166 -2.75274 0
M  V30 11161 H 1058.41 3.95297 -3.2034 0
M  V30 11162 H 1057.81 5.63459 -0.503012 0
M  V30 11163 H 1056.36 6.44671 -0.961379 0
M  V30 11164 N 1059.8 1.27835 0.921735 0
M  V30 11165 C 1060.73 1.05397 2.02402 0
M  V30 11166 C 1061.71 -0.0274904 1.62577 0
M  V30 11167 O 1062.89 0.11885 1.88125 0
M  V30 11168 C 1060.02 0.600016 3.33343 0
M  V30 11169 C 1059.07 1.67693 3.9215 0
M  V30 11170 S 1059.9 3.27093 4.23994 0
M  V30 11171 C 1061.05 2.83513 5.58006 0
M  V30 11172 H 1061.29 1.98723 2.21125 0
M  V30 11173 H 1058.82 1.11733 1.0656 0
M  V30 11174 H 1060.78 0.344793 4.09049 0
M  V30 11175 H 1059.44 -0.313288 3.12534 0
M  V30 11176 H 1058.63 1.31074 4.86658 0
M  V30 11177 H 1058.23 1.88454 3.2305 0
M  V30 11178 H 1060.53 2.29187 6.37557 0
M  V30 11179 H 1061.47 3.76788 5.9953 0
M  V30 11180 H 1061.88 2.22472 5.18813 0
M  V30 11181 N 1061.28 -1.12907 1.09954 0
M  V30 11182 C 1062.52 -1.84579 0.840155 0
M  V30 11183 C 1062.85 -1.83605 -0.632692 0
M  V30 11184 O 1062.13 -1.27803 -1.46617 0
M  V30 11185 C 1062.41 -3.32489 1.38286 0
M  V30 11186 C 1062.27 -3.41946 2.92221 0
M  V30 11187 C 1063.58 -4.28091 1.0211 0
M  V30 11188 H 1060.7 -0.670169 0.306663 0
M  V30 11189 H 1063.35 -1.3249 1.36185 0
M  V30 11190 H 1061.5 -3.76978 0.939123 0
M  V30 11191 H 1063.17 -3.06128 3.45085 0
M  V30 11192 H 1061.41 -2.8265 3.29077 0
M  V30 11193 H 1062.08 -4.45983 3.25274 0
M  V30 11194 H 1064.56 -3.91701 1.4039 0
M  V30 11195 H 1063.43 -5.30005 1.42781 0
M  V30 11196 H 1063.69 -4.42044 -0.0700753 0
M  V30 11197 N 1062.75 -0.88754 -1.30232 0
M  V30 11198 C 1063.7 -0.354497 -2.28061 0
M  V30 11199 C 1064.67 0.556732 -1.56492 0
M  V30 11200 O 1065.86 0.484597 -1.84543 0
M  V30 11201 C 1063 0.422701 -3.42501 0
M  V30 11202 C 1062.11 -0.518036 -4.28883 0
M  V30 11203 C 1061.24 0.275011 -5.30488 0
M  V30 11204 C 1060.28 -0.661032 -6.0852 0
M  V30 11205 N 1059.42 0.0968509 -7.02033 0
M  V30 11206 H 1064.26 -1.19388 -2.73039 0
M  V30 11207 H 1061.8 -0.600091 -1.34303 0
M  V30 11208 H 1063.75 0.889249 -4.07613 0
M  V30 11209 H 1062.38 1.22664 -2.98586 0
M  V30 11210 H 1061.44 -1.10308 -3.64055 0
M  V30 11211 H 1062.75 -1.23504 -4.83268 0
M  V30 11212 H 1061.9 0.803301 -6.01358 0
M  V30 11213 H 1060.64 1.02522 -4.76802 0
M  V30 11214 H 1059.65 -1.20093 -5.36524 0
M  V30 11215 H 1060.87 -1.41037 -6.64293 0
M  V30 11216 H 1058.82 0.829548 -6.50734 0
M  V30 11217 H 1058.73 -0.560476 -7.5392 0
M  V30 11218 H 1060 0.6058 -7.77142 0
M  V30 11219 N 1064.23 1.43628 -0.648757 0
M  V30 11220 C 1065.2 2.29172 0.0360713 0
M  V30 11221 C 1066.2 1.41974 0.754976 0
M  V30 11222 O 1067.39 1.63654 0.5969 0
M  V30 11223 C 1064.52 3.23942 1.0618 0
M  V30 11224 H 1065.71 2.91214 -0.716544 0
M  V30 11225 H 1063.26 1.50833 -0.409759 0
M  V30 11226 H 1064 2.66786 1.8438 0
M  V30 11227 H 1063.78 3.88223 0.550016 0
M  V30 11228 H 1065.27 3.8816 1.54019 0
M  V30 11229 N 1065.71 0.390394 1.52688 0
M  V30 11230 C 1066.96 -0.191729 2.01892 0
M  V30 11231 C 1067.29 -1.4637 1.27631 0
M  V30 11232 O 1066.56 -1.90809 0.377094 0
M  V30 11233 C 1066.85 -0.458535 3.57169 0
M  V30 11234 C 1066.7 0.828796 4.42098 0
M  V30 11235 C 1068.02 -1.2487 4.22014 0
M  V30 11236 H 1065.14 -0.0682091 0.733837 0
M  V30 11237 H 1067.78 0.520176 1.82741 0
M  V30 11238 H 1065.93 -1.06498 3.73618 0
M  V30 11239 H 1067.6 1.46562 4.37398 0
M  V30 11240 H 1065.85 1.44388 4.09066 0
M  V30 11241 H 1066.52 0.596746 5.48765 0
M  V30 11242 H 1068.99 -0.735452 4.09549 0
M  V30 11243 H 1067.87 -1.40412 5.30637 0
M  V30 11244 H 1068.13 -2.2642 3.79719 0
M  V30 11245 N 1067.19 -1.57141 0.120249 0
M  V30 11246 C 1068.12 -2.12454 -0.859987 0
M  V30 11247 C 1069.13 -1.06755 -1.22911 0
M  V30 11248 O 1070.32 -1.34124 -1.17784 0
M  V30 11249 C 1067.42 -2.61024 -2.16147 0
M  V30 11250 C 1066.6 -3.90835 -1.96385 0
M  V30 11251 C 1065.65 -4.2499 -3.10274 0
M  V30 11252 O 1064.68 -4.93786 -2.83133 0
M  V30 11253 N 1065.88 -3.82411 -4.36741 0
M  V30 11254 H 1068.65 -2.97186 -0.387402 0
M  V30 11255 H 1066.21 -1.61773 -0.0641376 0
M  V30 11256 H 1068.2 -2.80903 -2.91334 0
M  V30 11257 H 1066.77 -1.81166 -2.5475 0
M  V30 11258 H 1065.99 -3.79853 -1.05383 0
M  V30 11259 H 1067.28 -4.75712 -1.80487 0
M  V30 11260 H 1066.68 -3.26926 -4.61666 0
M  V30 11261 H 1065.23 -4.07395 -5.08795 0
M  V30 11262 N 1068.67 0.153526 -1.5685 0
M  V30 11263 C 1070.08 0.714247 -1.72498 0
M  V30 11264 C 1070.43 1.81968 -0.733621 0
M  V30 11265 O 1069.55 2.16163 0.10118 0
M  V30 11266 C 1070.15 1.30238 -3.12767 0
M  V30 11267 C 1068.71 1.80974 -3.30038 0
M  V30 11268 C 1067.85 0.695638 -2.68433 0
M  V30 11269 H 1070.81 -0.0720733 -1.58536 0
M  V30 11270 H 1070.83 2.17217 -3.12405 0
M  V30 11271 H 1070.34 0.497605 -3.84897 0
M  V30 11272 H 1068.44 2.64039 -2.62895 0
M  V30 11273 H 1068.55 1.94294 -4.37934 0
M  V30 11274 H 1066.92 1.12061 -2.28723 0
M  V30 11275 H 1067.7 -0.0975885 -3.43161 0
M  V30 11276 N 1070.14 1.51827 0.422667 0
M  V30 11277 C 1071.08 1.70409 1.53275 0
M  V30 11278 C 1072.09 0.584584 1.51942 0
M  V30 11279 O 1073.28 0.859349 1.56453 0
M  V30 11280 C 1070.38 1.717 2.92185 0
M  V30 11281 C 1069.55 3.00472 3.17861 0
M  V30 11282 C 1068.61 2.93755 4.36571 0
M  V30 11283 O 1067.64 3.67682 4.3451 0
M  V30 11284 N 1068.84 2.10612 5.40946 0
M  V30 11285 H 1071.6 2.66176 1.37734 0
M  V30 11286 H 1069.16 1.49895 0.611799 0
M  V30 11287 H 1071.16 1.64756 3.69645 0
M  V30 11288 H 1069.73 0.834655 3.01251 0
M  V30 11289 H 1068.95 3.21171 2.28567 0
M  V30 11290 H 1070.23 3.85684 3.31851 0
M  V30 11291 H 1069.63 1.49954 5.45463 0
M  V30 11292 H 1068.19 2.09535 6.17202 0
M  V30 11293 N 1071.62 -0.679052 1.4222 0
M  V30 11294 C 1072.53 -1.82221 1.47759 0
M  V30 11295 C 1073.55 -1.70092 0.3667 0
M  V30 11296 O 1074.72 -1.91718 0.616957 0
M  V30 11297 C 1071.79 -3.18332 1.37351 0
M  V30 11298 C 1070.85 -3.42449 2.58896 0
M  V30 11299 C 1070.08 -4.72067 2.48976 0
M  V30 11300 O 1070.31 -5.49683 1.5233 0
M  V30 11301 O 1069.24 -4.97333 3.39033 0
M  V30 11302 H 1073.07 -1.80504 2.44238 0
M  V30 11303 H 1070.65 -0.834251 1.23938 0
M  V30 11304 H 1072.53 -3.99563 1.33893 0
M  V30 11305 H 1071.21 -3.20696 0.439965 0
M  V30 11306 H 1070.12 -2.61083 2.6793 0
M  V30 11307 H 1071.45 -3.44912 3.51136 0
M  V30 11308 N 1073.1 -1.28322 -0.914942 0
M  V30 11309 C 1074.03 -1.06469 -2.01841 0
M  V30 11310 C 1075.01 0.0188681 -1.62589 0
M  V30 11311 O 1076.2 -0.128825 -1.88059 0
M  V30 11312 C 1073.32 -0.617685 -3.3302 0
M  V30 11313 C 1072.37 -1.6977 -3.91255 0
M  V30 11314 S 1073.2 -3.29337 -4.22253 0
M  V30 11315 C 1074.36 -2.86468 -5.56495 0
M  V30 11316 H 1074.59 -1.99893 -2.20068 0
M  V30 11317 H 1072.12 -1.12297 -1.05966 0
M  V30 11318 H 1074.08 -0.366481 -4.08861 0
M  V30 11319 H 1072.74 0.296709 -3.12695 0
M  V30 11320 H 1071.94 -1.33653 -4.85956 0
M  V30 11321 H 1071.54 -1.90164 -3.22046 0
M  V30 11322 H 1073.83 -2.32565 -6.36333 0
M  V30 11323 H 1074.77 -3.79962 -5.97523 0
M  V30 11324 H 1075.18 -2.2522 -5.17626 0
M  V30 11325 N 1074.58 1.12322 -1.10551 0
M  V30 11326 C 1075.8 1.8822 -0.871093 0
M  V30 11327 C 1076.23 1.7916 0.573005 0
M  V30 11328 O 1075.59 1.14738 1.40374 0
M  V30 11329 C 1075.63 3.35349 -1.32565 0
M  V30 11330 O 1074.74 4.09461 -0.49145 0
M  V30 11331 H 1074.08 0.584787 -0.314516 0
M  V30 11332 H 1076.61 1.42039 -1.47262 0
M  V30 11333 H 1076.62 3.86189 -1.31612 0
M  V30 11334 H 1075.29 3.4126 -2.37728 0
M  V30 11335 H 1073.87 3.68575 -0.566294 0
M  V30 11336 N 1076.06 0.894434 1.2976 0
M  V30 11337 C 1076.99 0.325525 2.26877 0
M  V30 11338 C 1078 -0.525218 1.54095 0
M  V30 11339 O 1079.19 -0.343231 1.75169 0
M  V30 11340 C 1076.29 -0.554952 3.34325 0
M  V30 11341 C 1075.46 0.268868 4.36573 0
M  V30 11342 C 1074.52 -0.543601 5.23385 0
M  V30 11343 O 1073.55 0.0370454 5.69188 0
M  V30 11344 N 1074.75 -1.85079 5.50205 0
M  V30 11345 H 1077.52 1.16021 2.76332 0
M  V30 11346 H 1075.08 0.758382 1.43039 0
M  V30 11347 H 1077.07 -1.10476 3.89329 0
M  V30 11348 H 1075.64 -1.29031 2.84727 0
M  V30 11349 H 1074.86 1.0001 3.81302 0
M  V30 11350 H 1076.15 0.833248 5.01931 0
M  V30 11351 H 1075.54 -2.34533 5.14792 0
M  V30 11352 H 1074.1 -2.34784 6.08046 0
M  V30 11353 N 1077.53 -1.43282 0.656365 0
M  V30 11354 C 1078.47 -2.28049 -0.083127 0
M  V30 11355 C 1079.45 -1.40009 -0.826812 0
M  V30 11356 O 1080.63 -1.69452 -0.825736 0
M  V30 11357 C 1077.76 -3.19487 -1.12452 0
M  V30 11358 C 1076.8 -4.23807 -0.478527 0
M  V30 11359 S 1077.64 -5.30218 0.750248 0
M  V30 11360 C 1078.79 -6.25225 -0.290534 0
M  V30 11361 H 1079.02 -2.90419 0.635922 0
M  V30 11362 H 1076.56 -1.47839 0.445303 0
M  V30 11363 H 1078.52 -3.72713 -1.72034 0
M  V30 11364 H 1077.18 -2.56288 -1.81591 0
M  V30 11365 H 1076.37 -4.87901 -1.26368 0
M  V30 11366 H 1075.97 -3.73975 0.043251 0
M  V30 11367 H 1078.26 -6.67568 -1.15579 0
M  V30 11368 H 1079.21 -7.07397 0.315458 0
M  V30 11369 H 1079.61 -5.60999 -0.627751 0
M  V30 11370 N 1079.01 -0.398486 -1.52479 0
M  V30 11371 C 1079.96 0.432212 -2.26717 0
M  V30 11372 C 1080.93 1.05007 -1.28696 0
M  V30 11373 O 1082.12 1.07636 -1.57541 0
M  V30 11374 C 1079.26 1.54868 -3.08399 0
M  V30 11375 C 1078.37 0.952779 -4.21362 0
M  V30 11376 C 1077.5 2.04106 -4.90423 0
M  V30 11377 C 1076.54 1.42153 -5.95364 0
M  V30 11378 N 1075.68 2.44951 -6.57984 0
M  V30 11379 H 1080.52 -0.207303 -2.97278 0
M  V30 11380 H 1078.06 -0.114066 -1.46657 0
M  V30 11381 H 1080.01 2.20684 -3.54054 0
M  V30 11382 H 1078.64 2.15837 -2.4003 0
M  V30 11383 H 1077.7 0.183962 -3.79955 0
M  V30 11384 H 1079.01 0.460131 -4.96673 0
M  V30 11385 H 1078.16 2.77672 -5.39429 0
M  V30 11386 H 1076.9 2.56733 -4.14656 0
M  V30 11387 H 1075.91 0.671161 -5.45688 0
M  V30 11388 H 1077.13 0.903093 -6.73068 0
M  V30 11389 H 1075.08 2.9673 -5.85053 0
M  V30 11390 H 1074.99 2.00468 -7.28937 0
M  V30 11391 H 1076.26 3.18119 -7.11632 0
M  V30 11392 N 1080.49 1.57075 -0.12858 0
M  V30 11393 C 1081.9 1.82468 0.39526 0
M  V30 11394 C 1082.25 1.0463 1.65973 0
M  V30 11395 O 1081.38 0.285835 2.14504 0
M  V30 11396 C 1081.97 3.30976 0.723889 0
M  V30 11397 C 1080.53 3.57016 1.19232 0
M  V30 11398 C 1079.68 2.76534 0.205907 0
M  V30 11399 H 1082.63 1.54711 -0.353571 0
M  V30 11400 H 1082.65 3.46127 1.58039 0
M  V30 11401 H 1082.16 3.87602 -0.196595 0
M  V30 11402 H 1080.26 3.05758 2.12938 0
M  V30 11403 H 1080.38 4.65558 1.13103 0
M  V30 11404 H 1078.74 2.45038 0.694872 0
M  V30 11405 H 1079.52 3.35923 -0.707842 0
M  V30 11406 N 1081.97 -0.145205 1.5693 0
M  V30 11407 C 1082.92 -1.18446 1.94819 0
M  V30 11408 C 1083.9 -1.38456 0.819684 0
M  V30 11409 O 1085.1 -1.39988 1.08316 0
M  V30 11410 C 1082.22 -2.51766 2.33385 0
M  V30 11411 C 1081.31 -2.35341 3.5281 0
M  V30 11412 N 1081.7 -1.88676 4.69292 0
M  V30 11413 C 1080 -2.66087 3.5793 0
M  V30 11414 C 1080.7 -1.85337 5.51385 0
M  V30 11415 N 1079.68 -2.28717 4.93142 0
M  V30 11416 H 1083.48 -0.815785 2.82351 0
M  V30 11417 H 1080.99 -0.353242 1.58512 0
M  V30 11418 H 1082.99 -3.26897 2.58735 0
M  V30 11419 H 1081.65 -2.89414 1.47206 0
M  V30 11420 H 1082.66 -1.58614 4.93013 0
M  V30 11421 H 1079.34 -3.07597 2.82294 0
M  V30 11422 H 1080.73 -1.50734 6.54774 0
M  V30 11423 N 1083.45 -1.52049 -0.414609 0
M  V30 11424 C 1084.69 -1.66084 -1.16379 0
M  V30 11425 C 1085.03 -0.386932 -1.90306 0
M  V30 11426 O 1084.3 0.614441 -1.8454 0
M  V30 11427 C 1084.58 -2.87927 -2.16264 0
M  V30 11428 C 1084.44 -4.25353 -1.46269 0
M  V30 11429 C 1085.76 -3.05289 -3.16996 0
M  V30 11430 H 1082.88 -0.604414 -0.421726 0
M  V30 11431 H 1085.52 -1.8459 -0.450177 0
M  V30 11432 H 1083.67 -2.7228 -2.77121 0
M  V30 11433 H 1085.34 -4.52717 -0.885743 0
M  V30 11434 H 1083.58 -4.27006 -0.76472 0
M  V30 11435 H 1084.25 -5.06644 -2.19126 0
M  V30 11436 H 1086.73 -3.19798 -2.66212 0
M  V30 11437 H 1085.61 -3.92065 -3.84156 0
M  V30 11438 H 1085.87 -2.1836 -3.84411 0
M  V30 11439 N 1084.93 0.6715 -1.42579 0
M  V30 11440 C 1086.16 1.4576 -1.46416 0
M  V30 11441 C 1086.56 1.89051 -0.0749843 0
M  V30 11442 O 1085.91 1.58927 0.921296 0
M  V30 11443 C 1085.97 2.7365 -2.33144 0
M  V30 11444 C 1085.63 2.52414 -3.80968 0
M  V30 11445 C 1086.63 2.16804 -4.72538 0
M  V30 11446 C 1084.31 2.67306 -4.25268 0
M  V30 11447 C 1086.31 1.96358 -6.06401 0
M  V30 11448 C 1084 2.46475 -5.5919 0
M  V30 11449 C 1084.99 2.11055 -6.49573 0
M  V30 11450 O 1084.68 1.90428 -7.8102 0
M  V30 11451 H 1084.41 0.454896 -0.500045 0
M  V30 11452 H 1086.97 0.832198 -1.87786 0
M  V30 11453 H 1085.2 3.38684 -1.86629 0
M  V30 11454 H 1086.89 3.35543 -2.28398 0
M  V30 11455 H 1087.65 2.04891 -4.39596 0
M  V30 11456 H 1083.53 2.93854 -3.55206 0
M  V30 11457 H 1087.08 1.68634 -6.76911 0
M  V30 11458 H 1082.97 2.57985 -5.91704 0
M  V30 11459 H 1083.74 2.05 -7.92412 0
M  V30 11460 N 1086.4 1.28806 0.908124 0
M  V30 11461 C 1087.68 1.06981 1.63751 0
M  V30 11462 C 1088.06 -0.388936 2.07486 0
M  V30 11463 O 1087.41 -1.37611 1.82415 0
M  V30 11464 C 1087.62 2.04962 2.82474 0
M  V30 11465 C 1088.97 2.35418 3.5336 0
M  V30 11466 O 1089.99 2.03091 2.92631 0
M  V30 11467 O 1088.85 2.90617 4.62822 0
M  V30 11468 H 1085.94 0.409267 0.71863 0
M  V30 11469 H 1088.49 1.40146 0.956934 0
M  V30 11470 H 1087.26 3.03254 2.47291 0
M  V30 11471 H 1086.88 1.72476 3.58242 0
M  V30 11472 N 1087.88 -1.11734 1.11145 0
M  V30 11473 C 1088.81 -2.1976 0.789152 0
M  V30 11474 C 1089.79 -1.68382 -0.241143 0
M  V30 11475 O 1090.98 -1.93914 -0.105292 0
M  V30 11476 C 1088.11 -3.46549 0.228204 0
M  V30 11477 C 1087.06 -4.11123 1.19002 0
M  V30 11478 C 1086.39 -5.32451 0.489928 0
M  V30 11479 C 1087.69 -4.56406 2.53951 0
M  V30 11480 H 1089.38 -2.46978 1.69241 0
M  V30 11481 H 1086.93 -1.18705 0.81517 0
M  V30 11482 H 1088.88 -4.21399 -0.00945908 0
M  V30 11483 H 1087.6 -3.18782 -0.71033 0
M  V30 11484 H 1086.26 -3.38264 1.41326 0
M  V30 11485 H 1085.91 -5.00953 -0.453315 0
M  V30 11486 H 1085.61 -5.76605 1.1314 0
M  V30 11487 H 1087.14 -6.10042 0.260984 0
M  V30 11488 H 1088.55 -5.22592 2.35733 0
M  V30 11489 H 1086.95 -5.11363 3.14051 0
M  V30 11490 H 1088.02 -3.7001 3.13402 0
M  V30 11491 N 1089.36 -0.901303 -1.29284 0
M  V30 11492 C 1090.77 -0.576317 -1.77582 0
M  V30 11493 C 1091.12 0.908078 -1.73921 0
M  V30 11494 O 1090.25 1.71006 -1.32611 0
M  V30 11495 C 1090.84 -1.03938 -3.22463 0
M  V30 11496 C 1089.4 -0.765533 -3.68533 0
M  V30 11497 C 1088.55 -1.21318 -2.49354 0
M  V30 11498 H 1091.5 -1.08386 -1.15923 0
M  V30 11499 H 1091.52 -0.375367 -3.78644 0
M  V30 11500 H 1091.03 -2.11977 -3.25096 0
M  V30 11501 H 1089.13 0.302176 -3.71373 0
M  V30 11502 H 1089.25 -1.36454 -4.59257 0
M  V30 11503 H 1087.61 -0.632141 -2.46731 0
M  V30 11504 H 1088.39 -2.30165 -2.54714 0
M  V30 11505 N 1090.84 1.42931 -0.663954 0
M  V30 11506 C 1092.08 2.01982 -0.182007 0
M  V30 11507 C 1092.42 1.52323 1.20463 0
M  V30 11508 O 1091.69 0.720834 1.80649 0
M  V30 11509 C 1091.97 3.59518 -0.204671 0
M  V30 11510 C 1091.83 4.19382 -1.62599 0
M  V30 11511 C 1093.15 4.37762 0.45308 0
M  V30 11512 H 1090.27 0.733892 -0.0676115 0
M  V30 11513 H 1092.91 1.70092 -0.84668 0
M  V30 11514 H 1091.06 3.86816 0.361295 0
M  V30 11515 H 1092.73 4.03076 -2.24337 0
M  V30 11516 H 1090.97 3.75623 -2.17001 0
M  V30 11517 H 1091.64 5.28496 -1.59362 0
M  V30 11518 H 1094.12 4.1609 -0.0285774 0
M  V30 11519 H 1093 5.47392 0.406538 0
M  V30 11520 H 1093.26 4.1482 1.52895 0
M  V30 11521 N 1092.32 0.406567 1.52266 0
M  V30 11522 C 1093.23 -0.4271 2.30679 0
M  V30 11523 C 1094.24 -1.0559 1.383 0
M  V30 11524 O 1095.42 -1.05797 1.71374 0
M  V30 11525 C 1092.48 -1.53008 3.1111 0
M  V30 11526 C 1091.54 -0.924604 4.19225 0
M  V30 11527 C 1090.78 -1.97502 4.95811 0
M  V30 11528 O 1091 -3.19277 4.72671 0
M  V30 11529 O 1089.93 -1.58268 5.80719 0
M  V30 11530 H 1093.76 0.212187 3.02958 0
M  V30 11531 H 1091.34 0.169835 1.48432 0
M  V30 11532 H 1093.23 -2.17046 3.61205 0
M  V30 11533 H 1091.9 -2.15401 2.41628 0
M  V30 11534 H 1090.81 -0.247009 3.73284 0
M  V30 11535 H 1092.14 -0.34463 4.90992 0
M  V30 11536 N 1093.79 -1.57004 0.136909 0
M  V30 11537 C 1095.04 -1.9541 -0.51569 0
M  V30 11538 C 1095.36 -1.02219 -1.66061 0
M  V30 11539 O 1094.63 -0.0818172 -1.95729 0
M  V30 11540 H 1093.21 -0.721504 -0.193497 0
M  V30 11541 H 1095.88 -1.93765 0.210046 0
M  V30 11542 H 1094.97 -2.98887 -0.898494 0
M  V30 11543 N 1095.27 0.136881 -1.57004 0
M  V30 11544 C 1096.22 1.18782 -1.99984 0
M  V30 11545 C 1097.21 1.43899 -0.893841 0
M  V30 11546 O 1098.42 1.44072 -1.07904 0
M  V30 11547 H 1094.8 0.400065 -0.636751 0
M  V30 11548 H 1096.77 0.798696 -2.87512 0
M  V30 11549 C 1095.52 2.51105 -2.40502 0
M  V30 11550 H 1094.84 2.32611 -3.25165 0
M  V30 11551 H 1096.28 3.23244 -2.74389 0
M  V30 11552 C 1094.74 3.12386 -1.26161 0
M  V30 11553 O 1095.27 3.97666 -0.567836 0
M  V30 11554 N 1093.47 2.71989 -1.02326 0
M  V30 11555 H 1093.02 2.02736 -1.58921 0
M  V30 11556 H 1092.98 3.13322 -0.26013 0
M  V30 11557 N 1096.75 1.52266 0.40654 0
M  V30 11558 C 1097.66 1.78688 1.52012 0
M  V30 11559 C 1098.68 0.6726 1.60475 0
M  V30 11560 O 1099.85 0.95829 1.77141 0
M  V30 11561 C 1096.92 1.93434 2.87722 0
M  V30 11562 C 1095.98 3.17341 2.89125 0
M  V30 11563 C 1095.21 3.31374 4.18362 0
M  V30 11564 O 1095.43 2.50613 5.12396 0
M  V30 11565 O 1094.37 4.24539 4.26674 0
M  V30 11566 H 1098.19 2.73213 1.3262 0
M  V30 11567 H 1095.78 1.37142 0.592653 0
M  V30 11568 H 1097.66 2.04941 3.68208 0
M  V30 11569 H 1096.34 1.02099 3.07177 0
M  V30 11570 H 1095.24 3.1129 2.07483 0
M  V30 11571 H 1096.58 4.08466 2.7462 0
M  V30 11572 N 1098.23 -0.663929 1.42933 0
M  V30 11573 C 1099.64 -1.24484 1.39143 0
M  V30 11574 C 1099.99 -1.95993 0.0901142 0
M  V30 11575 O 1099.12 -2.00636 -0.810812 0
M  V30 11576 C 1099.71 -2.26402 2.52047 0
M  V30 11577 C 1098.27 -2.79995 2.51555 0
M  V30 11578 C 1097.42 -1.54475 2.30289 0
M  V30 11579 H 1100.37 -0.456619 1.51989 0
M  V30 11580 H 1100.39 -3.08361 2.22921 0
M  V30 11581 H 1099.9 -1.74328 3.46744 0
M  V30 11582 H 1098 -3.36161 1.60707 0
M  V30 11583 H 1098.11 -3.2827 3.48964 0
M  V30 11584 H 1096.48 -1.81437 1.78753 0
M  V30 11585 H 1097.26 -1.04351 3.27056 0
M  V30 11586 N 1099.71 -1.29285 -0.901281 0
M  V30 11587 C 1101.12 -1.15499 -1.46686 0
M  V30 11588 C 1101.47 0.250446 -1.94595 0
M  V30 11589 O 1100.59 1.14581 -1.83576 0
M  V30 11590 C 1101.19 -2.0906 -2.66607 0
M  V30 11591 C 1099.75 -1.99301 -3.19306 0
M  V30 11592 C 1098.89 -2.00079 -1.91999 0
M  V30 11593 H 1101.85 -1.41793 -0.712773 0
M  V30 11594 H 1101.87 -1.6619 -3.42288 0
M  V30 11595 H 1101.38 -3.11341 -2.31707 0
M  V30 11596 H 1099.48 -1.00103 -3.58901 0
M  V30 11597 H 1099.59 -2.86885 -3.8371 0
M  V30 11598 H 1097.96 -1.44655 -2.09636 0
M  V30 11599 H 1098.74 -3.04061 -1.59379 0
M  V30 11600 N 1101.18 1.11143 -1.11736 0
M  V30 11601 C 1102.15 2.15456 -0.78174 0
M  V30 11602 C 1103.15 1.59547 0.200383 0
M  V30 11603 O 1104.34 1.74183 -0.0244893 0
M  V30 11604 C 1101.47 3.40523 -0.160364 0
M  V30 11605 H 1102.66 2.46658 -1.70586 0
M  V30 11606 H 1100.22 1.26381 -0.919644 0
M  V30 11607 H 1100.95 3.14932 0.773835 0
M  V30 11608 H 1100.74 3.82386 -0.867378 0
M  V30 11609 H 1102.23 4.17559 0.0582175 0
M  V30 11610 N 1102.66 0.908147 1.28804 0
M  V30 11611 C 1103.89 0.553431 1.9988 0
M  V30 11612 C 1104.31 -0.856714 1.67458 0
M  V30 11613 O 1103.67 -1.57163 0.903849 0
M  V30 11614 C 1103.72 0.762688 3.52442 0
M  V30 11615 O 1102.82 -0.180924 4.12003 0
M  V30 11616 H 1102.16 0.215237 0.628147 0
M  V30 11617 H 1104.69 1.22205 1.64095 0
M  V30 11618 H 1104.7 0.670612 4.02451 0
M  V30 11619 H 1103.38 1.79071 3.75375 0
M  V30 11620 H 1101.96 -0.0405897 3.72878 0
M  V30 11621 N 1104.14 -1.42577 0.671525 0
M  V30 11622 C 1105.39 -2.01584 0.192431 0
M  V30 11623 C 1105.72 -1.53076 -1.19992 0
M  V30 11624 O 1104.97 -0.722196 -1.81887 0
M  V30 11625 C 1105.27 -3.56985 0.172097 0
M  V30 11626 C 1104.94 -4.24912 1.50867 0
M  V30 11627 C 1103.6 -4.43182 1.87464 0
M  V30 11628 C 1105.95 -4.6322 2.38908 0
M  V30 11629 C 1103.28 -4.97031 3.11732 0
M  V30 11630 C 1105.63 -5.18447 3.62485 0
M  V30 11631 C 1104.29 -5.34932 3.99255 0
M  V30 11632 H 1103.56 -0.737647 0.0704155 0
M  V30 11633 H 1106.21 -1.70807 0.865862 0
M  V30 11634 H 1104.52 -3.87411 -0.584835 0
M  V30 11635 H 1106.21 -4.00419 -0.215749 0
M  V30 11636 H 1102.8 -4.11048 1.21397 0
M  V30 11637 H 1106.99 -4.4878 2.1192 0
M  V30 11638 H 1102.24 -5.07979 3.40246 0
M  V30 11639 H 1106.42 -5.47075 4.30909 0
M  V30 11640 H 1104.04 -5.76422 4.95623 0
M  V30 11641 N 1105.62 -0.414636 -1.52048 0
M  V30 11642 C 1106.57 0.42561 -2.23992 0
M  V30 11643 C 1107.55 1.00894 -1.25337 0
M  V30 11644 O 1108.74 0.930842 -1.50547 0
M  V30 11645 C 1105.87 1.53874 -3.06884 0
M  V30 11646 C 1104.96 0.965913 -4.12954 0
M  V30 11647 N 1105.35 0.12023 -5.05657 0
M  V30 11648 C 1103.65 1.23586 -4.28535 0
M  V30 11649 C 1104.35 -0.199063 -5.81359 0
M  V30 11650 N 1103.33 0.411505 -5.4204 0
M  V30 11651 H 1107.13 -0.226746 -2.93024 0
M  V30 11652 H 1104.64 -0.225376 -1.60829 0
M  V30 11653 H 1106.64 2.15334 -3.56983 0
M  V30 11654 H 1105.3 2.19366 -2.39392 0
M  V30 11655 H 1106.31 -0.244501 -5.17323 0
M  V30 11656 H 1102.99 1.88995 -3.72273 0
M  V30 11657 H 1104.38 -0.88585 -6.66035 0
M  V30 11658 N 1107.1 1.56929 -0.145233 0
M  V30 11659 C 1108.04 2.16671 0.795128 0
M  V30 11660 C 1109.01 1.09908 1.24537 0
M  V30 11661 O 1110.2 1.37941 1.31821 0
M  V30 11662 C 1107.34 2.79111 2.02956 0
M  V30 11663 C 1106.45 4.00261 1.62528 0
M  V30 11664 C 1105.59 4.50705 2.81137 0
M  V30 11665 C 1104.63 5.64324 2.37075 0
M  V30 11666 N 1103.76 6.09395 3.48687 0
M  V30 11667 H 1108.6 2.96692 0.278865 0
M  V30 11668 H 1106.14 1.4656 0.125934 0
M  V30 11669 H 1108.1 3.13456 2.7532 0
M  V30 11670 H 1106.73 2.01737 2.51996 0
M  V30 11671 H 1105.78 3.71906 0.799365 0
M  V30 11672 H 1107.09 4.8258 1.26166 0
M  V30 11673 H 1106.25 4.87096 3.61693 0
M  V30 11674 H 1104.98 3.67389 3.20744 0
M  V30 11675 H 1103.99 5.27511 1.54958 0
M  V30 11676 H 1105.21 6.49425 1.98556 0
M  V30 11677 H 1103.16 5.29014 3.87917 0
M  V30 11678 H 1103.08 6.86636 3.16333 0
M  V30 11679 H 1104.35 6.50431 4.29605 0
M  V30 11680 N 1108.58 -0.128553 1.57075 0
M  V30 11681 C 1109.85 -0.867766 1.75297 0
M  V30 11682 C 1110.23 -1.98508 0.718176 0
M  V30 11683 O 1109.58 -2.2702 -0.259616 0
M  V30 11684 C 1109.79 -1.39326 3.19983 0
M  V30 11685 C 1111.14 -1.84939 3.82208 0
M  V30 11686 O 1112.16 -1.49027 3.23527 0
M  V30 11687 O 1111.02 -2.51227 4.85332 0
M  V30 11688 H 1108.12 -0.411393 0.717415 0
M  V30 11689 H 1110.66 -0.113038 1.69323 0
M  V30 11690 H 1109.43 -0.591172 3.86809 0
M  V30 11691 H 1109.06 -2.21097 3.30457 0
M  V30 11692 N 1110.05 -1.5248 -0.398459 0
M  V30 11693 C 1111.28 -1.70925 -1.16586 0
M  V30 11694 C 1111.7 -0.42342 -1.83991 0
M  V30 11695 O 1111.05 0.601395 -1.72306 0
M  V30 11696 C 1111.1 -2.85226 -2.22099 0
M  V30 11697 O 1110.83 -4.08831 -1.57444 0
M  V30 11698 C 1112.33 -3.15272 -3.11639 0
M  V30 11699 H 1109.55 -0.572533 -0.349924 0
M  V30 11700 H 1112.09 -1.99087 -0.467416 0
M  V30 11701 H 1110.25 -2.59553 -2.87595 0
M  V30 11702 H 1110.66 -4.72603 -2.2748 0
M  V30 11703 H 1112.13 -3.98737 -3.81724 0
M  V30 11704 H 1112.61 -2.29262 -3.74614 0
M  V30 11705 H 1113.22 -3.42749 -2.518 0
M  V30 11706 N 1111.53 0.65634 -1.43283 0
M  V30 11707 C 1112.48 1.79058 -1.48462 0
M  V30 11708 C 1113.47 1.65563 -0.358512 0
M  V30 11709 O 1114.68 1.71947 -0.532365 0
M  V30 11710 H 1111.05 0.590716 -0.465358 0
M  V30 11711 H 1113.03 1.7181 -2.43975 0
M  V30 11712 C 1111.77 3.17304 -1.42175 0
M  V30 11713 H 1111.1 3.28324 -2.2813 0
M  V30 11714 H 1112.54 3.96633 -1.4986 0
M  V30 11715 C 1111 3.36613 -0.138929 0
M  V30 11716 O 1111.53 3.93633 0.80101 0
M  V30 11717 N 1109.73 2.90557 -0.0501237 0
M  V30 11718 H 1109.28 2.4434 -0.815821 0
M  V30 11719 H 1109.24 3.03853 0.807504 0
M  V30 11720 N 1113.01 1.29761 0.894412 0
M  V30 11721 C 1113.97 1.15335 1.98067 0
M  V30 11722 C 1114.97 0.0872804 1.60563 0
M  V30 11723 O 1116.16 0.334645 1.70955 0
M  V30 11724 C 1113.29 0.764907 3.32208 0
M  V30 11725 H 1114.49 2.11829 2.12293 0
M  V30 11726 H 1112.04 1.13023 1.0796 0
M  V30 11727 H 1112.78 -0.199948 3.23683 0
M  V30 11728 H 1112.56 1.53523 3.60795 0
M  V30 11729 H 1114.05 0.687176 4.11907 0
M  V30 11730 N 1114.49 -1.10549 1.12324 0
M  V30 11731 C 1115.42 -2.18911 0.812416 0
M  V30 11732 C 1116.4 -1.68628 -0.22327 0
M  V30 11733 O 1117.58 -1.94015 -0.0847184 0
M  V30 11734 C 1114.71 -3.46288 0.264947 0
M  V30 11735 C 1113.67 -4.09838 1.23356 0
M  V30 11736 C 1112.99 -5.31901 0.546374 0
M  V30 11737 C 1114.29 -4.53686 2.58778 0
M  V30 11738 H 1115.99 -2.45169 1.71851 0
M  V30 11739 H 1113.53 -1.17834 0.827715 0
M  V30 11740 H 1115.49 -4.21385 0.0352364 0
M  V30 11741 H 1114.21 -3.19517 -0.676479 0
M  V30 11742 H 1112.87 -3.36746 1.44906 0
M  V30 11743 H 1112.52 -5.01406 -0.400157 0
M  V30 11744 H 1112.22 -5.75372 1.19249 0
M  V30 11745 H 1113.74 -6.09731 0.325673 0
M  V30 11746 H 1115.16 -5.20063 2.41263 0
M  V30 11747 H 1113.55 -5.08003 3.19457 0
M  V30 11748 H 1114.62 -3.66665 3.17309 0
M  V30 11749 N 1115.97 -0.914965 -1.28321 0
M  V30 11750 C 1117.38 -0.59512 -1.76961 0
M  V30 11751 C 1117.73 0.88958 -1.74874 0
M  V30 11752 O 1116.85 1.6959 -1.34418 0
M  V30 11753 C 1117.45 -1.07353 -3.21342 0
M  V30 11754 C 1116.01 -0.804577 -3.677 0
M  V30 11755 C 1115.15 -1.23955 -2.48053 0
M  V30 11756 H 1118.1 -1.0961 -1.14767 0
M  V30 11757 H 1118.13 -0.415506 -3.78225 0
M  V30 11758 H 1117.64 -2.15413 -3.22829 0
M  V30 11759 H 1115.74 0.26277 -3.71672 0
M  V30 11760 H 1115.85 -1.41317 -4.57784 0
M  V30 11761 H 1114.22 -0.658274 -2.46046 0
M  V30 11762 H 1115 -2.32853 -2.52258 0
M  V30 11763 N 1117.44 1.42219 -0.679077 0
M  V30 11764 C 1118.85 1.8459 -0.279877 0
M  V30 11765 C 1119.21 1.56839 1.17881 0
M  V30 11766 O 1118.33 1.03039 1.90294 0
M  V30 11767 C 1118.93 3.35072 -0.501185 0
M  V30 11768 C 1117.48 3.76076 -0.156065 0
M  V30 11769 C 1116.63 2.65763 -0.791549 0
M  V30 11770 H 1119.58 1.32005 -0.880932 0
M  V30 11771 H 1119.6 3.79708 0.245349 0
M  V30 11772 H 1119.12 3.55239 -1.56291 0
M  V30 11773 H 1117.22 3.61516 0.90205 0
M  V30 11774 H 1117.33 4.75334 -0.599572 0
M  V30 11775 H 1115.69 2.53726 -0.222514 0
M  V30 11776 H 1116.48 2.88751 -1.85682 0
M  V30 11777 N 1118.92 0.422693 1.51826 0
M  V30 11778 C 1120.15 -0.147744 2.06372 0
M  V30 11779 C 1120.56 -1.37714 1.29152 0
M  V30 11780 O 1119.92 -1.7917 0.347046 0
M  V30 11781 C 1119.97 -0.484642 3.58237 0
M  V30 11782 O 1119.69 0.695944 4.32537 0
M  V30 11783 C 1121.19 -1.10734 4.29247 0
M  V30 11784 H 1118.41 -0.0144047 0.670845 0
M  V30 11785 H 1120.96 0.597558 1.95575 0
M  V30 11786 H 1119.11 -1.17984 3.68997 0
M  V30 11787 H 1119.53 0.411471 5.22884 0
M  V30 11788 H 1121 -1.29318 5.36639 0
M  V30 11789 H 1121.48 -2.08429 3.86593 0
M  V30 11790 H 1122.08 -0.451958 4.22892 0
M  V30 11791 N 1120.4 -1.5685 0.153553 0
M  V30 11792 C 1121.65 -1.96625 -0.49665 0
M  V30 11793 C 1121.98 -1.03877 -1.64083 0
M  V30 11794 O 1121.25 -0.0824112 -1.94325 0
M  V30 11795 C 1121.54 -3.46035 -0.996585 0
M  V30 11796 C 1121.39 -4.49561 0.146551 0
M  V30 11797 C 1122.71 -3.98104 -1.8762 0
M  V30 11798 H 1119.83 -0.714917 -0.179059 0
M  V30 11799 H 1122.47 -1.88527 0.236104 0
M  V30 11800 H 1120.62 -3.53066 -1.621 0
M  V30 11801 H 1122.29 -4.54604 0.783108 0
M  V30 11802 H 1120.53 -4.26271 0.804727 0
M  V30 11803 H 1121.21 -5.51456 -0.245078 0
M  V30 11804 H 1123.68 -3.93593 -1.34997 0
M  V30 11805 H 1122.56 -5.03098 -2.19508 0
M  V30 11806 H 1122.82 -3.40852 -2.81554 0
M  V30 11807 N 1121.88 0.120221 -1.57141 0
M  V30 11808 C 1123.12 0.828222 -1.84788 0
M  V30 11809 C 1123.45 1.79936 -0.738459 0
M  V30 11810 O 1122.71 1.93824 0.270295 0
M  V30 11811 C 1123.01 1.61338 -3.18912 0
M  V30 11812 C 1122.67 0.786637 -4.43985 0
M  V30 11813 C 1121.33 0.558645 -4.77946 0
M  V30 11814 C 1123.69 0.210281 -5.20776 0
M  V30 11815 C 1121.01 -0.255975 -5.86141 0
M  V30 11816 C 1123.37 -0.591523 -6.29828 0
M  V30 11817 C 1122.03 -0.829843 -6.62322 0
M  V30 11818 H 1121.3 0.303068 -0.676188 0
M  V30 11819 H 1123.95 0.0906538 -1.91285 0
M  V30 11820 H 1122.25 2.42182 -3.07986 0
M  V30 11821 H 1123.95 2.16513 -3.37525 0
M  V30 11822 H 1120.54 0.974426 -4.17376 0
M  V30 11823 H 1124.72 0.373641 -4.94892 0
M  V30 11824 H 1119.98 -0.449849 -6.09743 0
M  V30 11825 H 1124.15 -1.04512 -6.88513 0
M  V30 11826 H 1121.78 -1.4629 -7.45992 0
M  V30 11827 N 1123.36 1.52689 0.390367 0
M  V30 11828 C 1124.3 1.7737 1.47677 0
M  V30 11829 C 1125.27 0.616864 1.54221 0
M  V30 11830 O 1126.46 0.856437 1.70499 0
M  V30 11831 C 1123.6 1.94715 2.84921 0
M  V30 11832 C 1122.71 3.22405 2.8754 0
M  V30 11833 C 1121.85 3.30074 4.16202 0
M  V30 11834 C 1120.89 4.51893 4.12867 0
M  V30 11835 N 1120.02 4.56851 5.33134 0
M  V30 11836 H 1124.86 2.70084 1.25932 0
M  V30 11837 H 1122.4 1.33813 0.610943 0
M  V30 11838 H 1124.36 2.02755 3.64618 0
M  V30 11839 H 1122.99 1.05363 3.0512 0
M  V30 11840 H 1122.04 3.23442 2.00223 0
M  V30 11841 H 1123.35 4.12156 2.80943 0
M  V30 11842 H 1122.51 3.3729 5.04302 0
M  V30 11843 H 1121.24 2.38295 4.25519 0
M  V30 11844 H 1120.25 4.44803 3.23156 0
M  V30 11845 H 1121.47 5.44987 4.05174 0
M  V30 11846 H 1119.42 3.67963 5.43083 0
M  V30 11847 H 1119.34 5.40472 5.28607 0
M  V30 11848 H 1120.61 4.6832 6.23134 0
M  V30 11849 N 1124.83 -0.648732 1.43629 0
M  V30 11850 C 1126.11 -1.4062 1.35961 0
M  V30 11851 C 1126.49 -2.11098 0.00961023 0
M  V30 11852 O 1125.84 -2.05107 -1.00714 0
M  V30 11853 C 1126.05 -2.38719 2.54586 0
M  V30 11854 C 1127.4 -3.02584 2.97873 0
M  V30 11855 O 1128.42 -2.49046 2.54665 0
M  V30 11856 O 1127.28 -3.99662 3.72736 0
M  V30 11857 H 1124.37 -0.628483 0.53753 0
M  V30 11858 H 1126.92 -0.675263 1.55687 0
M  V30 11859 H 1125.69 -1.85619 3.44472 0
M  V30 11860 H 1125.32 -3.19257 2.36983 0
M  V30 11861 N 1126.31 -1.30234 -0.887518 0
M  V30 11862 C 1127.26 -1.16302 -2.01436 0
M  V30 11863 C 1128.25 -0.0755422 -1.69231 0
M  V30 11864 O 1129.46 -0.236213 -1.78443 0
M  V30 11865 H 1125.84 -0.35961 -0.660443 0
M  V30 11866 H 1127.81 -2.11677 -2.10322 0
M  V30 11867 C 1126.56 -0.869009 -3.36665 0
M  V30 11868 H 1125.88 -1.69787 -3.61956 0
M  V30 11869 H 1127.32 -0.811621 -4.16159 0
M  V30 11870 C 1125.78 0.428021 -3.3417 0
M  V30 11871 O 1126.31 1.45033 -3.74604 0
M  V30 11872 N 1124.51 0.438264 -2.87276 0
M  V30 11873 H 1124.06 -0.394142 -2.54567 0
M  V30 11874 H 1124.02 1.30604 -2.85989 0
M  V30 11875 N 1127.79 1.09952 -1.12909 0
M  V30 11876 C 1129.2 1.63516 -0.901087 0
M  V30 11877 C 1129.55 1.87932 0.563547 0
M  V30 11878 O 1128.68 1.625 1.42908 0
M  V30 11879 C 1129.27 2.97054 -1.62924 0
M  V30 11880 C 1127.83 3.47464 -1.44725 0
M  V30 11881 C 1126.98 2.21979 -1.66194 0
M  V30 11882 H 1129.93 0.933858 -1.28315 0
M  V30 11883 H 1129.95 3.64757 -1.08318 0
M  V30 11884 H 1129.46 2.79251 -2.69519 0
M  V30 11885 H 1127.56 3.70402 -0.40409 0
M  V30 11886 H 1127.68 4.25254 -2.20671 0
M  V30 11887 H 1126.04 2.30368 -1.0864 0
M  V30 11888 H 1126.82 2.06702 -2.74097 0
M  V30 11889 N 1129.27 0.921757 1.27833 0
M  V30 11890 C 1130.51 0.559906 1.94918 0
M  V30 11891 C 1130.85 -0.895532 1.72319 0
M  V30 11892 O 1130.12 -1.638 1.04879 0
M  V30 11893 C 1130.41 0.879458 3.49196 0
M  V30 11894 C 1130.26 2.38821 3.81162 0
M  V30 11895 C 1131.58 0.381183 4.38446 0
M  V30 11896 H 1128.7 0.204893 0.707946 0
M  V30 11897 H 1131.34 1.15246 1.51058 0
M  V30 11898 H 1129.49 0.375177 3.86684 0
M  V30 11899 H 1131.16 2.96373 3.53498 0
M  V30 11900 H 1129.4 2.83988 3.27923 0
M  V30 11901 H 1130.07 2.56234 4.88926 0
M  V30 11902 H 1132.55 0.813289 4.08075 0
M  V30 11903 H 1131.43 0.633778 5.45229 0
M  V30 11904 H 1131.69 -0.718651 4.3622 0
M  V30 11905 N 1130.75 -1.41857 0.686609 0
M  V30 11906 C 1131.97 -2.06219 0.221037 0
M  V30 11907 C 1132.4 -1.51298 -1.11762 0
M  V30 11908 O 1131.75 -0.636253 -1.69769 0
M  V30 11909 C 1131.8 -3.60153 0.179425 0
M  V30 11910 O 1130.91 -4.03577 -0.848481 0
M  V30 11911 H 1130.25 -0.654787 0.110228 0
M  V30 11912 H 1132.78 -1.81783 0.938948 0
M  V30 11913 H 1132.79 -4.07999 0.00725332 0
M  V30 11914 H 1131.46 -3.99498 1.15647 0
M  V30 11915 H 1130.04 -3.67255 -0.646393 0
M  V30 11916 N 1132.22 -0.430739 -1.51599 0
M  V30 11917 C 1133.45 0.136797 -2.06447 0
M  V30 11918 C 1133.87 1.37027 -1.29881 0
M  V30 11919 O 1133.22 1.78983 -0.356543 0
M  V30 11920 C 1133.28 0.465637 -3.58489 0
M  V30 11921 O 1133 -0.718873 -4.32162 0
M  V30 11922 C 1134.5 1.08456 -4.29828 0
M  V30 11923 H 1131.72 0.0108468 -0.670912 0
M  V30 11924 H 1134.26 -0.607921 -1.95255 0
M  V30 11925 H 1132.42 1.16025 -3.69617 0
M  V30 11926 H 1132.83 -0.439195 -5.22658 0
M  V30 11927 H 1134.3 1.2647 -5.37317 0
M  V30 11928 H 1134.78 2.06376 -3.87693 0
M  V30 11929 H 1135.39 0.429525 -4.23125 0
M  V30 11930 N 1133.7 1.56767 -0.161869 0
M  V30 11931 C 1135.11 1.83265 0.356466 0
M  V30 11932 C 1135.46 1.08127 1.63716 0
M  V30 11933 O 1134.59 0.33127 2.13849 0
M  V30 11934 C 1135.18 3.32437 0.653521 0
M  V30 11935 C 1133.74 3.59465 1.11633 0
M  V30 11936 C 1132.89 2.76909 0.147204 0
M  V30 11937 H 1135.84 1.53926 -0.386308 0
M  V30 11938 H 1135.86 3.49401 1.50662 0
M  V30 11939 H 1135.37 3.87098 -0.278766 0
M  V30 11940 H 1133.48 3.10206 2.06404 0
M  V30 11941 H 1133.59 4.67853 1.03202 0
M  V30 11942 H 1131.95 2.46457 0.642739 0
M  V30 11943 H 1132.74 3.34346 -0.778938 0
M  V30 11944 N 1135.18 -0.111886 1.57202 0
M  V30 11945 C 1136.13 -1.13688 2.00858 0
M  V30 11946 C 1137.1 -1.40752 0.881939 0
M  V30 11947 O 1138.28 -1.52498 1.14669 0
M  V30 11948 C 1135.42 -2.45641 2.42393 0
M  V30 11949 C 1134.54 -2.25452 3.68504 0
M  V30 11950 C 1133.67 -3.50686 3.9899 0
M  V30 11951 C 1132.71 -3.25685 5.18262 0
M  V30 11952 N 1131.85 -4.4314 5.44583 0
M  V30 11953 H 1136.69 -0.757611 2.88209 0
M  V30 11954 H 1134.22 -0.362582 1.42561 0
M  V30 11955 H 1136.18 -3.22627 2.64514 0
M  V30 11956 H 1134.81 -2.81447 1.58074 0
M  V30 11957 H 1133.86 -1.39349 3.53958 0
M  V30 11958 H 1135.18 -2.0296 4.55641 0
M  V30 11959 H 1134.33 -4.36087 4.21797 0
M  V30 11960 H 1133.07 -3.76216 3.10343 0
M  V30 11961 H 1132.07 -2.38675 4.95292 0
M  V30 11962 H 1133.3 -3.01518 6.08493 0
M  V30 11963 H 1131.24 -4.68778 4.58893 0
M  V30 11964 H 1131.16 -4.23778 6.26058 0
M  V30 11965 H 1132.43 -5.29654 5.71915 0
M  V30 11966 N 1136.66 -1.52894 -0.382264 0
M  V30 11967 C 1137.94 -1.58853 -1.14127 0
M  V30 11968 C 1138.32 -0.38582 -2.07544 0
M  V30 11969 O 1137.66 0.625323 -2.19777 0
M  V30 11970 C 1137.87 -2.93068 -1.89504 0
M  V30 11971 C 1139.22 -3.47048 -2.44629 0
M  V30 11972 O 1140.25 -2.94987 -1.99652 0
M  V30 11973 O 1139.1 -4.3802 -3.26804 0
M  V30 11974 H 1136.2 -0.640969 -0.522578 0
M  V30 11975 H 1138.74 -1.65231 -0.386873 0
M  V30 11976 H 1137.52 -3.72047 -1.2123 0
M  V30 11977 H 1137.14 -2.90106 -2.7189 0
M  V30 11978 N 1138.14 0.641106 -1.43971 0
M  V30 11979 C 1139.36 1.43324 -1.4991 0
M  V30 11980 C 1139.79 1.87705 -0.121908 0
M  V30 11981 O 1139.15 1.58127 0.886875 0
M  V30 11982 C 1139.19 2.63637 -2.46025 0
M  V30 11983 O 1138.3 3.63123 -1.95488 0
M  V30 11984 H 1137.64 0.429252 -0.506595 0
M  V30 11985 H 1140.17 0.783427 -1.89007 0
M  V30 11986 H 1140.18 3.11304 -2.63731 0
M  V30 11987 H 1138.85 2.30678 -3.46064 0
M  V30 11988 H 1137.43 3.22332 -1.87501 0
M  V30 11989 N 1139.62 1.30703 0.880598 0
M  V30 11990 C 1140.56 1.17369 2.00817 0
M  V30 11991 C 1141.56 0.0845159 1.69189 0
M  V30 11992 O 1142.76 0.245673 1.78316 0
M  V30 11993 H 1139.14 0.363107 0.658527 0
M  V30 11994 H 1141.11 2.12789 2.09197 0
M  V30 11995 C 1139.86 0.886851 3.362 0
M  V30 11996 H 1139.18 1.71704 3.61051 0
M  V30 11997 H 1140.62 0.83368 4.15723 0
M  V30 11998 C 1139.08 -0.410293 3.34392 0
M  V30 11999 O 1139.61 -1.43044 3.75368 0
M  V30 12000 N 1137.82 -0.423023 2.87505 0
M  V30 12001 H 1137.36 0.407637 2.54354 0
M  V30 12002 H 1137.32 -1.29086 2.86678 0
M  V30 12003 N 1141.09 -1.09351 1.1349 0
M  V30 12004 C 1142.5 -1.63035 0.909746 0
M  V30 12005 C 1142.86 -1.88229 -0.553573 0
M  V30 12006 O 1141.98 -1.63256 -1.42044 0
M  V30 12007 C 1142.58 -2.96186 1.64497 0
M  V30 12008 C 1141.13 -3.46692 1.46566 0
M  V30 12009 C 1140.28 -2.21095 1.67369 0
M  V30 12010 H 1143.23 -0.92704 1.28809 0
M  V30 12011 H 1143.25 -3.64177 1.10251 0
M  V30 12012 H 1142.77 -2.77818 2.70996 0
M  V30 12013 H 1140.87 -3.70183 0.423728 0
M  V30 12014 H 1140.98 -4.24078 2.22923 0
M  V30 12015 H 1139.34 -2.29789 1.0986 0
M  V30 12016 H 1140.13 -2.05245 2.7519 0
M  V30 12017 N 1142.57 -0.928524 -1.27343 0
M  V30 12018 C 1143.52 -0.426873 -2.26818 0
M  V30 12019 C 1144.49 0.506663 -1.58184 0
M  V30 12020 O 1145.67 0.425641 -1.85992 0
M  V30 12021 C 1142.81 0.313523 -3.43673 0
M  V30 12022 C 1141.93 -0.65422 -4.27018 0
M  V30 12023 C 1141.06 0.106102 -5.31094 0
M  V30 12024 C 1140.1 -0.854293 -6.06109 0
M  V30 12025 N 1139.24 -0.126545 -7.01986 0
M  V30 12026 H 1144.08 -1.28014 -2.69103 0
M  V30 12027 H 1141.61 -0.642515 -1.32326 0
M  V30 12028 H 1143.57 0.75912 -4.10236 0
M  V30 12029 H 1142.2 1.13102 -3.02337 0
M  V30 12030 H 1141.25 -1.21834 -3.60362 0
M  V30 12031 H 1142.57 -1.38817 -4.79094 0
M  V30 12032 H 1141.72 0.611577 -6.0361 0
M  V30 12033 H 1140.46 0.873009 -4.79823 0
M  V30 12034 H 1139.46 -1.37101 -5.32432 0
M  V30 12035 H 1140.69 -1.621 -6.5947 0
M  V30 12036 H 1138.64 0.622102 -6.53044 0
M  V30 12037 H 1138.55 -0.800046 -7.51755 0
M  V30 12038 H 1139.82 0.358251 -7.78676 0
M  V30 12039 N 1144.05 1.41491 -0.694123 0
M  V30 12040 C 1145.01 2.2917 -0.0368562 0
M  V30 12041 C 1146.01 1.44305 0.709426 0
M  V30 12042 O 1147.2 1.6547 0.544533 0
M  V30 12043 C 1144.33 3.27156 0.958201 0
M  V30 12044 H 1145.53 2.88787 -0.808829 0
M  V30 12045 H 1143.08 1.49453 -0.457538 0
M  V30 12046 H 1143.82 2.72516 1.75799 0
M  V30 12047 H 1143.6 3.89776 0.426227 0
M  V30 12048 H 1145.09 3.92863 1.41592 0
M  V30 12049 O 1145.57 0.580812 1.50694 0
M  V30 12050 H 1146.26 0.0849632 1.93514 0
M  V30 END ATOM
M  V30 BEGIN BOND
M  V30 END BOND
M  V30 END CTAB
M  END
$$$$
