drugbank_target|Q9UKY3 Putative inactive carboxylesterase 4 (DB08612)
 OpenBabel12092120513D

  0  0  0     0  0            999 V3000
M  V30 BEGIN CTAB
M  V30 COUNTS 4376 4437 0 0 0
M  V30 BEGIN ATOM
M  V30 1 H -0.908 1.98254 -0.117106 0
M  V30 2 N 0 1.576 0 0
M  V30 3 C 0.933 2.03868 1.02534 0
M  V30 4 C 1.911 0.928543 1.3348 0
M  V30 5 O 3.095 1.19667 1.45644 0
M  V30 6 C 0.222 2.43627 2.35294 0
M  V30 7 C -0.732 3.65373 2.2001 0
M  V30 8 S 0.101 5.13292 1.52614 0
M  V30 9 C 1.257 5.56322 2.86805 0
M  V30 10 H 1.49 2.90518 0.631377 0
M  V30 11 H -0.977 1.52953 0.210867 0
M  V30 12 H 0.981 2.67203 3.11629 0
M  V30 13 H -0.358 1.57376 2.7183 0
M  V30 14 H -1.165 3.90944 3.18086 0
M  V30 15 H -1.563 3.418 1.51819 0
M  V30 16 H 0.729 5.58782 3.83104 0
M  V30 17 H 1.672 6.56266 2.65933 0
M  V30 18 H 2.08 4.83886 2.90714 0
M  V30 19 N 1.4781 -0.272755 1.55222 0
M  V30 20 C 2.7241 -1.00172 1.77023 0
M  V30 21 C 3.0791 -1.83928 0.564633 0
M  V30 22 O 2.3721 -1.86416 -0.442674 0
M  V30 23 C 2.5661 -1.91642 3.01675 0
M  V30 24 C 2.3951 -1.16888 4.34243 0
M  V30 25 C 1.1651 -0.884464 4.97499 0
M  V30 26 C 3.3631 -0.55919 5.11251 0
M  V30 27 N 1.3451 -0.11015 6.13801 0
M  V30 28 C 2.7161 0.0809469 6.19947 0
M  V30 29 C 4.7711 -0.467058 4.95705 0
M  V30 30 C 3.4741 0.804335 7.14789 0
M  V30 31 C 5.5001 0.242739 5.90902 0
M  V30 32 C 4.8621 0.871613 6.98987 0
M  V30 33 H 0.9611 -0.348529 0.700037 0
M  V30 34 H 3.5451 -0.277365 1.92714 0
M  V30 35 H 1.7161 -2.61303 2.87359 0
M  V30 36 H 3.4481 -2.57901 3.1188 0
M  V30 37 H 0.2031 -1.18979 4.58411 0
M  V30 38 H 0.6271 0.264344 6.76484 0
M  V30 39 H 5.2691 -0.93894 4.12242 0
M  V30 40 H 2.9871 1.2879 7.97771 0
M  V30 41 H 6.5731 0.314347 5.8095 0
M  V30 42 H 5.4531 1.4121 7.71381 0
M  V30 43 N 2.9562 -1.48159 -0.537278 0
M  V30 44 C 3.8862 -1.65029 -1.6519 0
M  V30 45 C 4.8672 -0.499281 -1.62607 0
M  V30 46 O 6.0522 -0.730972 -1.79918 0
M  V30 47 C 3.1822 -1.68303 -3.03795 0
M  V30 48 C 2.1362 -2.8283 -3.21234 0
M  V30 49 C 1.4622 -2.71189 -4.60826 0
M  V30 50 C 2.7622 -4.24211 -3.04701 0
M  V30 51 H 4.4562 -2.58341 -1.51328 0
M  V30 52 H 2.0022 -1.24325 -0.726585 0
M  V30 53 H 3.9552 -1.78693 -3.81637 0
M  V30 54 H 2.6792 -0.715635 -3.18663 0
M  V30 55 H 1.3382 -2.71983 -2.45807 0
M  V30 56 H 0.9862 -1.72435 -4.7252 0
M  V30 57 H 0.6862 -3.48035 -4.7344 0
M  V30 58 H 2.2102 -2.83537 -5.40777 0
M  V30 59 H 3.6242 -4.3593 -3.72341 0
M  V30 60 H 2.0212 -5.01998 -3.28813 0
M  V30 61 H 3.0912 -4.41184 -2.01209 0
M  V30 62 N 4.4343 0.785586 -1.36625 0
M  V30 63 C 5.8453 1.36101 -1.27803 0
M  V30 64 C 6.1963 1.96035 0.0804875 0
M  V30 65 O 5.3213 1.92834 0.982042 0
M  V30 66 C 5.9163 2.47442 -2.31426 0
M  V30 67 C 4.4753 3.00789 -2.26281 0
M  V30 68 C 3.6223 1.73896 -2.15999 0
M  V30 69 H 6.5733 0.586928 -1.47448 0
M  V30 70 H 6.5943 3.2656 -1.95291 0
M  V30 71 H 6.1063 2.03791 -3.30289 0
M  V30 72 H 4.2073 3.48851 -1.30896 0
M  V30 73 H 4.3203 3.57343 -3.19128 0
M  V30 74 H 2.6843 1.9628 -1.62316 0
M  V30 75 H 3.4673 1.32368 -3.16755 0
M  V30 76 N 5.9124 1.20967 1.01018 0
M  V30 77 C 6.8754 0.965918 2.07853 0
M  V30 78 C 7.8754 -0.0610545 1.60684 0
M  V30 79 O 9.0654 0.175681 1.73312 0
M  V30 80 C 6.1974 0.455513 3.37843 0
M  V30 81 H 7.3904 1.91365 2.3091 0
M  V30 82 H 4.9434 1.02594 1.17916 0
M  V30 83 H 5.6784 -0.497381 3.20463 0
M  V30 84 H 5.4634 1.19622 3.73407 0
M  V30 85 H 6.9534 0.304667 4.16487 0
M  V30 86 N 7.3905 -1.2043 1.01659 0
M  V30 87 C 8.3205 -2.25466 0.607226 0
M  V30 88 C 9.3015 -1.65853 -0.377716 0
M  V30 89 O 10.4865 -1.92409 -0.263149 0
M  V30 90 C 7.6165 -3.47256 -0.0552949 0
M  V30 91 C 6.5705 -4.19462 0.850632 0
M  V30 92 C 5.8965 -5.34673 0.0538859 0
M  V30 93 C 7.1965 -4.75603 2.15868 0
M  V30 94 H 8.8905 -2.59962 1.48526 0
M  V30 95 H 6.4365 -1.2496 0.715605 0
M  V30 96 H 8.3895 -4.19917 -0.353233 0
M  V30 97 H 7.1135 -3.11924 -0.968045 0
M  V30 98 H 5.7725 -3.48667 1.13257 0
M  V30 99 H 5.4205 -4.95585 -0.860514 0
M  V30 100 H 5.1205 -5.83913 0.657192 0
M  V30 101 H 6.6445 -6.10138 -0.237598 0
M  V30 102 H 8.0585 -5.40083 1.92311 0
M  V30 103 H 6.4555 -5.3528 2.71284 0
M  V30 104 H 7.5255 -3.94346 2.82169 0
M  V30 105 N 8.8686 -0.792821 -1.36206 0
M  V30 106 C 10.1146 -0.36733 -1.99446 0
M  V30 107 C 10.4476 1.05917 -1.62774 0
M  V30 108 O 9.7226 1.7324 -0.88421 0
M  V30 109 C 10.0056 -0.535044 -3.56103 0
M  V30 110 C 9.8586 -2.00548 -4.02617 0
M  V30 111 C 11.1776 0.0478191 -4.40074 0
M  V30 112 H 8.2966 -0.134941 -0.724541 0
M  V30 113 H 10.9386 -0.999794 -1.61568 0
M  V30 114 H 9.0886 0.00336329 -3.885 0
M  V30 115 H 10.7606 -2.60521 -3.80692 0
M  V30 116 H 9.0036 -2.50686 -3.54032 0
M  V30 117 H 9.6746 -2.07377 -5.11565 0
M  V30 118 H 12.1506 -0.411822 -4.14057 0
M  V30 119 H 11.0266 -0.0995336 -5.4881 0
M  V30 120 H 11.2876 1.14025 -4.27142 0
M  V30 121 N 10.3467 1.47872 -0.545128 0
M  V30 122 C 11.2767 2.32661 0.197793 0
M  V30 123 C 12.2577 1.43041 0.920504 0
M  V30 124 O 13.4427 1.71912 0.90333 0
M  V30 125 C 10.5727 3.24569 1.23582 0
M  V30 126 C 9.5267 4.23333 0.630323 0
M  V30 127 C 8.8527 5.0448 1.77211 0
M  V30 128 C 10.1527 5.20704 -0.407974 0
M  V30 129 H 11.8467 2.95024 -0.510045 0
M  V30 130 H 9.3927 1.4187 -0.246731 0
M  V30 131 H 11.3457 3.8272 1.76362 0
M  V30 132 H 10.0697 2.60236 1.97344 0
M  V30 133 H 8.7287 3.6639 0.123922 0
M  V30 134 H 8.3767 4.36561 2.49847 0
M  V30 135 H 8.0767 5.71339 1.37281 0
M  V30 136 H 9.6007 5.65487 2.3034 0
M  V30 137 H 11.0147 5.7329 0.033305 0
M  V30 138 H 9.4117 5.95699 -0.725486 0
M  V30 139 H 10.4817 4.66917 -1.30828 0
M  V30 140 N 11.8248 0.280983 1.55075 0
M  V30 141 C 12.7878 -0.590896 2.21452 0
M  V30 142 C 13.7878 -1.07682 1.19421 0
M  V30 143 O 14.9778 -0.97605 1.44288 0
M  V30 144 C 12.1098 -1.81587 2.88511 0
M  V30 145 H 13.3028 -0.0112554 2.99898 0
M  V30 146 H 10.8558 0.0316438 1.56268 0
M  V30 147 H 11.5908 -2.43587 2.14093 0
M  V30 148 H 11.3758 -1.4753 3.63287 0
M  V30 149 H 12.8658 -2.43575 3.39206 0
M  V30 150 N 13.3029 -1.57598 0.00835791 0
M  V30 151 C 14.5309 -1.95214 -0.68549 0
M  V30 152 C 14.9459 -0.883706 -1.66841 0
M  V30 153 O 14.3029 0.136565 -1.81988 0
M  V30 154 C 14.3539 -3.32865 -1.41007 0
M  V30 155 O 14.0749 -4.35609 -0.466552 0
M  V30 156 C 15.5759 -3.84991 -2.19765 0
M  V30 157 H 12.7959 -0.643422 -0.190392 0
M  V30 158 H 15.3399 -2.04406 0.0619607 0
M  V30 159 H 13.4949 -3.24956 -2.10908 0
M  V30 160 H 13.9089 -5.15288 -0.978699 0
M  V30 161 H 15.3829 -4.8371 -2.65948 0
M  V30 162 H 15.8599 -3.18137 -3.02796 0
M  V30 163 H 16.4659 -3.96103 -1.54864 0
M  V30 164 N 14.781 0.264519 -1.55364 0
M  V30 165 C 15.711 1.33121 -1.91836 0
M  V30 166 C 16.692 1.51101 -0.781192 0
M  V30 167 O 17.877 1.64003 -1.04003 0
M  V30 168 C 15.007 2.68921 -2.19769 0
M  V30 169 C 13.961 2.65661 -3.35571 0
M  V30 170 C 13.287 4.05093 -3.49004 0
M  V30 171 C 14.587 2.24187 -4.71739 0
M  V30 172 H 16.281 1.02844 -2.81182 0
M  V30 173 H 13.827 0.493286 -1.35287 0
M  V30 174 H 15.78 3.43663 -2.43872 0
M  V30 175 H 14.504 3.00799 -1.27231 0
M  V30 176 H 13.163 1.93377 -3.1145 0
M  V30 177 H 12.811 4.34206 -2.53917 0
M  V30 178 H 12.511 4.03804 -4.26868 0
M  V30 179 H 14.035 4.81561 -3.75408 0
M  V30 180 H 15.449 2.88654 -4.9533 0
M  V30 181 H 13.846 2.34044 -5.52579 0
M  V30 182 H 14.916 1.19327 -4.69988 0
M  V30 183 N 16.2591 1.48442 0.529413 0
M  V30 184 C 17.2221 1.62524 1.61612 0
M  V30 185 C 18.2221 0.498509 1.52877 0
M  V30 186 O 19.4121 0.76431 1.56537 0
M  V30 187 C 16.5441 1.59597 3.01233 0
M  V30 188 H 17.7371 2.59423 1.50465 0
M  V30 189 H 15.2901 1.37047 0.751514 0
M  V30 190 H 16.0251 0.641781 3.17886 0
M  V30 191 H 15.8101 2.41397 3.08982 0
M  V30 192 H 17.3001 1.72646 3.80241 0
M  V30 193 N 17.7372 -0.778329 1.37039 0
M  V30 194 C 18.7002 -1.87301 1.32102 0
M  V30 195 C 19.7002 -1.59198 0.226405 0
M  V30 196 O 20.8902 -1.67403 0.481861 0
M  V30 197 C 18.0222 -3.24309 1.05055 0
M  V30 198 H 19.2152 -1.93093 2.29467 0
M  V30 199 H 16.7682 -0.977358 1.21973 0
M  V30 200 H 17.5032 -3.24196 0.0819373 0
M  V30 201 H 17.2882 -3.46098 1.84279 0
M  V30 202 H 18.7782 -4.04382 1.04234 0
M  V30 203 N 19.2153 -1.21501 -1.00376 0
M  V30 204 C 20.4403 -1.05977 -1.78279 0
M  V30 205 C 20.8653 0.385994 -1.84097 0
M  V30 206 O 20.2233 1.27849 -1.28547 0
M  V30 207 C 20.2713 -1.66302 -3.19963 0
M  V30 208 O 19.3753 -0.909333 -4.0225 0
M  V30 209 H 18.7163 -0.372906 -0.549397 0
M  V30 210 H 21.2463 -1.6107 -1.26165 0
M  V30 211 H 21.2563 -1.70574 -3.70632 0
M  V30 212 H 19.9313 -2.71515 -3.15043 0
M  V30 213 H 18.5083 -0.941795 -3.60811 0
M  V30 214 N 20.6934 1.19889 -1.02296 0
M  V30 215 C 21.6564 2.21116 -0.603351 0
M  V30 216 C 22.6564 1.5738 0.329884 0
M  V30 217 O 23.8464 1.73802 0.117702 0
M  V30 218 C 20.9784 3.40696 0.117992 0
M  V30 219 H 22.1714 2.59754 -1.49893 0
M  V30 220 H 19.7244 1.33463 -0.813468 0
M  V30 221 H 20.4594 3.07569 1.0282 0
M  V30 222 H 20.2444 3.88188 -0.552511 0
M  V30 223 H 21.7344 4.15692 0.398696 0
M  V30 224 N 22.1715 0.800033 1.35784 0
M  V30 225 C 23.1345 0.211565 2.28221 0
M  V30 226 C 24.1345 -0.59728 1.49296 0
M  V30 227 O 25.3245 -0.416721 1.69142 0
M  V30 228 C 22.4565 -0.705846 3.33513 0
M  V30 229 H 23.6495 1.02677 2.81776 0
M  V30 230 H 21.2025 0.570211 1.45528 0
M  V30 231 H 21.9375 -1.54498 2.85133 0
M  V30 232 H 21.7225 -0.127655 3.91892 0
M  V30 233 H 23.2125 -1.11211 4.02519 0
M  V30 234 N 23.6496 -1.47581 0.552962 0
M  V30 235 C 24.8956 -2.03369 0.0355807 0
M  V30 236 C 25.2506 -1.42016 -1.29805 0
M  V30 237 O 24.5436 -0.564917 -1.83083 0
M  V30 238 C 24.7376 -3.57199 -0.119728 0
M  V30 239 C 24.5666 -4.33468 1.1973 0
M  V30 240 C 23.3366 -4.7353 1.76345 0
M  V30 241 C 25.5346 -4.68866 2.11351 0
M  V30 242 N 23.5166 -5.34426 3.02097 0
M  V30 243 C 24.8876 -5.3002 3.21681 0
M  V30 244 C 26.9426 -4.50795 2.11397 0
M  V30 245 C 25.6456 -5.75011 4.32151 0
M  V30 246 C 27.6716 -4.96782 3.20876 0
M  V30 247 C 27.0336 -5.57981 4.29926 0
M  V30 248 H 23.1326 -0.780058 0.0550806 0
M  V30 249 H 25.7166 -1.80117 0.739315 0
M  V30 250 H 23.8876 -3.80227 -0.792579 0
M  V30 251 H 25.6196 -3.99627 -0.638792 0
M  V30 252 H 22.3746 -4.55352 1.30196 0
M  V30 253 H 22.7986 -5.69421 3.66182 0
M  V30 254 H 27.4406 -4.0284 1.28372 0
M  V30 255 H 25.1586 -6.21959 5.15938 0
M  V30 256 H 28.7446 -4.84573 3.21994 0
M  V30 257 H 27.6246 -5.92918 5.13243 0
M  V30 258 N 25.1277 -0.289203 -1.54924 0
M  V30 259 C 26.0907 0.579144 -2.21762 0
M  V30 260 C 27.0907 1.07047 -1.1999 0
M  V30 261 O 28.2807 0.968384 -1.44803 0
M  V30 262 C 25.4127 1.80055 -2.8947 0
M  V30 263 H 26.6057 -0.00464908 -2.999 0
M  V30 264 H 24.1587 -0.0399306 -1.56249 0
M  V30 265 H 24.8937 2.42449 -2.15381 0
M  V30 266 H 24.6787 1.45602 -3.64064 0
M  V30 267 H 26.1687 2.41773 -3.40493 0
M  V30 268 N 26.6058 1.57591 -0.0167156 0
M  V30 269 C 27.8538 1.90906 0.663285 0
M  V30 270 C 28.1748 0.892509 1.73376 0
M  V30 271 O 27.4448 -0.0677623 1.95783 0
M  V30 272 H 26.0248 0.704637 0.247983 0
M  V30 273 H 28.6868 1.94803 -0.0615909 0
M  V30 274 H 27.7828 2.9116 1.12393 0
M  V30 275 N 28.0839 -0.256276 1.55502 0
M  V30 276 C 29.0339 -1.31981 1.85916 0
M  V30 277 C 30.0179 -1.43927 0.719296 0
M  V30 278 O 31.2099 -1.47326 0.981019 0
M  V30 279 C 28.3389 -2.67703 2.14918 0
M  V30 280 C 27.4249 -2.59801 3.35208 0
M  V30 281 N 27.8159 -2.21524 4.54709 0
M  V30 282 C 26.1139 -2.90832 3.38131 0
M  V30 283 C 26.8149 -2.24024 5.36832 0
M  V30 284 N 25.7909 -2.63158 4.75656 0
M  V30 285 H 29.5929 -1.01423 2.75845 0
M  V30 286 H 27.1069 -0.464911 1.55603 0
M  V30 287 H 29.1039 -3.44445 2.34869 0
M  V30 288 H 27.7639 -2.99137 1.26282 0
M  V30 289 H 28.7749 -1.93223 4.80505 0
M  V30 290 H 25.4519 -3.26867 2.59739 0
M  V30 291 H 26.8419 -1.9685 6.42417 0
M  V30 292 N 29.562 -1.4872 -0.521534 0
M  V30 293 C 30.492 -1.66771 -1.63431 0
M  V30 294 C 31.473 -0.516499 -1.62069 0
M  V30 295 O 32.658 -0.750013 -1.79132 0
M  V30 296 C 29.788 -1.71515 -3.01993 0
M  V30 297 C 28.742 -2.86222 -3.18216 0
M  V30 298 C 28.068 -2.76061 -4.57924 0
M  V30 299 C 29.368 -4.27419 -3.00184 0
M  V30 300 H 31.062 -2.59932 -1.48579 0
M  V30 301 H 28.608 -1.25089 -0.713358 0
M  V30 302 H 30.561 -1.82731 -3.7972 0
M  V30 303 H 29.285 -0.749393 -3.17886 0
M  V30 304 H 27.944 -2.74575 -2.42908 0
M  V30 305 H 27.592 -1.77437 -4.70665 0
M  V30 306 H 27.292 -3.53037 -4.69722 0
M  V30 307 H 28.816 -2.89256 -5.37739 0
M  V30 308 H 30.23 -4.39855 -3.67697 0
M  V30 309 H 28.627 -5.05458 -3.2347 0
M  V30 310 H 29.697 -4.43293 -1.96518 0
M  V30 311 N 31.0401 0.771051 -1.3745 0
M  V30 312 C 32.2651 1.56529 -1.36065 0
M  V30 313 C 32.6901 1.88029 0.0515859 0
M  V30 314 O 32.0481 1.49282 1.02882 0
M  V30 315 C 32.0961 2.85187 -2.20683 0
M  V30 316 O 31.2001 3.79593 -1.61193 0
M  V30 317 H 30.5411 0.47411 -0.464883 0
M  V30 318 H 33.0711 0.954269 -1.80983 0
M  V30 319 H 33.0811 3.34283 -2.33921 0
M  V30 320 H 31.7561 2.61588 -3.23334 0
M  V30 321 H 30.3331 3.38239 -1.56999 0
M  V30 322 N 32.5182 1.22032 0.997298 0
M  V30 323 C 33.7432 1.06921 1.77715 0
M  V30 324 C 34.1682 -0.376226 1.84299 0
M  V30 325 O 33.5262 -1.27165 1.29223 0
M  V30 326 C 33.5742 1.67996 3.19076 0
M  V30 327 O 32.6782 0.930653 4.01762 0
M  V30 328 H 32.0192 0.375814 0.547412 0
M  V30 329 H 34.5492 1.61737 1.25309 0
M  V30 330 H 34.5592 1.72538 3.69723 0
M  V30 331 H 33.2342 2.73182 3.13599 0
M  V30 332 H 31.8112 0.960917 3.60307 0
M  V30 333 N 33.9963 -1.19345 1.0293 0
M  V30 334 C 35.4073 -1.70725 0.755633 0
M  V30 335 C 35.7583 -1.82326 -0.724676 0
M  V30 336 O 34.8833 -1.49471 -1.56484 0
M  V30 337 C 35.4783 -3.10084 1.36503 0
M  V30 338 C 34.0373 -3.58723 1.13994 0
M  V30 339 C 33.1843 -2.35577 1.46283 0
M  V30 340 H 36.1353 -1.0418 1.19718 0
M  V30 341 H 36.1563 -3.72787 0.762217 0
M  V30 342 H 35.6683 -3.01609 2.44241 0
M  V30 343 H 33.7693 -3.72512 0.0807901 0
M  V30 344 H 33.8823 -4.42816 1.82894 0
M  V30 345 H 32.2463 -2.38935 0.88217 0
M  V30 346 H 33.0293 -2.29731 2.55105 0
M  V30 347 N 35.4744 -0.807222 -1.35358 0
M  V30 348 C 36.8854 -0.44876 -1.81226 0
M  V30 349 C 37.2364 1.02929 -1.67033 0
M  V30 350 O 36.3614 1.79991 -1.20133 0
M  V30 351 C 36.9564 -0.807774 -3.2903 0
M  V30 352 C 35.5154 -0.501901 -3.73039 0
M  V30 353 C 34.6624 -1.03304 -2.57339 0
M  V30 354 H 37.6134 -0.998808 -1.23327 0
M  V30 355 H 37.6344 -0.10554 -3.80354 0
M  V30 356 H 37.1464 -1.88357 -3.39328 0
M  V30 357 H 35.2474 0.565128 -3.68289 0
M  V30 358 H 35.3604 -1.03497 -4.67787 0
M  V30 359 H 33.7244 -0.455339 -2.50597 0
M  V30 360 H 34.5074 -2.11496 -2.70415 0
M  V30 361 N 36.9525 1.47285 -0.560781 0
M  V30 362 C 37.8825 2.32857 0.173105 0
M  V30 363 C 38.8635 1.44009 0.905281 0
M  V30 364 O 40.0485 1.7286 0.885046 0
M  V30 365 C 37.1785 3.25861 1.20133 0
M  V30 366 C 36.1325 4.23978 0.585388 0
M  V30 367 C 35.4585 5.06332 1.7185 0
M  V30 368 C 36.7585 5.20242 -0.463178 0
M  V30 369 H 38.4525 2.94466 -0.541307 0
M  V30 370 H 35.9985 1.41601 -0.261764 0
M  V30 371 H 37.9515 3.84569 1.72293 0
M  V30 372 H 36.6755 2.62315 1.94573 0
M  V30 373 H 35.3345 3.66501 0.085054 0
M  V30 374 H 34.9825 4.39186 2.45203 0
M  V30 375 H 34.6825 5.72762 1.31213 0
M  V30 376 H 36.2065 5.67899 2.24329 0
M  V30 377 H 37.6205 5.73293 -0.027502 0
M  V30 378 H 36.0175 5.94896 -0.788627 0
M  V30 379 H 37.0875 4.65504 -1.35773 0
M  V30 380 N 38.4306 0.297415 1.54768 0
M  V30 381 C 39.6766 -0.313376 2.00364 0
M  V30 382 C 40.0096 -1.53815 1.18553 0
M  V30 383 O 39.2846 -1.92739 0.261103 0
M  V30 384 C 39.5676 -0.673525 3.53745 0
M  V30 385 C 39.4206 0.560133 4.46299 0
M  V30 386 C 40.7396 -1.50143 4.13697 0
M  V30 387 H 37.8586 -0.112428 0.728374 0
M  V30 388 H 40.5006 0.4088 1.8555 0
M  V30 389 H 38.6506 -1.28881 3.665 0
M  V30 390 H 40.3226 1.19863 4.45455 0
M  V30 391 H 38.5656 1.19405 4.17043 0
M  V30 392 H 39.2366 0.26405 5.51368 0
M  V30 393 H 41.7126 -0.981588 4.04356 0
M  V30 394 H 40.5886 -1.72221 5.21182 0
M  V30 395 H 40.8496 -2.48952 3.65343 0
M  V30 396 N 39.9087 -1.5758 0.0250728 0
M  V30 397 C 41.1857 -1.82917 -0.692873 0
M  V30 398 C 41.5657 -0.908137 -1.90568 0
M  V30 399 O 40.9137 0.0372298 -2.2847 0
M  V30 400 C 41.1237 -3.32034 -1.07492 0
M  V30 401 C 42.4717 -3.98406 -1.46826 0
M  V30 402 O 43.4957 -3.36505 -1.16801 0
M  V30 403 O 42.3547 -5.07497 -2.02754 0
M  V30 404 H 39.4487 -0.754079 -0.33955 0
M  V30 405 H 41.9947 -1.69619 0.0524456 0
M  V30 406 H 40.7667 -3.90728 -0.211552 0
M  V30 407 H 40.3897 -3.50424 -1.87854 0
M  V30 408 N 41.3868 0.248026 -1.55636 0
M  V30 409 C 42.6148 0.993808 -1.81469 0
M  V30 410 C 43.0298 1.78991 -0.60064 0
M  V30 411 O 42.3868 1.77345 0.430682 0
M  V30 412 C 42.4378 1.93258 -3.05506 0
M  V30 413 O 42.1588 1.16869 -4.22224 0
M  V30 414 C 43.6598 2.79444 -3.4413 0
M  V30 415 H 40.8798 0.292486 -0.603898 0
M  V30 416 H 43.4238 0.271253 -2.02693 0
M  V30 417 H 41.5788 2.60943 -2.86335 0
M  V30 418 H 41.9928 1.80359 -4.92515 0
M  V30 419 H 43.4668 3.41066 -4.34026 0
M  V30 420 H 43.9438 3.50499 -2.64665 0
M  V30 421 H 44.5498 2.17214 -3.65648 0
M  V30 422 N 42.8649 1.48995 0.513639 0
M  V30 423 C 43.7949 1.67636 1.62544 0
M  V30 424 C 44.7759 0.525087 1.61793 0
M  V30 425 O 45.9609 0.759502 1.78732 0
M  V30 426 C 43.0909 1.73114 3.01079 0
M  V30 427 C 42.0449 2.87905 3.16693 0
M  V30 428 C 41.3709 2.78486 4.56453 0
M  V30 429 C 42.6709 4.29005 2.97913 0
M  V30 430 H 44.3649 2.60716 1.47198 0
M  V30 431 H 41.9109 1.25465 0.706714 0
M  V30 432 H 43.8639 1.84742 3.78746 0
M  V30 433 H 42.5879 0.766241 3.17484 0
M  V30 434 H 41.2469 2.75859 2.41448 0
M  V30 435 H 40.8949 1.7993 4.69717 0
M  V30 436 H 40.5949 3.55523 4.67843 0
M  V30 437 H 42.1189 2.92104 5.36197 0
M  V30 438 H 43.5329 4.41798 3.65359 0
M  V30 439 H 41.9299 5.07166 3.20785 0
M  V30 440 H 42.9999 4.44329 1.94165 0
M  V30 441 N 44.343 -0.763751 1.37857 0
M  V30 442 C 45.293 -1.86765 1.30777 0
M  V30 443 C 46.277 -1.59726 0.194015 0
M  V30 444 O 47.469 -1.7172 0.42911 0
M  V30 445 C 44.598 -3.24343 1.12502 0
M  V30 446 C 43.684 -3.57307 2.28456 0
M  V30 447 N 44.075 -3.61398 3.53871 0
M  V30 448 C 42.373 -3.87517 2.20786 0
M  V30 449 C 43.074 -3.91339 4.30382 0
M  V30 450 N 42.05 -4.07649 3.59615 0
M  V30 451 H 45.852 -1.88191 2.25746 0
M  V30 452 H 43.366 -0.9606 1.30944 0
M  V30 453 H 45.363 -4.03327 1.05514 0
M  V30 454 H 44.023 -3.24175 0.184574 0
M  V30 455 H 45.034 -3.43407 3.87675 0
M  V30 456 H 41.711 -3.95125 1.34844 0
M  V30 457 H 43.101 -4.01213 5.3896 0
M  V30 458 N 45.8211 -1.22559 -0.990812 0
M  V30 459 C 47.0691 -1.04933 -1.72724 0
M  V30 460 C 47.3901 0.416158 -1.90508 0
M  V30 461 O 46.6601 1.29918 -1.46622 0
M  V30 462 H 45.2401 -0.385296 -0.639965 0
M  V30 463 H 47.9021 -1.54105 -1.19322 0
M  V30 464 H 46.9981 -1.52886 -2.72089 0
M  V30 465 N 47.2992 1.18797 -1.03562 0
M  V30 466 C 48.2462 2.22253 -0.622259 0
M  V30 467 C 49.2162 1.61987 0.36736 0
M  V30 468 O 50.4012 1.88986 0.262492 0
M  V30 469 C 47.5412 3.45097 0.0138462 0
M  V30 470 C 46.6542 4.19722 -1.02263 0
M  V30 471 C 45.7892 5.30009 -0.355573 0
M  V30 472 C 44.8282 5.96399 -1.37749 0
M  V30 473 N 43.9652 6.98234 -0.735766 0
M  V30 474 H 48.8052 2.56968 -1.50903 0
M  V30 475 H 46.3422 1.26245 -0.755017 0
M  V30 476 H 48.3002 4.15279 0.399948 0
M  V30 477 H 46.9302 3.11018 0.864158 0
M  V30 478 H 45.9822 3.48418 -1.52673 0
M  V30 479 H 47.2942 4.65227 -1.79903 0
M  V30 480 H 46.4482 6.0664 0.0850095 0
M  V30 481 H 45.1872 4.85592 0.452967 0
M  V30 482 H 44.1922 5.18512 -1.82826 0
M  V30 483 H 45.4172 6.42899 -2.18764 0
M  V30 484 H 43.3632 6.55979 0.0525597 0
M  V30 485 H 43.2802 7.41965 -1.44995 0
M  V30 486 H 44.5482 7.78845 -0.31941 0
M  V30 487 N 48.7773 0.814389 1.34928 0
M  V30 488 C 50.0233 0.399013 1.98836 0
M  V30 489 C 50.3563 -1.03314 1.64438 0
M  V30 490 O 49.6313 -1.71811 0.911659 0
M  V30 491 C 49.9143 0.591629 3.55207 0
M  V30 492 C 49.7673 2.06928 3.99376 0
M  V30 493 C 51.0863 0.022199 4.40094 0
M  V30 494 H 48.2053 0.146451 0.722303 0
M  V30 495 H 50.8473 1.02537 1.59957 0
M  V30 496 H 48.9973 0.0584441 3.88456 0
M  V30 497 H 50.6693 2.66544 3.76499 0
M  V30 498 H 48.9123 2.56287 3.49999 0
M  V30 499 H 49.5833 2.1549 5.08201 0
M  V30 500 H 52.0593 0.477643 4.13349 0
M  V30 501 H 50.9353 0.186832 5.48582 0
M  V30 502 H 51.1963 -1.07215 4.28902 0
M  V30 503 N 50.2554 -1.46986 0.568584 0
M  V30 504 C 51.1854 -2.32946 -0.160753 0
M  V30 505 C 52.1664 -1.44487 -0.897631 0
M  V30 506 O 53.3514 -1.73327 -0.875867 0
M  V30 507 C 50.4814 -3.26494 -1.18403 0
M  V30 508 C 49.4354 -4.24282 -0.562895 0
M  V30 509 C 48.7614 -5.07236 -1.69163 0
M  V30 510 C 50.0614 -5.19989 0.490761 0
M  V30 511 H 51.7554 -2.94175 0.556916 0
M  V30 512 H 49.3014 -1.4146 0.26927 0
M  V30 513 H 51.2544 -3.85477 -1.70251 0
M  V30 514 H 49.9784 -2.63343 -1.93179 0
M  V30 515 H 48.6374 -3.66541 -0.0656164 0
M  V30 516 H 48.2854 -4.4048 -2.42871 0
M  V30 517 H 47.9854 -5.7345 -1.28174 0
M  V30 518 H 49.5094 -5.6908 -2.21314 0
M  V30 519 H 50.9234 -5.73271 0.0579047 0
M  V30 520 H 49.3204 -5.94469 0.820165 0
M  V30 521 H 50.3904 -4.64777 1.3824 0
M  V30 522 N 51.7335 -0.305618 -1.54608 0
M  V30 523 C 52.9815 0.301701 -1.99835 0
M  V30 524 C 53.3025 1.54054 -1.19551 0
M  V30 525 O 52.5725 1.93702 -0.292658 0
M  V30 526 H 51.1525 0.114468 -0.738178 0
M  V30 527 H 53.8145 -0.418016 -1.90364 0
M  V30 528 H 52.9105 0.570548 -3.06841 0
M  V30 529 N 53.2116 1.57565 -0.0334293 0
M  V30 530 C 54.1586 2.10478 0.946981 0
M  V30 531 C 55.1286 1.00787 1.32027 0
M  V30 532 O 56.3136 1.28232 1.41284 0
M  V30 533 C 53.4536 2.63994 2.22263 0
M  V30 534 C 52.5666 3.87709 1.90541 0
M  V30 535 C 51.7016 4.29604 3.12433 0
M  V30 536 C 50.7406 5.46065 2.76549 0
M  V30 537 N 49.8776 5.83096 3.9108 0
M  V30 538 H 54.7176 2.93963 0.488846 0
M  V30 539 H 52.2546 1.45296 0.22969 0
M  V30 540 H 54.2126 2.93114 2.96884 0
M  V30 541 H 52.8426 1.83333 2.65685 0
M  V30 542 H 51.8946 3.65291 1.06144 0
M  V30 543 H 53.2066 4.72403 1.60116 0
M  V30 544 H 52.3606 4.60182 3.9537 0
M  V30 545 H 51.0996 3.43685 3.46023 0
M  V30 546 H 50.1046 5.15176 1.92026 0
M  V30 547 H 51.3296 6.33685 2.44171 0
M  V30 548 H 49.2756 5.00132 4.24504 0
M  V30 549 H 49.1926 6.6244 3.64293 0
M  V30 550 H 50.4606 6.18282 4.74708 0
M  V30 551 N 54.6897 -0.239769 1.55765 0
M  V30 552 C 55.9367 -0.966801 1.7793 0
M  V30 553 C 56.2647 -1.85046 0.599015 0
M  V30 554 O 55.5197 -1.91197 -0.417395 0
M  V30 555 C 55.8187 -1.852 3.05672 0
M  V30 556 C 55.4847 -1.1231 4.36689 0
M  V30 557 C 54.1467 -0.921689 4.72291 0
M  V30 558 C 56.4987 -0.607019 5.17653 0
M  V30 559 C 53.8267 -0.191996 5.86386 0
M  V30 560 C 56.1787 0.109241 6.32506 0
M  V30 561 C 54.8427 0.322073 6.66723 0
M  V30 562 H 54.1127 -0.353778 0.651093 0
M  V30 563 H 56.7597 -0.23634 1.90036 0
M  V30 564 H 55.0647 -2.64975 2.8861 0
M  V30 565 H 56.7617 -2.41635 3.20021 0
M  V30 566 H 53.3517 -1.29004 4.08725 0
M  V30 567 H 57.5357 -0.750153 4.90598 0
M  V30 568 H 52.7917 -0.0166949 6.11398 0
M  V30 569 H 56.9657 0.516737 6.9448 0
M  V30 570 H 54.5927 0.88944 7.54979 0
M  V30 571 N 56.1678 -1.49265 -0.50573 0
M  V30 572 C 57.4138 -1.58748 -1.26202 0
M  V30 573 C 57.7468 -0.271227 -1.92297 0
M  V30 574 O 57.0218 0.724831 -1.80489 0
M  V30 575 C 57.3048 -2.74332 -2.33268 0
M  V30 576 C 57.1578 -4.15737 -1.71705 0
M  V30 577 C 58.4768 -2.85576 -3.34865 0
M  V30 578 H 55.5958 -0.577826 -0.457478 0
M  V30 579 H 58.2378 -1.81532 -0.560897 0
M  V30 580 H 56.3878 -2.55036 -2.93068 0
M  V30 581 H 58.0598 -4.46537 -1.15769 0
M  V30 582 H 56.3028 -4.21605 -1.02135 0
M  V30 583 H 56.9738 -4.92477 -2.49341 0
M  V30 584 H 59.4498 -3.03127 -2.8505 0
M  V30 585 H 58.3258 -3.68135 -4.07146 0
M  V30 586 H 58.5868 -1.94732 -3.96903 0
M  V30 587 N 57.6459 0.756429 -1.3826 0
M  V30 588 C 58.8709 1.55077 -1.37717 0
M  V30 589 C 59.2959 1.88073 0.03164 0
M  V30 590 O 58.6539 1.50364 1.01293 0
M  V30 591 C 58.7019 2.8283 -2.23695 0
M  V30 592 O 57.8059 3.77862 -1.6521 0
M  V30 593 H 57.1469 0.469152 -0.469885 0
M  V30 594 H 59.6769 0.935019 -1.81985 0
M  V30 595 H 59.6869 3.31783 -2.37453 0
M  V30 596 H 58.3619 2.58144 -3.2609 0
M  V30 597 H 56.9389 3.36555 -1.60578 0
M  V30 598 N 59.124 1.23083 0.984299 0
M  V30 599 C 60.054 1.03292 2.09411 0
M  V30 600 C 61.035 -0.048923 1.7003 0
M  V30 601 O 62.22 0.114967 1.93859 0
M  V30 602 C 59.35 0.619155 3.41736 0
M  V30 603 C 58.304 1.64791 3.95004 0
M  V30 604 C 57.63 1.0897 5.23478 0
M  V30 605 C 58.93 3.03999 4.24714 0
M  V30 606 H 60.624 1.96119 2.26225 0
M  V30 607 H 58.17 0.944344 1.08711 0
M  V30 608 H 60.123 0.467777 4.18796 0
M  V30 609 H 58.847 -0.344786 3.24775 0
M  V30 610 H 57.506 1.78721 3.20085 0
M  V30 611 H 57.154 0.11686 5.02864 0
M  V30 612 H 56.854 1.77704 5.60085 0
M  V30 613 H 58.378 0.950093 6.03163 0
M  V30 614 H 59.792 2.93393 4.92538 0
M  V30 615 H 58.189 3.69936 4.72512 0
M  V30 616 H 59.259 3.53285 3.32142 0
M  V30 617 N 60.6021 -1.18246 1.0419 0
M  V30 618 C 61.5121 -2.25574 0.644476 0
M  V30 619 C 62.5281 -1.70845 -0.329826 0
M  V30 620 O 63.7041 -2.00554 -0.184443 0
M  V30 621 C 60.7691 -3.46697 0.014877 0
M  V30 622 C 59.8301 -4.16554 1.03834 0
M  V30 623 C 59.0631 -5.31894 0.438692 0
M  V30 624 O 59.2861 -5.65385 -0.754752 0
M  V30 625 O 58.2201 -5.90459 1.168 0
M  V30 626 H 62.0461 -2.61836 1.53869 0
M  V30 627 H 59.6311 -1.25352 0.812854 0
M  V30 628 H 61.5131 -4.20062 -0.335538 0
M  V30 629 H 60.1881 -3.12255 -0.853138 0
M  V30 630 H 59.0951 -3.45251 1.44057 0
M  V30 631 H 60.4281 -4.54998 1.87716 0
M  V30 632 N 62.0802 -0.821533 -1.34494 0
M  V30 633 C 63.3282 -0.408139 -1.97936 0
M  V30 634 C 63.6492 1.03193 -1.65457 0
M  V30 635 O 62.9192 1.71622 -0.944595 0
M  V30 636 H 61.4992 -0.147928 -0.732206 0
M  V30 637 H 64.1612 -1.05067 -1.64155 0
M  V30 638 H 63.2572 -0.52601 -3.07635 0
M  V30 639 N 63.5583 1.46682 -0.576371 0
M  V30 640 C 64.8053 2.02412 -0.0595339 0
M  V30 641 C 65.1333 1.44859 1.29793 0
M  V30 642 O 64.3883 0.601099 1.8624 0
M  V30 643 C 64.6873 3.57345 0.062886 0
M  V30 644 C 64.3533 4.33908 -1.22616 0
M  V30 645 C 63.0153 4.54544 -1.57933 0
M  V30 646 C 65.3673 4.77919 -2.07948 0
M  V30 647 C 62.6953 5.16444 -2.78393 0
M  V30 648 C 65.0473 5.41149 -3.27629 0
M  V30 649 C 63.7113 5.60014 -3.63236 0
M  V30 650 H 62.9813 0.74068 -0.021785 0
M  V30 651 H 65.6283 1.76128 -0.751735 0
M  V30 652 H 63.9333 3.82729 0.838178 0
M  V30 653 H 65.6303 3.98136 0.478439 0
M  V30 654 H 62.2203 4.18138 -0.941202 0
M  V30 655 H 66.4043 4.61738 -1.81967 0
M  V30 656 H 61.6603 5.29242 -3.06126 0
M  V30 657 H 65.8343 5.74211 -3.94023 0
M  V30 658 H 63.4613 6.07748 -4.56669 0
M  V30 659 N 65.0364 0.313813 1.54444 0
M  V30 660 C 65.9994 -0.54379 2.22656 0
M  V30 661 C 66.9994 -1.05124 1.21678 0
M  V30 662 O 68.1894 -0.945225 1.46325 0
M  V30 663 C 65.3214 -1.75427 2.92298 0
M  V30 664 H 66.5144 0.0523599 2.99854 0
M  V30 665 H 64.0674 0.0647834 1.56166 0
M  V30 666 H 64.8024 -2.38991 2.19211 0
M  V30 667 H 64.5874 -1.39791 3.66334 0
M  V30 668 H 66.0774 -2.36325 3.44297 0
M  V30 669 N 66.5145 -1.57545 0.0417849 0
M  V30 670 C 67.4465 -2.07904 -0.964799 0
M  V30 671 C 68.4595 -1.00497 -1.28079 0
M  V30 672 O 69.6485 -1.28087 -1.24322 0
M  V30 673 C 66.7485 -2.49928 -2.28887 0
M  V30 674 C 65.9215 -3.80562 -2.15619 0
M  V30 675 C 64.9805 -4.08999 -3.31069 0
M  V30 676 O 64.0065 -4.79061 -3.0739 0
M  V30 677 N 65.2085 -3.6017 -4.55256 0
M  V30 678 H 67.9735 -2.94886 -0.535029 0
M  V30 679 H 65.5345 -1.61252 -0.144681 0
M  V30 680 H 67.5265 -2.66034 -3.04972 0
M  V30 681 H 66.0965 -1.68245 -2.63463 0
M  V30 682 H 65.3165 -3.74129 -1.24183 0
M  V30 683 H 66.6045 -4.66126 -2.03971 0
M  V30 684 H 66.0025 -3.03512 -4.77386 0
M  V30 685 H 64.5595 -3.81532 -5.28466 0
M  V30 686 N 67.9926 0.231505 -1.5589 0
M  V30 687 C 69.4036 0.799327 -1.68724 0
M  V30 688 C 69.7546 1.85398 -0.642022 0
M  V30 689 O 68.8796 2.1539 0.208784 0
M  V30 690 C 69.4746 1.45664 -3.05888 0
M  V30 691 C 68.0336 1.97197 -3.20609 0
M  V30 692 C 67.1806 0.828552 -2.64632 0
M  V30 693 H 70.1316 0.00702616 -1.58698 0
M  V30 694 H 70.1526 2.32517 -3.01191 0
M  V30 695 H 69.6646 0.688808 -3.81939 0
M  V30 696 H 67.7656 2.76813 -2.4941 0
M  V30 697 H 67.8786 2.15878 -4.27707 0
M  V30 698 H 66.2426 1.23321 -2.22854 0
M  V30 699 H 67.0256 0.0735544 -3.43221 0
M  V30 700 N 69.4707 1.49531 0.497807 0
M  V30 701 C 70.7167 1.59415 1.25358 0
M  V30 702 C 71.0497 0.281422 1.9215 0
M  V30 703 O 70.3247 -0.715249 1.80871 0
M  V30 704 C 70.6077 2.75566 2.3181 0
M  V30 705 C 70.4607 4.16642 1.69498 0
M  V30 706 C 71.7797 2.87347 3.33346 0
M  V30 707 H 68.8987 0.580244 0.454408 0
M  V30 708 H 71.5407 1.81827 0.551262 0
M  V30 709 H 69.6907 2.56587 2.91711 0
M  V30 710 H 71.3627 4.47145 1.13399 0
M  V30 711 H 69.6057 4.22141 0.998978 0
M  V30 712 H 70.2767 4.93792 2.46725 0
M  V30 713 H 72.7527 3.04634 2.83438 0
M  V30 714 H 71.6287 3.70289 4.05188 0
M  V30 715 H 71.8897 1.96834 3.95865 0
M  V30 716 N 70.9488 -0.749086 1.3866 0
M  V30 717 C 71.9118 -1.84457 1.36045 0
M  V30 718 C 72.9118 -1.58682 0.260122 0
M  V30 719 O 74.1018 -1.66343 0.517261 0
M  V30 720 C 71.2338 -3.22008 1.11911 0
M  V30 721 H 72.4268 -1.88182 2.33512 0
M  V30 722 H 69.9798 -0.951266 1.24019 0
M  V30 723 H 70.7148 -3.2395 0.150686 0
M  V30 724 H 70.4998 -3.42111 1.91579 0
M  V30 725 H 71.9898 -4.0208 1.12788 0
M  V30 726 N 72.4269 -1.23603 -0.977757 0
M  V30 727 C 73.6729 -1.07129 -1.72195 0
M  V30 728 C 74.0059 0.390501 -1.90233 0
M  V30 729 O 73.2809 1.28902 -1.45653 0
M  V30 730 C 73.5639 -1.80031 -3.11867 0
M  V30 731 C 73.4169 -3.33899 -3.01383 0
M  V30 732 C 74.7359 -1.56492 -4.11337 0
M  V30 733 H 71.8549 -0.390571 -0.624999 0
M  V30 734 H 74.4969 -1.52142 -1.13811 0
M  V30 735 H 72.6469 -1.41768 -3.6171 0
M  V30 736 H 74.3189 -3.81699 -2.59043 0
M  V30 737 H 72.5619 -3.62796 -2.37827 0
M  V30 738 H 73.2329 -3.801 -4.00285 0
M  V30 739 H 75.7089 -1.89757 -3.70313 0
M  V30 740 H 74.5849 -2.09973 -5.07151 0
M  V30 741 H 74.8459 -0.500874 -4.39254 0
M  V30 742 N 73.905 1.17692 -1.04816 0
M  V30 743 C 75.152 1.87859 -0.75599 0
M  V30 744 C 75.48 1.80812 0.716752 0
M  V30 745 O 74.735 1.20819 1.53952 0
M  V30 746 C 75.034 3.37462 -1.17703 0
M  V30 747 C 74.7 3.64713 -2.65133 0
M  V30 748 C 73.362 3.71859 -3.05408 0
M  V30 749 C 75.714 3.76492 -3.60421 0
M  V30 750 C 73.042 3.88271 -4.39843 0
M  V30 751 C 75.394 3.94421 -4.94585 0
M  V30 752 C 74.058 3.99806 -5.3452 0
M  V30 753 H 73.328 0.687425 -0.276636 0
M  V30 754 H 75.975 1.39255 -1.31455 0
M  V30 755 H 74.28 3.88097 -0.537395 0
M  V30 756 H 75.977 3.90109 -0.928218 0
M  V30 757 H 72.567 3.59772 -2.32942 0
M  V30 758 H 76.751 3.70295 -3.30447 0
M  V30 759 H 72.007 3.90687 -4.70291 0
M  V30 760 H 76.181 4.02477 -5.68318 0
M  V30 761 H 73.808 4.12276 -6.38696 0
M  V30 762 N 75.3831 0.828654 1.34056 0
M  V30 763 C 76.3131 0.269443 2.3194 0
M  V30 764 C 77.2941 -0.617247 1.58506 0
M  V30 765 O 78.4791 -0.542931 1.86456 0
M  V30 766 C 75.6091 -0.564793 3.42677 0
M  V30 767 C 74.5631 0.225241 4.27407 0
M  V30 768 C 73.8891 -0.7321 5.29664 0
M  V30 769 C 75.1891 1.43663 5.02154 0
M  V30 770 H 76.8831 1.08728 2.7896 0
M  V30 771 H 74.4291 0.524283 1.34117 0
M  V30 772 H 76.3821 -0.966233 4.10173 0
M  V30 773 H 75.1061 -1.41574 2.9432 0
M  V30 774 H 73.7651 0.608117 3.61521 0
M  V30 775 H 73.4131 -1.57916 4.77568 0
M  V30 776 H 73.1131 -0.20767 5.87233 0
M  V30 777 H 74.6371 -1.13128 6.00029 0
M  V30 778 H 76.0511 1.1089 5.62473 0
M  V30 779 H 74.4481 1.89711 5.69324 0
M  V30 780 H 75.5181 2.21181 4.31517 0
M  V30 781 N 76.8612 -1.46375 0.584142 0
M  V30 782 C 78.1092 -2.01978 0.0701287 0
M  V30 783 C 78.4302 -1.4579 -1.295 0
M  V30 784 O 77.7002 -0.64314 -1.85042 0
M  V30 785 H 76.2802 -0.746648 0.0229345 0
M  V30 786 H 78.9422 -1.79461 0.760245 0
M  V30 787 H 78.0382 -3.121 0.0022064 0
M  V30 788 N 78.3393 -0.321999 -1.54275 0
M  V30 789 C 79.5883 0.281931 -1.9972 0
M  V30 790 C 79.9013 1.53369 -1.21397 0
M  V30 791 O 81.1073 2.21352 -1.57211 0
M  V30 792 C 79.5633 0.5529 -3.55628 0
M  V30 793 C 79.1713 -0.681721 -4.42783 0
M  V30 794 C 80.9153 1.11687 -4.09544 0
M  V30 795 C 78.8223 -0.382742 -5.9016 0
M  V30 796 H 77.7523 0.109124 -0.746062 0
M  V30 797 H 80.4033 -0.43398 -1.78294 0
M  V30 798 H 78.7853 1.32896 -3.73035 0
M  V30 799 H 79.9593 -1.45723 -4.37151 0
M  V30 800 H 78.2743 -1.1658 -3.99748 0
M  V30 801 H 80.8713 1.35515 -5.17242 0
M  V30 802 H 81.2143 2.06575 -3.61431 0
M  V30 803 H 81.7473 0.402032 -3.95763 0
M  V30 804 H 78.4863 -1.30076 -6.42464 0
M  V30 805 H 78.0063 0.355094 -5.98748 0
M  V30 806 H 79.6853 0.00800157 -6.47 0
M  V30 807 N 79.8174 1.5752 -0.0501392 0
M  V30 808 C 81.2284 1.80271 0.485705 0
M  V30 809 C 81.5794 0.96228 1.70981 0
M  V30 810 O 80.7044 0.178578 2.15662 0
M  V30 811 C 81.2994 3.26957 0.887938 0
M  V30 812 C 79.8584 3.5063 1.36877 0
M  V30 813 C 79.0054 2.75165 0.343468 0
M  V30 814 H 81.9564 1.56281 -0.276028 0
M  V30 815 H 81.9774 3.37821 1.75093 0
M  V30 816 H 81.4894 3.881 -0.0031809 0
M  V30 817 H 79.5904 2.94766 2.27911 0
M  V30 818 H 79.7034 4.59343 1.36164 0
M  V30 819 H 78.0674 2.4127 0.816128 0
M  V30 820 H 78.8504 3.39034 -0.539548 0
M  V30 821 N 81.2955 -0.223234 1.56011 0
M  V30 822 C 82.5425 -0.947875 1.78946 0
M  V30 823 C 82.8705 -1.844 0.618608 0
M  V30 824 O 82.1255 -1.91629 -0.397093 0
M  V30 825 C 82.4245 -1.81948 3.0762 0
M  V30 826 C 82.0905 -1.07672 4.37856 0
M  V30 827 C 80.7525 -0.871544 4.73242 0
M  V30 828 C 83.1045 -0.552081 5.18268 0
M  V30 829 C 80.4325 -0.129791 5.86556 0
M  V30 830 C 82.7845 0.17632 6.32354 0
M  V30 831 C 81.4485 0.39277 6.66343 0
M  V30 832 H 80.7185 -0.346852 0.654809 0
M  V30 833 H 83.3655 -0.216171 1.90276 0
M  V30 834 H 81.6705 -2.61899 2.91404 0
M  V30 835 H 83.3675 -2.38227 3.22566 0
M  V30 836 H 79.9575 -1.24662 4.1007 0
M  V30 837 H 84.1415 -0.698076 4.91366 0
M  V30 838 H 79.3975 0.048153 6.11381 0
M  V30 839 H 83.5715 0.590367 6.93893 0
M  V30 840 H 81.1985 0.969466 7.53993 0
M  V30 841 N 82.7736 -1.49793 -0.48987 0
M  V30 842 C 83.7366 -1.66752 -1.57246 0
M  V30 843 C 84.7366 -0.538867 -1.51502 0
M  V30 844 O 85.9266 -0.805545 -1.54456 0
M  V30 845 C 83.0586 -1.67528 -2.96896 0
M  V30 846 H 84.2516 -2.63321 -1.43534 0
M  V30 847 H 81.8046 -1.38992 -0.714914 0
M  V30 848 H 82.5396 -0.725837 -3.16073 0
M  V30 849 H 82.3246 -2.49504 -3.02473 0
M  V30 850 H 83.8146 -1.82667 -3.7553 0
M  V30 851 N 84.2517 0.741722 -1.39055 0
M  V30 852 C 85.1987 1.85566 -1.37237 0
M  V30 853 C 86.1687 1.64457 -0.233072 0
M  V30 854 O 87.3537 1.85957 -0.427147 0
M  V30 855 C 84.4937 3.23004 -1.215 0
M  V30 856 C 83.6067 3.55864 -2.44918 0
M  V30 857 C 82.7417 4.82669 -2.21821 0
M  V30 858 C 81.7807 5.08351 -3.40948 0
M  V30 859 N 80.9177 6.26356 -3.17211 0
M  V30 860 H 85.7577 1.86455 -2.32462 0
M  V30 861 H 83.2947 0.911176 -1.15482 0
M  V30 862 H 85.2527 4.02331 -1.10389 0
M  V30 863 H 83.8827 3.21411 -0.29908 0
M  V30 864 H 82.9347 2.7129 -2.66657 0
M  V30 865 H 84.2467 3.70765 -3.33668 0
M  V30 866 H 83.4007 5.69962 -2.07914 0
M  V30 867 H 82.1397 4.69929 -1.30454 0
M  V30 868 H 81.1447 4.19522 -3.55361 0
M  V30 869 H 82.3697 5.22981 -4.33207 0
M  V30 870 H 80.3157 6.14917 -2.28502 0
M  V30 871 H 80.2327 6.41813 -3.99515 0
M  V30 872 H 81.5007 7.16506 -3.06984 0
M  V30 873 N 85.7298 1.2412 0.971189 0
M  V30 874 C 87.1408 1.07236 1.52831 0
M  V30 875 C 87.4918 -0.357352 1.92918 0
M  V30 876 O 86.6168 -1.24528 1.76979 0
M  V30 877 C 87.2118 1.94043 2.77728 0
M  V30 878 C 85.7708 1.81394 3.29808 0
M  V30 879 C 84.9178 1.89189 2.02738 0
M  V30 880 H 87.8688 1.37648 0.789864 0
M  V30 881 H 87.8898 1.47066 3.5093 0
M  V30 882 H 87.4018 2.98093 2.4852 0
M  V30 883 H 85.5028 0.801634 3.63874 0
M  V30 884 H 85.6158 2.65294 3.98944 0
M  V30 885 H 83.9798 1.32877 2.17292 0
M  V30 886 H 84.7628 2.94812 1.759 0
M  V30 887 N 87.2079 -1.17134 1.05439 0
M  V30 888 C 88.6189 -1.69084 0.791676 0
M  V30 889 C 88.9699 -1.83822 -0.685839 0
M  V30 890 O 88.0949 -1.52757 -1.53278 0
M  V30 891 C 88.6899 -3.07119 1.4305 0
M  V30 892 C 87.2489 -3.56225 1.21577 0
M  V30 893 C 86.3959 -2.32421 1.51247 0
M  V30 894 H 89.3469 -1.01617 1.219 0
M  V30 895 H 89.3679 -3.71087 0.84112 0
M  V30 896 H 88.8799 -2.9636 2.50584 0
M  V30 897 H 86.9809 -3.72257 0.159787 0
M  V30 898 H 87.0939 -4.38837 1.92246 0
M  V30 899 H 85.4579 -2.3701 0.932653 0
M  V30 900 H 86.2409 -2.24268 2.5992 0
M  V30 901 N 88.686 -0.835752 -1.33615 0
M  V30 902 C 89.616 -0.281739 -2.31794 0
M  V30 903 C 90.597 0.608833 -1.58831 0
M  V30 904 O 91.782 0.533035 -1.86741 0
M  V30 905 C 88.912 0.546612 -3.42971 0
M  V30 906 C 87.866 -0.247904 -4.27281 0
M  V30 907 C 87.192 0.704001 -5.30045 0
M  V30 908 C 88.492 -1.46324 -5.01385 0
M  V30 909 H 90.186 -1.10206 -2.78379 0
M  V30 910 H 87.732 -0.531388 -1.33837 0
M  V30 911 H 89.685 0.944467 -4.1068 0
M  V30 912 H 88.409 1.40011 -2.95067 0
M  V30 913 H 87.068 -0.627281 -3.61194 0
M  V30 914 H 86.716 1.55381 -4.78399 0
M  V30 915 H 86.416 0.176524 -5.87335 0
M  V30 916 H 87.94 1.09944 -6.0062 0
M  V30 917 H 89.354 -1.13871 -5.61877 0
M  V30 918 H 87.751 -1.92728 -5.6831 0
M  V30 919 H 88.821 -2.23467 -4.30338 0
M  V30 920 N 90.1641 1.46063 -0.591896 0
M  V30 921 C 91.4121 2.01938 -0.0808391 0
M  V30 922 C 91.7331 1.46475 1.28725 0
M  V30 923 O 91.0031 0.652944 1.84698 0
M  V30 924 H 89.5831 0.746516 -0.0268938 0
M  V30 925 H 92.2451 1.79055 -0.769752 0
M  V30 926 H 91.3411 3.12094 -0.0187578 0
M  V30 927 N 91.6422 0.330177 1.54103 0
M  V30 928 C 93.0532 -0.15652 1.86043 0
M  V30 929 C 93.4042 -1.51086 1.2517 0
M  V30 930 O 92.5292 -2.09023 0.560217 0
M  V30 931 C 93.1242 -0.290784 3.3755 0
M  V30 932 C 91.6832 -0.721705 3.69416 0
M  V30 933 C 90.8302 0.152622 2.7688 0
M  V30 934 H 93.7812 0.550237 1.48856 0
M  V30 935 H 93.8022 -1.12058 3.63625 0
M  V30 936 H 93.3142 0.695068 3.81825 0
M  V30 937 H 91.4152 -1.71706 3.30678 0
M  V30 938 H 91.5282 -0.520869 4.7626 0
M  V30 939 H 89.8922 -0.372894 2.51956 0
M  V30 940 H 90.6752 1.13536 3.23982 0
M  V30 941 N 93.1203 -1.57491 0.0584922 0
M  V30 942 C 94.0503 -2.14988 -0.911178 0
M  V30 943 C 95.0313 -1.07343 -1.31952 0
M  V30 944 O 96.2163 -1.35318 -1.39294 0
M  V30 945 C 93.3463 -2.70078 -2.18347 0
M  V30 946 C 92.3003 -3.82771 -1.91495 0
M  V30 947 C 91.6263 -4.24408 -3.25241 0
M  V30 948 C 92.9263 -5.07592 -1.23075 0
M  V30 949 H 94.6203 -2.96263 -0.432246 0
M  V30 950 H 92.1663 -1.42512 -0.206469 0
M  V30 951 H 94.1193 -3.08943 -2.86587 0
M  V30 952 H 92.8433 -1.86005 -2.68458 0
M  V30 953 H 91.5023 -3.44389 -1.25664 0
M  V30 954 H 91.1503 -3.37275 -3.73168 0
M  V30 955 H 90.8503 -5.00366 -3.08071 0
M  V30 956 H 92.3743 -4.65879 -3.94701 0
M  V30 957 H 93.7883 -5.43857 -1.81362 0
M  V30 958 H 92.1853 -5.88741 -1.16207 0
M  V30 959 H 93.2553 -4.84454 -0.207847 0
M  V30 960 N 94.5984 0.214957 -1.56127 0
M  V30 961 C 96.0144 0.564948 -1.49267 0
M  V30 962 C 96.2144 1.86827 -0.754838 0
M  V30 963 O 95.2704 2.50745 -0.297198 0
M  V30 964 C 96.5834 0.638071 -2.93852 0
M  V30 965 C 98.1314 0.728253 -3.0441 0
M  V30 966 C 98.6064 0.832663 -4.50367 0
M  V30 967 N 100.097 0.896712 -4.54437 0
M  V30 968 C 100.832 0.997324 -5.6466 0
M  V30 969 N 100.328 1.06147 -6.8462 0
M  V30 970 N 102.121 1.03297 -5.52527 0
M  V30 971 H 94.2724 -0.640211 -2.02522 0
M  V30 972 H 96.5354 -0.225507 -0.920788 0
M  V30 973 H 96.2414 -0.250126 -3.50809 0
M  V30 974 H 96.1154 1.49947 -3.46115 0
M  V30 975 H 98.5024 1.60689 -2.47514 0
M  V30 976 H 98.5834 -0.158952 -2.55306 0
M  V30 977 H 98.2274 -0.0415417 -5.07883 0
M  V30 978 H 98.1574 1.73538 -4.97184 0
M  V30 979 H 100.648 0.857188 -3.6805 0
M  V30 980 H 100.961 1.1382 -7.64372 0
M  V30 981 H 99.3064 1.03049 -6.87318 0
M  V30 982 H 102.497 0.979558 -4.57736 0
M  V30 983 H 102.67 1.10793 -6.38458 0
M  V30 984 N 96.0765 1.50051 0.48192 0
M  V30 985 C 97.3235 1.60498 1.23477 0
M  V30 986 C 97.6515 0.300331 1.92167 0
M  V30 987 O 96.9065 -0.713094 1.82246 0
M  V30 988 C 97.2055 2.72717 2.30998 0
M  V30 989 C 96.8715 4.13572 1.79636 0
M  V30 990 C 95.5335 4.519 1.65348 0
M  V30 991 C 97.8855 5.01649 1.41412 0
M  V30 992 C 95.2135 5.76057 1.11244 0
M  V30 993 C 97.5655 6.26343 0.887538 0
M  V30 994 C 96.2295 6.63483 0.731207 0
M  V30 995 H 95.4995 0.587303 0.451836 0
M  V30 996 H 98.1465 1.83948 0.532468 0
M  V30 997 H 96.4515 2.43312 3.07094 0
M  V30 998 H 98.1485 2.78006 2.88988 0
M  V30 999 H 94.7385 3.83329 1.91721 0
M  V30 1000 H 98.9225 4.72679 1.51289 0
M  V30 1001 H 94.1785 6.03516 0.978686 0
M  V30 1002 H 98.3525 6.93958 0.582654 0
M  V30 1003 H 95.9795 7.59568 0.309806 0
M  V30 1004 N 97.5546 -0.734337 1.39446 0
M  V30 1005 C 98.7826 -1.52358 1.39981 0
M  V30 1006 C 99.1976 -1.88799 -0.0054975 0
M  V30 1007 O 98.5546 -1.54146 -0.976998 0
M  V30 1008 C 98.6056 -2.81072 2.27333 0
M  V30 1009 O 98.3266 -2.46178 3.62392 0
M  V30 1010 C 99.8276 -3.75096 2.36259 0
M  V30 1011 H 97.0476 -0.470806 0.478103 0
M  V30 1012 H 99.5916 -0.907339 1.83269 0
M  V30 1013 H 97.7466 -3.39026 1.87457 0
M  V30 1014 H 98.1606 -3.28866 4.08592 0
M  V30 1015 H 99.6346 -4.62305 3.01626 0
M  V30 1016 H 100.112 -4.16892 1.38194 0
M  V30 1017 H 100.718 -3.23061 2.76608 0
M  V30 1018 N 99.0327 -1.24633 -0.964593 0
M  V30 1019 C 99.9627 -1.06611 -2.07741 0
M  V30 1020 C 100.944 0.0218666 -1.70086 0
M  V30 1021 O 102.129 -0.145793 -1.93652 0
M  V30 1022 C 99.2587 -0.673444 -3.40708 0
M  V30 1023 C 98.2127 -1.71054 -3.92332 0
M  V30 1024 C 97.5387 -1.17285 -5.21678 0
M  V30 1025 C 98.8387 -3.10718 -4.19824 0
M  V30 1026 H 100.533 -1.99693 -2.23076 0
M  V30 1027 H 98.0787 -0.96152 -1.07195 0
M  V30 1028 H 100.032 -0.534345 -4.17998 0
M  V30 1029 H 98.7557 0.293073 -3.25282 0
M  V30 1030 H 97.4147 -1.83791 -3.17201 0
M  V30 1031 H 97.0627 -0.196847 -5.02615 0
M  V30 1032 H 96.7627 -1.86592 -5.57187 0
M  V30 1033 H 98.2867 -1.04593 -6.01575 0
M  V30 1034 H 99.7007 -3.01192 -4.87808 0
M  V30 1035 H 98.0977 -3.77406 -4.66567 0
M  V30 1036 H 99.1677 -3.58524 -3.26479 0
M  V30 1037 N 100.511 1.16574 -1.06058 0
M  V30 1038 C 101.922 1.68662 -0.800632 0
M  V30 1039 C 102.273 1.84184 0.67608 0
M  V30 1040 O 101.398 1.53568 1.52466 0
M  V30 1041 C 101.993 3.06356 -1.44676 0
M  V30 1042 C 100.552 3.55575 -1.23465 0
M  V30 1043 C 99.6988 2.31616 -1.52477 0
M  V30 1044 H 102.65 1.00969 -1.22438 0
M  V30 1045 H 102.671 3.70636 -0.860788 0
M  V30 1046 H 102.183 2.95027 -2.52152 0
M  V30 1047 H 100.284 3.72167 -0.179527 0
M  V30 1048 H 100.397 4.37812 -1.94571 0
M  V30 1049 H 98.7608 2.36512 -0.945209 0
M  V30 1050 H 99.5438 2.22887 -2.61106 0
M  V30 1051 N 101.989 0.842826 1.3317 0
M  V30 1052 C 102.921 0.236245 2.27979 0
M  V30 1053 C 103.934 -0.585282 1.51915 0
M  V30 1054 O 105.123 -0.411705 1.73687 0
M  V30 1055 C 102.223 -0.685717 3.3189 0
M  V30 1056 C 101.396 0.0973448 4.37292 0
M  V30 1057 C 100.455 -0.748565 5.20848 0
M  V30 1058 O 99.4809 -0.186339 5.68895 0
M  V30 1059 N 100.683 -2.06527 5.42519 0
M  V30 1060 H 103.448 1.05088 2.80672 0
M  V30 1061 H 101.009 0.701667 1.45905 0
M  V30 1062 H 103.001 -1.25669 3.84694 0
M  V30 1063 H 101.571 -1.40105 2.79445 0
M  V30 1064 H 100.791 0.849706 3.84933 0
M  V30 1065 H 102.079 0.635643 5.04814 0
M  V30 1066 H 101.477 -2.54554 5.05192 0
M  V30 1067 H 100.034 -2.58464 5.98364 0
M  V30 1068 N 103.467 -1.45747 0.599634 0
M  V30 1069 C 104.878 -1.85853 0.177681 0
M  V30 1070 C 105.229 -1.50102 -1.26348 0
M  V30 1071 O 104.354 -0.923905 -1.95686 0
M  V30 1072 C 104.949 -3.37326 0.315688 0
M  V30 1073 C 103.508 -3.76365 -0.0515144 0
M  V30 1074 C 102.655 -2.69722 0.643822 0
M  V30 1075 H 105.606 -1.36661 0.806814 0
M  V30 1076 H 105.627 -3.77778 -0.454321 0
M  V30 1077 H 105.139 -3.63315 1.36468 0
M  V30 1078 H 103.24 -3.55993 -1.09999 0
M  V30 1079 H 103.353 -4.77916 0.336594 0
M  V30 1080 H 101.717 -2.54567 0.0822881 0
M  V30 1081 H 102.5 -2.98549 1.6948 0
M  V30 1082 N 104.945 -0.338344 -1.53925 0
M  V30 1083 C 105.908 0.508299 -2.23493 0
M  V30 1084 C 106.908 1.03175 -1.23335 0
M  V30 1085 O 108.098 0.921826 -1.47811 0
M  V30 1086 C 105.23 1.70754 -2.95052 0
M  V30 1087 H 106.423 -0.100058 -2.99733 0
M  V30 1088 H 103.976 -0.0896198 -1.56043 0
M  V30 1089 H 104.711 2.35474 -2.22986 0
M  V30 1090 H 104.496 1.33946 -3.68512 0
M  V30 1091 H 105.986 2.30818 -3.48013 0
M  V30 1092 N 106.423 1.57458 -0.0668435 0
M  V30 1093 C 107.333 2.15937 0.916975 0
M  V30 1094 C 108.349 1.12123 1.33058 0
M  V30 1095 O 109.525 1.44366 1.40429 0
M  V30 1096 C 106.59 2.70547 2.16807 0
M  V30 1097 C 105.651 3.89215 1.81135 0
M  V30 1098 C 104.884 4.41211 3.0028 0
M  V30 1099 O 105.107 3.92225 4.14144 0
M  V30 1100 O 104.041 5.32605 2.80384 0
M  V30 1101 H 107.867 3.00354 0.449561 0
M  V30 1102 H 105.452 1.48584 0.155949 0
M  V30 1103 H 107.334 3.0557 2.90181 0
M  V30 1104 H 106.009 1.89192 2.62656 0
M  V30 1105 H 104.916 3.59054 1.05028 0
M  V30 1106 H 106.249 4.71848 1.40073 0
M  V30 1107 N 107.901 -0.206675 1.56239 0
M  V30 1108 C 109.312 -0.772383 1.69974 0
M  V30 1109 C 109.663 -1.84353 0.671436 0
M  V30 1110 O 108.788 -2.15695 -0.174491 0
M  V30 1111 C 109.383 -1.40779 3.08167 0
M  V30 1112 C 107.942 -1.92072 3.23706 0
M  V30 1113 C 107.089 -0.786347 2.65917 0
M  V30 1114 H 110.04 0.0182223 1.5869 0
M  V30 1115 H 110.061 -2.27696 3.04852 0
M  V30 1116 H 109.573 -0.627958 3.82986 0
M  V30 1117 H 107.674 -2.7281 2.53782 0
M  V30 1118 H 107.787 -2.09046 4.31087 0
M  V30 1119 H 106.151 -1.1976 2.24788 0
M  V30 1120 H 106.934 -0.0189416 3.43295 0
M  V30 1121 N 109.379 -1.50304 -0.473955 0
M  V30 1122 C 110.625 -1.62358 -1.22521 0
M  V30 1123 C 110.98 -0.318555 -1.89745 0
M  V30 1124 O 110.273 0.683315 -1.79001 0
M  V30 1125 C 110.467 -2.73938 -2.29549 0
M  V30 1126 C 110.296 -4.15165 -1.72825 0
M  V30 1127 C 109.066 -4.81604 -1.52924 0
M  V30 1128 C 111.264 -4.99503 -1.22481 0
M  V30 1129 N 109.246 -6.07056 -0.91413 0
M  V30 1130 C 110.617 -6.15655 -0.732743 0
M  V30 1131 C 112.672 -4.85299 -1.11308 0
M  V30 1132 C 111.375 -7.19164 -0.139976 0
M  V30 1133 C 113.401 -5.88982 -0.534258 0
M  V30 1134 C 112.763 -7.0438 -0.0525562 0
M  V30 1135 H 108.862 -0.648286 -0.437321 0
M  V30 1136 H 111.446 -1.87413 -0.527692 0
M  V30 1137 H 109.617 -2.50611 -2.9673 0
M  V30 1138 H 111.349 -2.75366 -2.96573 0
M  V30 1139 H 108.104 -4.3885 -1.78067 0
M  V30 1140 H 108.528 -6.74108 -0.625071 0
M  V30 1141 H 113.17 -3.96369 -1.47144 0
M  V30 1142 H 110.888 -8.07771 0.230591 0
M  V30 1143 H 114.474 -5.80055 -0.450219 0
M  V30 1144 H 113.354 -7.83238 0.388324 0
M  V30 1145 N 110.857 0.726932 -1.39834 0
M  V30 1146 C 111.805 1.86235 -1.39353 0
M  V30 1147 C 112.799 1.67144 -0.275555 0
M  V30 1148 O 114.005 1.74387 -0.44601 0
M  V30 1149 H 110.38 0.613174 -0.43534 0
M  V30 1150 H 112.351 1.83756 -2.35109 0
M  V30 1151 C 111.1 3.23995 -1.26185 0
M  V30 1152 H 110.423 3.39285 -2.11484 0
M  V30 1153 H 111.863 4.03609 -1.29907 0
M  V30 1154 C 110.322 3.36888 0.0290018 0
M  V30 1155 O 110.852 3.89152 0.99619 0
M  V30 1156 N 109.058 2.90446 0.0947437 0
M  V30 1157 H 108.605 2.48102 -0.693035 0
M  V30 1158 H 108.563 2.99451 0.957932 0
M  V30 1159 N 112.336 1.25143 0.95797 0
M  V30 1160 C 113.583 1.09692 1.70217 0
M  V30 1161 C 113.911 -0.362654 1.91089 0
M  V30 1162 O 113.166 -1.28386 1.47701 0
M  V30 1163 C 113.465 1.79272 3.09187 0
M  V30 1164 C 113.131 3.29196 3.08125 0
M  V30 1165 C 111.793 3.70096 3.07543 0
M  V30 1166 C 114.145 4.24995 3.0171 0
M  V30 1167 C 111.473 5.05213 2.9829 0
M  V30 1168 C 113.825 5.60132 2.93999 0
M  V30 1169 C 112.489 6.00365 2.9175 0
M  V30 1170 H 111.759 0.401393 0.622868 0
M  V30 1171 H 114.406 1.55372 1.11945 0
M  V30 1172 H 112.711 1.26014 3.70982 0
M  V30 1173 H 114.408 1.64773 3.65583 0
M  V30 1174 H 110.998 2.96651 3.09348 0
M  V30 1175 H 115.182 3.9439 3.01281 0
M  V30 1176 H 110.438 5.35569 2.94916 0
M  V30 1177 H 114.612 6.3406 2.87996 0
M  V30 1178 H 112.239 7.05023 2.84336 0
M  V30 1179 N 113.814 -1.1601 1.06675 0
M  V30 1180 C 115.06 -1.86909 0.786945 0
M  V30 1181 C 115.393 -1.81717 -0.685018 0
M  V30 1182 O 114.668 -1.23551 -1.50218 0
M  V30 1183 C 114.951 -3.36313 1.28707 0
M  V30 1184 C 114.804 -3.50175 2.82308 0
M  V30 1185 C 116.123 -4.3084 0.898071 0
M  V30 1186 H 113.242 -0.678677 0.287343 0
M  V30 1187 H 115.884 -1.36336 1.32334 0
M  V30 1188 H 114.034 -3.79513 0.830768 0
M  V30 1189 H 115.706 -3.15886 3.36175 0
M  V30 1190 H 113.949 -2.91959 3.20847 0
M  V30 1191 H 114.62 -4.55116 3.12368 0
M  V30 1192 H 117.096 -3.95561 1.29114 0
M  V30 1193 H 115.972 -5.33876 1.27543 0
M  V30 1194 H 116.233 -4.41662 -0.196651 0
M  V30 1195 N 115.292 -0.849877 -1.32721 0
M  V30 1196 C 116.239 -0.289033 -2.28983 0
M  V30 1197 C 117.209 0.601324 -1.54833 0
M  V30 1198 O 118.394 0.537253 -1.8308 0
M  V30 1199 C 115.534 0.520623 -3.4115 0
M  V30 1200 C 114.647 -0.394989 -4.3019 0
M  V30 1201 C 113.782 0.426834 -5.29482 0
M  V30 1202 C 112.821 -0.486476 -6.10164 0
M  V30 1203 N 111.958 0.297879 -7.01468 0
M  V30 1204 H 116.798 -1.11519 -2.76347 0
M  V30 1205 H 114.335 -0.56138 -1.35967 0
M  V30 1206 H 116.293 1.00563 -4.04899 0
M  V30 1207 H 114.923 1.31165 -2.9495 0
M  V30 1208 H 113.975 -0.99836 -3.67065 0
M  V30 1209 H 115.287 -1.09612 -4.86607 0
M  V30 1210 H 114.441 0.975205 -5.98811 0
M  V30 1211 H 113.18 1.16136 -4.73671 0
M  V30 1212 H 112.185 -1.04677 -5.39743 0
M  V30 1213 H 113.41 -1.21953 -6.6806 0
M  V30 1214 H 111.356 1.01558 -6.48091 0
M  V30 1215 H 111.273 -0.344318 -7.55216 0
M  V30 1216 H 112.541 0.828131 -7.75089 0
M  V30 1217 N 116.77 1.45427 -0.607355 0
M  V30 1218 C 117.718 2.32269 0.12411 0
M  V30 1219 C 118.712 1.45955 0.859854 0
M  V30 1220 O 119.918 1.6244 0.775447 0
M  V30 1221 H 116.293 0.749691 0.0588839 0
M  V30 1222 H 118.264 2.91743 -0.626762 0
M  V30 1223 C 117.013 3.29567 1.1082 0
M  V30 1224 H 116.336 3.95978 0.551492 0
M  V30 1225 H 117.776 3.93061 1.58995 0
M  V30 1226 C 116.235 2.56722 2.18164 0
M  V30 1227 O 116.765 2.34842 3.25902 0
M  V30 1228 N 114.971 2.16861 1.93442 0
M  V30 1229 H 114.518 2.34855 1.05834 0
M  V30 1230 H 114.476 1.68444 2.65469 0
M  V30 1231 N 118.248 0.346503 1.53744 0
M  V30 1232 C 119.211 -0.496439 2.23759 0
M  V30 1233 C 120.211 -1.0252 1.2388 0
M  V30 1234 O 121.401 -0.913974 1.48297 0
M  V30 1235 C 118.533 -1.69187 2.95954 0
M  V30 1236 H 119.726 0.115952 2.99676 0
M  V30 1237 H 117.279 0.0978939 1.55993 0
M  V30 1238 H 118.014 -2.34288 2.24231 0
M  V30 1239 H 117.799 -1.31989 3.69217 0
M  V30 1240 H 119.289 -2.28969 3.49232 0
M  V30 1241 N 119.726 -1.57421 0.075193 0
M  V30 1242 C 120.954 -1.97946 -0.602076 0
M  V30 1243 C 121.369 -0.953674 -1.62943 0
M  V30 1244 O 120.726 0.0592551 -1.82404 0
M  V30 1245 C 120.777 -3.38546 -1.26762 0
M  V30 1246 O 120.498 -4.37195 -0.281376 0
M  V30 1247 C 121.999 -3.93966 -2.03239 0
M  V30 1248 H 119.219 -0.650918 -0.162931 0
M  V30 1249 H 121.763 -2.03959 0.148601 0
M  V30 1250 H 119.918 -3.33609 -1.96936 0
M  V30 1251 H 120.332 -5.18975 -0.759267 0
M  V30 1252 H 121.806 -4.94555 -2.45193 0
M  V30 1253 H 122.283 -3.30693 -2.8903 0
M  V30 1254 H 122.889 -4.02315 -1.37924 0
M  V30 1255 N 121.204 0.198386 -1.56346 0
M  V30 1256 C 122.429 0.939682 -1.84891 0
M  V30 1257 C 122.854 1.76202 -0.658369 0
M  V30 1258 O 122.212 1.76993 0.392851 0
M  V30 1259 C 122.26 1.81428 -3.11635 0
M  V30 1260 O 121.364 2.91265 -2.91956 0
M  V30 1261 H 120.705 0.264807 -0.608912 0
M  V30 1262 H 123.235 0.204695 -2.03573 0
M  V30 1263 H 123.245 2.21958 -3.42343 0
M  V30 1264 H 121.92 1.21004 -3.97908 0
M  V30 1265 H 120.497 2.54514 -2.72538 0
M  V30 1266 N 122.682 1.50554 0.465978 0
M  V30 1267 C 123.912 1.65323 1.23903 0
M  V30 1268 C 124.32 0.338051 1.86155 0
M  V30 1269 O 123.663 -0.690518 1.70228 0
M  V30 1270 C 123.725 2.69048 2.3844 0
M  V30 1271 C 123.389 4.12462 1.96784 0
M  V30 1272 C 124.386 4.98168 1.48745 0
M  V30 1273 C 122.071 4.58407 2.05349 0
M  V30 1274 C 124.065 6.27868 1.0982 0
M  V30 1275 C 121.752 5.88112 1.66035 0
M  V30 1276 C 122.75 6.72668 1.18349 0
M  V30 1277 O 122.438 7.99951 0.795825 0
M  V30 1278 H 122.17 0.558629 0.38067 0
M  V30 1279 H 124.724 1.97561 0.562022 0
M  V30 1280 H 122.954 2.32062 3.09328 0
M  V30 1281 H 124.643 2.72985 3.0039 0
M  V30 1282 H 125.409 4.63885 1.41546 0
M  V30 1283 H 121.288 3.92735 2.41414 0
M  V30 1284 H 124.832 6.93819 0.725293 0
M  V30 1285 H 120.729 6.21914 1.72895 0
M  V30 1286 H 121.497 8.13265 0.924222 0
M  V30 1287 N 124.16 -0.719506 1.40217 0
M  V30 1288 C 125.571 -1.29848 1.34151 0
M  V30 1289 C 125.922 -1.96196 0.0131349 0
M  V30 1290 O 125.047 -1.973 -0.88892 0
M  V30 1291 C 125.642 -2.36118 2.42968 0
M  V30 1292 C 124.201 -2.8965 2.40374 0
M  V30 1293 C 123.348 -1.63393 2.24049 0
M  V30 1294 H 126.299 -0.51591 1.5008 0
M  V30 1295 H 126.32 -3.16871 2.10649 0
M  V30 1296 H 125.832 -1.878 3.39636 0
M  V30 1297 H 123.933 -3.42208 1.47392 0
M  V30 1298 H 124.046 -3.4171 3.35814 0
M  V30 1299 H 122.41 -1.88312 1.71495 0
M  V30 1300 H 123.193 -1.17104 3.2271 0
M  V30 1301 N 125.638 -1.25649 -0.95132 0
M  V30 1302 C 127.049 -1.09654 -1.51106 0
M  V30 1303 C 127.4 0.326615 -1.93462 0
M  V30 1304 O 126.525 1.21697 -1.78938 0
M  V30 1305 C 127.12 -1.98437 -2.74605 0
M  V30 1306 C 125.679 -1.86618 -3.2688 0
M  V30 1307 C 124.826 -1.9239 -1.99703 0
M  V30 1308 H 127.777 -1.38887 -0.767865 0
M  V30 1309 H 127.798 -1.5263 -3.48546 0
M  V30 1310 H 127.31 -3.02009 -2.43746 0
M  V30 1311 H 125.411 -0.859421 -3.62553 0
M  V30 1312 H 125.524 -2.71607 -3.94673 0
M  V30 1313 H 123.888 -1.36317 -2.15151 0
M  V30 1314 H 124.671 -2.97573 -1.71188 0
M  V30 1315 N 127.117 1.15442 -1.07289 0
M  V30 1316 C 128.05 2.19135 -0.636798 0
M  V30 1317 C 129.028 1.58884 0.34562 0
M  V30 1318 O 130.212 1.86805 0.252195 0
M  V30 1319 C 127.339 3.38638 0.0650014 0
M  V30 1320 C 126.385 4.17412 -0.87576 0
M  V30 1321 S 127.218 4.79882 -2.37642 0
M  V30 1322 C 128.374 6.02753 -1.6864 0
M  V30 1323 H 128.607 2.55787 -1.51526 0
M  V30 1324 H 126.14 1.26394 -0.886793 0
M  V30 1325 H 128.098 4.07873 0.463664 0
M  V30 1326 H 126.759 3.00331 0.919801 0
M  V30 1327 H 125.952 5.02909 -0.33143 0
M  V30 1328 H 125.554 3.53722 -1.21478 0
M  V30 1329 H 127.846 6.70113 -0.997753 0
M  V30 1330 H 128.789 6.61754 -2.51967 0
M  V30 1331 H 129.197 5.52355 -1.16465 0
M  V30 1332 N 128.595 0.856903 1.32268 0
M  V30 1333 C 129.842 0.461386 1.97174 0
M  V30 1334 C 130.17 -0.983491 1.67803 0
M  V30 1335 O 129.425 -1.70541 0.959903 0
M  V30 1336 C 129.724 0.649919 3.51441 0
M  V30 1337 C 129.39 2.0656 4.00804 0
M  V30 1338 C 128.052 2.45279 4.13995 0
M  V30 1339 C 130.404 2.98947 4.26943 0
M  V30 1340 C 127.732 3.75653 4.50668 0
M  V30 1341 C 130.084 4.28822 4.65075 0
M  V30 1342 C 128.748 4.67472 4.76472 0
M  V30 1343 H 128.018 0.168833 0.72151 0
M  V30 1344 H 130.665 1.08739 1.57633 0
M  V30 1345 H 128.97 -0.0593018 3.91755 0
M  V30 1346 H 130.667 0.32391 3.9969 0
M  V30 1347 H 127.257 1.75495 3.91024 0
M  V30 1348 H 131.441 2.70265 4.16258 0
M  V30 1349 H 126.697 4.05379 4.57688 0
M  V30 1350 H 130.871 5.0047 4.84255 0
M  V30 1351 H 128.498 5.68539 5.04646 0
M  V30 1352 N 130.073 -1.45103 0.615059 0
M  V30 1353 C 131.301 -2.06553 0.11977 0
M  V30 1354 C 131.716 -1.45842 -1.19898 0
M  V30 1355 O 131.073 -0.575325 -1.73194 0
M  V30 1356 C 131.124 -3.61495 -0.018364 0
M  V30 1357 O 130.845 -4.19942 1.24822 0
M  V30 1358 C 132.346 -4.39947 -0.544237 0
M  V30 1359 H 129.566 -0.667096 0.0722739 0
M  V30 1360 H 132.11 -1.8623 0.84491 0
M  V30 1361 H 130.265 -3.81135 -0.693865 0
M  V30 1362 H 130.679 -5.13204 1.0827 0
M  V30 1363 H 132.153 -5.48838 -0.589953 0
M  V30 1364 H 132.63 -4.10255 -1.56805 0
M  V30 1365 H 133.236 -4.25188 0.0974703 0
M  V30 1366 N 131.551 -0.354651 -1.53558 0
M  V30 1367 C 132.483 0.5315 -2.22952 0
M  V30 1368 C 133.496 1.05503 -1.23988 0
M  V30 1369 O 134.685 0.963279 -1.50277 0
M  V30 1370 C 131.785 1.74538 -2.90499 0
M  V30 1371 C 130.958 1.35524 -4.15875 0
M  V30 1372 C 130.017 2.42999 -4.66731 0
M  V30 1373 O 129.043 2.05844 -5.30676 0
M  V30 1374 N 130.245 3.74423 -4.43608 0
M  V30 1375 H 133.01 -0.0628615 -2.99634 0
M  V30 1376 H 130.571 -0.179302 -1.60904 0
M  V30 1377 H 132.563 2.45892 -3.21433 0
M  V30 1378 H 131.133 2.24686 -2.17336 0
M  V30 1379 H 130.353 0.471998 -3.91364 0
M  V30 1380 H 131.641 1.07071 -4.97406 0
M  V30 1381 H 131.039 4.07391 -3.92491 0
M  V30 1382 H 129.596 4.41913 -4.7912 0
M  V30 1383 N 133.029 1.57378 -0.0835403 0
M  V30 1384 C 134.306 1.85363 0.624507 0
M  V30 1385 C 134.686 0.978239 1.87066 0
M  V30 1386 O 134.034 0.0475908 2.2845 0
M  V30 1387 C 134.244 3.35795 0.950947 0
M  V30 1388 C 135.592 4.03581 1.31939 0
M  V30 1389 O 136.616 3.40609 1.04232 0
M  V30 1390 O 135.475 5.14672 1.83779 0
M  V30 1391 H 132.569 0.766162 0.311329 0
M  V30 1392 H 135.115 1.69307 -0.115362 0
M  V30 1393 H 133.887 3.91244 0.0663899 0
M  V30 1394 H 133.51 3.57154 1.74719 0
M  V30 1395 N 134.507 -0.190092 1.56449 0
M  V30 1396 C 135.918 -0.754312 1.70784 0
M  V30 1397 C 136.269 -1.83631 0.690951 0
M  V30 1398 O 135.394 -2.15868 -0.151604 0
M  V30 1399 C 135.989 -1.37503 3.09642 0
M  V30 1400 C 134.548 -1.88628 3.25725 0
M  V30 1401 C 133.695 -0.758098 2.66736 0
M  V30 1402 H 136.646 0.0350524 1.58661 0
M  V30 1403 H 136.667 -2.2445 3.0725 0
M  V30 1404 H 136.179 -0.587302 3.83631 0
M  V30 1405 H 134.28 -2.70103 2.56661 0
M  V30 1406 H 134.393 -2.04462 4.3328 0
M  V30 1407 H 132.757 -1.17369 2.26046 0
M  V30 1408 H 133.54 0.0174705 3.43296 0
M  V30 1409 N 135.985 -1.50799 -0.457987 0
M  V30 1410 C 136.932 -1.70617 -1.5543 0
M  V30 1411 C 137.902 -0.547562 -1.56815 0
M  V30 1412 O 139.087 -0.779647 -1.74144 0
M  V30 1413 C 136.227 -1.81831 -2.93311 0
M  V30 1414 C 135.34 -3.09278 -3.01615 0
M  V30 1415 C 134.475 -3.11209 -4.30491 0
M  V30 1416 C 133.514 -4.33055 -4.32585 0
M  V30 1417 N 132.651 -4.32652 -5.52952 0
M  V30 1418 H 137.491 -2.64207 -1.37836 0
M  V30 1419 H 135.028 -1.30959 -0.669937 0
M  V30 1420 H 136.986 -1.86314 -3.73287 0
M  V30 1421 H 135.616 -0.916685 -3.0951 0
M  V30 1422 H 134.668 -3.14203 -2.1443 0
M  V30 1423 H 135.98 -3.99233 -2.99022 0
M  V30 1424 H 135.134 -3.14494 -5.18824 0
M  V30 1425 H 133.873 -2.19106 -4.35711 0
M  V30 1426 H 132.878 -4.29969 -3.42647 0
M  V30 1427 H 134.103 -5.264 -4.29046 0
M  V30 1428 H 132.049 -3.43409 -5.58933 0
M  V30 1429 H 131.966 -5.16392 -5.52155 0
M  V30 1430 H 133.234 -4.40101 -6.43375 0
M  V30 1431 N 137.463 0.71206 -1.40597 0
M  V30 1432 C 138.426 1.80785 -1.40888 0
M  V30 1433 C 139.426 1.57937 -0.302103 0
M  V30 1434 O 140.616 1.64913 -0.561182 0
M  V30 1435 C 137.748 3.18927 -1.20409 0
M  V30 1436 H 138.941 1.81924 -2.38419 0
M  V30 1437 H 136.494 0.91805 -1.26497 0
M  V30 1438 H 137.229 3.23436 -0.236522 0
M  V30 1439 H 137.014 3.36911 -2.00582 0
M  V30 1440 H 138.504 3.98949 -1.23408 0
M  V30 1441 N 138.941 1.26152 0.944643 0
M  V30 1442 C 140.189 1.11271 1.6871 0
M  V30 1443 C 140.51 -0.345166 1.91921 0
M  V30 1444 O 139.78 -1.24387 1.51343 0
M  V30 1445 H 138.36 0.408783 0.625224 0
M  V30 1446 H 141.022 1.58427 1.1352 0
M  V30 1447 H 140.118 1.62879 2.66227 0
M  V30 1448 N 140.419 -1.14872 1.07899 0
M  V30 1449 C 141.351 -2.19425 0.662231 0
M  V30 1450 C 142.364 -1.60231 -0.288079 0
M  V30 1451 O 143.553 -1.78336 -0.076534 0
M  V30 1452 C 140.653 -3.38867 -0.0470695 0
M  V30 1453 C 139.826 -4.27597 0.920831 0
M  V30 1454 C 138.885 -5.25616 0.247805 0
M  V30 1455 O 137.911 -5.62189 0.890599 0
M  V30 1456 N 139.113 -5.71746 -1.00435 0
M  V30 1457 H 141.878 -2.55797 1.56166 0
M  V30 1458 H 139.439 -1.30042 0.964404 0
M  V30 1459 H 141.431 -4.01497 -0.50813 0
M  V30 1460 H 140.001 -3.00864 -0.848523 0
M  V30 1461 H 139.221 -3.61982 1.56087 0
M  V30 1462 H 140.509 -4.83748 1.57688 0
M  V30 1463 H 139.907 -5.44153 -1.54642 0
M  V30 1464 H 138.464 -6.36389 -1.40899 0
M  V30 1465 N 141.898 -0.863906 -1.31812 0
M  V30 1466 C 142.828 -0.330843 -2.31144 0
M  V30 1467 C 143.809 0.575005 -1.60087 0
M  V30 1468 O 144.994 0.493304 -1.8783 0
M  V30 1469 C 142.124 0.47374 -3.44054 0
M  V30 1470 C 141.078 -0.338481 -4.26659 0
M  V30 1471 C 140.404 0.591412 -5.31419 0
M  V30 1472 C 141.704 -1.56926 -4.98168 0
M  V30 1473 H 143.398 -1.16086 -2.75979 0
M  V30 1474 H 140.944 -0.559657 -1.32679 0
M  V30 1475 H 142.897 0.857143 -4.12591 0
M  V30 1476 H 141.621 1.33721 -2.9797 0
M  V30 1477 H 140.28 -0.703754 -3.59782 0
M  V30 1478 H 139.928 1.45199 -4.81587 0
M  V30 1479 H 139.628 0.0519022 -5.87577 0
M  V30 1480 H 141.152 0.97179 -6.02817 0
M  V30 1481 H 142.566 -1.25764 -5.59336 0
M  V30 1482 H 140.963 -2.04739 -5.64094 0
M  V30 1483 H 142.033 -2.32544 -4.25501 0
M  V30 1484 N 143.376 1.44774 -0.622745 0
M  V30 1485 C 144.625 2.01334 -0.121397 0
M  V30 1486 C 144.938 1.49505 1.26125 0
M  V30 1487 O 146.144 1.98139 1.85616 0
M  V30 1488 C 144.6 3.59516 -0.166298 0
M  V30 1489 C 144.208 4.20342 -1.54974 0
M  V30 1490 C 145.952 4.23582 0.279021 0
M  V30 1491 C 143.859 5.70721 -1.55021 0
M  V30 1492 H 142.789 0.752851 -0.0416172 0
M  V30 1493 H 145.44 1.66083 -0.780309 0
M  V30 1494 H 143.822 3.92027 0.559557 0
M  V30 1495 H 144.996 3.99381 -2.29851 0
M  V30 1496 H 143.311 3.68529 -1.93843 0
M  V30 1497 H 145.908 5.33868 0.298083 0
M  V30 1498 H 146.251 3.95327 1.30471 0
M  V30 1499 H 146.784 3.95843 -0.394063 0
M  V30 1500 H 143.523 6.03698 -2.55399 0
M  V30 1501 H 143.043 5.93829 -0.844245 0
M  V30 1502 H 144.722 6.34203 -1.28047 0
M  V30 1503 N 144.854 0.36279 1.53368 0
M  V30 1504 C 146.079 -0.231226 2.06107 0
M  V30 1505 C 146.504 -1.419 1.23474 0
M  V30 1506 O 145.862 -1.79524 0.253128 0
M  V30 1507 C 145.91 -0.605523 3.5548 0
M  V30 1508 O 145.014 -1.70312 3.7559 0
M  V30 1509 H 144.355 -0.034327 0.663112 0
M  V30 1510 H 146.885 0.522584 1.97814 0
M  V30 1511 H 146.895 -0.877314 3.98456 0
M  V30 1512 H 145.57 0.263004 4.15068 0
M  V30 1513 H 144.147 -1.4271 3.44512 0
M  V30 1514 N 146.332 -1.57332 0.0918853 0
M  V30 1515 C 147.242 -2.17368 -0.882505 0
M  V30 1516 C 148.258 -1.14226 -1.31257 0
M  V30 1517 O 149.434 -1.46582 -1.38115 0
M  V30 1518 C 146.499 -2.73962 -2.12476 0
M  V30 1519 C 145.56 -3.92048 -1.7492 0
M  V30 1520 C 144.793 -4.45933 -2.93223 0
M  V30 1521 O 145.016 -3.98764 -4.07852 0
M  V30 1522 O 143.95 -5.36999 -2.71875 0
M  V30 1523 H 147.776 -3.01031 -0.40172 0
M  V30 1524 H 145.361 -1.48813 -0.132291 0
M  V30 1525 H 147.243 -3.10147 -2.85283 0
M  V30 1526 H 145.918 -1.93347 -2.59613 0
M  V30 1527 H 144.825 -3.6068 -0.993025 0
M  V30 1528 H 146.158 -4.74017 -1.32548 0
M  V30 1529 N 147.81 0.181792 -1.56548 0
M  V30 1530 C 148.74 1.22765 -1.98623 0
M  V30 1531 C 149.721 1.46747 -0.860189 0
M  V30 1532 O 150.906 1.58259 -1.12551 0
M  V30 1533 C 148.036 2.56894 -2.33715 0
M  V30 1534 C 146.99 2.475 -3.49182 0
M  V30 1535 C 146.316 3.86023 -3.69986 0
M  V30 1536 C 147.616 1.98866 -4.82959 0
M  V30 1537 H 149.31 0.877942 -2.86239 0
M  V30 1538 H 146.856 0.42088 -1.37712 0
M  V30 1539 H 148.809 3.30253 -2.61746 0
M  V30 1540 H 147.533 2.93632 -1.42997 0
M  V30 1541 H 146.192 1.76596 -3.21262 0
M  V30 1542 H 145.84 4.20136 -2.76576 0
M  V30 1543 H 145.54 3.80609 -4.47672 0
M  V30 1544 H 147.064 4.60984 -4.00407 0
M  V30 1545 H 148.478 2.61992 -5.09934 0
M  V30 1546 H 146.875 2.04424 -5.64208 0
M  V30 1547 H 147.945 0.942465 -4.75653 0
M  V30 1548 N 149.288 1.51039 0.449983 0
M  V30 1549 C 150.535 1.63081 1.20045 0
M  V30 1550 C 150.863 0.341024 1.91487 0
M  V30 1551 O 150.118 -0.674276 1.83717 0
M  V30 1552 C 150.417 2.77556 2.25161 0
M  V30 1553 C 150.083 4.17289 1.70823 0
M  V30 1554 C 148.745 4.55305 1.55725 0
M  V30 1555 C 151.097 5.04536 1.3074 0
M  V30 1556 C 148.425 5.78287 0.989999 0
M  V30 1557 C 150.777 6.28085 0.754482 0
M  V30 1558 C 149.441 6.64885 0.590308 0
M  V30 1559 H 148.711 0.596755 0.439277 0
M  V30 1560 H 151.358 1.85037 0.49333 0
M  V30 1561 H 149.663 2.49771 3.01863 0
M  V30 1562 H 151.36 2.84073 2.83026 0
M  V30 1563 H 147.95 3.8731 1.83546 0
M  V30 1564 H 152.134 4.75782 1.41229 0
M  V30 1565 H 147.39 6.05456 0.850451 0
M  V30 1566 H 151.564 6.95038 0.435324 0
M  V30 1567 H 149.191 7.60055 0.14862 0
M  V30 1568 N 150.766 -0.704594 1.40972 0
M  V30 1569 C 151.994 -1.49354 1.43182 0
M  V30 1570 C 152.409 -1.88768 0.0345508 0
M  V30 1571 O 151.766 -1.56184 -0.944081 0
M  V30 1572 C 151.817 -2.76187 2.33244 0
M  V30 1573 O 151.538 -2.38436 3.67532 0
M  V30 1574 C 153.039 -3.7 2.44162 0
M  V30 1575 H 150.259 -0.460559 0.487982 0
M  V30 1576 H 152.803 -0.868261 1.85153 0
M  V30 1577 H 150.958 -3.34974 1.94606 0
M  V30 1578 H 151.372 -3.20126 4.15475 0
M  V30 1579 H 152.846 -4.55803 3.11364 0
M  V30 1580 H 153.323 -4.13867 1.47006 0
M  V30 1581 H 153.929 -3.17121 2.83398 0
M  V30 1582 N 152.244 -1.26651 -0.937939 0
M  V30 1583 C 153.192 -1.08308 -2.05845 0
M  V30 1584 C 154.186 -0.0090757 -1.69398 0
M  V30 1585 O 155.392 -0.166007 -1.79233 0
M  V30 1586 H 151.767 -0.333416 -0.674046 0
M  V30 1587 H 153.738 -2.03261 -2.18467 0
M  V30 1588 C 152.487 -0.736229 -3.39816 0
M  V30 1589 H 151.81 -1.55453 -3.6834 0
M  V30 1590 H 153.25 -0.64769 -4.19024 0
M  V30 1591 C 151.709 0.558824 -3.32233 0
M  V30 1592 O 152.239 1.59621 -3.68624 0
M  V30 1593 N 150.445 0.550657 -2.85335 0
M  V30 1594 H 149.992 -0.293943 -2.55917 0
M  V30 1595 H 149.95 1.41726 -2.80644 0
M  V30 1596 N 153.722 1.14298 -1.08507 0
M  V30 1597 C 155.138 1.37347 -0.812901 0
M  V30 1598 C 155.338 1.93052 0.577325 0
M  V30 1599 O 154.394 2.14389 1.33393 0
M  V30 1600 C 155.707 2.33359 -1.89642 0
M  V30 1601 C 157.255 2.46996 -1.92255 0
M  V30 1602 C 157.73 3.46309 -2.99724 0
M  V30 1603 N 159.221 3.53853 -2.98902 0
M  V30 1604 C 159.956 4.3055 -3.787 0
M  V30 1605 N 159.452 5.10482 -4.6838 0
M  V30 1606 N 161.245 4.25757 -3.66998 0
M  V30 1607 H 153.396 0.764867 -1.9815 0
M  V30 1608 H 155.659 0.398966 -0.859959 0
M  V30 1609 H 155.365 1.99565 -2.89597 0
M  V30 1610 H 155.239 3.33274 -1.76659 0
M  V30 1611 H 157.626 2.80081 -0.929445 0
M  V30 1612 H 157.707 1.47039 -2.09316 0
M  V30 1613 H 157.351 3.13957 -3.99241 0
M  V30 1614 H 157.281 4.46049 -2.79907 0
M  V30 1615 H 159.772 2.96812 -2.33904 0
M  V30 1616 H 160.085 5.66284 -5.25873 0
M  V30 1617 H 158.43 5.09747 -4.72422 0
M  V30 1618 H 161.621 3.62383 -2.96304 0
M  V30 1619 H 161.794 4.85279 -4.29427 0
M  V30 1620 N 155.201 0.870884 1.31352 0
M  V30 1621 C 156.148 0.325425 2.28494 0
M  V30 1622 C 157.118 -0.576615 1.5577 0
M  V30 1623 O 158.303 -0.508059 1.83911 0
M  V30 1624 C 155.443 -0.466283 3.41935 0
M  V30 1625 C 154.556 0.463378 4.29508 0
M  V30 1626 C 153.691 -0.342544 5.30094 0
M  V30 1627 C 152.73 0.583486 6.09313 0
M  V30 1628 N 151.867 -0.186244 7.01853 0
M  V30 1629 H 156.707 1.15901 2.74538 0
M  V30 1630 H 154.244 0.58294 1.35056 0
M  V30 1631 H 156.202 -0.941085 4.06447 0
M  V30 1632 H 154.832 -1.26456 2.97 0
M  V30 1633 H 153.884 1.05663 3.65431 0
M  V30 1634 H 155.196 1.1734 4.84802 0
M  V30 1635 H 154.35 -0.879816 6.00287 0
M  V30 1636 H 153.089 -1.08585 4.75458 0
M  V30 1637 H 152.094 1.13251 5.3801 0
M  V30 1638 H 153.319 1.32566 6.66035 0
M  V30 1639 H 151.265 -0.912348 6.49625 0
M  V30 1640 H 151.182 0.464422 7.54572 0
M  V30 1641 H 152.45 -0.704716 7.76308 0
M  V30 1642 N 156.679 -1.44442 0.630414 0
M  V30 1643 C 157.589 -2.34476 -0.0761693 0
M  V30 1644 C 158.605 -1.52576 -0.836449 0
M  V30 1645 O 159.781 -1.85307 -0.788874 0
M  V30 1646 C 156.846 -3.30545 -1.04599 0
M  V30 1647 C 155.907 -4.28352 -0.28516 0
M  V30 1648 C 155.14 -5.19831 -1.20878 0
M  V30 1649 O 155.363 -5.15223 -2.44747 0
M  V30 1650 O 154.297 -5.97892 -0.693491 0
M  V30 1651 H 158.123 -2.96345 0.664324 0
M  V30 1652 H 155.708 -1.44203 0.39061 0
M  V30 1653 H 157.59 -3.89681 -1.60396 0
M  V30 1654 H 156.265 -2.7121 -1.76711 0
M  V30 1655 H 155.172 -3.72764 0.315837 0
M  V30 1656 H 156.505 -4.90605 0.395924 0
M  V30 1657 N 158.157 -0.370918 -1.53173 0
M  V30 1658 C 159.105 0.488101 -2.27421 0
M  V30 1659 C 160.099 1.07884 -1.30604 0
M  V30 1660 O 161.305 1.02143 -1.48212 0
M  V30 1661 H 157.68 0.176134 -0.731082 0
M  V30 1662 H 159.651 -0.159815 -2.97972 0
M  V30 1663 C 158.4 1.61306 -3.08019 0
M  V30 1664 H 157.723 1.1678 -3.82364 0
M  V30 1665 H 159.163 2.18872 -3.63141 0
M  V30 1666 C 157.622 2.55848 -2.19188 0
M  V30 1667 O 158.152 3.58799 -1.80626 0
M  V30 1668 N 156.358 2.2516 -1.83715 0
M  V30 1669 H 155.905 1.41476 -2.15273 0
M  V30 1670 H 155.863 2.8867 -1.24567 0
M  V30 1671 N 159.635 1.57281 -0.100228 0
M  V30 1672 C 160.884 1.93713 0.561984 0
M  V30 1673 C 161.197 0.984492 1.69018 0
M  V30 1674 O 162.403 1.24273 2.41389 0
M  V30 1675 C 160.859 3.4421 1.05106 0
M  V30 1676 C 160.467 4.47975 -0.0476628 0
M  V30 1677 C 162.211 3.89595 1.68571 0
M  V30 1678 C 160.118 5.89631 0.457055 0
M  V30 1679 H 159.048 0.723082 0.2137 0
M  V30 1680 H 161.699 1.82644 -0.177057 0
M  V30 1681 H 160.081 3.50449 1.84395 0
M  V30 1682 H 161.255 4.53385 -0.823333 0
M  V30 1683 H 159.57 4.1223 -0.587816 0
M  V30 1684 H 162.167 4.92832 2.07414 0
M  V30 1685 H 162.51 3.28526 2.55688 0
M  V30 1686 H 163.043 3.86078 0.958562 0
M  V30 1687 H 159.782 6.54411 -0.377616 0
M  V30 1688 H 159.302 5.87681 1.19962 0
M  V30 1689 H 160.981 6.40363 0.92437 0
M  V30 1690 N 161.113 -0.173488 1.56642 0
M  V30 1691 C 162.524 -0.736155 1.71574 0
M  V30 1692 C 162.875 -1.82888 0.710389 0
M  V30 1693 O 162 -2.16017 -0.1287 0
M  V30 1694 C 162.595 -1.34211 3.11083 0
M  V30 1695 C 161.154 -1.85162 3.27707 0
M  V30 1696 C 160.301 -0.729765 2.67525 0
M  V30 1697 H 163.252 0.0518786 1.58615 0
M  V30 1698 H 163.273 -2.21178 3.09613 0
M  V30 1699 H 162.785 -0.546579 3.84232 0
M  V30 1700 H 160.886 -2.67366 2.59512 0
M  V30 1701 H 160.999 -1.99855 4.35425 0
M  V30 1702 H 159.363 -1.14965 2.27278 0
M  V30 1703 H 160.146 0.0538806 3.43258 0
M  V30 1704 N 162.591 -1.51276 -0.441967 0
M  V30 1705 C 163.521 -1.752 -1.54361 0
M  V30 1706 C 164.502 -0.601682 -1.59103 0
M  V30 1707 O 165.687 -0.843913 -1.74905 0
M  V30 1708 C 162.817 -1.87282 -2.92477 0
M  V30 1709 C 161.771 -3.02687 -3.02596 0
M  V30 1710 C 161.097 -2.99947 -4.42647 0
M  V30 1711 C 162.397 -4.4273 -2.77106 0
M  V30 1712 H 164.091 -2.67442 -1.34592 0
M  V30 1713 H 161.637 -1.28694 -0.646048 0
M  V30 1714 H 163.59 -2.02602 -3.695 0
M  V30 1715 H 162.314 -0.916844 -3.13467 0
M  V30 1716 H 160.973 -2.87065 -2.28012 0
M  V30 1717 H 160.621 -2.02136 -4.60597 0
M  V30 1718 H 160.321 -3.77439 -4.50348 0
M  V30 1719 H 161.845 -3.17354 -5.2165 0
M  V30 1720 H 163.259 -4.58727 -3.43864 0
M  V30 1721 H 161.656 -5.21893 -2.96222 0
M  V30 1722 H 162.726 -4.53087 -1.72744 0
M  V30 1723 N 164.069 0.697108 -1.41344 0
M  V30 1724 C 165.016 1.81106 -1.43071 0
M  V30 1725 C 165.986 1.63632 -0.285275 0
M  V30 1726 O 167.171 1.84504 -0.486091 0
M  V30 1727 C 164.311 3.18975 -1.31715 0
M  V30 1728 C 163.424 3.47892 -2.56115 0
M  V30 1729 C 162.559 4.75367 -2.37064 0
M  V30 1730 C 161.598 4.97247 -3.56948 0
M  V30 1731 N 160.735 6.15947 -3.36977 0
M  V30 1732 H 165.575 1.78965 -2.38276 0
M  V30 1733 H 163.112 0.873975 -1.18322 0
M  V30 1734 H 165.07 3.98615 -1.23133 0
M  V30 1735 H 163.7 3.20297 -0.401183 0
M  V30 1736 H 162.752 2.62669 -2.75153 0
M  V30 1737 H 164.064 3.59962 -3.45295 0
M  V30 1738 H 163.218 5.63059 -2.25941 0
M  V30 1739 H 161.957 4.65541 -1.45338 0
M  V30 1740 H 160.962 4.08004 -3.68527 0
M  V30 1741 H 162.187 5.08934 -4.49626 0
M  V30 1742 H 160.133 6.07336 -2.47949 0
M  V30 1743 H 160.05 6.28777 -4.19732 0
M  V30 1744 H 161.318 7.06377 -3.29623 0
M  V30 1745 N 165.547 1.27147 0.931209 0
M  V30 1746 C 166.477 1.12081 2.04842 0
M  V30 1747 C 167.458 0.0232364 1.70084 0
M  V30 1748 O 168.643 0.197085 1.93197 0
M  V30 1749 C 165.773 0.76354 3.38803 0
M  V30 1750 C 164.727 1.81396 3.87659 0
M  V30 1751 C 164.053 1.31075 5.18385 0
M  V30 1752 C 165.353 3.21739 4.11438 0
M  V30 1753 H 167.047 2.05537 2.17703 0
M  V30 1754 H 164.593 0.989603 1.04608 0
M  V30 1755 H 166.546 0.644982 4.16435 0
M  V30 1756 H 165.27 -0.206727 3.25945 0
M  V30 1757 H 163.929 1.92136 3.12217 0
M  V30 1758 H 163.577 0.330037 5.01916 0
M  V30 1759 H 163.277 2.013 5.52044 0
M  V30 1760 H 164.801 1.20506 5.98591 0
M  V30 1761 H 166.215 3.14019 4.79651 0
M  V30 1762 H 164.612 3.89644 4.56397 0
M  V30 1763 H 165.682 3.67054 3.16859 0
M  V30 1764 N 167.025 -1.13721 1.09112 0
M  V30 1765 C 168.25 -1.89314 0.847053 0
M  V30 1766 C 168.675 -1.78416 -0.595774 0
M  V30 1767 O 168.033 -1.12942 -1.41823 0
M  V30 1768 C 168.081 -3.3701 1.28284 0
M  V30 1769 O 167.185 -4.10054 0.439267 0
M  V30 1770 H 166.526 -0.588745 0.307044 0
M  V30 1771 H 169.056 -1.43902 1.45442 0
M  V30 1772 H 169.066 -3.87834 1.26683 0
M  V30 1773 H 167.741 -3.4426 2.33363 0
M  V30 1774 H 166.318 -3.69266 0.519312 0
M  V30 1775 N 168.503 -0.877838 -1.30888 0
M  V30 1776 C 169.413 -0.343096 -2.32078 0
M  V30 1777 C 170.429 0.551022 -1.65045 0
M  V30 1778 O 171.605 0.445854 -1.96403 0
M  V30 1779 C 168.67 0.439905 -3.43898 0
M  V30 1780 C 167.731 -0.483111 -4.26573 0
M  V30 1781 C 166.964 0.262616 -5.33053 0
M  V30 1782 O 167.187 1.48967 -5.50604 0
M  V30 1783 O 166.121 -0.383593 -6.00676 0
M  V30 1784 H 169.947 -1.18203 -2.79753 0
M  V30 1785 H 167.532 -0.64145 -1.34929 0
M  V30 1786 H 169.414 0.883504 -4.12034 0
M  V30 1787 H 168.089 1.25526 -2.98371 0
M  V30 1788 H 166.996 -0.975374 -3.61161 0
M  V30 1789 H 168.329 -1.26427 -4.75686 0
M  V30 1790 N 169.982 1.44106 -0.638065 0
M  V30 1791 C 171.259 1.95453 -0.0759321 0
M  V30 1792 C 171.639 1.57984 1.40015 0
M  V30 1793 O 170.987 0.857361 2.11806 0
M  V30 1794 C 171.197 3.47655 -0.306132 0
M  V30 1795 C 172.545 4.24114 -0.203008 0
M  V30 1796 O 173.569 3.55405 -0.237871 0
M  V30 1797 O 172.428 5.46381 -0.113827 0
M  V30 1798 H 169.522 0.826797 0.0183332 0
M  V30 1799 H 172.068 1.54122 -0.710251 0
M  V30 1800 H 170.84 3.68 -1.3301 0
M  V30 1801 H 170.463 3.95949 0.361991 0
M  V30 1802 N 171.46 0.379036 1.52974 0
M  V30 1803 C 172.7 -0.206325 2.03356 0
M  V30 1804 C 173.064 -1.44892 1.25977 0
M  V30 1805 O 174.265 -2.11078 1.66432 0
M  V30 1806 C 172.536 -0.477887 3.54191 0
M  V30 1807 S 174.095 -1.035 4.26419 0
M  V30 1808 H 170.913 -0.0590259 0.708546 0
M  V30 1809 H 173.515 0.525013 1.88319 0
M  V30 1810 H 172.219 0.433745 4.08101 0
M  V30 1811 H 171.75 -1.23793 3.73415 0
M  V30 1812 H 173.765 -2.31821 4.38718 0
M  V30 1813 N 172.938 -1.57226 0.108567 0
M  V30 1814 C 173.868 -2.17778 -0.84232 0
M  V30 1815 C 174.849 -1.11487 -1.2847 0
M  V30 1816 O 176.034 -1.39681 -1.34918 0
M  V30 1817 C 173.164 -2.76888 -2.09644 0
M  V30 1818 C 172.118 -3.88669 -1.79221 0
M  V30 1819 C 171.444 -4.34541 -3.11574 0
M  V30 1820 C 172.744 -5.11251 -1.06864 0
M  V30 1821 H 174.438 -2.97489 -0.337774 0
M  V30 1822 H 171.984 -1.43097 -0.161025 0
M  V30 1823 H 173.937 -3.17904 -2.76614 0
M  V30 1824 H 172.661 -1.94451 -2.62405 0
M  V30 1825 H 171.32 -3.48213 -1.14644 0
M  V30 1826 H 170.968 -3.48977 -3.62249 0
M  V30 1827 H 170.668 -5.09914 -2.91996 0
M  V30 1828 H 172.192 -4.782 -3.7968 0
M  V30 1829 H 173.606 -5.49352 -1.63968 0
M  V30 1830 H 172.003 -5.9214 -0.974178 0
M  V30 1831 H 173.073 -4.8487 -0.0536168 0
M  V30 1832 N 174.416 0.165178 -1.56732 0
M  V30 1833 C 175.646 0.894919 -1.86212 0
M  V30 1834 C 176.054 1.76066 -0.692627 0
M  V30 1835 O 175.397 1.80387 0.347303 0
M  V30 1836 C 175.459 1.8174 -3.10179 0
M  V30 1837 C 175.123 1.13064 -4.42793 0
M  V30 1838 C 176.12 0.493169 -5.17556 0
M  V30 1839 C 173.805 1.12556 -4.89527 0
M  V30 1840 C 175.799 -0.140209 -6.37246 0
M  V30 1841 C 173.486 0.488366 -6.09145 0
M  V30 1842 C 174.484 -0.143411 -6.82849 0
M  V30 1843 O 174.172 -0.77055 -8.00199 0
M  V30 1844 H 173.904 0.265114 -0.621844 0
M  V30 1845 H 176.458 0.168242 -2.0471 0
M  V30 1846 H 174.688 2.58455 -2.87642 0
M  V30 1847 H 176.377 2.4175 -3.26055 0
M  V30 1848 H 177.143 0.489023 -4.82528 0
M  V30 1849 H 173.022 1.60672 -4.32094 0
M  V30 1850 H 176.566 -0.633932 -6.94714 0
M  V30 1851 H 172.463 0.490116 -6.43637 0
M  V30 1852 H 173.231 -0.670408 -8.1575 0
M  V30 1853 N 175.894 1.51508 0.433938 0
M  V30 1854 C 176.824 1.76016 1.53429 0
M  V30 1855 C 177.805 0.610112 1.58782 0
M  V30 1856 O 178.99 0.853177 1.74455 0
M  V30 1857 C 176.12 1.88831 2.9148 0
M  V30 1858 C 175.074 3.04288 3.00987 0
M  V30 1859 C 174.4 3.0229 4.4105 0
M  V30 1860 C 175.7 4.44193 2.74754 0
M  V30 1861 H 177.394 2.68152 1.33171 0
M  V30 1862 H 174.94 1.29035 0.639214 0
M  V30 1863 H 176.893 2.04559 3.6842 0
M  V30 1864 H 175.617 0.933455 3.12976 0
M  V30 1865 H 174.276 2.8827 2.26486 0
M  V30 1866 H 173.924 2.04576 4.59519 0
M  V30 1867 H 173.624 3.79822 4.4834 0
M  V30 1868 H 175.148 3.20116 5.1996 0
M  V30 1869 H 176.562 4.60544 3.41426 0
M  V30 1870 H 174.959 5.23457 2.9345 0
M  V30 1871 H 176.029 4.53996 1.70339 0
M  V30 1872 N 177.372 -0.689602 1.41712 0
M  V30 1873 C 178.32 -1.82475 1.44242 0
M  V30 1874 C 179.314 -1.66354 0.319774 0
M  V30 1875 O 180.52 -1.73143 0.492089 0
M  V30 1876 H 176.895 -0.601416 0.451445 0
M  V30 1877 H 178.866 -1.77458 2.39899 0
M  V30 1878 C 177.615 -3.20535 1.3473 0
M  V30 1879 H 176.938 -3.33559 2.20405 0
M  V30 1880 H 178.378 -4.00023 1.40562 0
M  V30 1881 C 176.837 -3.36846 0.0603281 0
M  V30 1882 O 177.367 -3.91656 -0.892663 0
M  V30 1883 N 175.573 -2.90595 -0.0177039 0
M  V30 1884 H 175.12 -2.46178 0.758572 0
M  V30 1885 H 175.078 -3.01886 -0.878201 0
M  V30 1886 N 178.85 -1.27639 -0.924453 0
M  V30 1887 C 180.099 -1.13549 -1.66702 0
M  V30 1888 C 180.412 0.317487 -1.93006 0
M  V30 1889 O 181.618 0.579333 -2.65247 0
M  V30 1890 C 180.074 -1.98426 -3.00259 0
M  V30 1891 C 179.682 -3.484 -2.81641 0
M  V30 1892 C 181.426 -1.92993 -3.78092 0
M  V30 1893 C 179.333 -4.25464 -4.10773 0
M  V30 1894 H 178.263 -0.421351 -0.625283 0
M  V30 1895 H 180.914 -1.52085 -1.02676 0
M  V30 1896 H 179.296 -1.52736 -3.6536 0
M  V30 1897 H 180.47 -4.01973 -2.25287 0
M  V30 1898 H 178.785 -3.55245 -2.17232 0
M  V30 1899 H 181.382 -2.47844 -4.7379 0
M  V30 1900 H 181.725 -0.904281 -4.0636 0
M  V30 1901 H 182.258 -2.36595 -3.19793 0
M  V30 1902 H 178.997 -5.28566 -3.87683 0
M  V30 1903 H 178.517 -3.76667 -4.66779 0
M  V30 1904 H 180.196 -4.34812 -4.79111 0
M  V30 1905 N 180.328 1.1314 -1.09713 0
M  V30 1906 C 181.558 1.88048 -0.855656 0
M  V30 1907 C 181.966 1.79537 0.596919 0
M  V30 1908 O 181.309 1.16196 1.42282 0
M  V30 1909 C 181.371 3.38314 -1.21589 0
M  V30 1910 C 181.035 3.70605 -2.67397 0
M  V30 1911 C 182.032 3.69596 -3.65643 0
M  V30 1912 C 179.717 4.0017 -3.03593 0
M  V30 1913 C 181.711 3.977 -4.9811 0
M  V30 1914 C 179.398 4.27935 -4.36251 0
M  V30 1915 C 180.396 4.26685 -5.33318 0
M  V30 1916 O 180.084 4.53767 -6.63589 0
M  V30 1917 H 179.816 0.60208 -0.307368 0
M  V30 1918 H 182.37 1.44128 -1.46343 0
M  V30 1919 H 180.6 3.82752 -0.551177 0
M  V30 1920 H 182.289 3.94552 -0.953083 0
M  V30 1921 H 183.055 3.46826 -3.39023 0
M  V30 1922 H 178.934 4.00289 -2.2867 0
M  V30 1923 H 182.478 3.9664 -5.73866 0
M  V30 1924 H 178.375 4.50178 -4.62613 0
M  V30 1925 H 179.143 4.71422 -6.69107 0
M  V30 1926 N 181.806 0.884767 1.30421 0
M  V30 1927 C 183.034 0.518044 2.0031 0
M  V30 1928 C 183.449 -0.893408 1.66324 0
M  V30 1929 O 182.806 -1.5875 0.900262 0
M  V30 1930 C 182.857 0.682997 3.54989 0
M  V30 1931 O 182.578 2.03888 3.87764 0
M  V30 1932 C 184.079 0.31924 4.42149 0
M  V30 1933 H 181.299 0.200265 0.640418 0
M  V30 1934 H 183.843 1.19001 1.6631 0
M  V30 1935 H 181.998 0.0584052 3.87356 0
M  V30 1936 H 182.412 2.05735 4.82466 0
M  V30 1937 H 183.886 0.485555 5.4986 0
M  V30 1938 H 184.363 -0.742717 4.32875 0
M  V30 1939 H 184.969 0.920147 4.15227 0
M  V30 1940 N 183.284 -1.43765 0.645699 0
M  V30 1941 C 184.695 -1.85193 0.236719 0
M  V30 1942 C 185.046 -1.54045 -1.21509 0
M  V30 1943 O 184.171 -0.985694 -1.92647 0
M  V30 1944 C 184.766 -3.36151 0.422845 0
M  V30 1945 C 183.325 -3.76338 0.0682492 0
M  V30 1946 C 182.472 -2.67538 0.729306 0
M  V30 1947 H 185.423 -1.34025 0.849883 0
M  V30 1948 H 185.444 -3.79032 -0.333904 0
M  V30 1949 H 184.956 -3.5879 1.47958 0
M  V30 1950 H 183.057 -3.59312 -0.986179 0
M  V30 1951 H 183.17 -4.76603 0.488469 0
M  V30 1952 H 181.534 -2.54176 0.163235 0
M  V30 1953 H 182.317 -2.93006 1.78892 0
M  V30 1954 N 184.763 -0.387143 -1.52771 0
M  V30 1955 C 185.726 0.436939 -2.24997 0
M  V30 1956 C 186.726 0.991991 -1.26555 0
M  V30 1957 O 187.916 0.874335 -1.50669 0
M  V30 1958 C 185.048 1.61281 -3.00335 0
M  V30 1959 H 186.241 -0.195365 -2.99263 0
M  V30 1960 H 183.794 -0.139218 -1.55679 0
M  V30 1961 H 184.529 2.2826 -2.30364 0
M  V30 1962 H 184.314 1.22154 -3.72587 0
M  V30 1963 H 185.804 2.19629 -3.5518 0
M  V30 1964 N 186.241 1.57166 -0.116904 0
M  V30 1965 C 187.518 1.86645 0.585049 0
M  V30 1966 C 187.898 1.0177 1.84949 0
M  V30 1967 O 187.246 0.0960379 2.28298 0
M  V30 1968 C 187.456 3.37736 0.879507 0
M  V30 1969 C 188.804 4.06289 1.23348 0
M  V30 1970 O 189.828 3.42743 0.969836 0
M  V30 1971 O 188.687 5.18455 1.7282 0
M  V30 1972 H 185.781 0.772593 0.295007 0
M  V30 1973 H 188.327 1.69025 -0.151249 0
M  V30 1974 H 187.099 3.91296 -0.0166136 0
M  V30 1975 H 186.722 3.6078 1.67103 0
M  V30 1976 N 187.719 -0.156864 1.56817 0
M  V30 1977 C 188.649 -1.19589 2.00551 0
M  V30 1978 C 189.63 -1.4536 0.883426 0
M  V30 1979 O 190.815 -1.56449 1.15054 0
M  V30 1980 C 187.945 -2.53143 2.37773 0
M  V30 1981 C 186.899 -2.41913 3.53075 0
M  V30 1982 C 186.225 -3.80088 3.76081 0
M  V30 1983 C 187.525 -1.91157 4.86062 0
M  V30 1984 H 189.219 -0.832293 2.87599 0
M  V30 1985 H 186.765 -0.398918 1.38364 0
M  V30 1986 H 188.718 -3.26047 2.66967 0
M  V30 1987 H 187.442 -2.91319 1.4765 0
M  V30 1988 H 186.101 -1.71462 3.24031 0
M  V30 1989 H 185.749 -4.15683 2.83225 0
M  V30 1990 H 185.449 -3.73439 4.53671 0
M  V30 1991 H 186.973 -4.54556 4.0769 0
M  V30 1992 H 188.387 -2.53846 5.14038 0
M  V30 1993 H 186.784 -1.95422 5.67389 0
M  V30 1994 H 187.854 -0.866673 4.77092 0
M  V30 1995 N 189.197 -1.51736 -0.425897 0
M  V30 1996 C 190.425 -1.68794 -1.1965 0
M  V30 1997 C 190.84 -0.390164 -1.84725 0
M  V30 1998 O 190.197 0.632376 -1.71194 0
M  V30 1999 C 190.248 -2.81174 -2.27208 0
M  V30 2000 O 189.969 -4.05925 -1.64793 0
M  V30 2001 C 191.47 -3.09599 -3.17275 0
M  V30 2002 H 188.69 -0.566128 -0.360194 0
M  V30 2003 H 191.234 -1.98211 -0.503249 0
M  V30 2004 H 189.389 -2.54324 -2.9223 0
M  V30 2005 H 189.803 -4.68423 -2.35967 0
M  V30 2006 H 191.277 -3.91786 -3.88854 0
M  V30 2007 H 191.754 -2.22468 -3.78688 0
M  V30 2008 H 192.36 -3.38151 -2.57941 0
M  V30 2009 N 190.675 0.682077 -1.42076 0
M  V30 2010 C 191.622 1.79578 -1.44984 0
M  V30 2011 C 192.592 1.6332 -0.302614 0
M  V30 2012 O 193.777 1.83978 -0.505633 0
M  V30 2013 C 190.917 3.1756 -1.35091 0
M  V30 2014 C 190.03 3.45156 -2.59791 0
M  V30 2015 C 189.165 4.72826 -2.42093 0
M  V30 2016 C 188.204 4.93433 -3.62202 0
M  V30 2017 N 187.341 6.12338 -3.43491 0
M  V30 2018 H 192.181 1.76427 -2.40161 0
M  V30 2019 H 189.718 0.861376 -1.19242 0
M  V30 2020 H 191.676 3.97287 -1.27354 0
M  V30 2021 H 190.306 3.19854 -0.435133 0
M  V30 2022 H 189.358 2.59736 -2.77923 0
M  V30 2023 H 190.67 3.5628 -3.49094 0
M  V30 2024 H 189.824 5.60631 -2.319 0
M  V30 2025 H 188.563 4.63973 -1.50268 0
M  V30 2026 H 187.568 4.04073 -3.72834 0
M  V30 2027 H 188.793 5.04136 -4.54998 0
M  V30 2028 H 186.739 6.04672 -2.54377 0
M  V30 2029 H 186.656 6.2429 -4.26377 0
M  V30 2030 H 187.924 7.02841 -3.37097 0
M  V30 2031 N 192.153 1.28127 0.917671 0
M  V30 2032 C 193.1 1.11717 2.0196 0
M  V30 2033 C 194.07 0.0153929 1.66093 0
M  V30 2034 O 195.255 0.179596 1.89953 0
M  V30 2035 C 192.395 0.780927 3.36148 0
M  V30 2036 C 191.508 1.96135 3.84909 0
M  V30 2037 C 190.643 1.56609 5.0759 0
M  V30 2038 C 189.682 2.71339 5.48673 0
M  V30 2039 N 188.819 2.32332 6.62545 0
M  V30 2040 H 193.659 2.06003 2.15329 0
M  V30 2041 H 191.196 1.02535 1.05475 0
M  V30 2042 H 193.154 0.56675 4.13333 0
M  V30 2043 H 191.784 -0.124998 3.22558 0
M  V30 2044 H 190.836 2.28777 3.03916 0
M  V30 2045 H 192.148 2.82165 4.1132 0
M  V30 2046 H 191.302 1.31374 5.92305 0
M  V30 2047 H 190.041 0.677014 4.82978 0
M  V30 2048 H 189.046 2.97276 4.62501 0
M  V30 2049 H 190.271 3.60882 5.75274 0
M  V30 2050 H 188.217 1.45889 6.39572 0
M  V30 2051 H 188.134 3.11899 6.88662 0
M  V30 2052 H 189.402 2.10371 7.50576 0
M  V30 2053 N 193.631 -1.12557 1.10312 0
M  V30 2054 C 194.579 -2.20325 0.745629 0
M  V30 2055 C 195.573 -1.67429 -0.25763 0
M  V30 2056 O 196.779 -1.79612 -0.118132 0
M  V30 2057 H 193.154 -0.718118 0.223182 0
M  V30 2058 H 195.125 -2.47733 1.66346 0
M  V30 2059 C 193.874 -3.47168 0.192262 0
M  V30 2060 H 193.197 -3.88215 0.955475 0
M  V30 2061 H 194.637 -4.23995 -0.0198274 0
M  V30 2062 C 193.096 -3.19298 -1.07472 0
M  V30 2063 O 193.626 -3.3891 -2.15645 0
M  V30 2064 N 191.832 -2.73113 -0.992847 0
M  V30 2065 H 191.379 -2.57354 -0.112474 0
M  V30 2066 H 191.337 -2.54842 -1.84127 0
M  V30 2067 N 195.109 -0.891671 -1.2995 0
M  V30 2068 C 196.525 -0.58662 -1.48428 0
M  V30 2069 C 196.725 0.873951 -1.81561 0
M  V30 2070 O 195.781 1.65471 -1.90724 0
M  V30 2071 C 197.094 -1.50553 -2.60296 0
M  V30 2072 C 198.642 -1.50988 -2.74175 0
M  V30 2073 C 199.117 -2.41488 -3.89163 0
M  V30 2074 N 200.608 -2.39489 -3.96483 0
M  V30 2075 C 201.343 -3.06223 -4.84784 0
M  V30 2076 N 200.839 -3.82206 -5.77833 0
M  V30 2077 N 202.632 -2.95421 -4.78208 0
M  V30 2078 H 194.783 -1.83644 -1.06718 0
M  V30 2079 H 197.046 -0.786455 -0.529332 0
M  V30 2080 H 196.752 -2.54581 -2.42654 0
M  V30 2081 H 196.626 -1.22008 -3.56923 0
M  V30 2082 H 199.013 -0.47708 -2.91218 0
M  V30 2083 H 199.094 -1.83567 -1.78148 0
M  V30 2084 H 198.738 -3.44857 -3.72876 0
M  V30 2085 H 198.668 -2.06222 -4.84541 0
M  V30 2086 H 201.159 -1.84278 -3.29924 0
M  V30 2087 H 201.472 -4.302 -6.41988 0
M  V30 2088 H 199.817 -3.86313 -5.77743 0
M  V30 2089 H 203.008 -2.35581 -4.04499 0
M  V30 2090 H 203.181 -3.47704 -5.46814 0
M  V30 2091 N 196.587 1.43421 -0.653314 0
M  V30 2092 C 197.517 2.33487 0.0246656 0
M  V30 2093 C 198.498 1.49475 0.811863 0
M  V30 2094 O 199.683 1.78139 0.773322 0
M  V30 2095 C 196.813 3.32841 0.99166 0
M  V30 2096 C 195.767 4.26842 0.314568 0
M  V30 2097 C 195.093 5.16236 1.39302 0
M  V30 2098 C 196.393 5.16243 -0.793095 0
M  V30 2099 H 198.087 2.90427 -0.727481 0
M  V30 2100 H 195.633 1.39649 -0.351287 0
M  V30 2101 H 197.586 3.94747 1.47487 0
M  V30 2102 H 196.31 2.74158 1.77497 0
M  V30 2103 H 194.969 3.663 -0.148199 0
M  V30 2104 H 194.617 4.53891 2.16776 0
M  V30 2105 H 194.317 5.79948 0.945223 0
M  V30 2106 H 195.841 5.81015 1.87759 0
M  V30 2107 H 197.255 5.71958 -0.392039 0
M  V30 2108 H 195.652 5.88676 -1.16536 0
M  V30 2109 H 196.722 4.55927 -1.65103 0
M  V30 2110 N 198.065 0.39524 1.52563 0
M  V30 2111 C 199.476 -0.0774719 1.86539 0
M  V30 2112 C 199.827 -1.45641 1.31466 0
M  V30 2113 O 198.952 -2.06459 0.648367 0
M  V30 2114 C 199.547 -0.147356 3.38479 0
M  V30 2115 C 198.106 -0.564373 3.72145 0
M  V30 2116 C 197.253 0.269919 2.75983 0
M  V30 2117 H 200.204 0.612876 1.46388 0
M  V30 2118 H 200.225 -0.965343 3.68051 0
M  V30 2119 H 199.737 0.856387 3.78534 0
M  V30 2120 H 197.838 -1.57527 3.37663 0
M  V30 2121 H 197.951 -0.318402 4.78041 0
M  V30 2122 H 196.315 -0.265696 2.5331 0
M  V30 2123 H 197.098 1.27175 3.18875 0
M  V30 2124 N 199.544 -1.57102 0.125237 0
M  V30 2125 C 200.79 -1.95697 -0.532035 0
M  V30 2126 C 201.123 -1.009 -1.6593 0
M  V30 2127 O 200.398 -0.047347 -1.94442 0
M  V30 2128 C 200.681 -3.44181 -1.05884 0
M  V30 2129 C 200.534 -4.49752 0.0654392 0
M  V30 2130 C 201.853 -3.94655 -1.9477 0
M  V30 2131 H 198.972 -0.711571 -0.191925 0
M  V30 2132 H 201.614 -1.88923 0.20206 0
M  V30 2133 H 199.764 -3.50085 -1.68442 0
M  V30 2134 H 201.436 -4.55943 0.700982 0
M  V30 2135 H 199.679 -4.27653 0.727709 0
M  V30 2136 H 200.35 -5.50924 -0.344505 0
M  V30 2137 H 202.826 -3.91094 -1.42074 0
M  V30 2138 H 201.702 -4.99057 -2.28546 0
M  V30 2139 H 201.963 -3.35718 -2.87656 0
M  V30 2140 N 201.022 0.148545 -1.56898 0
M  V30 2141 C 201.955 1.21293 -1.93296 0
M  V30 2142 C 202.933 1.41637 -0.798599 0
M  V30 2143 O 204.117 1.56275 -1.05406 0
M  V30 2144 C 201.244 2.5721 -2.20365 0
M  V30 2145 C 200.29 2.53469 -3.4301 0
M  V30 2146 S 201.123 2.00315 -4.96623 0
M  V30 2147 C 202.279 3.37964 -5.26812 0
M  V30 2148 H 202.512 0.902393 -2.83274 0
M  V30 2149 H 200.045 0.354094 -1.50285 0
M  V30 2150 H 202.003 3.35427 -2.36641 0
M  V30 2151 H 200.664 2.85454 -1.31054 0
M  V30 2152 H 199.857 3.53518 -3.59223 0
M  V30 2153 H 199.459 1.83359 -3.25968 0
M  V30 2154 H 201.751 4.34066 -5.20185 0
M  V30 2155 H 202.694 3.26606 -6.28279 0
M  V30 2156 H 203.102 3.35028 -4.54331 0
M  V30 2157 N 202.5 1.5196 0.417844 0
M  V30 2158 C 203.746 1.65836 1.16732 0
M  V30 2159 C 204.079 0.382881 1.90388 0
M  V30 2160 O 203.354 -0.618368 1.84408 0
M  V30 2161 C 203.637 2.87466 2.16876 0
M  V30 2162 C 203.49 4.25041 1.47174 0
M  V30 2163 C 204.809 3.04613 3.17646 0
M  V30 2164 H 201.928 0.603515 0.423011 0
M  V30 2165 H 204.57 1.84494 0.454105 0
M  V30 2166 H 202.72 2.71689 2.777 0
M  V30 2167 H 204.392 4.52527 0.895376 0
M  V30 2168 H 202.635 4.26843 0.773806 0
M  V30 2169 H 203.306 5.06176 2.20204 0
M  V30 2170 H 205.782 3.1923 2.66892 0
M  V30 2171 H 204.658 3.91247 3.8499 0
M  V30 2172 H 204.919 2.17541 3.84874 0
M  V30 2173 N 203.978 -0.674533 1.42435 0
M  V30 2174 C 205.224 -1.43521 1.4413 0
M  V30 2175 C 205.579 -1.92316 0.0567773 0
M  V30 2176 O 204.872 -1.68008 -0.921076 0
M  V30 2177 C 205.066 -2.64767 2.40069 0
M  V30 2178 C 204.895 -2.27836 3.87713 0
M  V30 2179 C 203.665 -2.17183 4.56245 0
M  V30 2180 C 205.863 -1.89466 4.78129 0
M  V30 2181 N 203.845 -1.73358 5.88915 0
M  V30 2182 C 205.216 -1.56561 5.99907 0
M  V30 2183 C 207.271 -1.7646 4.65582 0
M  V30 2184 C 205.974 -1.11957 7.10534 0
M  V30 2185 C 208 -1.3326 5.76191 0
M  V30 2186 C 207.362 -1.0128 6.97081 0
M  V30 2187 H 203.461 -0.521656 0.582579 0
M  V30 2188 H 206.045 -0.778381 1.78464 0
M  V30 2189 H 204.216 -3.28139 2.07796 0
M  V30 2190 H 205.948 -3.3136 2.32342 0
M  V30 2191 H 202.703 -2.3626 4.10461 0
M  V30 2192 H 203.127 -1.53867 6.59283 0
M  V30 2193 H 207.769 -1.99831 3.72595 0
M  V30 2194 H 205.487 -0.873318 8.03367 0
M  V30 2195 H 209.073 -1.23717 5.68494 0
M  V30 2196 H 207.953 -0.683597 7.81215 0
M  V30 2197 N 205.456 -1.28612 -0.910864 0
M  V30 2198 C 206.705 -1.15311 -1.65488 0
M  V30 2199 C 207.018 0.296999 -1.93332 0
M  V30 2200 O 208.224 0.551168 -2.65847 0
M  V30 2201 C 206.68 -2.01599 -2.98137 0
M  V30 2202 C 206.288 -3.51367 -2.7793 0
M  V30 2203 C 208.032 -1.96993 -3.76024 0
M  V30 2204 C 205.939 -4.29797 -4.06237 0
M  V30 2205 H 204.869 -0.42796 -0.620779 0
M  V30 2206 H 207.52 -1.53166 -1.01057 0
M  V30 2207 H 205.902 -1.56603 -3.63719 0
M  V30 2208 H 207.076 -4.0434 -2.21011 0
M  V30 2209 H 205.391 -3.57529 -2.13452 0
M  V30 2210 H 207.988 -2.52856 -4.71135 0
M  V30 2211 H 208.331 -0.94733 -4.05378 0
M  V30 2212 H 208.864 -2.39973 -3.17266 0
M  V30 2213 H 205.603 -5.32648 -3.82055 0
M  V30 2214 H 205.123 -3.81596 -4.62757 0
M  V30 2215 H 206.802 -4.39869 -4.74473 0
M  V30 2216 N 206.934 1.1197 -1.10907 0
M  V30 2217 C 207.884 2.15946 -0.731538 0
M  V30 2218 C 208.868 1.58758 0.261699 0
M  V30 2219 O 210.06 1.76863 0.0696722 0
M  V30 2220 C 207.189 3.42877 -0.170299 0
M  V30 2221 C 206.275 4.07037 -1.19087 0
M  V30 2222 N 206.666 4.46135 -2.38322 0
M  V30 2223 C 204.964 4.33884 -1.03252 0
M  V30 2224 C 205.665 4.96331 -3.03366 0
M  V30 2225 N 204.641 4.9214 -2.30865 0
M  V30 2226 H 208.443 2.43947 -1.63912 0
M  V30 2227 H 205.957 1.28927 -0.987505 0
M  V30 2228 H 207.954 4.16732 0.118271 0
M  V30 2229 H 206.614 3.16343 0.731935 0
M  V30 2230 H 207.625 4.38345 -2.75815 0
M  V30 2231 H 204.302 4.17084 -0.186256 0
M  V30 2232 H 205.692 5.36257 -4.04818 0
M  V30 2233 N 208.412 0.89855 1.29475 0
M  V30 2234 C 209.66 0.522847 1.9522 0
M  V30 2235 C 209.981 -0.93371 1.71192 0
M  V30 2236 O 209.251 -1.65823 1.04305 0
M  V30 2237 H 207.831 0.190366 0.722336 0
M  V30 2238 H 210.493 1.14459 1.5775 0
M  V30 2239 H 209.589 0.704476 3.04045 0
M  V30 2240 N 209.89 -1.43072 0.660911 0
M  V30 2241 C 211.138 -2.01323 0.177094 0
M  V30 2242 C 211.459 -1.5245 -1.2159 0
M  V30 2243 O 210.729 -0.740322 -1.81373 0
M  V30 2244 H 209.309 -0.744382 0.0624804 0
M  V30 2245 H 211.971 -1.75179 0.854305 0
M  V30 2246 H 211.067 -3.11649 0.167641 0
M  V30 2247 N 211.368 -0.403325 -1.52352 0
M  V30 2248 C 212.616 0.174003 -2.0135 0
M  V30 2249 C 212.937 1.46139 -1.29106 0
M  V30 2250 O 212.207 1.91448 -0.415253 0
M  V30 2251 H 210.787 0.0672911 -0.743963 0
M  V30 2252 H 213.449 -0.538235 -1.87321 0
M  V30 2253 H 212.545 0.374254 -3.09848 0
M  V30 2254 N 212.846 1.57033 -0.133567 0
M  V30 2255 C 213.776 2.1909 0.807567 0
M  V30 2256 C 214.757 1.13517 1.26681 0
M  V30 2257 O 215.942 1.41809 1.32679 0
M  V30 2258 C 213.072 2.80188 2.05212 0
M  V30 2259 C 212.026 3.91471 1.73015 0
M  V30 2260 C 211.352 4.39443 3.04622 0
M  V30 2261 C 212.652 5.12886 0.987168 0
M  V30 2262 H 214.346 2.97988 0.290403 0
M  V30 2263 H 211.892 1.43335 0.138239 0
M  V30 2264 H 213.845 3.22264 2.71521 0
M  V30 2265 H 212.569 1.98601 2.59278 0
M  V30 2266 H 211.228 3.49993 1.0909 0
M  V30 2267 H 210.876 3.54695 3.56651 0
M  V30 2268 H 210.576 5.14495 2.83847 0
M  V30 2269 H 212.1 4.8418 3.72024 0
M  V30 2270 H 213.514 5.51891 1.55208 0
M  V30 2271 H 211.911 5.93615 0.87985 0
M  V30 2272 H 212.981 4.84894 -0.0235286 0
M  V30 2273 N 214.325 -0.140222 1.56975 0
M  V30 2274 C 215.258 -1.20266 1.93936 0
M  V30 2275 C 216.236 -1.41212 0.806099 0
M  V30 2276 O 217.42 -1.55713 1.06234 0
M  V30 2277 C 214.547 -2.56037 2.21726 0
M  V30 2278 C 213.593 -2.51646 3.44349 0
M  V30 2279 S 214.426 -1.97678 4.97678 0
M  V30 2280 C 215.582 -3.35165 5.28597 0
M  V30 2281 H 215.815 -0.887358 2.83749 0
M  V30 2282 H 213.348 -0.346119 1.50471 0
M  V30 2283 H 215.306 -3.34167 2.38416 0
M  V30 2284 H 213.967 -2.84755 1.32566 0
M  V30 2285 H 213.16 -3.51608 3.61092 0
M  V30 2286 H 212.762 -1.81628 3.26936 0
M  V30 2287 H 215.054 -4.31302 5.2248 0
M  V30 2288 H 215.997 -3.23269 6.30002 0
M  V30 2289 H 216.405 -3.32614 4.56101 0
M  V30 2290 N 215.803 -1.52179 -0.40978 0
M  V30 2291 C 217.049 -1.66453 -1.15851 0
M  V30 2292 C 217.382 -0.392972 -1.90182 0
M  V30 2293 O 216.657 0.608579 -1.84734 0
M  V30 2294 C 216.94 -2.88612 -2.15349 0
M  V30 2295 C 216.793 -4.25815 -1.44918 0
M  V30 2296 C 218.112 -3.06294 -3.16026 0
M  V30 2297 H 215.231 -0.60575 -0.419805 0
M  V30 2298 H 217.873 -1.84732 -0.444314 0
M  V30 2299 H 216.023 -2.73158 -2.76255 0
M  V30 2300 H 217.695 -4.52995 -0.871365 0
M  V30 2301 H 215.938 -4.27247 -0.751159 0
M  V30 2302 H 216.609 -5.07337 -2.17516 0
M  V30 2303 H 219.085 -3.20641 -2.65195 0
M  V30 2304 H 217.961 -3.93283 -3.8291 0
M  V30 2305 H 218.222 -2.19579 -3.83715 0
M  V30 2306 N 217.281 0.66697 -1.42791 0
M  V30 2307 C 218.529 1.42417 -1.43394 0
M  V30 2308 C 218.85 1.94925 -0.0542373 0
M  V30 2309 O 218.12 1.73564 0.908415 0
M  V30 2310 H 216.7 0.528515 -0.527902 0
M  V30 2311 H 219.362 0.787562 -1.78279 0
M  V30 2312 H 218.458 2.27333 -2.13837 0
M  V30 2313 N 218.759 1.29093 0.90403 0
M  V30 2314 C 219.722 1.1386 1.98919 0
M  V30 2315 C 220.722 0.0753457 1.60623 0
M  V30 2316 O 221.912 0.321931 1.71199 0
M  V30 2317 C 219.044 0.740198 3.32767 0
M  V30 2318 H 220.237 2.10246 2.13861 0
M  V30 2319 H 217.79 1.12218 1.08797 0
M  V30 2320 H 218.525 -0.223997 3.23525 0
M  V30 2321 H 218.31 1.50838 3.61926 0
M  V30 2322 H 219.8 0.656546 4.12407 0
M  V30 2323 N 220.237 -1.11381 1.11499 0
M  V30 2324 C 221.2 -2.15622 0.777153 0
M  V30 2325 C 222.2 -1.59504 -0.203779 0
M  V30 2326 O 223.39 -1.74188 0.020782 0
M  V30 2327 C 220.522 -3.40556 0.153116 0
M  V30 2328 H 221.715 -2.47021 1.70061 0
M  V30 2329 H 219.268 -1.26577 0.916952 0
M  V30 2330 H 220.003 -3.14767 -0.780536 0
M  V30 2331 H 219.788 -3.8257 0.859238 0
M  V30 2332 H 221.278 -4.17546 -0.0671044 0
M  V30 2333 N 221.715 -0.905404 -1.28997 0
M  V30 2334 C 222.94 -0.549175 -1.99997 0
M  V30 2335 C 223.365 0.860276 -1.67275 0
M  V30 2336 O 222.723 1.57355 -0.900502 0
M  V30 2337 C 222.771 -0.755185 -3.52604 0
M  V30 2338 O 221.875 0.189692 -4.11964 0
M  V30 2339 H 221.216 -0.213899 -0.628604 0
M  V30 2340 H 223.746 -1.21856 -1.64354 0
M  V30 2341 H 223.756 -0.662045 -4.02593 0
M  V30 2342 H 222.431 -1.78271 -3.75755 0
M  V30 2343 H 221.008 0.0485257 -3.72868 0
M  V30 2344 N 223.193 1.4272 -0.668489 0
M  V30 2345 C 224.421 2.05966 -0.196348 0
M  V30 2346 C 224.836 1.50191 1.14403 0
M  V30 2347 O 224.193 0.639208 1.7094 0
M  V30 2348 C 224.244 3.61314 -0.115815 0
M  V30 2349 O 223.965 4.1502 -1.40322 0
M  V30 2350 C 225.466 4.41663 0.380579 0
M  V30 2351 H 222.686 0.663954 -0.0969829 0
M  V30 2352 H 225.23 1.82966 -0.913446 0
M  V30 2353 H 223.385 3.83448 0.551931 0
M  V30 2354 H 223.799 5.08832 -1.27243 0
M  V30 2355 H 225.273 5.5065 0.385848 0
M  V30 2356 H 225.75 4.15792 1.41471 0
M  V30 2357 H 226.356 4.24534 -0.255209 0
M  V30 2358 N 224.671 0.411399 1.52136 0
M  V30 2359 C 225.901 -0.16284 2.05957 0
M  V30 2360 C 226.309 -1.3922 1.28119 0
M  V30 2361 O 225.652 -1.80768 0.326881 0
M  V30 2362 C 225.714 -0.575946 3.54856 0
M  V30 2363 C 225.378 0.542998 4.53763 0
M  V30 2364 C 226.375 1.40726 5.00492 0
M  V30 2365 C 224.06 0.716337 4.97166 0
M  V30 2366 C 226.054 2.4298 5.8927 0
M  V30 2367 C 223.741 1.74218 5.8574 0
M  V30 2368 C 224.739 2.59731 6.31687 0
M  V30 2369 O 224.427 3.60558 7.18507 0
M  V30 2370 H 224.159 -0.0229125 0.675612 0
M  V30 2371 H 226.713 0.581634 1.96993 0
M  V30 2372 H 224.943 -1.37274 3.61515 0
M  V30 2373 H 226.632 -1.07836 3.91313 0
M  V30 2374 H 227.398 1.28476 4.67674 0
M  V30 2375 H 223.277 0.0603857 4.6096 0
M  V30 2376 H 226.821 3.0976 6.25055 0
M  V30 2377 H 222.718 1.86498 6.17971 0
M  V30 2378 H 223.486 3.56829 7.36624 0
M  V30 2379 N 226.149 -1.5696 0.141893 0
M  V30 2380 C 227.426 -1.87553 -0.555281 0
M  V30 2381 C 227.806 -1.04699 -1.83306 0
M  V30 2382 O 227.154 -0.132346 -2.28116 0
M  V30 2383 C 227.364 -3.39093 -0.825664 0
M  V30 2384 C 228.712 -4.08199 -1.16869 0
M  V30 2385 O 229.736 -3.44242 -0.915185 0
M  V30 2386 O 228.595 -5.21139 -1.6455 0
M  V30 2387 H 225.689 -0.777188 -0.282679 0
M  V30 2388 H 228.235 -1.68763 0.17812 0
M  V30 2389 H 227.007 -3.91221 0.0788633 0
M  V30 2390 H 226.63 -3.63393 -1.61343 0
M  V30 2391 N 227.627 0.131896 -1.57047 0
M  V30 2392 C 228.875 0.840269 -1.83804 0
M  V30 2393 C 229.196 1.81017 -0.72512 0
M  V30 2394 O 228.466 1.94272 0.251995 0
M  V30 2395 H 227.046 0.313294 -0.678127 0
M  V30 2396 H 229.708 0.122294 -1.94516 0
M  V30 2397 H 228.804 1.39335 -2.79271 0
M  V30 2398 N 229.106 1.52395 0.401703 0
M  V30 2399 C 230.036 1.79231 1.49661 0
M  V30 2400 C 231.017 0.643654 1.57452 0
M  V30 2401 O 232.202 0.889989 1.72606 0
M  V30 2402 C 229.332 1.94971 2.87409 0
M  V30 2403 C 228.286 3.10604 2.94465 0
M  V30 2404 C 227.612 3.11577 4.34538 0
M  V30 2405 C 228.912 4.49921 2.6527 0
M  V30 2406 H 230.606 2.70917 1.27454 0
M  V30 2407 H 228.152 1.30362 0.6117 0
M  V30 2408 H 230.105 2.12328 3.63999 0
M  V30 2409 H 228.829 0.999632 3.10926 0
M  V30 2410 H 227.488 2.93009 2.20321 0
M  V30 2411 H 227.136 2.14277 4.55076 0
M  V30 2412 H 226.836 3.89247 4.40183 0
M  V30 2413 H 228.36 3.31073 5.13053 0
M  V30 2414 H 229.774 4.67683 3.31581 0
M  V30 2415 H 228.171 5.29564 2.82281 0
M  V30 2416 H 229.241 4.57507 1.60671 0
M  V30 2417 N 230.584 -0.659388 1.43143 0
M  V30 2418 C 231.547 -1.75432 1.47501 0
M  V30 2419 C 232.547 -1.56707 0.360512 0
M  V30 2420 O 233.737 -1.62717 0.622002 0
M  V30 2421 C 230.869 -3.14239 1.32162 0
M  V30 2422 H 232.062 -1.7295 2.45006 0
M  V30 2423 H 229.615 -0.870469 1.29817 0
M  V30 2424 H 230.35 -3.22336 0.356401 0
M  V30 2425 H 230.135 -3.29235 2.12948 0
M  V30 2426 H 231.625 -3.94094 1.3813 0
M  V30 2427 N 232.062 -1.29571 -0.897171 0
M  V30 2428 C 232.992 -1.17473 -2.01798 0
M  V30 2429 C 233.973 -0.068323 -1.69963 0
M  V30 2430 O 235.158 -0.248239 -1.92607 0
M  V30 2431 C 232.288 -0.853099 -3.36659 0
M  V30 2432 C 231.242 -1.9161 -3.82713 0
M  V30 2433 C 230.568 -1.44773 -5.14728 0
M  V30 2434 C 231.868 -3.32535 -4.02763 0
M  V30 2435 H 233.562 -2.11237 -2.12177 0
M  V30 2436 H 231.108 -1.01699 -1.01948 0
M  V30 2437 H 233.061 -0.755165 -4.14578 0
M  V30 2438 H 231.785 0.120236 -3.26379 0
M  V30 2439 H 230.444 -2.00346 -3.07013 0
M  V30 2440 H 230.092 -0.462995 -5.00865 0
M  V30 2441 H 229.792 -2.15865 -5.46513 0
M  V30 2442 H 231.316 -1.36334 -5.95185 0
M  V30 2443 H 232.73 -3.26626 -4.71156 0
M  V30 2444 H 231.127 -4.01607 -4.45905 0
M  V30 2445 H 232.197 -3.75326 -3.07016 0
M  V30 2446 N 233.54 1.10788 -1.12088 0
M  V30 2447 C 234.503 2.15207 -0.788577 0
M  V30 2448 C 235.503 1.59609 0.195317 0
M  V30 2449 O 236.693 1.74174 -0.0300193 0
M  V30 2450 C 233.825 3.4047 -0.171174 0
M  V30 2451 H 235.018 2.46116 -1.71368 0
M  V30 2452 H 232.571 1.26089 -0.923652 0
M  V30 2453 H 233.306 3.15176 0.763832 0
M  V30 2454 H 233.091 3.82109 -0.879514 0
M  V30 2455 H 234.581 4.17576 0.04496 0
M  V30 2456 N 235.018 0.912232 1.28515 0
M  V30 2457 C 235.981 0.404223 2.25607 0
M  V30 2458 C 236.981 -0.468602 1.53821 0
M  V30 2459 O 238.171 -0.271873 1.72065 0
M  V30 2460 C 235.303 -0.420653 3.38295 0
M  V30 2461 H 236.496 1.26188 2.7206 0
M  V30 2462 H 234.049 0.691495 1.40171 0
M  V30 2463 H 234.784 -1.29777 2.97201 0
M  V30 2464 H 234.569 0.204935 3.91564 0
M  V30 2465 H 236.059 -0.766971 4.10496 0
M  V30 2466 N 236.496 -1.42363 0.676048 0
M  V30 2467 C 237.446 -2.27987 -0.0242903 0
M  V30 2468 C 238.43 -1.41153 -0.772319 0
M  V30 2469 O 239.622 -1.64592 -0.651025 0
M  V30 2470 C 236.751 -3.29195 -0.973953 0
M  V30 2471 C 235.837 -4.23512 -0.223202 0
M  V30 2472 N 236.228 -4.99865 0.772589 0
M  V30 2473 C 234.526 -4.43606 -0.461469 0
M  V30 2474 C 235.227 -5.68757 1.22027 0
M  V30 2475 N 234.203 -5.40811 0.549975 0
M  V30 2476 H 238.005 -2.84445 0.73949 0
M  V30 2477 H 235.519 -1.54341 0.50522 0
M  V30 2478 H 237.516 -3.89339 -1.49067 0
M  V30 2479 H 236.176 -2.74298 -1.73755 0
M  V30 2480 H 237.187 -5.04921 1.15217 0
M  V30 2481 H 233.864 -3.99749 -1.20446 0
M  V30 2482 H 235.254 -6.40007 2.0455 0
M  V30 2483 N 237.974 -0.419461 -1.51915 0
M  V30 2484 C 238.884 0.407528 -2.31033 0
M  V30 2485 C 239.9 1.04413 -1.3919 0
M  V30 2486 O 241.076 1.0434 -1.72265 0
M  V30 2487 C 238.141 1.50365 -3.12396 0
M  V30 2488 C 237.202 0.889029 -4.19994 0
M  V30 2489 C 236.435 1.93291 -4.97468 0
M  V30 2490 O 236.658 3.15259 -4.75361 0
M  V30 2491 O 235.592 1.53339 -5.8204 0
M  V30 2492 H 239.418 -0.237865 -3.02767 0
M  V30 2493 H 237.003 -0.182413 -1.48282 0
M  V30 2494 H 238.885 2.13975 -3.63032 0
M  V30 2495 H 237.56 2.13345 -2.43445 0
M  V30 2496 H 236.467 0.215353 -3.7348 0
M  V30 2497 H 237.8 0.302991 -4.91267 0
M  V30 2498 N 239.452 1.56882 -0.150215 0
M  V30 2499 C 240.4 2.18214 0.805313 0
M  V30 2500 C 241.394 1.14006 1.25296 0
M  V30 2501 O 242.6 1.3225 1.22107 0
M  V30 2502 H 238.975 0.698762 0.277913 0
M  V30 2503 H 240.946 2.97231 0.263862 0
M  V30 2504 C 239.695 2.82065 2.03309 0
M  V30 2505 H 239.018 3.61968 1.69763 0
M  V30 2506 H 240.458 3.28477 2.68103 0
M  V30 2507 C 238.917 1.80739 2.84315 0
M  V30 2508 O 239.447 1.27983 3.80767 0
M  V30 2509 N 237.653 1.4997 2.48913 0
M  V30 2510 H 237.2 1.93062 1.70542 0
M  V30 2511 H 237.158 0.824217 3.03404 0
M  V30 2512 N 240.93 -0.123565 1.57115 0
M  V30 2513 C 242.176 -0.833386 1.84885 0
M  V30 2514 C 242.509 -1.79742 0.735292 0
M  V30 2515 O 241.784 -1.92764 -0.25925 0
M  V30 2516 C 242.067 -1.5873 3.23228 0
M  V30 2517 C 241.92 -0.643183 4.45178 0
M  V30 2518 C 243.239 -2.54453 3.59085 0
M  V30 2519 H 240.358 -0.301518 0.6725 0
M  V30 2520 H 243 -0.097778 1.89748 0
M  V30 2521 H 241.15 -2.21438 3.19214 0
M  V30 2522 H 242.822 -0.0253015 4.61293 0
M  V30 2523 H 241.065 0.0456139 4.33776 0
M  V30 2524 H 241.736 -1.20724 5.38637 0
M  V30 2525 H 244.212 -2.01853 3.63861 0
M  V30 2526 H 243.088 -3.04238 4.5687 0
M  V30 2527 H 243.349 -3.36906 2.86264 0
M  V30 2528 N 242.408 -1.52605 -0.393616 0
M  V30 2529 C 243.654 -1.67672 -1.14079 0
M  V30 2530 C 243.987 -0.413121 -1.89755 0
M  V30 2531 O 243.262 0.588952 -1.85369 0
M  V30 2532 C 243.545 -2.9088 -2.12276 0
M  V30 2533 C 243.398 -4.27329 -1.40394 0
M  V30 2534 C 244.717 -3.09628 -3.12759 0
M  V30 2535 H 241.836 -0.610168 -0.413356 0
M  V30 2536 H 244.478 -1.85193 -0.424696 0
M  V30 2537 H 242.628 -2.76073 -2.73342 0
M  V30 2538 H 244.3 -4.53894 -0.82327 0
M  V30 2539 H 242.543 -4.2802 -0.705801 0
M  V30 2540 H 243.214 -5.09615 -2.12123 0
M  V30 2541 H 245.69 -3.23436 -2.61779 0
M  V30 2542 H 244.566 -3.97322 -3.78717 0
M  V30 2543 H 244.827 -2.23637 -3.81365 0
M  V30 2544 N 243.887 0.651787 -1.4349 0
M  V30 2545 C 245.133 1.41376 -1.45398 0
M  V30 2546 C 245.466 1.94041 -0.0784823 0
M  V30 2547 O 244.741 1.72379 0.900878 0
M  V30 2548 C 245.024 2.59414 -2.49752 0
M  V30 2549 C 244.877 2.12232 -3.96582 0
M  V30 2550 C 246.196 3.61626 -2.50827 0
M  V30 2551 H 243.315 0.512719 -0.529422 0
M  V30 2552 H 245.957 0.738796 -1.75048 0
M  V30 2553 H 244.107 3.16997 -2.246 0
M  V30 2554 H 245.779 1.59639 -4.32797 0
M  V30 2555 H 244.022 1.43592 -4.09346 0
M  V30 2556 H 244.693 2.9712 -4.65214 0
M  V30 2557 H 247.169 3.13805 -2.7325 0
M  V30 2558 H 246.045 4.41766 -3.25783 0
M  V30 2559 H 246.306 4.14314 -1.5426 0
M  V30 2560 N 245.365 1.30045 0.890287 0
M  V30 2561 C 246.611 1.18737 1.64406 0
M  V30 2562 C 246.944 -0.258525 1.92472 0
M  V30 2563 O 246.219 -1.18562 1.54186 0
M  V30 2564 C 246.502 2.01087 2.98724 0
M  V30 2565 C 246.355 3.53867 2.77665 0
M  V30 2566 C 247.674 1.84457 3.9958 0
M  V30 2567 H 244.793 0.432698 0.596608 0
M  V30 2568 H 247.435 1.5962 1.0306 0
M  V30 2569 H 245.585 1.66349 3.51084 0
M  V30 2570 H 247.257 3.98637 2.32133 0
M  V30 2571 H 245.5 3.78318 2.12269 0
M  V30 2572 H 246.171 4.06772 3.7315 0
M  V30 2573 H 248.647 2.14817 3.56361 0
M  V30 2574 H 247.523 2.44411 4.91482 0
M  V30 2575 H 247.784 0.802276 4.3476 0
M  V30 2576 N 246.843 -1.10192 1.12674 0
M  V30 2577 C 248.071 -1.85983 0.906527 0
M  V30 2578 C 248.486 -1.80783 -0.544333 0
M  V30 2579 O 247.843 -1.19834 -1.37645 0
M  V30 2580 C 247.894 -3.34281 1.37618 0
M  V30 2581 O 247.615 -3.39401 2.77017 0
M  V30 2582 C 249.116 -4.26938 1.19325 0
M  V30 2583 H 246.336 -0.587716 0.323775 0
M  V30 2584 H 248.88 -1.39284 1.49734 0
M  V30 2585 H 247.035 -3.78436 0.828539 0
M  V30 2586 H 247.449 -4.31838 2.97684 0
M  V30 2587 H 248.923 -5.29181 1.57071 0
M  V30 2588 H 249.4 -4.38995 0.134097 0
M  V30 2589 H 250.006 -3.8859 1.72852 0
M  V30 2590 N 248.321 -0.919034 -1.28029 0
M  V30 2591 C 249.57 -0.550802 -1.94034 0
M  V30 2592 C 249.883 0.910877 -1.73096 0
M  V30 2593 O 251.089 1.3875 -2.33368 0
M  V30 2594 C 249.545 -0.934249 -3.47563 0
M  V30 2595 C 249.153 -2.41602 -3.7727 0
M  V30 2596 C 250.897 -0.636854 -4.19696 0
M  V30 2597 C 248.804 -2.73932 -5.24133 0
M  V30 2598 H 247.734 -0.202273 -0.726362 0
M  V30 2599 H 250.385 -1.11867 -1.45458 0
M  V30 2600 H 248.767 -0.295115 -3.94899 0
M  V30 2601 H 249.941 -3.10233 -3.40723 0
M  V30 2602 H 248.256 -2.68441 -3.18321 0
M  V30 2603 H 250.853 -0.855005 -5.2782 0
M  V30 2604 H 251.196 0.425575 -4.14119 0
M  V30 2605 H 251.729 -1.23469 -3.78154 0
M  V30 2606 H 248.468 -3.79049 -5.34792 0
M  V30 2607 H 247.988 -2.09942 -5.61858 0
M  V30 2608 H 249.667 -2.61215 -5.91925 0
M  V30 2609 N 249.799 1.42003 -0.683588 0
M  V30 2610 C 250.731 2.29183 0.0283068 0
M  V30 2611 C 251.744 1.4415 0.756611 0
M  V30 2612 O 252.933 1.67779 0.609306 0
M  V30 2613 C 250.033 3.21765 1.06398 0
M  V30 2614 C 249.206 4.35496 0.407723 0
M  V30 2615 C 248.265 5.08737 1.34437 0
M  V30 2616 O 247.291 5.62948 0.841318 0
M  V30 2617 N 248.493 5.15075 2.67728 0
M  V30 2618 H 251.258 2.9092 -0.720105 0
M  V30 2619 H 248.819 1.53025 -0.528682 0
M  V30 2620 H 250.811 3.6763 1.69204 0
M  V30 2621 H 249.381 2.61418 1.71404 0
M  V30 2622 H 248.601 3.92165 -0.400012 0
M  V30 2623 H 249.889 5.08776 -0.0490956 0
M  V30 2624 H 249.287 4.72457 3.11129 0
M  V30 2625 H 247.844 5.64556 3.2576 0
M  V30 2626 N 251.277 0.427512 1.51691 0
M  V30 2627 C 252.507 -0.140986 2.06118 0
M  V30 2628 C 252.915 -1.37854 1.29588 0
M  V30 2629 O 252.258 -1.80411 0.346036 0
M  V30 2630 C 252.32 -0.538276 3.55447 0
M  V30 2631 C 251.984 0.591095 4.53161 0
M  V30 2632 C 252.981 1.46027 4.98971 0
M  V30 2633 C 250.666 0.769028 4.96378 0
M  V30 2634 C 252.66 2.49216 5.8666 0
M  V30 2635 C 250.347 1.80421 5.83859 0
M  V30 2636 C 251.345 2.66417 6.28897 0
M  V30 2637 O 251.033 3.68159 7.14643 0
M  V30 2638 H 250.765 -0.0157455 0.675817 0
M  V30 2639 H 253.319 0.602495 1.96365 0
M  V30 2640 H 251.549 -1.33432 3.6295 0
M  V30 2641 H 253.238 -1.0368 3.92435 0
M  V30 2642 H 254.004 1.33429 4.66285 0
M  V30 2643 H 249.883 0.109273 4.6087 0
M  V30 2644 H 253.427 3.16372 6.21735 0
M  V30 2645 H 249.324 1.93042 6.15959 0
M  V30 2646 H 250.092 3.64622 7.32798 0
M  V30 2647 N 252.755 -1.56801 0.158532 0
M  V30 2648 C 254.171 -1.5837 -0.197774 0
M  V30 2649 C 254.371 -1.17334 -1.63814 0
M  V30 2650 O 253.427 -0.878988 -2.36707 0
M  V30 2651 C 254.74 -3.00615 0.0714459 0
M  V30 2652 C 256.288 -3.12999 0.00864533 0
M  V30 2653 C 256.763 -4.57313 0.250685 0
M  V30 2654 N 258.254 -4.62777 0.198014 0
M  V30 2655 C 258.989 -5.72271 0.359642 0
M  V30 2656 N 258.485 -6.90371 0.579625 0
M  V30 2657 N 260.278 -5.61318 0.296438 0
M  V30 2658 H 252.429 -1.81765 1.09887 0
M  V30 2659 H 254.692 -0.841849 0.435884 0
M  V30 2660 H 254.398 -3.35068 1.06874 0
M  V30 2661 H 254.272 -3.71683 -0.642757 0
M  V30 2662 H 256.659 -2.7838 -0.979217 0
M  V30 2663 H 256.74 -2.44393 0.755359 0
M  V30 2664 H 256.384 -4.92639 1.2357 0
M  V30 2665 H 256.314 -5.24061 -0.516489 0
M  V30 2666 H 258.805 -3.77885 0.0331115 0
M  V30 2667 H 259.118 -7.69689 0.69275 0
M  V30 2668 H 257.463 -6.92264 0.616087 0
M  V30 2669 H 260.654 -4.67932 0.125258 0
M  V30 2670 H 260.827 -6.46599 0.425831 0
M  V30 2671 N 254.233 0.115231 -1.57178 0
M  V30 2672 C 255.163 1.1423 -2.03651 0
M  V30 2673 C 256.144 1.42967 -0.921655 0
M  V30 2674 O 257.329 1.53343 -1.19162 0
M  V30 2675 C 254.459 2.4675 -2.44401 0
M  V30 2676 C 253.413 2.32467 -3.59365 0
M  V30 2677 C 252.739 3.69984 -3.86026 0
M  V30 2678 C 254.039 1.78203 -4.90959 0
M  V30 2679 H 255.733 0.755749 -2.89705 0
M  V30 2680 H 253.279 0.362093 -1.39373 0
M  V30 2681 H 255.232 3.18854 -2.75517 0
M  V30 2682 H 253.956 2.87302 -1.55322 0
M  V30 2683 H 252.615 1.62811 -3.28463 0
M  V30 2684 H 252.263 4.08028 -2.94147 0
M  V30 2685 H 251.963 3.61279 -4.63412 0
M  V30 2686 H 253.487 4.43587 -4.19599 0
M  V30 2687 H 254.901 2.40128 -5.20587 0
M  V30 2688 H 253.298 1.8031 -5.72371 0
M  V30 2689 H 254.368 0.739876 -4.79222 0
M  V30 2690 N 255.711 1.52812 0.385517 0
M  V30 2691 C 256.959 1.67694 1.12797 0
M  V30 2692 C 257.28 0.421115 1.90399 0
M  V30 2693 O 256.55 -0.564551 1.87589 0
M  V30 2694 H 255.13 0.618155 0.419396 0
M  V30 2695 H 257.792 1.89938 0.436972 0
M  V30 2696 H 256.888 2.52896 1.82894 0
M  V30 2697 N 257.189 -0.644168 1.43834 0
M  V30 2698 C 258.438 -1.39985 1.45214 0
M  V30 2699 C 258.751 -1.95421 0.0835494 0
M  V30 2700 O 259.957 -2.71488 -0.0251748 0
M  V30 2701 C 258.413 -2.53384 2.55587 0
M  V30 2702 C 258.021 -2.04517 3.98594 0
M  V30 2703 C 259.765 -3.30685 2.66172 0
M  V30 2704 C 257.672 -3.1518 5.00416 0
M  V30 2705 H 256.602 -0.526005 0.540218 0
M  V30 2706 H 259.253 -0.694367 1.69855 0
M  V30 2707 H 257.635 -3.26446 2.24163 0
M  V30 2708 H 258.809 -1.38405 4.39523 0
M  V30 2709 H 257.124 -1.40068 3.92135 0
M  V30 2710 H 259.721 -4.13158 3.39418 0
M  V30 2711 H 260.064 -3.79312 1.71546 0
M  V30 2712 H 260.597 -2.64708 2.96942 0
M  V30 2713 H 257.336 -2.71511 5.96625 0
M  V30 2714 H 256.856 -3.79974 4.64091 0
M  V30 2715 H 258.535 -3.80166 5.23529 0
M  V30 2716 N 258.668 -1.30515 -0.883378 0
M  V30 2717 C 259.914 -1.20617 -1.63778 0
M  V30 2718 C 260.269 0.236469 -1.90941 0
M  V30 2719 O 259.562 1.16596 -1.52039 0
M  V30 2720 C 259.756 -1.96994 -2.98209 0
M  V30 2721 C 259.585 -3.48537 -2.84169 0
M  V30 2722 C 258.355 -4.17893 -2.84067 0
M  V30 2723 C 260.553 -4.43738 -2.60001 0
M  V30 2724 N 258.535 -5.55685 -2.60936 0
M  V30 2725 C 259.906 -5.69105 -2.46007 0
M  V30 2726 C 261.961 -4.33316 -2.45239 0
M  V30 2727 C 260.664 -6.8523 -2.18752 0
M  V30 2728 C 262.69 -5.4921 -2.19369 0
M  V30 2729 C 262.052 -6.73558 -2.06153 0
M  V30 2730 H 258.151 -0.496434 -0.604216 0
M  V30 2731 H 260.735 -1.64544 -1.04083 0
M  V30 2732 H 258.906 -1.55455 -3.55933 0
M  V30 2733 H 260.638 -1.79225 -3.62851 0
M  V30 2734 H 257.393 -3.69739 -2.95956 0
M  V30 2735 H 257.817 -6.28199 -2.52378 0
M  V30 2736 H 262.459 -3.37856 -2.54191 0
M  V30 2737 H 260.177 -7.80729 -2.08537 0
M  V30 2738 H 263.763 -5.43054 -2.08766 0
M  V30 2739 H 262.643 -7.61721 -1.86416 0
M  V30 2740 N 260.146 1.09593 -1.13257 0
M  V30 2741 C 261.394 1.81375 -0.891492 0
M  V30 2742 C 261.715 1.86049 0.584009 0
M  V30 2743 O 260.985 1.34481 1.42449 0
M  V30 2744 H 259.565 0.671708 -0.326828 0
M  V30 2745 H 262.227 1.3256 -1.42877 0
M  V30 2746 H 261.323 2.84612 -1.28071 0
M  V30 2747 N 261.624 0.925811 1.2754 0
M  V30 2748 C 262.871 0.565255 1.94451 0
M  V30 2749 C 263.199 -0.89316 1.7278 0
M  V30 2750 O 262.454 -1.65213 1.04895 0
M  V30 2751 C 262.753 0.835296 3.47502 0
M  V30 2752 C 262.419 2.27515 3.89291 0
M  V30 2753 C 261.081 2.66879 4.00411 0
M  V30 2754 C 263.433 3.21158 4.10496 0
M  V30 2755 C 260.761 3.99014 4.30122 0
M  V30 2756 C 263.113 4.52871 4.4169 0
M  V30 2757 C 261.777 4.92072 4.51023 0
M  V30 2758 H 261.047 0.206841 0.711546 0
M  V30 2759 H 263.694 1.16942 1.51647 0
M  V30 2760 H 261.999 0.148442 3.91519 0
M  V30 2761 H 263.696 0.535322 3.97411 0
M  V30 2762 H 260.286 1.95976 3.81171 0
M  V30 2763 H 264.47 2.9195 4.01346 0
M  V30 2764 H 259.726 4.2907 4.35556 0
M  V30 2765 H 263.9 5.25436 4.57045 0
M  V30 2766 H 261.527 5.9449 4.738 0
M  V30 2767 N 263.102 -1.41638 0.69111 0
M  V30 2768 C 264.349 -2.01299 0.220193 0
M  V30 2769 C 264.677 -1.54715 -1.17871 0
M  V30 2770 O 263.932 -0.747193 -1.80874 0
M  V30 2771 C 264.231 -3.56714 0.221277 0
M  V30 2772 C 263.897 -4.22792 1.56709 0
M  V30 2773 C 262.559 -4.40557 1.93554 0
M  V30 2774 C 264.911 -4.59883 2.45268 0
M  V30 2775 C 262.239 -4.92688 3.18552 0
M  V30 2776 C 264.591 -5.13403 3.69595 0
M  V30 2777 C 263.255 -5.29379 4.06589 0
M  V30 2778 H 262.525 -0.736606 0.0805743 0
M  V30 2779 H 265.172 -1.69598 0.889319 0
M  V30 2780 H 263.477 -3.8818 -0.531391 0
M  V30 2781 H 265.174 -4.00678 -0.160547 0
M  V30 2782 H 261.764 -4.09336 1.2705 0
M  V30 2783 H 265.948 -4.45817 2.18084 0
M  V30 2784 H 261.204 -5.03242 3.47214 0
M  V30 2785 H 265.378 -5.41084 4.38407 0
M  V30 2786 H 263.005 -5.69537 5.03519 0
M  V30 2787 N 264.58 -0.43555 -1.51462 0
M  V30 2788 C 265.805 0.132627 -2.06976 0
M  V30 2789 C 266.23 1.35848 -1.30104 0
M  V30 2790 O 265.588 1.78112 -0.338493 0
M  V30 2791 C 265.636 0.43523 -3.57964 0
M  V30 2792 O 264.74 1.52198 -3.83288 0
M  V30 2793 H 264.081 0.00265 -0.663995 0
M  V30 2794 H 266.611 -0.616369 -1.95095 0
M  V30 2795 H 266.621 0.686206 -4.02188 0
M  V30 2796 H 265.296 -0.460739 -4.1334 0
M  V30 2797 H 263.873 1.2611 -3.50928 0
M  V30 2798 N 266.058 1.56714 -0.166846 0
M  V30 2799 C 267.286 2.0112 0.485644 0
M  V30 2800 C 267.701 1.04705 1.57106 0
M  V30 2801 O 267.058 0.0471923 1.82439 0
M  V30 2802 C 267.109 3.45361 1.06808 0
M  V30 2803 O 266.83 4.38092 0.0259995 0
M  V30 2804 C 268.331 4.05145 1.79924 0
M  V30 2805 H 265.551 0.65931 0.124704 0
M  V30 2806 H 268.095 2.02746 -0.267262 0
M  V30 2807 H 266.25 3.44524 1.7715 0
M  V30 2808 H 266.664 5.22519 0.455398 0
M  V30 2809 H 268.138 5.08009 2.15942 0
M  V30 2810 H 268.615 3.46982 2.69258 0
M  V30 2811 H 269.221 4.09672 1.14234 0
M  V30 2812 N 267.536 -0.106894 1.57237 0
M  V30 2813 C 268.784 -0.810921 1.85117 0
M  V30 2814 C 269.105 -1.7984 0.753827 0
M  V30 2815 O 268.375 -1.94649 -0.221056 0
M  V30 2816 H 266.955 -0.302466 0.683025 0
M  V30 2817 H 269.617 -0.0913324 1.94686 0
M  V30 2818 H 268.713 -1.34875 2.81452 0
M  V30 2819 N 269.014 -1.53014 -0.377408 0
M  V30 2820 C 270.291 -1.59215 -1.13622 0
M  V30 2821 C 270.671 -0.392407 -2.07421 0
M  V30 2822 O 270.019 0.618342 -2.19975 0
M  V30 2823 C 270.229 -2.93669 -1.88573 0
M  V30 2824 C 271.577 -3.47822 -2.43526 0
M  V30 2825 O 272.601 -2.9562 -1.98715 0
M  V30 2826 O 271.46 -4.39055 -3.25412 0
M  V30 2827 H 268.554 -0.642625 -0.52054 0
M  V30 2828 H 271.1 -1.65353 -0.381625 0
M  V30 2829 H 269.872 -3.7243 -1.20048 0
M  V30 2830 H 269.495 -2.90968 -2.70968 0
M  V30 2831 N 270.492 0.636531 -1.44174 0
M  V30 2832 C 271.402 1.77754 -1.53103 0
M  V30 2833 C 272.418 1.68928 -0.417034 0
M  V30 2834 O 273.594 1.89801 -0.6736 0
M  V30 2835 C 270.659 3.14115 -1.46741 0
M  V30 2836 C 269.72 3.34612 -2.68948 0
M  V30 2837 C 268.953 4.64467 -2.6288 0
M  V30 2838 O 269.176 5.44919 -1.68581 0
M  V30 2839 O 268.11 4.87049 -3.53648 0
M  V30 2840 H 271.936 1.73174 -2.49489 0
M  V30 2841 H 269.521 0.79709 -1.2636 0
M  V30 2842 H 271.403 3.95412 -1.45696 0
M  V30 2843 H 270.078 3.19249 -0.534975 0
M  V30 2844 H 268.985 2.53014 -2.75562 0
M  V30 2845 H 270.318 3.34336 -3.61221 0
M  V30 2846 N 271.97 1.30982 0.876444 0
M  V30 2847 C 272.92 1.14688 1.97055 0
M  V30 2848 C 273.904 0.0596593 1.60789 0
M  V30 2849 O 275.096 0.283892 1.74708 0
M  V30 2850 C 272.225 0.849627 3.3262 0
M  V30 2851 C 271.311 1.97752 3.75173 0
M  V30 2852 N 271.702 3.22384 3.89746 0
M  V30 2853 C 270 1.8758 4.04635 0
M  V30 2854 C 270.701 3.96121 4.25985 0
M  V30 2855 N 269.677 3.24237 4.36315 0
M  V30 2856 H 273.479 2.09204 2.06424 0
M  V30 2857 H 270.993 1.22445 1.06682 0
M  V30 2858 H 272.99 0.713895 4.10742 0
M  V30 2859 H 271.65 -0.087376 3.24582 0
M  V30 2860 H 272.661 3.57575 3.74647 0
M  V30 2861 H 269.338 1.01303 4.05024 0
M  V30 2862 H 270.728 5.03491 4.44911 0
M  V30 2863 N 273.449 -1.08991 1.13837 0
M  V30 2864 C 274.674 -1.85551 0.926585 0
M  V30 2865 C 275.099 -1.80782 -0.519566 0
M  V30 2866 O 274.457 -1.18855 -1.36906 0
M  V30 2867 C 274.505 -3.31266 1.42462 0
M  V30 2868 O 273.609 -4.07822 0.612789 0
M  V30 2869 H 272.95 -0.575192 0.331738 0
M  V30 2870 H 275.48 -1.37604 1.51414 0
M  V30 2871 H 275.49 -3.82112 1.43019 0
M  V30 2872 H 274.165 -3.34052 2.47754 0
M  V30 2873 H 272.742 -3.66731 0.675463 0
M  V30 2874 N 274.927 -0.932562 -1.27047 0
M  V30 2875 C 276.338 -0.619451 -1.76124 0
M  V30 2876 C 276.689 0.865397 -1.76083 0
M  V30 2877 O 275.814 1.67722 -1.36742 0
M  V30 2878 C 276.409 -1.11771 -3.19832 0
M  V30 2879 C 274.968 -0.855174 -3.66557 0
M  V30 2880 C 274.115 -1.27362 -2.46321 0
M  V30 2881 H 277.066 -1.11181 -1.13245 0
M  V30 2882 H 277.087 -0.46759 -3.77616 0
M  V30 2883 H 276.599 -2.19842 -3.1983 0
M  V30 2884 H 274.7 0.211524 -3.71999 0
M  V30 2885 H 274.813 -1.47613 -4.55793 0
M  V30 2886 H 273.177 -0.692119 -2.45116 0
M  V30 2887 H 273.96 -2.36307 -2.49025 0
M  V30 2888 N 276.405 1.4127 -0.698611 0
M  V30 2889 C 277.653 2.00782 -0.230409 0
M  V30 2890 C 277.974 1.5562 1.17505 0
M  V30 2891 O 277.244 0.78815 1.79346 0
M  V30 2892 H 275.824 0.742464 -0.0821944 0
M  V30 2893 H 278.486 1.72852 -0.90045 0
M  V30 2894 H 277.582 3.11095 -0.25021 0
M  V30 2895 N 277.883 0.443576 1.51229 0
M  V30 2896 C 278.831 -0.37904 2.29491 0
M  V30 2897 C 279.825 -1.0153 1.35603 0
M  V30 2898 O 281.031 -0.94955 1.52917 0
M  V30 2899 H 277.406 -0.141053 0.738653 0
M  V30 2900 H 279.377 0.301799 2.9687 0
M  V30 2901 C 278.126 -1.46426 3.15364 0
M  V30 2902 H 277.449 -0.984037 3.87501 0
M  V30 2903 H 278.889 -2.01297 3.7317 0
M  V30 2904 C 277.348 -2.45099 2.31146 0
M  V30 2905 O 277.878 -3.49773 1.9754 0
M  V30 2906 N 276.084 -2.16139 1.94249 0
M  V30 2907 H 275.631 -1.31044 2.21777 0
M  V30 2908 H 275.589 -2.82398 1.38198 0
M  V30 2909 N 279.361 -1.56624 0.175154 0
M  V30 2910 C 280.607 -1.98061 -0.462976 0
M  V30 2911 C 280.962 -1.05949 -1.60601 0
M  V30 2912 O 280.255 -0.0999027 -1.91339 0
M  V30 2913 C 280.449 -3.43419 -0.989864 0
M  V30 2914 C 280.278 -4.49587 0.100583 0
M  V30 2915 C 279.048 -5.02281 0.551539 0
M  V30 2916 C 281.246 -5.06322 0.902369 0
M  V30 2917 N 279.228 -5.92088 1.62189 0
M  V30 2918 C 280.599 -5.92607 1.82256 0
M  V30 2919 C 282.654 -4.88811 0.947019 0
M  V30 2920 C 281.357 -6.63254 2.78364 0
M  V30 2921 C 283.383 -5.60182 1.89606 0
M  V30 2922 C 282.745 -6.46197 2.80372 0
M  V30 2923 H 278.844 -0.769833 -0.137409 0
M  V30 2924 H 281.428 -1.9273 0.276256 0
M  V30 2925 H 279.599 -3.49288 -1.6986 0
M  V30 2926 H 281.331 -3.7186 -1.59694 0
M  V30 2927 H 278.086 -4.73367 0.148537 0
M  V30 2928 H 278.51 -6.41696 2.15767 0
M  V30 2929 H 283.152 -4.22004 0.259304 0
M  V30 2930 H 280.87 -7.29271 3.48122 0
M  V30 2931 H 284.456 -5.48617 1.93676 0
M  V30 2932 H 283.336 -7.00453 3.52612 0
M  V30 2933 N 280.839 0.0985539 -1.57292 0
M  V30 2934 C 282.087 0.801092 -1.85545 0
M  V30 2935 C 282.408 1.79438 -0.763353 0
M  V30 2936 O 281.678 1.94763 0.21073 0
M  V30 2937 H 280.258 0.29884 -0.684619 0
M  V30 2938 H 282.92 0.0810064 -1.94732 0
M  V30 2939 H 282.016 1.3338 -2.82163 0
M  V30 2940 N 282.317 1.53212 0.369288 0
M  V30 2941 C 283.267 1.75769 1.45222 0
M  V30 2942 C 284.251 0.612136 1.48801 0
M  V30 2943 O 285.443 0.870674 1.54105 0
M  V30 2944 C 282.572 1.94769 2.82701 0
M  V30 2945 C 281.658 3.15315 2.83615 0
M  V30 2946 N 282.049 4.37295 2.54178 0
M  V30 2947 C 280.347 3.15962 3.14776 0
M  V30 2948 C 281.048 5.19015 2.62675 0
M  V30 2949 N 280.024 4.55142 2.97232 0
M  V30 2950 H 283.826 2.67691 1.2132 0
M  V30 2951 H 281.34 1.51787 0.577438 0
M  V30 2952 H 283.337 2.09056 3.60696 0
M  V30 2953 H 281.997 1.04073 3.07569 0
M  V30 2954 H 283.008 4.65091 2.27839 0
M  V30 2955 H 279.685 2.35144 3.44983 0
M  V30 2956 H 281.075 6.26305 2.43294 0
M  V30 2957 N 283.795 -0.628877 1.44509 0
M  V30 2958 C 284.725 -1.75187 1.54376 0
M  V30 2959 C 285.706 -1.65411 0.396618 0
M  V30 2960 O 286.891 -1.84137 0.617031 0
M  V30 2961 C 284.021 -3.13725 1.48976 0
M  V30 2962 C 282.975 -3.38291 2.62189 0
M  V30 2963 C 282.301 -4.76883 2.41841 0
M  V30 2964 C 283.601 -3.30632 4.04326 0
M  V30 2965 H 285.295 -1.67187 2.48373 0
M  V30 2966 H 282.841 -0.802909 1.19538 0
M  V30 2967 H 284.794 -3.92064 1.54478 0
M  V30 2968 H 283.518 -3.22515 0.514961 0
M  V30 2969 H 282.177 -2.62334 2.56079 0
M  V30 2970 H 281.825 -4.82378 1.42548 0
M  V30 2971 H 281.525 -4.94278 3.17747 0
M  V30 2972 H 283.049 -5.57449 2.49165 0
M  V30 2973 H 284.463 -3.98873 4.11793 0
M  V30 2974 H 282.86 -3.59561 4.80454 0
M  V30 2975 H 283.93 -2.28404 4.27738 0
M  V30 2976 N 285.273 -1.31445 -0.869486 0
M  V30 2977 C 286.55 -1.11795 -1.60503 0
M  V30 2978 C 286.93 0.327168 -2.08549 0
M  V30 2979 O 286.278 1.32135 -1.8642 0
M  V30 2980 C 286.488 -2.13258 -2.76265 0
M  V30 2981 C 287.836 -2.45805 -3.46215 0
M  V30 2982 O 288.86 -2.11688 -2.86473 0
M  V30 2983 O 287.719 -3.04228 -4.5399 0
M  V30 2984 H 284.813 -0.430421 -0.706163 0
M  V30 2985 H 287.359 -1.42925 -0.914907 0
M  V30 2986 H 286.131 -3.10461 -2.3818 0
M  V30 2987 H 285.754 -1.83035 -3.52964 0
M  V30 2988 N 286.751 1.08385 -1.14413 0
M  V30 2989 C 287.683 2.1519 -0.789036 0
M  V30 2990 C 288.696 1.61638 0.19417 0
M  V30 2991 O 289.885 1.78479 -0.0275711 0
M  V30 2992 C 286.985 3.38565 -0.15058 0
M  V30 2993 C 286.158 4.21501 -1.16857 0
M  V30 2994 C 285.217 5.23277 -0.553832 0
M  V30 2995 O 284.243 5.56041 -1.21686 0
M  V30 2996 N 285.445 5.76629 0.669296 0
M  V30 2997 H 288.21 2.46257 -1.70814 0
M  V30 2998 H 285.771 1.24198 -1.03858 0
M  V30 2999 H 287.763 4.03777 0.273181 0
M  V30 3000 H 286.333 3.05299 0.671667 0
M  V30 3001 H 285.553 3.52265 -1.76926 0
M  V30 3002 H 286.841 4.73731 -1.85624 0
M  V30 3003 H 286.239 5.52243 1.22654 0
M  V30 3004 H 284.796 6.43521 1.03556 0
M  V30 3005 N 288.23 0.939286 1.26551 0
M  V30 3006 C 289.16 0.465044 2.28822 0
M  V30 3007 C 290.141 -0.480692 1.63167 0
M  V30 3008 O 291.326 -0.382955 1.90387 0
M  V30 3009 C 288.456 -0.27234 3.46231 0
M  V30 3010 C 287.41 0.58666 4.2396 0
M  V30 3011 C 286.736 -0.280573 5.33963 0
M  V30 3012 C 288.036 1.85704 4.88171 0
M  V30 3013 H 289.73 1.31979 2.68741 0
M  V30 3014 H 287.276 0.636061 1.29191 0
M  V30 3015 H 289.229 -0.615133 4.16886 0
M  V30 3016 H 287.953 -1.16121 3.0526 0
M  V30 3017 H 286.612 0.91232 3.55067 0
M  V30 3018 H 286.26 -1.16874 4.89234 0
M  V30 3019 H 285.96 0.29076 5.8688 0
M  V30 3020 H 287.484 -0.618678 6.07458 0
M  V30 3021 H 288.898 1.58161 5.51052 0
M  V30 3022 H 287.295 2.37279 5.51197 0
M  V30 3023 H 288.365 2.56957 4.11219 0
M  V30 3024 N 289.708 -1.40897 0.706093 0
M  V30 3025 C 290.671 -2.29131 0.0562841 0
M  V30 3026 C 291.671 -1.44901 -0.697166 0
M  V30 3027 O 292.861 -1.65926 -0.530484 0
M  V30 3028 C 289.993 -3.27957 -0.93043 0
M  V30 3029 H 291.186 -2.88091 0.833284 0
M  V30 3030 H 288.739 -1.4906 0.470192 0
M  V30 3031 H 289.474 -2.73997 -1.73482 0
M  V30 3032 H 289.259 -3.90124 -0.393166 0
M  V30 3033 H 290.749 -3.94049 -1.38256 0
M  V30 3034 N 291.186 -0.45159 -1.50991 0
M  V30 3035 C 292.149 0.341117 -2.26647 0
M  V30 3036 C 293.149 0.937422 -1.30649 0
M  V30 3037 O 294.339 0.809644 -1.54241 0
M  V30 3038 C 291.471 1.48398 -3.06905 0
M  V30 3039 H 292.664 -0.322117 -2.98165 0
M  V30 3040 H 290.217 -0.205122 -1.54948 0
M  V30 3041 H 290.952 2.18284 -2.39838 0
M  V30 3042 H 290.737 1.06241 -3.77432 0
M  V30 3043 H 292.227 2.04367 -3.64176 0
M  V30 3044 N 292.664 1.56529 -0.183458 0
M  V30 3045 C 293.594 2.21549 0.737456 0
M  V30 3046 C 294.575 1.17489 1.23005 0
M  V30 3047 O 295.76 1.45959 1.281 0
M  V30 3048 C 292.89 2.86575 1.96194 0
M  V30 3049 C 291.844 3.96778 1.60473 0
M  V30 3050 C 291.17 4.48911 2.90487 0
M  V30 3051 C 292.47 5.15767 0.823497 0
M  V30 3052 H 294.164 2.98761 0.195453 0
M  V30 3053 H 291.71 1.43702 0.0925686 0
M  V30 3054 H 293.663 3.30739 2.61131 0
M  V30 3055 H 292.387 2.06749 2.52828 0
M  V30 3056 H 291.046 3.53286 0.978997 0
M  V30 3057 H 290.694 3.65862 3.45186 0
M  V30 3058 H 290.394 5.23265 2.67335 0
M  V30 3059 H 291.918 4.95771 3.56432 0
M  V30 3060 H 293.332 5.56549 1.37571 0
M  V30 3061 H 291.729 5.96114 0.690551 0
M  V30 3062 H 292.799 4.84574 -0.177782 0
M  V30 3063 N 294.142 -0.090211 1.57342 0
M  V30 3064 C 295.092 -1.11557 1.98844 0
M  V30 3065 C 296.076 -1.35503 0.867624 0
M  V30 3066 O 297.268 -1.36113 1.13148 0
M  V30 3067 C 294.397 -2.43446 2.42051 0
M  V30 3068 C 293.483 -2.22853 3.60828 0
M  V30 3069 N 293.874 -1.72141 4.75606 0
M  V30 3070 C 292.172 -2.53401 3.67021 0
M  V30 3071 C 292.873 -1.65932 5.57531 0
M  V30 3072 N 291.849 -2.11323 5.00843 0
M  V30 3073 H 295.651 -0.716499 2.85032 0
M  V30 3074 H 293.165 -0.297567 1.59651 0
M  V30 3075 H 295.162 -3.17644 2.70014 0
M  V30 3076 H 293.822 -2.84087 1.57241 0
M  V30 3077 H 294.833 -1.41268 4.98261 0
M  V30 3078 H 291.51 -2.97532 2.92884 0
M  V30 3079 H 292.9 -1.27733 6.59647 0
M  V30 3080 N 295.62 -1.53406 -0.361157 0
M  V30 3081 C 296.866 -1.70999 -1.1014 0
M  V30 3082 C 297.221 -0.458425 -1.86859 0
M  V30 3083 O 296.514 0.548654 -1.83577 0
M  V30 3084 C 296.708 -2.90211 -2.08596 0
M  V30 3085 C 296.537 -4.26841 -1.41553 0
M  V30 3086 C 295.307 -4.91621 -1.16778 0
M  V30 3087 C 297.505 -5.07212 -0.850915 0
M  V30 3088 N 295.487 -6.12164 -0.461312 0
M  V30 3089 C 296.858 -6.19394 -0.274046 0
M  V30 3090 C 298.913 -4.92218 -0.750036 0
M  V30 3091 C 297.616 -7.18221 0.393868 0
M  V30 3092 C 299.642 -5.91322 -0.095894 0
M  V30 3093 C 299.004 -7.0283 0.470081 0
M  V30 3094 H 295.103 -0.678939 -0.388028 0
M  V30 3095 H 297.687 -1.90811 -0.38722 0
M  V30 3096 H 295.858 -2.71931 -2.77323 0
M  V30 3097 H 297.59 -2.96606 -2.7533 0
M  V30 3098 H 294.345 -4.50849 -1.45024 0
M  V30 3099 H 294.769 -6.76888 -0.123312 0
M  V30 3100 H 299.411 -4.06192 -1.17337 0
M  V30 3101 H 297.129 -8.03835 0.82914 0
M  V30 3102 H 300.715 -5.81797 -0.0187075 0
M  V30 3103 H 299.595 -7.782 0.968241 0
M  V30 3104 N 297.098 0.621204 -1.44841 0
M  V30 3105 C 298.344 1.3826 -1.48365 0
M  V30 3106 C 298.677 1.93831 -0.119624 0
M  V30 3107 O 297.952 1.74251 0.864111 0
M  V30 3108 C 298.235 2.54058 -2.55199 0
M  V30 3109 C 298.088 2.03772 -4.00995 0
M  V30 3110 C 299.407 3.56225 -2.58442 0
M  V30 3111 H 296.526 0.501374 -0.540179 0
M  V30 3112 H 299.168 0.7015 -1.76576 0
M  V30 3113 H 297.318 3.12162 -2.31274 0
M  V30 3114 H 298.99 1.50423 -4.36086 0
M  V30 3115 H 297.233 1.34876 -4.12299 0
M  V30 3116 H 297.904 2.87185 -4.71411 0
M  V30 3117 H 300.38 3.07939 -2.79844 0
M  V30 3118 H 299.256 4.34756 -3.3508 0
M  V30 3119 H 299.517 4.10949 -1.63013 0
M  V30 3120 N 298.576 1.31904 0.862503 0
M  V30 3121 C 299.508 1.16005 1.97675 0
M  V30 3122 C 300.521 0.0971234 1.6251 0
M  V30 3123 O 301.71 0.345337 1.75128 0
M  V30 3124 C 298.81 0.751791 3.30456 0
M  V30 3125 C 297.983 1.90133 3.93914 0
M  V30 3126 C 297.042 1.4779 5.05019 0
M  V30 3127 O 296.068 2.18872 5.25437 0
M  V30 3128 N 297.27 0.369491 5.79323 0
M  V30 3129 H 300.035 2.11982 2.11857 0
M  V30 3130 H 297.596 1.24337 1.03691 0
M  V30 3131 H 299.588 0.451084 4.02178 0
M  V30 3132 H 298.158 -0.116593 3.12382 0
M  V30 3133 H 297.378 2.36896 3.15078 0
M  V30 3134 H 298.666 2.67111 4.33047 0
M  V30 3135 H 298.064 -0.222299 5.65263 0
M  V30 3136 H 296.621 0.128354 6.51674 0
M  V30 3137 N 300.054 -1.07777 1.14986 0
M  V30 3138 C 301.331 -1.7699 0.832695 0
M  V30 3139 C 301.711 -2.001 -0.672561 0
M  V30 3140 O 301.059 -1.61598 -1.6155 0
M  V30 3141 C 301.269 -3.08139 1.63863 0
M  V30 3142 C 302.617 -3.8256 1.84208 0
M  V30 3143 O 303.641 -3.17939 1.60603 0
M  V30 3144 O 302.5 -4.98612 2.23714 0
M  V30 3145 H 299.594 -0.768389 0.305791 0
M  V30 3146 H 302.14 -1.14182 1.25541 0
M  V30 3147 H 300.912 -2.86909 2.6608 0
M  V30 3148 H 300.535 -3.78678 1.21197 0
M  V30 3149 N 301.532 -0.945985 -1.26051 0
M  V30 3150 C 302.48 -0.450259 -2.282 0
M  V30 3151 C 303.474 0.47497 -1.62605 0
M  V30 3152 O 304.68 0.352653 -1.76512 0
M  V30 3153 H 301.055 -0.127081 -0.741184 0
M  V30 3154 H 303.026 -1.32422 -2.67408 0
M  V30 3155 C 301.775 0.26467 -3.46691 0
M  V30 3156 H 301.098 -0.438123 -3.97392 0
M  V30 3157 H 302.538 0.575678 -4.20074 0
M  V30 3158 C 300.997 1.48416 -3.02447 0
M  V30 3159 O 301.527 2.58227 -3.07704 0
M  V30 3160 N 299.733 1.34243 -2.57735 0
M  V30 3161 H 299.28 0.448994 -2.53657 0
M  V30 3162 H 299.238 2.15957 -2.28495 0
M  V30 3163 N 303.011 1.40521 -0.713556 0
M  V30 3164 C 304.26 2.00155 -0.249192 0
M  V30 3165 C 304.573 1.57224 1.16362 0
M  V30 3166 O 305.779 2.09542 1.72639 0
M  V30 3167 C 304.235 3.5773 -0.3946 0
M  V30 3168 C 303.843 4.09635 -1.81392 0
M  V30 3169 C 305.587 4.24499 0.00907364 0
M  V30 3170 C 303.494 5.59707 -1.91003 0
M  V30 3171 H 302.424 0.74868 -0.0894114 0
M  V30 3172 H 305.075 1.60784 -0.884352 0
M  V30 3173 H 303.457 3.94792 0.30911 0
M  V30 3174 H 304.631 3.83955 -2.54785 0
M  V30 3175 H 302.946 3.55456 -2.16888 0
M  V30 3176 H 305.543 5.34683 -0.0420404 0
M  V30 3177 H 305.886 4.02824 1.05065 0
M  V30 3178 H 306.419 3.92536 -0.645007 0
M  V30 3179 H 303.158 5.86234 -2.93275 0
M  V30 3180 H 302.678 5.87258 -1.22019 0
M  V30 3181 H 304.357 6.24776 -1.6812 0
M  V30 3182 N 304.489 0.459591 1.5075 0
M  V30 3183 C 305.452 -0.329093 2.26825 0
M  V30 3184 C 306.452 -0.930481 1.31144 0
M  V30 3185 O 307.642 -0.801453 1.54669 0
M  V30 3186 C 304.774 -1.46768 3.07688 0
M  V30 3187 H 305.967 0.337924 2.9799 0
M  V30 3188 H 303.52 0.213336 1.54837 0
M  V30 3189 H 304.255 -2.17009 2.40993 0
M  V30 3190 H 304.04 -1.04238 3.77991 0
M  V30 3191 H 305.53 -2.02433 3.65254 0
M  V30 3192 N 305.967 -1.56429 0.191757 0
M  V30 3193 C 307.192 -2.02309 -0.456706 0
M  V30 3194 C 307.617 -1.07103 -1.5463 0
M  V30 3195 O 306.975 -0.0539677 -1.8122 0
M  V30 3196 C 307.023 -3.46654 -0.993159 0
M  V30 3197 O 306.127 -3.54559 -2.10622 0
M  V30 3198 H 305.468 -0.655303 -0.107114 0
M  V30 3199 H 307.998 -2.02364 0.301653 0
M  V30 3200 H 308.008 -3.86377 -1.31061 0
M  V30 3201 H 306.683 -4.1544 -0.195504 0
M  V30 3202 H 305.26 -3.26708 -1.79767 0
M  V30 3203 N 307.445 0.0818655 -1.57387 0
M  V30 3204 C 308.692 0.782914 -1.86753 0
M  V30 3205 C 309.02 1.78082 -0.782118 0
M  V30 3206 O 308.275 1.94426 0.22295 0
M  V30 3207 C 308.574 1.53513 -3.22752 0
M  V30 3208 C 308.24 0.678134 -4.45771 0
M  V30 3209 C 306.902 0.441929 -4.79166 0
M  V30 3210 C 309.254 0.0832243 -5.21134 0
M  V30 3211 C 306.582 -0.398833 -5.85343 0
M  V30 3212 C 308.934 -0.744935 -6.28199 0
M  V30 3213 C 307.598 -0.991107 -6.60101 0
M  V30 3214 H 306.868 0.286489 -0.683378 0
M  V30 3215 H 309.515 0.0439808 -1.91449 0
M  V30 3216 H 307.82 2.34599 -3.138 0
M  V30 3217 H 309.517 2.08218 -3.42705 0
M  V30 3218 H 306.107 0.872357 -4.19628 0
M  V30 3219 H 310.291 0.252847 -4.95655 0
M  V30 3220 H 305.547 -0.598405 -6.08465 0
M  V30 3221 H 309.721 -1.21271 -6.8576 0
M  V30 3222 H 307.348 -1.64437 -7.42202 0
M  V30 3223 N 308.923 1.53595 0.353017 0
M  V30 3224 C 310.171 1.70049 1.09215 0
M  V30 3225 C 310.492 0.461406 1.89463 0
M  V30 3226 O 309.762 -0.524633 1.88744 0
M  V30 3227 H 308.342 0.626912 0.40619 0
M  V30 3228 H 311.004 1.90822 0.396585 0
M  V30 3229 H 310.1 2.56718 1.77488 0
M  V30 3230 N 310.401 -0.613514 1.45168 0
M  V30 3231 C 311.649 -1.36997 1.48581 0
M  V30 3232 C 311.97 -1.94589 0.126545 0
M  V30 3233 O 311.24 -1.76816 -0.843372 0
M  V30 3234 H 309.82 -0.508558 0.547154 0
M  V30 3235 H 312.482 -0.720853 1.81079 0
M  V30 3236 H 311.578 -2.1924 2.22127 0
M  V30 3237 N 311.879 -1.3236 -0.855495 0
M  V30 3238 C 312.827 -1.2118 -1.9854 0
M  V30 3239 C 313.821 -0.116788 -1.68997 0
M  V30 3240 O 315.027 -0.279657 -1.77814 0
M  V30 3241 H 311.402 -0.375608 -0.651477 0
M  V30 3242 H 313.373 -2.16743 -2.05098 0
M  V30 3243 C 312.122 -0.950849 -3.34446 0
M  V30 3244 H 311.445 -1.78563 -3.57708 0
M  V30 3245 H 312.885 -0.912863 -4.14057 0
M  V30 3246 C 311.344 0.346404 -3.35114 0
M  V30 3247 O 311.874 1.35855 -3.7803 0
M  V30 3248 N 310.08 0.36808 -2.88259 0
M  V30 3249 H 309.627 -0.456102 -2.5353 0
M  V30 3250 H 309.585 1.23591 -2.89089 0
M  V30 3251 N 313.357 1.07166 -1.15556 0
M  V30 3252 C 314.768 1.6127 -0.940693 0
M  V30 3253 C 315.119 1.89251 0.517551 0
M  V30 3254 O 314.244 1.65937 1.38903 0
M  V30 3255 C 314.839 2.92993 -1.7012 0
M  V30 3256 C 313.398 3.43832 -1.53156 0
M  V30 3257 C 312.545 2.1786 -1.71558 0
M  V30 3258 H 315.496 0.90229 -1.30554 0
M  V30 3259 H 315.517 3.62007 -1.17181 0
M  V30 3260 H 315.029 2.72596 -2.76248 0
M  V30 3261 H 313.13 3.69307 -0.494294 0
M  V30 3262 H 313.243 4.19747 -2.30975 0
M  V30 3263 H 311.607 2.2765 -1.14225 0
M  V30 3264 H 312.39 1.99956 -2.79056 0
M  V30 3265 N 314.835 0.952656 1.25548 0
M  V30 3266 C 316.083 0.605176 1.92826 0
M  V30 3267 C 316.404 -0.860261 1.74999 0
M  V30 3268 O 315.674 -1.6125 1.11244 0
M  V30 3269 H 314.254 0.220832 0.713612 0
M  V30 3270 H 316.916 1.21047 1.52754 0
M  V30 3271 H 316.012 0.832798 3.00784 0
M  V30 3272 N 316.313 -1.40141 0.720998 0
M  V30 3273 C 317.538 -2.05618 0.271258 0
M  V30 3274 C 317.963 -1.53978 -1.08039 0
M  V30 3275 O 317.321 -0.677463 -1.68167 0
M  V30 3276 C 317.369 -3.59609 0.267197 0
M  V30 3277 O 316.473 -4.05526 -0.749814 0
M  V30 3278 H 315.814 -0.651904 0.126162 0
M  V30 3279 H 318.344 -1.79439 0.982997 0
M  V30 3280 H 318.354 -4.0786 0.106744 0
M  V30 3281 H 317.029 -3.96559 1.25354 0
M  V30 3282 H 315.606 -3.68722 -0.556644 0
M  V30 3283 N 317.792 -0.46758 -1.50504 0
M  V30 3284 C 319.038 0.0887532 -2.02606 0
M  V30 3285 C 319.371 1.39686 -1.34913 0
M  V30 3286 O 318.646 1.88644 -0.473694 0
M  V30 3287 C 318.929 0.276206 -3.59039 0
M  V30 3288 C 318.782 -1.05267 -4.37309 0
M  V30 3289 C 320.101 1.03235 -4.27821 0
M  V30 3290 H 317.22 0.0307814 -0.736357 0
M  V30 3291 H 319.862 -0.612485 -1.79857 0
M  V30 3292 H 318.012 0.8735 -3.78553 0
M  V30 3293 H 319.684 -1.68628 -4.29374 0
M  V30 3294 H 317.927 -1.65015 -4.01189 0
M  V30 3295 H 318.598 -0.875197 -5.45018 0
M  V30 3296 H 321.074 0.526111 -4.12761 0
M  V30 3297 H 319.95 1.1323 -5.37094 0
M  V30 3298 H 320.211 2.06806 -3.90748 0
M  V30 3299 N 319.27 1.56325 -0.20005 0
M  V30 3300 C 320.498 2.02105 0.442874 0
M  V30 3301 C 320.913 1.08014 1.5485 0
M  V30 3302 O 320.27 0.0858797 1.82298 0
M  V30 3303 C 320.321 3.47549 0.994583 0
M  V30 3304 O 320.042 4.38049 -0.0669322 0
M  V30 3305 C 321.543 4.0887 1.7129 0
M  V30 3306 H 318.763 0.661807 0.110691 0
M  V30 3307 H 321.307 2.02134 -0.310207 0
M  V30 3308 H 319.462 3.48204 1.69803 0
M  V30 3309 H 319.876 5.23368 0.344462 0
M  V30 3310 H 321.35 5.12475 2.05118 0
M  V30 3311 H 321.827 3.52615 2.61838 0
M  V30 3312 H 322.433 4.12002 1.05518 0
M  V30 3313 N 320.748 -0.0735177 1.57428 0
M  V30 3314 C 321.997 -0.771809 1.86349 0
M  V30 3315 C 322.31 -1.78828 0.792452 0
M  V30 3316 O 323.516 -2.53602 0.96945 0
M  V30 3317 C 321.972 -1.42358 3.30548 0
M  V30 3318 C 321.58 -0.445761 4.45777 0
M  V30 3319 C 323.324 -2.10434 3.6867 0
M  V30 3320 C 321.231 -1.10335 5.81016 0
M  V30 3321 H 320.161 -0.291999 0.695164 0
M  V30 3322 H 322.812 -0.0250749 1.83483 0
M  V30 3323 H 321.194 -2.21852 3.28021 0
M  V30 3324 H 322.368 0.319239 4.59693 0
M  V30 3325 H 320.683 0.130457 4.16196 0
M  V30 3326 H 323.28 -2.60405 4.67004 0
M  V30 3327 H 323.623 -2.90298 2.98383 0
M  V30 3328 H 324.156 -1.37773 3.7318 0
M  V30 3329 H 320.895 -0.345061 6.54591 0
M  V30 3330 H 320.415 -1.83925 5.70904 0
M  V30 3331 H 322.094 -1.62367 6.26295 0
M  V30 3332 N 322.226 -1.5378 -0.344866 0
M  V30 3333 C 323.473 -1.70963 -1.08526 0
M  V30 3334 C 323.801 -0.472126 -1.88683 0
M  V30 3335 O 323.056 0.546116 -1.87926 0
M  V30 3336 C 323.355 -2.92407 -2.05506 0
M  V30 3337 C 323.021 -4.28066 -1.41671 0
M  V30 3338 C 321.683 -4.64951 -1.2399 0
M  V30 3339 C 324.035 -5.12344 -0.956726 0
M  V30 3340 C 321.363 -5.83733 -0.589277 0
M  V30 3341 C 323.715 -6.3179 -0.320015 0
M  V30 3342 C 322.379 -6.67372 -0.130881 0
M  V30 3343 H 321.649 -0.625598 -0.397124 0
M  V30 3344 H 324.296 -1.87995 -0.36469 0
M  V30 3345 H 322.601 -2.69973 -2.8394 0
M  V30 3346 H 324.298 -3.02895 -2.62784 0
M  V30 3347 H 320.888 -3.99034 -1.56429 0
M  V30 3348 H 325.072 -4.8438 -1.08118 0
M  V30 3349 H 320.328 -6.09877 -0.431344 0
M  V30 3350 H 324.502 -6.96386 0.0445072 0
M  V30 3351 H 322.129 -7.59273 0.375318 0
M  V30 3352 N 323.704 0.605807 -1.45491 0
M  V30 3353 C 324.952 1.36207 -1.49305 0
M  V30 3354 C 325.273 1.94519 -0.136863 0
M  V30 3355 O 324.543 1.77261 0.833983 0
M  V30 3356 H 323.123 0.50565 -0.549843 0
M  V30 3357 H 325.785 0.711239 -1.81459 0
M  V30 3358 H 324.881 2.18058 -2.23287 0
M  V30 3359 N 325.182 1.32811 0.848464 0
M  V30 3360 C 326.43 1.23479 1.59991 0
M  V30 3361 C 326.751 -0.201853 1.93952 0
M  V30 3362 O 326.021 -1.12818 1.60153 0
M  V30 3363 H 324.601 0.454034 0.593179 0
M  V30 3364 H 327.263 1.66412 1.01455 0
M  V30 3365 H 326.359 1.82178 2.53412 0
M  V30 3366 N 326.66 -1.06551 1.16123 0
M  V30 3367 C 327.885 -1.83544 0.965735 0
M  V30 3368 C 328.31 -1.81843 -0.481102 0
M  V30 3369 O 327.668 -1.21732 -1.34354 0
M  V30 3370 C 327.716 -3.28169 1.49457 0
M  V30 3371 O 326.82 -4.0643 0.699157 0
M  V30 3372 H 326.161 -0.568026 0.343864 0
M  V30 3373 H 328.691 -1.34362 1.54299 0
M  V30 3374 H 328.701 -3.78992 1.51092 0
M  V30 3375 H 327.376 -3.28722 2.54784 0
M  V30 3376 H 325.953 -3.65216 0.7531 0
M  V30 3377 N 328.138 -0.959301 -1.25041 0
M  V30 3378 C 329.384 -0.617525 -1.9317 0
M  V30 3379 C 329.717 0.843981 -1.74902 0
M  V30 3380 O 328.992 1.60615 -1.09696 0
M  V30 3381 C 329.275 -0.982736 -3.46431 0
M  V30 3382 C 329.128 -2.50032 -3.73904 0
M  V30 3383 C 330.447 -0.511176 -4.37121 0
M  V30 3384 H 327.566 -0.22582 -0.701552 0
M  V30 3385 H 330.208 -1.19679 -1.4757 0
M  V30 3386 H 328.358 -0.489806 -3.854 0
M  V30 3387 H 330.03 -3.06737 -3.44544 0
M  V30 3388 H 328.273 -2.93598 -3.19348 0
M  V30 3389 H 328.944 -2.70635 -4.81103 0
M  V30 3390 H 331.42 -0.934075 -4.0548 0
M  V30 3391 H 330.296 -0.795361 -5.43107 0
M  V30 3392 H 330.557 0.588834 -4.38161 0
M  V30 3393 N 329.616 1.39756 -0.72842 0
M  V30 3394 C 330.864 2.00248 -0.272946 0
M  V30 3395 C 331.185 1.58077 1.14178 0
M  V30 3396 O 330.455 0.826014 1.77634 0
M  V30 3397 H 329.035 0.740554 -0.0979247 0
M  V30 3398 H 331.697 1.70903 -0.936912 0
M  V30 3399 H 330.793 3.10495 -0.316142 0
M  V30 3400 N 331.094 0.475555 1.50254 0
M  V30 3401 C 332.342 -0.077738 2.0195 0
M  V30 3402 C 332.663 -1.39813 1.35931 0
M  V30 3403 O 331.933 -1.89249 0.506123 0
M  V30 3404 H 330.513 -0.031719 0.746326 0
M  V30 3405 H 333.175 0.626995 1.84539 0
M  V30 3406 H 332.271 -0.225995 3.11281 0
M  V30 3407 N 332.573 -1.56217 0.208337 0
M  V30 3408 C 333.483 -2.23316 -0.718836 0
M  V30 3409 C 334.499 -1.23648 -1.22422 0
M  V30 3410 O 335.675 -1.56423 -1.26861 0
M  V30 3411 C 332.74 -2.88968 -1.91568 0
M  V30 3412 C 331.801 -4.03943 -1.45357 0
M  V30 3413 C 331.034 -4.66455 -2.59337 0
M  V30 3414 O 331.257 -4.27919 -3.77149 0
M  V30 3415 O 330.191 -5.55686 -2.31293 0
M  V30 3416 H 334.017 -3.03182 -0.177315 0
M  V30 3417 H 331.602 -1.49384 -0.0215402 0
M  V30 3418 H 333.484 -3.30455 -2.61491 0
M  V30 3419 H 332.159 -2.12071 -2.44556 0
M  V30 3420 H 331.066 -3.67052 -0.722746 0
M  V30 3421 H 332.399 -4.82543 -0.970219 0
M  V30 3422 N 334.051 0.0651679 -1.57465 0
M  V30 3423 C 335.276 0.779605 -1.9219 0
M  V30 3424 C 335.701 1.69988 -0.805333 0
M  V30 3425 O 335.059 1.79685 0.241435 0
M  V30 3426 C 335.107 1.54364 -3.2589 0
M  V30 3427 O 334.211 2.65474 -3.1559 0
M  V30 3428 H 333.552 0.212249 -0.629163 0
M  V30 3429 H 336.082 0.0314294 -2.04576 0
M  V30 3430 H 336.092 1.92146 -3.59922 0
M  V30 3431 H 334.767 0.868457 -4.06732 0
M  V30 3432 H 333.344 2.30501 -2.93128 0
M  V30 3433 N 335.529 1.53961 0.336706 0
M  V30 3434 C 336.775 1.7179 1.07777 0
M  V30 3435 C 337.108 0.483263 1.88091 0
M  V30 3436 O 336.383 -0.519747 1.87427 0
M  V30 3437 C 336.666 2.98558 2.01334 0
M  V30 3438 C 336.519 4.32245 1.24437 0
M  V30 3439 C 337.838 3.21023 3.01052 0
M  V30 3440 H 334.957 0.625089 0.390426 0
M  V30 3441 H 337.599 1.86641 0.35567 0
M  V30 3442 H 335.749 2.86028 2.62908 0
M  V30 3443 H 337.421 4.56637 0.654243 0
M  V30 3444 H 335.664 4.30344 0.546458 0
M  V30 3445 H 336.335 5.17137 1.93063 0
M  V30 3446 H 338.811 3.32929 2.49595 0
M  V30 3447 H 337.687 4.11104 3.6371 0
M  V30 3448 H 337.948 2.37637 3.72802 0
M  V30 3449 N 337.007 -0.598083 1.45811 0
M  V30 3450 C 338.232 -1.3881 1.54099 0
M  V30 3451 C 338.657 -1.8726 0.177578 0
M  V30 3452 O 338.015 -1.6069 -0.839541 0
M  V30 3453 C 338.063 -2.56217 2.53743 0
M  V30 3454 O 337.167 -3.5716 2.06182 0
M  V30 3455 H 336.508 -0.414024 0.519115 0
M  V30 3456 H 339.038 -0.726971 1.91249 0
M  V30 3457 H 339.048 -3.03337 2.72856 0
M  V30 3458 H 337.723 -2.20303 3.5276 0
M  V30 3459 H 336.3 -3.16624 1.96987 0
M  V30 3460 N 338.485 -1.33259 -0.841409 0
M  V30 3461 C 339.731 -1.24757 -1.59886 0
M  V30 3462 C 340.064 0.186913 -1.93298 0
M  V30 3463 O 339.339 1.12757 -1.5848 0
M  V30 3464 C 339.622 -2.12036 -2.91055 0
M  V30 3465 C 339.475 -3.63929 -2.6434 0
M  V30 3466 C 340.794 -1.9916 -3.92458 0
M  V30 3467 H 337.913 -0.454542 -0.580138 0
M  V30 3468 H 340.555 -1.63335 -0.970647 0
M  V30 3469 H 338.705 -1.79265 -3.44669 0
M  V30 3470 H 340.377 -4.06978 -2.17178 0
M  V30 3471 H 338.62 -3.85935 -1.98082 0
M  V30 3472 H 339.291 -4.20341 -3.57796 0
M  V30 3473 H 341.767 -2.27895 -3.48143 0
M  V30 3474 H 340.643 -2.62484 -4.82072 0
M  V30 3475 H 340.904 -0.963082 -4.31482 0
M  V30 3476 N 339.963 1.05934 -1.16686 0
M  V30 3477 C 340.893 2.1546 -0.899949 0
M  V30 3478 C 341.874 1.69391 0.155154 0
M  V30 3479 O 343.059 1.94199 0.00648693 0
M  V30 3480 C 340.189 3.44939 -0.404241 0
M  V30 3481 C 339.143 4.04536 -1.39767 0
M  V30 3482 C 338.469 5.29268 -0.760216 0
M  V30 3483 C 339.769 4.42893 -2.76845 0
M  V30 3484 H 341.463 2.38046 -1.81588 0
M  V30 3485 H 339.009 1.14404 -0.874514 0
M  V30 3486 H 340.962 4.20901 -0.204971 0
M  V30 3487 H 339.686 3.21983 0.547206 0
M  V30 3488 H 338.345 3.30635 -1.58355 0
M  V30 3489 H 337.993 5.02611 0.197831 0
M  V30 3490 H 337.693 5.70101 -1.42332 0
M  V30 3491 H 339.217 6.07924 -0.57105 0
M  V30 3492 H 340.631 5.09921 -2.62019 0
M  V30 3493 H 339.028 4.94721 -3.39663 0
M  V30 3494 H 340.098 3.53584 -3.31823 0
M  V30 3495 N 341.441 0.965919 1.2453 0
M  V30 3496 C 342.687 0.62776 1.92839 0
M  V30 3497 C 343.02 -0.834694 1.75347 0
M  V30 3498 O 342.295 -1.60031 1.10546 0
M  V30 3499 C 342.578 1.00109 3.45905 0
M  V30 3500 C 342.431 2.52011 3.72573 0
M  V30 3501 C 343.75 0.53435 4.36844 0
M  V30 3502 H 340.869 0.229537 0.700344 0
M  V30 3503 H 343.511 1.2046 1.46933 0
M  V30 3504 H 341.661 0.510238 3.85135 0
M  V30 3505 H 343.333 3.08559 3.42912 0
M  V30 3506 H 341.576 2.95287 3.17786 0
M  V30 3507 H 342.247 2.73183 4.79661 0
M  V30 3508 H 344.723 0.955565 4.04979 0
M  V30 3509 H 343.599 0.824152 5.42678 0
M  V30 3510 H 343.86 -0.565589 4.38467 0
M  V30 3511 N 342.919 -1.39368 0.735821 0
M  V30 3512 C 343.849 -2.33234 0.111506 0
M  V30 3513 C 344.83 -1.53954 -0.723334 0
M  V30 3514 O 346.015 -1.82344 -0.668147 0
M  V30 3515 C 343.145 -3.38057 -0.795917 0
M  V30 3516 C 342.099 -4.2795 -0.065172 0
M  V30 3517 C 341.425 -5.23479 -1.08967 0
M  V30 3518 C 342.725 -5.10741 1.09273 0
M  V30 3519 H 344.419 -2.85692 0.895571 0
M  V30 3520 H 341.965 -1.37364 0.432109 0
M  V30 3521 H 343.918 -4.02675 -1.24221 0
M  V30 3522 H 342.642 -2.8404 -1.61211 0
M  V30 3523 H 341.301 -3.64813 0.361511 0
M  V30 3524 H 340.949 -4.65758 -1.89944 0
M  V30 3525 H 340.649 -5.84472 -0.605489 0
M  V30 3526 H 342.173 -5.90974 -1.53565 0
M  V30 3527 H 343.587 -5.68699 0.724841 0
M  V30 3528 H 341.984 -5.8088 1.50659 0
M  V30 3529 H 343.054 -4.45525 1.91404 0
M  V30 3530 N 344.397 -0.483516 -1.5 0
M  V30 3531 C 345.622 0.0667119 -2.07293 0
M  V30 3532 C 346.047 1.3164 -1.3436 0
M  V30 3533 O 345.405 1.76945 -0.394987 0
M  V30 3534 C 345.453 0.321126 -3.59167 0
M  V30 3535 O 344.557 1.39927 -3.87936 0
M  V30 3536 H 343.898 -0.0184758 -0.663743 0
M  V30 3537 H 346.428 -0.678125 -1.93035 0
M  V30 3538 H 346.438 0.557906 -4.04168 0
M  V30 3539 H 345.113 -0.592007 -4.11665 0
M  V30 3540 H 343.69 1.14882 -3.54763 0
M  V30 3541 N 345.875 1.56104 -0.216619 0
M  V30 3542 C 347.286 1.844 0.292128 0
M  V30 3543 C 347.637 1.13788 1.59833 0
M  V30 3544 O 346.762 0.405888 2.12559 0
M  V30 3545 C 347.357 3.3452 0.53681 0
M  V30 3546 C 345.916 3.63151 0.989876 0
M  V30 3547 C 345.063 2.77255 0.0502302 0
M  V30 3548 H 348.014 1.52481 -0.439926 0
M  V30 3549 H 348.035 3.54459 1.38345 0
M  V30 3550 H 347.547 3.85885 -0.414031 0
M  V30 3551 H 345.648 3.17238 1.95425 0
M  V30 3552 H 345.761 4.71177 0.867698 0
M  V30 3553 H 344.125 2.48555 0.556117 0
M  V30 3554 H 344.908 3.31416 -0.89544 0
M  V30 3555 N 347.353 -0.0568162 1.57498 0
M  V30 3556 C 348.283 -1.06593 2.0775 0
M  V30 3557 C 349.264 -1.39448 0.974082 0
M  V30 3558 O 350.449 -1.48815 1.24771 0
M  V30 3559 C 347.579 -2.37509 2.5339 0
M  V30 3560 C 346.533 -2.1897 3.67745 0
M  V30 3561 C 345.859 -3.55402 3.99492 0
M  V30 3562 C 347.159 -1.59859 4.97235 0
M  V30 3563 H 348.853 -0.647706 2.9231 0
M  V30 3564 H 346.399 -0.310116 1.40621 0
M  V30 3565 H 348.352 -3.08409 2.87162 0
M  V30 3566 H 347.076 -2.8134 1.65878 0
M  V30 3567 H 345.735 -1.50508 3.3428 0
M  V30 3568 H 345.383 -3.9683 3.09088 0
M  V30 3569 H 345.083 -3.43831 4.76502 0
M  V30 3570 H 346.607 -4.27708 4.35773 0
M  V30 3571 H 348.021 -2.20642 5.29141 0
M  V30 3572 H 346.418 -1.58942 5.78669 0
M  V30 3573 H 347.488 -0.561506 4.81638 0
M  V30 3574 N 348.832 -1.54138 -0.328536 0
M  V30 3575 C 349.795 -1.82462 -1.38709 0
M  V30 3576 C 350.795 -0.696229 -1.44946 0
M  V30 3577 O 351.985 -0.964535 -1.4506 0
M  V30 3578 C 349.117 -1.98018 -2.77492 0
M  V30 3579 H 350.31 -2.77037 -1.14851 0
M  V30 3580 H 347.863 -1.45779 -0.563751 0
M  V30 3581 H 348.598 -1.05637 -3.06613 0
M  V30 3582 H 348.383 -2.80124 -2.74359 0
M  V30 3583 H 349.873 -2.21396 -3.54081 0
M  V30 3584 N 350.31 0.590341 -1.46126 0
M  V30 3585 C 351.257 1.69994 -1.56111 0
M  V30 3586 C 352.227 1.61065 -0.405867 0
M  V30 3587 O 353.412 1.8039 -0.621613 0
M  V30 3588 C 350.552 3.08326 -1.55013 0
M  V30 3589 C 349.665 3.27936 -2.81215 0
M  V30 3590 C 348.8 4.56473 -2.71673 0
M  V30 3591 C 347.839 4.694 -3.92849 0
M  V30 3592 N 346.976 5.89254 -3.81738 0
M  V30 3593 H 351.816 1.60797 -2.50895 0
M  V30 3594 H 349.353 0.783799 -1.24479 0
M  V30 3595 H 351.311 3.88383 -1.52362 0
M  V30 3596 H 349.941 3.16439 -0.637667 0
M  V30 3597 H 348.993 2.41536 -2.93879 0
M  V30 3598 H 350.305 3.33357 -3.71045 0
M  V30 3599 H 349.459 5.44748 -2.67085 0
M  V30 3600 H 348.198 4.53477 -1.7947 0
M  V30 3601 H 347.203 3.79544 -3.97777 0
M  V30 3602 H 348.428 4.7418 -4.86138 0
M  V30 3603 H 346.374 5.87271 -2.92317 0
M  V30 3604 H 346.291 5.95911 -4.65217 0
M  V30 3605 H 347.559 6.79981 -3.81112 0
M  V30 3606 N 351.788 1.33704 0.83433 0
M  V30 3607 C 352.736 1.24323 1.96587 0
M  V30 3608 C 353.73 0.143659 1.6879 0
M  V30 3609 O 354.936 0.30791 1.77347 0
M  V30 3610 H 351.311 0.385925 0.645419 0
M  V30 3611 H 353.282 2.19978 2.01624 0
M  V30 3612 C 352.031 1.00394 3.32891 0
M  V30 3613 H 351.354 1.84231 3.54822 0
M  V30 3614 H 352.794 0.97862 4.12552 0
M  V30 3615 C 351.253 -0.293047 3.35623 0
M  V30 3616 O 351.783 -1.29823 3.80143 0
M  V30 3617 N 349.989 -0.322174 2.88809 0
M  V30 3618 H 349.536 0.496379 2.52772 0
M  V30 3619 H 349.494 -1.18977 2.91019 0
M  V30 3620 N 353.266 -1.05314 1.17247 0
M  V30 3621 C 354.196 -2.1498 0.911362 0
M  V30 3622 C 355.177 -1.69471 -0.146169 0
M  V30 3623 O 356.362 -1.942 0.003812 0
M  V30 3624 C 353.492 -3.4472 0.422528 0
M  V30 3625 C 352.446 -4.03789 1.4191 0
M  V30 3626 C 351.772 -5.28858 0.788274 0
M  V30 3627 C 353.072 -4.41418 2.7919 0
M  V30 3628 H 354.766 -2.3708 1.82848 0
M  V30 3629 H 352.312 -1.13938 0.880569 0
M  V30 3630 H 354.265 -4.20787 0.227289 0
M  V30 3631 H 352.989 -3.22269 -0.530123 0
M  V30 3632 H 351.648 -3.2979 1.60106 0
M  V30 3633 H 351.296 -5.02709 -0.171173 0
M  V30 3634 H 350.996 -5.69338 1.45353 0
M  V30 3635 H 352.52 -6.07612 0.603282 0
M  V30 3636 H 353.934 -5.08524 2.64719 0
M  V30 3637 H 352.331 -4.92913 3.42282 0
M  V30 3638 H 353.401 -3.51819 3.33693 0
M  V30 3639 N 354.744 -0.972509 -1.24016 0
M  V30 3640 C 355.991 -0.637034 -1.92219 0
M  V30 3641 C 356.319 0.828418 -1.75976 0
M  V30 3642 O 355.574 1.61206 -1.10955 0
M  V30 3643 C 355.873 -0.963694 -3.44162 0
M  V30 3644 C 355.539 -2.41807 -3.80579 0
M  V30 3645 C 354.201 -2.81556 -3.9023 0
M  V30 3646 C 356.553 -3.36172 -3.98293 0
M  V30 3647 C 353.881 -4.14702 -4.15017 0
M  V30 3648 C 356.233 -4.68952 -4.24578 0
M  V30 3649 C 354.897 -5.08472 -4.32449 0
M  V30 3650 H 354.167 -0.233107 -0.703379 0
M  V30 3651 H 356.814 -1.2249 -1.47202 0
M  V30 3652 H 355.119 -0.29365 -3.90698 0
M  V30 3653 H 356.816 -0.682449 -3.9515 0
M  V30 3654 H 353.406 -2.09988 -3.73635 0
M  V30 3655 H 357.59 -3.06644 -3.90234 0
M  V30 3656 H 352.846 -4.4494 -4.19331 0
M  V30 3657 H 357.02 -5.42037 -4.37229 0
M  V30 3658 H 354.647 -6.11665 -4.51409 0
M  V30 3659 N 356.222 1.38976 -0.743202 0
M  V30 3660 C 357.172 2.27843 -0.084513 0
M  V30 3661 C 358.156 1.44677 0.704094 0
M  V30 3662 O 359.348 1.67511 0.571755 0
M  V30 3663 C 356.477 3.33466 0.815781 0
M  V30 3664 C 355.563 4.24095 0.0208844 0
M  V30 3665 N 355.954 4.95609 -1.0102 0
M  V30 3666 C 354.252 4.45303 0.249293 0
M  V30 3667 C 354.953 5.62287 -1.49024 0
M  V30 3668 N 353.929 5.37571 -0.807377 0
M  V30 3669 H 357.731 2.80593 -0.87436 0
M  V30 3670 H 355.245 1.51755 -0.578283 0
M  V30 3671 H 357.242 3.96008 1.30321 0
M  V30 3672 H 355.902 2.82276 1.6047 0
M  V30 3673 H 356.913 4.98849 -1.39176 0
M  V30 3674 H 353.59 4.0504 1.01237 0
M  V30 3675 H 354.98 6.29519 -2.34853 0
M  V30 3676 N 357.7 0.491464 1.49741 0
M  V30 3677 C 359.116 0.146835 1.58923 0
M  V30 3678 C 359.316 -1.34804 1.49767 0
M  V30 3679 O 358.372 -2.12317 1.36667 0
M  V30 3680 C 359.685 0.715157 2.92072 0
M  V30 3681 C 361.233 0.680407 3.05515 0
M  V30 3682 C 361.708 1.22663 4.41269 0
M  V30 3683 N 363.199 1.18691 4.47735 0
M  V30 3684 C 363.934 1.57984 5.51207 0
M  V30 3685 N 363.43 2.04824 6.6183 0
M  V30 3686 N 365.223 1.49459 5.41866 0
M  V30 3687 H 357.374 1.46347 1.53936 0
M  V30 3688 H 359.637 0.606453 0.728642 0
M  V30 3689 H 359.343 1.76317 3.04311 0
M  V30 3690 H 359.217 0.17018 3.76816 0
M  V30 3691 H 361.604 -0.358743 2.92911 0
M  V30 3692 H 361.685 1.26242 2.22478 0
M  V30 3693 H 361.329 2.26451 4.54623 0
M  V30 3694 H 361.259 0.620637 5.2293 0
M  V30 3695 H 363.75 0.843605 3.68364 0
M  V30 3696 H 364.063 2.32901 7.3687 0
M  V30 3697 H 362.408 2.08791 6.62896 0
M  V30 3698 H 365.599 1.12692 4.54333 0
M  V30 3699 H 365.772 1.80406 6.22381 0
M  V30 3700 N 359.178 -1.55987 0.224894 0
M  V30 3701 C 360.141 -2.19178 -0.670348 0
M  V30 3702 C 361.141 -1.15461 -1.11917 0
M  V30 3703 O 362.331 -1.40675 -1.02743 0
M  V30 3704 C 359.463 -2.81777 -1.9187 0
M  V30 3705 H 360.656 -2.99662 -0.119364 0
M  V30 3706 H 358.209 -1.5628 -0.0247128 0
M  V30 3707 H 358.944 -2.05172 -2.51147 0
M  V30 3708 H 358.729 -3.57732 -1.60531 0
M  V30 3709 H 360.219 -3.30205 -2.55645 0
M  V30 3710 N 360.656 0.0484629 -1.57525 0
M  V30 3711 C 361.905 0.742065 -1.87553 0
M  V30 3712 C 362.218 1.77545 -0.820802 0
M  V30 3713 O 363.424 2.52027 -1.00967 0
M  V30 3714 C 361.88 1.37081 -3.32771 0
M  V30 3715 C 361.488 0.374786 -4.4643 0
M  V30 3716 C 363.232 2.04542 -3.71972 0
M  V30 3717 C 361.139 1.01077 -5.82698 0
M  V30 3718 H 360.069 0.280903 -0.699721 0
M  V30 3719 H 362.72 -0.00411877 -1.835 0
M  V30 3720 H 361.102 2.16605 -3.31509 0
M  V30 3721 H 362.276 -0.392331 -4.59127 0
M  V30 3722 H 360.591 -0.196653 -4.15935 0
M  V30 3723 H 363.188 2.52943 -4.71088 0
M  V30 3724 H 363.531 2.85515 -3.02964 0
M  V30 3725 H 364.064 1.31819 -3.75325 0
M  V30 3726 H 360.803 0.240878 -6.55057 0
M  V30 3727 H 360.323 1.74819 -5.73758 0
M  V30 3728 H 362.002 1.52383 -6.28799 0
M  V30 3729 N 362.134 1.5431 0.320358 0
M  V30 3730 C 363.359 1.76954 1.08175 0
M  V30 3731 C 363.784 0.518193 1.80821 0
M  V30 3732 O 363.142 -0.530411 1.73368 0
M  V30 3733 C 363.19 2.96451 2.05303 0
M  V30 3734 O 362.294 2.68221 3.13259 0
M  V30 3735 H 361.635 0.586275 0.311733 0
M  V30 3736 H 364.165 2.01342 0.363676 0
M  V30 3737 H 364.175 3.23887 2.48116 0
M  V30 3738 H 362.85 3.87196 1.51829 0
M  V30 3739 H 361.427 2.51744 2.75099 0
M  V30 3740 N 363.613 -0.582584 1.46437 0
M  V30 3741 C 364.523 -1.71949 1.59595 0
M  V30 3742 C 365.539 -1.67264 0.479443 0
M  V30 3743 O 366.715 -1.87171 0.743579 0
M  V30 3744 C 363.78 -3.08452 1.58298 0
M  V30 3745 C 362.841 -3.244 2.81182 0
M  V30 3746 C 362.074 -4.54391 2.79937 0
M  V30 3747 O 362.297 -5.38287 1.8869 0
M  V30 3748 O 361.231 -4.73588 3.71481 0
M  V30 3749 H 365.057 -1.63795 2.55744 0
M  V30 3750 H 362.642 -0.749643 1.29231 0
M  V30 3751 H 364.524 -3.89732 1.60271 0
M  V30 3752 H 363.199 -3.17043 0.653094 0
M  V30 3753 H 362.106 -2.42613 2.84763 0
M  V30 3754 H 363.439 -3.20699 3.7338 0
M  V30 3755 N 365.091 -1.34144 -0.827227 0
M  V30 3756 C 366.316 -1.29476 -1.62021 0
M  V30 3757 C 366.741 0.129292 -1.87655 0
M  V30 3758 O 366.099 1.08967 -1.449 0
M  V30 3759 C 366.147 -2.08702 -2.94068 0
M  V30 3760 O 365.251 -1.45359 -3.85933 0
M  V30 3761 H 364.592 -0.444881 -0.492927 0
M  V30 3762 H 367.122 -1.76882 -1.02829 0
M  V30 3763 H 367.132 -2.19898 -3.43669 0
M  V30 3764 H 365.807 -3.12241 -2.74734 0
M  V30 3765 H 364.384 -1.42879 -3.44442 0
M  V30 3766 N 366.569 1.04691 -1.17803 0
M  V30 3767 C 367.817 1.7743 -0.967617 0
M  V30 3768 C 368.138 1.88359 0.504574 0
M  V30 3769 O 367.408 1.40402 1.36617 0
M  V30 3770 H 365.988 0.657242 -0.355024 0
M  V30 3771 H 368.65 1.2638 -1.48371 0
M  V30 3772 H 367.746 2.78924 -1.40027 0
M  V30 3773 N 368.047 0.979072 1.23499 0
M  V30 3774 C 369.293 0.648178 1.92163 0
M  V30 3775 C 369.626 -0.816049 1.76222 0
M  V30 3776 O 368.901 -1.58849 1.12237 0
M  V30 3777 C 369.184 1.03773 3.44824 0
M  V30 3778 C 369.037 2.55948 3.69879 0
M  V30 3779 C 370.356 0.580653 4.36253 0
M  V30 3780 H 367.475 0.236952 0.69787 0
M  V30 3781 H 370.117 1.22012 1.45647 0
M  V30 3782 H 368.267 0.551058 3.84572 0
M  V30 3783 H 369.939 3.12179 3.3962 0
M  V30 3784 H 368.182 2.98641 3.14636 0
M  V30 3785 H 368.853 2.78255 4.76737 0
M  V30 3786 H 371.329 0.998465 4.03943 0
M  V30 3787 H 370.205 0.881663 5.41773 0
M  V30 3788 H 370.466 -0.519052 4.39042 0
M  V30 3789 N 369.525 -1.3858 0.750561 0
M  V30 3790 C 370.488 -2.28836 0.129152 0
M  V30 3791 C 371.488 -1.47045 -0.650714 0
M  V30 3792 O 372.678 -1.6753 -0.477428 0
M  V30 3793 C 369.81 -3.30751 -0.825622 0
M  V30 3794 H 371.003 -2.85294 0.924516 0
M  V30 3795 H 368.556 -1.47489 0.517376 0
M  V30 3796 H 369.291 -2.79378 -1.64677 0
M  V30 3797 H 369.076 -3.91177 -0.268852 0
M  V30 3798 H 370.566 -3.98249 -1.2565 0
M  V30 3799 N 371.003 -0.499398 -1.49478 0
M  V30 3800 C 371.933 0.269244 -2.31943 0
M  V30 3801 C 372.914 0.964054 -1.40143 0
M  V30 3802 O 374.099 0.955767 -1.69052 0
M  V30 3803 C 371.229 1.33504 -3.20615 0
M  V30 3804 C 370.183 0.760202 -4.21195 0
M  V30 3805 C 369.509 1.9264 -4.98792 0
M  V30 3806 C 370.809 -0.247661 -5.21712 0
M  V30 3807 H 372.503 -0.419082 -2.96452 0
M  V30 3808 H 370.049 -0.202988 -1.42562 0
M  V30 3809 H 372.002 1.88048 -3.77115 0
M  V30 3810 H 370.726 2.05253 -2.54045 0
M  V30 3811 H 369.385 0.23653 -3.65836 0
M  V30 3812 H 369.033 2.63154 -4.28671 0
M  V30 3813 H 368.733 1.54785 -5.66847 0
M  V30 3814 H 370.257 2.4762 -5.58137 0
M  V30 3815 H 371.671 0.209579 -5.72917 0
M  V30 3816 H 370.068 -0.541962 -5.97648 0
M  V30 3817 H 371.138 -1.16409 -4.7072 0
M  V30 3818 N 372.481 1.55866 -0.233164 0
M  V30 3819 C 373.709 2.02998 0.399905 0
M  V30 3820 C 374.124 1.11274 1.52524 0
M  V30 3821 O 373.481 0.124528 1.82075 0
M  V30 3822 C 373.532 3.4958 0.920639 0
M  V30 3823 O 373.253 4.37808 -0.159834 0
M  V30 3824 C 374.754 4.12411 1.62578 0
M  V30 3825 H 371.974 0.664006 0.0966281 0
M  V30 3826 H 374.518 2.0143 -0.353013 0
M  V30 3827 H 372.673 3.51727 1.62379 0
M  V30 3828 H 373.087 5.23981 0.23337 0
M  V30 3829 H 374.561 5.16711 1.94201 0
M  V30 3830 H 375.038 3.5809 2.54299 0
M  V30 3831 H 375.644 4.14148 0.967553 0
M  V30 3832 N 373.959 -0.0401083 1.57549 0
M  V30 3833 C 375.184 -0.748931 1.93406 0
M  V30 3834 C 375.609 -1.68686 0.832274 0
M  V30 3835 O 374.967 -1.80047 -0.212818 0
M  V30 3836 C 375.015 -1.4916 3.28304 0
M  V30 3837 O 374.119 -2.6042 3.19774 0
M  V30 3838 H 373.46 -0.202212 0.63246 0
M  V30 3839 H 375.99 0.00112086 2.046 0
M  V30 3840 H 376 -1.86395 3.62934 0
M  V30 3841 H 374.675 -0.80364 4.08062 0
M  V30 3842 H 373.252 -2.25808 2.96758 0
M  V30 3843 N 375.437 -1.54477 -0.31217 0
M  V30 3844 C 376.683 -1.73483 -1.0503 0
M  V30 3845 C 377.016 -0.513125 -1.87298 0
M  V30 3846 O 376.291 0.489864 -1.8823 0
M  V30 3847 C 376.574 -3.01723 -1.96558 0
M  V30 3848 C 376.427 -4.3417 -1.17545 0
M  V30 3849 C 377.746 -3.25772 -2.95907 0
M  V30 3850 H 374.865 -0.631222 -0.380432 0
M  V30 3851 H 377.507 -1.87184 -0.325932 0
M  V30 3852 H 375.657 -2.90174 -2.58324 0
M  V30 3853 H 377.329 -4.5762 -0.581513 0
M  V30 3854 H 375.572 -4.31159 -0.477925 0
M  V30 3855 H 376.243 -5.20143 -1.84811 0
M  V30 3856 H 378.719 -3.36857 -2.44267 0
M  V30 3857 H 377.595 -4.16838 -3.57123 0
M  V30 3858 H 377.856 -2.43537 -3.68974 0
M  V30 3859 N 376.915 0.57481 -1.46744 0
M  V30 3860 C 377.845 1.69337 -1.60771 0
M  V30 3861 C 378.826 1.63825 -0.457736 0
M  V30 3862 O 380.011 1.8172 -0.684947 0
M  V30 3863 C 377.141 3.0798 -1.60517 0
M  V30 3864 C 376.095 3.28327 -2.74564 0
M  V30 3865 C 375.421 4.67578 -2.59373 0
M  V30 3866 C 376.721 3.15398 -4.16319 0
M  V30 3867 H 378.415 1.57853 -2.54407 0
M  V30 3868 H 375.961 0.75799 -1.22436 0
M  V30 3869 H 377.914 3.86061 -1.68923 0
M  V30 3870 H 376.638 3.20381 -0.634305 0
M  V30 3871 H 375.297 2.52649 -2.65639 0
M  V30 3872 H 374.945 4.76755 -1.60353 0
M  V30 3873 H 374.645 4.82144 -3.35873 0
M  V30 3874 H 376.169 5.47817 -2.69682 0
M  V30 3875 H 377.583 3.83315 -4.26313 0
M  V30 3876 H 375.98 3.41482 -4.93468 0
M  V30 3877 H 377.05 2.12372 -4.3592 0
M  V30 3878 N 378.394 1.34581 0.820102 0
M  V30 3879 C 379.64 1.27285 1.57881 0
M  V30 3880 C 379.973 -0.156137 1.93571 0
M  V30 3881 O 379.248 -1.10222 1.60254 0
M  V30 3882 C 379.531 2.16639 2.87645 0
M  V30 3883 C 379.384 3.68088 2.58517 0
M  V30 3884 C 380.703 2.05378 3.8924 0
M  V30 3885 H 377.822 0.463714 0.572833 0
M  V30 3886 H 380.464 1.64859 0.944539 0
M  V30 3887 H 378.614 1.84725 3.41773 0
M  V30 3888 H 380.286 4.10382 2.10676 0
M  V30 3889 H 378.529 3.89038 1.91917 0
M  V30 3890 H 379.2 4.2598 3.51063 0
M  V30 3891 H 381.676 2.33404 3.44473 0
M  V30 3892 H 380.552 2.7012 4.77835 0
M  V30 3893 H 380.813 1.0316 4.29896 0
M  V30 3894 N 379.872 -1.04064 1.18357 0
M  V30 3895 C 380.819 -2.12077 0.910603 0
M  V30 3896 C 381.789 -1.65421 -0.15 0
M  V30 3897 O 382.974 -1.90797 -0.0103614 0
M  V30 3898 C 380.114 -3.42252 0.442472 0
M  V30 3899 C 379.227 -4.0252 1.5685 0
M  V30 3900 C 378.362 -5.20657 1.05309 0
M  V30 3901 C 377.401 -5.72955 2.1538 0
M  V30 3902 N 376.538 -6.8238 1.65233 0
M  V30 3903 H 381.378 -2.34764 1.83548 0
M  V30 3904 H 378.915 -1.15157 0.915279 0
M  V30 3905 H 380.873 -4.16921 0.152534 0
M  V30 3906 H 379.503 -3.19712 -0.445428 0
M  V30 3907 H 378.555 -3.25178 1.97391 0
M  V30 3908 H 379.867 -4.37362 2.39824 0
M  V30 3909 H 379.021 -6.0244 0.717677 0
M  V30 3910 H 377.76 -4.87318 0.19293 0
M  V30 3911 H 376.765 -4.89793 2.49766 0
M  V30 3912 H 377.99 -6.08337 3.01832 0
M  V30 3913 H 375.936 -6.50917 0.815064 0
M  V30 3914 H 375.853 -7.16286 2.41805 0
M  V30 3915 H 377.121 -7.67788 1.34619 0
M  V30 3916 N 381.35 -0.985608 -1.22978 0
M  V30 3917 C 382.297 -0.529825 -2.24636 0
M  V30 3918 C 383.267 0.434028 -1.60329 0
M  V30 3919 O 384.452 0.340414 -1.87739 0
M  V30 3920 C 381.592 0.156533 -3.44745 0
M  V30 3921 C 380.705 -0.848197 -4.23591 0
M  V30 3922 C 379.84 -0.136109 -5.31026 0
M  V30 3923 C 378.879 -1.1297 -6.01585 0
M  V30 3924 N 378.016 -0.446415 -7.00679 0
M  V30 3925 H 382.856 -1.40148 -2.62988 0
M  V30 3926 H 380.393 -0.702168 -1.29259 0
M  V30 3927 H 382.351 0.571324 -4.1327 0
M  V30 3928 H 380.981 0.992025 -3.07179 0
M  V30 3929 H 380.033 -1.38135 -3.54433 0
M  V30 3930 H 381.345 -1.60512 -4.72268 0
M  V30 3931 H 380.499 0.335784 -6.0577 0
M  V30 3932 H 379.238 0.653373 -4.83304 0
M  V30 3933 H 378.243 -1.6123 -5.25628 0
M  V30 3934 H 379.468 -1.91993 -6.51395 0
M  V30 3935 H 377.414 0.323763 -6.55201 0
M  V30 3936 H 377.331 -1.1419 -7.47326 0
M  V30 3937 H 378.599 0.00291697 -7.795 0
M  V30 3938 N 382.828 1.3818 -0.7579 0
M  V30 3939 C 384.076 1.99624 -0.315361 0
M  V30 3940 C 384.397 1.60464 1.10799 0
M  V30 3941 O 383.667 0.863507 1.75842 0
M  V30 3942 H 382.247 0.73831 -0.113611 0
M  V30 3943 H 384.909 1.68878 -0.972952 0
M  V30 3944 H 384.005 3.09754 -0.381931 0
M  V30 3945 N 384.306 0.507319 1.49211 0
M  V30 3946 C 385.583 -0.0982702 1.95353 0
M  V30 3947 C 385.963 -1.53516 1.449 0
M  V30 3948 O 385.311 -2.18594 0.66551 0
M  V30 3949 C 385.521 -0.00440283 3.49 0
M  V30 3950 C 386.869 -0.175147 4.24239 0
M  V30 3951 O 387.893 -0.0792891 3.56112 0
M  V30 3952 O 386.752 -0.37276 5.45227 0
M  V30 3953 H 383.846 -0.0918236 0.821887 0
M  V30 3954 H 386.392 0.570307 1.5983 0
M  V30 3955 H 385.164 0.997402 3.78375 0
M  V30 3956 H 384.787 -0.712845 3.91158 0
M  V30 3957 N 385.784 -1.5574 0.241426 0
M  V30 3958 C 387.03 -1.99104 -0.385406 0
M  V30 3959 C 387.363 -1.1293 -1.57988 0
M  V30 3960 O 386.638 -0.191449 -1.93555 0
M  V30 3961 C 386.921 -3.51087 -0.800616 0
M  V30 3962 C 386.774 -4.48028 0.398874 0
M  V30 3963 C 388.093 -4.08015 -1.64959 0
M  V30 3964 H 385.212 -0.723848 -0.138614 0
M  V30 3965 H 387.854 -1.86903 0.341642 0
M  V30 3966 H 386.004 -3.61615 -1.4201 0
M  V30 3967 H 387.676 -4.49487 1.03726 0
M  V30 3968 H 385.919 -4.21077 1.04293 0
M  V30 3969 H 386.59 -5.51962 0.0651056 0
M  V30 3970 H 389.066 -4.00555 -1.12672 0
M  V30 3971 H 387.942 -5.14635 -1.90898 0
M  V30 3972 H 388.203 -3.56131 -2.61961 0
M  V30 3973 N 387.262 0.0317525 -1.57568 0
M  V30 3974 C 388.209 1.0332 -2.06382 0
M  V30 3975 C 389.179 1.36082 -0.952414 0
M  V30 3976 O 390.364 1.46466 -1.2228 0
M  V30 3977 C 387.504 2.32989 -2.54578 0
M  V30 3978 C 386.617 2.0641 -3.79498 0
M  V30 3979 C 385.752 3.2993 -4.16317 0
M  V30 3980 C 384.791 2.98893 -5.34162 0
M  V30 3981 N 383.928 4.14857 -5.66426 0
M  V30 3982 H 388.768 0.609982 -2.9169 0
M  V30 3983 H 386.305 0.289573 -1.44222 0
M  V30 3984 H 388.263 3.0875 -2.80587 0
M  V30 3985 H 386.893 2.73039 -1.7219 0
M  V30 3986 H 385.945 1.21158 -3.6059 0
M  V30 3987 H 387.257 1.79513 -4.65378 0
M  V30 3988 H 386.411 4.1406 -4.4344 0
M  V30 3989 H 385.15 3.59938 -3.29083 0
M  V30 3990 H 384.155 2.13164 -5.06795 0
M  V30 3991 H 385.38 2.70165 -6.23047 0
M  V30 3992 H 383.326 4.44821 -4.82151 0
M  V30 3993 H 383.243 3.91374 -6.4681 0
M  V30 3994 H 384.511 4.99868 -5.98124 0
M  V30 3995 N 388.74 1.54641 0.303973 0
M  V30 3996 C 390.151 1.64811 0.877163 0
M  V30 3997 C 390.502 0.554838 1.88191 0
M  V30 3998 O 389.627 -0.309033 2.14182 0
M  V30 3999 C 390.222 2.9876 1.59775 0
M  V30 4000 C 388.781 3.11061 2.11938 0
M  V30 4001 C 387.928 2.60479 0.951097 0
M  V30 4002 H 390.879 1.58493 0.0810486 0
M  V30 4003 H 390.9 2.90017 2.46314 0
M  V30 4004 H 390.412 3.7831 0.866226 0
M  V30 4005 H 388.513 2.36225 2.88146 0
M  V30 4006 H 388.626 4.17171 2.35595 0
M  V30 4007 H 386.99 2.16859 1.33583 0
M  V30 4008 H 387.773 3.42504 0.233581 0
M  V30 4009 N 390.218 -0.567019 1.47046 0
M  V30 4010 C 391.148 -1.68482 1.61667 0
M  V30 4011 C 392.129 -1.6358 0.466418 0
M  V30 4012 O 393.314 -1.81354 0.694574 0
M  V30 4013 C 390.444 -3.07124 1.62148 0
M  V30 4014 C 389.398 -3.26867 2.76301 0
M  V30 4015 C 388.724 -4.66196 2.61849 0
M  V30 4016 C 390.024 -3.13186 4.17986 0
M  V30 4017 H 391.718 -1.56502 2.5524 0
M  V30 4018 H 389.264 -0.751486 1.22836 0
M  V30 4019 H 391.217 -3.8516 1.70968 0
M  V30 4020 H 389.941 -3.2004 0.651287 0
M  V30 4021 H 388.6 -2.51237 2.66975 0
M  V30 4022 H 388.248 -4.75898 1.62879 0
M  V30 4023 H 387.948 -4.80356 3.38425 0
M  V30 4024 H 389.472 -5.46379 2.72584 0
M  V30 4025 H 390.886 -3.81049 4.2834 0
M  V30 4026 H 389.283 -3.3886 4.95272 0
M  V30 4027 H 390.353 -2.10057 4.3704 0
M  V30 4028 N 391.696 -1.35014 -0.812953 0
M  V30 4029 C 392.659 -1.27292 -1.90602 0
M  V30 4030 C 393.659 -0.185817 -1.59723 0
M  V30 4031 O 394.849 -0.439102 -1.68575 0
M  V30 4032 C 391.981 -0.967676 -3.26877 0
M  V30 4033 H 393.174 -2.24479 -1.9887 0
M  V30 4034 H 390.727 -1.19446 -1.00808 0
M  V30 4035 H 391.462 0.0005954 -3.243 0
M  V30 4036 H 391.247 -1.75412 -3.50675 0
M  V30 4037 H 392.737 -0.939085 -4.06904 0
M  V30 4038 N 393.175 1.03435 -1.18907 0
M  V30 4039 C 394.085 2.15075 -0.937015 0
M  V30 4040 C 395.101 1.73706 0.101085 0
M  V30 4041 O 396.277 2.01232 -0.0822948 0
M  V30 4042 C 393.342 3.43458 -0.473057 0
M  V30 4043 C 392.403 3.99172 -1.57989 0
M  V30 4044 C 391.636 5.21427 -1.13797 0
M  V30 4045 O 391.859 5.704 0.000725941 0
M  V30 4046 O 390.793 5.69837 -1.9383 0
M  V30 4047 H 394.619 2.39198 -1.87131 0
M  V30 4048 H 392.204 1.13506 -0.971427 0
M  V30 4049 H 394.086 4.20811 -0.222702 0
M  V30 4050 H 392.761 3.20793 0.432869 0
M  V30 4051 H 391.668 3.23178 -1.88433 0
M  V30 4052 H 393.001 4.2619 -2.46217 0
M  V30 4053 N 394.653 0.992116 1.22453 0
M  V30 4054 C 395.899 0.668523 1.91464 0
M  V30 4055 C 396.232 -0.797313 1.77078 0
M  V30 4056 O 395.507 -1.5765 1.13916 0
M  V30 4057 C 395.79 1.07424 3.43703 0
M  V30 4058 C 395.643 2.59857 3.67143 0
M  V30 4059 C 396.962 0.626891 4.35612 0
M  V30 4060 H 394.081 0.244341 0.695318 0
M  V30 4061 H 396.723 1.2355 1.44345 0
M  V30 4062 H 394.873 0.591816 3.83966 0
M  V30 4063 H 396.545 3.15764 3.3629 0
M  V30 4064 H 394.788 3.01961 3.11451 0
M  V30 4065 H 395.459 2.83296 4.73759 0
M  V30 4066 H 397.935 1.04125 4.02861 0
M  V30 4067 H 396.811 0.939076 5.40807 0
M  V30 4068 H 397.072 -0.472457 4.39568 0
M  V30 4069 N 396.131 -1.37776 0.765217 0
M  V30 4070 C 397.379 -1.99454 0.325943 0
M  V30 4071 C 397.7 -1.61049 -1.09947 0
M  V30 4072 O 396.97 -0.872821 -1.75381 0
M  V30 4073 H 395.55 -0.737697 0.117525 0
M  V30 4074 H 398.212 -1.68359 0.981895 0
M  V30 4075 H 397.308 -3.09547 0.398353 0
M  V30 4076 N 397.609 -0.515225 -1.4894 0
M  V30 4077 C 398.539 0.244628 -2.32215 0
M  V30 4078 C 399.52 0.949136 -1.41157 0
M  V30 4079 O 400.705 0.937783 -1.70057 0
M  V30 4080 C 397.835 1.30096 -3.22013 0
M  V30 4081 C 396.789 0.715486 -4.21977 0
M  V30 4082 C 396.115 1.87339 -5.00808 0
M  V30 4083 C 397.415 -0.302982 -5.2142 0
M  V30 4084 H 399.109 -0.450501 -2.95991 0
M  V30 4085 H 396.655 -0.218098 -1.42339 0
M  V30 4086 H 398.608 1.84037 -3.79089 0
M  V30 4087 H 397.332 2.02547 -2.56207 0
M  V30 4088 H 395.991 0.197715 -3.66066 0
M  V30 4089 H 395.639 2.58592 -4.31438 0
M  V30 4090 H 395.339 1.48764 -5.68457 0
M  V30 4091 H 396.863 2.41686 -5.60732 0
M  V30 4092 H 398.277 0.148802 -5.73107 0
M  V30 4093 H 396.674 -0.60532 -5.97039 0
M  V30 4094 H 397.744 -1.21395 -4.69459 0
M  V30 4095 N 399.087 1.5561 -0.249682 0
M  V30 4096 C 400.503 1.59254 0.105103 0
M  V30 4097 C 400.703 1.26685 1.56694 0
M  V30 4098 O 399.759 1.0155 2.31179 0
M  V30 4099 C 401.072 2.99687 -0.246592 0
M  V30 4100 C 402.62 3.12416 -0.191118 0
M  V30 4101 C 403.095 4.55074 -0.516885 0
M  V30 4102 N 404.586 4.60835 -0.467489 0
M  V30 4103 C 405.321 5.69201 -0.69268 0
M  V30 4104 N 404.817 6.85817 -0.981146 0
M  V30 4105 N 406.61 5.58635 -0.623198 0
M  V30 4106 H 398.761 1.75049 -1.20298 0
M  V30 4107 H 401.024 0.815003 -0.484225 0
M  V30 4108 H 400.73 3.28267 -1.26228 0
M  V30 4109 H 400.604 3.74798 0.424962 0
M  V30 4110 H 402.991 2.83615 0.815247 0
M  V30 4111 H 403.072 2.39573 -0.896563 0
M  V30 4112 H 402.716 4.84596 -1.52082 0
M  V30 4113 H 402.646 5.26181 0.210068 0
M  V30 4114 H 405.137 3.7705 -0.253373 0
M  V30 4115 H 405.45 7.64341 -1.14032 0
M  V30 4116 H 403.795 6.87494 -1.01865 0
M  V30 4117 H 406.986 4.66406 -0.397863 0
M  V30 4118 H 407.159 6.43017 -0.802093 0
M  V30 4119 N 400.565 -0.0233959 1.57583 0
M  V30 4120 C 401.495 -1.02162 2.09965 0
M  V30 4121 C 402.476 -1.3735 1.00344 0
M  V30 4122 O 403.661 -1.46135 1.27899 0
M  V30 4123 C 400.791 -2.32081 2.58371 0
M  V30 4124 C 399.745 -2.1112 3.72307 0
M  V30 4125 C 399.071 -3.46848 4.06941 0
M  V30 4126 C 400.371 -1.49276 5.00514 0
M  V30 4127 H 402.065 -0.585557 2.93618 0
M  V30 4128 H 399.611 -0.280218 1.41247 0
M  V30 4129 H 401.564 -3.02249 2.93639 0
M  V30 4130 H 400.288 -2.77758 1.71808 0
M  V30 4131 H 398.947 -1.43384 3.37397 0
M  V30 4132 H 398.595 -3.90184 3.17436 0
M  V30 4133 H 398.295 -3.33646 4.83688 0
M  V30 4134 H 399.819 -4.18369 4.44747 0
M  V30 4135 H 401.233 -2.09368 5.33702 0
M  V30 4136 H 399.63 -1.46632 5.8191 0
M  V30 4137 H 400.7 -0.459217 4.82721 0
M  V30 4138 N 402.043 -1.548 -0.295768 0
M  V30 4139 C 403.289 -1.74588 -1.03184 0
M  V30 4140 C 403.622 -0.532962 -1.86744 0
M  V30 4141 O 402.897 0.469872 -1.88739 0
M  V30 4142 C 403.18 -3.03791 -1.93347 0
M  V30 4143 C 403.033 -4.35392 -1.12933 0
M  V30 4144 C 404.352 -3.28892 -2.92435 0
M  V30 4145 H 401.471 -0.635221 -0.373715 0
M  V30 4146 H 404.113 -1.87519 -0.30606 0
M  V30 4147 H 402.263 -2.92898 -2.55232 0
M  V30 4148 H 403.935 -4.58211 -0.532943 0
M  V30 4149 H 402.178 -4.31642 -0.432168 0
M  V30 4150 H 402.849 -5.22074 -1.79284 0
M  V30 4151 H 405.325 -3.39429 -2.4068 0
M  V30 4152 H 404.201 -4.20603 -3.52682 0
M  V30 4153 H 404.462 -2.47437 -3.6637 0
M  V30 4154 N 403.521 0.559213 -1.47345 0
M  V30 4155 C 404.937 0.884943 -1.32819 0
M  V30 4156 C 405.137 1.98988 -0.317173 0
M  V30 4157 O 404.193 2.51031 0.272011 0
M  V30 4158 C 405.506 1.28007 -2.72093 0
M  V30 4159 C 407.054 1.39161 -2.80363 0
M  V30 4160 C 407.529 1.82031 -4.20272 0
M  V30 4161 N 409.02 1.89185 -4.22804 0
M  V30 4162 C 409.755 2.2368 -5.27973 0
M  V30 4163 N 409.251 2.56802 -6.43447 0
M  V30 4164 N 411.044 2.24436 -5.15349 0
M  V30 4165 H 403.195 -0.170304 -2.11716 0
M  V30 4166 H 405.458 -0.0135247 -0.947904 0
M  V30 4167 H 405.164 0.542027 -3.47498 0
M  V30 4168 H 405.038 2.23665 -3.03733 0
M  V30 4169 H 407.425 2.12048 -2.05231 0
M  V30 4170 H 407.506 0.41696 -2.52379 0
M  V30 4171 H 407.15 1.09715 -4.95908 0
M  V30 4172 H 407.08 2.80495 -4.45679 0
M  V30 4173 H 409.571 1.65982 -3.39497 0
M  V30 4174 H 409.884 2.82144 -7.19454 0
M  V30 4175 H 408.229 2.54387 -6.46771 0
M  V30 4176 H 411.42 1.97998 -4.24163 0
M  V30 4177 H 411.593 2.50989 -5.97418 0
M  V30 4178 N 404.999 1.35443 0.805782 0
M  V30 4179 C 405.929 1.31095 1.93226 0
M  V30 4180 C 406.91 0.185244 1.69088 0
M  V30 4181 O 408.095 0.380332 1.90439 0
M  V30 4182 C 405.225 1.08299 3.29983 0
M  V30 4183 C 404.179 2.17519 3.68605 0
M  V30 4184 C 403.505 1.79887 5.03532 0
M  V30 4185 C 404.805 3.5949 3.78898 0
M  V30 4186 H 406.499 2.25352 1.97122 0
M  V30 4187 H 404.045 1.0848 0.946996 0
M  V30 4188 H 405.998 1.03897 4.08391 0
M  V30 4189 H 404.722 0.104885 3.26432 0
M  V30 4190 H 403.381 2.2102 2.92482 0
M  V30 4191 H 403.029 0.80693 4.96485 0
M  V30 4192 H 402.729 2.53001 5.30344 0
M  V30 4193 H 404.253 1.77011 5.84379 0
M  V30 4194 H 405.667 3.58307 4.47536 0
M  V30 4195 H 404.064 4.31371 4.1718 0
M  V30 4196 H 405.134 3.95584 2.80431 0
M  V30 4197 N 406.477 -1.02803 1.19454 0
M  V30 4198 C 407.893 -1.28473 0.946937 0
M  V30 4199 C 408.093 -1.97881 -0.380202 0
M  V30 4200 O 407.149 -2.26719 -1.11151 0
M  V30 4201 C 408.462 -2.13099 2.12154 0
M  V30 4202 C 410.01 -2.26404 2.16126 0
M  V30 4203 C 410.485 -3.14402 3.33039 0
M  V30 4204 N 411.976 -3.21991 3.32981 0
M  V30 4205 C 412.711 -3.90272 4.20089 0
M  V30 4206 N 412.207 -4.60777 5.17355 0
M  V30 4207 N 414 -3.8668 4.07964 0
M  V30 4208 H 406.151 -0.561665 2.04839 0
M  V30 4209 H 408.414 -0.310438 0.89573 0
M  V30 4210 H 408.12 -1.69422 3.08203 0
M  V30 4211 H 407.994 -3.13813 2.09287 0
M  V30 4212 H 410.381 -2.69311 1.20647 0
M  V30 4213 H 410.462 -1.25237 2.23045 0
M  V30 4214 H 410.106 -2.72204 4.28798 0
M  V30 4215 H 410.036 -4.1563 3.23356 0
M  V30 4216 H 412.527 -2.71778 2.62574 0
M  V30 4217 H 412.84 -5.10513 5.80169 0
M  V30 4218 H 411.185 -4.5964 5.21302 0
M  V30 4219 H 414.376 -3.30739 3.31254 0
M  V30 4220 H 414.549 -4.39621 4.76064 0
M  V30 4221 N 407.956 -0.998596 -1.21925 0
M  V30 4222 C 408.886 -0.573688 -2.26343 0
M  V30 4223 C 409.867 0.402296 -1.65274 0
M  V30 4224 O 411.052 0.291683 -1.91997 0
M  V30 4225 C 408.182 0.106839 -3.47136 0
M  V30 4226 C 407.136 -0.788269 -4.20678 0
M  V30 4227 C 406.462 0.0254927 -5.34694 0
M  V30 4228 C 407.762 -2.08784 -4.78755 0
M  V30 4229 H 409.456 -1.44651 -2.62138 0
M  V30 4230 H 407.002 -0.696975 -1.26009 0
M  V30 4231 H 408.955 0.415531 -4.19346 0
M  V30 4232 H 407.679 1.01424 -3.10452 0
M  V30 4233 H 406.338 -1.08069 -3.50309 0
M  V30 4234 H 405.986 0.933989 -4.94253 0
M  V30 4235 H 405.686 -0.570437 -5.84825 0
M  V30 4236 H 407.21 0.328147 -6.09718 0
M  V30 4237 H 408.624 -1.84272 -5.42878 0
M  V30 4238 H 407.021 -2.63307 -5.39249 0
M  V30 4239 H 408.091 -2.76284 -3.98491 0
M  V30 4240 N 409.434 1.37368 -0.772513 0
M  V30 4241 C 410.711 1.93839 -0.26188 0
M  V30 4242 C 411.091 1.7061 1.24319 0
M  V30 4243 O 410.439 1.05534 2.02669 0
M  V30 4244 C 410.649 3.43154 -0.636102 0
M  V30 4245 C 411.997 4.20249 -0.606324 0
M  V30 4246 O 413.021 3.5152 -0.575538 0
M  V30 4247 O 411.88 5.42809 -0.634086 0
M  V30 4248 H 408.974 0.82478 -0.0605555 0
M  V30 4249 H 411.52 1.4665 -0.853917 0
M  V30 4250 H 410.292 3.53647 -1.6748 0
M  V30 4251 H 409.915 3.97596 -0.0170516 0
M  V30 4252 N 410.912 0.523116 1.48665 0
M  V30 4253 C 412.14 -0.0096312 2.06898 0
M  V30 4254 C 412.555 -1.28784 1.38059 0
M  V30 4255 O 411.912 -1.76453 0.465893 0
M  V30 4256 C 411.963 -0.244386 3.60673 0
M  V30 4257 O 411.684 0.983172 4.26925 0
M  V30 4258 C 413.185 -0.818289 4.35682 0
M  V30 4259 H 410.405 0.0304161 0.67031 0
M  V30 4260 H 412.949 0.726799 1.91149 0
M  V30 4261 H 411.104 -0.930847 3.76051 0
M  V30 4262 H 411.518 0.759653 5.1897 0
M  V30 4263 H 412.992 -0.93201 5.44075 0
M  V30 4264 H 413.469 -1.82153 3.99646 0
M  V30 4265 H 414.075 -0.168609 4.24966 0
M  V30 4266 N 412.39 -1.55475 0.257931 0
M  V30 4267 C 413.801 -1.8511 -0.243135 0
M  V30 4268 C 414.152 -1.17986 -1.5676 0
M  V30 4269 O 413.277 -0.462102 -2.11409 0
M  V30 4270 C 413.872 -3.35826 -0.447929 0
M  V30 4271 C 412.431 -3.65647 -0.893245 0
M  V30 4272 C 411.578 -2.7729 0.0232965 0
M  V30 4273 H 414.529 -1.51261 0.480199 0
M  V30 4274 H 414.55 -3.58002 -1.28898 0
M  V30 4275 H 414.062 -3.84652 0.516196 0
M  V30 4276 H 412.163 -3.22308 -1.86945 0
M  V30 4277 H 412.276 -4.73312 -0.742469 0
M  V30 4278 H 410.64 -2.49942 -0.490021 0
M  V30 4279 H 411.423 -3.28926 0.982994 0
M  V30 4280 N 413.868 0.0150385 -1.57593 0
M  V30 4281 C 415.096 0.714395 -1.94175 0
M  V30 4282 C 415.511 1.68135 -0.858841 0
M  V30 4283 O 414.868 1.81766 0.163567 0
M  V30 4284 C 414.919 1.45933 -3.30735 0
M  V30 4285 O 414.64 0.531167 -4.34868 0
M  V30 4286 C 416.141 2.25456 -3.81686 0
M  V30 4287 H 413.361 0.199923 -0.640525 0
M  V30 4288 H 415.905 -0.0316096 -2.04476 0
M  V30 4289 H 414.06 2.15709 -3.21789 0
M  V30 4290 H 414.474 1.05509 -5.13778 0
M  V30 4291 H 415.948 2.731 -4.79709 0
M  V30 4292 H 416.425 3.07485 -3.13607 0
M  V30 4293 H 417.031 1.60727 -3.9376 0
M  V30 4294 N 415.346 1.54954 0.287554 0
M  V30 4295 C 416.571 1.79209 1.04397 0
M  V30 4296 C 416.996 0.556431 1.79682 0
M  V30 4297 O 416.354 -0.493518 1.74454 0
M  V30 4298 C 416.402 3.00739 1.98969 0
M  V30 4299 O 415.506 2.74805 3.075 0
M  V30 4300 H 414.847 0.592755 0.299227 0
M  V30 4301 H 417.377 2.02068 0.320886 0
M  V30 4302 H 417.387 3.29077 2.4119 0
M  V30 4303 H 416.062 3.90329 1.43582 0
M  V30 4304 H 414.639 2.57523 2.69697 0
M  V30 4305 N 416.824 -0.551391 1.4764 0
M  V30 4306 C 417.754 -1.66757 1.63445 0
M  V30 4307 C 418.735 -1.63077 0.483742 0
M  V30 4308 O 419.92 -1.80607 0.71377 0
M  V30 4309 C 417.05 -3.05387 1.65396 0
M  V30 4310 C 416.004 -3.23918 2.79752 0
M  V30 4311 C 415.33 -4.63393 2.66779 0
M  V30 4312 C 416.63 -3.08735 4.21284 0
M  V30 4313 H 418.324 -1.53786 2.56886 0
M  V30 4314 H 415.87 -0.738415 1.23626 0
M  V30 4315 H 417.823 -3.83325 1.75043 0
M  V30 4316 H 416.547 -3.19332 0.685195 0
M  V30 4317 H 415.206 -2.48391 2.69625 0
M  V30 4318 H 414.854 -4.74144 1.67918 0
M  V30 4319 H 414.554 -4.7674 3.43501 0
M  V30 4320 H 416.078 -5.43458 2.78364 0
M  V30 4321 H 417.492 -3.76484 4.32357 0
M  V30 4322 H 415.889 -3.33588 4.98838 0
M  V30 4323 H 416.959 -2.0541 4.39243 0
M  V30 4324 N 418.302 -1.35869 -0.798587 0
M  V30 4325 C 419.265 -1.29307 -1.89242 0
M  V30 4326 C 420.265 -0.202747 -1.59517 0
M  V30 4327 O 421.455 -0.456957 -1.681 0
M  V30 4328 C 418.587 -1.00229 -3.25833 0
M  V30 4329 H 419.78 -2.26576 -1.96478 0
M  V30 4330 H 417.333 -1.20509 -0.995358 0
M  V30 4331 H 418.068 -0.033801 -3.24282 0
M  V30 4332 H 417.853 -1.79121 -3.48795 0
M  V30 4333 H 419.343 -0.98219 -4.05885 0
M  V30 4334 N 419.78 1.02168 -1.19998 0
M  V30 4335 C 420.71 2.12488 -0.96804 0
M  V30 4336 C 421.691 1.69799 0.101185 0
M  V30 4337 O 422.876 1.94121 -0.0552993 0
M  V30 4338 C 420.006 3.43479 -0.513776 0
M  V30 4339 C 418.96 3.99884 -1.52566 0
M  V30 4340 C 418.286 5.26582 -0.928214 0
M  V30 4341 C 419.586 4.33861 -2.90795 0
M  V30 4342 H 421.28 2.32149 -1.89069 0
M  V30 4343 H 418.826 1.11564 -0.910468 0
M  V30 4344 H 420.779 4.20036 -0.338774 0
M  V30 4345 H 419.503 3.23561 0.444493 0
M  V30 4346 H 418.162 3.25429 -1.68794 0
M  V30 4347 H 417.81 5.02986 0.0378289 0
M  V30 4348 H 417.51 5.65284 -1.60397 0
M  V30 4349 H 419.034 6.05799 -0.764167 0
M  V30 4350 H 420.448 5.01327 -2.78109 0
M  V30 4351 H 418.845 4.83664 -3.55231 0
M  V30 4352 H 419.915 3.42848 -3.42904 0
M  V30 4353 N 421.258 1.00505 1.21394 0
M  V30 4354 C 422.498 0.696149 1.9218 0
M  V30 4355 C 422.862 -0.759099 1.76357 0
M  V30 4356 O 424.063 -1.17998 2.41516 0
M  V30 4357 C 422.334 1.10571 3.39866 0
M  V30 4358 S 423.893 0.91702 4.29111 0
M  V30 4359 H 420.711 0.254147 0.664026 0
M  V30 4360 H 423.313 1.28988 1.46909 0
M  V30 4361 H 422.017 2.16096 3.489 0
M  V30 4362 H 421.548 0.504268 3.90155 0
M  V30 4363 H 423.563 -0.185855 4.95852 0
M  V30 4364 N 422.737 -1.36956 0.779787 0
M  V30 4365 C 423.962 -2.04283 0.358224 0
M  V30 4366 C 424.387 -1.58422 -1.01411 0
M  V30 4367 O 423.745 -0.748179 -1.65142 0
M  V30 4368 C 423.793 -3.58152 0.419479 0
M  V30 4369 O 422.897 -4.08342 -0.577142 0
M  V30 4370 H 422.238 -0.645967 0.153698 0
M  V30 4371 H 424.768 -1.75108 1.05822 0
M  V30 4372 H 424.778 -4.07041 0.279636 0
M  V30 4373 H 423.453 -3.90886 1.42061 0
M  V30 4374 H 422.03 -3.70751 -0.399755 0
M  V30 4375 O 424.254 -0.672348 -1.46839 0
M  V30 4376 H 424.945 -0.203759 -1.92625 0
M  V30 END ATOM
M  V30 BEGIN BOND
M  V30 END BOND
M  V30 END CTAB
M  END
$$$$
