drugbank_target|Q9ULY5 C-type lectin domain family 4 member E (DB04540)
 OpenBabel12092121083D

  0  0  0     0  0            999 V3000
M  V30 BEGIN CTAB
M  V30 COUNTS 3436 3481 0 0 0
M  V30 BEGIN ATOM
M  V30 1 H -0.908 1.98254 -0.117106 0
M  V30 2 N 0 1.576 0 0
M  V30 3 C 0.933 2.03868 1.02534 0
M  V30 4 C 1.911 0.928543 1.3348 0
M  V30 5 O 3.095 1.19667 1.45644 0
M  V30 6 C 0.222 2.43627 2.35294 0
M  V30 7 C -0.732 3.65373 2.2001 0
M  V30 8 S 0.101 5.13292 1.52614 0
M  V30 9 C 1.257 5.56322 2.86805 0
M  V30 10 H 1.49 2.90518 0.631377 0
M  V30 11 H -0.977 1.52953 0.210867 0
M  V30 12 H 0.981 2.67203 3.11629 0
M  V30 13 H -0.358 1.57376 2.7183 0
M  V30 14 H -1.165 3.90944 3.18086 0
M  V30 15 H -1.563 3.418 1.51819 0
M  V30 16 H 0.729 5.58782 3.83104 0
M  V30 17 H 1.672 6.56266 2.65933 0
M  V30 18 H 2.08 4.83886 2.90714 0
M  V30 19 N 1.4781 -0.272755 1.55222 0
M  V30 20 C 2.4261 -1.35705 1.88909 0
M  V30 21 C 3.4201 -1.5112 0.765456 0
M  V30 22 O 4.6261 -1.52901 0.949802 0
M  V30 23 H 1.0011 -0.453868 0.59959 0
M  V30 24 H 2.9721 -1.04544 2.79487 0
M  V30 25 C 1.7211 -2.71049 2.17779 0
M  V30 26 H 1.0441 -2.59979 3.03728 0
M  V30 27 H 2.4841 -3.45858 2.45272 0
M  V30 28 C 0.9431 -3.22165 0.985473 0
M  V30 29 O 1.4731 -4.01096 0.220233 0
M  V30 30 N -0.3209 -2.7985 0.783108 0
M  V30 31 H -0.7739 -2.15775 1.40708 0
M  V30 32 H -0.8159 -3.14397 -0.0130392 0
M  V30 33 N 2.9562 -1.48159 -0.537278 0
M  V30 34 C 4.1812 -1.59707 -1.32319 0
M  V30 35 C 4.6062 -0.254859 -1.86365 0
M  V30 36 O 3.9642 0.772378 -1.64024 0
M  V30 37 C 4.0122 -2.6412 -2.45505 0
M  V30 38 O 3.1162 -2.20774 -3.48328 0
M  V30 39 H 2.4572 -0.535791 -0.392204 0
M  V30 40 H 4.9872 -1.94092 -0.647268 0
M  V30 41 H 4.9972 -2.85166 -2.91795 0
M  V30 42 H 3.6722 -3.61567 -2.05528 0
M  V30 43 H 2.2492 -2.09911 -3.08207 0
M  V30 44 N 4.4343 0.785586 -1.36625 0
M  V30 45 C 5.6593 1.57963 -1.34397 0
M  V30 46 C 6.0843 1.87964 0.071526 0
M  V30 47 O 5.4423 1.48182 1.0446 0
M  V30 48 C 5.4903 2.87511 -2.17646 0
M  V30 49 O 4.5943 3.81281 -1.57158 0
M  V30 50 H 3.9353 0.479014 -0.459828 0
M  V30 51 H 6.4653 0.973411 -1.79961 0
M  V30 52 H 6.4753 3.36745 -2.30362 0
M  V30 53 H 5.1503 2.65002 -3.20541 0
M  V30 54 H 3.7273 3.39885 -1.53403 0
M  V30 55 N 5.9124 1.20967 1.01018 0
M  V30 56 C 6.8594 0.964281 2.09691 0
M  V30 57 C 7.8294 -0.107853 1.65749 0
M  V30 58 O 9.0144 0.0381987 1.90762 0
M  V30 59 C 6.1544 0.52943 3.41015 0
M  V30 60 C 5.2674 1.67043 3.98398 0
M  V30 61 C 4.4024 1.18525 5.17808 0
M  V30 62 C 3.4414 2.29892 5.67288 0
M  V30 63 N 2.5784 1.82546 6.77954 0
M  V30 64 H 7.4184 1.89463 2.30017 0
M  V30 65 H 4.9554 0.944289 1.1279 0
M  V30 66 H 6.9134 0.258588 4.16398 0
M  V30 67 H 5.5434 -0.363919 3.20742 0
M  V30 68 H 4.5954 2.05603 3.20049 0
M  V30 69 H 5.9074 2.50877 4.31117 0
M  V30 70 H 5.0614 0.870762 6.00419 0
M  V30 71 H 3.8004 0.316887 4.86669 0
M  V30 72 H 2.8054 2.6215 4.83278 0
M  V30 73 H 4.0304 3.17216 6.00459 0
M  V30 74 H 1.9764 0.980454 6.48632 0
M  V30 75 H 1.8934 2.59956 7.09901 0
M  V30 76 H 3.1614 1.54115 7.64113 0
M  V30 77 N 7.3905 -1.2043 1.01659 0
M  V30 78 C 8.6155 -1.94318 0.724942 0
M  V30 79 C 9.0405 -1.74266 -0.708034 0
M  V30 80 O 8.3985 -1.03694 -1.48719 0
M  V30 81 C 8.4465 -3.44486 1.06591 0
M  V30 82 O 7.5505 -4.12017 0.177599 0
M  V30 83 H 6.8915 -0.60708 0.26898 0
M  V30 84 H 9.4215 -1.52861 1.35995 0
M  V30 85 H 9.4315 -3.95106 1.01762 0
M  V30 86 H 8.1065 -3.58404 2.10997 0
M  V30 87 H 6.6835 -3.71821 0.283421 0
M  V30 88 N 8.8686 -0.792821 -1.36206 0
M  V30 89 C 10.0936 -0.377701 -2.03932 0
M  V30 90 C 10.5186 0.998947 -1.59382 0
M  V30 91 O 9.8766 1.64421 -0.763903 0
M  V30 92 C 9.9246 -0.453635 -3.57735 0
M  V30 93 O 9.0286 0.538151 -4.08874 0
M  V30 94 H 8.3696 -0.159855 -0.644471 0
M  V30 95 H 10.8996 -1.07488 -1.7409 0
M  V30 96 H 10.9096 -0.318464 -4.06755 0
M  V30 97 H 9.5846 -1.45784 -3.89512 0
M  V30 98 H 8.1616 0.364359 -3.71116 0
M  V30 99 N 10.3467 1.47872 -0.545128 0
M  V30 100 C 11.2567 2.33633 0.212746 0
M  V30 101 C 12.2727 1.4744 0.923983 0
M  V30 102 O 13.4487 1.80393 0.895572 0
M  V30 103 C 10.5137 3.23884 1.23693 0
M  V30 104 C 9.5747 4.25961 0.534417 0
M  V30 105 C 8.8077 5.11899 1.5098 0
M  V30 106 O 9.0307 5.00077 2.7437 0
M  V30 107 O 7.9647 5.92831 1.0409 0
M  V30 108 H 11.7907 2.99714 -0.490416 0
M  V30 109 H 9.3757 1.46235 -0.305871 0
M  V30 110 H 11.2577 3.79666 1.82843 0
M  V30 111 H 9.9327 2.60446 1.92222 0
M  V30 112 H 8.8397 3.73972 -0.0979679 0
M  V30 113 H 10.1727 4.92079 -0.109213 0
M  V30 114 N 11.8248 0.280983 1.55075 0
M  V30 115 C 13.0528 -0.337293 2.04132 0
M  V30 116 C 13.4678 -1.4903 1.15912 0
M  V30 117 O 12.8248 -1.81606 0.180459 0
M  V30 118 C 12.8758 -0.812706 3.52246 0
M  V30 119 O 12.5968 0.294387 4.3711 0
M  V30 120 C 14.0978 -1.4982 4.17216 0
M  V30 121 H 11.3178 -0.0761638 0.666663 0
M  V30 122 H 13.8618 0.414787 2.00249 0
M  V30 123 H 12.0168 -1.51486 3.56554 0
M  V30 124 H 12.4308 -0.0721325 5.2445 0
M  V30 125 H 13.9048 -1.7822 5.22438 0
M  V30 126 H 14.3818 -2.43168 3.65741 0
M  V30 127 H 14.9878 -0.839742 4.16927 0
M  V30 128 N 13.3029 -1.57598 0.00835791 0
M  V30 129 C 14.2349 -2.05811 -1.00868 0
M  V30 130 C 15.2479 -0.977579 -1.30182 0
M  V30 131 O 16.4369 -1.25421 -1.27011 0
M  V30 132 C 13.5369 -2.45016 -2.34137 0
M  V30 133 C 12.7099 -3.75903 -2.23643 0
M  V30 134 C 11.7689 -4.01884 -3.3967 0
M  V30 135 O 10.7949 -4.72433 -3.17483 0
M  V30 136 N 11.9969 -3.50432 -4.62793 0
M  V30 137 H 14.7619 -2.93684 -0.597458 0
M  V30 138 H 12.3229 -1.60909 -0.178852 0
M  V30 139 H 14.3149 -2.59506 -3.10546 0
M  V30 140 H 12.8849 -1.62618 -2.66972 0
M  V30 141 H 12.1049 -3.7141 -1.32091 0
M  V30 142 H 13.3929 -4.61695 -2.13812 0
M  V30 143 H 12.7909 -2.93317 -4.83716 0
M  V30 144 H 11.3479 -3.70236 -5.3644 0
M  V30 145 N 14.781 0.264519 -1.55364 0
M  V30 146 C 16.021 1.00254 -1.78125 0
M  V30 147 C 16.385 1.83187 -0.575017 0
M  V30 148 O 17.586 2.60029 -0.681042 0
M  V30 149 C 15.857 1.85478 -3.05504 0
M  V30 150 S 17.416 2.6543 -3.49417 0
M  V30 151 H 14.234 0.337522 -0.625779 0
M  V30 152 H 16.836 0.272111 -1.93597 0
M  V30 153 H 15.54 1.23491 -3.9138 0
M  V30 154 H 15.071 2.62827 -2.92721 0
M  V30 155 H 17.086 3.87958 -3.09359 0
M  V30 156 N 16.2591 1.48442 0.529413 0
M  V30 157 C 17.4871 1.60151 1.30994 0
M  V30 158 C 17.9021 0.261985 1.86973 0
M  V30 159 O 17.2591 -0.748805 1.66431 0
M  V30 160 C 17.3101 2.64854 2.46038 0
M  V30 161 O 17.0311 3.93608 1.92365 0
M  V30 162 C 18.5321 2.87007 3.37849 0
M  V30 163 H 15.7521 0.539971 0.398338 0
M  V30 164 H 18.2961 1.94273 0.638597 0
M  V30 165 H 16.4511 2.33589 3.09055 0
M  V30 166 H 16.8651 4.51055 2.67675 0
M  V30 167 H 18.3391 3.64068 4.14919 0
M  V30 168 H 18.8161 1.95852 3.93114 0
M  V30 169 H 19.4221 3.19579 2.80623 0
M  V30 170 N 17.7372 -0.778329 1.37039 0
M  V30 171 C 18.6472 -1.92253 1.34446 0
M  V30 172 C 19.6632 -1.72267 0.244991 0
M  V30 173 O 20.8392 -1.95615 0.479258 0
M  V30 174 C 17.9042 -3.27282 1.144 0
M  V30 175 C 16.9652 -3.59969 2.33925 0
M  V30 176 C 16.1982 -4.88555 2.14825 0
M  V30 177 O 16.4212 -5.59113 1.12912 0
M  V30 178 O 15.3552 -5.20153 3.02861 0
M  V30 179 H 19.1812 -1.97392 2.30803 0
M  V30 180 H 16.7662 -0.920154 1.17701 0
M  V30 181 H 18.6482 -4.08062 1.05182 0
M  V30 182 H 17.3232 -3.23011 0.211124 0
M  V30 183 H 16.2302 -2.7945 2.48714 0
M  V30 184 H 17.5632 -3.68976 3.25757 0
M  V30 185 N 19.2153 -1.21501 -1.00376 0
M  V30 186 C 20.6313 -0.972629 -1.26539 0
M  V30 187 C 20.8313 0.340257 -1.98606 0
M  V30 188 O 19.8873 1.06561 -2.28913 0
M  V30 189 C 21.2003 -2.16404 -2.08781 0
M  V30 190 C 22.7483 -2.20643 -2.22004 0
M  V30 191 C 23.2233 -3.39306 -3.07629 0
M  V30 192 N 24.7143 -3.39401 -3.15217 0
M  V30 193 C 25.4493 -4.27867 -3.81729 0
M  V30 194 N 24.9453 -5.26533 -4.5026 0
M  V30 195 N 26.7383 -4.15672 -3.78382 0
M  V30 196 H 18.8893 -2.05929 -0.520281 0
M  V30 197 H 21.1523 -0.901803 -0.292328 0
M  V30 198 H 20.8583 -3.11554 -1.63178 0
M  V30 199 H 20.7323 -2.15567 -3.09533 0
M  V30 200 H 23.1193 -1.26048 -2.66825 0
M  V30 201 H 23.2003 -2.25523 -1.20718 0
M  V30 202 H 22.8443 -4.34195 -2.63509 0
M  V30 203 H 22.7743 -3.31665 -4.09031 0
M  V30 204 H 25.2653 -2.67997 -2.66432 0
M  V30 205 H 25.5783 -5.90337 -4.98721 0
M  V30 206 H 23.9233 -5.30457 -4.49044 0
M  V30 207 H 27.1143 -3.3785 -3.23998 0
M  V30 208 H 27.2873 -4.84825 -4.2994 0
M  V30 209 N 20.6934 1.19889 -1.02296 0
M  V30 210 C 21.9414 1.89046 -0.714558 0
M  V30 211 C 22.2624 1.79636 0.758681 0
M  V30 212 O 21.5324 1.20292 1.54618 0
M  V30 213 H 20.1124 0.699802 -0.261317 0
M  V30 214 H 22.7744 1.45574 -1.29592 0
M  V30 215 H 21.8704 2.95524 -1.0036 0
M  V30 216 N 22.1715 0.800033 1.35784 0
M  V30 217 C 23.4115 0.382891 2.00782 0
M  V30 218 C 23.7755 -1.02891 1.62103 0
M  V30 219 O 24.9765 -1.54771 2.19771 0
M  V30 220 C 23.2475 0.553299 3.53091 0
M  V30 221 S 24.8065 0.225608 4.3822 0
M  V30 222 H 21.6245 0.145737 0.695904 0
M  V30 223 H 24.2265 1.04085 1.65489 0
M  V30 224 H 22.9305 1.58091 3.78729 0
M  V30 225 H 22.4615 -0.120214 3.93216 0
M  V30 226 H 24.4765 -0.969074 4.86645 0
M  V30 227 N 23.6496 -1.47581 0.552962 0
M  V30 228 C 24.8966 -2.02482 0.0273243 0
M  V30 229 C 25.2246 -1.42776 -1.32081 0
M  V30 230 O 24.4796 -0.571393 -1.87173 0
M  V30 231 C 24.7786 -3.57199 -0.119728 0
M  V30 232 C 24.4446 -4.35804 1.15697 0
M  V30 233 C 23.1066 -4.57 1.50681 0
M  V30 234 C 25.4586 -4.81167 2.00319 0
M  V30 235 C 22.7866 -5.20807 2.70142 0
M  V30 236 C 25.1386 -5.46293 3.18978 0
M  V30 237 C 23.8026 -5.65722 3.54281 0
M  V30 238 H 23.0726 -0.740933 0.00999866 0
M  V30 239 H 25.7196 -1.77302 0.72362 0
M  V30 240 H 24.0246 -3.81348 -0.89896 0
M  V30 241 H 25.7216 -3.97324 -0.541718 0
M  V30 242 H 22.3116 -4.19582 0.874561 0
M  V30 243 H 26.4956 -4.64574 1.74599 0
M  V30 244 H 21.7516 -5.34045 2.97668 0
M  V30 245 H 25.9256 -5.80407 3.84838 0
M  V30 246 H 23.5526 -6.14936 4.46942 0
M  V30 247 N 25.1277 -0.289203 -1.54924 0
M  V30 248 C 26.3527 0.329299 -2.04769 0
M  V30 249 C 26.7777 1.4763 -1.16564 0
M  V30 250 O 26.1357 1.80527 -0.167186 0
M  V30 251 C 26.1837 0.774438 -3.52186 0
M  V30 252 O 25.2877 1.88038 -3.67036 0
M  V30 253 H 24.6287 0.0659259 -0.660719 0
M  V30 254 H 27.1587 -0.42761 -2.00082 0
M  V30 255 H 27.1687 1.06642 -3.93816 0
M  V30 256 H 25.8437 -0.0646707 -4.1585 0
M  V30 257 H 24.4207 1.58985 -3.3731 0
M  V30 258 N 26.6058 1.57591 -0.0167156 0
M  V30 259 C 27.8308 1.9598 0.67872 0
M  V30 260 C 28.2558 0.892546 1.65575 0
M  V30 261 O 27.6138 -0.147772 1.80697 0
M  V30 262 C 27.6618 3.33468 1.37227 0
M  V30 263 O 26.7658 3.28954 2.48722 0
M  V30 264 H 26.1068 0.639339 0.17928 0
M  V30 265 H 28.6368 2.04463 -0.0748802 0
M  V30 266 H 28.6468 3.69417 1.7319 0
M  V30 267 H 27.3218 4.10694 0.656007 0
M  V30 268 H 25.8988 3.04705 2.14963 0
M  V30 269 N 28.0839 -0.256276 1.55502 0
M  V30 270 C 29.0159 -1.33981 1.85962 0
M  V30 271 C 30.0289 -1.44743 0.745212 0
M  V30 272 O 31.2179 -1.4626 1.02324 0
M  V30 273 C 28.3179 -2.7194 2.02242 0
M  V30 274 C 27.4909 -2.83562 3.33033 0
M  V30 275 C 26.5499 -4.02304 3.39172 0
M  V30 276 O 25.5759 -3.92273 4.12444 0
M  V30 277 N 26.7779 -5.15045 2.67784 0
M  V30 278 H 29.5429 -1.08191 2.7949 0
M  V30 279 H 27.1039 -0.446388 1.55624 0
M  V30 280 H 29.0959 -3.49697 2.03701 0
M  V30 281 H 27.6659 -2.90479 1.15502 0
M  V30 282 H 26.8859 -1.92555 3.43971 0
M  V30 283 H 28.1739 -2.88271 4.19258 0
M  V30 284 H 27.5719 -5.26085 2.07968 0
M  V30 285 H 26.1289 -5.90972 2.74947 0
M  V30 286 N 29.562 -1.4872 -0.521534 0
M  V30 287 C 30.495 -1.58451 -1.64221 0
M  V30 288 C 31.473 -0.434513 -1.56687 0
M  V30 289 O 32.657 -0.647275 -1.77038 0
M  V30 290 C 29.784 -1.52037 -3.02659 0
M  V30 291 C 28.83 -2.71981 -3.28525 0
M  V30 292 S 29.663 -4.33869 -3.13876 0
M  V30 293 C 30.819 -4.30067 -4.54745 0
M  V30 294 H 31.052 -2.53256 -1.55719 0
M  V30 295 H 28.585 -1.37358 -0.705143 0
M  V30 296 H 30.543 -1.49023 -3.82495 0
M  V30 297 H 29.204 -0.585541 -3.08594 0
M  V30 298 H 28.397 -2.63656 -4.29536 0
M  V30 299 H 27.999 -2.72302 -2.56374 0
M  V30 300 H 30.291 -4.00521 -5.46433 0
M  V30 301 H 31.234 -5.31287 -4.68123 0
M  V30 302 H 31.642 -3.60419 -4.34463 0
M  V30 303 N 31.0401 0.771051 -1.3745 0
M  V30 304 C 32.2871 1.52963 -1.32697 0
M  V30 305 C 32.6151 1.94299 0.0883274 0
M  V30 306 O 31.8701 1.64397 1.0617 0
M  V30 307 C 32.1691 2.80676 -2.2126 0
M  V30 308 C 31.8351 2.58389 -3.69521 0
M  V30 309 C 30.4971 2.52019 -4.09927 0
M  V30 310 C 32.8491 2.38469 -4.63446 0
M  V30 311 C 30.1771 2.23721 -5.42371 0
M  V30 312 C 32.5291 2.11694 -5.96128 0
M  V30 313 C 31.1931 2.03769 -6.35637 0
M  V30 314 H 30.4631 0.559732 -0.485573 0
M  V30 315 H 33.1101 0.888083 -1.69662 0
M  V30 316 H 31.4151 3.49392 -1.77291 0
M  V30 317 H 33.1121 3.38557 -2.14895 0
M  V30 318 H 29.7021 2.6421 -3.37478 0
M  V30 319 H 33.8861 2.4238 -4.33089 0
M  V30 320 H 29.1421 2.16081 -5.71943 0
M  V30 321 H 33.3161 1.9528 -6.6846 0
M  V30 322 H 30.9431 1.81606 -7.38189 0
M  V30 323 N 32.5182 1.22032 0.997298 0
M  V30 324 C 33.4482 1.01065 2.10495 0
M  V30 325 C 34.4292 -0.0669542 1.69968 0
M  V30 326 O 35.6142 0.0943987 1.9397 0
M  V30 327 C 32.7442 0.582874 3.42374 0
M  V30 328 C 31.6982 1.60592 3.96729 0
M  V30 329 C 31.0242 1.03412 5.24605 0
M  V30 330 C 32.3242 2.99478 4.27914 0
M  V30 331 H 34.0182 1.93708 2.28292 0
M  V30 332 H 31.5642 0.932761 1.09707 0
M  V30 333 H 33.5172 0.423332 4.19268 0
M  V30 334 H 32.2412 -0.379213 3.24391 0
M  V30 335 H 30.9002 1.75316 3.21963 0
M  V30 336 H 30.5482 0.063518 5.0296 0
M  V30 337 H 30.2482 1.71754 5.61938 0
M  V30 338 H 31.7722 0.886066 6.04137 0
M  V30 339 H 33.1862 2.88153 4.95622 0
M  V30 340 H 31.5832 3.64903 4.76409 0
M  V30 341 H 32.6532 3.49742 3.3587 0
M  V30 342 N 33.9963 -1.19345 1.0293 0
M  V30 343 C 35.2423 -1.89585 0.736824 0
M  V30 344 C 35.5973 -1.78148 -0.726703 0
M  V30 345 O 34.8903 -1.16332 -1.52242 0
M  V30 346 C 35.0843 -3.39292 1.12319 0
M  V30 347 C 34.9133 -3.65298 2.62273 0
M  V30 348 C 33.6833 -3.83304 3.29251 0
M  V30 349 C 35.8813 -3.6682 3.60482 0
M  V30 350 N 33.8633 -3.96944 4.68304 0
M  V30 351 C 35.2343 -3.86037 4.85155 0
M  V30 352 C 37.2893 -3.49848 3.54275 0
M  V30 353 C 35.9923 -3.9004 6.04369 0
M  V30 354 C 38.0183 -3.55129 4.72903 0
M  V30 355 C 37.3803 -3.74831 5.9639 0
M  V30 356 H 33.4793 -0.712856 0.321497 0
M  V30 357 H 36.0633 -1.43427 1.31669 0
M  V30 358 H 34.2343 -3.84172 0.571524 0
M  V30 359 H 35.9663 -3.97055 0.78292 0
M  V30 360 H 32.7213 -3.82211 2.79663 0
M  V30 361 H 33.1453 -4.07613 5.40538 0
M  V30 362 H 37.7873 -3.33572 2.59788 0
M  V30 363 H 35.5053 -4.05108 6.99223 0
M  V30 364 H 39.0913 -3.43287 4.69729 0
M  V30 365 H 37.9713 -3.78792 6.86649 0
M  V30 366 N 35.4744 -0.807222 -1.35358 0
M  V30 367 C 36.7024 -0.400377 -2.02989 0
M  V30 368 C 37.1174 0.988859 -1.60832 0
M  V30 369 O 36.4744 1.63729 -0.806175 0
M  V30 370 C 36.5254 -0.474867 -3.58368 0
M  V30 371 O 36.2464 -1.80933 -3.98992 0
M  V30 372 C 37.7474 -0.0609112 -4.43258 0
M  V30 373 H 34.9674 -0.162587 -0.651004 0
M  V30 374 H 37.5114 -1.09102 -1.72965 0
M  V30 375 H 35.6664 0.167534 -3.87038 0
M  V30 376 H 36.0804 -1.77256 -4.9364 0
M  V30 377 H 37.5544 -0.164145 -5.51756 0
M  V30 378 H 38.0314 0.993831 -4.27808 0
M  V30 379 H 38.6374 -0.676492 -4.19885 0
M  V30 380 N 36.9525 1.47285 -0.560781 0
M  V30 381 C 38.1985 2.02764 -0.0381184 0
M  V30 382 C 38.5315 1.43384 1.30976 0
M  V30 383 O 37.8065 0.590733 1.85312 0
M  V30 384 C 38.0895 3.60064 0.0511427 0
M  V30 385 C 37.9425 4.2987 -1.32408 0
M  V30 386 C 39.2615 4.33439 0.762795 0
M  V30 387 H 36.3805 0.736841 -0.0153264 0
M  V30 388 H 39.0225 1.75675 -0.723759 0
M  V30 389 H 37.1725 3.83274 0.635065 0
M  V30 390 H 38.8445 4.17989 -1.95148 0
M  V30 391 H 37.0875 3.90085 -1.8978 0
M  V30 392 H 37.7585 5.38478 -1.21431 0
M  V30 393 H 40.2345 4.15243 0.266965 0
M  V30 394 H 39.1105 5.43124 0.794221 0
M  V30 395 H 39.3715 4.02915 1.81966 0
M  V30 396 N 38.4306 0.297415 1.54768 0
M  V30 397 C 39.3936 -0.567375 2.22066 0
M  V30 398 C 40.3936 -1.06409 1.20556 0
M  V30 399 O 41.5836 -0.960691 1.45315 0
M  V30 400 C 38.7156 -1.78517 2.90421 0
M  V30 401 H 39.9086 0.0205534 2.99893 0
M  V30 402 H 37.4616 0.0482163 1.56226 0
M  V30 403 H 38.1966 -2.41303 2.16664 0
M  V30 404 H 37.9816 -1.43669 3.64831 0
M  V30 405 H 39.4716 -2.39964 3.41771 0
M  V30 406 N 39.9087 -1.5758 0.0250728 0
M  V30 407 C 41.1567 -1.91255 -0.653151 0
M  V30 408 C 41.4777 -0.901691 -1.729 0
M  V30 409 O 40.7477 0.0573785 -1.95816 0
M  V30 410 H 39.3277 -0.705942 -0.244243 0
M  V30 411 H 41.9897 -1.94767 0.0719209 0
M  V30 412 H 41.0857 -2.91752 -1.10847 0
M  V30 413 N 41.3868 0.248026 -1.55636 0
M  V30 414 C 42.6358 0.974134 -1.76617 0
M  V30 415 C 42.9488 1.86528 -0.588796 0
M  V30 416 O 44.1548 2.62805 -0.681594 0
M  V30 417 C 42.6108 1.78213 -3.12679 0
M  V30 418 C 42.2188 0.93843 -4.38061 0
M  V30 419 C 43.9628 2.50104 -3.42999 0
M  V30 420 C 41.8698 1.74225 -5.65155 0
M  V30 421 H 40.7998 0.36745 -0.658405 0
M  V30 422 H 43.4508 0.22884 -1.82067 0
M  V30 423 H 41.8328 2.56933 -3.01333 0
M  V30 424 H 43.0068 0.193635 -4.60393 0
M  V30 425 H 41.3218 0.332905 -4.15067 0
M  V30 426 H 43.9188 3.10694 -4.3517 0
M  V30 427 H 44.2618 3.21662 -2.64271 0
M  V30 428 H 44.7948 1.78395 -3.55556 0
M  V30 429 H 41.5338 1.07043 -6.46701 0
M  V30 430 H 41.0538 2.46235 -5.46926 0
M  V30 431 H 42.7328 2.30967 -6.0437 0
M  V30 432 N 42.8649 1.48995 0.513639 0
M  V30 433 C 44.2759 1.5119 1.09537 0
M  V30 434 C 44.6269 0.290906 1.94031 0
M  V30 435 O 43.7519 -0.60049 2.07902 0
M  V30 436 C 44.3469 2.73964 1.99322 0
M  V30 437 C 42.9059 2.78978 2.52682 0
M  V30 438 C 42.0529 2.44934 1.30009 0
M  V30 439 H 45.0039 1.55875 0.298125 0
M  V30 440 H 45.0249 2.53409 2.83838 0
M  V30 441 H 44.5369 3.62813 1.37799 0
M  V30 442 H 42.6379 1.94378 3.1788 0
M  V30 443 H 42.7509 3.8083 2.90698 0
M  V30 444 H 41.1149 1.9644 1.62122 0
M  V30 445 H 41.8979 3.36043 0.702131 0
M  V30 446 N 44.343 -0.763751 1.37857 0
M  V30 447 C 45.592 -1.51789 1.32827 0
M  V30 448 C 45.905 -1.95426 -0.0823719 0
M  V30 449 O 47.111 -2.70298 -0.255172 0
M  V30 450 C 45.567 -2.74133 2.33193 0
M  V30 451 C 45.175 -2.37562 3.79827 0
M  V30 452 C 46.919 -3.52054 2.37188 0
M  V30 453 C 44.826 -3.56456 4.71904 0
M  V30 454 H 43.756 -0.569896 0.493695 0
M  V30 455 H 46.407 -0.835822 1.63359 0
M  V30 456 H 44.789 -3.4427 1.9569 0
M  V30 457 H 45.963 -1.75157 4.26212 0
M  V30 458 H 44.278 -1.72798 3.78853 0
M  V30 459 H 46.875 -4.40437 3.03182 0
M  V30 460 H 47.218 -3.92486 1.38782 0
M  V30 461 H 47.751 -2.88921 2.7344 0
M  V30 462 H 44.49 -3.21099 5.71468 0
M  V30 463 H 44.01 -4.17938 4.30218 0
M  V30 464 H 45.689 -4.23168 4.89426 0
M  V30 465 N 45.8211 -1.22559 -0.990812 0
M  V30 466 C 46.7511 -1.0218 -2.09956 0
M  V30 467 C 47.7321 0.0579394 -1.70001 0
M  V30 468 O 48.9171 -0.104684 -1.93918 0
M  V30 469 C 46.0471 -0.601023 -3.4206 0
M  V30 470 C 45.0011 -1.62694 -3.95872 0
M  V30 471 C 44.3271 -1.06193 -5.24049 0
M  V30 472 C 45.6271 -3.01743 -4.2632 0
M  V30 473 H 47.3211 -1.94916 -2.27262 0
M  V30 474 H 44.8671 -0.938566 -1.09211 0
M  V30 475 H 46.8201 -0.445561 -4.19038 0
M  V30 476 H 45.5441 0.362005 -3.24588 0
M  V30 477 H 44.2031 -1.77021 -3.21028 0
M  V30 478 H 43.8511 -0.0901903 -5.02919 0
M  V30 479 H 43.5511 -1.74732 -5.61019 0
M  V30 480 H 45.0751 -0.918092 -6.03658 0
M  V30 481 H 46.4891 -2.90777 -4.94087 0
M  V30 482 H 44.8861 -3.67425 -4.74467 0
M  V30 483 H 45.9561 -3.51518 -3.34011 0
M  V30 484 N 47.2992 1.18797 -1.03562 0
M  V30 485 C 48.5462 1.8865 -0.736023 0
M  V30 486 C 48.8742 1.80041 0.735889 0
M  V30 487 O 48.1292 1.19179 1.55225 0
M  V30 488 C 48.4282 3.38692 -1.14117 0
M  V30 489 C 48.0942 3.67504 -2.6125 0
M  V30 490 C 46.7562 3.75078 -3.01447 0
M  V30 491 C 49.1082 3.80293 -3.56408 0
M  V30 492 C 46.4362 3.92915 -4.35701 0
M  V30 493 C 48.7882 3.99645 -4.90374 0
M  V30 494 C 47.4522 4.05453 -5.30249 0
M  V30 495 H 46.7222 0.690321 -0.26933 0
M  V30 496 H 49.3692 1.40641 -1.29971 0
M  V30 497 H 47.6742 3.88645 -0.496202 0
M  V30 498 H 49.3712 3.91072 -0.886789 0
M  V30 499 H 45.9612 3.62223 -2.29113 0
M  V30 500 H 50.1452 3.73779 -3.26501 0
M  V30 501 H 45.4012 3.95653 -4.66121 0
M  V30 502 H 49.5752 4.08482 -5.64017 0
M  V30 503 H 47.2022 4.19027 -6.34288 0
M  V30 504 N 48.7773 0.814389 1.34928 0
M  V30 505 C 49.7073 0.244827 2.32213 0
M  V30 506 C 50.6883 -0.634024 1.57842 0
M  V30 507 O 51.8733 -0.562676 1.8587 0
M  V30 508 C 49.0033 -0.601106 3.42058 0
M  V30 509 C 47.9573 0.179896 4.27622 0
M  V30 510 C 47.2833 -0.788237 5.28858 0
M  V30 511 C 48.5833 1.38329 5.03649 0
M  V30 512 H 50.2773 1.05763 2.80097 0
M  V30 513 H 47.8233 0.510029 1.34665 0
M  V30 514 H 49.7763 -1.00968 4.09125 0
M  V30 515 H 48.5003 -1.44688 2.92802 0
M  V30 516 H 47.1593 0.569739 3.62146 0
M  V30 517 H 46.8073 -1.62973 4.75866 0
M  V30 518 H 46.5073 -0.269942 5.8698 0
M  V30 519 H 48.0313 -1.19485 5.98795 0
M  V30 520 H 49.4453 1.04918 5.63618 0
M  V30 521 H 47.8423 1.83662 5.71304 0
M  V30 522 H 48.9123 2.16592 4.33839 0
M  V30 523 N 50.2554 -1.46986 0.568584 0
M  V30 524 C 51.4804 -2.07335 0.0520528 0
M  V30 525 C 51.9054 -1.41675 -1.23733 0
M  V30 526 O 51.2634 -0.495623 -1.74394 0
M  V30 527 C 51.3114 -3.60417 -0.11501 0
M  V30 528 O 50.4154 -3.95309 -1.17492 0
M  V30 529 H 49.7564 -0.661597 0.0564385 0
M  V30 530 H 52.2864 -1.88837 0.787507 0
M  V30 531 H 52.2964 -4.06698 -0.325644 0
M  V30 532 H 50.9714 -4.07601 0.826675 0
M  V30 533 H 49.5484 -3.60757 -0.943869 0
M  V30 534 N 51.7335 -0.305618 -1.54608 0
M  V30 535 C 52.6965 0.555591 -2.22364 0
M  V30 536 C 53.6965 1.05768 -1.21119 0
M  V30 537 O 54.8865 0.952972 -1.45822 0
M  V30 538 C 52.0185 1.76974 -2.91364 0
M  V30 539 H 53.2115 -0.0364572 -2.99878 0
M  V30 540 H 50.7645 -0.0565007 -1.56198 0
M  V30 541 H 51.4995 2.40151 -2.17941 0
M  V30 542 H 51.2845 1.41732 -3.65588 0
M  V30 543 H 52.7745 2.38148 -3.43038 0
M  V30 544 N 53.2116 1.57565 -0.0334293 0
M  V30 545 C 54.4516 1.93844 0.648379 0
M  V30 546 C 54.8156 0.910387 1.69044 0
M  V30 547 O 56.0166 1.15952 2.42505 0
M  V30 548 C 54.2876 3.35017 1.24492 0
M  V30 549 S 55.8466 3.93229 1.94721 0
M  V30 550 H 52.6646 0.678231 0.213364 0
M  V30 551 H 55.2666 1.95254 -0.0981253 0
M  V30 552 H 53.9706 4.07652 0.474128 0
M  V30 553 H 53.5016 3.37061 2.02864 0
M  V30 554 H 55.5166 3.77014 3.22606 0
M  V30 555 N 54.6897 -0.239769 1.55765 0
M  V30 556 C 55.9367 -0.966801 1.7793 0
M  V30 557 C 56.2647 -1.85046 0.599015 0
M  V30 558 O 55.5197 -1.91197 -0.417395 0
M  V30 559 C 55.8187 -1.852 3.05672 0
M  V30 560 C 55.4847 -1.1231 4.36689 0
M  V30 561 C 54.1467 -0.921689 4.72291 0
M  V30 562 C 56.4987 -0.607019 5.17653 0
M  V30 563 C 53.8267 -0.191996 5.86386 0
M  V30 564 C 56.1787 0.109241 6.32506 0
M  V30 565 C 54.8427 0.322073 6.66723 0
M  V30 566 H 54.1127 -0.353778 0.651093 0
M  V30 567 H 56.7597 -0.23634 1.90036 0
M  V30 568 H 55.0647 -2.64975 2.8861 0
M  V30 569 H 56.7617 -2.41635 3.20021 0
M  V30 570 H 53.3517 -1.29004 4.08725 0
M  V30 571 H 57.5357 -0.750153 4.90598 0
M  V30 572 H 52.7917 -0.0166949 6.11398 0
M  V30 573 H 56.9657 0.516737 6.9448 0
M  V30 574 H 54.5927 0.88944 7.54979 0
M  V30 575 N 56.1678 -1.49265 -0.50573 0
M  V30 576 C 57.4168 -1.57761 -1.25675 0
M  V30 577 C 57.7298 -0.267371 -1.93764 0
M  V30 578 O 58.9358 -0.230827 -2.70517 0
M  V30 579 C 57.3918 -2.78332 -2.28165 0
M  V30 580 C 56.9998 -4.16096 -1.66037 0
M  V30 581 C 58.7438 -2.96155 -3.04125 0
M  V30 582 C 56.6508 -5.27895 -2.6661 0
M  V30 583 H 55.5808 -0.587391 -0.472745 0
M  V30 584 H 58.2318 -1.75644 -0.53118 0
M  V30 585 H 56.6138 -2.53934 -3.03865 0
M  V30 586 H 57.7878 -4.50612 -0.963622 0
M  V30 587 H 56.1028 -4.03591 -1.02484 0
M  V30 588 H 58.6998 -3.76849 -3.79327 0
M  V30 589 H 59.0428 -2.06534 -3.61455 0
M  V30 590 H 59.5758 -3.2057 -2.35541 0
M  V30 591 H 56.3148 -6.1956 -2.14068 0
M  V30 592 H 55.8348 -4.97839 -3.34539 0
M  V30 593 H 57.5138 -5.57031 -3.29129 0
M  V30 594 N 57.6459 0.756429 -1.3826 0
M  V30 595 C 58.8739 1.54565 -1.3754 0
M  V30 596 C 59.2889 1.88767 0.0355331 0
M  V30 597 O 58.6459 1.52572 1.0014 0
M  V30 598 C 58.6969 2.84654 -2.22833 0
M  V30 599 O 58.4179 2.51912 -3.5843 0
M  V30 600 C 59.9189 3.78807 -2.30261 0
M  V30 601 H 57.1389 0.478353 -0.470553 0
M  V30 602 H 59.6829 0.936381 -1.81803 0
M  V30 603 H 57.8379 3.41965 -1.8204 0
M  V30 604 H 58.2519 3.35325 -4.03308 0
M  V30 605 H 59.7259 4.67045 -2.94233 0
M  V30 606 H 60.2029 4.19038 -1.31545 0
M  V30 607 H 60.8089 3.2742 -2.71433 0
M  V30 608 N 59.124 1.23083 0.984299 0
M  V30 609 C 60.54 0.992637 1.24975 0
M  V30 610 C 60.74 -0.308618 1.99123 0
M  V30 611 O 59.796 -1.02905 2.30579 0
M  V30 612 C 61.109 2.19698 2.05312 0
M  V30 613 C 62.657 2.24147 2.18465 0
M  V30 614 C 63.132 3.44157 3.02192 0
M  V30 615 N 64.623 3.44372 3.09777 0
M  V30 616 C 65.358 4.33886 3.74874 0
M  V30 617 N 64.854 5.3363 4.41827 0
M  V30 618 N 66.647 4.21639 3.71721 0
M  V30 619 H 58.798 2.06731 0.487453 0
M  V30 620 H 61.061 0.906339 0.277944 0
M  V30 621 H 60.767 3.1411 1.58201 0
M  V30 622 H 60.641 2.20465 3.06064 0
M  V30 623 H 63.028 1.30277 2.64786 0
M  V30 624 H 63.109 2.27415 1.17115 0
M  V30 625 H 62.753 4.38332 2.56568 0
M  V30 626 H 62.683 3.3813 4.03702 0
M  V30 627 H 65.174 2.72201 2.62135 0
M  V30 628 H 65.487 5.98196 4.89266 0
M  V30 629 H 63.832 5.37534 4.40548 0
M  V30 630 H 67.023 3.42962 3.18582 0
M  V30 631 H 67.196 4.91604 4.22173 0
M  V30 632 N 60.6021 -1.18246 1.0419 0
M  V30 633 C 61.8421 -1.89948 0.754916 0
M  V30 634 C 62.2061 -1.78608 -0.70451 0
M  V30 635 O 63.4071 -2.4503 -1.10516 0
M  V30 636 C 61.6781 -3.36305 1.20969 0
M  V30 637 S 63.2371 -4.26088 1.04854 0
M  V30 638 H 60.0551 -0.655897 0.274446 0
M  V30 639 H 62.6571 -1.42873 1.33445 0
M  V30 640 H 61.3611 -3.42089 2.26722 0
M  V30 641 H 60.8921 -3.8842 0.624004 0
M  V30 642 H 62.9071 -4.96189 -0.0332896 0
M  V30 643 N 62.0802 -0.821533 -1.34494 0
M  V30 644 C 63.3262 -0.409552 -1.98622 0
M  V30 645 C 63.6592 1.0244 -1.64984 0
M  V30 646 O 62.9342 1.71325 -0.920758 0
M  V30 647 C 63.2172 -0.610458 -3.54888 0
M  V30 648 C 63.0702 -2.09043 -3.98273 0
M  V30 649 C 64.3892 -0.0455379 -4.40076 0
M  V30 650 H 61.5082 -0.15028 -0.721516 0
M  V30 651 H 64.1502 -1.03384 -1.59411 0
M  V30 652 H 62.3002 -0.079044 -3.8842 0
M  V30 653 H 63.9722 -2.68537 -3.75081 0
M  V30 654 H 62.2152 -2.58139 -3.48635 0
M  V30 655 H 62.8862 -2.18182 -5.07051 0
M  V30 656 H 65.3622 -0.499557 -4.1309 0
M  V30 657 H 64.2382 -0.215922 -5.48475 0
M  V30 658 H 64.4992 1.04939 -4.29465 0
M  V30 659 N 63.5583 1.46682 -0.576371 0
M  V30 660 C 64.8043 2.02712 -0.0596221 0
M  V30 661 C 65.1373 1.44765 1.29448 0
M  V30 662 O 64.4123 0.610355 1.84675 0
M  V30 663 C 64.6953 3.60098 0.0129503 0
M  V30 664 C 64.5483 4.28441 -1.3696 0
M  V30 665 C 65.8673 4.34224 0.71678 0
M  V30 666 H 62.9863 0.736637 -0.0231407 0
M  V30 667 H 65.6283 1.74898 -0.742351 0
M  V30 668 H 63.7783 3.83926 0.594378 0
M  V30 669 H 65.4503 4.15896 -1.9957 0
M  V30 670 H 63.6933 3.8805 -1.93907 0
M  V30 671 H 64.3643 5.3716 -1.27135 0
M  V30 672 H 66.8403 4.15503 0.222908 0
M  V30 673 H 65.7163 5.43936 0.73657 0
M  V30 674 H 65.9773 4.04823 1.77682 0
M  V30 675 N 65.0364 0.313813 1.54444 0
M  V30 676 C 66.2644 -0.293918 2.04802 0
M  V30 677 C 66.6794 -1.46537 1.19047 0
M  V30 678 O 66.0364 -1.81182 0.218939 0
M  V30 679 C 66.0874 -0.737806 3.53891 0
M  V30 680 O 65.8084 0.387038 4.36387 0
M  V30 681 C 67.3094 -1.40936 4.203 0
M  V30 682 H 64.5294 -0.0620057 0.668129 0
M  V30 683 H 67.0734 0.457169 1.99324 0
M  V30 684 H 65.2284 -1.43889 3.59687 0
M  V30 685 H 65.6424 0.0391274 5.24485 0
M  V30 686 H 67.1164 -1.67099 5.26101 0
M  V30 687 H 67.5934 -2.35355 3.70816 0
M  V30 688 H 68.1994 -0.751117 4.18615 0
M  V30 689 N 66.5145 -1.57545 0.0417849 0
M  V30 690 C 67.7615 -1.92317 -0.634082 0
M  V30 691 C 68.0895 -0.919334 -1.71402 0
M  V30 692 O 67.3445 0.0698253 -1.95575 0
M  V30 693 C 67.6435 -3.33794 -1.27735 0
M  V30 694 C 67.3095 -4.49716 -0.326543 0
M  V30 695 C 65.9715 -4.81156 -0.0648814 0
M  V30 696 C 68.3235 -5.20182 0.325623 0
M  V30 697 C 65.6515 -5.80414 0.856539 0
M  V30 698 C 68.0035 -6.20424 1.23518 0
M  V30 699 C 66.6675 -6.50298 1.5056 0
M  V30 700 H 65.9375 -0.703736 -0.232027 0
M  V30 701 H 68.5845 -1.91205 0.106259 0
M  V30 702 H 66.8895 -3.31228 -2.09274 0
M  V30 703 H 68.5865 -3.57975 -1.80707 0
M  V30 704 H 65.1765 -4.25176 -0.540665 0
M  V30 705 H 69.3605 -4.96112 0.136546 0
M  V30 706 H 64.6165 -6.019 1.07363 0
M  V30 707 H 68.7905 -6.74141 1.74664 0
M  V30 708 H 66.4175 -7.27025 2.22123 0
M  V30 709 N 67.9926 0.231505 -1.5589 0
M  V30 710 C 69.4086 0.580748 -1.48659 0
M  V30 711 C 69.6086 1.87617 -0.73498 0
M  V30 712 O 68.6646 2.51046 -0.270586 0
M  V30 713 C 69.9776 0.669202 -2.93159 0
M  V30 714 C 71.5256 0.760499 -3.03621 0
M  V30 715 C 72.0006 0.880383 -4.49459 0
M  V30 716 N 73.4916 0.944861 -4.53461 0
M  V30 717 C 74.2266 1.05716 -5.63571 0
M  V30 718 N 73.7226 1.13403 -6.83456 0
M  V30 719 N 75.5156 1.09152 -5.514 0
M  V30 720 H 67.6666 -0.618695 -2.03189 0
M  V30 721 H 69.9296 -0.215728 -0.923128 0
M  V30 722 H 69.6356 -0.212904 -3.51055 0
M  V30 723 H 69.5096 1.5361 -3.44505 0
M  V30 724 H 71.8966 1.63305 -2.45796 0
M  V30 725 H 71.9776 -0.131864 -2.5546 0
M  V30 726 H 71.6216 0.0123284 -5.07899 0
M  V30 727 H 71.5516 1.78802 -4.95316 0
M  V30 728 H 74.0426 0.896176 -3.6712 0
M  V30 729 H 74.3556 1.21921 -7.63122 0
M  V30 730 H 72.7006 1.10333 -6.86186 0
M  V30 731 H 75.8916 1.02805 -4.56671 0
M  V30 732 H 76.0646 1.17558 -6.37247 0
M  V30 733 N 69.4707 1.49531 0.497807 0
M  V30 734 C 70.7197 1.58426 1.24837 0
M  V30 735 C 71.0327 0.277643 1.93619 0
M  V30 736 O 72.2387 0.24517 2.70391 0
M  V30 737 C 70.6947 2.79538 2.26686 0
M  V30 738 C 70.3027 4.16971 1.63828 0
M  V30 739 C 72.0467 2.97764 3.0255 0
M  V30 740 C 69.9537 5.29301 2.63807 0
M  V30 741 H 68.8837 0.58989 0.469623 0
M  V30 742 H 71.5347 1.75923 0.521857 0
M  V30 743 H 69.9167 2.55542 3.02514 0
M  V30 744 H 71.0907 4.51116 0.939711 0
M  V30 745 H 69.4057 4.04129 1.00342 0
M  V30 746 H 72.0027 3.78856 3.77323 0
M  V30 747 H 72.3457 2.08448 3.60354 0
M  V30 748 H 72.8787 3.21815 2.33838 0
M  V30 749 H 69.6177 6.20687 2.10779 0
M  V30 750 H 69.1377 4.99606 3.31894 0
M  V30 751 H 70.8167 5.58768 3.2617 0
M  V30 752 N 70.9488 -0.749086 1.3866 0
M  V30 753 C 72.1958 -1.50833 1.35114 0
M  V30 754 C 72.5238 -1.94415 -0.0574049 0
M  V30 755 O 71.7788 -1.66065 -1.03541 0
M  V30 756 C 72.0778 -2.7712 2.25697 0
M  V30 757 C 71.7438 -2.52477 3.73585 0
M  V30 758 C 70.4058 -2.45466 4.13884 0
M  V30 759 C 72.7578 -2.31066 4.67181 0
M  V30 760 C 70.0858 -2.15064 5.45861 0
M  V30 761 C 72.4378 -2.02183 5.9942 0
M  V30 762 C 71.1018 -1.93631 6.38798 0
M  V30 763 H 70.3718 -0.551936 0.494416 0
M  V30 764 H 73.0188 -0.860979 1.71054 0
M  V30 765 H 71.3238 -3.46528 1.82827 0
M  V30 766 H 73.0208 -3.35096 2.20254 0
M  V30 767 H 69.6108 -2.58807 3.41638 0
M  V30 768 H 73.7948 -2.35459 4.3689 0
M  V30 769 H 69.0508 -2.06954 5.75308 0
M  V30 770 H 73.2248 -1.8462 6.71482 0
M  V30 771 H 70.8518 -1.69839 7.40985 0
M  V30 772 N 72.4269 -1.23603 -0.977757 0
M  V30 773 C 73.3589 -0.977369 -2.07317 0
M  V30 774 C 74.3719 0.0495845 -1.62724 0
M  V30 775 O 75.5609 -0.186261 -1.77526 0
M  V30 776 C 72.6609 -0.451216 -3.35883 0
M  V30 777 C 71.8339 -1.53896 -4.09432 0
M  V30 778 C 70.8929 -1.01721 -5.16274 0
M  V30 779 O 69.9189 -1.70676 -5.43009 0
M  V30 780 N 71.1209 0.153594 -5.80297 0
M  V30 781 H 73.8859 -1.92047 -2.30082 0
M  V30 782 H 71.4469 -1.14497 -1.14465 0
M  V30 783 H 73.4389 -0.0871574 -4.04606 0
M  V30 784 H 72.0089 0.397368 -3.10064 0
M  V30 785 H 71.2289 -2.07566 -3.35127 0
M  V30 786 H 72.5169 -2.27037 -4.55337 0
M  V30 787 H 71.9149 0.730323 -5.60966 0
M  V30 788 H 70.4719 0.458892 -6.50183 0
M  V30 789 N 73.905 1.17692 -1.04816 0
M  V30 790 C 75.133 1.91786 -0.776254 0
M  V30 791 C 75.548 1.76604 0.667577 0
M  V30 792 O 74.905 1.10067 1.45573 0
M  V30 793 C 74.956 3.42967 -1.14263 0
M  V30 794 O 74.677 3.57678 -2.52978 0
M  V30 795 C 76.178 4.34144 -0.896311 0
M  V30 796 H 73.398 0.608624 -0.282519 0
M  V30 797 H 75.942 1.49268 -1.39783 0
M  V30 798 H 74.097 3.83245 -0.565874 0
M  V30 799 H 74.511 4.51319 -2.67229 0
M  V30 800 H 75.985 5.38744 -1.20244 0
M  V30 801 H 76.462 4.38876 0.168636 0
M  V30 802 H 77.068 3.99574 -1.45672 0
M  V30 803 N 75.3831 0.828654 1.34056 0
M  V30 804 C 76.6231 0.425394 1.99924 0
M  V30 805 C 76.9871 -0.994294 1.64249 0
M  V30 806 O 78.1881 -1.50074 2.23005 0
M  V30 807 C 76.4591 0.628071 3.51838 0
M  V30 808 S 78.0181 0.318511 4.37642 0
M  V30 809 H 74.8361 0.160465 0.692656 0
M  V30 810 H 77.4381 1.07572 1.63244 0
M  V30 811 H 76.1421 1.66089 3.7529 0
M  V30 812 H 75.6731 -0.0367799 3.93383 0
M  V30 813 H 77.6881 -0.865632 4.88591 0
M  V30 814 N 76.8612 -1.46375 0.584142 0
M  V30 815 C 78.1382 -1.956 0.0033388 0
M  V30 816 C 78.5182 -1.52679 -1.45782 0
M  V30 817 O 77.8662 -0.77816 -2.14842 0
M  V30 818 C 78.0762 -3.48551 0.176891 0
M  V30 819 C 79.4242 -4.24576 0.0454609 0
M  V30 820 O 80.4482 -3.56043 0.105801 0
M  V30 821 O 79.3072 -5.46427 -0.0890376 0
M  V30 822 H 76.4012 -0.825547 -0.0490066 0
M  V30 823 H 78.9472 -1.56652 0.65256 0
M  V30 824 H 77.7192 -3.72683 1.1926 0
M  V30 825 H 77.3422 -3.94332 -0.508695 0
M  V30 826 N 78.3393 -0.321999 -1.54275 0
M  V30 827 C 79.2493 0.553631 -2.27974 0
M  V30 828 C 80.2653 1.13054 -1.32268 0
M  V30 829 O 81.4413 1.15084 -1.6528 0
M  V30 830 C 78.5063 1.69927 -3.02201 0
M  V30 831 C 77.5673 1.15433 -4.1349 0
M  V30 832 C 76.8003 2.24537 -4.84168 0
M  V30 833 O 77.0233 3.44852 -4.5435 0
M  V30 834 O 75.9573 1.90044 -5.7111 0
M  V30 835 H 79.7833 -0.0448345 -3.03667 0
M  V30 836 H 77.3683 -0.0877418 -1.49142 0
M  V30 837 H 79.2503 2.3663 -3.48689 0
M  V30 838 H 77.9253 2.28395 -2.29385 0
M  V30 839 H 76.8323 0.452436 -3.71354 0
M  V30 840 H 78.1653 0.614805 -4.88345 0
M  V30 841 N 79.8174 1.5752 -0.0501392 0
M  V30 842 C 80.7644 2.1147 0.924603 0
M  V30 843 C 81.7344 1.02182 1.30951 0
M  V30 844 O 82.9194 1.29723 1.39916 0
M  V30 845 C 80.0594 2.66337 2.19451 0
M  V30 846 C 79.1724 3.89708 1.86418 0
M  V30 847 C 78.3074 4.32893 3.07859 0
M  V30 848 C 77.3464 5.48967 2.70742 0
M  V30 849 N 76.4834 5.87211 3.84874 0
M  V30 850 H 81.3234 2.94465 0.457639 0
M  V30 851 H 78.8604 1.45531 0.214266 0
M  V30 852 H 80.8184 2.96247 2.93758 0
M  V30 853 H 79.4484 1.86141 2.63726 0
M  V30 854 H 78.5004 3.66396 1.02264 0
M  V30 855 H 79.8124 4.74074 1.55096 0
M  V30 856 H 78.9664 4.6435 3.90466 0
M  V30 857 H 77.7054 3.47336 3.42358 0
M  V30 858 H 76.7104 5.17183 1.86551 0
M  V30 859 H 77.9354 6.3624 2.37436 0
M  V30 860 H 75.8814 5.04607 4.19175 0
M  V30 861 H 75.7984 6.66266 3.57247 0
M  V30 862 H 77.0664 6.23282 4.68123 0
M  V30 863 N 81.2955 -0.223234 1.56011 0
M  V30 864 C 82.2425 -1.27664 1.92277 0
M  V30 865 C 83.2125 -1.46659 0.779763 0
M  V30 866 O 84.3975 -1.60256 1.03551 0
M  V30 867 C 81.5375 -2.62234 2.24338 0
M  V30 868 C 80.6505 -2.51051 3.51564 0
M  V30 869 C 79.7855 -3.78133 3.7308 0
M  V30 870 C 78.8245 -3.61665 4.93827 0
M  V30 871 N 77.9615 -4.80693 5.11741 0
M  V30 872 H 82.8015 -0.960358 2.82101 0
M  V30 873 H 80.3385 -0.462901 1.39627 0
M  V30 874 H 82.2965 -3.40596 2.40936 0
M  V30 875 H 80.9265 -2.91961 1.3769 0
M  V30 876 H 79.9785 -1.64132 3.43169 0
M  V30 877 H 81.2905 -2.34803 4.40079 0
M  V30 878 H 80.4445 -4.64938 3.89766 0
M  V30 879 H 79.1835 -3.97304 2.82844 0
M  V30 880 H 78.1885 -2.73244 4.77093 0
M  V30 881 H 79.4135 -3.43966 5.85546 0
M  V30 882 H 77.3595 -5.00181 4.24446 0
M  V30 883 H 77.2765 -4.67165 5.94384 0
M  V30 884 H 78.5445 -5.6893 5.3286 0
M  V30 885 N 82.7736 -1.49793 -0.48987 0
M  V30 886 C 84.0206 -1.59841 -1.24327 0
M  V30 887 C 84.3486 -0.290135 -1.92324 0
M  V30 888 O 83.6036 0.722749 -1.81865 0
M  V30 889 C 83.9026 -2.71488 -2.32441 0
M  V30 890 C 83.5686 -4.12614 -1.81826 0
M  V30 891 C 82.2306 -4.51017 -1.67742 0
M  V30 892 C 84.5826 -5.00892 -1.4407 0
M  V30 893 C 81.9106 -5.75459 -1.14297 0
M  V30 894 C 84.2626 -6.25863 -0.920742 0
M  V30 895 C 82.9266 -6.63086 -0.766383 0
M  V30 896 H 82.1966 -0.584899 -0.454944 0
M  V30 897 H 84.8436 -1.83663 -0.542215 0
M  V30 898 H 83.1486 -2.4168 -3.0838 0
M  V30 899 H 84.8456 -2.76469 -2.90458 0
M  V30 900 H 81.4356 -3.82307 -1.93751 0
M  V30 901 H 85.6196 -4.7187 -1.53794 0
M  V30 902 H 80.8756 -6.02989 -1.01068 0
M  V30 903 H 85.0496 -6.9364 -0.619448 0
M  V30 904 H 82.6766 -7.59393 -0.350083 0
M  V30 905 N 84.2517 0.741722 -1.39055 0
M  V30 906 C 85.1837 1.8657 -1.33133 0
M  V30 907 C 86.1967 1.61001 -0.241329 0
M  V30 908 O 87.3857 1.7136 -0.499784 0
M  V30 909 C 84.4857 3.22457 -1.04283 0
M  V30 910 C 83.6587 3.75435 -2.24427 0
M  V30 911 C 82.7177 4.89867 -1.92138 0
M  V30 912 O 81.7437 5.03879 -2.64754 0
M  V30 913 N 82.9457 5.73738 -0.88347 0
M  V30 914 H 85.7107 1.92156 -2.29991 0
M  V30 915 H 83.2717 0.922172 -1.3307 0
M  V30 916 H 85.2637 3.9657 -0.807128 0
M  V30 917 H 83.8337 3.12181 -0.161807 0
M  V30 918 H 83.0537 2.92751 -2.6399 0
M  V30 919 H 84.3417 4.07563 -3.04581 0
M  V30 920 H 83.7397 5.64999 -0.281517 0
M  V30 921 H 82.2967 6.47947 -0.707662 0
M  V30 922 N 85.7298 1.2412 0.971189 0
M  V30 923 C 86.6598 1.05508 2.08304 0
M  V30 924 C 87.6408 -0.0308864 1.70072 0
M  V30 925 O 88.8258 0.135521 1.93727 0
M  V30 926 C 85.9558 0.655365 3.4106 0
M  V30 927 C 84.9098 1.68971 3.93234 0
M  V30 928 C 84.2358 1.14516 5.22293 0
M  V30 929 C 85.5358 3.08487 4.21465 0
M  V30 930 H 87.2298 1.98507 2.24132 0
M  V30 931 H 84.7758 0.955821 1.07704 0
M  V30 932 H 86.7288 0.51217 4.18276 0
M  V30 933 H 85.4528 -0.31032 3.25122 0
M  V30 934 H 84.1118 1.82106 3.18171 0
M  V30 935 H 83.7598 0.170189 5.02712 0
M  V30 936 H 83.4598 1.83635 5.58168 0
M  V30 937 H 84.9838 1.01401 6.02121 0
M  V30 938 H 86.3978 2.98601 4.89398 0
M  V30 939 H 84.7948 3.74926 4.68562 0
M  V30 940 H 85.8648 3.56787 3.28376 0
M  V30 941 N 87.2079 -1.17134 1.05439 0
M  V30 942 C 88.6189 -1.69084 0.791676 0
M  V30 943 C 88.9699 -1.83822 -0.685839 0
M  V30 944 O 88.0949 -1.52757 -1.53278 0
M  V30 945 C 88.6899 -3.07119 1.4305 0
M  V30 946 C 87.2489 -3.56225 1.21577 0
M  V30 947 C 86.3959 -2.32421 1.51247 0
M  V30 948 H 89.3469 -1.01617 1.219 0
M  V30 949 H 89.3679 -3.71087 0.84112 0
M  V30 950 H 88.8799 -2.9636 2.50584 0
M  V30 951 H 86.9809 -3.72257 0.159787 0
M  V30 952 H 87.0939 -4.38837 1.92246 0
M  V30 953 H 85.4579 -2.3701 0.932653 0
M  V30 954 H 86.2409 -2.24268 2.5992 0
M  V30 955 N 88.686 -0.835752 -1.33615 0
M  V30 956 C 89.596 -0.269088 -2.33052 0
M  V30 957 C 90.612 0.603251 -1.63208 0
M  V30 958 O 91.788 0.508112 -1.94885 0
M  V30 959 C 88.853 0.549091 -3.42324 0
M  V30 960 C 87.914 -0.347156 -4.27894 0
M  V30 961 C 87.147 0.43207 -5.31948 0
M  V30 962 O 87.37 1.66409 -5.45586 0
M  V30 963 O 86.304 -0.192298 -6.01593 0
M  V30 964 H 90.13 -1.09243 -2.83372 0
M  V30 965 H 87.715 -0.598198 -1.36901 0
M  V30 966 H 89.597 1.01414 -4.09015 0
M  V30 967 H 88.272 1.34955 -2.94226 0
M  V30 968 H 87.179 -0.859979 -3.64081 0
M  V30 969 H 88.512 -1.1123 -4.79467 0
M  V30 970 N 90.1641 1.46063 -0.591896 0
M  V30 971 C 91.1121 2.32124 0.148739 0
M  V30 972 C 92.1061 1.45035 0.875286 0
M  V30 973 O 93.3121 1.61609 0.792632 0
M  V30 974 H 89.6871 0.749024 0.066832 0
M  V30 975 H 91.6581 2.92392 -0.595783 0
M  V30 976 C 90.4071 3.28373 1.1431 0
M  V30 977 H 89.7301 3.95371 0.59346 0
M  V30 978 H 91.1701 3.91352 1.63155 0
M  V30 979 C 89.6291 2.54393 2.20875 0
M  V30 980 O 90.1591 2.31373 3.28374 0
M  V30 981 N 88.3651 2.14797 1.95731 0
M  V30 982 H 87.9121 2.33719 1.08319 0
M  V30 983 H 87.8701 1.65619 2.67241 0
M  V30 984 N 91.6422 0.330177 1.54103 0
M  V30 985 C 92.8892 -0.270405 2.00686 0
M  V30 986 C 93.2172 -1.51621 1.21825 0
M  V30 987 O 92.4722 -1.93536 0.29025 0
M  V30 988 C 92.7712 -0.643134 3.51566 0
M  V30 989 C 92.4372 0.504251 4.48072 0
M  V30 990 C 91.0992 0.819163 4.74176 0
M  V30 991 C 93.4512 1.27465 5.05373 0
M  V30 992 C 90.7792 1.90708 5.5484 0
M  V30 993 C 93.1312 2.35271 5.87223 0
M  V30 994 C 91.7952 2.67336 6.11627 0
M  V30 995 H 91.0652 -0.0989482 0.734364 0
M  V30 996 H 93.7122 0.455324 1.86008 0
M  V30 997 H 92.0172 -1.44938 3.64006 0
M  V30 998 H 93.7142 -1.11949 3.85056 0
M  V30 999 H 90.3042 0.248733 4.27878 0
M  V30 1000 H 94.4882 1.04462 4.85182 0
M  V30 1001 H 89.7442 2.15991 5.71977 0
M  V30 1002 H 93.9182 2.95405 6.30641 0
M  V30 1003 H 91.5452 3.51763 6.73919 0
M  V30 1004 N 93.1203 -1.57491 0.0584922 0
M  V30 1005 C 94.3483 -1.97296 -0.623037 0
M  V30 1006 C 94.7633 -0.936338 -1.63946 0
M  V30 1007 O 94.1203 0.0785981 -1.82331 0
M  V30 1008 C 94.1713 -3.37183 -1.30345 0
M  V30 1009 O 93.8923 -4.36872 -0.32773 0
M  V30 1010 C 95.3933 -3.91788 -2.07406 0
M  V30 1011 H 92.6133 -0.649153 -0.169826 0
M  V30 1012 H 95.1573 -2.04106 0.12696 0
M  V30 1013 H 93.3123 -3.31502 -2.00463 0
M  V30 1014 H 93.7263 -5.18141 -0.814269 0
M  V30 1015 H 95.2003 -4.91926 -2.50425 0
M  V30 1016 H 95.6773 -3.27609 -2.92521 0
M  V30 1017 H 96.2833 -4.00829 -1.42184 0
M  V30 1018 N 94.5984 0.214957 -1.56127 0
M  V30 1019 C 95.5084 1.28727 -1.96129 0
M  V30 1020 C 96.5244 1.50916 -0.866044 0
M  V30 1021 O 97.7004 1.63918 -1.17016 0
M  V30 1022 C 94.7654 2.61569 -2.27558 0
M  V30 1023 C 93.8264 2.47625 -3.50685 0
M  V30 1024 C 93.0594 3.74132 -3.80606 0
M  V30 1025 O 93.2824 4.77438 -3.12104 0
M  V30 1026 O 92.2164 3.70849 -4.74083 0
M  V30 1027 H 96.0424 0.977855 -2.87527 0
M  V30 1028 H 93.6274 0.418358 -1.43423 0
M  V30 1029 H 95.5094 3.40012 -2.48938 0
M  V30 1030 H 94.1844 2.92178 -1.39332 0
M  V30 1031 H 93.0914 1.67361 -3.34576 0
M  V30 1032 H 94.4244 2.21954 -4.39315 0
M  V30 1033 N 96.0765 1.50051 0.48192 0
M  V30 1034 C 97.0065 1.71046 1.58951 0
M  V30 1035 C 97.9875 0.559288 1.60642 0
M  V30 1036 O 99.1725 0.797243 1.77081 0
M  V30 1037 C 96.3025 1.79462 2.97339 0
M  V30 1038 C 95.2565 2.94558 3.10515 0
M  V30 1039 C 94.5825 2.88105 4.50444 0
M  V30 1040 C 95.8825 4.35227 2.88747 0
M  V30 1041 H 97.5765 2.6378 1.41635 0
M  V30 1042 H 95.1225 1.26936 0.679942 0
M  V30 1043 H 97.0755 1.92734 3.74742 0
M  V30 1044 H 95.7995 0.833412 3.15788 0
M  V30 1045 H 94.4585 2.80918 2.35543 0
M  V30 1046 H 94.1065 1.89853 4.65795 0
M  V30 1047 H 93.8065 3.65366 4.60197 0
M  V30 1048 H 95.3305 3.03412 5.29881 0
M  V30 1049 H 96.7445 4.49449 3.55905 0
M  V30 1050 H 95.1415 5.13856 3.09955 0
M  V30 1051 H 96.2115 4.48347 1.84696 0
M  V30 1052 N 97.5546 -0.734337 1.39446 0
M  V30 1053 C 98.7796 -1.52866 1.40167 0
M  V30 1054 C 99.2046 -1.881 -0.00171513 0
M  V30 1055 O 98.5626 -1.51957 -0.988879 0
M  V30 1056 C 98.6106 -2.79235 2.28167 0
M  V30 1057 O 97.7146 -3.75185 1.71201 0
M  V30 1058 H 97.0556 -0.461618 0.477289 0
M  V30 1059 H 99.5856 -0.905949 1.8345 0
M  V30 1060 H 99.5956 -3.27963 2.42702 0
M  V30 1061 H 98.2706 -2.52923 3.30156 0
M  V30 1062 H 96.8476 -3.33958 1.65912 0
M  V30 1063 N 99.0327 -1.24633 -0.964593 0
M  V30 1064 C 100.273 -1.09981 -1.72289 0
M  V30 1065 C 100.637 0.354792 -1.88693 0
M  V30 1066 O 101.838 0.62289 -2.61483 0
M  V30 1067 C 100.109 -1.82262 -3.07434 0
M  V30 1068 S 101.668 -1.83379 -3.98645 0
M  V30 1069 H 98.4857 -0.393292 -0.59232 0
M  V30 1070 H 101.088 -1.58009 -1.15123 0
M  V30 1071 H 99.7917 -2.87206 -2.93157 0
M  V30 1072 H 99.3227 -1.3458 -3.69664 0
M  V30 1073 H 101.338 -0.903691 -4.87901 0
M  V30 1074 N 100.511 1.16574 -1.06058 0
M  V30 1075 C 101.741 1.90675 -0.795397 0
M  V30 1076 C 102.149 1.77547 0.653735 0
M  V30 1077 O 101.492 1.11611 1.45907 0
M  V30 1078 C 101.554 3.42011 -1.10764 0
M  V30 1079 C 101.218 3.78924 -2.55471 0
M  V30 1080 C 102.215 3.81042 -3.53699 0
M  V30 1081 C 99.8998 4.09626 -2.90708 0
M  V30 1082 C 101.894 4.13346 -4.85205 0
M  V30 1083 C 99.5808 4.41597 -4.22416 0
M  V30 1084 C 100.579 4.43436 -5.19474 0
M  V30 1085 O 100.267 4.74649 -6.48817 0
M  V30 1086 H 99.9988 0.611554 -0.288058 0
M  V30 1087 H 102.553 1.48711 -1.41683 0
M  V30 1088 H 100.783 3.84312 -0.429128 0
M  V30 1089 H 102.472 3.97384 -0.827077 0
M  V30 1090 H 103.238 3.57437 -3.27817 0
M  V30 1091 H 99.1168 4.07361 -2.15819 0
M  V30 1092 H 102.661 4.14696 -5.60957 0
M  V30 1093 H 98.5578 4.64667 -4.48056 0
M  V30 1094 H 99.3258 4.9247 -6.5377 0
M  V30 1095 N 101.989 0.842826 1.3317 0
M  V30 1096 C 102.937 0.267495 2.31057 0
M  V30 1097 C 103.931 -0.602682 1.58316 0
M  V30 1098 O 105.137 -0.491803 1.73151 0
M  V30 1099 H 101.512 0.0677813 0.748939 0
M  V30 1100 H 103.483 1.10754 2.77085 0
M  V30 1101 C 102.232 -0.539331 3.43492 0
M  V30 1102 H 101.555 0.12095 3.99617 0
M  V30 1103 H 102.995 -0.90767 4.14171 0
M  V30 1104 C 101.454 -1.71981 2.89697 0
M  V30 1105 O 101.984 -2.81862 2.86211 0
M  V30 1106 N 100.19 -1.54299 2.46252 0
M  V30 1107 H 99.7369 -0.649143 2.49287 0
M  V30 1108 H 99.6949 -2.33431 2.10612 0
M  V30 1109 N 103.467 -1.45747 0.599634 0
M  V30 1110 C 104.697 -2.06369 0.0977132 0
M  V30 1111 C 105.105 -1.44624 -1.21985 0
M  V30 1112 O 104.448 -0.551831 -1.75216 0
M  V30 1113 C 104.51 -3.59284 -0.124673 0
M  V30 1114 C 104.174 -4.43318 1.10987 0
M  V30 1115 C 105.171 -4.78796 2.02609 0
M  V30 1116 C 102.856 -4.84194 1.33647 0
M  V30 1117 C 104.85 -5.53997 3.15224 0
M  V30 1118 C 102.537 -5.5915 2.46565 0
M  V30 1119 C 103.535 -5.93968 3.37182 0
M  V30 1120 O 103.223 -6.67405 4.48136 0
M  V30 1121 H 102.955 -0.673122 0.0623153 0
M  V30 1122 H 105.509 -1.88104 0.824981 0
M  V30 1123 H 103.739 -3.75919 -0.906745 0
M  V30 1124 H 105.428 -4.01775 -0.577201 0
M  V30 1125 H 106.194 -4.47781 1.86325 0
M  V30 1126 H 102.073 -4.56534 0.64016 0
M  V30 1127 H 105.617 -5.81091 3.85978 0
M  V30 1128 H 101.514 -5.89579 2.62805 0
M  V30 1129 H 102.282 -6.85847 4.46717 0
M  V30 1130 N 104.945 -0.338344 -1.53925 0
M  V30 1131 C 106.193 0.259245 -2.0043 0
M  V30 1132 C 106.514 1.51484 -1.22791 0
M  V30 1133 O 105.784 1.93037 -0.33368 0
M  V30 1134 H 104.364 0.0987845 -0.740439 0
M  V30 1135 H 107.026 -0.458302 -1.89435 0
M  V30 1136 H 106.122 0.505334 -3.07982 0
M  V30 1137 N 106.423 1.57458 -0.0668435 0
M  V30 1138 C 107.648 1.9804 0.616027 0
M  V30 1139 C 108.073 0.944771 1.62652 0
M  V30 1140 O 107.431 -0.0902094 1.81075 0
M  V30 1141 C 107.479 3.37665 1.26549 0
M  V30 1142 O 106.583 3.36701 2.38131 0
M  V30 1143 H 105.924 0.644719 0.158849 0
M  V30 1144 H 108.454 2.04121 -0.139891 0
M  V30 1145 H 108.464 3.7474 1.6135 0
M  V30 1146 H 107.139 4.12573 0.525016 0
M  V30 1147 H 105.716 3.1139 2.0516 0
M  V30 1148 N 107.901 -0.206675 1.56239 0
M  V30 1149 C 109.149 -0.927007 1.79586 0
M  V30 1150 C 109.47 -1.8427 0.637929 0
M  V30 1151 O 108.74 -1.92849 -0.344398 0
M  V30 1152 H 107.32 -0.345292 0.662407 0
M  V30 1153 H 109.982 -0.21496 1.93711 0
M  V30 1154 H 109.078 -1.52501 2.72305 0
M  V30 1155 N 109.379 -1.50304 -0.473955 0
M  V30 1156 C 110.604 -1.65175 -1.25427 0
M  V30 1157 C 111.029 -0.333673 -1.85117 0
M  V30 1158 O 110.387 0.702114 -1.67153 0
M  V30 1159 C 110.435 -2.74295 -2.34082 0
M  V30 1160 O 109.539 -2.35349 -3.38651 0
M  V30 1161 H 108.88 -0.551944 -0.369126 0
M  V30 1162 H 111.41 -1.96662 -0.564364 0
M  V30 1163 H 111.42 -2.97285 -2.79438 0
M  V30 1164 H 110.095 -3.69959 -1.90008 0
M  V30 1165 H 108.672 -2.22794 -2.99027 0
M  V30 1166 N 110.857 0.726932 -1.39834 0
M  V30 1167 C 112.103 1.48884 -1.377 0
M  V30 1168 C 112.436 1.94185 0.0244852 0
M  V30 1169 O 111.711 1.67361 0.990986 0
M  V30 1170 C 111.994 2.72288 -2.3565 0
M  V30 1171 C 111.847 2.32956 -3.84775 0
M  V30 1172 C 113.166 3.74414 -2.31306 0
M  V30 1173 H 110.285 0.540062 -0.5015 0
M  V30 1174 H 112.927 0.830547 -1.70886 0
M  V30 1175 H 111.077 3.28457 -2.07481 0
M  V30 1176 H 112.749 1.82356 -4.23726 0
M  V30 1177 H 110.992 1.65088 -4.01159 0
M  V30 1178 H 111.663 3.21362 -4.4881 0
M  V30 1179 H 114.139 3.27849 -2.56231 0
M  V30 1180 H 113.015 4.58414 -3.01907 0
M  V30 1181 H 113.276 4.21909 -1.32081 0
M  V30 1182 N 112.336 1.25143 0.95797 0
M  V30 1183 C 113.283 1.05235 2.05412 0
M  V30 1184 C 114.253 -0.0374561 1.66058 0
M  V30 1185 O 115.438 0.119073 1.90428 0
M  V30 1186 C 112.578 0.673589 3.38462 0
M  V30 1187 C 111.691 1.8379 3.90954 0
M  V30 1188 C 110.826 1.40381 5.12315 0
M  V30 1189 C 109.865 2.53746 5.57027 0
M  V30 1190 N 109.002 2.11136 6.69601 0
M  V30 1191 H 113.842 1.99048 2.21774 0
M  V30 1192 H 111.379 0.991277 1.08683 0
M  V30 1193 H 113.337 0.434964 4.14926 0
M  V30 1194 H 111.967 -0.227554 3.21997 0
M  V30 1195 H 111.019 2.18992 3.11041 0
M  V30 1196 H 112.331 2.68937 4.20089 0
M  V30 1197 H 111.485 1.12464 5.96185 0
M  V30 1198 H 110.224 0.523015 4.84887 0
M  V30 1199 H 109.229 2.82412 4.71724 0
M  V30 1200 H 110.454 3.42398 5.86464 0
M  V30 1201 H 108.4 1.25468 6.4389 0
M  V30 1202 H 108.317 2.89832 6.98236 0
M  V30 1203 H 109.585 1.86385 7.56889 0
M  V30 1204 N 113.814 -1.1601 1.06675 0
M  V30 1205 C 114.762 -2.22586 0.675157 0
M  V30 1206 C 115.756 -1.66525 -0.310766 0
M  V30 1207 O 116.962 -1.79145 -0.175215 0
M  V30 1208 H 113.337 -0.724855 0.200223 0
M  V30 1209 H 115.308 -2.52899 1.58381 0
M  V30 1210 C 114.057 -3.47604 0.0817162 0
M  V30 1211 H 113.38 -3.91058 0.831484 0
M  V30 1212 H 114.82 -4.23718 -0.154708 0
M  V30 1213 C 113.279 -3.15718 -1.17576 0
M  V30 1214 O 113.809 -3.31878 -2.26318 0
M  V30 1215 N 112.015 -2.69816 -1.07923 0
M  V30 1216 H 111.562 -2.56866 -0.194293 0
M  V30 1217 H 111.52 -2.48855 -1.92141 0
M  V30 1218 N 115.292 -0.849877 -1.32721 0
M  V30 1219 C 116.532 -0.457146 -1.99222 0
M  V30 1220 C 116.896 0.968038 -1.6581 0
M  V30 1221 O 118.097 1.46507 -2.25364 0
M  V30 1222 C 116.368 -0.683966 -3.50794 0
M  V30 1223 S 117.927 -0.388095 -4.3708 0
M  V30 1224 H 114.745 -0.171464 -0.690015 0
M  V30 1225 H 117.347 -1.10155 -1.61512 0
M  V30 1226 H 116.051 -1.72038 -3.726 0
M  V30 1227 H 115.582 -0.0258086 -3.93392 0
M  V30 1228 H 117.597 0.787791 -4.89906 0
M  V30 1229 N 116.77 1.45427 -0.607355 0
M  V30 1230 C 118.01 2.04128 -0.105458 0
M  V30 1231 C 118.374 1.46555 1.24039 0
M  V30 1232 O 119.575 1.96608 1.833 0
M  V30 1233 C 117.846 3.57338 -0.0665324 0
M  V30 1234 S 119.405 4.37201 0.374207 0
M  V30 1235 H 116.223 0.709278 -0.0494575 0
M  V30 1236 H 118.825 1.78139 -0.805404 0
M  V30 1237 H 117.529 3.96752 -1.04957 0
M  V30 1238 H 117.06 3.87902 0.655415 0
M  V30 1239 H 119.075 4.6888 1.62377 0
M  V30 1240 N 118.248 0.346503 1.53744 0
M  V30 1241 C 119.659 -0.136779 1.86198 0
M  V30 1242 C 120.01 -1.49749 1.26766 0
M  V30 1243 O 119.135 -2.08417 0.582355 0
M  V30 1244 C 119.73 -0.254966 3.37839 0
M  V30 1245 C 118.289 -0.682482 3.70161 0
M  V30 1246 C 117.436 0.181981 2.76702 0
M  V30 1247 H 120.387 0.565994 1.48264 0
M  V30 1248 H 120.408 -1.08195 3.64793 0
M  V30 1249 H 119.92 0.735526 3.81066 0
M  V30 1250 H 118.021 -1.68189 3.3248 0
M  V30 1251 H 118.134 -0.470326 4.76786 0
M  V30 1252 H 116.498 -0.34615 2.52337 0
M  V30 1253 H 117.281 1.16966 3.2276 0
M  V30 1254 N 119.726 -1.57421 0.075193 0
M  V30 1255 C 120.656 -2.15942 -0.888324 0
M  V30 1256 C 121.637 -1.08737 -1.30806 0
M  V30 1257 O 122.822 -1.36787 -1.37851 0
M  V30 1258 C 119.952 -2.72379 -2.1547 0
M  V30 1259 C 118.906 -3.8478 -1.87425 0
M  V30 1260 C 118.232 -4.27834 -3.20721 0
M  V30 1261 C 119.532 -5.08869 -1.17684 0
M  V30 1262 H 121.226 -2.96705 -0.400799 0
M  V30 1263 H 118.772 -1.42723 -0.191342 0
M  V30 1264 H 120.725 -3.11965 -2.83295 0
M  V30 1265 H 119.449 -1.88841 -2.6647 0
M  V30 1266 H 118.108 -3.45703 -1.22004 0
M  V30 1267 H 117.756 -3.41214 -3.6957 0
M  V30 1268 H 117.456 -5.03605 -3.02746 0
M  V30 1269 H 118.98 -4.70039 -3.89738 0
M  V30 1270 H 120.394 -5.4575 -1.75584 0
M  V30 1271 H 118.791 -5.8994 -1.09956 0
M  V30 1272 H 119.861 -4.84648 -0.156453 0
M  V30 1273 N 121.204 0.198386 -1.56346 0
M  V30 1274 C 122.152 1.26538 -1.95169 0
M  V30 1275 C 123.146 1.47295 -0.836685 0
M  V30 1276 O 124.352 1.48195 -1.02167 0
M  V30 1277 H 120.727 0.424744 -0.620561 0
M  V30 1278 H 122.698 0.910904 -2.84157 0
M  V30 1279 C 121.447 2.6035 -2.30463 0
M  V30 1280 H 120.77 2.45192 -3.15786 0
M  V30 1281 H 122.21 3.33762 -2.61494 0
M  V30 1282 C 120.669 3.17096 -1.13806 0
M  V30 1283 O 121.199 3.99588 -0.41135 0
M  V30 1284 N 119.405 2.75795 -0.915736 0
M  V30 1285 H 118.952 2.08816 -1.50843 0
M  V30 1286 H 118.91 3.14101 -0.136979 0
M  V30 1287 N 122.682 1.50554 0.465978 0
M  V30 1288 C 123.928 1.63006 1.21658 0
M  V30 1289 C 124.283 0.328613 1.89573 0
M  V30 1290 O 123.576 -0.673813 1.79361 0
M  V30 1291 C 123.77 2.75152 2.28093 0
M  V30 1292 C 123.599 4.16075 1.7062 0
M  V30 1293 C 122.369 4.82408 1.50368 0
M  V30 1294 C 124.567 5.00145 1.1983 0
M  V30 1295 N 122.549 6.07532 0.881924 0
M  V30 1296 C 123.92 6.16035 0.700083 0
M  V30 1297 C 125.975 4.85882 1.08733 0
M  V30 1298 C 124.678 7.19228 0.101835 0
M  V30 1299 C 126.704 5.89257 0.503016 0
M  V30 1300 C 126.066 7.04398 0.0152005 0
M  V30 1301 H 122.165 0.650596 0.433877 0
M  V30 1302 H 124.749 1.8769 0.517746 0
M  V30 1303 H 122.92 2.52181 2.95397 0
M  V30 1304 H 124.652 2.76935 2.95109 0
M  V30 1305 H 121.407 4.39788 1.75737 0
M  V30 1306 H 121.831 6.7443 0.589312 0
M  V30 1307 H 126.473 3.97144 1.4504 0
M  V30 1308 H 124.191 8.07637 -0.273426 0
M  V30 1309 H 127.777 5.80286 0.419451 0
M  V30 1310 H 126.657 7.83021 -0.429856 0
M  V30 1311 N 124.16 -0.719506 1.40217 0
M  V30 1312 C 125.07 -1.86378 1.42479 0
M  V30 1313 C 126.086 -1.71073 0.317834 0
M  V30 1314 O 127.262 -1.93406 0.561794 0
M  V30 1315 C 124.327 -3.22136 1.28178 0
M  V30 1316 C 123.388 -3.49723 2.48982 0
M  V30 1317 C 122.621 -4.79004 2.35353 0
M  V30 1318 O 122.844 -5.53821 1.36524 0
M  V30 1319 O 121.778 -5.06839 3.2465 0
M  V30 1320 H 125.604 -1.87425 2.38968 0
M  V30 1321 H 123.189 -0.869405 1.21498 0
M  V30 1322 H 125.071 -4.03234 1.22395 0
M  V30 1323 H 123.746 -3.21825 0.347934 0
M  V30 1324 H 122.653 -2.6865 2.60342 0
M  V30 1325 H 123.986 -3.54828 3.41113 0
M  V30 1326 N 125.638 -1.25649 -0.95132 0
M  V30 1327 C 126.868 -1.13179 -1.72841 0
M  V30 1328 C 127.276 0.316827 -1.86528 0
M  V30 1329 O 126.619 1.22948 -1.3649 0
M  V30 1330 C 126.681 -1.71644 -3.15878 0
M  V30 1331 C 126.345 -3.20667 -3.25609 0
M  V30 1332 C 127.342 -4.17616 -3.09666 0
M  V30 1333 C 125.027 -3.6094 -3.49324 0
M  V30 1334 C 127.021 -5.52817 -3.17289 0
M  V30 1335 C 124.708 -4.96278 -3.56584 0
M  V30 1336 C 125.706 -5.92025 -3.40581 0
M  V30 1337 O 125.394 -7.24899 -3.47528 0
M  V30 1338 H 125.126 -0.395389 -0.54831 0
M  V30 1339 H 127.68 -1.66566 -1.20187 0
M  V30 1340 H 125.91 -1.12707 -3.69911 0
M  V30 1341 H 127.599 -1.54225 -3.75459 0
M  V30 1342 H 128.365 -3.87842 -2.91211 0
M  V30 1343 H 124.244 -2.86907 -3.6084 0
M  V30 1344 H 127.788 -6.2753 -3.04716 0
M  V30 1345 H 123.685 -5.25716 -3.74556 0
M  V30 1346 H 124.453 -7.33039 -3.64138 0
M  V30 1347 N 127.117 1.15442 -1.07289 0
M  V30 1348 C 128.364 1.86213 -0.795668 0
M  V30 1349 C 128.692 1.82291 0.678238 0
M  V30 1350 O 127.947 1.24057 1.51355 0
M  V30 1351 C 128.246 3.3489 -1.24834 0
M  V30 1352 C 127.912 3.59007 -2.72809 0
M  V30 1353 C 126.574 3.65298 -3.13227 0
M  V30 1354 C 128.926 3.68762 -3.68326 0
M  V30 1355 C 126.254 3.78854 -4.4798 0
M  V30 1356 C 128.606 3.83842 -5.0284 0
M  V30 1357 C 127.27 3.88378 -5.4288 0
M  V30 1358 H 126.54 0.681403 -0.291155 0
M  V30 1359 H 129.187 1.36435 -1.34379 0
M  V30 1360 H 127.492 3.8687 -0.619595 0
M  V30 1361 H 129.189 3.88052 -1.01076 0
M  V30 1362 H 125.779 3.5475 -2.40521 0
M  V30 1363 H 129.963 3.63202 -3.38227 0
M  V30 1364 H 125.219 3.80623 -4.78472 0
M  V30 1365 H 129.393 3.90332 -5.76727 0
M  V30 1366 H 127.02 3.98635 -6.47298 0
M  V30 1367 N 128.595 0.856903 1.32268 0
M  V30 1368 C 129.527 0.260412 2.27716 0
M  V30 1369 C 130.54 -0.569137 1.52528 0
M  V30 1370 O 131.729 -0.39326 1.74114 0
M  V30 1371 C 128.829 -0.650477 3.32599 0
M  V30 1372 C 128.002 0.14372 4.37164 0
M  V30 1373 C 127.061 -0.69328 5.21613 0
M  V30 1374 O 126.087 -0.12599 5.69061 0
M  V30 1375 N 127.289 -2.00761 5.44679 0
M  V30 1376 H 130.054 1.08059 2.79541 0
M  V30 1377 H 127.615 0.717103 1.45152 0
M  V30 1378 H 129.607 -1.21581 3.86005 0
M  V30 1379 H 128.177 -1.37133 2.80915 0
M  V30 1380 H 127.397 0.890486 3.8401 0
M  V30 1381 H 128.685 0.68915 5.04111 0
M  V30 1382 H 128.083 -2.49181 5.07863 0
M  V30 1383 H 126.64 -2.52103 6.01072 0
M  V30 1384 N 130.073 -1.45103 0.615059 0
M  V30 1385 C 131.298 -2.07064 0.117988 0
M  V30 1386 C 131.723 -1.4554 -1.19163 0
M  V30 1387 O 131.081 -0.550855 -1.72729 0
M  V30 1388 C 131.129 -3.606 -0.000288387 0
M  V30 1389 O 130.233 -3.98847 -1.04856 0
M  V30 1390 H 129.574 -0.659467 0.0774581 0
M  V30 1391 H 132.104 -1.86236 0.847186 0
M  V30 1392 H 132.114 -4.07529 -0.196091 0
M  V30 1393 H 130.789 -4.04765 0.955932 0
M  V30 1394 H 129.366 -3.63577 -0.828619 0
M  V30 1395 N 131.551 -0.354651 -1.53558 0
M  V30 1396 C 132.776 0.242153 -2.05981 0
M  V30 1397 C 133.201 1.42553 -1.2272 0
M  V30 1398 O 132.559 1.79656 -0.243604 0
M  V30 1399 C 132.607 0.624367 -3.55154 0
M  V30 1400 O 131.711 1.72301 -3.74681 0
M  V30 1401 H 131.052 0.0378432 -0.662921 0
M  V30 1402 H 133.582 -0.512087 -1.98088 0
M  V30 1403 H 133.592 0.898433 -3.97985 0
M  V30 1404 H 132.267 -0.240989 -4.15201 0
M  V30 1405 H 130.844 1.44535 -3.4375 0
M  V30 1406 N 133.029 1.57378 -0.0835403 0
M  V30 1407 C 134.269 1.95808 0.586381 0
M  V30 1408 C 134.633 0.963706 1.66062 0
M  V30 1409 O 135.834 1.23608 2.38693 0
M  V30 1410 C 134.105 3.38808 1.13771 0
M  V30 1411 S 135.664 3.99225 1.82112 0
M  V30 1412 H 132.482 0.684675 0.191679 0
M  V30 1413 H 135.084 1.94843 -0.160194 0
M  V30 1414 H 133.788 4.08954 0.344197 0
M  V30 1415 H 133.319 3.43344 1.92038 0
M  V30 1416 H 135.334 3.87087 3.10449 0
M  V30 1417 N 134.507 -0.190092 1.56449 0
M  V30 1418 C 135.737 -0.92443 1.84764 0
M  V30 1419 C 136.145 -1.77146 0.664529 0
M  V30 1420 O 135.488 -1.79812 -0.375957 0
M  V30 1421 C 135.55 -1.86651 3.07248 0
M  V30 1422 C 135.214 -1.20094 4.40938 0
M  V30 1423 C 136.211 -0.575445 5.16706 0
M  V30 1424 C 133.896 -1.2033 4.87674 0
M  V30 1425 C 135.89 0.0388111 6.37388 0
M  V30 1426 C 133.577 -0.585214 6.08291 0
M  V30 1427 C 134.575 0.0347578 6.82991 0
M  V30 1428 O 134.263 0.643147 8.01323 0
M  V30 1429 H 133.995 -0.274974 0.617548 0
M  V30 1430 H 136.549 -0.200788 2.04416 0
M  V30 1431 H 134.779 -2.62998 2.83494 0
M  V30 1432 H 136.468 -2.46907 3.22167 0
M  V30 1433 H 137.234 -0.565728 4.81689 0
M  V30 1434 H 133.113 -1.67526 4.29484 0
M  V30 1435 H 136.657 0.523329 6.95634 0
M  V30 1436 H 132.554 -0.592451 6.42775 0
M  V30 1437 H 133.322 0.540545 8.16713 0
M  V30 1438 N 135.985 -1.50799 -0.457987 0
M  V30 1439 C 137.232 -1.62442 -1.20908 0
M  V30 1440 C 137.56 -0.330865 -1.91665 0
M  V30 1441 O 136.815 0.68401 -1.83357 0
M  V30 1442 C 137.114 -2.76358 -2.2663 0
M  V30 1443 C 136.78 -4.16378 -1.73033 0
M  V30 1444 C 135.442 -4.54473 -1.58138 0
M  V30 1445 C 137.794 -5.03836 -1.33413 0
M  V30 1446 C 135.122 -5.77754 -1.02065 0
M  V30 1447 C 137.474 -6.27676 -0.78778 0
M  V30 1448 C 136.138 -6.64562 -0.625561 0
M  V30 1449 H 135.408 -0.594417 -0.442435 0
M  V30 1450 H 138.055 -1.84772 -0.503136 0
M  V30 1451 H 136.36 -2.48167 -3.03184 0
M  V30 1452 H 138.057 -2.82568 -2.84528 0
M  V30 1453 H 134.647 -3.86331 -1.85598 0
M  V30 1454 H 138.831 -4.75026 -1.4375 0
M  V30 1455 H 134.087 -6.04997 -0.882547 0
M  V30 1456 H 138.261 -6.94797 -0.472177 0
M  V30 1457 H 135.888 -7.59965 -0.188926 0
M  V30 1458 N 137.463 0.71206 -1.40597 0
M  V30 1459 C 138.71 1.47197 -1.39065 0
M  V30 1460 C 139.038 1.94499 0.00583891 0
M  V30 1461 O 138.293 1.68752 0.99102 0
M  V30 1462 C 138.592 2.71039 -2.32965 0
M  V30 1463 C 138.258 2.42484 -3.80148 0
M  V30 1464 C 136.92 2.34406 -4.20247 0
M  V30 1465 C 139.272 2.18598 -4.73143 0
M  V30 1466 C 136.6 2.00516 -5.51371 0
M  V30 1467 C 138.952 1.8622 -6.0457 0
M  V30 1468 C 137.616 1.76626 -6.43708 0
M  V30 1469 H 136.886 0.538634 -0.508876 0
M  V30 1470 H 139.533 0.815325 -1.73276 0
M  V30 1471 H 137.838 3.41558 -1.91951 0
M  V30 1472 H 139.535 3.29138 -2.29061 0
M  V30 1473 H 136.125 2.49659 -3.4838 0
M  V30 1474 H 140.309 2.23793 -4.42979 0
M  V30 1475 H 135.565 1.91628 -5.80593 0
M  V30 1476 H 139.739 1.66752 -6.76141 0
M  V30 1477 H 137.366 1.50133 -7.45228 0
M  V30 1478 N 138.941 1.26152 0.944643 0
M  V30 1479 C 140.166 1.14363 1.7302 0
M  V30 1480 C 140.591 -0.29772 1.85729 0
M  V30 1481 O 139.949 -1.2157 1.34501 0
M  V30 1482 C 139.997 1.81378 3.11664 0
M  V30 1483 O 139.101 1.10022 3.97453 0
M  V30 1484 H 138.442 0.398694 0.53098 0
M  V30 1485 H 140.972 1.66906 1.18337 0
M  V30 1486 H 140.982 1.88064 3.62072 0
M  V30 1487 H 139.657 2.86237 3.0173 0
M  V30 1488 H 138.234 1.11287 3.55907 0
M  V30 1489 N 140.419 -1.14872 1.07899 0
M  V30 1490 C 141.647 -1.89661 0.82683 0
M  V30 1491 C 142.062 -1.78312 -0.620519 0
M  V30 1492 O 141.419 -1.13888 -1.42604 0
M  V30 1493 C 141.47 -3.39817 1.23316 0
M  V30 1494 O 141.191 -3.50845 2.62372 0
M  V30 1495 C 142.692 -4.31615 1.0111 0
M  V30 1496 H 139.912 -0.60092 0.298557 0
M  V30 1497 H 142.456 -1.4551 1.43691 0
M  V30 1498 H 140.611 -3.8161 0.667286 0
M  V30 1499 H 141.025 -4.44076 2.79101 0
M  V30 1500 H 142.499 -5.35367 1.34486 0
M  V30 1501 H 142.976 -4.39169 -0.0522168 0
M  V30 1502 H 143.582 -3.95572 1.56215 0
M  V30 1503 N 141.898 -0.863906 -1.31812 0
M  V30 1504 C 143.175 -0.39275 -1.91616 0
M  V30 1505 C 143.555 1.12461 -1.7865 0
M  V30 1506 O 142.903 1.95045 -1.19037 0
M  V30 1507 C 143.113 -0.867385 -3.38049 0
M  V30 1508 C 144.461 -0.889966 -4.15168 0
M  V30 1509 O 145.485 -0.812635 -3.46806 0
M  V30 1510 O 144.344 -1.00079 -5.37258 0
M  V30 1511 H 141.438 -0.116358 -0.818773 0
M  V30 1512 H 143.984 -0.951418 -1.40521 0
M  V30 1513 H 142.756 -1.91081 -3.41473 0
M  V30 1514 H 142.379 -0.286687 -3.96565 0
M  V30 1515 N 143.376 1.44774 -0.622745 0
M  V30 1516 C 144.604 2.06487 -0.130722 0
M  V30 1517 C 145.019 1.46476 1.19123 0
M  V30 1518 O 144.376 0.584502 1.72887 0
M  V30 1519 C 144.427 3.615 -0.000807207 0
M  V30 1520 O 144.148 4.19274 -1.27048 0
M  V30 1521 C 145.649 4.40229 0.520898 0
M  V30 1522 H 142.869 0.666704 -0.0758106 0
M  V30 1523 H 145.413 1.85779 -0.854774 0
M  V30 1524 H 143.568 3.81498 0.673643 0
M  V30 1525 H 143.982 5.12622 -1.1099 0
M  V30 1526 H 145.456 5.49144 0.560838 0
M  V30 1527 H 145.933 4.1108 1.54627 0
M  V30 1528 H 146.539 4.25131 -0.120018 0
M  V30 1529 N 144.854 0.36279 1.53368 0
M  V30 1530 C 146.103 -0.22888 2.00397 0
M  V30 1531 C 146.416 -1.50096 1.25421 0
M  V30 1532 O 147.622 -2.17106 1.63025 0
M  V30 1533 C 146.078 -0.458417 3.56969 0
M  V30 1534 C 145.686 0.798877 4.4082 0
M  V30 1535 C 147.43 -1.00789 4.12361 0
M  V30 1536 C 145.337 0.539078 5.88938 0
M  V30 1537 H 144.267 -0.089305 0.748693 0
M  V30 1538 H 146.918 0.481099 1.77081 0
M  V30 1539 H 145.3 -1.22959 3.76427 0
M  V30 1540 H 146.474 1.57262 4.33134 0
M  V30 1541 H 144.789 1.27137 3.96516 0
M  V30 1542 H 147.386 -1.21754 5.20653 0
M  V30 1543 H 147.729 -1.9692 3.66781 0
M  V30 1544 H 148.262 -0.296961 3.9669 0
M  V30 1545 H 145.001 1.47064 6.3879 0
M  V30 1546 H 144.521 -0.196222 5.99479 0
M  V30 1547 H 146.2 0.163542 6.46793 0
M  V30 1548 N 146.332 -1.57332 0.0918853 0
M  V30 1549 C 147.557 -1.98995 -0.584442 0
M  V30 1550 C 147.982 -0.970528 -1.61128 0
M  V30 1551 O 147.34 0.0613904 -1.81196 0
M  V30 1552 C 147.388 -3.39636 -1.21161 0
M  V30 1553 O 146.492 -3.40447 -2.32744 0
M  V30 1554 H 145.833 -0.647165 -0.148572 0
M  V30 1555 H 148.363 -2.03873 0.172347 0
M  V30 1556 H 148.373 -3.7726 -1.55367 0
M  V30 1557 H 147.048 -4.13356 -0.459313 0
M  V30 1558 H 145.625 -3.14614 -2.0018 0
M  V30 1559 N 147.81 0.181792 -1.56548 0
M  V30 1560 C 149.056 0.896803 -1.82562 0
M  V30 1561 C 149.411 1.80324 -0.670908 0
M  V30 1562 O 148.704 1.8868 0.333235 0
M  V30 1563 C 148.898 1.73728 -3.12335 0
M  V30 1564 C 148.727 0.913714 -4.4032 0
M  V30 1565 C 147.497 0.592903 -5.01809 0
M  V30 1566 C 149.695 0.260164 -5.13642 0
M  V30 1567 N 147.677 -0.247901 -6.13399 0
M  V30 1568 C 149.048 -0.442256 -6.18421 0
M  V30 1569 C 151.103 0.177253 -4.97584 0
M  V30 1570 C 149.806 -1.21971 -7.08883 0
M  V30 1571 C 151.832 -0.586839 -5.88481 0
M  V30 1572 C 151.194 -1.27766 -6.92716 0
M  V30 1573 H 147.293 0.307122 -0.719166 0
M  V30 1574 H 149.877 0.164535 -1.94004 0
M  V30 1575 H 148.048 2.44105 -3.02105 0
M  V30 1576 H 149.78 2.39279 -3.26386 0
M  V30 1577 H 146.535 0.920502 -4.64568 0
M  V30 1578 H 146.959 -0.658304 -6.73792 0
M  V30 1579 H 151.601 0.696993 -4.17015 0
M  V30 1580 H 149.319 -1.75083 -7.88905 0
M  V30 1581 H 152.905 -0.652522 -5.78129 0
M  V30 1582 H 151.785 -1.85943 -7.61836 0
M  V30 1583 N 149.288 1.51039 0.449983 0
M  V30 1584 C 150.251 1.70863 1.5277 0
M  V30 1585 C 151.251 0.578846 1.5002 0
M  V30 1586 O 152.441 0.846213 1.52266 0
M  V30 1587 C 149.573 1.75341 2.9235 0
M  V30 1588 H 150.766 2.67034 1.36502 0
M  V30 1589 H 148.319 1.40838 0.677812 0
M  V30 1590 H 149.054 0.809383 3.14037 0
M  V30 1591 H 148.839 2.57436 2.95752 0
M  V30 1592 H 150.329 1.92559 3.70555 0
M  V30 1593 N 150.766 -0.704594 1.40972 0
M  V30 1594 C 151.696 -1.83124 1.44872 0
M  V30 1595 C 152.677 -1.67281 0.30838 0
M  V30 1596 O 153.862 -1.87149 0.518556 0
M  V30 1597 C 150.992 -3.21181 1.32136 0
M  V30 1598 C 149.946 -3.51714 2.43888 0
M  V30 1599 C 149.272 -4.89032 2.16222 0
M  V30 1600 C 150.572 -3.516 3.86232 0
M  V30 1601 H 152.266 -1.80117 2.39161 0
M  V30 1602 H 149.812 -0.865145 1.15114 0
M  V30 1603 H 151.765 -3.99702 1.33479 0
M  V30 1604 H 150.489 -3.24791 0.343279 0
M  V30 1605 H 149.148 -2.75539 2.41813 0
M  V30 1606 H 148.796 -4.89256 1.16778 0
M  V30 1607 H 148.496 -5.10426 2.911 0
M  V30 1608 H 150.02 -5.69873 2.19265 0
M  V30 1609 H 151.434 -4.2014 3.9007 0
M  V30 1610 H 149.831 -3.84523 4.60719 0
M  V30 1611 H 150.901 -2.50757 4.15029 0
M  V30 1612 N 152.244 -1.26651 -0.937939 0
M  V30 1613 C 153.469 -1.15279 -1.72411 0
M  V30 1614 C 153.894 0.287866 -1.85884 0
M  V30 1615 O 153.252 1.20855 -1.35143 0
M  V30 1616 C 153.3 -1.83028 -3.10698 0
M  V30 1617 O 152.404 -1.12128 -3.96864 0
M  V30 1618 H 151.745 -0.401504 -0.528858 0
M  V30 1619 H 154.275 -1.67531 -1.1745 0
M  V30 1620 H 154.285 -1.89981 -3.6107 0
M  V30 1621 H 152.96 -2.87833 -3.00208 0
M  V30 1622 H 151.537 -1.13173 -3.55312 0
M  V30 1623 N 153.722 1.14298 -1.08507 0
M  V30 1624 C 154.652 2.21542 -0.737646 0
M  V30 1625 C 155.633 1.67773 0.280377 0
M  V30 1626 O 156.818 1.93616 0.150521 0
M  V30 1627 C 153.948 3.46988 -0.147259 0
M  V30 1628 C 152.902 4.13789 -1.09374 0
M  V30 1629 C 152.228 5.33449 -0.365524 0
M  V30 1630 C 153.528 4.62208 -2.4323 0
M  V30 1631 H 155.222 2.5086 -1.6343 0
M  V30 1632 H 152.768 1.20576 -0.787243 0
M  V30 1633 H 154.721 4.21262 0.107808 0
M  V30 1634 H 153.445 3.17037 0.784538 0
M  V30 1635 H 152.104 3.4147 -1.33393 0
M  V30 1636 H 151.752 4.99759 0.57011 0
M  V30 1637 H 151.452 5.79088 -0.996512 0
M  V30 1638 H 152.976 6.10485 -0.118534 0
M  V30 1639 H 154.39 5.27952 -2.23472 0
M  V30 1640 H 152.787 5.18553 -3.02031 0
M  V30 1641 H 153.857 3.77224 -3.04681 0
M  V30 1642 N 155.201 0.870884 1.31352 0
M  V30 1643 C 156.148 0.325425 2.28494 0
M  V30 1644 C 157.118 -0.576615 1.5577 0
M  V30 1645 O 158.303 -0.508059 1.83911 0
M  V30 1646 C 155.443 -0.466283 3.41935 0
M  V30 1647 C 154.556 0.463378 4.29508 0
M  V30 1648 C 153.691 -0.342544 5.30094 0
M  V30 1649 C 152.73 0.583486 6.09313 0
M  V30 1650 N 151.867 -0.186244 7.01853 0
M  V30 1651 H 156.707 1.15901 2.74538 0
M  V30 1652 H 154.244 0.58294 1.35056 0
M  V30 1653 H 156.202 -0.941085 4.06447 0
M  V30 1654 H 154.832 -1.26456 2.97 0
M  V30 1655 H 153.884 1.05663 3.65431 0
M  V30 1656 H 155.196 1.1734 4.84802 0
M  V30 1657 H 154.35 -0.879816 6.00287 0
M  V30 1658 H 153.089 -1.08585 4.75458 0
M  V30 1659 H 152.094 1.13251 5.3801 0
M  V30 1660 H 153.319 1.32566 6.66035 0
M  V30 1661 H 151.265 -0.912348 6.49625 0
M  V30 1662 H 151.182 0.464422 7.54572 0
M  V30 1663 H 152.45 -0.704716 7.76308 0
M  V30 1664 N 156.679 -1.44442 0.630414 0
M  V30 1665 C 157.627 -2.32437 -0.0871428 0
M  V30 1666 C 158.621 -1.47304 -0.836525 0
M  V30 1667 O 159.827 -1.63653 -0.749506 0
M  V30 1668 H 156.202 -0.750533 -0.0469495 0
M  V30 1669 H 158.173 -2.90709 0.673096 0
M  V30 1670 C 156.922 -3.31288 -1.05563 0
M  V30 1671 H 156.245 -3.96805 -0.488426 0
M  V30 1672 H 157.685 -3.9554 -1.52721 0
M  V30 1673 C 156.144 -2.6016 -2.14052 0
M  V30 1674 O 156.674 -2.39997 -3.22124 0
M  V30 1675 N 154.88 -2.19911 -1.89967 0
M  V30 1676 H 154.427 -2.36509 -1.02085 0
M  V30 1677 H 154.385 -1.72646 -2.62756 0
M  V30 1678 N 158.157 -0.370918 -1.53173 0
M  V30 1679 C 159.397 0.217106 -2.03244 0
M  V30 1680 C 159.761 1.45558 -1.25207 0
M  V30 1681 O 160.962 2.11957 -1.65311 0
M  V30 1682 C 159.233 0.496664 -3.53932 0
M  V30 1683 S 160.792 1.0576 -4.25864 0
M  V30 1684 H 157.61 0.0627827 -0.708223 0
M  V30 1685 H 160.212 -0.515019 -1.88594 0
M  V30 1686 H 158.916 -0.412096 -4.08326 0
M  V30 1687 H 158.447 1.25772 -3.72753 0
M  V30 1688 H 160.462 2.34145 -4.37482 0
M  V30 1689 N 159.635 1.57281 -0.100228 0
M  V30 1690 C 160.86 1.99302 0.573881 0
M  V30 1691 C 161.285 0.979059 1.60611 0
M  V30 1692 O 160.643 -0.0517803 1.81226 0
M  V30 1693 C 160.691 3.40274 1.19358 0
M  V30 1694 O 159.795 3.41676 2.30935 0
M  V30 1695 H 159.136 0.647944 0.145138 0
M  V30 1696 H 161.666 2.03779 -0.183156 0
M  V30 1697 H 161.676 3.78078 1.53365 0
M  V30 1698 H 160.351 4.13594 0.437385 0
M  V30 1699 H 158.928 3.15672 1.98509 0
M  V30 1700 N 161.113 -0.173488 1.56642 0
M  V30 1701 C 162.076 -1.19859 1.95362 0
M  V30 1702 C 163.076 -1.37296 0.83704 0
M  V30 1703 O 164.266 -1.34739 1.10413 0
M  V30 1704 C 161.398 -2.56405 2.24654 0
M  V30 1705 H 162.591 -0.867062 2.87092 0
M  V30 1706 H 160.144 -0.415853 1.50666 0
M  V30 1707 H 160.879 -2.94576 1.35631 0
M  V30 1708 H 160.664 -2.45115 3.06041 0
M  V30 1709 H 162.154 -3.30287 2.5554 0
M  V30 1710 N 162.591 -1.51276 -0.441967 0
M  V30 1711 C 163.524 -1.66933 -1.55591 0
M  V30 1712 C 164.502 -0.516958 -1.54163 0
M  V30 1713 O 165.686 -0.740209 -1.73358 0
M  V30 1714 C 162.813 -1.67866 -2.94174 0
M  V30 1715 C 161.859 -2.89013 -3.13646 0
M  V30 1716 S 162.692 -4.49897 -2.90436 0
M  V30 1717 C 163.848 -4.53568 -4.31308 0
M  V30 1718 H 164.081 -2.61155 -1.42076 0
M  V30 1719 H 161.614 -1.40902 -0.631341 0
M  V30 1720 H 163.572 -1.69089 -3.74058 0
M  V30 1721 H 162.233 -0.748296 -3.05056 0
M  V30 1722 H 161.426 -2.86054 -4.14957 0
M  V30 1723 H 161.028 -2.85509 -2.4158 0
M  V30 1724 H 163.32 -4.28924 -5.24434 0
M  V30 1725 H 164.263 -5.55355 -4.39303 0
M  V30 1726 H 164.671 -3.82943 -4.14747 0
M  V30 1727 N 164.069 0.697108 -1.41344 0
M  V30 1728 C 165.317 1.45426 -1.40341 0
M  V30 1729 C 165.638 1.94996 -0.0128787 0
M  V30 1730 O 164.908 1.71599 0.945027 0
M  V30 1731 H 163.488 0.539594 -0.516573 0
M  V30 1732 H 166.15 0.825201 -1.76569 0
M  V30 1733 H 165.246 2.31817 -2.08967 0
M  V30 1734 N 165.547 1.27147 0.931209 0
M  V30 1735 C 166.51 1.09615 2.01289 0
M  V30 1736 C 167.51 0.0412581 1.60747 0
M  V30 1737 O 168.7 0.285545 1.71844 0
M  V30 1738 C 165.832 0.669447 3.34262 0
M  V30 1739 H 167.025 2.05662 2.18273 0
M  V30 1740 H 164.578 1.09885 1.11153 0
M  V30 1741 H 165.313 -0.292572 3.22978 0
M  V30 1742 H 165.098 1.43127 3.65044 0
M  V30 1743 H 166.588 0.568921 4.13706 0
M  V30 1744 N 167.025 -1.13721 1.09112 0
M  V30 1745 C 167.975 -2.17082 0.697091 0
M  V30 1746 C 168.959 -1.58321 -0.286923 0
M  V30 1747 O 170.151 -1.7673 -0.0978008 0
M  V30 1748 C 167.28 -3.43105 0.115729 0
M  V30 1749 C 166.366 -4.0888 1.12596 0
M  V30 1750 N 166.757 -4.4987 2.31195 0
M  V30 1751 C 165.055 -4.35471 0.963366 0
M  V30 1752 C 165.756 -5.01094 2.95431 0
M  V30 1753 N 164.732 -4.95751 2.23006 0
M  V30 1754 H 168.534 -2.46524 1.6001 0
M  V30 1755 H 166.048 -1.30481 0.966869 0
M  V30 1756 H 168.045 -4.16491 -0.184555 0
M  V30 1757 H 166.705 -3.15138 -0.78217 0
M  V30 1758 H 167.716 -4.42678 2.68806 0
M  V30 1759 H 164.393 -4.17328 0.119878 0
M  V30 1760 H 165.783 -5.4263 3.96236 0
M  V30 1761 N 168.503 -0.877838 -1.30888 0
M  V30 1762 C 169.433 -0.35534 -2.3078 0
M  V30 1763 C 170.414 0.557994 -1.60687 0
M  V30 1764 O 171.599 0.473355 -1.88343 0
M  V30 1765 C 168.729 0.437221 -3.44537 0
M  V30 1766 C 167.683 -0.383715 -4.26276 0
M  V30 1767 C 167.009 0.535014 -5.32017 0
M  V30 1768 C 168.309 -1.62201 -4.96476 0
M  V30 1769 H 170.003 -1.19007 -2.74732 0
M  V30 1770 H 167.549 -0.573698 -1.32078 0
M  V30 1771 H 169.502 0.813334 -4.13477 0
M  V30 1772 H 168.226 1.30553 -2.99372 0
M  V30 1773 H 166.885 -0.741874 -3.59015 0
M  V30 1774 H 166.533 1.40083 -4.831 0
M  V30 1775 H 166.233 -0.0104211 -5.87599 0
M  V30 1776 H 167.757 0.907799 -6.03814 0
M  V30 1777 H 169.171 -1.31689 -5.5797 0
M  V30 1778 H 167.568 -2.10711 -5.61891 0
M  V30 1779 H 168.638 -2.37044 -4.23011 0
M  V30 1780 N 169.982 1.44106 -0.638065 0
M  V30 1781 C 171.228 2.02277 -0.145546 0
M  V30 1782 C 171.561 1.50125 1.23191 0
M  V30 1783 O 170.836 0.688133 1.8192 0
M  V30 1784 C 171.119 3.59829 -0.139791 0
M  V30 1785 C 170.972 4.22247 -1.55008 0
M  V30 1786 C 172.291 4.36873 0.531966 0
M  V30 1787 H 169.41 0.734992 -0.0543632 0
M  V30 1788 H 172.052 1.71592 -0.815863 0
M  V30 1789 H 170.202 3.86102 0.431007 0
M  V30 1790 H 171.874 4.07057 -2.1703 0
M  V30 1791 H 170.117 3.79476 -2.10191 0
M  V30 1792 H 170.788 5.31284 -1.49804 0
M  V30 1793 H 173.264 4.16074 0.0464781 0
M  V30 1794 H 172.14 5.4657 0.505206 0
M  V30 1795 H 172.401 4.11995 1.60352 0
M  V30 1796 N 171.46 0.379036 1.52974 0
M  V30 1797 C 172.706 -0.206727 2.01744 0
M  V30 1798 C 173.039 -1.47314 1.26539 0
M  V30 1799 O 172.314 -1.91084 0.362903 0
M  V30 1800 C 172.597 -0.485066 3.56818 0
M  V30 1801 C 172.45 0.795919 4.42702 0
M  V30 1802 C 173.769 -1.28003 4.21074 0
M  V30 1803 H 170.888 -0.0736607 0.73331 0
M  V30 1804 H 173.53 0.506581 1.83122 0
M  V30 1805 H 171.68 -1.09272 3.72816 0
M  V30 1806 H 173.352 1.43307 4.38476 0
M  V30 1807 H 171.595 1.41344 4.10127 0
M  V30 1808 H 172.266 0.555947 5.49193 0
M  V30 1809 H 174.742 -0.765867 4.08991 0
M  V30 1810 H 173.618 -1.44352 5.29579 0
M  V30 1811 H 173.879 -2.29236 3.78026 0
M  V30 1812 N 172.938 -1.57226 0.108567 0
M  V30 1813 C 174.187 -1.94008 -0.551703 0
M  V30 1814 C 174.5 -0.993442 -1.68494 0
M  V30 1815 O 175.706 -1.25551 -2.40726 0
M  V30 1816 C 174.162 -3.44763 -1.03279 0
M  V30 1817 C 173.77 -4.47943 0.0714193 0
M  V30 1818 C 175.514 -3.90483 -1.66503 0
M  V30 1819 C 173.421 -5.89865 -0.425779 0
M  V30 1820 H 172.351 -0.724206 -0.209863 0
M  V30 1821 H 175.002 -1.82547 0.186741 0
M  V30 1822 H 173.384 -3.51422 -1.82533 0
M  V30 1823 H 174.558 -4.52942 0.847365 0
M  V30 1824 H 172.873 -4.11913 0.609669 0
M  V30 1825 H 175.47 -4.93925 -2.04798 0
M  V30 1826 H 175.813 -3.29877 -2.53942 0
M  V30 1827 H 176.346 -3.86581 -0.938074 0
M  V30 1828 H 173.085 -6.54202 0.412316 0
M  V30 1829 H 172.605 -5.88309 -1.16843 0
M  V30 1830 H 174.284 -6.40844 -0.890397 0
M  V30 1831 N 174.416 0.165178 -1.56732 0
M  V30 1832 C 175.364 1.22369 -1.97809 0
M  V30 1833 C 176.358 1.45488 -0.867741 0
M  V30 1834 O 177.564 1.45995 -1.05288 0
M  V30 1835 H 173.939 0.411486 -0.629431 0
M  V30 1836 H 175.91 0.850425 -2.86025 0
M  V30 1837 C 174.659 2.55403 -2.35934 0
M  V30 1838 H 173.982 2.38438 -3.20916 0
M  V30 1839 H 175.422 3.2814 -2.68514 0
M  V30 1840 C 173.881 3.14611 -1.20506 0
M  V30 1841 O 174.411 3.98626 -0.496016 0
M  V30 1842 N 172.617 2.7379 -0.97403 0
M  V30 1843 H 172.164 2.0557 -1.55238 0
M  V30 1844 H 172.122 3.1374 -0.203573 0
M  V30 1845 N 175.894 1.51508 0.433938 0
M  V30 1846 C 177.119 1.68443 1.21003 0
M  V30 1847 C 177.544 0.382636 1.84167 0
M  V30 1848 O 176.902 -0.65755 1.68956 0
M  V30 1849 C 176.95 2.80405 2.26727 0
M  V30 1850 O 176.054 2.44245 3.32292 0
M  V30 1851 H 175.395 0.561536 0.354363 0
M  V30 1852 H 177.925 1.9809 0.512024 0
M  V30 1853 H 177.935 3.0459 2.71457 0
M  V30 1854 H 176.61 3.74867 1.80132 0
M  V30 1855 H 175.187 2.30644 2.93015 0
M  V30 1856 N 177.372 -0.689602 1.41712 0
M  V30 1857 C 178.304 -1.815 1.39966 0
M  V30 1858 C 179.317 -1.59995 0.300917 0
M  V30 1859 O 180.506 -1.69387 0.563039 0
M  V30 1860 C 177.606 -3.18364 1.16179 0
M  V30 1861 C 176.779 -3.66847 2.38206 0
M  V30 1862 C 175.838 -4.82398 2.10186 0
M  V30 1863 O 174.864 -4.93706 2.83272 0
M  V30 1864 N 176.066 -5.70064 1.0958 0
M  V30 1865 H 178.831 -1.83488 2.36965 0
M  V30 1866 H 176.392 -0.872149 1.36401 0
M  V30 1867 H 178.384 -3.93301 0.953756 0
M  V30 1868 H 176.954 -3.11365 0.27756 0
M  V30 1869 H 176.174 -2.82751 2.74673 0
M  V30 1870 H 177.462 -3.95978 3.19498 0
M  V30 1871 H 176.86 -5.63565 0.491019 0
M  V30 1872 H 175.417 -6.44874 0.947656 0
M  V30 1873 N 178.85 -1.27639 -0.924453 0
M  V30 1874 C 179.76 -1.12466 -2.05885 0
M  V30 1875 C 180.776 -0.053869 -1.73917 0
M  V30 1876 O 181.952 -0.261012 -1.99702 0
M  V30 1877 C 179.017 -0.776768 -3.37886 0
M  V30 1878 C 178.078 -1.92878 -3.83532 0
M  V30 1879 C 177.311 -1.59739 -5.09234 0
M  V30 1880 O 177.534 -0.506782 -5.68144 0
M  V30 1881 O 176.468 -2.43761 -5.50331 0
M  V30 1882 H 180.294 -2.07671 -2.21599 0
M  V30 1883 H 177.879 -1.06857 -1.04413 0
M  V30 1884 H 179.761 -0.596229 -4.17161 0
M  V30 1885 H 178.436 0.145732 -3.23372 0
M  V30 1886 H 177.343 -2.1644 -3.0513 0
M  V30 1887 H 178.676 -2.8316 -4.02593 0
M  V30 1888 N 180.328 1.1314 -1.09713 0
M  V30 1889 C 181.238 2.22242 -0.751367 0
M  V30 1890 C 182.254 1.72224 0.247938 0
M  V30 1891 O 183.43 2.01205 0.0885463 0
M  V30 1892 C 180.495 3.46231 -0.180274 0
M  V30 1893 C 179.556 4.11125 -1.2359 0
M  V30 1894 C 178.789 5.29195 -0.691966 0
M  V30 1895 O 179.012 5.68342 0.48414 0
M  V30 1896 O 177.946 5.84214 -1.44838 0
M  V30 1897 H 181.772 2.54197 -1.66186 0
M  V30 1898 H 179.357 1.21331 -0.871735 0
M  V30 1899 H 181.239 4.21185 0.134739 0
M  V30 1900 H 179.914 3.1597 0.703185 0
M  V30 1901 H 178.821 3.37985 -1.60366 0
M  V30 1902 H 180.154 4.45524 -2.09211 0
M  V30 1903 N 181.806 0.884767 1.30421 0
M  V30 1904 C 182.738 0.308655 2.27112 0
M  V30 1905 C 183.751 -0.536655 1.53701 0
M  V30 1906 O 184.94 -0.35624 1.74909 0
M  V30 1907 C 182.04 -0.579782 3.33904 0
M  V30 1908 C 181.213 0.236417 4.36761 0
M  V30 1909 C 180.272 -0.582482 5.22966 0
M  V30 1910 O 179.298 -0.00525502 5.692 0
M  V30 1911 N 180.5 -1.89163 5.48815 0
M  V30 1912 H 183.265 1.13964 2.77186 0
M  V30 1913 H 180.826 0.747731 1.43599 0
M  V30 1914 H 182.818 -1.13366 3.88497 0
M  V30 1915 H 181.388 -1.31144 2.83761 0
M  V30 1916 H 180.608 0.97174 3.82035 0
M  V30 1917 H 181.896 0.795924 5.02536 0
M  V30 1918 H 181.294 -2.38352 5.13035 0
M  V30 1919 H 179.851 -2.39296 6.06284 0
M  V30 1920 N 183.284 -1.43765 0.645699 0
M  V30 1921 C 184.194 -2.34544 -0.0512957 0
M  V30 1922 C 185.21 -1.53455 -0.82022 0
M  V30 1923 O 186.386 -1.86133 -0.769176 0
M  V30 1924 C 183.451 -3.31636 -1.01087 0
M  V30 1925 C 182.512 -4.2863 -0.239712 0
M  V30 1926 C 181.745 -5.21084 -1.15358 0
M  V30 1927 O 181.968 -5.1779 -2.39269 0
M  V30 1928 O 180.902 -5.98593 -0.630038 0
M  V30 1929 H 184.728 -2.95624 0.695718 0
M  V30 1930 H 182.313 -1.43781 0.405882 0
M  V30 1931 H 184.195 -3.9136 -1.56254 0
M  V30 1932 H 182.87 -2.73069 -1.73824 0
M  V30 1933 H 181.777 -3.72408 0.355356 0
M  V30 1934 H 183.11 -4.90157 0.447936 0
M  V30 1935 N 184.763 -0.387143 -1.52771 0
M  V30 1936 C 186.01 0.195735 -2.01552 0
M  V30 1937 C 186.338 1.46995 -1.27369 0
M  V30 1938 O 185.593 1.92325 -0.361879 0
M  V30 1939 C 185.892 0.512209 -3.53711 0
M  V30 1940 C 185.558 -0.670202 -4.45891 0
M  V30 1941 C 184.22 -0.994586 -4.70809 0
M  V30 1942 C 186.572 -1.46134 -5.00294 0
M  V30 1943 C 183.9 -2.11169 -5.4738 0
M  V30 1944 C 186.252 -2.56903 -5.78086 0
M  V30 1945 C 184.916 -2.89852 -6.01284 0
M  V30 1946 H 184.186 0.0716246 -0.73753 0
M  V30 1947 H 186.833 -0.524046 -1.8419 0
M  V30 1948 H 185.138 1.31329 -3.69134 0
M  V30 1949 H 186.835 0.975804 -3.88946 0
M  V30 1950 H 183.425 -0.407366 -4.2666 0
M  V30 1951 H 187.609 -1.22397 -4.80971 0
M  V30 1952 H 182.865 -2.3707 -5.63567 0
M  V30 1953 H 187.039 -3.18608 -6.19243 0
M  V30 1954 H 184.666 -3.76533 -6.60399 0
M  V30 1955 N 186.241 1.57166 -0.116904 0
M  V30 1956 C 187.171 2.18222 0.830759 0
M  V30 1957 C 188.152 1.12167 1.27877 0
M  V30 1958 O 189.337 1.40394 1.34176 0
M  V30 1959 C 186.467 2.77996 2.08172 0
M  V30 1960 C 185.421 3.89614 1.77157 0
M  V30 1961 C 184.747 4.36187 3.09265 0
M  V30 1962 C 186.047 5.1181 1.04151 0
M  V30 1963 H 187.741 2.97664 0.321992 0
M  V30 1964 H 185.287 1.4318 0.153434 0
M  V30 1965 H 187.24 3.19366 2.74924 0
M  V30 1966 H 185.964 1.9584 2.6137 0
M  V30 1967 H 184.623 3.48816 1.12796 0
M  V30 1968 H 184.271 3.50893 3.60393 0
M  V30 1969 H 183.971 5.11455 2.89288 0
M  V30 1970 H 185.495 4.80207 3.77139 0
M  V30 1971 H 186.909 5.50214 1.61052 0
M  V30 1972 H 185.306 5.92648 0.942762 0
M  V30 1973 H 186.376 4.84892 0.0279022 0
M  V30 1974 N 187.719 -0.156864 1.56817 0
M  V30 1975 C 188.944 -0.890331 1.87318 0
M  V30 1976 C 189.369 -1.74394 0.704855 0
M  V30 1977 O 188.727 -1.77972 -0.345786 0
M  V30 1978 C 188.775 -1.73102 3.16336 0
M  V30 1979 O 187.879 -2.83422 2.99576 0
M  V30 1980 H 187.22 -0.24857 0.615718 0
M  V30 1981 H 189.75 -0.150649 2.04045 0
M  V30 1982 H 189.76 -2.12803 3.48107 0
M  V30 1983 H 188.435 -1.10412 4.00976 0
M  V30 1984 H 187.012 -2.47199 2.7919 0
M  V30 1985 N 189.197 -1.51736 -0.425897 0
M  V30 1986 C 190.427 -1.68549 -1.19476 0
M  V30 1987 C 190.835 -0.387288 -1.85194 0
M  V30 1988 O 190.178 0.645142 -1.71999 0
M  V30 1989 C 190.24 -2.75275 -2.31223 0
M  V30 1990 C 189.904 -4.17534 -1.8578 0
M  V30 1991 C 190.901 -5.01936 -1.35485 0
M  V30 1992 C 188.586 -4.6369 -1.93123 0
M  V30 1993 C 190.58 -6.30559 -0.931347 0
M  V30 1994 C 188.267 -5.92307 -1.50384 0
M  V30 1995 C 189.265 -6.75569 -1.00473 0
M  V30 1996 O 188.953 -8.0178 -0.583452 0
M  V30 1997 H 188.685 -0.568525 -0.365725 0
M  V30 1998 H 191.239 -1.98982 -0.509444 0
M  V30 1999 H 189.469 -2.40182 -3.03067 0
M  V30 2000 H 191.158 -2.80853 -2.93047 0
M  V30 2001 H 191.924 -4.67475 -1.29197 0
M  V30 2002 H 187.803 -3.98997 -2.30916 0
M  V30 2003 H 191.347 -6.95498 -0.541084 0
M  V30 2004 H 187.244 -6.2628 -1.56346 0
M  V30 2005 H 188.012 -8.1543 -0.708275 0
M  V30 2006 N 190.675 0.682077 -1.42076 0
M  V30 2007 C 191.622 1.79578 -1.44984 0
M  V30 2008 C 192.592 1.6332 -0.302614 0
M  V30 2009 O 193.777 1.83978 -0.505633 0
M  V30 2010 C 190.917 3.1756 -1.35091 0
M  V30 2011 C 190.03 3.45156 -2.59791 0
M  V30 2012 C 189.165 4.72826 -2.42093 0
M  V30 2013 C 188.204 4.93433 -3.62202 0
M  V30 2014 N 187.341 6.12338 -3.43491 0
M  V30 2015 H 192.181 1.76427 -2.40161 0
M  V30 2016 H 189.718 0.861376 -1.19242 0
M  V30 2017 H 191.676 3.97287 -1.27354 0
M  V30 2018 H 190.306 3.19854 -0.435133 0
M  V30 2019 H 189.358 2.59736 -2.77923 0
M  V30 2020 H 190.67 3.5628 -3.49094 0
M  V30 2021 H 189.824 5.60631 -2.319 0
M  V30 2022 H 188.563 4.63973 -1.50268 0
M  V30 2023 H 187.568 4.04073 -3.72834 0
M  V30 2024 H 188.793 5.04136 -4.54998 0
M  V30 2025 H 186.739 6.04672 -2.54377 0
M  V30 2026 H 186.656 6.2429 -4.26377 0
M  V30 2027 H 187.924 7.02841 -3.37097 0
M  V30 2028 N 192.153 1.28127 0.917671 0
M  V30 2029 C 193.1 1.11717 2.0196 0
M  V30 2030 C 194.07 0.0153929 1.66093 0
M  V30 2031 O 195.255 0.179596 1.89953 0
M  V30 2032 C 192.395 0.780927 3.36148 0
M  V30 2033 C 191.508 1.96135 3.84909 0
M  V30 2034 C 190.643 1.56609 5.0759 0
M  V30 2035 C 189.682 2.71339 5.48673 0
M  V30 2036 N 188.819 2.32332 6.62545 0
M  V30 2037 H 193.659 2.06003 2.15329 0
M  V30 2038 H 191.196 1.02535 1.05475 0
M  V30 2039 H 193.154 0.56675 4.13333 0
M  V30 2040 H 191.784 -0.124998 3.22558 0
M  V30 2041 H 190.836 2.28777 3.03916 0
M  V30 2042 H 192.148 2.82165 4.1132 0
M  V30 2043 H 191.302 1.31374 5.92305 0
M  V30 2044 H 190.041 0.677014 4.82978 0
M  V30 2045 H 189.046 2.97276 4.62501 0
M  V30 2046 H 190.271 3.60882 5.75274 0
M  V30 2047 H 188.217 1.45889 6.39572 0
M  V30 2048 H 188.134 3.11899 6.88662 0
M  V30 2049 H 189.402 2.10371 7.50576 0
M  V30 2050 N 193.631 -1.12557 1.10312 0
M  V30 2051 C 195.042 -1.65574 0.862678 0
M  V30 2052 C 195.393 -1.86566 -0.607256 0
M  V30 2053 O 194.518 -1.59121 -1.46662 0
M  V30 2054 C 195.113 -3.00776 1.55947 0
M  V30 2055 C 193.672 -3.50748 1.36576 0
M  V30 2056 C 192.819 -2.25797 1.60968 0
M  V30 2057 H 195.77 -0.963552 1.26101 0
M  V30 2058 H 195.791 -3.67185 0.997753 0
M  V30 2059 H 195.303 -2.85465 2.62928 0
M  V30 2060 H 193.404 -3.71245 0.317531 0
M  V30 2061 H 193.517 -4.30289 2.10686 0
M  V30 2062 H 191.881 -2.32841 1.03234 0
M  V30 2063 H 192.664 -2.13043 2.69198 0
M  V30 2064 N 195.109 -0.891671 -1.2995 0
M  V30 2065 C 196.056 -0.361736 -2.27948 0
M  V30 2066 C 197.026 0.551761 -1.56668 0
M  V30 2067 O 198.211 0.478736 -1.84696 0
M  V30 2068 C 195.351 0.411825 -3.42634 0
M  V30 2069 C 194.464 -0.531651 -4.28716 0
M  V30 2070 C 193.599 0.258167 -5.30572 0
M  V30 2071 C 192.638 -0.680349 -6.08307 0
M  V30 2072 N 191.775 0.0745613 -7.0206 0
M  V30 2073 H 196.615 -1.20254 -2.72659 0
M  V30 2074 H 194.152 -0.604352 -1.34112 0
M  V30 2075 H 196.11 0.876304 -4.07893 0
M  V30 2076 H 194.74 1.21715 -2.98974 0
M  V30 2077 H 193.792 -1.11463 -3.63703 0
M  V30 2078 H 195.104 -1.25038 -4.82874 0
M  V30 2079 H 194.258 0.784204 -6.0161 0
M  V30 2080 H 192.997 1.01008 -4.77126 0
M  V30 2081 H 192.002 -1.21796 -5.3614 0
M  V30 2082 H 193.227 -1.43145 -6.63842 0
M  V30 2083 H 191.173 0.808883 -6.50994 0
M  V30 2084 H 191.09 -0.584409 -7.53738 0
M  V30 2085 H 192.358 0.581123 -7.77331 0
M  V30 2086 N 196.587 1.43421 -0.653314 0
M  V30 2087 C 197.52 2.2803 0.0879804 0
M  V30 2088 C 198.498 1.39833 0.82979 0
M  V30 2089 O 199.682 1.69275 0.829341 0
M  V30 2090 C 196.809 3.19247 1.13132 0
M  V30 2091 C 195.855 4.23704 0.487546 0
M  V30 2092 S 196.688 5.30377 -0.738961 0
M  V30 2093 C 197.844 6.25162 0.30384 0
M  V30 2094 H 198.077 2.90554 -0.629739 0
M  V30 2095 H 195.61 1.47934 -0.442156 0
M  V30 2096 H 197.568 3.72346 1.72827 0
M  V30 2097 H 196.229 2.55901 1.82136 0
M  V30 2098 H 195.422 4.87631 1.27407 0
M  V30 2099 H 195.024 3.73983 -0.0352915 0
M  V30 2100 H 197.316 6.67321 1.17 0
M  V30 2101 H 198.259 7.07463 -0.300402 0
M  V30 2102 H 198.667 5.60864 0.63969 0
M  V30 2103 N 198.065 0.39524 1.52563 0
M  V30 2104 C 199.481 0.0454682 1.59535 0
M  V30 2105 C 199.681 -1.44056 1.4089 0
M  V30 2106 O 198.737 -2.20579 1.22888 0
M  V30 2107 C 200.05 0.527963 2.96029 0
M  V30 2108 C 201.598 0.484733 3.09224 0
M  V30 2109 C 202.073 0.943512 4.48176 0
M  V30 2110 N 203.564 0.899765 4.54377 0
M  V30 2111 C 204.299 1.22609 5.60138 0
M  V30 2112 N 203.795 1.62319 6.73516 0
M  V30 2113 N 205.588 1.14696 5.50274 0
M  V30 2114 H 197.739 1.36261 1.62931 0
M  V30 2115 H 200.002 0.558887 0.765735 0
M  V30 2116 H 199.708 1.56607 3.14908 0
M  V30 2117 H 199.582 -0.0698056 3.77135 0
M  V30 2118 H 201.969 -0.544298 2.90037 0
M  V30 2119 H 202.05 1.11838 2.30056 0
M  V30 2120 H 201.694 1.9708 4.68104 0
M  V30 2121 H 201.624 0.286817 5.25818 0
M  V30 2122 H 204.115 0.607632 3.72983 0
M  V30 2123 H 204.428 1.85567 7.5019 0
M  V30 2124 H 202.773 1.66211 6.74833 0
M  V30 2125 H 205.964 0.835701 4.6058 0
M  V30 2126 H 206.137 1.40459 6.32594 0
M  V30 2127 N 199.544 -1.57102 0.125237 0
M  V30 2128 C 200.454 -2.19191 -0.8362 0
M  V30 2129 C 201.47 -1.16985 -1.28805 0
M  V30 2130 O 202.646 -1.49479 -1.34974 0
M  V30 2131 C 199.711 -2.78407 -2.06617 0
M  V30 2132 C 198.772 -3.9567 -1.66565 0
M  V30 2133 C 198.005 -4.52052 -2.83698 0
M  V30 2134 O 198.228 -4.07326 -3.99302 0
M  V30 2135 O 197.162 -5.42645 -2.60423 0
M  V30 2136 H 200.988 -3.01816 -0.337776 0
M  V30 2137 H 198.573 -1.4906 -0.100695 0
M  V30 2138 H 200.455 -3.16129 -2.7864 0
M  V30 2139 H 199.13 -1.9881 -2.55453 0
M  V30 2140 H 198.037 -3.62705 -0.916296 0
M  V30 2141 H 199.37 -4.76722 -1.22464 0
M  V30 2142 N 201.022 0.148545 -1.56898 0
M  V30 2143 C 202.269 0.861418 -1.83264 0
M  V30 2144 C 202.597 1.81239 -0.705883 0
M  V30 2145 O 201.852 1.93305 0.305212 0
M  V30 2146 C 202.151 1.67064 -3.1595 0
M  V30 2147 C 201.817 0.866591 -4.42494 0
M  V30 2148 C 200.479 0.644762 -4.76861 0
M  V30 2149 C 202.831 0.30418 -5.20312 0
M  V30 2150 C 200.159 -0.15021 -5.86508 0
M  V30 2151 C 202.511 -0.477824 -6.30793 0
M  V30 2152 C 201.175 -0.710244 -6.63711 0
M  V30 2153 H 200.445 0.315215 -0.670612 0
M  V30 2154 H 203.092 0.125142 -1.91091 0
M  V30 2155 H 201.397 2.47698 -3.03567 0
M  V30 2156 H 203.094 2.22566 -3.33565 0
M  V30 2157 H 199.684 1.04955 -4.15551 0
M  V30 2158 H 203.868 0.462844 -4.94137 0
M  V30 2159 H 199.124 -0.339796 -6.10455 0
M  V30 2160 H 203.298 -0.92076 -6.90286 0
M  V30 2161 H 200.925 -1.3281 -7.48509 0
M  V30 2162 N 202.5 1.5196 0.417844 0
M  V30 2163 C 203.747 1.65591 1.16559 0
M  V30 2164 C 204.075 0.381565 1.90721 0
M  V30 2165 O 203.33 -0.635156 1.85106 0
M  V30 2166 C 203.629 2.82269 2.19223 0
M  V30 2167 C 203.295 4.20819 1.61933 0
M  V30 2168 C 201.957 4.58506 1.46033 0
M  V30 2169 C 204.309 5.07196 1.20008 0
M  V30 2170 C 201.637 5.80257 0.867113 0
M  V30 2171 C 203.989 6.29544 0.621086 0
M  V30 2172 C 202.653 6.65987 0.449144 0
M  V30 2173 H 201.923 0.605939 0.42652 0
M  V30 2174 H 204.57 1.86041 0.45397 0
M  V30 2175 H 202.875 2.56118 2.96498 0
M  V30 2176 H 204.572 2.90012 2.76936 0
M  V30 2177 H 201.162 3.91116 1.7529 0
M  V30 2178 H 205.346 4.7867 1.31105 0
M  V30 2179 H 200.602 6.07124 0.721833 0
M  V30 2180 H 204.776 6.95805 0.287798 0
M  V30 2181 H 202.403 7.60199 -0.012632 0
M  V30 2182 N 203.978 -0.674533 1.42435 0
M  V30 2183 C 205.227 -1.43034 1.42212 0
M  V30 2184 C 205.54 -1.95555 0.0420788 0
M  V30 2185 O 206.746 -2.71374 -0.0827558 0
M  V30 2186 C 205.202 -2.58748 2.50155 0
M  V30 2187 C 204.81 -2.12925 3.94166 0
M  V30 2188 C 206.554 -3.36257 2.59098 0
M  V30 2189 C 204.461 -3.25723 4.93618 0
M  V30 2190 H 203.391 -0.537345 0.528939 0
M  V30 2191 H 206.042 -0.73024 1.68344 0
M  V30 2192 H 204.424 -3.31128 2.17188 0
M  V30 2193 H 205.598 -1.47697 4.36488 0
M  V30 2194 H 203.913 -1.48354 3.89076 0
M  V30 2195 H 206.51 -4.20264 3.30578 0
M  V30 2196 H 206.853 -3.82866 1.63461 0
M  V30 2197 H 207.386 -2.70947 2.9126 0
M  V30 2198 H 204.125 -2.84105 5.90732 0
M  V30 2199 H 203.645 -3.89732 4.55926 0
M  V30 2200 H 205.324 -3.91186 5.15347 0
M  V30 2201 N 205.456 -1.28612 -0.910864 0
M  V30 2202 C 206.704 -1.15705 -1.65701 0
M  V30 2203 C 207.025 0.29416 -1.92769 0
M  V30 2204 O 206.295 1.20331 -1.54588 0
M  V30 2205 H 204.875 -0.425216 -0.614167 0
M  V30 2206 H 207.537 -1.61381 -1.0928 0
M  V30 2207 H 206.633 -1.6988 -2.61815 0
M  V30 2208 N 206.934 1.1197 -1.10907 0
M  V30 2209 C 207.864 2.19928 -0.784473 0
M  V30 2210 C 208.845 1.6833 0.244726 0
M  V30 2211 O 210.03 1.93892 0.109418 0
M  V30 2212 C 207.16 3.46597 -0.220827 0
M  V30 2213 C 206.114 4.11376 -1.18127 0
M  V30 2214 C 205.44 5.32554 -0.478594 0
M  V30 2215 C 206.74 4.56945 -2.52979 0
M  V30 2216 H 208.434 2.47337 -1.68715 0
M  V30 2217 H 205.98 1.18879 -0.812642 0
M  V30 2218 H 207.933 4.21396 0.0184278 0
M  V30 2219 H 206.657 3.1863 0.717113 0
M  V30 2220 H 205.316 3.38564 -1.40606 0
M  V30 2221 H 204.964 5.00856 0.463976 0
M  V30 2222 H 204.664 5.76844 -1.11912 0
M  V30 2223 H 206.188 6.10096 -0.248 0
M  V30 2224 H 207.602 5.23093 -2.3462 0
M  V30 2225 H 205.999 5.1203 -3.12962 0
M  V30 2226 H 207.069 3.70676 -3.12614 0
M  V30 2227 N 208.412 0.89855 1.29475 0
M  V30 2228 C 209.637 0.538561 2.00285 0
M  V30 2229 C 210.062 -0.869135 1.66816 0
M  V30 2230 O 209.42 -1.57831 0.892145 0
M  V30 2231 C 209.468 0.736475 3.52999 0
M  V30 2232 O 208.572 -0.211537 4.11857 0
M  V30 2233 H 207.913 0.210563 0.62973 0
M  V30 2234 H 210.443 1.20982 1.64998 0
M  V30 2235 H 210.453 0.640685 4.02938 0
M  V30 2236 H 209.128 1.76276 3.76696 0
M  V30 2237 H 207.705 -0.0682991 3.72837 0
M  V30 2238 N 209.89 -1.43072 0.660911 0
M  V30 2239 C 211.167 -1.95307 0.107017 0
M  V30 2240 C 211.547 -1.60192 -1.37484 0
M  V30 2241 O 210.895 -0.890949 -2.10415 0
M  V30 2242 C 211.105 -3.47124 0.361402 0
M  V30 2243 C 212.453 -4.23738 0.270455 0
M  V30 2244 O 213.477 -3.54981 0.294382 0
M  V30 2245 O 212.336 -5.46131 0.200737 0
M  V30 2246 H 209.43 -0.826984 -0.00517729 0
M  V30 2247 H 211.976 -1.52972 0.734681 0
M  V30 2248 H 210.748 -3.65837 1.38848 0
M  V30 2249 H 210.371 -3.96475 -0.298953 0
M  V30 2250 N 211.368 -0.403325 -1.52352 0
M  V30 2251 C 212.3 0.4603 -2.2453 0
M  V30 2252 C 213.313 1.01505 -1.27282 0
M  V30 2253 O 214.502 0.914982 -1.53266 0
M  V30 2254 C 211.602 1.65208 -2.95905 0
M  V30 2255 C 210.775 1.22224 -4.19976 0
M  V30 2256 C 209.834 2.28028 -4.74226 0
M  V30 2257 O 208.86 1.88857 -5.36956 0
M  V30 2258 N 210.062 3.6012 -4.55295 0
M  V30 2259 H 212.827 -0.158156 -2.99282 0
M  V30 2260 H 210.388 -0.230402 -1.60252 0
M  V30 2261 H 212.38 2.35541 -3.29093 0
M  V30 2262 H 210.95 2.17658 -2.24374 0
M  V30 2263 H 210.17 0.34725 -3.92668 0
M  V30 2264 H 211.458 0.911924 -5.00561 0
M  V30 2265 H 210.856 3.94698 -4.05253 0
M  V30 2266 H 209.413 4.26447 -4.92936 0
M  V30 2267 N 212.846 1.57033 -0.133567 0
M  V30 2268 C 214.092 1.95976 0.521649 0
M  V30 2269 C 214.425 1.01779 1.65393 0
M  V30 2270 O 213.7 0.0576581 1.94415 0
M  V30 2271 C 213.983 3.44738 1.04057 0
M  V30 2272 C 213.836 4.49711 -0.0892897 0
M  V30 2273 C 215.155 3.95682 1.92675 0
M  V30 2274 H 212.274 0.712579 0.188149 0
M  V30 2275 H 214.916 1.88813 -0.212076 0
M  V30 2276 H 213.066 3.50973 1.66583 0
M  V30 2277 H 214.738 4.55565 -0.725152 0
M  V30 2278 H 212.981 4.27261 -0.750378 0
M  V30 2279 H 213.652 5.51099 0.315284 0
M  V30 2280 H 216.128 3.91841 1.39998 0
M  V30 2281 H 215.004 5.00262 2.25897 0
M  V30 2282 H 215.265 3.37239 2.85872 0
M  V30 2283 N 214.325 -0.140222 1.56975 0
M  V30 2284 C 215.571 -0.852949 1.83991 0
M  V30 2285 C 215.904 -1.80512 0.716187 0
M  V30 2286 O 215.179 -1.92479 -0.279681 0
M  V30 2287 C 215.462 -1.6215 3.21527 0
M  V30 2288 C 215.315 -0.690363 4.4447 0
M  V30 2289 C 216.634 -2.58247 3.56366 0
M  V30 2290 H 213.753 -0.308634 0.669264 0
M  V30 2291 H 216.395 -0.117898 1.89634 0
M  V30 2292 H 214.545 -2.24812 3.16847 0
M  V30 2293 H 216.217 -0.0742264 4.6124 0
M  V30 2294 H 214.46 -0.000396433 4.338 0
M  V30 2295 H 215.131 -1.2643 5.37326 0
M  V30 2296 H 217.607 -2.05701 3.61699 0
M  V30 2297 H 216.483 -3.09067 4.53617 0
M  V30 2298 H 216.744 -3.39923 2.82674 0
M  V30 2299 N 215.803 -1.52179 -0.40978 0
M  V30 2300 C 216.713 -1.78364 -1.52392 0
M  V30 2301 C 217.729 -0.669183 -1.60617 0
M  V30 2302 O 218.905 -0.954518 -1.77344 0
M  V30 2303 C 215.97 -1.92822 -2.88133 0
M  V30 2304 C 215.031 -3.16725 -2.898 0
M  V30 2305 C 214.264 -3.30483 -4.19067 0
M  V30 2306 O 214.487 -2.49522 -5.12928 0
M  V30 2307 O 213.421 -4.2363 -4.27576 0
M  V30 2308 H 217.247 -2.72931 -1.33201 0
M  V30 2309 H 214.832 -1.37016 -0.59557 0
M  V30 2310 H 216.714 -2.04157 -3.68643 0
M  V30 2311 H 215.389 -1.01444 -3.07393 0
M  V30 2312 H 214.296 -3.10848 -2.08146 0
M  V30 2313 H 215.629 -4.07881 -2.75489 0
M  V30 2314 N 217.281 0.66697 -1.42791 0
M  V30 2315 C 218.529 1.42417 -1.43394 0
M  V30 2316 C 218.85 1.94925 -0.0542373 0
M  V30 2317 O 218.12 1.73564 0.908415 0
M  V30 2318 H 216.7 0.528515 -0.527902 0
M  V30 2319 H 219.362 0.787562 -1.78279 0
M  V30 2320 H 218.458 2.27333 -2.13837 0
M  V30 2321 N 218.759 1.29093 0.90403 0
M  V30 2322 C 219.691 1.09658 2.01266 0
M  V30 2323 C 220.704 0.0453729 1.62737 0
M  V30 2324 O 221.893 0.289446 1.76138 0
M  V30 2325 C 218.993 0.646278 3.32681 0
M  V30 2326 C 218.166 1.77505 3.99763 0
M  V30 2327 C 217.225 1.31649 5.09465 0
M  V30 2328 O 216.251 2.02045 5.32134 0
M  V30 2329 N 217.453 0.184997 5.80205 0
M  V30 2330 H 220.218 2.05135 2.18494 0
M  V30 2331 H 217.779 1.20975 1.07594 0
M  V30 2332 H 219.771 0.322906 4.0341 0
M  V30 2333 H 218.341 -0.215916 3.11853 0
M  V30 2334 H 217.561 2.26752 3.22455 0
M  V30 2335 H 218.849 2.53198 4.41325 0
M  V30 2336 H 218.247 -0.402021 5.6427 0
M  V30 2337 H 216.804 -0.0790358 6.51752 0
M  V30 2338 N 220.237 -1.11381 1.11499 0
M  V30 2339 C 221.483 -1.83597 0.875423 0
M  V30 2340 C 221.838 -1.83048 -0.592555 0
M  V30 2341 O 221.131 -1.27304 -1.43193 0
M  V30 2342 C 221.325 -3.30026 1.37177 0
M  V30 2343 C 221.154 -3.44837 2.88647 0
M  V30 2344 C 219.924 -3.57825 3.56776 0
M  V30 2345 C 222.122 -3.3907 3.86699 0
M  V30 2346 N 220.104 -3.61113 4.96458 0
M  V30 2347 C 221.475 -3.48986 5.12454 0
M  V30 2348 C 223.53 -3.22605 3.7925 0
M  V30 2349 C 222.233 -3.44135 6.31636 0
M  V30 2350 C 224.259 -3.19072 4.97943 0
M  V30 2351 C 223.621 -3.29559 6.22551 0
M  V30 2352 H 219.72 -0.687044 0.37349 0
M  V30 2353 H 222.304 -1.33265 1.41946 0
M  V30 2354 H 220.475 -3.78874 0.854919 0
M  V30 2355 H 222.207 -3.90153 1.07529 0
M  V30 2356 H 218.962 -3.60414 3.07244 0
M  V30 2357 H 219.386 -3.66394 5.69284 0
M  V30 2358 H 224.028 -3.13382 2.83816 0
M  V30 2359 H 221.746 -3.52126 7.27347 0
M  V30 2360 H 225.332 -3.07498 4.93899 0
M  V30 2361 H 224.212 -3.26815 7.12855 0
M  V30 2362 N 221.715 -0.905404 -1.28997 0
M  V30 2363 C 222.647 -0.344748 -2.26592 0
M  V30 2364 C 223.66 0.512135 -1.54535 0
M  V30 2365 O 224.849 0.328368 -1.75454 0
M  V30 2366 C 221.949 0.526587 -3.34784 0
M  V30 2367 C 221.122 -0.305871 -4.36329 0
M  V30 2368 C 220.181 0.499209 -5.23827 0
M  V30 2369 O 219.207 -0.0853004 -5.69136 0
M  V30 2370 N 220.409 1.80408 -5.51755 0
M  V30 2371 H 223.174 -1.18359 -2.75338 0
M  V30 2372 H 220.735 -0.770481 -1.42391 0
M  V30 2373 H 222.727 1.07171 -3.90252 0
M  V30 2374 H 221.297 1.26613 -2.85811 0
M  V30 2375 H 220.517 -1.0324 -3.80441 0
M  V30 2376 H 221.805 -0.875773 -5.01206 0
M  V30 2377 H 221.203 2.3016 -5.16762 0
M  V30 2378 H 219.76 2.29621 -6.10014 0
M  V30 2379 N 223.193 1.4272 -0.668489 0
M  V30 2380 C 224.439 2.02443 -0.197076 0
M  V30 2381 C 224.794 1.51882 1.18109 0
M  V30 2382 O 224.087 0.708618 1.78015 0
M  V30 2383 C 224.281 3.57021 -0.164499 0
M  V30 2384 C 224.11 4.22583 -1.53797 0
M  V30 2385 C 222.88 4.58019 -2.13416 0
M  V30 2386 C 225.078 4.50588 -2.47941 0
M  V30 2387 N 223.06 5.08729 -3.4361 0
M  V30 2388 C 224.431 5.02782 -3.62782 0
M  V30 2389 C 226.486 4.32571 -2.46551 0
M  V30 2390 C 225.189 5.38852 -4.76478 0
M  V30 2391 C 227.215 4.69713 -3.59338 0
M  V30 2392 C 226.577 5.22053 -4.72906 0
M  V30 2393 H 222.676 0.773214 -0.116894 0
M  V30 2394 H 225.26 1.73673 -0.880108 0
M  V30 2395 H 223.431 3.85323 0.487925 0
M  V30 2396 H 225.163 4.03439 0.319207 0
M  V30 2397 H 221.918 4.43566 -1.65969 0
M  V30 2398 H 222.342 5.38521 -4.10273 0
M  V30 2399 H 226.984 3.91365 -1.59978 0
M  V30 2400 H 224.702 5.78993 -5.63731 0
M  V30 2401 H 228.288 4.57454 -3.59482 0
M  V30 2402 H 227.168 5.50258 -5.58736 0
M  V30 2403 N 224.671 0.411399 1.52136 0
M  V30 2404 C 225.917 -0.163888 2.02137 0
M  V30 2405 C 226.25 -1.44597 1.29636 0
M  V30 2406 O 225.525 -1.90272 0.403353 0
M  V30 2407 C 225.808 -0.40927 3.57767 0
M  V30 2408 C 225.661 0.889643 4.40914 0
M  V30 2409 C 226.98 -1.19042 4.23694 0
M  V30 2410 H 224.099 -0.0580896 0.734707 0
M  V30 2411 H 226.741 0.54531 1.82007 0
M  V30 2412 H 224.891 -1.0134 3.7505 0
M  V30 2413 H 226.563 1.52575 4.35337 0
M  V30 2414 H 224.806 1.50011 4.07037 0
M  V30 2415 H 225.477 0.672314 5.4789 0
M  V30 2416 H 227.953 -0.678942 4.10524 0
M  V30 2417 H 226.829 -1.33086 5.32522 0
M  V30 2418 H 227.09 -2.21166 3.82803 0
M  V30 2419 N 226.149 -1.5696 0.141893 0
M  V30 2420 C 227.426 -1.87553 -0.555281 0
M  V30 2421 C 227.806 -1.04699 -1.83306 0
M  V30 2422 O 227.154 -0.132346 -2.28116 0
M  V30 2423 C 227.364 -3.39093 -0.825664 0
M  V30 2424 C 228.712 -4.08199 -1.16869 0
M  V30 2425 O 229.736 -3.44242 -0.915185 0
M  V30 2426 O 228.595 -5.21139 -1.6455 0
M  V30 2427 H 225.689 -0.777188 -0.282679 0
M  V30 2428 H 228.235 -1.68763 0.17812 0
M  V30 2429 H 227.007 -3.91221 0.0788633 0
M  V30 2430 H 226.63 -3.63393 -1.61343 0
M  V30 2431 N 227.627 0.131896 -1.57047 0
M  V30 2432 C 228.875 0.840269 -1.83804 0
M  V30 2433 C 229.196 1.81017 -0.72512 0
M  V30 2434 O 228.466 1.94272 0.251995 0
M  V30 2435 H 227.046 0.313294 -0.678127 0
M  V30 2436 H 229.708 0.122294 -1.94516 0
M  V30 2437 H 228.804 1.39335 -2.79271 0
M  V30 2438 N 229.106 1.52395 0.401703 0
M  V30 2439 C 230.334 1.70676 1.16949 0
M  V30 2440 C 230.749 0.419503 1.8408 0
M  V30 2441 O 230.106 -0.605061 1.72178 0
M  V30 2442 C 230.157 2.84753 2.22706 0
M  V30 2443 O 229.878 4.08495 1.58314 0
M  V30 2444 C 231.379 3.14608 3.12309 0
M  V30 2445 H 228.599 0.571787 0.351142 0
M  V30 2446 H 231.143 1.98987 0.471652 0
M  V30 2447 H 229.298 2.58941 2.88147 0
M  V30 2448 H 229.712 4.72117 2.28485 0
M  V30 2449 H 231.186 3.97923 3.82572 0
M  V30 2450 H 231.663 2.28464 3.75101 0
M  V30 2451 H 232.269 3.42212 2.52529 0
M  V30 2452 N 230.584 -0.659388 1.43143 0
M  V30 2453 C 231.995 -1.24041 1.39537 0
M  V30 2454 C 232.346 -1.95963 0.0963364 0
M  V30 2455 O 231.471 -2.00892 -0.804438 0
M  V30 2456 C 232.066 -2.25601 2.52764 0
M  V30 2457 C 230.625 -2.79195 2.52443 0
M  V30 2458 C 229.772 -1.53743 2.30778 0
M  V30 2459 H 232.723 -0.451792 1.52133 0
M  V30 2460 H 232.744 -3.07651 2.23899 0
M  V30 2461 H 232.256 -1.73226 3.47296 0
M  V30 2462 H 230.357 -3.35649 1.61773 0
M  V30 2463 H 230.47 -3.2716 3.50004 0
M  V30 2464 H 228.834 -1.80869 1.79328 0
M  V30 2465 H 229.617 -1.03312 3.27386 0
M  V30 2466 N 232.062 -1.29571 -0.897171 0
M  V30 2467 C 232.992 -1.17473 -2.01798 0
M  V30 2468 C 233.973 -0.068323 -1.69963 0
M  V30 2469 O 235.158 -0.248239 -1.92607 0
M  V30 2470 C 232.288 -0.853099 -3.36659 0
M  V30 2471 C 231.242 -1.9161 -3.82713 0
M  V30 2472 C 230.568 -1.44773 -5.14728 0
M  V30 2473 C 231.868 -3.32535 -4.02763 0
M  V30 2474 H 233.562 -2.11237 -2.12177 0
M  V30 2475 H 231.108 -1.01699 -1.01948 0
M  V30 2476 H 233.061 -0.755165 -4.14578 0
M  V30 2477 H 231.785 0.120236 -3.26379 0
M  V30 2478 H 230.444 -2.00346 -3.07013 0
M  V30 2479 H 230.092 -0.462995 -5.00865 0
M  V30 2480 H 229.792 -2.15865 -5.46513 0
M  V30 2481 H 231.316 -1.36334 -5.95185 0
M  V30 2482 H 232.73 -3.26626 -4.71156 0
M  V30 2483 H 231.127 -4.01607 -4.45905 0
M  V30 2484 H 232.197 -3.75326 -3.07016 0
M  V30 2485 N 233.54 1.10788 -1.12088 0
M  V30 2486 C 234.768 1.86461 -0.896651 0
M  V30 2487 C 235.183 1.80492 0.553912 0
M  V30 2488 O 234.54 1.19102 1.38278 0
M  V30 2489 C 234.591 3.35006 -1.35843 0
M  V30 2490 O 234.312 3.40866 -2.75213 0
M  V30 2491 C 235.813 4.27565 -1.1706 0
M  V30 2492 H 233.033 0.589425 -0.320654 0
M  V30 2493 H 235.577 1.40076 -1.48993 0
M  V30 2494 H 233.732 3.7887 -0.808458 0
M  V30 2495 H 234.146 4.33411 -2.9539 0
M  V30 2496 H 235.62 5.30007 -1.54263 0
M  V30 2497 H 236.097 4.3906 -0.110814 0
M  V30 2498 H 236.703 3.89501 -1.70789 0
M  V30 2499 N 235.018 0.912232 1.28515 0
M  V30 2500 C 235.965 0.397954 2.27343 0
M  V30 2501 C 236.935 -0.526766 1.57526 0
M  V30 2502 O 238.12 -0.449292 1.85435 0
M  V30 2503 C 235.26 -0.357263 3.43246 0
M  V30 2504 C 234.373 0.599788 4.27816 0
M  V30 2505 C 233.508 -0.173725 5.30916 0
M  V30 2506 C 232.547 0.777039 6.07148 0
M  V30 2507 N 231.684 0.0371398 7.0209 0
M  V30 2508 H 236.524 1.24577 2.70711 0
M  V30 2509 H 234.061 0.625612 1.33133 0
M  V30 2510 H 236.019 -0.8113 4.09236 0
M  V30 2511 H 234.649 -1.16943 3.00872 0
M  V30 2512 H 233.701 1.17235 3.61884 0
M  V30 2513 H 235.013 1.32704 4.80823 0
M  V30 2514 H 234.167 -0.688394 6.02782 0
M  V30 2515 H 232.906 -0.934041 4.78672 0
M  V30 2516 H 231.911 1.3031 5.34134 0
M  V30 2517 H 233.136 1.53689 6.61481 0
M  V30 2518 H 231.082 -0.705213 6.52198 0
M  V30 2519 H 230.999 0.704249 7.52713 0
M  V30 2520 H 232.267 -0.457383 7.78157 0
M  V30 2521 N 236.496 -1.42363 0.676048 0
M  V30 2522 C 237.721 -2.06377 0.205705 0
M  V30 2523 C 238.146 -1.50463 -1.12883 0
M  V30 2524 O 237.504 -0.623619 -1.70237 0
M  V30 2525 C 237.552 -3.60277 0.152655 0
M  V30 2526 O 236.656 -4.02935 -0.87845 0
M  V30 2527 H 235.997 -0.655588 0.105359 0
M  V30 2528 H 238.527 -1.82475 0.925412 0
M  V30 2529 H 238.537 -4.07993 -0.0230675 0
M  V30 2530 H 237.212 -4.00346 1.12675 0
M  V30 2531 H 235.789 -3.66764 -0.673668 0
M  V30 2532 N 237.974 -0.419461 -1.51915 0
M  V30 2533 C 238.904 0.391813 -2.30189 0
M  V30 2534 C 239.885 1.03699 -1.34836 0
M  V30 2535 O 241.07 1.04403 -1.63748 0
M  V30 2536 C 238.2 1.50312 -3.13087 0
M  V30 2537 C 237.154 0.9824 -4.16573 0
M  V30 2538 C 236.48 2.18809 -4.8788 0
M  V30 2539 C 237.78 0.0292356 -5.22292 0
M  V30 2540 H 239.474 -0.26135 -2.98257 0
M  V30 2541 H 237.02 -0.127134 -1.43438 0
M  V30 2542 H 238.973 2.07773 -3.66617 0
M  V30 2543 H 237.697 2.18431 -2.42807 0
M  V30 2544 H 236.356 0.430119 -3.64068 0
M  V30 2545 H 236.004 2.85507 -4.14119 0
M  V30 2546 H 235.704 1.84615 -5.57845 0
M  V30 2547 H 237.228 2.76858 -5.44226 0
M  V30 2548 H 238.642 0.512976 -5.71 0
M  V30 2549 H 237.039 -0.2244 -5.9968 0
M  V30 2550 H 238.109 -0.912931 -4.76228 0
M  V30 2551 N 239.452 1.56882 -0.150215 0
M  V30 2552 C 240.677 2.01027 0.510184 0
M  V30 2553 C 241.102 1.02966 1.57415 0
M  V30 2554 O 240.46 0.00590158 1.81299 0
M  V30 2555 C 240.508 3.43899 1.08472 0
M  V30 2556 O 239.612 3.4885 2.19948 0
M  V30 2557 H 238.953 0.652233 0.124451 0
M  V30 2558 H 241.483 2.03093 -0.247894 0
M  V30 2559 H 241.493 3.82766 1.41259 0
M  V30 2560 H 240.168 4.14776 0.305582 0
M  V30 2561 H 238.745 3.21827 1.88366 0
M  V30 2562 N 240.93 -0.123565 1.57115 0
M  V30 2563 C 242.177 -0.832153 1.84612 0
M  V30 2564 C 242.505 -1.80093 0.734627 0
M  V30 2565 O 241.76 -1.93766 -0.27442 0
M  V30 2566 C 242.059 -1.62016 3.18568 0
M  V30 2567 C 241.725 -0.796084 4.43817 0
M  V30 2568 C 240.387 -0.568816 4.77826 0
M  V30 2569 C 242.739 -0.221364 5.2073 0
M  V30 2570 C 240.067 0.243499 5.86194 0
M  V30 2571 C 242.419 0.578117 6.29953 0
M  V30 2572 C 241.083 0.815744 6.62497 0
M  V30 2573 H 240.353 -0.304507 0.675542 0
M  V30 2574 H 243 -0.0947248 1.91266 0
M  V30 2575 H 241.305 -2.42837 3.0747 0
M  V30 2576 H 243.002 -2.17231 3.37064 0
M  V30 2577 H 239.592 -0.983307 4.17168 0
M  V30 2578 H 243.776 -0.384173 4.94811 0
M  V30 2579 H 239.032 0.436871 6.09837 0
M  V30 2580 H 243.206 1.03046 6.88734 0
M  V30 2581 H 240.833 1.44701 7.46301 0
M  V30 2582 N 242.408 -1.52605 -0.393616 0
M  V30 2583 C 243.654 -1.68624 -1.13743 0
M  V30 2584 C 244.009 -0.418687 -1.87789 0
M  V30 2585 O 243.302 0.58747 -1.82371 0
M  V30 2586 C 243.496 -2.85721 -2.14705 0
M  V30 2587 C 243.325 -4.23742 -1.50575 0
M  V30 2588 C 242.095 -4.89033 -1.2718 0
M  V30 2589 C 244.293 -5.05293 -0.958311 0
M  V30 2590 N 242.275 -6.11048 -0.591058 0
M  V30 2591 C 243.646 -6.18673 -0.405367 0
M  V30 2592 C 245.701 -4.90517 -0.854274 0
M  V30 2593 C 244.404 -7.18895 0.241434 0
M  V30 2594 C 246.43 -5.90986 -0.221301 0
M  V30 2595 C 245.792 -7.03669 0.320894 0
M  V30 2596 H 241.891 -0.670556 -0.402342 0
M  V30 2597 H 244.475 -1.89946 -0.427607 0
M  V30 2598 H 242.646 -2.65987 -2.83029 0
M  V30 2599 H 244.378 -2.90699 -2.8156 0
M  V30 2600 H 241.133 -4.47672 -1.54554 0
M  V30 2601 H 241.557 -6.76474 -0.266862 0
M  V30 2602 H 246.199 -4.03612 -1.25926 0
M  V30 2603 H 243.917 -8.05413 0.658448 0
M  V30 2604 H 247.503 -5.81626 -0.142111 0
M  V30 2605 H 246.383 -7.80078 0.802956 0
M  V30 2606 N 243.887 0.651787 -1.4349 0
M  V30 2607 C 245.164 1.40909 -1.35661 0
M  V30 2608 C 245.544 2.11099 -0.00511733 0
M  V30 2609 O 244.892 2.04892 1.0115 0
M  V30 2610 C 245.102 2.3926 -2.54078 0
M  V30 2611 C 246.45 3.03217 -2.97228 0
M  V30 2612 O 247.474 2.49588 -2.54135 0
M  V30 2613 O 246.333 4.00455 -3.71885 0
M  V30 2614 H 243.427 0.629625 -0.536191 0
M  V30 2615 H 245.973 0.678575 -1.55542 0
M  V30 2616 H 244.745 1.86352 -3.44076 0
M  V30 2617 H 244.368 3.1976 -2.36303 0
M  V30 2618 N 245.365 1.30045 0.890287 0
M  V30 2619 C 246.611 1.18737 1.64406 0
M  V30 2620 C 246.944 -0.258525 1.92472 0
M  V30 2621 O 246.219 -1.18562 1.54186 0
M  V30 2622 C 246.502 2.01087 2.98724 0
M  V30 2623 C 246.355 3.53867 2.77665 0
M  V30 2624 C 247.674 1.84457 3.9958 0
M  V30 2625 H 244.793 0.432698 0.596608 0
M  V30 2626 H 247.435 1.5962 1.0306 0
M  V30 2627 H 245.585 1.66349 3.51084 0
M  V30 2628 H 247.257 3.98637 2.32133 0
M  V30 2629 H 245.5 3.78318 2.12269 0
M  V30 2630 H 246.171 4.06772 3.7315 0
M  V30 2631 H 248.647 2.14817 3.56361 0
M  V30 2632 H 247.523 2.44411 4.91482 0
M  V30 2633 H 247.784 0.802276 4.3476 0
M  V30 2634 N 246.843 -1.10192 1.12674 0
M  V30 2635 C 248.091 -1.81845 0.881861 0
M  V30 2636 C 248.412 -1.85737 -0.593867 0
M  V30 2637 O 247.682 -1.33724 -1.4316 0
M  V30 2638 H 246.262 -0.673432 0.323261 0
M  V30 2639 H 248.924 -1.33316 1.42172 0
M  V30 2640 H 248.02 -2.85288 1.2656 0
M  V30 2641 N 248.321 -0.919034 -1.28029 0
M  V30 2642 C 249.231 -0.416756 -2.30869 0
M  V30 2643 C 250.247 0.498235 -1.66714 0
M  V30 2644 O 251.423 0.383144 -1.97722 0
M  V30 2645 C 248.488 0.330274 -3.45123 0
M  V30 2646 C 247.549 -0.618578 -4.2482 0
M  V30 2647 C 246.782 0.0928959 -5.33619 0
M  V30 2648 O 247.005 1.31375 -5.55065 0
M  V30 2649 O 245.939 -0.574499 -5.99152 0
M  V30 2650 H 249.765 -1.27043 -2.75851 0
M  V30 2651 H 247.35 -0.684052 -1.3282 0
M  V30 2652 H 249.232 0.751972 -4.14636 0
M  V30 2653 H 247.907 1.1597 -3.02213 0
M  V30 2654 H 246.814 -1.08978 -3.57875 0
M  V30 2655 H 248.147 -1.41497 -4.71423 0
M  V30 2656 N 249.799 1.42003 -0.683588 0
M  V30 2657 C 251.21 1.84501 -0.285736 0
M  V30 2658 C 251.561 1.57213 1.17382 0
M  V30 2659 O 250.686 1.03642 1.89966 0
M  V30 2660 C 251.281 3.34912 -0.511821 0
M  V30 2661 C 249.84 3.76025 -0.168005 0
M  V30 2662 C 248.987 2.6551 -0.799983 0
M  V30 2663 H 251.938 1.31724 -0.885119 0
M  V30 2664 H 251.959 3.79784 0.233292 0
M  V30 2665 H 251.471 3.54741 -1.57418 0
M  V30 2666 H 249.572 3.61801 0.890567 0
M  V30 2667 H 249.685 4.75141 -0.614661 0
M  V30 2668 H 248.049 2.53654 -0.230568 0
M  V30 2669 H 248.832 2.8816 -1.86597 0
M  V30 2670 N 251.277 0.427512 1.51691 0
M  V30 2671 C 252.225 -0.403359 2.29076 0
M  V30 2672 C 253.219 -1.02962 1.34518 0
M  V30 2673 O 254.425 -0.965715 1.51901 0
M  V30 2674 H 250.8 -0.148879 0.737115 0
M  V30 2675 H 252.771 0.270295 2.97173 0
M  V30 2676 C 251.52 -1.49763 3.13794 0
M  V30 2677 H 250.843 -1.02508 3.86435 0
M  V30 2678 H 252.283 -2.05244 3.71014 0
M  V30 2679 C 250.742 -2.47536 2.28533 0
M  V30 2680 O 251.272 -3.51848 1.93819 0
M  V30 2681 N 249.478 -2.18187 1.91945 0
M  V30 2682 H 249.025 -1.33389 2.20375 0
M  V30 2683 H 248.983 -2.83848 1.35195 0
M  V30 2684 N 252.755 -1.56801 0.158532 0
M  V30 2685 C 253.703 -2.18638 -0.793729 0
M  V30 2686 C 254.697 -1.14669 -1.24689 0
M  V30 2687 O 255.903 -1.32895 -1.21403 0
M  V30 2688 H 252.278 -0.700226 -0.274204 0
M  V30 2689 H 254.249 -2.97367 -0.248095 0
M  V30 2690 C 252.998 -2.83139 -2.0181 0
M  V30 2691 H 252.321 -3.62863 -1.67841 0
M  V30 2692 H 253.761 -3.29894 -2.66357 0
M  V30 2693 C 252.22 -1.82244 -2.83353 0
M  V30 2694 O 252.75 -1.3 -3.80083 0
M  V30 2695 N 250.956 -1.51288 -2.48114 0
M  V30 2696 H 250.503 -1.93964 -1.69516 0
M  V30 2697 H 250.461 -0.840296 -3.02963 0
M  V30 2698 N 254.233 0.115231 -1.57178 0
M  V30 2699 C 255.482 0.820945 -1.84237 0
M  V30 2700 C 255.795 1.80866 -0.744761 0
M  V30 2701 O 257.001 2.56083 -0.901871 0
M  V30 2702 C 255.457 1.51072 -3.26658 0
M  V30 2703 C 255.065 0.563795 -4.44438 0
M  V30 2704 C 256.809 2.20134 -3.62962 0
M  V30 2705 C 254.716 1.25701 -5.77887 0
M  V30 2706 H 253.646 0.310328 -0.687177 0
M  V30 2707 H 256.297 0.0737134 -1.83352 0
M  V30 2708 H 254.679 2.30471 -3.22024 0
M  V30 2709 H 255.853 -0.197247 -4.60378 0
M  V30 2710 H 254.168 -0.0200638 -4.16395 0
M  V30 2711 H 256.765 2.72696 -4.59936 0
M  V30 2712 H 257.108 2.98107 -2.90582 0
M  V30 2713 H 257.641 1.47619 -3.69396 0
M  V30 2714 H 254.38 0.518493 -6.53446 0
M  V30 2715 H 253.9 1.98997 -5.65827 0
M  V30 2716 H 255.579 1.78915 -6.2177 0
M  V30 2717 N 255.711 1.52812 0.385517 0
M  V30 2718 C 256.674 1.77188 1.45386 0
M  V30 2719 C 257.674 0.641953 1.4743 0
M  V30 2720 O 258.864 0.910033 1.4854 0
M  V30 2721 C 255.996 1.87582 2.8465 0
M  V30 2722 H 257.189 2.72583 1.25054 0
M  V30 2723 H 254.742 1.43586 0.617467 0
M  V30 2724 H 255.477 0.941849 3.10322 0
M  V30 2725 H 255.262 2.69748 2.84567 0
M  V30 2726 H 256.752 2.08102 3.62054 0
M  V30 2727 N 257.189 -0.644168 1.43834 0
M  V30 2728 C 258.417 -1.43147 1.49387 0
M  V30 2729 C 258.832 -1.88452 0.114583 0
M  V30 2730 O 258.189 -1.60047 -0.876989 0
M  V30 2731 C 258.24 -2.66046 2.44748 0
M  V30 2732 O 257.961 -2.22633 3.77314 0
M  V30 2733 C 259.462 -3.59311 2.59635 0
M  V30 2734 H 256.682 -0.439447 0.507077 0
M  V30 2735 H 259.226 -0.78895 1.88669 0
M  V30 2736 H 257.381 -3.26418 2.08638 0
M  V30 2737 H 257.795 -3.02216 4.28679 0
M  V30 2738 H 259.269 -4.42187 3.30416 0
M  V30 2739 H 259.746 -4.07259 1.64427 0
M  V30 2740 H 260.352 -3.04816 2.96593 0
M  V30 2741 N 258.668 -1.30515 -0.883378 0
M  V30 2742 C 259.598 -1.19607 -2.00541 0
M  V30 2743 C 260.579 -0.086346 -1.69881 0
M  V30 2744 O 261.764 -0.268654 -1.92333 0
M  V30 2745 C 258.894 -0.888758 -3.35736 0
M  V30 2746 C 257.848 -1.95659 -3.8066 0
M  V30 2747 C 257.174 -1.50224 -5.13164 0
M  V30 2748 C 258.474 -3.36788 -3.99213 0
M  V30 2749 H 260.168 -2.13476 -2.09925 0
M  V30 2750 H 257.714 -1.02775 -1.00863 0
M  V30 2751 H 259.667 -0.799094 -4.13754 0
M  V30 2752 H 258.391 0.0856125 -3.26488 0
M  V30 2753 H 257.05 -2.03591 -3.04871 0
M  V30 2754 H 256.698 -0.516092 -5.00345 0
M  V30 2755 H 256.398 -2.2165 -5.44192 0
M  V30 2756 H 257.922 -1.42639 -5.93706 0
M  V30 2757 H 259.336 -3.31605 -4.67665 0
M  V30 2758 H 257.733 -4.06314 -4.41621 0
M  V30 2759 H 258.803 -3.78561 -3.03017 0
M  V30 2760 N 260.146 1.09593 -1.13257 0
M  V30 2761 C 261.056 2.19739 -0.821691 0
M  V30 2762 C 262.072 1.72926 0.19302 0
M  V30 2763 O 263.248 2.01385 0.0244895 0
M  V30 2764 C 260.313 3.45482 -0.290333 0
M  V30 2765 C 259.374 4.06985 -1.36607 0
M  V30 2766 C 258.607 5.26726 -0.859975 0
M  V30 2767 O 258.83 5.69594 0.303082 0
M  V30 2768 O 257.764 5.7931 -1.63351 0
M  V30 2769 H 261.59 2.48781 -1.74189 0
M  V30 2770 H 259.175 1.18496 -0.909894 0
M  V30 2771 H 261.057 4.214 0.000674022 0
M  V30 2772 H 259.732 3.18047 0.602306 0
M  V30 2773 H 258.639 3.32712 -1.71037 0
M  V30 2774 H 259.972 4.38643 -2.23279 0
M  V30 2775 N 261.624 0.925811 1.2754 0
M  V30 2776 C 262.901 0.483726 1.89524 0
M  V30 2777 C 263.281 -1.03809 1.83812 0
M  V30 2778 O 262.629 -1.89143 1.28207 0
M  V30 2779 C 262.839 1.02769 3.33526 0
M  V30 2780 C 264.187 1.08703 4.10449 0
M  V30 2781 O 265.211 0.977175 3.42534 0
M  V30 2782 O 264.07 1.25599 5.31871 0
M  V30 2783 H 261.164 0.15529 0.812289 0
M  V30 2784 H 263.71 1.01738 1.35822 0
M  V30 2785 H 262.482 2.07155 3.31967 0
M  V30 2786 H 262.105 0.475567 3.94746 0
M  V30 2787 N 263.102 -1.41638 0.69111 0
M  V30 2788 C 264.342 -2.03166 0.224291 0
M  V30 2789 C 264.706 -1.53537 -1.15284 0
M  V30 2790 O 265.907 -2.0696 -1.71525 0
M  V30 2791 C 264.178 -3.56342 0.274758 0
M  V30 2792 S 265.737 -4.3864 -0.118669 0
M  V30 2793 H 262.555 -0.705188 0.0907263 0
M  V30 2794 H 265.157 -1.7314 0.907895 0
M  V30 2795 H 263.861 -3.89958 1.2791 0
M  V30 2796 H 263.392 -3.91063 -0.428142 0
M  V30 2797 H 265.407 -4.77549 -1.34764 0
M  V30 2798 N 264.58 -0.43555 -1.51462 0
M  V30 2799 C 265.543 0.365137 -2.26273 0
M  V30 2800 C 266.543 0.951227 -1.29647 0
M  V30 2801 O 267.733 0.825958 -1.53374 0
M  V30 2802 C 264.865 1.51645 -3.05314 0
M  V30 2803 H 266.058 -0.290474 -2.9849 0
M  V30 2804 H 263.611 -0.188676 -1.55157 0
M  V30 2805 H 264.346 2.20816 -2.3751 0
M  V30 2806 H 264.131 1.10238 -3.76284 0
M  V30 2807 H 265.621 2.08218 -3.61987 0
M  V30 2808 N 266.058 1.56714 -0.166846 0
M  V30 2809 C 267.286 2.0112 0.485644 0
M  V30 2810 C 267.701 1.04705 1.57106 0
M  V30 2811 O 267.058 0.0471923 1.82439 0
M  V30 2812 C 267.109 3.45361 1.06808 0
M  V30 2813 O 266.83 4.38092 0.0259995 0
M  V30 2814 C 268.331 4.05145 1.79924 0
M  V30 2815 H 265.551 0.65931 0.124704 0
M  V30 2816 H 268.095 2.02746 -0.267262 0
M  V30 2817 H 266.25 3.44524 1.7715 0
M  V30 2818 H 266.664 5.22519 0.455398 0
M  V30 2819 H 268.138 5.08009 2.15942 0
M  V30 2820 H 268.615 3.46982 2.69258 0
M  V30 2821 H 269.221 4.09672 1.14234 0
M  V30 2822 N 267.536 -0.106894 1.57237 0
M  V30 2823 C 268.469 -1.16125 1.96444 0
M  V30 2824 C 269.447 -1.3947 0.835871 0
M  V30 2825 O 270.631 -1.53425 1.09513 0
M  V30 2826 C 267.758 -2.51277 2.27107 0
M  V30 2827 C 266.804 -2.44285 3.4961 0
M  V30 2828 S 267.637 -1.87077 5.01759 0
M  V30 2829 C 268.793 -3.23877 5.35588 0
M  V30 2830 H 269.026 -0.826971 2.85567 0
M  V30 2831 H 266.559 -0.314124 1.51171 0
M  V30 2832 H 268.517 -3.29035 2.45451 0
M  V30 2833 H 267.178 -2.81879 1.38576 0
M  V30 2834 H 266.371 -3.4387 3.68469 0
M  V30 2835 H 265.973 -1.74652 3.30715 0
M  V30 2836 H 268.265 -4.20122 5.31511 0
M  V30 2837 H 269.208 -3.09833 6.36717 0
M  V30 2838 H 269.616 -3.22864 4.63054 0
M  V30 2839 N 269.014 -1.53014 -0.377408 0
M  V30 2840 C 270.43 -1.42523 -0.718281 0
M  V30 2841 C 270.63 -0.55487 -1.9371 0
M  V30 2842 O 269.686 -0.0327593 -2.52479 0
M  V30 2843 C 270.999 -2.85546 -0.942539 0
M  V30 2844 C 272.547 -2.95101 -1.04329 0
M  V30 2845 C 273.022 -4.3916 -1.3001 0
M  V30 2846 N 274.513 -4.42536 -1.36806 0
M  V30 2847 C 275.248 -5.51097 -1.58364 0
M  V30 2848 N 274.744 -6.69724 -1.77317 0
M  V30 2849 N 276.537 -5.38657 -1.60638 0
M  V30 2850 H 268.688 -2.08116 0.424426 0
M  V30 2851 H 270.951 -0.939352 0.127759 0
M  V30 2852 H 270.657 -3.51499 -0.118929 0
M  V30 2853 H 270.531 -3.28493 -1.85397 0
M  V30 2854 H 272.918 -2.29309 -1.85745 0
M  V30 2855 H 272.999 -2.55566 -0.109505 0
M  V30 2856 H 272.643 -5.05521 -0.490991 0
M  V30 2857 H 272.573 -4.76258 -2.24691 0
M  V30 2858 H 275.064 -3.57039 -1.23821 0
M  V30 2859 H 275.377 -7.48233 -1.93306 0
M  V30 2860 H 273.722 -6.72732 -1.74518 0
M  V30 2861 H 276.913 -4.44948 -1.45391 0
M  V30 2862 H 277.086 -6.2333 -1.77098 0
M  V30 2863 N 270.492 0.636531 -1.44174 0
M  V30 2864 C 271.769 1.39463 -1.37148 0
M  V30 2865 C 272.149 2.11082 -0.027507 0
M  V30 2866 O 271.497 2.05954 0.989716 0
M  V30 2867 C 271.707 2.36552 -2.56601 0
M  V30 2868 C 273.055 3.00048 -3.00427 0
M  V30 2869 O 274.079 2.46878 -2.56767 0
M  V30 2870 O 272.938 3.96488 -3.76111 0
M  V30 2871 H 270.032 0.623903 -0.542839 0
M  V30 2872 H 272.578 0.662039 -1.56253 0
M  V30 2873 H 271.35 1.82692 -3.46034 0
M  V30 2874 H 270.973 3.17236 -2.39681 0
M  V30 2875 N 271.97 1.30982 0.876444 0
M  V30 2876 C 273.195 1.23373 1.66715 0
M  V30 2877 C 273.62 -0.19885 1.87046 0
M  V30 2878 O 272.978 -1.1427 1.40756 0
M  V30 2879 C 273.026 1.97644 3.01611 0
M  V30 2880 O 272.13 1.30935 3.91062 0
M  V30 2881 H 271.471 0.426279 0.509099 0
M  V30 2882 H 274.001 1.72944 1.09323 0
M  V30 2883 H 274.011 2.06992 3.51594 0
M  V30 2884 H 272.686 3.01829 2.86133 0
M  V30 2885 H 271.263 1.29996 3.49507 0
M  V30 2886 N 273.449 -1.08991 1.13837 0
M  V30 2887 C 274.674 -1.85551 0.926585 0
M  V30 2888 C 275.099 -1.80782 -0.519566 0
M  V30 2889 O 274.457 -1.18855 -1.36906 0
M  V30 2890 C 274.505 -3.31266 1.42462 0
M  V30 2891 O 273.609 -4.07822 0.612789 0
M  V30 2892 H 272.95 -0.575192 0.331738 0
M  V30 2893 H 275.48 -1.37604 1.51414 0
M  V30 2894 H 275.49 -3.82112 1.43019 0
M  V30 2895 H 274.165 -3.34052 2.47754 0
M  V30 2896 H 272.742 -3.66731 0.675463 0
M  V30 2897 N 274.927 -0.932562 -1.27047 0
M  V30 2898 C 275.875 -0.42603 -2.28665 0
M  V30 2899 C 276.869 0.49219 -1.62092 0
M  V30 2900 O 278.075 0.371355 -1.76128 0
M  V30 2901 H 274.45 -0.119213 -0.742491 0
M  V30 2902 H 276.421 -1.29579 -2.68797 0
M  V30 2903 C 275.17 0.301426 -3.46391 0
M  V30 2904 H 274.493 -0.39595 -3.97834 0
M  V30 2905 H 275.933 0.6202 -4.1944 0
M  V30 2906 C 274.392 1.51616 -3.00856 0
M  V30 2907 O 274.922 2.61476 -3.04948 0
M  V30 2908 N 273.128 1.36969 -2.56296 0
M  V30 2909 H 272.675 0.475873 -2.53166 0
M  V30 2910 H 272.633 2.18368 -2.26192 0
M  V30 2911 N 276.405 1.4127 -0.698611 0
M  V30 2912 C 277.816 1.84187 -0.305289 0
M  V30 2913 C 278.167 1.58449 1.15708 0
M  V30 2914 O 277.292 1.05651 1.88856 0
M  V30 2915 C 277.887 3.3435 -0.547314 0
M  V30 2916 C 276.446 3.75826 -0.207878 0
M  V30 2917 C 275.593 2.64647 -0.828099 0
M  V30 2918 H 278.544 1.30778 -0.89904 0
M  V30 2919 H 278.565 3.8001 0.192998 0
M  V30 2920 H 278.077 3.53051 -1.61172 0
M  V30 2921 H 276.178 3.62725 0.852143 0
M  V30 2922 H 276.291 4.74462 -0.665021 0
M  V30 2923 H 274.655 2.53395 -0.257458 0
M  V30 2924 H 275.438 2.86165 -1.89643 0
M  V30 2925 N 277.883 0.443576 1.51229 0
M  V30 2926 C 279.299 0.0962001 1.5931 0
M  V30 2927 C 279.499 -1.39501 1.45402 0
M  V30 2928 O 278.555 -2.16557 1.29843 0
M  V30 2929 C 279.868 0.621875 2.94199 0
M  V30 2930 C 281.416 0.582865 3.07525 0
M  V30 2931 C 281.891 1.08562 4.44948 0
M  V30 2932 N 283.382 1.04387 4.51284 0
M  V30 2933 C 284.117 1.40368 5.55954 0
M  V30 2934 N 283.613 1.83664 6.68011 0
M  V30 2935 N 285.406 1.32145 5.46346 0
M  V30 2936 H 277.557 1.41376 1.58514 0
M  V30 2937 H 279.82 0.582965 0.747567 0
M  V30 2938 H 279.526 1.66546 3.09767 0
M  V30 2939 H 279.4 0.0502125 3.77167 0
M  V30 2940 H 281.787 -0.451749 2.91622 0
M  V30 2941 H 281.868 1.191 2.26382 0
M  V30 2942 H 281.512 2.11873 4.61598 0
M  V30 2943 H 281.442 0.453956 5.2464 0
M  V30 2944 H 283.933 0.725986 3.70861 0
M  V30 2945 H 284.246 2.0934 7.43906 0
M  V30 2946 H 282.591 1.87596 6.69203 0
M  V30 2947 H 285.782 0.981808 4.57688 0
M  V30 2948 H 285.955 1.60514 6.27805 0
M  V30 2949 N 279.361 -1.56624 0.175154 0
M  V30 2950 C 280.293 -2.15333 -0.785128 0
M  V30 2951 C 281.306 -1.1099 -1.19101 0
M  V30 2952 O 282.495 -1.38162 -1.13019 0
M  V30 2953 C 279.595 -2.68427 -2.06882 0
M  V30 2954 C 278.768 -3.97466 -1.8259 0
M  V30 2955 C 277.827 -4.35585 -2.95215 0
M  V30 2956 O 276.853 -5.03389 -2.65684 0
M  V30 2957 N 278.055 -3.97457 -4.23094 0
M  V30 2958 H 280.82 -2.98359 -0.283187 0
M  V30 2959 H 278.381 -1.61898 -0.00749817 0
M  V30 2960 H 280.373 -2.90924 -2.81328 0
M  V30 2961 H 278.943 -1.89968 -2.48256 0
M  V30 2962 H 278.163 -3.83307 -0.920287 0
M  V30 2963 H 279.451 -4.81736 -1.63733 0
M  V30 2964 H 278.849 -3.42878 -4.49945 0
M  V30 2965 H 277.406 -4.24947 -4.9423 0
M  V30 2966 N 280.839 0.0985539 -1.57292 0
M  V30 2967 C 281.787 1.1387 -2.02821 0
M  V30 2968 C 282.781 1.41676 -0.928666 0
M  V30 2969 O 283.987 1.41398 -1.11385 0
M  V30 2970 H 280.362 0.384419 -0.646317 0
M  V30 2971 H 282.333 0.728347 -2.89375 0
M  V30 2972 C 281.082 2.45166 -2.46554 0
M  V30 2973 H 280.405 2.24613 -3.3074 0
M  V30 2974 H 281.845 3.16456 -2.8219 0
M  V30 2975 C 280.304 3.09216 -1.33742 0
M  V30 2976 O 280.834 3.96163 -0.66464 0
M  V30 2977 N 279.04 2.69413 -1.08928 0
M  V30 2978 H 278.587 1.98801 -1.63817 0
M  V30 2979 H 278.545 3.12594 -0.336458 0
M  V30 2980 N 282.317 1.53212 0.369288 0
M  V30 2981 C 283.563 1.70413 1.11046 0
M  V30 2982 C 283.918 0.448509 1.87099 0
M  V30 2983 O 283.211 -0.558382 1.83283 0
M  V30 2984 C 283.405 2.89101 2.10132 0
M  V30 2985 C 283.234 4.26084 1.43814 0
M  V30 2986 C 282.004 4.90994 1.19384 0
M  V30 2987 C 284.202 5.06754 0.877802 0
M  V30 2988 N 282.184 6.11911 0.49377 0
M  V30 2989 C 283.555 6.1924 0.306891 0
M  V30 2990 C 285.61 4.91814 0.776129 0
M  V30 2991 C 284.313 7.1842 -0.355774 0
M  V30 2992 C 286.339 5.91263 0.127252 0
M  V30 2993 C 285.701 7.03069 -0.432801 0
M  V30 2994 H 281.8 0.676872 0.391623 0
M  V30 2995 H 284.384 1.90603 0.397334 0
M  V30 2996 H 282.555 2.70456 2.78761 0
M  V30 2997 H 284.287 2.95142 2.76899 0
M  V30 2998 H 281.042 4.50074 1.47413 0
M  V30 2999 H 281.466 6.76813 0.159207 0
M  V30 3000 H 286.108 4.05564 1.19489 0
M  V30 3001 H 283.826 8.04264 -0.786499 0
M  V30 3002 H 287.412 5.81779 0.0495613 0
M  V30 3003 H 286.292 7.78702 -0.926958 0
M  V30 3004 N 283.795 -0.628877 1.44509 0
M  V30 3005 C 284.743 -1.76193 1.51852 0
M  V30 3006 C 285.737 -1.64849 0.390042 0
M  V30 3007 O 286.943 -1.709 0.565082 0
M  V30 3008 H 283.318 -0.581728 0.476547 0
M  V30 3009 H 285.289 -1.67123 2.47209 0
M  V30 3010 C 284.038 -3.14533 1.48204 0
M  V30 3011 H 283.361 -3.23911 2.34354 0
M  V30 3012 H 284.801 -3.93701 1.57402 0
M  V30 3013 C 283.26 -3.36287 0.203142 0
M  V30 3014 O 283.79 -3.9509 -0.725745 0
M  V30 3015 N 281.996 -2.90408 0.105563 0
M  V30 3016 H 281.543 -2.42739 0.862301 0
M  V30 3017 H 281.501 -3.05339 -0.749371 0
M  V30 3018 N 285.273 -1.31445 -0.869486 0
M  V30 3019 C 286.55 -1.11795 -1.60503 0
M  V30 3020 C 286.93 0.327168 -2.08549 0
M  V30 3021 O 286.278 1.32135 -1.8642 0
M  V30 3022 C 286.488 -2.13258 -2.76265 0
M  V30 3023 C 287.836 -2.45805 -3.46215 0
M  V30 3024 O 288.86 -2.11688 -2.86473 0
M  V30 3025 O 287.719 -3.04228 -4.5399 0
M  V30 3026 H 284.813 -0.430421 -0.706163 0
M  V30 3027 H 287.359 -1.42925 -0.914907 0
M  V30 3028 H 286.131 -3.10461 -2.3818 0
M  V30 3029 H 285.754 -1.83035 -3.52964 0
M  V30 3030 N 286.751 1.08385 -1.14413 0
M  V30 3031 C 287.997 1.81044 -0.913834 0
M  V30 3032 C 288.33 1.86004 0.558209 0
M  V30 3033 O 287.605 1.33606 1.4135 0
M  V30 3034 C 287.888 3.26648 -1.51569 0
M  V30 3035 C 287.741 3.29895 -3.0576 0
M  V30 3036 C 289.06 4.23629 -1.19273 0
M  V30 3037 H 286.179 0.65727 -0.333414 0
M  V30 3038 H 288.821 1.26896 -1.41412 0
M  V30 3039 H 286.971 3.72889 -1.09023 0
M  V30 3040 H 288.643 2.91977 -3.57137 0
M  V30 3041 H 286.886 2.69163 -3.40197 0
M  V30 3042 H 287.557 4.32516 -3.42977 0
M  V30 3043 H 290.033 3.85727 -1.56057 0
M  V30 3044 H 288.909 5.23822 -1.64017 0
M  V30 3045 H 289.17 4.41968 -0.108068 0
M  V30 3046 N 288.23 0.939286 1.26551 0
M  V30 3047 C 289.458 0.602536 1.97932 0
M  V30 3048 C 289.873 -0.82206 1.69964 0
M  V30 3049 O 289.23 -1.54789 0.966784 0
M  V30 3050 C 289.281 0.832946 3.51773 0
M  V30 3051 O 289.002 2.20151 3.78768 0
M  V30 3052 C 290.503 0.506483 4.40397 0
M  V30 3053 H 287.723 0.227248 0.631347 0
M  V30 3054 H 290.267 1.25948 1.61113 0
M  V30 3055 H 288.422 0.222644 3.8676 0
M  V30 3056 H 288.836 2.26013 4.73306 0
M  V30 3057 H 290.31 0.718333 5.47306 0
M  V30 3058 H 290.787 -0.558451 4.35635 0
M  V30 3059 H 291.393 1.09543 4.10951 0
M  V30 3060 N 289.708 -1.40897 0.706093 0
M  V30 3061 C 290.948 -2.02916 0.245827 0
M  V30 3062 C 291.312 -1.54751 -1.13649 0
M  V30 3063 O 292.513 -2.08768 -1.69321 0
M  V30 3064 C 290.784 -3.56031 0.312537 0
M  V30 3065 S 292.343 -4.38741 -0.0721388 0
M  V30 3066 H 289.161 -0.704186 0.0982007 0
M  V30 3067 H 291.763 -1.72168 0.926207 0
M  V30 3068 H 290.467 -3.88579 1.32039 0
M  V30 3069 H 289.998 -3.91495 -0.386641 0
M  V30 3070 H 292.013 -4.78952 -1.29692 0
M  V30 3071 N 291.186 -0.45159 -1.50991 0
M  V30 3072 C 292.433 0.110074 -2.02201 0
M  V30 3073 C 292.761 1.4146 -1.33489 0
M  V30 3074 O 292.016 1.90617 -0.443125 0
M  V30 3075 C 292.315 0.361728 -3.55565 0
M  V30 3076 C 291.981 -0.858717 -4.42648 0
M  V30 3077 C 290.643 -1.19338 -4.66167 0
M  V30 3078 C 292.995 -1.67221 -4.93646 0
M  V30 3079 C 290.323 -2.34195 -5.37931 0
M  V30 3080 C 292.675 -2.8119 -5.6667 0
M  V30 3081 C 291.339 -3.15094 -5.88449 0
M  V30 3082 H 290.609 0.040279 -0.739904 0
M  V30 3083 H 293.256 -0.601696 -1.81802 0
M  V30 3084 H 291.561 1.15554 -3.74372 0
M  V30 3085 H 293.258 0.80996 -3.92735 0
M  V30 3086 H 289.848 -0.58796 -4.24548 0
M  V30 3087 H 294.032 -1.42686 -4.75347 0
M  V30 3088 H 289.288 -2.6076 -5.53005 0
M  V30 3089 H 293.462 -3.44585 -6.05173 0
M  V30 3090 H 291.089 -4.04204 -6.43835 0
M  V30 3091 N 292.664 1.56529 -0.183458 0
M  V30 3092 C 293.594 2.21549 0.737456 0
M  V30 3093 C 294.575 1.17489 1.23005 0
M  V30 3094 O 295.76 1.45959 1.281 0
M  V30 3095 C 292.89 2.86575 1.96194 0
M  V30 3096 C 291.844 3.96778 1.60473 0
M  V30 3097 C 291.17 4.48911 2.90487 0
M  V30 3098 C 292.47 5.15767 0.823497 0
M  V30 3099 H 294.164 2.98761 0.195453 0
M  V30 3100 H 291.71 1.43702 0.0925686 0
M  V30 3101 H 293.663 3.30739 2.61131 0
M  V30 3102 H 292.387 2.06749 2.52828 0
M  V30 3103 H 291.046 3.53286 0.978997 0
M  V30 3104 H 290.694 3.65862 3.45186 0
M  V30 3105 H 290.394 5.23265 2.67335 0
M  V30 3106 H 291.918 4.95771 3.56432 0
M  V30 3107 H 293.332 5.56549 1.37571 0
M  V30 3108 H 291.729 5.96114 0.690551 0
M  V30 3109 H 292.799 4.84574 -0.177782 0
M  V30 3110 N 294.142 -0.090211 1.57342 0
M  V30 3111 C 295.09 -1.12792 2.03422 0
M  V30 3112 C 296.084 -1.41182 0.936166 0
M  V30 3113 O 297.29 -1.40805 1.12133 0
M  V30 3114 H 293.665 -0.380986 0.648347 0
M  V30 3115 H 295.636 -0.71299 2.89757 0
M  V30 3116 C 294.385 -2.43855 2.47851 0
M  V30 3117 H 293.708 -2.22855 3.31927 0
M  V30 3118 H 295.148 -3.14955 2.83865 0
M  V30 3119 C 293.607 -3.08503 1.3538 0
M  V30 3120 O 294.137 -3.95805 0.685641 0
M  V30 3121 N 292.343 -2.68831 1.10355 0
M  V30 3122 H 291.89 -1.97929 1.64869 0
M  V30 3123 H 291.848 -3.12412 0.353031 0
M  V30 3124 N 295.62 -1.53406 -0.361157 0
M  V30 3125 C 296.85 -1.73465 -1.1222 0
M  V30 3126 C 297.258 -0.465486 -1.83384 0
M  V30 3127 O 296.601 0.571611 -1.7458 0
M  V30 3128 C 296.663 -2.84834 -2.19339 0
M  V30 3129 C 296.327 -4.25038 -1.67903 0
M  V30 3130 C 297.324 -5.07231 -1.14074 0
M  V30 3131 C 295.009 -4.71464 -1.73282 0
M  V30 3132 C 297.003 -6.33942 -0.663068 0
M  V30 3133 C 294.69 -5.98153 -1.25127 0
M  V30 3134 C 295.688 -6.79223 -0.717296 0
M  V30 3135 O 295.376 -8.03533 -0.242865 0
M  V30 3136 H 295.108 -0.583526 -0.341283 0
M  V30 3137 H 297.662 -2.00964 -0.424591 0
M  V30 3138 H 295.892 -2.5282 -2.92607 0
M  V30 3139 H 297.581 -2.9303 -2.80871 0
M  V30 3140 H 298.347 -4.72534 -1.09254 0
M  V30 3141 H 294.226 -4.08432 -2.13786 0
M  V30 3142 H 297.77 -6.97167 -0.245612 0
M  V30 3143 H 293.667 -6.32347 -1.29642 0
M  V30 3144 H 294.435 -8.177 -0.361786 0
M  V30 3145 N 297.098 0.621204 -1.44841 0
M  V30 3146 C 298.345 1.38055 -1.48145 0
M  V30 3147 C 298.673 1.94143 -0.117867 0
M  V30 3148 O 297.928 1.74713 0.881694 0
M  V30 3149 C 298.227 2.55675 -2.4973 0
M  V30 3150 C 297.893 2.17817 -3.94799 0
M  V30 3151 C 296.555 2.07205 -4.34303 0
M  V30 3152 C 298.907 1.88065 -4.86087 0
M  V30 3153 C 296.235 1.65045 -5.63007 0
M  V30 3154 C 298.587 1.47394 -6.15189 0
M  V30 3155 C 297.251 1.35331 -6.53637 0
M  V30 3156 H 296.521 0.505181 -0.542101 0
M  V30 3157 H 299.168 0.703477 -1.78111 0
M  V30 3158 H 297.473 3.2866 -2.13284 0
M  V30 3159 H 299.17 3.13904 -2.4953 0
M  V30 3160 H 295.76 2.26998 -3.63552 0
M  V30 3161 H 299.944 1.95168 -4.56315 0
M  V30 3162 H 295.2 1.54317 -5.91605 0
M  V30 3163 H 299.374 1.23415 -6.85377 0
M  V30 3164 H 297.001 1.02435 -7.53267 0
M  V30 3165 N 298.576 1.31904 0.862503 0
M  V30 3166 C 299.992 1.10724 1.14945 0
M  V30 3167 C 300.192 -0.117421 2.01158 0
M  V30 3168 O 299.248 -0.804595 2.39338 0
M  V30 3169 C 300.561 2.38267 1.83437 0
M  V30 3170 C 302.109 2.43949 1.96106 0
M  V30 3171 C 302.584 3.71394 2.68013 0
M  V30 3172 N 304.075 3.72331 2.75543 0
M  V30 3173 C 304.81 4.67641 3.31812 0
M  V30 3174 N 304.306 5.73313 3.88953 0
M  V30 3175 N 306.099 4.5515 3.29841 0
M  V30 3176 H 298.25 2.10436 0.288191 0
M  V30 3177 H 300.513 0.928705 0.190292 0
M  V30 3178 H 300.219 3.27759 1.27542 0
M  V30 3179 H 300.093 2.48633 2.83657 0
M  V30 3180 H 302.48 1.54922 2.51164 0
M  V30 3181 H 302.561 2.37543 0.949059 0
M  V30 3182 H 302.205 4.60791 2.13621 0
M  V30 3183 H 302.135 3.75069 3.69636 0
M  V30 3184 H 304.626 2.95947 2.34997 0
M  V30 3185 H 304.939 6.42107 4.30022 0
M  V30 3186 H 303.284 5.77077 3.87308 0
M  V30 3187 H 306.475 3.71766 2.84443 0
M  V30 3188 H 306.648 5.29604 3.73394 0
M  V30 3189 N 300.054 -1.07777 1.14986 0
M  V30 3190 C 301.303 -1.79669 0.916617 0
M  V30 3191 C 301.616 -1.87474 -0.557917 0
M  V30 3192 O 302.822 -2.55845 -0.908617 0
M  V30 3193 C 301.278 -3.22848 1.59051 0
M  V30 3194 C 300.886 -3.23257 3.10176 0
M  V30 3195 C 302.63 -3.99379 1.43864 0
M  V30 3196 C 300.537 -4.61063 3.70372 0
M  V30 3197 H 299.467 -0.673349 0.33929 0
M  V30 3198 H 302.118 -1.21003 1.37951 0
M  V30 3199 H 300.5 -3.8168 1.0553 0
M  V30 3200 H 301.674 -2.74095 3.70417 0
M  V30 3201 H 299.989 -2.60222 3.25074 0
M  V30 3202 H 302.586 -5.0122 1.86232 0
M  V30 3203 H 302.929 -4.14511 0.385564 0
M  V30 3204 H 303.462 -3.47032 1.94457 0
M  V30 3205 H 300.201 -4.51135 4.7556 0
M  V30 3206 H 299.721 -5.1048 3.14913 0
M  V30 3207 H 301.4 -5.30034 3.71043 0
M  V30 3208 N 301.532 -0.945985 -1.26051 0
M  V30 3209 C 302.772 -0.603665 -1.95282 0
M  V30 3210 C 303.136 0.842377 -1.72534 0
M  V30 3211 O 304.337 1.29387 -2.35611 0
M  V30 3212 C 302.608 -0.942292 -3.44754 0
M  V30 3213 S 304.167 -0.711242 -4.32997 0
M  V30 3214 H 300.985 -0.222176 -0.675395 0
M  V30 3215 H 303.587 -1.21832 -1.52896 0
M  V30 3216 H 302.291 -1.99203 -3.58812 0
M  V30 3217 H 301.822 -0.317546 -3.92116 0
M  V30 3218 H 303.837 0.422221 -4.944 0
M  V30 3219 N 303.011 1.40521 -0.713556 0
M  V30 3220 C 303.921 2.34522 -0.0606667 0
M  V30 3221 C 304.937 1.57193 0.74607 0
M  V30 3222 O 306.113 1.89591 0.679493 0
M  V30 3223 C 303.178 3.36081 0.851491 0
M  V30 3224 C 302.239 4.29286 0.0349339 0
M  V30 3225 C 301.472 5.25994 0.903649 0
M  V30 3226 O 301.695 5.28616 2.14292 0
M  V30 3227 O 300.629 6.00918 0.343723 0
M  V30 3228 H 304.455 2.91968 -0.835972 0
M  V30 3229 H 302.04 1.41681 -0.47402 0
M  V30 3230 H 303.922 3.98369 1.37404 0
M  V30 3231 H 302.597 2.81052 1.60598 0
M  V30 3232 H 301.504 3.70289 -0.532633 0
M  V30 3233 H 302.837 4.87462 -0.681287 0
M  V30 3234 N 304.489 0.459591 1.5075 0
M  V30 3235 C 305.422 -0.386257 2.24907 0
M  V30 3236 C 306.4 -1.006 1.27744 0
M  V30 3237 O 307.584 -1.04416 1.56938 0
M  V30 3238 C 304.711 -1.54021 3.01654 0
M  V30 3239 C 303.757 -1.03898 4.13651 0
M  V30 3240 S 304.59 0.0370501 5.35487 0
M  V30 3241 C 305.746 -1.12105 6.15779 0
M  V30 3242 H 305.979 0.243272 2.96303 0
M  V30 3243 H 303.512 0.244339 1.52454 0
M  V30 3244 H 305.47 -2.20163 3.46466 0
M  V30 3245 H 304.131 -2.14121 2.29806 0
M  V30 3246 H 303.324 -1.90254 4.66711 0
M  V30 3247 H 302.926 -0.45545 3.71216 0
M  V30 3248 H 305.218 -2.03501 6.46215 0
M  V30 3249 H 306.161 -0.62995 7.05292 0
M  V30 3250 H 306.569 -1.36967 5.47631 0
M  V30 3251 N 305.967 -1.56429 0.191757 0
M  V30 3252 C 307.213 -1.97777 -0.448554 0
M  V30 3253 C 307.546 -1.07847 -1.61501 0
M  V30 3254 O 306.821 -0.129774 -1.94067 0
M  V30 3255 C 307.104 -3.48362 -0.911906 0
M  V30 3256 C 306.957 -4.4907 0.256136 0
M  V30 3257 C 308.276 -4.02561 -1.77857 0
M  V30 3258 H 305.395 -0.719071 -0.161572 0
M  V30 3259 H 308.037 -1.87896 0.282007 0
M  V30 3260 H 306.187 -3.56914 -1.53442 0
M  V30 3261 H 307.859 -4.5256 0.893733 0
M  V30 3262 H 306.102 -4.24181 0.908436 0
M  V30 3263 H 306.773 -5.51889 -0.11053 0
M  V30 3264 H 309.249 -3.96767 -1.25359 0
M  V30 3265 H 308.125 -5.08301 -2.07174 0
M  V30 3266 H 308.386 -3.47616 -2.73158 0
M  V30 3267 N 307.445 0.0818655 -1.57387 0
M  V30 3268 C 308.693 0.781368 -1.86384 0
M  V30 3269 C 309.014 1.78618 -0.782342 0
M  V30 3270 O 308.284 1.94976 0.190061 0
M  V30 3271 H 306.864 0.291562 -0.687751 0
M  V30 3272 H 309.526 0.060348 -1.94807 0
M  V30 3273 H 308.622 1.3038 -2.83562 0
M  V30 3274 N 308.923 1.53595 0.353017 0
M  V30 3275 C 310.172 1.69603 1.09168 0
M  V30 3276 C 310.485 0.460925 1.90092 0
M  V30 3277 O 311.691 0.501774 2.66823 0
M  V30 3278 C 310.147 2.99872 1.9901 0
M  V30 3279 C 309.755 4.30687 1.23339 0
M  V30 3280 C 311.499 3.25246 2.72792 0
M  V30 3281 C 309.406 5.52036 2.12156 0
M  V30 3282 H 308.336 0.631966 0.411261 0
M  V30 3283 H 310.987 1.80096 0.351802 0
M  V30 3284 H 309.369 2.83212 2.7678 0
M  V30 3285 H 310.543 4.58019 0.505456 0
M  V30 3286 H 308.858 4.11853 0.613663 0
M  V30 3287 H 311.455 4.13095 3.39495 0
M  V30 3288 H 311.798 2.41846 3.38846 0
M  V30 3289 H 312.331 3.42638 2.021 0
M  V30 3290 H 309.07 6.37951 1.50659 0
M  V30 3291 H 308.59 5.28966 2.82764 0
M  V30 3292 H 310.269 5.87313 2.71427 0
M  V30 3293 N 310.401 -0.613514 1.45168 0
M  V30 3294 C 311.349 -1.74572 1.53712 0
M  V30 3295 C 312.343 -1.64426 0.407505 0
M  V30 3296 O 313.549 -1.70291 0.583176 0
M  V30 3297 H 309.924 -0.576641 0.48269 0
M  V30 3298 H 311.895 -1.64492 2.48968 0
M  V30 3299 C 310.644 -3.12943 1.51532 0
M  V30 3300 H 309.967 -3.21407 2.37776 0
M  V30 3301 H 311.407 -3.9201 1.61569 0
M  V30 3302 C 309.866 -3.36053 0.238798 0
M  V30 3303 O 310.396 -3.95837 -0.6838 0
M  V30 3304 N 308.602 -2.9028 0.136359 0
M  V30 3305 H 308.149 -2.41811 0.887999 0
M  V30 3306 H 308.107 -3.06116 -0.716944 0
M  V30 3307 N 311.879 -1.3236 -0.855495 0
M  V30 3308 C 313.29 -1.2056 -1.42556 0
M  V30 3309 C 313.641 0.182209 -1.95352 0
M  V30 3310 O 312.766 1.08088 -1.87472 0
M  V30 3311 C 313.361 -2.1826 -2.59129 0
M  V30 3312 C 311.92 -2.10351 -3.12137 0
M  V30 3313 C 311.067 -2.06674 -1.84882 0
M  V30 3314 H 314.018 -1.442 -0.662727 0
M  V30 3315 H 314.039 -1.78064 -3.36264 0
M  V30 3316 H 313.551 -3.19257 -2.20673 0
M  V30 3317 H 311.652 -1.12599 -3.55179 0
M  V30 3318 H 311.765 -3.00135 -3.73438 0
M  V30 3319 H 310.129 -1.51901 -2.04446 0
M  V30 3320 H 310.912 -3.09451 -1.48643 0
M  V30 3321 N 313.357 1.07166 -1.15556 0
M  V30 3322 C 314.287 2.16403 -0.877046 0
M  V30 3323 C 315.268 1.69217 0.173111 0
M  V30 3324 O 316.453 1.94181 0.027084 0
M  V30 3325 C 313.583 3.45349 -0.367632 0
M  V30 3326 C 312.537 4.05995 -1.35468 0
M  V30 3327 C 311.863 5.30045 -0.704038 0
M  V30 3328 C 313.163 4.45804 -2.72132 0
M  V30 3329 H 314.857 2.39959 -1.79053 0
M  V30 3330 H 312.403 1.15325 -0.862331 0
M  V30 3331 H 314.356 4.21095 -0.160317 0
M  V30 3332 H 313.08 3.21385 0.581326 0
M  V30 3333 H 311.739 3.32296 -1.54839 0
M  V30 3334 H 311.387 5.02373 0.251128 0
M  V30 3335 H 311.087 5.71579 -1.36277 0
M  V30 3336 H 312.611 6.08495 -0.50654 0
M  V30 3337 H 314.025 5.12671 -2.56595 0
M  V30 3338 H 312.422 4.98296 -3.34397 0
M  V30 3339 H 313.492 3.57083 -3.28054 0
M  V30 3340 N 314.835 0.952656 1.25548 0
M  V30 3341 C 315.783 0.462354 2.27958 0
M  V30 3342 C 316.777 -0.46634 1.62855 0
M  V30 3343 O 317.983 -0.343287 1.76696 0
M  V30 3344 H 314.358 0.13101 0.7405 0
M  V30 3345 H 316.329 1.33839 2.66702 0
M  V30 3346 C 315.078 -0.24628 3.46827 0
M  V30 3347 H 314.401 0.459192 3.97154 0
M  V30 3348 H 315.841 -0.553393 4.20373 0
M  V30 3349 C 314.3 -1.4681 3.0323 0
M  V30 3350 O 314.83 -2.56591 3.09069 0
M  V30 3351 N 313.036 -1.32874 2.58443 0
M  V30 3352 H 312.583 -0.435536 2.53891 0
M  V30 3353 H 312.541 -2.14742 2.29637 0
M  V30 3354 N 316.313 -1.40141 0.720998 0
M  V30 3355 C 317.26 -2.30688 0.071919 0
M  V30 3356 C 318.23 -1.48476 -0.744584 0
M  V30 3357 O 319.415 -1.77201 -0.707423 0
M  V30 3358 C 316.555 -3.34724 -0.839855 0
M  V30 3359 C 315.668 -4.31998 -0.0122438 0
M  V30 3360 C 314.803 -5.23102 -0.923995 0
M  V30 3361 C 313.842 -6.12033 -0.0907969 0
M  V30 3362 N 312.979 -6.95537 -0.957718 0
M  V30 3363 H 317.819 -2.85628 0.849755 0
M  V30 3364 H 315.356 -1.40653 0.430726 0
M  V30 3365 H 317.314 -3.93618 -1.38279 0
M  V30 3366 H 315.944 -2.81274 -1.58381 0
M  V30 3367 H 314.996 -3.74841 0.64794 0
M  V30 3368 H 316.308 -4.94772 0.632595 0
M  V30 3369 H 315.462 -5.86953 -1.53527 0
M  V30 3370 H 314.201 -4.60615 -1.60264 0
M  V30 3371 H 313.206 -5.47207 0.533377 0
M  V30 3372 H 314.431 -6.76581 0.584428 0
M  V30 3373 H 312.377 -6.35633 -1.62192 0
M  V30 3374 H 312.294 -7.55099 -0.36904 0
M  V30 3375 H 313.562 -7.63832 -1.555 0
M  V30 3376 N 317.792 -0.46758 -1.50504 0
M  V30 3377 C 319.04 0.0884469 -2.01906 0
M  V30 3378 C 319.361 1.40532 -1.35188 0
M  V30 3379 O 318.631 1.89515 -0.496079 0
M  V30 3380 H 317.211 0.0356765 -0.746148 0
M  V30 3381 H 319.873 -0.6172 -1.84869 0
M  V30 3382 H 318.969 0.2425 -3.11156 0
M  V30 3383 N 319.27 1.56325 -0.20005 0
M  V30 3384 C 320.217 2.1932 0.718833 0
M  V30 3385 C 321.187 1.14198 1.20615 0
M  V30 3386 O 322.372 1.42469 1.26914 0
M  V30 3387 C 319.512 2.86041 1.93066 0
M  V30 3388 C 318.625 4.05702 1.48425 0
M  V30 3389 C 317.76 4.60266 2.65196 0
M  V30 3390 C 316.799 5.72273 2.17185 0
M  V30 3391 N 315.936 6.21221 3.27152 0
M  V30 3392 H 320.776 2.97486 0.17489 0
M  V30 3393 H 318.313 1.46911 0.0745794 0
M  V30 3394 H 320.271 3.22897 2.64184 0
M  V30 3395 H 318.901 2.1043 2.44783 0
M  V30 3396 H 317.953 3.74475 0.668755 0
M  V30 3397 H 319.265 4.86699 1.09204 0
M  V30 3398 H 318.419 4.99453 3.4443 0
M  V30 3399 H 317.158 3.78386 3.07693 0
M  V30 3400 H 316.163 5.3261 1.36407 0
M  V30 3401 H 317.388 6.55974 1.75713 0
M  V30 3402 H 315.334 5.42263 3.69171 0
M  V30 3403 H 315.251 6.97284 2.92116 0
M  V30 3404 H 316.519 6.65063 4.06585 0
M  V30 3405 N 320.748 -0.0735177 1.57428 0
M  V30 3406 C 321.973 -0.789787 1.91774 0
M  V30 3407 C 322.398 -1.70413 0.796306 0
M  V30 3408 O 321.756 -1.79555 -0.250961 0
M  V30 3409 C 321.804 -1.5609 3.25067 0
M  V30 3410 O 320.908 -2.67144 3.14178 0
M  V30 3411 H 320.249 -0.215582 0.628029 0
M  V30 3412 H 322.779 -0.0422781 2.04556 0
M  V30 3413 H 322.789 -1.94052 3.58898 0
M  V30 3414 H 321.464 -0.890015 4.06265 0
M  V30 3415 H 320.041 -2.32052 2.91901 0
M  V30 3416 N 322.226 -1.5378 -0.344866 0
M  V30 3417 C 323.156 -1.84662 -1.42906 0
M  V30 3418 C 324.137 -0.701648 -1.54955 0
M  V30 3419 O 325.322 -0.953438 -1.69184 0
M  V30 3420 C 322.452 -2.05503 -2.79974 0
M  V30 3421 C 321.406 -3.21318 -2.82734 0
M  V30 3422 C 320.732 -3.2749 -4.22675 0
M  V30 3423 C 322.032 -4.59456 -2.48389 0
M  V30 3424 H 323.726 -2.75461 -1.17311 0
M  V30 3425 H 321.272 -1.32542 -0.562896 0
M  V30 3426 H 323.225 -2.25691 -3.55867 0
M  V30 3427 H 321.949 -1.11434 -3.07002 0
M  V30 3428 H 320.608 -3.00984 -2.09294 0
M  V30 3429 H 320.256 -2.31019 -4.4681 0
M  V30 3430 H 319.956 -4.05316 -4.25433 0
M  V30 3431 H 321.48 -3.49887 -5.00412 0
M  V30 3432 H 322.894 -4.79667 -3.13995 0
M  V30 3433 H 321.291 -5.39675 -2.62432 0
M  V30 3434 H 322.361 -4.63155 -1.4358 0
M  V30 3435 O 323.743 0.490843 -1.5386 0
M  V30 3436 H 324.434 1.14557 -1.56193 0
M  V30 END ATOM
M  V30 BEGIN BOND
M  V30 END BOND
M  V30 END CTAB
M  END
$$$$
