drugbank_target|Q9ULU8 Calcium-dependent secretion activator 1 (DB11093; DB11348; DB14481)
 OpenBabel12092121053D

  0  0  0     0  0            999 V3000
M  V30 BEGIN CTAB
M  V30 COUNTS 21317 21530 0 0 0
M  V30 BEGIN ATOM
M  V30 1 H -0.908 1.98254 -0.117106 0
M  V30 2 N 0 1.576 0 0
M  V30 3 C 0.933 2.03868 1.02534 0
M  V30 4 C 1.911 0.928543 1.3348 0
M  V30 5 O 3.095 1.19667 1.45644 0
M  V30 6 C 0.222 2.43627 2.35294 0
M  V30 7 C -0.732 3.65373 2.2001 0
M  V30 8 S 0.101 5.13292 1.52614 0
M  V30 9 C 1.257 5.56322 2.86805 0
M  V30 10 H 1.49 2.90518 0.631377 0
M  V30 11 H -0.977 1.52953 0.210867 0
M  V30 12 H 0.981 2.67203 3.11629 0
M  V30 13 H -0.358 1.57376 2.7183 0
M  V30 14 H -1.165 3.90944 3.18086 0
M  V30 15 H -1.563 3.418 1.51819 0
M  V30 16 H 0.729 5.58782 3.83104 0
M  V30 17 H 1.672 6.56266 2.65933 0
M  V30 18 H 2.08 4.83886 2.90714 0
M  V30 19 N 1.4781 -0.272755 1.55222 0
M  V30 20 C 2.4081 -1.34136 1.91127 0
M  V30 21 C 3.3891 -1.51513 0.773168 0
M  V30 22 O 4.5741 -1.64552 1.03132 0
M  V30 23 C 1.7041 -2.70083 2.1834 0
M  V30 24 C 0.6581 -2.67437 3.34158 0
M  V30 25 C -0.0159 -4.06938 3.46851 0
M  V30 26 C 1.2841 -2.26686 4.70543 0
M  V30 27 H 2.9781 -1.04333 2.80633 0
M  V30 28 H 0.5241 -0.500454 1.35024 0
M  V30 29 H 2.4771 -3.44952 2.42046 0
M  V30 30 H 1.2011 -3.01469 1.25634 0
M  V30 31 H -0.1399 -1.95026 3.1042 0
M  V30 32 H -0.4919 -4.35547 2.51611 0
M  V30 33 H -0.7919 -4.06062 4.2472 0
M  V30 34 H 0.7321 -4.83545 3.72849 0
M  V30 35 H 2.1461 -2.91277 4.93792 0
M  V30 36 H 0.5431 -2.36971 5.5133 0
M  V30 37 H 1.6131 -1.21818 4.69349 0
M  V30 38 N 2.9562 -1.48159 -0.537278 0
M  V30 39 C 4.2332 -1.46291 -1.29839 0
M  V30 40 C 4.6132 -0.170613 -2.10409 0
M  V30 41 O 3.9612 0.847746 -2.12192 0
M  V30 42 C 4.1712 -2.72055 -2.18603 0
M  V30 43 C 5.5192 -3.20087 -2.7898 0
M  V30 44 O 6.5432 -2.72921 -2.28894 0
M  V30 45 O 5.4022 -4.02138 -3.70064 0
M  V30 46 H 2.4962 -0.583906 -0.585647 0
M  V30 47 H 5.0422 -1.60384 -0.554534 0
M  V30 48 H 3.8142 -3.57628 -1.58801 0
M  V30 49 H 3.4372 -2.60646 -3.00249 0
M  V30 50 N 4.4343 0.785586 -1.36625 0
M  V30 51 C 5.8453 1.36101 -1.27803 0
M  V30 52 C 6.1963 1.96035 0.0804875 0
M  V30 53 O 5.3213 1.92834 0.982042 0
M  V30 54 C 5.9163 2.47442 -2.31426 0
M  V30 55 C 4.4753 3.00789 -2.26281 0
M  V30 56 C 3.6223 1.73896 -2.15999 0
M  V30 57 H 6.5733 0.586928 -1.47448 0
M  V30 58 H 6.5943 3.2656 -1.95291 0
M  V30 59 H 6.1063 2.03791 -3.30289 0
M  V30 60 H 4.2073 3.48851 -1.30896 0
M  V30 61 H 4.3203 3.57343 -3.19128 0
M  V30 62 H 2.6843 1.9628 -1.62316 0
M  V30 63 H 3.4673 1.32368 -3.16755 0
M  V30 64 N 5.9124 1.20967 1.01018 0
M  V30 65 C 7.1374 1.0503 1.78839 0
M  V30 66 C 7.5624 -0.395752 1.8389 0
M  V30 67 O 6.9204 -1.28529 1.27867 0
M  V30 68 C 6.9684 1.64602 3.2084 0
M  V30 69 O 6.0724 0.887988 4.02726 0
M  V30 70 H 5.4134 0.369987 0.551367 0
M  V30 71 H 7.9434 1.60399 1.27018 0
M  V30 72 H 7.9534 1.68607 3.71532 0
M  V30 73 H 6.6284 2.69841 3.16479 0
M  V30 74 H 5.2054 0.922648 3.61305 0
M  V30 75 N 7.3905 -1.2043 1.01659 0
M  V30 76 C 8.6155 -1.94318 0.724942 0
M  V30 77 C 9.0405 -1.74266 -0.708034 0
M  V30 78 O 8.3985 -1.03694 -1.48719 0
M  V30 79 C 8.4465 -3.44486 1.06591 0
M  V30 80 O 7.5505 -4.12017 0.177599 0
M  V30 81 H 6.8915 -0.60708 0.26898 0
M  V30 82 H 9.4215 -1.52861 1.35995 0
M  V30 83 H 9.4315 -3.95106 1.01762 0
M  V30 84 H 8.1065 -3.58404 2.10997 0
M  V30 85 H 6.6835 -3.71821 0.283421 0
M  V30 86 N 8.8686 -0.792821 -1.36206 0
M  V30 87 C 10.0936 -0.377701 -2.03932 0
M  V30 88 C 10.5186 0.998947 -1.59382 0
M  V30 89 O 9.8766 1.64421 -0.763903 0
M  V30 90 C 9.9246 -0.453635 -3.57735 0
M  V30 91 O 9.0286 0.538151 -4.08874 0
M  V30 92 H 8.3696 -0.159855 -0.644471 0
M  V30 93 H 10.8996 -1.07488 -1.7409 0
M  V30 94 H 10.9096 -0.318464 -4.06755 0
M  V30 95 H 9.5846 -1.45784 -3.89512 0
M  V30 96 H 8.1616 0.364359 -3.71116 0
M  V30 97 N 10.3467 1.47872 -0.545128 0
M  V30 98 C 11.2567 2.33633 0.212746 0
M  V30 99 C 12.2727 1.4744 0.923983 0
M  V30 100 O 13.4487 1.80393 0.895572 0
M  V30 101 C 10.5137 3.23884 1.23693 0
M  V30 102 C 9.5747 4.25961 0.534417 0
M  V30 103 C 8.8077 5.11899 1.5098 0
M  V30 104 O 9.0307 5.00077 2.7437 0
M  V30 105 O 7.9647 5.92831 1.0409 0
M  V30 106 H 11.7907 2.99714 -0.490416 0
M  V30 107 H 9.3757 1.46235 -0.305871 0
M  V30 108 H 11.2577 3.79666 1.82843 0
M  V30 109 H 9.9327 2.60446 1.92222 0
M  V30 110 H 8.8397 3.73972 -0.0979679 0
M  V30 111 H 10.1727 4.92079 -0.109213 0
M  V30 112 N 11.8248 0.280983 1.55075 0
M  V30 113 C 12.7348 -0.61388 2.26426 0
M  V30 114 C 13.7508 -1.16521 1.29224 0
M  V30 115 O 14.9268 -1.19426 1.62171 0
M  V30 116 C 11.9918 -1.7788 2.9759 0
M  V30 117 C 11.0528 -1.26355 4.10284 0
M  V30 118 C 10.2858 -2.37295 4.78045 0
M  V30 119 O 10.5088 -3.56777 4.45047 0
M  V30 120 O 9.4428 -2.05119 5.65871 0
M  V30 121 H 13.2688 -0.0356932 3.03679 0
M  V30 122 H 10.8538 0.0481686 1.49322 0
M  V30 123 H 12.7358 -2.45791 3.42293 0
M  V30 124 H 11.4108 -2.34397 2.23249 0
M  V30 125 H 10.3178 -0.550735 3.70024 0
M  V30 126 H 11.6508 -0.744065 4.86543 0
M  V30 127 N 13.3029 -1.57598 0.00835791 0
M  V30 128 C 14.2129 -2.12385 -0.996487 0
M  V30 129 C 15.2289 -1.07108 -1.37127 0
M  V30 130 O 16.4049 -1.39055 -1.4569 0
M  V30 131 C 13.4699 -2.62314 -2.26699 0
M  V30 132 C 12.5309 -3.82225 -1.95456 0
M  V30 133 C 11.7639 -4.29763 -3.16449 0
M  V30 134 O 11.9869 -3.76584 -4.28416 0
M  V30 135 O 10.9209 -5.21832 -2.99958 0
M  V30 136 H 14.7469 -2.98479 -0.560725 0
M  V30 137 H 12.3319 -1.47903 -0.210987 0
M  V30 138 H 14.2139 -2.94589 -3.01322 0
M  V30 139 H 12.8889 -1.79313 -2.69497 0
M  V30 140 H 11.7959 -3.54909 -1.18282 0
M  V30 141 H 13.1289 -4.66324 -1.57489 0
M  V30 142 N 14.781 0.264519 -1.55364 0
M  V30 143 C 16.006 1.01726 -1.80739 0
M  V30 144 C 16.431 1.78836 -0.583044 0
M  V30 145 O 15.789 1.75167 0.467566 0
M  V30 146 C 15.837 1.94482 -3.03659 0
M  V30 147 O 14.941 3.03386 -2.7934 0
M  V30 148 H 14.282 0.290395 -0.597132 0
M  V30 149 H 16.812 0.290854 -2.02522 0
M  V30 150 H 16.822 2.36278 -3.32621 0
M  V30 151 H 15.497 1.37772 -3.92418 0
M  V30 152 H 14.074 2.65844 -2.61498 0
M  V30 153 N 16.2591 1.48442 0.529413 0
M  V30 154 C 17.5361 1.46978 1.29062 0
M  V30 155 C 17.9161 0.181769 2.10316 0
M  V30 156 O 17.2641 -0.836481 2.12639 0
M  V30 157 C 17.4741 2.7321 2.17157 0
M  V30 158 C 18.8221 3.21562 2.77278 0
M  V30 159 O 19.8461 2.74131 2.27444 0
M  V30 160 O 18.7051 4.04094 3.67927 0
M  V30 161 H 15.7991 0.587003 0.582543 0
M  V30 162 H 18.3451 1.60676 0.546021 0
M  V30 163 H 17.1171 3.58465 1.56903 0
M  V30 164 H 16.7401 2.62235 2.98862 0
M  V30 165 N 17.7372 -0.778329 1.37039 0
M  V30 166 C 18.6472 -1.92253 1.34446 0
M  V30 167 C 19.6632 -1.72267 0.244991 0
M  V30 168 O 20.8392 -1.95615 0.479258 0
M  V30 169 C 17.9042 -3.27282 1.144 0
M  V30 170 C 16.9652 -3.59969 2.33925 0
M  V30 171 C 16.1982 -4.88555 2.14825 0
M  V30 172 O 16.4212 -5.59113 1.12912 0
M  V30 173 O 15.3552 -5.20153 3.02861 0
M  V30 174 H 19.1812 -1.97392 2.30803 0
M  V30 175 H 16.7662 -0.920154 1.17701 0
M  V30 176 H 18.6482 -4.08062 1.05182 0
M  V30 177 H 17.3232 -3.23011 0.211124 0
M  V30 178 H 16.2302 -2.7945 2.48714 0
M  V30 179 H 17.5632 -3.68976 3.25757 0
M  V30 180 N 19.2153 -1.21501 -1.00376 0
M  V30 181 C 20.4643 -1.02718 -1.73586 0
M  V30 182 C 20.7773 0.439589 -1.90596 0
M  V30 183 O 21.9833 0.746848 -2.61026 0
M  V30 184 C 20.4393 -1.78929 -3.1227 0
M  V30 185 C 20.0473 -3.29783 -3.03228 0
M  V30 186 C 21.7913 -1.68557 -3.89601 0
M  V30 187 C 19.6983 -3.98479 -4.36999 0
M  V30 188 H 18.6283 -0.380733 -0.650814 0
M  V30 189 H 21.2793 -1.45248 -1.1214 0
M  V30 190 H 19.6613 -1.29192 -3.74333 0
M  V30 191 H 20.8353 -3.86832 -2.50395 0
M  V30 192 H 19.1503 -3.40711 -2.39385 0
M  V30 193 H 21.7473 -2.17211 -4.88593 0
M  V30 194 H 22.0903 -0.644021 -4.11288 0
M  V30 195 H 22.6233 -2.15778 -3.34193 0
M  V30 196 H 19.3623 -5.02841 -4.20513 0
M  V30 197 H 18.8823 -3.46219 -4.89788 0
M  V30 198 H 20.5613 -4.03462 -5.05794 0
M  V30 199 N 20.6934 1.19889 -1.02296 0
M  V30 200 C 21.9394 1.89701 -0.717033 0
M  V30 201 C 22.2724 1.7905 0.751989 0
M  V30 202 O 21.5474 1.17891 1.547 0
M  V30 203 C 21.8304 3.40858 -1.16136 0
M  V30 204 C 21.6834 3.60411 -2.69117 0
M  V30 205 C 23.0024 4.33876 -0.737549 0
M  V30 206 H 20.1214 0.688874 -0.261957 0
M  V30 207 H 22.7634 1.41154 -1.27183 0
M  V30 208 H 20.9134 3.82335 -0.689342 0
M  V30 209 H 22.5854 3.28145 -3.2422 0
M  V30 210 H 20.8284 3.03665 -3.0979 0
M  V30 211 H 21.4994 4.66396 -2.95261 0
M  V30 212 H 23.9754 4.00081 -1.14344 0
M  V30 213 H 22.8514 5.38242 -1.0764 0
M  V30 214 H 23.1124 4.40628 0.360436 0
M  V30 215 N 22.1715 0.800033 1.35784 0
M  V30 216 C 23.0815 0.207204 2.33683 0
M  V30 217 C 24.0975 -0.64631 1.61551 0
M  V30 218 O 25.2735 -0.559604 1.93469 0
M  V30 219 C 22.3385 -0.639659 3.40748 0
M  V30 220 C 21.3995 0.233585 4.28664 0
M  V30 221 C 20.6325 -0.572954 5.30616 0
M  V30 222 O 20.8555 -1.80816 5.40982 0
M  V30 223 O 19.7895 0.0327285 6.01891 0
M  V30 224 H 23.6155 1.01692 2.86169 0
M  V30 225 H 21.2005 0.561691 1.38439 0
M  V30 226 H 23.0825 -1.12223 4.06182 0
M  V30 227 H 21.7575 -1.42708 2.90544 0
M  V30 228 H 20.6645 0.763147 3.66233 0
M  V30 229 H 21.9975 0.984784 4.82248 0
M  V30 230 N 23.6496 -1.47581 0.552962 0
M  V30 231 C 24.5596 -2.33743 -0.200353 0
M  V30 232 C 25.5756 -1.47928 -0.916151 0
M  V30 233 O 26.7516 -1.80865 -0.885993 0
M  V30 234 C 23.8166 -3.24536 -1.21973 0
M  V30 235 C 22.8776 -4.26238 -0.511819 0
M  V30 236 C 22.1106 -5.12693 -1.48263 0
M  V30 237 O 22.3336 -5.01525 -2.71714 0
M  V30 238 O 21.2676 -5.93375 -1.00945 0
M  V30 239 H 25.0936 -2.9945 0.506304 0
M  V30 240 H 22.6786 -1.46071 0.313622 0
M  V30 241 H 24.5606 -3.80631 -1.80827 0
M  V30 242 H 23.2356 -2.61462 -1.90839 0
M  V30 243 H 22.1426 -3.73914 0.117799 0
M  V30 244 H 23.4756 -4.92014 0.135308 0
M  V30 245 N 25.1277 -0.289203 -1.54924 0
M  V30 246 C 26.0377 0.601863 -2.26748 0
M  V30 247 C 27.0537 1.15834 -1.2984 0
M  V30 248 O 28.2297 1.18564 -1.62802 0
M  V30 249 C 25.2947 1.76299 -2.98529 0
M  V30 250 C 24.3557 1.24178 -4.10948 0
M  V30 251 C 23.5887 2.34757 -4.79296 0
M  V30 252 O 23.8117 3.54411 -4.46933 0
M  V30 253 O 22.7457 2.02115 -5.66951 0
M  V30 254 H 26.5717 0.0195879 -3.03694 0
M  V30 255 H 24.1567 -0.0560868 -1.49295 0
M  V30 256 H 26.0387 2.43973 -3.43592 0
M  V30 257 H 24.7137 2.33209 -2.24488 0
M  V30 258 H 23.6207 0.531104 -3.70311 0
M  V30 259 H 24.9537 0.718252 -4.86931 0
M  V30 260 N 26.6058 1.57591 -0.0167156 0
M  V30 261 C 27.8308 1.9598 0.67872 0
M  V30 262 C 28.2558 0.892546 1.65575 0
M  V30 263 O 27.6138 -0.147772 1.80697 0
M  V30 264 C 27.6618 3.33468 1.37227 0
M  V30 265 O 26.7658 3.28954 2.48722 0
M  V30 266 H 26.1068 0.639339 0.17928 0
M  V30 267 H 28.6368 2.04463 -0.0748802 0
M  V30 268 H 28.6468 3.69417 1.7319 0
M  V30 269 H 27.3218 4.10694 0.656007 0
M  V30 270 H 25.8988 3.04705 2.14963 0
M  V30 271 N 28.0839 -0.256276 1.55502 0
M  V30 272 C 29.3319 -0.983672 1.76545 0
M  V30 273 C 29.6529 -1.86206 0.578982 0
M  V30 274 O 28.9229 -1.91656 -0.405577 0
M  V30 275 H 27.5029 -0.366191 0.651086 0
M  V30 276 H 30.1649 -0.276479 1.92929 0
M  V30 277 H 29.2609 -1.61087 2.67315 0
M  V30 278 N 29.562 -1.4872 -0.521534 0
M  V30 279 C 30.509 -1.63871 -1.62527 0
M  V30 280 C 31.479 -0.480559 -1.58996 0
M  V30 281 O 32.664 -0.705085 -1.77294 0
M  V30 282 C 29.804 -1.69227 -3.00759 0
M  V30 283 C 28.917 -2.96207 -3.14461 0
M  V30 284 C 28.052 -2.92671 -4.43303 0
M  V30 285 C 27.091 -4.14318 -4.50563 0
M  V30 286 N 26.228 -4.0881 -5.70805 0
M  V30 287 H 31.068 -2.58123 -1.48918 0
M  V30 288 H 28.605 -1.28 -0.724878 0
M  V30 289 H 30.563 -1.70314 -3.80853 0
M  V30 290 H 29.193 -0.784586 -3.1312 0
M  V30 291 H 28.245 -3.04826 -2.27564 0
M  V30 292 H 29.557 -3.86192 -3.15686 0
M  V30 293 H 28.711 -2.92206 -5.31696 0
M  V30 294 H 27.45 -2.00429 -4.44612 0
M  V30 295 H 26.455 -4.15049 -3.60575 0
M  V30 296 H 27.68 -5.07729 -4.50986 0
M  V30 297 H 25.626 -3.19394 -5.72995 0
M  V30 298 H 25.543 -4.92509 -5.7356 0
M  V30 299 H 26.811 -4.12418 -6.61462 0
M  V30 300 N 31.0401 0.771051 -1.3745 0
M  V30 301 C 31.9501 1.91538 -1.35464 0
M  V30 302 C 32.9661 1.72134 -0.254123 0
M  V30 303 O 34.1421 1.95358 -0.489626 0
M  V30 304 C 31.2071 3.26671 -1.16134 0
M  V30 305 C 30.2681 3.58723 -2.35831 0
M  V30 306 C 29.5011 4.87409 -2.17413 0
M  V30 307 O 29.7241 5.58506 -1.15876 0
M  V30 308 O 28.6581 5.18539 -3.05615 0
M  V30 309 H 32.4841 1.96165 -2.31847 0
M  V30 310 H 30.0691 0.9139 -1.18187 0
M  V30 311 H 31.9511 4.07499 -1.07345 0
M  V30 312 H 30.6261 3.22894 -0.228251 0
M  V30 313 H 29.5331 2.78127 -2.50192 0
M  V30 314 H 30.8661 3.67243 -3.27709 0
M  V30 315 N 32.5182 1.22032 0.997298 0
M  V30 316 C 33.7642 1.04376 1.73878 0
M  V30 317 C 34.0972 -0.420716 1.89588 0
M  V30 318 O 33.3722 -1.31202 1.43583 0
M  V30 319 C 33.6552 1.75047 3.14691 0
M  V30 320 C 33.5082 3.29062 3.06656 0
M  V30 321 C 34.8272 1.49928 4.13775 0
M  V30 322 H 31.9462 0.380578 0.631133 0
M  V30 323 H 34.5882 1.50312 1.16217 0
M  V30 324 H 32.7382 1.35996 3.63919 0
M  V30 325 H 34.4102 3.7753 2.65083 0
M  V30 326 H 32.6532 3.58967 2.43568 0
M  V30 327 H 33.3242 3.73683 4.06282 0
M  V30 328 H 35.8002 1.83842 3.73285 0
M  V30 329 H 34.6762 2.01878 5.10428 0
M  V30 330 H 34.9372 0.430929 4.39995 0
M  V30 331 N 33.9963 -1.19345 1.0293 0
M  V30 332 C 34.9263 -2.2481 0.631105 0
M  V30 333 C 35.9073 -1.66245 -0.360104 0
M  V30 334 O 37.0923 -1.92677 -0.242726 0
M  V30 335 C 34.2223 -3.47295 -0.0184607 0
M  V30 336 C 33.1763 -4.18536 0.895073 0
M  V30 337 C 32.5023 -5.34586 0.110592 0
M  V30 338 C 33.8023 -4.73287 2.209 0
M  V30 339 H 35.4963 -2.58372 1.51275 0
M  V30 340 H 33.0423 -1.24194 0.728818 0
M  V30 341 H 34.9953 -4.20268 -0.308675 0
M  V30 342 H 33.7193 -3.12933 -0.934907 0
M  V30 343 H 32.3783 -3.47446 1.16949 0
M  V30 344 H 32.0263 -4.96469 -0.807902 0
M  V30 345 H 31.7263 -5.83183 0.719087 0
M  V30 346 H 33.2503 -6.10355 -0.172871 0
M  V30 347 H 34.6643 -5.38013 1.98028 0
M  V30 348 H 33.0613 -5.32373 2.76946 0
M  V30 349 H 34.1313 -3.91331 2.86336 0
M  V30 350 N 35.4744 -0.807222 -1.35358 0
M  V30 351 C 36.7224 -0.387122 -1.98358 0
M  V30 352 C 37.0434 1.04942 -1.64354 0
M  V30 353 O 36.3134 1.72615 -0.926339 0
M  V30 354 H 34.8934 -0.140154 -0.733734 0
M  V30 355 H 37.5554 -1.0332 -1.6526 0
M  V30 356 H 36.6514 -0.493352 -3.08176 0
M  V30 357 N 36.9525 1.47285 -0.560781 0
M  V30 358 C 38.1775 2.07359 -0.0410566 0
M  V30 359 C 38.6025 1.41017 1.24483 0
M  V30 360 O 37.9605 0.486368 1.74654 0
M  V30 361 C 38.0085 3.6035 0.134123 0
M  V30 362 O 37.1125 3.94681 1.19587 0
M  V30 363 H 36.4535 0.661887 -0.0529291 0
M  V30 364 H 38.9835 1.89252 -0.777482 0
M  V30 365 H 38.9935 4.0652 0.347207 0
M  V30 366 H 37.6685 4.08034 -0.805047 0
M  V30 367 H 36.2455 3.60251 0.962987 0
M  V30 368 N 38.4306 0.297415 1.54768 0
M  V30 369 C 39.3936 -0.567375 2.22066 0
M  V30 370 C 40.3936 -1.06409 1.20556 0
M  V30 371 O 41.5836 -0.960691 1.45315 0
M  V30 372 C 38.7156 -1.78517 2.90421 0
M  V30 373 H 39.9086 0.0205534 2.99893 0
M  V30 374 H 37.4616 0.0482163 1.56226 0
M  V30 375 H 38.1966 -2.41303 2.16664 0
M  V30 376 H 37.9816 -1.43669 3.64831 0
M  V30 377 H 39.4716 -2.39964 3.41771 0
M  V30 378 N 39.9087 -1.5758 0.0250728 0
M  V30 379 C 41.3197 -1.79476 -0.514323 0
M  V30 380 C 41.6707 -0.934956 -1.72491 0
M  V30 381 O 40.7957 -0.144245 -2.15919 0
M  V30 382 C 41.3907 -3.25503 -0.939842 0
M  V30 383 C 39.9497 -3.48408 -1.42438 0
M  V30 384 C 39.0967 -2.74583 -0.387201 0
M  V30 385 H 42.0477 -1.567 0.25113 0
M  V30 386 H 42.0687 -3.34992 -1.80445 0
M  V30 387 H 41.5807 -3.88056 -0.0585628 0
M  V30 388 H 39.6817 -2.91103 -2.32572 0
M  V30 389 H 39.7947 -4.57119 -1.43455 0
M  V30 390 H 38.1587 -2.39942 -0.854409 0
M  V30 391 H 38.9417 -3.39849 0.485543 0
M  V30 392 N 41.3868 0.248026 -1.55636 0
M  V30 393 C 42.6118 0.998028 -1.81808 0
M  V30 394 C 43.0368 1.78207 -0.601979 0
M  V30 395 O 42.3948 1.75653 0.448961 0
M  V30 396 C 42.4428 1.9125 -3.05705 0
M  V30 397 O 41.5468 3.00406 -2.82542 0
M  V30 398 H 40.8878 0.284045 -0.600179 0
M  V30 399 H 43.4178 0.269357 -2.02819 0
M  V30 400 H 43.4278 2.32737 -3.35108 0
M  V30 401 H 42.1028 1.33602 -3.93857 0
M  V30 402 H 40.6798 2.63056 -2.64303 0
M  V30 403 N 42.8649 1.48995 0.513639 0
M  V30 404 C 44.1129 1.57531 1.26604 0
M  V30 405 C 44.4339 0.258236 1.93283 0
M  V30 406 O 43.7039 -0.721502 1.8213 0
M  V30 407 H 42.2839 0.580387 0.470276 0
M  V30 408 H 44.9459 1.85552 0.596373 0
M  V30 409 H 44.0419 2.36486 2.03669 0
M  V30 410 N 44.343 -0.763751 1.37857 0
M  V30 411 C 45.306 -1.85889 1.34081 0
M  V30 412 C 46.306 -1.58949 0.243277 0
M  V30 413 O 47.496 -1.66882 0.499589 0
M  V30 414 C 44.628 -3.23176 1.08489 0
M  V30 415 H 45.821 -1.90648 2.31502 0
M  V30 416 H 43.374 -0.964367 1.23003 0
M  V30 417 H 44.109 -3.24091 0.116318 0
M  V30 418 H 43.894 -3.44124 1.8794 0
M  V30 419 H 45.384 -4.03254 1.08517 0
M  V30 420 N 45.8211 -1.22559 -0.990812 0
M  V30 421 C 47.2371 -0.985996 -1.255 0
M  V30 422 C 47.4371 0.319173 -1.98956 0
M  V30 423 O 46.4931 1.04127 -2.3003 0
M  V30 424 C 47.8061 -2.18607 -2.06474 0
M  V30 425 C 49.3541 -2.22985 -2.19651 0
M  V30 426 C 49.8291 -3.4255 -3.04012 0
M  V30 427 N 51.3201 -3.42725 -3.11599 0
M  V30 428 C 52.0551 -4.31892 -3.7717 0
M  V30 429 N 51.5511 -5.31279 -4.44651 0
M  V30 430 N 53.3441 -4.19662 -3.73952 0
M  V30 431 H 45.4951 -2.06469 -0.49841 0
M  V30 432 H 47.7581 -0.904853 -0.282747 0
M  V30 433 H 47.4641 -3.13267 -1.59865 0
M  V30 434 H 47.3381 -2.18838 -3.07229 0
M  V30 435 H 49.7251 -1.28871 -2.65474 0
M  V30 436 H 49.8061 -2.26791 -1.18319 0
M  V30 437 H 49.4501 -4.36965 -2.58889 0
M  V30 438 H 49.3801 -3.35984 -4.0549 0
M  V30 439 H 51.8711 -2.70807 -2.63575 0
M  V30 440 H 52.1841 -5.95593 -4.92431 0
M  V30 441 H 50.5291 -5.3519 -4.43392 0
M  V30 442 H 53.7201 -3.41268 -3.20396 0
M  V30 443 H 53.8931 -4.89358 -4.24774 0
M  V30 444 N 47.2992 1.18797 -1.03562 0
M  V30 445 C 48.2292 2.24472 -0.643019 0
M  V30 446 C 49.2102 1.66433 0.351283 0
M  V30 447 O 50.3952 1.92803 0.232505 0
M  V30 448 C 47.5252 3.473 4.24935e-05 0
M  V30 449 C 46.4792 4.18055 -0.917257 0
M  V30 450 C 45.8052 5.34519 -0.138941 0
M  V30 451 C 47.1052 4.72109 -2.23407 0
M  V30 452 H 48.7992 2.57566 -1.52643 0
M  V30 453 H 46.3452 1.23806 -0.735394 0
M  V30 454 H 48.2982 4.20426 0.286383 0
M  V30 455 H 47.0222 3.13424 0.918299 0
M  V30 456 H 45.6812 3.46821 -1.1879 0
M  V30 457 H 45.3292 4.96891 0.781562 0
M  V30 458 H 45.0292 5.82794 -0.750005 0
M  V30 459 H 46.5532 6.10438 0.1405 0
M  V30 460 H 47.9672 5.36955 -2.00879 0
M  V30 461 H 46.3642 5.30897 -2.79765 0
M  V30 462 H 47.4342 3.89807 -2.88407 0
M  V30 463 N 48.7773 0.814389 1.34928 0
M  V30 464 C 50.0023 0.410097 2.03305 0
M  V30 465 C 50.4273 -0.973464 1.60951 0
M  V30 466 O 49.7853 -1.63185 0.789964 0
M  V30 467 C 49.8333 0.51049 3.56968 0
M  V30 468 O 48.9373 -0.473035 4.09678 0
M  V30 469 H 48.2783 0.170088 0.641846 0
M  V30 470 H 50.8083 1.10244 1.72358 0
M  V30 471 H 50.8183 0.383135 4.06197 0
M  V30 472 H 49.4933 1.51963 3.87144 0
M  V30 473 H 48.0703 -0.305272 3.71648 0
M  V30 474 N 50.2554 -1.46986 0.568584 0
M  V30 475 C 51.6664 -1.86188 0.138219 0
M  V30 476 C 52.0174 -1.47388 -1.29504 0
M  V30 477 O 51.1424 -0.88219 -1.97602 0
M  V30 478 C 51.7374 -3.3792 0.244065 0
M  V30 479 C 50.2964 -3.76171 -0.131335 0
M  V30 480 C 49.4434 -2.71027 0.586465 0
M  V30 481 H 52.3944 -1.38342 0.777645 0
M  V30 482 H 52.4154 -3.76729 -0.534351 0
M  V30 483 H 51.9274 -3.66128 1.28731 0
M  V30 484 H 50.0284 -3.5358 -1.17526 0
M  V30 485 H 50.1414 -4.78523 0.235146 0
M  V30 486 H 48.5054 -2.54684 0.0282722 0
M  V30 487 H 49.2884 -3.02077 1.63109 0
M  V30 488 N 51.7335 -0.305618 -1.54608 0
M  V30 489 C 52.9585 0.307562 -2.05107 0
M  V30 490 C 53.3835 1.46385 -1.18123 0
M  V30 491 O 52.7415 1.8034 -0.186324 0
M  V30 492 C 52.7895 0.73704 -3.52987 0
M  V30 493 O 51.8935 1.84134 -3.6901 0
M  V30 494 H 51.2345 0.0589143 -0.661381 0
M  V30 495 H 53.7645 -0.448807 -1.99617 0
M  V30 496 H 53.7745 1.02459 -3.94925 0
M  V30 497 H 52.4495 -0.108773 -4.15758 0
M  V30 498 H 51.0265 1.55398 -3.38978 0
M  V30 499 N 53.2116 1.57565 -0.0334293 0
M  V30 500 C 54.6276 1.56297 0.322997 0
M  V30 501 C 54.8276 1.03945 1.7262 0
M  V30 502 O 53.8836 0.688109 2.42943 0
M  V30 503 C 55.1966 3.00232 0.167664 0
M  V30 504 C 56.7446 3.12078 0.240107 0
M  V30 505 C 57.2196 4.57859 0.113513 0
M  V30 506 N 58.7106 4.62887 0.170359 0
M  V30 507 C 59.4456 5.73319 0.0962517 0
M  V30 508 N 58.9416 6.92794 -0.0291881 0
M  V30 509 N 60.7346 5.61898 0.150551 0
M  V30 510 H 52.8856 1.89923 -0.950956 0
M  V30 511 H 55.1486 0.873824 -0.367608 0
M  V30 512 H 54.8546 3.42501 -0.799102 0
M  V30 513 H 54.7286 3.654 0.936083 0
M  V30 514 H 57.1156 2.69718 1.19733 0
M  V30 515 H 57.1966 2.49623 -0.558763 0
M  V30 516 H 56.8406 5.009 -0.840314 0
M  V30 517 H 56.7706 5.18299 0.931302 0
M  V30 518 H 59.2616 3.76954 0.26728 0
M  V30 519 H 59.5746 7.7276 -0.0789252 0
M  V30 520 H 57.9196 6.94971 -0.0640299 0
M  V30 521 H 61.1106 4.67448 0.246981 0
M  V30 522 H 61.2836 6.47938 0.0893365 0
M  V30 523 N 54.6897 -0.239769 1.55765 0
M  V30 524 C 55.9177 -0.98417 1.81994 0
M  V30 525 C 56.3327 -1.7867 0.610124 0
M  V30 526 O 55.6897 -1.77571 -0.421271 0
M  V30 527 C 55.7407 -1.91635 3.06526 0
M  V30 528 O 55.4617 -1.14629 4.22838 0
M  V30 529 C 56.9627 -2.77616 3.45607 0
M  V30 530 H 54.1827 -0.28928 0.605441 0
M  V30 531 H 56.7267 -0.260499 2.02834 0
M  V30 532 H 54.8817 -2.5942 2.87715 0
M  V30 533 H 55.2957 -1.77745 4.93464 0
M  V30 534 H 56.7697 -3.38759 4.35828 0
M  V30 535 H 57.2467 -3.4909 2.6652 0
M  V30 536 H 57.8527 -2.15271 3.66795 0
M  V30 537 N 56.1678 -1.49265 -0.50573 0
M  V30 538 C 57.3928 -1.62478 -1.28902 0
M  V30 539 C 57.8178 -0.294332 -1.85783 0
M  V30 540 O 57.1758 0.737412 -1.65626 0
M  V30 541 C 57.2238 -2.69268 -2.39848 0
M  V30 542 O 56.3278 -2.28113 -3.43567 0
M  V30 543 H 55.6688 -0.54399 -0.380751 0
M  V30 544 H 58.1988 -1.95421 -0.605952 0
M  V30 545 H 58.2088 -2.91291 -2.85681 0
M  V30 546 H 56.8838 -3.65846 -1.97812 0
M  V30 547 H 55.4608 -2.16401 -3.03685 0
M  V30 548 N 57.6459 0.756429 -1.3826 0
M  V30 549 C 58.5559 1.9009 -1.37488 0
M  V30 550 C 59.5719 1.71855 -0.272366 0
M  V30 551 O 60.7479 1.94827 -0.510318 0
M  V30 552 C 57.8129 3.25421 -1.19592 0
M  V30 553 C 56.8739 3.56202 -2.39622 0
M  V30 554 C 56.1069 4.85075 -2.2257 0
M  V30 555 O 56.3299 5.57246 -1.21793 0
M  V30 556 O 55.2639 5.15269 -3.11098 0
M  V30 557 H 59.0899 1.93695 -2.33914 0
M  V30 558 H 56.6749 0.901313 -1.1915 0
M  V30 559 H 58.5569 4.06337 -1.11661 0
M  V30 560 H 57.2319 3.22634 -0.262486 0
M  V30 561 H 56.1389 2.75458 -2.53128 0
M  V30 562 H 57.4719 3.63747 -3.31586 0
M  V30 563 N 59.124 1.23083 0.984299 0
M  V30 564 C 60.372 1.05848 1.72165 0
M  V30 565 C 60.693 -0.406049 1.90726 0
M  V30 566 O 59.963 -1.29139 1.47309 0
M  V30 567 H 58.543 0.388685 0.637913 0
M  V30 568 H 61.205 1.54736 1.18503 0
M  V30 569 H 60.301 1.54327 2.71274 0
M  V30 570 N 60.6021 -1.18246 1.0419 0
M  V30 571 C 61.8271 -1.92736 0.765996 0
M  V30 572 C 62.2521 -1.75728 -0.67091 0
M  V30 573 O 61.6101 -1.06825 -1.46486 0
M  V30 574 C 61.6581 -3.42148 1.13875 0
M  V30 575 O 60.7621 -4.11548 0.264954 0
M  V30 576 H 60.1031 -0.601238 0.281797 0
M  V30 577 H 62.6331 -1.49942 1.39207 0
M  V30 578 H 62.6431 -3.92858 1.1012 0
M  V30 579 H 61.3181 -3.53848 2.18551 0
M  V30 580 H 59.8951 -3.71137 0.362226 0
M  V30 581 N 62.0802 -0.821533 -1.34494 0
M  V30 582 C 63.0432 -0.247847 -2.27856 0
M  V30 583 C 64.0432 0.573453 -1.50227 0
M  V30 584 O 65.2332 0.389759 -1.69784 0
M  V30 585 C 62.3652 0.652698 -3.34593 0
M  V30 586 H 63.5582 -1.07146 -2.80107 0
M  V30 587 H 61.1112 -0.593291 -1.44602 0
M  V30 588 H 61.8462 1.49943 -2.87555 0
M  V30 589 H 61.6312 0.065292 -3.92046 0
M  V30 590 H 63.1212 1.04793 -4.04238 0
M  V30 591 N 63.5583 1.46682 -0.576371 0
M  V30 592 C 64.8063 2.02013 -0.0594163 0
M  V30 593 C 65.1273 1.45101 1.30271 0
M  V30 594 O 64.3973 0.633317 1.8538 0
M  V30 595 H 62.9773 0.746759 -0.0189745 0
M  V30 596 H 65.6393 1.79862 -0.750717 0
M  V30 597 H 64.7353 3.12097 0.014345 0
M  V30 598 N 65.0364 0.313813 1.54444 0
M  V30 599 C 66.2614 -0.296681 2.05267 0
M  V30 600 C 66.6864 -1.45757 1.18897 0
M  V30 601 O 66.0444 -1.80239 0.195886 0
M  V30 602 C 66.0924 -0.71831 3.53373 0
M  V30 603 O 65.1964 -1.82175 3.69981 0
M  V30 604 H 64.5374 -0.0554061 0.661684 0
M  V30 605 H 67.0674 0.459387 1.99376 0
M  V30 606 H 67.0774 -1.00364 3.95463 0
M  V30 607 H 65.7524 0.130821 4.15694 0
M  V30 608 H 64.3294 -1.53598 3.39797 0
M  V30 609 N 66.5145 -1.57545 0.0417849 0
M  V30 610 C 67.4775 -2.09885 -0.92093 0
M  V30 611 C 68.4775 -1.01648 -1.24596 0
M  V30 612 O 69.6675 -1.27759 -1.1842 0
M  V30 613 C 66.7995 -2.57527 -2.23367 0
M  V30 614 H 67.9925 -2.96236 -0.467382 0
M  V30 615 H 65.5455 -1.5493 -0.206467 0
M  V30 616 H 66.2805 -1.74542 -2.73323 0
M  V30 617 H 66.0655 -3.36613 -2.01083 0
M  V30 618 H 67.5555 -2.98201 -2.92346 0
M  V30 619 N 67.9926 0.231505 -1.5589 0
M  V30 620 C 69.2406 0.955461 -1.78088 0
M  V30 621 C 69.5616 1.85262 -0.608533 0
M  V30 622 O 68.8316 1.92277 0.375035 0
M  V30 623 H 67.4116 0.355787 -0.656829 0
M  V30 624 H 70.0736 0.245751 -1.93344 0
M  V30 625 H 69.1696 1.56814 -2.69844 0
M  V30 626 N 69.4707 1.49531 0.497807 0
M  V30 627 C 70.4007 1.6935 1.60757 0
M  V30 628 C 71.3817 0.542218 1.61227 0
M  V30 629 O 72.5667 0.778417 1.77917 0
M  V30 630 C 69.6967 1.76298 2.99226 0
M  V30 631 C 68.6507 2.91248 3.13622 0
M  V30 632 C 67.9767 2.83312 4.53474 0
M  V30 633 C 69.2767 4.3214 2.93346 0
M  V30 634 H 70.9707 2.62263 1.44425 0
M  V30 635 H 68.5167 1.26208 0.693367 0
M  V30 636 H 70.4697 1.88749 3.76765 0
M  V30 637 H 69.1937 0.799871 3.16654 0
M  V30 638 H 67.8527 2.78404 2.38509 0
M  V30 639 H 67.5007 1.84902 4.67782 0
M  V30 640 H 67.2007 3.60465 4.64046 0
M  V30 641 H 68.7247 2.97775 5.33069 0
M  V30 642 H 70.1387 4.45649 3.60652 0
M  V30 643 H 68.5357 5.1054 3.15387 0
M  V30 644 H 69.6057 4.46363 1.89441 0
M  V30 645 N 70.9488 -0.749086 1.3866 0
M  V30 646 C 72.1968 -1.50535 1.34847 0
M  V30 647 C 72.5178 -1.94909 -0.0595016 0
M  V30 648 O 71.7878 -1.67973 -1.00806 0
M  V30 649 H 70.3678 -0.558395 0.49619 0
M  V30 650 H 73.0298 -0.890165 1.73384 0
M  V30 651 H 72.1258 -2.39413 2.00219 0
M  V30 652 N 72.4269 -1.23603 -0.977757 0
M  V30 653 C 73.6749 -1.06759 -1.71601 0
M  V30 654 C 73.9959 0.395929 -1.90938 0
M  V30 655 O 73.2659 1.28356 -1.47992 0
M  V30 656 H 71.8459 -0.392062 -0.635843 0
M  V30 657 H 74.5079 -1.55362 -1.1768 0
M  V30 658 H 73.6039 -1.55763 -2.70452 0
M  V30 659 N 73.905 1.17692 -1.04816 0
M  V30 660 C 75.153 1.87488 -0.754497 0
M  V30 661 C 75.474 1.81205 0.720407 0
M  V30 662 O 74.744 1.23544 1.52032 0
M  V30 663 H 73.324 0.694101 -0.276102 0
M  V30 664 H 75.986 1.42793 -1.32651 0
M  V30 665 H 75.082 2.93328 -1.06606 0
M  V30 666 N 75.3831 0.828654 1.34056 0
M  V30 667 C 76.6311 0.41863 1.97717 0
M  V30 668 C 76.9521 -1.02314 1.66002 0
M  V30 669 O 76.2221 -1.71119 0.953683 0
M  V30 670 H 74.8021 0.151809 0.731412 0
M  V30 671 H 77.4641 1.05936 1.63596 0
M  V30 672 H 76.5601 0.542318 3.07352 0
M  V30 673 N 76.8612 -1.46375 0.584142 0
M  V30 674 C 77.8242 -2.28784 -0.138108 0
M  V30 675 C 78.8242 -1.38471 -0.817462 0
M  V30 676 O 80.0142 -1.60833 -0.669199 0
M  V30 677 C 77.1462 -3.18892 -1.20503 0
M  V30 678 H 78.3392 -2.94117 0.586127 0
M  V30 679 H 75.8922 -1.52509 0.342171 0
M  V30 680 H 76.6272 -2.58309 -1.96079 0
M  V30 681 H 76.4122 -3.85388 -0.722384 0
M  V30 682 H 77.9022 -3.80914 -1.71155 0
M  V30 683 N 78.3393 -0.321999 -1.54275 0
M  V30 684 C 79.5873 0.280489 -2.00144 0
M  V30 685 C 79.9083 1.52777 -1.21178 0
M  V30 686 O 79.1783 1.9338 -0.313187 0
M  V30 687 H 77.7583 0.106632 -0.73935 0
M  V30 688 H 80.4203 -0.438184 -1.8991 0
M  V30 689 H 79.5163 0.537972 -3.07428 0
M  V30 690 N 79.8174 1.5752 -0.0501392 0
M  V30 691 C 80.7804 2.1037 0.909786 0
M  V30 692 C 81.7804 1.02308 1.24056 0
M  V30 693 O 82.9704 1.28385 1.17741 0
M  V30 694 C 80.1024 2.58708 2.21998 0
M  V30 695 H 81.2954 2.96479 0.451665 0
M  V30 696 H 78.8484 1.55038 0.198248 0
M  V30 697 H 79.5834 1.75989 2.72394 0
M  V30 698 H 79.3684 3.37675 1.99295 0
M  V30 699 H 80.8584 2.99747 2.9076 0
M  V30 700 N 81.2955 -0.223234 1.56011 0
M  V30 701 C 82.5435 -0.946003 1.78592 0
M  V30 702 C 82.8645 -1.84936 0.618349 0
M  V30 703 O 82.1345 -1.92473 -0.364833 0
M  V30 704 H 80.7145 -0.352298 0.658707 0
M  V30 705 H 83.3765 -0.235494 1.93472 0
M  V30 706 H 82.4725 -1.55381 2.70672 0
M  V30 707 N 82.7736 -1.49793 -0.48987 0
M  V30 708 C 83.7366 -1.66752 -1.57246 0
M  V30 709 C 84.7366 -0.538867 -1.51502 0
M  V30 710 O 85.9266 -0.805545 -1.54456 0
M  V30 711 C 83.0586 -1.67528 -2.96896 0
M  V30 712 H 84.2516 -2.63321 -1.43534 0
M  V30 713 H 81.8046 -1.38992 -0.714914 0
M  V30 714 H 82.5396 -0.725837 -3.16073 0
M  V30 715 H 82.3246 -2.49504 -3.02473 0
M  V30 716 H 83.8146 -1.82667 -3.7553 0
M  V30 717 N 84.2517 0.741722 -1.39055 0
M  V30 718 C 85.4997 1.49818 -1.35643 0
M  V30 719 C 85.8207 1.94938 0.0491642 0
M  V30 720 O 85.0907 1.68505 0.999141 0
M  V30 721 H 83.6707 0.555755 -0.499144 0
M  V30 722 H 86.3327 0.880957 -1.73854 0
M  V30 723 H 85.4287 2.38348 -2.01486 0
M  V30 724 N 85.7298 1.2412 0.971189 0
M  V30 725 C 86.9758 1.08041 1.71625 0
M  V30 726 C 87.3088 -0.380407 1.90438 0
M  V30 727 O 86.5838 -1.28127 1.46334 0
M  V30 728 C 86.8668 1.81682 3.10908 0
M  V30 729 C 86.7198 3.35493 2.99608 0
M  V30 730 C 88.0388 1.58671 4.10501 0
M  V30 731 H 85.1578 0.39388 0.622919 0
M  V30 732 H 87.7998 1.52743 1.13003 0
M  V30 733 H 85.9498 1.43684 3.60953 0
M  V30 734 H 87.6218 3.83068 2.57015 0
M  V30 735 H 85.8648 3.64052 2.35899 0
M  V30 736 H 86.5358 3.82217 3.98264 0
M  V30 737 H 89.0118 1.91719 3.69301 0
M  V30 738 H 87.8878 2.1266 5.06031 0
M  V30 739 H 88.1488 0.524161 4.38982 0
M  V30 740 N 87.2079 -1.17134 1.05439 0
M  V30 741 C 88.4559 -1.87085 0.764429 0
M  V30 742 C 88.7769 -1.81584 -0.710787 0
M  V30 743 O 88.0469 -1.24349 -1.51374 0
M  V30 744 H 86.6269 -0.692627 0.279779 0
M  V30 745 H 89.2889 -1.42087 1.33406 0
M  V30 746 H 88.3849 -2.92759 1.0816 0
M  V30 747 N 88.686 -0.835752 -1.33615 0
M  V30 748 C 89.649 -0.272 -2.2758 0
M  V30 749 C 90.649 0.557487 -1.50827 0
M  V30 750 O 91.839 0.37173 -1.70188 0
M  V30 751 C 88.971 0.617173 -3.35267 0
M  V30 752 H 90.164 -1.10111 -2.78954 0
M  V30 753 H 87.717 -0.608594 -1.43965 0
M  V30 754 H 88.452 1.46884 -2.89129 0
M  V30 755 H 88.237 0.0237066 -3.92093 0
M  V30 756 H 89.727 1.005 -4.05326 0
M  V30 757 N 90.1641 1.46063 -0.591896 0
M  V30 758 C 91.4121 2.01938 -0.0808391 0
M  V30 759 C 91.7331 1.46475 1.28725 0
M  V30 760 O 91.0031 0.652944 1.84698 0
M  V30 761 H 89.5831 0.746516 -0.0268938 0
M  V30 762 H 92.2451 1.79055 -0.769752 0
M  V30 763 H 91.3411 3.12094 -0.0187578 0
M  V30 764 N 91.6422 0.330177 1.54103 0
M  V30 765 C 92.8902 -0.269871 2.0029 0
M  V30 766 C 93.2112 -1.52133 1.21986 0
M  V30 767 O 92.4812 -1.93212 0.323438 0
M  V30 768 H 91.0612 -0.10271 0.739905 0
M  V30 769 H 93.7232 0.448249 1.89675 0
M  V30 770 H 92.8192 -0.52166 3.07709 0
M  V30 771 N 93.1203 -1.57491 0.0584922 0
M  V30 772 C 94.3683 -1.92597 -0.612436 0
M  V30 773 C 94.6893 -0.938162 -1.70949 0
M  V30 774 O 93.9593 0.0158301 -1.95894 0
M  V30 775 H 92.5393 -0.710964 -0.229214 0
M  V30 776 H 95.2013 -1.94571 0.113218 0
M  V30 777 H 94.2973 -2.94038 -1.04633 0
M  V30 778 N 94.5984 0.214957 -1.56127 0
M  V30 779 C 95.8464 0.936518 -1.79091 0
M  V30 780 C 96.1674 1.84606 -0.628148 0
M  V30 781 O 95.4374 1.92664 0.35462 0
M  V30 782 H 94.0174 0.3488 -0.660566 0
M  V30 783 H 96.6794 0.22523 -1.93594 0
M  V30 784 H 95.7754 1.53943 -2.71492 0
M  V30 785 N 96.0765 1.50051 0.48192 0
M  V30 786 C 97.3245 1.60181 1.23234 0
M  V30 787 C 97.6455 0.299176 1.92691 0
M  V30 788 O 96.9155 -0.682708 1.83619 0
M  V30 789 H 95.4955 0.590232 0.457859 0
M  V30 790 H 98.1575 1.86775 0.556881 0
M  V30 791 H 97.2535 2.40753 1.98607 0
M  V30 792 N 97.5546 -0.734337 1.39446 0
M  V30 793 C 98.7796 -1.52866 1.40167 0
M  V30 794 C 99.2046 -1.881 -0.00171513 0
M  V30 795 O 98.5626 -1.51957 -0.988879 0
M  V30 796 C 98.6106 -2.79235 2.28167 0
M  V30 797 O 97.7146 -3.75185 1.71201 0
M  V30 798 H 97.0556 -0.461618 0.477289 0
M  V30 799 H 99.5856 -0.905949 1.8345 0
M  V30 800 H 99.5956 -3.27963 2.42702 0
M  V30 801 H 98.2706 -2.52923 3.30156 0
M  V30 802 H 96.8476 -3.33958 1.65912 0
M  V30 803 N 99.0327 -1.24633 -0.964593 0
M  V30 804 C 100.281 -1.08573 -1.70459 0
M  V30 805 C 100.602 0.375655 -1.91347 0
M  V30 806 O 99.8717 1.26779 -1.49345 0
M  V30 807 H 98.4517 -0.398784 -0.631649 0
M  V30 808 H 101.114 -1.56601 -1.16026 0
M  V30 809 H 100.21 -1.58623 -2.68785 0
M  V30 810 N 100.511 1.16574 -1.06058 0
M  V30 811 C 101.474 2.19085 -0.673392 0
M  V30 812 C 102.474 1.5835 0.279648 0
M  V30 813 O 103.664 1.74088 0.0623488 0
M  V30 814 C 100.796 3.40899 0.00954234 0
M  V30 815 H 101.989 2.54853 -1.58081 0
M  V30 816 H 99.5418 1.30808 -0.855516 0
M  V30 817 H 100.277 3.10684 0.929826 0
M  V30 818 H 100.062 3.86233 -0.67573 0
M  V30 819 H 101.552 4.1675 0.266245 0
M  V30 820 N 101.989 0.842826 1.3317 0
M  V30 821 C 103.214 0.453129 2.02389 0
M  V30 822 C 103.639 -0.939105 1.6298 0
M  V30 823 O 102.997 -1.61472 0.8244 0
M  V30 824 C 103.045 0.586094 3.55805 0
M  V30 825 O 102.149 -0.386029 4.10589 0
M  V30 826 H 101.49 0.183664 0.638094 0
M  V30 827 H 104.02 1.13875 1.69981 0
M  V30 828 H 104.03 0.469209 4.05293 0
M  V30 829 H 102.705 1.6014 3.83833 0
M  V30 830 H 101.282 -0.226371 3.72212 0
M  V30 831 N 103.467 -1.45747 0.599634 0
M  V30 832 C 104.692 -2.07178 0.0960198 0
M  V30 833 C 105.117 -1.44268 -1.207 0
M  V30 834 O 104.475 -0.532503 -1.73303 0
M  V30 835 C 104.523 -3.60579 -0.0385348 0
M  V30 836 O 103.627 -3.97713 -1.0908 0
M  V30 837 H 102.968 -0.660251 0.0704593 0
M  V30 838 H 105.498 -1.87124 0.827385 0
M  V30 839 H 105.508 -4.07298 -0.239304 0
M  V30 840 H 104.183 -4.05756 0.912947 0
M  V30 841 H 102.76 -3.62678 -0.867135 0
M  V30 842 N 104.945 -0.338344 -1.53925 0
M  V30 843 C 106.193 0.259245 -2.0043 0
M  V30 844 C 106.514 1.51484 -1.22791 0
M  V30 845 O 105.784 1.93037 -0.33368 0
M  V30 846 H 104.364 0.0987845 -0.740439 0
M  V30 847 H 107.026 -0.458302 -1.89435 0
M  V30 848 H 106.122 0.505334 -3.07982 0
M  V30 849 N 106.423 1.57458 -0.0668435 0
M  V30 850 C 107.671 1.92919 0.602214 0
M  V30 851 C 107.992 0.947215 1.70449 0
M  V30 852 O 107.262 -0.00544117 1.95899 0
M  V30 853 H 105.842 0.71217 0.22544 0
M  V30 854 H 108.504 1.94508 -0.123535 0
M  V30 855 H 107.6 2.94589 1.03073 0
M  V30 856 N 107.901 -0.206675 1.56239 0
M  V30 857 C 109.149 -0.927007 1.79586 0
M  V30 858 C 109.47 -1.8427 0.637929 0
M  V30 859 O 108.74 -1.92849 -0.344398 0
M  V30 860 H 107.32 -0.345292 0.662407 0
M  V30 861 H 109.982 -0.21496 1.93711 0
M  V30 862 H 109.078 -1.52501 2.72305 0
M  V30 863 N 109.379 -1.50304 -0.473955 0
M  V30 864 C 110.342 -1.6841 -1.55469 0
M  V30 865 C 111.342 -0.554905 -1.50922 0
M  V30 866 O 112.532 -0.821882 -1.53593 0
M  V30 867 C 109.664 -1.70667 -2.95102 0
M  V30 868 H 110.857 -2.64828 -1.40733 0
M  V30 869 H 108.41 -1.39742 -0.700132 0
M  V30 870 H 109.145 -0.75932 -3.15285 0
M  V30 871 H 108.93 -2.52698 -2.9981 0
M  V30 872 H 110.42 -1.8664 -3.73571 0
M  V30 873 N 110.857 0.726932 -1.39834 0
M  V30 874 C 112.105 1.4837 -1.37225 0
M  V30 875 C 112.426 1.94979 0.0284857 0
M  V30 876 O 111.696 1.69555 0.981213 0
M  V30 877 H 110.276 0.55043 -0.505011 0
M  V30 878 H 112.938 0.862468 -1.74778 0
M  V30 879 H 112.034 2.36198 -2.04003 0
M  V30 880 N 112.336 1.25143 0.95797 0
M  V30 881 C 113.584 1.09476 1.69881 0
M  V30 882 C 113.905 -0.365502 1.91544 0
M  V30 883 O 113.175 -1.25985 1.50015 0
M  V30 884 H 111.755 0.402128 0.629525 0
M  V30 885 H 114.417 1.57214 1.15194 0
M  V30 886 H 113.513 1.60046 2.6794 0
M  V30 887 N 113.814 -1.1601 1.06675 0
M  V30 888 C 114.744 -2.22688 0.702307 0
M  V30 889 C 115.725 -1.67306 -0.307032 0
M  V30 890 O 116.91 -1.93352 -0.181305 0
M  V30 891 C 114.04 -3.47178 0.092038 0
M  V30 892 C 112.994 -4.15477 1.02777 0
M  V30 893 C 112.32 -5.33963 0.28061 0
M  V30 894 C 113.62 -4.66019 2.35846 0
M  V30 895 H 115.314 -2.53429 1.59419 0
M  V30 896 H 112.86 -1.21813 0.767961 0
M  V30 897 H 114.813 -4.21037 -0.174814 0
M  V30 898 H 113.537 -3.15749 -0.834877 0
M  V30 899 H 112.196 -3.43549 1.27944 0
M  V30 900 H 111.844 -4.98788 -0.649545 0
M  V30 901 H 111.544 -5.806 0.904258 0
M  V30 902 H 113.068 -6.10596 0.021396 0
M  V30 903 H 114.482 -5.3144 2.15045 0
M  V30 904 H 112.879 -5.23293 2.93743 0
M  V30 905 H 113.949 -3.82023 2.98641 0
M  V30 906 N 115.292 -0.849877 -1.32721 0
M  V30 907 C 116.224 -0.248332 -2.27851 0
M  V30 908 C 117.237 0.577218 -1.52224 0
M  V30 909 O 118.426 0.402489 -1.73903 0
M  V30 910 C 115.526 0.668107 -3.32249 0
M  V30 911 C 114.699 -0.120534 -4.37234 0
M  V30 912 C 113.758 0.720932 -5.21238 0
M  V30 913 O 112.784 0.156166 -5.68986 0
M  V30 914 N 113.986 2.03647 -5.43607 0
M  V30 915 H 116.751 -1.06575 -2.80111 0
M  V30 916 H 114.312 -0.709395 -1.45531 0
M  V30 917 H 116.304 1.23627 -3.85355 0
M  V30 918 H 114.874 1.38621 -2.80184 0
M  V30 919 H 114.094 -0.870108 -3.84477 0
M  V30 920 H 115.382 -0.662406 -5.0447 0
M  V30 921 H 114.78 2.51871 -5.06535 0
M  V30 922 H 113.337 2.55287 -5.99727 0
M  V30 923 N 116.77 1.45427 -0.607355 0
M  V30 924 C 118.181 1.85756 -0.187535 0
M  V30 925 C 118.532 1.5077 1.25551 0
M  V30 926 O 117.657 0.93427 1.95193 0
M  V30 927 C 118.252 3.37154 -0.333572 0
M  V30 928 C 116.811 3.76387 0.0315542 0
M  V30 929 C 115.958 2.69377 -0.658117 0
M  V30 930 H 118.909 1.36231 -0.81405 0
M  V30 931 H 118.93 3.78014 0.43428 0
M  V30 932 H 118.442 3.62586 -1.38393 0
M  V30 933 H 116.543 3.56571 1.0811 0
M  V30 934 H 116.656 4.77731 -0.361935 0
M  V30 935 H 115.02 2.5452 -0.0957873 0
M  V30 936 H 115.803 2.97646 -1.7106 0
M  V30 937 N 118.248 0.346503 1.53744 0
M  V30 938 C 119.473 -0.253074 2.0585 0
M  V30 939 C 119.898 -1.43202 1.21962 0
M  V30 940 O 119.256 -1.79783 0.234073 0
M  V30 941 C 119.304 -0.643193 3.54817 0
M  V30 942 O 118.408 -1.74286 3.73762 0
M  V30 943 H 117.749 -0.0413583 0.662711 0
M  V30 944 H 120.279 0.501574 1.98357 0
M  V30 945 H 120.289 -0.919526 3.97503 0
M  V30 946 H 118.964 0.218966 4.15323 0
M  V30 947 H 117.541 -1.46356 3.42979 0
M  V30 948 N 119.726 -1.57421 0.075193 0
M  V30 949 C 120.951 -1.98364 -0.605515 0
M  V30 950 C 121.376 -0.953383 -1.62149 0
M  V30 951 O 120.734 0.0806053 -1.81121 0
M  V30 952 C 120.782 -3.38332 -1.24756 0
M  V30 953 O 119.886 -3.37959 -2.36342 0
M  V30 954 H 119.227 -0.645553 -0.155428 0
M  V30 955 H 121.757 -2.04044 0.150714 0
M  V30 956 H 121.767 -3.75591 -1.5936 0
M  V30 957 H 120.442 -4.12846 -0.503129 0
M  V30 958 H 119.019 -3.12474 -2.03506 0
M  V30 959 N 121.204 0.198386 -1.56346 0
M  V30 960 C 122.62 0.549085 -1.49857 0
M  V30 961 C 122.82 1.86016 -0.774611 0
M  V30 962 O 121.876 2.50416 -0.323776 0
M  V30 963 C 123.189 0.606868 -2.94512 0
M  V30 964 C 124.737 0.695925 -3.05165 0
M  V30 965 C 125.212 0.784848 -4.51225 0
M  V30 966 N 126.703 0.848463 -4.55363 0
M  V30 967 C 127.438 0.937378 -5.65686 0
M  V30 968 N 126.934 0.9888 -6.85707 0
M  V30 969 N 128.727 0.974312 -5.53592 0
M  V30 970 H 120.878 -0.661655 -2.01831 0
M  V30 971 H 123.141 -0.235261 -0.918344 0
M  V30 972 H 122.847 -0.28732 -3.50524 0
M  V30 973 H 122.721 1.46268 -3.47686 0
M  V30 974 H 125.108 1.58055 -2.49204 0
M  V30 975 H 125.189 -0.186022 -2.55123 0
M  V30 976 H 124.833 -0.0954072 -5.0781 0
M  V30 977 H 124.763 1.68255 -4.98997 0
M  V30 978 H 127.254 0.818103 -3.68938 0
M  V30 979 H 127.567 1.05707 -7.65536 0
M  V30 980 H 125.912 0.957534 -6.88372 0
M  V30 981 H 129.103 0.930954 -4.58749 0
M  V30 982 H 129.276 1.04015 -6.39597 0
M  V30 983 N 122.682 1.50554 0.465978 0
M  V30 984 C 123.645 1.69233 1.54574 0
M  V30 985 C 124.645 0.562901 1.50626 0
M  V30 986 O 125.835 0.830016 1.53155 0
M  V30 987 C 122.967 1.7223 2.94193 0
M  V30 988 H 124.16 2.65571 1.39327 0
M  V30 989 H 121.713 1.40111 0.692711 0
M  V30 990 H 122.448 0.77603 3.14878 0
M  V30 991 H 122.233 2.54285 2.98466 0
M  V30 992 H 123.723 1.88618 3.72576 0
M  V30 993 N 124.16 -0.719506 1.40217 0
M  V30 994 C 125.408 -1.47641 1.3801 0
M  V30 995 C 125.729 -1.94992 -0.018145 0
M  V30 996 O 124.999 -1.70073 -0.972207 0
M  V30 997 H 123.579 -0.547744 0.507923 0
M  V30 998 H 126.241 -0.853187 1.75233 0
M  V30 999 H 125.337 -2.35112 2.05253 0
M  V30 1000 N 125.638 -1.25649 -0.95132 0
M  V30 1001 C 126.886 -1.10375 -1.69298 0
M  V30 1002 C 127.207 0.355339 -1.91735 0
M  V30 1003 O 126.477 1.25188 -1.50681 0
M  V30 1004 H 125.057 -0.405461 -0.627384 0
M  V30 1005 H 127.719 -1.57823 -1.14358 0
M  V30 1006 H 126.815 -1.61465 -2.67087 0
M  V30 1007 N 127.117 1.15442 -1.07289 0
M  V30 1008 C 128.365 1.85845 -0.794096 0
M  V30 1009 C 128.686 1.82692 0.681809 0
M  V30 1010 O 127.956 1.26741 1.49377 0
M  V30 1011 H 126.536 0.688089 -0.290763 0
M  V30 1012 H 129.198 1.39947 -1.3565 0
M  V30 1013 H 128.294 2.91001 -1.12804 0
M  V30 1014 N 128.595 0.856903 1.32268 0
M  V30 1015 C 130.011 0.547061 1.49931 0
M  V30 1016 C 130.211 -0.921781 1.7918 0
M  V30 1017 O 129.267 -1.70469 1.8627 0
M  V30 1018 C 130.58 1.43599 2.64196 0
M  V30 1019 C 132.128 1.43665 2.78081 0
M  V30 1020 C 132.603 2.31085 3.95428 0
M  V30 1021 N 134.094 2.28893 4.02694 0
M  V30 1022 C 134.829 2.93262 4.92732 0
M  V30 1023 N 134.325 3.66751 5.87763 0
M  V30 1024 N 136.118 2.82638 4.85873 0
M  V30 1025 H 128.269 1.8075 1.11549 0
M  V30 1026 H 130.532 0.772144 0.549997 0
M  V30 1027 H 130.238 2.48058 2.49319 0
M  V30 1028 H 130.112 1.12502 3.60032 0
M  V30 1029 H 132.499 0.399701 2.92381 0
M  V30 1030 H 132.58 1.7878 1.82952 0
M  V30 1031 H 132.224 3.34849 3.81888 0
M  V30 1032 H 132.154 1.93302 4.89839 0
M  V30 1033 H 134.645 1.75466 3.34694 0
M  V30 1034 H 134.958 4.13027 6.53168 0
M  V30 1035 H 133.303 3.70859 5.87783 0
M  V30 1036 H 136.494 2.24774 4.10602 0
M  V30 1037 H 136.667 3.33084 5.55841 0
M  V30 1038 N 130.073 -1.45103 0.615059 0
M  V30 1039 C 131.484 -1.85654 0.197383 0
M  V30 1040 C 131.835 -1.51433 -1.24749 0
M  V30 1041 O 130.96 -0.944608 -1.94695 0
M  V30 1042 C 131.555 -3.36972 0.351448 0
M  V30 1043 C 130.114 -3.76398 -0.011593 0
M  V30 1044 C 129.261 -2.69024 0.672394 0
M  V30 1045 H 132.212 -1.35797 0.821263 0
M  V30 1046 H 132.233 -3.78239 -0.414227 0
M  V30 1047 H 131.745 -3.61847 1.40314 0
M  V30 1048 H 129.846 -3.5714 -1.06217 0
M  V30 1049 H 129.959 -4.77532 0.387265 0
M  V30 1050 H 128.323 -2.54465 0.109284 0
M  V30 1051 H 129.106 -2.96735 1.72636 0
M  V30 1052 N 131.551 -0.354651 -1.53558 0
M  V30 1053 C 132.776 0.242153 -2.05981 0
M  V30 1054 C 133.201 1.42553 -1.2272 0
M  V30 1055 O 132.559 1.79656 -0.243604 0
M  V30 1056 C 132.607 0.624367 -3.55154 0
M  V30 1057 O 131.711 1.72301 -3.74681 0
M  V30 1058 H 131.052 0.0378432 -0.662921 0
M  V30 1059 H 133.582 -0.512087 -1.98088 0
M  V30 1060 H 133.592 0.898433 -3.97985 0
M  V30 1061 H 132.267 -0.240989 -4.15201 0
M  V30 1062 H 130.844 1.44535 -3.4375 0
M  V30 1063 N 133.029 1.57378 -0.0835403 0
M  V30 1064 C 134.254 1.98682 0.594987 0
M  V30 1065 C 134.679 0.961969 1.61641 0
M  V30 1066 O 134.037 -0.0709989 1.81161 0
M  V30 1067 C 134.085 3.38988 1.2296 0
M  V30 1068 O 133.189 3.39208 2.34546 0
M  V30 1069 H 132.53 0.646368 0.152002 0
M  V30 1070 H 135.06 2.03961 -0.161533 0
M  V30 1071 H 135.07 3.76431 1.57366 0
M  V30 1072 H 133.745 4.13107 0.481228 0
M  V30 1073 H 132.322 3.13548 2.01846 0
M  V30 1074 N 134.507 -0.190092 1.56449 0
M  V30 1075 C 135.918 -0.754312 1.70784 0
M  V30 1076 C 136.269 -1.83631 0.690951 0
M  V30 1077 O 135.394 -2.15868 -0.151604 0
M  V30 1078 C 135.989 -1.37503 3.09642 0
M  V30 1079 C 134.548 -1.88628 3.25725 0
M  V30 1080 C 133.695 -0.758098 2.66736 0
M  V30 1081 H 136.646 0.0350524 1.58661 0
M  V30 1082 H 136.667 -2.2445 3.0725 0
M  V30 1083 H 136.179 -0.587302 3.83631 0
M  V30 1084 H 134.28 -2.70103 2.56661 0
M  V30 1085 H 134.393 -2.04462 4.3328 0
M  V30 1086 H 132.757 -1.17369 2.26046 0
M  V30 1087 H 133.54 0.0174705 3.43296 0
M  V30 1088 N 135.985 -1.50799 -0.457987 0
M  V30 1089 C 137.21 -1.66496 -1.23668 0
M  V30 1090 C 137.635 -0.353288 -1.84752 0
M  V30 1091 O 136.993 0.684346 -1.67888 0
M  V30 1092 C 137.041 -2.76763 -2.3116 0
M  V30 1093 O 136.145 -2.38928 -3.36136 0
M  V30 1094 H 135.486 -0.555828 -0.363252 0
M  V30 1095 H 138.016 -1.9725 -0.543474 0
M  V30 1096 H 138.026 -3.00232 -2.76269 0
M  V30 1097 H 136.701 -3.71954 -1.86073 0
M  V30 1098 H 135.278 -2.25953 -2.96647 0
M  V30 1099 N 137.463 0.71206 -1.40597 0
M  V30 1100 C 138.874 1.29135 -1.34837 0
M  V30 1101 C 139.225 1.96186 -0.0235395 0
M  V30 1102 O 138.35 1.97768 0.878444 0
M  V30 1103 C 138.945 2.34827 -2.44217 0
M  V30 1104 C 137.504 2.88371 -2.41907 0
M  V30 1105 C 136.651 1.62202 -2.24913 0
M  V30 1106 H 139.602 0.507944 -1.50352 0
M  V30 1107 H 139.623 3.15749 -2.12327 0
M  V30 1108 H 139.135 1.85996 -3.40627 0
M  V30 1109 H 137.236 3.41422 -1.49204 0
M  V30 1110 H 137.349 3.39925 -3.37621 0
M  V30 1111 H 135.713 1.874 -1.72492 0
M  V30 1112 H 136.496 1.15391 -3.23326 0
M  V30 1113 N 138.941 1.26152 0.944643 0
M  V30 1114 C 140.166 1.14363 1.7302 0
M  V30 1115 C 140.591 -0.29772 1.85729 0
M  V30 1116 O 139.949 -1.2157 1.34501 0
M  V30 1117 C 139.997 1.81378 3.11664 0
M  V30 1118 O 139.101 1.10022 3.97453 0
M  V30 1119 H 138.442 0.398694 0.53098 0
M  V30 1120 H 140.972 1.66906 1.18337 0
M  V30 1121 H 140.982 1.88064 3.62072 0
M  V30 1122 H 139.657 2.86237 3.0173 0
M  V30 1123 H 138.234 1.11287 3.55907 0
M  V30 1124 N 140.419 -1.14872 1.07899 0
M  V30 1125 C 141.665 -1.86064 0.806725 0
M  V30 1126 C 141.998 -1.82434 -0.665706 0
M  V30 1127 O 141.273 -1.25138 -1.48899 0
M  V30 1128 C 141.556 -3.34929 1.32267 0
M  V30 1129 C 141.409 -3.47161 2.86006 0
M  V30 1130 C 142.728 -4.29863 0.943717 0
M  V30 1131 H 139.847 -0.675591 0.294526 0
M  V30 1132 H 142.489 -1.34925 1.33773 0
M  V30 1133 H 140.639 -3.78611 0.870974 0
M  V30 1134 H 142.311 -3.12302 3.39507 0
M  V30 1135 H 140.554 -2.88539 3.23925 0
M  V30 1136 H 141.225 -4.51777 3.17177 0
M  V30 1137 H 143.701 -3.9417 1.33302 0
M  V30 1138 H 142.577 -5.32494 1.33198 0
M  V30 1139 H 142.838 -4.41846 -0.149796 0
M  V30 1140 N 141.898 -0.863906 -1.31812 0
M  V30 1141 C 143.144 -0.472535 -1.97218 0
M  V30 1142 C 143.477 0.971394 -1.68159 0
M  V30 1143 O 142.752 1.68309 -0.974798 0
M  V30 1144 C 143.035 -0.723054 -3.52766 0
M  V30 1145 C 142.888 -2.21608 -3.91421 0
M  V30 1146 C 144.207 -0.185522 -4.39709 0
M  V30 1147 H 141.326 -0.173158 -0.71637 0
M  V30 1148 H 143.968 -1.08403 -1.56041 0
M  V30 1149 H 142.118 -0.202577 -3.87971 0
M  V30 1150 H 143.79 -2.80334 -3.66347 0
M  V30 1151 H 142.033 -2.691 -3.40246 0
M  V30 1152 H 142.704 -2.34203 -4.99853 0
M  V30 1153 H 145.18 -0.630726 -4.11292 0
M  V30 1154 H 144.056 -0.390306 -5.47511 0
M  V30 1155 H 144.317 0.912229 -4.32586 0
M  V30 1156 N 143.376 1.44774 -0.622745 0
M  V30 1157 C 144.601 2.06999 -0.128968 0
M  V30 1158 C 145.026 1.4617 1.1839 0
M  V30 1159 O 144.384 0.560007 1.72434 0
M  V30 1160 C 144.432 3.60595 -0.0188351 0
M  V30 1161 O 143.536 3.99398 1.02739 0
M  V30 1162 H 142.877 0.659047 -0.0809544 0
M  V30 1163 H 145.407 1.85784 -0.85705 0
M  V30 1164 H 145.417 4.07627 0.174476 0
M  V30 1165 H 144.092 4.04252 -0.977384 0
M  V30 1166 H 142.669 3.64011 0.809326 0
M  V30 1167 N 144.854 0.36279 1.53368 0
M  V30 1168 C 145.764 -0.492994 2.29362 0
M  V30 1169 C 146.78 -1.09507 1.35219 0
M  V30 1170 O 147.956 -1.10662 1.68273 0
M  V30 1171 C 145.021 -1.61855 3.066 0
M  V30 1172 C 144.082 -1.04429 4.16405 0
M  V30 1173 C 143.315 -2.11621 4.89951 0
M  V30 1174 O 143.538 -3.32684 4.63333 0
M  V30 1175 O 142.472 -1.74835 5.75948 0
M  V30 1176 H 146.298 0.125331 3.03441 0
M  V30 1177 H 143.883 0.127253 1.48857 0
M  V30 1178 H 145.765 -2.27302 3.54841 0
M  V30 1179 H 144.44 -2.22233 2.3536 0
M  V30 1180 H 143.347 -0.353819 3.72423 0
M  V30 1181 H 144.68 -0.485113 4.89804 0
M  V30 1182 N 146.332 -1.57332 0.0918853 0
M  V30 1183 C 147.279 -2.13847 -0.868211 0
M  V30 1184 C 148.249 -1.05618 -1.28196 0
M  V30 1185 O 149.434 -1.33387 -1.36427 0
M  V30 1186 C 146.574 -2.72062 -2.12312 0
M  V30 1187 C 145.687 -3.94514 -1.7602 0
M  V30 1188 C 144.822 -4.40903 -2.96273 0
M  V30 1189 C 143.861 -5.55953 -2.56092 0
M  V30 1190 N 142.998 -5.97209 -3.69169 0
M  V30 1191 H 147.838 -2.95575 -0.379406 0
M  V30 1192 H 145.375 -1.46048 -0.175606 0
M  V30 1193 H 147.333 -3.03931 -2.858 0
M  V30 1194 H 145.963 -1.93068 -2.58698 0
M  V30 1195 H 145.015 -3.68979 -0.925135 0
M  V30 1196 H 146.327 -4.7802 -1.42472 0
M  V30 1197 H 145.481 -4.74539 -3.78018 0
M  V30 1198 H 144.22 -3.56291 -3.33029 0
M  V30 1199 H 143.225 -5.21948 -1.72773 0
M  V30 1200 H 144.45 -6.42311 -2.20484 0
M  V30 1201 H 142.396 -5.15543 -4.05649 0
M  V30 1202 H 142.313 -6.75504 -3.39456 0
M  V30 1203 H 143.581 -6.35475 -4.51434 0
M  V30 1204 N 147.81 0.181792 -1.56548 0
M  V30 1205 C 148.72 1.24538 -1.98815 0
M  V30 1206 C 149.736 1.49045 -0.897861 0
M  V30 1207 O 150.912 1.61399 -1.20467 0
M  V30 1208 C 147.977 2.56683 -2.33055 0
M  V30 1209 C 147.038 2.40131 -3.55859 0
M  V30 1210 C 146.271 3.65975 -3.88456 0
M  V30 1211 O 146.494 4.70711 -3.22161 0
M  V30 1212 O 145.428 3.6071 -4.81842 0
M  V30 1213 H 149.254 0.916647 -2.89536 0
M  V30 1214 H 146.839 0.387842 -1.44278 0
M  V30 1215 H 148.721 3.34655 -2.56094 0
M  V30 1216 H 147.396 2.89157 -1.45498 0
M  V30 1217 H 146.303 1.60226 -3.38051 0
M  V30 1218 H 147.636 2.12585 -4.43924 0
M  V30 1219 N 149.288 1.51039 0.449983 0
M  V30 1220 C 150.235 1.71439 1.54523 0
M  V30 1221 C 151.205 0.555871 1.56522 0
M  V30 1222 O 152.39 0.788871 1.73728 0
M  V30 1223 C 149.53 1.83384 2.92343 0
M  V30 1224 C 148.643 3.10873 2.9997 0
M  V30 1225 C 147.778 3.13488 4.28834 0
M  V30 1226 C 146.817 4.35343 4.30282 0
M  V30 1227 N 145.954 4.35579 5.5065 0
M  V30 1228 H 150.794 2.64934 1.36433 0
M  V30 1229 H 148.331 1.31312 0.662982 0
M  V30 1230 H 150.289 1.88291 3.72293 0
M  V30 1231 H 148.919 0.933086 3.0902 0
M  V30 1232 H 147.971 3.15336 2.12761 0
M  V30 1233 H 149.283 4.00814 2.96901 0
M  V30 1234 H 148.437 3.17241 5.17149 0
M  V30 1235 H 147.176 2.21414 4.34543 0
M  V30 1236 H 146.181 4.3178 3.40362 0
M  V30 1237 H 147.406 5.28668 4.26248 0
M  V30 1238 H 145.352 3.46369 5.57104 0
M  V30 1239 H 145.269 5.19313 5.49409 0
M  V30 1240 H 146.537 4.43507 6.41032 0
M  V30 1241 N 150.766 -0.704594 1.40972 0
M  V30 1242 C 151.676 -1.84856 1.44448 0
M  V30 1243 C 152.692 -1.70726 0.335961 0
M  V30 1244 O 153.868 -1.92799 0.582276 0
M  V30 1245 C 150.933 -3.20758 1.31587 0
M  V30 1246 C 149.994 -3.47063 2.52677 0
M  V30 1247 C 149.227 -4.76481 2.4042 0
M  V30 1248 O 149.45 -5.52341 1.42391 0
M  V30 1249 O 148.384 -5.03367 3.30007 0
M  V30 1250 H 152.21 -1.8488 2.40942 0
M  V30 1251 H 149.795 -0.85647 1.22413 0
M  V30 1252 H 151.677 -4.01913 1.26665 0
M  V30 1253 H 150.352 -3.21438 0.382049 0
M  V30 1254 H 149.259 -2.65873 2.63177 0
M  V30 1255 H 150.592 -3.5119 3.44858 0
M  V30 1256 N 152.244 -1.26651 -0.937939 0
M  V30 1257 C 153.154 -1.10276 -2.07066 0
M  V30 1258 C 154.17 -0.0354197 -1.73964 0
M  V30 1259 O 155.346 -0.239816 -1.99967 0
M  V30 1260 C 152.411 -0.740887 -3.38691 0
M  V30 1261 C 151.472 -1.88799 -3.85556 0
M  V30 1262 C 150.705 -1.54329 -5.10899 0
M  V30 1263 O 150.928 -0.446494 -5.6865 0
M  V30 1264 O 149.862 -2.37911 -5.52885 0
M  V30 1265 H 153.688 -2.05309 -2.23789 0
M  V30 1266 H 151.273 -1.05743 -1.0554 0
M  V30 1267 H 153.155 -0.55195 -4.1777 0
M  V30 1268 H 151.83 0.180022 -3.23199 0
M  V30 1269 H 150.737 -2.13191 -3.07409 0
M  V30 1270 H 152.07 -2.78874 -4.05574 0
M  V30 1271 N 153.722 1.14298 -1.08507 0
M  V30 1272 C 154.652 2.21542 -0.737646 0
M  V30 1273 C 155.633 1.67773 0.280377 0
M  V30 1274 O 156.818 1.93616 0.150521 0
M  V30 1275 C 153.948 3.46988 -0.147259 0
M  V30 1276 C 152.902 4.13789 -1.09374 0
M  V30 1277 C 152.228 5.33449 -0.365524 0
M  V30 1278 C 153.528 4.62208 -2.4323 0
M  V30 1279 H 155.222 2.5086 -1.6343 0
M  V30 1280 H 152.768 1.20576 -0.787243 0
M  V30 1281 H 154.721 4.21262 0.107808 0
M  V30 1282 H 153.445 3.17037 0.784538 0
M  V30 1283 H 152.104 3.4147 -1.33393 0
M  V30 1284 H 151.752 4.99759 0.57011 0
M  V30 1285 H 151.452 5.79088 -0.996512 0
M  V30 1286 H 152.976 6.10485 -0.118534 0
M  V30 1287 H 154.39 5.27952 -2.23472 0
M  V30 1288 H 152.787 5.18553 -3.02031 0
M  V30 1289 H 153.857 3.77224 -3.04681 0
M  V30 1290 N 155.201 0.870884 1.31352 0
M  V30 1291 C 156.111 0.330783 2.32256 0
M  V30 1292 C 157.127 -0.559767 1.6475 0
M  V30 1293 O 158.303 -0.456263 1.96164 0
M  V30 1294 C 155.368 -0.458137 3.4366 0
M  V30 1295 C 154.429 0.460482 4.26823 0
M  V30 1296 C 153.662 -0.290881 5.32907 0
M  V30 1297 O 153.885 -1.51885 5.49806 0
M  V30 1298 O 152.819 0.351732 6.00871 0
M  V30 1299 H 156.645 1.16718 2.80376 0
M  V30 1300 H 154.23 0.634285 1.35267 0
M  V30 1301 H 156.112 -0.905343 4.1156 0
M  V30 1302 H 154.787 -1.27106 2.97701 0
M  V30 1303 H 153.694 0.956207 3.61673 0
M  V30 1304 H 155.027 1.23903 4.7635 0
M  V30 1305 N 156.679 -1.44442 0.630414 0
M  V30 1306 C 158.095 -1.56832 0.295973 0
M  V30 1307 C 158.295 -1.61806 -1.20088 0
M  V30 1308 O 157.351 -1.5607 -1.9849 0
M  V30 1309 C 158.664 -2.84031 0.987264 0
M  V30 1310 C 160.212 -2.97742 0.96534 0
M  V30 1311 C 160.687 -4.27743 1.63708 0
M  V30 1312 N 162.178 -4.34555 1.60364 0
M  V30 1313 C 162.913 -5.33862 2.09234 0
M  V30 1314 N 162.409 -6.39578 2.66292 0
M  V30 1315 N 164.202 -5.25366 1.99867 0
M  V30 1316 H 156.353 -1.39457 1.60205 0
M  V30 1317 H 158.616 -0.668237 0.672431 0
M  V30 1318 H 158.322 -2.86338 2.04215 0
M  V30 1319 H 158.196 -3.73534 0.524588 0
M  V30 1320 H 160.583 -2.94989 -0.0810639 0
M  V30 1321 H 160.664 -2.09589 1.4665 0
M  V30 1322 H 160.308 -4.31255 2.68293 0
M  V30 1323 H 160.238 -5.14752 1.11076 0
M  V30 1324 H 162.729 -3.58772 1.18705 0
M  V30 1325 H 163.042 -7.11637 3.01317 0
M  V30 1326 H 161.387 -6.40265 2.70343 0
M  V30 1327 H 164.578 -4.41688 1.55013 0
M  V30 1328 H 164.751 -6.02606 2.38265 0
M  V30 1329 N 158.157 -0.370918 -1.53173 0
M  V30 1330 C 159.087 0.464847 -2.28826 0
M  V30 1331 C 160.068 1.07936 -1.31468 0
M  V30 1332 O 161.253 1.0956 -1.60344 0
M  V30 1333 C 158.383 1.60196 -3.08147 0
M  V30 1334 C 157.337 1.11443 -4.13237 0
M  V30 1335 C 156.663 2.3422 -4.80672 0
M  V30 1336 C 157.963 0.195384 -5.21934 0
M  V30 1337 H 159.657 -0.166329 -2.98938 0
M  V30 1338 H 157.203 -0.0814359 -1.4377 0
M  V30 1339 H 159.156 2.19332 -3.59822 0
M  V30 1340 H 157.88 2.26045 -2.35735 0
M  V30 1341 H 156.539 0.545727 -3.62515 0
M  V30 1342 H 156.187 2.98537 -4.04827 0
M  V30 1343 H 155.887 2.02269 -5.51689 0
M  V30 1344 H 157.411 2.94032 -5.35143 0
M  V30 1345 H 158.825 0.694375 -5.69079 0
M  V30 1346 H 157.222 -0.0335027 -6.00091 0
M  V30 1347 H 158.292 -0.760961 -4.78892 0
M  V30 1348 N 159.635 1.57281 -0.100228 0
M  V30 1349 C 160.567 2.11342 0.886972 0
M  V30 1350 C 161.58 1.05182 1.24261 0
M  V30 1351 O 162.769 1.32613 1.19483 0
M  V30 1352 C 159.869 2.5825 2.19454 0
M  V30 1353 C 159.042 3.88302 2.01346 0
M  V30 1354 C 158.101 4.21004 3.15661 0
M  V30 1355 O 157.127 4.9014 2.89398 0
M  V30 1356 N 158.329 3.76818 4.41575 0
M  V30 1357 H 161.094 2.96668 0.425216 0
M  V30 1358 H 158.655 1.61678 0.0847334 0
M  V30 1359 H 160.647 2.7717 2.94888 0
M  V30 1360 H 159.217 1.77907 2.57037 0
M  V30 1361 H 158.437 3.7848 1.10212 0
M  V30 1362 H 159.725 4.73375 1.8653 0
M  V30 1363 H 159.123 3.2102 4.65792 0
M  V30 1364 H 157.68 4.00882 5.13942 0
M  V30 1365 N 161.113 -0.173488 1.56642 0
M  V30 1366 C 162.06 -1.21482 1.96242 0
M  V30 1367 C 163.03 -1.44104 0.826027 0
M  V30 1368 O 164.215 -1.5688 1.08597 0
M  V30 1369 C 161.355 -2.54964 2.32567 0
M  V30 1370 C 160.468 -2.39739 3.59373 0
M  V30 1371 C 159.603 -3.66072 3.84921 0
M  V30 1372 C 158.642 -3.45771 5.05083 0
M  V30 1373 N 157.779 -4.64169 5.26775 0
M  V30 1374 H 162.619 -0.870123 2.85014 0
M  V30 1375 H 160.156 -0.418245 1.41029 0
M  V30 1376 H 162.114 -3.32758 2.5165 0
M  V30 1377 H 160.744 -2.87433 1.46908 0
M  V30 1378 H 159.796 -1.53131 3.48217 0
M  V30 1379 H 161.108 -2.20683 4.47326 0
M  V30 1380 H 160.262 -4.52303 4.0436 0
M  V30 1381 H 159.001 -3.88105 2.9534 0
M  V30 1382 H 158.006 -2.57927 4.85545 0
M  V30 1383 H 159.231 -3.25163 5.96193 0
M  V30 1384 H 157.177 -4.86425 4.40144 0
M  V30 1385 H 157.094 -4.48019 6.08946 0
M  V30 1386 H 158.362 -5.51689 5.5069 0
M  V30 1387 N 162.591 -1.51276 -0.441967 0
M  V30 1388 C 163.501 -1.75092 -1.56141 0
M  V30 1389 C 164.517 -0.634963 -1.62001 0
M  V30 1390 O 165.693 -0.916686 -1.79329 0
M  V30 1391 C 162.758 -1.86666 -2.92158 0
M  V30 1392 C 161.819 -3.10506 -2.96453 0
M  V30 1393 C 161.052 -3.21519 -4.25982 0
M  V30 1394 O 161.275 -2.38586 -5.18105 0
M  V30 1395 O 160.209 -4.14465 -4.36466 0
M  V30 1396 H 164.035 -2.70044 -1.38961 0
M  V30 1397 H 161.62 -1.35722 -0.624499 0
M  V30 1398 H 163.502 -1.96292 -3.72891 0
M  V30 1399 H 162.177 -0.949014 -3.09476 0
M  V30 1400 H 161.084 -3.06363 -2.14692 0
M  V30 1401 H 162.417 -4.01945 -2.84079 0
M  V30 1402 N 164.069 0.697108 -1.41344 0
M  V30 1403 C 164.979 1.84088 -1.45427 0
M  V30 1404 C 165.995 1.70545 -0.34501 0
M  V30 1405 O 167.171 1.92488 -0.592492 0
M  V30 1406 C 164.236 3.20056 -1.33286 0
M  V30 1407 C 163.297 3.45718 -2.54514 0
M  V30 1408 C 162.53 4.75199 -2.42944 0
M  V30 1409 O 162.753 5.51579 -1.45318 0
M  V30 1410 O 161.687 5.0161 -3.32672 0
M  V30 1411 H 165.513 1.836 -2.41919 0
M  V30 1412 H 163.098 0.849966 -1.22866 0
M  V30 1413 H 164.98 4.01236 -1.28794 0
M  V30 1414 H 163.655 3.2123 -0.39909 0
M  V30 1415 H 162.562 2.64474 -2.64583 0
M  V30 1416 H 163.895 3.49356 -3.46715 0
M  V30 1417 N 165.547 1.27147 0.931209 0
M  V30 1418 C 166.457 1.11372 2.06478 0
M  V30 1419 C 167.473 0.044645 1.73943 0
M  V30 1420 O 168.649 0.250417 1.99837 0
M  V30 1421 C 165.714 0.758838 3.38294 0
M  V30 1422 C 164.775 1.90841 3.84549 0
M  V30 1423 C 164.008 1.57036 5.10074 0
M  V30 1424 O 164.231 0.476645 5.68405 0
M  V30 1425 O 163.165 2.40839 5.51616 0
M  V30 1426 H 166.991 2.06493 2.22698 0
M  V30 1427 H 164.576 1.06301 1.04978 0
M  V30 1428 H 166.458 0.574098 4.17471 0
M  V30 1429 H 165.133 -0.162879 3.2329 0
M  V30 1430 H 164.04 2.14819 3.06274 0
M  V30 1431 H 165.373 2.81021 4.04089 0
M  V30 1432 N 167.025 -1.13721 1.09112 0
M  V30 1433 C 167.935 -2.22638 0.73957 0
M  V30 1434 C 168.951 -1.72091 -0.257068 0
M  V30 1435 O 170.127 -2.01155 -0.0992154 0
M  V30 1436 C 167.192 -3.46322 0.16191 0
M  V30 1437 C 166.253 -4.11775 1.21408 0
M  V30 1438 C 165.486 -5.29555 0.663891 0
M  V30 1439 O 165.709 -5.68077 -0.514274 0
M  V30 1440 O 164.643 -5.84973 1.41738 0
M  V30 1441 H 168.469 -2.55074 1.64836 0
M  V30 1442 H 166.054 -1.21791 0.865289 0
M  V30 1443 H 167.936 -4.21107 -0.157073 0
M  V30 1444 H 166.611 -3.15593 -0.719932 0
M  V30 1445 H 165.518 -3.3883 1.58571 0
M  V30 1446 H 166.851 -4.46627 2.06845 0
M  V30 1447 N 168.503 -0.877838 -1.30888 0
M  V30 1448 C 169.919 -0.570844 -1.49042 0
M  V30 1449 C 170.119 0.893159 -1.80624 0
M  V30 1450 O 169.175 1.67485 -1.88958 0
M  V30 1451 C 170.488 -1.47784 -2.61878 0
M  V30 1452 C 172.036 -1.48071 -2.75761 0
M  V30 1453 C 172.511 -2.37347 -3.91702 0
M  V30 1454 N 174.002 -2.35271 -3.99001 0
M  V30 1455 C 174.737 -3.01063 -4.88004 0
M  V30 1456 N 174.233 -3.76055 -5.81854 0
M  V30 1457 N 176.026 -2.90332 -4.81315 0
M  V30 1458 H 168.177 -1.82502 -1.0866 0
M  V30 1459 H 170.44 -0.780797 -0.537644 0
M  V30 1460 H 170.146 -2.51993 -2.45341 0
M  V30 1461 H 170.02 -1.18215 -3.58197 0
M  V30 1462 H 172.407 -0.446166 -2.91708 0
M  V30 1463 H 172.488 -1.81668 -1.80085 0
M  V30 1464 H 172.132 -3.40883 -3.76512 0
M  V30 1465 H 172.062 -2.01071 -4.86701 0
M  V30 1466 H 174.553 -1.80768 -3.3186 0
M  V30 1467 H 174.866 -4.23366 -6.46514 0
M  V30 1468 H 173.211 -3.80163 -5.81808 0
M  V30 1469 H 176.402 -2.31278 -4.06974 0
M  V30 1470 H 176.575 -3.41885 -5.50471 0
M  V30 1471 N 169.982 1.44106 -0.638065 0
M  V30 1472 C 170.929 2.30715 0.062701 0
M  V30 1473 C 171.899 1.43882 0.829883 0
M  V30 1474 O 173.084 1.72775 0.809532 0
M  V30 1475 C 170.224 3.29258 1.03358 0
M  V30 1476 C 169.337 4.31192 0.26409 0
M  V30 1477 C 168.472 5.16825 1.22741 0
M  V30 1478 C 167.511 6.10462 0.447475 0
M  V30 1479 N 166.648 6.8877 1.36161 0
M  V30 1480 H 171.488 2.90096 -0.681781 0
M  V30 1481 H 169.025 1.42925 -0.347988 0
M  V30 1482 H 170.983 3.84886 1.60992 0
M  V30 1483 H 169.613 2.71562 1.74511 0
M  V30 1484 H 168.665 3.77981 -0.428295 0
M  V30 1485 H 169.977 4.97619 -0.343052 0
M  V30 1486 H 169.131 5.77004 1.87487 0
M  V30 1487 H 167.87 4.50488 1.86847 0
M  V30 1488 H 166.875 5.49386 -0.213433 0
M  V30 1489 H 168.1 6.78837 -0.188968 0
M  V30 1490 H 166.046 6.25096 1.98975 0
M  V30 1491 H 165.963 7.51663 0.808656 0
M  V30 1492 H 167.231 7.53467 1.99769 0
M  V30 1493 N 171.46 0.379036 1.52974 0
M  V30 1494 C 172.407 -0.461048 2.26148 0
M  V30 1495 C 173.377 -1.06637 1.27349 0
M  V30 1496 O 174.562 -1.09633 1.56157 0
M  V30 1497 C 171.702 -1.58782 3.06402 0
M  V30 1498 C 170.815 -1.00636 4.20115 0
M  V30 1499 C 169.95 -2.10334 4.87784 0
M  V30 1500 C 168.989 -1.49724 5.93506 0
M  V30 1501 N 168.126 -2.5331 6.54812 0
M  V30 1502 H 172.966 0.169429 2.97518 0
M  V30 1503 H 170.503 0.0953806 1.4679 0
M  V30 1504 H 172.461 -2.25174 3.51215 0
M  V30 1505 H 171.091 -2.18876 2.37261 0
M  V30 1506 H 170.143 -0.232332 3.7969 0
M  V30 1507 H 171.455 -0.523343 4.96047 0
M  V30 1508 H 170.609 -2.84519 5.35849 0
M  V30 1509 H 169.348 -2.61992 4.11353 0
M  V30 1510 H 168.353 -0.740598 5.44789 0
M  V30 1511 H 169.578 -0.988732 6.71864 0
M  V30 1512 H 167.524 -3.04156 5.81227 0
M  V30 1513 H 167.441 -2.09734 7.26325 0
M  V30 1514 H 168.709 -3.27155 7.07524 0
M  V30 1515 N 172.938 -1.57226 0.108567 0
M  V30 1516 C 174.354 -1.5766 -0.248058 0
M  V30 1517 C 174.554 -1.12063 -1.67464 0
M  V30 1518 O 173.61 -0.803236 -2.39383 0
M  V30 1519 C 174.923 -3.0069 -0.0242287 0
M  V30 1520 C 176.471 -3.12868 -0.0909372 0
M  V30 1521 C 176.946 -4.57879 0.105067 0
M  V30 1522 N 178.437 -4.63172 0.0506846 0
M  V30 1523 C 179.172 -5.73126 0.177396 0
M  V30 1524 N 178.668 -6.91866 0.359696 0
M  V30 1525 N 180.461 -5.61977 0.117709 0
M  V30 1526 H 172.612 -1.85169 1.04049 0
M  V30 1527 H 174.875 -0.85529 0.40888 0
M  V30 1528 H 174.581 -3.38299 0.961604 0
M  V30 1529 H 174.455 -3.6945 -0.76068 0
M  V30 1530 H 176.842 -2.75124 -1.06729 0
M  V30 1531 H 176.923 -2.46672 0.677225 0
M  V30 1532 H 176.567 -4.96321 1.07834 0
M  V30 1533 H 176.497 -5.22153 -0.682954 0
M  V30 1534 H 178.988 -3.778 -0.0871266 0
M  V30 1535 H 179.301 -7.71503 0.447529 0
M  V30 1536 H 177.646 -6.93874 0.395536 0
M  V30 1537 H 180.837 -4.68094 -0.0236741 0
M  V30 1538 H 181.01 -6.47627 0.219905 0
M  V30 1539 N 174.416 0.165178 -1.56732 0
M  V30 1540 C 175.346 1.20651 -1.99914 0
M  V30 1541 C 176.327 1.45827 -0.875705 0
M  V30 1542 O 177.512 1.57057 -1.14223 0
M  V30 1543 C 174.642 2.54401 -2.36427 0
M  V30 1544 C 173.596 2.43782 -3.51787 0
M  V30 1545 C 172.922 3.82078 -3.7406 0
M  V30 1546 C 174.222 1.93732 -4.85041 0
M  V30 1547 H 175.916 0.847534 -2.87154 0
M  V30 1548 H 173.462 0.40625 -1.38151 0
M  V30 1549 H 175.415 3.27458 -2.65234 0
M  V30 1550 H 174.139 2.92098 -1.46103 0
M  V30 1551 H 172.798 1.73178 -3.23117 0
M  V30 1552 H 172.446 4.17179 -2.81017 0
M  V30 1553 H 172.146 3.7584 -4.51684 0
M  V30 1554 H 173.67 4.56712 -4.05274 0
M  V30 1555 H 175.084 2.56569 -5.12684 0
M  V30 1556 H 173.481 1.98428 -5.66345 0
M  V30 1557 H 174.551 0.891962 -4.76626 0
M  V30 1558 N 175.894 1.51508 0.433938 0
M  V30 1559 C 176.826 1.69266 1.54537 0
M  V30 1560 C 177.839 0.573276 1.52373 0
M  V30 1561 O 179.028 0.847698 1.57087 0
M  V30 1562 C 176.128 1.69524 2.93453 0
M  V30 1563 C 175.301 2.98101 3.20085 0
M  V30 1564 C 174.36 2.90502 4.38742 0
M  V30 1565 O 173.386 3.64442 4.3723 0
M  V30 1566 N 174.588 2.06586 5.42496 0
M  V30 1567 H 177.353 2.65145 1.39708 0
M  V30 1568 H 174.914 1.49437 0.622922 0
M  V30 1569 H 176.906 1.62004 3.70859 0
M  V30 1570 H 175.476 0.812245 3.01863 0
M  V30 1571 H 174.696 3.19464 2.30947 0
M  V30 1572 H 175.984 3.83207 3.34708 0
M  V30 1573 H 175.382 1.45896 5.46563 0
M  V30 1574 H 173.939 2.04943 6.18742 0
M  V30 1575 N 177.372 -0.689602 1.41712 0
M  V30 1576 C 178.302 -1.81577 1.46806 0
M  V30 1577 C 179.283 -1.66945 0.326105 0
M  V30 1578 O 180.468 -1.86588 0.538377 0
M  V30 1579 C 177.598 -3.19762 1.35535 0
M  V30 1580 C 176.552 -3.49107 2.47605 0
M  V30 1581 C 175.878 -4.86711 2.21397 0
M  V30 1582 C 177.178 -3.47483 3.89939 0
M  V30 1583 H 178.872 -1.7757 2.41058 0
M  V30 1584 H 176.418 -0.852887 1.16025 0
M  V30 1585 H 178.371 -3.98263 1.3771 0
M  V30 1586 H 177.095 -3.24409 0.377708 0
M  V30 1587 H 175.754 -2.72959 2.44722 0
M  V30 1588 H 175.402 -4.8799 1.21961 0
M  V30 1589 H 175.102 -5.0731 2.96497 0
M  V30 1590 H 176.626 -5.67515 2.25297 0
M  V30 1591 H 178.04 -4.1598 3.94505 0
M  V30 1592 H 176.437 -3.79615 4.64771 0
M  V30 1593 H 177.507 -2.46341 4.17665 0
M  V30 1594 N 178.85 -1.27639 -0.924453 0
M  V30 1595 C 180.08 -1.16819 -1.70402 0
M  V30 1596 C 180.488 0.277191 -1.87158 0
M  V30 1597 O 179.831 1.20025 -1.39067 0
M  V30 1598 C 179.893 -1.78305 -3.12166 0
M  V30 1599 C 179.557 -3.27502 -3.18734 0
M  V30 1600 C 180.554 -4.2409 -3.00738 0
M  V30 1601 C 178.239 -3.68269 -3.4159 0
M  V30 1602 C 180.233 -5.59422 -3.05492 0
M  V30 1603 C 177.92 -5.0373 -3.45977 0
M  V30 1604 C 178.918 -5.99116 -3.27946 0
M  V30 1605 O 178.606 -7.32108 -3.32074 0
M  V30 1606 H 178.338 -0.406931 -0.539799 0
M  V30 1607 H 180.892 -1.69078 -1.16626 0
M  V30 1608 H 179.122 -1.20528 -3.67437 0
M  V30 1609 H 180.811 -1.62154 -3.72103 0
M  V30 1610 H 181.577 -3.93931 -2.82919 0
M  V30 1611 H 177.456 -2.94496 -3.54673 0
M  V30 1612 H 181 -6.33852 -2.91337 0
M  V30 1613 H 176.897 -5.33543 -3.63321 0
M  V30 1614 H 177.665 -7.40598 -3.48507 0
M  V30 1615 N 180.328 1.1314 -1.09713 0
M  V30 1616 C 181.574 1.84757 -0.836224 0
M  V30 1617 C 181.907 1.8347 0.636598 0
M  V30 1618 O 181.182 1.27491 1.46889 0
M  V30 1619 C 181.465 3.32782 -1.37578 0
M  V30 1620 C 181.318 3.42567 -2.91493 0
M  V30 1621 C 182.637 4.28307 -1.01198 0
M  V30 1622 H 179.756 0.67082 -0.305236 0
M  V30 1623 H 182.398 1.3278 -1.35903 0
M  V30 1624 H 180.548 3.77177 -0.931097 0
M  V30 1625 H 182.22 3.06862 -3.44432 0
M  V30 1626 H 180.463 2.83349 -3.28475 0
M  V30 1627 H 181.134 4.46674 -3.24324 0
M  V30 1628 H 183.61 3.91999 -1.39556 0
M  V30 1629 H 182.486 5.30307 -1.41653 0
M  V30 1630 H 182.747 4.42029 0.0794833 0
M  V30 1631 N 181.806 0.884767 1.30421 0
M  V30 1632 C 183.053 0.503105 1.96151 0
M  V30 1633 C 183.381 -0.947676 1.69851 0
M  V30 1634 O 182.636 -1.68467 0.995861 0
M  V30 1635 C 182.935 0.724318 3.49983 0
M  V30 1636 C 182.601 2.15015 3.96332 0
M  V30 1637 C 181.263 2.54005 4.08699 0
M  V30 1638 C 183.615 3.07936 4.20505 0
M  V30 1639 C 180.943 3.85128 4.42599 0
M  V30 1640 C 183.295 4.3859 4.55874 0
M  V30 1641 C 181.959 4.77474 4.66449 0
M  V30 1642 H 181.229 0.184099 0.717766 0
M  V30 1643 H 183.876 1.12058 1.55291 0
M  V30 1644 H 182.181 0.0238086 3.91793 0
M  V30 1645 H 183.878 0.408617 3.98913 0
M  V30 1646 H 180.468 1.8375 3.87213 0
M  V30 1647 H 184.652 2.79033 4.10431 0
M  V30 1648 H 179.908 4.14996 4.48986 0
M  V30 1649 H 184.082 5.10629 4.7353 0
M  V30 1650 H 181.709 5.79115 4.92473 0
M  V30 1651 N 183.284 -1.43765 0.645699 0
M  V30 1652 C 184.53 -2.02197 0.156271 0
M  V30 1653 C 184.863 -1.50776 -1.22393 0
M  V30 1654 O 184.138 -0.697771 -1.81553 0
M  V30 1655 C 184.421 -3.59749 0.158872 0
M  V30 1656 C 184.274 -4.21419 1.57245 0
M  V30 1657 C 185.593 -4.37149 -0.50879 0
M  V30 1658 H 182.712 -0.734694 0.0582602 0
M  V30 1659 H 185.354 -1.71157 0.824951 0
M  V30 1660 H 183.504 -3.86325 -0.410525 0
M  V30 1661 H 185.176 -4.059 2.19186 0
M  V30 1662 H 183.419 -3.78356 2.122 0
M  V30 1663 H 184.09 -5.30482 1.52619 0
M  V30 1664 H 186.566 -4.16093 -0.024412 0
M  V30 1665 H 185.442 -5.4683 -0.476213 0
M  V30 1666 H 185.703 -4.12839 -1.58165 0
M  V30 1667 N 184.763 -0.387143 -1.52771 0
M  V30 1668 C 185.696 0.493123 -2.22808 0
M  V30 1669 C 186.674 1.0658 -1.22798 0
M  V30 1670 O 187.858 1.11785 -1.51777 0
M  V30 1671 C 184.985 1.68238 -2.93962 0
M  V30 1672 C 184.031 1.23515 -4.08223 0
M  V30 1673 S 184.864 0.21848 -5.35054 0
M  V30 1674 C 186.02 1.41357 -6.09729 0
M  V30 1675 H 186.253 -0.101625 -2.97126 0
M  V30 1676 H 183.786 -0.171323 -1.53447 0
M  V30 1677 H 185.744 2.36443 -3.35567 0
M  V30 1678 H 184.405 2.24842 -2.19328 0
M  V30 1679 H 183.598 2.12304 -4.57103 0
M  V30 1680 H 183.2 0.632044 -3.68621 0
M  V30 1681 H 185.492 2.34101 -6.3577 0
M  V30 1682 H 186.435 0.965736 -7.01484 0
M  V30 1683 H 186.843 1.6294 -5.40473 0
M  V30 1684 N 186.241 1.57166 -0.116904 0
M  V30 1685 C 187.657 1.5779 0.239693 0
M  V30 1686 C 187.857 1.1295 1.66867 0
M  V30 1687 O 186.913 0.81592 2.38954 0
M  V30 1688 C 188.226 3.00699 0.00828202 0
M  V30 1689 C 189.774 3.12912 0.0743438 0
M  V30 1690 C 190.249 4.57817 -0.129348 0
M  V30 1691 N 191.74 4.63139 -0.075247 0
M  V30 1692 C 192.475 5.73023 -0.207788 0
M  V30 1693 N 191.971 6.91665 -0.396382 0
M  V30 1694 N 193.764 5.61906 -0.14751 0
M  V30 1695 H 185.915 1.84615 -1.05029 0
M  V30 1696 H 188.178 0.85311 -0.41341 0
M  V30 1697 H 187.884 3.37784 -0.979531 0
M  V30 1698 H 187.758 3.69848 0.741077 0
M  V30 1699 H 190.145 2.75686 1.05268 0
M  V30 1700 H 190.226 2.4631 -0.690297 0
M  V30 1701 H 189.87 4.95742 -1.10465 0
M  V30 1702 H 189.8 5.22507 0.655253 0
M  V30 1703 H 192.291 3.7784 0.0670898 0
M  V30 1704 H 192.604 7.71255 -0.488437 0
M  V30 1705 H 190.949 6.93654 -0.432329 0
M  V30 1706 H 194.14 4.681 -0.00115036 0
M  V30 1707 H 194.313 6.47501 -0.254247 0
M  V30 1708 N 187.719 -0.156864 1.56817 0
M  V30 1709 C 188.959 -0.877453 1.84608 0
M  V30 1710 C 189.323 -1.78791 0.699845 0
M  V30 1711 O 190.524 -2.5472 0.858553 0
M  V30 1712 C 188.795 -1.63992 3.17555 0
M  V30 1713 S 190.354 -2.40729 3.66872 0
M  V30 1714 H 187.172 -0.293612 0.647544 0
M  V30 1715 H 189.774 -0.138099 1.95012 0
M  V30 1716 H 188.478 -0.962363 3.98957 0
M  V30 1717 H 188.009 -2.42038 3.10131 0
M  V30 1718 H 190.024 -3.65725 3.3535 0
M  V30 1719 N 189.197 -1.51736 -0.425897 0
M  V30 1720 C 190.446 -1.64201 -1.17136 0
M  V30 1721 C 190.759 -0.369705 -1.92074 0
M  V30 1722 O 191.965 -0.373898 -2.68913 0
M  V30 1723 C 190.421 -2.90035 -2.13091 0
M  V30 1724 C 190.029 -4.24312 -1.43747 0
M  V30 1725 C 191.773 -3.1186 -2.87999 0
M  V30 1726 C 189.68 -5.41285 -2.38253 0
M  V30 1727 H 188.61 -0.611624 -0.440944 0
M  V30 1728 H 191.261 -1.78212 -0.437328 0
M  V30 1729 H 189.643 -2.69684 -2.89977 0
M  V30 1730 H 190.817 -4.55086 -0.723408 0
M  V30 1731 H 189.132 -4.08456 -0.809465 0
M  V30 1732 H 191.729 -3.96427 -3.58817 0
M  V30 1733 H 192.072 -2.25403 -3.49999 0
M  V30 1734 H 192.605 -3.32605 -2.18217 0
M  V30 1735 H 189.344 -6.30037 -1.80925 0
M  V30 1736 H 188.864 -5.14872 -3.0768 0
M  V30 1737 H 190.543 -5.73694 -2.99139 0
M  V30 1738 N 190.675 0.682077 -1.42076 0
M  V30 1739 C 191.638 1.77756 -1.44691 0
M  V30 1740 C 192.638 1.5726 -0.335535 0
M  V30 1741 O 193.828 1.63686 -0.596037 0
M  V30 1742 C 190.96 3.16301 -1.27146 0
M  V30 1743 H 192.153 1.76826 -2.42224 0
M  V30 1744 H 189.706 0.891012 -1.28416 0
M  V30 1745 H 190.441 3.22862 -0.305075 0
M  V30 1746 H 190.226 3.32581 -2.07683 0
M  V30 1747 H 191.716 3.96241 -1.31843 0
M  V30 1748 N 192.153 1.28127 0.917671 0
M  V30 1749 C 193.383 1.17722 1.6978 0
M  V30 1750 C 193.791 -0.267261 1.87303 0
M  V30 1751 O 193.134 -1.19286 1.39702 0
M  V30 1752 C 193.196 1.79958 3.11216 0
M  V30 1753 C 192.86 3.29187 3.16993 0
M  V30 1754 C 193.857 4.25679 2.98485 0
M  V30 1755 C 191.542 3.70075 3.39632 0
M  V30 1756 C 193.536 5.61035 3.02521 0
M  V30 1757 C 191.223 5.05557 3.433 0
M  V30 1758 C 192.221 6.00847 3.24764 0
M  V30 1759 O 191.909 7.33859 3.28187 0
M  V30 1760 H 191.641 0.409788 0.537634 0
M  V30 1761 H 194.195 1.69694 1.15728 0
M  V30 1762 H 192.425 1.22475 3.66793 0
M  V30 1763 H 194.114 1.64125 3.71238 0
M  V30 1764 H 194.88 3.95426 2.80826 0
M  V30 1765 H 190.759 2.96373 3.53106 0
M  V30 1766 H 194.303 6.35388 2.87971 0
M  V30 1767 H 190.2 5.35462 3.60486 0
M  V30 1768 H 190.968 7.42436 3.44575 0
M  V30 1769 N 193.631 -1.12557 1.10312 0
M  V30 1770 C 195.042 -1.65574 0.862678 0
M  V30 1771 C 195.393 -1.86566 -0.607256 0
M  V30 1772 O 194.518 -1.59121 -1.46662 0
M  V30 1773 C 195.113 -3.00776 1.55947 0
M  V30 1774 C 193.672 -3.50748 1.36576 0
M  V30 1775 C 192.819 -2.25797 1.60968 0
M  V30 1776 H 195.77 -0.963552 1.26101 0
M  V30 1777 H 195.791 -3.67185 0.997753 0
M  V30 1778 H 195.303 -2.85465 2.62928 0
M  V30 1779 H 193.404 -3.71245 0.317531 0
M  V30 1780 H 193.517 -4.30289 2.10686 0
M  V30 1781 H 191.881 -2.32841 1.03234 0
M  V30 1782 H 192.664 -2.13043 2.69198 0
M  V30 1783 N 195.109 -0.891671 -1.2995 0
M  V30 1784 C 196.356 -0.513501 -1.95881 0
M  V30 1785 C 196.684 0.938655 -1.70351 0
M  V30 1786 O 195.939 1.67936 -1.00478 0
M  V30 1787 C 196.238 -0.742868 -3.49594 0
M  V30 1788 C 195.904 -2.17114 -3.95186 0
M  V30 1789 C 194.566 -2.56169 -4.07346 0
M  V30 1790 C 196.918 -3.10162 -4.18866 0
M  V30 1791 C 194.246 -3.87469 -4.4055 0
M  V30 1792 C 196.598 -4.41001 -4.53542 0
M  V30 1793 C 195.262 -4.79941 -4.63911 0
M  V30 1794 H 194.532 -0.187903 -0.71678 0
M  V30 1795 H 197.179 -1.1288 -1.54694 0
M  V30 1796 H 195.484 -0.044586 -3.91775 0
M  V30 1797 H 197.181 -0.429767 -3.9869 0
M  V30 1798 H 193.771 -1.85801 -3.86233 0
M  V30 1799 H 197.955 -2.81206 -4.08946 0
M  V30 1800 H 193.211 -4.17371 -4.46779 0
M  V30 1801 H 197.385 -5.13133 -4.70815 0
M  V30 1802 H 195.012 -5.81719 -4.89395 0
M  V30 1803 N 196.587 1.43421 -0.653314 0
M  V30 1804 C 197.535 2.32546 0.0501531 0
M  V30 1805 C 198.529 1.48617 0.812985 0
M  V30 1806 O 199.735 1.64825 0.723375 0
M  V30 1807 H 196.11 0.751185 0.0350032 0
M  V30 1808 H 198.081 2.89602 -0.719261 0
M  V30 1809 C 196.83 3.32925 1.00279 0
M  V30 1810 H 196.153 3.97532 0.425236 0
M  V30 1811 H 197.593 3.9792 1.46409 0
M  V30 1812 C 196.052 2.63532 2.09886 0
M  V30 1813 O 196.582 2.45092 3.18265 0
M  V30 1814 N 194.788 2.22905 1.86445 0
M  V30 1815 H 194.335 2.38103 0.98309 0
M  V30 1816 H 194.293 1.76805 2.59976 0
M  V30 1817 N 198.065 0.39524 1.52563 0
M  V30 1818 C 199.028 -0.425001 2.25225 0
M  V30 1819 C 200.028 -0.985266 1.27079 0
M  V30 1820 O 201.218 -0.866332 1.5113 0
M  V30 1821 C 198.35 -1.59686 3.01186 0
M  V30 1822 H 199.543 0.211233 2.99155 0
M  V30 1823 H 197.096 0.147472 1.55603 0
M  V30 1824 H 197.831 -2.27035 2.31572 0
M  V30 1825 H 197.616 -1.20176 3.73229 0
M  V30 1826 H 199.106 -2.17743 3.5634 0
M  V30 1827 N 199.544 -1.57102 0.125237 0
M  V30 1828 C 200.491 -2.15641 -0.822655 0
M  V30 1829 C 201.461 -1.08313 -1.25927 0
M  V30 1830 O 202.646 -1.36251 -1.33567 0
M  V30 1831 C 199.786 -2.76504 -2.06494 0
M  V30 1832 C 198.899 -3.98158 -1.67612 0
M  V30 1833 C 198.034 -4.47088 -2.86854 0
M  V30 1834 C 197.073 -5.6126 -2.44242 0
M  V30 1835 N 196.21 -6.04905 -3.56419 0
M  V30 1836 H 201.05 -2.96313 -0.316625 0
M  V30 1837 H 198.587 -1.46388 -0.144588 0
M  V30 1838 H 200.545 -3.09925 -2.79289 0
M  V30 1839 H 199.175 -1.98512 -2.54545 0
M  V30 1840 H 198.227 -3.70858 -0.846661 0
M  V30 1841 H 199.539 -4.80934 -1.32301 0
M  V30 1842 H 198.693 -4.82451 -3.67867 0
M  V30 1843 H 197.432 -3.63275 -3.25396 0
M  V30 1844 H 196.437 -5.25495 -1.61663 0
M  V30 1845 H 197.662 -6.46843 -2.0681 0
M  V30 1846 H 195.608 -5.24032 -3.94623 0
M  V30 1847 H 195.525 -6.82552 -3.25051 0
M  V30 1848 H 196.793 -6.44907 -4.37853 0
M  V30 1849 N 201.022 0.148545 -1.56898 0
M  V30 1850 C 201.954 1.20852 -1.9475 0
M  V30 1851 C 202.967 1.39265 -0.843152 0
M  V30 1852 O 204.156 1.38864 -1.12156 0
M  V30 1853 C 201.256 2.57362 -2.20495 0
M  V30 1854 C 200.429 2.59947 -3.51776 0
M  V30 1855 C 199.488 3.77984 -3.6608 0
M  V30 1856 O 198.514 3.62929 -4.38487 0
M  V30 1857 N 199.716 4.95375 -3.02629 0
M  V30 1858 H 202.481 0.886804 -2.86279 0
M  V30 1859 H 200.042 0.338121 -1.5833 0
M  V30 1860 H 202.034 3.34833 -2.27307 0
M  V30 1861 H 200.604 2.81832 -1.35238 0
M  V30 1862 H 199.824 1.68403 -3.56419 0
M  V30 1863 H 201.112 2.58704 -4.38121 0
M  V30 1864 H 200.51 5.10509 -2.43715 0
M  V30 1865 H 199.067 5.70627 -3.15004 0
M  V30 1866 N 202.5 1.5196 0.417844 0
M  V30 1867 C 203.911 1.57851 0.997 0
M  V30 1868 C 204.262 0.413714 1.91789 0
M  V30 1869 O 203.387 -0.467057 2.113 0
M  V30 1870 C 203.982 2.86085 1.81496 0
M  V30 1871 C 202.541 2.94483 2.34428 0
M  V30 1872 C 201.688 2.52707 1.14169 0
M  V30 1873 H 204.639 1.57455 0.198392 0
M  V30 1874 H 204.66 2.70947 2.67148 0
M  V30 1875 H 204.172 3.70842 1.14446 0
M  V30 1876 H 202.273 2.142 3.04875 0
M  V30 1877 H 202.386 3.98546 2.65891 0
M  V30 1878 H 200.75 2.06353 1.49301 0
M  V30 1879 H 201.533 3.39828 0.486999 0
M  V30 1880 N 203.978 -0.674533 1.42435 0
M  V30 1881 C 205.206 -1.46283 1.46317 0
M  V30 1882 C 205.621 -1.88653 0.0745836 0
M  V30 1883 O 204.978 -1.58151 -0.91074 0
M  V30 1884 C 205.029 -2.71178 2.3905 0
M  V30 1885 O 204.75 -2.30586 3.72507 0
M  V30 1886 C 206.251 -3.64738 2.51955 0
M  V30 1887 H 203.471 -0.450104 0.497642 0
M  V30 1888 H 206.015 -0.828792 1.86953 0
M  V30 1889 H 204.17 -3.3077 2.01667 0
M  V30 1890 H 204.584 -3.11241 4.22172 0
M  V30 1891 H 206.058 -4.49096 3.20962 0
M  V30 1892 H 206.535 -4.10656 1.55752 0
M  V30 1893 H 207.141 -3.11038 2.90061 0
M  V30 1894 N 205.456 -1.28612 -0.910864 0
M  V30 1895 C 206.733 -1.06632 -1.63979 0
M  V30 1896 C 207.113 0.393351 -2.07403 0
M  V30 1897 O 206.461 1.37999 -1.82122 0
M  V30 1898 C 206.671 -2.0436 -2.8291 0
M  V30 1899 C 208.019 -2.34666 -3.5386 0
M  V30 1900 O 209.043 -2.02467 -2.93062 0
M  V30 1901 O 207.902 -2.89631 -4.63439 0
M  V30 1902 H 204.996 -0.407737 -0.7195 0
M  V30 1903 H 207.542 -1.39942 -0.959914 0
M  V30 1904 H 206.314 -3.02727 -2.47936 0
M  V30 1905 H 205.937 -1.71714 -3.58609 0
M  V30 1906 N 206.934 1.1197 -1.10907 0
M  V30 1907 C 207.867 2.16998 -0.706192 0
M  V30 1908 C 208.845 1.59903 0.294897 0
M  V30 1909 O 210.029 1.87513 0.192636 0
M  V30 1910 C 207.156 3.38673 -0.0427664 0
M  V30 1911 C 206.202 4.14414 -1.00811 0
M  V30 1912 S 207.035 4.72079 -2.52789 0
M  V30 1913 C 208.191 5.97083 -1.87731 0
M  V30 1914 H 208.424 2.50837 -1.59587 0
M  V30 1915 H 205.957 1.23508 -0.926555 0
M  V30 1916 H 207.915 4.09142 0.333668 0
M  V30 1917 H 206.576 3.03105 0.823788 0
M  V30 1918 H 205.769 5.016 -0.491259 0
M  V30 1919 H 205.371 3.49678 -1.3267 0
M  V30 1920 H 207.663 6.66599 -1.21044 0
M  V30 1921 H 208.606 6.53403 -2.72892 0
M  V30 1922 H 209.014 5.4837 -1.33979 0
M  V30 1923 N 208.412 0.89855 1.29475 0
M  V30 1924 C 209.375 0.380272 2.26023 0
M  V30 1925 C 210.375 -0.484891 1.53315 0
M  V30 1926 O 211.565 -0.290108 1.71767 0
M  V30 1927 C 208.697 -0.45651 3.3783 0
M  V30 1928 H 209.89 1.23295 2.73383 0
M  V30 1929 H 207.443 0.676589 1.40897 0
M  V30 1930 H 208.178 -1.32922 2.95808 0
M  V30 1931 H 207.963 0.163393 3.91759 0
M  V30 1932 H 209.453 -0.810466 4.0966 0
M  V30 1933 N 209.89 -1.43072 0.660911 0
M  V30 1934 C 211.306 -1.56169 0.329173 0
M  V30 1935 C 211.506 -1.64317 -1.16629 0
M  V30 1936 O 210.562 -1.60245 -1.95135 0
M  V30 1937 C 211.875 -2.81873 1.04729 0
M  V30 1938 C 213.423 -2.95627 1.02828 0
M  V30 1939 C 213.898 -4.24174 1.72744 0
M  V30 1940 N 215.389 -4.31055 1.69545 0
M  V30 1941 C 216.124 -5.29304 2.20511 0
M  V30 1942 N 215.62 -6.33786 2.79799 0
M  V30 1943 N 217.413 -5.21008 2.10966 0
M  V30 1944 H 209.564 -1.36027 1.63127 0
M  V30 1945 H 211.827 -0.653823 0.686454 0
M  V30 1946 H 211.533 -2.81942 2.10242 0
M  V30 1947 H 211.407 -3.72338 0.603702 0
M  V30 1948 H 213.794 -2.95094 -0.0184742 0
M  V30 1949 H 213.875 -2.06431 1.51063 0
M  V30 1950 H 213.519 -4.25467 2.7738 0
M  V30 1951 H 213.449 -5.1228 1.2197 0
M  V30 1952 H 215.94 -3.56174 1.26288 0
M  V30 1953 H 216.253 -7.05086 3.16344 0
M  V30 1954 H 214.598 -6.34387 2.83863 0
M  V30 1955 H 217.789 -4.38301 1.64347 0
M  V30 1956 H 217.962 -5.97416 2.50993 0
M  V30 1957 N 211.368 -0.403325 -1.52352 0
M  V30 1958 C 212.784 -0.0539281 -1.59509 0
M  V30 1959 C 212.984 1.43307 -1.41652 0
M  V30 1960 O 212.04 2.19924 -1.24056 0
M  V30 1961 C 213.353 -0.543654 -2.95745 0
M  V30 1962 C 214.901 -0.501125 -3.08962 0
M  V30 1963 C 215.376 -0.967267 -4.47669 0
M  V30 1964 N 216.867 -0.923849 -4.53893 0
M  V30 1965 C 217.602 -1.25578 -5.5948 0
M  V30 1966 N 217.098 -1.65889 -6.72646 0
M  V30 1967 N 218.891 -1.17613 -5.49658 0
M  V30 1968 H 211.042 -1.37123 -1.62206 0
M  V30 1969 H 213.305 -0.56294 -0.76276 0
M  V30 1970 H 213.011 -1.58275 -3.14073 0
M  V30 1971 H 212.885 0.0498042 -3.77167 0
M  V30 1972 H 215.272 0.528909 -2.90321 0
M  V30 1973 H 215.353 -1.13056 -2.2946 0
M  V30 1974 H 214.997 -1.9956 -4.67053 0
M  V30 1975 H 214.927 -0.314698 -5.25659 0
M  V30 1976 H 217.418 -0.627403 -3.72655 0
M  V30 1977 H 217.731 -1.89543 -7.49195 0
M  V30 1978 H 216.076 -1.69787 -6.73942 0
M  V30 1979 H 219.267 -0.860115 -4.6013 0
M  V30 1980 H 219.44 -1.43812 -6.3184 0
M  V30 1981 N 212.846 1.57033 -0.133567 0
M  V30 1982 C 213.778 2.13176 0.841944 0
M  V30 1983 C 214.791 1.07794 1.22001 0
M  V30 1984 O 215.98 1.35117 1.16643 0
M  V30 1985 C 213.08 2.62847 2.13926 0
M  V30 1986 C 212.253 3.92486 1.93064 0
M  V30 1987 C 211.312 4.27605 3.0666 0
M  V30 1988 O 210.338 4.96168 2.78937 0
M  V30 1989 N 211.54 3.861 4.33483 0
M  V30 1990 H 214.305 2.97503 0.362192 0
M  V30 1991 H 211.866 1.61821 0.05042 0
M  V30 1992 H 213.858 2.83363 2.88942 0
M  V30 1993 H 212.428 1.83319 2.53205 0
M  V30 1994 H 211.648 3.80732 1.02159 0
M  V30 1995 H 212.936 4.77225 1.76447 0
M  V30 1996 H 212.334 3.30828 4.58878 0
M  V30 1997 H 210.891 4.11694 5.05323 0
M  V30 1998 N 214.325 -0.140222 1.56975 0
M  V30 1999 C 215.257 -1.19818 1.95388 0
M  V30 2000 C 216.27 -1.38816 0.850525 0
M  V30 2001 O 217.459 -1.38267 1.12891 0
M  V30 2002 C 214.559 -2.56189 2.21857 0
M  V30 2003 C 213.732 -2.58077 3.5315 0
M  V30 2004 C 212.791 -3.76037 3.6808 0
M  V30 2005 O 211.817 -3.60598 4.40406 0
M  V30 2006 N 213.019 -4.93763 3.05251 0
M  V30 2007 H 215.784 -0.871609 2.86746 0
M  V30 2008 H 213.345 -0.32972 1.58507 0
M  V30 2009 H 215.337 -3.33623 2.2908 0
M  V30 2010 H 213.907 -2.81111 1.36731 0
M  V30 2011 H 213.127 -1.6651 3.57307 0
M  V30 2012 H 214.415 -2.56377 4.39486 0
M  V30 2013 H 213.813 -5.09209 2.46419 0
M  V30 2014 H 212.37 -5.68949 3.18026 0
M  V30 2015 N 215.803 -1.52179 -0.40978 0
M  V30 2016 C 216.75 -1.75475 -1.49924 0
M  V30 2017 C 217.72 -0.597175 -1.54994 0
M  V30 2018 O 218.905 -0.834655 -1.71575 0
M  V30 2019 C 216.045 -1.9107 -2.87378 0
M  V30 2020 C 215.158 -3.18717 -2.91622 0
M  V30 2021 C 214.293 -3.24747 -4.20372 0
M  V30 2022 C 213.332 -4.46598 -4.18588 0
M  V30 2023 N 212.469 -4.50025 -5.38908 0
M  V30 2024 H 217.309 -2.68458 -1.29361 0
M  V30 2025 H 214.846 -1.33024 -0.627934 0
M  V30 2026 H 216.804 -1.98096 -3.6717 0
M  V30 2027 H 215.434 -1.01469 -3.06437 0
M  V30 2028 H 214.486 -3.20866 -2.04326 0
M  V30 2029 H 215.798 -4.08544 -2.86169 0
M  V30 2030 H 214.952 -3.30841 -5.08556 0
M  V30 2031 H 213.691 -2.32857 -4.28519 0
M  V30 2032 H 212.696 -4.40652 -3.28794 0
M  V30 2033 H 213.921 -5.39783 -4.12081 0
M  V30 2034 H 211.867 -3.61017 -5.47725 0
M  V30 2035 H 211.784 -5.33697 -5.35447 0
M  V30 2036 H 213.052 -4.60347 -6.29048 0
M  V30 2037 N 217.281 0.66697 -1.42791 0
M  V30 2038 C 218.53 1.42278 -1.42968 0
M  V30 2039 C 218.843 1.9553 -0.0524489 0
M  V30 2040 O 220.049 2.71414 0.068363 0
M  V30 2041 C 218.505 2.57418 -2.51524 0
M  V30 2042 C 218.113 2.10832 -3.9529 0
M  V30 2043 C 219.857 3.34878 -2.60877 0
M  V30 2044 C 217.764 3.23101 -4.95338 0
M  V30 2045 H 216.694 0.534533 -0.531781 0
M  V30 2046 H 219.345 0.721302 -1.68729 0
M  V30 2047 H 217.727 3.29971 -2.18941 0
M  V30 2048 H 218.901 1.4538 -4.37266 0
M  V30 2049 H 217.216 1.46289 -3.89857 0
M  V30 2050 H 219.813 4.18505 -3.32802 0
M  V30 2051 H 220.156 3.81993 -1.6549 0
M  V30 2052 H 220.689 2.69398 -2.92693 0
M  V30 2053 H 217.428 2.80969 -5.9223 0
M  V30 2054 H 216.948 3.87309 -4.57987 0
M  V30 2055 H 218.627 3.88447 -5.17415 0
M  V30 2056 N 218.759 1.29093 0.90403 0
M  V30 2057 C 219.984 1.19809 1.69294 0
M  V30 2058 C 220.409 -0.238481 1.86582 0
M  V30 2059 O 219.767 -1.1723 1.383 0
M  V30 2060 C 219.815 1.91202 3.05736 0
M  V30 2061 O 218.919 1.22611 3.93752 0
M  V30 2062 H 218.26 0.415385 0.518027 0
M  V30 2063 H 220.79 1.70586 1.12967 0
M  V30 2064 H 220.8 1.99487 3.55906 0
M  V30 2065 H 219.475 2.95692 2.92471 0
M  V30 2066 H 218.052 1.22554 3.52186 0
M  V30 2067 N 220.237 -1.11381 1.11499 0
M  V30 2068 C 221.184 -2.17439 0.773887 0
M  V30 2069 C 222.154 -1.64132 -0.254899 0
M  V30 2070 O 223.339 -1.90345 -0.13168 0
M  V30 2071 C 220.479 -3.44373 0.223917 0
M  V30 2072 C 219.592 -4.1168 1.30934 0
M  V30 2073 C 218.727 -5.263 0.71984 0
M  V30 2074 C 217.766 -5.85493 1.78507 0
M  V30 2075 N 216.903 -6.91507 1.21502 0
M  V30 2076 H 221.743 -2.45962 1.68246 0
M  V30 2077 H 219.28 -1.20744 0.840191 0
M  V30 2078 H 221.238 -4.17047 -0.112921 0
M  V30 2079 H 219.868 -3.16232 -0.647851 0
M  V30 2080 H 218.92 -3.37073 1.76312 0
M  V30 2081 H 220.232 -4.51729 2.11524 0
M  V30 2082 H 219.386 -6.05785 0.333094 0
M  V30 2083 H 218.125 -4.87559 -0.117377 0
M  V30 2084 H 217.13 -5.04686 2.18111 0
M  V30 2085 H 218.355 -6.26301 2.62533 0
M  V30 2086 H 216.301 -6.54783 0.399455 0
M  V30 2087 H 216.218 -7.30214 1.95763 0
M  V30 2088 H 217.486 -7.74795 0.855181 0
M  V30 2089 N 221.715 -0.905404 -1.28997 0
M  V30 2090 C 222.647 -0.344748 -2.26592 0
M  V30 2091 C 223.66 0.512135 -1.54535 0
M  V30 2092 O 224.849 0.328368 -1.75454 0
M  V30 2093 C 221.949 0.526587 -3.34784 0
M  V30 2094 C 221.122 -0.305871 -4.36329 0
M  V30 2095 C 220.181 0.499209 -5.23827 0
M  V30 2096 O 219.207 -0.0853004 -5.69136 0
M  V30 2097 N 220.409 1.80408 -5.51755 0
M  V30 2098 H 223.174 -1.18359 -2.75338 0
M  V30 2099 H 220.735 -0.770481 -1.42391 0
M  V30 2100 H 222.727 1.07171 -3.90252 0
M  V30 2101 H 221.297 1.26613 -2.85811 0
M  V30 2102 H 220.517 -1.0324 -3.80441 0
M  V30 2103 H 221.805 -0.875773 -5.01206 0
M  V30 2104 H 221.203 2.3016 -5.16762 0
M  V30 2105 H 219.76 2.29621 -6.10014 0
M  V30 2106 N 223.193 1.4272 -0.668489 0
M  V30 2107 C 224.125 2.2914 0.052613 0
M  V30 2108 C 225.138 1.43339 0.771857 0
M  V30 2109 O 226.327 1.67123 0.627067 0
M  V30 2110 C 223.427 3.20618 1.09804 0
M  V30 2111 C 222.6 4.35039 0.45389 0
M  V30 2112 C 221.659 5.07282 1.39825 0
M  V30 2113 O 220.685 5.62024 0.900978 0
M  V30 2114 N 221.887 5.12206 2.73176 0
M  V30 2115 H 224.652 2.91668 -0.689209 0
M  V30 2116 H 222.213 1.53577 -0.512422 0
M  V30 2117 H 224.205 3.65815 1.73094 0
M  V30 2118 H 222.775 2.59585 1.74167 0
M  V30 2119 H 221.995 3.92567 -0.358396 0
M  V30 2120 H 223.283 5.088 0.00486972 0
M  V30 2121 H 222.681 4.6913 3.16122 0
M  V30 2122 H 221.238 5.61069 3.31729 0
M  V30 2123 N 224.671 0.411399 1.52136 0
M  V30 2124 C 225.601 -0.404015 2.29978 0
M  V30 2125 C 226.582 -1.04412 1.34284 0
M  V30 2126 O 227.767 -1.0527 1.63192 0
M  V30 2127 C 224.897 -1.5197 3.12286 0
M  V30 2128 C 223.851 -1.00448 4.16046 0
M  V30 2129 C 223.177 -2.21393 4.86712 0
M  V30 2130 C 224.477 -0.0569336 5.22269 0
M  V30 2131 H 226.171 0.245529 2.98392 0
M  V30 2132 H 223.717 0.119525 1.43503 0
M  V30 2133 H 225.67 -2.09715 3.6551 0
M  V30 2134 H 224.394 -2.19716 2.41646 0
M  V30 2135 H 223.053 -0.449421 3.63835 0
M  V30 2136 H 222.701 -2.87699 4.12599 0
M  V30 2137 H 222.401 -1.87571 5.56858 0
M  V30 2138 H 223.925 -2.7974 5.4275 0
M  V30 2139 H 225.339 -0.54325 5.7072 0
M  V30 2140 H 223.736 0.192594 5.99791 0
M  V30 2141 H 224.806 0.887663 4.76706 0
M  V30 2142 N 226.149 -1.5696 0.141893 0
M  V30 2143 C 227.081 -2.13619 -0.830627 0
M  V30 2144 C 228.094 -1.08439 -1.21428 0
M  V30 2145 O 229.283 -1.35734 -1.15925 0
M  V30 2146 C 226.383 -2.63978 -2.12529 0
M  V30 2147 C 225.556 -3.93504 -1.9098 0
M  V30 2148 C 224.615 -4.29225 -3.04388 0
M  V30 2149 O 223.641 -4.97641 -2.76302 0
M  V30 2150 N 224.843 -3.88393 -4.31429 0
M  V30 2151 H 227.608 -2.97691 -0.34641 0
M  V30 2152 H 225.169 -1.61846 -0.0418375 0
M  V30 2153 H 227.161 -2.84891 -2.87436 0
M  V30 2154 H 225.731 -1.84659 -2.52229 0
M  V30 2155 H 224.951 -3.81269 -1.00139 0
M  V30 2156 H 226.239 -4.78154 -1.73914 0
M  V30 2157 H 225.637 -3.33257 -4.57117 0
M  V30 2158 H 224.194 -4.14368 -5.03133 0
M  V30 2159 N 227.627 0.131896 -1.57047 0
M  V30 2160 C 228.855 0.856461 -1.88341 0
M  V30 2161 C 229.27 1.74042 -0.731757 0
M  V30 2162 O 228.627 1.80051 0.297945 0
M  V30 2163 C 228.678 1.70064 -3.18999 0
M  V30 2164 O 228.399 0.852278 -4.2973 0
M  V30 2165 C 229.9 2.53148 -3.63911 0
M  V30 2166 H 227.12 0.246885 -0.62393 0
M  V30 2167 H 229.664 0.120152 -2.04147 0
M  V30 2168 H 227.819 2.38984 -3.04902 0
M  V30 2169 H 228.233 1.43329 -5.04537 0
M  V30 2170 H 229.707 3.07931 -4.58129 0
M  V30 2171 H 230.184 3.29901 -2.89935 0
M  V30 2172 H 230.79 1.89492 -3.80753 0
M  V30 2173 N 229.106 1.52395 0.401703 0
M  V30 2174 C 230.352 1.67065 1.14966 0
M  V30 2175 C 230.685 0.403052 1.89971 0
M  V30 2176 O 229.96 -0.598774 1.85054 0
M  V30 2177 C 230.243 2.8975 2.13815 0
M  V30 2178 C 230.096 4.26578 1.42658 0
M  V30 2179 C 231.415 3.07965 3.14397 0
M  V30 2180 H 228.534 0.607968 0.416587 0
M  V30 2181 H 231.176 1.84965 0.434511 0
M  V30 2182 H 229.326 2.74619 2.74803 0
M  V30 2183 H 230.998 4.53451 0.847329 0
M  V30 2184 H 229.241 4.27639 0.72849 0
M  V30 2185 H 229.912 5.08483 2.14823 0
M  V30 2186 H 232.388 3.22043 2.63491 0
M  V30 2187 H 231.264 3.95308 3.80819 0
M  V30 2188 H 231.525 2.21611 3.82545 0
M  V30 2189 N 230.584 -0.659388 1.43143 0
M  V30 2190 C 231.531 -1.77249 1.47822 0
M  V30 2191 C 232.501 -1.62818 0.328558 0
M  V30 2192 O 233.686 -1.83151 0.534838 0
M  V30 2193 C 230.826 -3.15371 1.40126 0
M  V30 2194 C 229.939 -3.4098 2.65249 0
M  V30 2195 C 229.074 -4.68915 2.49584 0
M  V30 2196 C 228.113 -4.87608 3.70006 0
M  V30 2197 N 227.25 -6.06796 3.53189 0
M  V30 2198 H 232.09 -1.72584 2.42938 0
M  V30 2199 H 229.627 -0.842297 1.20598 0
M  V30 2200 H 231.585 -3.9521 1.33659 0
M  V30 2201 H 230.215 -3.19121 0.485964 0
M  V30 2202 H 229.267 -2.55282 2.8202 0
M  V30 2203 H 230.579 -3.50681 3.54717 0
M  V30 2204 H 229.733 -5.56871 2.4079 0
M  V30 2205 H 228.472 -4.61524 1.5763 0
M  V30 2206 H 227.477 -3.9809 3.79215 0
M  V30 2207 H 228.702 -4.96834 4.62961 0
M  V30 2208 H 226.648 -6.00549 2.63965 0
M  V30 2209 H 226.565 -6.17428 4.36255 0
M  V30 2210 H 227.833 -6.9739 3.48236 0
M  V30 2211 N 232.062 -1.29571 -0.897171 0
M  V30 2212 C 233.339 -1.08365 -1.62839 0
M  V30 2213 C 233.719 0.371331 -2.07808 0
M  V30 2214 O 233.067 1.3606 -1.83576 0
M  V30 2215 C 233.277 -2.0735 -2.80726 0
M  V30 2216 C 234.625 -2.38406 -3.51351 0
M  V30 2217 O 235.649 -2.05564 -2.90898 0
M  V30 2218 O 234.508 -2.9453 -4.60341 0
M  V30 2219 H 231.602 -0.415345 -0.715134 0
M  V30 2220 H 234.148 -1.40952 -0.945018 0
M  V30 2221 H 232.92 -3.05339 -2.44711 0
M  V30 2222 H 232.543 -1.75507 -3.56767 0
M  V30 2223 N 233.54 1.10788 -1.12088 0
M  V30 2224 C 234.956 1.34691 -0.856186 0
M  V30 2225 C 235.156 1.94791 0.515615 0
M  V30 2226 O 234.212 2.18524 1.26505 0
M  V30 2227 C 235.525 2.27208 -1.9697 0
M  V30 2228 C 237.073 2.40755 -2.00016 0
M  V30 2229 C 237.548 3.36598 -3.1059 0
M  V30 2230 N 239.039 3.44164 -3.10008 0
M  V30 2231 C 239.774 4.18284 -3.92206 0
M  V30 2232 N 239.27 4.95322 -4.84384 0
M  V30 2233 N 241.063 4.13865 -3.80357 0
M  V30 2234 H 233.214 0.70144 -2.00483 0
M  V30 2235 H 235.477 0.371405 -0.872217 0
M  V30 2236 H 235.183 1.90251 -2.958 0
M  V30 2237 H 235.057 3.27485 -1.87172 0
M  V30 2238 H 237.444 2.76982 -1.01808 0
M  V30 2239 H 237.525 1.40305 -2.13888 0
M  V30 2240 H 237.169 3.01096 -4.09028 0
M  V30 2241 H 237.099 4.36918 -2.93956 0
M  V30 2242 H 239.59 2.8922 -2.43228 0
M  V30 2243 H 239.903 5.49267 -5.43623 0
M  V30 2244 H 238.248 4.94459 -4.884 0
M  V30 2245 H 241.439 3.52773 -3.07683 0
M  V30 2246 H 241.612 4.71372 -4.44649 0
M  V30 2247 N 235.018 0.912232 1.28515 0
M  V30 2248 C 236.265 0.544599 1.95039 0
M  V30 2249 C 236.593 -0.911435 1.71823 0
M  V30 2250 O 235.848 -1.66317 1.03137 0
M  V30 2251 C 236.147 0.798392 3.48368 0
M  V30 2252 C 235.813 2.23374 3.91682 0
M  V30 2253 C 234.475 2.62617 4.03219 0
M  V30 2254 C 236.827 3.16786 4.13879 0
M  V30 2255 C 234.155 3.94429 4.3433 0
M  V30 2256 C 236.507 4.48161 4.46469 0
M  V30 2257 C 235.171 4.8726 4.56217 0
M  V30 2258 H 234.441 0.199283 0.7137 0
M  V30 2259 H 237.088 1.15327 1.52879 0
M  V30 2260 H 235.393 0.106908 3.91654 0
M  V30 2261 H 237.09 0.493141 3.97956 0
M  V30 2262 H 233.68 1.91922 3.83228 0
M  V30 2263 H 237.864 2.87677 4.0442 0
M  V30 2264 H 233.12 4.24426 4.40082 0
M  V30 2265 H 237.294 5.20559 4.62592 0
M  V30 2266 H 234.921 5.89431 4.80078 0
M  V30 2267 N 236.496 -1.42363 0.676048 0
M  V30 2268 C 237.428 -2.29164 -0.0404605 0
M  V30 2269 C 238.441 -1.43747 -0.764245 0
M  V30 2270 O 239.63 -1.67453 -0.618195 0
M  V30 2271 C 236.73 -3.21196 -1.08103 0
M  V30 2272 C 235.903 -4.35273 -0.430812 0
M  V30 2273 C 234.962 -5.08017 -1.37133 0
M  V30 2274 O 233.988 -5.62494 -0.87116 0
M  V30 2275 N 235.19 -5.13647 -2.70456 0
M  V30 2276 H 237.955 -2.91298 0.704667 0
M  V30 2277 H 235.516 -1.53303 0.520559 0
M  V30 2278 H 237.508 -3.66728 -1.71152 0
M  V30 2279 H 236.078 -2.60505 -1.72788 0
M  V30 2280 H 235.298 -3.92372 0.379209 0
M  V30 2281 H 236.586 -5.08795 0.0221132 0
M  V30 2282 H 235.984 -4.708 -3.1363 0
M  V30 2283 H 234.541 -5.62821 -3.28749 0
M  V30 2284 N 237.974 -0.419461 -1.51915 0
M  V30 2285 C 238.937 0.389116 -2.25873 0
M  V30 2286 C 239.937 0.964924 -1.28631 0
M  V30 2287 O 241.127 0.842179 -1.52489 0
M  V30 2288 C 238.259 1.54874 -3.03689 0
M  V30 2289 H 239.452 -0.258799 -2.98781 0
M  V30 2290 H 237.005 -0.172209 -1.55348 0
M  V30 2291 H 237.74 2.23323 -2.35154 0
M  V30 2292 H 237.525 1.14223 -3.75094 0
M  V30 2293 H 239.015 2.12046 -3.59759 0
M  V30 2294 N 239.452 1.56882 -0.150215 0
M  V30 2295 C 240.699 1.96228 0.500093 0
M  V30 2296 C 241.027 1.03522 1.64661 0
M  V30 2297 O 240.282 0.0650683 1.95592 0
M  V30 2298 C 240.581 3.41801 1.04437 0
M  V30 2299 C 240.247 4.50897 0.0159671 0
M  V30 2300 C 238.909 4.8046 -0.266731 0
M  V30 2301 C 241.261 5.16703 -0.683192 0
M  V30 2302 C 238.589 5.73135 -1.25434 0
M  V30 2303 C 240.941 6.10441 -1.65964 0
M  V30 2304 C 239.605 6.38382 -1.95 0
M  V30 2305 H 238.875 0.718048 0.182997 0
M  V30 2306 H 241.522 1.90019 -0.237724 0
M  V30 2307 H 239.827 3.44857 1.85959 0
M  V30 2308 H 241.524 3.69573 1.55618 0
M  V30 2309 H 238.114 4.27891 0.246485 0
M  V30 2310 H 242.298 4.93993 -0.477983 0
M  V30 2311 H 237.554 5.93074 -1.48571 0
M  V30 2312 H 241.728 6.60507 -2.20689 0
M  V30 2313 H 239.355 7.09996 -2.71679 0
M  V30 2314 N 240.93 -0.123565 1.57115 0
M  V30 2315 C 241.86 -1.15309 2.03042 0
M  V30 2316 C 242.841 -1.43454 0.914061 0
M  V30 2317 O 244.026 -1.53973 1.18347 0
M  V30 2318 C 241.156 -2.48043 2.43089 0
M  V30 2319 C 240.11 -2.3437 3.58127 0
M  V30 2320 C 239.436 -3.72026 3.84059 0
M  V30 2321 C 240.736 -1.80804 4.90007 0
M  V30 2322 H 242.43 -0.771102 2.893 0
M  V30 2323 H 239.976 -0.369479 1.39179 0
M  V30 2324 H 241.929 -3.20311 2.73823 0
M  V30 2325 H 240.653 -2.88122 1.53796 0
M  V30 2326 H 239.312 -1.64551 3.27595 0
M  V30 2327 H 238.96 -4.09582 2.91979 0
M  V30 2328 H 238.66 -3.63732 4.6149 0
M  V30 2329 H 240.184 -4.45806 4.1724 0
M  V30 2330 H 241.598 -2.42886 5.19307 0
M  V30 2331 H 239.995 -1.83343 5.71407 0
M  V30 2332 H 241.065 -0.76528 4.78823 0
M  V30 2333 N 242.408 -1.52605 -0.393616 0
M  V30 2334 C 243.356 -1.77688 -1.50099 0
M  V30 2335 C 244.35 -0.644615 -1.56656 0
M  V30 2336 O 245.556 -0.826997 -1.59877 0
M  V30 2337 H 241.931 -0.562159 -0.499481 0
M  V30 2338 H 243.902 -2.7043 -1.26135 0
M  V30 2339 C 242.651 -1.95858 -2.87289 0
M  V30 2340 H 241.974 -2.8241 -2.82992 0
M  V30 2341 H 243.414 -2.174 -3.64024 0
M  V30 2342 C 241.873 -0.729848 -3.28899 0
M  V30 2343 O 242.403 0.0949217 -4.01588 0
M  V30 2344 N 240.609 -0.561283 -2.85128 0
M  V30 2345 H 240.156 -1.23357 -2.26143 0
M  V30 2346 H 240.114 0.2595 -3.13327 0
M  V30 2347 N 243.887 0.651787 -1.4349 0
M  V30 2348 C 245.135 1.40888 -1.44897 0
M  V30 2349 C 245.456 1.94856 -0.0749086 0
M  V30 2350 O 244.726 1.74518 0.889956 0
M  V30 2351 H 243.306 0.522887 -0.533478 0
M  V30 2352 H 245.968 0.768609 -1.79104 0
M  V30 2353 H 245.064 2.25052 -2.16236 0
M  V30 2354 N 245.365 1.30045 0.890287 0
M  V30 2355 C 246.275 1.17885 2.02831 0
M  V30 2356 C 247.291 0.0999609 1.73713 0
M  V30 2357 O 248.467 0.313867 1.98939 0
M  V30 2358 C 245.532 0.866079 3.35708 0
M  V30 2359 C 244.593 2.02979 3.78283 0
M  V30 2360 C 243.826 1.73184 5.0482 0
M  V30 2361 O 244.049 0.657237 5.66601 0
M  V30 2362 O 242.983 2.58267 5.43674 0
M  V30 2363 H 246.809 2.13474 2.16015 0
M  V30 2364 H 244.394 1.09587 1.01543 0
M  V30 2365 H 246.276 0.706623 4.15433 0
M  V30 2366 H 244.951 -0.0599443 3.23644 0
M  V30 2367 H 243.858 2.24454 2.99285 0
M  V30 2368 H 245.191 2.93734 3.94944 0
M  V30 2369 N 246.843 -1.10192 1.12674 0
M  V30 2370 C 248.071 -1.85983 0.906527 0
M  V30 2371 C 248.486 -1.80783 -0.544333 0
M  V30 2372 O 247.843 -1.19834 -1.37645 0
M  V30 2373 C 247.894 -3.34281 1.37618 0
M  V30 2374 O 247.615 -3.39401 2.77017 0
M  V30 2375 C 249.116 -4.26938 1.19325 0
M  V30 2376 H 246.336 -0.587716 0.323775 0
M  V30 2377 H 248.88 -1.39284 1.49734 0
M  V30 2378 H 247.035 -3.78436 0.828539 0
M  V30 2379 H 247.449 -4.31838 2.97684 0
M  V30 2380 H 248.923 -5.29181 1.57071 0
M  V30 2381 H 249.4 -4.38995 0.134097 0
M  V30 2382 H 250.006 -3.8859 1.72852 0
M  V30 2383 N 248.321 -0.919034 -1.28029 0
M  V30 2384 C 249.253 -0.368762 -2.26214 0
M  V30 2385 C 250.266 0.495716 -1.55069 0
M  V30 2386 O 251.455 0.30974 -1.75792 0
M  V30 2387 C 248.555 0.491049 -3.35324 0
M  V30 2388 C 247.728 -0.352133 -4.3598 0
M  V30 2389 C 246.787 0.443622 -5.24327 0
M  V30 2390 O 245.813 -0.14566 -5.69014 0
M  V30 2391 N 247.015 1.74545 -5.53637 0
M  V30 2392 H 249.78 -1.21273 -2.74068 0
M  V30 2393 H 247.341 -0.785541 -1.41566 0
M  V30 2394 H 249.333 1.03026 -3.91366 0
M  V30 2395 H 247.903 1.23574 -2.87138 0
M  V30 2396 H 247.123 -1.07269 -3.79324 0
M  V30 2397 H 248.411 -0.928883 -5.00249 0
M  V30 2398 H 247.809 2.24666 -5.19174 0
M  V30 2399 H 246.366 2.23138 -6.12416 0
M  V30 2400 N 249.799 1.42003 -0.683588 0
M  V30 2401 C 251.048 2.00638 -0.206681 0
M  V30 2402 C 251.361 1.5472 1.19671 0
M  V30 2403 O 252.567 2.05833 1.77045 0
M  V30 2404 C 251.023 3.58487 -0.318632 0
M  V30 2405 C 250.631 4.1339 -1.72663 0
M  V30 2406 C 252.375 4.24384 0.0991141 0
M  V30 2407 C 250.282 5.63633 -1.79087 0
M  V30 2408 H 249.212 0.750408 -0.0735107 0
M  V30 2409 H 251.863 1.62624 -0.850048 0
M  V30 2410 H 250.245 3.94047 0.392781 0
M  V30 2411 H 251.419 3.89273 -2.46583 0
M  V30 2412 H 249.734 3.59976 -2.09299 0
M  V30 2413 H 252.331 5.34652 0.0713833 0
M  V30 2414 H 252.674 4.00505 1.13586 0
M  V30 2415 H 253.207 3.93816 -0.561599 0
M  V30 2416 H 249.946 5.92323 -2.80774 0
M  V30 2417 H 249.466 5.89714 -1.09535 0
M  V30 2418 H 251.145 6.28201 -1.5483 0
M  V30 2419 N 251.277 0.427512 1.51691 0
M  V30 2420 C 252.21 -0.433876 2.24037 0
M  V30 2421 C 253.188 -1.03287 1.25581 0
M  V30 2422 O 254.372 -1.07722 1.54688 0
M  V30 2423 C 251.499 -1.60385 2.98319 0
M  V30 2424 C 250.545 -1.12648 4.11355 0
M  V30 2425 S 251.378 -0.076543 5.35445 0
M  V30 2426 C 252.534 -1.25141 6.13262 0
M  V30 2427 H 252.767 0.180367 2.96752 0
M  V30 2428 H 250.3 0.211946 1.52938 0
M  V30 2429 H 252.258 -2.27462 3.41718 0
M  V30 2430 H 250.919 -2.18948 2.25213 0
M  V30 2431 H 250.112 -2.0011 4.62571 0
M  V30 2432 H 249.714 -0.534088 3.70167 0
M  V30 2433 H 252.006 -2.17162 6.41753 0
M  V30 2434 H 252.949 -0.779411 7.03797 0
M  V30 2435 H 253.357 -1.48553 5.44603 0
M  V30 2436 N 252.755 -1.56801 0.158532 0
M  V30 2437 C 253.718 -2.16138 -0.762705 0
M  V30 2438 C 254.718 -1.1061 -1.16713 0
M  V30 2439 O 255.908 -1.36191 -1.08617 0
M  V30 2440 C 253.04 -2.73386 -2.03649 0
M  V30 2441 H 254.233 -2.98886 -0.246354 0
M  V30 2442 H 251.786 -1.56035 -0.0909744 0
M  V30 2443 H 252.521 -1.94335 -2.59623 0
M  V30 2444 H 252.306 -3.50601 -1.75559 0
M  V30 2445 H 253.796 -3.19065 -2.6942 0
M  V30 2446 N 254.233 0.115231 -1.57178 0
M  V30 2447 C 255.51 0.852873 -1.76027 0
M  V30 2448 C 255.89 1.97892 -0.73498 0
M  V30 2449 O 255.238 2.27232 0.24036 0
M  V30 2450 C 255.448 1.36608 -3.21153 0
M  V30 2451 C 256.796 1.81692 -3.83762 0
M  V30 2452 O 257.82 1.46278 -3.24779 0
M  V30 2453 O 256.679 2.47104 -4.87444 0
M  V30 2454 H 253.773 0.405296 -0.720877 0
M  V30 2455 H 256.319 0.0986785 -1.69413 0
M  V30 2456 H 255.091 0.558357 -3.87296 0
M  V30 2457 H 254.714 2.18287 -3.3232 0
M  V30 2458 N 255.711 1.52812 0.385517 0
M  V30 2459 C 256.621 1.80766 1.49535 0
M  V30 2460 C 257.637 0.694651 1.59532 0
M  V30 2461 O 258.813 0.982611 1.75803 0
M  V30 2462 C 255.878 1.97381 2.85029 0
M  V30 2463 C 254.939 3.21295 2.84724 0
M  V30 2464 C 254.172 3.37108 4.13756 0
M  V30 2465 O 254.395 2.5765 5.08893 0
M  V30 2466 O 253.329 4.30378 4.20783 0
M  V30 2467 H 257.155 2.75015 1.28842 0
M  V30 2468 H 254.74 1.37946 0.573697 0
M  V30 2469 H 256.622 2.09996 3.65349 0
M  V30 2470 H 255.297 1.06322 3.05741 0
M  V30 2471 H 254.204 3.1412 2.03174 0
M  V30 2472 H 255.537 4.12212 2.68965 0
M  V30 2473 N 257.189 -0.644168 1.43834 0
M  V30 2474 C 258.152 -1.73857 1.49353 0
M  V30 2475 C 259.152 -1.56315 0.377112 0
M  V30 2476 O 260.342 -1.62048 0.639226 0
M  V30 2477 C 257.474 -3.12819 1.35488 0
M  V30 2478 H 258.667 -1.70342 2.46827 0
M  V30 2479 H 256.22 -0.856652 1.30733 0
M  V30 2480 H 256.955 -3.2194 0.390569 0
M  V30 2481 H 256.74 -3.26958 2.16428 0
M  V30 2482 H 258.23 -3.92606 1.42302 0
M  V30 2483 N 258.668 -1.30515 -0.883378 0
M  V30 2484 C 259.915 -1.1943 -1.63532 0
M  V30 2485 C 260.243 0.250627 -1.92878 0
M  V30 2486 O 259.498 1.19556 -1.54935 0
M  V30 2487 C 259.797 -1.96994 -2.98209 0
M  V30 2488 C 259.463 -3.466 -2.88408 0
M  V30 2489 C 258.125 -3.87397 -2.85442 0
M  V30 2490 C 260.477 -4.41863 -2.76418 0
M  V30 2491 C 257.805 -5.21745 -2.68327 0
M  V30 2492 C 260.157 -5.7632 -2.60841 0
M  V30 2493 C 258.821 -6.16354 -2.56251 0
M  V30 2494 H 258.091 -0.437025 -0.598406 0
M  V30 2495 H 260.738 -1.61635 -1.02696 0
M  V30 2496 H 259.043 -1.47429 -3.63004 0
M  V30 2497 H 260.74 -1.85808 -3.55354 0
M  V30 2498 H 257.33 -3.14182 -2.91527 0
M  V30 2499 H 261.514 -4.11285 -2.77775 0
M  V30 2500 H 256.77 -5.51853 -2.63189 0
M  V30 2501 H 260.944 -6.49772 -2.50538 0
M  V30 2502 H 258.571 -7.20401 -2.42748 0
M  V30 2503 N 260.146 1.09593 -1.13257 0
M  V30 2504 C 261.079 2.15451 -0.752061 0
M  V30 2505 C 262.057 1.60493 0.260913 0
M  V30 2506 O 263.241 1.8788 0.152819 0
M  V30 2507 C 260.368 3.38506 -0.114594 0
M  V30 2508 C 259.414 4.12183 -1.09579 0
M  V30 2509 S 260.247 4.6661 -2.62745 0
M  V30 2510 C 261.403 5.92966 -2.00354 0
M  V30 2511 H 261.636 2.47395 -1.64872 0
M  V30 2512 H 259.169 1.21515 -0.952545 0
M  V30 2513 H 261.127 4.09757 0.246808 0
M  V30 2514 H 259.788 3.04784 0.759309 0
M  V30 2515 H 258.981 5.00445 -0.597545 0
M  V30 2516 H 258.583 3.46785 -1.40057 0
M  V30 2517 H 260.875 6.63882 -1.35156 0
M  V30 2518 H 261.818 6.47467 -2.86691 0
M  V30 2519 H 262.226 5.45405 -1.4558 0
M  V30 2520 N 261.624 0.925811 1.2754 0
M  V30 2521 C 262.572 0.413897 2.28888 0
M  V30 2522 C 263.566 -0.500779 1.61829 0
M  V30 2523 O 264.772 -0.38069 1.75928 0
M  V30 2524 H 261.147 0.115274 0.743112 0
M  V30 2525 H 263.118 1.28151 2.69481 0
M  V30 2526 C 261.867 -0.319792 3.46226 0
M  V30 2527 H 261.19 0.374846 3.98039 0
M  V30 2528 H 262.63 -0.642435 4.19105 0
M  V30 2529 C 261.089 -1.53209 3.00048 0
M  V30 2530 O 261.619 -2.6309 3.03557 0
M  V30 2531 N 259.825 -1.38326 2.55566 0
M  V30 2532 H 259.372 -0.489292 2.5291 0
M  V30 2533 H 259.33 -2.19564 2.25031 0
M  V30 2534 N 263.102 -1.41638 0.69111 0
M  V30 2535 C 264.065 -2.29178 0.0319786 0
M  V30 2536 C 265.065 -1.44153 -0.712496 0
M  V30 2537 O 266.255 -1.65354 -0.548053 0
M  V30 2538 C 263.387 -3.26952 -0.965161 0
M  V30 2539 H 264.58 -2.88959 0.802681 0
M  V30 2540 H 262.133 -1.4955 0.454356 0
M  V30 2541 H 262.868 -2.72142 -1.76378 0
M  V30 2542 H 262.653 -3.89685 -0.434522 0
M  V30 2543 H 264.143 -3.92561 -1.42428 0
M  V30 2544 N 264.58 -0.43555 -1.51462 0
M  V30 2545 C 265.826 0.131709 -2.02372 0
M  V30 2546 C 266.159 1.42516 -1.3192 0
M  V30 2547 O 265.434 1.89606 -0.433573 0
M  V30 2548 C 265.717 0.352301 -3.58373 0
M  V30 2549 C 265.57 -0.959676 -4.39443 0
M  V30 2550 C 266.889 1.12286 -4.25535 0
M  V30 2551 H 264.008 0.0463936 -0.735538 0
M  V30 2552 H 266.65 -0.574197 -1.81116 0
M  V30 2553 H 264.8 0.9536 -3.76615 0
M  V30 2554 H 266.472 -1.59482 -4.32855 0
M  V30 2555 H 264.715 -1.56468 -4.04599 0
M  V30 2556 H 265.386 -0.759394 -5.46752 0
M  V30 2557 H 267.862 0.613545 -4.11552 0
M  V30 2558 H 266.738 1.24598 -5.34571 0
M  V30 2559 H 266.999 2.15048 -3.86273 0
M  V30 2560 N 266.058 1.56714 -0.166846 0
M  V30 2561 C 266.99 2.14914 0.796537 0
M  V30 2562 C 268.003 1.10357 1.19688 0
M  V30 2563 O 269.192 1.37561 1.13751 0
M  V30 2564 C 266.292 2.67326 2.08303 0
M  V30 2565 C 265.465 3.96493 1.84696 0
M  V30 2566 C 264.524 4.34014 2.97521 0
M  V30 2567 O 263.55 5.01973 2.6835 0
M  V30 2568 N 264.752 3.95208 4.25196 0
M  V30 2569 H 267.517 2.98205 0.299006 0
M  V30 2570 H 265.078 1.61892 0.0160839 0
M  V30 2571 H 267.07 2.89428 2.82867 0
M  V30 2572 H 265.64 1.88649 2.4926 0
M  V30 2573 H 264.86 3.82814 0.940602 0
M  V30 2574 H 266.148 4.8086 1.66285 0
M  V30 2575 H 265.546 3.40487 4.51758 0
M  V30 2576 H 264.103 4.2232 4.96477 0
M  V30 2577 N 267.536 -0.106894 1.57237 0
M  V30 2578 C 268.761 -0.830287 1.90055 0
M  V30 2579 C 269.186 -1.72064 0.75998 0
M  V30 2580 O 268.544 -1.78982 -0.288991 0
M  V30 2581 C 268.592 -1.6295 3.21683 0
M  V30 2582 O 267.696 -2.73748 3.08441 0
M  V30 2583 H 267.037 -0.228855 0.623315 0
M  V30 2584 H 269.567 -0.085658 2.04421 0
M  V30 2585 H 269.577 -2.01621 3.54701 0
M  V30 2586 H 268.252 -0.975989 4.04286 0
M  V30 2587 H 266.829 -2.38192 2.86913 0
M  V30 2588 N 269.014 -1.53014 -0.377408 0
M  V30 2589 C 270.244 -1.72265 -1.14054 0
M  V30 2590 C 270.652 -0.44601 -1.83868 0
M  V30 2591 O 269.995 0.590095 -1.73964 0
M  V30 2592 C 270.057 -2.82492 -2.22348 0
M  V30 2593 C 269.721 -4.23233 -1.72402 0
M  V30 2594 C 270.718 -5.05992 -1.19448 0
M  V30 2595 C 268.403 -4.696 -1.78273 0
M  V30 2596 C 270.397 -6.33203 -0.730268 0
M  V30 2597 C 268.084 -5.96792 -1.31464 0
M  V30 2598 C 269.082 -6.78424 -0.789297 0
M  V30 2599 O 268.77 -8.0323 -0.328077 0
M  V30 2600 H 268.502 -0.579873 -0.347453 0
M  V30 2601 H 271.056 -2.00502 -0.445882 0
M  V30 2602 H 269.286 -2.49702 -2.95272 0
M  V30 2603 H 270.975 -2.90034 -2.83963 0
M  V30 2604 H 271.741 -4.71349 -1.14259 0
M  V30 2605 H 267.62 -4.06142 -2.18106 0
M  V30 2606 H 271.164 -6.96868 -0.319542 0
M  V30 2607 H 267.061 -6.30937 -1.36342 0
M  V30 2608 H 267.829 -8.1727 -0.448493 0
M  V30 2609 N 270.492 0.636531 -1.44174 0
M  V30 2610 C 271.722 1.42146 -1.49927 0
M  V30 2611 C 272.13 1.88812 -0.121063 0
M  V30 2612 O 271.473 1.61126 0.882267 0
M  V30 2613 C 271.535 2.67883 -2.39748 0
M  V30 2614 C 271.199 2.43048 -3.8701 0
M  V30 2615 C 272.196 2.05216 -4.77684 0
M  V30 2616 C 269.881 2.56856 -4.3166 0
M  V30 2617 C 271.875 1.81512 -6.11009 0
M  V30 2618 C 269.562 2.32766 -5.65034 0
M  V30 2619 C 270.56 1.95152 -6.54526 0
M  V30 2620 O 270.248 1.71326 -7.85431 0
M  V30 2621 H 269.98 0.442567 -0.51099 0
M  V30 2622 H 272.534 0.786158 -1.8976 0
M  V30 2623 H 270.764 3.34032 -1.94832 0
M  V30 2624 H 272.453 3.29874 -2.36513 0
M  V30 2625 H 273.219 1.94111 -4.44462 0
M  V30 2626 H 269.098 2.85104 -3.62266 0
M  V30 2627 H 272.642 1.52077 -6.80822 0
M  V30 2628 H 268.539 2.43479 -5.97819 0
M  V30 2629 H 269.307 1.85616 -7.97176 0
M  V30 2630 N 271.97 1.30982 0.876444 0
M  V30 2631 C 272.88 1.2003 2.01569 0
M  V30 2632 C 273.896 0.11838 1.73597 0
M  V30 2633 O 275.072 0.33495 1.98595 0
M  V30 2634 C 272.137 0.901637 3.34771 0
M  V30 2635 C 271.198 2.06979 3.76109 0
M  V30 2636 C 270.431 1.78529 5.02954 0
M  V30 2637 O 270.654 0.717296 5.65872 0
M  V30 2638 O 269.588 2.64019 5.40905 0
M  V30 2639 H 273.414 2.15753 2.13739 0
M  V30 2640 H 270.999 1.10658 1.00375 0
M  V30 2641 H 272.881 0.750645 4.1466 0
M  V30 2642 H 271.556 -0.0256141 3.2369 0
M  V30 2643 H 270.463 2.27616 2.96887 0
M  V30 2644 H 271.796 2.97907 3.91807 0
M  V30 2645 N 273.449 -1.08991 1.13837 0
M  V30 2646 C 274.695 -1.81526 0.90422 0
M  V30 2647 C 275.028 -1.85706 -0.568066 0
M  V30 2648 O 274.303 -1.32855 -1.42056 0
M  V30 2649 C 274.586 -3.27447 1.49835 0
M  V30 2650 C 274.439 -3.31512 3.04006 0
M  V30 2651 C 275.758 -4.24256 1.17025 0
M  V30 2652 H 272.877 -0.659029 0.329923 0
M  V30 2653 H 275.519 -1.27644 1.40737 0
M  V30 2654 H 273.669 -3.73462 1.07044 0
M  V30 2655 H 275.341 -2.93867 3.55584 0
M  V30 2656 H 273.584 -2.70963 3.38765 0
M  V30 2657 H 274.255 -4.34329 3.40679 0
M  V30 2658 H 276.731 -3.86549 1.54009 0
M  V30 2659 H 275.607 -5.24684 1.61237 0
M  V30 2660 H 275.868 -4.42019 0.0846274 0
M  V30 2661 N 274.927 -0.932562 -1.27047 0
M  V30 2662 C 276.174 -0.575559 -1.94148 0
M  V30 2663 C 276.502 0.883984 -1.73251 0
M  V30 2664 O 275.757 1.64655 -1.0577 0
M  V30 2665 C 276.056 -0.853713 -3.47054 0
M  V30 2666 C 275.722 -2.29577 -3.88079 0
M  V30 2667 C 274.384 -2.68999 -3.9899 0
M  V30 2668 C 276.736 -3.23331 -4.08787 0
M  V30 2669 C 274.064 -4.01289 -4.28 0
M  V30 2670 C 276.416 -4.55207 -4.39282 0
M  V30 2671 C 275.08 -4.94457 -4.48407 0
M  V30 2672 H 274.35 -0.210612 -0.710439 0
M  V30 2673 H 276.997 -1.17744 -1.51025 0
M  V30 2674 H 275.302 -0.169204 -3.91434 0
M  V30 2675 H 276.999 -0.55639 -3.97121 0
M  V30 2676 H 273.589 -1.97994 -3.80127 0
M  V30 2677 H 277.773 -2.94074 -3.99793 0
M  V30 2678 H 273.029 -4.31374 -4.33275 0
M  V30 2679 H 277.203 -5.27852 -4.54252 0
M  V30 2680 H 274.83 -5.96994 -4.7064 0
M  V30 2681 N 276.405 1.4127 -0.698611 0
M  V30 2682 C 277.335 2.33447 -0.049629 0
M  V30 2683 C 278.316 1.51982 0.763898 0
M  V30 2684 O 279.501 1.80509 0.716257 0
M  V30 2685 C 276.631 3.35828 0.885267 0
M  V30 2686 C 275.585 4.27627 0.178613 0
M  V30 2687 C 274.911 5.20406 1.22807 0
M  V30 2688 C 276.211 5.13459 -0.956933 0
M  V30 2689 H 277.905 2.87966 -0.81951 0
M  V30 2690 H 275.451 1.38461 -0.395538 0
M  V30 2691 H 277.404 3.9924 1.34854 0
M  V30 2692 H 276.128 2.79666 1.68685 0
M  V30 2693 H 274.787 3.65643 -0.26466 0
M  V30 2694 H 274.435 4.60558 2.02226 0
M  V30 2695 H 274.135 5.82661 0.760239 0
M  V30 2696 H 275.659 5.86695 1.69179 0
M  V30 2697 H 277.073 5.70421 -0.573805 0
M  V30 2698 H 275.47 5.8467 -1.35205 0
M  V30 2699 H 276.54 4.50443 -1.79524 0
M  V30 2700 N 277.883 0.443576 1.51229 0
M  V30 2701 C 278.83 -0.364716 2.279 0
M  V30 2702 C 279.8 -1.0114 1.31757 0
M  V30 2703 O 280.985 -1.02912 1.60667 0
M  V30 2704 C 278.125 -1.45644 3.12861 0
M  V30 2705 C 277.238 -0.827269 4.24005 0
M  V30 2706 C 276.373 -1.89456 4.96266 0
M  V30 2707 C 275.412 -1.24416 5.99322 0
M  V30 2708 N 274.549 -2.25309 6.64966 0
M  V30 2709 H 279.389 0.295464 2.96532 0
M  V30 2710 H 276.926 0.157554 1.46254 0
M  V30 2711 H 278.884 -2.10076 3.6045 0
M  V30 2712 H 277.514 -2.08616 2.46331 0
M  V30 2713 H 276.566 -0.0710839 3.80334 0
M  V30 2714 H 277.878 -0.312481 4.9782 0
M  V30 2715 H 277.032 -2.61535 5.47434 0
M  V30 2716 H 275.771 -2.4431 4.22095 0
M  V30 2717 H 274.776 -0.508868 5.4744 0
M  V30 2718 H 276.001 -0.702882 6.75453 0
M  V30 2719 H 273.947 -2.79231 5.93604 0
M  V30 2720 H 273.864 -1.78739 7.34567 0
M  V30 2721 H 275.132 -2.96853 7.20763 0
M  V30 2722 N 279.361 -1.56624 0.175154 0
M  V30 2723 C 280.586 -2.01813 -0.478137 0
M  V30 2724 C 281.011 -1.05457 -1.55757 0
M  V30 2725 O 280.369 -0.0347439 -1.81267 0
M  V30 2726 C 280.417 -3.45581 -1.02987 0
M  V30 2727 O 279.521 -3.52305 -2.14371 0
M  V30 2728 H 278.862 -0.65413 -0.114059 0
M  V30 2729 H 281.392 -2.02673 0.280173 0
M  V30 2730 H 281.402 -3.84965 -1.35151 0
M  V30 2731 H 280.077 -4.1521 -0.239556 0
M  V30 2732 H 278.654 -3.24783 -1.83222 0
M  V30 2733 N 280.839 0.0985539 -1.57292 0
M  V30 2734 C 282.116 0.834155 -1.76921 0
M  V30 2735 C 282.496 1.97101 -0.755928 0
M  V30 2736 O 281.844 2.27474 0.216245 0
M  V30 2737 C 282.054 1.33194 -3.22584 0
M  V30 2738 C 283.402 1.77611 -3.85668 0
M  V30 2739 O 284.426 1.42825 -3.26312 0
M  V30 2740 O 283.285 2.4192 -4.90038 0
M  V30 2741 H 280.379 0.397628 -0.725135 0
M  V30 2742 H 282.925 0.0807044 -1.69508 0
M  V30 2743 H 281.697 0.517248 -3.87866 0
M  V30 2744 H 281.32 2.1475 -3.34616 0
M  V30 2745 N 282.317 1.53212 0.369288 0
M  V30 2746 C 283.733 1.42902 0.710712 0
M  V30 2747 C 283.933 0.565135 1.93413 0
M  V30 2748 O 282.989 0.0461484 2.52458 0
M  V30 2749 C 284.302 2.86042 0.927382 0
M  V30 2750 C 285.85 2.9565 1.02762 0
M  V30 2751 C 286.325 4.39843 1.27679 0
M  V30 2752 N 287.816 4.43256 1.34457 0
M  V30 2753 C 288.551 5.51929 1.55439 0
M  V30 2754 N 288.047 6.70655 1.73762 0
M  V30 2755 N 289.84 5.39502 1.57779 0
M  V30 2756 H 281.991 2.07888 -0.435457 0
M  V30 2757 H 284.254 0.938661 -0.132739 0
M  V30 2758 H 283.96 3.51557 0.100287 0
M  V30 2759 H 283.834 3.29472 1.83653 0
M  V30 2760 H 286.221 2.30291 1.84527 0
M  V30 2761 H 286.302 2.5562 0.0959504 0
M  V30 2762 H 285.946 5.05774 0.464175 0
M  V30 2763 H 285.876 4.77443 2.22162 0
M  V30 2764 H 288.367 3.5769 1.21926 0
M  V30 2765 H 288.68 7.49248 1.89335 0
M  V30 2766 H 287.025 6.73648 1.70948 0
M  V30 2767 H 290.216 4.45713 1.43029 0
M  V30 2768 H 290.389 6.2426 1.7379 0
M  V30 2769 N 283.795 -0.628877 1.44509 0
M  V30 2770 C 285.041 -1.39045 1.47629 0
M  V30 2771 C 285.374 -1.93892 0.109343 0
M  V30 2772 O 284.649 -1.7379 -0.87334 0
M  V30 2773 C 284.932 -2.55408 2.53848 0
M  V30 2774 C 284.785 -2.05896 3.99909 0
M  V30 2775 C 286.104 -3.5759 2.56549 0
M  V30 2776 H 283.223 -0.504232 0.537512 0
M  V30 2777 H 285.865 -0.710854 1.76201 0
M  V30 2778 H 284.015 -3.13384 2.29615 0
M  V30 2779 H 285.687 -1.52734 4.35282 0
M  V30 2780 H 283.93 -1.37061 4.11578 0
M  V30 2781 H 284.601 -2.89681 4.69882 0
M  V30 2782 H 287.077 -3.09419 2.78207 0
M  V30 2783 H 285.953 -4.36527 3.32769 0
M  V30 2784 H 286.214 -4.11808 1.60832 0
M  V30 2785 N 285.273 -1.31445 -0.869486 0
M  V30 2786 C 286.236 -1.19094 -1.9583 0
M  V30 2787 C 287.236 -0.117906 -1.60367 0
M  V30 2788 O 288.426 -0.367208 -1.70286 0
M  V30 2789 C 285.558 -0.828165 -3.30688 0
M  V30 2790 H 286.751 -2.15842 -2.08212 0
M  V30 2791 H 284.304 -1.15063 -1.05784 0
M  V30 2792 H 285.039 0.138142 -3.24006 0
M  V30 2793 H 284.824 -1.6038 -3.578 0
M  V30 2794 H 286.314 -0.765658 -4.10521 0
M  V30 2795 N 286.751 1.08385 -1.14413 0
M  V30 2796 C 288.167 1.32844 -0.884563 0
M  V30 2797 C 288.367 1.95841 0.474181 0
M  V30 2798 O 287.423 2.21158 1.21842 0
M  V30 2799 C 288.736 2.22978 -2.01745 0
M  V30 2800 C 290.284 2.36458 -2.05077 0
M  V30 2801 C 290.759 3.29934 -3.1766 0
M  V30 2802 N 292.25 3.37511 -3.17239 0
M  V30 2803 C 292.985 4.09871 -4.0099 0
M  V30 2804 N 292.481 4.84936 -4.94781 0
M  V30 2805 N 294.274 4.05704 -3.89051 0
M  V30 2806 H 286.425 0.658756 -2.01926 0
M  V30 2807 H 288.688 0.352821 -0.879899 0
M  V30 2808 H 288.394 1.83934 -2.99769 0
M  V30 2809 H 288.268 3.23441 -1.94077 0
M  V30 2810 H 290.655 2.7476 -1.0766 0
M  V30 2811 H 290.736 1.35736 -2.16816 0
M  V30 2812 H 290.38 2.92352 -4.15322 0
M  V30 2813 H 290.31 4.30584 -3.03158 0
M  V30 2814 H 292.801 2.83996 -2.49308 0
M  V30 2815 H 293.114 5.37612 -5.55151 0
M  V30 2816 H 291.459 4.83988 -4.98779 0
M  V30 2817 H 294.65 3.46167 -3.15097 0
M  V30 2818 H 294.823 4.61834 -4.54547 0
M  V30 2819 N 288.23 0.939286 1.26551 0
M  V30 2820 C 289.163 0.391702 2.24813 0
M  V30 2821 C 290.141 -0.518421 1.54114 0
M  V30 2822 O 291.325 -0.456299 1.82894 0
M  V30 2823 C 288.452 -0.437382 3.35864 0
M  V30 2824 C 287.498 0.410946 4.24516 0
M  V30 2825 S 288.331 1.83372 5.03125 0
M  V30 2826 C 289.487 1.01264 6.17654 0
M  V30 2827 H 289.72 1.22448 2.70913 0
M  V30 2828 H 287.253 0.742269 1.35387 0
M  V30 2829 H 289.211 -0.909837 4.0029 0
M  V30 2830 H 287.872 -1.24482 2.8838 0
M  V30 2831 H 287.065 -0.224191 5.03501 0
M  V30 2832 H 286.667 0.818014 3.64945 0
M  V30 2833 H 288.959 0.254023 6.77024 0
M  V30 2834 H 289.902 1.77589 6.85469 0
M  V30 2835 H 290.31 0.549532 5.61819 0
M  V30 2836 N 289.708 -1.40897 0.706093 0
M  V30 2837 C 290.954 -2.01352 0.241889 0
M  V30 2838 C 291.287 -1.55832 -1.15888 0
M  V30 2839 O 290.562 -0.774145 -1.7843 0
M  V30 2840 C 290.845 -3.58752 0.311311 0
M  V30 2841 C 290.698 -4.1437 1.74978 0
M  V30 2842 C 292.017 -4.38914 -0.322922 0
M  V30 2843 H 289.136 -0.731562 0.0893687 0
M  V30 2844 H 291.778 -1.67504 0.896802 0
M  V30 2845 H 289.928 -3.87718 -0.246302 0
M  V30 2846 H 291.6 -3.96239 2.36205 0
M  V30 2847 H 289.843 -3.69016 2.28057 0
M  V30 2848 H 290.514 -5.23532 1.74981 0
M  V30 2849 H 292.99 -4.15822 0.152089 0
M  V30 2850 H 291.866 -5.48358 -0.243855 0
M  V30 2851 H 292.127 -4.19176 -1.40513 0
M  V30 2852 N 291.186 -0.45159 -1.50991 0
M  V30 2853 C 292.118 0.388634 -2.25881 0
M  V30 2854 C 293.131 0.974041 -1.30446 0
M  V30 2855 O 294.32 0.865758 -1.56099 0
M  V30 2856 C 291.42 1.5571 -3.01011 0
M  V30 2857 C 290.593 1.08801 -4.23652 0
M  V30 2858 C 289.652 2.12825 -4.8124 0
M  V30 2859 O 288.678 1.71678 -5.42693 0
M  V30 2860 N 289.88 3.45453 -4.66522 0
M  V30 2861 H 292.645 -0.25329 -2.98628 0
M  V30 2862 H 290.206 -0.281268 -1.59438 0
M  V30 2863 H 292.198 2.24952 -3.3642 0
M  V30 2864 H 290.768 2.10409 -2.31186 0
M  V30 2865 H 289.988 0.22215 -3.93574 0
M  V30 2866 H 291.276 0.752213 -5.03209 0
M  V30 2867 H 290.674 3.81605 -4.17605 0
M  V30 2868 H 289.231 4.10549 -5.06254 0
M  V30 2869 N 292.664 1.56529 -0.183458 0
M  V30 2870 C 293.889 2.02064 0.467428 0
M  V30 2871 C 294.314 1.06282 1.55196 0
M  V30 2872 O 293.672 0.0443565 1.81246 0
M  V30 2873 C 293.72 3.46122 1.01153 0
M  V30 2874 O 292.824 3.53437 2.12499 0
M  V30 2875 H 292.165 0.654726 0.110588 0
M  V30 2876 H 294.695 2.02521 -0.290917 0
M  V30 2877 H 294.705 3.85676 1.33108 0
M  V30 2878 H 293.38 4.15331 0.217533 0
M  V30 2879 H 291.957 3.2575 1.81497 0
M  V30 2880 N 294.142 -0.090211 1.57342 0
M  V30 2881 C 295.39 -0.791241 1.85967 0
M  V30 2882 C 295.711 -1.7903 0.772859 0
M  V30 2883 O 294.981 -1.94872 -0.200398 0
M  V30 2884 H 293.561 -0.295205 0.686195 0
M  V30 2885 H 296.223 -0.0706782 1.94772 0
M  V30 2886 H 295.319 -1.31882 2.82867 0
M  V30 2887 N 295.62 -1.53406 -0.361157 0
M  V30 2888 C 296.868 -1.69467 -1.10115 0
M  V30 2889 C 297.189 -0.451352 -1.89705 0
M  V30 2890 O 296.459 0.534636 -1.88463 0
M  V30 2891 H 295.039 -0.624749 -0.409508 0
M  V30 2892 H 297.701 -1.90609 -0.406699 0
M  V30 2893 H 296.797 -2.55774 -1.78847 0
M  V30 2894 N 297.098 0.621204 -1.44841 0
M  V30 2895 C 298.338 1.39201 -1.49674 0
M  V30 2896 C 298.702 1.91561 -0.129764 0
M  V30 2897 O 299.903 2.68748 -0.0527814 0
M  V30 2898 C 298.174 2.519 -2.53537 0
M  V30 2899 S 299.733 3.39916 -2.77494 0
M  V30 2900 H 296.551 0.474758 -0.529269 0
M  V30 2901 H 299.153 0.718171 -1.81831 0
M  V30 2902 H 297.857 2.11761 -3.51547 0
M  V30 2903 H 297.388 3.241 -2.22986 0
M  V30 2904 H 299.403 4.49646 -2.0984 0
M  V30 2905 N 298.576 1.31904 0.862503 0
M  V30 2906 C 299.801 1.25135 1.65397 0
M  V30 2907 C 300.226 -0.179 1.87246 0
M  V30 2908 O 299.584 -1.1277 1.4196 0
M  V30 2909 C 299.632 2.00832 2.99498 0
M  V30 2910 O 298.736 1.35075 3.89652 0
M  V30 2911 H 298.077 0.431655 0.504549 0
M  V30 2912 H 300.607 1.74094 1.07483 0
M  V30 2913 H 300.617 2.10709 3.49379 0
M  V30 2914 H 299.292 3.04847 2.82916 0
M  V30 2915 H 297.869 1.33696 3.48109 0
M  V30 2916 N 300.054 -1.07777 1.14986 0
M  V30 2917 C 301.017 -2.13041 0.845358 0
M  V30 2918 C 302.017 -1.60071 -0.152931 0
M  V30 2919 O 303.207 -1.74033 0.0761879 0
M  V30 2920 C 300.339 -3.39896 0.261383 0
M  V30 2921 H 301.532 -2.41485 1.77834 0
M  V30 2922 H 299.085 -1.23595 0.956757 0
M  V30 2923 H 299.82 -3.17091 -0.68 0
M  V30 2924 H 299.605 -3.79642 0.980514 0
M  V30 2925 H 301.095 -4.17548 0.0657687 0
M  V30 2926 N 301.532 -0.945985 -1.26051 0
M  V30 2927 C 302.48 -0.450259 -2.282 0
M  V30 2928 C 303.474 0.47497 -1.62605 0
M  V30 2929 O 304.68 0.352653 -1.76512 0
M  V30 2930 H 301.055 -0.127081 -0.741184 0
M  V30 2931 H 303.026 -1.32422 -2.67408 0
M  V30 2932 C 301.775 0.26467 -3.46691 0
M  V30 2933 H 301.098 -0.438123 -3.97392 0
M  V30 2934 H 302.538 0.575678 -4.20074 0
M  V30 2935 C 300.997 1.48416 -3.02447 0
M  V30 2936 O 301.527 2.58227 -3.07704 0
M  V30 2937 N 299.733 1.34243 -2.57735 0
M  V30 2938 H 299.28 0.448994 -2.53657 0
M  V30 2939 H 299.238 2.15957 -2.28495 0
M  V30 2940 N 303.011 1.40521 -0.713556 0
M  V30 2941 C 304.288 1.94775 -0.17943 0
M  V30 2942 C 304.668 1.65184 1.31444 0
M  V30 2943 O 304.016 0.968429 2.06963 0
M  V30 2944 C 304.226 3.45543 -0.489986 0
M  V30 2945 C 305.574 4.22442 -0.427536 0
M  V30 2946 O 306.598 3.53644 -0.425929 0
M  V30 2947 O 305.457 5.4501 -0.403292 0
M  V30 2948 H 302.551 0.826606 -0.0255192 0
M  V30 2949 H 305.097 1.5014 -0.790949 0
M  V30 2950 H 303.869 3.60432 -1.5233 0
M  V30 2951 H 303.492 3.97311 0.151598 0
M  V30 2952 N 304.489 0.459591 1.5075 0
M  V30 2953 C 305.714 -0.0996819 2.0716 0
M  V30 2954 C 306.139 -1.33761 1.32249 0
M  V30 2955 O 305.497 -1.77551 0.366786 0
M  V30 2956 C 305.545 -0.378226 3.58611 0
M  V30 2957 O 304.649 -1.46081 3.85661 0
M  V30 2958 H 303.99 0.00791392 0.663953 0
M  V30 2959 H 306.52 0.647329 1.9409 0
M  V30 2960 H 306.53 -0.622135 4.03229 0
M  V30 2961 H 305.205 0.526439 4.12555 0
M  V30 2962 H 303.782 -1.20511 3.5289 0
M  V30 2963 N 305.967 -1.56429 0.191757 0
M  V30 2964 C 307.383 -1.58754 -0.164137 0
M  V30 2965 C 307.583 -1.20782 -1.61288 0
M  V30 2966 O 306.639 -0.928999 -2.34789 0
M  V30 2967 C 307.952 -3.00396 0.135195 0
M  V30 2968 C 309.5 -3.1291 0.0750351 0
M  V30 2969 C 309.975 -4.56679 0.347632 0
M  V30 2970 N 311.466 -4.62252 0.296131 0
M  V30 2971 C 312.201 -5.71379 0.480948 0
M  V30 2972 N 311.697 -6.88986 0.725933 0
M  V30 2973 N 313.49 -5.60563 0.415435 0
M  V30 2974 H 305.641 -1.79393 1.13718 0
M  V30 2975 H 307.904 -0.832414 0.453643 0
M  V30 2976 H 307.61 -3.32726 1.13958 0
M  V30 2977 H 307.484 -3.72963 -0.563773 0
M  V30 2978 H 309.871 -2.80394 -0.919948 0
M  V30 2979 H 309.952 -2.42736 0.807029 0
M  V30 2980 H 309.596 -4.89907 1.33992 0
M  V30 2981 H 309.526 -5.25039 -0.405212 0
M  V30 2982 H 312.017 -3.7773 0.113259 0
M  V30 2983 H 312.33 -7.68046 0.855857 0
M  V30 2984 H 310.675 -6.90801 0.762788 0
M  V30 2985 H 313.866 -4.67561 0.224486 0
M  V30 2986 H 314.039 -6.45551 0.562889 0
M  V30 2987 N 307.445 0.0818655 -1.57387 0
M  V30 2988 C 308.355 1.11642 -2.06333 0
M  V30 2989 C 309.371 1.43033 -0.99083 0
M  V30 2990 O 310.547 1.53411 -1.30488 0
M  V30 2991 C 307.612 2.41342 -2.48907 0
M  V30 2992 C 306.673 2.17014 -3.7041 0
M  V30 2993 C 305.906 3.4053 -4.10944 0
M  V30 2994 O 306.129 4.4927 -3.51444 0
M  V30 2995 O 305.063 3.29336 -5.03807 0
M  V30 2996 H 308.889 0.730657 -2.9478 0
M  V30 2997 H 306.474 0.295301 -1.46452 0
M  V30 2998 H 308.356 3.17691 -2.76858 0
M  V30 2999 H 307.031 2.79319 -1.63593 0
M  V30 3000 H 305.938 1.38403 -3.47556 0
M  V30 3001 H 307.271 1.83923 -4.56545 0
M  V30 3002 N 308.923 1.53595 0.353017 0
M  V30 3003 C 310.169 1.70638 1.09593 0
M  V30 3004 C 310.502 0.463286 1.88593 0
M  V30 3005 O 309.777 -0.539597 1.86865 0
M  V30 3006 C 310.06 2.96406 2.04489 0
M  V30 3007 C 309.913 4.30901 1.29014 0
M  V30 3008 C 311.232 3.17812 3.0444 0
M  V30 3009 H 308.351 0.620913 0.397034 0
M  V30 3010 H 310.993 1.86254 0.375446 0
M  V30 3011 H 309.143 2.83223 2.65927 0
M  V30 3012 H 310.815 4.55917 0.702638 0
M  V30 3013 H 309.058 4.29741 0.592071 0
M  V30 3014 H 309.729 5.1506 1.98537 0
M  V30 3015 H 312.205 3.30263 2.53112 0
M  V30 3016 H 311.081 4.07223 3.6805 0
M  V30 3017 H 311.342 2.33669 3.75301 0
M  V30 3018 N 310.401 -0.613514 1.45168 0
M  V30 3019 C 311.648 -1.37268 1.48875 0
M  V30 3020 C 311.976 -1.94077 0.128161 0
M  V30 3021 O 311.231 -1.75178 -0.872416 0
M  V30 3022 C 311.53 -2.54347 2.51083 0
M  V30 3023 C 311.196 -2.1572 3.95949 0
M  V30 3024 C 309.858 -2.04899 4.35396 0
M  V30 3025 C 312.21 -1.85485 4.87078 0
M  V30 3026 C 309.538 -1.62057 5.63875 0
M  V30 3027 C 311.89 -1.4413 6.15962 0
M  V30 3028 C 310.554 -1.31863 6.54346 0
M  V30 3029 H 309.824 -0.502299 0.544773 0
M  V30 3030 H 312.471 -0.694021 1.78481 0
M  V30 3031 H 310.776 -3.27524 2.15024 0
M  V30 3032 H 312.473 -3.12577 2.51191 0
M  V30 3033 H 309.063 -2.25066 3.64751 0
M  V30 3034 H 313.247 -1.92745 4.57343 0
M  V30 3035 H 308.503 -1.51177 5.92415 0
M  V30 3036 H 312.677 -1.19778 6.86022 0
M  V30 3037 H 310.304 -0.984392 7.538 0
M  V30 3038 N 311.879 -1.3236 -0.855495 0
M  V30 3039 C 312.826 -1.21225 -1.964 0
M  V30 3040 C 313.796 -0.0946204 -1.6583 0
M  V30 3041 O 314.981 -0.27002 -1.8888 0
M  V30 3042 C 312.121 -0.940419 -3.32039 0
M  V30 3043 C 311.234 -2.14276 -3.75113 0
M  V30 3044 C 310.369 -1.80648 -4.9954 0
M  V30 3045 C 309.408 -2.97208 -5.35102 0
M  V30 3046 N 308.545 -2.63678 -6.50706 0
M  V30 3047 H 313.385 -2.16042 -2.05255 0
M  V30 3048 H 310.922 -1.07451 -1.00463 0
M  V30 3049 H 312.88 -0.763311 -4.10158 0
M  V30 3050 H 311.51 -0.0290413 -3.22787 0
M  V30 3051 H 310.562 -2.43017 -2.92655 0
M  V30 3052 H 311.874 -3.01468 -3.97389 0
M  V30 3053 H 311.028 -1.59484 -5.85363 0
M  V30 3054 H 309.767 -0.906678 -4.79198 0
M  V30 3055 H 308.772 -3.19004 -4.47791 0
M  V30 3056 H 309.997 -3.87918 -5.57401 0
M  V30 3057 H 307.943 -1.76238 -6.31883 0
M  V30 3058 H 307.86 -3.444 -6.72997 0
M  V30 3059 H 309.128 -2.45942 -7.39684 0
M  V30 3060 N 313.357 1.07166 -1.15556 0
M  V30 3061 C 314.304 2.14417 -0.854055 0
M  V30 3062 C 315.274 1.64965 0.193806 0
M  V30 3063 O 316.459 1.90703 0.0609443 0
M  V30 3064 C 313.599 3.43304 -0.351574 0
M  V30 3065 C 312.712 4.06537 -1.46123 0
M  V30 3066 C 311.847 5.23266 -0.914677 0
M  V30 3067 C 310.886 5.78464 -2.00114 0
M  V30 3068 N 310.023 6.86521 -1.47083 0
M  V30 3069 H 314.863 2.39548 -1.77259 0
M  V30 3070 H 312.4 1.17543 -0.884425 0
M  V30 3071 H 314.358 4.17179 -0.0419409 0
M  V30 3072 H 312.988 3.18419 0.530037 0
M  V30 3073 H 312.04 3.30297 -1.88701 0
M  V30 3074 H 313.352 4.43567 -2.28144 0
M  V30 3075 H 312.506 6.04131 -0.557698 0
M  V30 3076 H 311.245 4.87658 -0.0636583 0
M  V30 3077 H 310.25 4.96243 -2.36692 0
M  V30 3078 H 311.475 6.16126 -2.85597 0
M  V30 3079 H 309.421 6.52849 -0.642198 0
M  V30 3080 H 309.338 7.22446 -2.22729 0
M  V30 3081 H 310.606 7.71087 -1.14215 0
M  V30 3082 N 314.835 0.952656 1.25548 0
M  V30 3083 C 315.785 0.442033 2.23674 0
M  V30 3084 C 316.769 -0.467632 1.53955 0
M  V30 3085 O 317.961 -0.301006 1.74422 0
M  V30 3086 C 315.09 -0.280816 3.4215 0
M  V30 3087 C 314.176 0.646803 4.19139 0
M  V30 3088 N 314.567 1.77759 4.73535 0
M  V30 3089 C 312.865 0.454617 4.43677 0
M  V30 3090 C 313.566 2.35658 5.31827 0
M  V30 3091 N 312.542 1.64333 5.18166 0
M  V30 3092 H 316.344 1.30505 2.63336 0
M  V30 3093 H 313.858 0.809904 1.40763 0
M  V30 3094 H 315.855 -0.663747 4.11582 0
M  V30 3095 H 314.515 -1.14046 3.04012 0
M  V30 3096 H 315.526 2.15949 4.7073 0
M  V30 3097 H 312.203 -0.362312 4.15925 0
M  V30 3098 H 313.593 3.30998 5.84713 0
M  V30 3099 N 316.313 -1.40141 0.720998 0
M  V30 3100 C 317.562 -2.0002 0.259804 0
M  V30 3101 C 317.875 -1.57839 -1.15526 0
M  V30 3102 O 319.081 -2.10455 -1.71525 0
M  V30 3103 C 317.537 -3.57516 0.413566 0
M  V30 3104 C 317.145 -4.08667 1.83562 0
M  V30 3105 C 318.889 -4.24498 0.0134387 0
M  V30 3106 C 316.796 -5.58686 1.93968 0
M  V30 3107 H 315.726 -0.748195 0.0933806 0
M  V30 3108 H 318.377 -1.60313 0.892866 0
M  V30 3109 H 316.759 -3.9495 -0.288169 0
M  V30 3110 H 317.933 -3.82598 2.56817 0
M  V30 3111 H 316.248 -3.543 2.1877 0
M  V30 3112 H 318.845 -5.34654 0.0703954 0
M  V30 3113 H 319.188 -4.03375 -1.02927 0
M  V30 3114 H 319.721 -3.92188 0.665815 0
M  V30 3115 H 316.46 -5.8467 2.96379 0
M  V30 3116 H 315.98 -5.86602 1.25131 0
M  V30 3117 H 317.659 -6.23875 1.71431 0
M  V30 3118 N 317.792 -0.46758 -1.50504 0
M  V30 3119 C 318.702 0.33382 -2.32213 0
M  V30 3120 C 319.718 0.999323 -1.42441 0
M  V30 3121 O 320.894 0.988068 -1.75497 0
M  V30 3122 C 317.959 1.4035 -3.17022 0
M  V30 3123 C 317.02 0.754961 -4.2261 0
M  V30 3124 C 316.253 1.77367 -5.03365 0
M  V30 3125 O 316.476 2.99976 -4.8515 0
M  V30 3126 O 315.41 1.34744 -5.86624 0
M  V30 3127 H 319.236 -0.334067 -3.01857 0
M  V30 3128 H 316.821 -0.229496 -1.47627 0
M  V30 3129 H 318.703 2.02318 -3.69656 0
M  V30 3130 H 317.378 2.05492 -2.5011 0
M  V30 3131 H 316.285 0.0964244 -3.73976 0
M  V30 3132 H 317.618 0.146545 -4.91982 0
M  V30 3133 N 319.27 1.56325 -0.20005 0
M  V30 3134 C 320.217 2.1932 0.718833 0
M  V30 3135 C 321.187 1.14198 1.20615 0
M  V30 3136 O 322.372 1.42469 1.26914 0
M  V30 3137 C 319.512 2.86041 1.93066 0
M  V30 3138 C 318.625 4.05702 1.48425 0
M  V30 3139 C 317.76 4.60266 2.65196 0
M  V30 3140 C 316.799 5.72273 2.17185 0
M  V30 3141 N 315.936 6.21221 3.27152 0
M  V30 3142 H 320.776 2.97486 0.17489 0
M  V30 3143 H 318.313 1.46911 0.0745794 0
M  V30 3144 H 320.271 3.22897 2.64184 0
M  V30 3145 H 318.901 2.1043 2.44783 0
M  V30 3146 H 317.953 3.74475 0.668755 0
M  V30 3147 H 319.265 4.86699 1.09204 0
M  V30 3148 H 318.419 4.99453 3.4443 0
M  V30 3149 H 317.158 3.78386 3.07693 0
M  V30 3150 H 316.163 5.3261 1.36407 0
M  V30 3151 H 317.388 6.55974 1.75713 0
M  V30 3152 H 315.334 5.42263 3.69171 0
M  V30 3153 H 315.251 6.97284 2.92116 0
M  V30 3154 H 316.519 6.65063 4.06585 0
M  V30 3155 N 320.748 -0.0735177 1.57428 0
M  V30 3156 C 322.164 -0.428264 1.53747 0
M  V30 3157 C 322.364 -1.79272 0.91998 0
M  V30 3158 O 321.42 -2.47051 0.521745 0
M  V30 3159 C 322.733 -0.370914 2.98404 0
M  V30 3160 C 324.281 -0.451224 3.0973 0
M  V30 3161 C 324.756 -0.4238 4.56035 0
M  V30 3162 N 326.247 -0.483925 4.60665 0
M  V30 3163 C 326.982 -0.484891 5.71346 0
M  V30 3164 N 326.478 -0.440775 6.91396 0
M  V30 3165 N 328.271 -0.531319 5.59583 0
M  V30 3166 H 320.422 0.819949 1.95935 0
M  V30 3167 H 322.685 0.307493 0.896745 0
M  V30 3168 H 322.391 0.564956 3.47133 0
M  V30 3169 H 322.265 -1.18176 3.5821 0
M  V30 3170 H 324.652 -1.37752 2.60976 0
M  V30 3171 H 324.733 0.388167 2.52838 0
M  V30 3172 H 324.377 0.498638 5.05446 0
M  V30 3173 H 324.307 -1.2807 5.10789 0
M  V30 3174 H 326.798 -0.522338 3.74273 0
M  V30 3175 H 327.111 -0.44539 7.71515 0
M  V30 3176 H 325.456 -0.40749 6.93804 0
M  V30 3177 H 328.647 -0.563464 4.64696 0
M  V30 3178 H 328.82 -0.528603 6.4584 0
M  V30 3179 N 322.226 -1.5378 -0.344866 0
M  V30 3180 C 323.472 -1.71216 -1.08687 0
M  V30 3181 C 323.805 -0.473281 -1.88345 0
M  V30 3182 O 323.08 0.52968 -1.87149 0
M  V30 3183 C 323.363 -2.97486 -2.02914 0
M  V30 3184 C 323.216 -4.31579 -1.26727 0
M  V30 3185 C 324.535 -3.19422 -3.0275 0
M  V30 3186 H 321.654 -0.62301 -0.393735 0
M  V30 3187 H 324.296 -1.8645 -0.365563 0
M  V30 3188 H 322.446 -2.84629 -2.64421 0
M  V30 3189 H 324.118 -4.56284 -0.67845 0
M  V30 3190 H 322.361 -4.30049 -0.569273 0
M  V30 3191 H 323.032 -5.16106 -1.95803 0
M  V30 3192 H 325.508 -3.316 -2.51357 0
M  V30 3193 H 324.384 -4.09169 -3.65885 0
M  V30 3194 H 324.645 -2.35656 -3.74057 0
M  V30 3195 N 323.704 0.605807 -1.45491 0
M  V30 3196 C 325.12 0.926751 -1.29936 0
M  V30 3197 C 325.32 1.99896 -0.253706 0
M  V30 3198 O 324.376 2.50038 0.351737 0
M  V30 3199 C 325.689 1.36599 -2.67883 0
M  V30 3200 C 327.237 1.4801 -2.75793 0
M  V30 3201 C 327.712 1.95309 -4.14268 0
M  V30 3202 N 329.203 2.0254 -4.16571 0
M  V30 3203 C 329.938 2.40363 -5.20589 0
M  V30 3204 N 329.434 2.77143 -6.34952 0
M  V30 3205 N 331.227 2.40718 -5.07948 0
M  V30 3206 H 323.378 -0.102862 -2.12151 0
M  V30 3207 H 325.641 0.016639 -0.947854 0
M  V30 3208 H 325.347 0.652306 -3.45598 0
M  V30 3209 H 325.221 2.33215 -2.96463 0
M  V30 3210 H 327.608 2.1847 -1.98381 0
M  V30 3211 H 327.689 0.497041 -2.50925 0
M  V30 3212 H 327.333 1.25436 -4.92167 0
M  V30 3213 H 327.263 2.94532 -4.3653 0
M  V30 3214 H 329.754 1.76699 -3.34045 0
M  V30 3215 H 330.067 3.0489 -7.10114 0
M  V30 3216 H 328.412 2.74834 -6.3835 0
M  V30 3217 H 331.603 2.11392 -4.1765 0
M  V30 3218 H 331.776 2.69869 -5.89131 0
M  V30 3219 N 325.182 1.32811 0.848464 0
M  V30 3220 C 326.407 1.26882 1.6406 0
M  V30 3221 C 326.832 -0.15913 1.87426 0
M  V30 3222 O 326.19 -1.11258 1.43148 0
M  V30 3223 C 326.238 2.03997 2.97351 0
M  V30 3224 O 325.342 1.39201 3.88197 0
M  V30 3225 H 324.683 0.436982 0.499943 0
M  V30 3226 H 327.213 1.75224 1.0563 0
M  V30 3227 H 327.223 2.14403 3.47124 0
M  V30 3228 H 325.898 3.0783 2.79666 0
M  V30 3229 H 324.475 1.37381 3.46671 0
M  V30 3230 N 326.66 -1.06551 1.16123 0
M  V30 3231 C 327.59 -2.15935 0.88851 0
M  V30 3232 C 328.571 -1.69306 -0.164135 0
M  V30 3233 O 329.756 -1.94193 -0.0167857 0
M  V30 3234 C 326.886 -3.45149 0.385942 0
M  V30 3235 C 325.84 -4.05271 1.3762 0
M  V30 3236 C 325.166 -5.29664 0.732137 0
M  V30 3237 C 326.466 -4.44355 2.74493 0
M  V30 3238 H 328.16 -2.39006 1.80323 0
M  V30 3239 H 325.706 -1.14866 0.868435 0
M  V30 3240 H 327.659 -4.21004 0.182647 0
M  V30 3241 H 326.383 -3.21689 -0.564274 0
M  V30 3242 H 325.042 -3.3147 1.56599 0
M  V30 3243 H 324.69 -5.02499 -0.224483 0
M  V30 3244 H 324.39 -5.70848 1.39307 0
M  V30 3245 H 325.914 -6.08218 0.538802 0
M  V30 3246 H 327.328 -5.11303 2.59311 0
M  V30 3247 H 325.725 -4.96515 3.37035 0
M  V30 3248 H 326.795 -3.55339 3.29943 0
M  V30 3249 N 328.138 -0.959301 -1.25041 0
M  V30 3250 C 329.549 -0.65667 -1.74771 0
M  V30 3251 C 329.9 0.827852 -1.77879 0
M  V30 3252 O 329.025 1.64783 -1.40269 0
M  V30 3253 C 329.62 -1.1853 -3.1739 0
M  V30 3254 C 328.179 -0.932734 -3.6466 0
M  V30 3255 C 327.326 -1.32558 -2.43564 0
M  V30 3256 H 330.277 -1.13558 -1.10862 0
M  V30 3257 H 330.298 -0.547582 -3.76539 0
M  V30 3258 H 329.81 -2.26576 -3.15095 0
M  V30 3259 H 327.911 0.13257 -3.72364 0
M  V30 3260 H 328.024 -1.57248 -4.52559 0
M  V30 3261 H 326.388 -0.743956 -2.43593 0
M  V30 3262 H 327.171 -2.41537 -2.43957 0
M  V30 3263 N 329.616 1.39756 -0.72842 0
M  V30 3264 C 330.526 2.34444 -0.0855374 0
M  V30 3265 C 331.542 1.57976 0.729356 0
M  V30 3266 O 332.718 1.90301 0.659346 0
M  V30 3267 C 329.783 3.36965 0.815798 0
M  V30 3268 C 328.844 4.29299 -0.0105996 0
M  V30 3269 C 328.077 5.26923 0.84781 0
M  V30 3270 O 328.3 5.30859 2.08673 0
M  V30 3271 O 327.234 6.01249 0.279969 0
M  V30 3272 H 331.06 2.91065 -0.866892 0
M  V30 3273 H 328.645 1.4117 -0.48902 0
M  V30 3274 H 330.527 3.99804 1.33171 0
M  V30 3275 H 329.202 2.82739 1.57608 0
M  V30 3276 H 328.109 3.69703 -0.571877 0
M  V30 3277 H 329.442 4.86712 -0.73295 0
M  V30 3278 N 331.094 0.475555 1.50254 0
M  V30 3279 C 332.343 -0.0795996 2.01543 0
M  V30 3280 C 332.656 -1.4038 1.36209 0
M  V30 3281 O 333.862 -2.04415 1.7868 0
M  V30 3282 C 332.318 -0.192363 3.59386 0
M  V30 3283 C 331.926 1.12367 4.33679 0
M  V30 3284 C 333.67 -0.699238 4.18701 0
M  V30 3285 C 331.577 0.974453 5.83317 0
M  V30 3286 H 330.507 -0.0335228 0.753254 0
M  V30 3287 H 333.158 0.611128 1.73025 0
M  V30 3288 H 331.54 -0.946974 3.84511 0
M  V30 3289 H 332.714 1.88958 4.20276 0
M  V30 3290 H 331.029 1.562 3.85993 0
M  V30 3291 H 333.626 -0.827978 5.28251 0
M  V30 3292 H 333.969 -1.69171 3.80377 0
M  V30 3293 H 334.502 -0.00188807 3.978 0
M  V30 3294 H 331.241 1.94042 6.26121 0
M  V30 3295 H 330.761 0.248998 5.99283 0
M  V30 3296 H 332.44 0.642867 6.43798 0
M  V30 3297 N 332.573 -1.56217 0.208337 0
M  V30 3298 C 333.85 -1.89739 -0.475234 0
M  V30 3299 C 334.23 -1.1238 -1.78701 0
M  V30 3300 O 333.578 -0.228979 -2.2735 0
M  V30 3301 C 333.788 -3.42289 -0.681101 0
M  V30 3302 C 335.136 -4.12789 -0.994507 0
M  V30 3303 O 336.16 -3.47814 -0.768357 0
M  V30 3304 O 335.019 -5.27649 -1.42299 0
M  V30 3305 H 332.113 -0.788478 -0.249461 0
M  V30 3306 H 334.659 -1.67855 0.249538 0
M  V30 3307 H 333.431 -3.90534 0.244722 0
M  V30 3308 H 333.054 -3.69909 -1.45785 0
M  V30 3309 N 334.051 0.0651679 -1.57465 0
M  V30 3310 C 335.299 0.761555 -1.87202 0
M  V30 3311 C 335.62 1.77778 -0.801243 0
M  V30 3312 O 334.89 1.95166 0.16937 0
M  V30 3313 H 333.47 0.284251 -0.690804 0
M  V30 3314 H 336.132 0.0396827 -1.9486 0
M  V30 3315 H 335.228 1.27365 -2.84929 0
M  V30 3316 N 335.529 1.53961 0.336706 0
M  V30 3317 C 336.459 1.85417 1.41925 0
M  V30 3318 C 337.44 0.709856 1.5458 0
M  V30 3319 O 338.625 0.962396 1.68676 0
M  V30 3320 C 335.755 2.06985 2.78881 0
M  V30 3321 C 334.709 3.22813 2.81026 0
M  V30 3322 C 334.035 3.29727 4.20932 0
M  V30 3323 C 335.335 4.60767 2.45949 0
M  V30 3324 H 337.029 2.76079 1.15848 0
M  V30 3325 H 334.575 1.32839 0.555859 0
M  V30 3326 H 336.528 2.27575 3.54665 0
M  V30 3327 H 335.252 1.13061 3.06406 0
M  V30 3328 H 333.911 3.0209 2.07695 0
M  V30 3329 H 333.559 2.33385 4.45579 0
M  V30 3330 H 333.259 4.07566 4.23277 0
M  V30 3331 H 334.783 3.52536 4.98549 0
M  V30 3332 H 336.197 4.81325 3.11446 0
M  V30 3333 H 334.594 5.4106 2.59566 0
M  V30 3334 H 335.664 4.6391 1.41122 0
M  V30 3335 N 337.007 -0.598083 1.45811 0
M  V30 3336 C 338.232 -1.3881 1.54099 0
M  V30 3337 C 338.657 -1.8726 0.177578 0
M  V30 3338 O 338.015 -1.6069 -0.839541 0
M  V30 3339 C 338.063 -2.56217 2.53743 0
M  V30 3340 O 337.167 -3.5716 2.06182 0
M  V30 3341 H 336.508 -0.414024 0.519115 0
M  V30 3342 H 339.038 -0.726971 1.91249 0
M  V30 3343 H 339.048 -3.03337 2.72856 0
M  V30 3344 H 337.723 -2.20303 3.5276 0
M  V30 3345 H 336.3 -3.16624 1.96987 0
M  V30 3346 N 338.485 -1.33259 -0.841409 0
M  V30 3347 C 339.432 -1.23302 -1.95103 0
M  V30 3348 C 340.402 -0.112204 -1.65721 0
M  V30 3349 O 341.587 -0.290038 -1.88583 0
M  V30 3350 C 338.727 -0.975583 -3.31023 0
M  V30 3351 C 337.84 -2.18243 -3.72819 0
M  V30 3352 C 336.975 -1.85936 -4.97595 0
M  V30 3353 C 336.014 -3.02866 -5.3192 0
M  V30 3354 N 335.151 -2.70565 -6.47873 0
M  V30 3355 H 339.991 -2.18207 -2.02952 0
M  V30 3356 H 337.528 -1.0851 -0.993173 0
M  V30 3357 H 339.486 -0.80677 -4.09325 0
M  V30 3358 H 338.116 -0.0632755 -3.22738 0
M  V30 3359 H 337.168 -2.46107 -2.90061 0
M  V30 3360 H 338.48 -3.05666 -3.94169 0
M  V30 3361 H 337.634 -1.65684 -5.83638 0
M  V30 3362 H 336.373 -0.957452 -4.78209 0
M  V30 3363 H 335.378 -3.23736 -4.44382 0
M  V30 3364 H 336.603 -3.93809 -5.53255 0
M  V30 3365 H 334.549 -1.8293 -6.29978 0
M  V30 3366 H 334.466 -3.51519 -6.69306 0
M  V30 3367 H 335.734 -2.53774 -7.37034 0
M  V30 3368 N 339.963 1.05934 -1.16686 0
M  V30 3369 C 340.873 2.17014 -0.891183 0
M  V30 3370 C 341.889 1.73453 0.137907 0
M  V30 3371 O 343.065 2.01361 -0.039592 0
M  V30 3372 C 340.13 3.44384 -0.400099 0
M  V30 3373 C 339.191 4.02433 -1.49486 0
M  V30 3374 C 338.424 5.23723 -1.02711 0
M  V30 3375 O 338.647 5.7027 0.121716 0
M  V30 3376 O 337.581 5.7382 -1.81699 0
M  V30 3377 H 341.407 2.43113 -1.82015 0
M  V30 3378 H 338.992 1.15541 -0.947132 0
M  V30 3379 H 340.874 4.21189 -0.133392 0
M  V30 3380 H 339.549 3.19802 0.500817 0
M  V30 3381 H 338.456 3.27102 -1.81535 0
M  V30 3382 H 339.789 4.31317 -2.37121 0
M  V30 3383 N 341.441 0.965919 1.2453 0
M  V30 3384 C 342.669 0.644385 1.96609 0
M  V30 3385 C 343.084 -0.785823 1.71669 0
M  V30 3386 O 342.441 -1.52703 0.999399 0
M  V30 3387 C 342.492 0.907375 3.49927 0
M  V30 3388 O 342.213 2.28136 3.74013 0
M  V30 3389 C 343.714 0.599784 4.39224 0
M  V30 3390 H 340.934 0.240588 0.626385 0
M  V30 3391 H 343.478 1.29337 1.58405 0
M  V30 3392 H 341.633 0.304631 3.862 0
M  V30 3393 H 342.047 2.36002 4.68405 0
M  V30 3394 H 343.521 0.834263 5.45659 0
M  V30 3395 H 343.998 -0.465921 4.36722 0
M  V30 3396 H 344.604 1.18235 4.08535 0
M  V30 3397 N 342.919 -1.39368 0.735821 0
M  V30 3398 C 344.165 -2.00794 0.284544 0
M  V30 3399 C 344.498 -1.58255 -1.12557 0
M  V30 3400 O 343.773 -0.811819 -1.76748 0
M  V30 3401 C 344.056 -3.58011 0.387337 0
M  V30 3402 C 343.909 -4.10566 1.83728 0
M  V30 3403 C 345.228 -4.395 -0.22975 0
M  V30 3404 H 342.347 -0.729501 0.104866 0
M  V30 3405 H 344.989 -1.65564 0.93213 0
M  V30 3406 H 343.139 -3.88154 -0.164006 0
M  V30 3407 H 344.811 -3.91139 2.44556 0
M  V30 3408 H 343.054 -3.64095 2.35833 0
M  V30 3409 H 343.725 -5.19702 1.86047 0
M  V30 3410 H 346.201 -4.15406 0.240257 0
M  V30 3411 H 345.077 -5.48752 -0.127485 0
M  V30 3412 H 345.338 -4.22062 -1.3159 0
M  V30 3413 N 344.397 -0.483516 -1.5 0
M  V30 3414 C 345.327 0.293829 -2.31644 0
M  V30 3415 C 346.308 0.978864 -1.39112 0
M  V30 3416 O 347.493 0.973644 -1.68029 0
M  V30 3417 C 344.623 1.36897 -3.19181 0
M  V30 3418 C 343.577 0.804833 -4.20365 0
M  V30 3419 C 342.903 1.9792 -4.96721 0
M  V30 3420 C 344.203 -0.192313 -5.21946 0
M  V30 3421 H 345.897 -0.387616 -2.9688 0
M  V30 3422 H 343.443 -0.187856 -1.42769 0
M  V30 3423 H 345.396 1.92037 -3.751 0
M  V30 3424 H 344.12 2.07936 -2.51853 0
M  V30 3425 H 342.779 0.275319 -3.65565 0
M  V30 3426 H 342.427 2.67686 -4.25856 0
M  V30 3427 H 342.127 1.60789 -5.65173 0
M  V30 3428 H 343.651 2.53526 -5.55479 0
M  V30 3429 H 345.065 0.270333 -5.72662 0
M  V30 3430 H 343.462 -0.478543 -5.98189 0
M  V30 3431 H 344.532 -1.11409 -4.71928 0
M  V30 3432 N 345.875 1.56104 -0.216619 0
M  V30 3433 C 347.1 2.0301 0.424462 0
M  V30 3434 C 347.525 1.0955 1.52907 0
M  V30 3435 O 346.883 0.0827914 1.81111 0
M  V30 3436 C 346.931 3.4819 0.937883 0
M  V30 3437 O 346.035 3.57865 2.04955 0
M  V30 3438 H 345.376 0.656925 0.0966755 0
M  V30 3439 H 347.906 2.01859 -0.33381 0
M  V30 3440 H 347.916 3.88413 1.24897 0
M  V30 3441 H 346.591 4.15699 0.129387 0
M  V30 3442 H 345.168 3.29527 1.74546 0
M  V30 3443 N 347.353 -0.0568162 1.57498 0
M  V30 3444 C 348.578 -0.769402 1.92601 0
M  V30 3445 C 349.003 -1.69559 0.814336 0
M  V30 3446 O 348.361 -1.79811 -0.231903 0
M  V30 3447 C 348.409 -1.52634 3.26704 0
M  V30 3448 O 347.513 -2.63797 3.16994 0
M  V30 3449 H 346.854 -0.208909 0.63028 0
M  V30 3450 H 349.384 -0.0205798 2.0459 0
M  V30 3451 H 349.394 -1.90234 3.60936 0
M  V30 3452 H 348.069 -0.846875 4.07186 0
M  V30 3453 H 346.646 -2.28943 2.94346 0
M  V30 3454 N 348.832 -1.54138 -0.328536 0
M  V30 3455 C 350.078 -1.73297 -1.06488 0
M  V30 3456 C 350.433 -0.497958 -1.85844 0
M  V30 3457 O 349.726 0.509591 -1.84699 0
M  V30 3458 C 349.92 -2.9457 -2.02393 0
M  V30 3459 C 349.749 -4.29747 -1.32467 0
M  V30 3460 C 348.519 -4.93987 -1.06324 0
M  V30 3461 C 350.717 -5.08903 -0.743137 0
M  V30 3462 N 348.699 -6.13005 -0.331359 0
M  V30 3463 C 350.07 -6.19836 -0.142602 0
M  V30 3464 C 352.125 -4.93699 -0.64546 0
M  V30 3465 C 350.828 -7.17224 0.546125 0
M  V30 3466 C 352.854 -5.91393 0.0295558 0
M  V30 3467 C 352.216 -7.01674 0.619056 0
M  V30 3468 H 348.315 -0.687017 -0.373539 0
M  V30 3469 H 350.899 -1.91589 -0.346659 0
M  V30 3470 H 349.07 -2.77752 -2.71493 0
M  V30 3471 H 350.802 -3.0238 -2.68977 0
M  V30 3472 H 347.557 -4.53824 -1.35428 0
M  V30 3473 H 347.981 -6.76997 0.0202939 0
M  V30 3474 H 352.623 -4.08589 -1.08695 0
M  V30 3475 H 350.341 -8.01896 0.999459 0
M  V30 3476 H 353.927 -5.81706 0.104705 0
M  V30 3477 H 352.807 -7.75971 1.13309 0
M  V30 3478 N 350.31 0.590341 -1.46126 0
M  V30 3479 C 351.243 1.71434 -1.50617 0
M  V30 3480 C 352.221 1.58543 -0.360948 0
M  V30 3481 O 353.405 1.79865 -0.563985 0
M  V30 3482 C 350.532 3.09422 -1.37753 0
M  V30 3483 C 349.578 3.40854 -2.5636 0
M  V30 3484 S 350.411 3.33773 -4.18755 0
M  V30 3485 C 351.567 4.74312 -4.08386 0
M  V30 3486 H 351.8 1.67364 -2.45717 0
M  V30 3487 H 349.333 0.76845 -1.33919 0
M  V30 3488 H 351.291 3.8903 -1.31018 0
M  V30 3489 H 349.952 3.10989 -0.440949 0
M  V30 3490 H 349.145 4.41368 -2.43332 0
M  V30 3491 H 348.747 2.68798 -2.60046 0
M  V30 3492 H 351.039 5.64522 -3.74595 0
M  V30 3493 H 351.982 4.92397 -5.08872 0
M  V30 3494 H 352.39 4.50803 -3.3976 0
M  V30 3495 N 351.788 1.33704 0.83433 0
M  V30 3496 C 352.751 1.24244 1.92603 0
M  V30 3497 C 353.751 0.160383 1.59998 0
M  V30 3498 O 354.941 0.412228 1.69252 0
M  V30 3499 C 352.073 0.91555 3.28376 0
M  V30 3500 H 353.266 2.21287 2.02416 0
M  V30 3501 H 350.819 1.17827 1.02696 0
M  V30 3502 H 351.554 -0.0521886 3.24258 0
M  V30 3503 H 351.339 1.69811 3.53422 0
M  V30 3504 H 352.829 0.874231 4.08347 0
M  V30 3505 N 353.266 -1.05314 1.17247 0
M  V30 3506 C 354.213 -2.13031 0.888058 0
M  V30 3507 C 355.183 -1.65253 -0.167537 0
M  V30 3508 O 356.368 -1.90775 -0.0305974 0
M  V30 3509 C 353.508 -3.42702 0.406147 0
M  V30 3510 C 352.621 -4.04161 1.52572 0
M  V30 3511 C 351.756 -5.21744 0.997808 0
M  V30 3512 C 350.795 -5.75207 2.09291 0
M  V30 3513 N 349.932 -6.84094 1.57986 0
M  V30 3514 H 354.772 -2.36698 1.81048 0
M  V30 3515 H 352.309 -1.16121 0.903013 0
M  V30 3516 H 354.267 -4.17059 0.108305 0
M  V30 3517 H 352.897 -3.19222 -0.479313 0
M  V30 3518 H 351.949 -3.27253 1.93931 0
M  V30 3519 H 353.261 -4.39881 2.35172 0
M  V30 3520 H 352.415 -6.03168 0.653739 0
M  V30 3521 H 351.154 -4.87495 0.141232 0
M  V30 3522 H 350.159 -4.92414 2.44557 0
M  V30 3523 H 351.384 -6.11505 2.95362 0
M  V30 3524 H 349.33 -6.51745 0.74598 0
M  V30 3525 H 349.247 -7.18811 2.34195 0
M  V30 3526 H 350.515 -7.69172 1.26468 0
M  V30 3527 N 354.744 -0.972509 -1.24016 0
M  V30 3528 C 355.991 -0.637034 -1.92219 0
M  V30 3529 C 356.319 0.828418 -1.75976 0
M  V30 3530 O 355.574 1.61206 -1.10955 0
M  V30 3531 C 355.873 -0.963694 -3.44162 0
M  V30 3532 C 355.539 -2.41807 -3.80579 0
M  V30 3533 C 354.201 -2.81556 -3.9023 0
M  V30 3534 C 356.553 -3.36172 -3.98293 0
M  V30 3535 C 353.881 -4.14702 -4.15017 0
M  V30 3536 C 356.233 -4.68952 -4.24578 0
M  V30 3537 C 354.897 -5.08472 -4.32449 0
M  V30 3538 H 354.167 -0.233107 -0.703379 0
M  V30 3539 H 356.814 -1.2249 -1.47202 0
M  V30 3540 H 355.119 -0.29365 -3.90698 0
M  V30 3541 H 356.816 -0.682449 -3.9515 0
M  V30 3542 H 353.406 -2.09988 -3.73635 0
M  V30 3543 H 357.59 -3.06644 -3.90234 0
M  V30 3544 H 352.846 -4.4494 -4.19331 0
M  V30 3545 H 357.02 -5.42037 -4.37229 0
M  V30 3546 H 354.647 -6.11665 -4.51409 0
M  V30 3547 N 356.222 1.38976 -0.743202 0
M  V30 3548 C 357.499 1.94351 -0.220705 0
M  V30 3549 C 357.879 1.67935 1.2791 0
M  V30 3550 O 357.227 1.01211 2.04862 0
M  V30 3551 C 357.437 3.44426 -0.563171 0
M  V30 3552 C 358.785 4.2144 -0.517046 0
M  V30 3553 O 359.809 3.52661 -0.500846 0
M  V30 3554 O 358.668 5.44032 -0.518806 0
M  V30 3555 H 355.762 0.825879 -0.043047 0
M  V30 3556 H 358.308 1.48429 -0.822618 0
M  V30 3557 H 357.08 3.5712 -1.59941 0
M  V30 3558 H 356.703 3.97543 0.0672883 0
M  V30 3559 N 357.7 0.491464 1.49741 0
M  V30 3560 C 358.663 -0.280906 2.27472 0
M  V30 3561 C 359.663 -0.902454 1.33088 0
M  V30 3562 O 360.853 -0.768465 1.56334 0
M  V30 3563 C 357.985 -1.40209 3.10732 0
M  V30 3564 H 359.178 0.401056 2.97206 0
M  V30 3565 H 356.731 0.246131 1.5435 0
M  V30 3566 H 357.466 -2.11849 2.45541 0
M  V30 3567 H 357.251 -0.961969 3.80117 0
M  V30 3568 H 358.741 -1.9464 3.69466 0
M  V30 3569 N 359.178 -1.55987 0.224894 0
M  V30 3570 C 360.427 -1.97566 -0.406273 0
M  V30 3571 C 360.74 -1.11569 -1.6066 0
M  V30 3572 O 361.946 -1.43062 -2.3075 0
M  V30 3573 C 360.402 -3.51474 -0.774207 0
M  V30 3574 C 360.01 -4.46179 0.403496 0
M  V30 3575 C 361.754 -4.01758 -1.37079 0
M  V30 3576 C 359.661 -5.91399 0.0129412 0
M  V30 3577 H 358.591 -0.737777 -0.155565 0
M  V30 3578 H 361.242 -1.80659 0.321635 0
M  V30 3579 H 359.624 -3.63994 -1.55963 0
M  V30 3580 H 360.798 -4.45409 1.18101 0
M  V30 3581 H 359.113 -4.06255 0.913536 0
M  V30 3582 H 361.71 -5.07756 -1.67596 0
M  V30 3583 H 362.053 -3.47805 -2.28773 0
M  V30 3584 H 362.586 -3.92475 -0.648733 0
M  V30 3585 H 359.325 -6.49341 0.896451 0
M  V30 3586 H 358.845 -5.95356 -0.728821 0
M  V30 3587 H 360.524 -6.45683 -0.412582 0
M  V30 3588 N 360.656 0.0484629 -1.57525 0
M  V30 3589 C 361.886 0.754326 -1.92337 0
M  V30 3590 C 362.294 1.70443 -0.82132 0
M  V30 3591 O 361.637 1.82466 0.21254 0
M  V30 3592 C 361.699 1.58231 -3.22805 0
M  V30 3593 C 361.363 0.799074 -4.4996 0
M  V30 3594 C 362.36 0.1079 -5.19788 0
M  V30 3595 C 360.045 0.759345 -4.96527 0
M  V30 3596 C 362.039 -0.612516 -6.3445 0
M  V30 3597 C 359.726 0.0351713 -6.1109 0
M  V30 3598 C 360.724 -0.649537 -6.79904 0
M  V30 3599 O 360.412 -1.36199 -7.92278 0
M  V30 3600 H 360.144 0.218257 -0.639797 0
M  V30 3601 H 362.698 0.0159295 -2.05394 0
M  V30 3602 H 360.928 2.36406 -3.06021 0
M  V30 3603 H 362.617 2.16898 -3.43089 0
M  V30 3604 H 363.383 0.129748 -4.84826 0
M  V30 3605 H 359.262 1.28177 -4.42822 0
M  V30 3606 H 362.806 -1.14751 -6.88097 0
M  V30 3607 H 358.703 0.0113314 -6.45499 0
M  V30 3608 H 359.471 -1.27366 -8.0853 0
M  V30 3609 N 362.134 1.5431 0.320358 0
M  V30 3610 C 363.55 1.45091 0.664889 0
M  V30 3611 C 363.75 0.626382 1.91517 0
M  V30 3612 O 362.806 0.126443 2.52183 0
M  V30 3613 C 364.119 2.88848 0.83591 0
M  V30 3614 C 365.667 2.9877 0.933046 0
M  V30 3615 C 366.142 4.43683 1.13621 0
M  V30 3616 N 367.633 4.47309 1.20287 0
M  V30 3617 C 368.368 5.56595 1.37801 0
M  V30 3618 N 367.864 6.75844 1.52338 0
M  V30 3619 N 369.657 5.44248 1.40535 0
M  V30 3620 H 361.808 2.06398 -0.501374 0
M  V30 3621 H 364.071 0.933963 -0.162534 0
M  V30 3622 H 363.777 3.51698 -0.0116092 0
M  V30 3623 H 363.651 3.35148 1.73078 0
M  V30 3624 H 366.038 2.36045 1.77107 0
M  V30 3625 H 366.119 2.55796 0.0145782 0
M  V30 3626 H 365.763 5.06995 0.303032 0
M  V30 3627 H 365.693 4.84269 2.0686 0
M  V30 3628 H 368.184 3.61388 1.10485 0
M  V30 3629 H 368.497 7.54892 1.65403 0
M  V30 3630 H 366.842 6.78746 1.4943 0
M  V30 3631 H 370.033 4.50038 1.28777 0
M  V30 3632 H 370.206 6.29473 1.53842 0
M  V30 3633 N 363.613 -0.582584 1.46437 0
M  V30 3634 C 364.861 -1.33814 1.51453 0
M  V30 3635 C 365.182 -1.94277 0.167792 0
M  V30 3636 O 364.452 -1.78566 -0.805677 0
M  V30 3637 H 363.032 -0.496838 0.557818 0
M  V30 3638 H 365.694 -0.682281 1.82568 0
M  V30 3639 H 364.79 -2.14479 2.26728 0
M  V30 3640 N 365.091 -1.34144 -0.827227 0
M  V30 3641 C 366.001 -1.27428 -1.96975 0
M  V30 3642 C 367.017 -0.182728 -1.73038 0
M  V30 3643 O 368.193 -0.408426 -1.97215 0
M  V30 3644 C 365.258 -1.02526 -3.31194 0
M  V30 3645 C 364.319 -2.20796 -3.68168 0
M  V30 3646 C 363.552 -1.97073 -4.95982 0
M  V30 3647 O 363.775 -0.926822 -5.6282 0
M  V30 3648 O 362.709 -2.83912 -5.30733 0
M  V30 3649 H 366.535 -2.23537 -2.05584 0
M  V30 3650 H 364.12 -1.14307 -0.961989 0
M  V30 3651 H 366.002 -0.904026 -4.11589 0
M  V30 3652 H 364.677 -0.0945389 -3.23562 0
M  V30 3653 H 363.584 -2.38477 -2.88235 0
M  V30 3654 H 364.917 -3.12243 -3.8048 0
M  V30 3655 N 366.569 1.04691 -1.17803 0
M  V30 3656 C 367.479 2.16057 -0.914151 0
M  V30 3657 C 368.495 1.73589 0.119503 0
M  V30 3658 O 369.671 2.01308 -0.0609468 0
M  V30 3659 C 366.736 3.4394 -0.436603 0
M  V30 3660 C 365.797 4.00825 -1.53746 0
M  V30 3661 C 365.03 5.22604 -1.0826 0
M  V30 3662 O 365.253 5.70367 0.0612244 0
M  V30 3663 O 364.187 5.7186 -1.87775 0
M  V30 3664 H 368.013 2.41169 -1.84584 0
M  V30 3665 H 365.598 1.1453 -0.959334 0
M  V30 3666 H 367.48 4.21024 -0.178057 0
M  V30 3667 H 366.155 3.20316 0.466869 0
M  V30 3668 H 365.062 3.25158 -1.84995 0
M  V30 3669 H 366.395 4.28778 -2.41683 0
M  V30 3670 N 368.047 0.979072 1.23499 0
M  V30 3671 C 369.324 0.563674 1.87302 0
M  V30 3672 C 369.704 -0.959199 1.88049 0
M  V30 3673 O 369.052 -1.83535 1.36114 0
M  V30 3674 C 369.262 1.16822 3.28867 0
M  V30 3675 C 370.61 1.26014 4.0547 0
M  V30 3676 O 371.634 1.12158 3.38082 0
M  V30 3677 O 370.493 1.48044 5.26066 0
M  V30 3678 H 367.587 0.189602 0.804972 0
M  V30 3679 H 370.133 1.07407 1.31384 0
M  V30 3680 H 368.905 2.21049 3.22883 0
M  V30 3681 H 368.528 0.642564 3.92373 0
M  V30 3682 N 369.525 -1.3858 0.750561 0
M  V30 3683 C 370.936 -1.82927 0.373438 0
M  V30 3684 C 371.287 -1.62634 -1.09748 0
M  V30 3685 O 370.412 -1.12588 -1.84805 0
M  V30 3686 C 371.007 -3.32088 0.671029 0
M  V30 3687 C 369.566 -3.74795 0.34722 0
M  V30 3688 C 368.713 -2.61391 0.92575 0
M  V30 3689 H 371.664 -1.27351 0.946958 0
M  V30 3690 H 371.685 -3.80465 -0.0518269 0
M  V30 3691 H 371.197 -3.46826 1.74164 0
M  V30 3692 H 369.298 -3.65638 -0.716933 0
M  V30 3693 H 369.411 -4.71667 0.840656 0
M  V30 3694 H 367.775 -2.52265 0.351327 0
M  V30 3695 H 368.558 -2.78929 2.00133 0
M  V30 3696 N 371.003 -0.499398 -1.49478 0
M  V30 3697 C 372.419 -0.155261 -1.58843 0
M  V30 3698 C 372.619 1.34008 -1.50479 0
M  V30 3699 O 371.675 2.11589 -1.37791 0
M  V30 3700 C 372.988 -0.730636 -2.91689 0
M  V30 3701 C 374.536 -0.696599 -3.0515 0
M  V30 3702 C 375.011 -1.25001 -4.40612 0
M  V30 3703 N 376.502 -1.21064 -4.47099 0
M  V30 3704 C 377.237 -1.60905 -5.50361 0
M  V30 3705 N 376.733 -2.08331 -6.60735 0
M  V30 3706 N 378.526 -1.52331 -5.41065 0
M  V30 3707 H 370.677 -1.47162 -1.53158 0
M  V30 3708 H 372.94 -0.610309 -0.725415 0
M  V30 3709 H 372.646 -1.77928 -3.03372 0
M  V30 3710 H 372.52 -0.190161 -3.7672 0
M  V30 3711 H 374.907 0.343204 -2.93097 0
M  V30 3712 H 374.988 -1.2742 -2.21806 0
M  V30 3713 H 374.632 -2.28859 -4.53416 0
M  V30 3714 H 374.562 -0.64836 -5.22593 0
M  V30 3715 H 377.053 -0.863128 -3.67911 0
M  V30 3716 H 377.366 -2.36805 -7.35624 0
M  V30 3717 H 375.711 -2.12304 -6.6178 0
M  V30 3718 H 378.902 -1.151 -4.53729 0
M  V30 3719 H 379.075 -1.83704 -6.21415 0
M  V30 3720 N 372.481 1.55866 -0.233164 0
M  V30 3721 C 373.428 2.20796 0.67215 0
M  V30 3722 C 374.398 1.16731 1.18166 0
M  V30 3723 O 375.583 1.45129 1.23864 0
M  V30 3724 C 372.723 2.90072 1.86955 0
M  V30 3725 C 371.836 4.08759 1.39786 0
M  V30 3726 C 370.971 4.65787 2.55374 0
M  V30 3727 C 370.01 5.76752 2.04998 0
M  V30 3728 N 369.147 6.28021 3.13901 0
M  V30 3729 H 373.987 2.9779 0.111749 0
M  V30 3730 H 371.524 1.47036 0.0434007 0
M  V30 3731 H 373.482 3.28428 2.57276 0
M  V30 3732 H 372.112 2.15575 2.40265 0
M  V30 3733 H 371.164 3.7581 0.589173 0
M  V30 3734 H 372.476 4.88906 0.98856 0
M  V30 3735 H 371.63 5.06646 3.33758 0
M  V30 3736 H 370.369 3.84828 2.99598 0
M  V30 3737 H 369.374 5.35383 1.25079 0
M  V30 3738 H 370.599 6.59553 1.61759 0
M  V30 3739 H 368.545 5.49971 3.57586 0
M  V30 3740 H 368.462 7.03323 2.7726 0
M  V30 3741 H 369.73 6.73538 3.92386 0
M  V30 3742 N 373.959 -0.0401083 1.57549 0
M  V30 3743 C 374.891 -1.07149 2.02612 0
M  V30 3744 C 375.904 -1.33126 0.937085 0
M  V30 3745 O 377.093 -1.30808 1.21456 0
M  V30 3746 C 374.193 -2.41561 2.37701 0
M  V30 3747 C 373.366 -2.35096 3.68848 0
M  V30 3748 C 372.425 -3.51867 3.91249 0
M  V30 3749 O 371.451 -3.3186 4.62447 0
M  V30 3750 N 372.653 -4.73351 3.36035 0
M  V30 3751 H 375.418 -0.687485 2.91708 0
M  V30 3752 H 372.979 -0.228248 1.60283 0
M  V30 3753 H 374.971 -3.18379 2.49833 0
M  V30 3754 H 373.541 -2.71846 1.54332 0
M  V30 3755 H 372.761 -1.4345 3.67173 0
M  V30 3756 H 374.049 -2.27908 4.54901 0
M  V30 3757 H 373.447 -4.92507 2.78304 0
M  V30 3758 H 372.004 -5.47572 3.53565 0
M  V30 3759 N 375.437 -1.54477 -0.31217 0
M  V30 3760 C 376.369 -1.81011 -1.40598 0
M  V30 3761 C 377.382 -0.692546 -1.47335 0
M  V30 3762 O 378.571 -0.969847 -1.49854 0
M  V30 3763 C 375.671 -1.92307 -2.79054 0
M  V30 3764 C 374.844 -3.22594 -2.95384 0
M  V30 3765 C 373.903 -3.24448 -4.1427 0
M  V30 3766 O 372.929 -3.98035 -4.06887 0
M  V30 3767 N 374.131 -2.49042 -5.24365 0
M  V30 3768 H 376.896 -2.75408 -1.18196 0
M  V30 3769 H 374.457 -1.53914 -0.502202 0
M  V30 3770 H 376.449 -1.90962 -3.56813 0
M  V30 3771 H 375.019 -1.04955 -2.94454 0
M  V30 3772 H 374.239 -3.36806 -2.04831 0
M  V30 3773 H 375.527 -4.08593 -3.03198 0
M  V30 3774 H 374.925 -1.88867 -5.33241 0
M  V30 3775 H 373.482 -2.53463 -6.005 0
M  V30 3776 N 376.915 0.57481 -1.46744 0
M  V30 3777 C 377.878 1.66533 -1.57478 0
M  V30 3778 C 378.878 1.54338 -0.451263 0
M  V30 3779 O 380.068 1.58814 -0.715813 0
M  V30 3780 C 377.2 3.05999 -1.50259 0
M  V30 3781 H 378.393 1.58372 -2.54673 0
M  V30 3782 H 375.946 0.793301 -1.34672 0
M  V30 3783 H 376.681 3.19709 -0.543725 0
M  V30 3784 H 376.466 3.16259 -2.31781 0
M  V30 3785 H 377.956 3.8537 -1.60872 0
M  V30 3786 N 378.394 1.34581 0.820102 0
M  V30 3787 C 379.81 1.14325 1.11364 0
M  V30 3788 C 380.01 -0.0533648 2.01429 0
M  V30 3789 O 379.066 -0.728044 2.41776 0
M  V30 3790 C 380.379 2.43983 1.75764 0
M  V30 3791 C 381.927 2.50065 1.88246 0
M  V30 3792 C 382.402 3.79732 2.56061 0
M  V30 3793 N 383.893 3.80908 2.63558 0
M  V30 3794 C 384.628 4.77961 3.16766 0
M  V30 3795 N 384.124 5.85397 3.70517 0
M  V30 3796 N 385.917 4.65413 3.15194 0
M  V30 3797 H 378.068 2.11246 0.221096 0
M  V30 3798 H 380.331 0.934289 0.160649 0
M  V30 3799 H 380.037 3.31651 1.1705 0
M  V30 3800 H 379.911 2.57531 2.75604 0
M  V30 3801 H 382.298 1.62834 2.46108 0
M  V30 3802 H 382.379 2.40442 0.873006 0
M  V30 3803 H 382.023 4.67354 1.98853 0
M  V30 3804 H 381.953 3.86639 3.57516 0
M  V30 3805 H 384.444 3.03274 2.25463 0
M  V30 3806 H 384.757 6.55463 4.09376 0
M  V30 3807 H 383.102 5.89107 3.68752 0
M  V30 3808 H 386.293 3.80627 2.72471 0
M  V30 3809 H 386.466 5.41216 3.56356 0
M  V30 3810 N 379.872 -1.04064 1.18357 0
M  V30 3811 C 380.805 -2.11618 0.854 0
M  V30 3812 C 381.783 -1.61555 -0.184043 0
M  V30 3813 O 382.967 -1.88395 -0.0630048 0
M  V30 3814 C 380.094 -3.37574 0.27597 0
M  V30 3815 C 379.14 -4.06485 1.2912 0
M  V30 3816 S 379.973 -4.53543 2.84709 0
M  V30 3817 C 381.129 -5.82732 2.28417 0
M  V30 3818 H 381.362 -2.39247 1.76488 0
M  V30 3819 H 378.895 -1.16832 1.00944 0
M  V30 3820 H 380.853 -4.10468 -0.051026 0
M  V30 3821 H 379.514 -3.0806 -0.613028 0
M  V30 3822 H 378.707 -4.97024 0.835633 0
M  V30 3823 H 378.309 -3.39708 1.56443 0
M  V30 3824 H 380.601 -6.56677 1.66677 0
M  V30 3825 H 381.544 -6.33052 3.17256 0
M  V30 3826 H 381.952 -5.37838 1.71436 0
M  V30 3827 N 381.35 -0.985608 -1.22978 0
M  V30 3828 C 382.578 -0.675582 -1.95559 0
M  V30 3829 C 382.993 0.758413 -1.72897 0
M  V30 3830 O 382.35 1.51094 -1.02357 0
M  V30 3831 C 382.401 -0.96293 -3.48439 0
M  V30 3832 O 382.122 -2.34057 -3.70336 0
M  V30 3833 C 383.623 -0.669585 -4.38214 0
M  V30 3834 H 380.843 -0.250523 -0.622478 0
M  V30 3835 H 383.387 -1.3184 -1.56328 0
M  V30 3836 H 381.542 -0.366033 -3.85667 0
M  V30 3837 H 381.956 -2.43424 -4.64591 0
M  V30 3838 H 383.43 -0.920967 -5.44263 0
M  V30 3839 H 383.907 0.396383 -4.37408 0
M  V30 3840 H 384.513 -1.2472 -4.06602 0
M  V30 3841 N 382.828 1.3818 -0.7579 0
M  V30 3842 C 383.791 2.28764 -0.141286 0
M  V30 3843 C 384.791 1.47388 0.642907 0
M  V30 3844 O 385.981 1.67781 0.468536 0
M  V30 3845 C 383.113 3.31184 0.808069 0
M  V30 3846 H 384.306 2.848 -0.939633 0
M  V30 3847 H 381.859 1.47212 -0.525191 0
M  V30 3848 H 382.594 2.80247 1.63193 0
M  V30 3849 H 382.379 3.91314 0.248104 0
M  V30 3850 H 383.869 3.98909 1.23536 0
M  V30 3851 N 384.306 0.507319 1.49211 0
M  V30 3852 C 385.531 -0.033725 2.07373 0
M  V30 3853 C 385.956 -1.29485 1.36437 0
M  V30 3854 O 385.314 -1.76294 0.423087 0
M  V30 3855 C 385.362 -0.263945 3.59633 0
M  V30 3856 O 384.466 -1.33737 3.90113 0
M  V30 3857 H 383.807 0.0290331 0.663365 0
M  V30 3858 H 386.337 0.708749 1.91932 0
M  V30 3859 H 386.347 -0.493536 4.05004 0
M  V30 3860 H 385.022 0.657424 4.10671 0
M  V30 3861 H 383.599 -1.09224 3.56545 0
M  V30 3862 N 385.784 -1.5574 0.241426 0
M  V30 3863 C 386.747 -2.19877 -0.647063 0
M  V30 3864 C 387.747 -1.16642 -1.10686 0
M  V30 3865 O 388.937 -1.41757 -1.01245 0
M  V30 3866 C 386.069 -2.83797 -1.88871 0
M  V30 3867 H 387.262 -2.99772 -0.087574 0
M  V30 3868 H 384.815 -1.56298 -0.00813574 0
M  V30 3869 H 385.55 -2.07824 -2.48957 0
M  V30 3870 H 385.335 -3.59414 -1.56728 0
M  V30 3871 H 386.825 -3.32898 -2.52129 0
M  V30 3872 N 387.262 0.0317525 -1.57568 0
M  V30 3873 C 388.225 1.01783 -2.0536 0
M  V30 3874 C 389.225 1.29203 -0.957253 0
M  V30 3875 O 390.415 1.24251 -1.22095 0
M  V30 3876 C 387.547 2.35137 -2.46827 0
M  V30 3877 H 388.74 0.605062 -2.93733 0
M  V30 3878 H 386.293 0.278514 -1.53799 0
M  V30 3879 H 387.028 2.81168 -1.61602 0
M  V30 3880 H 386.813 2.16566 -3.26866 0
M  V30 3881 H 388.303 3.05938 -2.84239 0
M  V30 3882 N 388.74 1.54641 0.303973 0
M  V30 3883 C 389.965 1.78092 1.06292 0
M  V30 3884 C 390.39 0.537342 1.80262 0
M  V30 3885 O 389.748 -0.511993 1.7392 0
M  V30 3886 C 389.796 2.98612 2.02147 0
M  V30 3887 O 388.9 2.71528 3.10397 0
M  V30 3888 H 388.241 0.589548 0.305497 0
M  V30 3889 H 390.771 2.01716 0.3423 0
M  V30 3890 H 390.781 3.265 2.44667 0
M  V30 3891 H 389.456 3.88785 1.47714 0
M  V30 3892 H 388.033 2.54648 2.72413 0
M  V30 3893 N 390.218 -0.567019 1.47046 0
M  V30 3894 C 391.128 -1.70247 1.6141 0
M  V30 3895 C 392.144 -1.66746 0.497157 0
M  V30 3896 O 393.32 -1.86371 0.763389 0
M  V30 3897 C 390.385 -3.06756 1.61561 0
M  V30 3898 C 389.446 -3.21399 2.84607 0
M  V30 3899 C 388.679 -4.51396 2.84741 0
M  V30 3900 O 388.902 -5.36255 1.94388 0
M  V30 3901 O 387.836 -4.69621 3.76483 0
M  V30 3902 H 391.662 -1.61073 2.57467 0
M  V30 3903 H 389.247 -0.735894 1.30019 0
M  V30 3904 H 391.129 -3.8801 1.64396 0
M  V30 3905 H 389.804 -3.16333 0.686684 0
M  V30 3906 H 388.711 -2.39579 2.8732 0
M  V30 3907 H 390.044 -3.16721 3.76761 0
M  V30 3908 N 391.696 -1.35014 -0.812953 0
M  V30 3909 C 392.626 -1.30069 -1.93919 0
M  V30 3910 C 393.607 -0.176275 -1.69184 0
M  V30 3911 O 394.792 -0.370227 -1.90638 0
M  V30 3912 C 391.922 -1.06547 -3.30552 0
M  V30 3913 C 390.876 -2.15561 -3.69753 0
M  V30 3914 C 390.202 -1.77214 -5.04479 0
M  V30 3915 C 391.502 -3.57476 -3.808 0
M  V30 3916 H 393.196 -2.24303 -1.98314 0
M  V30 3917 H 390.742 -1.07977 -0.952736 0
M  V30 3918 H 392.695 -1.01729 -4.08937 0
M  V30 3919 H 391.419 -0.0875719 -3.26483 0
M  V30 3920 H 390.078 -2.19466 -2.9365 0
M  V30 3921 H 389.726 -0.780589 -4.96906 0
M  V30 3922 H 389.426 -2.50184 -5.31678 0
M  V30 3923 H 390.95 -1.7391 -5.8531 0
M  V30 3924 H 392.364 -3.55929 -4.4943 0
M  V30 3925 H 390.761 -4.29152 -4.19462 0
M  V30 3926 H 391.831 -3.94091 -2.82525 0
M  V30 3927 N 393.175 1.03435 -1.18907 0
M  V30 3928 C 394.424 1.76143 -0.982669 0
M  V30 3929 C 394.737 1.89416 0.487953 0
M  V30 3930 O 395.943 2.59041 0.813036 0
M  V30 3931 C 394.399 3.16722 -1.70924 0
M  V30 3932 C 394.007 3.11522 -3.21959 0
M  V30 3933 C 395.751 3.93764 -1.58588 0
M  V30 3934 C 393.658 4.46999 -3.87228 0
M  V30 3935 H 392.588 0.660292 -0.364047 0
M  V30 3936 H 395.239 1.158 -1.42347 0
M  V30 3937 H 393.621 3.775 -1.19623 0
M  V30 3938 H 394.795 2.60158 -3.80335 0
M  V30 3939 H 393.11 2.47978 -3.34508 0
M  V30 3940 H 395.707 4.93963 -2.04707 0
M  V30 3941 H 396.05 4.12794 -0.539142 0
M  V30 3942 H 396.583 3.39576 -2.07203 0
M  V30 3943 H 393.322 4.33174 -4.91976 0
M  V30 3944 H 392.842 4.98441 -3.33642 0
M  V30 3945 H 394.521 5.15898 -3.90459 0
M  V30 3946 N 394.653 0.992116 1.22453 0
M  V30 3947 C 395.583 0.561677 2.26644 0
M  V30 3948 C 396.564 -0.411055 1.65059 0
M  V30 3949 O 397.749 -0.301861 1.9184 0
M  V30 3950 C 394.879 -0.125247 3.47074 0
M  V30 3951 C 393.833 0.765948 4.21091 0
M  V30 3952 C 393.159 -0.0538484 5.34673 0
M  V30 3953 C 394.459 2.06242 4.79856 0
M  V30 3954 H 396.153 1.43259 2.62902 0
M  V30 3955 H 393.699 0.690283 1.26377 0
M  V30 3956 H 395.652 -0.437764 4.1912 0
M  V30 3957 H 394.376 -1.03069 3.0991 0
M  V30 3958 H 393.035 1.0621 3.50878 0
M  V30 3959 H 392.683 -0.960188 4.9375 0
M  V30 3960 H 392.383 0.539415 5.85119 0
M  V30 3961 H 393.907 -0.360477 6.09535 0
M  V30 3962 H 395.321 1.8139 5.43848 0
M  V30 3963 H 393.718 2.60444 5.40638 0
M  V30 3964 H 394.788 2.74167 3.99951 0
M  V30 3965 N 396.131 -1.37776 0.765217 0
M  V30 3966 C 397.356 -2.04651 0.336537 0
M  V30 3967 C 397.781 -1.57337 -1.03086 0
M  V30 3968 O 397.139 -0.730621 -1.65927 0
M  V30 3969 C 397.187 -3.58577 0.381468 0
M  V30 3970 O 396.291 -4.07706 -0.62042 0
M  V30 3971 H 395.632 -0.64756 0.146838 0
M  V30 3972 H 398.162 -1.76221 1.03959 0
M  V30 3973 H 398.172 -4.07314 0.236448 0
M  V30 3974 H 396.847 -3.9237 1.37907 0
M  V30 3975 H 395.424 -3.70306 -0.439056 0
M  V30 3976 N 397.609 -0.515225 -1.4894 0
M  V30 3977 C 398.556 0.255567 -2.29381 0
M  V30 3978 C 399.526 0.947387 -1.36432 0
M  V30 3979 O 400.711 0.951288 -1.65394 0
M  V30 3980 C 397.851 1.30551 -3.19453 0
M  V30 3981 C 396.964 0.624029 -4.27469 0
M  V30 3982 C 396.099 1.65563 -5.0474 0
M  V30 3983 C 395.138 0.956802 -6.04576 0
M  V30 3984 N 394.275 1.93326 -6.74959 0
M  V30 3985 H 399.115 -0.436607 -2.94784 0
M  V30 3986 H 396.652 -0.227154 -1.45336 0
M  V30 3987 H 398.61 1.92639 -3.70062 0
M  V30 3988 H 397.24 1.96626 -2.56004 0
M  V30 3989 H 396.292 -0.110459 -3.8024 0
M  V30 3990 H 397.604 0.0746092 -4.98744 0
M  V30 3991 H 396.758 2.35119 -5.59289 0
M  V30 3992 H 395.497 2.23893 -4.3327 0
M  V30 3993 H 394.502 0.247097 -5.49244 0
M  V30 3994 H 395.727 0.379814 -6.78037 0
M  V30 3995 H 393.673 2.50591 -6.06251 0
M  V30 3996 H 393.59 1.43489 -7.42258 0
M  V30 3997 H 394.858 2.62126 -7.34105 0
M  V30 3998 N 399.087 1.5561 -0.249682 0
M  V30 3999 C 399.997 2.25143 0.659375 0
M  V30 4000 C 401.013 1.2685 1.19101 0
M  V30 4001 O 402.189 1.59732 1.22669 0
M  V30 4002 C 399.254 2.93945 1.8384 0
M  V30 4003 C 398.315 4.07655 1.34596 0
M  V30 4004 C 397.548 4.73167 2.46878 0
M  V30 4005 O 397.771 4.37768 3.65671 0
M  V30 4006 O 396.705 5.61623 2.16478 0
M  V30 4007 H 400.531 3.03545 0.0968698 0
M  V30 4008 H 398.116 1.49389 -0.018074 0
M  V30 4009 H 399.998 3.37271 2.52638 0
M  V30 4010 H 398.673 2.18481 2.38847 0
M  V30 4011 H 397.58 3.68839 0.625174 0
M  V30 4012 H 398.913 4.84946 0.841941 0
M  V30 4013 N 400.565 -0.0233959 1.57583 0
M  V30 4014 C 401.497 -1.04994 2.03737 0
M  V30 4015 C 402.51 -1.32125 0.951152 0
M  V30 4016 O 403.699 -1.29512 1.22837 0
M  V30 4017 C 400.799 -2.39026 2.40249 0
M  V30 4018 C 399.972 -2.31171 3.7132 0
M  V30 4019 C 399.031 -3.47698 3.94959 0
M  V30 4020 O 398.057 -3.26937 4.65941 0
M  V30 4021 N 399.259 -4.6976 3.41037 0
M  V30 4022 H 402.024 -0.656507 2.92421 0
M  V30 4023 H 399.585 -0.211235 1.60516 0
M  V30 4024 H 401.577 -3.15712 2.53196 0
M  V30 4025 H 400.147 -2.70194 1.57207 0
M  V30 4026 H 399.367 -1.39547 3.68674 0
M  V30 4027 H 400.655 -2.23071 4.57293 0
M  V30 4028 H 400.053 -4.89528 2.83512 0
M  V30 4029 H 398.61 -5.43791 3.59353 0
M  V30 4030 N 402.043 -1.548 -0.295768 0
M  V30 4031 C 402.973 -1.89115 -1.36959 0
M  V30 4032 C 403.954 -0.75059 -1.52644 0
M  V30 4033 O 405.139 -1.00678 -1.66065 0
M  V30 4034 C 402.269 -2.14307 -2.73295 0
M  V30 4035 C 401.223 -3.30151 -2.72368 0
M  V30 4036 C 400.549 -3.40772 -4.12042 0
M  V30 4037 C 401.849 -4.67126 -2.33646 0
M  V30 4038 H 403.543 -2.79053 -1.08488 0
M  V30 4039 H 401.089 -1.34266 -0.520443 0
M  V30 4040 H 403.042 -2.36898 -3.48507 0
M  V30 4041 H 401.766 -1.21145 -3.03301 0
M  V30 4042 H 400.425 -3.0749 -1.99613 0
M  V30 4043 H 400.073 -2.45117 -4.39234 0
M  V30 4044 H 399.773 -4.18645 -4.12322 0
M  V30 4045 H 401.297 -3.6563 -4.89027 0
M  V30 4046 H 402.711 -4.89414 -2.98575 0
M  V30 4047 H 401.108 -5.47751 -2.45129 0
M  V30 4048 H 402.178 -4.67489 -1.28772 0
M  V30 4049 N 403.521 0.559213 -1.47345 0
M  V30 4050 C 404.751 1.33999 -1.57251 0
M  V30 4051 C 405.159 1.87905 -0.220978 0
M  V30 4052 O 404.502 1.65577 0.795617 0
M  V30 4053 C 404.564 2.54798 -2.53611 0
M  V30 4054 C 404.228 2.22192 -3.99349 0
M  V30 4055 C 405.225 1.79607 -4.87891 0
M  V30 4056 C 402.91 2.33613 -4.44669 0
M  V30 4057 C 404.904 1.48868 -6.19772 0
M  V30 4058 C 402.591 2.02487 -5.76578 0
M  V30 4059 C 403.589 1.60183 -6.63951 0
M  V30 4060 O 403.277 1.29451 -7.93409 0
M  V30 4061 H 403.009 0.414858 -0.533731 0
M  V30 4062 H 405.563 0.684465 -1.9366 0
M  V30 4063 H 403.793 3.23235 -2.12265 0
M  V30 4064 H 405.482 3.16873 -2.53666 0
M  V30 4065 H 406.248 1.70278 -4.54126 0
M  V30 4066 H 402.127 2.65501 -3.76869 0
M  V30 4067 H 405.671 1.15775 -6.87926 0
M  V30 4068 H 401.568 2.11448 -6.09885 0
M  V30 4069 H 402.336 1.43098 -8.05894 0
M  V30 4070 N 404.999 1.35443 0.805782 0
M  V30 4071 C 405.909 1.30546 1.94923 0
M  V30 4072 C 406.925 0.210233 1.72725 0
M  V30 4073 O 408.101 0.43975 1.9654 0
M  V30 4074 C 405.166 1.07782 3.29521 0
M  V30 4075 C 404.227 2.26625 3.64609 0
M  V30 4076 C 403.46 2.04938 4.92784 0
M  V30 4077 O 403.683 1.01624 5.61274 0
M  V30 4078 O 402.617 2.9232 5.26149 0
M  V30 4079 H 406.443 2.26779 2.02002 0
M  V30 4080 H 404.028 1.15823 0.943682 0
M  V30 4081 H 405.91 0.969392 4.10098 0
M  V30 4082 H 404.585 0.146003 3.23371 0
M  V30 4083 H 403.492 2.43033 2.84404 0
M  V30 4084 H 404.825 3.18257 3.75464 0
M  V30 4085 N 406.477 -1.02803 1.19454 0
M  V30 4086 C 407.41 -2.107 0.876396 0
M  V30 4087 C 408.388 -1.61741 -0.166897 0
M  V30 4088 O 409.572 -1.88451 -0.0430195 0
M  V30 4089 C 406.699 -3.37262 0.311758 0
M  V30 4090 C 405.745 -4.05093 1.33424 0
M  V30 4091 S 406.578 -4.50498 2.89503 0
M  V30 4092 C 407.734 -5.80277 2.34584 0
M  V30 4093 H 407.967 -2.37362 1.79016 0
M  V30 4094 H 405.5 -1.15755 1.02177 0
M  V30 4095 H 407.458 -4.10499 -0.00748752 0
M  V30 4096 H 406.119 -3.08693 -0.58032 0
M  V30 4097 H 405.312 -4.9611 0.888302 0
M  V30 4098 H 404.914 -3.3803 1.60037 0
M  V30 4099 H 407.206 -6.54873 1.73633 0
M  V30 4100 H 408.149 -6.29651 3.23952 0
M  V30 4101 H 408.557 -5.3599 1.77131 0
M  V30 4102 N 407.956 -0.998596 -1.21925 0
M  V30 4103 C 409.203 -0.677663 -1.90824 0
M  V30 4104 C 409.531 0.790905 -1.77693 0
M  V30 4105 O 408.786 1.58817 -1.14349 0
M  V30 4106 C 409.085 -1.03648 -3.42041 0
M  V30 4107 C 408.751 -2.49825 -3.75364 0
M  V30 4108 C 407.413 -2.8977 -3.8417 0
M  V30 4109 C 409.765 -3.44545 -3.91073 0
M  V30 4110 C 407.093 -4.23412 -4.06127 0
M  V30 4111 C 409.445 -4.77853 -4.14535 0
M  V30 4112 C 408.109 -5.17531 -4.21566 0
M  V30 4113 H 407.379 -0.247975 -0.698276 0
M  V30 4114 H 410.026 -1.25584 -1.44571 0
M  V30 4115 H 408.331 -0.376457 -3.89987 0
M  V30 4116 H 410.028 -0.766113 -3.93614 0
M  V30 4117 H 406.618 -2.17866 -3.69097 0
M  V30 4118 H 410.802 -3.14853 -3.83642 0
M  V30 4119 H 406.058 -4.53734 -4.09799 0
M  V30 4120 H 410.232 -5.51189 -4.25633 0
M  V30 4121 H 407.859 -6.21102 -4.38333 0
M  V30 4122 N 409.434 1.37368 -0.772513 0
M  V30 4123 C 410.366 2.28899 -0.117502 0
M  V30 4124 C 411.379 1.4867 0.663405 0
M  V30 4125 O 412.568 1.71314 0.501372 0
M  V30 4126 C 409.668 3.2788 0.857192 0
M  V30 4127 C 408.841 4.37207 0.129938 0
M  V30 4128 C 407.9 5.16257 1.01811 0
M  V30 4129 O 406.926 5.67159 0.481601 0
M  V30 4130 N 408.128 5.31058 2.3443 0
M  V30 4131 H 410.893 2.85752 -0.903662 0
M  V30 4132 H 408.454 1.49353 -0.62493 0
M  V30 4133 H 410.446 3.77647 1.45482 0
M  V30 4134 H 409.016 2.7179 1.54432 0
M  V30 4135 H 408.236 3.88827 -0.648605 0
M  V30 4136 H 409.524 5.07434 -0.372559 0
M  V30 4137 H 408.922 4.91287 2.80452 0
M  V30 4138 H 407.479 5.84131 2.89197 0
M  V30 4139 N 410.912 0.523116 1.48665 0
M  V30 4140 C 411.86 -0.256859 2.31177 0
M  V30 4141 C 412.854 -0.94199 1.40794 0
M  V30 4142 O 414.06 -0.867157 1.57735 0
M  V30 4143 H 410.435 -0.1017 0.745091 0
M  V30 4144 H 412.406 0.458739 2.94853 0
M  V30 4145 C 411.155 -1.29503 3.22683 0
M  V30 4146 H 410.478 -0.777248 3.92172 0
M  V30 4147 H 411.918 -1.81233 3.83315 0
M  V30 4148 C 410.377 -2.32501 2.43813 0
M  V30 4149 O 410.907 -3.3881 2.15803 0
M  V30 4150 N 409.113 -2.05538 2.05432 0
M  V30 4151 H 408.66 -1.19104 2.28412 0
M  V30 4152 H 408.618 -2.74676 1.52973 0
M  V30 4153 N 412.39 -1.55475 0.257931 0
M  V30 4154 C 413.639 -1.98383 -0.364275 0
M  V30 4155 C 413.952 -1.14952 -1.58258 0
M  V30 4156 O 415.158 -1.47924 -2.27664 0
M  V30 4157 C 413.614 -3.53037 -0.699479 0
M  V30 4158 C 413.222 -4.45223 0.498046 0
M  V30 4159 C 414.966 -4.04575 -1.28526 0
M  V30 4160 C 412.873 -5.91238 0.138383 0
M  V30 4161 H 411.803 -0.740911 -0.13988 0
M  V30 4162 H 414.454 -1.79936 0.359883 0
M  V30 4163 H 412.836 -3.6722 -1.48207 0
M  V30 4164 H 414.01 -4.42803 1.27522 0
M  V30 4165 H 412.325 -4.04226 0.999503 0
M  V30 4166 H 414.922 -5.11196 -1.56788 0
M  V30 4167 H 415.265 -3.5258 -2.21344 0
M  V30 4168 H 415.798 -3.93762 -0.565337 0
M  V30 4169 H 412.537 -6.47294 1.03398 0
M  V30 4170 H 412.057 -5.96768 -0.602374 0
M  V30 4171 H 413.736 -6.46413 -0.27553 0
M  V30 4172 N 413.868 0.0150385 -1.57593 0
M  V30 4173 C 414.798 1.01047 -2.10503 0
M  V30 4174 C 415.779 1.36816 -1.01071 0
M  V30 4175 O 416.964 1.45455 -1.28672 0
M  V30 4176 C 414.094 2.30708 -2.59598 0
M  V30 4177 C 413.048 2.09142 -3.73421 0
M  V30 4178 C 412.374 3.44685 -4.08774 0
M  V30 4179 C 413.674 1.46619 -5.01298 0
M  V30 4180 H 415.368 0.569978 -2.93925 0
M  V30 4181 H 412.914 0.272724 -1.41394 0
M  V30 4182 H 414.867 3.00687 -2.95238 0
M  V30 4183 H 413.591 2.76843 -1.73279 0
M  V30 4184 H 412.25 1.41592 -3.38153 0
M  V30 4185 H 411.898 3.88495 -3.195 0
M  V30 4186 H 411.598 3.31077 -4.8545 0
M  V30 4187 H 413.122 4.16004 -4.4696 0
M  V30 4188 H 414.536 2.06535 -5.34805 0
M  V30 4189 H 412.933 1.43544 -5.82679 0
M  V30 4190 H 414.003 0.433611 -4.82957 0
M  V30 4191 N 415.346 1.54954 0.287554 0
M  V30 4192 C 416.594 1.74528 1.01904 0
M  V30 4193 C 416.915 0.541349 1.87335 0
M  V30 4194 O 416.185 -0.444108 1.908 0
M  V30 4195 H 414.765 0.643576 0.379235 0
M  V30 4196 H 417.427 1.92333 0.315294 0
M  V30 4197 H 416.523 2.64015 1.6644 0
M  V30 4198 N 416.824 -0.551391 1.4764 0
M  V30 4199 C 418.073 -1.30467 1.53822 0
M  V30 4200 C 418.386 -1.94495 0.207661 0
M  V30 4201 O 419.592 -2.71099 0.147533 0
M  V30 4202 C 418.048 -2.36616 2.71184 0
M  V30 4203 C 417.656 -1.78754 4.10793 0
M  V30 4204 C 419.4 -3.13088 2.86663 0
M  V30 4205 C 417.307 -2.82717 5.19447 0
M  V30 4206 H 416.237 -0.490584 0.572576 0
M  V30 4207 H 418.888 -0.58494 1.73927 0
M  V30 4208 H 417.27 -3.11529 2.4447 0
M  V30 4209 H 418.444 -1.10173 4.47435 0
M  V30 4210 H 416.759 -1.14846 4.00249 0
M  V30 4211 H 419.356 -3.90736 3.65007 0
M  V30 4212 H 419.699 -3.67635 1.95321 0
M  V30 4213 H 420.232 -2.45288 3.13175 0
M  V30 4214 H 416.971 -2.33018 6.12685 0
M  V30 4215 H 416.491 -3.4969 4.87316 0
M  V30 4216 H 418.17 -3.46102 5.46646 0
M  V30 4217 N 418.302 -1.35869 -0.798587 0
M  V30 4218 C 419.249 -1.29446 -1.91082 0
M  V30 4219 C 420.219 -0.16487 -1.6528 0
M  V30 4220 O 421.404 -0.349888 -1.87564 0
M  V30 4221 C 418.544 -1.0804 -3.27752 0
M  V30 4222 C 417.657 -2.29993 -3.65687 0
M  V30 4223 C 416.792 -2.01673 -4.91428 0
M  V30 4224 C 415.831 -3.19636 -5.22015 0
M  V30 4225 N 414.968 -2.91039 -6.38937 0
M  V30 4226 H 419.808 -2.24553 -1.95907 0
M  V30 4227 H 417.345 -1.11615 -0.958148 0
M  V30 4228 H 419.303 -0.936586 -4.06551 0
M  V30 4229 H 417.933 -0.16592 -3.22373 0
M  V30 4230 H 416.985 -2.55211 -2.82085 0
M  V30 4231 H 418.297 -3.18052 -3.84245 0
M  V30 4232 H 417.451 -1.84168 -5.78072 0
M  V30 4233 H 416.19 -1.10911 -4.74921 0
M  V30 4234 H 415.195 -3.37709 -4.33858 0
M  V30 4235 H 416.42 -4.11211 -5.40447 0
M  V30 4236 H 414.366 -2.0288 -6.2384 0
M  V30 4237 H 414.283 -3.72635 -6.57784 0
M  V30 4238 H 415.551 -2.77093 -7.28587 0
M  V30 4239 N 419.78 1.02168 -1.19998 0
M  V30 4240 C 420.727 2.10601 -0.944228 0
M  V30 4241 C 421.697 1.65639 0.123664 0
M  V30 4242 O 422.882 1.9079 -0.0199941 0
M  V30 4243 C 420.022 3.41504 -0.496865 0
M  V30 4244 C 419.135 3.99973 -1.63234 0
M  V30 4245 C 418.27 5.18915 -1.13579 0
M  V30 4246 C 417.309 5.69456 -2.24468 0
M  V30 4247 N 416.446 6.79665 -1.76068 0
M  V30 4248 H 421.286 2.31814 -1.8726 0
M  V30 4249 H 418.823 1.13686 -0.933483 0
M  V30 4250 H 420.781 4.16626 -0.218843 0
M  V30 4251 H 419.411 3.2038 0.394508 0
M  V30 4252 H 418.463 3.21997 -2.0254 0
M  V30 4253 H 419.775 4.33492 -2.46752 0
M  V30 4254 H 418.929 6.01222 -0.813429 0
M  V30 4255 H 417.668 4.8695 -0.270434 0
M  V30 4256 H 416.673 4.85757 -2.57526 0
M  V30 4257 H 417.898 6.03459 -3.11472 0
M  V30 4258 H 415.844 6.49538 -0.918516 0
M  V30 4259 H 415.761 7.12349 -2.5317 0
M  V30 4260 H 417.029 7.65549 -1.46817 0
M  V30 4261 N 421.258 1.00505 1.21394 0
M  V30 4262 C 422.505 0.687774 1.90462 0
M  V30 4263 C 422.833 -0.78147 1.7811 0
M  V30 4264 O 422.088 -1.58208 1.1519 0
M  V30 4265 C 422.387 1.0546 3.41486 0
M  V30 4266 C 422.053 2.51812 3.74034 0
M  V30 4267 C 420.715 2.91804 3.82628 0
M  V30 4268 C 423.067 3.46614 3.8924 0
M  V30 4269 C 420.395 4.2556 4.03876 0
M  V30 4270 C 422.747 4.80044 4.11995 0
M  V30 4271 C 421.411 5.19759 4.18816 0
M  V30 4272 H 420.681 0.251674 0.696951 0
M  V30 4273 H 423.328 1.26349 1.43903 0
M  V30 4274 H 421.633 0.397133 3.89782 0
M  V30 4275 H 423.33 0.786976 3.93202 0
M  V30 4276 H 419.92 2.1982 3.67936 0
M  V30 4277 H 424.104 3.16883 3.81967 0
M  V30 4278 H 419.36 4.55901 4.07387 0
M  V30 4279 H 423.534 5.53439 4.22704 0
M  V30 4280 H 421.161 6.23418 4.35033 0
M  V30 4281 N 422.737 -1.36956 0.779787 0
M  V30 4282 C 423.647 -2.33965 0.172491 0
M  V30 4283 C 424.663 -1.60574 -0.670222 0
M  V30 4284 O 425.839 -1.92617 -0.588263 0
M  V30 4285 C 422.904 -3.39761 -0.690173 0
M  V30 4286 C 421.965 -4.28964 0.169924 0
M  V30 4287 C 421.198 -5.29707 -0.651662 0
M  V30 4288 O 421.421 -5.38238 -1.88827 0
M  V30 4289 O 420.355 -6.01873 -0.0566264 0
M  V30 4290 H 424.181 -2.87647 0.974321 0
M  V30 4291 H 421.766 -1.39258 0.541078 0
M  V30 4292 H 423.648 -4.04471 -1.1824 0
M  V30 4293 H 422.323 -2.88394 -1.47006 0
M  V30 4294 H 421.23 -3.67326 0.708696 0
M  V30 4295 H 422.563 -4.83656 0.913085 0
M  V30 4296 N 424.215 -0.530993 -1.48385 0
M  V30 4297 C 425.165 0.251092 -2.26613 0
M  V30 4298 C 426.149 0.908977 -1.32765 0
M  V30 4299 O 427.341 0.811616 -1.57295 0
M  V30 4300 C 424.47 1.29677 -3.17866 0
M  V30 4301 C 423.556 0.643627 -4.19188 0
M  V30 4302 N 423.947 -0.271223 -5.05072 0
M  V30 4303 C 422.245 0.900711 -4.3681 0
M  V30 4304 C 422.946 -0.648109 -5.78078 0
M  V30 4305 N 421.922 -0.00895987 -5.43599 0
M  V30 4306 H 425.724 -0.452702 -2.90393 0
M  V30 4307 H 423.238 -0.349091 -1.58604 0
M  V30 4308 H 425.235 1.87079 -3.72568 0
M  V30 4309 H 423.895 2.00193 -2.55642 0
M  V30 4310 H 424.906 -0.643883 -5.13882 0
M  V30 4311 H 421.583 1.59636 -3.85775 0
M  V30 4312 H 422.973 -1.39833 -6.57188 0
M  V30 4313 N 425.693 1.55336 -0.266172 0
M  V30 4314 C 426.625 2.19544 0.658247 0
M  V30 4315 C 427.638 1.17746 1.12427 0
M  V30 4316 O 428.827 1.44517 1.04772 0
M  V30 4317 C 425.927 2.80032 1.9088 0
M  V30 4318 C 425.1 4.07436 1.59106 0
M  V30 4319 C 424.159 4.52056 2.69317 0
M  V30 4320 O 423.185 5.18023 2.35883 0
M  V30 4321 N 424.387 4.21448 3.99201 0
M  V30 4322 H 427.152 2.99503 0.108754 0
M  V30 4323 H 424.713 1.61667 -0.0869059 0
M  V30 4324 H 426.705 3.06831 2.63888 0
M  V30 4325 H 425.275 2.04119 2.36758 0
M  V30 4326 H 424.495 3.88021 0.695243 0
M  V30 4327 H 425.783 4.90462 1.35367 0
M  V30 4328 H 425.181 3.68528 4.29189 0
M  V30 4329 H 423.738 4.53039 4.68614 0
M  V30 4330 N 427.171 -0.0066808 1.57599 0
M  V30 4331 C 428.101 -0.999296 2.11036 0
M  V30 4332 C 429.082 -1.36278 1.01795 0
M  V30 4333 O 430.267 -1.4477 1.29442 0
M  V30 4334 C 427.397 -2.29328 2.60818 0
M  V30 4335 C 426.351 -2.07159 3.74525 0
M  V30 4336 C 425.677 -3.42512 4.10596 0
M  V30 4337 C 426.977 -1.43959 5.02069 0
M  V30 4338 H 428.671 -0.554382 2.94223 0
M  V30 4339 H 426.217 -0.265221 1.41536 0
M  V30 4340 H 428.17 -2.99117 2.96828 0
M  V30 4341 H 426.894 -2.7592 1.74745 0
M  V30 4342 H 425.553 -1.39797 3.38899 0
M  V30 4343 H 425.201 -3.86795 3.21556 0
M  V30 4344 H 424.901 -3.28498 4.87199 0
M  V30 4345 H 426.425 -4.13628 4.4916 0
M  V30 4346 H 427.839 -2.03696 5.35893 0
M  V30 4347 H 426.236 -1.40452 5.83432 0
M  V30 4348 H 427.306 -0.407992 4.83181 0
M  V30 4349 N 428.649 -1.55105 -0.279332 0
M  V30 4350 C 429.579 -1.90557 -1.34945 0
M  V30 4351 C 430.56 -0.766738 -1.51839 0
M  V30 4352 O 431.745 -1.02434 -1.64988 0
M  V30 4353 C 428.875 -2.17193 -2.71006 0
M  V30 4354 C 427.829 -3.33021 -2.68851 0
M  V30 4355 C 427.155 -3.45123 -4.08405 0
M  V30 4356 C 428.455 -4.69578 -2.28678 0
M  V30 4357 H 430.149 -2.80188 -1.05522 0
M  V30 4358 H 427.695 -1.34811 -0.506173 0
M  V30 4359 H 429.648 -2.40581 -3.45975 0
M  V30 4360 H 428.372 -1.24355 -3.01999 0
M  V30 4361 H 427.031 -3.0959 -1.9634 0
M  V30 4362 H 426.679 -2.49762 -4.3661 0
M  V30 4363 H 426.379 -4.22995 -4.07859 0
M  V30 4364 H 427.903 -3.70796 -4.85121 0
M  V30 4365 H 429.317 -4.92553 -2.93368 0
M  V30 4366 H 427.714 -5.5032 -2.39306 0
M  V30 4367 H 428.784 -4.68828 -1.23807 0
M  V30 4368 N 430.127 0.543554 -1.4793 0
M  V30 4369 C 431.357 1.32324 -1.58663 0
M  V30 4370 C 431.765 1.8766 -0.240896 0
M  V30 4371 O 431.108 1.66411 0.778011 0
M  V30 4372 C 431.17 2.52094 -2.56299 0
M  V30 4373 C 430.834 2.17944 -4.01683 0
M  V30 4374 C 431.831 1.74422 -4.89768 0
M  V30 4375 C 429.516 2.28884 -4.47121 0
M  V30 4376 C 431.51 1.42287 -6.21316 0
M  V30 4377 C 429.197 1.96361 -5.78693 0
M  V30 4378 C 430.195 1.53132 -6.65612 0
M  V30 4379 O 429.883 1.21029 -7.94737 0
M  V30 4380 H 429.615 0.409174 -0.538101 0
M  V30 4381 H 432.169 0.663887 -1.94375 0
M  V30 4382 H 430.399 3.20965 -2.15681 0
M  V30 4383 H 432.088 3.14165 -2.57012 0
M  V30 4384 H 432.854 1.65452 -4.55907 0
M  V30 4385 H 428.733 2.61488 -3.79664 0
M  V30 4386 H 432.277 1.08472 -6.89115 0
M  V30 4387 H 428.174 2.04967 -6.12094 0
M  V30 4388 H 428.942 1.34543 -8.07366 0
M  V30 4389 N 431.605 1.3629 0.791371 0
M  V30 4390 C 432.553 1.30514 1.92533 0
M  V30 4391 C 433.547 0.197285 1.68247 0
M  V30 4392 O 434.753 0.364176 1.76278 0
M  V30 4393 H 431.128 0.406263 0.632815 0
M  V30 4394 H 433.099 2.26282 1.94523 0
M  V30 4395 C 431.848 1.10933 3.29529 0
M  V30 4396 H 431.171 1.95427 3.48781 0
M  V30 4397 H 432.611 1.10937 4.0923 0
M  V30 4398 C 431.07 -0.186123 3.36385 0
M  V30 4399 O 431.6 -1.17664 3.84081 0
M  V30 4400 N 429.806 -0.230128 2.89687 0
M  V30 4401 H 429.353 0.576545 2.51065 0
M  V30 4402 H 429.311 -1.09658 2.94657 0
M  V30 4403 N 433.083 -1.0153 1.20538 0
M  V30 4404 C 434.046 -2.0826 0.957098 0
M  V30 4405 C 435.046 -1.60657 -0.0678655 0
M  V30 4406 O 436.236 -1.73385 0.168332 0
M  V30 4407 C 433.368 -3.38033 0.441188 0
M  V30 4408 H 434.561 -2.31719 1.90384 0
M  V30 4409 H 432.114 -1.1835 1.02093 0
M  V30 4410 H 432.849 -3.20249 -0.510961 0
M  V30 4411 H 432.634 -3.73911 1.18038 0
M  V30 4412 H 434.124 -4.16613 0.287009 0
M  V30 4413 N 434.561 -1.01147 -1.20859 0
M  V30 4414 C 435.801 -0.706331 -1.91808 0
M  V30 4415 C 436.165 0.749736 -1.76757 0
M  V30 4416 O 437.366 1.16716 -2.42138 0
M  V30 4417 C 435.637 -1.12371 -3.39275 0
M  V30 4418 S 437.196 -0.939764 -4.28619 0
M  V30 4419 H 434.014 -0.257665 -0.662669 0
M  V30 4420 H 436.616 -1.29766 -1.46223 0
M  V30 4421 H 435.32 -2.17943 -3.47749 0
M  V30 4422 H 434.851 -0.524952 -3.89882 0
M  V30 4423 H 436.866 0.159556 -4.95943 0
M  V30 4424 N 436.039 1.36541 -0.78704 0
M  V30 4425 C 436.971 2.28761 -0.141773 0
M  V30 4426 C 437.984 1.49365 0.647599 0
M  V30 4427 O 439.173 1.71836 0.483173 0
M  V30 4428 C 436.273 3.28771 0.822368 0
M  V30 4429 C 435.446 4.3732 0.0835594 0
M  V30 4430 C 434.505 5.17307 0.963296 0
M  V30 4431 O 433.531 5.67638 0.421419 0
M  V30 4432 N 434.733 5.33515 2.28784 0
M  V30 4433 H 437.498 2.84777 -0.933919 0
M  V30 4434 H 435.059 1.48682 -0.640735 0
M  V30 4435 H 437.051 3.79169 1.41468 0
M  V30 4436 H 435.621 2.73412 1.5154 0
M  V30 4437 H 434.841 3.88118 -0.689809 0
M  V30 4438 H 436.129 5.0701 -0.426358 0
M  V30 4439 H 435.527 4.94234 2.75226 0
M  V30 4440 H 434.084 5.87165 2.82985 0
M  V30 4441 N 437.518 0.538854 1.48102 0
M  V30 4442 C 438.448 -0.207654 2.32575 0
M  V30 4443 C 439.429 -0.926559 1.4265 0
M  V30 4444 O 440.614 -0.91061 1.71527 0
M  V30 4445 C 437.744 -1.24957 3.24042 0
M  V30 4446 C 436.698 -0.648263 4.23062 0
M  V30 4447 C 436.024 -1.79348 5.03725 0
M  V30 4448 C 437.324 0.385897 5.20872 0
M  V30 4449 H 439.018 0.497534 2.95237 0
M  V30 4450 H 436.564 0.240715 1.41974 0
M  V30 4451 H 438.517 -1.77983 3.81969 0
M  V30 4452 H 437.241 -1.98446 2.59397 0
M  V30 4453 H 435.9 -0.139452 3.66335 0
M  V30 4454 H 435.548 -2.51696 4.35498 0
M  V30 4455 H 435.248 -1.39702 5.70751 0
M  V30 4456 H 436.772 -2.32735 5.64506 0
M  V30 4457 H 438.186 -0.057607 5.73271 0
M  V30 4458 H 436.583 0.700227 5.96001 0
M  V30 4459 H 437.653 1.28848 4.67468 0
M  V30 4460 N 438.996 -1.55193 0.274407 0
M  V30 4461 C 440.273 -1.91584 -0.394331 0
M  V30 4462 C 440.653 -1.19858 -1.73774 0
M  V30 4463 O 440.001 -0.3252 -2.26174 0
M  V30 4464 C 440.211 -3.4487 -0.535311 0
M  V30 4465 C 441.559 -4.16636 -0.818534 0
M  V30 4466 O 442.583 -3.5076 -0.620146 0
M  V30 4467 O 441.442 -5.33209 -1.19792 0
M  V30 4468 H 438.536 -0.798349 -0.215794 0
M  V30 4469 H 441.082 -1.66646 0.320507 0
M  V30 4470 H 439.854 -3.89145 0.410141 0
M  V30 4471 H 439.477 -3.75759 -1.29964 0
M  V30 4472 N 440.474 -0.00167713 -1.576 0
M  V30 4473 C 441.422 1.0074 -2.09652 0
M  V30 4474 C 442.416 1.35483 -1.01689 0
M  V30 4475 O 443.622 1.34028 -1.20152 0
M  V30 4476 H 439.997 0.342537 -0.669457 0
M  V30 4477 H 441.968 0.542841 -2.93421 0
M  V30 4478 C 440.717 2.2899 -2.61647 0
M  V30 4479 H 440.04 2.03124 -3.44355 0
M  V30 4480 H 441.48 2.9787 -3.01744 0
M  V30 4481 C 439.939 3.00085 -1.53136 0
M  V30 4482 O 440.469 3.91135 -0.91524 0
M  V30 4483 N 438.675 2.6194 -1.25841 0
M  V30 4484 H 438.222 1.8798 -1.76129 0
M  V30 4485 H 438.18 3.09822 -0.534576 0
M  V30 4486 N 441.952 1.55251 0.271103 0
M  V30 4487 C 443.363 1.66635 0.842007 0
M  V30 4488 C 443.714 0.594631 1.86972 0
M  V30 4489 O 442.839 -0.263532 2.14789 0
M  V30 4490 C 443.434 3.02082 1.53401 0
M  V30 4491 C 441.993 3.15487 2.05293 0
M  V30 4492 C 441.14 2.62438 0.895631 0
M  V30 4493 H 444.091 1.58629 0.0474117 0
M  V30 4494 H 444.112 2.95176 2.40107 0
M  V30 4495 H 443.624 3.80062 0.785786 0
M  V30 4496 H 441.725 2.42284 2.83071 0
M  V30 4497 H 441.838 4.22075 2.26693 0
M  V30 4498 H 440.202 2.19644 1.28953 0
M  V30 4499 H 440.985 3.42923 0.160878 0
M  V30 4500 N 443.43 -0.535701 1.48216 0
M  V30 4501 C 444.707 -1.29683 1.46429 0
M  V30 4502 C 445.087 -2.10391 0.172852 0
M  V30 4503 O 444.435 -2.12282 -0.845488 0
M  V30 4504 C 444.645 -2.18313 2.72287 0
M  V30 4505 C 445.993 -2.78639 3.20383 0
M  V30 4506 O 447.017 -2.28604 2.73164 0
M  V30 4507 O 445.876 -3.69636 4.02531 0
M  V30 4508 H 442.97 -0.585026 0.584529 0
M  V30 4509 H 445.516 -0.552827 1.60443 0
M  V30 4510 H 444.288 -1.58421 3.57797 0
M  V30 4511 H 443.911 -2.99971 2.60966 0
M  V30 4512 N 444.908 -1.36708 -0.784132 0
M  V30 4513 C 445.818 -1.3363 -1.92822 0
M  V30 4514 C 446.834 -0.237686 -1.72369 0
M  V30 4515 O 448.01 -0.470962 -1.95816 0
M  V30 4516 C 445.075 -1.13011 -3.27764 0
M  V30 4517 C 444.136 -2.32397 -3.60957 0
M  V30 4518 C 443.369 -2.12752 -4.89461 0
M  V30 4519 O 443.592 -1.10541 -5.59586 0
M  V30 4520 O 442.526 -3.00653 -5.21432 0
M  V30 4521 H 446.352 -2.29964 -1.98369 0
M  V30 4522 H 443.937 -1.1731 -0.925136 0
M  V30 4523 H 445.819 -1.03451 -4.08504 0
M  V30 4524 H 444.494 -0.19743 -3.23097 0
M  V30 4525 H 443.401 -2.47527 -2.80502 0
M  V30 4526 H 444.734 -3.2419 -3.70354 0
M  V30 4527 N 446.386 1.0089 -1.21074 0
M  V30 4528 C 447.318 2.09737 -0.924291 0
M  V30 4529 C 448.331 1.62546 0.0909809 0
M  V30 4530 O 449.52 1.77942 -0.141021 0
M  V30 4531 C 446.62 3.36922 -0.36559 0
M  V30 4532 C 445.793 4.13216 -1.43426 0
M  V30 4533 C 444.852 5.18696 -0.885496 0
M  V30 4534 O 443.878 5.47176 -1.56801 0
M  V30 4535 N 445.08 5.79718 0.301227 0
M  V30 4536 H 447.845 2.34895 -1.8613 0
M  V30 4537 H 445.406 1.17341 -1.11546 0
M  V30 4538 H 447.398 4.04697 0.0158407 0
M  V30 4539 H 445.968 3.08952 0.476149 0
M  V30 4540 H 445.188 3.40301 -1.9897 0
M  V30 4541 H 446.476 4.60967 -2.15376 0
M  V30 4542 H 445.874 5.58926 0.872849 0
M  V30 4543 H 444.431 6.48804 0.624211 0
M  V30 4544 N 447.864 1.01787 1.20321 0
M  V30 4545 C 448.827 0.593972 2.2137 0
M  V30 4546 C 449.827 -0.336553 1.57239 0
M  V30 4547 O 451.017 -0.125069 1.7375 0
M  V30 4548 C 448.149 -0.132433 3.40643 0
M  V30 4549 H 449.342 1.48791 2.60387 0
M  V30 4550 H 446.895 0.807803 1.33807 0
M  V30 4551 H 447.63 -1.04123 3.0713 0
M  V30 4552 H 447.415 0.53605 3.88418 0
M  V30 4553 H 448.905 -0.416314 4.1552 0
M  V30 4554 N 449.342 -1.36122 0.79427 0
M  V30 4555 C 450.305 -2.28309 0.201889 0
M  V30 4556 C 451.305 -1.49041 -0.603603 0
M  V30 4557 O 452.495 -1.68964 -0.423888 0
M  V30 4558 C 449.627 -3.3321 -0.719978 0
M  V30 4559 H 450.82 -2.82208 1.01481 0
M  V30 4560 H 448.373 -1.45768 0.564037 0
M  V30 4561 H 449.108 -2.84475 -1.55706 0
M  V30 4562 H 448.893 -3.91835 -0.144266 0
M  V30 4563 H 450.383 -4.02044 -1.12916 0
M  V30 4564 N 450.82 -0.546701 -1.47814 0
M  V30 4565 C 451.752 0.244196 -2.27895 0
M  V30 4566 C 452.765 0.88911 -1.36377 0
M  V30 4567 O 453.954 0.764733 -1.61289 0
M  V30 4568 C 451.054 1.36252 -3.10304 0
M  V30 4569 C 450.227 0.816382 -4.29714 0
M  V30 4570 C 449.286 1.81789 -4.93801 0
M  V30 4571 O 448.312 1.36818 -5.52512 0
M  V30 4572 N 449.514 3.15085 -4.87547 0
M  V30 4573 H 452.279 -0.442694 -2.96412 0
M  V30 4574 H 449.84 -0.382095 -1.57327 0
M  V30 4575 H 451.832 2.03102 -3.50045 0
M  V30 4576 H 450.402 1.95281 -2.44099 0
M  V30 4577 H 449.622 -0.0285981 -3.9419 0
M  V30 4578 H 450.91 0.430668 -5.06974 0
M  V30 4579 H 450.308 3.54275 -4.41028 0
M  V30 4580 H 448.865 3.77522 -5.31339 0
M  V30 4581 N 452.299 1.55045 -0.282633 0
M  V30 4582 C 453.548 1.98938 0.332667 0
M  V30 4583 C 453.861 1.17455 1.56409 0
M  V30 4584 O 455.067 1.51527 2.25282 0
M  V30 4585 C 453.523 3.54105 0.643226 0
M  V30 4586 C 453.131 4.44374 -0.568814 0
M  V30 4587 C 454.875 4.06569 1.22074 0
M  V30 4588 C 452.782 5.90943 -0.232426 0
M  V30 4589 H 451.712 0.743043 0.128075 0
M  V30 4590 H 454.363 1.79341 -0.388464 0
M  V30 4591 H 452.745 3.69532 1.42346 0
M  V30 4592 H 453.919 4.40718 -1.34551 0
M  V30 4593 H 452.234 4.02585 -1.06369 0
M  V30 4594 H 454.831 5.13626 1.48635 0
M  V30 4595 H 455.174 3.56057 2.15707 0
M  V30 4596 H 455.707 3.94612 0.502621 0
M  V30 4597 H 452.446 6.45567 -1.13683 0
M  V30 4598 H 451.966 5.9765 0.507357 0
M  V30 4599 H 453.645 6.4677 0.172657 0
M  V30 4600 N 453.777 0.010035 1.57597 0
M  V30 4601 C 455.193 -0.346164 1.55801 0
M  V30 4602 C 455.393 -1.74144 1.01371 0
M  V30 4603 O 454.449 -2.43938 0.651968 0
M  V30 4604 C 455.762 -0.212216 2.9995 0
M  V30 4605 C 457.31 -0.286409 3.11687 0
M  V30 4606 C 457.785 -0.18147 4.5764 0
M  V30 4607 N 459.276 -0.239056 4.62583 0
M  V30 4608 C 460.011 -0.181351 5.73113 0
M  V30 4609 N 459.507 -0.073661 6.92761 0
M  V30 4610 N 461.3 -0.233949 5.61613 0
M  V30 4611 H 453.451 0.922657 1.91313 0
M  V30 4612 H 455.714 0.354595 0.879185 0
M  V30 4613 H 455.42 0.748169 3.4365 0
M  V30 4614 H 455.294 -0.990224 3.6397 0
M  V30 4615 H 457.681 -1.23724 2.67911 0
M  V30 4616 H 457.762 0.521645 2.50425 0
M  V30 4617 H 457.406 0.765863 5.02093 0
M  V30 4618 H 457.336 -1.00814 5.1686 0
M  V30 4619 H 459.827 -0.32321 3.76515 0
M  V30 4620 H 460.14 -0.0358003 7.72792 0
M  V30 4621 H 458.485 -0.0391461 6.94989 0
M  V30 4622 H 461.676 -0.316347 4.6703 0
M  V30 4623 H 461.849 -0.185514 6.47734 0
M  V30 4624 N 455.255 -1.55392 -0.262866 0
M  V30 4625 C 456.671 -1.47459 -0.610582 0
M  V30 4626 C 456.871 -0.697031 -1.8906 0
M  V30 4627 O 455.927 -0.219952 -2.5154 0
M  V30 4628 C 457.24 -2.91751 -0.728131 0
M  V30 4629 C 458.788 -3.02027 -0.821517 0
M  V30 4630 C 459.263 -4.47594 -0.97076 0
M  V30 4631 N 460.754 -4.51465 -1.03603 0
M  V30 4632 C 461.489 -5.61326 -1.17049 0
M  V30 4633 N 460.985 -6.81032 -1.2715 0
M  V30 4634 N 462.778 -5.49089 -1.20239 0
M  V30 4635 H 454.929 -2.04395 0.577632 0
M  V30 4636 H 457.192 -0.927287 0.197086 0
M  V30 4637 H 456.898 -3.51413 0.142132 0
M  V30 4638 H 456.772 -3.4134 -1.6052 0
M  V30 4639 H 459.159 -2.42456 -1.68224 0
M  V30 4640 H 459.24 -2.55674 0.0803688 0
M  V30 4641 H 458.884 -5.07771 -0.114655 0
M  V30 4642 H 458.814 -4.91613 -1.88745 0
M  V30 4643 H 461.305 -3.6524 -0.96996 0
M  V30 4644 H 461.618 -7.60511 -1.37271 0
M  V30 4645 H 459.963 -6.83824 -1.24136 0
M  V30 4646 H 463.154 -4.54507 -1.11985 0
M  V30 4647 H 463.327 -6.34749 -1.30373 0
M  V30 4648 N 456.733 0.527833 -1.48498 0
M  V30 4649 C 457.643 1.65907 -1.65867 0
M  V30 4650 C 458.659 1.6537 -0.541192 0
M  V30 4651 O 459.835 1.84282 -0.812534 0
M  V30 4652 C 456.9 3.02364 -1.69637 0
M  V30 4653 C 455.961 3.1374 -2.93028 0
M  V30 4654 C 455.194 4.43688 -2.96609 0
M  V30 4655 O 455.417 5.30913 -2.08538 0
M  V30 4656 O 454.351 4.59475 -3.88802 0
M  V30 4657 H 458.177 1.5419 -2.61647 0
M  V30 4658 H 455.762 0.701163 -1.31924 0
M  V30 4659 H 457.644 3.83515 -1.74625 0
M  V30 4660 H 456.319 3.14401 -0.770312 0
M  V30 4661 H 455.226 2.31877 -2.93571 0
M  V30 4662 H 456.559 3.06621 -3.85026 0
M  V30 4663 N 458.211 1.37122 0.776871 0
M  V30 4664 C 459.141 1.35164 1.90402 0
M  V30 4665 C 460.122 0.221069 1.68657 0
M  V30 4666 O 461.307 0.420642 1.8959 0
M  V30 4667 C 458.437 1.15274 3.27611 0
M  V30 4668 C 457.391 2.25289 3.63908 0
M  V30 4669 C 456.717 1.90527 4.99603 0
M  V30 4670 C 458.017 3.67446 3.71188 0
M  V30 4671 H 459.711 2.29482 1.92297 0
M  V30 4672 H 457.257 1.10465 0.923773 0
M  V30 4673 H 459.21 1.12536 4.06096 0
M  V30 4674 H 457.934 0.174102 3.26136 0
M  V30 4675 H 456.593 2.27174 2.87728 0
M  V30 4676 H 456.241 0.91206 4.94662 0
M  V30 4677 H 455.941 2.64193 5.24858 0
M  V30 4678 H 457.465 1.89367 5.80493 0
M  V30 4679 H 458.879 3.67719 4.39836 0
M  V30 4680 H 457.276 4.40123 4.07936 0
M  V30 4681 H 458.346 4.01443 2.71977 0
M  V30 4682 N 459.689 -1.00246 1.21608 0
M  V30 4683 C 460.966 -1.71336 0.943568 0
M  V30 4684 C 461.346 -2.03972 -0.543943 0
M  V30 4685 O 460.694 -1.71545 -1.50946 0
M  V30 4686 C 460.904 -2.97094 1.83128 0
M  V30 4687 C 462.252 -3.70071 2.08165 0
M  V30 4688 O 463.276 -3.07081 1.80498 0
M  V30 4689 O 462.135 -4.83376 2.54971 0
M  V30 4690 H 459.229 -0.747386 0.354039 0
M  V30 4691 H 461.775 -1.05967 1.32549 0
M  V30 4692 H 460.547 -2.69407 2.83788 0
M  V30 4693 H 460.17 -3.70204 1.45034 0
M  V30 4694 N 461.167 -1.02423 -1.1978 0
M  V30 4695 C 462.415 -0.716569 -1.8897 0
M  V30 4696 C 462.736 0.756769 -1.79716 0
M  V30 4697 O 462.006 1.5449 -1.20456 0
M  V30 4698 H 460.586 -0.262062 -0.699523 0
M  V30 4699 H 463.248 -1.29747 -1.45436 0
M  V30 4700 H 462.344 -1.00675 -2.95417 0
M  V30 4701 N 462.645 1.35699 -0.801477 0
M  V30 4702 C 464.061 1.52065 -0.484596 0
M  V30 4703 C 464.261 1.75215 0.995084 0
M  V30 4704 O 463.317 1.79061 1.78026 0
M  V30 4705 C 464.63 2.69908 -1.32552 0
M  V30 4706 C 466.178 2.83784 -1.32044 0
M  V30 4707 C 466.653 4.04646 -2.14536 0
M  V30 4708 N 468.144 4.11814 -2.12046 0
M  V30 4709 C 468.879 5.04437 -2.72636 0
M  V30 4710 N 468.375 6.02426 -3.42133 0
M  V30 4711 N 470.168 4.97144 -2.62305 0
M  V30 4712 H 462.319 1.18928 -1.75983 0
M  V30 4713 H 464.582 0.581455 -0.748741 0
M  V30 4714 H 464.288 2.59363 -2.37537 0
M  V30 4715 H 464.162 3.64376 -0.975181 0
M  V30 4716 H 466.549 2.93783 -0.27846 0
M  V30 4717 H 466.63 1.90188 -1.71062 0
M  V30 4718 H 466.274 3.95407 -3.18772 0
M  V30 4719 H 466.204 4.97413 -1.72882 0
M  V30 4720 H 468.695 3.41664 -1.61476 0
M  V30 4721 H 469.008 6.69688 -3.85666 0
M  V30 4722 H 467.353 6.02615 -3.46237 0
M  V30 4723 H 470.544 4.19546 -2.07603 0
M  V30 4724 H 470.717 5.69138 -3.09815 0
M  V30 4725 N 464.123 0.554532 1.47522 0
M  V30 4726 C 465.053 -0.182974 2.32782 0
M  V30 4727 C 466.034 -0.911377 1.43624 0
M  V30 4728 O 467.219 -0.892366 1.72483 0
M  V30 4729 C 464.349 -1.21513 3.25349 0
M  V30 4730 C 463.303 -0.603355 4.23726 0
M  V30 4731 C 462.629 -1.73995 5.05598 0
M  V30 4732 C 463.929 0.441121 5.20434 0
M  V30 4733 H 465.623 0.52882 2.94693 0
M  V30 4734 H 463.169 0.255759 1.41711 0
M  V30 4735 H 465.122 -1.73922 3.83835 0
M  V30 4736 H 463.846 -1.95683 2.61487 0
M  V30 4737 H 462.505 -0.10059 3.66462 0
M  V30 4738 H 462.153 -2.47063 4.38143 0
M  V30 4739 H 461.853 -1.3364 5.72201 0
M  V30 4740 H 463.377 -2.26735 5.66942 0
M  V30 4741 H 464.791 0.00319931 5.733 0
M  V30 4742 H 463.188 0.763402 5.95224 0
M  V30 4743 H 464.258 1.33799 4.66075 0
M  V30 4744 N 465.601 -1.54893 0.290851 0
M  V30 4745 C 466.533 -2.20564 -0.623236 0
M  V30 4746 C 467.546 -1.19519 -1.1054 0
M  V30 4747 O 468.735 -1.46165 -1.02459 0
M  V30 4748 C 465.835 -2.83033 -1.86401 0
M  V30 4749 C 465.008 -4.09916 -1.52604 0
M  V30 4750 C 464.067 -4.56284 -2.62091 0
M  V30 4751 O 463.093 -5.2171 -2.27612 0
M  V30 4752 N 464.295 -4.27746 -3.92446 0
M  V30 4753 H 467.06 -2.99638 -0.0610915 0
M  V30 4754 H 464.621 -1.61508 0.112615 0
M  V30 4755 H 466.613 -3.1099 -2.58973 0
M  V30 4756 H 465.183 -2.0786 -2.33481 0
M  V30 4757 H 464.403 -3.89078 -0.633424 0
M  V30 4758 H 465.691 -4.92554 -1.27547 0
M  V30 4759 H 465.089 -3.7531 -4.23272 0
M  V30 4760 H 463.646 -4.60437 -4.61347 0
M  V30 4761 N 467.08 -0.0183926 -1.57589 0
M  V30 4762 C 468.013 1.00148 -2.0505 0
M  V30 4763 C 468.991 1.32387 -0.944058 0
M  V30 4764 O 470.175 1.44237 -1.21358 0
M  V30 4765 C 467.302 2.32435 -2.46357 0
M  V30 4766 C 466.348 2.15731 -3.67916 0
M  V30 4767 S 467.181 1.46613 -5.15039 0
M  V30 4768 C 468.337 2.80293 -5.59631 0
M  V30 4769 H 468.57 0.597429 -2.91235 0
M  V30 4770 H 466.103 0.193002 -1.53189 0
M  V30 4771 H 468.061 3.0849 -2.70822 0
M  V30 4772 H 466.722 2.69975 -1.60537 0
M  V30 4773 H 465.915 3.13502 -3.9463 0
M  V30 4774 H 465.517 1.4782 -3.43548 0
M  V30 4775 H 467.809 3.76557 -5.63215 0
M  V30 4776 H 468.752 2.58256 -6.59325 0
M  V30 4777 H 469.16 2.85047 -4.87246 0
M  V30 4778 N 468.558 1.5553 0.254621 0
M  V30 4779 C 469.521 1.88872 1.29846 0
M  V30 4780 C 470.521 0.764591 1.41459 0
M  V30 4781 O 471.711 1.03265 1.40293 0
M  V30 4782 C 468.843 2.11032 2.67728 0
M  V30 4783 H 470.036 2.82201 1.01502 0
M  V30 4784 H 467.589 1.48303 0.493556 0
M  V30 4785 H 468.324 1.20146 3.01223 0
M  V30 4786 H 468.109 2.92895 2.60682 0
M  V30 4787 H 469.599 2.38038 3.43115 0
M  V30 4788 N 470.036 -0.519951 1.48776 0
M  V30 4789 C 471.313 -1.28123 1.47797 0
M  V30 4790 C 471.693 -2.10196 0.195157 0
M  V30 4791 O 471.041 -2.13167 -0.822925 0
M  V30 4792 C 471.251 -2.15413 2.74587 0
M  V30 4793 C 472.599 -2.75225 3.23321 0
M  V30 4794 O 473.623 -2.25694 2.75574 0
M  V30 4795 O 472.482 -3.65346 4.06429 0
M  V30 4796 H 469.576 -0.578793 0.590701 0
M  V30 4797 H 472.122 -0.535779 1.6102 0
M  V30 4798 H 470.894 -1.54617 3.59457 0
M  V30 4799 H 470.517 -2.97186 2.64132 0
M  V30 4800 N 471.514 -1.37532 -0.769588 0
M  V30 4801 C 472.446 -1.29347 -1.89214 0
M  V30 4802 C 473.459 -0.208842 -1.61455 0
M  V30 4803 O 474.648 -0.465158 -1.72333 0
M  V30 4804 C 471.748 -0.977649 -3.24492 0
M  V30 4805 C 470.921 -2.16817 -3.7988 0
M  V30 4806 C 469.98 -1.82229 -4.93639 0
M  V30 4807 O 469.006 -2.54548 -5.09111 0
M  V30 4808 N 470.208 -0.767696 -5.75401 0
M  V30 4809 H 472.973 -2.26073 -1.96751 0
M  V30 4810 H 470.534 -1.31185 -0.948795 0
M  V30 4811 H 472.526 -0.727065 -3.98115 0
M  V30 4812 H 471.096 -0.0988777 -3.12444 0
M  V30 4813 H 470.316 -2.58038 -2.9801 0
M  V30 4814 H 471.604 -2.96308 -4.13617 0
M  V30 4815 H 471.002 -0.167626 -5.65452 0
M  V30 4816 H 469.559 -0.576973 -6.49241 0
M  V30 4817 N 472.992 0.995999 -1.22138 0
M  V30 4818 C 474.241 1.72928 -1.03821 0
M  V30 4819 C 474.554 1.90872 0.427444 0
M  V30 4820 O 475.76 2.61496 0.730212 0
M  V30 4821 C 474.216 3.11124 -1.80913 0
M  V30 4822 C 473.824 3.01122 -3.31707 0
M  V30 4823 C 475.568 3.8852 -1.71035 0
M  V30 4824 C 473.475 4.34453 -4.01253 0
M  V30 4825 H 472.405 0.648376 -0.384869 0
M  V30 4826 H 475.056 1.11213 -1.45959 0
M  V30 4827 H 473.438 3.73503 -1.31573 0
M  V30 4828 H 474.612 2.47926 -3.88419 0
M  V30 4829 H 472.927 2.3721 -3.42228 0
M  V30 4830 H 475.524 4.872 -2.20318 0
M  V30 4831 H 475.867 4.1087 -0.670196 0
M  V30 4832 H 476.4 3.32812 -2.17902 0
M  V30 4833 H 473.139 4.17303 -5.05508 0
M  V30 4834 H 472.659 4.87574 -3.49331 0
M  V30 4835 H 474.338 5.03215 -4.06674 0
M  V30 4836 N 474.47 1.03057 1.19235 0
M  V30 4837 C 475.433 0.617418 2.20727 0
M  V30 4838 C 476.433 -0.319856 1.57587 0
M  V30 4839 O 477.623 -0.106633 1.73873 0
M  V30 4840 C 474.755 -0.096296 3.40764 0
M  V30 4841 H 475.948 1.51544 2.58794 0
M  V30 4842 H 473.501 0.821949 1.32942 0
M  V30 4843 H 474.236 -1.00859 3.08217 0
M  V30 4844 H 474.021 0.577217 3.87828 0
M  V30 4845 H 475.511 -0.372219 4.15938 0
M  V30 4846 N 475.948 -1.35272 0.808662 0
M  V30 4847 C 477.364 -1.51806 0.492653 0
M  V30 4848 C 477.564 -1.7574 -0.985778 0
M  V30 4849 O 476.62 -1.80003 -1.77074 0
M  V30 4850 C 477.933 -2.69202 1.33981 0
M  V30 4851 C 479.481 -2.8308 1.33547 0
M  V30 4852 C 479.956 -4.03502 2.16679 0
M  V30 4853 N 481.447 -4.10684 2.14227 0
M  V30 4854 C 482.182 -5.02984 2.75308 0
M  V30 4855 N 481.678 -6.00603 3.45323 0
M  V30 4856 N 483.471 -4.95746 2.64938 0
M  V30 4857 H 475.622 -1.17993 1.76611 0
M  V30 4858 H 477.885 -0.577476 0.751814 0
M  V30 4859 H 477.591 -2.581 2.38909 0
M  V30 4860 H 477.465 -3.63854 0.994491 0
M  V30 4861 H 479.852 -2.93631 0.294036 0
M  V30 4862 H 479.933 -1.89278 1.72068 0
M  V30 4863 H 479.577 -3.93711 3.20864 0
M  V30 4864 H 479.507 -4.96489 1.75517 0
M  V30 4865 H 481.998 -3.40802 1.63285 0
M  V30 4866 H 482.311 -6.67633 3.89212 0
M  V30 4867 H 480.656 -6.0077 3.49428 0
M  V30 4868 H 483.847 -4.18439 2.09825 0
M  V30 4869 H 484.02 -5.67487 3.12829 0
M  V30 4870 N 477.426 -0.562348 -1.47226 0
M  V30 4871 C 478.336 0.185466 -2.33866 0
M  V30 4872 C 479.352 0.906713 -1.48508 0
M  V30 4873 O 480.528 0.874458 -1.81425 0
M  V30 4874 C 477.593 1.19904 -3.25306 0
M  V30 4875 C 476.654 0.484669 -4.26555 0
M  V30 4876 C 475.887 1.44996 -5.13626 0
M  V30 4877 O 476.11 2.68515 -5.03245 0
M  V30 4878 O 475.044 0.971642 -5.94006 0
M  V30 4879 H 478.87 -0.525361 -2.99121 0
M  V30 4880 H 476.455 -0.322916 -1.45868 0
M  V30 4881 H 478.337 1.78399 -3.81774 0
M  V30 4882 H 477.012 1.8917 -2.62672 0
M  V30 4883 H 475.919 -0.141605 -3.73832 0
M  V30 4884 H 477.252 -0.166634 -4.91918 0
M  V30 4885 N 478.904 1.54736 -0.299062 0
M  V30 4886 C 480.32 1.59507 0.0543849 0
M  V30 4887 C 480.52 1.31606 1.52585 0
M  V30 4888 O 479.576 1.08853 2.27832 0
M  V30 4889 C 480.889 2.98751 -0.34181 0
M  V30 4890 C 482.437 3.1165 -0.290414 0
M  V30 4891 C 482.912 4.53199 -0.661402 0
M  V30 4892 N 484.403 4.59114 -0.613863 0
M  V30 4893 C 485.138 5.66709 -0.873417 0
M  V30 4894 N 484.634 6.82349 -1.19884 0
M  V30 4895 N 486.427 5.56369 -0.800608 0
M  V30 4896 H 478.578 1.71133 -1.25806 0
M  V30 4897 H 480.841 0.799186 -0.509908 0
M  V30 4898 H 480.547 3.24085 -1.36608 0
M  V30 4899 H 480.421 3.75961 0.305508 0
M  V30 4900 H 482.808 2.86066 0.724605 0
M  V30 4901 H 482.889 2.366 -0.972327 0
M  V30 4902 H 482.533 4.79513 -1.67422 0
M  V30 4903 H 482.463 5.26583 0.0425612 0
M  V30 4904 H 484.954 3.76053 -0.3732 0
M  V30 4905 H 485.267 7.60326 -1.38291 0
M  V30 4906 H 483.612 6.83906 -1.23685 0
M  V30 4907 H 486.803 4.64904 -0.546045 0
M  V30 4908 H 486.976 6.40139 -1.00626 0
M  V30 4909 N 480.382 0.0267497 1.57577 0
M  V30 4910 C 481.329 -0.955894 2.10075 0
M  V30 4911 C 482.299 -1.32453 1.00226 0
M  V30 4912 O 483.484 -1.41826 1.27632 0
M  V30 4913 C 480.624 -2.2338 2.6305 0
M  V30 4914 C 479.737 -1.92183 3.86898 0
M  V30 4915 C 478.872 -3.14251 4.28275 0
M  V30 4916 C 477.911 -2.78862 5.44888 0
M  V30 4917 N 477.048 -3.93548 5.81433 0
M  V30 4918 H 481.888 -0.501303 2.93753 0
M  V30 4919 H 479.425 -0.235847 1.45197 0
M  V30 4920 H 481.383 -2.98124 2.91853 0
M  V30 4921 H 480.013 -2.6646 1.82205 0
M  V30 4922 H 479.065 -1.07692 3.64838 0
M  V30 4923 H 480.377 -1.62117 4.7172 0
M  V30 4924 H 479.531 -3.97317 4.58502 0
M  V30 4925 H 478.27 -3.47476 3.42215 0
M  V30 4926 H 477.275 -1.94208 5.14357 0
M  V30 4927 H 478.5 -2.46855 6.32645 0
M  V30 4928 H 476.446 -4.2662 4.98328 0
M  V30 4929 H 476.363 -3.67098 6.6089 0
M  V30 4930 H 477.631 -4.77325 6.16264 0
M  V30 4931 N 481.861 -1.55662 -0.24637 0
M  V30 4932 C 483.108 -1.77519 -0.974335 0
M  V30 4933 C 483.436 -0.591165 -1.85298 0
M  V30 4934 O 482.691 0.425497 -1.91018 0
M  V30 4935 C 482.99 -3.04885 -1.86494 0
M  V30 4936 C 482.656 -4.36209 -1.14161 0
M  V30 4937 C 481.318 -4.71896 -0.941701 0
M  V30 4938 C 483.67 -5.17391 -0.628957 0
M  V30 4939 C 480.998 -5.86299 -0.216852 0
M  V30 4940 C 483.35 -6.32546 0.0824273 0
M  V30 4941 C 482.014 -6.66853 0.293807 0
M  V30 4942 H 481.284 -0.649588 -0.356535 0
M  V30 4943 H 483.931 -1.89934 -0.244394 0
M  V30 4944 H 482.236 -2.87484 -2.66196 0
M  V30 4945 H 483.933 -3.18994 -2.42989 0
M  V30 4946 H 480.523 -4.08174 -1.30736 0
M  V30 4947 H 484.707 -4.90276 -0.770943 0
M  V30 4948 H 479.963 -6.11385 -0.0426124 0
M  V30 4949 H 484.137 -6.94693 0.487292 0
M  V30 4950 H 481.764 -7.55349 0.857428 0
M  V30 4951 N 483.339 0.512053 -1.4905 0
M  V30 4952 C 484.75 1.09376 -1.51307 0
M  V30 4953 C 485.101 1.94 -0.292971 0
M  V30 4954 O 484.226 2.07965 0.598277 0
M  V30 4955 C 484.821 1.99031 -2.74176 0
M  V30 4956 C 483.38 2.52385 -2.79247 0
M  V30 4957 C 482.527 1.29749 -2.45073 0
M  V30 4958 H 485.478 0.296467 -1.55906 0
M  V30 4959 H 485.499 2.83569 -2.53711 0
M  V30 4960 H 485.011 1.37412 -3.62959 0
M  V30 4961 H 483.112 3.17673 -1.94716 0
M  V30 4962 H 483.225 2.90293 -3.81139 0
M  V30 4963 H 481.589 1.61912 -1.96612 0
M  V30 4964 H 482.372 0.698555 -3.36118 0
M  V30 4965 N 484.817 1.37938 0.762283 0
M  V30 4966 C 485.764 1.34467 1.87583 0
M  V30 4967 C 486.734 0.208633 1.64785 0
M  V30 4968 O 487.919 0.399494 1.86571 0
M  V30 4969 C 485.059 1.16692 3.24772 0
M  V30 4970 C 484.172 2.39608 3.59461 0
M  V30 4971 C 483.307 2.14631 4.85908 0
M  V30 4972 C 482.346 3.33364 5.13357 0
M  V30 4973 N 481.483 3.07877 6.30996 0
M  V30 4974 H 486.323 2.29669 1.89885 0
M  V30 4975 H 483.86 1.14116 0.928219 0
M  V30 4976 H 485.818 1.04405 4.03925 0
M  V30 4977 H 484.448 0.251333 3.2182 0
M  V30 4978 H 483.5 2.626 2.75219 0
M  V30 4979 H 484.812 3.28128 3.75678 0
M  V30 4980 H 483.966 1.99429 5.72986 0
M  V30 4981 H 482.705 1.23463 4.71814 0
M  V30 4982 H 481.71 3.49094 4.24751 0
M  V30 4983 H 482.935 4.25395 5.29354 0
M  V30 4984 H 480.881 2.19348 6.18241 0
M  V30 4985 H 480.798 3.89944 6.47673 0
M  V30 4986 H 482.066 2.96313 7.20985 0
M  V30 4987 N 486.295 -0.989507 1.22664 0
M  V30 4988 C 487.542 -1.72953 1.05325 0
M  V30 4989 C 487.87 -1.90104 -0.411168 0
M  V30 4990 O 487.125 -1.44386 -1.32103 0
M  V30 4991 C 487.424 -3.13649 1.71345 0
M  V30 4992 C 487.09 -3.16403 3.21248 0
M  V30 4993 C 485.752 -3.16862 3.62149 0
M  V30 4994 C 488.104 -3.12428 4.17179 0
M  V30 4995 C 485.432 -3.11051 4.97458 0
M  V30 4996 C 487.784 -3.08159 5.52468 0
M  V30 4997 C 486.448 -3.06935 5.92746 0
M  V30 4998 H 485.718 -0.632881 0.385412 0
M  V30 4999 H 488.365 -1.15863 1.52473 0
M  V30 5000 H 486.67 -3.74069 1.16532 0
M  V30 5001 H 488.367 -3.69658 1.55416 0
M  V30 5002 H 484.957 -3.16798 2.88682 0
M  V30 5003 H 489.141 -3.11221 3.86595 0
M  V30 5004 H 484.397 -3.0845 5.27891 0
M  V30 5005 H 488.571 -3.04039 6.26525 0
M  V30 5006 H 486.198 -3.02186 6.97558 0
M  V30 5007 N 487.773 -1.03688 -1.18687 0
M  V30 5008 C 489.019 -0.739123 -1.88851 0
M  V30 5009 C 489.352 0.731042 -1.79915 0
M  V30 5010 O 488.627 1.53313 -1.19688 0
M  V30 5011 C 488.91 -1.20106 -3.3948 0
M  V30 5012 C 488.763 -2.73304 -3.57246 0
M  V30 5013 C 490.082 -0.788134 -4.32986 0
M  V30 5014 H 487.201 -0.269978 -0.68577 0
M  V30 5015 H 489.843 -1.28822 -1.3966 0
M  V30 5016 H 487.993 -0.733915 -3.81505 0
M  V30 5017 H 489.665 -3.28027 -3.24339 0
M  V30 5018 H 487.908 -3.13313 -3.00029 0
M  V30 5019 H 488.579 -3.00684 -4.62918 0
M  V30 5020 H 491.055 -1.19005 -3.98719 0
M  V30 5021 H 489.931 -1.13915 -5.36949 0
M  V30 5022 H 490.192 0.308988 -4.41019 0
M  V30 5023 N 489.251 1.34841 -0.815825 0
M  V30 5024 C 490.476 2.03261 -0.41226 0
M  V30 5025 C 490.901 1.61055 0.971751 0
M  V30 5026 O 490.259 0.7917 1.63101 0
M  V30 5027 C 490.307 3.56914 -0.514289 0
M  V30 5028 O 489.411 4.09728 0.468675 0
M  V30 5029 H 488.752 0.641664 -0.170771 0
M  V30 5030 H 491.282 1.72241 -1.10427 0
M  V30 5031 H 491.292 4.06156 -0.387457 0
M  V30 5032 H 489.967 3.86982 -1.52375 0
M  V30 5033 H 488.544 3.71681 0.301316 0
M  V30 5034 N 490.729 0.570148 1.46925 0
M  V30 5035 C 491.676 -0.170257 2.30171 0
M  V30 5036 C 492.646 -0.896099 1.39855 0
M  V30 5037 O 493.831 -0.889248 1.68811 0
M  V30 5038 C 490.971 -1.18605 3.24079 0
M  V30 5039 C 490.084 -0.464947 4.29491 0
M  V30 5040 C 489.219 -1.46716 5.10537 0
M  V30 5041 C 488.258 -0.731758 6.0771 0
M  V30 5042 N 487.395 -1.68142 6.81669 0
M  V30 5043 H 492.235 0.545713 2.92961 0
M  V30 5044 H 489.772 0.280938 1.44392 0
M  V30 5045 H 491.73 -1.78771 3.76957 0
M  V30 5046 H 490.36 -1.86989 2.63125 0
M  V30 5047 H 489.412 0.251506 3.79568 0
M  V30 5048 H 490.724 0.110548 4.98677 0
M  V30 5049 H 489.878 -2.14199 5.6763 0
M  V30 5050 H 488.617 -2.07658 4.41282 0
M  V30 5051 H 487.622 -0.0430787 5.49783 0
M  V30 5052 H 488.847 -0.127904 6.7898 0
M  V30 5053 H 486.793 -2.27918 6.15134 0
M  V30 5054 H 486.71 -1.15841 7.47072 0
M  V30 5055 H 487.978 -2.347 7.43328 0
M  V30 5056 N 492.207 -1.54576 0.307264 0
M  V30 5057 C 493.117 -2.27435 -0.57536 0
M  V30 5058 C 494.133 -1.31183 -1.14311 0
M  V30 5059 O 495.309 -1.64175 -1.16656 0
M  V30 5060 C 492.374 -3.00566 -1.72803 0
M  V30 5061 C 491.435 -4.12369 -1.19373 0
M  V30 5062 C 490.668 -4.82003 -2.29147 0
M  V30 5063 O 490.891 -4.51038 -3.49171 0
M  V30 5064 O 489.825 -5.69271 -1.95485 0
M  V30 5065 H 493.651 -3.03696 0.0158558 0
M  V30 5066 H 491.236 -1.49219 0.0735064 0
M  V30 5067 H 493.118 -3.46416 -2.39946 0
M  V30 5068 H 491.793 -2.27195 -2.30574 0
M  V30 5069 H 490.7 -3.70905 -0.487851 0
M  V30 5070 H 492.033 -4.87736 -0.661376 0
M  V30 5071 N 493.685 -0.035106 -1.57561 0
M  V30 5072 C 494.618 0.979673 -2.06101 0
M  V30 5073 C 495.596 1.31378 -0.958046 0
M  V30 5074 O 496.78 1.42942 -1.22881 0
M  V30 5075 C 493.907 2.29809 -2.48808 0
M  V30 5076 C 492.953 2.11817 -3.70184 0
M  V30 5077 S 493.786 1.41143 -5.16565 0
M  V30 5078 C 494.942 2.74341 -5.62572 0
M  V30 5079 H 495.175 0.566506 -2.91853 0
M  V30 5080 H 492.708 0.176744 -1.53385 0
M  V30 5081 H 494.666 3.056 -2.74078 0
M  V30 5082 H 493.327 2.68257 -1.63392 0
M  V30 5083 H 492.52 3.09299 -3.97933 0
M  V30 5084 H 492.122 1.44168 -3.45097 0
M  V30 5085 H 494.414 3.70562 -5.67177 0
M  V30 5086 H 495.357 2.51249 -6.62027 0
M  V30 5087 H 495.765 2.79863 -4.90242 0
M  V30 5088 N 495.163 1.55791 0.238111 0
M  V30 5089 C 496.073 1.94196 1.31625 0
M  V30 5090 C 497.089 0.843545 1.52185 0
M  V30 5091 O 498.265 1.1457 1.65637 0
M  V30 5092 C 495.33 2.2365 2.64918 0
M  V30 5093 C 494.391 3.46971 2.52804 0
M  V30 5094 C 493.624 3.7501 3.79741 0
M  V30 5095 O 493.847 3.04982 4.82019 0
M  V30 5096 O 492.781 4.68525 3.77846 0
M  V30 5097 H 496.607 2.86044 1.02043 0
M  V30 5098 H 494.192 1.42786 0.439603 0
M  V30 5099 H 496.074 2.43863 3.4367 0
M  V30 5100 H 494.749 1.34979 2.94215 0
M  V30 5101 H 493.656 3.32055 1.72309 0
M  V30 5102 H 494.989 4.35971 2.28451 0
M  V30 5103 N 496.642 -0.504142 1.49319 0
M  V30 5104 C 497.59 -1.62689 1.66238 0
M  V30 5105 C 498.584 -1.6095 0.528349 0
M  V30 5106 O 499.79 -1.65496 0.707887 0
M  V30 5107 H 496.165 -0.539247 0.524134 0
M  V30 5108 H 498.136 -1.45571 2.60484 0
M  V30 5109 C 496.885 -3.00841 1.74328 0
M  V30 5110 H 496.208 -3.02884 2.60963 0
M  V30 5111 H 497.648 -3.78945 1.90202 0
M  V30 5112 C 496.107 -3.33355 0.487416 0
M  V30 5113 O 496.637 -3.99819 -0.388294 0
M  V30 5114 N 494.843 -2.88469 0.351306 0
M  V30 5115 H 494.39 -2.34557 1.06492 0
M  V30 5116 H 494.348 -3.10591 -0.487899 0
M  V30 5117 N 498.12 -1.38341 -0.754957 0
M  V30 5118 C 499.053 -1.29837 -1.87663 0
M  V30 5119 C 500.031 -0.175659 -1.61648 0
M  V30 5120 O 501.215 -0.352745 -1.8517 0
M  V30 5121 C 498.342 -1.01141 -3.23246 0
M  V30 5122 C 497.388 -2.15331 -3.6815 0
M  V30 5123 S 498.221 -3.77459 -3.79849 0
M  V30 5124 C 499.377 -3.50948 -5.18253 0
M  V30 5125 H 499.61 -2.24771 -1.9459 0
M  V30 5126 H 497.143 -1.24161 -0.917796 0
M  V30 5127 H 499.101 -0.852687 -4.01546 0
M  V30 5128 H 497.762 -0.0792784 -3.14 0
M  V30 5129 H 496.955 -1.90795 -4.6649 0
M  V30 5130 H 496.557 -2.27304 -2.97 0
M  V30 5131 H 498.849 -3.06977 -6.03963 0
M  V30 5132 H 499.792 -4.48677 -5.47809 0
M  V30 5133 H 500.2 -2.85492 -4.86985 0
M  V30 5134 N 499.598 0.982988 -1.23187 0
M  V30 5135 C 500.828 1.75666 -1.08743 0
M  V30 5136 C 501.236 1.85662 0.364195 0
M  V30 5137 O 500.579 1.33317 1.26382 0
M  V30 5138 C 500.641 3.20144 -1.63549 0
M  V30 5139 C 500.305 3.33665 -3.12277 0
M  V30 5140 C 501.302 3.20194 -4.096 0
M  V30 5141 C 498.987 3.58397 -3.51933 0
M  V30 5142 C 500.981 3.31256 -5.44563 0
M  V30 5143 C 498.668 3.69098 -4.87042 0
M  V30 5144 C 499.666 3.55537 -5.83166 0
M  V30 5145 O 499.354 3.65864 -7.1582 0
M  V30 5146 H 499.086 0.558194 -0.381307 0
M  V30 5147 H 501.64 1.24387 -1.63454 0
M  V30 5148 H 499.87 3.72659 -1.03256 0
M  V30 5149 H 501.559 3.79262 -1.4462 0
M  V30 5150 H 502.325 3.00987 -3.80305 0
M  V30 5151 H 498.204 3.68025 -2.77631 0
M  V30 5152 H 501.748 3.20588 -6.19572 0
M  V30 5153 H 497.645 3.87814 -5.16014 0
M  V30 5154 H 498.413 3.82675 -7.23534 0
M  V30 5155 N 501.076 1.04316 1.18135 0
M  V30 5156 C 502.325 0.74319 1.87509 0
M  V30 5157 C 502.638 -0.732136 1.81381 0
M  V30 5158 O 503.844 -1.14572 2.46141 0
M  V30 5159 C 502.3 1.27913 3.36402 0
M  V30 5160 C 501.908 2.78326 3.51053 0
M  V30 5161 C 503.652 1.0558 4.11161 0
M  V30 5162 C 501.559 3.25266 4.93919 0
M  V30 5163 H 500.489 0.274313 0.702331 0
M  V30 5164 H 503.14 1.25931 1.33467 0
M  V30 5165 H 501.522 0.690853 3.89927 0
M  V30 5166 H 502.696 3.42933 3.07788 0
M  V30 5167 H 501.011 2.991 2.89704 0
M  V30 5168 H 503.608 1.38161 5.16542 0
M  V30 5169 H 503.951 -0.00684729 4.16299 0
M  V30 5170 H 504.484 1.60882 3.63816 0
M  V30 5171 H 501.223 4.30922 4.9395 0
M  V30 5172 H 500.743 2.65396 5.3789 0
M  V30 5173 H 502.422 3.19433 5.62647 0
M  V30 5174 N 502.554 -1.34406 0.822964 0
M  V30 5175 C 503.464 -2.33298 0.246838 0
M  V30 5176 C 504.48 -1.62625 -0.618797 0
M  V30 5177 O 505.656 -1.94391 -0.526685 0
M  V30 5178 C 502.721 -3.41785 -0.581731 0
M  V30 5179 C 501.782 -4.28206 0.306309 0
M  V30 5180 C 501.015 -5.31512 -0.48281 0
M  V30 5181 O 501.238 -5.43973 -1.71607 0
M  V30 5182 O 500.172 -6.01749 0.134884 0
M  V30 5183 H 503.998 -2.84401 1.06534 0
M  V30 5184 H 501.583 -1.37466 0.585108 0
M  V30 5185 H 503.465 -4.08028 -1.05313 0
M  V30 5186 H 502.14 -2.92925 -1.37756 0
M  V30 5187 H 501.047 -3.64885 0.825199 0
M  V30 5188 H 502.38 -4.80507 1.06649 0
M  V30 5189 N 504.032 -0.577932 -1.46621 0
M  V30 5190 C 504.942 0.160651 -2.34049 0
M  V30 5191 C 505.958 0.890911 -1.49462 0
M  V30 5192 O 507.134 0.855166 -1.82343 0
M  V30 5193 C 504.199 1.16447 -3.26559 0
M  V30 5194 C 503.26 0.4394 -4.27045 0
M  V30 5195 C 502.493 1.3954 -5.15135 0
M  V30 5196 O 502.716 2.63162 -5.06065 0
M  V30 5197 O 501.65 0.908585 -5.95003 0
M  V30 5198 H 505.476 -0.557057 -2.98547 0
M  V30 5199 H 503.061 -0.338369 -1.45518 0
M  V30 5200 H 504.943 1.7434 -3.83645 0
M  V30 5201 H 503.618 1.86373 -2.64663 0
M  V30 5202 H 502.525 -0.181247 -3.73661 0
M  V30 5203 H 503.858 -0.218799 -4.91713 0
M  V30 5204 N 505.51 1.54411 -0.315457 0
M  V30 5205 C 506.44 2.27002 0.547039 0
M  V30 5206 C 507.421 1.27492 1.12605 0
M  V30 5207 O 508.606 1.5629 1.15269 0
M  V30 5208 C 505.736 3.02171 1.71201 0
M  V30 5209 C 504.69 4.0895 1.26268 0
M  V30 5210 C 504.016 4.71915 2.51396 0
M  V30 5211 C 505.316 5.20891 0.383419 0
M  V30 5212 H 507.01 2.99343 -0.0584517 0
M  V30 5213 H 504.556 1.4397 -0.0295527 0
M  V30 5214 H 506.509 3.51681 2.32161 0
M  V30 5215 H 505.233 2.27433 2.34397 0
M  V30 5216 H 503.892 3.60312 0.676062 0
M  V30 5217 H 503.54 3.93801 3.12937 0
M  V30 5218 H 503.24 5.44039 2.22026 0
M  V30 5219 H 504.764 5.24195 3.13133 0
M  V30 5220 H 506.178 5.66206 0.899082 0
M  V30 5221 H 504.575 5.99821 0.182857 0
M  V30 5222 H 505.645 4.81324 -0.587821 0
M  V30 5223 N 506.988 0.0434614 1.5754 0
M  V30 5224 C 507.935 -0.93356 2.11077 0
M  V30 5225 C 508.905 -1.31383 1.01626 0
M  V30 5226 O 510.09 -1.40465 1.29129 0
M  V30 5227 C 507.23 -2.20578 2.65404 0
M  V30 5228 C 506.343 -1.88068 3.88914 0
M  V30 5229 C 505.478 -3.09691 4.31584 0
M  V30 5230 C 504.517 -2.73067 5.47815 0
M  V30 5231 N 503.654 -3.87359 5.85574 0
M  V30 5232 H 508.494 -0.470118 2.94268 0
M  V30 5233 H 506.031 -0.220434 1.45439 0
M  V30 5234 H 507.989 -2.95011 2.94999 0
M  V30 5235 H 506.619 -2.64513 1.85021 0
M  V30 5236 H 505.671 -1.03816 3.6596 0
M  V30 5237 H 506.983 -1.57104 4.73413 0
M  V30 5238 H 506.137 -3.92431 4.62691 0
M  V30 5239 H 504.876 -3.43827 3.45882 0
M  V30 5240 H 503.881 -1.88742 5.16388 0
M  V30 5241 H 505.106 -2.40131 6.35227 0
M  V30 5242 H 503.052 -4.21311 5.02825 0
M  V30 5243 H 502.969 -3.60068 6.64746 0
M  V30 5244 H 504.237 -4.70761 6.21292 0
M  V30 5245 N 508.466 -1.55915 -0.229846 0
M  V30 5246 C 509.691 -1.8296 -0.976743 0
M  V30 5247 C 510.116 -0.622735 -1.77493 0
M  V30 5248 O 509.474 0.428431 -1.76165 0
M  V30 5249 C 509.522 -3.07916 -1.8767 0
M  V30 5250 O 508.626 -2.86028 -2.97088 0
M  V30 5251 H 507.967 -0.603453 -0.277021 0
M  V30 5252 H 510.497 -2.0312 -0.245669 0
M  V30 5253 H 510.507 -3.37802 -2.2881 0
M  V30 5254 H 509.182 -3.95389 -1.28996 0
M  V30 5255 H 507.759 -2.67355 -2.59954 0
M  V30 5256 N 509.944 0.496216 -1.49584 0
M  V30 5257 C 511.169 1.27865 -1.63295 0
M  V30 5258 C 511.594 1.85592 -0.306156 0
M  V30 5259 O 510.952 1.66092 0.726851 0
M  V30 5260 C 511 2.38128 -2.7079 0
M  V30 5261 O 510.104 3.42108 -2.30296 0
M  V30 5262 H 509.445 0.377279 -0.546403 0
M  V30 5263 H 511.975 0.593497 -1.95803 0
M  V30 5264 H 511.985 2.8382 -2.93104 0
M  V30 5265 H 510.66 1.95479 -3.67098 0
M  V30 5266 H 509.237 3.02301 -2.18331 0
M  V30 5267 N 511.423 1.38739 0.74761 0
M  V30 5268 C 512.669 1.35475 1.50912 0
M  V30 5269 C 513.002 -0.0533093 1.94127 0
M  V30 5270 O 512.277 -1.01572 1.65871 0
M  V30 5271 C 512.56 2.31582 2.75757 0
M  V30 5272 C 512.413 3.81274 2.38642 0
M  V30 5273 C 513.732 2.25722 3.77806 0
M  V30 5274 H 510.851 0.493427 0.547447 0
M  V30 5275 H 513.493 1.69634 0.855823 0
M  V30 5276 H 511.643 2.02582 3.31501 0
M  V30 5277 H 513.315 4.20972 1.88626 0
M  V30 5278 H 511.558 3.98664 1.71025 0
M  V30 5279 H 512.229 4.4399 3.27989 0
M  V30 5280 H 514.705 2.51336 3.31616 0
M  V30 5281 H 513.581 2.95069 4.62845 0
M  V30 5282 H 513.842 1.25803 4.23823 0
M  V30 5283 N 512.901 -0.976442 1.23707 0
M  V30 5284 C 513.849 -2.09078 1.01927 0
M  V30 5285 C 514.843 -1.69345 -0.0430193 0
M  V30 5286 O 516.049 -1.79659 0.110814 0
M  V30 5287 H 512.424 -0.68398 0.312531 0
M  V30 5288 H 514.395 -2.24614 1.96447 0
M  V30 5289 C 513.144 -3.41919 0.631385 0
M  V30 5290 H 512.467 -3.72946 1.44053 0
M  V30 5291 H 513.907 -4.20817 0.518532 0
M  V30 5292 C 512.366 -3.30357 -0.660723 0
M  V30 5293 O 512.896 -3.63542 -1.70881 0
M  V30 5294 N 511.102 -2.83507 -0.638139 0
M  V30 5295 H 510.649 -2.567 0.215108 0
M  V30 5296 H 510.607 -2.76153 -1.50289 0
M  V30 5297 N 514.379 -1.04941 -1.1758 0
M  V30 5298 C 515.309 -0.669172 -2.23706 0
M  V30 5299 C 516.29 0.331835 -1.66832 0
M  V30 5300 O 517.475 0.209988 -1.93061 0
M  V30 5301 C 514.605 -0.0404889 -3.47276 0
M  V30 5302 C 513.559 -0.965983 -4.16957 0
M  V30 5303 C 512.885 -0.201312 -5.34321 0
M  V30 5304 C 514.185 -2.28902 -4.69469 0
M  V30 5305 H 515.879 -1.55639 -2.55767 0
M  V30 5306 H 513.425 -0.749793 -1.22939 0
M  V30 5307 H 515.378 0.237298 -4.20731 0
M  V30 5308 H 514.102 0.881658 -3.14475 0
M  V30 5309 H 512.761 -1.22829 -3.45411 0
M  V30 5310 H 512.409 0.723519 -4.97769 0
M  V30 5311 H 512.109 -0.817968 -5.81879 0
M  V30 5312 H 513.633 0.0692499 -6.10561 0
M  V30 5313 H 515.047 -2.07132 -5.34574 0
M  V30 5314 H 513.444 -2.85942 -5.27596 0
M  V30 5315 H 514.514 -2.92937 -3.86414 0
M  V30 5316 N 515.857 1.33968 -0.830081 0
M  V30 5317 C 516.787 2.31911 -0.271911 0
M  V30 5318 C 517.768 1.58571 0.61556 0
M  V30 5319 O 518.953 1.86514 0.540946 0
M  V30 5320 C 516.083 3.42737 0.561146 0
M  V30 5321 C 515.037 4.27383 -0.229789 0
M  V30 5322 C 514.363 5.29742 0.726463 0
M  V30 5323 C 515.663 5.02 -1.44197 0
M  V30 5324 H 517.357 2.78844 -1.09025 0
M  V30 5325 H 514.903 1.34061 -0.52571 0
M  V30 5326 H 516.856 4.10276 0.961867 0
M  V30 5327 H 515.58 2.94471 1.41261 0
M  V30 5328 H 514.239 3.61456 -0.611964 0
M  V30 5329 H 513.887 4.77736 1.57408 0
M  V30 5330 H 513.587 5.87255 0.20142 0
M  V30 5331 H 515.111 6.00149 1.12489 0
M  V30 5332 H 516.525 5.62355 -1.11488 0
M  V30 5333 H 514.922 5.69122 -1.90317 0
M  V30 5334 H 515.992 4.31281 -2.2164 0
M  V30 5335 N 517.335 0.585699 1.46312 0
M  V30 5336 C 518.268 -0.194257 2.27372 0
M  V30 5337 C 519.246 -0.894116 1.3581 0
M  V30 5338 O 520.43 -0.907402 1.65222 0
M  V30 5339 C 517.557 -1.27901 3.13622 0
M  V30 5340 C 516.603 -0.684666 4.20969 0
M  V30 5341 S 517.436 0.490745 5.33247 0
M  V30 5342 C 518.592 -0.595137 6.23064 0
M  V30 5343 H 518.825 0.493515 2.93175 0
M  V30 5344 H 516.358 0.372666 1.49835 0
M  V30 5345 H 518.316 -1.90008 3.63878 0
M  V30 5346 H 516.977 -1.93875 2.47126 0
M  V30 5347 H 516.17 -1.50015 4.81156 0
M  V30 5348 H 515.772 -0.139204 3.73741 0
M  V30 5349 H 518.064 -1.48002 6.61137 0
M  V30 5350 H 519.007 -0.0299446 7.08094 0
M  V30 5351 H 519.415 -0.900627 5.57269 0
M  V30 5352 N 518.813 -1.54241 0.323641 0
M  V30 5353 C 519.776 -2.22997 -0.529602 0
M  V30 5354 C 520.776 -1.22345 -1.04347 0
M  V30 5355 O 521.966 -1.46924 -0.935889 0
M  V30 5356 C 519.098 -2.93409 -1.73562 0
M  V30 5357 H 520.291 -2.99815 0.0714518 0
M  V30 5358 H 517.844 -1.56121 0.0747258 0
M  V30 5359 H 518.579 -2.20729 -2.37591 0
M  V30 5360 H 518.364 -3.67217 -1.37456 0
M  V30 5361 H 519.854 -3.45794 -2.34128 0
M  V30 5362 N 520.291 -0.0518155 -1.57515 0
M  V30 5363 C 521.239 0.940195 -2.12751 0
M  V30 5364 C 522.233 1.3218 -1.05948 0
M  V30 5365 O 523.439 1.30138 -1.24355 0
M  V30 5366 H 519.814 0.321066 -0.680015 0
M  V30 5367 H 521.785 0.449217 -2.94999 0
M  V30 5368 C 520.534 2.2055 -2.68799 0
M  V30 5369 H 519.857 1.92066 -3.50643 0
M  V30 5370 H 521.297 2.88119 -3.11068 0
M  V30 5371 C 519.756 2.95061 -1.62605 0
M  V30 5372 O 520.286 3.88025 -1.03921 0
M  V30 5373 N 518.492 2.57804 -1.34111 0
M  V30 5374 H 518.039 1.82281 -1.8202 0
M  V30 5375 H 517.997 3.07964 -0.632872 0
M  V30 5376 N 521.769 1.56035 0.221574 0
M  V30 5377 C 522.699 1.95434 1.2778 0
M  V30 5378 C 523.68 0.822564 1.48889 0
M  V30 5379 O 524.865 1.08486 1.61072 0
M  V30 5380 C 521.995 2.27102 2.62759 0
M  V30 5381 C 520.949 3.4277 2.56306 0
M  V30 5382 C 520.275 3.60043 3.95314 0
M  V30 5383 C 521.575 4.77742 2.11093 0
M  V30 5384 H 523.269 2.83912 0.950504 0
M  V30 5385 H 520.815 1.36596 0.455791 0
M  V30 5386 H 522.768 2.53256 3.36807 0
M  V30 5387 H 521.492 1.35478 2.97176 0
M  V30 5388 H 520.151 3.16664 1.84715 0
M  V30 5389 H 519.799 2.65794 4.27039 0
M  V30 5390 H 519.499 4.37841 3.91879 0
M  V30 5391 H 521.023 3.88545 4.71025 0
M  V30 5392 H 522.437 5.03102 2.74885 0
M  V30 5393 H 520.834 5.58823 2.18716 0
M  V30 5394 H 521.904 4.731 1.06321 0
M  V30 5395 N 523.247 -0.488276 1.49845 0
M  V30 5396 C 524.157 -1.61451 1.70207 0
M  V30 5397 C 525.173 -1.63877 0.584846 0
M  V30 5398 O 526.349 -1.82063 0.861107 0
M  V30 5399 C 523.414 -2.9776 1.77594 0
M  V30 5400 C 522.475 -3.05861 3.01243 0
M  V30 5401 C 521.708 -4.35668 3.08268 0
M  V30 5402 O 521.931 -5.25197 2.22541 0
M  V30 5403 O 520.865 -4.49005 4.00847 0
M  V30 5404 H 524.691 -1.47199 2.65643 0
M  V30 5405 H 522.276 -0.665939 1.33737 0
M  V30 5406 H 524.158 -3.7875 1.84732 0
M  V30 5407 H 522.833 -3.12248 0.8534 0
M  V30 5408 H 521.74 -2.24012 2.99616 0
M  V30 5409 H 523.073 -2.96304 3.9302 0
M  V30 5410 N 524.725 -1.39134 -0.740242 0
M  V30 5411 C 525.95 -1.39518 -1.53459 0
M  V30 5412 C 526.375 0.00968883 -1.88098 0
M  V30 5413 O 525.733 0.995312 -1.51536 0
M  V30 5414 C 525.781 -2.26981 -2.802 0
M  V30 5415 O 524.885 -1.69609 -3.75908 0
M  V30 5416 H 524.226 -0.475328 -0.463637 0
M  V30 5417 H 526.756 -1.83064 -0.913717 0
M  V30 5418 H 526.766 -2.41309 -3.28989 0
M  V30 5419 H 525.441 -3.29081 -2.5432 0
M  V30 5420 H 524.018 -1.64495 -3.34658 0
M  V30 5421 N 526.204 0.969867 -1.24223 0
M  V30 5422 C 527.137 2.06279 -0.975926 0
M  V30 5423 C 528.115 1.62353 0.0895385 0
M  V30 5424 O 529.299 1.88442 -0.0469418 0
M  V30 5425 C 526.426 3.35391 -0.472315 0
M  V30 5426 C 525.472 3.98266 -1.526 0
M  V30 5427 S 526.305 4.36172 -3.10667 0
M  V30 5428 C 527.461 5.68423 -2.62003 0
M  V30 5429 H 527.694 2.28551 -1.90137 0
M  V30 5430 H 525.227 1.10748 -1.07584 0
M  V30 5431 H 527.185 4.10068 -0.188376 0
M  V30 5432 H 525.846 3.1111 0.432378 0
M  V30 5433 H 525.039 4.91307 -1.12399 0
M  V30 5434 H 524.641 3.30009 -1.75983 0
M  V30 5435 H 526.933 6.45842 -2.0468 0
M  V30 5436 H 527.876 6.13478 -3.53625 0
M  V30 5437 H 528.284 5.26928 -2.02502 0
M  V30 5438 N 527.682 1.05563 1.17022 0
M  V30 5439 C 529.093 0.793475 1.69 0
M  V30 5440 C 529.444 -0.683882 1.83895 0
M  V30 5441 O 528.569 -1.53116 1.5292 0
M  V30 5442 C 529.164 1.43376 3.06967 0
M  V30 5443 C 527.723 1.21956 3.56095 0
M  V30 5444 C 526.87 1.51494 2.3226 0
M  V30 5445 H 529.821 1.22008 1.01487 0
M  V30 5446 H 529.842 0.845068 3.70997 0
M  V30 5447 H 529.354 2.50899 2.96093 0
M  V30 5448 H 527.455 0.163749 3.7224 0
M  V30 5449 H 527.568 1.92713 4.38633 0
M  V30 5450 H 525.932 0.935175 2.3691 0
M  V30 5451 H 526.715 2.60159 2.23992 0
M  V30 5452 N 529.16 -1.33526 0.837174 0
M  V30 5453 C 530.406 -1.9813 0.432704 0
M  V30 5454 C 530.739 -1.66168 -1.00508 0
M  V30 5455 O 530.014 -0.94069 -1.70239 0
M  V30 5456 C 530.297 -3.54151 0.651834 0
M  V30 5457 C 530.15 -3.95806 2.13676 0
M  V30 5458 C 531.469 -4.39993 0.0968937 0
M  V30 5459 H 528.588 -0.719713 0.15869 0
M  V30 5460 H 531.23 -1.58193 1.05237 0
M  V30 5461 H 529.38 -3.88301 0.124369 0
M  V30 5462 H 531.052 -3.71921 2.72896 0
M  V30 5463 H 529.295 -3.45599 2.62191 0
M  V30 5464 H 529.966 -5.0447 2.24084 0
M  V30 5465 H 532.442 -4.12479 0.547733 0
M  V30 5466 H 531.318 -5.48186 0.279917 0
M  V30 5467 H 531.579 -4.3066 -0.9992 0
M  V30 5468 N 530.638 -0.59345 -1.46 0
M  V30 5469 C 531.863 -0.0872365 -2.07216 0
M  V30 5470 C 532.288 1.2131 -1.43755 0
M  V30 5471 O 531.646 1.73528 -0.525152 0
M  V30 5472 C 531.694 0.0538197 -3.6056 0
M  V30 5473 O 530.798 1.10765 -3.97247 0
M  V30 5474 H 530.139 -0.0676598 -0.660544 0
M  V30 5475 H 532.669 -0.819445 -1.87473 0
M  V30 5476 H 532.679 0.256567 -4.07193 0
M  V30 5477 H 531.354 -0.895739 -4.0614 0
M  V30 5478 H 529.931 0.882501 -3.62307 0
M  V30 5479 N 532.116 1.54067 -0.331816 0
M  V30 5480 C 533.063 2.24623 0.530372 0
M  V30 5481 C 534.033 1.24009 1.10503 0
M  V30 5482 O 535.218 1.52712 1.14384 0
M  V30 5483 C 532.358 3.01374 1.68129 0
M  V30 5484 C 531.471 4.16821 1.13507 0
M  V30 5485 C 530.606 4.81085 2.25234 0
M  V30 5486 C 529.645 5.88621 1.67903 0
M  V30 5487 N 528.782 6.46713 2.73326 0
M  V30 5488 H 533.622 2.97898 -0.0778607 0
M  V30 5489 H 531.159 1.47014 -0.0501965 0
M  V30 5490 H 533.117 3.44125 2.35868 0
M  V30 5491 H 531.747 2.30419 2.26069 0
M  V30 5492 H 530.799 3.78796 0.348979 0
M  V30 5493 H 532.111 4.94203 0.675633 0
M  V30 5494 H 531.265 5.26846 3.00862 0
M  V30 5495 H 530.004 4.03102 2.74518 0
M  V30 5496 H 529.009 5.42254 0.907773 0
M  V30 5497 H 530.234 6.68506 1.19487 0
M  V30 5498 H 528.18 5.71599 3.21886 0
M  V30 5499 H 528.097 7.19532 2.3197 0
M  V30 5500 H 529.365 6.97129 3.48758 0
M  V30 5501 N 533.594 0.0601682 1.57485 0
M  V30 5502 C 534.842 -0.610386 1.92662 0
M  V30 5503 C 535.163 -1.70849 0.939981 0
M  V30 5504 O 534.433 -1.95895 -0.0137455 0
M  V30 5505 H 533.013 -0.228457 0.711208 0
M  V30 5506 H 535.675 0.115288 1.94559 0
M  V30 5507 H 534.771 -1.0432 2.94149 0
M  V30 5508 N 535.072 -1.5615 -0.213296 0
M  V30 5509 C 536.32 -1.79191 -0.934612 0
M  V30 5510 C 536.641 -0.630112 -1.84539 0
M  V30 5511 O 535.911 0.35257 -1.92701 0
M  V30 5512 H 534.491 -0.660937 -0.348097 0
M  V30 5513 H 537.153 -1.93618 -0.22317 0
M  V30 5514 H 536.249 -2.71656 -1.53654 0
M  V30 5515 N 536.55 0.480323 -1.50102 0
M  V30 5516 C 537.46 1.60547 -1.71061 0
M  V30 5517 C 538.476 1.63564 -0.593529 0
M  V30 5518 O 539.652 1.81604 -0.870751 0
M  V30 5519 C 536.717 2.96814 -1.79171 0
M  V30 5520 C 535.778 3.04259 -3.02861 0
M  V30 5521 C 535.011 4.34027 -3.10574 0
M  V30 5522 O 535.234 5.24009 -2.25323 0
M  V30 5523 O 534.168 4.46873 -4.03223 0
M  V30 5524 H 537.994 1.45788 -2.6642 0
M  V30 5525 H 535.579 0.658838 -1.34088 0
M  V30 5526 H 537.461 3.77765 -1.86738 0
M  V30 5527 H 536.136 3.11791 -0.869947 0
M  V30 5528 H 535.043 2.22419 -3.008 0
M  V30 5529 H 536.376 2.94216 -3.94586 0
M  V30 5530 N 538.028 1.39524 0.732853 0
M  V30 5531 C 539.275 1.36865 1.49246 0
M  V30 5532 C 539.603 -0.0347118 1.94469 0
M  V30 5533 O 538.858 -1.01596 1.67262 0
M  V30 5534 C 539.157 2.28916 2.74468 0
M  V30 5535 C 538.823 3.76506 2.481 0
M  V30 5536 C 537.485 4.16721 2.40619 0
M  V30 5537 C 539.837 4.69846 2.25598 0
M  V30 5538 C 537.165 5.48334 2.08679 0
M  V30 5539 C 539.517 6.01739 1.95174 0
M  V30 5540 C 538.181 6.41015 1.86163 0
M  V30 5541 H 537.451 0.500824 0.546129 0
M  V30 5542 H 540.098 1.72047 0.840958 0
M  V30 5543 H 538.403 1.86859 3.4437 0
M  V30 5544 H 540.1 2.2415 3.32502 0
M  V30 5545 H 536.69 3.44635 2.54803 0
M  V30 5546 H 540.874 4.39608 2.30344 0
M  V30 5547 H 536.13 5.77685 2.00226 0
M  V30 5548 H 540.304 6.73591 1.76771 0
M  V30 5549 H 537.931 7.42917 1.61179 0
M  V30 5550 N 539.506 -0.963266 1.24736 0
M  V30 5551 C 540.453 -2.05857 1.04363 0
M  V30 5552 C 541.423 -1.6604 -0.0444951 0
M  V30 5553 O 542.608 -1.90477 0.110999 0
M  V30 5554 C 539.748 -3.38745 0.659235 0
M  V30 5555 C 538.861 -3.9173 1.82131 0
M  V30 5556 C 537.996 -5.12906 1.38208 0
M  V30 5557 C 537.035 -5.58098 2.51382 0
M  V30 5558 N 536.172 -6.7049 2.08295 0
M  V30 5559 H 541.012 -2.22616 1.98107 0
M  V30 5560 H 538.549 -1.09103 0.986661 0
M  V30 5561 H 540.507 -4.15107 0.417371 0
M  V30 5562 H 539.137 -3.21898 -0.241201 0
M  V30 5563 H 538.189 -3.11966 2.17672 0
M  V30 5564 H 539.501 -4.21225 2.67153 0
M  V30 5565 H 538.655 -5.96657 1.09935 0
M  V30 5566 H 537.394 -4.85105 0.502456 0
M  V30 5567 H 536.399 -4.72917 2.80409 0
M  V30 5568 H 537.624 -5.87911 3.39909 0
M  V30 5569 H 535.57 -6.44416 1.22737 0
M  V30 5570 H 535.487 -6.99458 2.86869 0
M  V30 5571 H 536.755 -7.57672 1.83175 0
M  V30 5572 N 540.985 -1.06182 -1.16461 0
M  V30 5573 C 541.915 -0.692861 -2.22984 0
M  V30 5574 C 542.896 0.314122 -1.67174 0
M  V30 5575 O 544.081 0.189499 -1.93273 0
M  V30 5576 C 541.211 -0.07732 -3.47214 0
M  V30 5577 C 540.165 -1.01015 -4.15909 0
M  V30 5578 C 539.491 -0.257973 -5.34077 0
M  V30 5579 C 540.791 -2.33868 -4.67015 0
M  V30 5580 H 542.485 -1.58343 -2.54102 0
M  V30 5581 H 540.031 -0.76279 -1.22137 0
M  V30 5582 H 541.984 0.19266 -4.20959 0
M  V30 5583 H 540.708 0.848254 -3.15392 0
M  V30 5584 H 539.367 -1.26486 -3.44088 0
M  V30 5585 H 539.015 0.670684 -4.98509 0
M  V30 5586 H 538.715 -0.879638 -5.80979 0
M  V30 5587 H 540.239 0.00448788 -6.106 0
M  V30 5588 H 541.653 -2.1279 -5.32347 0
M  V30 5589 H 540.05 -2.91522 -5.24533 0
M  V30 5590 H 541.12 -2.97019 -3.83286 0
M  V30 5591 N 542.463 1.3308 -0.844243 0
M  V30 5592 C 543.395 2.27954 -0.238671 0
M  V30 5593 C 544.408 1.51978 0.583665 0
M  V30 5594 O 545.597 1.73731 0.409857 0
M  V30 5595 C 542.697 3.31963 0.682185 0
M  V30 5596 C 541.87 4.37281 -0.101998 0
M  V30 5597 C 540.929 5.20928 0.743022 0
M  V30 5598 O 539.955 5.68914 0.180285 0
M  V30 5599 N 541.157 5.42738 2.0595 0
M  V30 5600 H 543.922 2.8056 -1.05386 0
M  V30 5601 H 541.483 1.4583 -0.70322 0
M  V30 5602 H 543.475 3.84828 1.25259 0
M  V30 5603 H 542.045 2.79594 1.39808 0
M  V30 5604 H 541.265 3.84843 -0.853802 0
M  V30 5605 H 542.553 5.04746 -0.641015 0
M  V30 5606 H 541.951 5.05463 2.54016 0
M  V30 5607 H 540.508 5.98639 2.57827 0
M  V30 5608 N 543.941 0.601185 1.45683 0
M  V30 5609 C 544.888 -0.121396 2.30481 0
M  V30 5610 C 545.858 -0.866232 1.41724 0
M  V30 5611 O 547.043 -0.85324 1.70659 0
M  V30 5612 C 544.183 -1.11704 3.26521 0
M  V30 5613 C 543.296 -0.373741 4.3038 0
M  V30 5614 C 542.431 -1.35854 5.13534 0
M  V30 5615 C 541.47 -0.602689 6.09126 0
M  V30 5616 N 540.607 -1.53645 6.85082 0
M  V30 5617 H 545.447 0.607732 2.91737 0
M  V30 5618 H 542.984 0.311502 1.43764 0
M  V30 5619 H 544.942 -1.70735 3.80664 0
M  V30 5620 H 543.572 -1.81366 2.67032 0
M  V30 5621 H 542.624 0.331962 3.78949 0
M  V30 5622 H 543.936 0.2163 4.98331 0
M  V30 5623 H 543.09 -2.02111 5.72046 0
M  V30 5624 H 541.829 -1.98251 4.45587 0
M  V30 5625 H 540.834 0.0735482 5.49751 0
M  V30 5626 H 542.059 0.0161467 6.79098 0
M  V30 5627 H 540.005 -2.14819 6.1983 0
M  V30 5628 H 539.922 -0.999688 7.49361 0
M  V30 5629 H 541.19 -2.1888 7.48139 0
M  V30 5630 N 545.419 -1.53889 0.339982 0
M  V30 5631 C 546.349 -2.27843 -0.510856 0
M  V30 5632 C 547.33 -1.29267 -1.10563 0
M  V30 5633 O 548.515 -1.58104 -1.12768 0
M  V30 5634 C 545.645 -3.04857 -1.66372 0
M  V30 5635 C 544.599 -4.10907 -1.19746 0
M  V30 5636 C 543.925 -4.75855 -2.43857 0
M  V30 5637 C 545.225 -5.21435 -0.300501 0
M  V30 5638 H 546.919 -2.99212 0.106067 0
M  V30 5639 H 544.465 -1.43904 0.0524533 0
M  V30 5640 H 546.418 -3.5533 -2.26537 0
M  V30 5641 H 545.142 -2.31133 -2.30749 0
M  V30 5642 H 543.801 -3.61342 -0.618654 0
M  V30 5643 H 543.449 -3.9873 -3.06633 0
M  V30 5644 H 543.149 -5.47502 -2.13343 0
M  V30 5645 H 544.673 -5.2911 -3.04754 0
M  V30 5646 H 546.087 -5.67565 -0.80889 0
M  V30 5647 H 544.484 -6.00036 -0.0874076 0
M  V30 5648 H 545.554 -4.80328 0.664321 0
M  V30 5649 N 546.897 -0.0685191 -1.57451 0
M  V30 5650 C 547.844 0.899861 -2.12535 0
M  V30 5651 C 548.814 1.29749 -1.03703 0
M  V30 5652 O 549.999 1.38392 -1.31348 0
M  V30 5653 C 547.139 2.16328 -2.6888 0
M  V30 5654 C 546.252 1.81857 -3.91857 0
M  V30 5655 C 545.387 3.02786 -4.36457 0
M  V30 5656 C 544.426 2.64317 -5.5209 0
M  V30 5657 N 543.563 3.77994 -5.91663 0
M  V30 5658 H 548.403 0.423243 -2.94979 0
M  V30 5659 H 545.94 0.197268 -1.45771 0
M  V30 5660 H 547.898 2.90281 -2.99655 0
M  V30 5661 H 546.528 2.61536 -1.89206 0
M  V30 5662 H 545.58 0.979808 -3.67565 0
M  V30 5663 H 546.892 1.49553 -4.75852 0
M  V30 5664 H 546.046 3.85021 -4.68875 0
M  V30 5665 H 544.785 3.38281 -3.51308 0
M  V30 5666 H 543.79 1.80503 -5.19325 0
M  V30 5667 H 545.015 2.29995 -6.38967 0
M  V30 5668 H 542.961 4.13258 -5.09464 0
M  V30 5669 H 542.878 3.49447 -6.7039 0
M  V30 5670 H 544.146 4.60818 -6.28703 0
M  V30 5671 N 548.375 1.56261 0.205012 0
M  V30 5672 C 549.791 1.49623 0.555433 0
M  V30 5673 C 549.991 0.766719 1.86343 0
M  V30 5674 O 549.047 0.313158 2.50551 0
M  V30 5675 C 550.36 2.94253 0.619347 0
M  V30 5676 C 551.908 3.04868 0.708855 0
M  V30 5677 C 552.383 4.50888 0.803969 0
M  V30 5678 N 553.874 4.54999 0.867758 0
M  V30 5679 C 554.609 5.65284 0.96135 0
M  V30 5680 N 554.105 6.85282 1.01786 0
M  V30 5681 N 555.898 5.53174 0.997771 0
M  V30 5682 H 548.049 2.0211 -0.653094 0
M  V30 5683 H 550.312 0.919333 -0.231366 0
M  V30 5684 H 550.018 3.50643 -0.272458 0
M  V30 5685 H 549.892 3.47063 1.47741 0
M  V30 5686 H 552.279 2.48532 1.5911 0
M  V30 5687 H 552.36 2.55199 -0.175205 0
M  V30 5688 H 552.004 5.07846 -0.0738798 0
M  V30 5689 H 551.934 4.98279 1.70369 0
M  V30 5690 H 554.425 3.68588 0.833735 0
M  V30 5691 H 554.738 7.65081 1.08951 0
M  V30 5692 H 553.083 6.8796 0.986706 0
M  V30 5693 H 556.274 4.5835 0.950392 0
M  V30 5694 H 556.447 6.39151 1.06725 0
M  V30 5695 N 549.853 -0.472356 1.50355 0
M  V30 5696 C 551.078 -1.25251 1.65309 0
M  V30 5697 C 551.503 -1.85081 0.335643 0
M  V30 5698 O 550.861 -1.67227 -0.700335 0
M  V30 5699 C 550.909 -2.3379 2.74544 0
M  V30 5700 O 550.013 -3.38401 2.35709 0
M  V30 5701 H 549.354 -0.368539 0.552336 0
M  V30 5702 H 551.884 -0.562271 1.96722 0
M  V30 5703 H 551.894 -2.79121 2.97583 0
M  V30 5704 H 550.569 -1.89614 3.70161 0
M  V30 5705 H 549.146 -2.9879 2.23112 0
M  V30 5706 N 551.331 -1.39911 -0.725443 0
M  V30 5707 C 552.281 -1.35878 -1.83088 0
M  V30 5708 C 553.265 -0.237989 -1.5913 0
M  V30 5709 O 554.457 -0.476302 -1.70471 0
M  V30 5710 C 551.586 -1.21403 -3.21117 0
M  V30 5711 C 550.672 -2.38223 -3.50871 0
M  V30 5712 N 551.063 -3.63703 -3.51502 0
M  V30 5713 C 549.361 -2.31388 -3.81281 0
M  V30 5714 C 550.062 -4.4101 -3.79322 0
M  V30 5715 N 549.038 -3.7072 -3.97577 0
M  V30 5716 H 552.84 -2.3085 -1.81895 0
M  V30 5717 H 550.354 -1.33543 -0.924125 0
M  V30 5718 H 552.351 -1.16597 -4.00263 0
M  V30 5719 H 551.011 -0.273902 -3.23543 0
M  V30 5720 H 552.022 -3.96998 -3.32586 0
M  V30 5721 H 548.699 -1.45689 -3.91256 0
M  V30 5722 H 550.089 -5.49819 -3.86198 0
M  V30 5723 N 552.809 0.956637 -1.25245 0
M  V30 5724 C 553.757 2.0743 -1.0524 0
M  V30 5725 C 554.751 1.69392 0.0160725 0
M  V30 5726 O 555.957 1.7946 -0.139382 0
M  V30 5727 H 552.332 0.678921 -0.323373 0
M  V30 5728 H 554.303 2.2146 -1.99995 0
M  V30 5729 C 553.052 3.40872 -0.685702 0
M  V30 5730 H 552.375 3.70607 -1.49968 0
M  V30 5731 H 553.815 4.19939 -0.585415 0
M  V30 5732 C 552.274 3.31367 0.608082 0
M  V30 5733 O 552.804 3.66214 1.65076 0
M  V30 5734 N 551.01 2.84486 0.592955 0
M  V30 5735 H 550.557 2.56326 -0.25592 0
M  V30 5736 H 550.515 2.78509 1.45877 0
M  V30 5737 N 554.287 1.06798 1.15896 0
M  V30 5738 C 555.25 0.687328 2.18651 0
M  V30 5739 C 556.25 -0.269559 1.58524 0
M  V30 5740 O 557.44 -0.0512627 1.74125 0
M  V30 5741 C 554.572 0.0121642 3.40898 0
M  V30 5742 H 555.765 1.59701 2.53842 0
M  V30 5743 H 553.318 0.863828 1.3026 0
M  V30 5744 H 554.053 -0.910025 3.1127 0
M  V30 5745 H 553.838 0.700309 3.85795 0
M  V30 5746 H 555.328 -0.239703 4.16911 0
M  V30 5747 N 555.766 -1.3263 0.851289 0
M  V30 5748 C 556.991 -2.02097 0.466006 0
M  V30 5749 C 557.416 -1.63574 -0.928709 0
M  V30 5750 O 556.774 -0.834665 -1.60944 0
M  V30 5751 C 556.822 -3.55425 0.608737 0
M  V30 5752 O 555.926 -4.10827 -0.359878 0
M  V30 5753 H 555.267 -0.636911 0.187724 0
M  V30 5754 H 557.797 -1.69253 1.14955 0
M  V30 5755 H 557.807 -4.04986 0.495006 0
M  V30 5756 H 556.482 -3.82806 1.62581 0
M  V30 5757 H 555.059 -3.72349 -0.202666 0
M  V30 5758 N 557.244 -0.608902 -1.45362 0
M  V30 5759 C 558.493 -0.10218 -2.01441 0
M  V30 5760 C 558.806 1.27546 -1.48295 0
M  V30 5761 O 560.012 1.87498 -1.96359 0
M  V30 5762 C 558.468 -0.131985 -3.59658 0
M  V30 5763 C 558.076 -1.50956 -4.21801 0
M  V30 5764 C 559.82 0.319427 -4.23296 0
M  V30 5765 C 557.727 -1.49568 -5.72174 0
M  V30 5766 H 556.657 -0.0344314 -0.753213 0
M  V30 5767 H 559.308 -0.764426 -1.6682 0
M  V30 5768 H 557.69 0.596939 -3.91475 0
M  V30 5769 H 558.864 -2.26029 -4.01556 0
M  V30 5770 H 557.179 -1.90318 -3.70362 0
M  V30 5771 H 559.776 0.349013 -5.3356 0
M  V30 5772 H 560.119 1.34237 -3.94064 0
M  V30 5773 H 560.652 -0.356273 -3.96201 0
M  V30 5774 H 557.391 -2.49626 -6.06108 0
M  V30 5775 H 556.911 -0.787542 -5.94607 0
M  V30 5776 H 558.59 -1.21989 -6.35396 0
M  V30 5777 N 558.722 1.53707 -0.348139 0
M  V30 5778 C 559.971 2.0017 0.247992 0
M  V30 5779 C 560.284 1.23983 1.51286 0
M  V30 5780 O 561.49 1.60946 2.18652 0
M  V30 5781 C 559.946 3.56515 0.492459 0
M  V30 5782 C 559.554 4.41562 -0.756777 0
M  V30 5783 C 561.298 4.11381 1.0472 0
M  V30 5784 C 559.205 5.89426 -0.482856 0
M  V30 5785 H 558.135 0.747806 0.0964452 0
M  V30 5786 H 560.786 1.77532 -0.464179 0
M  V30 5787 H 559.168 3.75236 1.26545 0
M  V30 5788 H 560.342 4.34615 -1.53122 0
M  V30 5789 H 558.657 3.97711 -1.23348 0
M  V30 5790 H 561.254 5.19468 1.26717 0
M  V30 5791 H 561.597 3.64885 2.00411 0
M  V30 5792 H 562.13 3.96389 0.334801 0
M  V30 5793 H 558.869 6.40164 -1.40962 0
M  V30 5794 H 558.389 5.99264 0.253416 0
M  V30 5795 H 560.068 6.4692 -0.101816 0
M  V30 5796 N 560.2 0.0768682 1.57412 0
M  V30 5797 C 561.477 -0.632359 1.85096 0
M  V30 5798 C 561.857 -1.87479 0.9703 0
M  V30 5799 O 561.205 -2.28469 0.0379062 0
M  V30 5800 C 561.415 -0.965174 3.35388 0
M  V30 5801 C 562.763 -1.33648 4.03018 0
M  V30 5802 O 563.787 -1.05675 3.40164 0
M  V30 5803 O 562.646 -1.85959 5.13889 0
M  V30 5804 H 559.74 -0.314574 0.764835 0
M  V30 5805 H 562.286 0.108184 1.69355 0
M  V30 5806 H 561.058 -0.0829745 3.91212 0
M  V30 5807 H 560.681 -1.76231 3.5641 0
M  V30 5808 N 561.678 -1.56367 -0.196722 0
M  V30 5809 C 562.611 -1.89475 -1.2718 0
M  V30 5810 C 563.589 -0.754667 -1.44026 0
M  V30 5811 O 564.773 -1.00551 -1.59442 0
M  V30 5812 C 561.9 -2.12352 -2.63864 0
M  V30 5813 C 560.946 -3.35053 -2.63897 0
M  V30 5814 S 561.779 -4.90228 -2.15492 0
M  V30 5815 C 562.935 -5.16171 -3.54004 0
M  V30 5816 H 563.168 -2.80365 -0.989075 0
M  V30 5817 H 560.701 -1.49125 -0.40014 0
M  V30 5818 H 562.659 -2.26214 -3.42545 0
M  V30 5819 H 561.32 -1.22214 -2.89349 0
M  V30 5820 H 560.513 -3.48182 -3.64397 0
M  V30 5821 H 560.115 -3.20176 -1.93296 0
M  V30 5822 H 562.407 -5.06591 -4.49857 0
M  V30 5823 H 563.35 -6.17938 -3.45771 0
M  V30 5824 H 563.758 -4.43814 -3.48841 0
M  V30 5825 N 563.156 0.464375 -1.50603 0
M  V30 5826 C 564.404 1.21356 -1.61608 0
M  V30 5827 C 564.725 1.92329 -0.321643 0
M  V30 5828 O 563.995 1.84403 0.661232 0
M  V30 5829 H 562.575 0.45094 -0.595535 0
M  V30 5830 H 565.237 0.535046 -1.87412 0
M  V30 5831 H 564.333 1.95783 -2.43054 0
M  V30 5832 N 564.634 1.40294 0.718013 0
M  V30 5833 C 565.544 1.42678 1.86226 0
M  V30 5834 C 566.56 0.319655 1.71039 0
M  V30 5835 O 567.736 0.563852 1.93346 0
M  V30 5836 C 564.801 1.2852 3.21999 0
M  V30 5837 C 563.862 2.49354 3.49458 0
M  V30 5838 C 563.095 2.35863 4.78753 0
M  V30 5839 O 563.318 1.37114 5.53675 0
M  V30 5840 O 562.252 3.25189 5.06494 0
M  V30 5841 H 566.078 2.39167 1.87171 0
M  V30 5842 H 563.663 1.2159 0.868112 0
M  V30 5843 H 565.545 1.22824 4.03103 0
M  V30 5844 H 564.22 0.351359 3.21787 0
M  V30 5845 H 563.127 2.60628 2.68373 0
M  V30 5846 H 564.46 3.41491 3.54464 0
M  V30 5847 N 566.112 -0.949982 1.2575 0
M  V30 5848 C 567.022 -2.08109 1.08295 0
M  V30 5849 C 568.038 -1.7399 0.0188181 0
M  V30 5850 O 569.214 -2.00187 0.220724 0
M  V30 5851 C 566.279 -3.39383 0.708534 0
M  V30 5852 C 565.34 -3.8734 1.85111 0
M  V30 5853 C 564.573 -5.12349 1.49447 0
M  V30 5854 O 564.796 -5.6905 0.392212 0
M  V30 5855 O 563.73 -5.5513 2.32624 0
M  V30 5856 H 567.556 -2.25738 2.03165 0
M  V30 5857 H 565.141 -1.06545 1.04731 0
M  V30 5858 H 567.023 -4.18277 0.512061 0
M  V30 5859 H 565.698 -3.23013 -0.210854 0
M  V30 5860 H 564.605 -3.09429 2.10248 0
M  V30 5861 H 565.938 -4.08216 2.74991 0
M  V30 5862 N 567.59 -1.07411 -1.15328 0
M  V30 5863 C 568.815 -0.818856 -1.90551 0
M  V30 5864 C 569.24 0.622194 -1.77512 0
M  V30 5865 O 568.598 1.43484 -1.10824 0
M  V30 5866 C 568.646 -1.23267 -3.38877 0
M  V30 5867 O 567.75 -0.378345 -4.10661 0
M  V30 5868 H 567.091 -0.29827 -0.593238 0
M  V30 5869 H 569.621 -1.43289 -1.46046 0
M  V30 5870 H 569.631 -1.20912 -3.89672 0
M  V30 5871 H 568.306 -2.28226 -3.47686 0
M  V30 5872 H 566.883 -0.464437 -3.69996 0
M  V30 5873 N 569.068 1.32177 -0.85831 0
M  V30 5874 C 569.978 2.32561 -0.308606 0
M  V30 5875 C 570.994 1.64209 0.575462 0
M  V30 5876 O 572.17 1.95719 0.474961 0
M  V30 5877 C 569.235 3.43207 0.490909 0
M  V30 5878 C 568.296 4.27243 -0.419733 0
M  V30 5879 C 567.529 5.32605 0.341719 0
M  V30 5880 O 567.752 5.48332 1.57125 0
M  V30 5881 O 566.686 6.0118 -0.294379 0
M  V30 5882 H 570.512 2.81477 -1.14037 0
M  V30 5883 H 568.097 1.35866 -0.621349 0
M  V30 5884 H 569.979 4.10677 0.944574 0
M  V30 5885 H 568.654 2.96474 1.29941 0
M  V30 5886 H 567.561 3.62569 -0.921652 0
M  V30 5887 H 568.894 4.7751 -1.19352 0
M  V30 5888 N 570.547 0.616602 1.45037 0
M  V30 5889 C 571.495 -0.109318 2.32343 0
M  V30 5890 C 572.489 -0.850543 1.465 0
M  V30 5891 O 573.695 -0.765088 1.62931 0
M  V30 5892 H 570.07 -0.0541091 0.750051 0
M  V30 5893 H 572.041 0.645326 2.91338 0
M  V30 5894 C 570.79 -1.0872 3.30266 0
M  V30 5895 H 570.113 -0.526267 3.96321 0
M  V30 5896 H 571.553 -1.56489 3.94065 0
M  V30 5897 C 570.012 -2.16525 2.58105 0
M  V30 5898 O 570.542 -3.244 2.36913 0
M  V30 5899 N 568.748 -1.92057 2.18088 0
M  V30 5900 H 568.295 -1.04337 2.35524 0
M  V30 5901 H 568.253 -2.64391 1.70131 0
M  V30 5902 N 572.025 -1.5352 0.356285 0
M  V30 5903 C 572.957 -2.23009 -0.529127 0
M  V30 5904 C 573.97 -1.241 -1.05371 0
M  V30 5905 O 575.159 -1.50379 -0.961679 0
M  V30 5906 C 572.259 -2.90685 -1.74229 0
M  V30 5907 C 571.432 -4.16019 -1.35081 0
M  V30 5908 C 570.491 -4.66989 -2.42502 0
M  V30 5909 O 569.517 -5.30895 -2.05279 0
M  V30 5910 N 570.719 -4.44006 -3.7395 0
M  V30 5911 H 573.484 -2.99627 0.0660501 0
M  V30 5912 H 571.045 -1.60885 0.181014 0
M  V30 5913 H 573.037 -3.21695 -2.4555 0
M  V30 5914 H 571.607 -2.17575 -2.24454 0
M  V30 5915 H 570.827 -3.91414 -0.467833 0
M  V30 5916 H 572.115 -4.9752 -1.06542 0
M  V30 5917 H 571.513 -3.92924 -4.06973 0
M  V30 5918 H 570.07 -4.7959 -4.41403 0
M  V30 5919 N 573.503 -0.0852151 -1.57369 0
M  V30 5920 C 574.433 0.874556 -2.16503 0
M  V30 5921 C 575.414 1.30111 -1.09568 0
M  V30 5922 O 576.599 1.36977 -1.37662 0
M  V30 5923 C 573.729 2.13731 -2.73745 0
M  V30 5924 C 572.683 1.84971 -3.85966 0
M  V30 5925 C 572.009 3.17991 -4.29867 0
M  V30 5926 C 573.309 1.14442 -5.09608 0
M  V30 5927 H 575.003 0.381899 -2.96954 0
M  V30 5928 H 572.549 0.18225 -1.42842 0
M  V30 5929 H 574.502 2.81302 -3.13763 0
M  V30 5930 H 573.226 2.65263 -1.90534 0
M  V30 5931 H 571.885 1.19801 -3.46473 0
M  V30 5932 H 571.533 3.6739 -3.4356 0
M  V30 5933 H 571.233 2.99534 -5.05523 0
M  V30 5934 H 572.757 3.86737 -4.72511 0
M  V30 5935 H 574.171 1.72105 -5.46857 0
M  V30 5936 H 572.568 1.06197 -5.90629 0
M  V30 5937 H 573.638 0.12559 -4.84737 0
M  V30 5938 N 574.981 1.5647 0.188427 0
M  V30 5939 C 576.206 1.85486 0.927891 0
M  V30 5940 C 576.631 0.669575 1.75779 0
M  V30 5941 O 575.989 -0.381573 1.77239 0
M  V30 5942 C 576.037 3.12784 1.7944 0
M  V30 5943 O 575.141 2.93805 2.894 0
M  V30 5944 H 574.482 0.610585 0.260925 0
M  V30 5945 H 577.012 2.037 0.191729 0
M  V30 5946 H 577.022 3.43749 2.19774 0
M  V30 5947 H 575.697 3.98671 1.18468 0
M  V30 5948 H 574.274 2.74153 2.52774 0
M  V30 5949 N 576.459 -0.456382 1.50847 0
M  V30 5950 C 577.406 -1.55249 1.70782 0
M  V30 5951 C 578.376 -1.56757 0.549231 0
M  V30 5952 O 579.561 -1.74061 0.7815 0
M  V30 5953 C 576.701 -2.93118 1.82143 0
M  V30 5954 C 575.814 -3.01285 3.09598 0
M  V30 5955 C 574.949 -4.30159 3.11667 0
M  V30 5956 C 573.988 -4.32124 4.33515 0
M  V30 5957 N 573.125 -5.52492 4.3324 0
M  V30 5958 H 577.965 -1.37555 2.64353 0
M  V30 5959 H 575.502 -0.668543 1.3103 0
M  V30 5960 H 577.46 -3.73088 1.86711 0
M  V30 5961 H 576.09 -3.09413 0.919978 0
M  V30 5962 H 575.142 -2.14096 3.14431 0
M  V30 5963 H 576.454 -2.98597 3.99551 0
M  V30 5964 H 575.608 -5.18489 3.15046 0
M  V30 5965 H 574.347 -4.35477 2.1957 0
M  V30 5966 H 573.352 -3.42189 4.30333 0
M  V30 5967 H 574.577 -4.28485 5.26856 0
M  V30 5968 H 572.523 -5.58567 3.44004 0
M  V30 5969 H 572.44 -5.51605 5.16979 0
M  V30 5970 H 573.708 -6.42906 4.40786 0
M  V30 5971 N 577.937 -1.40673 -0.710563 0
M  V30 5972 C 579.162 -1.42741 -1.50465 0
M  V30 5973 C 579.587 -0.0302116 -1.88076 0
M  V30 5974 O 578.945 0.962945 -1.53613 0
M  V30 5975 C 578.993 -2.32873 -2.75322 0
M  V30 5976 O 578.097 -1.77544 -3.72226 0
M  V30 5977 H 577.438 -0.485056 -0.45345 0
M  V30 5978 H 579.968 -1.84961 -0.874681 0
M  V30 5979 H 579.978 -2.48233 -3.23797 0
M  V30 5980 H 578.653 -3.34401 -2.47283 0
M  V30 5981 H 577.23 -1.71556 -3.31093 0
M  V30 5982 N 579.415 0.9433 -1.26252 0
M  V30 5983 C 580.692 1.66639 -1.02424 0
M  V30 5984 C 581.072 2.06335 0.446006 0
M  V30 5985 O 580.42 1.78551 1.42589 0
M  V30 5986 C 580.63 2.88019 -1.97094 0
M  V30 5987 C 581.978 3.59718 -2.25584 0
M  V30 5988 O 583.002 2.9812 -1.94943 0
M  V30 5989 O 581.861 4.7066 -2.77743 0
M  V30 5990 H 578.955 0.729643 -0.389294 0
M  V30 5991 H 581.501 0.995218 -1.37454 0
M  V30 5992 H 580.273 2.5556 -2.96319 0
M  V30 5993 H 579.896 3.62863 -1.62532 0
M  V30 5994 N 580.893 1.08022 1.14757 0
M  V30 5995 C 582.139 0.808705 1.85978 0
M  V30 5996 C 582.472 -0.663764 1.82504 0
M  V30 5997 O 581.747 -1.48765 1.25296 0
M  V30 5998 C 582.03 1.32623 3.34788 0
M  V30 5999 C 581.883 2.86375 3.46856 0
M  V30 6000 C 583.202 0.948291 4.29762 0
M  V30 6001 H 580.321 0.295244 0.675278 0
M  V30 6002 H 582.963 1.33917 1.34783 0
M  V30 6003 H 581.113 0.875002 3.78518 0
M  V30 6004 H 582.785 3.39839 3.11941 0
M  V30 6005 H 581.028 3.24232 2.88194 0
M  V30 6006 H 581.699 3.17658 4.51439 0
M  V30 6007 H 584.175 1.33722 3.94028 0
M  V30 6008 H 583.051 1.33765 5.32352 0
M  V30 6009 H 583.312 -0.145094 4.41862 0
M  V30 6010 N 582.371 -1.3172 0.865308 0
M  V30 6011 C 583.617 -1.97168 0.474633 0
M  V30 6012 C 583.95 -1.68263 -0.969604 0
M  V30 6013 O 583.225 -0.976588 -1.68205 0
M  V30 6014 C 583.508 -3.52689 0.726808 0
M  V30 6015 C 583.361 -3.91185 2.22024 0
M  V30 6016 C 584.68 -4.39689 0.190201 0
M  V30 6017 H 581.799 -0.716185 0.17392 0
M  V30 6018 H 584.441 -1.55925 1.08569 0
M  V30 6019 H 582.591 -3.8795 0.206705 0
M  V30 6020 H 584.263 -3.66049 2.80724 0
M  V30 6021 H 582.506 -3.3996 2.69462 0
M  V30 6022 H 583.177 -4.99604 2.34735 0
M  V30 6023 H 585.653 -4.11225 0.635103 0
M  V30 6024 H 584.529 -5.47469 0.396132 0
M  V30 6025 H 584.79 -4.32683 -0.907625 0
M  V30 6026 N 583.85 -0.624285 -1.44708 0
M  V30 6027 C 584.779 0.0717025 -2.3339 0
M  V30 6028 C 585.76 0.841814 -1.47809 0
M  V30 6029 O 586.946 0.809056 -1.76544 0
M  V30 6030 C 584.076 1.05852 -3.30776 0
M  V30 6031 C 583.029 0.400503 -4.26122 0
M  V30 6032 C 582.356 1.49674 -5.13324 0
M  V30 6033 C 583.656 -0.688924 -5.17737 0
M  V30 6034 H 585.35 -0.668819 -2.91834 0
M  V30 6035 H 582.896 -0.32308 -1.40329 0
M  V30 6036 H 584.849 1.5541 -3.91696 0
M  V30 6037 H 583.572 1.82984 -2.70526 0
M  V30 6038 H 582.231 -0.0743687 -3.66525 0
M  V30 6039 H 581.88 2.25877 -4.49431 0
M  V30 6040 H 581.58 1.06188 -5.77926 0
M  V30 6041 H 583.104 1.99427 -5.77115 0
M  V30 6042 H 584.518 -0.276724 -5.72632 0
M  V30 6043 H 582.915 -1.04652 -5.90904 0
M  V30 6044 H 583.985 -1.55884 -4.5916 0
M  V30 6045 N 585.328 1.53329 -0.364422 0
M  V30 6046 C 586.553 2.06132 0.229033 0
M  V30 6047 C 586.978 1.23625 1.41769 0
M  V30 6048 O 586.336 0.255038 1.79497 0
M  V30 6049 C 586.384 3.55544 0.60174 0
M  V30 6050 O 585.488 3.75771 1.69912 0
M  V30 6051 H 584.829 0.663148 0.0336213 0
M  V30 6052 H 587.359 1.97758 -0.524689 0
M  V30 6053 H 587.369 3.98549 0.873073 0
M  V30 6054 H 586.044 4.15039 -0.267421 0
M  V30 6055 H 584.621 3.44663 1.42343 0
M  V30 6056 N 586.806 0.0935595 1.57322 0
M  V30 6057 C 588.053 -0.570509 1.94297 0
M  V30 6058 C 588.381 -1.68286 0.97519 0
M  V30 6059 O 587.636 -1.95699 -0.00548655 0
M  V30 6060 C 587.935 -1.16692 3.37813 0
M  V30 6061 C 587.601 -0.178509 4.50547 0
M  V30 6062 C 586.263 0.0933475 4.81109 0
M  V30 6063 C 588.615 0.496472 5.1883 0
M  V30 6064 C 585.943 1.0469 5.77284 0
M  V30 6065 C 588.295 1.43849 6.16028 0
M  V30 6066 C 586.959 1.71859 6.44997 0
M  V30 6067 H 586.229 -0.208764 0.710984 0
M  V30 6068 H 588.876 0.169066 1.90752 0
M  V30 6069 H 587.181 -1.98271 3.37929 0
M  V30 6070 H 588.878 -1.6884 3.63722 0
M  V30 6071 H 585.468 -0.400584 4.26724 0
M  V30 6072 H 589.652 0.299584 4.95395 0
M  V30 6073 H 584.908 1.27094 5.98044 0
M  V30 6074 H 589.082 1.96734 6.68034 0
M  V30 6075 H 586.709 2.45906 7.19329 0
M  V30 6076 N 588.284 -1.56567 -0.180126 0
M  V30 6077 C 589.509 -1.85975 -0.918041 0
M  V30 6078 C 589.934 -0.678888 -1.75422 0
M  V30 6079 O 589.292 0.372168 -1.77439 0
M  V30 6080 C 589.34 -3.13731 -1.77779 0
M  V30 6081 O 588.444 -2.95335 -2.87838 0
M  V30 6082 H 587.785 -0.61196 -0.257683 0
M  V30 6083 H 590.315 -2.03798 -0.180923 0
M  V30 6084 H 590.325 -3.4491 -2.17948 0
M  V30 6085 H 589 -3.99293 -1.16352 0
M  V30 6086 H 587.577 -2.7549 -2.51316 0
M  V30 6087 N 589.762 0.448376 -1.51087 0
M  V30 6088 C 590.692 1.55102 -1.74544 0
M  V30 6089 C 591.673 1.59357 -0.594932 0
M  V30 6090 O 592.858 1.75261 -0.836491 0
M  V30 6091 C 589.988 2.93268 -1.86041 0
M  V30 6092 C 588.942 3.03877 -3.01402 0
M  V30 6093 C 588.268 4.43914 -2.98068 0
M  V30 6094 C 589.568 2.7898 -4.41551 0
M  V30 6095 H 591.262 1.35724 -2.66869 0
M  V30 6096 H 588.808 0.651498 -1.28419 0
M  V30 6097 H 590.761 3.70356 -2.01034 0
M  V30 6098 H 589.485 3.13853 -0.903548 0
M  V30 6099 H 588.144 2.29227 -2.86096 0
M  V30 6100 H 587.792 4.6145 -2.00182 0
M  V30 6101 H 587.492 4.51944 -3.75527 0
M  V30 6102 H 589.016 5.22991 -3.1514 0
M  V30 6103 H 590.43 3.45805 -4.57265 0
M  V30 6104 H 588.827 2.98431 -5.20633 0
M  V30 6105 H 589.897 1.74663 -4.5235 0
M  V30 6106 N 591.24 1.41047 0.703093 0
M  V30 6107 C 592.15 1.44645 1.84703 0
M  V30 6108 C 593.166 0.337778 1.7069 0
M  V30 6109 O 594.342 0.584327 1.92737 0
M  V30 6110 C 591.407 1.31928 3.20618 0
M  V30 6111 C 590.468 2.53047 3.46794 0
M  V30 6112 C 589.701 2.40927 4.76224 0
M  V30 6113 O 589.924 1.42978 5.5219 0
M  V30 6114 O 588.858 3.30543 5.03016 0
M  V30 6115 H 592.684 2.41139 1.84624 0
M  V30 6116 H 590.269 1.22504 0.855167 0
M  V30 6117 H 592.151 1.27092 4.01778 0
M  V30 6118 H 590.826 0.385469 3.21397 0
M  V30 6119 H 589.733 2.6346 2.65593 0
M  V30 6120 H 591.066 3.45231 3.50822 0
M  V30 6121 N 592.718 -0.936591 1.26751 0
M  V30 6122 C 593.964 -1.6858 1.12733 0
M  V30 6123 C 594.297 -1.91414 -0.327745 0
M  V30 6124 O 593.572 -1.49812 -1.24043 0
M  V30 6125 C 593.855 -3.05779 1.90187 0
M  V30 6126 C 593.708 -2.90242 3.43627 0
M  V30 6127 C 595.027 -4.0597 1.69931 0
M  V30 6128 H 592.146 -0.61182 0.410908 0
M  V30 6129 H 594.788 -1.08747 1.55801 0
M  V30 6130 H 592.938 -3.56853 1.53584 0
M  V30 6131 H 594.61 -2.46354 3.9001 0
M  V30 6132 H 592.853 -2.2577 3.70419 0
M  V30 6133 H 593.524 -3.87572 3.93055 0
M  V30 6134 H 596 -3.63874 2.0183 0
M  V30 6135 H 594.876 -4.99974 2.26534 0
M  V30 6136 H 595.137 -4.37369 0.64502 0
M  V30 6137 N 594.196 -1.08629 -1.14182 0
M  V30 6138 C 595.442 -0.818556 -1.85546 0
M  V30 6139 C 595.775 0.654076 -1.82854 0
M  V30 6140 O 595.05 1.48099 -1.26083 0
M  V30 6141 C 595.333 -1.34397 -3.3408 0
M  V30 6142 C 595.186 -2.8821 -3.45333 0
M  V30 6143 C 596.505 -0.971069 -4.29253 0
M  V30 6144 H 593.624 -0.298821 -0.673702 0
M  V30 6145 H 596.266 -1.34629 -1.34071 0
M  V30 6146 H 594.416 -0.895064 -3.78049 0
M  V30 6147 H 596.088 -3.41488 -3.10134 0
M  V30 6148 H 594.331 -3.25756 -2.86471 0
M  V30 6149 H 595.002 -3.20047 -4.49749 0
M  V30 6150 H 597.478 -1.35809 -3.93313 0
M  V30 6151 H 596.354 -1.36586 -5.31635 0
M  V30 6152 H 596.615 0.121659 -4.41933 0
M  V30 6153 N 595.674 1.31259 -0.872281 0
M  V30 6154 C 596.923 1.95893 -0.480493 0
M  V30 6155 C 597.236 1.697 0.972688 0
M  V30 6156 O 598.442 2.28214 1.47073 0
M  V30 6157 C 596.898 3.50705 -0.808342 0
M  V30 6158 C 596.506 3.85735 -2.27844 0
M  V30 6159 C 598.25 4.21719 -0.485136 0
M  V30 6160 C 596.157 5.33668 -2.54858 0
M  V30 6161 H 595.087 0.733182 -0.175955 0
M  V30 6162 H 597.738 1.49396 -1.0655 0
M  V30 6163 H 596.12 3.95706 -0.152558 0
M  V30 6164 H 597.294 3.51686 -2.97748 0
M  V30 6165 H 595.609 3.27792 -2.56791 0
M  V30 6166 H 598.206 5.30559 -0.664166 0
M  V30 6167 H 598.549 4.12316 0.574592 0
M  V30 6168 H 599.082 3.82359 -1.09756 0
M  V30 6169 H 595.821 5.48109 -3.59523 0
M  V30 6170 H 595.341 5.69061 -1.8955 0
M  V30 6171 H 597.02 6.00958 -2.39706 0
M  V30 6172 N 597.152 0.631951 1.44375 0
M  V30 6173 C 598.085 -0.121822 2.27875 0
M  V30 6174 C 599.063 -0.850457 1.38586 0
M  V30 6175 O 600.247 -0.854378 1.68026 0
M  V30 6176 C 597.374 -1.17859 3.17533 0
M  V30 6177 C 596.42 -0.550391 4.22934 0
M  V30 6178 S 597.253 0.660145 5.31415 0
M  V30 6179 C 598.409 -0.396613 6.24642 0
M  V30 6180 H 598.642 0.586537 2.91457 0
M  V30 6181 H 596.175 0.420146 1.48574 0
M  V30 6182 H 598.133 -1.78335 3.69739 0
M  V30 6183 H 596.794 -1.85915 2.53169 0
M  V30 6184 H 595.987 -1.34631 4.85685 0
M  V30 6185 H 595.589 -0.0202306 3.73995 0
M  V30 6186 H 597.881 -1.26893 6.65511 0
M  V30 6187 H 598.824 0.195345 7.0783 0
M  V30 6188 H 599.232 -0.72288 5.59852 0
M  V30 6189 N 598.631 -1.53133 0.372548 0
M  V30 6190 C 599.541 -2.29671 -0.478379 0
M  V30 6191 C 600.557 -1.35913 -1.08644 0
M  V30 6192 O 601.733 -1.68975 -1.09588 0
M  V30 6193 C 598.798 -3.07625 -1.599 0
M  V30 6194 C 597.859 -4.17061 -1.01776 0
M  V30 6195 C 597.092 -4.91289 -2.08497 0
M  V30 6196 O 597.315 -4.65442 -3.29727 0
M  V30 6197 O 596.249 -5.7705 -1.71164 0
M  V30 6198 H 600.075 -3.03355 0.144649 0
M  V30 6199 H 597.66 -1.48773 0.136729 0
M  V30 6200 H 599.542 -3.56281 -2.25038 0
M  V30 6201 H 598.217 -2.3677 -2.2073 0
M  V30 6202 H 597.124 -3.72641 -0.330098 0
M  V30 6203 H 598.457 -4.90102 -0.453915 0
M  V30 6204 N 600.109 -0.101901 -1.5727 0
M  V30 6205 C 601.355 0.561027 -1.94885 0
M  V30 6206 C 601.688 1.6741 -0.984258 0
M  V30 6207 O 600.963 1.94491 -0.0184767 0
M  V30 6208 C 601.246 1.10982 -3.42571 0
M  V30 6209 C 601.099 0.00133418 -4.498 0
M  V30 6210 C 602.418 2.00608 -3.9172 0
M  V30 6211 H 599.537 0.202467 -0.708644 0
M  V30 6212 H 602.179 -0.173992 -1.89202 0
M  V30 6213 H 600.329 1.73621 -3.47546 0
M  V30 6214 H 602.001 -0.63322 -4.56933 0
M  V30 6215 H 600.244 -0.664143 -4.28686 0
M  V30 6216 H 600.915 0.426253 -5.50352 0
M  V30 6217 H 603.391 1.47864 -3.88941 0
M  V30 6218 H 602.267 2.3593 -4.95609 0
M  V30 6219 H 602.528 2.92608 -3.3141 0
M  V30 6220 N 601.587 1.56661 0.17182 0
M  V30 6221 C 602.519 1.92934 1.2373 0
M  V30 6222 C 603.532 0.822385 1.40502 0
M  V30 6223 O 604.721 1.10083 1.40514 0
M  V30 6224 C 601.821 2.16651 2.60607 0
M  V30 6225 C 600.994 3.47878 2.6514 0
M  V30 6226 C 600.053 3.60429 3.83377 0
M  V30 6227 O 599.079 4.33051 3.69398 0
M  V30 6228 N 600.281 2.95241 4.99813 0
M  V30 6229 H 603.046 2.84931 0.929205 0
M  V30 6230 H 600.607 1.5781 0.361588 0
M  V30 6231 H 602.599 2.22312 3.38171 0
M  V30 6232 H 601.169 1.3104 2.83809 0
M  V30 6233 H 600.389 3.53879 1.73675 0
M  V30 6234 H 601.677 4.34232 2.6518 0
M  V30 6235 H 601.075 2.3611 5.14071 0
M  V30 6236 H 599.632 3.06499 5.75241 0
M  V30 6237 N 603.065 -0.440357 1.51323 0
M  V30 6238 C 604.313 -1.18769 1.63518 0
M  V30 6239 C 604.634 -1.91793 0.352201 0
M  V30 6240 O 603.904 -1.85432 -0.631811 0
M  V30 6241 H 602.484 -0.441408 0.602634 0
M  V30 6242 H 605.146 -0.505162 1.8824 0
M  V30 6243 H 604.242 -1.91892 2.46138 0
M  V30 6244 N 604.543 -1.41418 -0.695603 0
M  V30 6245 C 605.473 -1.46035 -1.82197 0
M  V30 6246 C 606.454 -0.319025 -1.67082 0
M  V30 6247 O 607.639 -0.530462 -1.86815 0
M  V30 6248 C 604.769 -1.34179 -3.20333 0
M  V30 6249 C 603.723 -2.46123 -3.50154 0
M  V30 6250 C 603.049 -2.19332 -4.87645 0
M  V30 6251 C 604.349 -3.88463 -3.49133 0
M  V30 6252 H 606.043 -2.40303 -1.78591 0
M  V30 6253 H 603.589 -1.15663 -0.857797 0
M  V30 6254 H 605.542 -1.36021 -3.98844 0
M  V30 6255 H 604.266 -0.363952 -3.24566 0
M  V30 6256 H 602.925 -2.43563 -2.73994 0
M  V30 6257 H 602.573 -1.19891 -4.88503 0
M  V30 6258 H 602.273 -2.94344 -5.08562 0
M  V30 6259 H 603.797 -2.22889 -5.68465 0
M  V30 6260 H 605.211 -3.92738 -4.17648 0
M  V30 6261 H 603.608 -4.63158 -3.81582 0
M  V30 6262 H 604.678 -4.16617 -2.48109 0
M  V30 6263 N 606.021 0.929856 -1.27246 0
M  V30 6264 C 606.968 2.03017 -1.09785 0
M  V30 6265 C 607.938 1.661 0.000456744 0
M  V30 6266 O 609.123 1.90116 -0.161462 0
M  V30 6267 C 606.263 3.36878 -0.748816 0
M  V30 6268 C 605.376 3.86763 -1.92453 0
M  V30 6269 C 604.511 5.09061 -1.51758 0
M  V30 6270 C 603.55 5.51237 -2.66091 0
M  V30 6271 N 602.687 6.64732 -2.25999 0
M  V30 6272 H 607.527 2.17285 -2.03939 0
M  V30 6273 H 605.064 1.06448 -1.01524 0
M  V30 6274 H 607.022 4.13855 -0.527283 0
M  V30 6275 H 605.652 3.22424 0.155771 0
M  V30 6276 H 604.704 3.06086 -2.25867 0
M  V30 6277 H 606.016 4.13994 -2.78227 0
M  V30 6278 H 605.17 5.93532 -1.25716 0
M  V30 6279 H 603.909 4.83602 -0.630896 0
M  V30 6280 H 602.914 4.65316 -2.92849 0
M  V30 6281 H 604.139 5.78692 -3.55377 0
M  V30 6282 H 602.085 6.40935 -1.3978 0
M  V30 6283 H 602.002 6.91607 -3.05313 0
M  V30 6284 H 603.27 7.52549 -2.03199 0
M  V30 6285 N 607.499 1.09233 1.13605 0
M  V30 6286 C 608.724 0.849067 1.89224 0
M  V30 6287 C 609.149 -0.593875 1.78479 0
M  V30 6288 O 608.507 -1.41703 1.13092 0
M  V30 6289 C 608.555 1.28642 3.36873 0
M  V30 6290 O 607.659 0.44363 4.10007 0
M  V30 6291 H 607 0.30767 0.588417 0
M  V30 6292 H 609.53 1.45595 1.43748 0
M  V30 6293 H 609.54 1.27096 3.87699 0
M  V30 6294 H 608.215 2.33729 3.44011 0
M  V30 6295 H 606.792 0.523241 3.69211 0
M  V30 6296 N 608.977 -1.30795 0.87923 0
M  V30 6297 C 609.907 -2.30742 0.357796 0
M  V30 6298 C 610.888 -1.60747 -0.556283 0
M  V30 6299 O 612.073 -1.88393 -0.47135 0
M  V30 6300 C 609.203 -3.44583 -0.433555 0
M  V30 6301 C 608.157 -4.26235 0.388251 0
M  V30 6302 C 607.483 -5.32073 -0.529352 0
M  V30 6303 C 608.783 -4.96303 1.62729 0
M  V30 6304 H 610.477 -2.74605 1.19299 0
M  V30 6305 H 608.023 -1.32017 0.575104 0
M  V30 6306 H 609.976 -4.13563 -0.808934 0
M  V30 6307 H 608.7 -2.99511 -1.30234 0
M  V30 6308 H 607.359 -3.58936 0.745695 0
M  V30 6309 H 607.007 -4.83249 -1.39569 0
M  V30 6310 H 606.707 -5.87598 0.0166741 0
M  V30 6311 H 608.231 -6.0391 -0.901373 0
M  V30 6312 H 609.645 -5.5783 1.32283 0
M  V30 6313 H 608.042 -5.61666 2.11309 0
M  V30 6314 H 609.112 -4.22758 2.37494 0
M  V30 6315 N 610.455 -0.639598 -1.44038 0
M  V30 6316 C 611.418 0.0506628 -2.29144 0
M  V30 6317 C 612.418 0.764001 -1.41491 0
M  V30 6318 O 613.608 0.607309 -1.63271 0
M  V30 6319 C 610.74 1.0824 -3.2326 0
M  V30 6320 H 611.933 -0.697987 -2.91664 0
M  V30 6321 H 609.486 -0.400146 -1.51091 0
M  V30 6322 H 610.221 1.86075 -2.65606 0
M  V30 6323 H 610.006 0.574725 -3.87865 0
M  V30 6324 H 611.496 1.56487 -3.87171 0
M  V30 6325 N 611.933 1.52934 -0.380664 0
M  V30 6326 C 613.344 1.86457 0.0952684 0
M  V30 6327 C 613.695 1.3007 1.46889 0
M  V30 6328 O 612.82 0.628636 2.07068 0
M  V30 6329 C 613.415 3.38323 0.179648 0
M  V30 6330 C 611.974 3.71589 0.599858 0
M  V30 6331 C 611.121 2.76228 -0.243572 0
M  V30 6332 H 614.072 1.46966 -0.59888 0
M  V30 6333 H 614.093 3.67113 1.00042 0
M  V30 6334 H 613.605 3.79333 -0.820228 0
M  V30 6335 H 611.706 3.36144 1.60742 0
M  V30 6336 H 611.819 4.77715 0.364003 0
M  V30 6337 H 610.183 2.53045 0.289855 0
M  V30 6338 H 610.966 3.20074 -1.24127 0
M  V30 6339 N 613.412 0.11024 1.57214 0
M  V30 6340 C 614.36 -0.860586 2.16094 0
M  V30 6341 C 615.354 -1.28156 1.1078 0
M  V30 6342 O 616.56 -1.25433 1.29099 0
M  V30 6343 H 612.935 -0.295606 0.691463 0
M  V30 6344 H 614.906 -0.33942 2.96463 0
M  V30 6345 C 613.655 -2.10421 2.768 0
M  V30 6346 H 612.978 -1.7892 3.5753 0
M  V30 6347 H 614.418 -2.76375 3.21547 0
M  V30 6348 C 612.877 -2.88823 1.73444 0
M  V30 6349 O 613.407 -3.839 1.18251 0
M  V30 6350 N 611.613 -2.52649 1.43586 0
M  V30 6351 H 611.16 -1.754 1.8866 0
M  V30 6352 H 611.118 -3.05403 0.746735 0
M  V30 6353 N 614.89 -1.56749 -0.16351 0
M  V30 6354 C 616.306 -1.51043 -0.515567 0
M  V30 6355 C 616.506 -0.815855 -1.84245 0
M  V30 6356 O 615.562 -0.379477 -2.49632 0
M  V30 6357 C 616.875 -2.95791 -0.541114 0
M  V30 6358 C 618.423 -3.0664 -0.627776 0
M  V30 6359 C 618.898 -4.52861 -0.684141 0
M  V30 6360 N 620.389 -4.5714 -0.746818 0
M  V30 6361 C 621.124 -5.67634 -0.811137 0
M  V30 6362 N 620.62 -6.8774 -0.835811 0
M  V30 6363 N 622.413 -5.55624 -0.850756 0
M  V30 6364 H 614.564 -2.00307 0.70645 0
M  V30 6365 H 616.827 -0.912876 0.255659 0
M  V30 6366 H 616.533 -3.49797 0.365329 0
M  V30 6367 H 616.407 -3.50858 -1.38487 0
M  V30 6368 H 618.794 -2.52663 -1.52464 0
M  V30 6369 H 618.875 -2.54645 0.242805 0
M  V30 6370 H 618.519 -5.07472 0.2085 0
M  V30 6371 H 618.449 -5.02621 -1.57098 0
M  V30 6372 H 620.94 -3.70669 -0.735717 0
M  V30 6373 H 621.253 -7.67701 -0.886279 0
M  V30 6374 H 619.598 -6.90334 -0.803958 0
M  V30 6375 H 622.789 -4.60709 -0.828535 0
M  V30 6376 H 622.962 -6.41756 -0.897418 0
M  V30 6377 N 616.368 0.432326 -1.51554 0
M  V30 6378 C 617.617 1.17831 -1.63703 0
M  V30 6379 C 617.93 1.92229 -0.36156 0
M  V30 6380 O 619.136 2.69069 -0.362495 0
M  V30 6381 C 617.592 2.14318 -2.89129 0
M  V30 6382 C 617.2 1.45544 -4.23699 0
M  V30 6383 C 618.944 2.89319 -3.10636 0
M  V30 6384 C 616.851 2.40545 -5.4027 0
M  V30 6385 H 615.781 0.443533 -0.60975 0
M  V30 6386 H 618.432 0.444878 -1.78026 0
M  V30 6387 H 616.814 2.91117 -2.68452 0
M  V30 6388 H 617.988 0.742693 -4.54775 0
M  V30 6389 H 616.303 0.826772 -4.0811 0
M  V30 6390 H 618.9 3.60495 -3.94902 0
M  V30 6391 H 619.243 3.50951 -2.23918 0
M  V30 6392 H 619.776 2.19625 -3.31677 0
M  V30 6393 H 616.515 1.83594 -6.29264 0
M  V30 6394 H 616.035 3.09859 -5.13563 0
M  V30 6395 H 617.714 3.01569 -5.72421 0
M  V30 6396 N 617.846 1.41785 0.688094 0
M  V30 6397 C 619.092 1.41753 1.4503 0
M  V30 6398 C 619.425 0.0290745 1.94178 0
M  V30 6399 O 618.7 -0.944456 1.7003 0
M  V30 6400 C 618.983 2.43069 2.65686 0
M  V30 6401 C 618.836 3.91053 2.22256 0
M  V30 6402 C 620.155 2.41543 3.67893 0
M  V30 6403 H 617.274 0.516202 0.526027 0
M  V30 6404 H 619.916 1.73111 0.783105 0
M  V30 6405 H 618.066 2.1646 3.2261 0
M  V30 6406 H 619.738 4.28594 1.70602 0
M  V30 6407 H 617.981 4.05559 1.53963 0
M  V30 6408 H 618.652 4.57501 3.08863 0
M  V30 6409 H 621.128 2.65175 3.20658 0
M  V30 6410 H 620.004 3.14434 4.49914 0
M  V30 6411 H 620.265 1.43666 4.18106 0
M  V30 6412 N 619.324 -0.923095 1.27737 0
M  V30 6413 C 620.554 -1.70277 1.17001 0
M  V30 6414 C 620.962 -1.87188 -0.275199 0
M  V30 6415 O 620.305 -1.39195 -1.19877 0
M  V30 6416 C 620.367 -3.11976 1.78637 0
M  V30 6417 C 620.031 -3.18386 3.27841 0
M  V30 6418 C 621.028 -3.00287 4.2441 0
M  V30 6419 C 618.713 -3.41198 3.68632 0
M  V30 6420 C 620.707 -3.04896 5.59747 0
M  V30 6421 C 618.394 -3.4544 5.04097 0
M  V30 6422 C 619.392 -3.27309 5.99465 0
M  V30 6423 O 619.08 -3.31295 7.32461 0
M  V30 6424 H 618.812 -0.539366 0.407505 0
M  V30 6425 H 621.366 -1.16446 1.69202 0
M  V30 6426 H 619.596 -3.67308 1.20919 0
M  V30 6427 H 621.285 -3.7193 1.6255 0
M  V30 6428 H 622.051 -2.825 3.94232 0
M  V30 6429 H 617.93 -3.54359 2.94873 0
M  V30 6430 H 621.474 -2.90662 6.34162 0
M  V30 6431 H 617.371 -3.62753 5.33929 0
M  V30 6432 H 618.139 -3.47719 7.40968 0
M  V30 6433 N 620.802 -1.09834 -1.13024 0
M  V30 6434 C 622.042 -0.846664 -1.8604 0
M  V30 6435 C 622.406 0.616557 -1.81831 0
M  V30 6436 O 623.607 0.984329 -2.50129 0
M  V30 6437 C 621.878 -1.37228 -3.30005 0
M  V30 6438 S 623.437 -1.25511 -4.20467 0
M  V30 6439 H 620.255 -0.30611 -0.64173 0
M  V30 6440 H 622.857 -1.40255 -1.36194 0
M  V30 6441 H 621.561 -2.43138 -3.30624 0
M  V30 6442 H 621.092 -0.81271 -3.84914 0
M  V30 6443 H 623.107 -0.208762 -4.95761 0
M  V30 6444 N 622.28 1.30327 -0.886154 0
M  V30 6445 C 623.508 2.00254 -0.520176 0
M  V30 6446 C 623.923 1.66419 0.891637 0
M  V30 6447 O 623.28 0.901951 1.58654 0
M  V30 6448 C 623.331 3.54916 -0.686775 0
M  V30 6449 O 623.052 3.87547 -2.04301 0
M  V30 6450 C 624.553 4.42115 -0.323945 0
M  V30 6451 H 621.773 0.640204 -0.200947 0
M  V30 6452 H 624.317 1.66183 -1.19178 0
M  V30 6453 H 622.472 3.8735 -0.0625273 0
M  V30 6454 H 622.886 4.82247 -2.06249 0
M  V30 6455 H 624.36 5.49808 -0.491407 0
M  V30 6456 H 624.837 4.32953 0.73811 0
M  V30 6457 H 625.443 4.15129 -0.924565 0
M  V30 6458 N 623.758 0.647228 1.43697 0
M  V30 6459 C 624.691 -0.097646 2.27991 0
M  V30 6460 C 625.669 -0.83571 1.3948 0
M  V30 6461 O 626.853 -0.836509 1.68922 0
M  V30 6462 C 623.98 -1.14484 3.18765 0
M  V30 6463 C 623.026 -0.505503 4.23494 0
M  V30 6464 S 623.859 0.716471 5.30685 0
M  V30 6465 C 625.015 -0.330339 6.25028 0
M  V30 6466 H 625.248 0.617417 2.90818 0
M  V30 6467 H 622.781 0.435881 1.4812 0
M  V30 6468 H 624.739 -1.74403 3.7161 0
M  V30 6469 H 623.4 -1.83219 2.55127 0
M  V30 6470 H 622.593 -1.29473 4.87086 0
M  V30 6471 H 622.195 0.0194377 3.73995 0
M  V30 6472 H 624.487 -1.19828 6.66819 0
M  V30 6473 H 625.43 0.270409 7.07583 0
M  V30 6474 H 625.838 -0.663459 5.60588 0
M  V30 6475 N 625.236 -1.5273 0.388769 0
M  V30 6476 C 626.146 -2.30165 -0.453993 0
M  V30 6477 C 627.162 -1.37058 -1.07197 0
M  V30 6478 O 628.338 -1.70127 -1.0779 0
M  V30 6479 C 625.403 -3.09303 -1.56628 0
M  V30 6480 C 624.464 -4.18117 -0.973467 0
M  V30 6481 C 623.697 -4.93472 -2.03275 0
M  V30 6482 O 623.92 -4.68913 -3.24772 0
M  V30 6483 O 622.854 -5.78833 -1.65034 0
M  V30 6484 H 626.68 -3.03185 0.176816 0
M  V30 6485 H 624.265 -1.4862 0.152501 0
M  V30 6486 H 626.147 -3.58648 -2.21246 0
M  V30 6487 H 624.822 -2.39098 -2.18206 0
M  V30 6488 H 623.729 -3.7297 -0.290556 0
M  V30 6489 H 625.062 -4.90556 -0.401908 0
M  V30 6490 N 626.714 -0.118576 -1.57153 0
M  V30 6491 C 627.96 0.540326 -1.95469 0
M  V30 6492 C 628.293 1.66356 -1.00196 0
M  V30 6493 O 627.568 1.94461 -0.039104 0
M  V30 6494 C 627.851 1.07342 -3.43729 0
M  V30 6495 C 627.704 -0.0463732 -4.49776 0
M  V30 6496 C 629.023 1.96442 -3.93826 0
M  V30 6497 H 626.142 0.19494 -0.710751 0
M  V30 6498 H 628.784 -0.19405 -1.89006 0
M  V30 6499 H 626.934 1.69925 -3.49368 0
M  V30 6500 H 628.606 -0.681648 -4.56236 0
M  V30 6501 H 626.849 -0.709574 -4.27957 0
M  V30 6502 H 627.52 0.367856 -5.50773 0
M  V30 6503 H 629.996 1.43731 -3.90488 0
M  V30 6504 H 628.872 2.3066 -4.98084 0
M  V30 6505 H 629.133 2.89077 -3.34495 0
M  V30 6506 N 628.193 1.56834 0.155195 0
M  V30 6507 C 629.103 2.009 1.21146 0
M  V30 6508 C 630.119 0.923029 1.475 0
M  V30 6509 O 631.295 1.23189 1.59331 0
M  V30 6510 C 628.36 2.37378 2.52691 0
M  V30 6511 C 627.421 3.59883 2.34057 0
M  V30 6512 C 626.654 3.94612 3.59329 0
M  V30 6513 O 626.877 3.30104 4.65175 0
M  V30 6514 O 625.811 4.87895 3.52479 0
M  V30 6515 H 629.637 2.9105 0.867371 0
M  V30 6516 H 627.222 1.44916 0.363298 0
M  V30 6517 H 629.104 2.61737 3.3026 0
M  V30 6518 H 627.779 1.50385 2.86646 0
M  V30 6519 H 626.686 3.40722 1.54465 0
M  V30 6520 H 628.019 4.47468 2.0502 0
M  V30 6521 N 629.671 -0.424282 1.51781 0
M  V30 6522 C 630.919 -1.17028 1.64769 0
M  V30 6523 C 631.24 -1.91409 0.372523 0
M  V30 6524 O 630.51 -1.86091 -0.612108 0
M  V30 6525 H 629.09 -0.434992 0.607282 0
M  V30 6526 H 631.752 -0.485169 1.88765 0
M  V30 6527 H 630.848 -1.8927 2.4816 0
M  V30 6528 N 631.149 -1.42148 -0.680565 0
M  V30 6529 C 632.397 -1.42029 -1.43779 0
M  V30 6530 C 632.718 -0.0356347 -1.94967 0
M  V30 6531 O 631.988 0.924936 -1.7269 0
M  V30 6532 H 630.568 -0.522835 -0.533529 0
M  V30 6533 H 633.23 -1.7752 -0.804538 0
M  V30 6534 H 632.326 -2.11658 -2.29363 0
M  V30 6535 N 632.627 0.916307 -1.28225 0
M  V30 6536 C 633.537 2.05165 -1.13775 0
M  V30 6537 C 634.553 1.73879 -0.0649418 0
M  V30 6538 O 635.729 1.99531 -0.273722 0
M  V30 6539 C 632.794 3.37385 -0.798267 0
M  V30 6540 C 631.855 3.82296 -1.95316 0
M  V30 6541 C 631.088 5.08206 -1.62978 0
M  V30 6542 O 631.311 5.6781 -0.542948 0
M  V30 6543 O 630.245 5.48768 -2.47261 0
M  V30 6544 H 634.071 2.20273 -2.09078 0
M  V30 6545 H 631.656 1.0373 -1.07519 0
M  V30 6546 H 633.538 4.16773 -0.62278 0
M  V30 6547 H 632.213 3.23458 0.125139 0
M  V30 6548 H 631.12 3.03746 -2.18378 0
M  V30 6549 H 632.453 4.00782 -2.85718 0
M  V30 6550 N 634.105 1.10431 1.1244 0
M  V30 6551 C 635.052 0.753103 2.18167 0
M  V30 6552 C 636.022 -0.270549 1.63882 0
M  V30 6553 O 637.207 -0.149837 1.90211 0
M  V30 6554 C 634.347 0.191046 3.44571 0
M  V30 6555 C 633.46 1.26999 4.12911 0
M  V30 6556 C 632.595 0.669586 5.26963 0
M  V30 6557 C 631.634 1.72912 5.87169 0
M  V30 6558 N 630.771 1.14898 6.92635 0
M  V30 6559 H 635.611 1.65892 2.47556 0
M  V30 6560 H 633.148 0.828631 1.21541 0
M  V30 6561 H 635.106 -0.152712 4.1692 0
M  V30 6562 H 633.736 -0.677997 3.15599 0
M  V30 6563 H 632.788 1.73087 3.3874 0
M  V30 6564 H 634.1 2.07204 4.53727 0
M  V30 6565 H 633.254 0.275274 6.06075 0
M  V30 6566 H 631.993 -0.163895 4.87425 0
M  V30 6567 H 630.998 2.13286 5.06744 0
M  V30 6568 H 632.223 2.56544 6.28778 0
M  V30 6569 H 630.169 0.336956 6.55134 0
M  V30 6570 H 630.086 1.88786 7.32049 0
M  V30 6571 H 631.354 0.78121 7.75576 0
M  V30 6572 N 635.583 -1.29855 0.893053 0
M  V30 6573 C 636.513 -2.3035 0.382249 0
M  V30 6574 C 637.494 -1.61328 -0.539203 0
M  V30 6575 O 638.679 -1.88882 -0.451342 0
M  V30 6576 C 635.809 -3.45024 -0.396983 0
M  V30 6577 C 634.763 -4.258 0.433437 0
M  V30 6578 C 634.089 -5.32605 -0.472889 0
M  V30 6579 C 635.389 -4.94549 1.67984 0
M  V30 6580 H 637.083 -2.73325 1.22205 0
M  V30 6581 H 634.629 -1.314 0.589073 0
M  V30 6582 H 636.582 -4.14398 -0.765024 0
M  V30 6583 H 635.306 -3.00875 -1.2705 0
M  V30 6584 H 633.965 -3.58125 0.783723 0
M  V30 6585 H 633.613 -4.84702 -1.34435 0
M  V30 6586 H 633.313 -5.87547 0.0789958 0
M  V30 6587 H 634.837 -6.04832 -0.837269 0
M  V30 6588 H 636.251 -5.56395 1.38192 0
M  V30 6589 H 634.648 -5.59393 2.17254 0
M  V30 6590 H 635.718 -4.20215 2.41965 0
M  V30 6591 N 637.061 -0.65484 -1.43351 0
M  V30 6592 C 637.993 0.0744757 -2.29079 0
M  V30 6593 C 639.006 0.7855 -1.42596 0
M  V30 6594 O 640.195 0.642986 -1.66517 0
M  V30 6595 C 637.295 1.12859 -3.19556 0
M  V30 6596 C 636.468 0.495381 -4.34586 0
M  V30 6597 C 635.527 1.44659 -5.05925 0
M  V30 6598 O 634.553 0.954567 -5.61139 0
M  V30 6599 N 635.755 2.78051 -5.09576 0
M  V30 6600 H 638.52 -0.661346 -2.92312 0
M  V30 6601 H 636.081 -0.497744 -1.54059 0
M  V30 6602 H 638.073 1.76577 -3.64147 0
M  V30 6603 H 636.643 1.76636 -2.57912 0
M  V30 6604 H 635.863 -0.32092 -3.92892 0
M  V30 6605 H 637.151 0.0534203 -5.08772 0
M  V30 6606 H 636.549 3.20584 -4.66093 0
M  V30 6607 H 635.106 3.37068 -5.57878 0
M  V30 6608 N 638.539 1.52521 -0.396863 0
M  V30 6609 C 639.767 2.06091 0.18275 0
M  V30 6610 C 640.182 1.26796 1.39886 0
M  V30 6611 O 639.539 0.316585 1.79733 0
M  V30 6612 C 639.59 3.57362 0.545377 0
M  V30 6613 O 639.311 4.33656 -0.622428 0
M  V30 6614 C 640.812 4.27305 1.18004 0
M  V30 6615 H 638.032 0.670504 0.025789 0
M  V30 6616 H 640.576 1.96561 -0.564276 0
M  V30 6617 H 638.731 3.66941 1.2423 0
M  V30 6618 H 639.145 5.23507 -0.322662 0
M  V30 6619 H 640.619 5.34366 1.38408 0
M  V30 6620 H 641.096 3.83 2.1496 0
M  V30 6621 H 641.702 4.22064 0.523671 0
M  V30 6622 N 640.017 0.126909 1.57088 0
M  V30 6623 C 641.294 -0.573152 1.87014 0
M  V30 6624 C 641.674 -1.84297 1.02945 0
M  V30 6625 O 641.022 -2.28232 0.110573 0
M  V30 6626 C 641.232 -0.857984 3.38289 0
M  V30 6627 C 642.58 -1.20759 4.07066 0
M  V30 6628 O 643.604 -0.947992 3.43353 0
M  V30 6629 O 642.463 -1.69516 5.19545 0
M  V30 6630 H 639.557 -0.290082 0.774456 0
M  V30 6631 H 642.103 0.162008 1.68925 0
M  V30 6632 H 640.875 0.0415286 3.91278 0
M  V30 6633 H 640.498 -1.64803 3.61837 0
M  V30 6634 N 641.495 -1.56914 -0.146875 0
M  V30 6635 C 642.427 -1.94878 -1.20645 0
M  V30 6636 C 643.44 -0.844633 -1.39175 0
M  V30 6637 O 644.629 -1.12304 -1.38744 0
M  V30 6638 C 641.729 -2.20769 -2.57127 0
M  V30 6639 C 640.902 -3.52053 -2.59572 0
M  V30 6640 C 639.961 -3.66482 -3.77594 0
M  V30 6641 O 638.987 -4.38873 -3.62462 0
M  V30 6642 N 640.189 -3.03156 -4.95052 0
M  V30 6643 H 642.954 -2.86374 -0.883757 0
M  V30 6644 H 640.515 -1.58366 -0.336436 0
M  V30 6645 H 642.507 -2.27664 -3.34591 0
M  V30 6646 H 641.077 -1.35538 -2.81688 0
M  V30 6647 H 640.297 -3.56598 -1.68023 0
M  V30 6648 H 641.585 -4.38396 -2.58238 0
M  V30 6649 H 640.983 -2.44258 -5.10249 0
M  V30 6650 H 639.54 -3.15611 -5.70292 0
M  V30 6651 N 642.974 0.416227 -1.52004 0
M  V30 6652 C 643.937 1.48926 -1.74223 0
M  V30 6653 C 644.937 1.48693 -0.612119 0
M  V30 6654 O 646.127 1.50343 -0.879921 0
M  V30 6655 C 643.259 2.88372 -1.81809 0
M  V30 6656 H 644.452 1.3052 -2.70008 0
M  V30 6657 H 642.005 0.646271 -1.42313 0
M  V30 6658 H 642.74 3.12157 -0.879135 0
M  V30 6659 H 642.525 2.89944 -2.6396 0
M  V30 6660 H 644.015 3.66173 -2.00766 0
M  V30 6661 N 644.452 1.42507 0.673017 0
M  V30 6662 C 645.362 1.4853 1.81593 0
M  V30 6663 C 646.378 0.373907 1.69935 0
M  V30 6664 O 647.554 0.625078 1.91454 0
M  V30 6665 C 644.619 1.387 3.17747 0
M  V30 6666 C 643.68 2.60346 3.41348 0
M  V30 6667 C 642.913 2.50975 4.71007 0
M  V30 6668 O 643.136 1.54659 5.49033 0
M  V30 6669 O 642.07 3.41138 4.95892 0
M  V30 6670 H 645.896 2.45001 1.79467 0
M  V30 6671 H 643.481 1.2429 0.82899 0
M  V30 6672 H 645.363 1.35586 3.98992 0
M  V30 6673 H 644.038 0.453555 3.20507 0
M  V30 6674 H 642.945 2.69034 2.59945 0
M  V30 6675 H 644.278 3.52595 3.43421 0
M  V30 6676 N 645.93 -0.909495 1.28709 0
M  V30 6677 C 646.893 -1.99399 1.13016 0
M  V30 6678 C 647.893 -1.60654 0.068536 0
M  V30 6679 O 649.083 -1.71334 0.314671 0
M  V30 6680 C 646.215 -3.33078 0.726085 0
M  V30 6681 H 647.408 -2.14751 2.09338 0
M  V30 6682 H 644.961 -1.09272 1.11756 0
M  V30 6683 H 645.696 -3.23428 -0.23771 0
M  V30 6684 H 645.481 -3.62562 1.49302 0
M  V30 6685 H 646.971 -4.12681 0.639058 0
M  V30 6686 N 647.408 -1.11026 -1.11852 0
M  V30 6687 C 648.633 -0.879064 -1.87849 0
M  V30 6688 C 649.058 0.565406 -1.79401 0
M  V30 6689 O 648.416 1.39886 -1.15333 0
M  V30 6690 C 648.464 -1.33985 -3.34784 0
M  V30 6691 O 647.568 -0.508803 -4.09249 0
M  V30 6692 H 646.909 -0.316992 -0.583448 0
M  V30 6693 H 649.439 -1.47863 -1.41413 0
M  V30 6694 H 649.449 -1.33248 -3.85628 0
M  V30 6695 H 648.124 -2.39172 -3.40249 0
M  V30 6696 H 646.701 -0.581913 -3.68332 0
M  V30 6697 N 648.886 1.2938 -0.899927 0
M  V30 6698 C 649.833 2.27713 -0.376243 0
M  V30 6699 C 650.803 1.57016 0.541774 0
M  V30 6700 O 651.988 1.84997 0.466966 0
M  V30 6701 C 649.128 3.42889 0.39 0
M  V30 6702 C 648.241 4.28369 -0.558938 0
M  V30 6703 C 647.376 5.30726 0.224379 0
M  V30 6704 C 646.415 6.07862 -0.719068 0
M  V30 6705 N 645.552 7.02094 0.0298569 0
M  V30 6706 H 650.392 2.71888 -1.21988 0
M  V30 6707 H 647.929 1.33724 -0.612879 0
M  V30 6708 H 649.887 4.08443 0.850314 0
M  V30 6709 H 648.517 2.99743 1.19809 0
M  V30 6710 H 647.569 3.62986 -1.13777 0
M  V30 6711 H 648.881 4.82068 -1.2811 0
M  V30 6712 H 648.035 6.02098 0.745881 0
M  V30 6713 H 646.774 4.77759 0.979674 0
M  V30 6714 H 645.779 5.35353 -1.25207 0
M  V30 6715 H 647.004 6.62917 -1.4737 0
M  V30 6716 H 644.95 6.51496 0.767415 0
M  V30 6717 H 644.867 7.5335 -0.632391 0
M  V30 6718 H 646.135 7.77685 0.531615 0
M  V30 6719 N 650.364 0.662433 1.43002 0
M  V30 6720 C 651.775 0.258315 1.84904 0
M  V30 6721 C 652.126 -1.19703 1.55453 0
M  V30 6722 O 651.251 -1.91484 1.00811 0
M  V30 6723 C 651.846 0.462047 3.35635 0
M  V30 6724 C 650.405 0.112165 3.76233 0
M  V30 6725 C 649.552 0.760479 2.66668 0
M  V30 6726 H 652.503 0.865467 1.33024 0
M  V30 6727 H 652.524 -0.289646 3.79396 0
M  V30 6728 H 652.036 1.52135 3.57039 0
M  V30 6729 H 650.137 -0.944179 3.60439 0
M  V30 6730 H 650.25 0.544058 4.76001 0
M  V30 6731 H 648.614 0.192887 2.53969 0
M  V30 6732 H 649.397 1.82299 2.90898 0
M  V30 6733 N 651.842 -1.52309 0.404946 0
M  V30 6734 C 653.07 -2.06185 -0.171818 0
M  V30 6735 C 653.485 -1.27536 -1.39212 0
M  V30 6736 O 652.842 -0.326112 -1.79563 0
M  V30 6737 C 652.893 -3.57647 -0.526417 0
M  V30 6738 O 652.614 -4.3332 0.645417 0
M  V30 6739 C 654.115 -4.27925 -1.15736 0
M  V30 6740 H 651.335 -0.670632 -0.0222328 0
M  V30 6741 H 653.879 -1.96259 0.574692 0
M  V30 6742 H 652.034 -3.67595 -1.22282 0
M  V30 6743 H 652.448 -5.23328 0.35042 0
M  V30 6744 H 653.922 -5.35093 -1.35572 0
M  V30 6745 H 654.399 -3.84134 -2.12926 0
M  V30 6746 H 655.005 -4.22335 -0.501281 0
M  V30 6747 N 653.32 -0.135238 -1.57019 0
M  V30 6748 C 654.566 0.513232 -1.96818 0
M  V30 6749 C 654.921 1.63245 -1.01827 0
M  V30 6750 O 654.214 1.91532 -0.0511756 0
M  V30 6751 C 654.408 1.07694 -3.40788 0
M  V30 6752 C 654.237 0.0138667 -4.49698 0
M  V30 6753 C 653.007 -0.423532 -5.03522 0
M  V30 6754 C 655.205 -0.77322 -5.08454 0
M  V30 6755 N 653.187 -1.47068 -5.96024 0
M  V30 6756 C 654.558 -1.67115 -5.97053 0
M  V30 6757 C 656.613 -0.822313 -4.91063 0
M  V30 6758 C 655.316 -2.61395 -6.70123 0
M  V30 6759 C 657.342 -1.75288 -5.64826 0
M  V30 6760 C 656.704 -2.63836 -6.53123 0
M  V30 6761 H 652.803 0.156956 -0.766087 0
M  V30 6762 H 655.387 -0.227118 -1.93371 0
M  V30 6763 H 653.558 1.78694 -3.44852 0
M  V30 6764 H 655.29 1.69106 -3.67675 0
M  V30 6765 H 652.045 -0.0280202 -4.73592 0
M  V30 6766 H 652.469 -1.99366 -6.46979 0
M  V30 6767 H 657.111 -0.151822 -4.22527 0
M  V30 6768 H 654.829 -3.2945 -7.37895 0
M  V30 6769 H 658.415 -1.79652 -5.53368 0
M  V30 6770 H 657.295 -3.34672 -7.092 0
M  V30 6771 N 654.798 1.5699 0.138552 0
M  V30 6772 C 656.046 1.83446 0.848053 0
M  V30 6773 C 656.367 0.71744 1.81322 0
M  V30 6774 O 655.637 -0.260228 1.94164 0
M  V30 6775 H 654.217 0.676792 0.316166 0
M  V30 6776 H 656.879 1.94462 0.130538 0
M  V30 6777 H 655.975 2.78677 1.40518 0
M  V30 6778 N 656.276 -0.40816 1.52223 0
M  V30 6779 C 657.504 -1.17672 1.70179 0
M  V30 6780 C 657.919 -1.84257 0.411696 0
M  V30 6781 O 657.276 -1.7192 -0.612354 0
M  V30 6782 C 657.327 -2.23911 2.83806 0
M  V30 6783 O 657.048 -1.60044 4.0782 0
M  V30 6784 C 658.549 -3.1364 3.13281 0
M  V30 6785 H 655.769 -0.353562 0.570293 0
M  V30 6786 H 658.313 -0.480083 1.98785 0
M  V30 6787 H 656.468 -2.89242 2.57717 0
M  V30 6788 H 656.882 -2.30484 4.71145 0
M  V30 6789 H 658.356 -3.84255 3.96298 0
M  V30 6790 H 658.833 -3.76066 2.26872 0
M  V30 6791 H 659.439 -2.53977 3.41139 0
M  V30 6792 N 657.755 -1.42862 -0.66545 0
M  V30 6793 C 658.687 -1.43026 -1.79098 0
M  V30 6794 C 659.7 -0.32803 -1.59461 0
M  V30 6795 O 660.889 -0.591709 -1.68407 0
M  V30 6796 C 657.989 -1.21566 -3.16346 0
M  V30 6797 C 657.162 -2.44399 -3.62751 0
M  V30 6798 C 656.221 -2.18344 -4.78761 0
M  V30 6799 O 655.247 -2.91611 -4.88827 0
M  V30 6800 N 656.449 -1.1924 -5.68122 0
M  V30 6801 H 659.214 -2.40045 -1.79439 0
M  V30 6802 H 656.775 -1.37861 -0.848872 0
M  V30 6803 H 658.767 -1.02037 -3.91625 0
M  V30 6804 H 657.337 -0.330368 -3.10849 0
M  V30 6805 H 656.557 -2.79433 -2.78048 0
M  V30 6806 H 657.845 -3.26173 -3.90498 0
M  V30 6807 H 657.243 -0.586603 -5.6265 0
M  V30 6808 H 655.8 -1.05698 -6.43173 0
M  V30 6809 N 659.233 0.902656 -1.29189 0
M  V30 6810 C 660.481 1.6496 -1.16758 0
M  V30 6811 C 660.802 1.92952 0.28188 0
M  V30 6812 O 660.072 1.55351 1.19344 0
M  V30 6813 H 658.652 0.611447 -0.429118 0
M  V30 6814 H 661.314 1.0825 -1.62074 0
M  V30 6815 H 660.41 2.60728 -1.71544 0
M  V30 6816 N 660.711 1.11618 1.11262 0
M  V30 6817 C 661.988 0.777876 1.79467 0
M  V30 6818 C 662.368 -0.733774 1.97937 0
M  V30 6819 O 661.716 -1.66443 1.56554 0
M  V30 6820 C 661.926 1.5431 3.13032 0
M  V30 6821 C 663.274 1.72357 3.88044 0
M  V30 6822 O 664.298 1.5075 3.22727 0
M  V30 6823 O 663.157 2.08276 5.05256 0
M  V30 6824 H 660.251 0.282018 0.777428 0
M  V30 6825 H 662.797 1.21971 1.17988 0
M  V30 6826 H 661.569 2.57132 2.94956 0
M  V30 6827 H 661.192 1.09495 3.82226 0
M  V30 6828 N 662.189 -1.289 0.906776 0
M  V30 6829 C 663.436 -1.95269 0.536326 0
M  V30 6830 C 663.764 -1.71435 -0.918711 0
M  V30 6831 O 663.019 -1.02431 -1.66752 0
M  V30 6832 C 663.318 -3.48704 0.783617 0
M  V30 6833 C 662.984 -3.92626 2.21711 0
M  V30 6834 C 661.646 -4.04329 2.60906 0
M  V30 6835 C 663.998 -4.15218 3.15029 0
M  V30 6836 C 661.326 -4.35998 3.92584 0
M  V30 6837 C 663.678 -4.48365 4.46264 0
M  V30 6838 C 662.342 -4.58278 4.85322 0
M  V30 6839 H 661.612 -0.714538 0.196256 0
M  V30 6840 H 664.259 -1.53366 1.14678 0
M  V30 6841 H 662.564 -3.91696 0.0903048 0
M  V30 6842 H 664.261 -3.98162 0.476267 0
M  V30 6843 H 660.851 -3.84038 1.90296 0
M  V30 6844 H 665.035 -4.05636 2.8596 0
M  V30 6845 H 660.291 -4.41878 4.22557 0
M  V30 6846 H 664.465 -4.64795 5.18593 0
M  V30 6847 H 662.092 -4.82573 5.87391 0
M  V30 6848 N 663.667 -0.670007 -1.42649 0
M  V30 6849 C 664.892 -0.196955 -2.06463 0
M  V30 6850 C 665.317 1.1352 -1.49983 0
M  V30 6851 O 664.675 1.705 -0.616397 0
M  V30 6852 C 664.723 -0.137381 -3.60338 0
M  V30 6853 O 663.827 0.895523 -4.02559 0
M  V30 6854 H 663.168 -0.102579 -0.656029 0
M  V30 6855 H 665.698 -0.917669 -1.82866 0
M  V30 6856 H 665.708 0.0403625 -4.0798 0
M  V30 6857 H 664.383 -1.10977 -4.0082 0
M  V30 6858 H 662.96 0.689209 -3.66476 0
M  V30 6859 N 665.145 1.52092 -0.413018 0
M  V30 6860 C 666.373 2.06274 0.160881 0
M  V30 6861 C 666.788 1.28273 1.38533 0
M  V30 6862 O 666.145 0.33563 1.79387 0
M  V30 6863 C 666.196 3.57921 0.507443 0
M  V30 6864 O 665.917 4.32971 -0.668388 0
M  V30 6865 C 667.418 4.28533 1.13465 0
M  V30 6866 H 664.638 0.67074 0.0186759 0
M  V30 6867 H 667.182 1.95951 -0.585092 0
M  V30 6868 H 665.337 3.68238 1.20331 0
M  V30 6869 H 665.751 5.23135 -0.378169 0
M  V30 6870 H 667.225 5.35804 1.32732 0
M  V30 6871 H 667.702 3.85258 2.10886 0
M  V30 6872 H 668.308 4.22595 0.478876 0
M  V30 6873 N 666.623 0.143563 1.56945 0
M  V30 6874 C 667.851 -0.515447 2.00377 0
M  V30 6875 C 668.266 -1.58643 1.02361 0
M  V30 6876 O 667.623 -1.82489 0.0201039 0
M  V30 6877 C 667.674 -1.11923 3.43737 0
M  V30 6878 O 667.395 -0.0910318 4.38005 0
M  V30 6879 C 668.896 -1.85918 4.02429 0
M  V30 6880 H 666.116 -0.134478 0.657386 0
M  V30 6881 H 668.66 0.237135 2.0312 0
M  V30 6882 H 666.815 -1.82245 3.41856 0
M  V30 6883 H 667.229 -0.532916 5.21786 0
M  V30 6884 H 668.703 -2.2346 5.04747 0
M  V30 6885 H 669.18 -2.7438 3.42947 0
M  V30 6886 H 669.786 -1.20303 4.07931 0
M  V30 6887 N 668.101 -1.57061 -0.130224 0
M  V30 6888 C 669.051 -1.95941 -1.16582 0
M  V30 6889 C 670.035 -0.832858 -1.37667 0
M  V30 6890 O 671.227 -1.09647 -1.38948 0
M  V30 6891 C 668.356 -2.35777 -2.49528 0
M  V30 6892 C 667.442 -3.5504 -2.31964 0
M  V30 6893 N 667.833 -4.71071 -1.84189 0
M  V30 6894 C 666.131 -3.60453 -2.62659 0
M  V30 6895 C 666.832 -5.53128 -1.80068 0
M  V30 6896 N 665.808 -4.95303 -2.24001 0
M  V30 6897 H 669.61 -2.83117 -0.788806 0
M  V30 6898 H 667.124 -1.58842 -0.3381 0
M  V30 6899 H 669.121 -2.61843 -3.24413 0
M  V30 6900 H 667.781 -1.49961 -2.87996 0
M  V30 6901 H 668.792 -4.94504 -1.53903 0
M  V30 6902 H 665.469 -2.85217 -3.0489 0
M  V30 6903 H 666.859 -6.56182 -1.4448 0
M  V30 6904 N 669.579 0.400081 -1.52437 0
M  V30 6905 C 670.542 1.4707 -1.75793 0
M  V30 6906 C 671.542 1.48036 -0.627856 0
M  V30 6907 O 672.732 1.49401 -0.895817 0
M  V30 6908 C 669.864 2.86427 -1.84858 0
M  V30 6909 H 671.057 1.27649 -2.71377 0
M  V30 6910 H 668.61 0.631141 -1.42991 0
M  V30 6911 H 669.345 3.11207 -0.912194 0
M  V30 6912 H 669.13 2.87128 -2.6702 0
M  V30 6913 H 670.62 3.64023 -2.04638 0
M  V30 6914 N 671.057 1.43213 0.657864 0
M  V30 6915 C 671.987 1.50815 1.78262 0
M  V30 6916 C 672.968 0.363211 1.66177 0
M  V30 6917 O 674.153 0.579806 1.85343 0
M  V30 6918 C 671.283 1.42625 3.16663 0
M  V30 6919 C 670.237 2.5532 3.43505 0
M  V30 6920 C 669.563 2.32184 4.81658 0
M  V30 6921 C 670.863 3.97583 3.38711 0
M  V30 6922 H 672.557 2.44954 1.72157 0
M  V30 6923 H 670.103 1.17896 0.82683 0
M  V30 6924 H 672.056 1.46548 3.95097 0
M  V30 6925 H 670.78 0.449877 3.23487 0
M  V30 6926 H 669.439 2.50742 2.6744 0
M  V30 6927 H 669.087 1.32801 4.85153 0
M  V30 6928 H 668.787 3.07724 5.00579 0
M  V30 6929 H 670.311 2.37883 5.62356 0
M  V30 6930 H 671.725 4.03673 4.07089 0
M  V30 6931 H 670.122 4.73112 3.69168 0
M  V30 6932 H 671.192 4.23049 2.36976 0
M  V30 6933 N 672.536 -0.895792 1.29666 0
M  V30 6934 C 673.947 -1.46195 1.1612 0
M  V30 6935 C 674.298 -1.94699 -0.242195 0
M  V30 6936 O 673.423 -1.8406 -1.13802 0
M  V30 6937 C 674.018 -2.65718 2.10189 0
M  V30 6938 C 672.577 -3.18458 2.00653 0
M  V30 6939 C 671.724 -1.91149 2.00891 0
M  V30 6940 H 674.675 -0.706756 1.42094 0
M  V30 6941 H 674.696 -3.4158 1.6764 0
M  V30 6942 H 674.208 -2.30386 3.12321 0
M  V30 6943 H 672.309 -3.58474 1.01623 0
M  V30 6944 H 672.422 -3.82491 2.88509 0
M  V30 6945 H 670.786 -2.09021 1.45542 0
M  V30 6946 H 671.569 -1.58089 3.04734 0
M  V30 6947 N 674.014 -1.12206 -1.10668 0
M  V30 6948 C 674.977 -0.790867 -2.15123 0
M  V30 6949 C 675.977 0.193618 -1.5963 0
M  V30 6950 O 677.167 -0.0318728 -1.74171 0
M  V30 6951 C 674.299 -0.174797 -3.40452 0
M  V30 6952 H 675.492 -1.7163 -2.45933 0
M  V30 6953 H 673.045 -0.924993 -1.2599 0
M  V30 6954 H 673.78 0.760478 -3.15257 0
M  V30 6955 H 673.565 -0.88358 -3.82015 0
M  V30 6956 H 675.055 0.0405162 -4.1758 0
M  V30 6957 N 675.492 1.28418 -0.913599 0
M  V30 6958 C 676.738 1.9527 -0.547484 0
M  V30 6959 C 677.071 1.71745 0.906486 0
M  V30 6960 O 676.346 1.03834 1.64465 0
M  V30 6961 C 676.629 3.49748 -0.857205 0
M  V30 6962 C 676.482 3.82675 -2.3639 0
M  V30 6963 C 677.801 4.3868 -0.353258 0
M  V30 6964 H 674.92 0.709236 -0.200381 0
M  V30 6965 H 677.562 1.51789 -1.14281 0
M  V30 6966 H 675.712 3.86915 -0.350548 0
M  V30 6967 H 677.384 3.55378 -2.94116 0
M  V30 6968 H 675.627 3.29724 -2.81894 0
M  V30 6969 H 676.298 4.90547 -2.53115 0
M  V30 6970 H 678.774 4.08584 -0.787288 0
M  V30 6971 H 677.65 5.45621 -0.599049 0
M  V30 6972 H 677.911 4.35753 0.746413 0
M  V30 6973 N 676.97 0.677563 1.42291 0
M  V30 6974 C 677.917 0.000947061 2.308 0
M  V30 6975 C 678.887 -0.789889 1.46116 0
M  V30 6976 O 680.072 -0.761578 1.74942 0
M  V30 6977 C 677.212 -0.942387 3.31984 0
M  V30 6978 C 676.325 -0.14508 4.31756 0
M  V30 6979 C 675.46 -1.08442 5.20013 0
M  V30 6980 C 674.499 -0.278958 6.11464 0
M  V30 6981 N 673.636 -1.17115 6.92263 0
M  V30 6982 H 678.476 0.761521 2.88106 0
M  V30 6983 H 676.013 0.38727 1.41911 0
M  V30 6984 H 677.971 -1.50317 3.89179 0
M  V30 6985 H 676.601 -1.66956 2.76271 0
M  V30 6986 H 675.653 0.532368 3.76656 0
M  V30 6987 H 676.965 0.48015 4.96484 0
M  V30 6988 H 676.119 -1.71504 5.81955 0
M  V30 6989 H 674.858 -1.74353 4.55469 0
M  V30 6990 H 673.863 0.364856 5.48588 0
M  V30 6991 H 675.088 0.376099 6.78058 0
M  V30 6992 H 673.034 -1.81661 6.30345 0
M  V30 6993 H 672.951 -0.601063 7.53607 0
M  V30 6994 H 674.219 -1.78915 7.58689 0
M  V30 6995 N 678.448 -1.51871 0.421078 0
M  V30 6996 C 679.694 -2.02237 -0.151014 0
M  V30 6997 C 680.027 -1.30554 -1.43768 0
M  V30 6998 O 679.302 -0.41546 -1.90011 0
M  V30 6999 C 679.585 -3.5802 -0.386482 0
M  V30 7000 C 679.438 -4.40339 0.9177 0
M  V30 7001 C 680.757 -4.24444 -1.16342 0
M  V30 7002 H 677.876 -0.735062 -0.0534102 0
M  V30 7003 H 680.518 -1.81656 0.556888 0
M  V30 7004 H 678.668 -3.75688 -0.989494 0
M  V30 7005 H 680.34 -4.34357 1.55344 0
M  V30 7006 H 678.583 -4.06073 1.526 0
M  V30 7007 H 679.254 -5.47451 0.707187 0
M  V30 7008 H 681.73 -4.10948 -0.652788 0
M  V30 7009 H 680.606 -5.33358 -1.29693 0
M  V30 7010 H 680.867 -3.84204 -2.18724 0
M  V30 7011 N 679.926 -0.151884 -1.56866 0
M  V30 7012 C 680.873 0.785936 -2.17006 0
M  V30 7013 C 681.843 1.2407 -1.10435 0
M  V30 7014 O 683.028 1.31235 -1.38499 0
M  V30 7015 C 680.168 2.01771 -2.79969 0
M  V30 7016 C 679.281 1.6083 -4.00946 0
M  V30 7017 C 678.416 2.79224 -4.51893 0
M  V30 7018 C 677.455 2.3468 -5.65324 0
M  V30 7019 N 676.592 3.461 -6.10867 0
M  V30 7020 H 681.432 0.266286 -2.96808 0
M  V30 7021 H 678.969 0.11972 -1.46612 0
M  V30 7022 H 680.927 2.73989 -3.14621 0
M  V30 7023 H 679.557 2.51139 -2.02803 0
M  V30 7024 H 678.609 0.783592 -3.72242 0
M  V30 7025 H 679.921 1.24119 -4.83111 0
M  V30 7026 H 679.075 3.59625 -4.88625 0
M  V30 7027 H 677.814 3.19183 -3.68746 0
M  V30 7028 H 676.819 1.52721 -5.28163 0
M  V30 7029 H 678.044 1.95801 -6.5026 0
M  V30 7030 H 675.99 3.85671 -5.30654 0
M  V30 7031 H 675.907 3.1342 -6.87971 0
M  V30 7032 H 677.175 4.26844 -6.52246 0
M  V30 7033 N 681.404 1.57128 0.121893 0
M  V30 7034 C 682.334 2.03165 1.15092 0
M  V30 7035 C 683.315 0.915587 1.43356 0
M  V30 7036 O 684.5 1.1851 1.53847 0
M  V30 7037 C 681.63 2.43352 2.47784 0
M  V30 7038 C 680.584 3.58376 2.33989 0
M  V30 7039 C 679.91 3.84454 3.71617 0
M  V30 7040 C 681.21 4.90199 1.80283 0
M  V30 7041 H 682.904 2.89382 0.768023 0
M  V30 7042 H 680.45 1.39218 0.367998 0
M  V30 7043 H 682.403 2.74163 3.20019 0
M  V30 7044 H 681.127 1.54103 2.87958 0
M  V30 7045 H 679.786 3.2777 1.64202 0
M  V30 7046 H 679.434 2.92414 4.09271 0
M  V30 7047 H 679.134 4.61877 3.6324 0
M  V30 7048 H 680.658 4.17714 4.45362 0
M  V30 7049 H 682.072 5.19565 2.42333 0
M  V30 7050 H 680.469 5.71601 1.82735 0
M  V30 7051 H 681.539 4.78904 0.760184 0
M  V30 7052 N 682.882 -0.391992 1.52647 0
M  V30 7053 C 684.129 -1.13732 1.67545 0
M  V30 7054 C 684.457 -1.90045 0.413881 0
M  V30 7055 O 683.712 -1.86157 -0.603646 0
M  V30 7056 C 684.011 -2.14401 2.85949 0
M  V30 7057 C 683.677 -1.54767 4.23507 0
M  V30 7058 C 682.339 -1.38229 4.60919 0
M  V30 7059 C 684.691 -1.11382 5.0916 0
M  V30 7060 C 682.019 -0.7685 5.81645 0
M  V30 7061 C 684.371 -0.514143 6.30507 0
M  V30 7062 C 683.035 -0.33604 6.66654 0
M  V30 7063 H 682.305 -0.416174 0.613091 0
M  V30 7064 H 684.952 -0.422327 1.86785 0
M  V30 7065 H 683.257 -2.92108 2.61114 0
M  V30 7066 H 684.954 -2.71974 2.94671 0
M  V30 7067 H 681.544 -1.68626 3.94035 0
M  V30 7068 H 685.728 -1.22962 4.80826 0
M  V30 7069 H 680.984 -0.618681 6.08262 0
M  V30 7070 H 685.158 -0.169657 6.96193 0
M  V30 7071 H 682.785 0.14166 7.60068 0
M  V30 7072 N 684.36 -1.4356 -0.65026 0
M  V30 7073 C 685.588 -1.48779 -1.43779 0
M  V30 7074 C 686.003 -0.106593 -1.88499 0
M  V30 7075 O 685.36 0.883766 -1.59674 0
M  V30 7076 C 685.411 -2.43618 -2.67081 0
M  V30 7077 O 685.132 -3.76367 -2.24231 0
M  V30 7078 C 686.633 -2.5811 -3.60409 0
M  V30 7079 H 683.853 -0.50521 -0.441593 0
M  V30 7080 H 686.397 -1.88332 -0.796941 0
M  V30 7081 H 684.552 -2.07253 -3.273 0
M  V30 7082 H 684.966 -4.27394 -3.0403 0
M  V30 7083 H 686.44 -3.28539 -4.43583 0
M  V30 7084 H 686.917 -1.627 -4.07953 0
M  V30 7085 H 687.523 -2.95298 -3.0607 0
M  V30 7086 N 685.838 0.888903 -1.30139 0
M  V30 7087 C 686.748 2.02705 -1.18101 0
M  V30 7088 C 687.764 1.73702 -0.101809 0
M  V30 7089 O 688.94 1.98906 -0.315984 0
M  V30 7090 C 686.005 3.35616 -0.869651 0
M  V30 7091 C 685.066 3.78067 -2.03381 0
M  V30 7092 C 684.299 5.04635 -1.73721 0
M  V30 7093 O 684.522 5.66531 -0.663267 0
M  V30 7094 O 683.456 5.43399 -2.58845 0
M  V30 7095 H 687.282 2.15788 -2.13704 0
M  V30 7096 H 684.867 1.01426 -1.09695 0
M  V30 7097 H 686.749 4.15358 -0.711043 0
M  V30 7098 H 685.424 3.23651 0.0565002 0
M  V30 7099 H 684.331 2.99046 -2.24772 0
M  V30 7100 H 685.664 3.94631 -2.94155 0
M  V30 7101 N 687.317 1.12792 1.10072 0
M  V30 7102 C 688.542 0.908838 1.86427 0
M  V30 7103 C 688.967 -0.536793 1.80278 0
M  V30 7104 O 688.325 -1.38033 1.17543 0
M  V30 7105 C 688.373 1.39295 3.3261 0
M  V30 7106 O 687.477 0.573846 4.08388 0
M  V30 7107 H 686.818 0.326234 0.578331 0
M  V30 7108 H 689.348 1.50094 1.39043 0
M  V30 7109 H 689.358 1.39366 3.83459 0
M  V30 7110 H 688.033 2.44555 3.36401 0
M  V30 7111 H 686.61 0.640438 3.67359 0
M  V30 7112 N 688.795 -1.27931 0.920396 0
M  V30 7113 C 690.023 -1.98805 0.573087 0
M  V30 7114 C 690.438 -1.68724 -0.847201 0
M  V30 7115 O 689.795 -0.943699 -1.56207 0
M  V30 7116 C 689.846 -3.52971 0.780633 0
M  V30 7117 O 689.567 -3.81994 2.14504 0
M  V30 7118 C 691.068 -4.411 0.44105 0
M  V30 7119 H 688.288 -0.634651 0.21785 0
M  V30 7120 H 690.832 -1.62965 1.23542 0
M  V30 7121 H 688.987 -3.87048 0.165204 0
M  V30 7122 H 689.401 -4.76609 2.18962 0
M  V30 7123 H 690.875 -5.48312 0.637006 0
M  V30 7124 H 691.352 -4.34758 -0.62306 0
M  V30 7125 H 691.958 -4.12532 1.0343 0
M  V30 7126 N 690.273 -0.685099 -1.4193 0
M  V30 7127 C 691.521 -0.21124 -2.00993 0
M  V30 7128 C 691.842 1.18985 -1.54491 0
M  V30 7129 O 691.112 1.8009 -0.771 0
M  V30 7130 H 689.692 -0.0751059 -0.743215 0
M  V30 7131 H 692.354 -0.883915 -1.73704 0
M  V30 7132 H 691.45 -0.220513 -3.1132 0
M  V30 7133 N 691.751 1.51645 -0.429126 0
M  V30 7134 C 692.997 2.02314 0.140286 0
M  V30 7135 C 693.33 1.31314 1.43074 0
M  V30 7136 O 692.605 0.425531 1.89788 0
M  V30 7137 C 692.888 3.5822 0.36749 0
M  V30 7138 C 692.741 4.39846 -0.941039 0
M  V30 7139 C 694.06 4.25055 1.14089 0
M  V30 7140 H 691.179 0.735335 0.0495112 0
M  V30 7141 H 693.821 1.81358 -0.566514 0
M  V30 7142 H 691.971 3.76207 0.969556 0
M  V30 7143 H 693.643 4.33527 -1.57646 0
M  V30 7144 H 691.886 4.05259 -1.54751 0
M  V30 7145 H 692.557 5.47069 -0.73621 0
M  V30 7146 H 695.033 4.11288 0.630986 0
M  V30 7147 H 693.909 5.34038 1.26863 0
M  V30 7148 H 694.17 3.85358 2.16683 0
M  V30 7149 N 693.229 0.160201 1.56784 0
M  V30 7150 C 694.159 -0.770264 2.2043 0
M  V30 7151 C 695.14 -1.24736 1.15651 0
M  V30 7152 O 696.325 -1.30253 1.44041 0
M  V30 7153 C 693.455 -2.00427 2.83631 0
M  V30 7154 C 692.409 -1.66345 3.94352 0
M  V30 7155 C 691.735 -2.97119 4.4455 0
M  V30 7156 C 693.035 -0.899972 5.14488 0
M  V30 7157 H 694.729 -0.239783 2.98438 0
M  V30 7158 H 692.275 -0.113891 1.43549 0
M  V30 7159 H 694.228 -2.66012 3.26827 0
M  V30 7160 H 692.952 -2.5587 2.02973 0
M  V30 7161 H 691.611 -1.03133 3.51794 0
M  V30 7162 H 691.259 -3.5058 3.60698 0
M  V30 7163 H 690.959 -2.75073 5.19238 0
M  V30 7164 H 692.483 -3.63753 4.90425 0
M  V30 7165 H 693.897 -1.45818 5.54446 0
M  V30 7166 H 692.294 -0.778968 5.95023 0
M  V30 7167 H 693.364 0.105827 4.84785 0
M  V30 7168 N 694.707 -1.5719 -0.113559 0
M  V30 7169 C 695.67 -1.99796 -1.12314 0
M  V30 7170 C 696.67 -0.888847 -1.34001 0
M  V30 7171 O 697.86 -1.15476 -1.30426 0
M  V30 7172 C 694.992 -2.34279 -2.47641 0
M  V30 7173 H 696.185 -2.90193 -0.756825 0
M  V30 7174 H 693.738 -1.52144 -0.358029 0
M  V30 7175 H 694.473 -1.46778 -2.89183 0
M  V30 7176 H 694.258 -3.15175 -2.33253 0
M  V30 7177 H 695.748 -2.67963 -3.2029 0
M  V30 7178 N 696.185 0.383891 -1.52853 0
M  V30 7179 C 697.115 1.47559 -1.80965 0
M  V30 7180 C 698.096 1.5669 -0.661986 0
M  V30 7181 O 699.281 1.71556 -0.910072 0
M  V30 7182 C 696.411 2.85114 -1.98312 0
M  V30 7183 C 695.365 2.9082 -3.14019 0
M  V30 7184 C 694.691 4.30873 -3.16627 0
M  V30 7185 C 695.991 2.60001 -4.52986 0
M  V30 7186 H 697.685 1.24283 -2.72386 0
M  V30 7187 H 695.231 0.596445 -1.31067 0
M  V30 7188 H 697.184 3.61496 -2.16561 0
M  V30 7189 H 695.908 3.09738 -1.03585 0
M  V30 7190 H 694.567 2.16886 -2.9556 0
M  V30 7191 H 694.215 4.52545 -2.19573 0
M  V30 7192 H 693.915 4.3561 -3.94357 0
M  V30 7193 H 695.439 5.09154 -3.37038 0
M  V30 7194 H 696.853 3.261 -4.71521 0
M  V30 7195 H 695.25 2.76081 -5.32822 0
M  V30 7196 H 696.32 1.5532 -4.59351 0
M  V30 7197 N 697.663 1.43903 0.642637 0
M  V30 7198 C 698.573 1.52349 1.78401 0
M  V30 7199 C 699.589 0.409869 1.69104 0
M  V30 7200 O 700.765 0.665548 1.90085 0
M  V30 7201 C 697.83 1.45408 3.14734 0
M  V30 7202 C 696.891 2.67528 3.35749 0
M  V30 7203 C 696.124 2.60909 4.65577 0
M  V30 7204 O 696.347 1.6627 5.45628 0
M  V30 7205 O 695.281 3.5158 4.88544 0
M  V30 7206 H 699.107 2.48752 1.7423 0
M  V30 7207 H 696.692 1.26021 0.802439 0
M  V30 7208 H 698.574 1.44019 3.96026 0
M  V30 7209 H 697.249 0.521437 3.19473 0
M  V30 7210 H 696.156 2.74487 2.5418 0
M  V30 7211 H 697.489 3.598 3.35864 0
M  V30 7212 N 699.141 -0.881989 1.30609 0
M  V30 7213 C 700.418 -1.61563 1.10258 0
M  V30 7214 C 700.798 -2.08228 -0.347053 0
M  V30 7215 O 700.146 -1.85151 -1.33908 0
M  V30 7216 C 700.356 -2.78287 2.10612 0
M  V30 7217 C 701.704 -3.48545 2.4249 0
M  V30 7218 O 702.728 -2.88479 2.08945 0
M  V30 7219 O 701.587 -4.56873 2.99883 0
M  V30 7220 H 698.681 -0.710238 0.423663 0
M  V30 7221 H 701.227 -0.928503 1.42045 0
M  V30 7222 H 699.999 -2.41131 3.08174 0
M  V30 7223 H 699.622 -3.54695 1.79659 0
M  V30 7224 N 700.619 -1.13374 -1.09472 0
M  V30 7225 C 701.566 -0.810682 -2.16094 0
M  V30 7226 C 702.536 0.227003 -1.64541 0
M  V30 7227 O 703.721 0.0993538 -1.90541 0
M  V30 7228 C 700.861 -0.282336 -3.43943 0
M  V30 7229 C 699.974 -1.37902 -4.09398 0
M  V30 7230 C 699.109 -0.809066 -5.25002 0
M  V30 7231 C 698.148 -1.88419 -5.82379 0
M  V30 7232 N 697.285 -1.33221 -6.89345 0
M  V30 7233 H 702.125 -1.72397 -2.43071 0
M  V30 7234 H 699.662 -0.860564 -1.19301 0
M  V30 7235 H 701.62 0.0421189 -4.17179 0
M  V30 7236 H 700.25 0.594083 -3.17286 0
M  V30 7237 H 699.302 -1.82008 -3.34032 0
M  V30 7238 H 700.614 -2.19161 -4.48074 0
M  V30 7239 H 699.768 -0.435867 -6.05132 0
M  V30 7240 H 698.507 0.0346058 -4.87688 0
M  V30 7241 H 697.512 -2.26646 -5.00911 0
M  V30 7242 H 698.737 -2.73125 -6.21755 0
M  V30 7243 H 696.683 -0.510535 -6.5401 0
M  V30 7244 H 696.6 -2.08129 -7.26786 0
M  V30 7245 H 697.868 -0.986565 -7.73232 0
M  V30 7246 N 702.098 1.27442 -0.927168 0
M  V30 7247 C 703.008 2.30599 -0.431448 0
M  V30 7248 C 704.024 1.67028 0.48761 0
M  V30 7249 O 705.2 1.97962 0.370546 0
M  V30 7250 C 702.265 3.45327 0.308292 0
M  V30 7251 C 701.326 4.24418 -0.645615 0
M  V30 7252 C 700.559 5.33667 0.0589164 0
M  V30 7253 O 700.782 5.5589 1.27838 0
M  V30 7254 O 699.716 5.98774 -0.612638 0
M  V30 7255 H 703.542 2.75036 -1.28797 0
M  V30 7256 H 701.127 1.32382 -0.692495 0
M  V30 7257 H 703.009 4.15107 0.725555 0
M  V30 7258 H 701.684 3.02945 1.14043 0
M  V30 7259 H 700.591 3.57174 -1.11255 0
M  V30 7260 H 701.924 4.70512 -1.44496 0
M  V30 7261 N 703.576 0.692616 1.41565 0
M  V30 7262 C 704.506 0.0397325 2.33466 0
M  V30 7263 C 705.487 -0.770334 1.51657 0
M  V30 7264 O 706.672 -0.723903 1.80203 0
M  V30 7265 C 703.802 -0.899495 3.3545 0
M  V30 7266 C 702.756 -0.196738 4.27548 0
M  V30 7267 C 702.082 -1.25012 5.19881 0
M  V30 7268 C 703.382 0.935158 5.1386 0
M  V30 7269 H 705.076 0.807296 2.88311 0
M  V30 7270 H 702.622 0.389665 1.38628 0
M  V30 7271 H 704.575 -1.36545 3.98665 0
M  V30 7272 H 703.299 -1.69869 2.78948 0
M  V30 7273 H 701.958 0.249158 3.65752 0
M  V30 7274 H 701.606 -2.04177 4.59696 0
M  V30 7275 H 701.306 -0.784931 5.82334 0
M  V30 7276 H 702.83 -1.71665 5.85972 0
M  V30 7277 H 704.244 0.549619 5.70659 0
M  V30 7278 H 702.641 1.32726 5.85238 0
M  V30 7279 H 703.711 1.77613 4.512 0
M  V30 7280 N 705.054 -1.51416 0.437162 0
M  V30 7281 C 706.302 -2.01687 -0.129108 0
M  V30 7282 C 706.623 -1.32329 -1.43227 0
M  V30 7283 O 705.893 -0.457796 -1.90476 0
M  V30 7284 H 704.473 -0.745277 -0.0507023 0
M  V30 7285 H 707.135 -1.86075 0.579828 0
M  V30 7286 H 706.231 -3.10605 -0.305141 0
M  V30 7287 N 706.532 -0.168513 -1.56696 0
M  V30 7288 C 707.948 0.187686 -1.58493 0
M  V30 7289 C 708.148 1.63063 -1.18375 0
M  V30 7290 O 707.204 2.36142 -0.894042 0
M  V30 7291 C 708.517 -0.0905858 -3.00564 0
M  V30 7292 C 710.065 -0.028575 -3.12987 0
M  V30 7293 C 710.54 -0.279799 -4.57145 0
M  V30 7294 N 712.031 -0.227476 -4.62641 0
M  V30 7295 C 712.766 -0.396073 -5.7203 0
M  V30 7296 N 712.262 -0.623572 -6.89988 0
M  V30 7297 N 714.055 -0.332173 -5.61118 0
M  V30 7298 H 706.206 -1.11042 -1.81062 0
M  V30 7299 H 708.469 -0.441235 -0.839056 0
M  V30 7300 H 708.175 -1.09006 -3.34381 0
M  V30 7301 H 708.049 0.619078 -3.72085 0
M  V30 7302 H 710.436 0.961471 -2.78998 0
M  V30 7303 H 710.517 -0.770905 -2.43907 0
M  V30 7304 H 710.161 -1.26704 -4.91842 0
M  V30 7305 H 710.091 0.48311 -5.24379 0
M  V30 7306 H 712.582 -0.0571723 -3.77857 0
M  V30 7307 H 712.895 -0.741745 -7.69232 0
M  V30 7308 H 711.24 -0.660153 -6.91858 0
M  V30 7309 H 714.431 -0.155051 -4.67843 0
M  V30 7310 H 714.604 -0.466994 -6.46315 0
M  V30 7311 N 708.01 1.57248 0.105221 0
M  V30 7312 C 709.256 1.85845 0.811753 0
M  V30 7313 C 709.589 0.756219 1.78871 0
M  V30 7314 O 708.864 -0.236736 1.93054 0
M  V30 7315 C 709.147 3.25059 1.54947 0
M  V30 7316 C 709 4.45898 0.591185 0
M  V30 7317 C 710.319 3.6203 2.50245 0
M  V30 7318 H 707.438 0.675973 0.293649 0
M  V30 7319 H 710.08 1.89849 0.0756269 0
M  V30 7320 H 708.23 3.21776 2.17698 0
M  V30 7321 H 709.902 4.61291 -0.0285352 0
M  V30 7322 H 708.145 4.33693 -0.0962343 0
M  V30 7323 H 708.816 5.40009 1.1443 0
M  V30 7324 H 711.292 3.66192 1.97593 0
M  V30 7325 H 710.168 4.60389 2.98886 0
M  V30 7326 H 710.429 2.90176 3.33542 0
M  V30 7327 N 709.488 -0.375779 1.53054 0
M  V30 7328 C 710.737 -1.11674 1.67964 0
M  V30 7329 C 711.05 -1.90755 0.432655 0
M  V30 7330 O 712.256 -2.67538 0.462109 0
M  V30 7331 C 710.712 -2.0344 2.96884 0
M  V30 7332 C 710.32 -1.29719 4.28809 0
M  V30 7333 C 712.064 -2.7759 3.2116 0
M  V30 7334 C 709.971 -2.20327 5.48826 0
M  V30 7335 H 708.901 -0.420597 0.625791 0
M  V30 7336 H 711.552 -0.378499 1.79554 0
M  V30 7337 H 709.934 -2.80953 2.79072 0
M  V30 7338 H 711.108 -0.573394 4.57219 0
M  V30 7339 H 709.423 -0.674735 4.10897 0
M  V30 7340 H 712.02 -3.4559 4.0801 0
M  V30 7341 H 712.363 -3.42399 2.36789 0
M  V30 7342 H 712.896 -2.07164 3.396 0
M  V30 7343 H 709.635 -1.60113 6.35645 0
M  V30 7344 H 709.155 -2.90585 5.2471 0
M  V30 7345 H 710.834 -2.80116 5.83219 0
M  V30 7346 N 710.966 -1.44241 -0.634997 0
M  V30 7347 C 711.896 -1.53632 -1.7584 0
M  V30 7348 C 712.877 -0.389603 -1.65578 0
M  V30 7349 O 714.062 -0.609219 -1.84397 0
M  V30 7350 C 711.192 -1.47644 -3.14354 0
M  V30 7351 C 710.146 -2.60752 -3.394 0
M  V30 7352 C 709.472 -2.39817 -4.77904 0
M  V30 7353 C 710.772 -4.02921 -3.32343 0
M  V30 7354 H 712.466 -2.47662 -1.68238 0
M  V30 7355 H 710.012 -1.19197 -0.807969 0
M  V30 7356 H 711.965 -1.52815 -3.92716 0
M  V30 7357 H 710.689 -0.501284 -3.2273 0
M  V30 7358 H 709.348 -2.54965 -2.63417 0
M  V30 7359 H 708.996 -1.40502 -4.82978 0
M  V30 7360 H 708.696 -3.15649 -4.9562 0
M  V30 7361 H 710.22 -2.46799 -5.585 0
M  V30 7362 H 711.634 -4.10098 -4.00615 0
M  V30 7363 H 710.031 -4.78925 -3.61595 0
M  V30 7364 H 711.101 -4.26766 -2.30215 0
M  V30 7365 N 712.444 0.87505 -1.31075 0
M  V30 7366 C 713.394 1.96933 -1.14898 0
M  V30 7367 C 714.378 1.60783 -0.0613703 0
M  V30 7368 O 715.57 1.74678 -0.285751 0
M  V30 7369 C 712.699 3.3253 -0.853166 0
M  V30 7370 C 711.785 3.74963 -1.98151 0
M  V30 7371 N 712.176 3.89403 -3.22799 0
M  V30 7372 C 710.474 4.04436 -1.8801 0
M  V30 7373 C 711.175 4.25563 -3.96574 0
M  V30 7374 N 710.151 4.3597 -3.24701 0
M  V30 7375 H 713.953 2.06201 -2.09424 0
M  V30 7376 H 711.467 1.06551 -1.22558 0
M  V30 7377 H 713.464 4.10666 -0.718266 0
M  V30 7378 H 712.124 3.24592 0.0839218 0
M  V30 7379 H 713.135 3.74266 -3.57974 0
M  V30 7380 H 709.812 4.04915 -1.01733 0
M  V30 7381 H 711.202 4.44375 -5.03965 0
M  V30 7382 N 713.922 1.13953 1.08869 0
M  V30 7383 C 715.333 0.916649 1.62648 0
M  V30 7384 C 715.684 -0.545589 1.88462 0
M  V30 7385 O 714.809 -1.41351 1.63856 0
M  V30 7386 C 715.404 1.65751 2.95486 0
M  V30 7387 C 713.963 1.48034 3.46068 0
M  V30 7388 C 713.11 1.68305 2.20383 0
M  V30 7389 H 716.061 1.292 0.921572 0
M  V30 7390 H 716.082 1.11794 3.63707 0
M  V30 7391 H 715.594 2.72171 2.76667 0
M  V30 7392 H 713.695 0.439416 3.7 0
M  V30 7393 H 713.808 2.24719 4.23129 0
M  V30 7394 H 712.172 1.10833 2.29321 0
M  V30 7395 H 712.955 2.76057 2.04077 0
M  V30 7396 N 715.4 -1.26948 0.933913 0
M  V30 7397 C 716.628 -1.98186 0.59414 0
M  V30 7398 C 717.043 -1.69614 -0.829257 0
M  V30 7399 O 716.4 -0.960213 -1.55197 0
M  V30 7400 C 716.451 -3.52123 0.818026 0
M  V30 7401 O 716.172 -3.79698 2.18543 0
M  V30 7402 C 717.673 -4.40608 0.48781 0
M  V30 7403 H 714.893 -0.632305 0.224569 0
M  V30 7404 H 717.437 -1.61646 1.25263 0
M  V30 7405 H 715.592 -3.86851 0.206246 0
M  V30 7406 H 716.006 -4.7426 2.24005 0
M  V30 7407 H 717.48 -5.47606 0.695126 0
M  V30 7408 H 717.957 -4.35394 -0.576913 0
M  V30 7409 H 718.563 -4.11411 1.078 0
M  V30 7410 N 716.879 -0.700114 -1.41195 0
M  V30 7411 C 718.29 -0.307249 -1.84154 0
M  V30 7412 C 718.641 1.15539 -1.58572 0
M  V30 7413 O 717.766 1.88744 -1.05852 0
M  V30 7414 C 718.361 -0.550872 -3.34292 0
M  V30 7415 C 716.92 -0.211877 -3.75803 0
M  V30 7416 C 716.067 -0.830915 -2.64558 0
M  V30 7417 H 719.018 -0.900431 -1.30683 0
M  V30 7418 H 719.039 0.188954 -3.80031 0
M  V30 7419 H 718.551 -1.61548 -3.5288 0
M  V30 7420 H 716.652 0.848283 -3.62815 0
M  V30 7421 H 716.765 -0.67007 -4.74391 0
M  V30 7422 H 715.129 -0.260155 -2.53368 0
M  V30 7423 H 715.912 -1.89948 -2.85963 0
M  V30 7424 N 718.357 1.51182 -0.445186 0
M  V30 7425 C 719.305 2.29531 0.376597 0
M  V30 7426 C 720.299 1.35711 1.01385 0
M  V30 7427 O 721.505 1.53018 0.947922 0
M  V30 7428 H 717.88 0.738803 0.140267 0
M  V30 7429 H 719.851 2.96838 -0.304958 0
M  V30 7430 C 718.6 3.1552 1.4609 0
M  V30 7431 H 717.923 3.87605 0.979912 0
M  V30 7432 H 719.363 3.73384 2.009 0
M  V30 7433 C 717.822 2.31406 2.44852 0
M  V30 7434 O 718.352 1.97912 3.49562 0
M  V30 7435 N 716.558 1.94478 2.15932 0
M  V30 7436 H 716.105 2.21917 1.30808 0
M  V30 7437 H 716.063 1.38498 2.82251 0
M  V30 7438 N 719.835 0.176821 1.56605 0
M  V30 7439 C 721.06 -0.47599 2.01864 0
M  V30 7440 C 721.485 -1.55645 1.05623 0
M  V30 7441 O 720.843 -1.81263 0.0366729 0
M  V30 7442 C 720.891 -1.02619 3.4569 0
M  V30 7443 O 719.995 -2.13996 3.52533 0
M  V30 7444 H 719.336 -0.113363 0.654251 0
M  V30 7445 H 721.866 0.28233 2.02643 0
M  V30 7446 H 721.876 -1.34742 3.85109 0
M  V30 7447 H 720.551 -0.235138 4.15235 0
M  V30 7448 H 719.128 -1.82876 3.24978 0
M  V30 7449 N 721.313 -1.57302 -0.09688 0
M  V30 7450 C 722.724 -1.7496 -0.651595 0
M  V30 7451 C 723.075 -0.798746 -1.79205 0
M  V30 7452 O 722.2 0.0231858 -2.16388 0
M  V30 7453 C 722.795 -3.17259 -1.18878 0
M  V30 7454 C 721.354 -3.36348 -1.68958 0
M  V30 7455 C 720.501 -2.70766 -0.598413 0
M  V30 7456 H 723.452 -1.58173 0.12918 0
M  V30 7457 H 723.473 -3.20033 -2.05814 0
M  V30 7458 H 722.985 -3.8644 -0.358523 0
M  V30 7459 H 721.086 -2.72243 -2.5439 0
M  V30 7460 H 721.199 -4.44654 -1.7838 0
M  V30 7461 H 719.563 -2.32615 -1.03743 0
M  V30 7462 H 720.346 -3.42586 0.221238 0
M  V30 7463 N 722.791 0.367657 -1.53252 0
M  V30 7464 C 723.738 1.45028 -1.79543 0
M  V30 7465 C 724.708 1.53288 -0.63969 0
M  V30 7466 O 725.893 1.69209 -0.881653 0
M  V30 7467 C 723.033 2.82 -1.98923 0
M  V30 7468 C 722.146 2.82722 -3.26638 0
M  V30 7469 C 721.281 4.11257 -3.36216 0
M  V30 7470 C 720.32 4.06113 -4.57972 0
M  V30 7471 N 719.457 5.26293 -4.64715 0
M  V30 7472 H 724.297 1.21908 -2.71923 0
M  V30 7473 H 721.834 0.591011 -1.34705 0
M  V30 7474 H 723.792 3.61568 -2.08146 0
M  V30 7475 H 722.422 3.03523 -1.09881 0
M  V30 7476 H 721.474 1.95399 -3.26379 0
M  V30 7477 H 722.786 2.74794 -4.16281 0
M  V30 7478 H 721.94 4.99239 -3.44739 0
M  V30 7479 H 720.679 4.21935 -2.44586 0
M  V30 7480 H 719.684 3.16517 -4.49552 0
M  V30 7481 H 720.909 3.97039 -5.50942 0
M  V30 7482 H 718.855 5.37561 -3.75985 0
M  V30 7483 H 718.772 5.20526 -5.4826 0
M  V30 7484 H 720.04 6.16113 -4.77519 0
M  V30 7485 N 724.269 1.44576 0.627338 0
M  V30 7486 C 725.201 1.47724 1.75243 0
M  V30 7487 C 726.214 0.370193 1.58535 0
M  V30 7488 O 727.403 0.636151 1.66779 0
M  V30 7489 C 724.503 1.2991 3.13012 0
M  V30 7490 C 723.676 2.5393 3.56143 0
M  V30 7491 C 722.735 2.30961 4.72804 0
M  V30 7492 O 721.761 3.04469 4.80923 0
M  V30 7493 N 722.963 1.34261 5.6476 0
M  V30 7494 H 725.728 2.44718 1.73012 0
M  V30 7495 H 723.289 1.40064 0.812022 0
M  V30 7496 H 725.281 1.12385 3.88782 0
M  V30 7497 H 723.851 0.412668 3.09864 0
M  V30 7498 H 723.071 2.86707 2.70542 0
M  V30 7499 H 724.359 3.36411 3.81713 0
M  V30 7500 H 723.757 0.735573 5.60897 0
M  V30 7501 H 722.314 1.22713 6.40144 0
M  V30 7502 N 725.747 -0.868086 1.31537 0
M  V30 7503 C 726.972 -1.65926 1.24432 0
M  V30 7504 C 727.397 -1.87169 -0.186936 0
M  V30 7505 O 726.755 -1.4148 -1.13371 0
M  V30 7506 C 726.803 -3.00347 1.9956 0
M  V30 7507 O 725.907 -3.90221 1.33422 0
M  V30 7508 H 725.248 -0.506375 0.429512 0
M  V30 7509 H 727.778 -1.0822 1.73637 0
M  V30 7510 H 727.788 -3.50269 2.09226 0
M  V30 7511 H 726.463 -2.84205 3.03645 0
M  V30 7512 H 725.04 -3.48672 1.32219 0
M  V30 7513 N 727.225 -1.14528 -1.08264 0
M  V30 7514 C 728.135 -0.84728 -2.18765 0
M  V30 7515 C 729.151 0.172826 -1.7314 0
M  V30 7516 O 730.327 0.000985336 -2.014 0
M  V30 7517 C 727.392 -0.330633 -3.4512 0
M  V30 7518 C 726.453 -1.41348 -4.05363 0
M  V30 7519 C 725.686 -0.921387 -5.25686 0
M  V30 7520 O 725.909 0.236587 -5.69909 0
M  V30 7521 O 724.843 -1.70101 -5.77364 0
M  V30 7522 H 728.669 -1.7708 -2.46731 0
M  V30 7523 H 726.254 -0.923661 -1.17426 0
M  V30 7524 H 728.136 -0.0485053 -4.21372 0
M  V30 7525 H 726.811 0.565147 -3.18728 0
M  V30 7526 H 725.718 -1.74908 -3.30693 0
M  V30 7527 H 727.051 -2.28383 -4.36007 0
M  V30 7528 N 728.703 1.26451 -0.940633 0
M  V30 7529 C 729.949 1.94401 -0.598303 0
M  V30 7530 C 730.304 1.72449 0.853178 0
M  V30 7531 O 729.597 1.0506 1.60228 0
M  V30 7532 C 729.791 3.46503 -0.875794 0
M  V30 7533 C 729.62 3.83247 -2.3527 0
M  V30 7534 C 728.39 4.06032 -3.00776 0
M  V30 7535 C 730.588 3.91841 -3.33114 0
M  V30 7536 N 728.57 4.29656 -4.38485 0
M  V30 7537 C 729.941 4.19991 -4.56078 0
M  V30 7538 C 731.996 3.74466 -3.28146 0
M  V30 7539 C 730.699 4.32574 -5.74693 0
M  V30 7540 C 732.725 3.88281 -4.46085 0
M  V30 7541 C 732.087 4.16829 -5.67831 0
M  V30 7542 H 728.186 0.734168 -0.269297 0
M  V30 7543 H 730.77 1.52541 -1.20992 0
M  V30 7544 H 728.941 3.87292 -0.293223 0
M  V30 7545 H 730.673 4.01664 -0.494788 0
M  V30 7546 H 727.428 4.01369 -2.51396 0
M  V30 7547 H 727.852 4.45501 -5.09762 0
M  V30 7548 H 732.494 3.51424 -2.35077 0
M  V30 7549 H 730.212 4.54438 -6.68215 0
M  V30 7550 H 733.798 3.76241 -4.43773 0
M  V30 7551 H 732.678 4.27284 -6.5757 0
M  V30 7552 N 730.181 0.707592 1.40822 0
M  V30 7553 C 731.131 0.0265008 2.27985 0
M  V30 7554 C 732.115 -0.740685 1.42838 0
M  V30 7555 O 733.307 -0.6142 1.66002 0
M  V30 7556 C 730.436 -0.900382 3.31282 0
M  V30 7557 C 729.522 -0.128807 4.23904 0
M  V30 7558 N 729.913 0.883744 4.9802 0
M  V30 7559 C 728.211 -0.362539 4.44524 0
M  V30 7560 C 728.912 1.34666 5.65898 0
M  V30 7561 N 727.888 0.670306 5.39451 0
M  V30 7562 H 731.69 0.802667 2.82727 0
M  V30 7563 H 729.204 0.539475 1.53178 0
M  V30 7564 H 731.201 -1.40357 3.92563 0
M  V30 7565 H 729.861 -1.67601 2.781 0
M  V30 7566 H 730.872 1.26435 5.0223 0
M  V30 7567 H 727.549 -1.11512 4.02332 0
M  V30 7568 H 728.939 2.18756 6.35292 0
M  V30 7569 N 731.66 -1.50943 0.453197 0
M  V30 7570 C 732.607 -2.28128 -0.350197 0
M  V30 7571 C 733.577 -1.32398 -1.00299 0
M  V30 7572 O 734.762 -1.61319 -1.01887 0
M  V30 7573 C 731.902 -3.13782 -1.43649 0
M  V30 7574 C 731.015 -4.24523 -0.800255 0
M  V30 7575 C 730.15 -4.97462 -1.86293 0
M  V30 7576 C 729.189 -6.00102 -1.20598 0
M  V30 7577 N 728.326 -6.66387 -2.21071 0
M  V30 7578 H 733.166 -2.96337 0.31434 0
M  V30 7579 H 730.703 -1.46151 0.166863 0
M  V30 7580 H 732.661 -3.6178 -2.07776 0
M  V30 7581 H 731.291 -2.47655 -2.07044 0
M  V30 7582 H 730.343 -3.80371 -0.0468651 0
M  V30 7583 H 731.655 -4.98009 -0.280777 0
M  V30 7584 H 730.809 -5.49088 -2.58044 0
M  V30 7585 H 729.548 -4.23642 -2.41617 0
M  V30 7586 H 728.553 -5.47753 -0.474 0
M  V30 7587 H 729.778 -6.75887 -0.659859 0
M  V30 7588 H 727.724 -5.9537 -2.75446 0
M  V30 7589 H 727.641 -7.3569 -1.74058 0
M  V30 7590 H 728.909 -7.22638 -2.92257 0
M  V30 7591 N 733.138 -0.185124 -1.56509 0
M  V30 7592 C 734.071 0.77877 -2.145 0
M  V30 7593 C 735.049 1.21649 -1.07891 0
M  V30 7594 O 736.233 1.30579 -1.35946 0
M  V30 7595 C 733.36 2.05048 -2.69579 0
M  V30 7596 C 732.406 1.75569 -3.88687 0
M  V30 7597 S 733.239 0.912642 -5.27666 0
M  V30 7598 C 734.395 2.19471 -5.8616 0
M  V30 7599 H 734.628 0.285751 -2.95924 0
M  V30 7600 H 732.161 0.0297417 -1.54371 0
M  V30 7601 H 734.119 2.78085 -3.01958 0
M  V30 7602 H 732.78 2.51462 -1.88216 0
M  V30 7603 H 731.973 2.69962 -4.25601 0
M  V30 7604 H 731.575 1.10619 -3.57267 0
M  V30 7605 H 733.867 3.14815 -5.99915 0
M  V30 7606 H 734.81 1.87005 -6.8296 0
M  V30 7607 H 735.218 2.31862 -5.14685 0
M  V30 7608 N 734.616 1.57351 0.0885366 0
M  V30 7609 C 735.844 1.90631 0.804196 0
M  V30 7610 C 736.259 0.779474 1.71958 0
M  V30 7611 O 735.616 -0.248179 1.80805 0
M  V30 7612 C 735.667 3.23568 1.61202 0
M  V30 7613 O 735.388 4.31917 0.733447 0
M  V30 7614 C 736.889 3.70753 2.43016 0
M  V30 7615 H 734.109 0.630501 0.229585 0
M  V30 7616 H 736.653 2.044 0.0638092 0
M  V30 7617 H 734.808 3.11377 2.30485 0
M  V30 7618 H 735.222 5.08297 1.29361 0
M  V30 7619 H 736.696 4.66447 2.9518 0
M  V30 7620 H 737.173 2.98922 3.2178 0
M  V30 7621 H 737.779 3.85834 1.7892 0
M  V30 7622 N 736.094 -0.359525 1.53444 0
M  V30 7623 C 737.34 -1.10315 1.70172 0
M  V30 7624 C 737.673 -1.88788 0.455287 0
M  V30 7625 O 736.948 -1.86635 -0.547514 0
M  V30 7626 C 737.231 -2.05744 2.95536 0
M  V30 7627 C 737.084 -1.3084 4.3035 0
M  V30 7628 C 738.403 -3.05784 3.16518 0
M  V30 7629 H 735.522 -0.399662 0.619225 0
M  V30 7630 H 738.164 -0.383338 1.86093 0
M  V30 7631 H 736.314 -2.67125 2.82093 0
M  V30 7632 H 737.986 -0.721959 4.55615 0
M  V30 7633 H 736.229 -0.610283 4.29486 0
M  V30 7634 H 736.9 -2.00718 5.14214 0
M  V30 7635 H 739.376 -2.5451 3.29187 0
M  V30 7636 H 738.252 -3.69772 4.05659 0
M  V30 7637 H 738.513 -3.76289 2.32076 0
M  V30 7638 N 737.572 -1.44907 -0.619662 0
M  V30 7639 C 738.797 -1.52021 -1.41083 0
M  V30 7640 C 739.222 -0.14976 -1.87503 0
M  V30 7641 O 738.58 0.863303 -1.59426 0
M  V30 7642 C 738.628 -2.49911 -2.59955 0
M  V30 7643 O 737.732 -2.00857 -3.60181 0
M  V30 7644 H 737.073 -0.512912 -0.421684 0
M  V30 7645 H 739.603 -1.90149 -0.755282 0
M  V30 7646 H 739.613 -2.68323 -3.07354 0
M  V30 7647 H 738.288 -3.4945 -2.25516 0
M  V30 7648 H 736.865 -1.92265 -3.19513 0
M  V30 7649 N 739.05 0.861098 -1.31996 0
M  V30 7650 C 739.997 1.96912 -1.20392 0
M  V30 7651 C 740.967 1.65869 -0.0875899 0
M  V30 7652 O 742.152 1.88992 -0.262011 0
M  V30 7653 C 739.292 3.32435 -0.926335 0
M  V30 7654 C 738.405 3.76018 -2.12684 0
M  V30 7655 C 737.54 5.00301 -1.78529 0
M  V30 7656 C 736.579 5.36357 -2.94937 0
M  V30 7657 N 735.716 6.51818 -2.60917 0
M  V30 7658 H 740.556 2.06169 -2.1517 0
M  V30 7659 H 738.093 1.00917 -1.07024 0
M  V30 7660 H 740.051 4.10478 -0.745917 0
M  V30 7661 H 738.681 3.22796 -0.0153578 0
M  V30 7662 H 737.733 2.93683 -2.41774 0
M  V30 7663 H 739.045 3.98664 -2.99781 0
M  V30 7664 H 738.199 5.86034 -1.57001 0
M  V30 7665 H 736.938 4.79578 -0.886356 0
M  V30 7666 H 735.943 4.49139 -3.17103 0
M  V30 7667 H 737.168 5.59041 -3.85552 0
M  V30 7668 H 735.114 6.32624 -1.73558 0
M  V30 7669 H 735.031 6.7445 -3.41544 0
M  V30 7670 H 736.299 7.4072 -2.42804 0
M  V30 7671 N 740.528 1.15101 1.07655 0
M  V30 7672 C 741.476 0.840714 2.16875 0
M  V30 7673 C 742.47 -0.184594 1.68391 0
M  V30 7674 O 743.676 -0.0399315 1.79956 0
M  V30 7675 H 740.051 0.254192 0.707736 0
M  V30 7676 H 742.022 1.76959 2.40266 0
M  V30 7677 C 740.771 0.343018 3.46004 0
M  V30 7678 H 740.094 1.12335 3.83694 0
M  V30 7679 H 741.534 0.16453 4.23681 0
M  V30 7680 C 739.993 -0.934881 3.23669 0
M  V30 7681 O 740.523 -2.00706 3.47965 0
M  V30 7682 N 738.729 -0.873167 2.77172 0
M  V30 7683 H 738.276 -0.000479072 2.576 0
M  V30 7684 H 738.234 -1.72873 2.62607 0
M  V30 7685 N 742.006 -1.2595 0.947325 0
M  V30 7686 C 743.246 -1.95218 0.605743 0
M  V30 7687 C 743.61 -1.72624 -0.84054 0
M  V30 7688 O 744.811 -2.35748 -1.29136 0
M  V30 7689 C 743.082 -3.44654 0.94596 0
M  V30 7690 S 744.641 -4.32922 0.715849 0
M  V30 7691 H 741.459 -0.675159 0.222894 0
M  V30 7692 H 744.061 -1.52766 1.21995 0
M  V30 7693 H 742.765 -3.586 1.99585 0
M  V30 7694 H 742.296 -3.92082 0.321718 0
M  V30 7695 H 744.311 -4.94445 -0.416959 0
M  V30 7696 N 743.484 -0.715051 -1.40445 0
M  V30 7697 C 744.895 -0.326763 -1.83818 0
M  V30 7698 C 745.246 1.13851 -1.59789 0
M  V30 7699 O 744.371 1.87611 -1.07848 0
M  V30 7700 C 744.966 -0.586297 -3.33688 0
M  V30 7701 C 743.525 -0.251724 -3.75557 0
M  V30 7702 C 742.672 -0.858928 -2.63662 0
M  V30 7703 H 745.623 -0.914241 -1.2972 0
M  V30 7704 H 745.644 0.148636 -3.8021 0
M  V30 7705 H 745.156 -1.65281 -3.51146 0
M  V30 7706 H 743.257 0.809754 -3.63695 0
M  V30 7707 H 743.37 -0.720348 -4.73654 0
M  V30 7708 H 741.734 -0.287013 -2.53078 0
M  V30 7709 H 742.517 -1.9297 -2.83932 0
M  V30 7710 N 744.962 1.50701 -0.461195 0
M  V30 7711 C 746.239 1.94958 0.158296 0
M  V30 7712 C 746.619 1.40111 1.57899 0
M  V30 7713 O 745.967 0.597976 2.20537 0
M  V30 7714 C 746.177 3.48821 0.11172 0
M  V30 7715 C 747.525 4.23499 0.30552 0
M  V30 7716 O 748.549 3.557 0.188758 0
M  V30 7717 O 747.408 5.43823 0.540244 0
M  V30 7718 H 744.502 0.818674 0.117054 0
M  V30 7719 H 747.048 1.61508 -0.520888 0
M  V30 7720 H 745.82 3.81263 -0.880577 0
M  V30 7721 H 745.443 3.88781 0.832791 0
M  V30 7722 N 746.441 0.193421 1.56409 0
M  V30 7723 C 747.373 -0.759944 2.16235 0
M  V30 7724 C 748.386 -1.17797 1.12373 0
M  V30 7725 O 749.575 -1.11399 1.39472 0
M  V30 7726 C 746.675 -2.03735 2.70823 0
M  V30 7727 C 745.848 -1.77939 3.9957 0
M  V30 7728 C 744.907 -2.90111 4.39001 0
M  V30 7729 O 743.933 -2.59791 5.06456 0
M  V30 7730 N 745.135 -4.18426 4.02368 0
M  V30 7731 H 747.9 -0.248348 2.98669 0
M  V30 7732 H 745.461 0.0113966 1.61896 0
M  V30 7733 H 747.453 -2.77914 2.94187 0
M  V30 7734 H 746.023 -2.46022 1.92852 0
M  V30 7735 H 745.243 -0.875491 3.84355 0
M  V30 7736 H 746.531 -1.58099 4.83614 0
M  V30 7737 H 745.929 -4.45913 3.48106 0
M  V30 7738 H 744.486 -4.89237 4.30686 0
M  V30 7739 N 747.919 -1.57396 -0.0801906 0
M  V30 7740 C 749.196 -1.77883 -0.813451 0
M  V30 7741 C 749.576 -0.778879 -1.96206 0
M  V30 7742 O 748.924 0.189683 -2.27711 0
M  V30 7743 C 749.134 -3.24116 -1.2942 0
M  V30 7744 C 750.482 -3.87714 -1.73098 0
M  V30 7745 O 751.506 -3.27956 -1.39007 0
M  V30 7746 O 750.365 -4.92828 -2.36184 0
M  V30 7747 H 747.459 -0.729727 -0.389138 0
M  V30 7748 H 750.005 -1.69591 -0.0609166 0
M  V30 7749 H 748.777 -3.88443 -0.471947 0
M  V30 7750 H 748.4 -3.371 -2.1083 0
M  V30 7751 N 749.397 0.351382 -1.53633 0
M  V30 7752 C 750.327 1.43688 -1.84055 0
M  V30 7753 C 751.308 1.55251 -0.695073 0
M  V30 7754 O 752.493 1.69587 -0.946257 0
M  V30 7755 C 749.623 2.80843 -2.04315 0
M  V30 7756 C 748.577 2.84094 -3.20117 0
M  V30 7757 C 747.903 4.2406 -3.25696 0
M  V30 7758 C 749.203 2.50334 -4.58399 0
M  V30 7759 H 750.897 1.18478 -2.74961 0
M  V30 7760 H 748.443 0.568509 -1.32303 0
M  V30 7761 H 750.396 3.56821 -2.2418 0
M  V30 7762 H 749.12 3.07471 -1.10132 0
M  V30 7763 H 747.779 2.10568 -3.00094 0
M  V30 7764 H 747.427 4.47785 -2.29123 0
M  V30 7765 H 747.127 4.27147 -4.03509 0
M  V30 7766 H 748.651 5.0189 -3.47762 0
M  V30 7767 H 750.065 3.16025 -4.78332 0
M  V30 7768 H 748.462 2.64717 -5.38558 0
M  V30 7769 H 749.532 1.45542 -4.62543 0
M  V30 7770 N 750.875 1.45233 0.611969 0
M  V30 7771 C 751.822 1.5357 1.72293 0
M  V30 7772 C 752.792 0.381912 1.6165 0
M  V30 7773 O 753.977 0.594765 1.81293 0
M  V30 7774 C 751.117 1.50419 3.10593 0
M  V30 7775 C 750.23 2.76316 3.32074 0
M  V30 7776 C 749.365 2.64866 4.60456 0
M  V30 7777 C 748.404 3.85838 4.7518 0
M  V30 7778 N 747.541 3.72949 5.94856 0
M  V30 7779 H 752.381 2.4848 1.64504 0
M  V30 7780 H 749.918 1.23302 0.802191 0
M  V30 7781 H 751.876 1.4658 3.90602 0
M  V30 7782 H 750.506 0.590621 3.17351 0
M  V30 7783 H 749.558 2.90261 2.45872 0
M  V30 7784 H 750.87 3.66055 3.38829 0
M  V30 7785 H 750.024 2.58969 5.48653 0
M  V30 7786 H 748.763 1.72719 4.56092 0
M  V30 7787 H 747.768 3.92099 3.85407 0
M  V30 7788 H 748.993 4.79045 4.81344 0
M  V30 7789 H 746.939 2.83567 5.91545 0
M  V30 7790 H 746.856 4.56319 6.02751 0
M  V30 7791 H 748.124 3.70976 6.85563 0
M  V30 7792 N 752.353 -0.854086 1.3245 0
M  V30 7793 C 753.602 -1.60318 1.22397 0
M  V30 7794 C 753.915 -1.9444 -0.212664 0
M  V30 7795 O 755.121 -2.67991 -0.435066 0
M  V30 7796 C 753.577 -2.8909 2.1437 0
M  V30 7797 C 753.185 -2.62391 3.63119 0
M  V30 7798 C 754.929 -3.67104 2.13155 0
M  V30 7799 C 752.836 -3.87167 4.47052 0
M  V30 7800 H 751.766 -0.601586 0.454544 0
M  V30 7801 H 754.417 -0.943023 1.57415 0
M  V30 7802 H 752.799 -3.56567 1.72268 0
M  V30 7803 H 753.973 -2.03222 4.13567 0
M  V30 7804 H 752.288 -1.97706 3.66471 0
M  V30 7805 H 754.885 -4.59696 2.731 0
M  V30 7806 H 755.228 -4.00876 1.12268 0
M  V30 7807 H 755.761 -3.06533 2.5354 0
M  V30 7808 H 752.5 -3.58536 5.48755 0
M  V30 7809 H 752.02 -4.45729 4.01355 0
M  V30 7810 H 753.699 -4.549 4.60081 0
M  V30 7811 N 753.831 -1.1567 -1.07043 0
M  V30 7812 C 754.778 -0.856336 -2.14326 0
M  V30 7813 C 755.748 0.192051 -1.64986 0
M  V30 7814 O 756.933 0.0589148 -1.90709 0
M  V30 7815 C 754.073 -0.355227 -3.43267 0
M  V30 7816 C 753.186 -1.46555 -4.06381 0
M  V30 7817 C 752.321 -0.920245 -5.23168 0
M  V30 7818 C 751.36 -2.00729 -5.78251 0
M  V30 7819 N 750.497 -1.47813 -6.86364 0
M  V30 7820 H 755.337 -1.77514 -2.39359 0
M  V30 7821 H 752.874 -0.885676 -1.17449 0
M  V30 7822 H 754.832 -0.0463804 -4.17174 0
M  V30 7823 H 753.462 0.526649 -3.18475 0
M  V30 7824 H 752.514 -1.89052 -3.30096 0
M  V30 7825 H 753.826 -2.28616 -4.43324 0
M  V30 7826 H 752.98 -0.564127 -6.04072 0
M  V30 7827 H 751.719 -0.0688477 -4.87651 0
M  V30 7828 H 750.724 -2.3722 -4.95991 0
M  V30 7829 H 751.949 -2.86252 -6.15822 0
M  V30 7830 H 749.895 -0.649145 -6.5278 0
M  V30 7831 H 749.812 -2.23498 -7.22208 0
M  V30 7832 H 751.08 -1.15036 -7.70965 0
M  V30 7833 N 755.309 1.25446 -0.953992 0
M  V30 7834 C 756.239 2.28264 -0.491717 0
M  V30 7835 C 757.22 1.63717 0.461617 0
M  V30 7836 O 758.405 1.90821 0.36071 0
M  V30 7837 C 755.535 3.46525 0.231915 0
M  V30 7838 C 754.489 4.23247 -0.636098 0
M  V30 7839 C 753.815 5.34254 0.218238 0
M  V30 7840 C 755.115 4.85971 -1.91389 0
M  V30 7841 H 756.809 2.67183 -1.35106 0
M  V30 7842 H 754.355 1.2844 -0.651095 0
M  V30 7843 H 756.308 4.17576 0.566439 0
M  V30 7844 H 755.032 3.06594 1.12551 0
M  V30 7845 H 753.691 3.53978 -0.953696 0
M  V30 7846 H 753.339 4.90564 1.11156 0
M  V30 7847 H 753.039 5.86501 -0.359232 0
M  V30 7848 H 754.563 6.08138 0.547743 0
M  V30 7849 H 755.977 5.49168 -1.64581 0
M  V30 7850 H 754.374 5.48391 -2.43696 0
M  V30 7851 H 755.444 4.08192 -2.61738 0
M  V30 7852 N 756.787 0.722489 1.40064 0
M  V30 7853 C 757.75 0.0830209 2.2905 0
M  V30 7854 C 758.75 -0.680208 1.45705 0
M  V30 7855 O 759.94 -0.511084 1.66534 0
M  V30 7856 C 757.072 -0.892092 3.29021 0
M  V30 7857 H 758.265 0.866848 2.87099 0
M  V30 7858 H 755.818 0.487556 1.48501 0
M  V30 7859 H 756.553 -1.70273 2.76003 0
M  V30 7860 H 756.338 -0.34761 3.90556 0
M  V30 7861 H 757.828 -1.33648 3.95636 0
M  V30 7862 N 758.265 -1.50454 0.469181 0
M  V30 7863 C 759.511 -2.02615 -0.0865971 0
M  V30 7864 C 759.844 -1.35062 -1.39542 0
M  V30 7865 O 759.119 -0.475701 -1.88593 0
M  V30 7866 C 759.402 -3.59068 -0.272385 0
M  V30 7867 C 759.255 -4.37196 1.05733 0
M  V30 7868 C 760.574 -4.2793 -1.0278 0
M  V30 7869 H 757.693 -0.736389 -0.0299977 0
M  V30 7870 H 760.335 -1.79792 0.614399 0
M  V30 7871 H 758.485 -3.78646 -0.869471 0
M  V30 7872 H 760.157 -4.29195 1.69084 0
M  V30 7873 H 758.4 -4.01013 1.65442 0
M  V30 7874 H 759.071 -5.44924 0.880997 0
M  V30 7875 H 761.547 -4.12816 -0.521718 0
M  V30 7876 H 760.423 -5.37214 -1.12659 0
M  V30 7877 H 760.684 -3.90968 -2.0639 0
M  V30 7878 N 759.743 -0.201713 -1.56304 0
M  V30 7879 C 761.159 0.154025 -1.58855 0
M  V30 7880 C 761.359 1.60516 -1.21807 0
M  V30 7881 O 760.415 2.34193 -0.94393 0
M  V30 7882 C 761.728 -0.154319 -3.00304 0
M  V30 7883 C 763.276 -0.0949578 -3.12856 0
M  V30 7884 C 763.751 -0.376703 -4.56448 0
M  V30 7885 N 765.242 -0.325558 -4.62054 0
M  V30 7886 C 765.977 -0.51732 -5.71062 0
M  V30 7887 N 765.473 -0.769789 -6.8851 0
M  V30 7888 N 767.266 -0.45112 -5.60287 0
M  V30 7889 H 759.417 -1.14858 -1.78666 0
M  V30 7890 H 761.68 -0.458934 -0.829508 0
M  V30 7891 H 761.386 -1.16074 -3.31994 0
M  V30 7892 H 761.26 0.540014 -3.73314 0
M  V30 7893 H 763.647 0.902075 -2.80974 0
M  V30 7894 H 763.728 -0.822468 -2.42217 0
M  V30 7895 H 763.372 -1.37108 -4.89044 0
M  V30 7896 H 763.302 0.371772 -5.25286 0
M  V30 7897 H 765.793 -0.137308 -3.7765 0
M  V30 7898 H 766.106 -0.904744 -7.67486 0
M  V30 7899 H 764.451 -0.806758 -6.90302 0
M  V30 7900 H 767.642 -0.254253 -4.67409 0
M  V30 7901 H 767.815 -0.603982 -6.45179 0
M  V30 7902 N 761.222 1.57436 0.0718424 0
M  V30 7903 C 762.155 1.98982 1.11721 0
M  V30 7904 C 763.133 0.866731 1.37574 0
M  V30 7905 O 764.317 1.12903 1.50948 0
M  V30 7906 C 761.444 2.32648 2.46155 0
M  V30 7907 C 760.49 3.54964 2.36437 0
M  V30 7908 S 761.323 5.05802 1.75854 0
M  V30 7909 C 762.479 5.42669 3.11867 0
M  V30 7910 H 762.712 2.87338 0.763154 0
M  V30 7911 H 760.245 1.51833 0.280372 0
M  V30 7912 H 762.203 2.52719 3.23486 0
M  V30 7913 H 760.864 1.44821 2.78722 0
M  V30 7914 H 760.057 3.76038 3.35577 0
M  V30 7915 H 759.659 3.34524 1.67242 0
M  V30 7916 H 761.951 5.40737 4.08178 0
M  V30 7917 H 762.894 6.43461 2.95573 0
M  V30 7918 H 763.302 4.70131 3.1247 0
M  V30 7919 N 762.7 -0.34323 1.53817 0
M  V30 7920 C 763.977 -1.10047 1.61706 0
M  V30 7921 C 764.357 -2.06495 0.438514 0
M  V30 7922 O 763.705 -2.21297 -0.569188 0
M  V30 7923 C 763.915 -1.81985 2.97796 0
M  V30 7924 C 765.263 -2.35717 3.53161 0
M  V30 7925 O 766.287 -1.9208 2.99973 0
M  V30 7926 O 765.146 -3.15551 4.46195 0
M  V30 7927 H 762.24 -0.506096 0.654061 0
M  V30 7928 H 764.786 -0.344697 1.66162 0
M  V30 7929 H 763.558 -1.11722 3.75012 0
M  V30 7930 H 763.181 -2.64419 2.96931 0
M  V30 7931 N 764.178 -1.45556 -0.604258 0
M  V30 7932 C 765.125 -1.54482 -1.71476 0
M  V30 7933 C 766.095 -0.390479 -1.61445 0
M  V30 7934 O 767.28 -0.604371 -1.80975 0
M  V30 7935 C 764.42 -1.52064 -3.09791 0
M  V30 7936 C 763.533 -2.78073 -3.30604 0
M  V30 7937 C 762.668 -2.67304 -4.59044 0
M  V30 7938 C 761.707 -3.88352 -4.73127 0
M  V30 7939 N 760.844 -3.76098 -5.9287 0
M  V30 7940 H 765.684 -2.49349 -1.63184 0
M  V30 7941 H 763.221 -1.23725 -0.795641 0
M  V30 7942 H 765.179 -1.48649 -3.89819 0
M  V30 7943 H 763.809 -0.607442 -3.17033 0
M  V30 7944 H 762.861 -2.91561 -2.44329 0
M  V30 7945 H 764.173 -3.67847 -3.36883 0
M  V30 7946 H 763.327 -2.61875 -5.47272 0
M  V30 7947 H 762.066 -1.75135 -4.55169 0
M  V30 7948 H 761.071 -3.94137 -3.83322 0
M  V30 7949 H 762.296 -4.81591 -4.78797 0
M  V30 7950 H 760.242 -2.867 -5.90033 0
M  V30 7951 H 760.159 -4.59509 -6.00323 0
M  V30 7952 H 761.427 -3.74607 -6.83586 0
M  V30 7953 N 765.656 0.84705 -1.32902 0
M  V30 7954 C 767.067 1.41785 -1.21466 0
M  V30 7955 C 767.418 1.95464 0.169767 0
M  V30 7956 O 766.543 1.88157 1.06892 0
M  V30 7957 C 767.138 2.57734 -2.19906 0
M  V30 7958 C 765.697 3.10791 -2.12334 0
M  V30 7959 C 764.844 1.83562 -2.07847 0
M  V30 7960 H 767.795 0.653532 -1.44619 0
M  V30 7961 H 767.816 3.35123 -1.80202 0
M  V30 7962 H 767.328 2.18635 -3.20656 0
M  V30 7963 H 765.429 3.54455 -1.14858 0
M  V30 7964 H 765.542 3.71519 -3.02506 0
M  V30 7965 H 763.906 2.03475 -1.53199 0
M  V30 7966 H 764.689 1.4667 -3.10392 0
M  V30 7967 N 767.134 1.16236 1.06428 0
M  V30 7968 C 768.066 0.825446 2.1382 0
M  V30 7969 C 769.079 -0.166707 1.61944 0
M  V30 7970 O 770.268 0.0578606 1.78406 0
M  V30 7971 C 767.368 0.208023 3.38261 0
M  V30 7972 C 766.541 1.23994 4.19457 0
M  V30 7973 C 765.6 0.642569 5.22262 0
M  V30 7974 O 764.626 1.31106 5.53895 0
M  V30 7975 N 765.828 -0.571327 5.77682 0
M  V30 7976 H 768.593 1.7497 2.43322 0
M  V30 7977 H 766.154 1.05951 1.22417 0
M  V30 7978 H 768.146 -0.204608 4.04182 0
M  V30 7979 H 766.716 -0.619752 3.06395 0
M  V30 7980 H 765.936 1.82879 3.49212 0
M  V30 7981 H 767.224 1.93638 4.70512 0
M  V30 7982 H 766.622 -1.13263 5.54245 0
M  V30 7983 H 765.179 -0.926187 6.45186 0
M  V30 7984 N 768.612 -1.24939 0.960631 0
M  V30 7985 C 769.56 -2.27659 0.47686 0
M  V30 7986 C 770.554 -1.63148 -0.455961 0
M  V30 7987 O 771.76 -1.76911 -0.332029 0
M  V30 7988 H 768.135 -0.739651 0.135723 0
M  V30 7989 H 770.106 -2.65844 1.35534 0
M  V30 7990 C 768.855 -3.46976 -0.224191 0
M  V30 7991 H 768.178 -3.96854 0.484471 0
M  V30 7992 H 769.618 -4.20717 -0.526615 0
M  V30 7993 C 768.077 -3.04159 -1.44876 0
M  V30 7994 O 768.607 -3.10697 -2.54618 0
M  V30 7995 N 766.813 -2.59284 -1.31226 0
M  V30 7996 H 766.36 -2.54164 -0.419361 0
M  V30 7997 H 766.318 -2.31 -2.13275 0
M  V30 7998 N 770.09 -0.729906 -1.39679 0
M  V30 7999 C 771.023 -0.0354454 -2.28172 0
M  V30 8000 C 772.001 0.752968 -1.44115 0
M  V30 8001 O 773.185 0.736599 -1.73512 0
M  V30 8002 C 770.312 0.957047 -3.24897 0
M  V30 8003 C 769.358 0.257734 -4.25721 0
M  V30 8004 S 770.191 -1.02466 -5.25605 0
M  V30 8005 C 771.347 -0.0346322 -6.2589 0
M  V30 8006 H 771.58 -0.785922 -2.86724 0
M  V30 8007 H 769.113 -0.521497 -1.45326 0
M  V30 8008 H 771.071 1.52441 -3.81146 0
M  V30 8009 H 769.732 1.68033 -2.65375 0
M  V30 8010 H 768.925 1.00854 -4.93806 0
M  V30 8011 H 768.527 -0.237454 -3.73245 0
M  V30 8012 H 770.819 0.807464 -6.72671 0
M  V30 8013 H 771.762 -0.682491 -7.04803 0
M  V30 8014 H 772.17 0.335492 -5.63502 0
M  V30 8015 N 771.568 1.50203 -0.477153 0
M  V30 8016 C 772.515 2.28656 0.31386 0
M  V30 8017 C 773.485 1.33977 0.981802 0
M  V30 8018 O 774.67 1.62919 0.993072 0
M  V30 8019 C 771.81 3.16027 1.38639 0
M  V30 8020 C 770.923 4.25743 0.732615 0
M  V30 8021 C 770.058 5.00363 1.78355 0
M  V30 8022 C 769.097 6.01945 1.11035 0
M  V30 8023 N 768.234 6.6982 2.10441 0
M  V30 8024 H 773.074 2.958 -0.361445 0
M  V30 8025 H 770.611 1.45867 -0.190093 0
M  V30 8026 H 772.569 3.6504 2.01994 0
M  V30 8027 H 771.199 2.50917 2.03077 0
M  V30 8028 H 770.251 3.80398 -0.0136546 0
M  V30 8029 H 771.563 4.98393 0.201513 0
M  V30 8030 H 770.717 5.53124 2.49276 0
M  V30 8031 H 769.456 4.27432 2.34847 0
M  V30 8032 H 768.461 5.48438 0.386797 0
M  V30 8033 H 769.686 6.76851 0.552248 0
M  V30 8034 H 767.632 5.99677 2.65939 0
M  V30 8035 H 767.549 7.38366 1.62332 0
M  V30 8036 H 768.817 7.27196 2.80724 0
M  V30 8037 N 773.046 0.209999 1.56195 0
M  V30 8038 C 773.996 -0.717978 2.164 0
M  V30 8039 C 774.98 -1.16577 1.10899 0
M  V30 8040 O 776.172 -1.12169 1.3692 0
M  V30 8041 C 773.301 -1.93091 2.8385 0
M  V30 8042 C 772.387 -1.50333 3.96561 0
M  V30 8043 N 772.778 -0.787621 4.9963 0
M  V30 8044 C 771.076 -1.79151 4.08437 0
M  V30 8045 C 771.777 -0.571204 5.78889 0
M  V30 8046 N 770.753 -1.12444 5.31843 0
M  V30 8047 H 774.555 -0.162603 2.9345 0
M  V30 8048 H 772.069 0.0107928 1.62396 0
M  V30 8049 H 774.066 -2.60635 3.25384 0
M  V30 8050 H 772.726 -2.49087 2.08293 0
M  V30 8051 H 773.737 -0.441513 5.16015 0
M  V30 8052 H 770.414 -2.36549 3.44022 0
M  V30 8053 H 771.804 -0.00237941 6.719 0
M  V30 8054 N 774.524 -1.57472 -0.0634922 0
M  V30 8055 C 775.749 -1.92273 -0.77756 0
M  V30 8056 C 776.174 -0.807141 -1.69902 0
M  V30 8057 O 775.532 0.239523 -1.79711 0
M  V30 8058 C 775.58 -3.26054 -1.54017 0
M  V30 8059 O 774.684 -3.15873 -2.65138 0
M  V30 8060 H 774.025 -0.629389 -0.211579 0
M  V30 8061 H 776.555 -2.04579 -0.0292523 0
M  V30 8062 H 776.565 -3.60127 -1.91763 0
M  V30 8063 H 775.24 -4.06824 -0.864128 0
M  V30 8064 H 773.817 -2.93373 -2.30189 0
M  V30 8065 N 776.003 0.335068 -1.53997 0
M  V30 8066 C 777.251 1.07223 -1.71312 0
M  V30 8067 C 777.572 1.88911 -0.483486 0
M  V30 8068 O 776.842 1.89344 0.50257 0
M  V30 8069 H 775.422 0.398846 -0.63161 0
M  V30 8070 H 778.084 0.374288 -1.91272 0
M  V30 8071 H 777.18 1.7448 -2.58772 0
M  V30 8072 N 777.481 1.45874 0.596531 0
M  V30 8073 C 778.711 1.5379 1.37958 0
M  V30 8074 C 779.119 0.173086 1.88407 0
M  V30 8075 O 778.462 -0.837498 1.63498 0
M  V30 8076 C 778.524 2.47044 2.61169 0
M  V30 8077 C 778.188 3.93565 2.32283 0
M  V30 8078 C 779.185 4.83162 1.91965 0
M  V30 8079 C 776.87 4.38579 2.44854 0
M  V30 8080 C 778.864 6.15782 1.64593 0
M  V30 8081 C 776.551 5.71238 2.17095 0
M  V30 8082 C 777.549 6.59659 1.77028 0
M  V30 8083 O 777.237 7.89857 1.49601 0
M  V30 8084 H 776.969 0.523 0.428307 0
M  V30 8085 H 779.523 1.91855 0.733529 0
M  V30 8086 H 777.753 2.0397 3.28532 0
M  V30 8087 H 779.442 2.4552 3.23226 0
M  V30 8088 H 780.208 4.49646 1.8178 0
M  V30 8089 H 776.087 3.6999 2.75006 0
M  V30 8090 H 779.631 6.84757 1.33245 0
M  V30 8091 H 775.528 6.04306 2.26901 0
M  V30 8092 H 776.296 8.01991 1.63561 0
M  V30 8093 N 778.959 -0.83999 1.33349 0
M  V30 8094 C 779.889 -1.965 1.26135 0
M  V30 8095 C 780.87 -1.69505 0.142152 0
M  V30 8096 O 782.055 -1.91346 0.331743 0
M  V30 8097 C 779.185 -3.32632 0.99866 0
M  V30 8098 C 778.139 -3.74021 2.08068 0
M  V30 8099 C 777.465 -5.07947 1.67014 0
M  V30 8100 C 778.765 -3.87925 3.49731 0
M  V30 8101 H 780.459 -2.02793 2.20262 0
M  V30 8102 H 778.005 -0.974297 1.06035 0
M  V30 8103 H 779.958 -4.10903 0.934696 0
M  V30 8104 H 778.682 -3.26593 0.0217759 0
M  V30 8105 H 777.341 -2.98012 2.13505 0
M  V30 8106 H 776.989 -4.98378 0.680316 0
M  V30 8107 H 776.689 -5.36611 2.39422 0
M  V30 8108 H 778.213 -5.88695 1.62082 0
M  V30 8109 H 779.627 -4.5651 3.46802 0
M  V30 8110 H 778.024 -4.28023 4.20614 0
M  V30 8111 H 779.094 -2.90407 3.88319 0
M  V30 8112 N 780.437 -1.16799 -1.0581 0
M  V30 8113 C 781.683 -0.963929 -1.79109 0
M  V30 8114 C 782.038 0.502569 -1.8572 0
M  V30 8115 O 781.331 1.36813 -1.34137 0
M  V30 8116 C 781.525 -1.53111 -3.22942 0
M  V30 8117 C 781.354 -3.05123 -3.30348 0
M  V30 8118 C 780.124 -3.73804 -3.39998 0
M  V30 8119 C 782.322 -4.02777 -3.19805 0
M  V30 8120 N 780.304 -5.1348 -3.36469 0
M  V30 8121 C 781.675 -5.28866 -3.23576 0
M  V30 8122 C 783.73 -3.94533 -3.03724 0
M  V30 8123 C 782.433 -6.47669 -3.12918 0
M  V30 8124 C 784.459 -5.12913 -2.94405 0
M  V30 8125 C 783.821 -6.37884 -2.98803 0
M  V30 8126 H 779.92 -0.406555 -0.66801 0
M  V30 8127 H 782.504 -1.48277 -1.26183 0
M  V30 8128 H 780.675 -1.03869 -3.74254 0
M  V30 8129 H 782.407 -1.2643 -3.84444 0
M  V30 8130 H 779.162 -3.24457 -3.44999 0
M  V30 8131 H 779.586 -5.86477 -3.38191 0
M  V30 8132 H 784.228 -2.98763 -2.99166 0
M  V30 8133 H 781.946 -7.43656 -3.16231 0
M  V30 8134 H 785.532 -5.08309 -2.83042 0
M  V30 8135 H 784.412 -7.27946 -2.91657 0
M  V30 8136 N 781.915 1.24427 -0.967243 0
M  V30 8137 C 782.878 2.23637 -0.501927 0
M  V30 8138 C 783.878 1.55712 0.401283 0
M  V30 8139 O 785.068 1.73085 0.196808 0
M  V30 8140 C 782.2 3.39804 0.273176 0
M  V30 8141 H 783.393 2.66317 -1.37897 0
M  V30 8142 H 780.946 1.37033 -0.751783 0
M  V30 8143 H 781.681 3.02562 1.16733 0
M  V30 8144 H 781.466 3.90303 -0.37498 0
M  V30 8145 H 782.956 4.13443 0.587776 0
M  V30 8146 N 783.393 0.737304 1.3929 0
M  V30 8147 C 784.642 0.283129 1.99703 0
M  V30 8148 C 784.955 -1.13677 1.59176 0
M  V30 8149 O 786.161 -1.69058 2.12442 0
M  V30 8150 C 784.617 0.455262 3.57009 0
M  V30 8151 C 784.225 1.88319 4.06497 0
M  V30 8152 C 785.969 0.0629786 4.24453 0
M  V30 8153 C 783.876 2.00475 5.56385 0
M  V30 8154 H 782.806 0.102106 0.747054 0
M  V30 8155 H 785.457 0.911515 1.5926 0
M  V30 8156 H 783.839 -0.242057 3.9526 0
M  V30 8157 H 785.013 2.61265 3.79575 0
M  V30 8158 H 783.328 2.2289 3.51723 0
M  V30 8159 H 785.925 0.132787 5.34535 0
M  V30 8160 H 786.268 -0.982128 4.04549 0
M  V30 8161 H 786.801 0.71154 3.91385 0
M  V30 8162 H 783.54 3.03182 5.81172 0
M  V30 8163 H 783.06 1.31969 5.85102 0
M  V30 8164 H 784.739 1.787 6.21832 0
M  V30 8165 N 784.871 -1.49948 0.485112 0
M  V30 8166 C 786.119 -2.01996 -0.0648775 0
M  V30 8167 C 786.44 -1.36819 -1.38945 0
M  V30 8168 O 785.71 -0.518163 -1.88923 0
M  V30 8169 H 784.29 -0.746513 -0.0269662 0
M  V30 8170 H 786.952 -1.84136 0.638733 0
M  V30 8171 H 786.048 -3.11418 -0.20617 0
M  V30 8172 N 786.349 -0.21828 -1.56081 0
M  V30 8173 C 787.296 0.693189 -2.20144 0
M  V30 8174 C 788.266 1.19274 -1.15598 0
M  V30 8175 O 789.451 1.25243 -1.4394 0
M  V30 8176 C 786.591 1.89715 -2.88275 0
M  V30 8177 C 785.704 1.4368 -4.07407 0
M  V30 8178 C 784.839 2.59807 -4.63329 0
M  V30 8179 C 783.878 2.10492 -5.74769 0
M  V30 8180 N 783.015 3.1988 -6.24997 0
M  V30 8181 H 787.855 0.14016 -2.9767 0
M  V30 8182 H 785.392 0.0574292 -1.46988 0
M  V30 8183 H 787.35 2.60398 -3.25958 0
M  V30 8184 H 785.98 2.42311 -2.13273 0
M  V30 8185 H 785.032 0.625007 -3.7523 0
M  V30 8186 H 786.344 1.03517 -4.8794 0
M  V30 8187 H 785.498 3.38577 -5.03438 0
M  V30 8188 H 784.237 3.03256 -3.81951 0
M  V30 8189 H 783.242 1.30182 -5.34165 0
M  V30 8190 H 784.467 1.68045 -6.5798 0
M  V30 8191 H 782.413 3.62817 -5.46534 0
M  V30 8192 H 782.33 2.83958 -7.00645 0
M  V30 8193 H 783.598 3.98796 -6.69763 0
M  V30 8194 N 787.827 1.57504 0.0551401 0
M  V30 8195 C 788.775 2.05884 1.08233 0
M  V30 8196 C 789.769 0.967383 1.39061 0
M  V30 8197 O 790.975 1.15242 1.38273 0
M  V30 8198 H 787.35 0.656673 0.366449 0
M  V30 8199 H 789.321 2.91273 0.648269 0
M  V30 8200 C 788.07 2.53221 2.38273 0
M  V30 8201 H 787.393 3.36809 2.15406 0
M  V30 8202 H 788.833 2.9081 3.08554 0
M  V30 8203 C 787.292 1.42218 3.05411 0
M  V30 8204 O 787.822 0.773638 3.9418 0
M  V30 8205 N 786.028 1.16316 2.66306 0
M  V30 8206 H 785.575 1.69237 1.94207 0
M  V30 8207 H 785.533 0.422534 3.11548 0
M  V30 8208 N 789.305 -0.326896 1.54172 0
M  V30 8209 C 790.551 -1.06681 1.72473 0
M  V30 8210 C 790.884 -1.87779 0.49523 0
M  V30 8211 O 790.159 -1.87754 -0.507803 0
M  V30 8212 C 790.442 -1.99429 2.99834 0
M  V30 8213 C 790.295 -1.21682 4.33028 0
M  V30 8214 C 791.614 -2.99002 3.22933 0
M  V30 8215 H 788.733 -0.386438 0.627563 0
M  V30 8216 H 791.375 -0.343779 1.86864 0
M  V30 8217 H 789.525 -2.61081 2.87696 0
M  V30 8218 H 791.197 -0.625153 4.57044 0
M  V30 8219 H 789.44 -0.519045 4.30684 0
M  V30 8220 H 790.111 -1.89766 5.18356 0
M  V30 8221 H 792.587 -2.4747 3.34511 0
M  V30 8222 H 791.463 -3.61085 4.13412 0
M  V30 8223 H 791.724 -3.71281 2.40006 0
M  V30 8224 N 790.784 -1.46188 -0.588786 0
M  V30 8225 C 792.03 -1.52396 -1.34711 0
M  V30 8226 C 792.385 -0.170846 -1.9164 0
M  V30 8227 O 791.678 0.819714 -1.7318 0
M  V30 8228 C 791.872 -2.55364 -2.50048 0
M  V30 8229 C 791.701 -4.00554 -2.04417 0
M  V30 8230 C 790.471 -4.68334 -1.89715 0
M  V30 8231 C 792.669 -4.88533 -1.60747 0
M  V30 8232 N 790.651 -5.98167 -1.38091 0
M  V30 8233 C 792.022 -6.08143 -1.20672 0
M  V30 8234 C 794.077 -4.75236 -1.4851 0
M  V30 8235 C 792.78 -7.15927 -0.695782 0
M  V30 8236 C 794.806 -5.83085 -0.988196 0
M  V30 8237 C 794.168 -7.01864 -0.59719 0
M  V30 8238 H 790.267 -0.61252 -0.486151 0
M  V30 8239 H 792.851 -1.8277 -0.671063 0
M  V30 8240 H 791.022 -2.2691 -3.15225 0
M  V30 8241 H 792.754 -2.51603 -3.16983 0
M  V30 8242 H 789.509 -4.23763 -2.11476 0
M  V30 8243 H 789.933 -6.67254 -1.14458 0
M  V30 8244 H 794.575 -3.83801 -1.7736 0
M  V30 8245 H 792.293 -8.07135 -0.394857 0
M  V30 8246 H 795.879 -5.74836 -0.897504 0
M  V30 8247 H 794.759 -7.83895 -0.218621 0
M  V30 8248 N 792.262 0.832906 -1.33792 0
M  V30 8249 C 793.209 1.94314 -1.24541 0
M  V30 8250 C 794.179 1.65646 -0.122753 0
M  V30 8251 O 795.364 1.88394 -0.30204 0
M  V30 8252 C 792.504 3.30395 -0.996641 0
M  V30 8253 C 791.617 3.71422 -2.20612 0
M  V30 8254 C 790.752 4.96401 -1.89101 0
M  V30 8255 C 789.791 5.2998 -3.06247 0
M  V30 8256 N 788.928 6.46137 -2.74685 0
M  V30 8257 H 793.768 2.01559 -2.19495 0
M  V30 8258 H 791.305 0.986243 -1.09141 0
M  V30 8259 H 793.263 4.08803 -0.832817 0
M  V30 8260 H 791.893 3.22691 -0.0838242 0
M  V30 8261 H 790.945 2.88488 -2.47949 0
M  V30 8262 H 792.257 3.92215 -3.0817 0
M  V30 8263 H 791.411 5.82572 -1.69396 0
M  V30 8264 H 790.15 4.7759 -0.987882 0
M  V30 8265 H 789.155 4.42312 -3.26559 0
M  V30 8266 H 790.38 5.50737 -3.97323 0
M  V30 8267 H 788.326 6.28801 -1.86938 0
M  V30 8268 H 788.243 6.67054 -3.55774 0
M  V30 8269 H 789.511 7.35403 -2.58461 0
M  V30 8270 N 793.74 1.17359 1.05189 0
M  V30 8271 C 795.156 0.920861 1.30355 0
M  V30 8272 C 795.356 -0.419993 1.97074 0
M  V30 8273 O 794.412 -1.15696 2.24434 0
M  V30 8274 C 795.725 2.07818 2.1733 0
M  V30 8275 C 797.273 2.1152 2.30712 0
M  V30 8276 C 797.748 3.26637 3.21048 0
M  V30 8277 N 799.239 3.26426 3.28634 0
M  V30 8278 C 799.974 4.12141 3.98657 0
M  V30 8279 N 799.47 5.07966 4.71107 0
M  V30 8280 N 801.263 4.00091 3.94821 0
M  V30 8281 H 793.414 2.03666 0.602821 0
M  V30 8282 H 795.677 0.889294 0.328421 0
M  V30 8283 H 795.383 3.04727 1.75597 0
M  V30 8284 H 795.257 2.02922 3.17966 0
M  V30 8285 H 797.644 1.15196 2.71687 0
M  V30 8286 H 797.725 2.20477 1.29706 0
M  V30 8287 H 797.369 4.23227 2.80788 0
M  V30 8288 H 797.299 3.14917 4.2206 0
M  V30 8289 H 799.79 2.57045 2.77013 0
M  V30 8290 H 800.103 5.69766 5.22099 0
M  V30 8291 H 798.448 5.11936 4.7005 0
M  V30 8292 H 801.639 3.24523 3.37346 0
M  V30 8293 H 801.812 4.6711 4.49123 0
M  V30 8294 N 795.218 -1.23913 0.973828 0
M  V30 8295 C 796.464 -1.92747 0.649635 0
M  V30 8296 C 796.819 -1.7465 -0.807157 0
M  V30 8297 O 796.112 -1.09271 -1.57386 0
M  V30 8298 C 796.306 -3.4406 0.967356 0
M  V30 8299 C 796.135 -3.76874 2.45348 0
M  V30 8300 C 794.905 -3.97915 3.11435 0
M  V30 8301 C 797.103 -3.82871 3.43386 0
M  V30 8302 N 795.085 -4.1788 4.49722 0
M  V30 8303 C 796.456 -4.07751 4.67053 0
M  V30 8304 C 798.511 -3.65634 3.37958 0
M  V30 8305 C 797.214 -4.17185 5.8596 0
M  V30 8306 C 799.24 -3.76317 4.56223 0
M  V30 8307 C 798.602 -4.01628 5.78683 0
M  V30 8308 H 794.701 -0.72677 0.288667 0
M  V30 8309 H 797.285 -1.4928 1.24994 0
M  V30 8310 H 795.456 -3.86378 0.395804 0
M  V30 8311 H 797.188 -4.00211 0.601108 0
M  V30 8312 H 793.943 -3.94562 2.61949 0
M  V30 8313 H 794.367 -4.31829 5.21395 0
M  V30 8314 H 799.009 -3.45067 2.44312 0
M  V30 8315 H 796.727 -4.36562 6.80029 0
M  V30 8316 H 800.313 -3.64343 4.53592 0
M  V30 8317 H 799.193 -4.09699 6.68667 0
M  V30 8318 N 796.696 -0.74468 -1.38897 0
M  V30 8319 C 797.643 -0.111064 -2.30533 0
M  V30 8320 C 798.613 0.719276 -1.49719 0
M  V30 8321 O 799.798 0.677244 -1.78376 0
M  V30 8322 C 796.938 0.78292 -3.36102 0
M  V30 8323 C 796.051 -0.0610817 -4.31957 0
M  V30 8324 C 795.186 0.835075 -5.24595 0
M  V30 8325 C 794.225 -0.0130974 -6.12099 0
M  V30 8326 N 793.362 0.839525 -6.97063 0
M  V30 8327 H 798.202 -0.898113 -2.84144 0
M  V30 8328 H 795.739 -0.454537 -1.39901 0
M  V30 8329 H 797.697 1.31578 -3.95908 0
M  V30 8330 H 796.327 1.53585 -2.83922 0
M  V30 8331 H 795.379 -0.711469 -3.73687 0
M  V30 8332 H 796.691 -0.716482 -4.93627 0
M  V30 8333 H 795.845 1.43542 -5.89475 0
M  V30 8334 H 794.584 1.52423 -4.63269 0
M  V30 8335 H 793.589 -0.626179 -5.46223 0
M  V30 8336 H 794.814 -0.699181 -6.75491 0
M  V30 8337 H 792.76 1.5138 -6.38295 0
M  V30 8338 H 792.677 0.240823 -7.55616 0
M  V30 8339 H 793.945 1.42513 -7.66362 0
M  V30 8340 N 798.174 1.49689 -0.493057 0
M  V30 8341 C 799.121 2.28976 0.28959 0
M  V30 8342 C 800.091 1.35011 0.967536 0
M  V30 8343 O 801.276 1.63964 0.975736 0
M  V30 8344 C 798.416 3.1748 1.35279 0
M  V30 8345 C 797.529 4.26496 0.687418 0
M  V30 8346 C 796.664 5.02226 1.73038 0
M  V30 8347 C 795.703 6.03089 1.04645 0
M  V30 8348 N 794.84 6.72014 2.03325 0
M  V30 8349 H 799.68 2.954 -0.392798 0
M  V30 8350 H 797.217 1.45657 -0.205554 0
M  V30 8351 H 799.175 3.67162 1.98111 0
M  V30 8352 H 797.805 2.53057 2.00405 0
M  V30 8353 H 796.857 3.80362 -0.0540001 0
M  V30 8354 H 798.169 4.98578 0.14864 0
M  V30 8355 H 797.323 5.55737 2.43395 0
M  V30 8356 H 796.062 4.29899 2.303 0
M  V30 8357 H 795.067 5.48817 0.328606 0
M  V30 8358 H 796.292 6.77398 0.480428 0
M  V30 8359 H 794.238 6.02464 2.59564 0
M  V30 8360 H 794.155 7.40046 1.54492 0
M  V30 8361 H 795.423 7.30133 2.72995 0
M  V30 8362 N 799.652 0.226554 1.55963 0
M  V30 8363 C 801.068 -0.128733 1.5908 0
M  V30 8364 C 801.268 -1.58558 1.24345 0
M  V30 8365 O 800.324 -2.32661 0.981069 0
M  V30 8366 C 801.637 0.202076 3.0002 0
M  V30 8367 C 803.185 0.144718 3.12665 0
M  V30 8368 C 803.66 0.449272 4.55791 0
M  V30 8369 N 805.151 0.399026 4.61478 0
M  V30 8370 C 805.886 0.608106 5.70166 0
M  V30 8371 N 805.382 0.879227 6.87198 0
M  V30 8372 N 807.175 0.5402 5.59498 0
M  V30 8373 H 799.326 1.17686 1.76816 0
M  V30 8374 H 801.589 0.472072 0.822102 0
M  V30 8375 H 801.295 1.21341 3.30105 0
M  V30 8376 H 801.169 -0.480554 3.74126 0
M  V30 8377 H 803.556 -0.857261 2.82374 0
M  V30 8378 H 803.637 0.860899 2.40878 0
M  V30 8379 H 803.281 1.44871 4.86801 0
M  V30 8380 H 803.211 -0.288157 5.25811 0
M  V30 8381 H 805.702 0.197372 3.77384 0
M  V30 8382 H 806.015 1.02673 7.65949 0
M  V30 8383 H 804.36 0.916477 6.88931 0
M  V30 8384 H 807.551 0.328581 4.66945 0
M  V30 8385 H 807.724 0.706548 6.44137 0
M  V30 8386 N 801.13 -1.57531 -0.0467866 0
M  V30 8387 C 802.377 -1.88451 -0.74112 0
M  V30 8388 C 802.705 -0.821592 -1.76296 0
M  V30 8389 O 801.96 0.179585 -1.94874 0
M  V30 8390 C 802.259 -3.26091 -1.46285 0
M  V30 8391 C 801.925 -4.47171 -0.578669 0
M  V30 8392 C 800.587 -4.80032 -0.335083 0
M  V30 8393 C 802.939 -5.2119 0.0328809 0
M  V30 8394 C 800.267 -5.84309 0.529121 0
M  V30 8395 C 802.619 -6.26383 0.884684 0
M  V30 8396 C 801.283 -6.57729 1.1379 0
M  V30 8397 H 800.553 -0.68959 -0.271195 0
M  V30 8398 H 803.2 -1.915 -0.00132378 0
M  V30 8399 H 801.505 -3.18948 -2.27551 0
M  V30 8400 H 803.202 -3.47258 -2.00532 0
M  V30 8401 H 799.792 -4.21467 -0.778666 0
M  V30 8402 H 803.976 -4.96096 -0.142375 0
M  V30 8403 H 799.232 -6.06981 0.733794 0
M  V30 8404 H 803.406 -6.82888 1.36516 0
M  V30 8405 H 801.033 -7.38355 1.80929 0
M  V30 8406 N 802.608 0.318715 -1.54344 0
M  V30 8407 C 803.855 1.05608 -1.72781 0
M  V30 8408 C 804.183 1.87854 -0.504083 0
M  V30 8409 O 803.438 1.88826 0.51414 0
M  V30 8410 C 803.737 2.00514 -2.95853 0
M  V30 8411 C 803.403 1.34385 -4.30409 0
M  V30 8412 C 802.065 1.16081 -4.66989 0
M  V30 8413 C 804.417 0.869627 -5.13894 0
M  V30 8414 C 801.745 0.490114 -5.84649 0
M  V30 8415 C 804.097 0.212735 -6.32242 0
M  V30 8416 C 802.761 0.0175882 -6.67498 0
M  V30 8417 H 802.031 0.386449 -0.632249 0
M  V30 8418 H 804.678 0.332729 -1.88587 0
M  V30 8419 H 802.983 2.79317 -2.74753 0
M  V30 8420 H 804.68 2.57605 -3.07312 0
M  V30 8421 H 801.27 1.49634 -4.01631 0
M  V30 8422 H 805.454 0.998809 -4.86146 0
M  V30 8423 H 800.71 0.327767 -6.10521 0
M  V30 8424 H 804.884 -0.162699 -6.9621 0
M  V30 8425 H 802.511 -0.504137 -7.58527 0
M  V30 8426 N 804.086 1.46499 0.581025 0
M  V30 8427 C 805.332 1.52121 1.34116 0
M  V30 8428 C 805.665 0.173031 1.93428 0
M  V30 8429 O 804.94 -0.815729 1.76568 0
M  V30 8430 C 805.223 2.62108 2.46924 0
M  V30 8431 C 805.076 4.06462 1.92636 0
M  V30 8432 C 806.395 2.68167 3.48962 0
M  V30 8433 H 803.514 0.5538 0.486287 0
M  V30 8434 H 806.156 1.78443 0.652538 0
M  V30 8435 H 804.306 2.39794 3.05665 0
M  V30 8436 H 805.978 4.40068 1.3834 0
M  V30 8437 H 804.221 4.15862 1.23455 0
M  V30 8438 H 804.892 4.79152 2.74076 0
M  V30 8439 H 807.368 2.8823 3.00104 0
M  V30 8440 H 806.244 3.46942 4.2535 0
M  V30 8441 H 806.505 1.74284 4.06297 0
M  V30 8442 N 805.565 -0.825799 1.34232 0
M  V30 8443 C 806.495 -1.95151 1.28212 0
M  V30 8444 C 807.476 -1.69345 0.160123 0
M  V30 8445 O 808.661 -1.90983 0.352019 0
M  V30 8446 C 805.791 -3.31554 1.03388 0
M  V30 8447 C 804.745 -3.71793 2.12023 0
M  V30 8448 C 804.071 -5.06147 1.72392 0
M  V30 8449 C 805.371 -3.84193 3.53826 0
M  V30 8450 H 807.065 -2.00445 2.22401 0
M  V30 8451 H 804.611 -0.962996 1.07063 0
M  V30 8452 H 806.564 -4.09889 0.978225 0
M  V30 8453 H 805.288 -3.26551 0.0564142 0
M  V30 8454 H 803.947 -2.95731 2.16654 0
M  V30 8455 H 803.595 -4.97628 0.733137 0
M  V30 8456 H 803.295 -5.34041 2.451 0
M  V30 8457 H 804.819 -5.86943 1.68317 0
M  V30 8458 H 806.233 -4.52806 3.51624 0
M  V30 8459 H 804.63 -4.23538 4.2513 0
M  V30 8460 H 805.7 -2.86272 3.91377 0
M  V30 8461 N 807.043 -1.17915 -1.04565 0
M  V30 8462 C 808.289 -0.972863 -1.77942 0
M  V30 8463 C 808.622 0.496753 -1.87739 0
M  V30 8464 O 807.897 1.3688 -1.38181 0
M  V30 8465 C 808.18 -1.62227 -3.21488 0
M  V30 8466 C 808.033 -3.16441 -3.19664 0
M  V30 8467 C 809.352 -1.33137 -4.19479 0
M  V30 8468 H 806.471 -0.354843 -0.645953 0
M  V30 8469 H 809.113 -1.45508 -1.22178 0
M  V30 8470 H 807.263 -1.21224 -3.69103 0
M  V30 8471 H 808.935 -3.66544 -2.80077 0
M  V30 8472 H 807.178 -3.48863 -2.57832 0
M  V30 8473 H 807.849 -3.57012 -4.21006 0
M  V30 8474 H 810.325 -1.68654 -3.80388 0
M  V30 8475 H 809.201 -1.81151 -5.18146 0
M  V30 8476 H 809.462 -0.253319 -4.41374 0
M  V30 8477 N 808.521 1.23394 -0.980386 0
M  V30 8478 C 809.453 2.24146 -0.478657 0
M  V30 8479 C 810.466 1.57303 0.419492 0
M  V30 8480 O 811.655 1.77094 0.223631 0
M  V30 8481 C 808.755 3.3732 0.326913 0
M  V30 8482 C 807.928 4.33744 -0.56436 0
M  V30 8483 C 806.987 5.25866 0.187358 0
M  V30 8484 O 806.013 5.67626 -0.423019 0
M  V30 8485 N 807.215 5.61492 1.47335 0
M  V30 8486 H 809.98 2.67826 -1.34496 0
M  V30 8487 H 807.541 1.37566 -0.853653 0
M  V30 8488 H 809.533 3.95926 0.838148 0
M  V30 8489 H 808.103 2.92823 1.09422 0
M  V30 8490 H 807.323 3.73641 -1.25642 0
M  V30 8491 H 808.611 4.95123 -1.17177 0
M  V30 8492 H 808.009 5.29514 1.99077 0
M  V30 8493 H 806.566 6.2257 1.93002 0
M  V30 8494 N 809.999 0.752036 1.385 0
M  V30 8495 C 811.245 0.307958 2.00448 0
M  V30 8496 C 811.578 -1.10702 1.59558 0
M  V30 8497 O 810.853 -1.75788 0.832391 0
M  V30 8498 C 811.136 0.429092 3.57534 0
M  V30 8499 C 810.989 1.88507 4.08393 0
M  V30 8500 C 812.308 -0.178442 4.39738 0
M  V30 8501 H 809.427 0.113373 0.728228 0
M  V30 8502 H 812.069 0.951389 1.64465 0
M  V30 8503 H 810.219 -0.118695 3.88319 0
M  V30 8504 H 811.891 2.49104 3.88259 0
M  V30 8505 H 810.134 2.40066 3.61318 0
M  V30 8506 H 810.805 1.92099 5.17496 0
M  V30 8507 H 813.281 0.28872 4.15097 0
M  V30 8508 H 812.157 -0.0634349 5.48863 0
M  V30 8509 H 812.418 -1.26655 4.23569 0
M  V30 8510 N 811.477 -1.49425 0.500989 0
M  V30 8511 C 812.702 -2.07356 -0.0425154 0
M  V30 8512 C 813.127 -1.35887 -1.30063 0
M  V30 8513 O 812.485 -0.41561 -1.76472 0
M  V30 8514 C 812.533 -3.59518 -0.279188 0
M  V30 8515 O 811.637 -3.89542 -1.3539 0
M  V30 8516 H 810.978 -0.663482 0.0262207 0
M  V30 8517 H 813.508 -1.92231 0.700607 0
M  V30 8518 H 813.518 -4.04791 -0.5107 0
M  V30 8519 H 812.193 -4.10946 0.640009 0
M  V30 8520 H 810.77 -3.56079 -1.10734 0
M  V30 8521 N 812.955 -0.234822 -1.55841 0
M  V30 8522 C 813.887 0.702346 -2.18174 0
M  V30 8523 C 814.9 1.14776 -1.15457 0
M  V30 8524 O 816.089 1.07662 -1.42377 0
M  V30 8525 C 813.189 1.96483 -2.76129 0
M  V30 8526 C 812.362 1.67283 -4.04148 0
M  V30 8527 C 811.421 2.7837 -4.46539 0
M  V30 8528 O 810.447 2.46272 -5.13166 0
M  V30 8529 N 811.649 4.07611 -4.1332 0
M  V30 8530 H 814.414 0.169074 -2.99223 0
M  V30 8531 H 811.975 -0.0543164 -1.61809 0
M  V30 8532 H 813.967 2.70016 -3.01452 0
M  V30 8533 H 812.537 2.40822 -1.99307 0
M  V30 8534 H 811.757 0.773278 -3.86541 0
M  V30 8535 H 813.045 1.45222 -4.87635 0
M  V30 8536 H 812.443 4.36527 -3.59806 0
M  V30 8537 H 811 4.77646 -4.43506 0
M  V30 8538 N 814.433 1.57553 0.0384317 0
M  V30 8539 C 815.663 1.92813 0.742064 0
M  V30 8540 C 816.071 0.832157 1.69917 0
M  V30 8541 O 815.414 -0.200917 1.82598 0
M  V30 8542 C 815.476 3.23806 1.56172 0
M  V30 8543 C 815.14 4.50459 0.770407 0
M  V30 8544 C 816.137 5.19846 0.0748006 0
M  V30 8545 C 813.822 4.97001 0.727714 0
M  V30 8546 C 815.816 6.34047 -0.652902 0
M  V30 8547 C 813.503 6.111 -0.00373992 0
M  V30 8548 C 814.501 6.79477 -0.692816 0
M  V30 8549 O 814.189 7.91395 -1.41241 0
M  V30 8550 H 813.921 0.641174 0.214179 0
M  V30 8551 H 816.475 2.054 0.00285095 0
M  V30 8552 H 814.705 3.0752 2.34453 0
M  V30 8553 H 816.394 3.44463 2.14709 0
M  V30 8554 H 817.16 4.84899 0.098875 0
M  V30 8555 H 813.039 4.43629 1.25355 0
M  V30 8556 H 816.583 6.87353 -1.1913 0
M  V30 8557 H 812.48 6.45493 -0.0297703 0
M  V30 8558 H 813.248 8.07702 -1.32512 0
M  V30 8559 N 815.911 -0.310526 1.54511 0
M  V30 8560 C 817.139 -1.06611 1.77318 0
M  V30 8561 C 817.554 -1.81265 0.528043 0
M  V30 8562 O 816.911 -1.75466 -0.50178 0
M  V30 8563 C 816.962 -2.05409 2.97472 0
M  V30 8564 O 816.683 -1.33785 4.17173 0
M  V30 8565 C 818.184 -2.93082 3.32593 0
M  V30 8566 H 815.404 -0.316578 0.591624 0
M  V30 8567 H 817.948 -0.352691 2.01436 0
M  V30 8568 H 816.103 -2.72266 2.7559 0
M  V30 8569 H 816.517 -2.00055 4.84849 0
M  V30 8570 H 817.991 -3.58274 4.19933 0
M  V30 8571 H 818.468 -3.60877 2.50329 0
M  V30 8572 H 819.074 -2.31768 3.566 0
M  V30 8573 N 817.389 -1.46805 -0.573248 0
M  V30 8574 C 818.636 -1.52604 -1.3311 0
M  V30 8575 C 818.964 -0.181633 -1.9365 0
M  V30 8576 O 818.219 0.823775 -1.77517 0
M  V30 8577 C 818.518 -2.58001 -2.47326 0
M  V30 8578 C 818.184 -4.01747 -2.04719 0
M  V30 8579 C 816.846 -4.40881 -1.92814 0
M  V30 8580 C 819.198 -4.92008 -1.71982 0
M  V30 8581 C 816.526 -5.68129 -1.46445 0
M  V30 8582 C 818.878 -6.19703 -1.27089 0
M  V30 8583 C 817.542 -6.57733 -1.13768 0
M  V30 8584 H 816.812 -0.558417 -0.487084 0
M  V30 8585 H 819.459 -1.80327 -0.644538 0
M  V30 8586 H 817.764 -2.23974 -3.2147 0
M  V30 8587 H 819.461 -2.59715 -3.05531 0
M  V30 8588 H 816.051 -3.70819 -2.14922 0
M  V30 8589 H 820.235 -4.62485 -1.8006 0
M  V30 8590 H 815.491 -5.96359 -1.34783 0
M  V30 8591 H 819.665 -6.89064 -1.00814 0
M  V30 8592 H 817.292 -7.56228 -0.776142 0
M  V30 8593 N 818.867 0.818669 -1.34668 0
M  V30 8594 C 819.83 1.9114 -1.26483 0
M  V30 8595 C 820.83 1.598 -0.179044 0
M  V30 8596 O 822.02 1.6876 -0.431952 0
M  V30 8597 C 819.152 3.27285 -0.95381 0
M  V30 8598 H 820.345 1.9982 -2.23634 0
M  V30 8599 H 817.898 1.01314 -1.19018 0
M  V30 8600 H 818.633 3.24297 0.0143428 0
M  V30 8601 H 818.418 3.51416 -1.73924 0
M  V30 8602 H 819.908 4.07299 -0.921827 0
M  V30 8603 N 820.346 1.18468 1.03938 0
M  V30 8604 C 821.279 0.856251 2.11527 0
M  V30 8605 C 822.257 -0.182323 1.61575 0
M  V30 8606 O 823.441 -0.061 1.88401 0
M  V30 8607 C 820.568 0.279562 3.37544 0
M  V30 8608 C 819.614 1.29552 4.06348 0
M  V30 8609 S 820.447 2.85191 4.5324 0
M  V30 8610 C 821.603 2.29037 5.82489 0
M  V30 8611 H 821.836 1.76742 2.39059 0
M  V30 8612 H 819.369 1.01068 1.16725 0
M  V30 8613 H 821.327 -0.0466579 4.10473 0
M  V30 8614 H 819.988 -0.60975 3.08125 0
M  V30 8615 H 819.181 0.840922 4.96935 0
M  V30 8616 H 818.783 1.56804 3.39541 0
M  V30 8617 H 821.075 1.67376 6.565 0
M  V30 8618 H 822.018 3.17929 6.32714 0
M  V30 8619 H 822.426 1.72009 5.37655 0
M  V30 8620 N 821.824 -1.22873 0.986916 0
M  V30 8621 C 823.064 -1.93192 0.667543 0
M  V30 8622 C 823.428 -1.7521 -0.785196 0
M  V30 8623 O 824.629 -2.39737 -1.2157 0
M  V30 8624 C 822.9 -3.4147 1.05513 0
M  V30 8625 S 824.459 -4.30425 0.853218 0
M  V30 8626 H 821.277 -0.667726 0.244261 0
M  V30 8627 H 823.879 -1.48808 1.26793 0
M  V30 8628 H 822.583 -3.52069 2.10892 0
M  V30 8629 H 822.114 -3.9086 0.446293 0
M  V30 8630 H 824.129 -4.95521 -0.259444 0
M  V30 8631 N 823.302 -0.75937 -1.38099 0
M  V30 8632 C 824.527 -0.327859 -2.04792 0
M  V30 8633 C 824.952 1.03752 -1.56899 0
M  V30 8634 O 824.31 1.66235 -0.723581 0
M  V30 8635 C 824.358 -0.366264 -3.58735 0
M  V30 8636 O 823.462 0.637697 -4.0744 0
M  V30 8637 H 822.803 -0.144092 -0.648177 0
M  V30 8638 H 825.333 -1.03211 -1.7666 0
M  V30 8639 H 825.343 -0.219179 -4.07411 0
M  V30 8640 H 824.018 -1.36243 -3.92951 0
M  V30 8641 H 822.595 0.454749 -3.70117 0
M  V30 8642 N 824.78 1.49157 -0.508906 0
M  V30 8643 C 826.01 2.06579 0.0293308 0
M  V30 8644 C 826.418 1.36852 1.30645 0
M  V30 8645 O 825.761 0.443079 1.78276 0
M  V30 8646 C 825.823 3.57838 0.345296 0
M  V30 8647 C 825.487 4.49302 -0.835256 0
M  V30 8648 C 826.484 4.90345 -1.72793 0
M  V30 8649 C 824.169 4.91494 -1.0363 0
M  V30 8650 C 826.163 5.72327 -2.80573 0
M  V30 8651 C 823.85 5.7325 -2.11726 0
M  V30 8652 C 824.848 6.13572 -3.00032 0
M  V30 8653 O 824.536 6.93691 -4.06261 0
M  V30 8654 H 824.268 0.675679 -0.0208193 0
M  V30 8655 H 826.822 1.9282 -0.707789 0
M  V30 8656 H 825.052 3.69634 1.13612 0
M  V30 8657 H 826.741 3.97467 0.823089 0
M  V30 8658 H 827.507 4.58388 -1.58446 0
M  V30 8659 H 823.386 4.59605 -0.358308 0
M  V30 8660 H 826.93 6.03719 -3.49527 0
M  V30 8661 H 822.827 6.0462 -2.26065 0
M  V30 8662 H 823.595 7.12011 -4.03711 0
M  V30 8663 N 826.258 0.243083 1.55714 0
M  V30 8664 C 827.674 -0.111853 1.59208 0
M  V30 8665 C 827.874 -1.5723 1.2602 0
M  V30 8666 O 826.93 -2.31608 1.00569 0
M  V30 8667 C 828.243 0.233885 2.99789 0
M  V30 8668 C 829.791 0.177873 3.12494 0
M  V30 8669 C 830.266 0.49759 4.55289 0
M  V30 8670 N 831.757 0.447949 4.61029 0
M  V30 8671 C 832.492 0.668545 5.69489 0
M  V30 8672 N 831.988 0.952064 6.86227 0
M  V30 8673 N 833.781 0.599512 5.58894 0
M  V30 8674 H 825.932 1.19554 1.75558 0
M  V30 8675 H 828.195 0.480765 0.817049 0
M  V30 8676 H 827.901 1.24835 3.28799 0
M  V30 8677 H 827.775 -0.440846 3.74615 0
M  V30 8678 H 830.162 -0.827263 2.83267 0
M  V30 8679 H 830.243 0.886399 2.39951 0
M  V30 8680 H 829.887 1.50026 4.85237 0
M  V30 8681 H 829.817 -0.232371 5.26087 0
M  V30 8682 H 832.308 0.237388 3.77154 0
M  V30 8683 H 832.621 1.10791 7.64817 0
M  V30 8684 H 830.966 0.989496 6.8792 0
M  V30 8685 H 834.157 0.378088 4.66571 0
M  V30 8686 H 834.33 0.774828 6.43351 0
M  V30 8687 N 827.736 -1.57571 -0.0300757 0
M  V30 8688 C 828.646 -2.09892 -1.04798 0
M  V30 8689 C 829.662 -1.03732 -1.39698 0
M  V30 8690 O 830.838 -1.35461 -1.49038 0
M  V30 8691 C 827.903 -2.56707 -2.33028 0
M  V30 8692 C 826.964 -3.77345 -2.04718 0
M  V30 8693 C 826.197 -4.21918 -3.26834 0
M  V30 8694 O 826.42 -3.66025 -4.37472 0
M  V30 8695 O 825.354 -5.14362 -3.12594 0
M  V30 8696 H 829.18 -2.97023 -0.633344 0
M  V30 8697 H 826.765 -1.47344 -0.246991 0
M  V30 8698 H 828.647 -2.87154 -3.08417 0
M  V30 8699 H 827.322 -1.72688 -2.73789 0
M  V30 8700 H 826.229 -3.51919 -1.26901 0
M  V30 8701 H 827.562 -4.62345 -1.68813 0
M  V30 8702 N 829.214 0.302327 -1.54673 0
M  V30 8703 C 830.161 1.37282 -1.85532 0
M  V30 8704 C 831.131 1.50437 -0.704129 0
M  V30 8705 O 832.316 1.65317 -0.952627 0
M  V30 8706 C 829.456 2.73309 -2.10704 0
M  V30 8707 C 828.569 2.68614 -3.38335 0
M  V30 8708 C 827.704 3.96626 -3.53357 0
M  V30 8709 C 826.743 3.86324 -4.74784 0
M  V30 8710 N 825.88 5.06109 -4.86619 0
M  V30 8711 H 830.72 1.10265 -2.76849 0
M  V30 8712 H 828.257 0.533346 -1.37091 0
M  V30 8713 H 830.215 3.52414 -2.23294 0
M  V30 8714 H 828.845 2.98589 -1.22656 0
M  V30 8715 H 827.897 1.81381 -3.34373 0
M  V30 8716 H 829.209 2.56891 -4.27561 0
M  V30 8717 H 828.363 4.84168 -3.65604 0
M  V30 8718 H 827.102 4.11182 -2.62261 0
M  V30 8719 H 826.107 2.97166 -4.62572 0
M  V30 8720 H 827.332 3.73315 -5.67286 0
M  V30 8721 H 825.278 5.2113 -3.98446 0
M  V30 8722 H 825.195 4.96804 -5.69844 0
M  V30 8723 H 826.463 5.95306 -5.03221 0
M  V30 8724 N 830.692 1.47107 0.565454 0
M  V30 8725 C 831.639 1.58974 1.6732 0
M  V30 8726 C 832.609 0.433146 1.60353 0
M  V30 8727 O 833.794 0.652141 1.79309 0
M  V30 8728 C 830.934 1.60224 3.05651 0
M  V30 8729 C 830.047 2.86741 3.23116 0
M  V30 8730 C 829.182 2.79381 4.51796 0
M  V30 8731 C 828.221 4.0076 4.62664 0
M  V30 8732 N 827.358 3.91685 5.8269 0
M  V30 8733 H 832.198 2.53588 1.56515 0
M  V30 8734 H 829.735 1.25791 0.762558 0
M  V30 8735 H 831.693 1.58933 3.85741 0
M  V30 8736 H 830.323 0.691285 3.15311 0
M  V30 8737 H 829.375 2.97936 2.36513 0
M  V30 8738 H 830.687 3.7665 3.27011 0
M  V30 8739 H 829.841 2.76293 5.40136 0
M  V30 8740 H 828.58 1.87142 4.50366 0
M  V30 8741 H 827.585 4.04162 3.72738 0
M  V30 8742 H 828.81 4.94117 4.6586 0
M  V30 8743 H 826.756 3.02243 5.82224 0
M  V30 8744 H 826.673 4.75264 5.87929 0
M  V30 8745 H 827.941 3.92599 6.73414 0
M  V30 8746 N 832.17 -0.811516 1.35101 0
M  V30 8747 C 833.133 -1.90467 1.27495 0
M  V30 8748 C 834.133 -1.59703 0.187516 0
M  V30 8749 O 835.323 -1.68528 0.440896 0
M  V30 8750 C 832.455 -3.26774 0.971154 0
M  V30 8751 H 833.648 -1.98631 2.2469 0
M  V30 8752 H 831.201 -1.00681 1.19553 0
M  V30 8753 H 831.936 -3.243 0.0028557 0
M  V30 8754 H 831.721 -3.50488 1.75785 0
M  V30 8755 H 833.211 -4.06804 0.943414 0
M  V30 8756 N 833.648 -1.19017 -1.03309 0
M  V30 8757 C 834.558 -0.939303 -2.14975 0
M  V30 8758 C 835.574 0.0992359 -1.73717 0
M  V30 8759 O 836.75 -0.0844362 -2.01223 0
M  V30 8760 C 833.815 -0.476712 -3.43407 0
M  V30 8761 C 832.876 -1.58413 -3.99003 0
M  V30 8762 C 832.109 -1.14352 -5.21305 0
M  V30 8763 O 832.332 -0.00534408 -5.704 0
M  V30 8764 O 831.266 -1.94436 -5.6963 0
M  V30 8765 H 835.092 -1.87386 -2.38998 0
M  V30 8766 H 832.677 -0.972635 -1.13403 0
M  V30 8767 H 834.559 -0.22718 -4.20787 0
M  V30 8768 H 833.234 0.429455 -3.20839 0
M  V30 8769 H 832.141 -1.88777 -3.22977 0
M  V30 8770 H 833.474 -2.4667 -4.25928 0
M  V30 8771 N 835.127 1.22348 -0.993418 0
M  V30 8772 C 836.538 1.72893 -0.704616 0
M  V30 8773 C 836.889 1.80095 0.778483 0
M  V30 8774 O 836.014 1.4476 1.60853 0
M  V30 8775 C 836.609 3.14 -1.27237 0
M  V30 8776 C 835.168 3.61949 -1.03294 0
M  V30 8777 C 834.315 2.39816 -1.39225 0
M  V30 8778 H 837.266 1.07688 -1.16572 0
M  V30 8779 H 837.287 3.74886 -0.651212 0
M  V30 8780 H 836.799 3.08727 -2.3518 0
M  V30 8781 H 834.9 3.72588 0.0298329 0
M  V30 8782 H 835.013 4.48051 -1.69668 0
M  V30 8783 H 833.377 2.41448 -0.810849 0
M  V30 8784 H 834.16 2.37203 -2.48172 0
M  V30 8785 N 836.605 0.766683 1.37694 0
M  V30 8786 C 837.537 0.107798 2.28946 0
M  V30 8787 C 838.55 -0.669701 1.48387 0
M  V30 8788 O 839.739 -0.508629 1.711 0
M  V30 8789 C 836.839 -0.871084 3.27514 0
M  V30 8790 C 836.012 -0.148471 4.37148 0
M  V30 8791 C 835.071 -1.03998 5.1582 0
M  V30 8792 O 834.097 -0.505639 5.6695 0
M  V30 8793 N 835.299 -2.36679 5.3006 0
M  V30 8794 H 838.064 0.89154 2.86132 0
M  V30 8795 H 835.625 0.618593 1.49616 0
M  V30 8796 H 837.617 -1.47081 3.77027 0
M  V30 8797 H 836.187 -1.55582 2.71133 0
M  V30 8798 H 835.407 0.632117 3.89099 0
M  V30 8799 H 836.695 0.351045 5.07588 0
M  V30 8800 H 836.093 -2.82532 4.90094 0
M  V30 8801 H 834.65 -2.9167 5.82899 0
M  V30 8802 N 838.083 -1.48885 0.516809 0
M  V30 8803 C 838.993 -2.33185 -0.257293 0
M  V30 8804 C 840.009 -1.4565 -0.951952 0
M  V30 8805 O 841.185 -1.78651 -0.929834 0
M  V30 8806 C 838.25 -3.21465 -1.29851 0
M  V30 8807 C 837.311 -4.24863 -0.615608 0
M  V30 8808 C 836.544 -5.08925 -1.60722 0
M  V30 8809 O 836.767 -4.9475 -2.83863 0
M  V30 8810 O 835.701 -5.90737 -1.15384 0
M  V30 8811 H 839.527 -3.00596 0.433131 0
M  V30 8812 H 837.112 -1.46792 0.277908 0
M  V30 8813 H 838.994 -3.76108 -1.90055 0
M  V30 8814 H 837.669 -2.5673 -1.97158 0
M  V30 8815 H 836.576 -3.74091 0.0265829 0
M  V30 8816 H 837.909 -4.92198 0.0152871 0
M  V30 8817 N 839.561 -0.251338 -1.55583 0
M  V30 8818 C 840.491 0.640437 -2.24545 0
M  V30 8819 C 841.472 1.17781 -1.22726 0
M  V30 8820 O 842.657 1.21633 -1.5139 0
M  V30 8821 C 839.787 1.8355 -2.94834 0
M  V30 8822 C 838.741 1.4307 -4.03379 0
M  V30 8823 C 838.067 2.70695 -4.61116 0
M  V30 8824 C 839.367 0.59848 -5.1886 0
M  V30 8825 H 841.061 0.0653772 -2.99329 0
M  V30 8826 H 838.607 0.0300042 -1.43969 0
M  V30 8827 H 840.56 2.46505 -3.4178 0
M  V30 8828 H 839.284 2.43601 -2.17546 0
M  V30 8829 H 837.943 0.824474 -3.57209 0
M  V30 8830 H 837.591 3.28954 -3.80524 0
M  V30 8831 H 837.291 2.44332 -5.34393 0
M  V30 8832 H 838.815 3.34541 -5.10798 0
M  V30 8833 H 840.229 1.13244 -5.62004 0
M  V30 8834 H 838.626 0.430728 -5.98552 0
M  V30 8835 H 839.696 -0.38829 -4.83343 0
M  V30 8836 N 841.039 1.57585 0.0217189 0
M  V30 8837 C 841.969 2.10073 1.01939 0
M  V30 8838 C 842.95 1.0049 1.37243 0
M  V30 8839 O 844.135 1.28055 1.45999 0
M  V30 8840 C 841.265 2.58618 2.31806 0
M  V30 8841 C 840.219 3.72531 2.10724 0
M  V30 8842 C 839.545 4.07309 3.46415 0
M  V30 8843 C 840.845 5.00672 1.48743 0
M  V30 8844 H 842.539 2.9368 0.582432 0
M  V30 8845 H 840.085 1.41277 0.278715 0
M  V30 8846 H 842.038 2.9396 3.01936 0
M  V30 8847 H 840.762 1.72104 2.77575 0
M  V30 8848 H 839.421 3.37549 1.43025 0
M  V30 8849 H 839.069 3.17851 3.89846 0
M  V30 8850 H 838.769 4.84042 3.33132 0
M  V30 8851 H 840.293 4.45192 4.17895 0
M  V30 8852 H 841.707 5.33925 2.088 0
M  V30 8853 H 840.104 5.82065 1.46013 0
M  V30 8854 H 841.174 4.82769 0.45408 0
M  V30 8855 N 842.517 -0.29412 1.54831 0
M  V30 8856 C 843.449 -1.38476 1.82639 0
M  V30 8857 C 844.462 -1.46517 0.709694 0
M  V30 8858 O 845.651 -1.48712 0.987269 0
M  V30 8859 C 842.751 -2.76791 1.95551 0
M  V30 8860 C 841.924 -2.91599 3.26019 0
M  V30 8861 C 840.983 -4.10456 3.29261 0
M  V30 8862 O 840.009 -4.02214 4.02756 0
M  V30 8863 N 841.211 -5.21422 2.55145 0
M  V30 8864 H 843.976 -1.14974 2.76769 0
M  V30 8865 H 841.537 -0.484206 1.5449 0
M  V30 8866 H 843.529 -3.5456 1.95113 0
M  V30 8867 H 842.099 -2.93209 1.08384 0
M  V30 8868 H 841.319 -2.00886 3.39173 0
M  V30 8869 H 842.607 -2.98409 4.12104 0
M  V30 8870 H 842.005 -5.31 1.95078 0
M  V30 8871 H 840.562 -5.97501 2.60454 0
M  V30 8872 N 843.995 -1.47404 -0.557645 0
M  V30 8873 C 844.925 -1.62736 -1.67449 0
M  V30 8874 C 845.906 -0.476824 -1.6328 0
M  V30 8875 O 847.091 -0.706108 -1.80908 0
M  V30 8876 C 844.221 -1.641 -3.06086 0
M  V30 8877 C 843.175 -2.78377 -3.25101 0
M  V30 8878 C 842.501 -2.64812 -4.6452 0
M  V30 8879 C 843.801 -4.19971 -3.10518 0
M  V30 8880 H 845.495 -2.56232 -1.54873 0
M  V30 8881 H 843.041 -1.23312 -0.743649 0
M  V30 8882 H 844.994 -1.73417 -3.84063 0
M  V30 8883 H 843.718 -0.671652 -3.19619 0
M  V30 8884 H 842.377 -2.6857 -2.49531 0
M  V30 8885 H 842.025 -1.65906 -4.74852 0
M  V30 8886 H 841.725 -3.41477 -4.78191 0
M  V30 8887 H 843.249 -2.76057 -5.44633 0
M  V30 8888 H 844.663 -4.30757 -3.78313 0
M  V30 8889 H 843.06 -4.97419 -3.35699 0
M  V30 8890 H 844.13 -4.38369 -2.0727 0
M  V30 8891 N 845.473 0.80434 -1.35529 0
M  V30 8892 C 846.75 1.5486 -1.1949 0
M  V30 8893 C 847.13 2.09897 0.22506 0
M  V30 8894 O 846.478 1.92643 1.22886 0
M  V30 8895 C 846.688 2.65535 -2.26478 0
M  V30 8896 C 848.036 3.33814 -2.62399 0
M  V30 8897 O 849.06 2.75807 -2.25409 0
M  V30 8898 O 847.919 4.38612 -3.26009 0
M  V30 8899 H 845.013 0.68433 -0.464351 0
M  V30 8900 H 847.559 0.844107 -1.47217 0
M  V30 8901 H 846.331 2.22754 -3.21709 0
M  V30 8902 H 845.954 3.43617 -2.00033 0
M  V30 8903 N 846.951 1.19563 1.02676 0
M  V30 8904 C 848.199 0.997593 1.75763 0
M  V30 8905 C 848.52 -0.47253 1.89188 0
M  V30 8906 O 847.79 -1.34214 1.42701 0
M  V30 8907 H 846.37 0.366128 0.651122 0
M  V30 8908 H 849.032 1.50495 1.23844 0
M  V30 8909 H 848.128 1.44741 2.76508 0
M  V30 8910 N 848.429 -1.21819 0.999893 0
M  V30 8911 C 849.659 -1.94475 0.697346 0
M  V30 8912 C 850.067 -1.73991 -0.743228 0
M  V30 8913 O 849.41 -1.04042 -1.51397 0
M  V30 8914 C 849.472 -3.47204 0.932181 0
M  V30 8915 C 849.136 -3.91432 2.3586 0
M  V30 8916 C 850.133 -3.98545 3.33853 0
M  V30 8917 C 847.818 -4.23888 2.69489 0
M  V30 8918 C 849.812 -4.37499 4.63545 0
M  V30 8919 C 847.499 -4.62519 3.99399 0
M  V30 8920 C 848.497 -4.69294 4.96238 0
M  V30 8921 O 848.185 -5.07048 6.23825 0
M  V30 8922 H 847.917 -0.625419 0.256567 0
M  V30 8923 H 850.471 -1.55728 1.33933 0
M  V30 8924 H 848.701 -3.85997 0.233025 0
M  V30 8925 H 850.39 -4.01078 0.623807 0
M  V30 8926 H 851.156 -3.73654 3.09205 0
M  V30 8927 H 847.035 -4.17815 1.94812 0
M  V30 8928 H 850.579 -4.42702 5.3913 0
M  V30 8929 H 846.476 -4.86864 4.23833 0
M  V30 8930 H 847.244 -5.25098 6.27865 0
M  V30 8931 N 849.908 -0.773975 -1.37286 0
M  V30 8932 C 851.136 -0.350758 -2.03905 0
M  V30 8933 C 851.551 1.02779 -1.58373 0
M  V30 8934 O 850.908 1.65646 -0.766009 0
M  V30 8935 C 850.959 -0.387335 -3.59419 0
M  V30 8936 O 850.68 -1.7115 -4.03286 0
M  V30 8937 C 852.181 0.047198 -4.43275 0
M  V30 8938 H 849.401 -0.146663 -0.654775 0
M  V30 8939 H 851.945 -1.04852 -1.75574 0
M  V30 8940 H 850.1 0.261865 -3.86514 0
M  V30 8941 H 850.514 -1.65166 -4.97816 0
M  V30 8942 H 851.988 -0.0295474 -5.51992 0
M  V30 8943 H 852.465 1.09786 -4.25257 0
M  V30 8944 H 853.071 -0.573899 -4.2141 0
M  V30 8945 N 851.386 1.48609 -0.524698 0
M  V30 8946 C 852.632 2.02797 0.0113382 0
M  V30 8947 C 852.965 1.40147 1.34433 0
M  V30 8948 O 852.24 0.545368 1.86698 0
M  V30 8949 C 852.523 3.59832 0.138931 0
M  V30 8950 C 852.376 4.32971 -1.21886 0
M  V30 8951 C 853.695 4.3145 0.868265 0
M  V30 8952 H 850.814 0.736995 0.00264645 0
M  V30 8953 H 853.456 1.77388 -0.680704 0
M  V30 8954 H 851.606 3.81612 0.72834 0
M  V30 8955 H 853.278 4.22624 -1.84897 0
M  V30 8956 H 851.521 3.94597 -1.80211 0
M  V30 8957 H 852.192 5.41279 -1.08263 0
M  V30 8958 H 854.668 4.14468 0.368145 0
M  V30 8959 H 853.544 5.41025 0.926428 0
M  V30 8960 H 853.805 3.98358 1.91737 0
M  V30 8961 N 852.864 0.259585 1.55447 0
M  V30 8962 C 854.141 -0.412595 1.91199 0
M  V30 8963 C 854.521 -1.74909 1.18194 0
M  V30 8964 O 853.869 -2.26474 0.303603 0
M  V30 8965 C 854.079 -0.568195 3.44344 0
M  V30 8966 C 855.427 -0.858253 4.15836 0
M  V30 8967 O 856.451 -0.653588 3.50152 0
M  V30 8968 O 855.31 -1.24874 5.32042 0
M  V30 8969 H 852.404 -0.223403 0.796254 0
M  V30 8970 H 854.95 0.30459 1.66944 0
M  V30 8971 H 853.722 0.372989 3.89518 0
M  V30 8972 H 853.345 -1.33544 3.74502 0
M  V30 8973 N 854.342 -1.57594 -0.0133615 0
M  V30 8974 C 855.572 -1.93969 -0.711295 0
M  V30 8975 C 855.98 -0.859084 -1.68572 0
M  V30 8976 O 855.323 0.171842 -1.82894 0
M  V30 8977 C 855.385 -3.2625 -1.51001 0
M  V30 8978 C 855.049 -4.51628 -0.698645 0
M  V30 8979 C 856.046 -5.19899 0.00791185 0
M  V30 8980 C 853.731 -4.98095 -0.648553 0
M  V30 8981 C 855.725 -6.32928 0.753691 0
M  V30 8982 C 853.412 -6.11017 0.10096 0
M  V30 8983 C 854.41 -6.78289 0.800828 0
M  V30 8984 O 854.098 -7.89048 1.53814 0
M  V30 8985 H 853.83 -0.6445 -0.203951 0
M  V30 8986 H 856.384 -2.05378 0.0298267 0
M  V30 8987 H 854.614 -3.11211 -2.29531 0
M  V30 8988 H 856.303 -3.47835 -2.09202 0
M  V30 8989 H 857.069 -4.84995 -0.0217192 0
M  V30 8990 H 852.948 -4.45568 -1.18282 0
M  V30 8991 H 856.492 -6.85371 1.3005 0
M  V30 8992 H 852.389 -6.45364 0.132459 0
M  V30 8993 H 853.157 -8.05492 1.45345 0
M  V30 8994 N 855.82 0.285905 -1.54985 0
M  V30 8995 C 857.048 1.03776 -1.78992 0
M  V30 8996 C 857.463 1.80402 -0.556814 0
M  V30 8997 O 856.82 1.76242 0.473801 0
M  V30 8998 C 856.871 2.0065 -3.00702 0
M  V30 8999 O 856.592 1.27131 -4.19249 0
M  V30 9000 C 858.093 2.87753 -3.37214 0
M  V30 9001 H 855.313 0.307126 -0.596586 0
M  V30 9002 H 857.857 0.3206 -2.01971 0
M  V30 9003 H 856.012 2.67847 -2.79887 0
M  V30 9004 H 856.426 1.92316 -4.8797 0
M  V30 9005 H 857.9 3.51548 -4.2558 0
M  V30 9006 H 858.377 3.56848 -2.56039 0
M  V30 9007 H 858.983 2.26065 -3.60242 0
M  V30 9008 N 857.298 1.47698 0.54982 0
M  V30 9009 C 858.575 1.45185 1.31075 0
M  V30 9010 C 858.955 0.152768 2.10547 0
M  V30 9011 O 858.303 -0.865706 2.11466 0
M  V30 9012 C 858.513 2.70192 2.20902 0
M  V30 9013 C 859.861 3.1771 2.81683 0
M  V30 9014 O 860.885 2.70971 2.312 0
M  V30 9015 O 859.744 3.98986 3.7346 0
M  V30 9016 H 856.838 0.57892 0.590577 0
M  V30 9017 H 859.384 1.59908 0.568112 0
M  V30 9018 H 858.156 3.56269 1.61828 0
M  V30 9019 H 857.779 2.58091 3.02448 0
M  V30 9020 N 858.776 -0.797141 1.35954 0
M  V30 9021 C 860.187 -1.37179 1.26644 0
M  V30 9022 C 860.538 -1.9596 -0.0971046 0
M  V30 9023 O 859.663 -1.91994 -0.998355 0
M  V30 9024 C 860.258 -2.49395 2.2932 0
M  V30 9025 C 858.817 -3.02697 2.23722 0
M  V30 9026 C 857.964 -1.75721 2.14517 0
M  V30 9027 H 860.915 -0.599407 1.46945 0
M  V30 9028 H 860.936 -3.28204 1.92515 0
M  V30 9029 H 860.448 -2.06584 3.2855 0
M  V30 9030 H 858.549 -3.49948 1.27934 0
M  V30 9031 H 858.662 -3.60036 3.16087 0
M  V30 9032 H 857.026 -1.97649 1.60646 0
M  V30 9033 H 857.809 -1.35049 3.15621 0
M  V30 9034 N 860.254 -1.20106 -1.0204 0
M  V30 9035 C 861.186 -0.904236 -2.10609 0
M  V30 9036 C 862.199 0.106487 -1.62451 0
M  V30 9037 O 863.388 -0.124035 -1.78069 0
M  V30 9038 C 860.488 -0.333423 -3.37256 0
M  V30 9039 C 859.661 -1.39476 -4.14566 0
M  V30 9040 C 858.72 -0.835961 -5.19517 0
M  V30 9041 O 857.746 -1.51573 -5.48648 0
M  V30 9042 N 858.948 0.356531 -5.79404 0
M  V30 9043 H 861.713 -1.8388 -2.36661 0
M  V30 9044 H 859.274 -1.10422 -1.184 0
M  V30 9045 H 861.266 0.0544571 -4.04663 0
M  V30 9046 H 859.836 0.505608 -3.08484 0
M  V30 9047 H 859.056 -1.95714 -3.42184 0
M  V30 9048 H 860.344 -2.10967 -4.63001 0
M  V30 9049 H 859.742 0.926143 -5.58067 0
M  V30 9050 H 858.299 0.686093 -6.48179 0
M  V30 9051 N 861.732 1.21287 -1.00634 0
M  V30 9052 C 863.143 1.72136 -0.722914 0
M  V30 9053 C 863.494 1.8091 0.759338 0
M  V30 9054 O 862.619 1.46458 1.59308 0
M  V30 9055 C 863.214 3.12633 -1.30561 0
M  V30 9056 C 861.773 3.60833 -1.07127 0
M  V30 9057 C 860.92 2.38326 -1.4176 0
M  V30 9058 H 863.871 1.06445 -1.17708 0
M  V30 9059 H 863.892 3.74174 -0.690937 0
M  V30 9060 H 863.404 3.06215 -2.38441 0
M  V30 9061 H 861.505 3.72599 -0.00968671 0
M  V30 9062 H 861.618 4.46226 -1.74411 0
M  V30 9063 H 859.982 2.40575 -0.836412 0
M  V30 9064 H 860.765 2.34558 -2.50674 0
M  V30 9065 N 863.21 0.781244 1.36873 0
M  V30 9066 C 864.458 0.349198 1.9906 0
M  V30 9067 C 864.779 -1.0806 1.62321 0
M  V30 9068 O 864.049 -1.74351 0.893229 0
M  V30 9069 H 862.629 0.126126 0.736275 0
M  V30 9070 H 865.291 1.00148 1.67202 0
M  V30 9071 H 864.387 0.434451 3.09061 0
M  V30 9072 N 864.689 -1.48329 0.532571 0
M  V30 9073 C 865.619 -2.32485 -0.217511 0
M  V30 9074 C 866.6 -1.42255 -0.932598 0
M  V30 9075 O 867.785 -1.7114 -0.917873 0
M  V30 9076 C 864.915 -3.23509 -1.26329 0
M  V30 9077 C 863.869 -4.22784 -0.666191 0
M  V30 9078 C 863.195 -5.0296 -1.81482 0
M  V30 9079 C 864.495 -5.21031 0.363813 0
M  V30 9080 H 866.189 -2.95445 0.485014 0
M  V30 9081 H 863.735 -1.42075 0.234694 0
M  V30 9082 H 865.688 -3.81211 -1.79601 0
M  V30 9083 H 864.412 -2.58554 -1.99543 0
M  V30 9084 H 863.071 -3.66272 -0.15498 0
M  V30 9085 H 862.719 -4.34427 -2.5354 0
M  V30 9086 H 862.419 -5.70154 -1.4212 0
M  V30 9087 H 863.943 -5.63514 -2.35126 0
M  V30 9088 H 865.357 -5.73241 -0.0819079 0
M  V30 9089 H 863.754 -5.96292 0.674956 0
M  V30 9090 H 864.824 -4.6801 1.26865 0
M  V30 9091 N 866.167 -0.267825 -1.55308 0
M  V30 9092 C 867.077 0.633055 -2.25897 0
M  V30 9093 C 868.093 1.17613 -1.28231 0
M  V30 9094 O 869.269 1.20797 -1.61153 0
M  V30 9095 C 866.334 1.80397 -2.96071 0
M  V30 9096 C 865.395 1.29829 -4.09198 0
M  V30 9097 C 864.628 2.4134 -4.76016 0
M  V30 9098 O 864.851 3.60537 -4.42006 0
M  V30 9099 O 863.785 2.09909 -5.64111 0
M  V30 9100 H 867.611 0.0614381 -3.03638 0
M  V30 9101 H 865.196 -0.0355072 -1.49358 0
M  V30 9102 H 867.078 2.48685 -3.40197 0
M  V30 9103 H 865.753 2.36281 -2.21253 0
M  V30 9104 H 864.66 0.582086 -3.69544 0
M  V30 9105 H 865.993 0.785288 -4.85895 0
M  V30 9106 N 867.645 1.57599 0.00500368 0
M  V30 9107 C 868.893 1.89973 0.68953 0
M  V30 9108 C 869.214 0.868531 1.7459 0
M  V30 9109 O 868.484 -0.0947367 1.95671 0
M  V30 9110 H 867.064 0.701153 0.25767 0
M  V30 9111 H 869.726 1.94869 -0.0347392 0
M  V30 9112 H 868.822 2.89584 1.16394 0
M  V30 9113 N 869.123 -0.277682 1.55134 0
M  V30 9114 C 870.371 -1.00791 1.75173 0
M  V30 9115 C 870.692 -1.86987 0.553266 0
M  V30 9116 O 869.962 -1.91079 -0.43195 0
M  V30 9117 H 868.542 -0.375129 0.645978 0
M  V30 9118 H 871.204 -0.303041 1.9253 0
M  V30 9119 H 870.3 -1.64756 2.6507 0
M  V30 9120 N 870.601 -1.47988 -0.541979 0
M  V30 9121 C 872.017 -1.33843 -0.869383 0
M  V30 9122 C 872.217 -0.340374 -1.98604 0
M  V30 9123 O 871.273 0.242696 -2.51331 0
M  V30 9124 C 872.586 -2.73568 -1.24823 0
M  V30 9125 C 874.134 -2.81967 -1.3588 0
M  V30 9126 C 874.609 -4.22368 -1.77114 0
M  V30 9127 N 876.1 -4.24983 -1.84237 0
M  V30 9128 C 876.835 -5.30547 -2.17503 0
M  V30 9129 N 876.331 -6.46401 -2.49275 0
M  V30 9130 N 878.124 -5.17933 -2.18406 0
M  V30 9131 H 870.275 -2.11503 0.195001 0
M  V30 9132 H 872.538 -0.947681 0.0245862 0
M  V30 9133 H 872.244 -3.48107 -0.501435 0
M  V30 9134 H 872.118 -3.06322 -2.20106 0
M  V30 9135 H 874.505 -2.07692 -2.09638 0
M  V30 9136 H 874.586 -2.52848 -0.387478 0
M  V30 9137 H 874.23 -4.97155 -1.0392 0
M  V30 9138 H 874.16 -4.48922 -2.75275 0
M  V30 9139 H 876.651 -3.41411 -1.62009 0
M  V30 9140 H 876.964 -7.22698 -2.73729 0
M  V30 9141 H 875.309 -6.49696 -2.46821 0
M  V30 9142 H 878.5 -4.26445 -1.93034 0
M  V30 9143 H 878.673 -6.00307 -2.44 0
M  V30 9144 N 872.079 0.78992 -1.36375 0
M  V30 9145 C 873.042 1.88414 -1.30509 0
M  V30 9146 C 874.042 1.59384 -0.2129 0
M  V30 9147 O 875.232 1.67805 -0.467651 0
M  V30 9148 C 872.364 3.25188 -1.02302 0
M  V30 9149 H 873.557 1.95031 -2.27822 0
M  V30 9150 H 871.11 0.987664 -1.2114 0
M  V30 9151 H 871.845 3.24254 -0.0544486 0
M  V30 9152 H 871.63 3.47647 -1.81338 0
M  V30 9153 H 873.12 4.05252 -1.00801 0
M  V30 9154 N 873.557 1.20646 1.01402 0
M  V30 9155 C 874.804 1.01819 1.7504 0
M  V30 9156 C 875.132 -0.449386 1.89237 0
M  V30 9157 O 874.387 -1.34985 1.41695 0
M  V30 9158 C 874.686 1.64991 3.17037 0
M  V30 9159 C 874.352 3.14808 3.22811 0
M  V30 9160 C 873.014 3.55692 3.24094 0
M  V30 9161 C 875.366 4.108 3.2077 0
M  V30 9162 C 872.694 4.9109 3.2101 0
M  V30 9163 C 875.046 5.46147 3.19227 0
M  V30 9164 C 873.71 5.86441 3.18815 0
M  V30 9165 H 872.98 0.372582 0.640518 0
M  V30 9166 H 875.627 1.50108 1.18911 0
M  V30 9167 H 873.932 1.08971 3.76341 0
M  V30 9168 H 875.629 1.47937 3.72714 0
M  V30 9169 H 872.219 2.8224 3.2255 0
M  V30 9170 H 876.403 3.80246 3.18946 0
M  V30 9171 H 871.659 5.21569 3.19023 0
M  V30 9172 H 875.833 6.20272 3.166 0
M  V30 9173 H 873.46 6.91328 3.16179 0
M  V30 9174 N 875.035 -1.20752 1.01276 0
M  V30 9175 C 876.282 -1.90021 0.699887 0
M  V30 9176 C 876.61 -1.78604 -0.770113 0
M  V30 9177 O 875.865 -1.16195 -1.57471 0
M  V30 9178 C 876.164 -3.40808 1.07633 0
M  V30 9179 C 875.83 -3.72423 2.54189 0
M  V30 9180 C 874.492 -3.80762 2.94234 0
M  V30 9181 C 876.844 -3.87025 3.49086 0
M  V30 9182 C 874.172 -4.01158 4.28123 0
M  V30 9183 C 876.524 -4.0893 4.82658 0
M  V30 9184 C 875.188 -4.15498 5.22415 0
M  V30 9185 H 874.458 -0.695335 0.256107 0
M  V30 9186 H 877.105 -1.43096 1.27263 0
M  V30 9187 H 875.41 -3.89521 0.421944 0
M  V30 9188 H 877.107 -3.92693 0.811997 0
M  V30 9189 H 873.697 -3.66529 2.22158 0
M  V30 9190 H 877.881 -3.79942 3.19309 0
M  V30 9191 H 873.137 -4.04476 4.58486 0
M  V30 9192 H 877.311 -4.19172 5.56119 0
M  V30 9193 H 874.938 -4.31055 6.26176 0
M  V30 9194 N 876.513 -0.788492 -1.36457 0
M  V30 9195 C 877.461 -0.174192 -2.31947 0
M  V30 9196 C 878.455 0.665974 -1.5576 0
M  V30 9197 O 879.661 0.561161 -1.71029 0
M  V30 9198 H 876.036 -0.0375538 -0.751062 0
M  V30 9199 H 878.007 -0.995011 -2.81322 0
M  V30 9200 C 876.756 0.677276 -3.4104 0
M  V30 9201 H 876.079 0.0401418 -3.9978 0
M  V30 9202 H 877.519 1.07379 -4.10178 0
M  V30 9203 C 875.978 1.83512 -2.82533 0
M  V30 9204 O 876.508 2.93164 -2.74623 0
M  V30 9205 N 874.714 1.64095 -2.39836 0
M  V30 9206 H 874.261 0.749046 -2.46469 0
M  V30 9207 H 874.219 2.41726 -2.01037 0
M  V30 9208 N 877.991 1.48044 -0.54043 0
M  V30 9209 C 878.954 2.28273 0.205966 0
M  V30 9210 C 879.954 1.35983 0.858209 0
M  V30 9211 O 881.144 1.58776 0.716651 0
M  V30 9212 C 878.276 3.15174 1.29917 0
M  V30 9213 H 879.469 2.95727 -0.498555 0
M  V30 9214 H 877.022 1.53457 -0.296745 0
M  V30 9215 H 877.757 2.52374 2.03661 0
M  V30 9216 H 877.542 3.83074 0.836475 0
M  V30 9217 H 879.032 3.75666 1.82387 0
M  V30 9218 N 879.47 0.276058 1.55163 0
M  V30 9219 C 880.716 -0.340959 1.99913 0
M  V30 9220 C 881.049 -1.55434 1.16422 0
M  V30 9221 O 880.324 -1.93081 0.234517 0
M  V30 9222 C 880.607 -0.722211 3.52783 0
M  V30 9223 C 880.46 0.498575 4.47028 0
M  V30 9224 C 881.779 -1.5583 4.11589 0
M  V30 9225 H 878.898 -0.122455 0.726756 0
M  V30 9226 H 881.54 0.38319 1.86096 0
M  V30 9227 H 879.69 -1.33919 3.64689 0
M  V30 9228 H 881.362 1.13713 4.47065 0
M  V30 9229 H 879.605 1.13646 4.18649 0
M  V30 9230 H 880.276 0.188041 5.5168 0
M  V30 9231 H 882.752 -1.03722 4.02965 0
M  V30 9232 H 881.628 -1.79387 5.1876 0
M  V30 9233 H 881.889 -2.53963 3.61877 0
M  V30 9234 N 880.948 -1.576 0.00335426 0
M  V30 9235 C 881.895 -2.08632 -0.986975 0
M  V30 9236 C 882.865 -0.982491 -1.33927 0
M  V30 9237 O 884.05 -1.25513 -1.43705 0
M  V30 9238 C 881.19 -2.59705 -2.27261 0
M  V30 9239 C 880.303 -3.84002 -1.97905 0
M  V30 9240 C 879.438 -4.23563 -3.20574 0
M  V30 9241 C 878.477 -5.40688 -2.8692 0
M  V30 9242 N 877.614 -5.75526 -4.02136 0
M  V30 9243 H 882.454 -2.92977 -0.544855 0
M  V30 9244 H 879.991 -1.44831 -0.257376 0
M  V30 9245 H 881.949 -2.87395 -3.02423 0
M  V30 9246 H 880.579 -1.7823 -2.69136 0
M  V30 9247 H 879.631 -3.63199 -1.13096 0
M  V30 9248 H 880.943 -4.69261 -1.69102 0
M  V30 9249 H 880.097 -4.52554 -4.04079 0
M  V30 9250 H 878.836 -3.37019 -3.52518 0
M  V30 9251 H 877.841 -5.11417 -2.01822 0
M  V30 9252 H 879.066 -6.2891 -2.5622 0
M  V30 9253 H 877.012 -4.9194 -4.33971 0
M  V30 9254 H 876.929 -6.55367 -3.76869 0
M  V30 9255 H 878.197 -6.0911 -4.8642 0
M  V30 9256 N 882.426 0.269451 -1.5528 0
M  V30 9257 C 883.336 1.35511 -1.91505 0
M  V30 9258 C 884.352 1.53854 -0.812712 0
M  V30 9259 O 885.528 1.67912 -1.1121 0
M  V30 9260 C 882.593 2.6937 -2.18267 0
M  V30 9261 C 881.654 2.59743 -3.41807 0
M  V30 9262 C 880.887 3.87219 -3.67283 0
M  V30 9263 O 881.11 4.88066 -2.95208 0
M  V30 9264 O 880.044 3.87209 -4.60818 0
M  V30 9265 H 883.87 1.07785 -2.8393 0
M  V30 9266 H 881.455 0.468282 -1.41871 0
M  V30 9267 H 883.337 3.48513 -2.36889 0
M  V30 9268 H 882.012 2.96874 -1.29024 0
M  V30 9269 H 880.919 1.78964 -3.28516 0
M  V30 9270 H 882.252 2.37188 -4.3128 0
M  V30 9271 N 883.904 1.48273 0.534124 0
M  V30 9272 C 885.152 1.55771 1.28762 0
M  V30 9273 C 885.473 0.231575 1.9362 0
M  V30 9274 O 884.743 -0.746533 1.81118 0
M  V30 9275 H 883.323 0.573851 0.47823 0
M  V30 9276 H 885.985 1.84712 0.621888 0
M  V30 9277 H 885.081 2.33657 2.06908 0
M  V30 9278 N 885.382 -0.782676 1.36792 0
M  V30 9279 C 886.659 -1.52939 1.21939 0
M  V30 9280 C 887.039 -2.10228 -0.191639 0
M  V30 9281 O 886.387 -1.94574 -1.19805 0
M  V30 9282 C 886.597 -2.61898 2.30674 0
M  V30 9283 C 887.945 -3.29598 2.67676 0
M  V30 9284 O 888.969 -2.72186 2.29768 0
M  V30 9285 O 887.828 -4.3337 3.32946 0
M  V30 9286 H 884.922 -0.676856 0.47518 0
M  V30 9287 H 887.468 -0.82058 1.48542 0
M  V30 9288 H 886.24 -2.17607 3.25212 0
M  V30 9289 H 885.863 -3.40391 2.05475 0
M  V30 9290 N 886.86 -1.21182 -1.00761 0
M  V30 9291 C 888.088 -1.05335 -1.78079 0
M  V30 9292 C 888.503 0.396988 -1.84579 0
M  V30 9293 O 887.86 1.27548 -1.30529 0
M  V30 9294 C 887.911 -1.64089 -3.22113 0
M  V30 9295 O 887.632 -3.03448 -3.15992 0
M  V30 9296 C 889.133 -1.53318 -4.15943 0
M  V30 9297 H 886.353 -0.37005 -0.559736 0
M  V30 9298 H 888.897 -1.60463 -1.26775 0
M  V30 9299 H 887.052 -1.13059 -3.70535 0
M  V30 9300 H 887.466 -3.31492 -4.06465 0
M  V30 9301 H 888.94 -1.99174 -5.14814 0
M  V30 9302 H 889.417 -0.487166 -4.3649 0
M  V30 9303 H 890.023 -2.03582 -3.73409 0
M  V30 9304 N 888.338 1.20213 -1.01915 0
M  V30 9305 C 889.584 1.89928 -0.711007 0
M  V30 9306 C 889.917 1.7881 0.75767 0
M  V30 9307 O 889.192 1.17399 1.55073 0
M  V30 9308 C 889.475 3.41225 -1.15053 0
M  V30 9309 C 889.328 3.61264 -2.67971 0
M  V30 9310 C 890.647 4.34108 -0.72377 0
M  V30 9311 H 887.766 0.689702 -0.259768 0
M  V30 9312 H 890.408 1.41557 -1.26734 0
M  V30 9313 H 888.558 3.82552 -0.677199 0
M  V30 9314 H 890.23 3.29173 -3.23176 0
M  V30 9315 H 888.473 3.04647 -3.08824 0
M  V30 9316 H 889.144 4.67331 -2.93779 0
M  V30 9317 H 891.62 4.00442 -1.13073 0
M  V30 9318 H 890.496 5.38581 -1.05931 0
M  V30 9319 H 890.757 4.40512 0.374424 0
M  V30 9320 N 889.816 0.795718 1.36037 0
M  V30 9321 C 891.065 0.367575 1.98322 0
M  V30 9322 C 891.378 -1.06823 1.63854 0
M  V30 9323 O 892.584 -1.59895 2.19421 0
M  V30 9324 C 891.04 0.606272 3.54757 0
M  V30 9325 C 890.648 2.0539 3.98144 0
M  V30 9326 C 892.392 0.242947 4.23804 0
M  V30 9327 C 890.299 2.23893 5.47381 0
M  V30 9328 H 889.229 0.133699 0.742052 0
M  V30 9329 H 891.88 0.978242 1.5525 0
M  V30 9330 H 890.262 -0.0741957 3.9593 0
M  V30 9331 H 891.436 2.77129 3.68152 0
M  V30 9332 H 889.751 2.37607 3.41953 0
M  V30 9333 H 892.348 0.359382 5.33491 0
M  V30 9334 H 892.691 -0.809661 4.08351 0
M  V30 9335 H 893.224 0.876899 3.88015 0
M  V30 9336 H 889.963 3.27559 5.6779 0
M  V30 9337 H 889.483 1.56666 5.78978 0
M  V30 9338 H 891.162 2.04914 6.13693 0
M  V30 9339 N 891.294 -1.47756 0.548274 0
M  V30 9340 C 892.541 -2.02489 0.0208955 0
M  V30 9341 C 892.869 -1.42356 -1.32533 0
M  V30 9342 O 892.124 -0.565448 -1.87353 0
M  V30 9343 C 892.423 -3.5716 -0.131069 0
M  V30 9344 C 892.089 -4.36169 1.14313 0
M  V30 9345 C 890.751 -4.57476 1.4923 0
M  V30 9346 C 893.103 -4.81801 1.9879 0
M  V30 9347 C 890.431 -5.21662 2.68487 0
M  V30 9348 C 892.783 -5.47303 3.17242 0
M  V30 9349 C 891.447 -5.66844 3.52483 0
M  V30 9350 H 890.717 -0.740961 0.00764621 0
M  V30 9351 H 893.364 -1.77531 0.717987 0
M  V30 9352 H 891.669 -3.8106 -0.911063 0
M  V30 9353 H 893.366 -3.9715 -0.55433 0
M  V30 9354 H 889.956 -4.19858 0.861235 0
M  V30 9355 H 894.14 -4.65126 1.73123 0
M  V30 9356 H 889.396 -5.34987 2.95971 0
M  V30 9357 H 893.57 -5.81626 3.82994 0
M  V30 9358 H 891.197 -6.16352 4.44988 0
M  V30 9359 N 892.772 -0.284283 -1.55015 0
M  V30 9360 C 893.735 0.586182 -2.21577 0
M  V30 9361 C 894.735 1.07427 -1.1965 0
M  V30 9362 O 895.925 0.972977 -1.44495 0
M  V30 9363 C 893.057 1.80973 -2.88897 0
M  V30 9364 H 894.25 0.00487253 -2.999 0
M  V30 9365 H 891.803 -0.0349696 -1.56261 0
M  V30 9366 H 892.538 2.43131 -2.14611 0
M  V30 9367 H 892.323 1.46757 -3.636 0
M  V30 9368 H 893.813 2.42853 -3.39724 0
M  V30 9369 N 894.251 1.57596 -0.0117121 0
M  V30 9370 C 895.476 1.95764 0.684938 0
M  V30 9371 C 895.901 0.887285 1.65858 0
M  V30 9372 O 895.259 -0.153508 1.80649 0
M  V30 9373 C 895.307 3.33031 1.38285 0
M  V30 9374 O 894.411 3.28163 2.49765 0
M  V30 9375 H 893.752 0.638767 0.181309 0
M  V30 9376 H 896.282 2.04486 -0.0683883 0
M  V30 9377 H 896.292 3.68866 1.74362 0
M  V30 9378 H 894.967 4.10483 0.669043 0
M  V30 9379 H 893.544 3.04021 2.15929 0
M  V30 9380 N 895.729 -0.261212 1.5542 0
M  V30 9381 C 897.006 -1.01321 1.67312 0
M  V30 9382 C 897.386 -2.0388 0.547356 0
M  V30 9383 O 896.734 -2.24003 -0.451083 0
M  V30 9384 C 896.944 -1.65943 3.07024 0
M  V30 9385 C 898.292 -2.16666 3.65159 0
M  V30 9386 O 899.316 -1.75909 3.09733 0
M  V30 9387 O 898.175 -2.91455 4.62294 0
M  V30 9388 H 895.269 -0.470714 0.679968 0
M  V30 9389 H 897.815 -0.256133 1.67756 0
M  V30 9390 H 896.587 -0.916868 3.80407 0
M  V30 9391 H 896.21 -2.48308 3.1053 0
M  V30 9392 N 897.207 -1.48554 -0.526253 0
M  V30 9393 C 898.484 -1.47252 -1.28748 0
M  V30 9394 C 898.864 -0.186245 -2.10277 0
M  V30 9395 O 898.212 0.831954 -2.12816 0
M  V30 9396 C 898.422 -2.73672 -2.16575 0
M  V30 9397 C 899.77 -3.22151 -2.76593 0
M  V30 9398 O 900.794 -2.74614 -2.2686 0
M  V30 9399 O 899.653 -4.04877 -3.67066 0
M  V30 9400 H 896.747 -0.588242 -0.581292 0
M  V30 9401 H 899.293 -1.60792 -0.5426 0
M  V30 9402 H 898.065 -3.58798 -1.56139 0
M  V30 9403 H 897.688 -2.6287 -2.98304 0
M  V30 9404 N 898.685 0.775411 -1.37205 0
M  V30 9405 C 899.595 1.91967 -1.34855 0
M  V30 9406 C 900.611 1.72214 -0.248656 0
M  V30 9407 O 901.787 1.95512 -0.483421 0
M  V30 9408 C 898.852 3.27038 -1.15096 0
M  V30 9409 C 897.913 3.5947 -2.34691 0
M  V30 9410 C 897.146 4.88097 -2.15865 0
M  V30 9411 O 897.369 5.58871 -1.14102 0
M  V30 9412 O 896.303 5.19507 -3.03967 0
M  V30 9413 H 900.129 1.969 -2.31223 0
M  V30 9414 H 897.714 0.917647 -1.17897 0
M  V30 9415 H 899.596 4.07837 -1.0605 0
M  V30 9416 H 898.271 3.22965 -0.217999 0
M  V30 9417 H 897.178 2.7892 -2.49308 0
M  V30 9418 H 898.511 3.68282 -3.26541 0
M  V30 9419 N 900.163 1.21714 1.00117 0
M  V30 9420 C 901.095 0.937627 2.09144 0
M  V30 9421 C 902.108 -0.0806291 1.626 0
M  V30 9422 O 903.297 0.152348 1.77849 0
M  V30 9423 C 900.397 0.387036 3.36683 0
M  V30 9424 C 899.57 1.46054 4.12295 0
M  V30 9425 C 898.629 0.918505 5.18122 0
M  V30 9426 O 897.655 1.60282 5.46167 0
M  V30 9427 N 898.857 -0.264308 5.79898 0
M  V30 9428 H 901.622 1.87622 2.33705 0
M  V30 9429 H 899.183 1.12291 1.16629 0
M  V30 9430 H 901.175 0.00992825 4.04699 0
M  V30 9431 H 899.745 -0.456467 3.09249 0
M  V30 9432 H 898.965 2.01133 3.39027 0
M  V30 9433 H 900.253 2.18306 4.59587 0
M  V30 9434 H 899.651 -0.837242 5.5947 0
M  V30 9435 H 898.208 -0.582886 6.49188 0
M  V30 9436 N 901.641 -1.19671 1.02551 0
M  V30 9437 C 902.918 -1.85014 0.634771 0
M  V30 9438 C 903.298 -1.91574 -0.886706 0
M  V30 9439 O 902.646 -1.43022 -1.78205 0
M  V30 9440 C 902.856 -3.24167 1.29292 0
M  V30 9441 C 904.204 -4.00363 1.41402 0
M  V30 9442 O 905.228 -3.33553 1.24983 0
M  V30 9443 O 904.087 -5.2003 1.6802 0
M  V30 9444 H 901.181 -0.797147 0.220196 0
M  V30 9445 H 903.727 -1.27188 1.12345 0
M  V30 9446 H 902.499 -3.14208 2.33215 0
M  V30 9447 H 902.122 -3.89634 0.791895 0
M  V30 9448 N 903.119 -0.802921 -1.35613 0
M  V30 9449 C 904.535 -0.486214 -1.52014 0
M  V30 9450 C 904.735 0.993219 -1.75321 0
M  V30 9451 O 903.791 1.77835 -1.79251 0
M  V30 9452 C 905.104 -1.32839 -2.69767 0
M  V30 9453 C 906.652 -1.32346 -2.83643 0
M  V30 9454 C 907.127 -2.14967 -4.04417 0
M  V30 9455 N 908.618 -2.12484 -4.11588 0
M  V30 9456 C 909.353 -2.73173 -5.04147 0
M  V30 9457 N 908.849 -3.42774 -6.02061 0
M  V30 9458 N 910.642 -2.62834 -4.96865 0
M  V30 9459 H 902.793 -1.76109 -1.18741 0
M  V30 9460 H 905.056 -0.74936 -0.580658 0
M  V30 9461 H 904.762 -2.37813 -2.5911 0
M  V30 9462 H 904.636 -0.979058 -3.64272 0
M  V30 9463 H 907.023 -0.281586 -2.93753 0
M  V30 9464 H 907.104 -1.71264 -1.90006 0
M  V30 9465 H 906.748 -3.19193 -3.95068 0
M  V30 9466 H 906.678 -1.73411 -4.97228 0
M  V30 9467 H 909.169 -1.61839 -3.41492 0
M  V30 9468 H 909.482 -3.86378 -6.69277 0
M  V30 9469 H 907.827 -3.46878 -6.02246 0
M  V30 9470 H 911.018 -2.08049 -4.19325 0
M  V30 9471 H 911.191 -3.10421 -5.68808 0
M  V30 9472 N 904.597 1.47463 -0.556102 0
M  V30 9473 C 905.846 2.01678 -0.029492 0
M  V30 9474 C 906.159 1.436 1.32809 0
M  V30 9475 O 907.365 1.89472 1.94455 0
M  V30 9476 C 905.821 3.599 -0.00223937 0
M  V30 9477 C 905.429 4.26969 -1.35651 0
M  V30 9478 C 907.173 4.2187 0.471822 0
M  V30 9479 C 905.08 5.77194 -1.28843 0
M  V30 9480 H 904.01 0.753965 -0.00725504 0
M  V30 9481 H 906.661 1.69467 -0.703789 0
M  V30 9482 H 905.043 3.89068 0.737682 0
M  V30 9483 H 906.217 4.09444 -2.11406 0
M  V30 9484 H 904.532 3.76983 -1.76842 0
M  V30 9485 H 907.129 5.31955 0.541139 0
M  V30 9486 H 907.472 3.88968 1.48356 0
M  V30 9487 H 908.005 3.97228 -0.213207 0
M  V30 9488 H 904.744 6.14713 -2.27613 0
M  V30 9489 H 904.264 5.9706 -0.572668 0
M  V30 9490 H 905.943 6.3938 -0.990031 0
M  V30 9491 N 906.075 0.2925 1.54862 0
M  V30 9492 C 907.005 -0.580677 2.26165 0
M  V30 9493 C 907.986 -1.14485 1.25806 0
M  V30 9494 O 909.171 -1.17577 1.54562 0
M  V30 9495 C 906.301 -1.75668 2.99596 0
M  V30 9496 C 905.255 -1.32325 4.07031 0
M  V30 9497 C 904.581 -2.58374 4.68131 0
M  V30 9498 C 905.881 -0.460703 5.20264 0
M  V30 9499 H 907.575 0.0140075 2.99397 0
M  V30 9500 H 905.121 0.00817706 1.43998 0
M  V30 9501 H 907.074 -2.37356 3.48195 0
M  V30 9502 H 905.798 -2.37747 2.23928 0
M  V30 9503 H 904.457 -0.729477 3.59269 0
M  V30 9504 H 904.105 -3.18749 3.89112 0
M  V30 9505 H 903.805 -2.30078 5.40683 0
M  V30 9506 H 905.329 -3.2088 5.19489 0
M  V30 9507 H 906.743 -0.983037 5.64809 0
M  V30 9508 H 905.14 -0.271881 5.99484 0
M  V30 9509 H 906.21 0.516304 4.82143 0
M  V30 9510 N 907.553 -1.57587 0.0200696 0
M  V30 9511 C 908.799 -1.92539 -0.655764 0
M  V30 9512 C 909.154 -0.896187 -1.70253 0
M  V30 9513 O 908.447 0.0890022 -1.91393 0
M  V30 9514 C 908.641 -3.32002 -1.32323 0
M  V30 9515 C 908.47 -4.48393 -0.342632 0
M  V30 9516 C 907.24 -5.05271 0.0542423 0
M  V30 9517 C 909.438 -5.12747 0.399388 0
M  V30 9518 N 907.42 -6.05181 1.03095 0
M  V30 9519 C 908.791 -6.07674 1.23014 0
M  V30 9520 C 910.846 -4.95761 0.461065 0
M  V30 9521 C 909.549 -6.87442 2.11698 0
M  V30 9522 C 911.575 -5.7613 1.33521 0
M  V30 9523 C 910.937 -6.70666 2.15376 0
M  V30 9524 H 907.036 -0.75256 -0.212549 0
M  V30 9525 H 909.62 -1.94514 0.0851247 0
M  V30 9526 H 907.791 -3.30863 -2.0343 0
M  V30 9527 H 909.523 -3.54327 -1.95537 0
M  V30 9528 H 906.278 -4.72529 -0.318327 0
M  V30 9529 H 906.702 -6.59824 1.51528 0
M  V30 9530 H 911.344 -4.22506 -0.15752 0
M  V30 9531 H 909.062 -7.60008 2.74616 0
M  V30 9532 H 912.648 -5.65023 1.38711 0
M  V30 9533 H 911.528 -7.31772 2.81922 0
M  V30 9534 N 909.032 0.252966 -1.55557 0
M  V30 9535 C 910.278 0.983306 -1.77367 0
M  V30 9536 C 910.611 1.85203 -0.584258 0
M  V30 9537 O 909.886 1.89963 0.417644 0
M  V30 9538 C 910.169 1.84896 -3.09007 0
M  V30 9539 C 910.022 1.00883 -4.38341 0
M  V30 9540 C 911.341 2.83254 -3.36831 0
M  V30 9541 H 908.46 0.356056 -0.645286 0
M  V30 9542 H 911.102 0.254232 -1.88291 0
M  V30 9543 H 909.252 2.47058 -2.99825 0
M  V30 9544 H 910.924 0.40638 -4.59507 0
M  V30 9545 H 909.167 0.31297 -4.3267 0
M  V30 9546 H 909.838 1.64818 -5.2682 0
M  V30 9547 H 912.314 2.31228 -3.45937 0
M  V30 9548 H 911.19 3.40949 -4.30169 0
M  V30 9549 H 911.451 3.59407 -2.57447 0
M  V30 9550 N 910.51 1.48831 0.518367 0
M  V30 9551 C 911.442 1.60317 1.63802 0
M  V30 9552 C 912.455 0.486771 1.55352 0
M  V30 9553 O 913.644 0.758111 1.61601 0
M  V30 9554 C 910.744 1.52771 3.02513 0
M  V30 9555 C 909.917 2.79649 3.36326 0
M  V30 9556 C 908.976 2.65396 4.54369 0
M  V30 9557 O 908.002 3.39304 4.57013 0
M  V30 9558 N 909.204 1.75784 5.53245 0
M  V30 9559 H 911.969 2.56878 1.54383 0
M  V30 9560 H 909.53 1.45701 0.705889 0
M  V30 9561 H 911.522 1.40914 3.79375 0
M  V30 9562 H 910.092 0.641381 3.05949 0
M  V30 9563 H 909.312 3.05985 2.48529 0
M  V30 9564 H 910.6 3.63799 3.55707 0
M  V30 9565 H 909.998 1.14961 5.53896 0
M  V30 9566 H 908.555 1.69859 6.29278 0
M  V30 9567 N 911.988 -0.768124 1.37614 0
M  V30 9568 C 912.951 -1.86314 1.3349 0
M  V30 9569 C 913.951 -1.59025 0.23823 0
M  V30 9570 O 915.141 -1.6704 0.494288 0
M  V30 9571 C 912.273 -3.23519 1.07462 0
M  V30 9572 H 913.466 -1.91382 2.30896 0
M  V30 9573 H 911.019 -0.968267 1.22696 0
M  V30 9574 H 911.754 -3.24127 0.106028 0
M  V30 9575 H 911.539 -3.44719 1.86846 0
M  V30 9576 H 913.029 -4.03597 1.07236 0
M  V30 9577 N 913.466 -1.22244 -0.994698 0
M  V30 9578 C 914.399 -0.934168 -2.08203 0
M  V30 9579 C 915.377 0.122231 -1.6214 0
M  V30 9580 O 916.561 -0.00896598 -1.88498 0
M  V30 9581 C 913.688 -0.404646 -3.36274 0
M  V30 9582 C 912.734 -1.44544 -4.01259 0
M  V30 9583 S 913.567 -3.01816 -4.42343 0
M  V30 9584 C 914.723 -2.50497 -5.73587 0
M  V30 9585 H 914.956 -1.85493 -2.32335 0
M  V30 9586 H 912.489 -1.0533 -1.12893 0
M  V30 9587 H 914.447 -0.105719 -4.10364 0
M  V30 9588 H 913.108 0.494971 -3.10176 0
M  V30 9589 H 912.301 -1.02478 -4.93472 0
M  V30 9590 H 911.903 -1.69298 -3.33488 0
M  V30 9591 H 914.195 -1.91626 -6.49835 0
M  V30 9592 H 915.138 -3.41193 -6.20478 0
M  V30 9593 H 915.546 -1.91845 -5.30901 0
M  V30 9594 N 914.944 1.19125 -1.03184 0
M  V30 9595 C 916.174 1.92558 -0.748663 0
M  V30 9596 C 916.582 1.759 0.696837 0
M  V30 9597 O 915.925 1.08019 1.48585 0
M  V30 9598 C 915.987 3.4461 -1.02391 0
M  V30 9599 C 915.651 3.85041 -2.46155 0
M  V30 9600 C 916.648 3.89554 -3.44302 0
M  V30 9601 C 914.333 4.16594 -2.80633 0
M  V30 9602 C 916.327 4.25055 -4.74981 0
M  V30 9603 C 914.014 4.51767 -4.11521 0
M  V30 9604 C 915.012 4.55972 -5.08506 0
M  V30 9605 O 914.7 4.9033 -6.37049 0
M  V30 9606 H 914.432 0.618397 -0.273059 0
M  V30 9607 H 916.986 1.52122 -1.38015 0
M  V30 9608 H 915.216 3.85244 -0.335284 0
M  V30 9609 H 916.905 3.99283 -0.729927 0
M  V30 9610 H 917.671 3.65324 -3.19003 0
M  V30 9611 H 913.55 4.12503 -2.05821 0
M  V30 9612 H 917.094 4.28252 -5.50678 0
M  V30 9613 H 912.991 4.75455 -4.36592 0
M  V30 9614 H 913.759 5.08266 -6.41566 0
M  V30 9615 N 916.422 0.810101 1.35185 0
M  V30 9616 C 917.838 0.494269 1.51754 0
M  V30 9617 C 918.038 -0.983907 1.75845 0
M  V30 9618 O 917.094 -1.76882 1.80191 0
M  V30 9619 C 918.407 1.34268 2.69059 0
M  V30 9620 C 919.955 1.33848 2.82938 0
M  V30 9621 C 920.43 2.17109 4.03271 0
M  V30 9622 N 921.921 2.14664 4.10456 0
M  V30 9623 C 922.656 2.75843 5.02691 0
M  V30 9624 N 922.152 3.45962 6.00235 0
M  V30 9625 N 923.945 2.65465 4.95464 0
M  V30 9626 H 916.096 1.76736 1.17805 0
M  V30 9627 H 918.359 0.752429 0.576676 0
M  V30 9628 H 918.065 2.39183 2.57845 0
M  V30 9629 H 917.939 0.998362 3.63748 0
M  V30 9630 H 920.326 0.29716 2.936 0
M  V30 9631 H 920.407 1.72269 1.89095 0
M  V30 9632 H 920.051 3.21283 3.93369 0
M  V30 9633 H 919.981 1.76046 4.96302 0
M  V30 9634 H 922.472 1.63648 3.40628 0
M  V30 9635 H 922.785 3.89922 6.67219 0
M  V30 9636 H 921.13 3.50067 6.00398 0
M  V30 9637 H 924.321 2.1027 4.18215 0
M  V30 9638 H 924.494 3.13433 5.67154 0
M  V30 9639 N 917.9 -1.47166 0.563914 0
M  V30 9640 C 918.863 -2.28571 -0.169624 0
M  V30 9641 C 919.863 -1.37331 -0.836467 0
M  V30 9642 O 921.053 -1.59896 -0.6913 0
M  V30 9643 C 918.185 -3.17201 -1.24886 0
M  V30 9644 H 919.378 -2.94896 0.545539 0
M  V30 9645 H 916.931 -1.52966 0.321121 0
M  V30 9646 H 917.666 -2.55582 -1.99621 0
M  V30 9647 H 917.451 -3.84356 -0.775426 0
M  V30 9648 H 918.941 -3.7852 -1.76388 0
M  V30 9649 N 919.378 -0.300708 -1.54705 0
M  V30 9650 C 920.606 0.31127 -2.04545 0
M  V30 9651 C 921.021 1.47542 -1.178 0
M  V30 9652 O 920.378 1.81361 -0.203571 0
M  V30 9653 C 920.429 0.767783 -3.53253 0
M  V30 9654 O 920.15 -0.350027 -4.36699 0
M  V30 9655 C 921.651 1.44494 -4.1909 0
M  V30 9656 H 918.871 0.067668 -0.667579 0
M  V30 9657 H 921.415 -0.440254 -1.99705 0
M  V30 9658 H 919.57 1.46933 -3.58454 0
M  V30 9659 H 919.984 0.00534038 -5.245 0
M  V30 9660 H 921.458 1.71553 -5.24665 0
M  V30 9661 H 921.935 2.3849 -3.68808 0
M  V30 9662 H 922.541 0.786581 -4.17963 0
M  V30 9663 N 920.856 1.57574 -0.0284266 0
M  V30 9664 C 922.104 1.91393 0.649079 0
M  V30 9665 C 922.425 0.905368 1.72708 0
M  V30 9666 O 921.695 -0.0532107 1.95828 0
M  V30 9667 H 920.275 0.70646 0.24274 0
M  V30 9668 H 922.937 1.94752 -0.076066 0
M  V30 9669 H 922.033 2.91988 1.10226 0
M  V30 9670 N 922.334 -0.244713 1.55689 0
M  V30 9671 C 923.266 -1.32595 1.86952 0
M  V30 9672 C 924.279 -1.44185 0.755948 0
M  V30 9673 O 925.468 -1.45496 1.03408 0
M  V30 9674 C 922.568 -2.70429 2.04258 0
M  V30 9675 C 921.741 -2.8108 3.35131 0
M  V30 9676 C 920.8 -3.99773 3.42152 0
M  V30 9677 O 919.826 -3.89197 4.15348 0
M  V30 9678 N 921.028 -5.13041 2.71604 0
M  V30 9679 H 923.793 -1.06111 2.80287 0
M  V30 9680 H 921.354 -0.434811 1.55952 0
M  V30 9681 H 923.346 -3.48173 2.06295 0
M  V30 9682 H 921.916 -2.89612 1.17658 0
M  V30 9683 H 921.136 -1.89994 3.45392 0
M  V30 9684 H 922.424 -2.85147 4.21389 0
M  V30 9685 H 921.822 -5.24525 2.11872 0
M  V30 9686 H 920.379 -5.88912 2.79331 0
M  V30 9687 N 923.813 -1.49104 -0.510467 0
M  V30 9688 C 925.038 -1.62068 -1.29417 0
M  V30 9689 C 925.463 -0.288432 -1.85875 0
M  V30 9690 O 924.821 0.742667 -1.65391 0
M  V30 9691 C 924.869 -2.68506 -2.40701 0
M  V30 9692 O 923.973 -2.27021 -3.4429 0
M  V30 9693 H 923.314 -0.542778 -0.382476 0
M  V30 9694 H 925.844 -1.95228 -0.612154 0
M  V30 9695 H 925.854 -2.90383 -2.86604 0
M  V30 9696 H 924.529 -3.65216 -1.98973 0
M  V30 9697 H 923.106 -2.15436 -3.04371 0
M  V30 9698 N 925.291 0.760815 -1.38019 0
M  V30 9699 C 926.241 1.86487 -1.31174 0
M  V30 9700 C 927.225 1.59684 -0.197414 0
M  V30 9701 O 928.417 1.71628 -0.432764 0
M  V30 9702 C 925.546 3.24103 -1.13192 0
M  V30 9703 C 924.632 3.5682 -2.29216 0
M  V30 9704 N 925.023 3.60644 -3.5464 0
M  V30 9705 C 923.321 3.87047 -2.2161 0
M  V30 9706 C 924.022 3.90423 -4.31214 0
M  V30 9707 N 922.998 4.06883 -3.60482 0
M  V30 9708 H 926.8 1.87711 -2.26146 0
M  V30 9709 H 924.314 0.957811 -1.31148 0
M  V30 9710 H 926.311 4.03101 -1.06372 0
M  V30 9711 H 924.971 3.24135 -0.191473 0
M  V30 9712 H 925.982 3.42581 -3.88405 0
M  V30 9713 H 922.659 3.94837 -1.35684 0
M  V30 9714 H 924.049 4.00065 -5.39812 0
M  V30 9715 N 926.769 1.22769 0.988202 0
M  V30 9716 C 927.716 1.00195 2.07917 0
M  V30 9717 C 928.686 -0.0779391 1.65917 0
M  V30 9718 O 929.871 0.0726005 1.90662 0
M  V30 9719 C 927.011 0.590853 3.40004 0
M  V30 9720 C 926.124 1.74202 3.9532 0
M  V30 9721 C 925.259 1.27846 5.15586 0
M  V30 9722 C 924.298 2.40087 5.63049 0
M  V30 9723 N 923.435 1.94744 6.74551 0
M  V30 9724 H 928.275 1.93581 2.26562 0
M  V30 9725 H 925.812 0.96448 1.11068 0
M  V30 9726 H 927.77 0.333653 4.15864 0
M  V30 9727 H 926.4 -0.306007 3.21346 0
M  V30 9728 H 925.452 2.11342 3.16289 0
M  V30 9729 H 926.764 2.58612 4.26522 0
M  V30 9730 H 925.918 0.978919 5.9875 0
M  V30 9731 H 924.657 0.404617 4.86019 0
M  V30 9732 H 923.662 2.70824 4.78471 0
M  V30 9733 H 924.887 3.27995 5.9464 0
M  V30 9734 H 922.833 1.09729 6.46758 0
M  V30 9735 H 922.75 2.72718 7.05096 0
M  V30 9736 H 924.018 1.67873 7.61209 0
M  V30 9737 N 928.247 -1.18576 1.03814 0
M  V30 9738 C 929.658 -1.70159 0.768299 0
M  V30 9739 C 930.009 -1.8286 -0.711106 0
M  V30 9740 O 929.134 -1.5063 -1.55369 0
M  V30 9741 C 929.729 -3.09062 1.38804 0
M  V30 9742 C 928.288 -3.57866 1.16656 0
M  V30 9743 C 927.435 -2.34484 1.48029 0
M  V30 9744 H 930.386 -1.03287 1.20488 0
M  V30 9745 H 930.407 -3.72211 0.7899 0
M  V30 9746 H 929.919 -2.99785 2.46476 0
M  V30 9747 H 928.02 -3.72442 0.108471 0
M  V30 9748 H 928.133 -4.41445 1.8618 0
M  V30 9749 H 926.497 -2.38273 0.899902 0
M  V30 9750 H 927.28 -2.27829 2.56805 0
M  V30 9751 N 929.725 -0.817259 -1.34754 0
M  V30 9752 C 930.971 -0.403244 -1.98751 0
M  V30 9753 C 931.304 1.02963 -1.64658 0
M  V30 9754 O 930.579 1.71617 -0.915314 0
M  V30 9755 C 930.862 -0.599188 -3.5508 0
M  V30 9756 C 930.715 -2.07777 -3.98934 0
M  V30 9757 C 932.034 -0.0315656 -4.40089 0
M  V30 9758 H 929.153 -0.147988 -0.721989 0
M  V30 9759 H 931.795 -1.02877 -1.59738 0
M  V30 9760 H 929.945 -0.0667116 -3.88443 0
M  V30 9761 H 931.617 -2.67345 -3.75931 0
M  V30 9762 H 929.86 -2.57031 -3.49453 0
M  V30 9763 H 930.531 -2.16571 -5.07741 0
M  V30 9764 H 933.007 -0.48644 -4.13247 0
M  V30 9765 H 931.883 -0.198507 -5.48541 0
M  V30 9766 H 932.144 1.06302 -4.2913 0
M  V30 9767 N 931.203 1.46865 -0.571711 0
M  V30 9768 C 932.614 1.86158 -0.142181 0
M  V30 9769 C 932.965 1.47663 1.2919 0
M  V30 9770 O 932.09 0.886393 1.97413 0
M  V30 9771 C 932.685 3.37867 -0.251256 0
M  V30 9772 C 931.244 3.76198 0.123329 0
M  V30 9773 C 930.391 2.70902 -0.592232 0
M  V30 9774 H 933.342 1.38176 -0.780587 0
M  V30 9775 H 933.363 3.76842 0.526331 0
M  V30 9776 H 932.875 3.65853 -1.2951 0
M  V30 9777 H 930.976 3.53829 1.16773 0
M  V30 9778 H 931.089 4.78471 -0.24533 0
M  V30 9779 H 929.453 2.54678 -0.0336927 0
M  V30 9780 H 930.236 3.01729 -1.63751 0
M  V30 9781 N 932.681 0.308908 1.54543 0
M  V30 9782 C 934.092 -0.182144 1.85809 0
M  V30 9783 C 934.443 -1.52796 1.23076 0
M  V30 9784 O 933.568 -2.09775 0.531358 0
M  V30 9785 C 934.163 -0.337275 3.37117 0
M  V30 9786 C 932.722 -0.772545 3.68387 0
M  V30 9787 C 931.869 0.114451 2.77064 0
M  V30 9788 H 934.82 0.529671 1.496 0
M  V30 9789 H 934.841 -1.17058 3.62046 0
M  V30 9790 H 934.353 0.642382 3.82747 0
M  V30 9791 H 932.454 -1.76247 3.2828 0
M  V30 9792 H 932.567 -0.586453 4.75497 0
M  V30 9793 H 930.931 -0.407581 2.51418 0
M  V30 9794 H 931.714 1.09061 3.25516 0
M  V30 9795 N 934.159 -1.57557 0.0367827 0
M  V30 9796 C 935.387 -1.96419 -0.650168 0
M  V30 9797 C 935.802 -0.913656 -1.6522 0
M  V30 9798 O 935.159 0.103718 -1.82205 0
M  V30 9799 C 935.21 -3.35355 -1.3498 0
M  V30 9800 O 934.931 -4.36379 -0.387905 0
M  V30 9801 C 936.432 -3.88892 -2.12786 0
M  V30 9802 H 933.652 -0.646751 -0.178756 0
M  V30 9803 H 936.196 -2.04261 0.0988197 0
M  V30 9804 H 934.351 -3.28708 -2.05012 0
M  V30 9805 H 934.765 -5.16969 -0.885596 0
M  V30 9806 H 936.239 -4.88428 -2.5718 0
M  V30 9807 H 936.716 -3.23547 -2.97008 0
M  V30 9808 H 937.322 -3.98831 -1.47694 0
M  V30 9809 N 935.637 0.236453 -1.55816 0
M  V30 9810 C 936.569 1.31602 -1.87653 0
M  V30 9811 C 937.582 1.43782 -0.763584 0
M  V30 9812 O 938.771 1.44945 -1.04178 0
M  V30 9813 C 935.871 2.69342 -2.05689 0
M  V30 9814 C 935.044 2.79298 -3.36617 0
M  V30 9815 C 934.103 3.97952 -3.44268 0
M  V30 9816 O 933.129 3.86989 -4.17406 0
M  V30 9817 N 934.331 5.11594 -2.74321 0
M  V30 9818 H 937.096 1.04623 -2.80845 0
M  V30 9819 H 934.657 0.426534 -1.5618 0
M  V30 9820 H 936.649 3.47074 -2.08138 0
M  V30 9821 H 935.219 2.88984 -1.19192 0
M  V30 9822 H 934.439 1.8816 -3.46395 0
M  V30 9823 H 935.727 2.82908 -4.22895 0
M  V30 9824 H 935.125 5.23394 -2.14651 0
M  V30 9825 H 933.682 5.87422 -2.8245 0
M  V30 9826 N 937.115 1.49373 0.502552 0
M  V30 9827 C 938.361 1.59016 1.25864 0
M  V30 9828 C 938.694 0.27532 1.92238 0
M  V30 9829 O 937.969 -0.720988 1.80643 0
M  V30 9830 C 938.252 2.74828 2.32683 0
M  V30 9831 C 938.105 4.16102 1.7082 0
M  V30 9832 C 939.424 2.86288 3.34256 0
M  V30 9833 H 936.543 0.578798 0.456248 0
M  V30 9834 H 939.185 1.81651 0.557032 0
M  V30 9835 H 937.335 2.5566 2.92524 0
M  V30 9836 H 939.007 4.46782 1.14818 0
M  V30 9837 H 937.25 4.21822 1.01238 0
M  V30 9838 H 937.921 4.93006 2.48292 0
M  V30 9839 H 940.397 3.03733 2.84404 0
M  V30 9840 H 939.273 3.69001 4.06362 0
M  V30 9841 H 939.534 1.95576 3.96488 0
M  V30 9842 N 938.594 -0.753485 1.38421 0
M  V30 9843 C 939.526 -1.87692 1.31547 0
M  V30 9844 C 940.539 -1.612 0.227671 0
M  V30 9845 O 941.728 -1.71778 0.485238 0
M  V30 9846 C 938.828 -3.23329 1.01545 0
M  V30 9847 C 938.001 -3.77324 2.21236 0
M  V30 9848 C 937.06 -4.91478 1.87977 0
M  V30 9849 O 936.086 -5.06106 2.60472 0
M  V30 9850 N 937.288 -5.74466 0.834796 0
M  V30 9851 H 940.053 -1.94099 2.28354 0
M  V30 9852 H 937.614 -0.933421 1.32283 0
M  V30 9853 H 939.606 -3.9724 0.773477 0
M  V30 9854 H 938.176 -3.12307 0.135334 0
M  V30 9855 H 937.396 -2.94978 2.61498 0
M  V30 9856 H 938.684 -4.10131 3.01115 0
M  V30 9857 H 938.082 -5.65217 0.233606 0
M  V30 9858 H 936.639 -6.48524 0.652703 0
M  V30 9859 N 940.072 -1.23292 -0.981677 0
M  V30 9860 C 941.019 -1.01296 -2.07383 0
M  V30 9861 C 941.989 0.069139 -1.65956 0
M  V30 9862 O 943.174 -0.0827108 -1.90621 0
M  V30 9863 C 940.314 -0.608876 -3.39686 0
M  V30 9864 C 939.427 -1.76296 -3.9439 0
M  V30 9865 C 938.562 -1.30578 -5.14901 0
M  V30 9866 C 937.601 -2.4307 -5.61768 0
M  V30 9867 N 936.738 -1.98319 -6.73509 0
M  V30 9868 H 941.578 -1.9478 -2.25532 0
M  V30 9869 H 939.115 -0.970356 -1.10555 0
M  V30 9870 H 941.073 -0.355702 -4.15681 0
M  V30 9871 H 939.703 0.288961 -3.21504 0
M  V30 9872 H 938.755 -2.13017 -3.15163 0
M  V30 9873 H 940.067 -2.60871 -4.25145 0
M  V30 9874 H 939.221 -1.01066 -5.98223 0
M  V30 9875 H 937.96 -0.430386 -4.85797 0
M  V30 9876 H 936.965 -2.73358 -4.77028 0
M  V30 9877 H 938.19 -3.31144 -5.92892 0
M  V30 9878 H 936.136 -1.13157 -6.46167 0
M  V30 9879 H 936.053 -2.76454 -7.0364 0
M  V30 9880 H 937.321 -1.71907 -7.60308 0
M  V30 9881 N 941.55 1.18024 -1.04442 0
M  V30 9882 C 942.48 2.23988 -0.659683 0
M  V30 9883 C 943.461 1.6669 0.338904 0
M  V30 9884 O 944.646 1.92971 0.21817 0
M  V30 9885 C 941.776 3.4729 -0.0257672 0
M  V30 9886 C 940.73 4.17362 -0.948299 0
M  V30 9887 C 940.056 5.34401 -0.17866 0
M  V30 9888 C 941.356 4.70435 -2.26909 0
M  V30 9889 H 943.05 2.56425 -1.54553 0
M  V30 9890 H 940.596 1.23256 -0.744575 0
M  V30 9891 H 942.549 4.20627 0.255131 0
M  V30 9892 H 941.273 3.14098 0.894981 0
M  V30 9893 H 939.932 3.45928 -1.21364 0
M  V30 9894 H 939.58 4.97458 0.744614 0
M  V30 9895 H 939.28 5.8222 -0.793294 0
M  V30 9896 H 940.804 6.10526 0.0951315 0
M  V30 9897 H 942.218 5.35447 -2.04864 0
M  V30 9898 H 940.615 5.28803 -2.83703 0
M  V30 9899 H 941.685 3.87653 -2.91296 0
M  V30 9900 N 943.028 0.824394 1.34319 0
M  V30 9901 C 943.976 0.235628 2.31403 0
M  V30 9902 C 944.97 -0.624443 1.57471 0
M  V30 9903 O 946.176 -0.515618 1.72457 0
M  V30 9904 H 942.551 0.0574537 0.749802 0
M  V30 9905 H 944.522 1.06925 2.78585 0
M  V30 9906 C 943.271 -0.586617 3.42716 0
M  V30 9907 H 942.594 0.0658669 3.99746 0
M  V30 9908 H 944.034 -0.964661 4.1288 0
M  V30 9909 C 942.493 -1.75957 2.87299 0
M  V30 9910 O 943.023 -2.8578 2.82299 0
M  V30 9911 N 941.229 -1.57678 2.44102 0
M  V30 9912 H 940.776 -0.683436 2.48369 0
M  V30 9913 H 940.734 -2.36311 2.07375 0
M  V30 9914 N 944.506 -1.46559 0.579492 0
M  V30 9915 C 945.469 -2.28739 -0.145371 0
M  V30 9916 C 946.469 -1.38211 -0.821854 0
M  V30 9917 O 947.659 -1.6062 -0.674302 0
M  V30 9918 C 944.791 -3.18507 -1.21515 0
M  V30 9919 H 945.984 -2.94301 0.576786 0
M  V30 9920 H 943.537 -1.52616 0.337327 0
M  V30 9921 H 944.272 -2.57685 -1.96899 0
M  V30 9922 H 944.057 -3.85157 -0.734616 0
M  V30 9923 H 945.547 -3.80369 -1.72363 0
M  V30 9924 N 945.984 -0.3171 -1.54377 0
M  V30 9925 C 946.931 0.551782 -2.24107 0
M  V30 9926 C 947.901 1.11681 -1.22949 0
M  V30 9927 O 949.086 1.15836 -1.51614 0
M  V30 9928 C 946.226 1.70997 -2.99756 0
M  V30 9929 C 945.339 1.17479 -4.15719 0
M  V30 9930 C 944.474 2.29815 -4.78914 0
M  V30 9931 C 943.513 1.73513 -5.86992 0
M  V30 9932 N 942.65 2.79485 -6.44075 0
M  V30 9933 H 947.49 -0.049431 -2.97959 0
M  V30 9934 H 945.027 -0.0361658 -1.47056 0
M  V30 9935 H 946.985 2.39141 -3.41859 0
M  V30 9936 H 945.615 2.28257 -2.28251 0
M  V30 9937 H 944.667 0.385109 -3.78446 0
M  V30 9938 H 945.979 0.72276 -4.93536 0
M  V30 9939 H 945.133 3.05875 -5.23952 0
M  V30 9940 H 943.872 2.78352 -4.00464 0
M  V30 9941 H 942.877 0.959475 -5.41363 0
M  V30 9942 H 944.102 1.2586 -6.67335 0
M  V30 9943 H 942.048 3.27325 -5.68502 0
M  V30 9944 H 941.965 2.38825 -7.17286 0
M  V30 9945 H 943.233 3.55394 -6.93769 0
M  V30 9946 N 947.462 1.57535 -0.0451378 0
M  V30 9947 C 948.71 1.92071 0.628743 0
M  V30 9948 C 949.031 0.923635 1.71738 0
M  V30 9949 O 948.301 -0.0324376 1.95873 0
M  V30 9950 H 946.881 0.708995 0.235233 0
M  V30 9951 H 949.543 1.9466 -0.0967177 0
M  V30 9952 H 948.639 2.9314 1.07123 0
M  V30 9953 N 948.94 -0.228186 1.55939 0
M  V30 9954 C 950.188 -0.951668 1.78291 0
M  V30 9955 C 950.509 -1.85132 0.612474 0
M  V30 9956 O 949.779 -1.92356 -0.370942 0
M  V30 9957 H 948.359 -0.354388 0.657585 0
M  V30 9958 H 951.021 -0.241635 1.93396 0
M  V30 9959 H 950.117 -1.56239 2.70177 0
M  V30 9960 N 950.418 -1.49637 -0.494624 0
M  V30 9961 C 951.366 -1.6727 -1.61627 0
M  V30 9962 C 952.36 -0.538587 -1.6061 0
M  V30 9963 O 953.566 -0.718411 -1.65042 0
M  V30 9964 H 949.941 -0.527557 -0.535899 0
M  V30 9965 H 951.912 -2.61405 -1.43909 0
M  V30 9966 C 950.661 -1.7624 -2.99725 0
M  V30 9967 H 949.984 -2.62886 -3.01216 0
M  V30 9968 H 951.424 -1.92611 -3.77726 0
M  V30 9969 C 949.883 -0.508632 -3.33038 0
M  V30 9970 O 950.413 0.362828 -4.00058 0
M  V30 9971 N 948.619 -0.369667 -2.88239 0
M  V30 9972 H 948.166 -1.07984 -2.33875 0
M  V30 9973 H 948.124 0.468112 -3.10896 0
M  V30 9974 N 951.896 0.746133 -1.38819 0
M  V30 9975 C 953.142 1.50768 -1.35635 0
M  V30 9976 C 953.475 1.94132 0.0512435 0
M  V30 9977 O 952.75 1.65979 1.01396 0
M  V30 9978 C 953.033 2.7551 -2.31875 0
M  V30 9979 C 952.886 2.38236 -3.81528 0
M  V30 9980 C 954.205 3.77566 -2.26124 0
M  V30 9981 H 951.324 0.546922 -0.494009 0
M  V30 9982 H 953.966 0.854017 -1.69725 0
M  V30 9983 H 952.116 3.31285 -2.02935 0
M  V30 9984 H 953.788 1.88178 -4.21173 0
M  V30 9985 H 952.031 1.70601 -3.98846 0
M  V30 9986 H 952.702 3.27517 -4.44339 0
M  V30 9987 H 955.178 3.31349 -2.51689 0
M  V30 9988 H 954.054 4.62531 -2.95561 0
M  V30 9989 H 954.315 4.23689 -1.26254 0
M  V30 9990 N 953.375 1.23811 0.975125 0
M  V30 9991 C 954.786 1.0675 1.53171 0
M  V30 9992 C 955.137 -0.363475 1.92804 0
M  V30 9993 O 954.262 -1.25089 1.76583 0
M  V30 9994 C 954.857 1.93161 2.78342 0
M  V30 9995 C 953.416 1.80346 3.30382 0
M  V30 9996 C 952.563 1.88544 2.03338 0
M  V30 9997 H 955.514 1.37396 0.79423 0
M  V30 9998 H 955.535 1.45951 3.51395 0
M  V30 9999 H 955.047 2.97302 2.49465 0
M  V30 10000 H 953.148 0.790077 3.64127 0
M  V30 10001 H 953.261 2.64026 3.99784 0
M  V30 10002 H 951.625 1.32186 2.17713 0
M  V30 10003 H 952.408 2.94252 1.76836 0
M  V30 10004 N 954.853 -1.17469 1.05066 0
M  V30 10005 C 955.785 -2.20974 0.608526 0
M  V30 10006 C 956.798 -1.59481 -0.327066 0
M  V30 10007 O 957.987 -1.78096 -0.12 0
M  V30 10008 C 955.087 -3.38652 -0.12969 0
M  V30 10009 C 954.26 -4.29716 0.816285 0
M  V30 10010 C 953.319 -5.26064 0.119556 0
M  V30 10011 O 952.345 -5.64194 0.753241 0
M  V30 10012 N 953.547 -5.69126 -1.14347 0
M  V30 10013 H 956.312 -2.59529 1.49882 0
M  V30 10014 H 953.873 -1.32355 0.932406 0
M  V30 10015 H 955.865 -4.00139 -0.605886 0
M  V30 10016 H 954.435 -2.98705 -0.921638 0
M  V30 10017 H 953.655 -3.6568 1.47213 0
M  V30 10018 H 954.943 -4.87449 1.45845 0
M  V30 10019 H 954.341 -5.4022 -1.67866 0
M  V30 10020 H 952.898 -6.32764 -1.56376 0
M  V30 10021 N 956.331 -0.831506 -1.3388 0
M  V30 10022 C 957.261 -0.274378 -2.31882 0
M  V30 10023 C 958.242 0.613872 -1.58637 0
M  V30 10024 O 959.427 0.538961 -1.86571 0
M  V30 10025 C 956.557 0.557498 -3.42796 0
M  V30 10026 C 955.511 -0.234337 -4.27358 0
M  V30 10027 C 954.837 0.720825 -5.29819 0
M  V30 10028 C 956.137 -1.44732 -5.01847 0
M  V30 10029 H 957.831 -1.09322 -2.78728 0
M  V30 10030 H 955.377 -0.527136 -1.34005 0
M  V30 10031 H 957.33 0.957501 -4.10378 0
M  V30 10032 H 956.054 1.40947 -2.94621 0
M  V30 10033 H 954.713 -0.61581 -3.61391 0
M  V30 10034 H 954.361 1.569 -4.77903 0
M  V30 10035 H 954.061 0.195171 -5.87276 0
M  V30 10036 H 955.585 1.1185 -6.00268 0
M  V30 10037 H 956.999 -1.12087 -5.62236 0
M  V30 10038 H 955.396 -1.90923 -5.68919 0
M  V30 10039 H 956.466 -2.22099 -4.31045 0
M  V30 10040 N 957.809 1.4625 -0.587256 0
M  V30 10041 C 959.086 1.95599 -0.00750181 0
M  V30 10042 C 959.466 1.52989 1.45457 0
M  V30 10043 O 958.814 0.782731 2.14676 0
M  V30 10044 C 959.024 3.48513 -0.184309 0
M  V30 10045 C 960.372 4.24565 -0.0544972 0
M  V30 10046 O 961.396 3.5602 -0.113378 0
M  V30 10047 O 960.255 5.46445 0.0774075 0
M  V30 10048 H 957.349 0.825649 0.0472495 0
M  V30 10049 H 959.895 1.56512 -0.655893 0
M  V30 10050 H 958.667 3.72428 -1.20053 0
M  V30 10051 H 958.29 3.9444 0.500301 0
M  V30 10052 N 959.287 0.325282 1.54207 0
M  V30 10053 C 960.25 -0.527228 2.23054 0
M  V30 10054 C 961.25 -1.04217 1.22456 0
M  V30 10055 O 962.44 -0.934325 1.47024 0
M  V30 10056 C 959.572 -1.7325 2.93594 0
M  V30 10057 H 960.765 0.0746423 2.99807 0
M  V30 10058 H 958.318 0.0763872 1.56113 0
M  V30 10059 H 959.053 -2.37356 2.20981 0
M  V30 10060 H 958.838 -1.37065 3.67363 0
M  V30 10061 H 960.328 -2.3376 3.46043 0
M  V30 10062 N 960.765 -1.57509 0.0534917 0
M  V30 10063 C 962.176 -1.80374 -0.481867 0
M  V30 10064 C 962.527 -0.965917 -1.70776 0
M  V30 10065 O 961.652 -0.183167 -2.15623 0
M  V30 10066 C 962.247 -3.27146 -0.880978 0
M  V30 10067 C 960.806 -3.50921 -1.3613 0
M  V30 10068 C 959.953 -2.75237 -0.337611 0
M  V30 10069 H 962.904 -1.56222 0.279353 0
M  V30 10070 H 962.925 -3.38193 -1.74373 0
M  V30 10071 H 962.437 -3.88098 0.011441 0
M  V30 10072 H 960.538 -2.95251 -2.27283 0
M  V30 10073 H 960.651 -4.59632 -1.35186 0
M  V30 10074 H 959.015 -2.41444 -0.810991 0
M  V30 10075 H 959.798 -3.38918 0.546763 0
M  V30 10076 N 962.243 0.219913 -1.56058 0
M  V30 10077 C 963.492 0.942119 -1.78345 0
M  V30 10078 C 963.805 1.85435 -0.622344 0
M  V30 10079 O 965.011 2.61533 -0.728886 0
M  V30 10080 C 963.467 1.72544 -3.15843 0
M  V30 10081 C 963.075 0.859263 -4.39682 0
M  V30 10082 C 964.819 2.43876 -3.47455 0
M  V30 10083 C 962.726 1.64003 -5.68205 0
M  V30 10084 H 961.656 0.355514 -0.664925 0
M  V30 10085 H 964.307 0.195963 -1.82451 0
M  V30 10086 H 962.689 2.51456 -3.05918 0
M  V30 10087 H 963.863 0.110562 -4.60667 0
M  V30 10088 H 962.178 0.257985 -4.156 0
M  V30 10089 H 964.775 3.02794 -4.40704 0
M  V30 10090 H 965.118 3.16843 -2.7003 0
M  V30 10091 H 965.651 1.71952 -3.58716 0
M  V30 10092 H 962.39 0.953606 -6.48526 0
M  V30 10093 H 961.91 2.3633 -5.51279 0
M  V30 10094 H 963.589 2.20028 -6.08438 0
M  V30 10095 N 963.721 1.49897 0.486681 0
M  V30 10096 C 964.946 1.64106 1.26823 0
M  V30 10097 C 965.371 0.317967 1.85393 0
M  V30 10098 O 964.729 -0.71626 1.66551 0
M  V30 10099 C 964.777 2.72301 2.36399 0
M  V30 10100 O 963.881 2.32469 3.40634 0
M  V30 10101 H 963.222 0.548794 0.373793 0
M  V30 10102 H 965.752 1.96177 0.581017 0
M  V30 10103 H 965.762 2.94906 2.81948 0
M  V30 10104 H 964.437 3.68335 1.93137 0
M  V30 10105 H 963.014 2.20251 3.00905 0
M  V30 10106 N 965.199 -0.738761 1.39212 0
M  V30 10107 C 966.131 -1.86286 1.3353 0
M  V30 10108 C 967.144 -1.6095 0.244755 0
M  V30 10109 O 968.333 -1.71254 0.50343 0
M  V30 10110 C 965.433 -3.22234 1.04969 0
M  V30 10111 C 964.606 -3.74956 2.25226 0
M  V30 10112 C 963.665 -4.89457 1.9318 0
M  V30 10113 O 962.691 -5.03314 2.65826 0
M  V30 10114 N 963.893 -5.73548 0.895679 0
M  V30 10115 H 966.658 -1.91666 2.304 0
M  V30 10116 H 964.219 -0.919338 1.33266 0
M  V30 10117 H 966.211 -3.96397 0.815566 0
M  V30 10118 H 964.781 -3.12146 0.168451 0
M  V30 10119 H 964.001 -2.92188 2.64612 0
M  V30 10120 H 965.289 -4.06914 3.05448 0
M  V30 10121 H 964.687 -5.64938 0.293541 0
M  V30 10122 H 963.244 -6.47795 0.721451 0
M  V30 10123 N 966.677 -1.24326 -0.968545 0
M  V30 10124 C 967.924 -1.08245 -1.71141 0
M  V30 10125 C 968.252 0.378842 -1.90775 0
M  V30 10126 O 967.507 1.29634 -1.46607 0
M  V30 10127 C 967.806 -1.76644 -3.10695 0
M  V30 10128 C 967.472 -3.26572 -3.10905 0
M  V30 10129 C 966.134 -3.67475 -3.10669 0
M  V30 10130 C 968.486 -4.22422 -3.05302 0
M  V30 10131 C 965.814 -5.02666 -3.02562 0
M  V30 10132 C 968.166 -5.57619 -2.98737 0
M  V30 10133 C 966.83 -5.9787 -2.9683 0
M  V30 10134 H 966.1 -0.396098 -0.626249 0
M  V30 10135 H 968.747 -1.54418 -1.13258 0
M  V30 10136 H 967.052 -1.22864 -3.72037 0
M  V30 10137 H 968.749 -1.61668 -3.66967 0
M  V30 10138 H 965.339 -2.94017 -3.11852 0
M  V30 10139 H 969.523 -3.91821 -3.04614 0
M  V30 10140 H 964.779 -5.3305 -2.99446 0
M  V30 10141 H 968.953 -6.31595 -2.93361 0
M  V30 10142 H 966.58 -7.02587 -2.90303 0
M  V30 10143 N 968.156 1.1691 -1.05688 0
M  V30 10144 C 969.386 1.90927 -0.789339 0
M  V30 10145 C 969.794 1.77339 0.659369 0
M  V30 10146 O 969.137 1.11147 1.4626 0
M  V30 10147 C 969.199 3.42361 -1.09677 0
M  V30 10148 C 968.863 3.79733 -2.54267 0
M  V30 10149 C 969.86 3.82163 -3.52487 0
M  V30 10150 C 967.545 4.10547 -2.89406 0
M  V30 10151 C 969.539 4.14884 -4.8389 0
M  V30 10152 C 967.226 4.42936 -4.21011 0
M  V30 10153 C 968.224 4.45084 -5.18063 0
M  V30 10154 O 967.912 4.76707 -6.47307 0
M  V30 10155 H 967.644 0.612466 -0.286115 0
M  V30 10156 H 970.198 1.4916 -1.4121 0
M  V30 10157 H 968.428 3.84446 -0.416924 0
M  V30 10158 H 970.117 3.97645 -0.814456 0
M  V30 10159 H 970.883 3.58476 -3.26681 0
M  V30 10160 H 966.762 4.08044 -2.14525 0
M  V30 10161 H 970.306 4.16475 -5.59638 0
M  V30 10162 H 966.203 4.66088 -4.46579 0
M  V30 10163 H 966.971 4.94544 -6.52203 0
M  V30 10164 N 969.634 0.838594 1.33437 0
M  V30 10165 C 970.597 0.276843 2.27522 0
M  V30 10166 C 971.597 -0.554275 1.50945 0
M  V30 10167 O 972.787 -0.368107 1.70266 0
M  V30 10168 C 969.919 -0.610036 3.35397 0
M  V30 10169 H 971.112 1.10705 2.78719 0
M  V30 10170 H 968.665 0.611657 1.43835 0
M  V30 10171 H 969.4 -1.46269 2.89441 0
M  V30 10172 H 969.185 -0.0153615 3.92097 0
M  V30 10173 H 970.675 -0.996368 4.05539 0
M  V30 10174 N 971.112 -1.45937 0.595003 0
M  V30 10175 C 972.389 -1.95592 0.0178748 0
M  V30 10176 C 972.769 -1.53758 -1.44643 0
M  V30 10177 O 972.117 -0.794104 -2.14257 0
M  V30 10178 C 972.327 -3.4841 0.202789 0
M  V30 10179 C 973.675 -4.2453 0.0770121 0
M  V30 10180 O 974.699 -3.55954 0.132257 0
M  V30 10181 O 973.558 -5.46479 -0.0484271 0
M  V30 10182 H 970.652 -0.825888 -0.0428702 0
M  V30 10183 H 973.198 -1.56162 0.664184 0
M  V30 10184 H 971.97 -3.71787 1.22027 0
M  V30 10185 H 971.593 -3.947 -0.479376 0
M  V30 10186 N 972.59 -0.333456 -1.54032 0
M  V30 10187 C 974.006 0.0188405 -1.59589 0
M  V30 10188 C 974.206 1.49615 -1.34972 0
M  V30 10189 O 973.262 2.2535 -1.13901 0
M  V30 10190 C 974.575 -0.408273 -2.97915 0
M  V30 10191 C 976.123 -0.359763 -3.10926 0
M  V30 10192 C 976.598 -0.76219 -4.51613 0
M  V30 10193 N 978.089 -0.715981 -4.57633 0
M  V30 10194 C 978.824 -0.999436 -5.64623 0
M  V30 10195 N 978.32 -1.35053 -6.79509 0
M  V30 10196 N 980.113 -0.924343 -5.54448 0
M  V30 10197 H 972.264 -1.29587 -1.68289 0
M  V30 10198 H 974.527 -0.527584 -0.787629 0
M  V30 10199 H 974.233 -1.43793 -3.20962 0
M  V30 10200 H 974.107 0.221685 -3.76548 0
M  V30 10201 H 976.494 0.660703 -2.87609 0
M  V30 10202 H 976.575 -1.02479 -2.34375 0
M  V30 10203 H 976.219 -1.78062 -4.75664 0
M  V30 10204 H 976.149 -0.0747478 -5.26547 0
M  V30 10205 H 978.64 -0.456875 -3.75128 0
M  V30 10206 H 978.953 -1.55194 -7.57057 0
M  V30 10207 H 977.298 -1.38889 -6.80981 0
M  V30 10208 H 980.489 -0.649469 -4.63573 0
M  V30 10209 H 980.662 -1.1486 -6.37739 0
M  V30 10210 N 974.068 1.57479 -0.061844 0
M  V30 10211 C 975.031 2.1104 0.894127 0
M  V30 10212 C 976.031 1.03227 1.23292 0
M  V30 10213 O 977.221 1.29256 1.16784 0
M  V30 10214 C 974.353 2.6035 2.20069 0
M  V30 10215 H 975.546 2.96807 0.429619 0
M  V30 10216 H 973.099 1.55181 0.18672 0
M  V30 10217 H 973.834 1.78008 2.71079 0
M  V30 10218 H 973.619 3.39146 1.9678 0
M  V30 10219 H 975.109 3.019 2.88525 0
M  V30 10220 N 975.546 -0.211634 1.56173 0
M  V30 10221 C 976.478 -1.286 1.89723 0
M  V30 10222 C 977.491 -1.42549 0.786361 0
M  V30 10223 O 978.68 -1.4327 1.06471 0
M  V30 10224 C 975.78 -2.66036 2.09948 0
M  V30 10225 C 974.953 -2.73908 3.41018 0
M  V30 10226 C 974.012 -3.92425 3.50555 0
M  V30 10227 O 973.038 -3.803 4.2351 0
M  V30 10228 N 974.24 -5.07165 2.82426 0
M  V30 10229 H 977.005 -1.00142 2.82474 0
M  V30 10230 H 974.566 -0.401633 1.56839 0
M  V30 10231 H 976.558 -3.43719 2.13634 0
M  V30 10232 H 975.128 -2.87052 1.23774 0
M  V30 10233 H 974.348 -1.82625 3.49345 0
M  V30 10234 H 975.636 -2.76145 4.27342 0
M  V30 10235 H 975.034 -5.19913 2.2295 0
M  V30 10236 H 973.591 -5.82855 2.9176 0
M  V30 10237 N 977.024 -1.50153 -0.478725 0
M  V30 10238 C 977.971 -1.68458 -1.57767 0
M  V30 10239 C 978.941 -0.5259 -1.57555 0
M  V30 10240 O 980.126 -0.755574 -1.75202 0
M  V30 10241 C 977.266 -1.77772 -2.95789 0
M  V30 10242 C 976.379 -3.05092 -3.05848 0
M  V30 10243 C 975.514 -3.05247 -4.34739 0
M  V30 10244 C 974.553 -4.27053 -4.38512 0
M  V30 10245 N 973.69 -4.24991 -5.58862 0
M  V30 10246 H 978.53 -2.62282 -1.41464 0
M  V30 10247 H 976.067 -1.30023 -0.687921 0
M  V30 10248 H 978.025 -1.81152 -3.75819 0
M  V30 10249 H 976.655 -0.873944 -3.10744 0
M  V30 10250 H 975.707 -3.11219 -2.1874 0
M  V30 10251 H 977.019 -3.95075 -3.04495 0
M  V30 10252 H 976.173 -3.07314 -5.23109 0
M  V30 10253 H 974.912 -2.13081 -4.38689 0
M  V30 10254 H 973.917 -4.25206 -3.4854 0
M  V30 10255 H 975.142 -5.20437 -4.36259 0
M  V30 10256 H 973.088 -3.35674 -5.63612 0
M  V30 10257 H 973.005 -5.08734 -5.59219 0
M  V30 10258 H 974.273 -4.31193 -6.49379 0
M  V30 10259 N 978.502 0.731368 -1.39602 0
M  V30 10260 C 979.452 1.83662 -1.35101 0
M  V30 10261 C 980.436 1.5923 -0.231241 0
M  V30 10262 O 981.628 1.70671 -0.469072 0
M  V30 10263 C 978.757 3.21629 -1.20041 0
M  V30 10264 C 977.843 3.51878 -2.36733 0
M  V30 10265 N 978.234 3.53041 -3.6221 0
M  V30 10266 C 976.532 3.82259 -2.2977 0
M  V30 10267 C 977.233 3.81188 -4.39398 0
M  V30 10268 N 976.209 3.99145 -3.69031 0
M  V30 10269 H 980.011 1.82871 -2.30077 0
M  V30 10270 H 977.525 0.929777 -1.3315 0
M  V30 10271 H 979.522 4.00754 -1.14899 0
M  V30 10272 H 978.182 3.23656 -0.260184 0
M  V30 10273 H 979.193 3.34266 -3.95584 0
M  V30 10274 H 975.87 3.9187 -1.44029 0
M  V30 10275 H 977.26 3.88525 -5.48177 0
M  V30 10276 N 979.98 1.24838 0.961938 0
M  V30 10277 C 981.228 1.08936 1.70227 0
M  V30 10278 C 981.549 -0.371582 1.91427 0
M  V30 10279 O 980.819 -1.26461 1.49614 0
M  V30 10280 H 979.399 0.400128 0.630799 0
M  V30 10281 H 982.061 1.56848 1.15692 0
M  V30 10282 H 981.157 1.59195 2.68446 0
M  V30 10283 N 981.458 -1.16348 1.06306 0
M  V30 10284 C 982.391 -2.19667 0.618197 0
M  V30 10285 C 983.369 -1.58586 -0.359078 0
M  V30 10286 O 984.553 -1.86585 -0.268023 0
M  V30 10287 C 981.68 -3.3857 -0.0937091 0
M  V30 10288 C 980.726 -4.18139 0.840339 0
M  V30 10289 S 981.559 -4.81879 2.33565 0
M  V30 10290 C 982.715 -6.04161 1.63524 0
M  V30 10291 H 982.948 -2.57063 1.49352 0
M  V30 10292 H 980.481 -1.27141 0.876046 0
M  V30 10293 H 982.439 -4.07465 -0.498227 0
M  V30 10294 H 981.1 -2.9954 -0.94523 0
M  V30 10295 H 980.293 -5.03172 0.288781 0
M  V30 10296 H 979.895 -3.54739 1.18474 0
M  V30 10297 H 982.187 -6.70935 0.940904 0
M  V30 10298 H 983.13 -6.63866 2.46347 0
M  V30 10299 H 983.538 -5.53323 1.11778 0
M  V30 10300 N 982.937 -0.845659 -1.3299 0
M  V30 10301 C 984.214 -0.366306 -1.92139 0
M  V30 10302 C 984.594 1.14912 -1.77083 0
M  V30 10303 O 983.942 1.96667 -1.16338 0
M  V30 10304 C 984.152 -0.820716 -3.39213 0
M  V30 10305 C 985.5 -0.832667 -4.16355 0
M  V30 10306 O 986.524 -0.764764 -3.47893 0
M  V30 10307 O 985.383 -0.926658 -5.38586 0
M  V30 10308 H 982.477 -0.105063 -0.820299 0
M  V30 10309 H 985.023 -0.931962 -1.41819 0
M  V30 10310 H 983.795 -1.86357 -3.44074 0
M  V30 10311 H 983.418 -0.232009 -3.96923 0
M  V30 10312 N 984.415 1.45619 -0.602734 0
M  V30 10313 C 985.325 2.34288 0.120902 0
M  V30 10314 C 986.341 1.50952 0.865414 0
M  V30 10315 O 987.517 1.83768 0.824094 0
M  V30 10316 C 984.582 3.28489 1.10888 0
M  V30 10317 C 983.643 4.2773 0.366853 0
M  V30 10318 C 982.876 5.17429 1.30776 0
M  V30 10319 O 983.099 5.10459 2.54535 0
M  V30 10320 O 982.033 5.96459 0.807464 0
M  V30 10321 H 985.859 2.97559 -0.60765 0
M  V30 10322 H 983.444 1.44922 -0.363019 0
M  V30 10323 H 985.326 3.86549 1.67803 0
M  V30 10324 H 984.001 2.67789 1.81854 0
M  V30 10325 H 982.908 3.73299 -0.244643 0
M  V30 10326 H 984.241 4.91271 -0.302226 0
M  V30 10327 N 985.893 0.34162 1.53853 0
M  V30 10328 C 987.14 -0.255484 2.00882 0
M  V30 10329 C 987.468 -1.50711 1.22949 0
M  V30 10330 O 986.723 -1.93315 0.304625 0
M  V30 10331 C 987.022 -0.616989 3.52034 0
M  V30 10332 C 986.688 0.537536 4.47684 0
M  V30 10333 C 985.35 0.854379 4.73554 0
M  V30 10334 C 987.702 1.31217 5.04412 0
M  V30 10335 C 985.03 1.94826 5.53407 0
M  V30 10336 C 987.382 2.39628 5.85458 0
M  V30 10337 C 986.046 2.71874 6.09623 0
M  V30 10338 H 985.316 -0.0934881 0.735079 0
M  V30 10339 H 987.963 0.469135 1.85665 0
M  V30 10340 H 986.268 -1.42229 3.65073 0
M  V30 10341 H 987.965 -1.09084 3.85878 0
M  V30 10342 H 984.555 0.280524 4.27681 0
M  V30 10343 H 988.739 1.08064 4.84392 0
M  V30 10344 H 983.995 2.20235 5.70356 0
M  V30 10345 H 988.169 3.00084 6.28429 0
M  V30 10346 H 985.796 3.56762 6.71286 0
M  V30 10347 N 987.371 -1.57444 0.0701946 0
M  V30 10348 C 988.62 -1.92605 -0.598849 0
M  V30 10349 C 988.933 -0.952058 -1.70866 0
M  V30 10350 O 990.139 -1.19643 -2.43716 0
M  V30 10351 C 988.595 -3.42142 -1.11655 0
M  V30 10352 C 988.203 -4.47984 -0.0378355 0
M  V30 10353 C 989.947 -3.86307 -1.75975 0
M  V30 10354 C 987.854 -5.88652 -0.569495 0
M  V30 10355 H 986.784 -0.718873 -0.22746 0
M  V30 10356 H 989.435 -1.82948 0.14217 0
M  V30 10357 H 987.817 -3.46866 -1.91049 0
M  V30 10358 H 988.991 -4.54874 0.736661 0
M  V30 10359 H 987.306 -4.13277 0.50904 0
M  V30 10360 H 989.903 -4.88784 -2.16782 0
M  V30 10361 H 990.246 -3.23587 -2.61911 0
M  V30 10362 H 990.779 -3.84179 -1.03206 0
M  V30 10363 H 987.518 -6.55013 0.252662 0
M  V30 10364 H 987.038 -5.85285 -1.31155 0
M  V30 10365 H 988.717 -6.38482 -1.04641 0
M  V30 10366 N 988.849 0.203349 -1.56283 0
M  V30 10367 C 990.074 0.945548 -1.84592 0
M  V30 10368 C 990.499 1.7641 -0.652772 0
M  V30 10369 O 989.857 1.76867 0.398468 0
M  V30 10370 C 989.905 1.82416 -3.11057 0
M  V30 10371 O 989.009 2.92191 -2.9103 0
M  V30 10372 H 988.35 0.266739 -0.608068 0
M  V30 10373 H 990.88 0.211158 -2.03507 0
M  V30 10374 H 990.89 2.23044 -3.41636 0
M  V30 10375 H 989.565 1.22267 -3.97522 0
M  V30 10376 H 988.142 2.55378 -2.71728 0
M  V30 10377 N 990.327 1.50405 0.470755 0
M  V30 10378 C 991.552 1.65442 1.25075 0
M  V30 10379 C 991.977 0.337612 1.85045 0
M  V30 10380 O 991.335 -0.698555 1.67302 0
M  V30 10381 C 991.383 2.74793 2.33498 0
M  V30 10382 O 990.487 2.36069 3.3815 0
M  V30 10383 H 989.828 0.552728 0.367951 0
M  V30 10384 H 992.358 1.96782 0.560177 0
M  V30 10385 H 992.368 2.97879 2.78804 0
M  V30 10386 H 991.043 3.70363 1.8922 0
M  V30 10387 H 989.62 2.2343 2.98552 0
M  V30 10388 N 991.805 -0.723954 1.39988 0
M  V30 10389 C 992.753 -1.85938 1.39749 0
M  V30 10390 C 993.747 -1.67085 0.279112 0
M  V30 10391 O 994.953 -1.74291 0.44972 0
M  V30 10392 H 991.328 -0.612246 0.436644 0
M  V30 10393 H 993.299 -1.83255 2.355 0
M  V30 10394 C 992.048 -3.23726 1.26874 0
M  V30 10395 H 991.371 -3.38835 2.12206 0
M  V30 10396 H 992.811 -4.03332 1.30765 0
M  V30 10397 C 991.27 -3.36893 -0.0218317 0
M  V30 10398 O 991.8 -3.89363 -0.987905 0
M  V30 10399 N 990.006 -2.90465 -0.0885618 0
M  V30 10400 H 989.553 -2.47954 0.698314 0
M  V30 10401 H 989.511 -2.99654 -0.951557 0
M  V30 10402 N 993.283 -1.25346 -0.955304 0
M  V30 10403 C 994.694 -1.09173 -1.51453 0
M  V30 10404 C 995.045 0.332755 -1.93358 0
M  V30 10405 O 994.17 1.22264 -1.78551 0
M  V30 10406 C 994.765 -1.97564 -2.75234 0
M  V30 10407 C 993.324 -1.85579 -3.27471 0
M  V30 10408 C 992.471 -1.91755 -2.00313 0
M  V30 10409 H 995.422 -1.38642 -0.772271 0
M  V30 10410 H 995.443 -1.51523 -3.49029 0
M  V30 10411 H 994.955 -3.01233 -2.44704 0
M  V30 10412 H 993.056 -0.847906 -3.62824 0
M  V30 10413 H 993.169 -2.70353 -3.95533 0
M  V30 10414 H 991.533 -1.35633 -2.15582 0
M  V30 10415 H 992.316 -2.97028 -1.72132 0
M  V30 10416 N 994.761 1.15782 -1.06922 0
M  V30 10417 C 996.001 1.88135 -0.799043 0
M  V30 10418 C 996.365 1.80203 0.662632 0
M  V30 10419 O 997.566 2.47543 1.04767 0
M  V30 10420 C 995.837 3.3339 -1.28786 0
M  V30 10421 S 997.396 4.23525 -1.1477 0
M  V30 10422 H 994.214 0.649313 -0.289679 0
M  V30 10423 H 996.816 1.3972 -1.36743 0
M  V30 10424 H 995.52 3.36705 -2.34645 0
M  V30 10425 H 995.051 3.86857 -0.714489 0
M  V30 10426 H 997.066 4.96131 -0.0825264 0
M  V30 10427 N 996.239 0.8527 1.3254 0
M  V30 10428 C 997.187 0.284659 2.30852 0
M  V30 10429 C 998.181 -0.5909 1.5876 0
M  V30 10430 O 999.387 -0.478922 1.73512 0
M  V30 10431 H 995.762 0.0733452 0.748415 0
M  V30 10432 H 997.733 1.1281 2.76254 0
M  V30 10433 C 996.482 -0.51379 3.43883 0
M  V30 10434 H 995.805 0.150644 3.99516 0
M  V30 10435 H 997.245 -0.876866 4.14834 0
M  V30 10436 C 995.704 -1.69823 2.90967 0
M  V30 10437 O 996.234 -2.79727 2.88298 0
M  V30 10438 N 994.44 -1.52465 2.47392 0
M  V30 10439 H 993.987 -0.630599 2.49762 0
M  V30 10440 H 993.945 -2.31859 2.12341 0
M  V30 10441 N 997.718 -1.45297 0.610449 0
M  V30 10442 C 998.965 -2.02218 0.106759 0
M  V30 10443 C 999.293 -1.47849 -1.26376 0
M  V30 10444 O 998.548 -0.644402 -1.84786 0
M  V30 10445 C 998.847 -3.57394 0.0205329 0
M  V30 10446 C 998.513 -4.30928 1.32709 0
M  V30 10447 C 997.175 -4.50735 1.68498 0
M  V30 10448 C 999.527 -4.72936 2.19046 0
M  V30 10449 C 996.855 -5.09806 2.90371 0
M  V30 10450 C 999.207 -5.33355 3.40169 0
M  V30 10451 C 997.871 -5.51384 3.76207 0
M  V30 10452 H 997.141 -0.739969 0.039066 0
M  V30 10453 H 999.788 -1.74326 0.792638 0
M  V30 10454 H 998.093 -3.84581 -0.748623 0
M  V30 10455 H 999.79 -3.99144 -0.385386 0
M  V30 10456 H 996.38 -4.15827 1.03854 0
M  V30 10457 H 1000.56 -4.57365 1.92695 0
M  V30 10458 H 995.82 -5.21953 3.18395 0
M  V30 10459 H 999.994 -5.64859 4.07318 0
M  V30 10460 H 997.621 -5.96924 4.70729 0
M  V30 10461 N 999.196 -0.349774 -1.5367 0
M  V30 10462 C 1000.47 0.300419 -1.93279 0
M  V30 10463 C 1000.85 1.67721 -1.28191 0
M  V30 10464 O 1000.2 2.24319 -0.435127 0
M  V30 10465 C 1000.41 0.366466 -3.47071 0
M  V30 10466 C 1001.76 0.614349 -4.20132 0
M  V30 10467 O 1002.78 0.448327 -3.53367 0
M  V30 10468 O 1001.64 0.936421 -5.38417 0
M  V30 10469 H 998.736 0.176599 -0.807924 0
M  V30 10470 H 1001.28 -0.401405 -1.64884 0
M  V30 10471 H 1000.05 -0.599455 -3.86681 0
M  V30 10472 H 999.677 1.11482 -3.81651 0
M  V30 10473 N 1000.67 1.57404 -0.0785433 0
M  V30 10474 C 1001.62 2.09632 0.896565 0
M  V30 10475 C 1002.61 1.00754 1.25449 0
M  V30 10476 O 1003.8 1.27053 1.23234 0
M  V30 10477 C 1000.93 2.66694 2.16169 0
M  V30 10478 C 1000.01 3.82588 1.82994 0
M  V30 10479 N 1000.41 4.91286 1.203 0
M  V30 10480 C 998.704 3.92011 2.12704 0
M  V30 10481 C 999.405 5.72077 1.05367 0
M  V30 10482 N 998.381 5.20567 1.56559 0
M  V30 10483 H 1002.18 2.9106 0.407621 0
M  V30 10484 H 999.697 1.61917 0.125155 0
M  V30 10485 H 1001.69 3.0243 2.86952 0
M  V30 10486 H 1000.35 1.86716 2.65645 0
M  V30 10487 H 1001.36 5.10509 0.871817 0
M  V30 10488 H 998.042 3.23018 2.6451 0
M  V30 10489 H 999.432 6.69523 0.564685 0
M  V30 10490 N 1002.15 -0.195058 1.56388 0
M  V30 10491 C 1003.11 -1.2254 1.93692 0
M  V30 10492 C 1004.11 -1.38437 0.81804 0
M  V30 10493 O 1005.3 -1.36248 1.08545 0
M  V30 10494 C 1002.44 -2.59476 2.21099 0
M  V30 10495 H 1003.63 -0.906544 2.8587 0
M  V30 10496 H 1001.18 -0.436577 1.50079 0
M  V30 10497 H 1001.92 -2.96417 1.31558 0
M  V30 10498 H 1001.7 -2.4931 3.02634 0
M  V30 10499 H 1003.19 -3.33777 2.50964 0
M  V30 10500 N 1003.63 -1.50653 -0.462772 0
M  V30 10501 C 1004.85 -1.66103 -1.24196 0
M  V30 10502 C 1005.28 -0.347421 -1.84864 0
M  V30 10503 O 1004.64 0.689673 -1.6767 0
M  V30 10504 C 1004.69 -2.76027 -2.32037 0
M  V30 10505 O 1003.79 -2.37859 -3.36893 0
M  V30 10506 H 1003.13 -0.554672 -0.365014 0
M  V30 10507 H 1005.66 -1.97076 -0.549734 0
M  V30 10508 H 1005.67 -2.99354 -2.77221 0
M  V30 10509 H 1004.35 -3.71361 -1.87253 0
M  V30 10510 H 1002.92 -2.2501 -2.97363 0
M  V30 10511 N 1005.11 0.71652 -1.4037 0
M  V30 10512 C 1006.04 1.84345 -1.43315 0
M  V30 10513 C 1007.02 1.67537 -0.294186 0
M  V30 10514 O 1008.2 1.87582 -0.502671 0
M  V30 10515 C 1005.33 3.2229 -1.29408 0
M  V30 10516 C 1004.29 3.53769 -2.40897 0
M  V30 10517 C 1003.61 4.90847 -2.12068 0
M  V30 10518 C 1004.91 3.54862 -3.83237 0
M  V30 10519 H 1006.61 1.82138 -2.37626 0
M  V30 10520 H 1004.15 0.874873 -1.14376 0
M  V30 10521 H 1006.11 4.00819 -1.30085 0
M  V30 10522 H 1004.83 3.2507 -0.31573 0
M  V30 10523 H 1003.49 2.77579 -2.39469 0
M  V30 10524 H 1003.14 4.90229 -1.12626 0
M  V30 10525 H 1002.84 5.12875 -2.86762 0
M  V30 10526 H 1004.36 5.71711 -2.14426 0
M  V30 10527 H 1005.78 4.23432 -3.86494 0
M  V30 10528 H 1004.17 3.88416 -4.57442 0
M  V30 10529 H 1005.24 2.54266 -4.12888 0
M  V30 10530 N 1006.59 1.25851 0.948643 0
M  V30 10531 C 1007.83 1.10954 1.69397 0
M  V30 10532 C 1008.16 -0.348443 1.91353 0
M  V30 10533 O 1007.42 -1.27285 1.48651 0
M  V30 10534 C 1007.72 1.81565 3.07846 0
M  V30 10535 C 1007.38 3.31477 3.0567 0
M  V30 10536 C 1006.04 3.72371 3.04784 0
M  V30 10537 C 1008.4 4.27225 2.98543 0
M  V30 10538 C 1005.72 5.07416 2.94527 0
M  V30 10539 C 1008.08 5.62301 2.89828 0
M  V30 10540 C 1006.74 6.02516 2.87281 0
M  V30 10541 H 1006.01 0.406011 0.619868 0
M  V30 10542 H 1008.66 1.562 1.10787 0
M  V30 10543 H 1006.96 1.28767 3.70035 0
M  V30 10544 H 1008.66 1.67486 3.64348 0
M  V30 10545 H 1005.25 2.98941 3.07135 0
M  V30 10546 H 1009.43 3.96618 2.98342 0
M  V30 10547 H 1004.69 5.37746 2.90928 0
M  V30 10548 H 1008.86 6.36182 2.83276 0
M  V30 10549 H 1006.49 7.07116 2.79089 0
M  V30 10550 N 1008.06 -1.15214 1.07534 0
M  V30 10551 C 1008.97 -2.23636 0.708818 0
M  V30 10552 C 1009.99 -1.7172 -0.280759 0
M  V30 10553 O 1011.17 -2.01 -0.126927 0
M  V30 10554 C 1008.23 -3.46512 0.114167 0
M  V30 10555 C 1007.29 -4.13409 1.15722 0
M  V30 10556 C 1006.53 -5.30419 0.59085 0
M  V30 10557 O 1006.75 -5.67314 -0.592512 0
M  V30 10558 O 1005.68 -5.86871 1.33663 0
M  V30 10559 H 1009.51 -2.57322 1.61305 0
M  V30 10560 H 1007.09 -1.22972 0.848422 0
M  V30 10561 H 1008.98 -4.20851 -0.215091 0
M  V30 10562 H 1007.65 -3.1457 -0.763356 0
M  V30 10563 H 1006.56 -3.40984 1.53886 0
M  V30 10564 H 1007.89 -4.49435 2.00671 0
M  V30 10565 N 1009.54 -0.859717 -1.32086 0
M  V30 10566 C 1010.48 -0.252764 -2.26796 0
M  V30 10567 C 1011.45 0.612178 -1.50636 0
M  V30 10568 O 1012.64 0.567865 -1.79743 0
M  V30 10569 C 1009.76 0.643017 -3.3254 0
M  V30 10570 C 1008.81 -0.149211 -4.26239 0
M  V30 10571 S 1009.64 -1.52097 -5.13446 0
M  V30 10572 C 1010.8 -0.631035 -6.22711 0
M  V30 10573 H 1011.03 -1.05563 -2.77928 0
M  V30 10574 H 1008.57 -0.657639 -1.39694 0
M  V30 10575 H 1010.52 1.15418 -3.9394 0
M  V30 10576 H 1009.18 1.41974 -2.80183 0
M  V30 10577 H 1008.38 0.53328 -5.01171 0
M  V30 10578 H 1007.98 -0.592128 -3.69283 0
M  V30 10579 H 1010.27 0.162638 -6.77305 0
M  V30 10580 H 1011.21 -1.35116 -6.95089 0
M  V30 10581 H 1011.62 -0.203131 -5.64134 0
M  V30 10582 N 1011.02 1.44971 -0.618145 0
M  V30 10583 C 1012.27 2.02458 -0.117656 0
M  V30 10584 C 1012.6 1.48413 1.25248 0
M  V30 10585 O 1011.87 0.662997 1.82851 0
M  V30 10586 C 1012.16 3.59987 -0.0901897 0
M  V30 10587 C 1012.01 4.24343 -1.49175 0
M  V30 10588 C 1013.33 4.36099 0.592121 0
M  V30 10589 H 1010.45 0.735672 -0.0442291 0
M  V30 10590 H 1013.09 1.727 -0.792138 0
M  V30 10591 H 1011.24 3.85471 0.484175 0
M  V30 10592 H 1012.91 4.10009 -2.114 0
M  V30 10593 H 1011.16 3.82337 -2.04941 0
M  V30 10594 H 1011.83 5.33298 -1.42468 0
M  V30 10595 H 1014.3 4.1597 0.103813 0
M  V30 10596 H 1013.18 5.45822 0.580481 0
M  V30 10597 H 1013.44 4.09746 1.66015 0
M  V30 10598 N 1012.5 0.357919 1.53482 0
M  V30 10599 C 1013.43 -0.526753 2.23065 0
M  V30 10600 C 1014.44 -1.05239 1.24212 0
M  V30 10601 O 1015.63 -0.960078 1.50482 0
M  V30 10602 C 1012.73 -1.73919 2.9087 0
M  V30 10603 C 1011.91 -1.34638 4.16163 0
M  V30 10604 C 1010.96 -2.42005 4.67247 0
M  V30 10605 O 1009.99 -2.04714 5.31113 0
M  V30 10606 N 1011.19 -3.73478 4.44404 0
M  V30 10607 H 1013.96 0.0692386 2.9962 0
M  V30 10608 H 1011.52 0.182726 1.60866 0
M  V30 10609 H 1013.51 -2.45207 3.21956 0
M  V30 10610 H 1012.08 -2.24223 2.17814 0
M  V30 10611 H 1011.3 -0.463667 3.91464 0
M  V30 10612 H 1012.59 -1.06012 4.97633 0
M  V30 10613 H 1011.99 -4.06555 3.93357 0
M  V30 10614 H 1010.54 -4.40893 4.80059 0
M  V30 10615 N 1013.98 -1.5736 0.0868897 0
M  V30 10616 C 1015.39 -1.57304 -0.269762 0
M  V30 10617 C 1015.59 -1.09745 -1.68992 0
M  V30 10618 O 1014.65 -0.77017 -2.40468 0
M  V30 10619 C 1015.96 -3.00628 -0.0656646 0
M  V30 10620 C 1017.51 -3.12713 -0.134045 0
M  V30 10621 C 1017.98 -4.57981 0.0419569 0
M  V30 10622 N 1019.48 -4.63198 -0.0131501 0
M  V30 10623 C 1020.21 -5.73316 0.0983964 0
M  V30 10624 N 1019.71 -6.92296 0.264315 0
M  V30 10625 N 1021.5 -5.62086 0.0402517 0
M  V30 10626 H 1013.65 -1.86585 1.01487 0
M  V30 10627 H 1015.91 -0.860843 0.397055 0
M  V30 10628 H 1015.62 -3.39592 0.914891 0
M  V30 10629 H 1015.49 -3.68367 -0.811522 0
M  V30 10630 H 1017.88 -2.73627 -1.1051 0
M  V30 10631 H 1017.96 -2.47582 0.643167 0
M  V30 10632 H 1017.61 -4.9776 1.00984 0
M  V30 10633 H 1017.54 -5.21162 -0.754847 0
M  V30 10634 H 1020.03 -3.77644 -0.139183 0
M  V30 10635 H 1020.34 -7.72047 0.341165 0
M  V30 10636 H 1018.68 -6.94353 0.299876 0
M  V30 10637 H 1021.88 -4.68017 -0.0881801 0
M  V30 10638 H 1022.05 -6.47868 0.130635 0
M  V30 10639 N 1015.45 0.186762 -1.56489 0
M  V30 10640 C 1016.38 1.23395 -1.98232 0
M  V30 10641 C 1017.37 1.4702 -0.855526 0
M  V30 10642 O 1018.55 1.58616 -1.12048 0
M  V30 10643 C 1015.68 2.57635 -2.32898 0
M  V30 10644 C 1014.63 2.48607 -3.48394 0
M  V30 10645 C 1013.96 3.87196 -3.68759 0
M  V30 10646 C 1015.26 2.00398 -4.82325 0
M  V30 10647 H 1016.95 0.887026 -2.85958 0
M  V30 10648 H 1014.5 0.42525 -1.37578 0
M  V30 10649 H 1016.45 3.31082 -2.60696 0
M  V30 10650 H 1015.18 2.94084 -1.42064 0
M  V30 10651 H 1013.84 1.77615 -3.207 0
M  V30 10652 H 1013.48 4.21012 -2.75241 0
M  V30 10653 H 1013.18 3.82029 -4.46462 0
M  V30 10654 H 1014.71 4.62253 -3.98941 0
M  V30 10655 H 1016.12 2.6361 -5.091 0
M  V30 10656 H 1014.52 2.06214 -5.63556 0
M  V30 10657 H 1015.59 0.957562 -4.75351 0
M  V30 10658 N 1016.93 1.50896 0.454776 0
M  V30 10659 C 1018.16 1.6648 1.22849 0
M  V30 10660 C 1018.58 0.354841 1.85435 0
M  V30 10661 O 1017.93 -0.664931 1.69956 0
M  V30 10662 C 1017.98 2.76787 2.32532 0
M  V30 10663 O 1017.7 4.02706 1.72509 0
M  V30 10664 C 1019.21 3.03488 3.23125 0
M  V30 10665 H 1016.43 0.559152 0.370932 0
M  V30 10666 H 1018.97 1.97215 0.540983 0
M  V30 10667 H 1017.12 2.48701 2.9703 0
M  V30 10668 H 1017.54 4.63834 2.44863 0
M  V30 10669 H 1019.01 3.84294 3.9626 0
M  V30 10670 H 1019.49 2.152 3.82865 0
M  V30 10671 H 1020.1 3.33167 2.64347 0
M  V30 10672 N 1018.41 -0.709066 1.40748 0
M  V30 10673 C 1019.34 -1.83583 1.4429 0
M  V30 10674 C 1020.32 -1.67378 0.303067 0
M  V30 10675 O 1021.51 -1.87312 0.512612 0
M  V30 10676 C 1018.64 -3.21599 1.31116 0
M  V30 10677 C 1017.59 -3.52486 2.4277 0
M  V30 10678 C 1016.92 -4.89716 2.14668 0
M  V30 10679 C 1018.22 -3.52824 3.85113 0
M  V30 10680 H 1019.91 -1.80876 2.38588 0
M  V30 10681 H 1017.46 -0.868795 1.14839 0
M  V30 10682 H 1019.41 -4.00123 1.32209 0
M  V30 10683 H 1018.13 -3.24898 0.332965 0
M  V30 10684 H 1016.79 -2.76305 2.40937 0
M  V30 10685 H 1016.44 -4.89625 1.15224 0
M  V30 10686 H 1016.14 -5.11347 2.89478 0
M  V30 10687 H 1017.66 -5.70566 2.17455 0
M  V30 10688 H 1019.08 -4.21377 3.88734 0
M  V30 10689 H 1017.48 -3.85984 4.59496 0
M  V30 10690 H 1018.55 -2.52073 4.14231 0
M  V30 10691 N 1019.89 -1.26353 -0.941956 0
M  V30 10692 C 1021.17 -1.02601 -1.6653 0
M  V30 10693 C 1021.55 0.44381 -2.06382 0
M  V30 10694 O 1020.89 1.42399 -1.78703 0
M  V30 10695 C 1021.1 -1.97401 -2.87809 0
M  V30 10696 C 1022.45 -2.25967 -3.59478 0
M  V30 10697 O 1023.48 -1.95261 -2.97912 0
M  V30 10698 O 1022.34 -2.78244 -4.70364 0
M  V30 10699 H 1019.43 -0.39007 -0.729228 0
M  V30 10700 H 1021.98 -1.37559 -0.993754 0
M  V30 10701 H 1020.75 -2.9659 -2.55245 0
M  V30 10702 H 1020.37 -1.62918 -3.62689 0
M  V30 10703 N 1021.37 1.14642 -1.08144 0
M  V30 10704 C 1022.32 2.17665 -0.678661 0
M  V30 10705 C 1023.3 1.58072 0.300336 0
M  V30 10706 O 1024.49 1.7664 0.112781 0
M  V30 10707 C 1021.62 3.43191 -0.0866362 0
M  V30 10708 C 1020.71 4.0982 -1.09126 0
M  V30 10709 N 1021.1 4.51814 -2.27372 0
M  V30 10710 C 1019.4 4.36272 -0.926411 0
M  V30 10711 C 1020.1 5.03581 -2.91172 0
M  V30 10712 N 1019.07 4.97624 -2.18795 0
M  V30 10713 H 1022.88 2.47872 -1.57914 0
M  V30 10714 H 1020.39 1.31296 -0.955772 0
M  V30 10715 H 1022.39 4.1632 0.219859 0
M  V30 10716 H 1021.05 3.14464 0.80886 0
M  V30 10717 H 1022.06 4.44941 -2.65044 0
M  V30 10718 H 1018.74 4.17414 -0.084492 0
M  V30 10719 H 1020.13 5.45969 -3.91621 0
M  V30 10720 N 1022.85 0.866709 1.31628 0
M  V30 10721 C 1024.26 0.558188 1.49521 0
M  V30 10722 C 1024.46 -0.90844 1.7986 0
M  V30 10723 O 1023.52 -1.6908 1.87531 0
M  V30 10724 C 1024.83 1.45559 2.63122 0
M  V30 10725 C 1026.38 1.45728 2.77006 0
M  V30 10726 C 1026.85 2.34017 3.937 0
M  V30 10727 N 1028.34 2.31879 4.00982 0
M  V30 10728 C 1029.08 2.96915 4.90539 0
M  V30 10729 N 1028.58 3.71109 5.85021 0
M  V30 10730 N 1030.37 2.86241 4.83759 0
M  V30 10731 H 1022.52 1.81574 1.10203 0
M  V30 10732 H 1024.78 0.77621 0.544244 0
M  V30 10733 H 1024.49 2.49904 2.47469 0
M  V30 10734 H 1024.36 1.15174 3.59186 0
M  V30 10735 H 1026.75 0.421419 2.92075 0
M  V30 10736 H 1026.83 1.80134 1.81619 0
M  V30 10737 H 1026.47 3.37678 3.79389 0
M  V30 10738 H 1026.4 1.96937 4.88388 0
M  V30 10739 H 1028.9 1.77948 3.33381 0
M  V30 10740 H 1029.21 4.1787 6.5008 0
M  V30 10741 H 1027.55 3.75217 5.8501 0
M  V30 10742 H 1030.74 2.27819 4.08921 0
M  V30 10743 H 1030.92 3.37206 5.5335 0
M  V30 10744 N 1024.32 -1.44642 0.625825 0
M  V30 10745 C 1025.25 -2.33397 -0.0692188 0
M  V30 10746 C 1026.23 -1.47898 -0.840241 0
M  V30 10747 O 1027.42 -1.7663 -0.807176 0
M  V30 10748 C 1024.55 -3.30888 -1.055 0
M  V30 10749 C 1023.5 -4.26164 -0.395968 0
M  V30 10750 C 1022.83 -5.13483 -1.49128 0
M  V30 10751 C 1024.13 -5.17663 0.694433 0
M  V30 10752 H 1025.82 -2.91763 0.671925 0
M  V30 10753 H 1023.37 -1.40294 0.324573 0
M  V30 10754 H 1025.32 -3.91861 -1.54993 0
M  V30 10755 H 1024.05 -2.7072 -1.82696 0
M  V30 10756 H 1022.71 -3.66516 0.0782691 0
M  V30 10757 H 1022.35 -4.49672 -2.25399 0
M  V30 10758 H 1022.05 -5.78038 -1.05573 0
M  V30 10759 H 1023.58 -5.77327 -1.98813 0
M  V30 10760 H 1024.99 -5.72602 0.282818 0
M  V30 10761 H 1023.39 -5.90793 1.05281 0
M  V30 10762 H 1024.46 -4.58994 1.56372 0
M  V30 10763 N 1025.8 -0.366053 -1.5329 0
M  V30 10764 C 1026.75 0.495319 -2.27265 0
M  V30 10765 C 1027.74 1.08298 -1.30261 0
M  V30 10766 O 1028.95 1.02613 -1.47887 0
M  V30 10767 H 1025.32 0.178454 -0.730519 0
M  V30 10768 H 1027.3 -0.150354 -2.98021 0
M  V30 10769 C 1026.04 1.62283 -3.07505 0
M  V30 10770 H 1025.37 1.17993 -3.81992 0
M  V30 10771 H 1026.81 2.20024 -3.62444 0
M  V30 10772 C 1025.27 2.56542 -2.18375 0
M  V30 10773 O 1025.8 3.59371 -1.79486 0
M  V30 10774 N 1024 2.25742 -1.82999 0
M  V30 10775 H 1023.55 1.42159 -2.14822 0
M  V30 10776 H 1023.51 2.89064 -1.2365 0
M  V30 10777 N 1027.28 1.57312 -0.0952337 0
M  V30 10778 C 1028.56 1.85822 0.610715 0
M  V30 10779 C 1028.94 0.992114 1.86334 0
M  V30 10780 O 1028.28 0.0645669 2.28409 0
M  V30 10781 C 1028.49 3.36492 0.925967 0
M  V30 10782 C 1029.84 4.0455 1.28936 0
M  V30 10783 O 1030.87 3.41374 1.01698 0
M  V30 10784 O 1029.73 5.16024 1.79949 0
M  V30 10785 H 1026.82 0.768454 0.305626 0
M  V30 10786 H 1029.37 1.69217 -0.127941 0
M  V30 10787 H 1028.14 3.91282 0.0373127 0
M  V30 10788 H 1027.76 3.58443 1.7206 0
M  V30 10789 N 1028.76 -0.17846 1.56586 0
M  V30 10790 C 1029.98 -0.916061 1.86073 0
M  V30 10791 C 1030.41 -1.75349 0.680754 0
M  V30 10792 O 1029.77 -1.77479 -0.37028 0
M  V30 10793 C 1029.81 -1.77445 3.1392 0
M  V30 10794 O 1028.92 -2.87524 2.95641 0
M  V30 10795 H 1028.26 -0.257031 0.612234 0
M  V30 10796 H 1030.79 -0.178755 2.03818 0
M  V30 10797 H 1030.8 -2.1758 3.45142 0
M  V30 10798 H 1029.47 -1.15927 3.99417 0
M  V30 10799 H 1028.05 -2.51023 2.75757 0
M  V30 10800 N 1030.24 -1.51135 -0.446768 0
M  V30 10801 C 1031.47 -1.66887 -1.21788 0
M  V30 10802 C 1031.87 -0.361729 -1.8571 0
M  V30 10803 O 1031.22 0.668784 -1.71093 0
M  V30 10804 C 1031.28 -2.72062 -2.34994 0
M  V30 10805 C 1030.94 -4.14935 -1.91516 0
M  V30 10806 C 1031.94 -5.00021 -1.42389 0
M  V30 10807 C 1029.62 -4.60985 -1.99495 0
M  V30 10808 C 1031.62 -6.29216 -1.01816 0
M  V30 10809 C 1029.31 -5.90179 -1.58532 0
M  V30 10810 C 1030.3 -6.74121 -1.09774 0
M  V30 10811 O 1029.99 -8.009 -0.69389 0
M  V30 10812 H 1029.72 -0.563431 -0.373525 0
M  V30 10813 H 1032.28 -1.98261 -0.536818 0
M  V30 10814 H 1030.51 -2.35983 -3.06348 0
M  V30 10815 H 1032.2 -2.76788 -2.96889 0
M  V30 10816 H 1032.96 -4.6565 -1.35627 0
M  V30 10817 H 1028.84 -3.95777 -2.36393 0
M  V30 10818 H 1032.39 -6.94687 -0.636879 0
M  V30 10819 H 1028.28 -6.24066 -1.64962 0
M  V30 10820 H 1029.05 -8.14376 -0.820582 0
M  V30 10821 N 1031.71 0.701592 -1.41122 0
M  V30 10822 C 1032.94 1.49553 -1.43696 0
M  V30 10823 C 1033.36 1.88053 -0.0421865 0
M  V30 10824 O 1032.72 1.54223 0.953144 0
M  V30 10825 C 1032.77 2.73834 -2.34622 0
M  V30 10826 O 1031.87 3.71088 -1.7991 0
M  V30 10827 H 1031.21 0.450352 -0.487933 0
M  V30 10828 H 1033.74 0.862886 -1.85514 0
M  V30 10829 H 1033.75 3.22209 -2.5029 0
M  V30 10830 H 1032.43 2.45149 -3.35969 0
M  V30 10831 H 1031.01 3.29994 -1.73661 0
M  V30 10832 N 1033.19 1.2685 0.935242 0
M  V30 10833 C 1034.43 1.13972 1.69675 0
M  V30 10834 C 1034.8 -0.310655 1.8947 0
M  V30 10835 O 1036 -0.561692 2.62866 0
M  V30 10836 C 1034.27 1.89387 3.03096 0
M  V30 10837 S 1035.83 1.92633 3.94256 0
M  V30 10838 H 1032.64 0.407009 0.582979 0
M  V30 10839 H 1035.25 1.60653 1.11404 0
M  V30 10840 H 1033.95 2.9397 2.86374 0
M  V30 10841 H 1033.48 1.43171 3.66423 0
M  V30 10842 H 1035.5 1.01732 4.85659 0
M  V30 10843 N 1034.67 -1.14067 1.0875 0
M  V30 10844 C 1035.6 -2.21385 0.74236 0
M  V30 10845 C 1036.58 -1.67833 -0.276805 0
M  V30 10846 O 1037.77 -1.93647 -0.1464 0
M  V30 10847 C 1034.9 -3.46956 0.154644 0
M  V30 10848 C 1033.85 -4.13555 1.10255 0
M  V30 10849 C 1033.18 -5.3337 0.376877 0
M  V30 10850 C 1034.48 -4.6169 2.44213 0
M  V30 10851 H 1036.17 -2.50512 1.63964 0
M  V30 10852 H 1033.72 -1.20408 0.789807 0
M  V30 10853 H 1035.67 -4.21284 -0.0988419 0
M  V30 10854 H 1034.39 -3.17203 -0.777789 0
M  V30 10855 H 1033.05 -3.41186 1.34119 0
M  V30 10856 H 1032.7 -4.99879 -0.559472 0
M  V30 10857 H 1032.4 -5.78875 1.00884 0
M  V30 10858 H 1033.92 -6.10458 0.131527 0
M  V30 10859 H 1035.34 -5.27475 2.24595 0
M  V30 10860 H 1033.74 -5.17909 3.03134 0
M  V30 10861 H 1034.81 -3.76574 3.05483 0
M  V30 10862 N 1036.15 -0.873678 -1.31166 0
M  V30 10863 C 1037.4 -0.485497 -1.96182 0
M  V30 10864 C 1037.72 0.96621 -1.69379 0
M  V30 10865 O 1036.99 1.67783 -1.01121 0
M  V30 10866 H 1035.57 -0.176547 -0.725838 0
M  V30 10867 H 1038.23 -1.11428 -1.59906 0
M  V30 10868 H 1037.33 -0.646325 -3.05334 0
M  V30 10869 N 1037.63 1.44308 -0.633487 0
M  V30 10870 C 1038.87 2.02863 -0.14765 0
M  V30 10871 C 1039.23 1.48956 1.21778 0
M  V30 10872 O 1038.52 0.664997 1.7969 0
M  V30 10873 C 1038.71 3.57316 -0.0773886 0
M  V30 10874 C 1038.54 4.26208 -1.43446 0
M  V30 10875 C 1037.31 4.63087 -2.02184 0
M  V30 10876 C 1039.51 4.56501 -2.36879 0
M  V30 10877 N 1037.49 5.16957 -3.31102 0
M  V30 10878 C 1038.86 5.11479 -3.50413 0
M  V30 10879 C 1040.92 4.38454 -2.35929 0
M  V30 10880 C 1039.62 5.50311 -4.63196 0
M  V30 10881 C 1041.65 4.78336 -3.47777 0
M  V30 10882 C 1041.01 5.3343 -4.60035 0
M  V30 10883 H 1037.11 0.775835 -0.0980038 0
M  V30 10884 H 1039.69 1.75767 -0.837495 0
M  V30 10885 H 1037.86 3.84019 0.581743 0
M  V30 10886 H 1039.6 4.02541 0.417494 0
M  V30 10887 H 1036.35 4.47482 -1.55103 0
M  V30 10888 H 1036.78 5.48366 -3.97019 0
M  V30 10889 H 1041.42 3.9515 -1.50387 0
M  V30 10890 H 1039.14 5.92568 -5.49444 0
M  V30 10891 H 1042.72 4.66084 -3.4822 0
M  V30 10892 H 1041.6 5.63719 -5.45151 0
M  V30 10893 N 1039.1 0.374177 1.53094 0
M  V30 10894 C 1040.35 -0.212816 2.01379 0
M  V30 10895 C 1040.68 -1.48069 1.26118 0
M  V30 10896 O 1039.93 -1.92625 0.345561 0
M  V30 10897 C 1040.23 -0.542179 3.53264 0
M  V30 10898 C 1039.9 0.632375 4.46444 0
M  V30 10899 C 1038.56 0.954635 4.71636 0
M  V30 10900 C 1040.91 1.41887 5.01515 0
M  V30 10901 C 1038.24 2.06521 5.4915 0
M  V30 10902 C 1040.59 2.51993 5.80243 0
M  V30 10903 C 1039.26 2.84744 6.03719 0
M  V30 10904 H 1038.53 -0.0778749 0.736897 0
M  V30 10905 H 1041.17 0.508412 1.84628 0
M  V30 10906 H 1039.48 -1.34454 3.68007 0
M  V30 10907 H 1041.18 -1.00874 3.88105 0
M  V30 10908 H 1037.77 0.371179 4.2699 0
M  V30 10909 H 1041.95 1.18315 4.81991 0
M  V30 10910 H 1037.21 2.32284 5.65557 0
M  V30 10911 H 1041.38 3.13346 6.21922 0
M  V30 10912 H 1039.01 3.70921 6.63568 0
M  V30 10913 N 1040.58 -1.57259 0.103575 0
M  V30 10914 C 1041.81 -1.99424 -0.569638 0
M  V30 10915 C 1042.23 -0.982475 -1.60403 0
M  V30 10916 O 1041.59 0.0479231 -1.81237 0
M  V30 10917 C 1041.64 -3.40527 -1.18633 0
M  V30 10918 O 1040.74 -3.42167 -2.30208 0
M  V30 10919 H 1040.08 -0.648251 -0.143759 0
M  V30 10920 H 1042.61 -2.03739 0.187493 0
M  V30 10921 H 1042.62 -3.78404 -1.5256 0
M  V30 10922 H 1041.3 -4.13686 -0.428582 0
M  V30 10923 H 1039.88 -3.16093 -1.97837 0
M  V30 10924 N 1042.06 0.170153 -1.56679 0
M  V30 10925 C 1043.47 0.732502 -1.7173 0
M  V30 10926 C 1043.82 1.82736 -0.71428 0
M  V30 10927 O 1042.95 2.16044 0.124102 0
M  V30 10928 C 1043.54 1.33548 -3.11368 0
M  V30 10929 C 1042.1 1.84464 -3.281 0
M  V30 10930 C 1041.25 0.724069 -2.6768 0
M  V30 10931 H 1044.2 -0.0552543 -1.58604 0
M  V30 10932 H 1044.22 2.20519 -3.10083 0
M  V30 10933 H 1043.73 0.5384 -3.84347 0
M  V30 10934 H 1041.83 2.66813 -2.6008 0
M  V30 10935 H 1041.95 1.98928 -4.35849 0
M  V30 10936 H 1040.31 1.14481 -2.27522 0
M  V30 10937 H 1041.09 -0.0611861 -3.43245 0
M  V30 10938 N 1043.54 1.5137 0.438746 0
M  V30 10939 C 1044.79 1.63645 1.18595 0
M  V30 10940 C 1045.11 0.354241 1.91755 0
M  V30 10941 O 1044.38 -0.629838 1.85499 0
M  V30 10942 H 1042.96 0.603103 0.440767 0
M  V30 10943 H 1045.62 1.88293 0.503159 0
M  V30 10944 H 1044.72 2.46342 1.9163 0
M  V30 10945 N 1045.02 -0.694098 1.41492 0
M  V30 10946 C 1045.95 -1.81943 1.39389 0
M  V30 10947 C 1046.96 -1.6009 0.295836 0
M  V30 10948 O 1048.15 -1.69565 0.557658 0
M  V30 10949 C 1045.25 -3.18731 1.15167 0
M  V30 10950 C 1044.42 -3.67601 2.37041 0
M  V30 10951 C 1043.48 -4.83063 2.08654 0
M  V30 10952 O 1042.51 -4.94603 2.81704 0
M  V30 10953 N 1043.71 -5.70409 1.0777 0
M  V30 10954 H 1046.48 -1.84239 2.36381 0
M  V30 10955 H 1044.04 -0.876475 1.36123 0
M  V30 10956 H 1046.03 -3.93602 0.941264 0
M  V30 10957 H 1044.6 -3.11452 0.267673 0
M  V30 10958 H 1043.82 -2.83622 2.73774 0
M  V30 10959 H 1045.11 -3.96991 3.18239 0
M  V30 10960 H 1044.5 -5.63718 0.473123 0
M  V30 10961 H 1043.06 -6.45172 0.927177 0
M  V30 10962 N 1046.49 -1.27344 -0.928501 0
M  V30 10963 C 1047.74 -1.13804 -1.67859 0
M  V30 10964 C 1048.07 0.31555 -1.91619 0
M  V30 10965 O 1047.35 1.23087 -1.50599 0
M  V30 10966 C 1047.63 -1.9213 -3.04562 0
M  V30 10967 C 1047.48 -3.45468 -2.88048 0
M  V30 10968 C 1048.8 -1.72513 -4.04879 0
M  V30 10969 H 1045.92 -0.414796 -0.609191 0
M  V30 10970 H 1048.56 -1.5649 -1.07753 0
M  V30 10971 H 1046.71 -1.55853 -3.55868 0
M  V30 10972 H 1048.39 -3.9157 -2.43865 0
M  V30 10973 H 1046.63 -3.71849 -2.23407 0
M  V30 10974 H 1047.3 -3.95515 -3.85061 0
M  V30 10975 H 1049.78 -2.04143 -3.62581 0
M  V30 10976 H 1048.65 -2.29713 -4.98521 0
M  V30 10977 H 1048.91 -0.672856 -4.3695 0
M  V30 10978 N 1047.97 1.13488 -1.09353 0
M  V30 10979 C 1049.22 1.84748 -0.829126 0
M  V30 10980 C 1049.55 1.83485 0.645247 0
M  V30 10981 O 1048.8 1.26767 1.49093 0
M  V30 10982 C 1049.1 3.32584 -1.30854 0
M  V30 10983 C 1048.77 3.54028 -2.7924 0
M  V30 10984 C 1047.43 3.59588 -3.19765 0
M  V30 10985 C 1049.78 3.62058 -3.74918 0
M  V30 10986 C 1047.11 3.70712 -4.54741 0
M  V30 10987 C 1049.46 3.7471 -5.09682 0
M  V30 10988 C 1048.13 3.78523 -5.49797 0
M  V30 10989 H 1047.4 0.67604 -0.303399 0
M  V30 10990 H 1050.04 1.33989 -1.36818 0
M  V30 10991 H 1048.35 3.85689 -0.689275 0
M  V30 10992 H 1050.04 3.86166 -1.08059 0
M  V30 10993 H 1046.63 3.50354 -2.4688 0
M  V30 10994 H 1050.82 3.57043 -3.44723 0
M  V30 10995 H 1046.07 3.71931 -4.8526 0
M  V30 10996 H 1050.25 3.79866 -5.83674 0
M  V30 10997 H 1047.88 3.86895 -6.54382 0
M  V30 10998 N 1049.45 0.880621 1.30701 0
M  V30 10999 C 1050.7 0.497611 1.966 0
M  V30 11000 C 1051.03 -0.949901 1.69383 0
M  V30 11001 O 1050.31 -1.67054 0.996152 0
M  V30 11002 C 1050.59 0.767919 3.51817 0
M  V30 11003 C 1050.44 2.26574 3.88567 0
M  V30 11004 C 1051.76 0.241502 4.39437 0
M  V30 11005 H 1048.88 0.182267 0.714106 0
M  V30 11006 H 1051.52 1.10382 1.54648 0
M  V30 11007 H 1049.67 0.251967 3.87682 0
M  V30 11008 H 1051.34 2.84977 3.62748 0
M  V30 11009 H 1049.59 2.73411 3.36792 0
M  V30 11010 H 1050.26 2.40549 4.9683 0
M  V30 11011 H 1052.73 0.683051 4.10455 0
M  V30 11012 H 1051.61 0.459997 5.46969 0
M  V30 11013 H 1051.87 -0.857068 4.33713 0
M  V30 11014 N 1050.93 -1.4397 0.641131 0
M  V30 11015 C 1051.86 -2.33458 -0.04446 0
M  V30 11016 C 1052.84 -1.48781 -0.824507 0
M  V30 11017 O 1054.03 -1.77477 -0.788397 0
M  V30 11018 C 1051.16 -3.31989 -1.01984 0
M  V30 11019 C 1050.11 -4.2656 -0.350745 0
M  V30 11020 C 1049.44 -5.15036 -1.43673 0
M  V30 11021 C 1050.74 -5.16897 0.749299 0
M  V30 11022 H 1052.43 -2.91034 0.702832 0
M  V30 11023 H 1049.98 -1.39942 0.339435 0
M  V30 11024 H 1051.93 -3.93483 -1.50828 0
M  V30 11025 H 1050.65 -2.72643 -1.79815 0
M  V30 11026 H 1049.31 -3.66413 0.117139 0
M  V30 11027 H 1048.96 -4.52037 -2.20617 0
M  V30 11028 H 1048.66 -5.79125 -0.994358 0
M  V30 11029 H 1050.18 -5.79403 -1.92678 0
M  V30 11030 H 1051.6 -5.7227 0.343534 0
M  V30 11031 H 1049.99 -5.89643 1.11541 0
M  V30 11032 H 1051.06 -4.5731 1.61232 0
M  V30 11033 N 1052.41 -0.382291 -1.52893 0
M  V30 11034 C 1053.68 0.259354 -1.93873 0
M  V30 11035 C 1054.06 1.64964 -1.3172 0
M  V30 11036 O 1053.41 2.23345 -0.482611 0
M  V30 11037 C 1053.62 0.292765 -3.4777 0
M  V30 11038 C 1054.97 0.525095 -4.21341 0
M  V30 11039 O 1055.99 0.373272 -3.54239 0
M  V30 11040 O 1054.85 0.822004 -5.40283 0
M  V30 11041 H 1051.95 0.159422 -0.811489 0
M  V30 11042 H 1054.49 -0.436289 -1.63996 0
M  V30 11043 H 1053.27 -0.681341 -3.85323 0
M  V30 11044 H 1052.89 1.03362 -3.8393 0
M  V30 11045 N 1053.89 1.57202 -0.111913 0
M  V30 11046 C 1054.8 2.18475 0.854753 0
M  V30 11047 C 1055.81 1.15888 1.29792 0
M  V30 11048 O 1056.99 1.48329 1.36237 0
M  V30 11049 C 1054.05 2.76645 2.0897 0
M  V30 11050 C 1053.11 3.94244 1.69913 0
M  V30 11051 C 1052.35 4.49631 2.8752 0
M  V30 11052 O 1052.57 4.03926 4.02741 0
M  V30 11053 O 1051.5 5.40417 2.65015 0
M  V30 11054 H 1055.33 3.01519 0.363352 0
M  V30 11055 H 1052.91 1.4897 0.113329 0
M  V30 11056 H 1054.8 3.13755 2.81311 0
M  V30 11057 H 1053.47 1.96637 2.5713 0
M  V30 11058 H 1052.38 3.61915 0.947013 0
M  V30 11059 H 1053.71 4.75666 1.26501 0
M  V30 11060 N 1055.36 -0.161842 1.56767 0
M  V30 11061 C 1056.59 -0.890953 1.86402 0
M  V30 11062 C 1057 -1.75918 0.696373 0
M  V30 11063 O 1056.34 -1.80461 -0.343463 0
M  V30 11064 C 1056.41 -1.81079 3.10565 0
M  V30 11065 C 1056.07 -1.12121 4.43032 0
M  V30 11066 C 1057.07 -0.482152 5.17659 0
M  V30 11067 C 1054.75 -1.11514 4.89765 0
M  V30 11068 C 1056.75 0.153772 6.37214 0
M  V30 11069 C 1054.43 -0.4754 6.09248 0
M  V30 11070 C 1055.43 0.157944 6.82817 0
M  V30 11071 O 1055.12 0.787579 8.00033 0
M  V30 11072 H 1054.85 -0.26379 0.622407 0
M  V30 11073 H 1057.41 -0.163884 2.04745 0
M  V30 11074 H 1055.64 -2.57842 2.88192 0
M  V30 11075 H 1057.32 -2.41056 3.26568 0
M  V30 11076 H 1058.09 -0.478752 4.82631 0
M  V30 11077 H 1053.97 -1.59752 4.32435 0
M  V30 11078 H 1057.51 0.648716 6.94577 0
M  V30 11079 H 1053.41 -0.476416 6.43739 0
M  V30 11080 H 1054.18 0.687769 8.15605 0
M  V30 11081 N 1056.84 -1.516 -0.430713 0
M  V30 11082 C 1058.08 -1.6626 -1.18899 0
M  V30 11083 C 1058.45 -0.373877 -1.88325 0
M  V30 11084 O 1059.65 -0.39632 -2.65862 0
M  V30 11085 C 1057.92 -2.83693 -2.17378 0
M  V30 11086 S 1059.48 -3.18717 -3.01604 0
M  V30 11087 H 1056.29 -0.585681 -0.403112 0
M  V30 11088 H 1058.9 -1.89528 -0.479538 0
M  V30 11089 H 1057.6 -3.75759 -1.65025 0
M  V30 11090 H 1057.13 -2.62634 -2.92894 0
M  V30 11091 H 1059.15 -2.65665 -4.1909 0
M  V30 11092 N 1058.32 0.686584 -1.41858 0
M  V30 11093 C 1059.28 1.78214 -1.44126 0
M  V30 11094 C 1060.28 1.57366 -0.330541 0
M  V30 11095 O 1061.47 1.63874 -0.590837 0
M  V30 11096 C 1058.6 3.16704 -1.26142 0
M  V30 11097 H 1059.8 1.77594 -2.41661 0
M  V30 11098 H 1057.35 0.895085 -1.28132 0
M  V30 11099 H 1058.09 3.22957 -0.294823 0
M  V30 11100 H 1057.87 3.33238 -2.06627 0
M  V30 11101 H 1059.36 3.96658 -1.30584 0
M  V30 11102 N 1059.8 1.27835 0.921735 0
M  V30 11103 C 1061.21 1.05369 1.19873 0
M  V30 11104 C 1061.41 -0.208997 2.00413 0
M  V30 11105 O 1060.47 -0.912861 2.35421 0
M  V30 11106 C 1061.78 2.29658 1.94108 0
M  V30 11107 C 1063.33 2.34756 2.07023 0
M  V30 11108 C 1063.81 3.5879 2.84664 0
M  V30 11109 N 1065.3 3.59383 2.9223 0
M  V30 11110 C 1066.03 4.52029 3.52785 0
M  V30 11111 N 1065.53 5.54986 4.14683 0
M  V30 11112 N 1067.32 4.39641 3.50246 0
M  V30 11113 H 1059.47 2.08903 0.383819 0
M  V30 11114 H 1061.73 0.919065 0.232429 0
M  V30 11115 H 1061.44 3.21604 1.4235 0
M  V30 11116 H 1061.31 2.35444 2.94696 0
M  V30 11117 H 1063.7 1.43312 2.57965 0
M  V30 11118 H 1063.78 2.32969 1.05636 0
M  V30 11119 H 1063.43 4.50574 2.34404 0
M  V30 11120 H 1063.36 3.57829 3.86349 0
M  V30 11121 H 1065.85 2.84927 2.48244 0
M  V30 11122 H 1066.16 6.21837 4.58845 0
M  V30 11123 H 1064.51 5.58822 4.13211 0
M  V30 11124 H 1067.7 3.58413 3.01094 0
M  V30 11125 H 1067.87 5.12033 3.97148 0
M  V30 11126 N 1061.28 -1.12907 1.09954 0
M  V30 11127 C 1062.22 -2.20561 0.73863 0
M  V30 11128 C 1063.22 -1.67347 -0.262944 0
M  V30 11129 O 1064.42 -1.79574 -0.123834 0
M  V30 11130 H 1060.8 -0.718823 0.220901 0
M  V30 11131 H 1062.77 -2.4826 1.65559 0
M  V30 11132 C 1061.52 -3.47227 0.181239 0
M  V30 11133 H 1060.84 -3.88516 0.943144 0
M  V30 11134 H 1062.28 -4.23987 -0.0332888 0
M  V30 11135 C 1060.74 -3.18956 -1.08485 0
M  V30 11136 O 1061.27 -3.38224 -2.1672 0
M  V30 11137 N 1059.48 -2.72797 -1.00151 0
M  V30 11138 H 1059.02 -2.57317 -0.120645 0
M  V30 11139 H 1058.98 -2.54256 -1.84935 0
M  V30 11140 N 1062.75 -0.88754 -1.30232 0
M  V30 11141 C 1064 -0.506277 -1.95656 0
M  V30 11142 C 1064.32 0.948191 -1.70395 0
M  V30 11143 O 1063.59 1.66701 -1.02895 0
M  V30 11144 H 1062.17 -0.184235 -0.723924 0
M  V30 11145 H 1064.83 -1.13118 -1.58715 0
M  V30 11146 H 1063.93 -0.678673 -3.04632 0
M  V30 11147 N 1064.23 1.43628 -0.648757 0
M  V30 11148 C 1065.48 2.02163 -0.160574 0
M  V30 11149 C 1065.81 1.51037 1.22072 0
M  V30 11150 O 1065.09 0.701633 1.81404 0
M  V30 11151 C 1065.37 3.59715 -0.166528 0
M  V30 11152 C 1065.22 4.21083 -1.58142 0
M  V30 11153 C 1066.54 4.37256 0.499485 0
M  V30 11154 H 1063.66 0.734568 -0.0598238 0
M  V30 11155 H 1066.3 1.70981 -0.828592 0
M  V30 11156 H 1064.45 3.86411 0.402302 0
M  V30 11157 H 1066.12 4.05433 -2.2005 0
M  V30 11158 H 1064.37 3.77904 -2.13005 0
M  V30 11159 H 1065.04 5.30156 -1.53748 0
M  V30 11160 H 1067.51 4.16097 0.0155561 0
M  V30 11161 H 1066.39 5.4693 0.464574 0
M  V30 11162 H 1066.65 4.13175 1.57286 0
M  V30 11163 N 1065.71 0.390394 1.52688 0
M  V30 11164 C 1067.13 0.0404028 1.59549 0
M  V30 11165 C 1067.33 -1.44503 1.40432 0
M  V30 11166 O 1066.38 -2.20968 1.22187 0
M  V30 11167 C 1067.7 0.518561 2.96195 0
M  V30 11168 C 1069.24 0.474913 3.09376 0
M  V30 11169 C 1069.72 0.929278 4.48473 0
M  V30 11170 N 1071.21 0.885335 4.5466 0
M  V30 11171 C 1071.94 1.2083 5.60524 0
M  V30 11172 N 1071.44 1.6018 6.74028 0
M  V30 11173 N 1073.23 1.12949 5.50635 0
M  V30 11174 H 1065.38 1.35743 1.63363 0
M  V30 11175 H 1067.65 0.556453 0.767505 0
M  V30 11176 H 1067.35 1.55606 3.15404 0
M  V30 11177 H 1067.23 -0.081779 3.77111 0
M  V30 11178 H 1069.61 -0.553503 2.89863 0
M  V30 11179 H 1069.7 1.11107 2.3041 0
M  V30 11180 H 1069.34 1.95593 4.68728 0
M  V30 11181 H 1069.27 0.270121 5.25907 0
M  V30 11182 H 1071.76 0.595787 3.73174 0
M  V30 11183 H 1072.07 1.83184 7.50775 0
M  V30 11184 H 1070.42 1.64067 6.75357 0
M  V30 11185 H 1073.61 0.821074 4.60843 0
M  V30 11186 H 1073.78 1.3845 6.33037 0
M  V30 11187 N 1067.19 -1.57141 0.120249 0
M  V30 11188 C 1068.44 -1.94852 -0.536387 0
M  V30 11189 C 1068.76 -1.00452 -1.67136 0
M  V30 11190 O 1068.03 -0.061053 -1.95805 0
M  V30 11191 H 1066.61 -0.719411 -0.201138 0
M  V30 11192 H 1069.27 -1.93977 0.189482 0
M  V30 11193 H 1068.37 -2.97917 -0.930145 0
M  V30 11194 N 1068.67 0.153526 -1.5685 0
M  V30 11195 C 1069.91 0.873522 -1.84794 0
M  V30 11196 C 1070.27 1.78642 -0.703648 0
M  V30 11197 O 1071.47 2.54537 -0.863972 0
M  V30 11198 C 1069.74 1.63316 -3.17904 0
M  V30 11199 S 1071.3 2.39948 -3.67383 0
M  V30 11200 H 1068.12 0.292233 -0.648167 0
M  V30 11201 H 1070.72 0.133949 -1.95041 0
M  V30 11202 H 1069.43 0.95387 -3.99161 0
M  V30 11203 H 1068.96 2.41377 -3.10646 0
M  V30 11204 H 1070.97 3.65011 -3.36127 0
M  V30 11205 N 1070.14 1.51827 0.422667 0
M  V30 11206 C 1071.09 1.7058 1.51282 0
M  V30 11207 C 1072.08 0.5597 1.50851 0
M  V30 11208 O 1073.27 0.816223 1.57057 0
M  V30 11209 C 1070.4 1.84759 2.89342 0
M  V30 11210 C 1069.49 3.05199 2.94473 0
M  V30 11211 N 1069.88 4.28135 2.69322 0
M  V30 11212 C 1068.17 3.04755 3.25638 0
M  V30 11213 C 1068.88 5.09507 2.80674 0
M  V30 11214 N 1067.85 4.44464 3.12974 0
M  V30 11215 H 1071.65 2.63283 1.30611 0
M  V30 11216 H 1069.17 1.49674 0.630191 0
M  V30 11217 H 1071.16 1.96308 3.67789 0
M  V30 11218 H 1069.82 0.932478 3.11022 0
M  V30 11219 H 1070.84 4.56835 2.43972 0
M  V30 11220 H 1067.51 2.2293 3.52999 0
M  V30 11221 H 1068.9 6.17409 2.65058 0
M  V30 11222 N 1071.62 -0.679052 1.4222 0
M  V30 11223 C 1073.04 -0.991665 1.25053 0
M  V30 11224 C 1073.24 -2.00928 0.151665 0
M  V30 11225 O 1072.29 -2.47925 -0.478507 0
M  V30 11226 C 1073.61 -1.50053 2.60585 0
M  V30 11227 C 1075.16 -1.61852 2.67905 0
M  V30 11228 C 1075.63 -2.16135 4.03794 0
M  V30 11229 N 1077.12 -2.23474 4.05726 0
M  V30 11230 C 1077.86 -2.66541 5.07685 0
M  V30 11231 N 1077.35 -3.09092 6.20028 0
M  V30 11232 N 1079.15 -2.66252 4.95042 0
M  V30 11233 H 1071.3 -0.00521851 2.12399 0
M  V30 11234 H 1073.56 -0.0648465 0.94578 0
M  V30 11235 H 1073.27 -0.82731 3.41831 0
M  V30 11236 H 1073.14 -2.47998 2.84213 0
M  V30 11237 H 1075.53 -2.28281 1.87008 0
M  V30 11238 H 1075.61 -0.624074 2.4807 0
M  V30 11239 H 1075.25 -1.50316 4.85147 0
M  V30 11240 H 1075.18 -3.16363 4.20978 0
M  V30 11241 H 1077.67 -1.93467 3.24621 0
M  V30 11242 H 1077.99 -3.40627 6.93681 0
M  V30 11243 H 1076.33 -3.06959 6.23539 0
M  V30 11244 H 1079.52 -2.32369 4.06352 0
M  V30 11245 H 1079.69 -2.99496 5.74636 0
M  V30 11246 N 1073.1 -1.28322 -0.914942 0
M  V30 11247 C 1074.05 -1.08788 -2.00373 0
M  V30 11248 C 1075.03 -0.0118996 -1.60896 0
M  V30 11249 O 1076.23 -0.231902 -1.75474 0
M  V30 11250 C 1073.36 -0.750508 -3.34996 0
M  V30 11251 C 1072.44 -1.86527 -3.80879 0
M  V30 11252 N 1072.83 -3.10672 -3.99145 0
M  V30 11253 C 1071.13 -1.75485 -4.10026 0
M  V30 11254 C 1071.83 -3.833 -4.37557 0
M  V30 11255 N 1070.81 -3.11141 -4.45749 0
M  V30 11256 H 1074.61 -2.02984 -2.12544 0
M  V30 11257 H 1072.12 -1.19224 -1.1027 0
M  V30 11258 H 1074.12 -0.591644 -4.1268 0
M  V30 11259 H 1072.78 0.183696 -3.2418 0
M  V30 11260 H 1073.79 -3.46295 -3.85097 0
M  V30 11261 H 1070.47 -0.89234 -4.07852 0
M  V30 11262 H 1071.86 -4.90061 -4.59662 0
M  V30 11263 N 1074.58 1.12322 -1.10551 0
M  V30 11264 C 1075.51 2.20176 -0.777486 0
M  V30 11265 C 1076.49 1.68252 0.250069 0
M  V30 11266 O 1077.67 1.93856 0.115574 0
M  V30 11267 C 1074.8 3.46666 -0.209822 0
M  V30 11268 C 1073.76 4.11749 -1.1682 0
M  V30 11269 C 1073.08 5.32703 -0.461684 0
M  V30 11270 C 1074.38 4.57746 -2.51527 0
M  V30 11271 H 1076.08 2.47872 -1.67928 0
M  V30 11272 H 1073.62 1.19136 -0.808863 0
M  V30 11273 H 1075.58 4.21388 0.0318068 0
M  V30 11274 H 1074.3 3.18401 0.727226 0
M  V30 11275 H 1072.96 3.39009 -1.3953 0
M  V30 11276 H 1072.61 5.00706 0.479875 0
M  V30 11277 H 1072.31 5.77197 -1.1008 0
M  V30 11278 H 1073.83 6.10172 -0.228629 0
M  V30 11279 H 1075.25 5.23835 -2.32958 0
M  V30 11280 H 1073.64 5.13021 -3.11335 0
M  V30 11281 H 1074.71 3.71667 -3.11435 0
M  V30 11282 N 1076.06 0.894434 1.2976 0
M  V30 11283 C 1077.3 0.524501 1.97556 0
M  V30 11284 C 1077.66 -0.911202 1.69 0
M  V30 11285 O 1078.86 -1.38774 2.30207 0
M  V30 11286 C 1077.13 0.802636 3.48271 0
M  V30 11287 S 1078.69 0.536223 4.35511 0
M  V30 11288 H 1075.51 0.194786 0.683798 0
M  V30 11289 H 1078.11 1.15574 1.5768 0
M  V30 11290 H 1076.82 1.84586 3.66546 0
M  V30 11291 H 1076.35 0.159316 3.93077 0
M  V30 11292 H 1078.36 -0.621056 4.92298 0
M  V30 11293 N 1077.53 -1.43282 0.656365 0
M  V30 11294 C 1078.76 -2.05826 0.178619 0
M  V30 11295 C 1079.17 -1.493 -1.16216 0
M  V30 11296 O 1078.52 -0.620163 -1.72915 0
M  V30 11297 C 1078.58 -3.59496 0.0164101 0
M  V30 11298 C 1078.24 -4.38621 1.28298 0
M  V30 11299 C 1079.24 -4.70477 2.21241 0
M  V30 11300 C 1076.92 -4.78577 1.52544 0
M  V30 11301 C 1078.92 -5.412 3.36721 0
M  V30 11302 C 1076.6 -5.49044 2.68316 0
M  V30 11303 C 1077.6 -5.80279 3.6023 0
M  V30 11304 O 1077.29 -6.49306 4.7398 0
M  V30 11305 H 1077.02 -0.670158 0.0886814 0
M  V30 11306 H 1079.58 -1.84722 0.89816 0
M  V30 11307 H 1077.81 -3.79188 -0.758532 0
M  V30 11308 H 1079.5 -4.03731 -0.419096 0
M  V30 11309 H 1080.26 -4.40125 2.03753 0
M  V30 11310 H 1076.14 -4.5367 0.818816 0
M  V30 11311 H 1079.68 -5.65497 4.08483 0
M  V30 11312 H 1075.58 -5.78813 2.85738 0
M  V30 11313 H 1076.35 -6.67789 4.73286 0
M  V30 11314 N 1079.01 -0.398486 -1.52479 0
M  V30 11315 C 1079.94 0.423498 -2.29627 0
M  V30 11316 C 1080.92 1.05547 -1.33394 0
M  V30 11317 O 1082.11 1.0665 -1.62294 0
M  V30 11318 C 1079.24 1.54612 -3.10986 0
M  V30 11319 C 1078.19 1.03971 -4.15179 0
M  V30 11320 C 1077.52 2.25512 -4.84818 0
M  V30 11321 C 1078.82 0.10121 -5.22202 0
M  V30 11322 H 1080.51 -0.220222 -2.98589 0
M  V30 11323 H 1078.06 -0.107355 -1.43599 0
M  V30 11324 H 1080.01 2.12806 -3.63719 0
M  V30 11325 H 1078.74 2.21756 -2.39774 0
M  V30 11326 H 1077.4 0.480251 -3.63441 0
M  V30 11327 H 1077.04 2.91187 -4.10145 0
M  V30 11328 H 1076.74 1.92285 -5.55248 0
M  V30 11329 H 1078.27 2.84331 -5.40359 0
M  V30 11330 H 1079.68 0.591617 -5.70239 0
M  V30 11331 H 1078.08 -0.141737 -5.99933 0
M  V30 11332 H 1079.15 -0.847216 -4.77441 0
M  V30 11333 N 1080.49 1.57075 -0.12858 0
M  V30 11334 C 1081.91 1.57964 0.227961 0
M  V30 11335 C 1082.11 1.14186 1.66023 0
M  V30 11336 O 1081.16 0.833655 2.38341 0
M  V30 11337 C 1082.48 3.00697 -0.0140648 0
M  V30 11338 C 1084.02 3.12958 0.0510876 0
M  V30 11339 C 1084.5 4.57709 -0.163368 0
M  V30 11340 N 1085.99 4.6307 -0.109663 0
M  V30 11341 C 1086.73 5.72853 -0.250366 0
M  V30 11342 N 1086.22 6.91351 -0.447772 0
M  V30 11343 N 1088.01 5.61781 -0.189265 0
M  V30 11344 H 1080.17 1.83829 -1.06398 0
M  V30 11345 H 1082.43 0.850014 -0.419739 0
M  V30 11346 H 1082.13 3.37047 -1.00461 0
M  V30 11347 H 1082.01 3.70389 0.713571 0
M  V30 11348 H 1084.4 2.7646 1.03216 0
M  V30 11349 H 1084.48 2.4579 -0.708583 0
M  V30 11350 H 1084.12 4.94907 -1.14146 0
M  V30 11351 H 1084.05 5.2298 0.616405 0
M  V30 11352 H 1086.54 3.7788 0.0390086 0
M  V30 11353 H 1086.85 7.70871 -0.54574 0
M  V30 11354 H 1085.2 6.93314 -0.483866 0
M  V30 11355 H 1088.39 4.68086 -0.0359374 0
M  V30 11356 H 1088.56 6.47294 -0.302359 0
M  V30 11357 N 1081.97 -0.145205 1.5693 0
M  V30 11358 C 1083.25 -0.88631 1.74367 0
M  V30 11359 C 1083.63 -1.99259 0.697081 0
M  V30 11360 O 1082.97 -2.26732 -0.28368 0
M  V30 11361 C 1083.18 -1.42712 3.18488 0
M  V30 11362 C 1084.53 -1.88982 3.80225 0
M  V30 11363 O 1085.56 -1.5245 3.21928 0
M  V30 11364 O 1084.42 -2.56361 4.8264 0
M  V30 11365 H 1081.51 -0.418979 0.713011 0
M  V30 11366 H 1084.06 -0.130991 1.69194 0
M  V30 11367 H 1082.83 -0.632165 3.8616 0
M  V30 11368 H 1082.45 -2.24589 3.28094 0
M  V30 11369 N 1083.45 -1.52049 -0.414609 0
M  V30 11370 C 1084.38 -1.77956 -1.51175 0
M  V30 11371 C 1085.36 -0.630282 -1.57992 0
M  V30 11372 O 1086.54 -0.875324 -1.73354 0
M  V30 11373 C 1083.67 -1.92527 -2.89051 0
M  V30 11374 C 1082.63 -3.08096 -2.97087 0
M  V30 11375 C 1081.95 -3.07882 -4.37164 0
M  V30 11376 C 1083.25 -4.47656 -2.69075 0
M  V30 11377 H 1084.95 -2.69827 -1.29746 0
M  V30 11378 H 1082.49 -1.29839 -0.62273 0
M  V30 11379 H 1084.45 -2.09234 -3.65786 0
M  V30 11380 H 1083.17 -0.973235 -3.11762 0
M  V30 11381 H 1081.83 -2.91131 -2.22797 0
M  V30 11382 H 1081.48 -2.10411 -4.56877 0
M  V30 11383 H 1081.18 -3.85501 -4.43467 0
M  V30 11384 H 1082.7 -3.26712 -5.15841 0
M  V30 11385 H 1084.12 -4.64855 -3.35534 0
M  V30 11386 H 1082.51 -5.27151 -2.8676 0
M  V30 11387 H 1083.58 -4.56129 -1.64544 0
M  V30 11388 N 1084.93 0.6715 -1.42579 0
M  V30 11389 C 1085.86 1.79693 -1.49107 0
M  V30 11390 C 1086.84 1.66516 -0.347338 0
M  V30 11391 O 1088.02 1.85887 -0.562094 0
M  V30 11392 C 1085.15 3.1801 -1.39596 0
M  V30 11393 C 1084.11 3.45926 -2.5203 0
M  V30 11394 C 1083.43 4.83852 -2.27577 0
M  V30 11395 C 1084.73 3.4249 -3.94333 0
M  V30 11396 H 1086.43 1.74486 -2.433 0
M  V30 11397 H 1083.97 0.838042 -1.17102 0
M  V30 11398 H 1085.92 3.96478 -1.42771 0
M  V30 11399 H 1084.65 3.23901 -0.418989 0
M  V30 11400 H 1083.31 2.6982 -2.48178 0
M  V30 11401 H 1082.96 4.86398 -1.28165 0
M  V30 11402 H 1082.66 5.03493 -3.02934 0
M  V30 11403 H 1084.18 5.646 -2.32506 0
M  V30 11404 H 1085.59 4.10922 -3.9977 0
M  V30 11405 H 1083.99 3.73666 -4.69568 0
M  V30 11406 H 1085.06 2.41002 -4.20768 0
M  V30 11407 N 1086.4 1.28806 0.908124 0
M  V30 11408 C 1087.31 1.15079 2.04436 0
M  V30 11409 C 1088.33 0.076012 1.73834 0
M  V30 11410 O 1089.51 0.286421 1.99353 0
M  V30 11411 C 1086.57 0.819733 3.3687 0
M  V30 11412 C 1085.63 1.97746 3.81045 0
M  V30 11413 C 1084.86 1.66211 5.07158 0
M  V30 11414 O 1085.09 0.579092 5.67453 0
M  V30 11415 O 1084.02 2.5075 5.47182 0
M  V30 11416 H 1087.85 2.10477 2.18937 0
M  V30 11417 H 1085.43 1.08177 1.03044 0
M  V30 11418 H 1087.31 0.649304 4.16368 0
M  V30 11419 H 1085.99 -0.10454 3.23531 0
M  V30 11420 H 1084.9 2.20308 3.02349 0
M  V30 11421 H 1086.23 2.88264 3.98955 0
M  V30 11422 N 1087.88 -1.11734 1.11145 0
M  V30 11423 C 1089.3 -1.35412 0.844736 0
M  V30 11424 C 1089.5 -1.94347 -0.532111 0
M  V30 11425 O 1088.55 -2.17443 -1.28353 0
M  V30 11426 C 1089.87 -2.28869 1.95037 0
M  V30 11427 C 1091.41 -2.42442 1.97967 0
M  V30 11428 C 1091.89 -3.39219 3.07725 0
M  V30 11429 N 1093.38 -3.4678 3.07079 0
M  V30 11430 C 1094.12 -4.21595 3.88646 0
M  V30 11431 N 1093.61 -4.99411 4.80167 0
M  V30 11432 N 1095.4 -4.17075 3.76835 0
M  V30 11433 H 1087.56 -0.718412 1.99881 0
M  V30 11434 H 1089.82 -0.378787 0.869037 0
M  V30 11435 H 1089.52 -1.92752 2.94176 0
M  V30 11436 H 1089.4 -3.2906 1.84389 0
M  V30 11437 H 1091.79 -2.77835 0.994561 0
M  V30 11438 H 1091.87 -1.42113 2.12691 0
M  V30 11439 H 1091.51 -3.04553 4.0646 0
M  V30 11440 H 1091.44 -4.39394 2.90242 0
M  V30 11441 H 1093.93 -2.91272 2.40767 0
M  V30 11442 H 1094.24 -5.53856 5.38946 0
M  V30 11443 H 1092.59 -4.98582 4.84191 0
M  V30 11444 H 1095.78 -3.55369 3.04681 0
M  V30 11445 H 1095.95 -4.75125 4.40637 0
M  V30 11446 N 1089.36 -0.901303 -1.29284 0
M  V30 11447 C 1090.32 -0.385081 -2.25942 0
M  V30 11448 C 1091.32 0.481626 -1.53418 0
M  V30 11449 O 1092.51 0.286451 -1.71829 0
M  V30 11450 C 1089.64 0.449319 -3.37926 0
M  V30 11451 H 1090.84 -1.23877 -2.7312 0
M  V30 11452 H 1088.39 -0.679586 -1.40753 0
M  V30 11453 H 1089.13 1.32292 -2.9609 0
M  V30 11454 H 1088.91 -0.171731 -3.91724 0
M  V30 11455 H 1090.4 0.801746 -4.09831 0
M  V30 11456 N 1090.84 1.42931 -0.663954 0
M  V30 11457 C 1091.75 2.3459 0.0214234 0
M  V30 11458 C 1092.76 1.54487 0.800611 0
M  V30 11459 O 1093.94 1.87098 0.74541 0
M  V30 11460 C 1091 3.32896 0.968556 0
M  V30 11461 C 1090.07 4.28901 0.185108 0
M  V30 11462 C 1089.3 5.2251 1.08713 0
M  V30 11463 O 1089.52 5.20795 2.32655 0
M  V30 11464 O 1088.46 5.99347 0.553758 0
M  V30 11465 H 1092.28 2.94714 -0.733308 0
M  V30 11466 H 1089.87 1.43252 -0.424159 0
M  V30 11467 H 1091.75 3.93318 1.51257 0
M  V30 11468 H 1090.42 2.75261 1.70333 0
M  V30 11469 H 1089.33 3.71926 -0.402752 0
M  V30 11470 H 1090.66 4.89547 -0.510319 0
M  V30 11471 N 1092.32 0.406567 1.52266 0
M  V30 11472 C 1093.26 -0.43489 2.28498 0
M  V30 11473 C 1094.26 -1.04806 1.33086 0
M  V30 11474 O 1095.46 -0.986557 1.50556 0
M  V30 11475 H 1091.84 -0.159023 0.734994 0
M  V30 11476 H 1093.81 0.229316 2.97518 0
M  V30 11477 C 1092.56 -1.54073 3.117 0
M  V30 11478 H 1091.88 -1.07824 3.84986 0
M  V30 11479 H 1093.32 -2.10337 3.6815 0
M  V30 11480 C 1091.78 -2.50662 2.251 0
M  V30 11481 O 1092.31 -3.54486 1.88951 0
M  V30 11482 N 1090.52 -2.20811 1.8892 0
M  V30 11483 H 1090.06 -1.36413 2.18516 0
M  V30 11484 H 1090.02 -2.85684 1.3127 0
M  V30 11485 N 1093.79 -1.57004 0.136909 0
M  V30 11486 C 1095.04 -1.9541 -0.51569 0
M  V30 11487 C 1095.36 -1.02219 -1.66061 0
M  V30 11488 O 1094.63 -0.0818172 -1.95729 0
M  V30 11489 H 1093.21 -0.721504 -0.193497 0
M  V30 11490 H 1095.88 -1.93765 0.210046 0
M  V30 11491 H 1094.97 -2.98887 -0.898494 0
M  V30 11492 N 1095.27 0.136881 -1.57004 0
M  V30 11493 C 1096.24 1.15267 -1.98106 0
M  V30 11494 C 1097.24 1.35305 -0.868856 0
M  V30 11495 O 1098.43 1.32126 -1.13527 0
M  V30 11496 C 1095.56 2.51092 -2.30577 0
M  V30 11497 H 1096.75 0.799821 -2.89038 0
M  V30 11498 H 1094.3 0.380576 -1.51596 0
M  V30 11499 H 1095.04 2.9133 -1.42469 0
M  V30 11500 H 1094.82 2.37906 -3.11678 0
M  V30 11501 H 1096.31 3.24232 -2.63179 0
M  V30 11502 N 1096.75 1.52266 0.40654 0
M  V30 11503 C 1097.68 1.70519 1.51653 0
M  V30 11504 C 1098.66 0.552798 1.52915 0
M  V30 11505 O 1099.85 0.780468 1.71584 0
M  V30 11506 C 1096.97 1.74686 2.90176 0
M  V30 11507 C 1096.02 2.96255 3.06815 0
M  V30 11508 S 1096.85 4.56553 2.79856 0
M  V30 11509 C 1098.01 4.63511 4.20605 0
M  V30 11510 H 1098.24 2.64399 1.35942 0
M  V30 11511 H 1095.77 1.42337 0.598284 0
M  V30 11512 H 1097.73 1.77773 3.7001 0
M  V30 11513 H 1096.39 0.819291 3.03227 0
M  V30 11514 H 1095.59 2.95661 4.08167 0
M  V30 11515 H 1095.19 2.91069 2.34851 0
M  V30 11516 H 1097.48 4.41047 5.1428 0
M  V30 11517 H 1098.42 5.65456 4.26222 0
M  V30 11518 H 1098.83 3.92518 4.05697 0
M  V30 11519 N 1098.23 -0.663929 1.42933 0
M  V30 11520 C 1099.48 -1.41973 1.43271 0
M  V30 11521 C 1099.79 -1.95518 0.0566103 0
M  V30 11522 O 1101 -2.71428 -0.0625862 0
M  V30 11523 C 1099.45 -2.56882 2.52071 0
M  V30 11524 C 1099.06 -2.0999 3.95737 0
M  V30 11525 C 1100.8 -3.34322 2.61589 0
M  V30 11526 C 1098.71 -3.22046 4.96025 0
M  V30 11527 H 1097.64 -0.5334 0.532917 0
M  V30 11528 H 1100.29 -0.717709 1.68882 0
M  V30 11529 H 1098.67 -3.29504 2.19643 0
M  V30 11530 H 1099.85 -1.44449 4.37574 0
M  V30 11531 H 1098.16 -1.45459 3.90168 0
M  V30 11532 H 1100.76 -4.17796 3.33692 0
M  V30 11533 H 1101.1 -3.8164 1.66302 0
M  V30 11534 H 1101.64 -2.68775 2.93266 0
M  V30 11535 H 1098.38 -2.79708 5.92827 0
M  V30 11536 H 1097.9 -3.86333 4.5881 0
M  V30 11537 H 1099.57 -3.87345 5.1824 0
M  V30 11538 N 1099.71 -1.29285 -0.901281 0
M  V30 11539 C 1100.98 -1.07847 -1.63182 0
M  V30 11540 C 1101.36 0.377927 -2.07689 0
M  V30 11541 O 1100.71 1.36642 -1.83143 0
M  V30 11542 C 1100.92 -2.06457 -2.81383 0
M  V30 11543 C 1102.27 -2.37289 -3.52107 0
M  V30 11544 O 1103.29 -2.0464 -2.91549 0
M  V30 11545 O 1102.15 -2.93067 -4.61274 0
M  V30 11546 H 1099.25 -0.413073 -0.71645 0
M  V30 11547 H 1101.79 -1.40651 -0.949488 0
M  V30 11548 H 1100.56 -3.04561 -2.4568 0
M  V30 11549 H 1100.19 -1.74374 -3.57323 0
M  V30 11550 N 1101.18 1.11143 -1.11736 0
M  V30 11551 C 1102.6 1.64462 -0.883693 0
M  V30 11552 C 1102.95 1.87324 0.583448 0
M  V30 11553 O 1102.07 1.60975 1.44623 0
M  V30 11554 C 1102.67 2.98765 -1.59764 0
M  V30 11555 C 1101.23 3.4898 -1.41032 0
M  V30 11556 C 1100.37 2.23729 -1.63831 0
M  V30 11557 H 1103.32 0.947415 -1.27317 0
M  V30 11558 H 1103.34 3.65885 -1.04443 0
M  V30 11559 H 1102.86 2.82094 -2.66542 0
M  V30 11560 H 1100.96 3.7081 -0.364781 0
M  V30 11561 H 1101.07 4.27571 -2.16148 0
M  V30 11562 H 1099.43 2.31507 -1.06191 0
M  V30 11563 H 1100.22 2.09597 -2.7189 0
M  V30 11564 N 1102.66 0.908147 1.28804 0
M  V30 11565 C 1103.89 0.55409 1.99343 0
M  V30 11566 C 1104.31 -0.863262 1.67908 0
M  V30 11567 O 1103.66 -1.571 0.92875 0
M  V30 11568 C 1103.71 0.746916 3.537 0
M  V30 11569 O 1103.43 2.10849 3.84024 0
M  V30 11570 C 1104.94 0.398939 4.41501 0
M  V30 11571 H 1102.16 0.211784 0.636701 0
M  V30 11572 H 1104.7 1.21981 1.64137 0
M  V30 11573 H 1102.85 0.128264 3.87188 0
M  V30 11574 H 1103.27 2.14404 4.78676 0
M  V30 11575 H 1104.74 0.584656 5.48895 0
M  V30 11576 H 1105.22 -0.664517 4.34144 0
M  V30 11577 H 1105.83 0.994892 4.135 0
M  V30 11578 N 1104.14 -1.42577 0.671525 0
M  V30 11579 C 1105.07 -2.33499 0.00506984 0
M  V30 11580 C 1106.05 -1.50497 -0.792763 0
M  V30 11581 O 1107.24 -1.79109 -0.750574 0
M  V30 11582 C 1104.37 -3.34077 -0.949194 0
M  V30 11583 C 1103.32 -4.27208 -0.260187 0
M  V30 11584 C 1102.65 -5.17968 -1.32716 0
M  V30 11585 C 1103.95 -5.15192 0.858772 0
M  V30 11586 H 1105.64 -2.89477 0.764407 0
M  V30 11587 H 1103.19 -1.39191 0.369043 0
M  V30 11588 H 1105.14 -3.96594 -1.42448 0
M  V30 11589 H 1103.86 -2.76396 -1.73991 0
M  V30 11590 H 1102.52 -3.66082 0.194834 0
M  V30 11591 H 1102.17 -4.56615 -2.10979 0
M  V30 11592 H 1101.87 -5.81104 -0.871293 0
M  V30 11593 H 1103.39 -5.83359 -1.80345 0
M  V30 11594 H 1104.81 -5.71412 0.464844 0
M  V30 11595 H 1103.21 -5.87144 1.24023 0
M  V30 11596 H 1104.28 -4.53787 1.70895 0
M  V30 11597 N 1105.62 -0.414636 -1.52048 0
M  V30 11598 C 1106.55 0.399119 -2.30064 0
M  V30 11599 C 1107.53 1.04126 -1.34506 0
M  V30 11600 O 1108.71 1.04923 -1.63416 0
M  V30 11601 C 1105.84 1.51305 -3.12608 0
M  V30 11602 C 1104.8 0.995621 -4.16259 0
M  V30 11603 C 1104.12 2.20357 -4.87183 0
M  V30 11604 C 1105.42 0.0458178 -5.2228 0
M  V30 11605 H 1107.12 -0.251879 -2.98339 0
M  V30 11606 H 1104.66 -0.122579 -1.43477 0
M  V30 11607 H 1106.62 2.08936 -3.65956 0
M  V30 11608 H 1105.34 2.19201 -2.42113 0
M  V30 11609 H 1104 0.441676 -3.6393 0
M  V30 11610 H 1103.65 2.8682 -4.13211 0
M  V30 11611 H 1103.35 1.86385 -5.57256 0
M  V30 11612 H 1104.87 2.78584 -5.43345 0
M  V30 11613 H 1106.29 0.531102 -5.70835 0
M  V30 11614 H 1104.68 -0.20536 -5.99749 0
M  V30 11615 H 1105.75 -0.897807 -4.76516 0
M  V30 11616 N 1107.1 1.56929 -0.145233 0
M  V30 11617 C 1108.05 2.13246 0.806846 0
M  V30 11618 C 1109.03 1.05984 1.21063 0
M  V30 11619 O 1110.22 1.32165 1.17734 0
M  V30 11620 C 1107.35 2.75622 2.04663 0
M  V30 11621 C 1106.44 3.90006 1.66603 0
M  V30 11622 N 1106.83 4.95946 0.993545 0
M  V30 11623 C 1105.13 4.0068 1.95886 0
M  V30 11624 C 1105.83 5.76032 0.810087 0
M  V30 11625 N 1104.8 5.26739 1.34339 0
M  V30 11626 H 1108.61 2.92527 0.283806 0
M  V30 11627 H 1106.12 1.62302 0.0563676 0
M  V30 11628 H 1108.12 3.14329 2.73867 0
M  V30 11629 H 1106.78 1.97815 2.57487 0
M  V30 11630 H 1107.79 5.13748 0.654508 0
M  V30 11631 H 1104.46 3.33946 2.50572 0
M  V30 11632 H 1105.85 6.71315 0.280209 0
M  V30 11633 N 1108.58 -0.128553 1.57075 0
M  V30 11634 C 1109.81 -0.851214 1.8825 0
M  V30 11635 C 1110.21 -1.74402 0.733531 0
M  V30 11636 O 1109.56 -1.81149 -0.305108 0
M  V30 11637 C 1109.62 -1.74451 3.14336 0
M  V30 11638 C 1109.28 -1.02699 4.45311 0
M  V30 11639 C 1110.28 -0.37224 5.18566 0
M  V30 11640 C 1107.96 -1.01101 4.9202 0
M  V30 11641 C 1109.96 0.2889 6.36745 0
M  V30 11642 C 1107.65 -0.346063 6.10119 0
M  V30 11643 C 1108.64 0.302744 6.82329 0
M  V30 11644 O 1108.33 0.9571 7.98182 0
M  V30 11645 H 1108.06 -0.250529 0.627863 0
M  V30 11646 H 1110.62 -0.120418 2.05047 0
M  V30 11647 H 1108.85 -2.51671 2.93596 0
M  V30 11648 H 1110.54 -2.34075 3.31608 0
M  V30 11649 H 1111.3 -0.376271 4.83538 0
M  V30 11650 H 1107.18 -1.50543 4.35727 0
M  V30 11651 H 1110.73 0.795901 6.93045 0
M  V30 11652 H 1106.62 -0.339762 6.44605 0
M  V30 11653 H 1107.39 0.860616 8.13963 0
M  V30 11654 N 1110.05 -1.5248 -0.398459 0
M  V30 11655 C 1111.28 -1.71221 -1.17039 0
M  V30 11656 C 1111.7 -0.425515 -1.83224 0
M  V30 11657 O 1111.06 0.617938 -1.70444 0
M  V30 11658 C 1111.11 -2.8562 -2.20121 0
M  V30 11659 O 1110.21 -2.51934 -3.26501 0
M  V30 11660 H 1109.55 -0.569654 -0.34116 0
M  V30 11661 H 1112.08 -1.99231 -0.465652 0
M  V30 11662 H 1112.09 -3.10842 -2.64275 0
M  V30 11663 H 1110.77 -3.78969 -1.71334 0
M  V30 11664 H 1109.35 -2.3742 -2.87552 0
M  V30 11665 N 1111.53 0.65634 -1.43283 0
M  V30 11666 C 1112.78 1.41627 -1.44734 0
M  V30 11667 C 1113.11 1.94372 -0.0704893 0
M  V30 11668 O 1112.36 1.72511 0.924037 0
M  V30 11669 C 1112.66 2.61688 -2.43421 0
M  V30 11670 C 1112.33 2.2738 -3.8937 0
M  V30 11671 C 1110.99 2.17735 -4.29121 0
M  V30 11672 C 1113.34 1.99863 -4.81357 0
M  V30 11673 C 1110.67 1.78725 -5.58815 0
M  V30 11674 C 1113.02 1.62352 -6.11412 0
M  V30 11675 C 1111.68 1.51231 -6.50143 0
M  V30 11676 H 1110.95 0.51825 -0.529621 0
M  V30 11677 H 1113.6 0.746701 -1.76342 0
M  V30 11678 H 1111.91 3.33763 -2.05206 0
M  V30 11679 H 1113.6 3.19896 -2.41801 0
M  V30 11680 H 1110.19 2.35795 -3.57908 0
M  V30 11681 H 1114.38 2.06237 -4.5142 0
M  V30 11682 H 1109.63 1.68698 -5.87666 0
M  V30 11683 H 1113.81 1.40091 -6.82164 0
M  V30 11684 H 1111.43 1.20774 -7.50545 0
M  V30 11685 N 1113.01 1.29761 0.894412 0
M  V30 11686 C 1113.97 1.15335 1.98067 0
M  V30 11687 C 1114.97 0.0872804 1.60563 0
M  V30 11688 O 1116.16 0.334645 1.70955 0
M  V30 11689 C 1113.29 0.764907 3.32208 0
M  V30 11690 H 1114.49 2.11829 2.12293 0
M  V30 11691 H 1112.04 1.13023 1.0796 0
M  V30 11692 H 1112.78 -0.199948 3.23683 0
M  V30 11693 H 1112.56 1.53523 3.60795 0
M  V30 11694 H 1114.05 0.687176 4.11907 0
M  V30 11695 N 1114.49 -1.10549 1.12324 0
M  V30 11696 C 1115.73 -1.82485 0.877817 0
M  V30 11697 C 1116.06 -1.85131 -0.596373 0
M  V30 11698 O 1115.32 -1.30675 -1.45679 0
M  V30 11699 C 1115.62 -3.28997 1.39626 0
M  V30 11700 C 1115.28 -3.465 2.88529 0
M  V30 11701 C 1113.94 -3.50984 3.29186 0
M  V30 11702 C 1116.3 -3.51991 3.84385 0
M  V30 11703 C 1113.62 -3.58525 4.6441 0
M  V30 11704 C 1115.98 -3.61065 5.19437 0
M  V30 11705 C 1114.64 -3.63813 5.5964 0
M  V30 11706 H 1113.91 -0.667758 0.321216 0
M  V30 11707 H 1116.56 -1.30314 1.40323 0
M  V30 11708 H 1114.86 -3.83726 0.791291 0
M  V30 11709 H 1116.56 -3.83165 1.18259 0
M  V30 11710 H 1113.15 -3.43686 2.56082 0
M  V30 11711 H 1117.33 -3.47777 3.54069 0
M  V30 11712 H 1112.59 -3.58934 4.94951 0
M  V30 11713 H 1116.76 -3.64257 5.9354 0
M  V30 11714 H 1114.39 -3.69409 6.6441 0
M  V30 11715 N 1115.97 -0.914965 -1.28321 0
M  V30 11716 C 1117.21 -0.555865 -1.96696 0
M  V30 11717 C 1117.57 0.8842 -1.70429 0
M  V30 11718 O 1118.77 1.35094 -2.32386 0
M  V30 11719 C 1117.04 -0.857942 -3.4695 0
M  V30 11720 S 1118.6 -0.605441 -4.34603 0
M  V30 11721 H 1115.42 -0.20564 -0.680612 0
M  V30 11722 H 1118.02 -1.18068 -1.55821 0
M  V30 11723 H 1116.72 -1.90394 -3.63563 0
M  V30 11724 H 1116.26 -0.221831 -3.92774 0
M  V30 11725 H 1118.27 0.542657 -4.93224 0
M  V30 11726 N 1117.44 1.42219 -0.679077 0
M  V30 11727 C 1118.41 2.29197 -0.0125475 0
M  V30 11728 C 1119.41 1.43544 0.724691 0
M  V30 11729 O 1120.6 1.64884 0.562052 0
M  V30 11730 C 1117.73 3.26122 0.992846 0
M  V30 11731 H 1118.92 2.89629 -0.778154 0
M  V30 11732 H 1116.47 1.4993 -0.44166 0
M  V30 11733 H 1117.21 2.70637 1.78679 0
M  V30 11734 H 1116.99 3.89302 0.467544 0
M  V30 11735 H 1118.48 3.91339 1.45751 0
M  V30 11736 N 1118.92 0.422693 1.51826 0
M  V30 11737 C 1120.15 -0.15017 2.06856 0
M  V30 11738 C 1120.57 -1.36946 1.28948 0
M  V30 11739 O 1119.93 -1.78393 0.32338 0
M  V30 11740 C 1119.98 -0.465563 3.57582 0
M  V30 11741 O 1119.08 -1.55442 3.81984 0
M  V30 11742 H 1118.42 -0.00827931 0.663948 0
M  V30 11743 H 1120.95 0.599806 1.95611 0
M  V30 11744 H 1120.96 -0.720279 4.01592 0
M  V30 11745 H 1119.64 0.425679 4.13716 0
M  V30 11746 H 1118.21 -1.29081 3.49846 0
M  V30 11747 N 1120.4 -1.5685 0.153553 0
M  V30 11748 C 1121.35 -2.13671 -0.795526 0
M  V30 11749 C 1122.33 -1.06624 -1.20499 0
M  V30 11750 O 1123.53 -1.32788 -1.17032 0
M  V30 11751 C 1120.65 -2.76704 -2.03199 0
M  V30 11752 C 1119.74 -3.90884 -1.64532 0
M  V30 11753 N 1120.13 -4.96466 -0.96723 0
M  V30 11754 C 1118.43 -4.01713 -1.93759 0
M  V30 11755 C 1119.13 -5.76453 -0.779527 0
M  V30 11756 N 1118.11 -5.27444 -1.31544 0
M  V30 11757 H 1121.91 -2.92673 -0.268288 0
M  V30 11758 H 1119.42 -1.6233 -0.0477596 0
M  V30 11759 H 1121.42 -3.15777 -2.72196 0
M  V30 11760 H 1120.08 -1.99177 -2.56434 0
M  V30 11761 H 1121.09 -5.14087 -0.627253 0
M  V30 11762 H 1117.77 -3.3527 -2.48797 0
M  V30 11763 H 1119.16 -6.71455 -0.244604 0
M  V30 11764 N 1121.88 0.120221 -1.57141 0
M  V30 11765 C 1123.12 0.829449 -1.85062 0
M  V30 11766 C 1123.46 1.79585 -0.739116 0
M  V30 11767 O 1122.73 1.92819 0.255147 0
M  V30 11768 C 1123.01 1.58042 -3.23566 0
M  V30 11769 C 1122.87 0.633706 -4.45314 0
M  V30 11770 C 1124.19 2.53688 -3.59625 0
M  V30 11771 H 1121.31 0.300086 -0.67314 0
M  V30 11772 H 1123.95 0.0937393 -1.89769 0
M  V30 11773 H 1122.1 2.20758 -3.19684 0
M  V30 11774 H 1123.77 0.0154836 -4.61297 0
M  V30 11775 H 1122.01 -0.054846 -4.33765 0
M  V30 11776 H 1122.68 1.19577 -5.38893 0
M  V30 11777 H 1125.16 2.01078 -3.6429 0
M  V30 11778 H 1124.04 3.03265 -4.57516 0
M  V30 11779 H 1124.3 3.36296 -2.8698 0
M  V30 11780 N 1123.36 1.52689 0.390367 0
M  V30 11781 C 1124.31 1.73751 1.4763 0
M  V30 11782 C 1125.29 0.591572 1.4963 0
M  V30 11783 O 1126.48 0.849354 1.5529 0
M  V30 11784 C 1123.61 1.90855 2.85358 0
M  V30 11785 C 1122.7 3.11377 2.87933 0
M  V30 11786 N 1123.09 4.33751 2.6018 0
M  V30 11787 C 1121.39 3.11594 3.19101 0
M  V30 11788 C 1122.09 5.15346 2.69803 0
M  V30 11789 N 1121.06 4.51002 3.03476 0
M  V30 11790 H 1124.87 2.65994 1.24997 0
M  V30 11791 H 1122.38 1.50977 0.598301 0
M  V30 11792 H 1124.38 2.04065 3.63542 0
M  V30 11793 H 1123.04 0.998241 3.08974 0
M  V30 11794 H 1124.05 4.61907 2.34227 0
M  V30 11795 H 1120.72 2.30368 3.48191 0
M  V30 11796 H 1122.11 6.22892 2.51902 0
M  V30 11797 N 1124.83 -0.648732 1.43629 0
M  V30 11798 C 1126.08 -1.40579 1.45196 0
M  V30 11799 C 1126.4 -1.9484 0.0790556 0
M  V30 11800 O 1125.67 -1.74707 -0.886239 0
M  V30 11801 H 1124.25 -0.52175 0.53459 0
M  V30 11802 H 1126.92 -0.764796 1.79268 0
M  V30 11803 H 1126.01 -2.24591 2.16715 0
M  V30 11804 N 1126.31 -1.30234 -0.887518 0
M  V30 11805 C 1127.26 -1.16302 -2.01436 0
M  V30 11806 C 1128.25 -0.0755422 -1.69231 0
M  V30 11807 O 1129.46 -0.236213 -1.78443 0
M  V30 11808 H 1125.84 -0.35961 -0.660443 0
M  V30 11809 H 1127.81 -2.11677 -2.10322 0
M  V30 11810 C 1126.56 -0.869009 -3.36665 0
M  V30 11811 H 1125.88 -1.69787 -3.61956 0
M  V30 11812 H 1127.32 -0.811621 -4.16159 0
M  V30 11813 C 1125.78 0.428021 -3.3417 0
M  V30 11814 O 1126.31 1.45033 -3.74604 0
M  V30 11815 N 1124.51 0.438264 -2.87276 0
M  V30 11816 H 1124.06 -0.394142 -2.54567 0
M  V30 11817 H 1124.02 1.30604 -2.85989 0
M  V30 11818 N 1127.79 1.09952 -1.12909 0
M  V30 11819 C 1129.21 1.34051 -0.866172 0
M  V30 11820 C 1129.41 1.95169 0.501125 0
M  V30 11821 O 1128.46 2.19458 1.24878 0
M  V30 11822 C 1129.78 2.25738 -1.98653 0
M  V30 11823 C 1131.32 2.39261 -2.01799 0
M  V30 11824 C 1131.8 3.3428 -3.13083 0
M  V30 11825 N 1133.29 3.41851 -3.12558 0
M  V30 11826 C 1134.02 4.15358 -3.95304 0
M  V30 11827 N 1133.52 4.91709 -4.88051 0
M  V30 11828 N 1135.31 4.11027 -3.83423 0
M  V30 11829 H 1127.46 0.686521 -2.00999 0
M  V30 11830 H 1129.73 0.364913 -0.874953 0
M  V30 11831 H 1129.43 1.88048 -2.97205 0
M  V30 11832 H 1129.31 3.26085 -1.89601 0
M  V30 11833 H 1131.69 2.76218 -1.03864 0
M  V30 11834 H 1131.78 1.38712 -2.14925 0
M  V30 11835 H 1131.42 2.98048 -4.11254 0
M  V30 11836 H 1131.35 4.34721 -2.97195 0
M  V30 11837 H 1133.84 2.87405 -2.45371 0
M  V30 11838 H 1134.15 5.45212 -5.47689 0
M  V30 11839 H 1132.5 4.90816 -4.92061 0
M  V30 11840 H 1135.69 3.50477 -3.10296 0
M  V30 11841 H 1135.86 4.68054 -4.4814 0
M  V30 11842 N 1129.27 0.921757 1.27833 0
M  V30 11843 C 1130.68 0.604496 1.76643 0
M  V30 11844 C 1131.03 -0.880294 1.75343 0
M  V30 11845 O 1130.16 -1.68875 1.35315 0
M  V30 11846 C 1130.75 1.09055 3.20768 0
M  V30 11847 C 1129.31 0.824066 3.67268 0
M  V30 11848 C 1128.46 1.25269 2.47392 0
M  V30 11849 H 1131.41 1.10217 1.14184 0
M  V30 11850 H 1131.43 0.435558 3.77999 0
M  V30 11851 H 1130.94 2.17122 3.21682 0
M  V30 11852 H 1129.04 -0.243055 3.71806 0
M  V30 11853 H 1129.15 1.43743 4.57028 0
M  V30 11854 H 1127.52 0.671313 2.45694 0
M  V30 11855 H 1128.3 2.34188 2.5102 0
M  V30 11856 N 1130.75 -1.41857 0.686609 0
M  V30 11857 C 1132.02 -1.95082 0.142228 0
M  V30 11858 C 1132.4 -1.62646 -1.34572 0
M  V30 11859 O 1131.75 -0.928757 -2.08773 0
M  V30 11860 C 1131.96 -3.46415 0.423955 0
M  V30 11861 C 1133.31 -4.23181 0.346842 0
M  V30 11862 O 1134.33 -3.54393 0.358363 0
M  V30 11863 O 1133.19 -5.4568 0.299211 0
M  V30 11864 H 1130.29 -0.826943 0.00974 0
M  V30 11865 H 1132.83 -1.51622 0.762153 0
M  V30 11866 H 1131.6 -3.63273 1.45424 0
M  V30 11867 H 1131.23 -3.96949 -0.227391 0
M  V30 11868 N 1132.22 -0.430739 -1.51599 0
M  V30 11869 C 1133.47 0.137657 -2.01631 0
M  V30 11870 C 1133.79 1.43787 -1.31721 0
M  V30 11871 O 1133.06 1.90668 -0.449717 0
M  V30 11872 H 1131.64 0.0538611 -0.745056 0
M  V30 11873 H 1134.31 -0.571935 -1.86319 0
M  V30 11874 H 1133.4 0.318305 -3.10473 0
M  V30 11875 N 1133.7 1.56767 -0.161869 0
M  V30 11876 C 1134.95 1.95769 0.485536 0
M  V30 11877 C 1135.26 1.05006 1.65025 0
M  V30 11878 O 1136.47 1.33649 2.36326 0
M  V30 11879 C 1134.93 3.4807 0.915176 0
M  V30 11880 C 1134.53 4.47443 -0.223416 0
M  V30 11881 C 1136.28 3.95909 1.53153 0
M  V30 11882 C 1134.19 5.90971 0.225325 0
M  V30 11883 H 1133.12 0.730911 0.185161 0
M  V30 11884 H 1135.77 1.81808 -0.248592 0
M  V30 11885 H 1134.15 3.57415 1.705 0
M  V30 11886 H 1135.32 4.49805 -1.00061 0
M  V30 11887 H 1133.64 4.09606 -0.749127 0
M  V30 11888 H 1136.23 5.00592 1.87915 0
M  V30 11889 H 1136.58 3.38307 2.42599 0
M  V30 11890 H 1137.11 3.89542 0.806322 0
M  V30 11891 H 1133.85 6.52426 -0.634124 0
M  V30 11892 H 1133.37 5.91936 0.96808 0
M  V30 11893 H 1135.05 6.43497 0.672373 0
M  V30 11894 N 1135.18 -0.111886 1.57202 0
M  V30 11895 C 1136.43 -0.816794 1.84859 0
M  V30 11896 C 1136.75 -1.80079 0.748113 0
M  V30 11897 O 1136.02 -1.94578 -0.227235 0
M  V30 11898 H 1134.6 -0.304633 0.682061 0
M  V30 11899 H 1137.26 -0.097513 1.94656 0
M  V30 11900 H 1136.36 -1.35768 2.81022 0
M  V30 11901 N 1136.66 -1.52894 -0.382264 0
M  V30 11902 C 1137.89 -1.72152 -1.14766 0
M  V30 11903 C 1138.3 -0.442911 -1.83531 0
M  V30 11904 O 1137.66 0.583085 -1.72935 0
M  V30 11905 C 1137.71 -2.87566 -2.19062 0
M  V30 11906 O 1137.43 -4.10478 -1.53099 0
M  V30 11907 C 1138.93 -3.18559 -3.08277 0
M  V30 11908 H 1136.15 -0.576212 -0.343832 0
M  V30 11909 H 1138.7 -1.99571 -0.446273 0
M  V30 11910 H 1136.85 -2.62589 -2.84826 0
M  V30 11911 H 1137.26 -4.74989 -2.22454 0
M  V30 11912 H 1138.74 -4.02763 -3.77473 0
M  V30 11913 H 1139.22 -2.33222 -3.72161 0
M  V30 11914 H 1139.82 -3.454 -2.48151 0
M  V30 11915 N 1138.14 0.641106 -1.43971 0
M  V30 11916 C 1139.38 1.40291 -1.46445 0
M  V30 11917 C 1139.72 1.93978 -0.0929004 0
M  V30 11918 O 1138.99 1.73043 0.888043 0
M  V30 11919 C 1139.27 2.57551 -2.51673 0
M  V30 11920 C 1139.13 2.09279 -3.98149 0
M  V30 11921 C 1140.45 3.59752 -2.53508 0
M  V30 11922 H 1137.57 0.508771 -0.533218 0
M  V30 11923 H 1140.21 0.725767 -1.75592 0
M  V30 11924 H 1138.36 3.15319 -2.2695 0
M  V30 11925 H 1140.03 1.56418 -4.33971 0
M  V30 11926 H 1138.27 1.40545 -4.10402 0
M  V30 11927 H 1138.94 2.93655 -4.67409 0
M  V30 11928 H 1141.42 3.11766 -2.75574 0
M  V30 11929 H 1140.3 4.39332 -3.29057 0
M  V30 11930 H 1140.56 4.13156 -1.57335 0
M  V30 11931 N 1139.62 1.30703 0.880598 0
M  V30 11932 C 1140.84 1.22714 1.6658 0
M  V30 11933 C 1141.26 -0.209303 1.87636 0
M  V30 11934 O 1140.62 -1.13771 1.42697 0
M  V30 11935 C 1140.67 1.95659 3.03974 0
M  V30 11936 O 1140.39 3.33695 2.83865 0
M  V30 11937 C 1141.89 1.9438 3.98411 0
M  V30 11938 H 1139.11 0.424478 0.519673 0
M  V30 11939 H 1141.65 1.72402 1.0999 0
M  V30 11940 H 1139.81 1.49758 3.57283 0
M  V30 11941 H 1140.22 3.70697 3.71058 0
M  V30 11942 H 1141.7 2.4995 4.92168 0
M  V30 11943 H 1142.17 0.923767 4.29375 0
M  V30 11944 H 1142.78 2.40112 3.51036 0
M  V30 11945 N 1141.09 -1.09351 1.1349 0
M  V30 11946 C 1142.34 -1.81812 0.898452 0
M  V30 11947 C 1142.67 -1.85525 -0.573959 0
M  V30 11948 O 1141.95 -1.32403 -1.42477 0
M  V30 11949 C 1142.23 -3.27921 1.48794 0
M  V30 11950 C 1142.08 -3.32476 3.02952 0
M  V30 11951 C 1143.4 -4.24625 1.15678 0
M  V30 11952 H 1140.52 -0.660074 0.327829 0
M  V30 11953 H 1143.16 -1.28091 1.40331 0
M  V30 11954 H 1141.31 -3.738 1.05858 0
M  V30 11955 H 1142.99 -2.94994 3.54649 0
M  V30 11956 H 1141.23 -2.72037 3.37903 0
M  V30 11957 H 1141.9 -4.35409 3.39298 0
M  V30 11958 H 1144.38 -3.87036 1.52781 0
M  V30 11959 H 1143.25 -5.25194 1.59571 0
M  V30 11960 H 1143.51 -4.42044 0.0705933 0
M  V30 11961 N 1142.57 -0.928524 -1.27343 0
M  V30 11962 C 1143.48 -0.433901 -2.30553 0
M  V30 11963 C 1144.5 0.485832 -1.6708 0
M  V30 11964 O 1145.67 0.36844 -1.98001 0
M  V30 11965 C 1142.74 0.304617 -3.45359 0
M  V30 11966 C 1141.8 -0.650131 -4.24349 0
M  V30 11967 C 1141.03 0.0532372 -5.33673 0
M  V30 11968 O 1141.26 1.27246 -5.56026 0
M  V30 11969 O 1140.19 -0.619009 -5.98709 0
M  V30 11970 H 1144.02 -1.2909 -2.74899 0
M  V30 11971 H 1141.6 -0.693903 -1.32308 0
M  V30 11972 H 1143.48 0.721137 -4.15184 0
M  V30 11973 H 1142.16 1.13721 -3.03066 0
M  V30 11974 H 1141.06 -1.11635 -3.57055 0
M  V30 11975 H 1142.4 -1.44996 -4.70358 0
M  V30 11976 N 1144.05 1.41491 -0.694123 0
M  V30 11977 C 1144.96 2.34583 -0.0283414 0
M  V30 11978 C 1145.98 1.5615 0.767662 0
M  V30 11979 O 1147.15 1.88637 0.705556 0
M  V30 11980 C 1144.22 3.34876 0.897726 0
M  V30 11981 C 1143.28 4.29197 0.0940905 0
M  V30 11982 C 1142.51 5.24699 0.976051 0
M  V30 11983 O 1142.73 5.25613 2.21556 0
M  V30 11984 O 1141.67 6.00387 0.426503 0
M  V30 11985 H 1145.49 2.93092 -0.795656 0
M  V30 11986 H 1143.08 1.4232 -0.45445 0
M  V30 11987 H 1144.96 3.96438 1.4288 0
M  V30 11988 H 1143.64 2.78812 1.64456 0
M  V30 11989 H 1142.54 3.70988 -0.481552 0
M  V30 11990 H 1143.88 4.88355 -0.614045 0
M  V30 11991 N 1145.53 0.438773 1.51369 0
M  V30 11992 C 1146.47 -0.37195 2.27783 0
M  V30 11993 C 1147.44 -1.01558 1.31435 0
M  V30 11994 O 1148.63 -1.03421 1.60339 0
M  V30 11995 C 1145.77 -1.46636 3.12397 0
M  V30 11996 C 1144.88 -0.840727 4.2374 0
M  V30 11997 C 1144.02 -1.91031 4.95662 0
M  V30 11998 C 1143.06 -1.26318 5.98924 0
M  V30 11999 N 1142.19 -2.27419 6.64248 0
M  V30 12000 H 1147.03 0.286048 2.96624 0
M  V30 12001 H 1144.57 0.152909 1.46303 0
M  V30 12002 H 1146.53 -2.11219 3.59781 0
M  V30 12003 H 1145.16 -2.09397 2.45668 0
M  V30 12004 H 1144.21 -0.0831588 3.80309 0
M  V30 12005 H 1145.52 -0.328285 4.97719 0
M  V30 12006 H 1144.68 -2.63272 5.46601 0
M  V30 12007 H 1143.42 -2.45649 4.21317 0
M  V30 12008 H 1142.42 -0.526246 5.47276 0
M  V30 12009 H 1143.65 -0.724324 6.75226 0
M  V30 12010 H 1141.59 -2.81114 5.92715 0
M  V30 12011 H 1141.51 -1.81071 7.33996 0
M  V30 12012 H 1142.78 -2.99139 7.19817 0
M  V30 12013 N 1147.01 -1.56678 0.170181 0
M  V30 12014 C 1147.92 -2.21496 -0.773079 0
M  V30 12015 C 1148.93 -1.20626 -1.25401 0
M  V30 12016 O 1150.11 -1.53283 -1.30638 0
M  V30 12017 C 1147.17 -2.8421 -1.98558 0
M  V30 12018 C 1146.23 -4.00278 -1.55164 0
M  V30 12019 C 1145.47 -4.59992 -2.70634 0
M  V30 12020 O 1145.69 -4.18595 -3.87472 0
M  V30 12021 O 1144.62 -5.49881 -2.44775 0
M  V30 12022 H 1148.45 -3.02659 -0.251195 0
M  V30 12023 H 1146.03 -1.49288 -0.0579621 0
M  V30 12024 H 1147.92 -3.2398 -2.69472 0
M  V30 12025 H 1146.59 -2.06045 -2.49654 0
M  V30 12026 H 1145.5 -3.6518 -0.812038 0
M  V30 12027 H 1146.83 -4.80033 -1.0876 0
M  V30 12028 N 1148.48 0.103547 -1.57259 0
M  V30 12029 C 1149.9 0.457527 -1.52901 0
M  V30 12030 C 1150.1 1.80995 -0.8856 0
M  V30 12031 O 1149.16 2.48001 -0.474504 0
M  V30 12032 C 1150.47 0.427793 -2.97641 0
M  V30 12033 C 1152.02 0.51025 -3.08813 0
M  V30 12034 C 1152.49 0.51075 -4.55143 0
M  V30 12035 N 1153.98 0.571748 -4.59658 0
M  V30 12036 C 1154.72 0.593836 -5.70317 0
M  V30 12037 N 1154.21 0.572638 -6.90429 0
M  V30 12038 N 1156.01 0.638011 -5.58467 0
M  V30 12039 H 1148.16 -0.782408 -1.97464 0
M  V30 12040 H 1150.42 -0.290324 -0.90245 0
M  V30 12041 H 1150.13 -0.498608 -3.48148 0
M  V30 12042 H 1150 1.24991 -3.55889 0
M  V30 12043 H 1152.39 1.42707 -2.583 0
M  V30 12044 H 1152.47 -0.339846 -2.53532 0
M  V30 12045 H 1152.11 -0.40209 -5.06306 0
M  V30 12046 H 1152.04 1.37794 -5.08252 0
M  V30 12047 H 1154.53 0.593668 -3.73208 0
M  V30 12048 H 1154.85 0.592542 -7.70525 0
M  V30 12049 H 1153.19 0.539818 -6.929 0
M  V30 12050 H 1156.38 0.652042 -4.63536 0
M  V30 12051 H 1156.56 0.651756 -6.44714 0
M  V30 12052 N 1149.96 1.53094 0.37415 0
M  V30 12053 C 1151.21 1.68861 1.11769 0
M  V30 12054 C 1151.54 0.436032 1.89549 0
M  V30 12055 O 1150.79 -0.581879 1.86849 0
M  V30 12056 C 1151.09 2.88432 2.11049 0
M  V30 12057 C 1150.76 4.25284 1.49814 0
M  V30 12058 C 1149.42 4.62501 1.32841 0
M  V30 12059 C 1151.77 5.10425 1.05433 0
M  V30 12060 C 1149.1 5.82502 0.700567 0
M  V30 12061 C 1151.45 6.31064 0.440525 0
M  V30 12062 C 1150.11 6.67 0.258216 0
M  V30 12063 H 1149.38 0.617906 0.40899 0
M  V30 12064 H 1152.03 1.87265 0.4005 0
M  V30 12065 H 1150.34 2.64505 2.8904 0
M  V30 12066 H 1152.03 2.97825 2.68517 0
M  V30 12067 H 1148.62 3.95976 1.64016 0
M  V30 12068 H 1152.81 4.82229 1.17342 0
M  V30 12069 H 1148.06 6.08942 0.547652 0
M  V30 12070 H 1152.24 6.96344 0.0883962 0
M  V30 12071 H 1149.86 7.59851 -0.230354 0
M  V30 12072 N 1151.44 -0.633461 1.44309 0
M  V30 12073 C 1152.35 -1.77428 1.53481 0
M  V30 12074 C 1153.37 -1.68839 0.420628 0
M  V30 12075 O 1154.54 -1.89658 0.677638 0
M  V30 12076 C 1151.61 -3.13801 1.47409 0
M  V30 12077 C 1150.67 -3.34039 2.6966 0
M  V30 12078 C 1149.9 -4.63907 2.63868 0
M  V30 12079 O 1150.12 -5.44559 1.69741 0
M  V30 12080 O 1149.06 -4.86295 3.54684 0
M  V30 12081 H 1152.88 -1.72642 2.49857 0
M  V30 12082 H 1150.47 -0.794399 1.26529 0
M  V30 12083 H 1152.35 -3.95101 1.46537 0
M  V30 12084 H 1151.03 -3.19134 0.541769 0
M  V30 12085 H 1149.93 -2.52427 2.761 0
M  V30 12086 H 1151.27 -3.33566 3.61931 0
M  V30 12087 N 1152.92 -1.31168 -0.873655 0
M  V30 12088 C 1153.83 -1.20458 -2.01313 0
M  V30 12089 C 1154.84 -0.122074 -1.73571 0
M  V30 12090 O 1156.02 -0.339176 -1.98523 0
M  V30 12091 C 1153.09 -0.90876 -3.34578 0
M  V30 12092 C 1152.15 -2.07779 -3.75668 0
M  V30 12093 C 1151.38 -1.79599 -5.02573 0
M  V30 12094 O 1151.6 -0.729338 -5.65718 0
M  V30 12095 O 1150.54 -2.65169 -5.40341 0
M  V30 12096 H 1154.36 -2.16207 -2.13279 0
M  V30 12097 H 1151.95 -1.10871 -1.00139 0
M  V30 12098 H 1153.83 -0.759469 -4.145 0
M  V30 12099 H 1152.5 0.0187249 -3.23695 0
M  V30 12100 H 1151.41 -2.28247 -2.96402 0
M  V30 12101 H 1152.74 -2.9874 -3.91172 0
M  V30 12102 N 1154.4 1.08748 -1.14068 0
M  V30 12103 C 1155.65 1.8044 -0.901352 0
M  V30 12104 C 1155.96 1.86995 0.573791 0
M  V30 12105 O 1157.16 2.55065 0.930275 0
M  V30 12106 C 1155.62 3.24185 -1.56308 0
M  V30 12107 C 1155.23 3.25875 -3.07424 0
M  V30 12108 C 1156.97 4.00584 -1.40473 0
M  V30 12109 C 1154.88 4.64186 -3.66449 0
M  V30 12110 H 1153.81 0.676201 -0.333569 0
M  V30 12111 H 1156.46 1.22169 -1.3692 0
M  V30 12112 H 1154.84 3.82561 -1.0229 0
M  V30 12113 H 1156.02 2.77225 -3.6808 0
M  V30 12114 H 1154.33 2.62969 -3.22856 0
M  V30 12115 H 1156.93 5.02781 -1.81976 0
M  V30 12116 H 1157.27 4.14823 -0.350408 0
M  V30 12117 H 1157.8 3.48668 -1.91508 0
M  V30 12118 H 1154.54 4.5515 -4.71719 0
M  V30 12119 H 1154.06 5.13132 -3.10574 0
M  V30 12120 H 1155.74 5.33161 -3.66536 0
M  V30 12121 N 1155.87 0.935264 1.26849 0
M  V30 12122 C 1156.82 0.438896 2.26588 0
M  V30 12123 C 1157.79 -0.498267 1.5845 0
M  V30 12124 O 1158.98 -0.415771 1.86215 0
M  V30 12125 C 1156.12 -0.295293 3.43834 0
M  V30 12126 C 1155.23 0.676857 4.26665 0
M  V30 12127 C 1154.36 -0.0779349 5.31143 0
M  V30 12128 C 1153.4 0.886425 6.05648 0
M  V30 12129 N 1152.54 0.163771 7.01909 0
M  V30 12130 H 1157.38 1.29439 2.6842 0
M  V30 12131 H 1154.92 0.649523 1.31983 0
M  V30 12132 H 1156.88 -0.737354 4.10632 0
M  V30 12133 H 1155.51 -1.11497 3.02933 0
M  V30 12134 H 1154.56 1.23744 3.5971 0
M  V30 12135 H 1155.87 1.41355 4.78351 0
M  V30 12136 H 1155.02 -0.579557 6.03926 0
M  V30 12137 H 1153.76 -0.84755 4.80279 0
M  V30 12138 H 1152.77 1.39923 5.31697 0
M  V30 12139 H 1153.99 1.65595 6.58601 0
M  V30 12140 H 1151.94 -0.58746 6.53364 0
M  V30 12141 H 1151.86 0.839902 7.5132 0
M  V30 12142 H 1153.12 -0.316951 7.78855 0
M  V30 12143 N 1157.35 -1.41121 0.701616 0
M  V30 12144 C 1158.26 -2.34565 0.0407815 0
M  V30 12145 C 1159.28 -1.56555 -0.75937 0
M  V30 12146 O 1160.45 -1.89008 -0.695542 0
M  V30 12147 C 1157.52 -3.35347 -0.879954 0
M  V30 12148 C 1156.58 -4.29241 -0.0713279 0
M  V30 12149 C 1155.81 -5.25209 -0.948211 0
M  V30 12150 O 1156.04 -5.26781 -2.18766 0
M  V30 12151 O 1154.97 -6.00605 -0.394657 0
M  V30 12152 H 1158.8 -2.92666 0.811188 0
M  V30 12153 H 1156.38 -1.42077 0.461991 0
M  V30 12154 H 1158.26 -3.9719 -1.40776 0
M  V30 12155 H 1156.94 -2.7968 -1.62975 0
M  V30 12156 H 1155.85 -3.70727 0.50122 0
M  V30 12157 H 1157.18 -4.88022 0.639935 0
M  V30 12158 N 1158.83 -0.446794 -1.51134 0
M  V30 12159 C 1160.25 -0.0995905 -1.59289 0
M  V30 12160 C 1160.45 1.39191 -1.45699 0
M  V30 12161 O 1159.5 2.1628 -1.30303 0
M  V30 12162 C 1160.82 -0.628135 -2.94066 0
M  V30 12163 C 1162.36 -0.589409 -3.074 0
M  V30 12164 C 1162.84 -1.09509 -4.44715 0
M  V30 12165 N 1164.33 -1.05347 -4.51061 0
M  V30 12166 C 1165.06 -1.41551 -5.55654 0
M  V30 12167 N 1164.56 -1.85086 -6.67619 0
M  V30 12168 N 1166.35 -1.33307 -5.46064 0
M  V30 12169 H 1158.5 -1.41713 -1.58213 0
M  V30 12170 H 1160.77 -0.584555 -0.746324 0
M  V30 12171 H 1160.47 -1.67205 -3.09411 0
M  V30 12172 H 1160.35 -0.0582398 -3.77155 0
M  V30 12173 H 1162.73 0.445541 -2.91717 0
M  V30 12174 H 1162.82 -1.19582 -2.26128 0
M  V30 12175 H 1162.46 -2.12855 -4.61146 0
M  V30 12176 H 1162.39 -0.465122 -5.24542 0
M  V30 12177 H 1164.88 -0.733877 -3.70706 0
M  V30 12178 H 1165.19 -2.10923 -7.43459 0
M  V30 12179 H 1163.54 -1.8902 -6.68802 0
M  V30 12180 H 1166.73 -0.991547 -4.57478 0
M  V30 12181 H 1166.9 -1.6185 -6.27462 0
M  V30 12182 N 1160.31 1.56586 -0.178487 0
M  V30 12183 C 1161.24 2.21313 0.744486 0
M  V30 12184 C 1162.22 1.17098 1.23377 0
M  V30 12185 O 1163.4 1.45551 1.28563 0
M  V30 12186 C 1160.53 2.8595 1.97103 0
M  V30 12187 C 1159.49 3.96266 1.61732 0
M  V30 12188 C 1158.81 4.47987 2.91911 0
M  V30 12189 C 1160.11 5.15503 0.839868 0
M  V30 12190 H 1161.81 2.98698 0.204938 0
M  V30 12191 H 1159.35 1.43672 0.0971306 0
M  V30 12192 H 1161.31 3.29909 2.6218 0
M  V30 12193 H 1160.03 2.05946 2.53484 0
M  V30 12194 H 1158.69 3.52974 0.990208 0
M  V30 12195 H 1158.34 3.64765 3.46346 0
M  V30 12196 H 1158.04 5.22413 2.68995 0
M  V30 12197 H 1159.56 4.94637 3.58004 0
M  V30 12198 H 1160.98 5.5611 1.39337 0
M  V30 12199 H 1159.37 5.95891 0.709473 0
M  V30 12200 H 1160.44 4.84628 -0.162396 0
M  V30 12201 N 1161.79 -0.095206 1.57312 0
M  V30 12202 C 1163.2 -0.449411 1.53142 0
M  V30 12203 C 1163.4 -1.80523 0.895187 0
M  V30 12204 O 1162.46 -2.47746 0.487649 0
M  V30 12205 C 1163.77 -0.412002 2.97864 0
M  V30 12206 C 1165.32 -0.493866 3.09079 0
M  V30 12207 C 1165.79 -0.486606 4.55408 0
M  V30 12208 N 1167.29 -0.547363 4.59955 0
M  V30 12209 C 1168.02 -0.563582 5.70624 0
M  V30 12210 N 1167.52 -0.536015 6.90723 0
M  V30 12211 N 1169.31 -0.608385 5.58798 0
M  V30 12212 H 1161.46 0.792869 1.97047 0
M  V30 12213 H 1163.72 0.295106 0.900898 0
M  V30 12214 H 1163.43 0.517064 3.47878 0
M  V30 12215 H 1163.3 -1.23102 3.56547 0
M  V30 12216 H 1165.69 -1.41335 2.59053 0
M  V30 12217 H 1165.77 0.353286 2.53349 0
M  V30 12218 H 1165.42 0.428935 5.06086 0
M  V30 12219 H 1165.35 -1.35097 5.08976 0
M  V30 12220 H 1167.84 -0.573867 3.73517 0
M  V30 12221 H 1168.15 -0.551671 7.70828 0
M  V30 12222 H 1166.49 -0.503064 6.93177 0
M  V30 12223 H 1169.69 -0.627451 4.63876 0
M  V30 12224 H 1169.86 -0.617556 6.45051 0
M  V30 12225 N 1163.26 -1.53291 -0.366026 0
M  V30 12226 C 1164.51 -1.69702 -1.11036 0
M  V30 12227 C 1164.84 -0.44728 -1.88979 0
M  V30 12228 O 1164.12 0.55542 -1.86401 0
M  V30 12229 C 1164.4 -2.94661 -2.06995 0
M  V30 12230 C 1164.25 -4.29791 -1.32663 0
M  V30 12231 C 1165.57 -3.15219 -3.07123 0
M  V30 12232 H 1162.69 -0.617525 -0.402284 0
M  V30 12233 H 1165.33 -1.85929 -0.391223 0
M  V30 12234 H 1163.48 -2.80958 -2.68318 0
M  V30 12235 H 1165.16 -4.55305 -0.741266 0
M  V30 12236 H 1163.4 -4.29223 -0.628484 0
M  V30 12237 H 1164.07 -5.13359 -2.02896 0
M  V30 12238 H 1166.55 -3.28105 -2.55903 0
M  V30 12239 H 1165.42 -4.04088 -3.71489 0
M  V30 12240 H 1165.68 -2.30479 -3.77269 0
M  V30 12241 N 1164.74 0.6258 -1.44643 0
M  V30 12242 C 1165.67 1.74858 -1.54748 0
M  V30 12243 C 1166.65 1.65327 -0.400138 0
M  V30 12244 O 1167.84 1.84005 -0.620948 0
M  V30 12245 C 1164.97 3.13408 -1.49643 0
M  V30 12246 C 1163.92 3.37733 -2.62908 0
M  V30 12247 C 1163.25 4.76367 -2.42855 0
M  V30 12248 C 1164.55 3.29771 -4.05029 0
M  V30 12249 H 1166.24 1.66658 -2.48728 0
M  V30 12250 H 1163.79 0.800363 -1.19709 0
M  V30 12251 H 1165.74 3.91735 -1.55312 0
M  V30 12252 H 1164.47 3.22404 -0.521824 0
M  V30 12253 H 1163.12 2.61788 -2.56637 0
M  V30 12254 H 1162.77 4.82074 -1.43575 0
M  V30 12255 H 1162.47 4.936 -3.18799 0
M  V30 12256 H 1164 5.56917 -2.50351 0
M  V30 12257 H 1165.41 3.97996 -4.12641 0
M  V30 12258 H 1163.81 3.58538 -4.81218 0
M  V30 12259 H 1164.88 2.27493 -4.28223 0
M  V30 12260 N 1166.22 1.31629 0.866686 0
M  V30 12261 C 1167.15 1.22151 1.99001 0
M  V30 12262 C 1168.13 0.107972 1.69757 0
M  V30 12263 O 1169.32 0.293125 1.91975 0
M  V30 12264 C 1166.45 0.93144 3.34577 0
M  V30 12265 C 1165.4 2.0049 3.78137 0
M  V30 12266 C 1164.73 1.56747 5.11209 0
M  V30 12267 C 1166.03 3.41844 3.94892 0
M  V30 12268 H 1167.72 2.16132 2.0719 0
M  V30 12269 H 1165.27 1.04051 0.995463 0
M  V30 12270 H 1167.22 0.851719 4.12703 0
M  V30 12271 H 1165.94 -0.0440289 3.2657 0
M  V30 12272 H 1164.6 2.07457 3.02253 0
M  V30 12273 H 1164.25 0.579767 4.99648 0
M  V30 12274 H 1163.95 2.28562 5.41326 0
M  V30 12275 H 1165.47 1.50188 5.91841 0
M  V30 12276 H 1166.89 3.37534 4.63405 0
M  V30 12277 H 1165.29 4.11905 4.36411 0
M  V30 12278 H 1166.36 3.82389 2.98172 0
M  V30 12279 N 1167.7 -1.08142 1.14644 0
M  V30 12280 C 1168.61 -2.18675 0.849607 0
M  V30 12281 C 1169.63 -1.73158 -0.170983 0
M  V30 12282 O 1170.8 -2.014 0.0011579 0
M  V30 12283 C 1167.87 -3.45084 0.334305 0
M  V30 12284 C 1166.93 -4.05213 1.41779 0
M  V30 12285 C 1166.16 -5.25588 0.926981 0
M  V30 12286 O 1166.38 -5.69934 -0.230522 0
M  V30 12287 O 1165.32 -5.77183 1.70715 0
M  V30 12288 H 1169.14 -2.46542 1.77343 0
M  V30 12289 H 1166.73 -1.17328 0.924911 0
M  V30 12290 H 1168.61 -4.21367 0.0529893 0
M  V30 12291 H 1167.29 -3.18788 -0.561755 0
M  V30 12292 H 1166.19 -3.30507 1.7526 0
M  V30 12293 H 1167.53 -4.35764 2.28847 0
M  V30 12294 N 1169.18 -0.941978 -1.26351 0
M  V30 12295 C 1170.13 -0.443011 -2.28342 0
M  V30 12296 C 1171.12 0.48013 -1.62453 0
M  V30 12297 O 1172.33 0.358255 -1.76399 0
M  V30 12298 H 1168.7 -0.124728 -0.741584 0
M  V30 12299 H 1170.67 -1.31573 -2.67827 0
M  V30 12300 C 1169.42 0.275675 -3.46605 0
M  V30 12301 H 1168.74 -0.425504 -3.97529 0
M  V30 12302 H 1170.18 0.589012 -4.19889 0
M  V30 12303 C 1168.64 1.49376 -3.01974 0
M  V30 12304 O 1169.17 2.59203 -3.06883 0
M  V30 12305 N 1167.38 1.35061 -2.57307 0
M  V30 12306 H 1166.93 0.457045 -2.53513 0
M  V30 12307 H 1166.88 2.16681 -2.27809 0
M  V30 12308 N 1170.66 1.40747 -0.709091 0
M  V30 12309 C 1171.59 2.29196 -0.0130359 0
M  V30 12310 C 1172.6 1.45491 0.730487 0
M  V30 12311 O 1173.79 1.6885 0.578944 0
M  V30 12312 C 1170.89 3.23632 1.00577 0
M  V30 12313 C 1170.06 4.3616 0.329105 0
M  V30 12314 C 1169.12 5.11079 1.25239 0
M  V30 12315 O 1168.15 5.64374 0.739641 0
M  V30 12316 N 1169.35 5.1982 2.58394 0
M  V30 12317 H 1172.11 2.89574 -0.772462 0
M  V30 12318 H 1169.68 1.52046 -0.556197 0
M  V30 12319 H 1171.67 3.70622 1.62546 0
M  V30 12320 H 1170.24 2.64467 1.66661 0
M  V30 12321 H 1169.46 3.9138 -0.470683 0
M  V30 12322 H 1170.75 5.08605 -0.140856 0
M  V30 12323 H 1170.14 4.77992 3.02556 0
M  V30 12324 H 1168.7 5.7034 3.15524 0
M  V30 12325 N 1172.13 0.454803 1.50895 0
M  V30 12326 C 1173.38 -0.107367 2.01414 0
M  V30 12327 C 1173.7 -1.42243 1.34262 0
M  V30 12328 O 1174.9 -2.06858 1.75846 0
M  V30 12329 C 1173.36 -0.241872 3.59086 0
M  V30 12330 C 1172.97 1.06379 4.35187 0
M  V30 12331 C 1174.71 -0.756873 4.17698 0
M  V30 12332 C 1172.62 0.893973 5.84604 0
M  V30 12333 H 1171.55 -0.0439003 0.752721 0
M  V30 12334 H 1174.2 0.587225 1.7385 0
M  V30 12335 H 1172.58 -0.999873 3.83169 0
M  V30 12336 H 1173.75 1.83148 4.2284 0
M  V30 12337 H 1172.07 1.50865 3.88109 0
M  V30 12338 H 1174.67 -0.900697 5.27059 0
M  V30 12339 H 1175.01 -1.74397 3.7801 0
M  V30 12340 H 1175.54 -0.0567088 3.9776 0
M  V30 12341 H 1172.28 1.85395 6.28736 0
M  V30 12342 H 1171.8 0.166387 5.99569 0
M  V30 12343 H 1173.48 0.554084 6.44623 0
M  V30 12344 N 1173.61 -1.56489 0.186789 0
M  V30 12345 C 1174.84 -2.01722 -0.459993 0
M  V30 12346 C 1175.25 -1.06697 -1.5576 0
M  V30 12347 O 1174.61 -0.0704212 -1.82364 0
M  V30 12348 C 1174.66 -3.46693 -1.02401 0
M  V30 12349 O 1174.38 -4.3809 0.0297916 0
M  V30 12350 C 1175.88 -4.07403 -1.7475 0
M  V30 12351 H 1173.1 -0.660845 -0.116298 0
M  V30 12352 H 1175.65 -2.02389 0.293059 0
M  V30 12353 H 1173.8 -3.46752 -1.72749 0
M  V30 12354 H 1174.22 -5.23057 -0.388821 0
M  V30 12355 H 1175.69 -5.10718 -2.09455 0
M  V30 12356 H 1176.17 -3.50383 -2.64818 0
M  V30 12357 H 1176.77 -4.11093 -1.09007 0
M  V30 12358 N 1175.09 0.086862 -1.5736 0
M  V30 12359 C 1176.04 1.11134 -1.99081 0
M  V30 12360 C 1177.02 1.35318 -0.870506 0
M  V30 12361 O 1178.22 1.35871 -1.13437 0
M  V30 12362 C 1175.34 2.42931 -2.42569 0
M  V30 12363 C 1174.43 2.22085 -3.61302 0
M  V30 12364 N 1174.82 1.71128 -4.75971 0
M  V30 12365 C 1173.12 2.52619 -3.67559 0
M  V30 12366 C 1173.82 1.64745 -5.57883 0
M  V30 12367 N 1172.8 2.10257 -5.01291 0
M  V30 12368 H 1176.6 0.710431 -2.85184 0
M  V30 12369 H 1174.11 0.294168 -1.59714 0
M  V30 12370 H 1176.11 3.17069 -2.7069 0
M  V30 12371 H 1174.77 2.83751 -1.57846 0
M  V30 12372 H 1175.78 1.40207 -4.9856 0
M  V30 12373 H 1172.46 2.96908 -2.93516 0
M  V30 12374 H 1173.85 1.26329 -6.59917 0
M  V30 12375 N 1176.57 1.53483 0.357892 0
M  V30 12376 C 1177.81 1.70037 1.09971 0
M  V30 12377 C 1178.14 0.456112 1.89076 0
M  V30 12378 O 1177.4 -0.562029 1.87456 0
M  V30 12379 C 1177.7 2.90654 2.07978 0
M  V30 12380 C 1177.36 4.26849 1.45295 0
M  V30 12381 C 1176.02 4.63884 1.27928 0
M  V30 12382 C 1178.38 5.11514 1.00013 0
M  V30 12383 C 1175.7 5.83213 0.638745 0
M  V30 12384 C 1178.06 6.31496 0.373568 0
M  V30 12385 C 1176.72 6.67237 0.187457 0
M  V30 12386 H 1175.99 0.622209 0.402414 0
M  V30 12387 H 1178.64 1.87679 0.380615 0
M  V30 12388 H 1176.94 2.67556 2.86219 0
M  V30 12389 H 1178.64 3.00656 2.65343 0
M  V30 12390 H 1175.23 3.97693 1.59807 0
M  V30 12391 H 1179.41 4.83446 1.12221 0
M  V30 12392 H 1174.67 6.09489 0.483035 0
M  V30 12393 H 1178.84 6.96398 0.0145346 0
M  V30 12394 H 1176.47 7.59564 -0.310933 0
M  V30 12395 N 1178.05 -0.61812 1.44973 0
M  V30 12396 C 1179.46 -0.937734 1.29146 0
M  V30 12397 C 1179.66 -2.00104 0.236749 0
M  V30 12398 O 1178.72 -2.49731 -0.372923 0
M  V30 12399 C 1180.03 -1.38865 2.66715 0
M  V30 12400 C 1181.58 -1.50343 2.74529 0
M  V30 12401 C 1182.05 -1.98814 4.12598 0
M  V30 12402 N 1183.54 -2.06064 4.14839 0
M  V30 12403 C 1184.28 -2.44768 5.18533 0
M  V30 12404 N 1183.78 -2.82516 6.32579 0
M  V30 12405 N 1185.57 -2.45016 5.05889 0
M  V30 12406 H 1177.72 0.084872 2.1223 0
M  V30 12407 H 1179.98 -0.0246744 0.947679 0
M  V30 12408 H 1179.69 -0.681583 3.45032 0
M  V30 12409 H 1179.56 -2.3572 2.94475 0
M  V30 12410 H 1181.95 -2.20144 1.96522 0
M  V30 12411 H 1182.03 -0.518297 2.50494 0
M  V30 12412 H 1181.67 -1.29604 4.91086 0
M  V30 12413 H 1181.6 -2.98223 4.34017 0
M  V30 12414 H 1184.1 -1.79525 3.32535 0
M  V30 12415 H 1184.41 -3.109 7.07504 0
M  V30 12416 H 1182.75 -2.80237 6.35997 0
M  V30 12417 H 1185.94 -2.14925 4.15842 0
M  V30 12418 H 1186.12 -2.74854 5.86821 0
M  V30 12419 N 1179.52 -1.32087 -0.859693 0
M  V30 12420 C 1180.75 -1.25167 -1.64368 0
M  V30 12421 C 1181.16 0.183572 -1.88307 0
M  V30 12422 O 1180.5 1.12945 -1.44876 0
M  V30 12423 C 1180.57 -1.93641 -3.02892 0
M  V30 12424 C 1180.23 -3.4298 -3.02017 0
M  V30 12425 C 1181.23 -4.38551 -2.79229 0
M  V30 12426 C 1178.91 -3.84835 -3.22812 0
M  V30 12427 C 1180.91 -5.73952 -2.77232 0
M  V30 12428 C 1178.59 -5.20346 -3.20442 0
M  V30 12429 C 1179.59 -6.14716 -2.97681 0
M  V30 12430 O 1179.28 -7.47748 -2.95175 0
M  V30 12431 H 1179.01 -0.433327 -0.518848 0
M  V30 12432 H 1181.57 -1.7468 -1.08055 0
M  V30 12433 H 1179.8 -1.3869 -3.60974 0
M  V30 12434 H 1181.48 -1.80497 -3.63559 0
M  V30 12435 H 1182.25 -4.07542 -2.62935 0
M  V30 12436 H 1178.13 -3.11806 -3.39555 0
M  V30 12437 H 1181.67 -6.47584 -2.59385 0
M  V30 12438 H 1177.57 -5.50987 -3.36279 0
M  V30 12439 H 1178.34 -7.57046 -3.11165 0
M  V30 12440 N 1181 1.07532 -1.15215 0
M  V30 12441 C 1182.24 1.81689 -0.936396 0
M  V30 12442 C 1182.61 1.84622 0.527136 0
M  V30 12443 O 1183.81 2.54632 0.861159 0
M  V30 12444 C 1182.08 3.22919 -1.53161 0
M  V30 12445 S 1183.64 4.13845 -1.4587 0
M  V30 12446 H 1180.45 0.626036 -0.337045 0
M  V30 12447 H 1183.06 1.29191 -1.4673 0
M  V30 12448 H 1181.76 3.18372 -2.58974 0
M  V30 12449 H 1181.29 3.80492 -0.999482 0
M  V30 12450 H 1183.31 4.94152 -0.450317 0
M  V30 12451 N 1182.48 0.948665 1.2585 0
M  V30 12452 C 1183.73 0.600236 1.934 0
M  V30 12453 C 1184.06 -0.86185 1.74363 0
M  V30 12454 O 1183.31 -1.63294 1.07858 0
M  V30 12455 C 1183.61 0.89784 3.45939 0
M  V30 12456 C 1183.28 2.345 3.85124 0
M  V30 12457 C 1181.94 2.74058 3.95532 0
M  V30 12458 C 1184.29 3.2851 4.04636 0
M  V30 12459 C 1181.62 4.06707 4.22855 0
M  V30 12460 C 1183.97 4.60764 4.3345 0
M  V30 12461 C 1182.63 5.00127 4.42074 0
M  V30 12462 H 1181.9 0.219642 0.707699 0
M  V30 12463 H 1184.55 1.19658 1.49513 0
M  V30 12464 H 1182.86 0.219037 3.91187 0
M  V30 12465 H 1184.55 0.606916 3.96381 0
M  V30 12466 H 1181.14 2.02819 3.77574 0
M  V30 12467 H 1185.33 2.99141 3.96015 0
M  V30 12468 H 1180.58 4.36856 4.27746 0
M  V30 12469 H 1184.76 5.33594 4.47493 0
M  V30 12470 H 1182.38 6.02939 4.63 0
M  V30 12471 N 1183.96 -1.40369 0.716545 0
M  V30 12472 C 1185.37 -1.83783 0.328719 0
M  V30 12473 C 1185.72 -1.5991 -1.13681 0
M  V30 12474 O 1184.85 -1.08048 -1.87496 0
M  V30 12475 C 1185.44 -3.33626 0.589848 0
M  V30 12476 C 1184 -3.7553 0.25572 0
M  V30 12477 C 1183.15 -2.63571 0.861733 0
M  V30 12478 H 1186.1 -1.29623 0.915621 0
M  V30 12479 H 1186.12 -3.80225 -0.14459 0
M  V30 12480 H 1185.63 -3.5097 1.65655 0
M  V30 12481 H 1183.73 -3.63781 -0.805883 0
M  V30 12482 H 1183.84 -4.73577 0.725388 0
M  V30 12483 H 1182.21 -2.53047 0.289706 0
M  V30 12484 H 1182.99 -2.83727 1.93272 0
M  V30 12485 N 1185.44 -0.462799 -1.50652 0
M  V30 12486 C 1186.68 0.0950445 -2.02277 0
M  V30 12487 C 1187.01 1.40465 -1.34536 0
M  V30 12488 O 1186.27 1.90283 -0.457279 0
M  V30 12489 C 1186.57 0.335294 -3.55824 0
M  V30 12490 C 1186.23 -0.891589 -4.41997 0
M  V30 12491 C 1184.89 -1.22799 -4.65268 0
M  V30 12492 C 1187.25 -1.70885 -4.9239 0
M  V30 12493 C 1184.57 -2.38186 -5.36175 0
M  V30 12494 C 1186.93 -2.85394 -5.64564 0
M  V30 12495 C 1185.59 -3.19458 -5.86091 0
M  V30 12496 H 1184.86 0.0347793 -0.740183 0
M  V30 12497 H 1187.51 -0.61519 -1.8135 0
M  V30 12498 H 1185.81 1.12769 -3.7522 0
M  V30 12499 H 1187.51 0.780752 -3.93326 0
M  V30 12500 H 1184.1 -0.619495 -4.24099 0
M  V30 12501 H 1188.28 -1.46215 -4.74273 0
M  V30 12502 H 1183.54 -2.64862 -5.51052 0
M  V30 12503 H 1187.71 -3.49073 -6.02595 0
M  V30 12504 H 1185.34 -4.08978 -6.40813 0
M  V30 12505 N 1186.91 1.56388 -0.195085 0
M  V30 12506 C 1188.16 1.97189 0.44281 0
M  V30 12507 C 1188.48 1.08312 1.62153 0
M  V30 12508 O 1187.75 0.154404 1.95291 0
M  V30 12509 H 1186.33 0.728188 0.166585 0
M  V30 12510 H 1189 1.92852 -0.281815 0
M  V30 12511 H 1188.09 3.02016 0.786945 0
M  V30 12512 N 1188.39 -0.0785156 1.57404 0
M  V30 12513 C 1189.81 -0.433143 1.5361 0
M  V30 12514 C 1190.01 -1.79564 0.914283 0
M  V30 12515 O 1189.06 -2.47215 0.513899 0
M  V30 12516 C 1190.38 -0.380387 2.98284 0
M  V30 12517 C 1191.93 -0.461056 3.09586 0
M  V30 12518 C 1192.4 -0.438276 4.55898 0
M  V30 12519 N 1193.89 -0.498548 4.60509 0
M  V30 12520 C 1194.63 -0.503028 5.71189 0
M  V30 12521 N 1194.12 -0.462724 6.91253 0
M  V30 12522 N 1195.92 -0.549083 5.59412 0
M  V30 12523 H 1188.07 0.813724 1.96195 0
M  V30 12524 H 1190.33 0.304644 0.897717 0
M  V30 12525 H 1190.04 0.553932 3.4731 0
M  V30 12526 H 1189.91 -1.19313 3.57833 0
M  V30 12527 H 1192.3 -1.3858 2.60537 0
M  V30 12528 H 1192.38 0.380138 2.5296 0
M  V30 12529 H 1192.02 0.482588 5.05602 0
M  V30 12530 H 1191.95 -1.29691 5.1038 0
M  V30 12531 H 1194.44 -0.534219 3.74105 0
M  V30 12532 H 1194.76 -0.469883 7.7137 0
M  V30 12533 H 1193.1 -0.429515 6.93672 0
M  V30 12534 H 1196.29 -0.578215 4.64515 0
M  V30 12535 H 1196.46 -0.549105 6.45669 0
M  V30 12536 N 1189.87 -1.5367 -0.349747 0
M  V30 12537 C 1191.28 -1.62135 -0.925704 0
M  V30 12538 C 1191.63 -0.498725 -1.89756 0
M  V30 12539 O 1190.76 0.372481 -2.1317 0
M  V30 12540 C 1191.35 -2.93885 -1.68573 0
M  V30 12541 C 1189.91 -3.04632 -2.2108 0
M  V30 12542 C 1189.06 -2.57541 -1.02801 0
M  V30 12543 H 1192.01 -1.58182 -0.128065 0
M  V30 12544 H 1192.03 -2.82577 -2.54815 0
M  V30 12545 H 1191.54 -3.75571 -0.978153 0
M  V30 12546 H 1189.64 -2.27567 -2.95032 0
M  V30 12547 H 1189.76 -4.09993 -2.47876 0
M  V30 12548 H 1188.12 -2.12798 -1.39962 0
M  V30 12549 H 1188.9 -3.4166 -0.335157 0
M  V30 12550 N 1191.35 0.610423 -1.45298 0
M  V30 12551 C 1192.26 1.74964 -1.56285 0
M  V30 12552 C 1193.27 1.68149 -0.447436 0
M  V30 12553 O 1194.45 1.88556 -0.707725 0
M  V30 12554 C 1191.52 3.11417 -1.52383 0
M  V30 12555 C 1190.58 3.29707 -2.7494 0
M  V30 12556 C 1189.81 4.5965 -2.71215 0
M  V30 12557 O 1190.03 5.41789 -1.78383 0
M  V30 12558 O 1188.97 4.80591 -3.62375 0
M  V30 12559 H 1192.79 1.68646 -2.52571 0
M  V30 12560 H 1190.38 0.774168 -1.27777 0
M  V30 12561 H 1192.26 3.9272 -1.52805 0
M  V30 12562 H 1190.93 3.18232 -0.592472 0
M  V30 12563 H 1189.84 2.48003 -2.80081 0
M  V30 12564 H 1191.17 3.27766 -3.67192 0
M  V30 12565 N 1192.83 1.32541 0.852676 0
M  V30 12566 C 1194.07 1.22971 1.60383 0
M  V30 12567 C 1194.4 -0.208009 1.93887 0
M  V30 12568 O 1193.67 -1.13326 1.59794 0
M  V30 12569 H 1192.25 0.452149 0.594618 0
M  V30 12570 H 1194.91 1.66089 1.01983 0
M  V30 12571 H 1194 1.81373 2.53989 0
M  V30 12572 N 1194.3 -1.0692 1.15784 0
M  V30 12573 C 1195.27 -2.12407 0.861167 0
M  V30 12574 C 1196.27 -1.6018 -0.141031 0
M  V30 12575 O 1197.46 -1.73972 0.0891192 0
M  V30 12576 C 1194.59 -3.39693 0.286636 0
M  V30 12577 H 1195.78 -2.40157 1.79623 0
M  V30 12578 H 1193.34 -1.22881 0.965916 0
M  V30 12579 H 1194.07 -3.17587 -0.656417 0
M  V30 12580 H 1193.86 -3.78903 1.0087 0
M  V30 12581 H 1195.35 -4.17488 0.0967971 0
M  V30 12582 N 1195.78 -0.955326 -1.25345 0
M  V30 12583 C 1196.71 -0.494145 -2.28211 0
M  V30 12584 C 1197.69 0.459875 -1.63766 0
M  V30 12585 O 1198.88 0.358679 -1.90859 0
M  V30 12586 C 1196.01 0.228228 -3.46549 0
M  V30 12587 C 1194.96 -0.640601 -4.23179 0
M  V30 12588 C 1194.29 0.212553 -5.34277 0
M  V30 12589 C 1195.59 -1.91906 -4.85767 0
M  V30 12590 H 1197.28 -1.35391 -2.67039 0
M  V30 12591 H 1194.83 -0.652462 -1.2837 0
M  V30 12592 H 1196.78 0.561995 -4.17636 0
M  V30 12593 H 1195.51 1.12224 -3.06714 0
M  V30 12594 H 1194.16 -0.957462 -3.53876 0
M  V30 12595 H 1193.81 1.10634 -4.90682 0
M  V30 12596 H 1193.51 -0.365473 -5.86462 0
M  V30 12597 H 1195.04 0.541271 -6.08196 0
M  V30 12598 H 1196.45 -1.65165 -5.48993 0
M  V30 12599 H 1194.85 -2.44279 -5.48131 0
M  V30 12600 H 1195.92 -2.62173 -4.07914 0
M  V30 12601 N 1197.26 1.39987 -0.723979 0
M  V30 12602 C 1198.21 2.30672 -0.0768286 0
M  V30 12603 C 1199.18 1.48634 0.741422 0
M  V30 12604 O 1200.36 1.77351 0.703649 0
M  V30 12605 C 1197.5 3.34902 0.832729 0
M  V30 12606 C 1196.62 4.32 0.00304942 0
M  V30 12607 C 1195.75 5.23298 0.91286 0
M  V30 12608 C 1194.79 6.12051 0.0777706 0
M  V30 12609 N 1193.93 6.9574 0.942912 0
M  V30 12610 H 1198.77 2.85446 -0.855832 0
M  V30 12611 H 1196.3 1.40561 -0.433718 0
M  V30 12612 H 1198.26 3.93911 1.37441 0
M  V30 12613 H 1196.89 2.81611 1.57782 0
M  V30 12614 H 1195.94 3.74702 -0.655916 0
M  V30 12615 H 1197.26 4.94637 -0.643124 0
M  V30 12616 H 1196.41 5.87279 1.52277 0
M  V30 12617 H 1195.15 4.60956 1.59284 0
M  V30 12618 H 1194.15 5.47092 -0.545022 0
M  V30 12619 H 1195.38 6.76455 -0.598827 0
M  V30 12620 H 1193.33 6.35977 1.60838 0
M  V30 12621 H 1193.24 7.55176 0.352968 0
M  V30 12622 H 1194.51 7.64162 1.53874 0
M  V30 12623 N 1198.74 0.470782 1.50404 0
M  V30 12624 C 1199.7 -0.312227 2.27063 0
M  V30 12625 C 1200.7 -0.920709 1.31832 0
M  V30 12626 O 1201.89 -0.789937 1.5526 0
M  V30 12627 C 1199.02 -1.44477 3.0877 0
M  V30 12628 H 1200.22 0.36006 2.97731 0
M  V30 12629 H 1197.77 0.224837 1.54674 0
M  V30 12630 H 1198.51 -2.15212 2.42599 0
M  V30 12631 H 1198.29 -1.01426 3.78755 0
M  V30 12632 H 1199.78 -1.99713 3.66749 0
M  V30 12633 N 1200.22 -1.56282 0.203376 0
M  V30 12634 C 1201.45 -2.02198 -0.438572 0
M  V30 12635 C 1201.86 -1.08343 -1.54619 0
M  V30 12636 O 1201.22 -0.0897594 -1.82279 0
M  V30 12637 C 1201.27 -3.4776 -0.987184 0
M  V30 12638 O 1200.99 -4.38034 0.0762552 0
M  V30 12639 C 1202.49 -4.09234 -1.70419 0
M  V30 12640 H 1199.71 -0.662041 -0.109282 0
M  V30 12641 H 1202.25 -2.02067 0.314509 0
M  V30 12642 H 1200.41 -3.48564 -1.69061 0
M  V30 12643 H 1200.82 -5.2344 -0.333322 0
M  V30 12644 H 1202.3 -5.1291 -2.04027 0
M  V30 12645 H 1202.77 -3.53172 -2.61087 0
M  V30 12646 H 1203.38 -4.12226 -1.04641 0
M  V30 12647 N 1201.7 0.070167 -1.57444 0
M  V30 12648 C 1202.63 1.08351 -2.06839 0
M  V30 12649 C 1203.61 1.40269 -0.962224 0
M  V30 12650 O 1204.79 1.49867 -1.23505 0
M  V30 12651 C 1201.92 2.39649 -2.51368 0
M  V30 12652 C 1200.88 2.22079 -3.65875 0
M  V30 12653 C 1200.2 3.58776 -3.96464 0
M  V30 12654 C 1201.5 1.64069 -4.95862 0
M  V30 12655 H 1203.2 0.672465 -2.9175 0
M  V30 12656 H 1200.74 0.322027 -1.40353 0
M  V30 12657 H 1202.69 3.10833 -2.84537 0
M  V30 12658 H 1201.42 2.82736 -1.63487 0
M  V30 12659 H 1200.08 1.53337 -3.32992 0
M  V30 12660 H 1199.73 3.99436 -3.05712 0
M  V30 12661 H 1199.43 3.47859 -4.7357 0
M  V30 12662 H 1200.95 4.31387 -4.32131 0
M  V30 12663 H 1202.36 2.2512 -5.27251 0
M  V30 12664 H 1200.76 1.63843 -5.773 0
M  V30 12665 H 1201.83 0.60232 -4.81145 0
M  V30 12666 N 1203.17 1.53854 0.341593 0
M  V30 12667 C 1204.4 1.75447 1.10604 0
M  V30 12668 C 1204.82 0.493225 1.81518 0
M  V30 12669 O 1204.18 -0.554253 1.7262 0
M  V30 12670 C 1204.23 2.93593 2.09369 0
M  V30 12671 O 1203.33 2.63878 3.16926 0
M  V30 12672 H 1202.67 0.581923 0.319783 0
M  V30 12673 H 1205.2 2.00822 0.391388 0
M  V30 12674 H 1205.21 3.20437 2.52556 0
M  V30 12675 H 1203.89 3.85067 1.57151 0
M  V30 12676 H 1202.47 2.47929 2.78542 0
M  V30 12677 N 1204.65 -0.602709 1.4562 0
M  V30 12678 C 1205.58 -1.72374 1.5751 0
M  V30 12679 C 1206.56 -1.64669 0.426389 0
M  V30 12680 O 1207.75 -1.82994 0.650143 0
M  V30 12681 C 1204.88 -3.10987 1.5461 0
M  V30 12682 C 1203.83 -3.33507 2.68248 0
M  V30 12683 C 1203.16 -4.72443 2.50403 0
M  V30 12684 C 1204.46 -3.23285 4.10224 0
M  V30 12685 H 1206.15 -1.62679 2.51348 0
M  V30 12686 H 1203.7 -0.781217 1.20967 0
M  V30 12687 H 1205.65 -3.89214 1.61525 0
M  V30 12688 H 1204.37 -3.21533 0.573049 0
M  V30 12689 H 1203.03 -2.57672 2.60769 0
M  V30 12690 H 1202.68 -4.79729 1.51226 0
M  V30 12691 H 1202.38 -4.88466 3.26611 0
M  V30 12692 H 1203.91 -5.52864 2.59179 0
M  V30 12693 H 1205.32 -3.91381 4.1892 0
M  V30 12694 H 1203.72 -3.50837 4.86861 0
M  V30 12695 H 1204.79 -2.20652 4.31788 0
M  V30 12696 N 1206.13 -1.32992 -0.845635 0
M  V30 12697 C 1207.06 -1.25301 -1.97033 0
M  V30 12698 C 1208.04 -0.134966 -1.69564 0
M  V30 12699 O 1209.23 -0.323629 -1.91484 0
M  V30 12700 C 1206.36 -0.984551 -3.33052 0
M  V30 12701 C 1205.31 -2.06481 -3.749 0
M  V30 12702 C 1204.64 -1.6486 -5.08651 0
M  V30 12703 C 1205.94 -3.48083 -3.89404 0
M  V30 12704 H 1207.63 -2.194 -2.03725 0
M  V30 12705 H 1205.18 -1.05621 -0.978783 0
M  V30 12706 H 1207.13 -0.917269 -4.11296 0
M  V30 12707 H 1205.85 -0.00793116 -3.26599 0
M  V30 12708 H 1204.51 -2.1224 -2.98915 0
M  V30 12709 H 1204.16 -0.659183 -4.98662 0
M  V30 12710 H 1203.86 -2.37145 -5.37621 0
M  V30 12711 H 1205.38 -1.59585 -5.89377 0
M  V30 12712 H 1206.8 -3.44863 -4.57976 0
M  V30 12713 H 1205.19 -4.18796 -4.29802 0
M  V30 12714 H 1206.26 -3.87084 -2.92051 0
M  V30 12715 N 1207.61 1.06304 -1.1635 0
M  V30 12716 C 1208.52 2.17296 -0.884289 0
M  V30 12717 C 1209.53 1.73408 0.143414 0
M  V30 12718 O 1210.71 2.01373 -0.0331987 0
M  V30 12719 C 1207.77 3.44509 -0.389163 0
M  V30 12720 C 1206.84 4.02906 -1.48208 0
M  V30 12721 C 1206.07 5.24047 -1.01048 0
M  V30 12722 O 1206.29 5.70229 0.139821 0
M  V30 12723 O 1205.23 5.74394 -1.79876 0
M  V30 12724 H 1209.05 2.4369 -1.81243 0
M  V30 12725 H 1206.64 1.15841 -0.943459 0
M  V30 12726 H 1208.52 4.21229 -0.120018 0
M  V30 12727 H 1207.19 3.19642 0.510968 0
M  V30 12728 H 1206.1 3.27677 -1.80496 0
M  V30 12729 H 1207.43 4.32068 -2.35751 0
M  V30 12730 N 1209.09 0.96196 1.24836 0
M  V30 12731 C 1210.5 0.667561 1.44968 0
M  V30 12732 C 1210.7 -0.772521 1.86103 0
M  V30 12733 O 1209.76 -1.54704 1.99557 0
M  V30 12734 C 1211.07 1.64675 2.516 0
M  V30 12735 C 1212.62 1.65874 2.65433 0
M  V30 12736 C 1213.09 2.62576 3.75257 0
M  V30 12737 N 1214.58 2.60984 3.82677 0
M  V30 12738 C 1215.32 3.32484 4.67163 0
M  V30 12739 N 1214.82 4.13482 5.55882 0
M  V30 12740 N 1216.61 3.21336 4.61193 0
M  V30 12741 H 1208.76 1.89248 0.964307 0
M  V30 12742 H 1211.02 0.814443 0.485167 0
M  V30 12743 H 1210.73 2.67572 2.2825 0
M  V30 12744 H 1210.6 1.415 3.49653 0
M  V30 12745 H 1212.99 0.636912 2.88145 0
M  V30 12746 H 1213.07 1.9311 1.67756 0
M  V30 12747 H 1212.71 3.6489 3.53295 0
M  V30 12748 H 1212.64 2.32622 4.72435 0
M  V30 12749 H 1215.14 2.02187 3.19263 0
M  V30 12750 H 1215.45 4.6494 6.17293 0
M  V30 12751 H 1213.79 4.17578 5.55566 0
M  V30 12752 H 1216.98 2.57524 3.90895 0
M  V30 12753 H 1217.16 3.77323 5.26812 0
M  V30 12754 N 1210.56 -1.39601 0.731392 0
M  V30 12755 C 1211.81 -2.00883 0.278168 0
M  V30 12756 C 1212.14 -1.57897 -1.13059 0
M  V30 12757 O 1211.42 -0.806203 -1.77005 0
M  V30 12758 C 1211.7 -3.58132 0.375969 0
M  V30 12759 C 1211.55 -4.11147 1.82423 0
M  V30 12760 C 1212.87 -4.39425 -0.243702 0
M  V30 12761 H 1209.99 -0.729831 0.102549 0
M  V30 12762 H 1212.63 -1.65859 0.926869 0
M  V30 12763 H 1210.78 -3.881 -0.176329 0
M  V30 12764 H 1212.46 -3.91914 2.43313 0
M  V30 12765 H 1210.7 -3.64842 2.34675 0
M  V30 12766 H 1211.37 -5.20291 1.84396 0
M  V30 12767 H 1213.85 -4.1548 0.227067 0
M  V30 12768 H 1212.72 -5.48709 -0.144907 0
M  V30 12769 H 1212.98 -4.21642 -1.32929 0
M  V30 12770 N 1212.04 -0.478751 -1.50152 0
M  V30 12771 C 1212.97 0.301182 -2.31549 0
M  V30 12772 C 1213.95 0.983276 -1.38801 0
M  V30 12773 O 1215.14 0.978973 -1.67719 0
M  V30 12774 C 1212.27 1.3791 -3.18745 0
M  V30 12775 C 1211.22 0.818175 -4.20107 0
M  V30 12776 C 1210.55 1.99496 -4.9609 0
M  V30 12777 C 1211.85 -0.17574 -5.22004 0
M  V30 12778 H 1213.54 -0.378188 -2.97002 0
M  V30 12779 H 1211.09 -0.183323 -1.42828 0
M  V30 12780 H 1213.04 1.93227 -3.74488 0
M  V30 12781 H 1211.77 2.08735 -2.51192 0
M  V30 12782 H 1210.42 0.286924 -3.65475 0
M  V30 12783 H 1210.07 2.69036 -4.25004 0
M  V30 12784 H 1209.77 1.62582 -5.6466 0
M  V30 12785 H 1211.3 2.55288 -5.54671 0
M  V30 12786 H 1212.71 0.288513 -5.72574 0
M  V30 12787 H 1211.11 -0.459549 -5.98338 0
M  V30 12788 H 1212.18 -1.09911 -4.72279 0
M  V30 12789 N 1213.52 1.56172 -0.211661 0
M  V30 12790 C 1214.45 2.15791 0.74225 0
M  V30 12791 C 1215.43 1.0994 1.198 0
M  V30 12792 O 1216.62 1.38143 1.28253 0
M  V30 12793 C 1213.74 2.73021 2.00443 0
M  V30 12794 C 1212.79 3.91611 1.68946 0
M  V30 12795 S 1213.62 5.29139 0.822949 0
M  V30 12796 C 1214.78 5.898 2.09491 0
M  V30 12797 H 1215.01 2.96366 0.235482 0
M  V30 12798 H 1212.54 1.544 0.0035357 0
M  V30 12799 H 1214.5 3.06635 2.7292 0
M  V30 12800 H 1213.16 1.92457 2.48232 0
M  V30 12801 H 1212.36 4.30122 2.62699 0
M  V30 12802 H 1211.96 3.59093 1.04539 0
M  V30 12803 H 1214.25 6.05172 3.04587 0
M  V30 12804 H 1215.19 6.86036 1.75386 0
M  V30 12805 H 1215.6 5.18546 2.23093 0
M  V30 12806 N 1215 -0.0618163 1.57479 0
M  V30 12807 C 1215.95 -1.0724 2.04373 0
M  V30 12808 C 1216.92 -1.37875 0.926271 0
M  V30 12809 O 1218.1 -1.48772 1.19463 0
M  V30 12810 C 1215.24 -2.37805 2.50085 0
M  V30 12811 C 1214.35 -2.13614 3.7549 0
M  V30 12812 C 1213.49 -3.37814 4.09945 0
M  V30 12813 C 1212.53 -3.09032 5.28361 0
M  V30 12814 N 1211.66 -4.25591 5.58406 0
M  V30 12815 H 1216.5 -0.665536 2.90473 0
M  V30 12816 H 1214.04 -0.317043 1.43643 0
M  V30 12817 H 1216 -3.14048 2.74644 0
M  V30 12818 H 1214.63 -2.76275 1.66948 0
M  V30 12819 H 1213.68 -1.28017 3.58212 0
M  V30 12820 H 1214.99 -1.88361 4.61867 0
M  V30 12821 H 1214.15 -4.22447 4.35458 0
M  V30 12822 H 1212.89 -3.66153 3.22154 0
M  V30 12823 H 1211.89 -2.22797 5.02635 0
M  V30 12824 H 1213.12 -2.82006 6.17778 0
M  V30 12825 H 1211.06 -4.53941 4.73575 0
M  V30 12826 H 1210.98 -4.03646 6.39223 0
M  V30 12827 H 1212.25 -5.11191 5.88476 0
M  V30 12828 N 1216.48 -1.54033 -0.333429 0
M  V30 12829 C 1217.75 -1.62404 -1.09015 0
M  V30 12830 C 1218.13 -0.451653 -2.06212 0
M  V30 12831 O 1217.48 0.555086 -2.21655 0
M  V30 12832 C 1217.69 -2.98949 -1.80085 0
M  V30 12833 C 1219.04 -3.54655 -2.33464 0
M  V30 12834 O 1220.06 -3.0119 -1.90166 0
M  V30 12835 O 1218.92 -4.48195 -3.12703 0
M  V30 12836 H 1216.02 -0.65727 -0.501921 0
M  V30 12837 H 1218.56 -1.66378 -0.33411 0
M  V30 12838 H 1217.33 -3.75716 -1.09332 0
M  V30 12839 H 1216.96 -2.98609 -2.62523 0
M  V30 12840 N 1217.95 0.594978 -1.45938 0
M  V30 12841 C 1219.2 1.34976 -1.49881 0
M  V30 12842 C 1219.52 1.95025 -0.14983 0
M  V30 12843 O 1220.72 2.71417 -0.0669868 0
M  V30 12844 C 1219.18 2.44563 -2.6404 0
M  V30 12845 C 1218.79 1.9087 -4.05306 0
M  V30 12846 C 1220.53 3.21461 -2.77242 0
M  V30 12847 C 1218.44 2.98013 -5.10825 0
M  V30 12848 H 1217.37 0.507366 -0.55776 0
M  V30 12849 H 1220.02 0.636316 -1.72114 0
M  V30 12850 H 1218.4 3.1865 -2.35114 0
M  V30 12851 H 1219.57 1.23408 -4.43968 0
M  V30 12852 H 1217.89 1.26678 -3.96663 0
M  V30 12853 H 1220.49 4.01399 -3.53246 0
M  V30 12854 H 1220.83 3.73271 -1.84321 0
M  V30 12855 H 1221.36 2.54477 -3.05756 0
M  V30 12856 H 1218.1 2.51104 -6.05497 0
M  V30 12857 H 1217.62 3.64003 -4.7672 0
M  V30 12858 H 1219.3 3.62178 -5.36131 0
M  V30 12859 N 1219.43 1.33438 0.838571 0
M  V30 12860 C 1220.68 1.25097 1.5962 0
M  V30 12861 C 1221.01 -0.182798 1.93338 0
M  V30 12862 O 1220.29 -1.1242 1.5872 0
M  V30 12863 C 1220.57 2.12655 2.90603 0
M  V30 12864 C 1220.42 3.64491 2.63565 0
M  V30 12865 C 1221.74 1.99994 3.92033 0
M  V30 12866 H 1218.86 0.455776 0.579169 0
M  V30 12867 H 1221.5 1.63542 0.967169 0
M  V30 12868 H 1219.65 1.79998 3.44286 0
M  V30 12869 H 1221.32 4.0744 2.16312 0
M  V30 12870 H 1219.57 3.86356 1.9726 0
M  V30 12871 H 1220.24 4.21101 3.569 0
M  V30 12872 H 1222.71 2.28635 3.47657 0
M  V30 12873 H 1221.59 2.63509 4.81512 0
M  V30 12874 H 1221.85 0.972263 4.31277 0
M  V30 12875 N 1220.91 -1.05686 1.16912 0
M  V30 12876 C 1222.14 -1.82282 0.978811 0
M  V30 12877 C 1222.55 -1.8278 -0.472972 0
M  V30 12878 O 1221.91 -1.25143 -1.32836 0
M  V30 12879 C 1221.96 -3.28623 1.50629 0
M  V30 12880 O 1221.68 -3.28269 2.90122 0
M  V30 12881 C 1223.18 -4.21927 1.35987 0
M  V30 12882 H 1220.4 -0.574558 0.346588 0
M  V30 12883 H 1222.95 -1.33301 1.55084 0
M  V30 12884 H 1221.1 -3.74893 0.976404 0
M  V30 12885 H 1221.52 -4.19824 3.14401 0
M  V30 12886 H 1222.99 -5.2261 1.77716 0
M  V30 12887 H 1223.47 -4.38131 0.30626 0
M  V30 12888 H 1224.07 -3.81508 1.87968 0
M  V30 12889 N 1222.39 -0.968567 -1.24324 0
M  V30 12890 C 1223.8 -0.66964 -1.74278 0
M  V30 12891 C 1224.15 0.81461 -1.7849 0
M  V30 12892 O 1223.28 1.63736 -1.4149 0
M  V30 12893 C 1223.87 -1.20885 -3.165 0
M  V30 12894 C 1222.43 -0.959808 -3.63957 0
M  V30 12895 C 1221.58 -1.34365 -2.42573 0
M  V30 12896 H 1224.53 -1.14379 -1.10015 0
M  V30 12897 H 1224.55 -0.57555 -3.76122 0
M  V30 12898 H 1224.06 -2.28912 -3.13402 0
M  V30 12899 H 1222.16 0.104894 -3.72452 0
M  V30 12900 H 1222.27 -1.60606 -4.51378 0
M  V30 12901 H 1220.64 -0.762039 -2.43033 0
M  V30 12902 H 1221.42 -2.43343 -2.42155 0
M  V30 12903 N 1223.87 1.39211 -0.738786 0
M  V30 12904 C 1225.11 2.00733 -0.288817 0
M  V30 12905 C 1225.45 1.58494 1.1222 0
M  V30 12906 O 1224.72 0.815579 1.76575 0
M  V30 12907 C 1225 3.57928 -0.394956 0
M  V30 12908 C 1224.86 4.10174 -1.84601 0
M  V30 12909 C 1226.18 4.39548 0.220395 0
M  V30 12910 H 1223.29 0.729276 -0.106418 0
M  V30 12911 H 1225.94 1.65365 -0.935652 0
M  V30 12912 H 1224.09 3.88188 0.155744 0
M  V30 12913 H 1225.76 3.90618 -2.45388 0
M  V30 12914 H 1224 3.63593 -2.36607 0
M  V30 12915 H 1224.67 5.19305 -1.87152 0
M  V30 12916 H 1227.15 4.15354 -0.249098 0
M  V30 12917 H 1226.02 5.48778 0.115806 0
M  V30 12918 H 1226.29 4.22341 1.30691 0
M  V30 12919 N 1225.34 0.486708 1.49896 0
M  V30 12920 C 1226.76 0.0353906 1.86666 0
M  V30 12921 C 1227.11 -1.3743 1.40026 0
M  V30 12922 O 1226.23 -2.02163 0.77194 0
M  V30 12923 C 1226.83 0.0574475 3.38751 0
M  V30 12924 C 1225.39 -0.338464 3.74875 0
M  V30 12925 C 1224.53 0.436196 2.73848 0
M  V30 12926 H 1227.48 0.700215 1.42417 0
M  V30 12927 H 1227.5 -0.741175 3.73212 0
M  V30 12928 H 1227.02 1.08356 3.72667 0
M  V30 12929 H 1225.12 -1.36835 3.46565 0
M  V30 12930 H 1225.23 -0.0289519 4.79091 0
M  V30 12931 H 1223.59 -0.112141 2.54453 0
M  V30 12932 H 1224.38 1.46212 3.10608 0
M  V30 12933 N 1226.82 -1.56058 0.219941 0
M  V30 12934 C 1227.76 -2.17494 -0.723133 0
M  V30 12935 C 1228.77 -1.14356 -1.15873 0
M  V30 12936 O 1229.96 -1.41343 -1.09016 0
M  V30 12937 C 1227.06 -2.74242 -1.99109 0
M  V30 12938 C 1226.23 -4.02533 -1.71132 0
M  V30 12939 C 1225.29 -4.43862 -2.82618 0
M  V30 12940 O 1224.32 -5.10792 -2.51157 0
M  V30 12941 N 1225.52 -4.09412 -4.11537 0
M  V30 12942 H 1228.28 -2.99048 -0.197619 0
M  V30 12943 H 1225.84 -1.61853 0.0388738 0
M  V30 12944 H 1227.84 -2.98862 -2.7288 0
M  V30 12945 H 1226.41 -1.97 -2.42713 0
M  V30 12946 H 1225.63 -3.85786 -0.810128 0
M  V30 12947 H 1226.91 -4.86227 -1.49868 0
M  V30 12948 H 1226.31 -3.55624 -4.39941 0
M  V30 12949 H 1224.87 -4.38928 -4.81857 0
M  V30 12950 N 1228.3 0.053464 -1.57509 0
M  V30 12951 C 1229.21 1.07902 -2.08313 0
M  V30 12952 C 1230.23 1.41223 -1.01647 0
M  V30 12953 O 1231.4 1.51032 -1.33233 0
M  V30 12954 C 1228.47 2.36813 -2.5322 0
M  V30 12955 C 1227.53 2.10297 -3.74264 0
M  V30 12956 C 1226.76 3.33062 -4.1702 0
M  V30 12957 O 1226.99 4.42857 -3.59491 0
M  V30 12958 O 1225.92 3.20195 -5.09665 0
M  V30 12959 H 1229.75 0.677368 -2.9605 0
M  V30 12960 H 1227.33 0.268838 -1.46961 0
M  V30 12961 H 1229.21 3.12645 -2.82544 0
M  V30 12962 H 1227.89 2.76323 -1.68605 0
M  V30 12963 H 1226.79 1.32111 -3.49996 0
M  V30 12964 H 1228.13 1.75658 -4.59788 0
M  V30 12965 N 1229.78 1.54207 0.325255 0
M  V30 12966 C 1230.69 1.86495 1.42326 0
M  V30 12967 C 1231.71 0.756718 1.56684 0
M  V30 12968 O 1232.88 1.05084 1.71812 0
M  V30 12969 C 1229.95 2.08414 2.77064 0
M  V30 12970 C 1229.01 3.32221 2.71897 0
M  V30 12971 C 1228.24 3.53085 4.00209 0
M  V30 12972 O 1228.46 2.77421 4.98391 0
M  V30 12973 O 1227.4 4.46559 4.0357 0
M  V30 12974 H 1231.22 2.79859 1.17951 0
M  V30 12975 H 1228.81 1.40091 0.519124 0
M  V30 12976 H 1230.69 2.24171 3.56827 0
M  V30 12977 H 1229.37 1.18238 3.01333 0
M  V30 12978 H 1228.27 3.21851 1.90691 0
M  V30 12979 H 1229.61 4.22449 2.52582 0
M  V30 12980 N 1231.26 -0.58723 1.46251 0
M  V30 12981 C 1232.5 -1.3476 1.51551 0
M  V30 12982 C 1232.84 -1.93499 0.16483 0
M  V30 12983 O 1232.11 -1.7622 -0.823207 0
M  V30 12984 C 1232.39 -2.48033 2.61059 0
M  V30 12985 C 1232.25 -1.94358 4.05642 0
M  V30 12986 C 1233.57 -3.50096 2.66685 0
M  V30 12987 H 1230.69 -0.48863 0.551733 0
M  V30 12988 H 1233.33 -0.660097 1.78165 0
M  V30 12989 H 1231.48 -3.06679 2.38496 0
M  V30 12990 H 1233.15 -1.40204 4.39478 0
M  V30 12991 H 1231.39 -1.25217 4.15335 0
M  V30 12992 H 1232.06 -2.76105 4.77986 0
M  V30 12993 H 1234.54 -3.01324 2.86955 0
M  V30 12994 H 1233.42 -4.26817 3.45135 0
M  V30 12995 H 1233.68 -4.07032 1.7256 0
M  V30 12996 N 1232.74 -1.33881 -0.831482 0
M  V30 12997 C 1233.68 -1.24748 -1.94182 0
M  V30 12998 C 1234.65 -0.124516 -1.65633 0
M  V30 12999 O 1235.84 -0.304045 -1.88362 0
M  V30 13000 C 1232.98 -1.00016 -3.30289 0
M  V30 13001 C 1232.09 -2.21007 -3.71187 0
M  V30 13002 C 1231.23 -1.89629 -4.962 0
M  V30 13003 C 1230.26 -3.06811 -5.29654 0
M  V30 13004 N 1229.4 -2.75372 -6.45844 0
M  V30 13005 H 1234.24 -2.19709 -2.01325 0
M  V30 13006 H 1231.78 -1.09245 -0.985081 0
M  V30 13007 H 1233.74 -0.837167 -4.08714 0
M  V30 13008 H 1232.37 -0.0872582 -3.22682 0
M  V30 13009 H 1231.42 -2.48256 -2.88224 0
M  V30 13010 H 1232.73 -3.08587 -3.91887 0
M  V30 13011 H 1231.88 -1.70016 -5.82391 0
M  V30 13012 H 1230.62 -0.992964 -4.77485 0
M  V30 13013 H 1229.63 -3.27029 -4.41964 0
M  V30 13014 H 1230.85 -3.97909 -5.50314 0
M  V30 13015 H 1228.8 -1.87607 -6.28601 0
M  V30 13016 H 1228.72 -3.56483 -6.66675 0
M  V30 13017 H 1229.98 -2.59244 -7.35128 0
M  V30 13018 N 1234.21 1.05064 -1.1747 0
M  V30 13019 C 1235.44 1.81761 -0.988464 0
M  V30 13020 C 1235.86 1.83028 0.463272 0
M  V30 13021 O 1235.21 1.25846 1.32171 0
M  V30 13022 C 1235.26 3.2782 -1.5237 0
M  V30 13023 O 1234.99 3.26726 -2.91859 0
M  V30 13024 C 1236.49 4.212 -1.38223 0
M  V30 13025 H 1233.71 0.572712 -0.349631 0
M  V30 13026 H 1236.25 1.32477 -1.55789 0
M  V30 13027 H 1234.41 3.7437 -0.996272 0
M  V30 13028 H 1234.82 4.18151 -3.16623 0
M  V30 13029 H 1236.29 5.2166 -1.80485 0
M  V30 13030 H 1236.77 4.37962 -0.329491 0
M  V30 13031 H 1237.38 3.80506 -1.89988 0
M  V30 13032 N 1235.69 0.975146 1.23809 0
M  V30 13033 C 1236.94 0.642074 1.92367 0
M  V30 13034 C 1237.27 -0.82164 1.75962 0
M  V30 13035 O 1236.55 -1.59205 1.11732 0
M  V30 13036 C 1236.83 1.02677 3.45151 0
M  V30 13037 C 1236.68 2.54773 3.7069 0
M  V30 13038 C 1238 0.5668 4.36435 0
M  V30 13039 H 1235.12 0.234735 0.698619 0
M  V30 13040 H 1237.76 1.21549 1.46034 0
M  V30 13041 H 1235.91 0.538846 3.84745 0
M  V30 13042 H 1237.58 3.11099 3.4061 0
M  V30 13043 H 1235.83 2.97641 3.15583 0
M  V30 13044 H 1236.5 2.7674 4.77618 0
M  V30 13045 H 1238.97 0.985635 4.04258 0
M  V30 13046 H 1237.85 0.864458 5.4205 0
M  V30 13047 H 1238.11 -0.532989 4.38875 0
M  V30 13048 N 1237.17 -1.38817 0.746158 0
M  V30 13049 C 1238.42 -1.99519 0.295839 0
M  V30 13050 C 1238.73 -1.59897 -1.12661 0
M  V30 13051 O 1239.94 -2.13514 -1.67702 0
M  V30 13052 C 1238.39 -3.56712 0.477984 0
M  V30 13053 C 1238 -4.0529 1.90904 0
M  V30 13054 C 1239.75 -4.24405 0.0900039 0
M  V30 13055 C 1237.65 -5.55097 2.04014 0
M  V30 13056 H 1236.58 -0.746389 0.106861 0
M  V30 13057 H 1239.23 -1.58676 0.921637 0
M  V30 13058 H 1237.62 -3.95406 -0.216884 0
M  V30 13059 H 1238.79 -3.77904 2.63677 0
M  V30 13060 H 1237.1 -3.50297 2.25125 0
M  V30 13061 H 1239.7 -5.3444 0.16682 0
M  V30 13062 H 1240.04 -4.05166 -0.956349 0
M  V30 13063 H 1240.58 -3.90924 0.736446 0
M  V30 13064 H 1237.32 -5.7923 3.06877 0
M  V30 13065 H 1236.84 -5.8425 1.35692 0
M  V30 13066 H 1238.52 -6.20682 1.82656 0
M  V30 13067 N 1238.65 -0.49465 -1.49636 0
M  V30 13068 C 1240.06 -0.150217 -1.58892 0
M  V30 13069 C 1240.26 1.34485 -1.50053 0
M  V30 13070 O 1239.32 2.12026 -1.37118 0
M  V30 13071 C 1240.63 -0.721372 -2.91919 0
M  V30 13072 C 1242.18 -0.686908 -3.0537 0
M  V30 13073 C 1242.66 -1.23601 -4.41006 0
M  V30 13074 N 1244.15 -1.19644 -4.47481 0
M  V30 13075 C 1244.88 -1.59157 -5.50869 0
M  V30 13076 N 1244.38 -2.06232 -6.61393 0
M  V30 13077 N 1246.17 -1.50612 -5.41546 0
M  V30 13078 H 1238.32 -1.46675 -1.53624 0
M  V30 13079 H 1240.58 -0.608003 -0.727349 0
M  V30 13080 H 1240.29 -1.76964 -3.03935 0
M  V30 13081 H 1240.16 -0.178199 -3.76779 0
M  V30 13082 H 1242.55 0.352508 -2.92987 0
M  V30 13083 H 1242.63 -1.26716 -2.22209 0
M  V30 13084 H 1242.28 -2.27418 -4.5414 0
M  V30 13085 H 1242.21 -0.631765 -5.22797 0
M  V30 13086 H 1244.7 -0.851443 -3.68183 0
M  V30 13087 H 1245.01 -2.34469 -7.36372 0
M  V30 13088 H 1243.36 -2.10202 -6.6245 0
M  V30 13089 H 1246.55 -1.13659 -4.54092 0
M  V30 13090 H 1246.72 -1.8173 -6.21995 0
M  V30 13091 N 1240.13 1.55939 -0.228214 0
M  V30 13092 C 1241.07 2.20581 0.679157 0
M  V30 13093 C 1242.04 1.16355 1.18536 0
M  V30 13094 O 1243.23 1.44735 1.24324 0
M  V30 13095 C 1240.37 2.89477 1.87875 0
M  V30 13096 C 1239.48 4.08313 1.41083 0
M  V30 13097 C 1238.62 4.64974 2.56851 0
M  V30 13098 C 1237.65 5.76098 2.06828 0
M  V30 13099 N 1236.79 6.27021 3.15894 0
M  V30 13100 H 1241.63 2.97753 0.121203 0
M  V30 13101 H 1239.17 1.47021 0.0480688 0
M  V30 13102 H 1241.13 3.2761 2.58317 0
M  V30 13103 H 1239.76 2.14811 2.40948 0
M  V30 13104 H 1238.81 3.75621 0.601102 0
M  V30 13105 H 1240.12 4.8859 1.00408 0
M  V30 13106 H 1239.27 5.05584 3.35365 0
M  V30 13107 H 1238.01 3.83875 3.00818 0
M  V30 13108 H 1237.02 5.34984 1.26778 0
M  V30 13109 H 1238.24 6.59037 1.63852 0
M  V30 13110 H 1236.19 5.48833 3.5933 0
M  V30 13111 H 1236.11 7.02439 2.79491 0
M  V30 13112 H 1237.37 6.72289 3.94523 0
M  V30 13113 N 1241.6 -0.0451101 1.57535 0
M  V30 13114 C 1242.84 -0.744146 1.90373 0
M  V30 13115 C 1243.21 -1.7337 0.825039 0
M  V30 13116 O 1244.41 -2.4798 1.03726 0
M  V30 13117 C 1242.68 -1.41028 3.28399 0
M  V30 13118 S 1244.24 -2.14069 3.8304 0
M  V30 13119 H 1241.06 -0.246888 0.666759 0
M  V30 13120 H 1243.66 0.000729019 1.955 0
M  V30 13121 H 1242.36 -0.67663 4.04784 0
M  V30 13122 H 1241.89 -2.19404 3.26536 0
M  V30 13123 H 1243.91 -3.40988 3.60474 0
M  V30 13124 N 1243.08 -1.54377 -0.317073 0
M  V30 13125 C 1244.01 -1.8721 -1.39552 0
M  V30 13126 C 1244.99 -0.729483 -1.53664 0
M  V30 13127 O 1246.18 -0.983799 -1.67437 0
M  V30 13128 C 1243.31 -2.1052 -2.76222 0
M  V30 13129 C 1242.26 -3.26366 -2.76892 0
M  V30 13130 C 1241.59 -3.35061 -4.16699 0
M  V30 13131 C 1242.89 -4.63862 -2.40061 0
M  V30 13132 H 1244.58 -2.77532 -1.12323 0
M  V30 13133 H 1242.13 -1.33536 -0.538897 0
M  V30 13134 H 1244.08 -2.32073 -3.51739 0
M  V30 13135 H 1242.81 -1.16953 -3.04942 0
M  V30 13136 H 1241.46 -3.0471 -2.03831 0
M  V30 13137 H 1241.11 -2.39041 -4.4257 0
M  V30 13138 H 1240.81 -4.12923 -4.18053 0
M  V30 13139 H 1242.34 -3.58856 -4.94019 0
M  V30 13140 H 1243.75 -4.85252 -3.05292 0
M  V30 13141 H 1242.15 -5.44321 -2.52655 0
M  V30 13142 H 1243.22 -4.6567 -1.35202 0
M  V30 13143 N 1244.56 0.579466 -1.4656 0
M  V30 13144 C 1245.47 1.71609 -1.59961 0
M  V30 13145 C 1246.49 1.67162 -0.483002 0
M  V30 13146 O 1247.66 1.87012 -0.747561 0
M  V30 13147 C 1244.73 3.08114 -1.58954 0
M  V30 13148 C 1243.79 3.238 -2.81872 0
M  V30 13149 C 1243.02 4.53794 -2.80904 0
M  V30 13150 O 1243.24 5.37884 -1.89835 0
M  V30 13151 O 1242.18 4.72796 -3.72488 0
M  V30 13152 H 1246 1.6325 -2.56092 0
M  V30 13153 H 1243.59 0.746891 -1.2939 0
M  V30 13154 H 1245.47 3.8939 -1.611 0
M  V30 13155 H 1244.15 3.16903 -0.65984 0
M  V30 13156 H 1243.05 2.42006 -2.85279 0
M  V30 13157 H 1244.39 3.19904 -3.74062 0
M  V30 13158 N 1246.04 1.3432 0.824371 0
M  V30 13159 C 1246.97 1.21619 1.94271 0
M  V30 13160 C 1247.98 0.143628 1.62165 0
M  V30 13161 O 1249.17 0.395353 1.74067 0
M  V30 13162 C 1246.27 0.846128 3.28167 0
M  V30 13163 C 1245.45 2.01337 3.88307 0
M  V30 13164 C 1244.5 1.62194 5.00579 0
M  V30 13165 O 1243.53 2.33831 5.18953 0
M  V30 13166 N 1244.73 0.535262 5.78027 0
M  V30 13167 H 1247.5 2.17963 2.05699 0
M  V30 13168 H 1245.06 1.27256 1.00088 0
M  V30 13169 H 1247.05 0.566086 4.00721 0
M  V30 13170 H 1245.62 -0.0270764 3.12588 0
M  V30 13171 H 1244.84 2.45823 3.08164 0
M  V30 13172 H 1246.13 2.79404 4.25219 0
M  V30 13173 H 1245.53 -0.0603126 5.65668 0
M  V30 13174 H 1244.08 0.314946 6.51039 0
M  V30 13175 N 1247.52 -1.0444 1.18026 0
M  V30 13176 C 1248.48 -2.10532 0.906028 0
M  V30 13177 C 1249.48 -1.60443 -0.107022 0
M  V30 13178 O 1250.67 -1.73744 0.126001 0
M  V30 13179 C 1247.8 -3.39008 0.358625 0
M  V30 13180 H 1248.99 -2.36293 1.84677 0
M  V30 13181 H 1246.55 -1.20805 0.991763 0
M  V30 13182 H 1247.28 -3.18908 -0.588904 0
M  V30 13183 H 1247.07 -3.76678 1.08884 0
M  V30 13184 H 1248.56 -4.17189 0.185331 0
M  V30 13185 N 1248.99 -0.981699 -1.2329 0
M  V30 13186 C 1249.96 -0.527992 -2.23036 0
M  V30 13187 C 1250.96 0.383083 -1.5617 0
M  V30 13188 O 1252.15 0.176595 -1.73303 0
M  V30 13189 C 1249.28 0.233501 -3.40099 0
M  V30 13190 H 1250.47 -1.40995 -2.64689 0
M  V30 13191 H 1248.03 -0.767724 -1.36146 0
M  V30 13192 H 1248.76 1.13194 -3.03904 0
M  V30 13193 H 1248.55 -0.420505 -3.89839 0
M  V30 13194 H 1250.04 0.539485 -4.14101 0
M  V30 13195 N 1250.47 1.3842 -0.753509 0
M  V30 13196 C 1251.4 2.33073 -0.141198 0
M  V30 13197 C 1252.38 1.54863 0.70367 0
M  V30 13198 O 1253.57 1.8318 0.644872 0
M  V30 13199 C 1250.7 3.39043 0.752802 0
M  V30 13200 C 1249.65 4.27999 0.0106692 0
M  V30 13201 C 1248.98 5.24824 1.02291 0
M  V30 13202 C 1250.28 5.09308 -1.15768 0
M  V30 13203 H 1251.97 2.84528 -0.93188 0
M  V30 13204 H 1249.52 1.36802 -0.449567 0
M  V30 13205 H 1251.47 4.04224 1.19083 0
M  V30 13206 H 1250.2 2.8607 1.57581 0
M  V30 13207 H 1248.85 3.64323 -0.407939 0
M  V30 13208 H 1248.5 4.68139 1.83998 0
M  V30 13209 H 1248.2 5.85196 0.53101 0
M  V30 13210 H 1249.73 5.92882 1.46026 0
M  V30 13211 H 1251.14 5.6773 -0.797203 0
M  V30 13212 H 1249.54 5.78914 -1.58044 0
M  V30 13213 H 1250.61 4.43051 -1.97062 0
M  V30 13214 N 1251.95 0.502579 1.49372 0
M  V30 13215 C 1253.2 -0.0414423 2.02758 0
M  V30 13216 C 1253.53 -1.36499 1.38136 0
M  V30 13217 O 1252.8 -1.87487 0.517593 0
M  V30 13218 C 1253.09 -0.192333 3.59586 0
M  V30 13219 C 1252.94 1.15445 4.34733 0
M  V30 13220 C 1254.26 -0.932218 4.30114 0
M  V30 13221 H 1251.38 -0.0135869 0.736875 0
M  V30 13222 H 1254.02 0.654296 1.78379 0
M  V30 13223 H 1252.17 -0.78491 3.80488 0
M  V30 13224 H 1253.84 1.78603 4.25322 0
M  V30 13225 H 1252.09 1.74333 3.97228 0
M  V30 13226 H 1252.76 1.00216 5.42827 0
M  V30 13227 H 1255.23 -0.429632 4.13876 0
M  V30 13228 H 1254.11 -1.00664 5.39591 0
M  V30 13229 H 1254.37 -1.9763 3.95468 0
M  V30 13230 N 1253.43 -1.55816 0.23648 0
M  V30 13231 C 1254.38 -2.22322 -0.68378 0
M  V30 13232 C 1255.37 -1.2074 -1.1882 0
M  V30 13233 O 1256.58 -1.38781 -1.14629 0
M  V30 13234 H 1252.95 -0.713021 -0.238966 0
M  V30 13235 H 1254.92 -2.98234 -0.0995879 0
M  V30 13236 C 1253.67 -2.92845 -1.87449 0
M  V30 13237 H 1252.99 -3.70777 -1.49548 0
M  V30 13238 H 1254.43 -3.42758 -2.49585 0
M  V30 13239 C 1252.89 -1.96139 -2.73918 0
M  V30 13240 O 1253.42 -1.48781 -3.73132 0
M  V30 13241 N 1251.63 -1.63465 -2.40266 0
M  V30 13242 H 1251.18 -2.02171 -1.59639 0
M  V30 13243 H 1251.13 -0.990239 -2.98398 0
M  V30 13244 N 1254.91 0.036755 -1.57557 0
M  V30 13245 C 1256.14 0.740011 -1.92892 0
M  V30 13246 C 1256.54 1.69828 -0.833964 0
M  V30 13247 O 1255.89 1.82619 0.198974 0
M  V30 13248 C 1255.95 1.55827 -3.23972 0
M  V30 13249 C 1255.61 0.765613 -4.50541 0
M  V30 13250 C 1256.61 0.0692686 -5.19854 0
M  V30 13251 C 1254.3 0.722425 -4.97078 0
M  V30 13252 C 1256.29 -0.659649 -6.33977 0
M  V30 13253 C 1253.98 -0.0102431 -6.11099 0
M  V30 13254 C 1254.97 -0.700047 -6.79403 0
M  V30 13255 O 1254.66 -1.42084 -7.91244 0
M  V30 13256 H 1254.39 0.213496 -0.641401 0
M  V30 13257 H 1256.95 0.000665152 -2.054 0
M  V30 13258 H 1255.18 2.34125 -3.0777 0
M  V30 13259 H 1256.87 2.14343 -3.44691 0
M  V30 13260 H 1257.63 0.0937148 -4.84909 0
M  V30 13261 H 1253.51 1.24883 -4.43763 0
M  V30 13262 H 1257.06 -1.19861 -6.87226 0
M  V30 13263 H 1252.95 -0.0366395 -6.4549 0
M  V30 13264 H 1253.72 -1.33372 -8.07561 0
M  V30 13265 N 1256.39 1.54543 0.308881 0
M  V30 13266 C 1257.61 1.77753 1.06857 0
M  V30 13267 C 1258.04 0.531616 1.80431 0
M  V30 13268 O 1257.39 -0.517513 1.73757 0
M  V30 13269 C 1257.44 2.97968 2.03094 0
M  V30 13270 O 1256.55 2.70541 3.11257 0
M  V30 13271 H 1255.89 0.588576 0.307368 0
M  V30 13272 H 1258.42 2.01607 0.348703 0
M  V30 13273 H 1258.43 3.25722 2.45702 0
M  V30 13274 H 1257.1 3.88314 1.48948 0
M  V30 13275 H 1255.68 2.53781 2.7322 0
M  V30 13276 N 1257.86 -0.571685 1.46866 0
M  V30 13277 C 1259.28 -0.896172 1.32064 0
M  V30 13278 C 1259.48 -1.9925 0.300291 0
M  V30 13279 O 1258.54 -2.50791 -0.293284 0
M  V30 13280 C 1259.85 -1.3031 2.70998 0
M  V30 13281 C 1261.4 -1.41533 2.79173 0
M  V30 13282 C 1261.87 -1.85587 4.18714 0
M  V30 13283 N 1263.36 -1.92762 4.21185 0
M  V30 13284 C 1264.1 -2.28148 5.26057 0
M  V30 13285 N 1263.59 -2.62248 6.41247 0
M  V30 13286 N 1265.39 -2.28797 5.13428 0
M  V30 13287 H 1257.54 0.152349 2.11853 0
M  V30 13288 H 1259.8 0.00548777 0.947984 0
M  V30 13289 H 1259.51 -0.571469 3.47026 0
M  V30 13290 H 1259.38 -2.26233 3.01826 0
M  V30 13291 H 1261.77 -2.1378 2.03426 0
M  V30 13292 H 1261.85 -0.438342 2.52016 0
M  V30 13293 H 1261.49 -1.13915 4.9496 0
M  V30 13294 H 1261.42 -2.84264 4.43285 0
M  V30 13295 H 1263.91 -1.68854 3.38078 0
M  V30 13296 H 1264.23 -2.88234 7.17036 0
M  V30 13297 H 1262.57 -2.59861 6.44591 0
M  V30 13298 H 1265.76 -2.01587 4.22469 0
M  V30 13299 H 1265.94 -2.56045 5.95269 0
M  V30 13300 N 1259.34 -1.34755 -0.817236 0
M  V30 13301 C 1260.27 -1.29452 -1.94331 0
M  V30 13302 C 1261.25 -0.170902 -1.69239 0
M  V30 13303 O 1262.44 -0.364173 -1.90755 0
M  V30 13304 C 1259.57 -1.05497 -3.30889 0
M  V30 13305 C 1258.52 -2.14386 -3.70436 0
M  V30 13306 C 1257.85 -1.75612 -5.05039 0
M  V30 13307 C 1259.15 -3.56265 -3.81933 0
M  V30 13308 H 1260.84 -2.23672 -1.99025 0
M  V30 13309 H 1258.39 -1.07674 -0.956159 0
M  V30 13310 H 1260.34 -1.0043 -4.09257 0
M  V30 13311 H 1259.06 -0.0772059 -3.26509 0
M  V30 13312 H 1257.72 -2.18532 -2.94345 0
M  V30 13313 H 1257.37 -0.764809 -4.97152 0
M  V30 13314 H 1257.07 -2.48495 -5.3247 0
M  V30 13315 H 1258.6 -1.72051 -5.85859 0
M  V30 13316 H 1260.01 -3.545 -4.50558 0
M  V30 13317 H 1258.41 -4.27818 -4.20822 0
M  V30 13318 H 1259.48 -3.93192 -2.83775 0
M  V30 13319 N 1260.82 1.03812 -1.18578 0
M  V30 13320 C 1262.04 1.8124 -1.00831 0
M  V30 13321 C 1262.47 1.82917 0.43853 0
M  V30 13322 O 1261.83 1.24835 1.31476 0
M  V30 13323 C 1261.88 3.24592 -1.57075 0
M  V30 13324 O 1260.98 4.04688 -0.793824 0
M  V30 13325 H 1260.32 0.559846 -0.357028 0
M  V30 13326 H 1262.85 1.30724 -1.57393 0
M  V30 13327 H 1262.86 3.75363 -1.59896 0
M  V30 13328 H 1261.54 3.22686 -2.62387 0
M  V30 13329 H 1260.11 3.63359 -0.838134 0
M  V30 13330 N 1262.3 0.988223 1.22768 0
M  V30 13331 C 1263.21 0.543407 2.2822 0
M  V30 13332 C 1264.22 -0.405563 1.69208 0
M  V30 13333 O 1265.4 -0.273551 1.99534 0
M  V30 13334 C 1262.46 -0.139495 3.46419 0
M  V30 13335 C 1261.53 0.851853 4.20764 0
M  V30 13336 C 1260.76 0.201446 5.3332 0
M  V30 13337 O 1260.98 -1.00573 5.61464 0
M  V30 13338 O 1259.92 0.903956 5.95073 0
M  V30 13339 H 1263.74 1.42059 2.68427 0
M  V30 13340 H 1261.33 0.756239 1.28846 0
M  V30 13341 H 1263.21 -0.522226 4.18152 0
M  V30 13342 H 1261.88 -0.991315 3.08147 0
M  V30 13343 H 1260.79 1.28543 3.51322 0
M  V30 13344 H 1262.12 1.67273 4.62905 0
M  V30 13345 N 1263.78 -1.38018 0.760839 0
M  V30 13346 C 1265.01 -2.03934 0.330804 0
M  V30 13347 C 1265.41 -1.57509 -1.04821 0
M  V30 13348 O 1264.76 -0.746718 -1.67839 0
M  V30 13349 C 1264.82 -3.58384 0.28303 0
M  V30 13350 C 1264.48 -4.27896 1.6048 0
M  V30 13351 C 1265.48 -4.52769 2.5553 0
M  V30 13352 C 1263.16 -4.65943 1.87624 0
M  V30 13353 C 1265.16 -5.14732 3.75938 0
M  V30 13354 C 1262.85 -5.27629 3.08304 0
M  V30 13355 C 1263.84 -5.51959 4.02281 0
M  V30 13356 O 1263.53 -6.12358 5.20838 0
M  V30 13357 H 1263.26 -0.661733 0.138148 0
M  V30 13358 H 1265.82 -1.77551 1.03271 0
M  V30 13359 H 1264.05 -3.83769 -0.47517 0
M  V30 13360 H 1265.74 -4.05727 -0.118464 0
M  V30 13361 H 1266.5 -4.23798 2.35839 0
M  V30 13362 H 1262.38 -4.46346 1.15308 0
M  V30 13363 H 1265.93 -5.33639 4.49305 0
M  V30 13364 H 1261.82 -5.56023 3.27886 0
M  V30 13365 H 1262.59 -6.30842 5.21517 0
M  V30 13366 N 1265.25 -0.510493 -1.49103 0
M  V30 13367 C 1266.22 0.251915 -2.27811 0
M  V30 13368 C 1267.22 0.885432 -1.34226 0
M  V30 13369 O 1268.41 0.748494 -1.573 0
M  V30 13370 C 1265.54 1.3624 -3.12492 0
M  V30 13371 H 1266.73 -0.438872 -2.96671 0
M  V30 13372 H 1264.28 -0.265767 -1.54024 0
M  V30 13373 H 1265.02 2.08705 -2.48219 0
M  V30 13374 H 1264.8 0.913485 -3.81311 0
M  V30 13375 H 1266.29 1.89919 -3.71915 0
M  V30 13376 N 1266.73 1.55688 -0.24474 0
M  V30 13377 C 1267.68 2.21289 0.655723 0
M  V30 13378 C 1268.65 1.17606 1.17295 0
M  V30 13379 O 1269.83 1.46045 1.22782 0
M  V30 13380 C 1266.97 2.91453 1.84794 0
M  V30 13381 C 1266.09 4.09787 1.36744 0
M  V30 13382 C 1265.22 4.67672 2.51905 0
M  V30 13383 C 1264.26 5.78259 2.00706 0
M  V30 13384 N 1263.4 6.30336 3.09225 0
M  V30 13385 H 1268.24 2.97865 0.0896156 0
M  V30 13386 H 1265.77 1.47064 0.0324725 0
M  V30 13387 H 1267.73 3.30331 2.54828 0
M  V30 13388 H 1266.36 2.17355 2.38656 0
M  V30 13389 H 1265.41 3.76237 0.561228 0
M  V30 13390 H 1266.73 4.89627 0.952199 0
M  V30 13391 H 1265.88 5.09113 3.29984 0
M  V30 13392 H 1264.62 3.87044 2.9673 0
M  V30 13393 H 1263.62 5.36298 1.21097 0
M  V30 13394 H 1264.85 6.60737 1.56853 0
M  V30 13395 H 1262.8 5.52614 3.53489 0
M  V30 13396 H 1262.71 7.05364 2.72025 0
M  V30 13397 H 1263.98 6.76435 3.8737 0
M  V30 13398 N 1268.21 -0.0283989 1.57574 0
M  V30 13399 C 1269.46 -0.718121 1.88483 0
M  V30 13400 C 1269.77 -1.76485 0.843345 0
M  V30 13401 O 1270.98 -2.50721 1.04169 0
M  V30 13402 C 1269.43 -1.32832 3.3449 0
M  V30 13403 C 1269.04 -0.317905 4.46871 0
M  V30 13404 C 1270.79 -1.99788 3.74546 0
M  V30 13405 C 1268.69 -0.936489 5.83938 0
M  V30 13406 H 1267.62 -0.271969 0.703242 0
M  V30 13407 H 1270.27 0.0274862 1.83479 0
M  V30 13408 H 1268.66 -2.12366 3.34241 0
M  V30 13409 H 1269.83 0.450767 4.5859 0
M  V30 13410 H 1268.14 0.249605 4.15651 0
M  V30 13411 H 1270.74 -2.46923 4.74271 0
M  V30 13412 H 1271.08 -2.81633 3.06575 0
M  V30 13413 H 1271.62 -1.27029 3.76973 0
M  V30 13414 H 1268.36 -0.15744 6.55311 0
M  V30 13415 H 1267.88 -1.67499 5.75938 0
M  V30 13416 H 1269.56 -1.44363 6.30689 0
M  V30 13417 N 1269.69 -1.54705 -0.300681 0
M  V30 13418 C 1270.6 -1.88736 -1.39341 0
M  V30 13419 C 1271.61 -0.78155 -1.5546 0
M  V30 13420 O 1272.79 -1.07804 -1.70118 0
M  V30 13421 C 1269.85 -2.12795 -2.73713 0
M  V30 13422 C 1268.92 -3.36504 -2.66577 0
M  V30 13423 C 1268.15 -3.59407 -3.94541 0
M  V30 13424 O 1268.37 -2.85315 -4.93914 0
M  V30 13425 O 1267.31 -4.52923 -3.96415 0
M  V30 13426 H 1271.13 -2.817 -1.13484 0
M  V30 13427 H 1268.72 -1.40899 -0.496771 0
M  V30 13428 H 1270.6 -2.29819 -3.53215 0
M  V30 13429 H 1269.27 -1.23017 -2.99414 0
M  V30 13430 H 1268.18 -3.24844 -1.85546 0
M  V30 13431 H 1269.51 -4.26414 -2.45829 0
M  V30 13432 N 1271.17 0.563888 -1.47167 0
M  V30 13433 C 1272.08 1.69903 -1.61772 0
M  V30 13434 C 1273.09 1.6664 -0.500705 0
M  V30 13435 O 1274.27 1.86209 -0.767354 0
M  V30 13436 C 1271.33 3.06411 -1.62213 0
M  V30 13437 C 1270.39 3.20793 -2.8529 0
M  V30 13438 C 1269.63 4.50789 -2.85701 0
M  V30 13439 O 1269.85 5.3584 -1.95529 0
M  V30 13440 O 1268.78 4.68819 -3.77481 0
M  V30 13441 H 1272.61 1.60525 -2.57809 0
M  V30 13442 H 1270.2 0.733125 -1.30175 0
M  V30 13443 H 1272.08 3.87659 -1.65221 0
M  V30 13444 H 1270.75 3.16186 -0.693415 0
M  V30 13445 H 1269.66 2.38967 -2.87829 0
M  V30 13446 H 1270.99 3.15918 -3.77434 0
M  V30 13447 N 1272.64 1.35187 0.810078 0
M  V30 13448 C 1273.59 1.27848 1.94313 0
M  V30 13449 C 1274.59 0.174081 1.68503 0
M  V30 13450 O 1275.79 0.339848 1.76763 0
M  V30 13451 H 1272.17 0.397504 0.638353 0
M  V30 13452 H 1274.14 2.23579 1.97623 0
M  V30 13453 C 1272.89 1.06382 3.31026 0
M  V30 13454 H 1272.21 1.90601 3.51441 0
M  V30 13455 H 1273.65 1.05287 4.1072 0
M  V30 13456 C 1272.11 -0.232462 3.36097 0
M  V30 13457 O 1272.64 -1.22946 3.82423 0
M  V30 13458 N 1270.85 -0.270028 2.89343 0
M  V30 13459 H 1270.39 0.541891 2.51836 0
M  V30 13460 H 1270.35 -1.13708 2.93117 0
M  V30 13461 N 1274.12 -1.03182 1.19127 0
M  V30 13462 C 1275.05 -2.11462 0.884098 0
M  V30 13463 C 1276.07 -1.62342 -0.121984 0
M  V30 13464 O 1277.26 -1.78179 0.107038 0
M  V30 13465 C 1274.36 -3.37559 0.301227 0
M  V30 13466 C 1273.53 -4.15878 1.35514 0
M  V30 13467 C 1272.59 -5.20291 0.786349 0
M  V30 13468 O 1271.61 -5.50069 1.46331 0
M  V30 13469 N 1272.82 -5.79038 -0.411803 0
M  V30 13470 H 1275.58 -2.38405 1.81613 0
M  V30 13471 H 1273.14 -1.19449 1.09287 0
M  V30 13472 H 1275.13 -4.04593 -0.0930685 0
M  V30 13473 H 1273.7 -3.07987 -0.535022 0
M  V30 13474 H 1272.92 -3.44036 1.9244 0
M  V30 13475 H 1274.21 -4.64993 2.06539 0
M  V30 13476 H 1273.61 -5.57158 -0.979353 0
M  V30 13477 H 1272.17 -6.47495 -0.747912 0
M  V30 13478 N 1275.6 -0.99472 -1.22242 0
M  V30 13479 C 1276.55 -0.546504 -2.24236 0
M  V30 13480 C 1277.52 0.422101 -1.60647 0
M  V30 13481 O 1278.7 0.326452 -1.87987 0
M  V30 13482 C 1275.84 0.130909 -3.44852 0
M  V30 13483 C 1274.96 -0.879653 -4.22949 0
M  V30 13484 C 1274.09 -0.175569 -5.3091 0
M  V30 13485 C 1273.13 -1.17438 -6.00729 0
M  V30 13486 N 1272.27 -0.498474 -7.00328 0
M  V30 13487 H 1277.11 -1.42099 -2.61939 0
M  V30 13488 H 1274.64 -0.711755 -1.28734 0
M  V30 13489 H 1276.6 0.540596 -4.13683 0
M  V30 13490 H 1275.23 0.96917 -3.07907 0
M  V30 13491 H 1274.28 -1.40765 -3.53397 0
M  V30 13492 H 1275.6 -1.64017 -4.71062 0
M  V30 13493 H 1274.75 0.290756 -6.06003 0
M  V30 13494 H 1273.49 0.617438 -4.83776 0
M  V30 13495 H 1272.49 -1.65131 -5.24416 0
M  V30 13496 H 1273.72 -1.96829 -6.4995 0
M  V30 13497 H 1271.66 0.275063 -6.55423 0
M  V30 13498 H 1271.58 -1.19741 -7.46457 0
M  V30 13499 H 1272.85 -0.0550119 -7.79481 0
M  V30 13500 N 1277.08 1.37613 -0.768148 0
M  V30 13501 C 1278.36 1.93921 -0.255724 0
M  V30 13502 C 1278.74 1.70215 1.2486 0
M  V30 13503 O 1278.08 1.0489 2.03003 0
M  V30 13504 C 1278.29 3.43354 -0.625204 0
M  V30 13505 C 1279.64 4.20439 -0.592978 0
M  V30 13506 O 1280.67 3.51701 -0.564375 0
M  V30 13507 O 1279.52 5.43008 -0.616849 0
M  V30 13508 H 1276.62 0.824968 -0.0579366 0
M  V30 13509 H 1279.16 1.46921 -0.849257 0
M  V30 13510 H 1277.94 3.54177 -1.66356 0
M  V30 13511 H 1277.56 3.976 -0.00442816 0
M  V30 13512 N 1278.56 0.518393 1.4883 0
M  V30 13513 C 1279.52 -0.23983 2.27942 0
M  V30 13514 C 1280.52 -0.878302 1.34694 0
M  V30 13515 O 1281.71 -0.740142 1.57694 0
M  V30 13516 C 1278.84 -1.34581 3.1321 0
M  V30 13517 H 1280.03 0.454599 2.96434 0
M  V30 13518 H 1277.59 0.273932 1.53881 0
M  V30 13519 H 1278.32 -2.07385 2.49323 0
M  V30 13520 H 1278.11 -0.893251 3.8179 0
M  V30 13521 H 1279.6 -1.87944 3.72917 0
M  V30 13522 N 1280.03 -1.55556 0.252993 0
M  V30 13523 C 1280.94 -2.25283 -0.654581 0
M  V30 13524 C 1281.96 -1.27103 -1.18831 0
M  V30 13525 O 1283.14 -1.59993 -1.22329 0
M  V30 13526 C 1280.2 -2.94336 -1.83214 0
M  V30 13527 C 1279.26 -4.0794 -1.33728 0
M  V30 13528 C 1278.5 -4.73691 -2.45871 0
M  V30 13529 O 1278.72 -4.38545 -3.64738 0
M  V30 13530 O 1277.65 -5.62083 -2.15283 0
M  V30 13531 H 1281.48 -3.03565 -0.0904091 0
M  V30 13532 H 1279.06 -1.49385 0.0212535 0
M  V30 13533 H 1280.95 -3.37808 -2.5192 0
M  V30 13534 H 1279.62 -2.18989 -2.38381 0
M  V30 13535 H 1278.53 -3.68971 -0.617323 0
M  V30 13536 H 1279.86 -4.85124 -0.831617 0
M  V30 13537 N 1281.51 0.0200419 -1.57587 0
M  V30 13538 C 1282.46 1.0362 -2.08244 0
M  V30 13539 C 1283.45 1.36872 -0.998119 0
M  V30 13540 O 1284.66 1.35671 -1.18293 0
M  V30 13541 H 1281.04 0.351731 -0.664673 0
M  V30 13542 H 1283.01 0.583226 -2.92645 0
M  V30 13543 C 1281.76 2.32574 -2.58466 0
M  V30 13544 H 1281.08 2.0785 -3.41523 0
M  V30 13545 H 1282.52 3.02 -2.97611 0
M  V30 13546 C 1280.98 3.02167 -1.48986 0
M  V30 13547 O 1281.51 3.92359 -0.861251 0
M  V30 13548 N 1279.71 2.63649 -1.22219 0
M  V30 13549 H 1279.26 1.90389 -1.73521 0
M  V30 13550 H 1279.22 3.10529 -0.491828 0
M  V30 13551 N 1282.99 1.54862 0.292472 0
M  V30 13552 C 1284.24 1.74807 1.02813 0
M  V30 13553 C 1284.57 0.536935 1.8663 0
M  V30 13554 O 1283.84 -0.465854 1.88839 0
M  V30 13555 C 1284.13 3.04202 1.927 0
M  V30 13556 C 1283.98 4.35631 1.12006 0
M  V30 13557 C 1285.3 3.29514 2.91734 0
M  V30 13558 H 1282.42 0.636015 0.372362 0
M  V30 13559 H 1285.06 1.87583 0.302069 0
M  V30 13560 H 1283.21 2.9344 2.54608 0
M  V30 13561 H 1284.88 4.58323 0.52319 0
M  V30 13562 H 1283.13 4.31733 0.42298 0
M  V30 13563 H 1283.8 5.22454 1.78172 0
M  V30 13564 H 1286.27 3.39941 2.39957 0
M  V30 13565 H 1285.15 4.21352 3.51786 0
M  V30 13566 H 1285.41 2.48216 3.65843 0
M  V30 13567 N 1284.47 -0.556076 1.47464 0
M  V30 13568 C 1285.72 -1.31061 1.53842 0
M  V30 13569 C 1286.04 -1.93943 0.202806 0
M  V30 13570 O 1285.31 -1.7999 -0.773338 0
M  V30 13571 H 1283.89 -0.486696 0.566689 0
M  V30 13572 H 1286.55 -0.64924 1.83769 0
M  V30 13573 H 1285.65 -2.10354 2.30559 0
M  V30 13574 N 1285.95 -1.35615 -0.802897 0
M  V30 13575 C 1287.36 -1.15733 -1.099 0
M  V30 13576 C 1287.56 0.0277094 -2.01481 0
M  V30 13577 O 1286.62 0.697196 -2.42684 0
M  V30 13578 C 1287.93 -2.46201 -1.72643 0
M  V30 13579 C 1289.48 -2.52442 -1.85046 0
M  V30 13580 C 1289.96 -3.82962 -2.51205 0
M  V30 13581 N 1291.45 -3.84234 -2.58686 0
M  V30 13582 C 1292.18 -4.81956 -3.10654 0
M  V30 13583 N 1291.68 -5.90068 -3.63032 0
M  V30 13584 N 1293.47 -4.69389 -3.09241 0
M  V30 13585 H 1285.62 -2.11511 -0.194177 0
M  V30 13586 H 1287.88 -0.936259 -0.148739 0
M  V30 13587 H 1287.59 -3.33114 -1.12817 0
M  V30 13588 H 1287.46 -2.6102 -2.72302 0
M  V30 13589 H 1289.85 -1.65955 -2.44014 0
M  V30 13590 H 1289.93 -2.41534 -0.842316 0
M  V30 13591 H 1289.58 -4.69848 -1.92885 0
M  V30 13592 H 1289.51 -3.9116 -3.52564 0
M  V30 13593 H 1292 -3.0612 -2.21582 0
M  V30 13594 H 1292.31 -6.60623 -4.00996 0
M  V30 13595 H 1290.66 -5.93755 -3.6122 0
M  V30 13596 H 1293.85 -3.84066 -2.67602 0
M  V30 13597 H 1294.02 -5.4571 -3.49435 0
M  V30 13598 N 1287.43 1.02549 -1.19673 0
M  V30 13599 C 1288.36 2.12794 -0.961289 0
M  V30 13600 C 1289.34 1.69766 0.106575 0
M  V30 13601 O 1290.52 1.94138 -0.0491358 0
M  V30 13602 C 1287.65 3.4364 -0.502868 0
M  V30 13603 C 1286.61 4.00367 -1.51296 0
M  V30 13604 C 1285.93 5.26874 -0.911491 0
M  V30 13605 C 1287.23 4.34782 -2.89416 0
M  V30 13606 H 1288.93 2.32748 -1.88331 0
M  V30 13607 H 1286.47 1.11852 -0.906922 0
M  V30 13608 H 1288.42 4.20141 -0.325436 0
M  V30 13609 H 1287.15 3.23418 0.454764 0
M  V30 13610 H 1285.81 3.25964 -1.67759 0
M  V30 13611 H 1285.46 5.02971 0.0537982 0
M  V30 13612 H 1285.16 5.65791 -1.58602 0
M  V30 13613 H 1286.68 6.06039 -0.74493 0
M  V30 13614 H 1288.09 5.02207 -2.76516 0
M  V30 13615 H 1286.49 4.8479 -3.53693 0
M  V30 13616 H 1287.56 3.43935 -3.41814 0
M  V30 13617 N 1288.9 1.00119 1.21713 0
M  V30 13618 C 1290.15 0.67713 1.89994 0
M  V30 13619 C 1290.47 -0.795149 1.78709 0
M  V30 13620 O 1291.67 -1.23113 2.41982 0
M  V30 13621 C 1290.13 1.16065 3.40671 0
M  V30 13622 C 1289.74 2.65874 3.60576 0
M  V30 13623 C 1291.48 0.911302 4.14603 0
M  V30 13624 C 1289.39 3.07785 5.04997 0
M  V30 13625 H 1288.32 0.249572 0.711498 0
M  V30 13626 H 1290.97 1.21185 1.37792 0
M  V30 13627 H 1289.35 0.554005 3.92106 0
M  V30 13628 H 1290.52 3.31954 3.19598 0
M  V30 13629 H 1288.84 2.88781 2.99991 0
M  V30 13630 H 1291.44 1.20004 5.2106 0
M  V30 13631 H 1291.78 -0.152495 4.16021 0
M  V30 13632 H 1292.31 1.48055 3.69222 0
M  V30 13633 H 1289.05 4.13376 5.08724 0
M  V30 13634 H 1288.57 2.46414 5.46846 0
M  V30 13635 H 1290.25 2.99552 5.73479 0
M  V30 13636 N 1290.38 -1.37203 0.775435 0
M  V30 13637 C 1291.61 -2.03868 0.352927 0
M  V30 13638 C 1292.02 -1.58482 -1.0261 0
M  V30 13639 O 1291.38 -0.767772 -1.65564 0
M  V30 13640 C 1291.43 -3.59378 0.39116 0
M  V30 13641 O 1291.15 -4.03103 1.71579 0
M  V30 13642 C 1292.65 -4.4328 -0.0424808 0
M  V30 13643 H 1289.87 -0.654619 0.14736 0
M  V30 13644 H 1292.42 -1.75463 1.05039 0
M  V30 13645 H 1290.57 -3.86542 -0.257752 0
M  V30 13646 H 1290.99 -4.9764 1.65695 0
M  V30 13647 H 1292.46 -5.51989 0.0354215 0
M  V30 13648 H 1292.94 -4.25374 -1.09333 0
M  V30 13649 H 1293.54 -4.21349 0.578384 0
M  V30 13650 N 1291.86 -0.526279 -1.48553 0
M  V30 13651 C 1293.27 -0.0848694 -1.86507 0
M  V30 13652 C 1293.62 1.3367 -1.43621 0
M  V30 13653 O 1292.75 2.00046 -0.825268 0
M  V30 13654 C 1293.34 -0.147241 -3.3848 0
M  V30 13655 C 1291.9 0.238954 -3.75641 0
M  V30 13656 C 1291.05 -0.508648 -2.72595 0
M  V30 13657 H 1294 -0.737728 -1.40511 0
M  V30 13658 H 1294.02 0.641964 -3.75045 0
M  V30 13659 H 1293.53 -1.18199 -3.69663 0
M  V30 13660 H 1291.63 1.27598 -3.50071 0
M  V30 13661 H 1291.75 -0.0980808 -4.79 0
M  V30 13662 H 1290.11 0.0446382 -2.54661 0
M  V30 13663 H 1290.89 -1.54395 -3.06622 0
M  V30 13664 N 1293.34 1.5542 -0.261239 0
M  V30 13665 C 1294.3 2.20683 0.619011 0
M  V30 13666 C 1295.3 1.18042 1.09192 0
M  V30 13667 O 1296.49 1.43035 0.99432 0
M  V30 13668 C 1293.62 2.86179 1.85242 0
M  V30 13669 H 1294.82 2.99859 0.0493924 0
M  V30 13670 H 1292.37 1.56296 -0.0117687 0
M  V30 13671 H 1293.1 2.10978 2.4629 0
M  V30 13672 H 1292.89 3.61381 1.52138 0
M  V30 13673 H 1294.38 3.36081 2.47869 0
M  V30 13674 N 1294.82 -0.0116844 1.57596 0
M  V30 13675 C 1295.76 -1.00684 2.07681 0
M  V30 13676 C 1296.73 -1.34858 0.969666 0
M  V30 13677 O 1297.92 -1.44896 1.24136 0
M  V30 13678 C 1295.06 -2.29729 2.57524 0
M  V30 13679 C 1294.17 -2.0156 3.82096 0
M  V30 13680 C 1293.31 -3.24601 4.20485 0
M  V30 13681 C 1292.34 -2.92066 5.37925 0
M  V30 13682 N 1291.48 -4.0761 5.71663 0
M  V30 13683 H 1296.32 -0.572787 2.92443 0
M  V30 13684 H 1293.86 -0.271184 1.44579 0
M  V30 13685 H 1295.82 -3.05152 2.84496 0
M  V30 13686 H 1294.45 -2.70824 1.75653 0
M  V30 13687 H 1293.5 -1.16556 3.62103 0
M  V30 13688 H 1294.81 -1.73572 4.67626 0
M  V30 13689 H 1293.96 -4.08379 4.48677 0
M  V30 13690 H 1292.7 -3.55718 3.3364 0
M  V30 13691 H 1291.71 -2.06693 5.09468 0
M  V30 13692 H 1292.93 -2.62209 6.26437 0
M  V30 13693 H 1290.88 -4.38645 4.87777 0
M  V30 13694 H 1290.8 -3.83105 6.51741 0
M  V30 13695 H 1292.06 -4.92211 6.04441 0
M  V30 13696 N 1296.29 -1.55015 -0.284256 0
M  V30 13697 C 1297.24 -1.87122 -1.35107 0
M  V30 13698 C 1298.21 -0.721638 -1.49605 0
M  V30 13699 O 1299.4 -0.971855 -1.64194 0
M  V30 13700 C 1296.54 -2.1388 -2.70831 0
M  V30 13701 C 1295.65 -3.41447 -2.64647 0
M  V30 13702 C 1294.78 -3.57961 -3.92476 0
M  V30 13703 C 1293.82 -4.79261 -3.80757 0
M  V30 13704 N 1292.96 -4.92492 -5.00395 0
M  V30 13705 H 1297.8 -2.78117 -1.07027 0
M  V30 13706 H 1295.34 -1.37704 -0.517311 0
M  V30 13707 H 1297.29 -2.27391 -3.49784 0
M  V30 13708 H 1295.92 -1.26132 -2.97137 0
M  V30 13709 H 1294.98 -3.36467 -1.77466 0
M  V30 13710 H 1296.29 -4.3053 -2.51884 0
M  V30 13711 H 1295.44 -3.71229 -4.79868 0
M  V30 13712 H 1294.18 -2.67042 -4.08093 0
M  V30 13713 H 1293.19 -4.66008 -2.91747 0
M  V30 13714 H 1294.41 -5.71604 -3.66669 0
M  V30 13715 H 1292.36 -4.04501 -5.16445 0
M  V30 13716 H 1292.27 -5.75603 -4.9012 0
M  V30 13717 H 1293.54 -5.10134 -5.89392 0
M  V30 13718 N 1297.77 0.548248 -1.47757 0
M  V30 13719 C 1298.7 1.66409 -1.63799 0
M  V30 13720 C 1299.68 1.62973 -0.487211 0
M  V30 13721 O 1300.87 1.80455 -0.717612 0
M  V30 13722 C 1298 3.05035 -1.66046 0
M  V30 13723 C 1296.95 3.23322 -2.80441 0
M  V30 13724 C 1296.28 4.62824 -2.67765 0
M  V30 13725 C 1297.58 3.07837 -4.2194 0
M  V30 13726 H 1299.27 1.53239 -2.57212 0
M  V30 13727 H 1296.82 0.735783 -1.23783 0
M  V30 13728 H 1298.77 3.82951 -1.75859 0
M  V30 13729 H 1297.49 3.19185 -0.69199 0
M  V30 13730 H 1296.15 2.47816 -2.70153 0
M  V30 13731 H 1295.8 4.73786 -1.68927 0
M  V30 13732 H 1295.5 4.76007 -3.44515 0
M  V30 13733 H 1297.03 5.42864 -2.7952 0
M  V30 13734 H 1298.44 3.75563 -4.33157 0
M  V30 13735 H 1296.84 3.32525 -4.99547 0
M  V30 13736 H 1297.91 2.04474 -4.3968 0
M  V30 13737 N 1299.25 1.36039 0.795694 0
M  V30 13738 C 1300.16 1.31991 1.93948 0
M  V30 13739 C 1301.18 0.223064 1.72564 0
M  V30 13740 O 1302.35 0.454344 1.96208 0
M  V30 13741 C 1299.42 1.10228 3.28711 0
M  V30 13742 C 1298.48 2.29328 3.62914 0
M  V30 13743 C 1297.71 2.08595 4.91247 0
M  V30 13744 O 1297.93 1.05793 5.60503 0
M  V30 13745 O 1296.87 2.96222 5.23962 0
M  V30 13746 H 1300.69 2.28274 2.00311 0
M  V30 13747 H 1298.28 1.16521 0.935048 0
M  V30 13748 H 1300.16 0.999842 4.09367 0
M  V30 13749 H 1298.84 0.17003 3.23253 0
M  V30 13750 H 1297.74 2.4514 2.8259 0
M  V30 13751 H 1299.08 3.21038 3.73089 0
M  V30 13752 N 1300.73 -1.01913 1.20215 0
M  V30 13753 C 1302.01 -1.7262 0.919867 0
M  V30 13754 C 1302.39 -2.03203 -0.572001 0
M  V30 13755 O 1301.73 -1.69448 -1.53296 0
M  V30 13756 C 1301.94 -2.9959 1.79016 0
M  V30 13757 C 1303.29 -3.72905 2.03045 0
M  V30 13758 O 1304.32 -3.0954 1.76249 0
M  V30 13759 O 1303.17 -4.86844 2.48285 0
M  V30 13760 H 1300.27 -0.752194 0.343705 0
M  V30 13761 H 1302.81 -1.07783 1.31076 0
M  V30 13762 H 1301.59 -2.73292 2.80048 0
M  V30 13763 H 1301.21 -3.72168 1.39918 0
M  V30 13764 N 1302.21 -1.00763 -1.2118 0
M  V30 13765 C 1303.43 -0.710746 -1.94309 0
M  V30 13766 C 1303.85 0.727103 -1.74237 0
M  V30 13767 O 1303.21 1.49223 -1.05065 0
M  V30 13768 C 1303.26 -1.02562 -3.46646 0
M  V30 13769 O 1302.98 -2.40699 -3.66054 0
M  V30 13770 C 1304.48 -0.748517 -4.36935 0
M  V30 13771 H 1301.7 -0.26171 -0.617858 0
M  V30 13772 H 1304.24 -1.34639 -1.53924 0
M  V30 13773 H 1302.4 -0.435537 -3.84944 0
M  V30 13774 H 1302.81 -2.51764 -4.60125 0
M  V30 13775 H 1304.29 -1.01899 -5.42513 0
M  V30 13776 H 1304.76 0.317423 -4.38051 0
M  V30 13777 H 1305.37 -1.32033 -4.04286 0
M  V30 13778 N 1303.68 1.3679 -0.7827 0
M  V30 13779 C 1304.93 1.98664 -0.348634 0
M  V30 13780 C 1305.25 1.62827 1.08382 0
M  V30 13781 O 1306.45 2.17886 1.61982 0
M  V30 13782 C 1304.91 3.55319 -0.572392 0
M  V30 13783 C 1304.52 4.00086 -2.01582 0
M  V30 13784 C 1306.26 4.24017 -0.202496 0
M  V30 13785 C 1304.17 5.49493 -2.18659 0
M  V30 13786 H 1303.1 0.743294 -0.126612 0
M  V30 13787 H 1305.75 1.56177 -0.963383 0
M  V30 13788 H 1304.13 3.95842 0.111973 0
M  V30 13789 H 1305.3 3.7078 -2.73603 0
M  V30 13790 H 1303.62 3.44205 -2.34333 0
M  V30 13791 H 1306.22 5.3381 -0.308459 0
M  V30 13792 H 1306.56 4.07559 0.84859 0
M  V30 13793 H 1307.09 3.88834 -0.839834 0
M  V30 13794 H 1303.83 5.7089 -3.22126 0
M  V30 13795 H 1303.35 5.80447 -1.51134 0
M  V30 13796 H 1305.03 6.15621 -1.99048 0
M  V30 13797 N 1305.16 0.53415 1.48272 0
M  V30 13798 C 1306.58 0.192291 1.58437 0
M  V30 13799 C 1306.78 -1.3046 1.53566 0
M  V30 13800 O 1305.83 -2.08316 1.42692 0
M  V30 13801 C 1307.15 0.798515 2.89904 0
M  V30 13802 C 1308.7 0.76763 3.03441 0
M  V30 13803 C 1309.17 1.3525 4.37574 0
M  V30 13804 N 1310.66 1.31466 4.44152 0
M  V30 13805 C 1311.4 1.73706 5.46456 0
M  V30 13806 N 1310.89 2.23695 6.55692 0
M  V30 13807 N 1312.69 1.64918 5.37363 0
M  V30 13808 H 1304.84 1.50696 1.49681 0
M  V30 13809 H 1307.1 0.627073 0.710973 0
M  V30 13810 H 1306.81 1.8496 2.99136 0
M  V30 13811 H 1306.68 0.278033 3.76174 0
M  V30 13812 H 1309.07 -0.274704 2.93819 0
M  V30 13813 H 1309.15 1.32562 2.18771 0
M  V30 13814 H 1308.79 2.39379 4.47951 0
M  V30 13815 H 1308.72 0.770153 5.20938 0
M  V30 13816 H 1311.21 0.948761 3.65796 0
M  V30 13817 H 1311.53 2.5391 7.29897 0
M  V30 13818 H 1309.87 2.27691 6.56644 0
M  V30 13819 H 1313.06 1.25658 4.50919 0
M  V30 13820 H 1313.23 1.98157 6.16958 0
M  V30 13821 N 1306.64 -1.55279 0.269478 0
M  V30 13822 C 1307.57 -2.25278 -0.614188 0
M  V30 13823 C 1308.55 -1.24092 -1.1634 0
M  V30 13824 O 1309.74 -1.52799 -1.19858 0
M  V30 13825 C 1306.87 -2.96956 -1.80096 0
M  V30 13826 C 1305.82 -4.05021 -1.38353 0
M  V30 13827 C 1305.15 -4.64244 -2.65295 0
M  V30 13828 C 1306.45 -5.19523 -0.537886 0
M  V30 13829 H 1308.14 -2.99385 -0.0304397 0
M  V30 13830 H 1305.69 -1.43994 -0.0132004 0
M  V30 13831 H 1307.64 -3.44633 -2.42499 0
M  V30 13832 H 1306.36 -2.20374 -2.41045 0
M  V30 13833 H 1305.02 -3.58146 -0.78273 0
M  V30 13834 H 1304.67 -3.84337 -3.2449 0
M  V30 13835 H 1304.37 -5.37208 -2.38079 0
M  V30 13836 H 1305.89 -5.14668 -3.28557 0
M  V30 13837 H 1307.31 -5.63287 -1.06677 0
M  V30 13838 H 1305.71 -5.99014 -0.360845 0
M  V30 13839 H 1306.78 -4.82857 0.444672 0
M  V30 13840 N 1308.12 0.00332656 -1.576 0
M  V30 13841 C 1309.08 0.980628 -2.07163 0
M  V30 13842 C 1310.08 1.27455 -0.980402 0
M  V30 13843 O 1311.27 1.22029 -1.24317 0
M  V30 13844 C 1308.4 2.30647 -2.51028 0
M  V30 13845 H 1309.6 0.551982 -2.94776 0
M  V30 13846 H 1307.15 0.250728 -1.54276 0
M  V30 13847 H 1307.88 2.78207 -1.66647 0
M  V30 13848 H 1307.67 2.10635 -3.30719 0
M  V30 13849 H 1309.16 3.00761 -2.89711 0
M  V30 13850 N 1309.6 1.55164 0.276031 0
M  V30 13851 C 1310.51 1.90928 1.36321 0
M  V30 13852 C 1311.52 0.806183 1.54197 0
M  V30 13853 O 1312.7 1.10497 1.68382 0
M  V30 13854 C 1309.76 2.17123 2.70293 0
M  V30 13855 C 1308.82 3.40703 2.6119 0
M  V30 13856 C 1308.06 3.65638 3.88773 0
M  V30 13857 O 1308.28 2.93137 4.89313 0
M  V30 13858 O 1307.21 4.59172 3.89159 0
M  V30 13859 H 1311.04 2.8347 1.08988 0
M  V30 13860 H 1308.63 1.41672 0.474292 0
M  V30 13861 H 1310.51 2.3541 3.49514 0
M  V30 13862 H 1309.18 1.27765 2.97419 0
M  V30 13863 H 1308.09 3.27754 1.80355 0
M  V30 13864 H 1309.42 4.30271 2.39014 0
M  V30 13865 N 1311.07 -0.540404 1.48045 0
M  V30 13866 C 1312 -1.65538 1.6468 0
M  V30 13867 C 1312.99 -1.62713 0.495847 0
M  V30 13868 O 1314.17 -1.80072 0.727172 0
M  V30 13869 C 1311.3 -3.0415 1.67661 0
M  V30 13870 C 1310.25 -3.2183 2.82152 0
M  V30 13871 C 1309.58 -4.61397 2.70216 0
M  V30 13872 C 1310.88 -3.05596 4.23567 0
M  V30 13873 H 1312.57 -1.51873 2.58021 0
M  V30 13874 H 1310.12 -0.729208 1.24171 0
M  V30 13875 H 1312.07 -3.82013 1.77887 0
M  V30 13876 H 1310.8 -3.18814 0.708907 0
M  V30 13877 H 1309.46 -2.4638 2.71463 0
M  V30 13878 H 1309.1 -4.72883 1.71437 0
M  V30 13879 H 1308.8 -4.74174 3.47035 0
M  V30 13880 H 1310.33 -5.41374 2.82395 0
M  V30 13881 H 1311.74 -3.73261 4.35143 0
M  V30 13882 H 1310.14 -3.29871 5.01303 0
M  V30 13883 H 1311.21 -2.0214 4.40758 0
M  V30 13884 N 1312.55 -1.36459 -0.788468 0
M  V30 13885 C 1313.8 -1.30935 -1.54867 0
M  V30 13886 C 1314.13 0.110916 -1.93883 0
M  V30 13887 O 1313.41 1.06452 -1.62783 0
M  V30 13888 C 1313.69 -2.23294 -2.8251 0
M  V30 13889 C 1313.54 -3.74022 -2.49856 0
M  V30 13890 C 1314.86 -2.14407 -3.84341 0
M  V30 13891 H 1311.98 -0.476958 -0.561854 0
M  V30 13892 H 1314.62 -1.67018 -0.905805 0
M  V30 13893 H 1312.77 -1.92652 -3.37369 0
M  V30 13894 H 1314.44 -4.15187 -2.01041 0
M  V30 13895 H 1312.69 -3.93411 -1.82785 0
M  V30 13896 H 1313.36 -4.34057 -3.41026 0
M  V30 13897 H 1315.83 -2.41381 -3.38932 0
M  V30 13898 H 1314.71 -2.81199 -4.71401 0
M  V30 13899 H 1314.97 -1.13166 -4.27371 0
M  V30 13900 N 1314.03 1.01274 -1.20754 0
M  V30 13901 C 1315.28 1.74342 -1.01428 0
M  V30 13902 C 1315.59 1.90265 0.453708 0
M  V30 13903 O 1316.8 2.60465 0.76618 0
M  V30 13904 C 1315.25 3.13588 -1.76609 0
M  V30 13905 C 1314.86 3.05664 -3.27526 0
M  V30 13906 C 1316.61 3.9084 -1.65664 0
M  V30 13907 C 1314.51 4.39942 -3.95228 0
M  V30 13908 H 1313.44 0.653619 -0.375897 0
M  V30 13909 H 1316.09 1.13214 -1.44412 0
M  V30 13910 H 1314.48 3.75281 -1.26413 0
M  V30 13911 H 1315.65 2.53256 -3.84965 0
M  V30 13912 H 1313.97 2.41904 -3.38927 0
M  V30 13913 H 1316.56 4.9019 -2.13583 0
M  V30 13914 H 1316.91 4.11754 -0.61351 0
M  V30 13915 H 1317.44 3.35783 -2.13294 0
M  V30 13916 H 1314.18 4.24229 -4.9971 0
M  V30 13917 H 1313.7 4.92342 -3.42578 0
M  V30 13918 H 1315.38 5.08771 -3.99701 0
M  V30 13919 N 1315.51 1.01404 1.20644 0
M  V30 13920 C 1316.42 0.591693 2.27016 0
M  V30 13921 C 1317.44 -0.36958 1.7003 0
M  V30 13922 O 1318.61 -0.231165 2.00069 0
M  V30 13923 C 1315.68 -0.0659827 3.46637 0
M  V30 13924 C 1314.74 0.940911 4.18862 0
M  V30 13925 C 1313.97 0.314526 5.32772 0
M  V30 13926 O 1314.19 -0.886404 5.63471 0
M  V30 13927 O 1313.13 1.02998 5.93022 0
M  V30 13928 H 1316.95 1.4772 2.65353 0
M  V30 13929 H 1314.54 0.783399 1.27213 0
M  V30 13930 H 1316.42 -0.433412 4.19165 0
M  V30 13931 H 1315.1 -0.925729 3.10181 0
M  V30 13932 H 1314 1.35966 3.48517 0
M  V30 13933 H 1315.34 1.77054 4.59252 0
M  V30 13934 N 1316.99 -1.36373 0.789944 0
M  V30 13935 C 1318.23 -1.99523 0.363119 0
M  V30 13936 C 1318.57 -1.6255 -1.0626 0
M  V30 13937 O 1317.84 -0.880551 -1.73426 0
M  V30 13938 C 1318.12 -3.56215 0.527526 0
M  V30 13939 C 1317.98 -4.0304 1.99697 0
M  V30 13940 C 1319.3 -4.40063 -0.0571079 0
M  V30 13941 H 1316.42 -0.724824 0.133412 0
M  V30 13942 H 1319.06 -1.61778 0.996381 0
M  V30 13943 H 1317.21 -3.88498 -0.0115636 0
M  V30 13944 H 1318.88 -3.81241 2.59717 0
M  V30 13945 H 1317.12 -3.54561 2.49939 0
M  V30 13946 H 1317.79 -5.12001 2.06297 0
M  V30 13947 H 1320.27 -4.14143 0.403082 0
M  V30 13948 H 1319.15 -5.4883 0.0879494 0
M  V30 13949 H 1319.41 -4.26901 -1.14926 0
M  V30 13950 N 1318.47 -0.542005 -1.47987 0
M  V30 13951 C 1319.4 0.202703 -2.32618 0
M  V30 13952 C 1320.38 0.923521 -1.42846 0
M  V30 13953 O 1321.56 0.906957 -1.7172 0
M  V30 13954 C 1318.69 1.24267 -3.24307 0
M  V30 13955 C 1317.65 0.639257 -4.23199 0
M  V30 13956 C 1316.97 1.78275 -5.04105 0
M  V30 13957 C 1318.27 -0.396982 -5.20789 0
M  V30 13958 H 1319.97 -0.503817 -2.95131 0
M  V30 13959 H 1317.51 -0.243736 -1.41922 0
M  V30 13960 H 1319.46 1.7717 -3.82347 0
M  V30 13961 H 1318.19 1.97893 -2.59819 0
M  V30 13962 H 1316.85 0.131655 -3.66364 0
M  V30 13963 H 1316.5 2.50768 -4.36032 0
M  V30 13964 H 1316.2 1.38487 -5.71047 0
M  V30 13965 H 1317.72 2.31533 -5.65 0
M  V30 13966 H 1319.13 0.0454057 -5.73282 0
M  V30 13967 H 1317.53 -0.712911 -5.9585 0
M  V30 13968 H 1318.6 -1.29843 -4.67193 0
M  V30 13969 N 1319.94 1.55134 -0.277709 0
M  V30 13970 C 1320.88 2.20028 0.641913 0
M  V30 13971 C 1321.89 1.18578 1.11549 0
M  V30 13972 O 1323.08 1.45291 1.03695 0
M  V30 13973 C 1320.18 2.81443 1.88794 0
M  V30 13974 C 1319.35 4.08607 1.56074 0
M  V30 13975 C 1318.41 4.54045 2.6595 0
M  V30 13976 O 1317.44 5.19762 2.32026 0
M  V30 13977 N 1318.64 4.24403 3.96058 0
M  V30 13978 H 1321.4 2.99575 0.0864929 0
M  V30 13979 H 1318.96 1.61598 -0.0989178 0
M  V30 13980 H 1320.96 3.08784 2.616 0
M  V30 13981 H 1319.53 2.05873 2.35234 0
M  V30 13982 H 1318.75 3.88527 0.666388 0
M  V30 13983 H 1320.03 4.91455 1.31719 0
M  V30 13984 H 1319.43 3.71708 4.26439 0
M  V30 13985 H 1317.99 4.56509 4.65234 0
M  V30 13986 N 1321.42 0.00503138 1.57599 0
M  V30 13987 C 1322.35 -1.01302 2.05598 0
M  V30 13988 C 1323.37 -1.30388 0.974829 0
M  V30 13989 O 1324.56 -1.27275 1.25153 0
M  V30 13990 C 1321.66 -2.34654 2.44522 0
M  V30 13991 C 1320.83 -2.24436 3.7543 0
M  V30 13992 C 1319.89 -3.40517 4.01166 0
M  V30 13993 O 1318.91 -3.18479 4.71762 0
M  V30 13994 N 1320.12 -4.63532 3.49454 0
M  V30 13995 H 1322.88 -0.603656 2.93558 0
M  V30 13996 H 1320.44 -0.182248 1.60871 0
M  V30 13997 H 1322.43 -3.11093 2.5885 0
M  V30 13998 H 1321 -2.67315 1.62055 0
M  V30 13999 H 1320.22 -1.32875 3.71131 0
M  V30 14000 H 1321.51 -2.14786 4.61242 0
M  V30 14001 H 1320.91 -4.84334 2.92296 0
M  V30 14002 H 1319.47 -5.37221 3.69103 0
M  V30 14003 N 1322.9 -1.55308 -0.267798 0
M  V30 14004 C 1323.85 -1.89342 -1.35102 0
M  V30 14005 C 1324.84 -0.770277 -1.50874 0
M  V30 14006 O 1326.05 -0.954679 -1.52597 0
M  V30 14007 H 1322.42 -0.601036 -0.451952 0
M  V30 14008 H 1324.39 -2.7982 -1.03651 0
M  V30 14009 C 1323.14 -2.18644 -2.70352 0
M  V30 14010 H 1322.47 -3.04557 -2.59008 0
M  V30 14011 H 1323.91 -2.46374 -3.45073 0
M  V30 14012 C 1322.36 -0.995753 -3.21848 0
M  V30 14013 O 1322.89 -0.233037 -4.01023 0
M  V30 14014 N 1321.1 -0.792038 -2.79598 0
M  V30 14015 H 1320.65 -1.41396 -2.15325 0
M  V30 14016 H 1320.61 0.00300201 -3.144 0
M  V30 14017 N 1324.38 0.532545 -1.4833 0
M  V30 14018 C 1325.29 1.66433 -1.65339 0
M  V30 14019 C 1326.3 1.65541 -0.535939 0
M  V30 14020 O 1327.48 1.84539 -0.806679 0
M  V30 14021 C 1324.54 3.02901 -1.68676 0
M  V30 14022 C 1323.61 3.14669 -2.92031 0
M  V30 14023 C 1322.84 4.44627 -2.95199 0
M  V30 14024 O 1323.06 5.31572 -2.06851 0
M  V30 14025 O 1322 4.60707 -3.87341 0
M  V30 14026 H 1325.82 1.5502 -2.61156 0
M  V30 14027 H 1323.41 0.705348 -1.31701 0
M  V30 14028 H 1325.29 3.84068 -1.73407 0
M  V30 14029 H 1323.96 3.14644 -0.760327 0
M  V30 14030 H 1322.87 2.32807 -2.92834 0
M  V30 14031 H 1324.2 3.07841 -3.8405 0
M  V30 14032 N 1325.86 1.36875 0.78122 0
M  V30 14033 C 1326.77 1.3404 1.92537 0
M  V30 14034 C 1327.78 0.241354 1.72318 0
M  V30 14035 O 1328.96 0.475128 1.95715 0
M  V30 14036 C 1326.02 1.13708 3.27523 0
M  V30 14037 C 1325.08 2.33165 3.60462 0
M  V30 14038 C 1324.32 2.13793 4.89007 0
M  V30 14039 O 1324.54 1.11732 5.5935 0
M  V30 14040 O 1323.47 3.01762 5.20791 0
M  V30 14041 H 1327.3 2.30386 1.97879 0
M  V30 14042 H 1324.88 1.17506 0.922637 0
M  V30 14043 H 1326.77 1.0432 4.08283 0
M  V30 14044 H 1325.44 0.204306 3.23055 0
M  V30 14045 H 1324.35 2.48123 2.79974 0
M  V30 14046 H 1325.68 3.24977 3.69663 0
M  V30 14047 N 1327.33 -1.00632 1.21289 0
M  V30 14048 C 1328.28 -2.07791 0.938459 0
M  V30 14049 C 1329.27 -1.60552 -0.105773 0
M  V30 14050 O 1330.46 -1.767 0.102981 0
M  V30 14051 C 1327.59 -3.39587 0.503563 0
M  V30 14052 C 1326.67 -3.93497 1.58179 0
M  V30 14053 N 1327.07 -4.20792 2.80656 0
M  V30 14054 C 1325.36 -4.21759 1.45035 0
M  V30 14055 C 1326.06 -4.64411 3.50281 0
M  V30 14056 N 1325.04 -4.67305 2.77717 0
M  V30 14057 H 1328.84 -2.26816 1.869 0
M  V30 14058 H 1326.36 -1.18692 1.10842 0
M  V30 14059 H 1328.35 -4.15902 0.288323 0
M  V30 14060 H 1327.01 -3.21969 -0.420233 0
M  V30 14061 H 1328.02 -4.09386 3.17212 0
M  V30 14062 H 1324.7 -4.13285 0.591745 0
M  V30 14063 H 1326.09 -4.94263 4.55141 0
M  V30 14064 N 1328.81 -1.02043 -1.20104 0
M  V30 14065 C 1329.76 -0.564679 -2.20897 0
M  V30 14066 C 1330.75 0.382041 -1.56299 0
M  V30 14067 O 1331.94 0.204384 -1.75816 0
M  V30 14068 C 1329.07 0.0917516 -3.43177 0
M  V30 14069 C 1328.15 -0.876903 -4.14935 0
M  V30 14070 N 1328.54 -2.03596 -4.63014 0
M  V30 14071 C 1326.84 -0.698538 -4.40496 0
M  V30 14072 C 1327.54 -2.64621 -5.18026 0
M  V30 14073 N 1326.52 -1.92651 -5.08317 0
M  V30 14074 H 1330.32 -1.44825 -2.5574 0
M  V30 14075 H 1327.83 -0.88628 -1.36084 0
M  V30 14076 H 1329.83 0.43582 -4.14616 0
M  V30 14077 H 1328.49 0.971116 -3.09838 0
M  V30 14078 H 1329.5 -2.41573 -4.58108 0
M  V30 14079 H 1326.18 0.132449 -4.1729 0
M  V30 14080 H 1327.57 -3.62732 -5.65575 0
M  V30 14081 N 1330.29 1.35952 -0.797165 0
M  V30 14082 C 1331.25 2.28266 -0.206748 0
M  V30 14083 C 1332.25 1.49169 0.60043 0
M  V30 14084 O 1333.44 1.69054 0.42029 0
M  V30 14085 C 1330.58 3.33363 0.712884 0
M  V30 14086 H 1331.77 2.81992 -1.02082 0
M  V30 14087 H 1329.32 1.45648 -0.567138 0
M  V30 14088 H 1330.06 2.84806 1.551 0
M  V30 14089 H 1329.84 3.91864 0.135926 0
M  V30 14090 H 1331.33 4.02284 1.1206 0
M  V30 14091 N 1331.77 0.549846 1.47697 0
M  V30 14092 C 1332.68 -0.205286 2.337 0
M  V30 14093 C 1333.69 -0.919271 1.47734 0
M  V30 14094 O 1334.87 -0.889808 1.80678 0
M  V30 14095 C 1331.94 -1.22658 3.24278 0
M  V30 14096 C 1331 -0.520815 4.26129 0
M  V30 14097 C 1330.23 -1.49345 5.12378 0
M  V30 14098 O 1330.45 -2.72772 5.00951 0
M  V30 14099 O 1329.39 -1.02197 5.93161 0
M  V30 14100 H 1333.21 0.499982 2.99556 0
M  V30 14101 H 1330.8 0.310538 1.46137 0
M  V30 14102 H 1332.68 -1.8163 3.80248 0
M  V30 14103 H 1331.35 -1.9139 2.61059 0
M  V30 14104 H 1330.26 0.109906 3.73939 0
M  V30 14105 H 1331.59 0.124922 4.92041 0
M  V30 14106 N 1333.25 -1.54984 0.285932 0
M  V30 14107 C 1334.66 -1.85519 -0.209707 0
M  V30 14108 C 1335.01 -1.20794 -1.54606 0
M  V30 14109 O 1334.13 -0.500159 -2.10541 0
M  V30 14110 C 1334.73 -3.36579 -0.387283 0
M  V30 14111 C 1333.29 -3.67199 -0.827148 0
M  V30 14112 C 1332.43 -2.77203 0.073308 0
M  V30 14113 H 1335.39 -1.5037 0.507404 0
M  V30 14114 H 1335.41 -3.60269 -1.2242 0
M  V30 14115 H 1334.92 -3.83658 0.585493 0
M  V30 14116 H 1333.02 -3.25627 -1.81101 0
M  V30 14117 H 1333.13 -4.74574 -0.656976 0
M  V30 14118 H 1331.5 -2.50785 -0.444859 0
M  V30 14119 H 1332.28 -3.27099 1.04216 0
M  V30 14120 N 1334.72 -0.0133892 -1.57594 0
M  V30 14121 C 1335.67 0.982482 -2.05746 0
M  V30 14122 C 1336.66 1.29508 -0.954801 0
M  V30 14123 O 1337.85 1.28382 -1.21848 0
M  V30 14124 C 1334.98 2.27012 -2.57527 0
M  V30 14125 C 1334.07 1.98658 -3.74694 0
M  V30 14126 N 1334.46 1.40512 -4.85891 0
M  V30 14127 C 1332.75 2.28732 -3.82881 0
M  V30 14128 C 1333.46 1.28933 -5.67231 0
M  V30 14129 N 1332.43 1.77951 -5.13648 0
M  V30 14130 H 1336.23 0.527626 -2.89125 0
M  V30 14131 H 1333.75 0.192001 -1.61261 0
M  V30 14132 H 1335.74 2.99212 -2.90306 0
M  V30 14133 H 1334.4 2.73139 -1.75572 0
M  V30 14134 H 1335.42 1.08217 -5.06468 0
M  V30 14135 H 1332.09 2.77641 -3.11804 0
M  V30 14136 H 1333.48 0.841051 -6.66615 0
M  V30 14137 N 1336.2 1.55448 0.259558 0
M  V30 14138 C 1337.45 1.76948 0.990816 0
M  V30 14139 C 1337.78 0.576401 1.85449 0
M  V30 14140 O 1337.06 -0.425693 1.89784 0
M  V30 14141 C 1337.34 3.08221 1.86204 0
M  V30 14142 C 1337.19 4.37909 1.0274 0
M  V30 14143 C 1338.51 3.35627 2.84679 0
M  V30 14144 H 1335.63 0.64377 0.358788 0
M  V30 14145 H 1338.27 1.88182 0.262211 0
M  V30 14146 H 1336.42 2.98775 2.48326 0
M  V30 14147 H 1338.09 4.5933 0.425855 0
M  V30 14148 H 1336.34 4.32533 0.331308 0
M  V30 14149 H 1337.01 5.26116 1.6705 0
M  V30 14150 H 1339.48 3.44954 2.32693 0
M  V30 14151 H 1338.36 4.28719 3.42769 0
M  V30 14152 H 1338.62 2.55921 3.60496 0
M  V30 14153 N 1337.68 -0.524672 1.4861 0
M  V30 14154 C 1338.96 -1.28592 1.47389 0
M  V30 14155 C 1339.34 -2.10257 0.188482 0
M  V30 14156 O 1338.69 -2.12905 -0.829689 0
M  V30 14157 C 1338.9 -2.16284 2.73902 0
M  V30 14158 C 1340.24 -2.7625 3.22445 0
M  V30 14159 O 1341.27 -2.26567 2.74856 0
M  V30 14160 O 1340.13 -3.66635 4.05267 0
M  V30 14161 H 1337.22 -0.580666 0.58886 0
M  V30 14162 H 1339.77 -0.540888 1.60849 0
M  V30 14163 H 1338.54 -1.55757 3.58964 0
M  V30 14164 H 1338.16 -2.98024 2.63188 0
M  V30 14165 N 1339.16 -1.37287 -0.77395 0
M  V30 14166 C 1340.11 -1.32872 -1.88716 0
M  V30 14167 C 1341.08 -0.194655 -1.64955 0
M  V30 14168 O 1342.26 -0.383662 -1.86903 0
M  V30 14169 C 1339.4 -1.13934 -3.2575 0
M  V30 14170 C 1338.51 -2.36552 -3.61479 0
M  V30 14171 C 1337.65 -2.10504 -4.87711 0
M  V30 14172 C 1336.69 -3.28999 -5.16165 0
M  V30 14173 N 1335.82 -3.02517 -6.33584 0
M  V30 14174 H 1340.66 -2.28051 -1.91825 0
M  V30 14175 H 1338.2 -1.13325 -0.93786 0
M  V30 14176 H 1340.16 -1.00976 -4.04796 0
M  V30 14177 H 1338.79 -0.22404 -3.22022 0
M  V30 14178 H 1337.84 -2.60257 -2.77435 0
M  V30 14179 H 1339.15 -3.24931 -3.78446 0
M  V30 14180 H 1338.31 -1.94564 -5.74656 0
M  V30 14181 H 1337.05 -1.19459 -4.72843 0
M  V30 14182 H 1336.05 -3.4548 -4.27696 0
M  V30 14183 H 1337.28 -4.20892 -5.32942 0
M  V30 14184 H 1335.22 -2.14099 -6.20079 0
M  V30 14185 H 1335.14 -3.84439 -6.50955 0
M  V30 14186 H 1336.41 -2.9019 -7.23471 0
M  V30 14187 N 1340.64 0.999871 -1.21821 0
M  V30 14188 C 1341.88 1.73497 -1.0365 0
M  V30 14189 C 1342.21 1.90194 0.430271 0
M  V30 14190 O 1341.48 1.45655 1.31002 0
M  V30 14191 H 1340.06 0.642804 -0.380541 0
M  V30 14192 H 1342.72 1.20461 -1.53216 0
M  V30 14193 H 1341.81 2.73215 -1.50864 0
M  V30 14194 N 1342.11 1.02678 1.19562 0
M  V30 14195 C 1343.02 0.615738 2.26375 0
M  V30 14196 C 1344.04 -0.351525 1.70412 0
M  V30 14197 O 1345.22 -0.209932 2.00303 0
M  V30 14198 C 1342.28 -0.0292135 3.46688 0
M  V30 14199 C 1341.34 0.985284 4.1784 0
M  V30 14200 C 1340.58 0.371016 5.32409 0
M  V30 14201 O 1340.8 -0.826591 5.64379 0
M  V30 14202 O 1339.73 1.09282 5.91896 0
M  V30 14203 H 1343.56 1.50526 2.63772 0
M  V30 14204 H 1341.14 0.796847 1.26375 0
M  V30 14205 H 1343.03 -0.38893 4.19601 0
M  V30 14206 H 1341.7 -0.892778 3.11145 0
M  V30 14207 H 1340.61 1.39655 3.47055 0
M  V30 14208 H 1341.94 1.81915 4.57349 0
M  V30 14209 N 1343.59 -1.35528 0.804364 0
M  V30 14210 C 1344.56 -2.28153 0.21885 0
M  V30 14211 C 1345.56 -1.49486 -0.592511 0
M  V30 14212 O 1346.75 -1.69274 -0.411319 0
M  V30 14213 C 1343.88 -3.33736 -0.695195 0
M  V30 14214 H 1345.07 -2.81446 1.03576 0
M  V30 14215 H 1342.62 -1.45345 0.574854 0
M  V30 14216 H 1343.36 -2.85625 -1.53587 0
M  V30 14217 H 1343.14 -3.91931 -0.115143 0
M  V30 14218 H 1344.63 -4.02872 -1.09925 0
M  V30 14219 N 1345.07 -0.557671 -1.47404 0
M  V30 14220 C 1346.32 -0.0337884 -2.02472 0
M  V30 14221 C 1346.65 1.31624 -1.43197 0
M  V30 14222 O 1345.9 1.86989 -0.577366 0
M  V30 14223 C 1346.2 0.108324 -3.57236 0
M  V30 14224 C 1345.87 -1.17088 -4.35432 0
M  V30 14225 C 1344.53 -1.5214 -4.56516 0
M  V30 14226 C 1346.88 -2.01854 -4.80525 0
M  V30 14227 C 1344.21 -2.71803 -5.19942 0
M  V30 14228 C 1346.56 -3.2072 -5.45272 0
M  V30 14229 C 1345.22 -3.56085 -5.64588 0
M  V30 14230 H 1344.49 -0.012364 -0.740897 0
M  V30 14231 H 1347.14 -0.729276 -1.7707 0
M  V30 14232 H 1345.45 0.886781 -3.81633 0
M  V30 14233 H 1347.14 0.529031 -3.97495 0
M  V30 14234 H 1343.73 -0.887952 -4.19301 0
M  V30 14235 H 1347.92 -1.76081 -4.64014 0
M  V30 14236 H 1343.17 -2.99371 -5.33092 0
M  V30 14237 H 1347.35 -3.86689 -5.79176 0
M  V30 14238 H 1344.97 -4.48903 -6.13506 0
M  V30 14239 N 1346.55 1.54831 -0.294147 0
M  V30 14240 C 1347.51 2.21946 0.572061 0
M  V30 14241 C 1348.51 1.20331 1.06663 0
M  V30 14242 O 1349.7 1.45112 0.963757 0
M  V30 14243 C 1346.83 2.90044 1.7913 0
M  V30 14244 H 1348.03 2.99897 -0.0142234 0
M  V30 14245 H 1345.58 1.56235 -0.0449187 0
M  V30 14246 H 1346.32 2.16154 2.4176 0
M  V30 14247 H 1346.1 3.64527 1.44439 0
M  V30 14248 H 1347.59 3.41263 2.40684 0
M  V30 14249 N 1348.03 0.0217466 1.57585 0
M  V30 14250 C 1349.27 -0.653715 1.92609 0
M  V30 14251 C 1349.63 -1.70158 0.897998 0
M  V30 14252 O 1348.92 -1.91403 -0.0869654 0
M  V30 14253 C 1349.12 -1.3197 3.32143 0
M  V30 14254 C 1348.94 -0.33786 4.48429 0
M  V30 14255 C 1347.71 0.0596192 5.05265 0
M  V30 14256 C 1349.91 0.404844 5.12704 0
M  V30 14257 N 1347.89 1.03739 6.05071 0
M  V30 14258 C 1349.27 1.2366 6.07543 0
M  V30 14259 C 1351.32 0.466341 4.95711 0
M  V30 14260 C 1350.02 2.1243 6.87216 0
M  V30 14261 C 1352.05 1.34134 5.75988 0
M  V30 14262 C 1351.41 2.1609 6.70436 0
M  V30 14263 H 1347.51 -0.211748 0.752786 0
M  V30 14264 H 1350.09 0.0871946 1.94505 0
M  V30 14265 H 1348.27 -2.03078 3.3108 0
M  V30 14266 H 1350 -1.95159 3.54535 0
M  V30 14267 H 1346.75 -0.313299 4.72563 0
M  V30 14268 H 1347.18 1.5223 6.59663 0
M  V30 14269 H 1351.82 -0.153024 4.22523 0
M  V30 14270 H 1349.54 2.75424 7.59715 0
M  V30 14271 H 1353.12 1.39312 5.64875 0
M  V30 14272 H 1352 2.82701 7.31471 0
M  V30 14273 N 1349.51 -1.55583 -0.251311 0
M  V30 14274 C 1350.75 -1.78389 -0.977194 0
M  V30 14275 C 1351.11 -0.589958 -1.83132 0
M  V30 14276 O 1350.4 0.416909 -1.87009 0
M  V30 14277 C 1350.59 -3.04291 -1.87461 0
M  V30 14278 C 1350.42 -4.35815 -1.10885 0
M  V30 14279 C 1349.19 -4.98672 -0.815731 0
M  V30 14280 C 1351.39 -5.11974 -0.488591 0
M  V30 14281 N 1349.37 -6.13895 -0.0254438 0
M  V30 14282 C 1350.74 -6.19776 0.166483 0
M  V30 14283 C 1352.8 -4.96302 -0.398613 0
M  V30 14284 C 1351.5 -7.13611 0.90289 0
M  V30 14285 C 1353.53 -5.9051 0.324252 0
M  V30 14286 C 1352.89 -6.97717 0.96798 0
M  V30 14287 H 1348.99 -0.70478 -0.338836 0
M  V30 14288 H 1351.57 -1.93079 -0.250746 0
M  V30 14289 H 1349.74 -2.90937 -2.57313 0
M  V30 14290 H 1351.48 -3.15409 -2.53573 0
M  V30 14291 H 1348.23 -4.60009 -1.12642 0
M  V30 14292 H 1348.65 -6.76055 0.357664 0
M  V30 14293 H 1353.3 -4.13499 -0.881967 0
M  V30 14294 H 1351.01 -7.95918 1.39786 0
M  V30 14295 H 1354.6 -5.80461 0.39448 0
M  V30 14296 H 1353.48 -7.6936 1.5184 0
M  V30 14297 N 1350.98 0.516783 -1.48886 0
M  V30 14298 C 1352.21 1.30103 -1.61518 0
M  V30 14299 C 1352.63 1.85996 -0.28055 0
M  V30 14300 O 1351.99 1.65075 0.749671 0
M  V30 14301 C 1352.04 2.41837 -2.67483 0
M  V30 14302 O 1351.14 3.45249 -2.25559 0
M  V30 14303 H 1350.48 0.384774 -0.541152 0
M  V30 14304 H 1353.01 0.620424 -1.94966 0
M  V30 14305 H 1353.02 2.87832 -2.89165 0
M  V30 14306 H 1351.7 2.00519 -3.64369 0
M  V30 14307 H 1350.28 3.05281 -2.14144 0
M  V30 14308 N 1352.46 1.37696 0.766659 0
M  V30 14309 C 1353.74 1.23715 1.51506 0
M  V30 14310 C 1354.12 -0.167091 2.10438 0
M  V30 14311 O 1353.47 -1.17526 1.95959 0
M  V30 14312 C 1353.68 2.33715 2.59188 0
M  V30 14313 C 1355.02 2.71504 3.26451 0
M  V30 14314 O 1356.05 2.32929 2.69486 0
M  V30 14315 O 1354.91 3.37981 4.29454 0
M  V30 14316 H 1352 0.483046 0.671264 0
M  V30 14317 H 1354.55 1.49489 0.803188 0
M  V30 14318 H 1353.32 3.27729 2.13797 0
M  V30 14319 H 1352.94 2.09433 3.3797 0
M  V30 14320 N 1353.94 -0.993397 1.22349 0
M  V30 14321 C 1354.87 -2.10171 1.01737 0
M  V30 14322 C 1355.85 -1.69989 -0.0615276 0
M  V30 14323 O 1357.04 -1.93939 0.100591 0
M  V30 14324 C 1354.17 -3.42186 0.593801 0
M  V30 14325 C 1353.12 -3.96215 1.61858 0
M  V30 14326 C 1352.45 -5.24272 1.05086 0
M  V30 14327 C 1353.75 -4.26956 3.00842 0
M  V30 14328 H 1355.44 -2.27673 1.94436 0
M  V30 14329 H 1352.99 -1.09408 0.936258 0
M  V30 14330 H 1354.94 -4.19131 0.436715 0
M  V30 14331 H 1353.66 -3.2451 -0.368855 0
M  V30 14332 H 1352.32 -3.21401 1.76343 0
M  V30 14333 H 1351.97 -5.02937 0.0795747 0
M  V30 14334 H 1351.67 -5.61387 1.73547 0
M  V30 14335 H 1353.19 -6.03851 0.905349 0
M  V30 14336 H 1354.61 -4.94699 2.89734 0
M  V30 14337 H 1353 -4.75242 3.66422 0
M  V30 14338 H 1354.07 -3.34752 3.50812 0
M  V30 14339 N 1355.42 -1.03311 -1.19015 0
M  V30 14340 C 1356.35 -0.562092 -2.21169 0
M  V30 14341 C 1357.33 0.399321 -1.5762 0
M  V30 14342 O 1358.51 0.315421 -1.85842 0
M  V30 14343 C 1355.64 0.179843 -3.38222 0
M  V30 14344 C 1354.69 -0.733653 -4.20143 0
M  V30 14345 S 1355.52 -2.21226 -4.87667 0
M  V30 14346 C 1356.67 -1.48095 -6.08127 0
M  V30 14347 H 1356.91 -1.42762 -2.6078 0
M  V30 14348 H 1354.44 -0.843405 -1.29329 0
M  V30 14349 H 1356.4 0.601764 -4.06065 0
M  V30 14350 H 1355.06 1.02116 -2.97037 0
M  V30 14351 H 1354.25 -0.160633 -5.03744 0
M  V30 14352 H 1353.85 -1.09408 -3.57639 0
M  V30 14353 H 1356.15 -0.76985 -6.73112 0
M  V30 14354 H 1357.09 -2.29372 -6.69921 0
M  V30 14355 H 1357.5 -0.976597 -5.55988 0
M  V30 14356 N 1356.9 1.35099 -0.81154 0
M  V30 14357 C 1358.14 1.9892 -0.394815 0
M  V30 14358 C 1358.47 1.6422 1.0366 0
M  V30 14359 O 1357.75 0.908031 1.72003 0
M  V30 14360 C 1358.03 3.55331 -0.58413 0
M  V30 14361 C 1357.89 3.99812 -2.06084 0
M  V30 14362 C 1359.2 4.40098 -0.0129096 0
M  V30 14363 H 1356.32 0.72261 -0.144926 0
M  V30 14364 H 1358.97 1.60173 -1.02199 0
M  V30 14365 H 1357.12 3.88468 -0.0502446 0
M  V30 14366 H 1358.79 3.77061 -2.65749 0
M  V30 14367 H 1357.03 3.50539 -2.55548 0
M  V30 14368 H 1357.7 5.08655 -2.14416 0
M  V30 14369 H 1360.18 4.13449 -0.468917 0
M  V30 14370 H 1359.05 5.4862 -0.175252 0
M  V30 14371 H 1359.31 4.28675 1.0812 0
M  V30 14372 N 1358.37 0.56548 1.47106 0
M  V30 14373 C 1359.28 -0.180488 2.33905 0
M  V30 14374 C 1360.3 -0.90355 1.48701 0
M  V30 14375 O 1361.48 -0.870595 1.81611 0
M  V30 14376 C 1358.54 -1.19212 3.2556 0
M  V30 14377 C 1357.6 -0.475589 4.26658 0
M  V30 14378 C 1356.83 -1.43902 5.13934 0
M  V30 14379 O 1357.06 -2.67443 5.03816 0
M  V30 14380 O 1355.99 -0.958998 5.94211 0
M  V30 14381 H 1359.82 0.531726 2.99009 0
M  V30 14382 H 1357.4 0.32602 1.45799 0
M  V30 14383 H 1359.28 -1.77586 3.82153 0
M  V30 14384 H 1357.96 -1.8861 2.63074 0
M  V30 14385 H 1356.87 0.149561 3.73801 0
M  V30 14386 H 1358.2 0.177103 4.91881 0
M  V30 14387 N 1359.85 -1.54672 0.302354 0
M  V30 14388 C 1360.8 -2.20281 -0.588245 0
M  V30 14389 C 1361.79 -1.17624 -1.09788 0
M  V30 14390 O 1362.98 -1.43338 -1.03842 0
M  V30 14391 C 1360.11 -2.94812 -1.759 0
M  V30 14392 C 1359.19 -4.04786 -1.26526 0
M  V30 14393 N 1359.58 -5.03425 -0.489625 0
M  V30 14394 C 1357.88 -4.18352 -1.54588 0
M  V30 14395 C 1358.58 -5.81259 -0.226538 0
M  V30 14396 N 1357.56 -5.37581 -0.806723 0
M  V30 14397 H 1361.36 -2.93898 0.0118911 0
M  V30 14398 H 1358.88 -1.62046 0.107181 0
M  V30 14399 H 1360.87 -3.40283 -2.40859 0
M  V30 14400 H 1359.53 -2.22712 -2.36282 0
M  V30 14401 H 1360.54 -5.17726 -0.134401 0
M  V30 14402 H 1357.22 -3.57458 -2.15709 0
M  V30 14403 H 1358.61 -6.70729 0.396499 0
M  V30 14404 N 1361.33 -0.0301034 -1.57571 0
M  V30 14405 C 1362.29 0.936465 -2.09196 0
M  V30 14406 C 1363.29 1.25347 -1.00722 0
M  V30 14407 O 1364.48 1.19364 -1.26877 0
M  V30 14408 C 1361.62 2.2527 -2.55864 0
M  V30 14409 H 1362.81 0.489332 -2.95881 0
M  V30 14410 H 1360.36 0.217948 -1.54773 0
M  V30 14411 H 1361.1 2.7461 -1.72511 0
M  V30 14412 H 1360.88 2.03573 -3.35113 0
M  V30 14413 H 1362.37 2.94549 -2.96025 0
M  V30 14414 N 1362.81 1.55714 0.243056 0
M  V30 14415 C 1363.72 1.93777 1.32241 0
M  V30 14416 C 1364.73 0.838709 1.52452 0
M  V30 14417 O 1365.91 1.14044 1.66 0
M  V30 14418 C 1362.98 2.22808 2.65627 0
M  V30 14419 C 1362.04 3.46166 2.53904 0
M  V30 14420 C 1361.27 3.73802 3.8093 0
M  V30 14421 O 1361.49 3.0345 4.82985 0
M  V30 14422 O 1360.43 4.67323 3.79332 0
M  V30 14423 H 1364.25 2.85718 1.02951 0
M  V30 14424 H 1361.84 1.42646 0.444135 0
M  V30 14425 H 1363.72 2.4277 3.44442 0
M  V30 14426 H 1362.39 1.34045 2.94642 0
M  V30 14427 H 1361.3 3.31506 1.73362 0
M  V30 14428 H 1362.63 4.35244 2.29834 0
M  V30 14429 N 1364.29 -0.50888 1.49158 0
M  V30 14430 C 1365.51 -1.28771 1.61943 0
M  V30 14431 C 1365.93 -1.86594 0.287759 0
M  V30 14432 O 1365.29 -1.67448 -0.725769 0
M  V30 14433 C 1365.34 -2.4236 2.68224 0
M  V30 14434 O 1365.06 -1.86915 3.96225 0
M  V30 14435 C 1366.56 -3.33856 2.91642 0
M  V30 14436 H 1363.78 -0.390849 0.545416 0
M  V30 14437 H 1366.32 -0.611729 1.95136 0
M  V30 14438 H 1364.48 -3.05803 2.37831 0
M  V30 14439 H 1364.89 -2.61426 4.54705 0
M  V30 14440 H 1366.37 -4.09856 3.69759 0
M  V30 14441 H 1366.84 -3.90374 2.01258 0
M  V30 14442 H 1367.45 -2.76187 3.23421 0
M  V30 14443 N 1365.76 -1.381 -0.759346 0
M  V30 14444 C 1367.01 -1.33992 -1.5183 0
M  V30 14445 C 1367.34 0.0718172 -1.94367 0
M  V30 14446 O 1366.59 1.0477 -1.65293 0
M  V30 14447 C 1366.89 -2.23636 -2.78786 0
M  V30 14448 C 1366.56 -3.71703 -2.5524 0
M  V30 14449 C 1365.22 -4.12053 -2.48528 0
M  V30 14450 C 1367.57 -4.65455 -2.34523 0
M  V30 14451 C 1364.9 -5.44252 -2.19105 0
M  V30 14452 C 1367.25 -5.97905 -2.06622 0
M  V30 14453 C 1365.92 -6.37345 -1.98362 0
M  V30 14454 H 1365.19 -0.490311 -0.555587 0
M  V30 14455 H 1367.83 -1.70411 -0.873637 0
M  V30 14456 H 1366.14 -1.80253 -3.47874 0
M  V30 14457 H 1367.84 -2.17764 -3.36719 0
M  V30 14458 H 1364.43 -3.3971 -2.61333 0
M  V30 14459 H 1368.61 -4.35132 -2.38691 0
M  V30 14460 H 1363.87 -5.73758 -2.11214 0
M  V30 14461 H 1368.04 -6.70095 -1.89594 0
M  V30 14462 H 1365.67 -7.39706 -1.75328 0
M  V30 14463 N 1367.24 0.986894 -1.22875 0
M  V30 14464 C 1368.17 2.09628 -1.0285 0
M  V30 14465 C 1369.15 1.70019 0.0525118 0
M  V30 14466 O 1370.34 1.93883 -0.110874 0
M  V30 14467 C 1367.47 3.41866 -0.61194 0
M  V30 14468 C 1366.42 3.95351 -1.63956 0
M  V30 14469 C 1365.75 5.23707 -1.07865 0
M  V30 14470 C 1367.05 4.25354 -3.03102 0
M  V30 14471 H 1368.74 2.26639 -1.95641 0
M  V30 14472 H 1366.29 1.0891 -0.942048 0
M  V30 14473 H 1368.24 4.18893 -0.458936 0
M  V30 14474 H 1366.97 3.24701 0.35164 0
M  V30 14475 H 1365.62 3.20462 -1.78045 0
M  V30 14476 H 1365.27 5.02888 -0.106246 0
M  V30 14477 H 1364.97 5.60459 -1.76522 0
M  V30 14478 H 1366.5 6.03362 -0.937359 0
M  V30 14479 H 1367.91 4.93156 -2.92353 0
M  V30 14480 H 1366.31 4.73292 -3.68938 0
M  V30 14481 H 1367.38 3.32887 -3.52583 0
M  V30 14482 N 1368.72 1.0394 1.18466 0
M  V30 14483 C 1369.95 0.761926 1.92897 0
M  V30 14484 C 1370.37 -0.674618 1.75586 0
M  V30 14485 O 1369.73 -1.46711 1.06515 0
M  V30 14486 C 1369.78 1.13152 3.42387 0
M  V30 14487 O 1368.88 0.256266 4.11603 0
M  V30 14488 H 1368.22 0.280527 0.601831 0
M  V30 14489 H 1370.75 1.3889 1.50235 0
M  V30 14490 H 1370.76 1.0929 3.9309 0
M  V30 14491 H 1369.44 2.17804 3.54308 0
M  V30 14492 H 1368.01 0.354392 3.71212 0
M  V30 14493 N 1370.2 -1.34667 0.818693 0
M  V30 14494 C 1371.13 -2.32134 0.252239 0
M  V30 14495 C 1372.11 -1.58044 -0.628982 0
M  V30 14496 O 1373.29 -1.86049 -0.55674 0
M  V30 14497 C 1370.42 -3.42249 -0.590183 0
M  V30 14498 C 1369.38 -4.27562 0.193547 0
M  V30 14499 C 1368.7 -5.29107 -0.771349 0
M  V30 14500 C 1370 -5.03205 1.39936 0
M  V30 14501 H 1371.7 -2.79758 1.06657 0
M  V30 14502 H 1369.24 -1.34502 0.514325 0
M  V30 14503 H 1371.2 -4.09445 -0.996616 0
M  V30 14504 H 1369.92 -2.93262 -1.43752 0
M  V30 14505 H 1368.58 -3.61962 0.581297 0
M  V30 14506 H 1368.23 -4.76384 -1.61453 0
M  V30 14507 H 1367.93 -5.87063 -0.251201 0
M  V30 14508 H 1369.45 -5.99174 -1.17573 0
M  V30 14509 H 1370.87 -5.6328 1.06717 0
M  V30 14510 H 1369.26 -5.70715 1.85485 0
M  V30 14511 H 1370.33 -4.33145 2.17976 0
M  V30 14512 N 1371.68 -0.573274 -1.46804 0
M  V30 14513 C 1372.92 -0.0552613 -2.02425 0
M  V30 14514 C 1373.25 1.30098 -1.44585 0
M  V30 14515 O 1372.51 1.86366 -0.597166 0
M  V30 14516 C 1372.81 0.0704285 -3.57331 0
M  V30 14517 C 1372.47 -1.217 -4.34166 0
M  V30 14518 C 1371.13 -1.56973 -4.54877 0
M  V30 14519 C 1373.49 -2.06939 -4.78357 0
M  V30 14520 C 1370.81 -2.77302 -5.1703 0
M  V30 14521 C 1373.17 -3.26486 -5.41839 0
M  V30 14522 C 1371.83 -3.62053 -5.6078 0
M  V30 14523 H 1371.1 -0.0202215 -0.740724 0
M  V30 14524 H 1373.75 -0.748016 -1.76287 0
M  V30 14525 H 1372.05 0.846254 -3.82552 0
M  V30 14526 H 1373.75 0.486841 -3.98034 0
M  V30 14527 H 1370.34 -0.932374 -4.18336 0
M  V30 14528 H 1374.52 -1.80992 -4.62121 0
M  V30 14529 H 1369.78 -3.05008 -5.29887 0
M  V30 14530 H 1373.95 -3.92811 -5.75042 0
M  V30 14531 H 1371.58 -4.55385 -6.08711 0
M  V30 14532 N 1373.15 1.5451 -0.310553 0
M  V30 14533 C 1374.12 2.2254 0.548489 0
M  V30 14534 C 1375.12 1.21456 1.05381 0
M  V30 14535 O 1376.31 1.46126 0.948311 0
M  V30 14536 C 1373.44 2.91927 1.76043 0
M  V30 14537 H 1374.63 2.99865 -0.0460306 0
M  V30 14538 H 1372.19 1.56179 -0.061487 0
M  V30 14539 H 1372.92 2.18706 2.39454 0
M  V30 14540 H 1372.71 3.66038 1.40564 0
M  V30 14541 H 1374.2 3.43797 2.37051 0
M  V30 14542 N 1374.63 0.0384594 1.57553 0
M  V30 14543 C 1375.88 -0.639085 1.92467 0
M  V30 14544 C 1376.21 -1.71239 0.916014 0
M  V30 14545 O 1375.49 -1.94408 -0.0598928 0
M  V30 14546 C 1375.77 -1.24693 3.37822 0
M  V30 14547 C 1375.62 -0.182544 4.49429 0
M  V30 14548 C 1376.94 -2.16226 3.8332 0
M  V30 14549 H 1374.06 -0.230852 0.699912 0
M  V30 14550 H 1376.7 0.0976276 1.89749 0
M  V30 14551 H 1374.85 -1.87481 3.40269 0
M  V30 14552 H 1376.53 0.448622 4.59113 0
M  V30 14553 H 1374.77 0.4909 4.31013 0
M  V30 14554 H 1375.44 -0.647626 5.48188 0
M  V30 14555 H 1377.92 -1.63413 3.82669 0
M  V30 14556 H 1376.79 -2.55705 4.85702 0
M  V30 14557 H 1377.05 -3.05722 3.19353 0
M  V30 14558 N 1376.11 -1.55841 -0.234795 0
M  V30 14559 C 1377.39 -1.69008 -0.984665 0
M  V30 14560 C 1377.77 -0.581882 -2.02922 0
M  V30 14561 O 1377.12 0.412998 -2.24737 0
M  V30 14562 C 1377.33 -3.09796 -1.60708 0
M  V30 14563 C 1378.67 -3.68784 -2.10436 0
M  V30 14564 O 1379.7 -3.12674 -1.70627 0
M  V30 14565 O 1378.56 -4.67175 -2.83567 0
M  V30 14566 H 1375.65 -0.68786 -0.459105 0
M  V30 14567 H 1378.2 -1.68166 -0.227623 0
M  V30 14568 H 1376.97 -3.81908 -0.852169 0
M  V30 14569 H 1376.59 -3.147 -2.43001 0
M  V30 14570 N 1377.59 0.500963 -1.49426 0
M  V30 14571 C 1378.52 1.62019 -1.60701 0
M  V30 14572 C 1379.5 1.56072 -0.456092 0
M  V30 14573 O 1380.68 1.76128 -0.671642 0
M  V30 14574 C 1377.81 3.00532 -1.56199 0
M  V30 14575 C 1376.86 3.2474 -2.76489 0
M  V30 14576 S 1377.69 3.07859 -4.38159 0
M  V30 14577 C 1378.85 4.48767 -4.36301 0
M  V30 14578 H 1379.08 1.5221 -2.55381 0
M  V30 14579 H 1376.61 0.686122 -1.38317 0
M  V30 14580 H 1378.57 3.80402 -1.54287 0
M  V30 14581 H 1377.23 3.07757 -0.628067 0
M  V30 14582 H 1376.42 4.25858 -2.69558 0
M  V30 14583 H 1376.03 2.52593 -2.75813 0
M  V30 14584 H 1378.32 5.40854 -4.08023 0
M  V30 14585 H 1379.26 4.60748 -5.37696 0
M  V30 14586 H 1379.67 4.29448 -3.6638 0
M  V30 14587 N 1379.07 1.38501 0.752011 0
M  V30 14588 C 1380.34 1.25315 1.50185 0
M  V30 14589 C 1380.72 -0.144762 2.10603 0
M  V30 14590 O 1380.07 -1.15441 1.97194 0
M  V30 14591 C 1380.28 2.36451 2.56694 0
M  V30 14592 C 1381.63 2.74952 3.23553 0
M  V30 14593 O 1382.65 2.35774 2.67 0
M  V30 14594 O 1381.51 3.42517 4.25845 0
M  V30 14595 H 1378.61 0.490139 0.666103 0
M  V30 14596 H 1381.15 1.50333 0.787288 0
M  V30 14597 H 1379.93 3.29978 2.10309 0
M  V30 14598 H 1379.55 2.13006 3.35729 0
M  V30 14599 N 1380.55 -0.980364 1.23396 0
M  V30 14600 C 1381.51 -2.05433 1.01635 0
M  V30 14601 C 1382.51 -1.60785 -0.0218244 0
M  V30 14602 O 1383.7 -1.72832 0.217922 0
M  V30 14603 C 1380.83 -3.36631 0.537822 0
M  V30 14604 H 1382.02 -2.26172 1.96943 0
M  V30 14605 H 1379.58 -1.15378 1.05441 0
M  V30 14606 H 1380.31 -3.21581 -0.41903 0
M  V30 14607 H 1380.1 -3.70377 1.28698 0
M  V30 14608 H 1381.59 -4.1562 0.406213 0
M  V30 14609 N 1382.02 -1.04567 -1.17913 0
M  V30 14610 C 1382.99 -0.645476 -2.19923 0
M  V30 14611 C 1383.99 0.299763 -1.57981 0
M  V30 14612 O 1385.18 0.0844825 -1.73995 0
M  V30 14613 C 1382.31 0.0528935 -3.40859 0
M  V30 14614 H 1383.5 -1.54828 -2.56843 0
M  V30 14615 H 1381.05 -0.838812 -1.31885 0
M  V30 14616 H 1381.79 0.969261 -3.09477 0
M  V30 14617 H 1381.57 -0.626558 -3.87062 0
M  V30 14618 H 1383.06 0.319221 -4.16378 0
M  V30 14619 N 1383.5 1.34231 -0.825823 0
M  V30 14620 C 1384.43 2.31997 -0.264546 0
M  V30 14621 C 1385.41 1.58375 0.620592 0
M  V30 14622 O 1386.6 1.86341 0.546865 0
M  V30 14623 C 1383.73 3.42557 0.572025 0
M  V30 14624 C 1382.68 4.27454 -0.216219 0
M  V30 14625 C 1382.01 5.29509 0.743279 0
M  V30 14626 C 1383.31 5.02456 -1.42603 0
M  V30 14627 H 1385 2.79189 -1.08139 0
M  V30 14628 H 1382.55 1.34227 -0.521451 0
M  V30 14629 H 1384.5 4.09968 0.974889 0
M  V30 14630 H 1383.22 2.94021 1.42195 0
M  V30 14631 H 1381.88 3.61649 -0.600485 0
M  V30 14632 H 1381.53 4.77234 1.58924 0
M  V30 14633 H 1381.23 5.87188 0.220064 0
M  V30 14634 H 1382.76 5.99789 1.14394 0
M  V30 14635 H 1384.17 5.62706 -1.09702 0
M  V30 14636 H 1382.57 5.69723 -1.88509 0
M  V30 14637 H 1383.64 4.31983 -2.2027 0
M  V30 14638 N 1384.98 0.581051 1.46498 0
M  V30 14639 C 1385.89 -0.155669 2.34083 0
M  V30 14640 C 1386.91 -0.887728 1.49651 0
M  V30 14641 O 1388.08 -0.851284 1.82524 0
M  V30 14642 C 1385.15 -1.15752 3.26806 0
M  V30 14643 C 1384.21 -0.43031 4.27138 0
M  V30 14644 C 1383.44 -1.38443 5.15431 0
M  V30 14645 O 1383.66 -2.62084 5.06624 0
M  V30 14646 O 1382.6 -0.89592 5.95195 0
M  V30 14647 H 1386.42 0.56341 2.98428 0
M  V30 14648 H 1384.01 0.341466 1.45445 0
M  V30 14649 H 1385.89 -1.73523 3.84015 0
M  V30 14650 H 1384.57 -1.85809 2.65059 0
M  V30 14651 H 1383.47 0.1892 3.73621 0
M  V30 14652 H 1384.81 0.229263 4.91666 0
M  V30 14653 N 1386.46 -1.54343 0.318742 0
M  V30 14654 C 1387.7 -2.00777 -0.285699 0
M  V30 14655 C 1388.04 -1.20664 -1.52164 0
M  V30 14656 O 1387.31 -0.287674 -1.92361 0
M  V30 14657 C 1387.59 -3.54641 -0.624649 0
M  V30 14658 C 1387.45 -4.45483 0.621663 0
M  V30 14659 C 1388.77 -4.15729 -1.4442 0
M  V30 14660 H 1385.89 -0.729856 -0.102367 0
M  V30 14661 H 1388.53 -1.84968 0.434364 0
M  V30 14662 H 1386.68 -3.68243 -1.23811 0
M  V30 14663 H 1388.35 -4.43759 1.25998 0
M  V30 14664 H 1386.59 -4.15356 1.25148 0
M  V30 14665 H 1387.26 -5.50951 0.340106 0
M  V30 14666 H 1389.74 -4.05672 -0.925699 0
M  V30 14667 H 1388.62 -5.23509 -1.65013 0
M  V30 14668 H 1388.88 -3.68743 -2.43887 0
M  V30 14669 N 1387.94 -0.0468143 -1.5753 0
M  V30 14670 C 1388.87 0.958157 -2.08211 0
M  V30 14671 C 1389.88 1.27757 -1.00906 0
M  V30 14672 O 1391.07 1.23913 -1.28483 0
M  V30 14673 C 1388.17 2.28088 -2.50657 0
M  V30 14674 C 1387.34 2.14403 -3.81248 0
M  V30 14675 C 1386.4 3.29761 -4.10054 0
M  V30 14676 O 1385.43 3.05859 -4.8004 0
M  V30 14677 N 1386.63 4.54104 -3.61621 0
M  V30 14678 H 1389.39 0.525612 -2.95055 0
M  V30 14679 H 1386.96 0.139532 -1.61298 0
M  V30 14680 H 1388.95 3.04121 -2.67007 0
M  V30 14681 H 1387.52 2.62924 -1.69085 0
M  V30 14682 H 1386.74 1.22988 -3.74523 0
M  V30 14683 H 1388.03 2.02482 -4.66775 0
M  V30 14684 H 1387.42 4.76414 -3.05034 0
M  V30 14685 H 1385.98 5.27246 -3.83217 0
M  V30 14686 N 1389.41 1.55964 0.226527 0
M  V30 14687 C 1390.83 1.68978 0.793936 0
M  V30 14688 C 1391.18 0.647938 1.85192 0
M  V30 14689 O 1390.3 -0.201907 2.15456 0
M  V30 14690 C 1390.9 3.06351 1.44687 0
M  V30 14691 C 1389.46 3.21237 1.96173 0
M  V30 14692 C 1388.6 2.64896 0.8201 0
M  V30 14693 H 1391.55 1.587 0.00195967 0
M  V30 14694 H 1391.57 3.01932 2.31554 0
M  V30 14695 H 1391.09 3.82156 0.676611 0
M  V30 14696 H 1389.19 2.50292 2.76016 0
M  V30 14697 H 1389.3 4.28394 2.14512 0
M  V30 14698 H 1387.66 2.23247 1.22609 0
M  V30 14699 H 1388.45 3.43243 0.0625967 0
M  V30 14700 N 1390.89 -0.493031 1.4969 0
M  V30 14701 C 1392.3 -1.0744 1.52688 0
M  V30 14702 C 1392.65 -1.93612 0.317652 0
M  V30 14703 O 1391.78 -2.0871 -0.571745 0
M  V30 14704 C 1392.37 -1.95523 2.76688 0
M  V30 14705 C 1390.93 -2.48808 2.82438 0
M  V30 14706 C 1390.08 -1.26617 2.46705 0
M  V30 14707 H 1393.03 -0.276589 1.56271 0
M  V30 14708 H 1393.05 -2.80315 2.57301 0
M  V30 14709 H 1392.56 -1.32779 3.6468 0
M  V30 14710 H 1390.67 -3.15168 1.98746 0
M  V30 14711 H 1390.78 -2.85416 3.84805 0
M  V30 14712 H 1389.14 -1.59396 1.98658 0
M  V30 14713 H 1389.93 -0.655695 3.3698 0
M  V30 14714 N 1392.37 -1.38898 -0.744656 0
M  V30 14715 C 1393.65 -1.2611 -1.49518 0
M  V30 14716 C 1394.03 0.133592 -2.10677 0
M  V30 14717 O 1393.38 1.14394 -1.97804 0
M  V30 14718 C 1393.59 -2.37809 -2.55437 0
M  V30 14719 C 1394.93 -2.76664 -3.22091 0
M  V30 14720 O 1395.96 -2.37187 -2.65746 0
M  V30 14721 O 1394.82 -3.44771 -4.24023 0
M  V30 14722 H 1391.91 -0.493664 -0.663494 0
M  V30 14723 H 1394.46 -1.50748 -0.779304 0
M  V30 14724 H 1393.23 -3.31089 -2.08556 0
M  V30 14725 H 1392.85 -2.14783 -3.34595 0
M  V30 14726 N 1393.85 0.973806 -1.23914 0
M  V30 14727 C 1395.08 1.75107 -1.10206 0
M  V30 14728 C 1395.49 1.85604 0.345935 0
M  V30 14729 O 1394.85 1.33996 1.239 0
M  V30 14730 C 1394.9 3.17466 -1.72909 0
M  V30 14731 O 1394.62 3.07504 -3.12047 0
M  V30 14732 C 1396.12 4.11557 -1.6473 0
M  V30 14733 H 1393.34 0.549318 -0.385345 0
M  V30 14734 H 1395.89 1.22301 -1.63898 0
M  V30 14735 H 1394.04 3.67277 -1.23234 0
M  V30 14736 H 1394.45 3.97169 -3.42575 0
M  V30 14737 H 1395.93 5.09126 -2.13295 0
M  V30 14738 H 1396.41 4.3498 -0.607352 0
M  V30 14739 H 1397.01 3.67653 -2.13802 0
M  V30 14740 N 1395.33 1.05191 1.17357 0
M  V30 14741 C 1396.57 0.772902 1.88143 0
M  V30 14742 C 1396.93 -0.692542 1.79504 0
M  V30 14743 O 1396.22 -1.49992 1.19219 0
M  V30 14744 C 1396.41 1.18779 3.37085 0
M  V30 14745 C 1396.24 2.69203 3.60222 0
M  V30 14746 C 1395.01 3.36512 3.76945 0
M  V30 14747 C 1397.21 3.67423 3.59867 0
M  V30 14748 N 1395.19 4.758 3.87927 0
M  V30 14749 C 1396.56 4.92441 3.76699 0
M  V30 14750 C 1398.62 3.60893 3.43017 0
M  V30 14751 C 1397.32 6.11709 3.78425 0
M  V30 14752 C 1399.35 4.796 3.46031 0
M  V30 14753 C 1398.71 6.03441 3.63371 0
M  V30 14754 H 1394.81 0.335055 0.706585 0
M  V30 14755 H 1397.39 1.34385 1.40886 0
M  V30 14756 H 1395.56 0.644801 3.8301 0
M  V30 14757 H 1397.3 0.85862 3.95487 0
M  V30 14758 H 1394.05 2.86913 3.768 0
M  V30 14759 H 1394.48 5.48225 3.97213 0
M  V30 14760 H 1399.12 2.66112 3.28548 0
M  V30 14761 H 1396.84 7.06833 3.91679 0
M  V30 14762 H 1400.42 4.762 3.34252 0
M  V30 14763 H 1399.3 6.93759 3.65607 0
M  V30 14764 N 1396.8 -1.33791 0.83293 0
M  V30 14765 C 1398.08 -1.9248 0.347955 0
M  V30 14766 C 1398.46 -1.75978 -1.16597 0
M  V30 14767 O 1397.81 -1.14456 -1.97768 0
M  V30 14768 C 1398.02 -3.3998 0.78831 0
M  V30 14769 C 1399.37 -4.17131 0.7929 0
M  V30 14770 O 1400.39 -3.48607 0.731533 0
M  V30 14771 O 1399.25 -5.39446 0.875223 0
M  V30 14772 H 1396.34 -0.821264 0.0972309 0
M  V30 14773 H 1398.89 -1.42702 0.918387 0
M  V30 14774 H 1397.66 -3.45836 1.83065 0
M  V30 14775 H 1397.29 -3.97126 0.194123 0
M  V30 14776 N 1398.28 -0.588812 -1.46187 0
M  V30 14777 C 1399.51 -0.0806571 -2.07243 0
M  V30 14778 C 1399.93 1.21766 -1.43369 0
M  V30 14779 O 1399.29 1.73694 -0.51964 0
M  V30 14780 C 1399.34 0.065267 -3.60541 0
M  V30 14781 O 1398.44 1.12026 -3.96893 0
M  V30 14782 H 1397.78 -0.0655622 -0.660755 0
M  V30 14783 H 1400.31 -0.813489 -1.87733 0
M  V30 14784 H 1400.32 0.269494 -4.07109 0
M  V30 14785 H 1399 -0.88284 -4.06422 0
M  V30 14786 H 1397.58 0.894 -3.62025 0
M  V30 14787 N 1399.76 1.54172 -0.326923 0
M  V30 14788 C 1401.01 2.00629 0.274641 0
M  V30 14789 C 1401.34 1.21505 1.51878 0
M  V30 14790 O 1400.59 0.286164 1.93596 0
M  V30 14791 C 1400.89 3.51429 0.650553 0
M  V30 14792 C 1400.56 4.48177 -0.494792 0
M  V30 14793 C 1399.22 4.74348 -0.809153 0
M  V30 14794 C 1401.57 5.05641 -1.26398 0
M  V30 14795 C 1398.9 5.55241 -1.89536 0
M  V30 14796 C 1401.25 5.87718 -2.34031 0
M  V30 14797 C 1399.91 6.1219 -2.66045 0
M  V30 14798 H 1399.18 0.734153 0.100498 0
M  V30 14799 H 1401.83 1.86104 -0.451397 0
M  V30 14800 H 1400.14 3.63699 1.45706 0
M  V30 14801 H 1401.83 3.84819 1.12761 0
M  V30 14802 H 1398.42 4.27929 -0.239701 0
M  V30 14803 H 1402.61 4.85401 -1.03437 0
M  V30 14804 H 1397.86 5.72432 -2.14783 0
M  V30 14805 H 1402.04 6.31264 -2.94074 0
M  V30 14806 H 1399.66 6.7466 -3.5034 0
M  V30 14807 N 1401.24 0.0551678 1.57503 0
M  V30 14808 C 1402.65 -0.479948 1.80426 0
M  V30 14809 C 1403 -1.70673 0.967733 0
M  V30 14810 O 1402.13 -2.15604 0.185462 0
M  V30 14811 C 1402.72 -0.877496 3.27239 0
M  V30 14812 C 1401.28 -1.35757 3.51066 0
M  V30 14813 C 1400.43 -0.334681 2.75273 0
M  V30 14814 H 1403.38 0.281016 1.56192 0
M  V30 14815 H 1403.4 -1.74013 3.38378 0
M  V30 14816 H 1402.91 0.015571 3.88097 0
M  V30 14817 H 1401.01 -2.26969 2.95492 0
M  V30 14818 H 1401.12 -1.34697 4.59776 0
M  V30 14819 H 1399.49 -0.808421 2.4153 0
M  V30 14820 H 1400.27 0.550369 3.3886 0
M  V30 14821 N 1402.72 -1.56081 -0.218252 0
M  V30 14822 C 1403.65 -1.95706 -1.27364 0
M  V30 14823 C 1404.63 -0.825731 -1.48713 0
M  V30 14824 O 1405.81 -1.08829 -1.60841 0
M  V30 14825 C 1402.94 -2.2766 -2.62275 0
M  V30 14826 C 1401.9 -3.43314 -2.55576 0
M  V30 14827 C 1401.22 -3.60883 -3.94547 0
M  V30 14828 C 1402.52 -4.7819 -2.10075 0
M  V30 14829 H 1404.22 -2.84113 -0.944459 0
M  V30 14830 H 1401.76 -1.36693 -0.452882 0
M  V30 14831 H 1403.72 -2.53973 -3.36268 0
M  V30 14832 H 1402.44 -1.3611 -2.96887 0
M  V30 14833 H 1401.1 -3.17056 -1.8404 0
M  V30 14834 H 1400.75 -2.66703 -4.26472 0
M  V30 14835 H 1400.45 -4.38674 -3.90946 0
M  V30 14836 H 1401.97 -3.89547 -4.70197 0
M  V30 14837 H 1403.38 -5.03686 -2.73813 0
M  V30 14838 H 1401.78 -5.59287 -2.17527 0
M  V30 14839 H 1402.85 -4.73325 -1.05314 0
M  V30 14840 N 1404.2 0.485086 -1.49949 0
M  V30 14841 C 1405.44 1.23816 -1.60237 0
M  V30 14842 C 1405.77 1.9223 -0.296274 0
M  V30 14843 O 1405.03 1.82095 0.716939 0
M  V30 14844 C 1405.32 2.31573 -2.72229 0
M  V30 14845 C 1404.99 1.80508 -4.13192 0
M  V30 14846 C 1403.65 1.66301 -4.5155 0
M  V30 14847 C 1406 1.42471 -5.0135 0
M  V30 14848 C 1403.33 1.1246 -5.75821 0
M  V30 14849 C 1405.68 0.900757 -6.26154 0
M  V30 14850 C 1404.35 0.74521 -6.63327 0
M  V30 14851 H 1403.62 0.453075 -0.586348 0
M  V30 14852 H 1406.27 0.536349 -1.83836 0
M  V30 14853 H 1404.57 3.07606 -2.42663 0
M  V30 14854 H 1406.27 2.89574 -2.77395 0
M  V30 14855 H 1402.86 1.92529 -3.82924 0
M  V30 14856 H 1407.04 1.52287 -4.72358 0
M  V30 14857 H 1402.3 0.991422 -6.03308 0
M  V30 14858 H 1406.47 0.5973 -6.93834 0
M  V30 14859 H 1404.1 0.325838 -7.59501 0
M  V30 14860 N 1405.67 1.39291 0.737279 0
M  V30 14861 C 1406.61 1.33728 1.86144 0
M  V30 14862 C 1407.62 0.246468 1.60924 0
M  V30 14863 O 1408.81 0.505252 1.712 0
M  V30 14864 C 1405.91 1.05312 3.22122 0
M  V30 14865 C 1405.08 2.25624 3.74716 0
M  V30 14866 C 1404.14 1.937 4.89251 0
M  V30 14867 O 1403.17 2.66361 5.03031 0
M  V30 14868 N 1404.37 0.901782 5.73453 0
M  V30 14869 H 1407.13 2.30604 1.91421 0
M  V30 14870 H 1404.69 1.33364 0.917919 0
M  V30 14871 H 1406.69 0.819784 3.9631 0
M  V30 14872 H 1405.26 0.171773 3.12128 0
M  V30 14873 H 1404.48 2.64923 2.91906 0
M  V30 14874 H 1405.76 3.05881 4.06589 0
M  V30 14875 H 1405.16 0.299553 5.64906 0
M  V30 14876 H 1403.72 0.728344 6.47718 0
M  V30 14877 N 1407.15 -0.967221 1.24429 0
M  V30 14878 C 1408.08 -2.07966 1.06172 0
M  V30 14879 C 1409.06 -1.70081 -0.0254566 0
M  V30 14880 O 1410.25 -1.93682 0.141705 0
M  V30 14881 C 1407.38 -3.4085 0.666251 0
M  V30 14882 C 1406.33 -3.92692 1.70225 0
M  V30 14883 C 1405.66 -5.21925 1.16183 0
M  V30 14884 C 1406.96 -4.20478 3.09831 0
M  V30 14885 H 1408.65 -2.23497 1.99222 0
M  V30 14886 H 1406.2 -1.07398 0.959255 0
M  V30 14887 H 1408.15 -4.1811 0.52552 0
M  V30 14888 H 1406.87 -3.2522 -0.299939 0
M  V30 14889 H 1405.53 -3.17588 1.83121 0
M  V30 14890 H 1405.18 -5.02655 0.186237 0
M  V30 14891 H 1404.88 -5.57579 1.85416 0
M  V30 14892 H 1406.41 -6.01795 1.03323 0
M  V30 14893 H 1407.82 -4.88442 3.00162 0
M  V30 14894 H 1406.22 -4.67362 3.7642 0
M  V30 14895 H 1407.29 -3.27235 3.57834 0
M  V30 14896 N 1408.63 -1.05812 -1.16797 0
M  V30 14897 C 1409.56 -0.685778 -2.23202 0
M  V30 14898 C 1410.54 0.319428 -1.67074 0
M  V30 14899 O 1411.73 0.195635 -1.93212 0
M  V30 14900 C 1408.86 -0.0662958 -3.47237 0
M  V30 14901 C 1407.81 -0.996943 -4.16227 0
M  V30 14902 C 1407.14 -0.241015 -5.34157 0
M  V30 14903 C 1408.44 -2.32384 -4.67755 0
M  V30 14904 H 1410.13 -1.57535 -2.54604 0
M  V30 14905 H 1407.68 -0.758909 -1.22379 0
M  V30 14906 H 1409.63 0.206024 -4.20896 0
M  V30 14907 H 1408.35 0.858263 -3.15121 0
M  V30 14908 H 1407.01 -1.25393 -3.44488 0
M  V30 14909 H 1406.66 0.686508 -4.98293 0
M  V30 14910 H 1406.36 -0.861188 -5.81255 0
M  V30 14911 H 1407.88 0.0238739 -6.10595 0
M  V30 14912 H 1409.3 -2.11099 -5.3302 0
M  V30 14913 H 1407.69 -2.89855 -5.25456 0
M  V30 14914 H 1408.76 -2.958 -3.84227 0
M  V30 14915 N 1410.11 1.33347 -0.840014 0
M  V30 14916 C 1411.06 2.31113 -0.262617 0
M  V30 14917 C 1412.05 1.58189 0.606023 0
M  V30 14918 O 1413.26 1.73047 0.495457 0
M  V30 14919 H 1409.63 0.74908 -0.0662003 0
M  V30 14920 H 1411.6 2.77318 -1.10169 0
M  V30 14921 C 1410.35 3.43377 0.54658 0
M  V30 14922 H 1409.67 3.99642 -0.112514 0
M  V30 14923 H 1411.11 4.13978 0.91641 0
M  V30 14924 C 1409.57 2.89333 1.72592 0
M  V30 14925 O 1410.1 2.85615 2.82466 0
M  V30 14926 N 1408.31 2.45926 1.54819 0
M  V30 14927 H 1407.86 2.49149 0.654404 0
M  V30 14928 H 1407.81 2.10119 2.33875 0
M  V30 14929 N 1411.59 0.596556 1.45873 0
M  V30 14930 C 1412.86 0.0199562 1.9559 0
M  V30 14931 C 1413.24 -1.44479 1.53912 0
M  V30 14932 O 1412.59 -2.14173 0.796384 0
M  V30 14933 C 1412.8 0.206497 3.48389 0
M  V30 14934 C 1414.15 0.0815298 4.24522 0
M  V30 14935 O 1415.17 0.136045 3.5594 0
M  V30 14936 O 1414.03 -0.0426117 5.46483 0
M  V30 14937 H 1411.13 -0.0419913 0.825933 0
M  V30 14938 H 1413.67 0.665846 1.56092 0
M  V30 14939 H 1412.44 1.22422 3.71656 0
M  V30 14940 H 1412.07 -0.475175 3.9475 0
M  V30 14941 N 1413.06 -1.53996 0.335095 0
M  V30 14942 C 1414.31 -2.00772 -0.263997 0
M  V30 14943 C 1414.64 -1.22309 -1.51231 0
M  V30 14944 O 1413.89 -0.296427 -1.93442 0
M  V30 14945 C 1414.19 -3.51769 -0.631907 0
M  V30 14946 C 1413.86 -4.47908 0.518553 0
M  V30 14947 C 1412.52 -4.73912 0.834297 0
M  V30 14948 C 1414.87 -5.04964 1.29078 0
M  V30 14949 C 1412.2 -5.54228 1.92478 0
M  V30 14950 C 1414.55 -5.86469 2.37144 0
M  V30 14951 C 1413.22 -6.1077 2.69288 0
M  V30 14952 H 1412.49 -0.734676 -0.0966033 0
M  V30 14953 H 1415.13 -1.85862 0.46126 0
M  V30 14954 H 1413.44 -3.64466 -1.43776 0
M  V30 14955 H 1415.14 -3.85412 -1.10719 0
M  V30 14956 H 1411.73 -4.27796 0.262392 0
M  V30 14957 H 1415.91 -4.84846 1.0601 0
M  V30 14958 H 1411.17 -5.71285 2.17816 0
M  V30 14959 H 1415.34 -6.29695 2.97417 0
M  V30 14960 H 1412.97 -6.72792 3.53913 0
M  V30 14961 N 1414.54 -0.0635198 -1.57472 0
M  V30 14962 C 1415.47 0.90431 -2.15278 0
M  V30 14963 C 1416.45 1.31609 -1.07764 0
M  V30 14964 O 1417.64 1.38861 -1.35762 0
M  V30 14965 C 1414.77 2.17483 -2.70774 0
M  V30 14966 C 1413.72 1.90272 -3.8338 0
M  V30 14967 C 1413.05 3.23885 -4.25444 0
M  V30 14968 C 1414.35 1.21454 -5.07983 0
M  V30 14969 H 1416.04 0.422786 -2.964 0
M  V30 14970 H 1413.59 0.201918 -1.42577 0
M  V30 14971 H 1415.54 2.856 -3.09856 0
M  V30 14972 H 1414.26 2.67863 -1.86861 0
M  V30 14973 H 1412.92 1.24564 -3.44789 0
M  V30 14974 H 1412.57 3.72089 -3.38465 0
M  V30 14975 H 1412.27 3.06472 -5.01347 0
M  V30 14976 H 1413.8 3.93212 -4.67137 0
M  V30 14977 H 1415.21 1.79625 -5.44433 0
M  V30 14978 H 1413.61 1.14327 -5.89109 0
M  V30 14979 H 1414.68 0.19238 -4.84518 0
M  V30 14980 N 1416.02 1.56195 0.209972 0
M  V30 14981 C 1417.44 1.49446 0.56018 0
M  V30 14982 C 1417.64 0.760799 1.86585 0
M  V30 14983 O 1416.69 0.305201 2.50649 0
M  V30 14984 C 1418 2.94054 0.628687 0
M  V30 14985 C 1419.55 3.04641 0.718531 0
M  V30 14986 C 1420.03 4.50631 0.81828 0
M  V30 14987 N 1421.52 4.54721 0.8822 0
M  V30 14988 C 1422.25 5.64976 0.979292 0
M  V30 14989 N 1421.75 6.84955 1.03961 0
M  V30 14990 N 1423.54 5.52854 1.01533 0
M  V30 14991 H 1415.69 2.02316 -0.646674 0
M  V30 14992 H 1417.96 0.920063 -0.228446 0
M  V30 14993 H 1417.66 3.50728 -0.261324 0
M  V30 14994 H 1417.54 3.46592 1.48842 0
M  V30 14995 H 1419.92 2.48026 1.59898 0
M  V30 14996 H 1420 2.55254 -0.167102 0
M  V30 14997 H 1419.65 5.07867 -0.0577557 0
M  V30 14998 H 1419.58 4.97736 1.7195 0
M  V30 14999 H 1422.07 3.68322 0.845433 0
M  V30 15000 H 1422.38 7.64732 1.11379 0
M  V30 15001 H 1420.73 6.87643 1.00854 0
M  V30 15002 H 1423.92 4.58046 0.96494 0
M  V30 15003 H 1424.09 6.38809 1.08754 0
M  V30 15004 N 1417.5 -0.477127 1.50204 0
M  V30 15005 C 1418.73 -1.25307 1.64638 0
M  V30 15006 C 1419.14 -1.85942 0.327274 0
M  V30 15007 O 1418.5 -1.6895 -0.690088 0
M  V30 15008 C 1418.55 -2.36616 2.73304 0
M  V30 15009 O 1418.27 -1.78469 4.00101 0
M  V30 15010 C 1419.77 -3.27595 2.98658 0
M  V30 15011 H 1416.99 -0.379192 0.553583 0
M  V30 15012 H 1419.53 -0.5702 1.9639 0
M  V30 15013 H 1417.69 -3.00689 2.44264 0
M  V30 15014 H 1418.1 -2.51722 4.60148 0
M  V30 15015 H 1419.58 -4.01921 3.7837 0
M  V30 15016 H 1420.05 -3.86017 2.09493 0
M  V30 15017 H 1420.66 -2.69264 3.29206 0
M  V30 15018 N 1418.98 -1.3968 -0.729882 0
M  V30 15019 C 1420.25 -1.27689 -1.48172 0
M  V30 15020 C 1420.63 0.111239 -2.10807 0
M  V30 15021 O 1419.98 1.12289 -1.99006 0
M  V30 15022 C 1420.19 -2.40505 -2.529 0
M  V30 15023 C 1421.54 -2.80064 -3.19138 0
M  V30 15024 O 1422.56 -2.39992 -2.63215 0
M  V30 15025 O 1421.42 -3.49248 -4.20342 0
M  V30 15026 H 1418.52 -0.500674 -0.658221 0
M  V30 15027 H 1421.06 -1.51566 -0.763272 0
M  V30 15028 H 1419.83 -3.33282 -2.05033 0
M  V30 15029 H 1419.46 -2.1832 -3.32298 0
M  V30 15030 N 1420.45 0.960609 -1.2494 0
M  V30 15031 C 1421.68 1.73676 -1.11894 0
M  V30 15032 C 1422.09 1.86288 0.330648 0
M  V30 15033 O 1421.44 1.35575 1.23957 0
M  V30 15034 C 1421.5 3.17142 -1.69297 0
M  V30 15035 C 1421.16 3.27978 -3.18244 0
M  V30 15036 C 1422.16 3.12754 -4.15308 0
M  V30 15037 C 1419.84 3.51991 -3.5834 0
M  V30 15038 C 1421.84 3.21379 -5.50449 0
M  V30 15039 C 1419.52 3.60253 -4.9362 0
M  V30 15040 C 1420.52 3.44961 -5.89484 0
M  V30 15041 O 1420.21 3.52893 -7.22303 0
M  V30 15042 H 1419.94 0.551226 -0.391313 0
M  V30 15043 H 1422.5 1.21418 -1.65671 0
M  V30 15044 H 1420.73 3.70736 -1.09961 0
M  V30 15045 H 1422.42 3.76592 -1.51437 0
M  V30 15046 H 1423.18 2.94079 -3.85672 0
M  V30 15047 H 1419.06 3.62957 -2.84224 0
M  V30 15048 H 1422.6 3.0936 -6.25254 0
M  V30 15049 H 1418.5 3.78444 -5.22925 0
M  V30 15050 H 1419.27 3.69563 -7.30319 0
M  V30 15051 N 1421.93 1.0643 1.16234 0
M  V30 15052 C 1422.88 0.670457 2.22728 0
M  V30 15053 C 1423.87 -0.31428 1.66459 0
M  V30 15054 O 1425.08 -0.178996 1.79108 0
M  V30 15055 H 1421.46 0.198692 0.725276 0
M  V30 15056 H 1423.43 1.57846 2.53233 0
M  V30 15057 C 1422.18 0.074379 3.4762 0
M  V30 15058 H 1421.5 0.823227 3.91233 0
M  V30 15059 H 1422.94 -0.163652 4.23684 0
M  V30 15060 C 1421.4 -1.18242 3.15469 0
M  V30 15061 O 1421.93 -2.27018 3.314 0
M  V30 15062 N 1420.13 -1.08493 2.69588 0
M  V30 15063 H 1419.68 -0.199714 2.56825 0
M  V30 15064 H 1419.64 -1.92666 2.48449 0
M  V30 15065 N 1423.41 -1.329 0.847073 0
M  V30 15066 C 1424.34 -2.31546 0.301422 0
M  V30 15067 C 1425.32 -1.59342 -0.595317 0
M  V30 15068 O 1426.51 -1.87188 -0.517151 0
M  V30 15069 C 1423.64 -3.43423 -0.517454 0
M  V30 15070 C 1422.59 -4.27055 0.284195 0
M  V30 15071 C 1421.92 -5.30624 -0.658944 0
M  V30 15072 C 1423.22 -5.00123 1.50578 0
M  V30 15073 H 1424.91 -2.77433 1.12567 0
M  V30 15074 H 1422.46 -1.3338 0.542739 0
M  V30 15075 H 1424.41 -4.11467 -0.909543 0
M  V30 15076 H 1423.13 -2.96246 -1.37499 0
M  V30 15077 H 1421.79 -3.60648 0.657944 0
M  V30 15078 H 1421.44 -4.79702 -1.51311 0
M  V30 15079 H 1421.14 -5.87464 -0.12662 0
M  V30 15080 H 1422.66 -6.01533 -1.04837 0
M  V30 15081 H 1424.08 -5.6089 1.18641 0
M  V30 15082 H 1422.48 -5.66652 1.97549 0
M  V30 15083 H 1423.55 -4.28424 2.27115 0
M  V30 15084 N 1424.89 -0.604284 -1.45555 0
M  V30 15085 C 1426.13 -0.101149 -2.0415 0
M  V30 15086 C 1426.49 1.24348 -1.46292 0
M  V30 15087 O 1427.69 1.83714 -1.9622 0
M  V30 15088 C 1425.96 -0.0589898 -3.57351 0
M  V30 15089 S 1427.52 0.383434 -4.37122 0
M  V30 15090 H 1424.34 -0.0479603 -0.709381 0
M  V30 15091 H 1426.94 -0.801643 -1.78309 0
M  V30 15092 H 1425.65 -1.04119 -3.96973 0
M  V30 15093 H 1425.18 0.663601 -3.87763 0
M  V30 15094 H 1427.19 1.63367 -4.68536 0
M  V30 15095 N 1426.37 1.53816 -0.343257 0
M  V30 15096 C 1427.31 2.26505 0.529002 0
M  V30 15097 C 1428.31 1.28639 1.1022 0
M  V30 15098 O 1429.51 1.46348 1.04797 0
M  V30 15099 H 1425.89 0.727789 0.189279 0
M  V30 15100 H 1427.86 2.98211 -0.106096 0
M  V30 15101 C 1426.61 3.05062 1.6683 0
M  V30 15102 H 1425.93 3.80198 1.23651 0
M  V30 15103 H 1427.37 3.59138 2.2538 0
M  V30 15104 C 1425.83 2.14543 2.59756 0
M  V30 15105 O 1426.36 1.74132 3.61996 0
M  V30 15106 N 1424.57 1.79628 2.28434 0
M  V30 15107 H 1424.11 2.12688 1.45332 0
M  V30 15108 H 1424.07 1.19345 2.90868 0
M  V30 15109 N 1427.84 0.0718701 1.57436 0
M  V30 15110 C 1429.09 -0.596052 1.9311 0
M  V30 15111 C 1429.41 -1.70146 0.952652 0
M  V30 15112 O 1428.68 -1.959 0.000812941 0
M  V30 15113 H 1427.26 -0.223165 0.712886 0
M  V30 15114 H 1429.93 0.129744 1.94468 0
M  V30 15115 H 1429.02 -1.02132 2.94916 0
M  V30 15116 N 1429.32 -1.56304 -0.201686 0
M  V30 15117 C 1430.27 -1.94021 -1.24999 0
M  V30 15118 C 1431.24 -0.799926 -1.45569 0
M  V30 15119 O 1432.42 -1.05752 -1.58811 0
M  V30 15120 C 1429.56 -2.27935 -2.59113 0
M  V30 15121 C 1428.68 -3.54995 -2.46176 0
M  V30 15122 C 1427.81 -3.78262 -3.72949 0
M  V30 15123 C 1426.85 -4.9877 -3.54817 0
M  V30 15124 N 1425.99 -5.18325 -4.73586 0
M  V30 15125 H 1430.83 -2.834 -0.92134 0
M  V30 15126 H 1428.37 -1.40252 -0.44359 0
M  V30 15127 H 1430.32 -2.45613 -3.37239 0
M  V30 15128 H 1428.95 -1.41705 -2.90034 0
M  V30 15129 H 1428.01 -3.45401 -1.59381 0
M  V30 15130 H 1429.32 -4.43277 -2.28708 0
M  V30 15131 H 1428.47 -3.96144 -4.59516 0
M  V30 15132 H 1427.21 -2.88299 -3.93364 0
M  V30 15133 H 1426.22 -4.80818 -2.66635 0
M  V30 15134 H 1427.44 -5.90237 -3.35854 0
M  V30 15135 H 1425.39 -4.31308 -4.94277 0
M  V30 15136 H 1425.3 -6.00774 -4.58919 0
M  V30 15137 H 1426.57 -5.40659 -5.61523 0
M  V30 15138 N 1430.8 0.469154 -1.50455 0
M  V30 15139 C 1432.05 1.22109 -1.61541 0
M  V30 15140 C 1432.38 1.91905 -0.316646 0
M  V30 15141 O 1431.63 1.82845 0.697585 0
M  V30 15142 C 1431.93 2.28673 -2.7467 0
M  V30 15143 C 1431.6 1.76115 -4.15083 0
M  V30 15144 C 1430.26 1.61503 -4.53288 0
M  V30 15145 C 1432.61 1.37145 -5.02833 0
M  V30 15146 C 1429.94 1.06346 -5.76981 0
M  V30 15147 C 1432.29 0.834294 -6.27074 0
M  V30 15148 C 1430.95 0.674814 -6.6408 0
M  V30 15149 H 1430.22 0.44683 -0.591121 0
M  V30 15150 H 1432.87 0.516821 -1.84394 0
M  V30 15151 H 1431.18 3.05015 -2.45912 0
M  V30 15152 H 1432.87 2.86615 -2.80451 0
M  V30 15153 H 1429.46 1.88457 -3.84944 0
M  V30 15154 H 1433.65 1.47268 -4.73947 0
M  V30 15155 H 1428.9 0.927377 -6.04326 0
M  V30 15156 H 1433.08 0.523676 -6.94428 0
M  V30 15157 H 1430.7 0.245264 -7.59804 0
M  V30 15158 N 1432.28 1.40065 0.722464 0
M  V30 15159 C 1433.23 1.36267 1.82798 0
M  V30 15160 C 1434.21 0.241375 1.59079 0
M  V30 15161 O 1435.4 0.479929 1.70369 0
M  V30 15162 C 1432.53 1.22086 3.20858 0
M  V30 15163 C 1431.62 2.38969 3.50364 0
M  V30 15164 N 1432.01 3.6445 3.50727 0
M  V30 15165 C 1430.31 2.32199 3.80788 0
M  V30 15166 C 1431.01 4.41816 3.78383 0
M  V30 15167 N 1429.99 3.71565 3.96787 0
M  V30 15168 H 1433.79 2.31236 1.81403 0
M  V30 15169 H 1431.3 1.33739 0.92128 0
M  V30 15170 H 1433.3 1.17448 4.00014 0
M  V30 15171 H 1431.96 0.280787 3.23484 0
M  V30 15172 H 1432.97 3.97705 3.3174 0
M  V30 15173 H 1429.65 1.46521 3.90945 0
M  V30 15174 H 1431.04 5.5064 3.85027 0
M  V30 15175 N 1433.76 -0.95397 1.25448 0
M  V30 15176 C 1434.7 -2.05075 1.0589 0
M  V30 15177 C 1435.67 -1.66069 -0.0321545 0
M  V30 15178 O 1436.86 -1.90389 0.125152 0
M  V30 15179 C 1434 -3.38246 0.684391 0
M  V30 15180 C 1433.11 -3.90366 1.85037 0
M  V30 15181 C 1432.25 -5.11864 1.42016 0
M  V30 15182 C 1431.29 -5.56214 2.55523 0
M  V30 15183 N 1430.42 -6.68924 2.13272 0
M  V30 15184 H 1435.26 -2.21137 1.99755 0
M  V30 15185 H 1432.8 -1.08366 0.994742 0
M  V30 15186 H 1434.76 -4.14785 0.448209 0
M  V30 15187 H 1433.39 -3.22068 -0.217273 0
M  V30 15188 H 1432.44 -3.1034 2.19984 0
M  V30 15189 H 1433.75 -4.19228 2.70276 0
M  V30 15190 H 1432.91 -5.95823 1.14366 0
M  V30 15191 H 1431.65 -4.84718 0.538492 0
M  V30 15192 H 1430.65 -4.7082 2.83916 0
M  V30 15193 H 1431.88 -5.85368 3.44268 0
M  V30 15194 H 1429.82 -6.43486 1.27523 0
M  V30 15195 H 1429.74 -6.97307 2.92059 0
M  V30 15196 H 1431.01 -7.5629 1.88801 0
M  V30 15197 N 1435.24 -1.07045 -1.15668 0
M  V30 15198 C 1436.19 -0.65786 -2.18303 0
M  V30 15199 C 1437.17 0.315405 -1.57778 0
M  V30 15200 O 1438.36 0.129631 -1.76525 0
M  V30 15201 C 1435.49 -0.0538843 -3.43258 0
M  V30 15202 C 1434.58 -1.0521 -4.10843 0
M  V30 15203 N 1434.97 -2.23051 -4.53963 0
M  V30 15204 C 1433.27 -0.884739 -4.37137 0
M  V30 15205 C 1433.97 -2.86354 -5.06336 0
M  V30 15206 N 1432.94 -2.14037 -4.99689 0
M  V30 15207 H 1436.74 -1.55542 -2.49367 0
M  V30 15208 H 1434.26 -0.9432 -1.32202 0
M  V30 15209 H 1436.26 0.259575 -4.16091 0
M  V30 15210 H 1434.92 0.83883 -3.13678 0
M  V30 15211 H 1435.93 -2.60786 -4.4745 0
M  V30 15212 H 1432.6 -0.0446575 -4.17476 0
M  V30 15213 H 1433.99 -3.86393 -5.49682 0
M  V30 15214 N 1436.71 1.32449 -0.85411 0
M  V30 15215 C 1437.64 2.31383 -0.313697 0
M  V30 15216 C 1438.62 1.59656 0.586858 0
M  V30 15217 O 1439.81 1.87459 0.507216 0
M  V30 15218 C 1436.94 3.43693 0.499235 0
M  V30 15219 C 1435.89 4.26899 -0.306839 0
M  V30 15220 C 1435.22 5.30966 0.630795 0
M  V30 15221 C 1436.52 4.99318 -1.53229 0
M  V30 15222 H 1438.21 2.76832 -1.14037 0
M  V30 15223 H 1435.76 1.33091 -0.549805 0
M  V30 15224 H 1437.71 4.11944 0.887709 0
M  V30 15225 H 1436.44 2.96971 1.35926 0
M  V30 15226 H 1435.1 3.60294 -0.677061 0
M  V30 15227 H 1434.74 4.80498 1.48765 0
M  V30 15228 H 1434.44 5.87522 0.0954635 0
M  V30 15229 H 1435.97 6.0208 1.01646 0
M  V30 15230 H 1437.38 5.60253 -1.21614 0
M  V30 15231 H 1435.78 5.65596 -2.00552 0
M  V30 15232 H 1436.85 4.27213 -2.29383 0
M  V30 15233 N 1438.19 0.611994 1.45232 0
M  V30 15234 C 1439.12 -0.142449 2.28757 0
M  V30 15235 C 1440.14 -0.827486 1.40202 0
M  V30 15236 O 1441.33 -0.692136 1.64535 0
M  V30 15237 C 1438.43 -1.22296 3.16065 0
M  V30 15238 C 1437.6 -0.624178 4.32924 0
M  V30 15239 C 1436.66 -1.59615 5.01408 0
M  V30 15240 O 1435.68 -1.12073 5.58058 0
M  V30 15241 N 1436.89 -2.93057 5.01097 0
M  V30 15242 H 1439.65 0.574276 2.94147 0
M  V30 15243 H 1437.21 0.451789 1.55469 0
M  V30 15244 H 1439.2 -1.87309 3.58744 0
M  V30 15245 H 1437.77 -1.84215 2.52554 0
M  V30 15246 H 1436.99 0.204141 3.93671 0
M  V30 15247 H 1438.28 -0.204435 5.08389 0
M  V30 15248 H 1437.68 -3.3428 4.5637 0
M  V30 15249 H 1436.24 -3.53481 5.47626 0
M  V30 15250 N 1439.67 -1.53632 0.351409 0
M  V30 15251 C 1440.95 -1.93311 -0.298362 0
M  V30 15252 C 1441.33 -1.28369 -1.67584 0
M  V30 15253 O 1440.67 -0.437514 -2.24272 0
M  V30 15254 C 1440.88 -3.47109 -0.362773 0
M  V30 15255 C 1442.23 -4.20197 -0.609878 0
M  V30 15256 O 1443.26 -3.53415 -0.444566 0
M  V30 15257 O 1442.12 -5.38517 -0.930691 0
M  V30 15258 H 1439.21 -0.808112 -0.175739 0
M  V30 15259 H 1441.76 -1.64841 0.40316 0
M  V30 15260 H 1440.53 -3.86617 0.60357 0
M  V30 15261 H 1440.15 -3.81769 -1.11076 0
M  V30 15262 N 1441.15 -0.0802183 -1.57396 0
M  V30 15263 C 1442.08 0.881426 -2.16225 0
M  V30 15264 C 1443.06 1.30459 -1.09154 0
M  V30 15265 O 1444.24 1.37413 -1.37227 0
M  V30 15266 C 1441.37 2.14599 -2.73065 0
M  V30 15267 C 1440.33 1.86195 -3.85377 0
M  V30 15268 C 1439.65 3.19354 -4.28856 0
M  V30 15269 C 1440.95 1.16059 -5.09242 0
M  V30 15270 H 1442.65 0.391325 -2.96832 0
M  V30 15271 H 1440.19 0.186785 -1.42783 0
M  V30 15272 H 1442.15 2.82297 -3.12868 0
M  V30 15273 H 1440.87 2.65866 -1.89691 0
M  V30 15274 H 1439.53 1.209 -3.46091 0
M  V30 15275 H 1439.18 3.68479 -3.42392 0
M  V30 15276 H 1438.88 3.01137 -5.04569 0
M  V30 15277 H 1440.4 3.88235 -4.71281 0
M  V30 15278 H 1441.82 1.7384 -5.46308 0
M  V30 15279 H 1440.21 1.08072 -5.90288 0
M  V30 15280 H 1441.28 0.14098 -4.84695 0
M  V30 15281 N 1442.63 1.56409 0.193394 0
M  V30 15282 C 1443.87 1.80724 0.913521 0
M  V30 15283 C 1444.2 0.653718 1.83185 0
M  V30 15284 O 1443.46 -0.360417 1.92353 0
M  V30 15285 C 1443.75 3.11039 1.76039 0
M  V30 15286 C 1443.42 4.39832 0.992892 0
M  V30 15287 C 1442.08 4.7482 0.780991 0
M  V30 15288 C 1444.43 5.19228 0.452985 0
M  V30 15289 C 1441.76 5.86697 0.0177286 0
M  V30 15290 C 1444.11 6.31902 -0.297075 0
M  V30 15291 C 1442.78 6.65472 -0.519977 0
M  V30 15292 H 1442.05 0.661315 0.334281 0
M  V30 15293 H 1444.7 1.90654 0.179786 0
M  V30 15294 H 1443 2.96353 2.56285 0
M  V30 15295 H 1444.7 3.27058 2.32022 0
M  V30 15296 H 1441.29 4.12376 1.16806 0
M  V30 15297 H 1445.47 4.9261 0.604092 0
M  V30 15298 H 1440.73 6.11178 -0.164925 0
M  V30 15299 H 1444.9 6.92639 -0.7228 0
M  V30 15300 H 1442.53 7.52004 -1.11331 0
M  V30 15301 N 1444.1 -0.461169 1.50702 0
M  V30 15302 C 1445.07 -1.54032 1.69725 0
M  V30 15303 C 1446.07 -1.50445 0.567707 0
M  V30 15304 O 1447.26 -1.52889 0.834901 0
M  V30 15305 C 1444.39 -2.93642 1.73168 0
M  V30 15306 H 1445.58 -1.38478 2.66015 0
M  V30 15307 H 1443.13 -0.688235 1.40332 0
M  V30 15308 H 1443.87 -3.14629 0.786078 0
M  V30 15309 H 1443.65 -2.97652 2.55236 0
M  V30 15310 H 1445.14 -3.71972 1.89807 0
M  V30 15311 N 1445.58 -1.40446 -0.715026 0
M  V30 15312 C 1446.99 -1.34564 -1.29419 0
M  V30 15313 C 1447.34 -0.0193984 -1.9619 0
M  V30 15314 O 1446.47 0.882616 -1.97582 0
M  V30 15315 C 1447.06 -2.43721 -2.35342 0
M  V30 15316 C 1445.62 -2.41297 -2.88881 0
M  V30 15317 C 1444.77 -2.2457 -1.62676 0
M  V30 15318 H 1447.72 -1.50244 -0.511116 0
M  V30 15319 H 1447.74 -2.1166 -3.16197 0
M  V30 15320 H 1447.25 -3.40234 -1.86715 0
M  V30 15321 H 1445.35 -1.48483 -3.41736 0
M  V30 15322 H 1445.47 -3.36903 -3.40637 0
M  V30 15323 H 1443.83 -1.72096 -1.87763 0
M  V30 15324 H 1444.61 -3.23082 -1.16074 0
M  V30 15325 N 1447.06 0.947303 -1.25952 0
M  V30 15326 C 1447.99 2.0625 -1.09467 0
M  V30 15327 C 1448.97 1.701 -0.00160498 0
M  V30 15328 O 1450.16 1.93432 -0.172501 0
M  V30 15329 C 1447.29 3.39746 -0.720392 0
M  V30 15330 C 1446.24 3.89935 -1.76451 0
M  V30 15331 C 1445.57 5.2001 -1.24472 0
M  V30 15332 C 1446.87 4.15496 -3.16481 0
M  V30 15333 H 1448.56 2.203 -2.02752 0
M  V30 15334 H 1446.11 1.05858 -0.97622 0
M  V30 15335 H 1448.06 4.17221 -0.591972 0
M  V30 15336 H 1446.78 3.25656 0.248161 0
M  V30 15337 H 1445.44 3.14635 -1.8815 0
M  V30 15338 H 1445.09 5.02295 -0.266182 0
M  V30 15339 H 1444.79 5.54559 -1.94263 0
M  V30 15340 H 1446.31 6.00075 -1.12884 0
M  V30 15341 H 1447.73 4.83605 -3.07894 0
M  V30 15342 H 1446.12 4.61315 -3.83808 0
M  V30 15343 H 1447.19 3.21501 -3.62995 0
M  V30 15344 N 1448.54 1.07657 1.15099 0
M  V30 15345 C 1449.78 0.802796 1.86234 0
M  V30 15346 C 1450.12 -0.669555 1.82293 0
M  V30 15347 O 1449.39 -1.49162 1.24823 0
M  V30 15348 C 1449.68 1.3156 3.35208 0
M  V30 15349 C 1449.53 2.85272 3.47764 0
M  V30 15350 C 1450.85 0.934641 4.30061 0
M  V30 15351 H 1447.97 0.293099 0.676212 0
M  V30 15352 H 1450.61 1.33488 1.35207 0
M  V30 15353 H 1448.76 0.86298 3.78794 0
M  V30 15354 H 1450.43 3.38847 3.13018 0
M  V30 15355 H 1448.67 3.23316 2.89222 0
M  V30 15356 H 1449.34 3.16223 4.52446 0
M  V30 15357 H 1451.82 1.3247 3.9445 0
M  V30 15358 H 1450.7 1.32074 5.32774 0
M  V30 15359 H 1450.96 -0.159122 4.41814 0
M  V30 15360 N 1450.02 -1.31994 0.861122 0
M  V30 15361 C 1451.26 -1.97317 0.468371 0
M  V30 15362 C 1451.6 -1.67954 -0.974941 0
M  V30 15363 O 1450.87 -0.971243 -1.68514 0
M  V30 15364 C 1451.15 -3.52918 0.715607 0
M  V30 15365 C 1451.01 -3.91888 2.20781 0
M  V30 15366 C 1452.33 -4.39747 0.17624 0
M  V30 15367 H 1449.44 -0.716733 0.171646 0
M  V30 15368 H 1452.09 -1.56269 1.08074 0
M  V30 15369 H 1450.24 -3.88013 0.194387 0
M  V30 15370 H 1451.91 -3.66938 2.7956 0
M  V30 15371 H 1450.15 -3.40813 2.68382 0
M  V30 15372 H 1450.82 -5.00346 2.33147 0
M  V30 15373 H 1453.3 -4.11424 0.622043 0
M  V30 15374 H 1452.17 -5.47592 0.378748 0
M  V30 15375 H 1452.44 -4.32393 -0.921358 0
M  V30 15376 N 1451.49 -0.619688 -1.44906 0
M  V30 15377 C 1452.91 -0.284338 -1.57047 0
M  V30 15378 C 1453.11 1.21284 -1.60911 0
M  V30 15379 O 1452.17 1.99642 -1.54594 0
M  V30 15380 C 1453.48 -0.966179 -2.84755 0
M  V30 15381 C 1455.03 -0.943239 -2.98449 0
M  V30 15382 C 1455.5 -1.60532 -4.28945 0
M  V30 15383 N 1456.99 -1.57138 -4.35732 0
M  V30 15384 C 1457.73 -2.05271 -5.35399 0
M  V30 15385 N 1457.22 -2.61543 -6.41535 0
M  V30 15386 N 1459.02 -1.95967 -5.26833 0
M  V30 15387 H 1451.17 -1.59167 -1.40641 0
M  V30 15388 H 1453.43 -0.667458 -0.673204 0
M  V30 15389 H 1453.14 -2.02086 -2.87844 0
M  V30 15390 H 1453.01 -0.49688 -3.73913 0
M  V30 15391 H 1455.4 0.102932 -2.9492 0
M  V30 15392 H 1455.48 -1.45092 -2.1067 0
M  V30 15393 H 1455.12 -2.65088 -4.33233 0
M  V30 15394 H 1455.05 -1.07256 -5.15561 0
M  V30 15395 H 1457.54 -1.16042 -3.59643 0
M  V30 15396 H 1457.86 -2.96033 -7.13852 0
M  V30 15397 H 1456.2 -2.65588 -6.42252 0
M  V30 15398 H 1459.39 -1.51734 -4.42825 0
M  V30 15399 H 1459.57 -2.33791 -6.04356 0
M  V30 15400 N 1452.97 1.53444 -0.359552 0
M  V30 15401 C 1454.2 2.05286 0.232615 0
M  V30 15402 C 1454.61 1.23322 1.43486 0
M  V30 15403 O 1453.95 0.265369 1.81773 0
M  V30 15404 C 1454.02 3.52698 0.695995 0
M  V30 15405 C 1453.68 4.55344 -0.388751 0
M  V30 15406 C 1454.68 5.04978 -1.23667 0
M  V30 15407 C 1452.36 4.9931 -0.547267 0
M  V30 15408 C 1454.36 5.97174 -2.2285 0
M  V30 15409 C 1452.04 5.91313 -1.54247 0
M  V30 15410 C 1453.04 6.40135 -2.38153 0
M  V30 15411 O 1452.73 7.30325 -3.35976 0
M  V30 15412 H 1452.46 0.674445 0.0458187 0
M  V30 15413 H 1455.01 1.98853 -0.514472 0
M  V30 15414 H 1453.24 3.5665 1.49459 0
M  V30 15415 H 1454.93 3.8743 1.21049 0
M  V30 15416 H 1455.7 4.71763 -1.12537 0
M  V30 15417 H 1451.58 4.609 0.0960246 0
M  V30 15418 H 1455.12 6.35204 -2.88378 0
M  V30 15419 H 1451.02 6.23942 -1.65427 0
M  V30 15420 H 1451.79 7.48305 -3.31635 0
M  V30 15421 N 1454.45 0.0885642 1.57351 0
M  V30 15422 C 1455.7 -0.57753 1.94403 0
M  V30 15423 C 1456.03 -1.68238 0.970029 0
M  V30 15424 O 1455.3 -1.945 0.00198684 0
M  V30 15425 C 1455.59 -1.13882 3.41618 0
M  V30 15426 C 1455.44 -0.0394686 4.49783 0
M  V30 15427 C 1456.76 -2.03922 3.90005 0
M  V30 15428 H 1453.88 -0.208468 0.706902 0
M  V30 15429 H 1456.52 0.157945 1.89342 0
M  V30 15430 H 1454.67 -1.76561 3.46061 0
M  V30 15431 H 1456.34 0.594458 4.57454 0
M  V30 15432 H 1454.59 0.627775 4.29234 0
M  V30 15433 H 1455.26 -0.472897 5.49971 0
M  V30 15434 H 1457.73 -1.51156 3.87674 0
M  V30 15435 H 1456.61 -2.40123 4.93591 0
M  V30 15436 H 1456.87 -2.95407 3.28918 0
M  V30 15437 N 1455.93 -1.56509 -0.185096 0
M  V30 15438 C 1457.21 -1.72055 -0.930398 0
M  V30 15439 C 1457.59 -0.646145 -2.00968 0
M  V30 15440 O 1456.93 0.34129 -2.25937 0
M  V30 15441 C 1457.14 -3.14752 -1.50771 0
M  V30 15442 C 1458.49 -3.75292 -1.98597 0
M  V30 15443 O 1459.52 -3.17944 -1.60593 0
M  V30 15444 O 1458.37 -4.7596 -2.68561 0
M  V30 15445 H 1455.47 -0.702118 -0.436989 0
M  V30 15446 H 1458.01 -1.68806 -0.174007 0
M  V30 15447 H 1456.79 -3.84426 -0.730236 0
M  V30 15448 H 1456.41 -3.22272 -2.32866 0
M  V30 15449 N 1457.41 0.45317 -1.50944 0
M  V30 15450 C 1458.34 1.55655 -1.74051 0
M  V30 15451 C 1459.32 1.59545 -0.58987 0
M  V30 15452 O 1460.5 1.75526 -0.830922 0
M  V30 15453 C 1457.63 2.93857 -1.85109 0
M  V30 15454 C 1456.59 3.04832 -3.00435 0
M  V30 15455 C 1455.91 4.44858 -2.96657 0
M  V30 15456 C 1457.21 2.80381 -4.40663 0
M  V30 15457 H 1458.91 1.36571 -2.66437 0
M  V30 15458 H 1456.45 0.655572 -1.28212 0
M  V30 15459 H 1458.41 3.70992 -1.99857 0
M  V30 15460 H 1457.13 3.14138 -0.893579 0
M  V30 15461 H 1455.79 2.30134 -2.85366 0
M  V30 15462 H 1455.44 4.62083 -1.98716 0
M  V30 15463 H 1455.14 4.53134 -3.7409 0
M  V30 15464 H 1456.66 5.23989 -3.13478 0
M  V30 15465 H 1458.07 3.47255 -4.56165 0
M  V30 15466 H 1456.47 3.00083 -5.19683 0
M  V30 15467 H 1457.54 1.76099 -4.51793 0
M  V30 15468 N 1458.88 1.40823 0.707568 0
M  V30 15469 C 1459.82 1.36132 1.83149 0
M  V30 15470 C 1460.8 0.230423 1.60959 0
M  V30 15471 O 1461.98 0.415391 1.83866 0
M  V30 15472 C 1459.11 1.12055 3.19627 0
M  V30 15473 C 1458.15 2.27703 3.6063 0
M  V30 15474 S 1458.99 3.90134 3.66818 0
M  V30 15475 C 1460.14 3.68336 5.06043 0
M  V30 15476 H 1460.37 2.31246 1.86849 0
M  V30 15477 H 1457.91 1.27204 0.875126 0
M  V30 15478 H 1459.87 0.988486 3.98421 0
M  V30 15479 H 1458.53 0.185809 3.1355 0
M  V30 15480 H 1457.72 2.06519 4.59746 0
M  V30 15481 H 1457.32 2.37254 2.89114 0
M  V30 15482 H 1459.61 3.27299 5.93196 0
M  V30 15483 H 1460.56 4.67012 5.32265 0
M  V30 15484 H 1460.96 3.01856 4.77015 0
M  V30 15485 N 1460.36 -0.94061 1.26453 0
M  V30 15486 C 1461.27 -2.07298 1.09839 0
M  V30 15487 C 1462.29 -1.73971 0.0317477 0
M  V30 15488 O 1463.46 -2.00017 0.235594 0
M  V30 15489 C 1460.53 -3.38847 0.733736 0
M  V30 15490 C 1459.59 -3.85954 1.87985 0
M  V30 15491 C 1458.82 -5.11224 1.5325 0
M  V30 15492 O 1459.05 -5.68743 0.434491 0
M  V30 15493 O 1457.98 -5.53386 2.36743 0
M  V30 15494 H 1461.81 -2.24222 2.04837 0
M  V30 15495 H 1459.39 -1.05763 1.0552 0
M  V30 15496 H 1461.27 -4.17885 0.543131 0
M  V30 15497 H 1459.95 -3.2316 -0.186843 0
M  V30 15498 H 1458.86 -3.07858 2.12542 0
M  V30 15499 H 1460.19 -4.06162 2.78017 0
M  V30 15500 N 1461.84 -1.08266 -1.14527 0
M  V30 15501 C 1463.07 -0.832994 -1.89937 0
M  V30 15502 C 1463.49 0.608985 -1.77969 0
M  V30 15503 O 1462.85 1.42657 -1.11887 0
M  V30 15504 C 1462.9 -1.25782 -3.37952 0
M  V30 15505 O 1462 -0.408853 -4.10368 0
M  V30 15506 H 1461.34 -0.30267 -0.591005 0
M  V30 15507 H 1463.87 -1.44371 -1.44977 0
M  V30 15508 H 1463.88 -1.23804 -3.88763 0
M  V30 15509 H 1462.56 -2.30804 -3.4598 0
M  V30 15510 H 1461.13 -0.49192 -3.69641 0
M  V30 15511 N 1463.32 1.31536 -0.86811 0
M  V30 15512 C 1464.54 2.01487 -0.491705 0
M  V30 15513 C 1464.97 1.64744 0.907803 0
M  V30 15514 O 1464.33 0.855093 1.59868 0
M  V30 15515 C 1464.38 3.54621 -0.65395 0
M  V30 15516 O 1463.48 4.11252 0.307532 0
M  V30 15517 H 1462.82 0.634469 -0.195819 0
M  V30 15518 H 1465.35 1.67775 -1.17101 0
M  V30 15519 H 1465.36 4.04323 -0.546539 0
M  V30 15520 H 1464.04 3.80704 -1.67443 0
M  V30 15521 H 1462.61 3.72577 0.155233 0
M  V30 15522 N 1464.8 0.627364 1.44575 0
M  V30 15523 C 1466.05 0.127824 2.01295 0
M  V30 15524 C 1466.36 -1.25647 1.49907 0
M  V30 15525 O 1467.57 -1.84982 1.9873 0
M  V30 15526 C 1466.02 0.177775 3.59461 0
M  V30 15527 C 1465.63 1.56315 4.19845 0
M  V30 15528 C 1467.37 -0.265497 4.23669 0
M  V30 15529 C 1465.28 1.56842 5.70223 0
M  V30 15530 H 1464.21 0.0440205 0.752714 0
M  V30 15531 H 1466.86 0.785607 1.65833 0
M  V30 15532 H 1465.24 -0.547038 3.92203 0
M  V30 15533 H 1466.42 2.31125 3.98645 0
M  V30 15534 H 1464.73 1.95019 3.67909 0
M  V30 15535 H 1467.33 -0.281038 5.33961 0
M  V30 15536 H 1467.67 -1.29208 3.95741 0
M  V30 15537 H 1468.21 0.406698 3.95716 0
M  V30 15538 H 1464.94 2.57325 6.0288 0
M  V30 15539 H 1464.46 0.863198 5.93556 0
M  V30 15540 H 1466.14 1.30071 6.33791 0
M  V30 15541 N 1466.28 -1.53251 0.367684 0
M  V30 15542 C 1467.24 -2.24423 -0.465516 0
M  V30 15543 C 1468.24 -1.25283 -1.00801 0
M  V30 15544 O 1469.43 -1.49545 -0.893424 0
M  V30 15545 C 1466.56 -2.9826 -1.65087 0
M  V30 15546 H 1467.75 -2.99487 0.157292 0
M  V30 15547 H 1465.31 -1.55843 0.119409 0
M  V30 15548 H 1466.04 -2.27443 -2.31171 0
M  V30 15549 H 1465.83 -3.71003 -1.26882 0
M  V30 15550 H 1467.32 -3.52358 -2.24128 0
M  V30 15551 N 1467.75 -0.0969077 -1.57302 0
M  V30 15552 C 1468.69 0.891431 -2.11154 0
M  V30 15553 C 1469.7 1.24482 -1.04919 0
M  V30 15554 O 1470.89 1.19762 -1.3236 0
M  V30 15555 C 1467.99 2.19998 -2.57787 0
M  V30 15556 C 1467.16 2.02165 -3.87876 0
M  V30 15557 C 1466.22 3.16549 -4.20337 0
M  V30 15558 O 1465.25 2.90432 -4.89528 0
M  V30 15559 N 1466.45 4.42369 -3.75885 0
M  V30 15560 H 1469.21 0.431477 -2.96578 0
M  V30 15561 H 1466.77 0.0881458 -1.6166 0
M  V30 15562 H 1468.77 2.95472 -2.76547 0
M  V30 15563 H 1467.34 2.57412 -1.77364 0
M  V30 15564 H 1466.56 1.11011 -3.78246 0
M  V30 15565 H 1467.84 1.87529 -4.7298 0
M  V30 15566 H 1467.24 4.66469 -3.20036 0
M  V30 15567 H 1465.8 5.14787 -3.99797 0
M  V30 15568 N 1469.23 1.56605 0.176793 0
M  V30 15569 C 1470.46 1.8617 0.91408 0
M  V30 15570 C 1470.88 0.68262 1.75277 0
M  V30 15571 O 1470.24 -0.368391 1.77518 0
M  V30 15572 C 1470.29 3.14109 1.7711 0
M  V30 15573 O 1469.39 2.95947 2.87209 0
M  V30 15574 H 1468.73 0.612507 0.25638 0
M  V30 15575 H 1471.26 2.03837 0.176586 0
M  V30 15576 H 1471.27 3.45373 2.17213 0
M  V30 15577 H 1469.95 3.9954 1.15502 0
M  V30 15578 H 1468.52 2.76024 2.50729 0
M  V30 15579 N 1470.71 -0.445159 1.51182 0
M  V30 15580 C 1471.96 -1.19215 1.62698 0
M  V30 15581 C 1472.27 -1.92529 0.345249 0
M  V30 15582 O 1473.48 -2.69367 0.33967 0
M  V30 15583 C 1471.93 -2.16762 2.87302 0
M  V30 15584 C 1471.54 -1.49131 4.2245 0
M  V30 15585 C 1473.29 -2.91942 3.08172 0
M  V30 15586 C 1471.19 -2.45117 5.38212 0
M  V30 15587 H 1470.12 -0.448687 0.605967 0
M  V30 15588 H 1472.77 -0.459956 1.77642 0
M  V30 15589 H 1471.16 -2.93383 2.65975 0
M  V30 15590 H 1472.33 -0.781222 4.54129 0
M  V30 15591 H 1470.64 -0.861342 4.07394 0
M  V30 15592 H 1473.24 -3.6383 3.91832 0
M  V30 15593 H 1473.58 -3.52837 2.20934 0
M  V30 15594 H 1474.12 -2.22429 3.29803 0
M  V30 15595 H 1470.86 -1.88923 6.27685 0
M  V30 15596 H 1470.38 -3.14202 5.10918 0
M  V30 15597 H 1472.06 -3.06411 5.69843 0
M  V30 15598 N 1472.19 -1.41197 -0.700089 0
M  V30 15599 C 1473.14 -1.39158 -1.80607 0
M  V30 15600 C 1474.12 -0.266653 -1.58675 0
M  V30 15601 O 1475.31 -0.506973 -1.69584 0
M  V30 15602 C 1472.44 -1.27176 -3.18875 0
M  V30 15603 C 1471.53 -2.44513 -3.46517 0
M  V30 15604 N 1471.92 -3.69984 -3.44885 0
M  V30 15605 C 1470.22 -2.38228 -3.77046 0
M  V30 15606 C 1470.92 -4.4778 -3.71306 0
M  V30 15607 N 1469.89 -3.77831 -3.90826 0
M  V30 15608 H 1473.7 -2.34093 -1.77701 0
M  V30 15609 H 1471.21 -1.35188 -0.899887 0
M  V30 15610 H 1473.21 -1.23797 -3.98095 0
M  V30 15611 H 1471.87 -0.332215 -3.22996 0
M  V30 15612 H 1472.88 -4.02932 -3.25371 0
M  V30 15613 H 1469.56 -1.52722 -3.88564 0
M  V30 15614 H 1470.95 -5.56695 -3.76218 0
M  V30 15615 N 1473.67 0.933891 -1.2695 0
M  V30 15616 C 1475.08 1.20873 -1.0422 0
M  V30 15617 C 1475.28 2.00205 0.228112 0
M  V30 15618 O 1474.34 2.34539 0.935284 0
M  V30 15619 C 1475.65 1.9629 -2.27795 0
M  V30 15620 C 1477.2 2.09254 -2.3277 0
M  V30 15621 C 1477.67 2.88075 -3.56057 0
M  V30 15622 N 1479.16 2.95646 -3.56578 0
M  V30 15623 C 1479.9 3.57082 -4.48642 0
M  V30 15624 N 1479.4 4.1996 -5.51004 0
M  V30 15625 N 1481.19 3.54425 -4.36279 0
M  V30 15626 H 1473.34 0.403735 -2.08528 0
M  V30 15627 H 1475.6 0.241189 -0.916805 0
M  V30 15628 H 1475.31 1.45412 -3.20231 0
M  V30 15629 H 1475.18 2.9693 -2.32621 0
M  V30 15630 H 1477.57 2.5932 -1.40844 0
M  V30 15631 H 1477.65 1.07854 -2.31951 0
M  V30 15632 H 1477.29 2.38693 -4.48317 0
M  V30 15633 H 1477.22 3.89746 -3.54126 0
M  V30 15634 H 1479.72 2.50951 -2.82545 0
M  V30 15635 H 1480.03 4.64758 -6.1743 0
M  V30 15636 H 1478.37 4.18525 -5.54853 0
M  V30 15637 H 1481.56 3.045 -3.55524 0
M  V30 15638 H 1481.74 4.02016 -5.0822 0
M  V30 15639 N 1475.14 1.08871 1.13951 0
M  V30 15640 C 1476.39 0.819665 1.84732 0
M  V30 15641 C 1476.71 -0.656535 1.83615 0
M  V30 15642 O 1475.98 -1.47614 1.28791 0
M  V30 15643 H 1474.56 0.30023 0.684011 0
M  V30 15644 H 1477.22 1.37568 1.38062 0
M  V30 15645 H 1476.32 1.16809 2.89417 0
M  V30 15646 N 1476.62 -1.31073 0.875073 0
M  V30 15647 C 1477.87 -1.96518 0.488549 0
M  V30 15648 C 1478.2 -1.69144 -0.960243 0
M  V30 15649 O 1477.45 -0.983344 -1.69201 0
M  V30 15650 C 1477.75 -3.50511 0.698351 0
M  V30 15651 C 1477.42 -3.97915 2.12071 0
M  V30 15652 C 1476.08 -4.10571 2.50968 0
M  V30 15653 C 1478.43 -4.22777 3.0481 0
M  V30 15654 C 1475.76 -4.45442 3.81836 0
M  V30 15655 C 1478.11 -4.59114 4.35198 0
M  V30 15656 C 1476.77 -4.69977 4.74002 0
M  V30 15657 H 1476.04 -0.719111 0.178773 0
M  V30 15658 H 1478.69 -1.56117 1.10904 0
M  V30 15659 H 1477 -3.918 -0.00523937 0
M  V30 15660 H 1478.69 -3.99205 0.379031 0
M  V30 15661 H 1475.28 -3.88565 1.80874 0
M  V30 15662 H 1479.47 -4.12489 2.75983 0
M  V30 15663 H 1474.72 -4.52051 4.11655 0
M  V30 15664 H 1478.9 -4.77303 5.07105 0
M  V30 15665 H 1476.52 -4.96753 5.75448 0
M  V30 15666 N 1478.1 -0.635022 -1.4424 0
M  V30 15667 C 1479.01 0.0686832 -2.34499 0
M  V30 15668 C 1480.03 0.831574 -1.52843 0
M  V30 15669 O 1481.2 0.782954 -1.85558 0
M  V30 15670 C 1478.27 1.03543 -3.30877 0
M  V30 15671 C 1477.33 0.271484 -4.28441 0
M  V30 15672 C 1476.56 1.19218 -5.20214 0
M  V30 15673 O 1476.78 2.43101 -5.16002 0
M  V30 15674 O 1475.72 0.6744 -5.9811 0
M  V30 15675 H 1479.54 -0.673781 -2.96132 0
M  V30 15676 H 1477.13 -0.395211 -1.44078 0
M  V30 15677 H 1479.01 1.59151 -3.90191 0
M  V30 15678 H 1477.69 1.75844 -2.71773 0
M  V30 15679 H 1476.59 -0.327736 -3.72662 0
M  V30 15680 H 1477.93 -0.411584 -4.90476 0
M  V30 15681 N 1479.58 1.53054 -0.375806 0
M  V30 15682 C 1480.99 1.5958 -0.0251765 0
M  V30 15683 C 1481.19 1.39047 1.45836 0
M  V30 15684 O 1480.25 1.20073 2.22123 0
M  V30 15685 C 1481.56 2.96676 -0.490274 0
M  V30 15686 C 1483.11 3.09815 -0.44537 0
M  V30 15687 C 1483.59 4.4934 -0.886442 0
M  V30 15688 N 1485.08 4.55484 -0.84191 0
M  V30 15689 C 1485.81 5.61652 -1.15476 0
M  V30 15690 N 1485.31 6.75526 -1.53741 0
M  V30 15691 N 1487.1 5.51688 -1.07689 0
M  V30 15692 H 1479.25 1.64651 -1.34178 0
M  V30 15693 H 1481.52 0.77278 -0.549104 0
M  V30 15694 H 1481.22 3.16874 -1.52589 0
M  V30 15695 H 1481.1 3.77016 0.11776 0
M  V30 15696 H 1483.48 2.89321 0.581138 0
M  V30 15697 H 1483.56 2.3146 -1.08903 0
M  V30 15698 H 1483.21 4.70573 -1.91111 0
M  V30 15699 H 1483.14 5.26141 -0.219925 0
M  V30 15700 H 1485.63 3.73725 -0.56015 0
M  V30 15701 H 1485.94 7.52489 -1.76012 0
M  V30 15702 H 1484.29 6.76892 -1.57616 0
M  V30 15703 H 1487.48 4.61605 -0.777062 0
M  V30 15704 H 1487.65 6.34329 -1.32403 0
M  V30 15705 N 1481.06 0.105248 1.57248 0
M  V30 15706 C 1481.97 -0.864007 2.1811 0
M  V30 15707 C 1482.98 -1.30282 1.15337 0
M  V30 15708 O 1484.16 -1.36864 1.4775 0
M  V30 15709 C 1481.22 -2.1014 2.75757 0
M  V30 15710 C 1480.28 -1.71583 3.9352 0
M  V30 15711 C 1479.52 -2.89424 4.48408 0
M  V30 15712 O 1479.74 -4.04449 4.02215 0
M  V30 15713 O 1478.67 -2.67303 5.39289 0
M  V30 15714 H 1482.5 -0.376131 3.01362 0
M  V30 15715 H 1480.09 -0.119643 1.4892 0
M  V30 15716 H 1481.97 -2.82638 3.1256 0
M  V30 15717 H 1480.64 -2.57961 1.95545 0
M  V30 15718 H 1479.55 -0.962347 3.6151 0
M  V30 15719 H 1480.88 -1.28517 4.75126 0
M  V30 15720 N 1482.53 -1.56697 -0.168486 0
M  V30 15721 C 1483.76 -1.86652 -0.904195 0
M  V30 15722 C 1484.18 -0.691906 -1.74912 0
M  V30 15723 O 1483.54 0.358971 -1.77711 0
M  V30 15724 C 1483.59 -3.15043 -1.75442 0
M  V30 15725 O 1482.69 -2.97466 -2.85636 0
M  V30 15726 H 1482.04 -0.613859 -0.253128 0
M  V30 15727 H 1484.57 -2.03927 -0.165773 0
M  V30 15728 H 1484.58 -3.4652 -2.15378 0
M  V30 15729 H 1483.25 -4.00147 -1.13381 0
M  V30 15730 H 1481.83 -2.7735 -2.49262 0
M  V30 15731 N 1484.01 0.437135 -1.51416 0
M  V30 15732 C 1485.26 1.18523 -1.653 0
M  V30 15733 C 1485.61 1.88911 -0.364764 0
M  V30 15734 O 1484.91 1.80615 0.63943 0
M  V30 15735 C 1485.1 2.22795 -2.79458 0
M  V30 15736 C 1484.93 1.62642 -4.19259 0
M  V30 15737 C 1483.7 1.41126 -4.85192 0
M  V30 15738 C 1485.9 1.10255 -5.02343 0
M  V30 15739 N 1483.88 0.765717 -6.09106 0
M  V30 15740 C 1485.25 0.582285 -6.1726 0
M  V30 15741 C 1487.31 0.994325 -4.8787 0
M  V30 15742 C 1486.01 -0.0355648 -7.19291 0
M  V30 15743 C 1488.03 0.390369 -5.9011 0
M  V30 15744 C 1487.4 -0.11935 -7.04299 0
M  V30 15745 H 1483.5 0.42137 -0.658765 0
M  V30 15746 H 1486.08 0.4818 -1.88645 0
M  V30 15747 H 1484.25 2.90526 -2.57777 0
M  V30 15748 H 1485.98 2.89765 -2.82521 0
M  V30 15749 H 1482.74 1.67305 -4.43064 0
M  V30 15750 H 1483.16 0.460381 -6.75433 0
M  V30 15751 H 1487.8 1.37428 -3.99842 0
M  V30 15752 H 1485.52 -0.427644 -8.06968 0
M  V30 15753 H 1489.11 0.308533 -5.80981 0
M  V30 15754 H 1487.99 -0.579344 -7.82057 0
M  V30 15755 N 1485.49 1.41566 0.692592 0
M  V30 15756 C 1486.4 1.46014 1.83622 0
M  V30 15757 C 1487.42 0.350453 1.70434 0
M  V30 15758 O 1488.59 0.598634 1.92298 0
M  V30 15759 C 1485.66 1.34308 3.19628 0
M  V30 15760 C 1484.72 2.55617 3.44904 0
M  V30 15761 C 1483.95 2.4446 4.74421 0
M  V30 15762 O 1484.17 1.47078 5.51112 0
M  V30 15763 O 1483.11 3.34272 5.00546 0
M  V30 15764 H 1486.93 2.42504 1.82826 0
M  V30 15765 H 1484.52 1.23136 0.846039 0
M  V30 15766 H 1486.4 1.30075 4.00822 0
M  V30 15767 H 1485.08 0.409343 3.21101 0
M  V30 15768 H 1483.98 2.65426 2.63628 0
M  V30 15769 H 1485.32 3.47829 3.48247 0
M  V30 15770 N 1486.97 -0.927146 1.27443 0
M  V30 15771 C 1488.38 -1.48984 1.1252 0
M  V30 15772 C 1488.73 -1.94051 -0.289602 0
M  V30 15773 O 1487.86 -1.8123 -1.18257 0
M  V30 15774 C 1488.45 -2.70765 2.03646 0
M  V30 15775 C 1487.01 -3.23256 1.92827 0
M  V30 15776 C 1486.16 -1.95991 1.9617 0
M  V30 15777 H 1489.11 -0.741196 1.40328 0
M  V30 15778 H 1489.13 -3.45567 1.5926 0
M  V30 15779 H 1488.64 -2.37933 3.0661 0
M  V30 15780 H 1486.74 -3.60845 0.928516 0
M  V30 15781 H 1486.85 -3.89413 2.79096 0
M  V30 15782 H 1485.22 -2.12508 1.40402 0
M  V30 15783 H 1486 -1.65473 3.00788 0
M  V30 15784 N 1488.45 -1.09474 -1.13372 0
M  V30 15785 C 1489.69 -0.832323 -1.84933 0
M  V30 15786 C 1490.03 0.640469 -1.83335 0
M  V30 15787 O 1489.3 1.47158 -1.2718 0
M  V30 15788 C 1489.58 -1.36876 -3.33072 0
M  V30 15789 C 1489.44 -2.90769 -3.43181 0
M  V30 15790 C 1490.76 -1.00294 -4.2852 0
M  V30 15791 H 1487.87 -0.30382 -0.671463 0
M  V30 15792 H 1490.52 -1.35622 -1.33066 0
M  V30 15793 H 1488.67 -0.923134 -3.77373 0
M  V30 15794 H 1490.34 -3.43784 -3.07588 0
M  V30 15795 H 1488.58 -3.27876 -2.84042 0
M  V30 15796 H 1489.25 -3.23381 -4.47358 0
M  V30 15797 H 1491.73 -1.38729 -3.92293 0
M  V30 15798 H 1490.6 -1.40533 -5.30605 0
M  V30 15799 H 1490.87 0.0888133 -4.42011 0
M  V30 15800 N 1489.92 1.30607 -0.882012 0
M  V30 15801 C 1490.87 2.2821 -0.344826 0
M  V30 15802 C 1491.84 1.56254 0.563361 0
M  V30 15803 O 1493.03 1.84336 0.492416 0
M  V30 15804 C 1490.17 3.42319 0.437216 0
M  V30 15805 C 1489.28 4.29098 -0.499851 0
M  V30 15806 C 1488.41 5.30366 0.297497 0
M  V30 15807 C 1487.45 6.08795 -0.63523 0
M  V30 15808 N 1486.59 7.01986 0.12661 0
M  V30 15809 H 1491.43 2.73543 -1.18229 0
M  V30 15810 H 1488.97 1.34556 -0.594392 0
M  V30 15811 H 1490.93 4.07232 0.906521 0
M  V30 15812 H 1489.56 2.98063 1.23928 0
M  V30 15813 H 1488.61 3.6452 -1.08764 0
M  V30 15814 H 1489.92 4.83787 -1.21454 0
M  V30 15815 H 1489.07 6.01013 0.828786 0
M  V30 15816 H 1487.81 4.76364 1.04542 0
M  V30 15817 H 1486.82 5.37028 -1.17817 0
M  V30 15818 H 1488.04 6.64885 -1.3822 0
M  V30 15819 H 1485.99 6.50376 0.857125 0
M  V30 15820 H 1485.91 7.5415 -0.528512 0
M  V30 15821 H 1487.17 7.76879 0.638738 0
M  V30 15822 N 1491.4 0.642663 1.43901 0
M  V30 15823 C 1492.63 0.157518 2.06801 0
M  V30 15824 C 1493.05 -1.16361 1.47789 0
M  V30 15825 O 1492.41 -1.71645 0.583747 0
M  V30 15826 C 1492.46 0.0685904 3.60535 0
M  V30 15827 O 1491.56 -0.972183 4.00777 0
M  V30 15828 H 1490.9 0.0900406 0.657867 0
M  V30 15829 H 1493.43 0.882604 1.84584 0
M  V30 15830 H 1493.44 -0.118212 4.07829 0
M  V30 15831 H 1492.12 1.03307 4.02865 0
M  V30 15832 H 1490.7 -0.75902 3.65094 0
M  V30 15833 N 1492.88 -1.52852 0.383918 0
M  V30 15834 C 1493.81 -2.29213 -0.44539 0
M  V30 15835 C 1494.79 -1.3238 -1.06815 0
M  V30 15836 O 1495.98 -1.61269 -1.08194 0
M  V30 15837 C 1493.11 -3.09497 -1.57573 0
M  V30 15838 C 1492.06 -4.14168 -1.07928 0
M  V30 15839 C 1491.39 -4.82644 -2.30128 0
M  V30 15840 C 1492.69 -5.22082 -0.151035 0
M  V30 15841 H 1494.38 -2.98786 0.19172 0
M  V30 15842 H 1491.93 -1.43695 0.0936471 0
M  V30 15843 H 1493.88 -3.61672 -2.16267 0
M  V30 15844 H 1492.6 -2.37647 -2.24034 0
M  V30 15845 H 1491.26 -3.62966 -0.514909 0
M  V30 15846 H 1490.91 -4.07348 -2.95087 0
M  V30 15847 H 1490.61 -5.53388 -1.97574 0
M  V30 15848 H 1492.14 -5.37621 -2.89475 0
M  V30 15849 H 1493.55 -5.69649 -0.646003 0
M  V30 15850 H 1491.95 -6.00041 0.0844833 0
M  V30 15851 H 1493.02 -4.78228 0.801618 0
M  V30 15852 N 1494.36 -0.113586 -1.5719 0
M  V30 15853 C 1495.59 0.553592 -1.99356 0
M  V30 15854 C 1496 1.60567 -0.993154 0
M  V30 15855 O 1495.36 1.82494 0.0147252 0
M  V30 15856 C 1495.41 1.18462 -3.41539 0
M  V30 15857 O 1495.13 0.174602 -4.37752 0
M  V30 15858 C 1496.63 1.93564 -3.98808 0
M  V30 15859 H 1493.85 0.146998 -0.6547 0
M  V30 15860 H 1496.4 -0.198329 -2.03536 0
M  V30 15861 H 1494.55 1.88736 -3.38316 0
M  V30 15862 H 1494.97 0.632395 -5.20674 0
M  V30 15863 H 1496.44 2.33051 -5.00391 0
M  V30 15864 H 1496.92 2.80874 -3.37648 0
M  V30 15865 H 1497.52 1.28066 -4.0556 0
M  V30 15866 N 1495.84 1.56784 0.160173 0
M  V30 15867 C 1497.06 1.87129 0.894283 0
M  V30 15868 C 1497.49 0.701172 1.74543 0
M  V30 15869 O 1496.85 -0.349542 1.77899 0
M  V30 15870 C 1496.89 3.15969 1.73769 0
M  V30 15871 O 1496 2.98977 2.84054 0
M  V30 15872 H 1495.34 0.615192 0.249869 0
M  V30 15873 H 1497.87 2.04012 0.154956 0
M  V30 15874 H 1497.88 3.47657 2.13538 0
M  V30 15875 H 1496.55 4.00742 1.11258 0
M  V30 15876 H 1495.13 2.78668 2.47788 0
M  V30 15877 N 1497.32 -0.429099 1.51646 0
M  V30 15878 C 1498.26 -1.54202 1.74139 0
M  V30 15879 C 1499.26 -1.58117 0.607905 0
M  V30 15880 O 1500.46 -1.61763 0.789486 0
M  V30 15881 H 1496.84 -0.512456 0.550357 0
M  V30 15882 H 1498.81 -1.32408 2.67415 0
M  V30 15883 C 1497.56 -2.91779 1.89104 0
M  V30 15884 H 1496.88 -2.89502 2.75733 0
M  V30 15885 H 1498.32 -3.68995 2.08851 0
M  V30 15886 C 1496.78 -3.30512 0.652945 0
M  V30 15887 O 1497.31 -4.01257 -0.188553 0
M  V30 15888 N 1495.52 -2.86359 0.494634 0
M  V30 15889 H 1495.06 -2.28959 1.18049 0
M  V30 15890 H 1495.02 -3.12637 -0.332503 0
M  V30 15891 N 1498.79 -1.41931 -0.685074 0
M  V30 15892 C 1499.72 -1.47385 -1.81107 0
M  V30 15893 C 1500.7 -0.331433 -1.6684 0
M  V30 15894 O 1501.89 -0.544331 -1.86415 0
M  V30 15895 C 1499.02 -1.36555 -3.19327 0
M  V30 15896 C 1497.97 -2.48718 -3.48315 0
M  V30 15897 C 1497.3 -2.2295 -4.86002 0
M  V30 15898 C 1498.6 -3.91047 -3.46237 0
M  V30 15899 H 1500.29 -2.41624 -1.768 0
M  V30 15900 H 1497.84 -1.16297 -0.849178 0
M  V30 15901 H 1499.79 -1.38981 -3.97822 0
M  V30 15902 H 1498.52 -0.388063 -3.24286 0
M  V30 15903 H 1497.18 -2.45592 -2.72176 0
M  V30 15904 H 1496.82 -1.23518 -4.87598 0
M  V30 15905 H 1496.52 -2.98116 -5.0636 0
M  V30 15906 H 1498.05 -2.27108 -5.66793 0
M  V30 15907 H 1499.46 -3.95831 -4.14718 0
M  V30 15908 H 1497.86 -4.65981 -3.7813 0
M  V30 15909 H 1498.93 -4.1845 -2.45006 0
M  V30 15910 N 1500.27 0.920374 -1.27933 0
M  V30 15911 C 1501.68 1.48385 -1.13309 0
M  V30 15912 C 1502.03 1.94202 0.279307 0
M  V30 15913 O 1501.16 1.81855 1.17294 0
M  V30 15914 C 1501.75 2.69681 -2.05079 0
M  V30 15915 C 1500.31 3.22229 -1.94539 0
M  V30 15916 C 1499.46 1.94948 -1.97207 0
M  V30 15917 H 1502.41 0.733744 -1.40719 0
M  V30 15918 H 1502.43 3.44717 -1.6109 0
M  V30 15919 H 1501.94 2.36304 -3.07867 0
M  V30 15920 H 1500.04 3.60348 -0.94764 0
M  V30 15921 H 1500.16 3.87927 -2.81157 0
M  V30 15922 H 1498.52 2.1176 -1.41527 0
M  V30 15923 H 1499.3 1.63875 -3.01662 0
M  V30 15924 N 1501.75 1.10074 1.1279 0
M  V30 15925 C 1502.7 0.740977 2.20482 0
M  V30 15926 C 1503.69 -0.261163 1.67375 0
M  V30 15927 O 1504.9 -0.121923 1.79587 0
M  V30 15928 H 1501.27 0.221666 0.718588 0
M  V30 15929 H 1503.24 1.65823 2.48083 0
M  V30 15930 C 1501.99 0.184934 3.47208 0
M  V30 15931 H 1501.32 0.947278 3.88416 0
M  V30 15932 H 1502.76 -0.0287769 4.2399 0
M  V30 15933 C 1501.21 -1.08145 3.19071 0
M  V30 15934 O 1501.74 -2.1636 3.38454 0
M  V30 15935 N 1499.95 -0.998609 2.72903 0
M  V30 15936 H 1499.5 -0.117906 2.5733 0
M  V30 15937 H 1499.46 -1.84664 2.54453 0
M  V30 15938 N 1503.23 -1.30138 0.888926 0
M  V30 15939 C 1504.47 -1.96279 0.51012 0
M  V30 15940 C 1504.81 -1.69984 -0.939096 0
M  V30 15941 O 1504.08 -1.00677 -1.66416 0
M  V30 15942 C 1504.36 -3.51321 0.790305 0
M  V30 15943 C 1504.22 -3.87116 2.29044 0
M  V30 15944 C 1505.54 -4.39274 0.269477 0
M  V30 15945 H 1502.66 -0.712931 0.18681 0
M  V30 15946 H 1505.3 -1.53942 1.11364 0
M  V30 15947 H 1503.45 -3.87514 0.276647 0
M  V30 15948 H 1505.12 -3.60926 2.87281 0
M  V30 15949 H 1503.36 -3.35044 2.7555 0
M  V30 15950 H 1504.03 -4.95288 2.43708 0
M  V30 15951 H 1506.51 -4.10012 0.709173 0
M  V30 15952 H 1505.39 -5.46665 0.494815 0
M  V30 15953 H 1505.65 -4.3425 -0.829434 0
M  V30 15954 N 1504.71 -0.650285 -1.43559 0
M  V30 15955 C 1505.65 0.0550615 -2.32535 0
M  V30 15956 C 1506.65 0.81612 -1.48445 0
M  V30 15957 O 1507.85 0.726853 -1.64672 0
M  V30 15958 H 1504.23 0.0365887 -0.751109 0
M  V30 15959 H 1506.2 -0.713146 -2.89753 0
M  V30 15960 C 1504.95 1.00982 -3.32713 0
M  V30 15961 H 1504.27 0.433626 -3.97441 0
M  V30 15962 H 1505.71 1.47249 -3.9761 0
M  V30 15963 C 1504.17 2.10442 -2.63089 0
M  V30 15964 O 1504.7 3.18782 -2.44419 0
M  V30 15965 N 1502.91 1.86915 -2.22511 0
M  V30 15966 H 1502.45 0.988113 -2.37895 0
M  V30 15967 H 1502.41 2.60348 -1.76256 0
M  V30 15968 N 1506.18 1.52647 -0.392018 0
M  V30 15969 C 1507.11 2.29446 0.433228 0
M  V30 15970 C 1508.09 1.32945 1.06111 0
M  V30 15971 O 1509.28 1.61841 1.07337 0
M  V30 15972 C 1506.41 3.10328 1.55929 0
M  V30 15973 C 1505.36 4.14735 1.05731 0
M  V30 15974 C 1504.69 4.83858 2.27565 0
M  V30 15975 C 1505.99 5.22154 0.123346 0
M  V30 15976 H 1507.68 2.9868 -0.207563 0
M  V30 15977 H 1505.23 1.43643 -0.101266 0
M  V30 15978 H 1507.18 3.62814 2.14346 0
M  V30 15979 H 1505.91 2.38832 2.22771 0
M  V30 15980 H 1504.57 3.63234 0.495653 0
M  V30 15981 H 1504.21 4.08907 2.92923 0
M  V30 15982 H 1503.91 5.54428 1.94637 0
M  V30 15983 H 1505.44 5.39149 2.86619 0
M  V30 15984 H 1506.85 5.69983 0.615784 0
M  V30 15985 H 1505.25 5.99987 -0.116304 0
M  V30 15986 H 1506.32 4.77796 -0.826969 0
M  V30 15987 N 1507.66 0.121921 1.57128 0
M  V30 15988 C 1509.07 -0.402991 1.82299 0
M  V30 15989 C 1509.42 -1.66415 1.03925 0
M  V30 15990 O 1508.55 -2.14623 0.27674 0
M  V30 15991 C 1509.14 -0.737913 3.30666 0
M  V30 15992 C 1507.7 -1.20745 3.56508 0
M  V30 15993 C 1506.85 -0.217628 2.76445 0
M  V30 15994 H 1509.8 0.347009 1.5486 0
M  V30 15995 H 1509.82 -1.59505 3.45454 0
M  V30 15996 H 1509.33 0.180162 3.87682 0
M  V30 15997 H 1507.44 -2.14232 3.04853 0
M  V30 15998 H 1507.55 -1.15075 4.65075 0
M  V30 15999 H 1505.91 -0.705253 2.44741 0
M  V30 16000 H 1506.7 0.693596 3.3622 0
M  V30 16001 N 1509.14 -1.56867 -0.151857 0
M  V30 16002 C 1510.09 -1.98842 -1.20685 0
M  V30 16003 C 1511.08 -0.88007 -1.44745 0
M  V30 16004 O 1512.29 -1.06524 -1.45095 0
M  V30 16005 H 1508.66 -0.632904 -0.406123 0
M  V30 16006 H 1510.63 -2.86737 -0.826095 0
M  V30 16007 C 1509.38 -2.38095 -2.53389 0
M  V30 16008 H 1508.71 -3.2293 -2.35703 0
M  V30 16009 H 1510.15 -2.71292 -3.25847 0
M  V30 16010 C 1508.61 -1.23175 -3.13575 0
M  V30 16011 O 1509.14 -0.529864 -3.9819 0
M  V30 16012 N 1507.34 -0.997255 -2.72953 0
M  V30 16013 H 1506.89 -1.56979 -2.04243 0
M  V30 16014 H 1506.85 -0.23022 -3.13556 0
M  V30 16015 N 1510.62 0.421051 -1.51871 0
M  V30 16016 C 1511.86 1.17082 -1.65589 0
M  V30 16017 C 1512.2 1.90469 -0.378861 0
M  V30 16018 O 1511.47 1.84277 0.622259 0
M  V30 16019 C 1511.76 2.17483 -2.87007 0
M  V30 16020 C 1511.61 1.48071 -4.24729 0
M  V30 16021 C 1512.93 3.18288 -3.03942 0
M  V30 16022 H 1510.05 0.424284 -0.602621 0
M  V30 16023 H 1512.69 0.457998 -1.84397 0
M  V30 16024 H 1510.84 2.78273 -2.71102 0
M  V30 16025 H 1512.51 0.904926 -4.52337 0
M  V30 16026 H 1510.75 0.782814 -4.26678 0
M  V30 16027 H 1511.42 2.21272 -5.0571 0
M  V30 16028 H 1513.9 2.67565 -3.18666 0
M  V30 16029 H 1512.78 3.85815 -3.90433 0
M  V30 16030 H 1513.04 3.85333 -2.16728 0
M  V30 16031 N 1512.1 1.42293 0.677538 0
M  V30 16032 C 1513.04 1.45787 1.81243 0
M  V30 16033 C 1514.04 0.333895 1.66077 0
M  V30 16034 O 1515.24 0.50678 1.72719 0
M  V30 16035 H 1511.62 0.456538 0.597559 0
M  V30 16036 H 1513.59 2.41398 1.75413 0
M  V30 16037 C 1512.34 1.37449 3.19379 0
M  V30 16038 H 1511.66 2.23231 3.31674 0
M  V30 16039 H 1513.1 1.43955 3.98814 0
M  V30 16040 C 1511.56 0.0889433 3.36783 0
M  V30 16041 O 1512.09 -0.859357 3.924 0
M  V30 16042 N 1510.3 0.00698476 2.90599 0
M  V30 16043 H 1509.84 0.779459 2.45524 0
M  V30 16044 H 1509.8 -0.852522 3.02621 0
M  V30 16045 N 1513.57 -0.913576 1.28419 0
M  V30 16046 C 1514.5 -2.03275 1.14897 0
M  V30 16047 C 1515.49 -1.70036 0.0467034 0
M  V30 16048 O 1516.67 -1.92907 0.223725 0
M  V30 16049 C 1513.8 -3.37717 0.810217 0
M  V30 16050 C 1512.75 -3.85119 1.86728 0
M  V30 16051 C 1512.08 -5.16527 1.38215 0
M  V30 16052 C 1513.38 -4.06959 3.27386 0
M  V30 16053 H 1515.07 -2.14847 2.08522 0
M  V30 16054 H 1512.62 -1.03233 1.00394 0
M  V30 16055 H 1514.57 -4.15505 0.702382 0
M  V30 16056 H 1513.3 -3.26199 -0.161732 0
M  V30 16057 H 1511.96 -3.09536 1.96426 0
M  V30 16058 H 1511.6 -5.01413 0.399263 0
M  V30 16059 H 1511.3 -5.49213 2.08898 0
M  V30 16060 H 1512.83 -5.96871 1.28754 0
M  V30 16061 H 1514.24 -4.75272 3.20608 0
M  V30 16062 H 1512.64 -4.50977 3.95904 0
M  V30 16063 H 1513.71 -3.11764 3.71391 0
M  V30 16064 N 1515.05 -1.1067 -1.12204 0
M  V30 16065 C 1516.46 -0.867959 -1.65298 0
M  V30 16066 C 1516.81 0.601297 -1.86759 0
M  V30 16067 O 1515.94 1.46153 -1.59588 0
M  V30 16068 C 1516.53 -1.56906 -3.00276 0
M  V30 16069 C 1515.09 -1.37696 -3.5031 0
M  V30 16070 C 1514.24 -1.61688 -2.25282 0
M  V30 16071 H 1517.19 -1.26408 -0.959521 0
M  V30 16072 H 1517.21 -1.00947 -3.66865 0
M  V30 16073 H 1516.72 -2.63838 -2.84625 0
M  V30 16074 H 1514.83 -0.329381 -3.71141 0
M  V30 16075 H 1514.94 -2.12058 -4.29614 0
M  V30 16076 H 1513.3 -1.03977 -2.3251 0
M  V30 16077 H 1514.09 -2.69877 -2.12182 0
M  V30 16078 N 1516.53 1.29665 -0.895815 0
M  V30 16079 C 1517.48 2.27831 -0.369011 0
M  V30 16080 C 1518.45 1.56843 0.546756 0
M  V30 16081 O 1519.63 1.84848 0.472837 0
M  V30 16082 C 1516.77 3.42764 0.400884 0
M  V30 16083 C 1515.89 4.28544 -0.545335 0
M  V30 16084 C 1515.02 5.30652 0.241228 0
M  V30 16085 C 1514.06 6.08087 -0.699765 0
M  V30 16086 N 1513.2 7.02081 0.0521477 0
M  V30 16087 H 1518.04 2.72274 -1.21124 0
M  V30 16088 H 1515.57 1.33918 -0.608631 0
M  V30 16089 H 1517.53 4.08171 0.863277 0
M  V30 16090 H 1516.16 2.99361 1.2076 0
M  V30 16091 H 1515.21 3.63346 -1.12624 0
M  V30 16092 H 1516.53 4.82472 -1.26579 0
M  V30 16093 H 1515.68 6.01858 0.764994 0
M  V30 16094 H 1514.42 4.77446 0.994838 0
M  V30 16095 H 1513.42 5.35748 -1.23507 0
M  V30 16096 H 1514.65 6.63382 -1.45264 0
M  V30 16097 H 1512.59 6.51249 0.788096 0
M  V30 16098 H 1512.51 7.53547 -0.60847 0
M  V30 16099 H 1513.78 7.77512 0.556304 0
M  V30 16100 N 1518.01 0.657889 1.43212 0
M  V30 16101 C 1519.25 0.173443 2.02057 0
M  V30 16102 C 1519.59 -1.21108 1.51811 0
M  V30 16103 O 1518.86 -1.80953 0.71317 0
M  V30 16104 C 1519.15 0.189429 3.59601 0
M  V30 16105 C 1519 1.6082 4.20068 0
M  V30 16106 C 1520.32 -0.471633 4.37566 0
M  V30 16107 H 1517.44 0.0644999 0.734172 0
M  V30 16108 H 1520.08 0.839462 1.7045 0
M  V30 16109 H 1518.23 -0.377689 3.8666 0
M  V30 16110 H 1519.9 2.22627 4.04024 0
M  V30 16111 H 1518.14 2.15407 3.7654 0
M  V30 16112 H 1518.81 1.5712 5.29167 0
M  V30 16113 H 1521.29 0.0109387 4.16099 0
M  V30 16114 H 1520.17 -0.429739 5.47215 0
M  V30 16115 H 1520.43 -1.54652 4.14168 0
M  V30 16116 N 1519.49 -1.52437 0.400108 0
M  V30 16117 C 1520.9 -1.86563 -0.0715162 0
M  V30 16118 C 1521.25 -1.3193 -1.4522 0
M  V30 16119 O 1520.37 -0.654955 -2.06251 0
M  V30 16120 C 1520.97 -3.38525 -0.13655 0
M  V30 16121 C 1519.53 -3.72323 -0.55249 0
M  V30 16122 C 1518.67 -2.75896 0.278729 0
M  V30 16123 H 1521.63 -1.46192 0.617547 0
M  V30 16124 H 1521.65 -3.68357 -0.953588 0
M  V30 16125 H 1521.16 -3.78258 0.868468 0
M  V30 16126 H 1519.26 -3.38164 -1.56448 0
M  V30 16127 H 1519.37 -4.7814 -0.303139 0
M  V30 16128 H 1517.74 -2.53394 -0.257608 0
M  V30 16129 H 1518.52 -3.18467 1.28193 0
M  V30 16130 N 1520.96 -0.130252 -1.57061 0
M  V30 16131 C 1521.91 0.832998 -2.17173 0
M  V30 16132 C 1522.91 1.26735 -1.12403 0
M  V30 16133 O 1524.11 1.23778 -1.30686 0
M  V30 16134 H 1520.49 0.286777 -0.695171 0
M  V30 16135 H 1522.46 0.301639 -2.96872 0
M  V30 16136 C 1521.21 2.06879 -2.79457 0
M  V30 16137 H 1520.53 1.74352 -3.5978 0
M  V30 16138 H 1521.97 2.72258 -3.25041 0
M  V30 16139 C 1520.43 2.86591 -1.77108 0
M  V30 16140 O 1520.96 3.82363 -1.2313 0
M  V30 16141 N 1519.17 2.508 -1.46792 0
M  V30 16142 H 1518.71 1.72984 -1.90878 0
M  V30 16143 H 1518.67 3.04428 -0.785566 0
M  V30 16144 N 1522.44 1.56945 0.143535 0
M  V30 16145 C 1523.37 2.0156 1.17881 0
M  V30 16146 C 1524.35 0.895744 1.44604 0
M  V30 16147 O 1525.54 1.16379 1.55466 0
M  V30 16148 C 1522.67 2.39915 2.51114 0
M  V30 16149 C 1521.62 3.55117 2.38905 0
M  V30 16150 C 1520.95 3.79296 3.7688 0
M  V30 16151 C 1522.25 4.87668 1.87021 0
M  V30 16152 H 1523.94 2.88296 0.80783 0
M  V30 16153 H 1521.49 1.38698 0.387149 0
M  V30 16154 H 1523.44 2.69727 3.23767 0
M  V30 16155 H 1522.17 1.5012 2.90055 0
M  V30 16156 H 1520.83 3.25476 1.68703 0
M  V30 16157 H 1520.47 2.86747 4.13262 0
M  V30 16158 H 1520.17 4.56827 3.69571 0
M  V30 16159 H 1521.7 4.11537 4.51076 0
M  V30 16160 H 1523.11 5.16176 2.4947 0
M  V30 16161 H 1521.51 5.69029 1.90594 0
M  V30 16162 H 1522.58 4.77811 0.82611 0
M  V30 16163 N 1523.92 -0.412991 1.52093 0
M  V30 16164 C 1525.33 -0.991955 1.58168 0
M  V30 16165 C 1525.68 -1.91655 0.419834 0
M  V30 16166 O 1524.81 -2.11448 -0.460308 0
M  V30 16167 C 1525.4 -1.80581 2.86663 0
M  V30 16168 C 1523.96 -2.33487 2.9523 0
M  V30 16169 C 1523.11 -1.13362 2.5307 0
M  V30 16170 H 1526.06 -0.193364 1.57518 0
M  V30 16171 H 1526.08 -2.66282 2.71798 0
M  V30 16172 H 1525.59 -1.13262 3.71205 0
M  V30 16173 H 1523.69 -3.0419 2.15173 0
M  V30 16174 H 1523.81 -2.64617 3.99393 0
M  V30 16175 H 1522.17 -1.48641 2.06828 0
M  V30 16176 H 1522.95 -0.476148 3.39982 0
M  V30 16177 N 1525.4 -1.4265 -0.669982 0
M  V30 16178 C 1526.65 -1.43589 -1.43213 0
M  V30 16179 C 1526.98 -0.0537998 -1.94125 0
M  V30 16180 O 1526.25 0.922727 -1.71219 0
M  V30 16181 C 1526.54 -2.46433 -2.62569 0
M  V30 16182 C 1526.39 -3.93851 -2.17258 0
M  V30 16183 C 1527.71 -2.46208 -3.64787 0
M  V30 16184 H 1524.83 -0.522859 -0.519411 0
M  V30 16185 H 1527.47 -1.74094 -0.760997 0
M  V30 16186 H 1525.62 -2.20551 -3.19828 0
M  V30 16187 H 1527.29 -4.30732 -1.6513 0
M  V30 16188 H 1525.53 -4.07487 -1.48786 0
M  V30 16189 H 1526.21 -4.61398 -3.03012 0
M  V30 16190 H 1528.68 -2.69237 -3.17255 0
M  V30 16191 H 1527.56 -3.20138 -4.45873 0
M  V30 16192 H 1527.82 -1.48979 -4.16242 0
M  V30 16193 N 1526.88 0.906753 -1.28902 0
M  V30 16194 C 1527.83 2.03141 -1.13299 0
M  V30 16195 C 1528.82 1.69325 -0.0504114 0
M  V30 16196 O 1530.03 1.78774 -0.209696 0
M  V30 16197 H 1526.4 0.665709 -0.349766 0
M  V30 16198 H 1528.37 2.13441 -2.08531 0
M  V30 16199 C 1527.12 3.37918 -0.818935 0
M  V30 16200 H 1526.44 3.64437 -1.64395 0
M  V30 16201 H 1527.88 4.17318 -0.749753 0
M  V30 16202 C 1526.34 3.33498 0.477582 0
M  V30 16203 O 1526.87 3.7241 1.50578 0
M  V30 16204 N 1525.08 2.86594 0.480862 0
M  V30 16205 H 1524.63 2.55124 -0.356308 0
M  V30 16206 H 1524.58 2.84019 1.34835 0
M  V30 16207 N 1528.36 1.11264 1.11616 0
M  V30 16208 C 1529.6 0.855139 1.82675 0
M  V30 16209 C 1529.92 -0.621194 1.85474 0
M  V30 16210 O 1531.12 -0.994886 2.52615 0
M  V30 16211 C 1529.58 1.48007 3.28058 0
M  V30 16212 C 1529.19 2.99031 3.33593 0
M  V30 16213 C 1530.93 1.30233 4.04029 0
M  V30 16214 C 1528.84 3.54517 4.73362 0
M  V30 16215 H 1527.77 0.316252 0.684471 0
M  V30 16216 H 1530.42 1.33766 1.25614 0
M  V30 16217 H 1528.8 0.925214 3.8504 0
M  V30 16218 H 1529.98 3.60905 2.86503 0
M  V30 16219 H 1528.29 3.16059 2.711 0
M  V30 16220 H 1530.89 1.69122 5.07249 0
M  V30 16221 H 1531.23 0.244724 4.1558 0
M  V30 16222 H 1531.76 1.82573 3.53429 0
M  V30 16223 H 1528.5 4.59982 4.67008 0
M  V30 16224 H 1528.02 2.97414 5.20869 0
M  V30 16225 H 1529.7 3.52848 5.42316 0
M  V30 16226 N 1529.83 -1.29188 0.902679 0
M  V30 16227 C 1531.24 -1.77521 0.578207 0
M  V30 16228 C 1531.6 -1.74017 -0.906227 0
M  V30 16229 O 1530.72 -1.32793 -1.70865 0
M  V30 16230 C 1531.32 -3.22352 1.04281 0
M  V30 16231 C 1529.87 -3.68451 0.769454 0
M  V30 16232 C 1529.02 -2.49225 1.21583 0
M  V30 16233 H 1531.97 -1.15807 1.0851 0
M  V30 16234 H 1531.99 -3.78604 0.379396 0
M  V30 16235 H 1531.51 -3.2487 2.12323 0
M  V30 16236 H 1529.61 -3.71405 -0.298223 0
M  V30 16237 H 1529.72 -4.59112 1.36943 0
M  V30 16238 H 1528.08 -2.46663 0.634766 0
M  V30 16239 H 1528.87 -2.54469 2.30436 0
M  V30 16240 N 1531.31 -0.665475 -1.42861 0
M  V30 16241 C 1532.24 0.00482845 -2.335 0
M  V30 16242 C 1533.22 0.799135 -1.50159 0
M  V30 16243 O 1534.41 0.75816 -1.78789 0
M  V30 16244 C 1531.54 0.963347 -3.33672 0
M  V30 16245 C 1530.49 0.278294 -4.27094 0
M  V30 16246 C 1529.82 1.34911 -5.174 0
M  V30 16247 C 1531.12 -0.836925 -5.15551 0
M  V30 16248 H 1532.81 -0.752129 -2.89799 0
M  V30 16249 H 1530.36 -0.363139 -1.39346 0
M  V30 16250 H 1532.31 1.44128 -3.95986 0
M  V30 16251 H 1531.03 1.75161 -2.75656 0
M  V30 16252 H 1529.69 -0.179314 -3.66161 0
M  V30 16253 H 1529.34 2.12912 -4.55716 0
M  V30 16254 H 1529.04 0.895919 -5.8073 0
M  V30 16255 H 1530.57 1.82816 -5.8259 0
M  V30 16256 H 1531.98 -0.440617 -5.71604 0
M  V30 16257 H 1530.38 -1.21533 -5.87665 0
M  V30 16258 H 1531.45 -1.6897 -4.54507 0
M  V30 16259 N 1532.79 1.52222 -0.408187 0
M  V30 16260 C 1534.04 2.01404 0.167574 0
M  V30 16261 C 1534.36 1.29572 1.45726 0
M  V30 16262 O 1533.63 0.421363 1.91315 0
M  V30 16263 H 1532.21 0.744174 0.0649156 0
M  V30 16264 H 1534.87 1.87148 -0.544212 0
M  V30 16265 H 1533.97 3.09966 0.36436 0
M  V30 16266 N 1534.27 0.138579 1.5699 0
M  V30 16267 C 1535.52 -0.514545 1.95026 0
M  V30 16268 C 1535.83 -1.66565 1.02544 0
M  V30 16269 O 1537.04 -2.38284 1.30126 0
M  V30 16270 C 1535.49 -0.966746 3.46673 0
M  V30 16271 C 1535.1 0.156969 4.47725 0
M  V30 16272 C 1536.84 -1.59014 3.93592 0
M  V30 16273 C 1534.75 -0.313031 5.90571 0
M  V30 16274 H 1533.68 -0.195991 0.728082 0
M  V30 16275 H 1536.33 0.221575 1.82157 0
M  V30 16276 H 1534.71 -1.75788 3.54845 0
M  V30 16277 H 1535.89 0.933728 4.51241 0
M  V30 16278 H 1534.2 0.688238 4.10673 0
M  V30 16279 H 1536.8 -1.95326 4.97747 0
M  V30 16280 H 1537.14 -2.47595 3.34668 0
M  V30 16281 H 1537.68 -0.864061 3.88302 0
M  V30 16282 H 1534.41 0.5372 6.53295 0
M  V30 16283 H 1533.93 -1.05585 5.90434 0
M  V30 16284 H 1535.61 -0.767826 6.42428 0
M  V30 16285 N 1535.75 -1.57019 -0.13521 0
M  V30 16286 C 1537.16 -1.73319 -0.694067 0
M  V30 16287 C 1537.51 -0.754808 -1.811 0
M  V30 16288 O 1536.63 0.0759463 -2.16267 0
M  V30 16289 C 1537.23 -3.14266 -1.26579 0
M  V30 16290 C 1535.79 -3.32128 -1.7711 0
M  V30 16291 C 1534.93 -2.69226 -0.664263 0
M  V30 16292 H 1537.88 -1.58441 0.0905702 0
M  V30 16293 H 1537.91 -3.14919 -2.13557 0
M  V30 16294 H 1537.42 -3.85451 -0.452652 0
M  V30 16295 H 1535.52 -2.65959 -2.60953 0
M  V30 16296 H 1535.63 -4.40172 -1.8917 0
M  V30 16297 H 1534 -2.30016 -1.09384 0
M  V30 16298 H 1534.78 -3.43024 0.13763 0
M  V30 16299 N 1537.22 0.404919 -1.52309 0
M  V30 16300 C 1538.16 1.51276 -1.72186 0
M  V30 16301 C 1539.17 1.5125 -0.602276 0
M  V30 16302 O 1540.36 1.55439 -0.877549 0
M  V30 16303 C 1537.46 2.90162 -1.75099 0
M  V30 16304 C 1536.63 3.14333 -3.04161 0
M  V30 16305 C 1535.69 4.33113 -2.9883 0
M  V30 16306 O 1534.72 4.30189 -3.72728 0
M  V30 16307 N 1535.92 5.38451 -2.16911 0
M  V30 16308 H 1538.68 1.34618 -2.67765 0
M  V30 16309 H 1536.24 0.594264 -1.50599 0
M  V30 16310 H 1538.24 3.67697 -1.69058 0
M  V30 16311 H 1536.81 3.00257 -0.869756 0
M  V30 16312 H 1536.03 2.24803 -3.23817 0
M  V30 16313 H 1537.31 3.27327 -3.89531 0
M  V30 16314 H 1536.71 5.43676 -1.56309 0
M  V30 16315 H 1535.27 6.14715 -2.16724 0
M  V30 16316 N 1538.7 1.43003 0.662408 0
M  V30 16317 C 1539.64 1.4189 1.78725 0
M  V30 16318 C 1540.61 0.281515 1.60144 0
M  V30 16319 O 1541.8 0.473677 1.82452 0
M  V30 16320 C 1538.92 1.22166 3.159 0
M  V30 16321 C 1537.97 2.39061 3.53203 0
M  V30 16322 S 1538.8 4.01607 3.54221 0
M  V30 16323 C 1539.96 3.84249 4.94068 0
M  V30 16324 H 1540.19 2.37073 1.79398 0
M  V30 16325 H 1537.73 1.29924 0.834214 0
M  V30 16326 H 1539.68 1.11474 3.95074 0
M  V30 16327 H 1538.34 0.285468 3.128 0
M  V30 16328 H 1537.54 2.21041 4.52943 0
M  V30 16329 H 1537.14 2.46331 2.81419 0
M  V30 16330 H 1539.43 3.46006 5.82483 0
M  V30 16331 H 1540.37 4.83709 5.17138 0
M  V30 16332 H 1540.78 3.16879 4.6717 0
M  V30 16333 N 1540.18 -0.899904 1.29381 0
M  V30 16334 C 1541.59 -1.46563 1.15655 0
M  V30 16335 C 1541.94 -1.94622 -0.248375 0
M  V30 16336 O 1541.07 -1.83698 -1.14386 0
M  V30 16337 C 1541.66 -2.66384 2.09344 0
M  V30 16338 C 1540.22 -3.19093 1.99641 0
M  V30 16339 C 1539.37 -1.91786 2.00283 0
M  V30 16340 H 1542.32 -0.711264 1.41869 0
M  V30 16341 H 1542.34 -3.42111 1.66554 0
M  V30 16342 H 1541.85 -2.31376 3.11587 0
M  V30 16343 H 1539.95 -3.58795 1.00485 0
M  V30 16344 H 1540.07 -3.83405 2.87293 0
M  V30 16345 H 1538.43 -2.09482 1.44878 0
M  V30 16346 H 1539.21 -1.59055 3.04231 0
M  V30 16347 N 1541.66 -1.11854 -1.11024 0
M  V30 16348 C 1542.89 -0.892714 -1.8665 0
M  V30 16349 C 1543.3 0.557721 -1.80374 0
M  V30 16350 O 1542.66 1.3853 -1.1881 0
M  V30 16351 C 1542.71 -1.35135 -3.35292 0
M  V30 16352 O 1542.43 -2.74493 -3.41446 0
M  V30 16353 C 1543.93 -1.16157 -4.27811 0
M  V30 16354 H 1541.15 -0.319409 -0.590101 0
M  V30 16355 H 1543.7 -1.48697 -1.40391 0
M  V30 16356 H 1541.85 -0.80046 -3.7904 0
M  V30 16357 H 1542.26 -2.94474 -4.34034 0
M  V30 16358 H 1543.74 -1.53144 -5.30331 0
M  V30 16359 H 1544.22 -0.101546 -4.39083 0
M  V30 16360 H 1544.82 -1.69966 -3.89861 0
M  V30 16361 N 1543.14 1.28707 -0.909517 0
M  V30 16362 C 1544.38 1.95154 -0.540481 0
M  V30 16363 C 1544.71 1.7163 0.91506 0
M  V30 16364 O 1543.97 1.02786 1.66534 0
M  V30 16365 C 1544.27 3.48536 -0.791037 0
M  V30 16366 C 1543.93 3.92153 -2.22546 0
M  V30 16367 C 1542.59 4.03772 -2.61766 0
M  V30 16368 C 1544.95 4.14547 -3.15912 0
M  V30 16369 C 1542.27 4.35162 -3.93511 0
M  V30 16370 C 1544.63 4.47414 -4.47218 0
M  V30 16371 C 1543.29 4.57244 -4.86296 0
M  V30 16372 H 1542.56 0.714119 -0.197776 0
M  V30 16373 H 1545.21 1.53122 -1.15004 0
M  V30 16374 H 1543.51 3.91676 -0.0986412 0
M  V30 16375 H 1545.21 3.98059 -0.48474 0
M  V30 16376 H 1541.8 3.83633 -1.91113 0
M  V30 16377 H 1545.98 4.05027 -2.86822 0
M  V30 16378 H 1541.24 4.40977 -4.23496 0
M  V30 16379 H 1545.41 4.6369 -5.19581 0
M  V30 16380 H 1543.04 4.81321 -5.88416 0
M  V30 16381 N 1544.61 0.673042 1.42506 0
M  V30 16382 C 1545.84 0.201349 2.0642 0
M  V30 16383 C 1546.26 -1.132 1.50224 0
M  V30 16384 O 1545.62 -1.70368 0.620024 0
M  V30 16385 C 1545.67 0.14505 3.60308 0
M  V30 16386 O 1544.77 -0.886953 4.02749 0
M  V30 16387 H 1544.12 0.103975 0.655809 0
M  V30 16388 H 1546.65 0.921559 1.8267 0
M  V30 16389 H 1546.66 -0.0316792 4.07988 0
M  V30 16390 H 1545.33 1.11829 4.00583 0
M  V30 16391 H 1543.91 -0.681408 3.66621 0
M  V30 16392 N 1546.09 -1.52004 0.416254 0
M  V30 16393 C 1547.06 -2.2579 -0.393882 0
M  V30 16394 C 1548.06 -1.28427 -0.967637 0
M  V30 16395 O 1549.25 -1.52311 -0.845396 0
M  V30 16396 C 1546.38 -3.03361 -1.55515 0
M  V30 16397 H 1547.57 -2.98835 0.252492 0
M  V30 16398 H 1545.12 -1.55384 0.168929 0
M  V30 16399 H 1545.86 -2.34682 -2.23818 0
M  V30 16400 H 1545.64 -3.74852 -1.15015 0
M  V30 16401 H 1547.13 -3.5931 -2.12805 0
M  V30 16402 N 1547.57 -0.146903 -1.56914 0
M  V30 16403 C 1548.98 0.373938 -1.82917 0
M  V30 16404 C 1549.33 1.64741 -1.06559 0
M  V30 16405 O 1548.46 2.14156 -0.310849 0
M  V30 16406 C 1549.05 0.685213 -3.31799 0
M  V30 16407 C 1547.61 1.15058 -3.58383 0
M  V30 16408 C 1546.76 0.17362 -2.76756 0
M  V30 16409 H 1549.71 -0.371602 -1.54288 0
M  V30 16410 H 1549.73 1.53989 -3.47948 0
M  V30 16411 H 1549.24 -0.241816 -3.87346 0
M  V30 16412 H 1547.34 2.09355 -3.08223 0
M  V30 16413 H 1547.46 1.07662 -4.66847 0
M  V30 16414 H 1545.82 0.666227 -2.45832 0
M  V30 16415 H 1546.6 -0.746998 -3.35074 0
M  V30 16416 N 1549.05 1.57088 0.126881 0
M  V30 16417 C 1550.27 1.88984 0.854389 0
M  V30 16418 C 1550.7 0.738037 1.73016 0
M  V30 16419 O 1550.06 -0.311728 1.786 0
M  V30 16420 C 1550.1 3.19584 1.67028 0
M  V30 16421 O 1549.21 3.04935 2.77648 0
M  V30 16422 H 1548.55 0.620354 0.236763 0
M  V30 16423 H 1551.08 2.04295 0.111647 0
M  V30 16424 H 1551.09 3.52109 2.06115 0
M  V30 16425 H 1549.76 4.03012 1.02732 0
M  V30 16426 H 1548.34 2.83861 2.41821 0
M  V30 16427 N 1550.53 -0.396836 1.52522 0
M  V30 16428 C 1551.77 -1.14098 1.68384 0
M  V30 16429 C 1552.13 -1.87877 0.414722 0
M  V30 16430 O 1551.42 -1.82247 -0.591318 0
M  V30 16431 C 1551.61 -2.15308 2.85267 0
M  V30 16432 C 1551.44 -1.51469 4.23423 0
M  V30 16433 C 1550.21 -1.28212 4.88763 0
M  V30 16434 C 1552.41 -0.968974 5.05089 0
M  V30 16435 N 1550.39 -0.603954 6.10922 0
M  V30 16436 C 1551.76 -0.418425 6.18586 0
M  V30 16437 C 1553.82 -0.864625 4.90335 0
M  V30 16438 C 1552.52 0.22626 7.18944 0
M  V30 16439 C 1554.55 -0.233774 5.90938 0
M  V30 16440 C 1553.91 0.306041 7.03735 0
M  V30 16441 H 1550.01 -0.403756 0.669705 0
M  V30 16442 H 1552.59 -0.431615 1.89856 0
M  V30 16443 H 1550.76 -2.8359 2.65389 0
M  V30 16444 H 1552.5 -2.82173 2.90104 0
M  V30 16445 H 1549.25 -1.55499 4.47344 0
M  V30 16446 H 1549.68 -0.28114 6.76416 0
M  V30 16447 H 1554.32 -1.26778 4.03345 0
M  V30 16448 H 1552.04 0.641447 8.0555 0
M  V30 16449 H 1555.62 -0.154387 5.81595 0
M  V30 16450 H 1554.5 0.786488 7.80246 0
M  V30 16451 N 1552.01 -1.43353 -0.654814 0
M  V30 16452 C 1552.94 -1.42835 -1.7797 0
M  V30 16453 C 1553.92 -0.290004 -1.59993 0
M  V30 16454 O 1555.1 -0.483346 -1.82198 0
M  V30 16455 C 1552.23 -1.2384 -3.15248 0
M  V30 16456 C 1551.27 -2.4093 -3.5193 0
M  V30 16457 S 1552.11 -4.03479 -3.52086 0
M  V30 16458 C 1553.26 -3.86864 -4.92024 0
M  V30 16459 H 1553.5 -2.38021 -1.78138 0
M  V30 16460 H 1551.03 -1.30365 -0.827312 0
M  V30 16461 H 1552.99 -1.13568 -3.94478 0
M  V30 16462 H 1551.65 -0.302053 -3.12644 0
M  V30 16463 H 1550.84 -2.2344 -4.51764 0
M  V30 16464 H 1550.44 -2.4782 -2.80109 0
M  V30 16465 H 1552.73 -3.4909 -5.8064 0
M  V30 16466 H 1553.68 -4.86445 -5.14565 0
M  V30 16467 H 1554.09 -3.19352 -4.65483 0
M  V30 16468 N 1553.48 0.89303 -1.29857 0
M  V30 16469 C 1554.45 1.97944 -1.15546 0
M  V30 16470 C 1555.45 1.60554 -0.088989 0
M  V30 16471 O 1556.64 1.7092 -0.336464 0
M  V30 16472 C 1553.77 3.32126 -0.768442 0
M  V30 16473 H 1554.96 2.12067 -2.12055 0
M  V30 16474 H 1552.51 1.0784 -1.13138 0
M  V30 16475 H 1553.25 3.23704 0.196504 0
M  V30 16476 H 1553.03 3.60631 -1.53907 0
M  V30 16477 H 1554.52 4.11834 -0.691559 0
M  V30 16478 N 1554.96 1.12442 1.10429 0
M  V30 16479 C 1555.92 0.795443 2.14954 0
M  V30 16480 C 1556.92 -0.19022 1.59671 0
M  V30 16481 O 1558.11 0.0355797 1.74164 0
M  V30 16482 C 1555.25 0.182043 3.40414 0
M  V30 16483 H 1556.44 1.72153 2.45567 0
M  V30 16484 H 1553.99 0.927672 1.25793 0
M  V30 16485 H 1554.73 -0.753766 3.15419 0
M  V30 16486 H 1554.51 0.891708 3.81826 0
M  V30 16487 H 1556 -0.0316286 4.17588 0
M  V30 16488 N 1556.44 -1.28223 0.91633 0
M  V30 16489 C 1557.69 -1.94149 0.546705 0
M  V30 16490 C 1558 -1.72904 -0.914529 0
M  V30 16491 O 1559.21 -2.33075 -1.39243 0
M  V30 16492 C 1557.66 -3.47759 0.92691 0
M  V30 16493 C 1557.27 -3.77779 2.40805 0
M  V30 16494 C 1559.02 -4.19829 0.627994 0
M  V30 16495 C 1556.92 -5.2471 2.72825 0
M  V30 16496 H 1555.85 -0.726787 0.200739 0
M  V30 16497 H 1558.5 -1.45694 1.1156 0
M  V30 16498 H 1556.89 -3.9496 0.286779 0
M  V30 16499 H 1558.06 -3.41377 3.09513 0
M  V30 16500 H 1556.37 -3.18887 2.67769 0
M  V30 16501 H 1558.97 -5.27999 0.843862 0
M  V30 16502 H 1559.31 -4.14028 -0.434315 0
M  V30 16503 H 1559.85 -3.78413 1.22671 0
M  V30 16504 H 1556.59 -5.35591 3.77919 0
M  V30 16505 H 1556.11 -5.623 2.08756 0
M  V30 16506 H 1557.79 -5.92475 2.59965 0
M  V30 16507 N 1557.92 -0.68059 -1.42147 0
M  V30 16508 C 1559.15 -0.213529 -2.05494 0
M  V30 16509 C 1559.56 1.13665 -1.51251 0
M  V30 16510 O 1558.9 1.71838 -0.649422 0
M  V30 16511 C 1558.96 -0.0774256 -3.59417 0
M  V30 16512 C 1558.62 -1.35724 -4.3638 0
M  V30 16513 C 1559.62 -2.29195 -4.66654 0
M  V30 16514 C 1557.31 -1.60645 -4.75918 0
M  V30 16515 C 1559.3 -3.45858 -5.35407 0
M  V30 16516 C 1556.99 -2.77597 -5.44411 0
M  V30 16517 C 1557.99 -3.70027 -5.74081 0
M  V30 16518 O 1557.67 -4.84933 -6.41167 0
M  V30 16519 H 1557.41 -0.100043 -0.668556 0
M  V30 16520 H 1559.96 -0.929384 -1.83171 0
M  V30 16521 H 1558.19 0.694062 -3.8042 0
M  V30 16522 H 1559.88 0.350509 -4.04384 0
M  V30 16523 H 1560.64 -2.11194 -4.36603 0
M  V30 16524 H 1556.52 -0.8957 -4.52215 0
M  V30 16525 H 1560.07 -4.18023 -5.58483 0
M  V30 16526 H 1555.96 -2.95521 -5.73879 0
M  V30 16527 H 1556.73 -4.84552 -6.5966 0
M  V30 16528 N 1559.4 1.51781 -0.424309 0
M  V30 16529 C 1560.67 1.94514 0.205791 0
M  V30 16530 C 1561.05 1.36219 1.61269 0
M  V30 16531 O 1560.4 0.544019 2.21929 0
M  V30 16532 C 1560.61 3.48445 0.196749 0
M  V30 16533 C 1561.96 4.22628 0.408702 0
M  V30 16534 O 1562.98 3.55133 0.275441 0
M  V30 16535 O 1561.84 5.42344 0.672698 0
M  V30 16536 H 1558.94 0.815576 0.136983 0
M  V30 16537 H 1561.48 1.6273 -0.481349 0
M  V30 16538 H 1560.25 3.83297 -0.787342 0
M  V30 16539 H 1559.88 3.86634 0.92735 0
M  V30 16540 N 1560.87 0.155222 1.56834 0
M  V30 16541 C 1561.84 -0.767266 2.15976 0
M  V30 16542 C 1562.84 -1.16946 1.10364 0
M  V30 16543 O 1564.03 -1.08905 1.35961 0
M  V30 16544 C 1561.16 -2.04226 2.72956 0
M  V30 16545 H 1562.35 -0.252662 2.98834 0
M  V30 16546 H 1559.9 -0.0942677 1.56015 0
M  V30 16547 H 1560.64 -2.60033 1.93787 0
M  V30 16548 H 1560.42 -1.76299 3.5023 0
M  V30 16549 H 1561.91 -2.70093 3.18495 0
M  V30 16550 N 1562.35 -1.57153 -0.118549 0
M  V30 16551 C 1563.63 -1.75846 -0.856587 0
M  V30 16552 C 1564.01 -0.730801 -1.98047 0
M  V30 16553 O 1563.36 0.245156 -2.27181 0
M  V30 16554 C 1563.57 -3.20864 -1.37286 0
M  V30 16555 C 1564.91 -3.83378 -1.82501 0
M  V30 16556 O 1565.94 -3.24469 -1.46964 0
M  V30 16557 O 1564.8 -4.86922 -2.48132 0
M  V30 16558 H 1561.89 -0.72002 -0.406817 0
M  V30 16559 H 1564.44 -1.69392 -0.102254 0
M  V30 16560 H 1563.21 -3.87177 -0.566531 0
M  V30 16561 H 1562.83 -3.31858 -2.18988 0
M  V30 16562 N 1563.83 0.388742 -1.5273 0
M  V30 16563 C 1564.78 1.49531 -1.78166 0
M  V30 16564 C 1565.77 1.56449 -0.649613 0
M  V30 16565 O 1566.98 1.59612 -0.832097 0
M  V30 16566 H 1563.35 0.497684 -0.56375 0
M  V30 16567 H 1565.32 1.25271 -2.70831 0
M  V30 16568 C 1564.07 2.86663 -1.96774 0
M  V30 16569 H 1563.4 2.82089 -2.83312 0
M  V30 16570 H 1564.84 3.63328 -2.18561 0
M  V30 16571 C 1563.29 3.28665 -0.740345 0
M  V30 16572 O 1563.82 4.01616 0.0821005 0
M  V30 16573 N 1562.03 2.84947 -0.570383 0
M  V30 16574 H 1561.58 2.25748 -1.24078 0
M  V30 16575 H 1561.54 3.13408 0.249496 0
M  V30 16576 N 1565.31 1.43698 0.647203 0
M  V30 16577 C 1566.56 1.45346 1.40425 0
M  V30 16578 C 1566.88 0.081129 1.94831 0
M  V30 16579 O 1566.15 -0.884379 1.74801 0
M  V30 16580 H 1564.73 0.535145 0.521181 0
M  V30 16581 H 1567.39 1.79349 0.762887 0
M  V30 16582 H 1566.48 2.16954 2.2436 0
M  V30 16583 N 1566.79 -0.886131 1.30328 0
M  V30 16584 C 1568.01 -1.67625 1.22134 0
M  V30 16585 C 1568.44 -1.86893 -0.212712 0
M  V30 16586 O 1567.79 -1.39905 -1.1531 0
M  V30 16587 C 1567.84 -3.03068 1.95402 0
M  V30 16588 O 1566.95 -3.92022 1.28032 0
M  V30 16589 H 1566.29 -0.512246 0.422493 0
M  V30 16590 H 1568.82 -1.10602 1.72129 0
M  V30 16591 H 1568.83 -3.53119 2.04379 0
M  V30 16592 H 1567.5 -2.88363 2.99699 0
M  V30 16593 H 1566.08 -3.50461 1.27402 0
M  V30 16594 N 1568.26 -1.13026 -1.09832 0
M  V30 16595 C 1569.51 -0.887662 -1.81563 0
M  V30 16596 C 1569.83 0.587935 -1.85926 0
M  V30 16597 O 1569.1 1.42732 -1.3418 0
M  V30 16598 H 1567.68 -0.32541 -0.672397 0
M  V30 16599 H 1570.35 -1.42597 -1.32861 0
M  V30 16600 H 1569.44 -1.2747 -2.84882 0
M  V30 16601 N 1569.74 1.27735 -0.923117 0
M  V30 16602 C 1570.97 1.98682 -0.577317 0
M  V30 16603 C 1571.39 1.68904 0.843608 0
M  V30 16604 O 1570.74 0.947021 1.56006 0
M  V30 16605 C 1570.79 3.52804 -0.788144 0
M  V30 16606 O 1570.51 3.81537 -2.15316 0
M  V30 16607 C 1572.02 4.41006 -0.450437 0
M  V30 16608 H 1569.24 0.634186 -0.2192 0
M  V30 16609 H 1571.78 1.62702 -1.23888 0
M  V30 16610 H 1569.93 3.87012 -0.173441 0
M  V30 16611 H 1570.35 4.76142 -2.19976 0
M  V30 16612 H 1571.82 5.48175 -0.648674 0
M  V30 16613 H 1572.3 4.3489 0.613806 0
M  V30 16614 H 1572.91 4.1231 -1.04308 0
M  V30 16615 N 1571.22 0.688118 1.41784 0
M  V30 16616 C 1572.45 0.223231 2.06195 0
M  V30 16617 C 1572.87 -1.11601 1.51416 0
M  V30 16618 O 1572.23 -1.69701 0.638059 0
M  V30 16619 C 1572.28 0.183257 3.60134 0
M  V30 16620 O 1571.38 -0.844186 4.03667 0
M  V30 16621 H 1570.72 0.110925 0.654669 0
M  V30 16622 H 1573.25 0.940882 1.81683 0
M  V30 16623 H 1573.26 0.0115951 4.07998 0
M  V30 16624 H 1571.94 1.16072 3.99375 0
M  V30 16625 H 1570.51 -0.642484 3.67323 0
M  V30 16626 N 1572.7 -1.51554 0.432352 0
M  V30 16627 C 1573.61 -2.31371 -0.387885 0
M  V30 16628 C 1574.62 -1.40072 -1.03227 0
M  V30 16629 O 1575.8 -1.73145 -1.02873 0
M  V30 16630 C 1572.87 -3.13662 -1.47705 0
M  V30 16631 C 1571.93 -4.20734 -0.853315 0
M  V30 16632 C 1571.16 -4.99092 -1.89058 0
M  V30 16633 O 1571.38 -4.78022 -3.11209 0
M  V30 16634 O 1570.32 -5.83322 -1.48389 0
M  V30 16635 H 1574.14 -3.02554 0.263578 0
M  V30 16636 H 1571.73 -1.48122 0.195004 0
M  V30 16637 H 1573.61 -3.64837 -2.10884 0
M  V30 16638 H 1572.28 -2.45249 -2.11269 0
M  V30 16639 H 1571.19 -3.73649 -0.183616 0
M  V30 16640 H 1572.52 -4.91506 -0.261244 0
M  V30 16641 N 1574.18 -0.163538 -1.56749 0
M  V30 16642 C 1575.45 0.529349 -1.88301 0
M  V30 16643 C 1575.83 1.81844 -1.07219 0
M  V30 16644 O 1575.18 2.27912 -0.16381 0
M  V30 16645 C 1575.39 0.778796 -3.402 0
M  V30 16646 C 1576.74 1.11225 -4.09773 0
M  V30 16647 O 1577.76 0.867598 -3.45472 0
M  V30 16648 O 1576.62 1.57344 -5.2336 0
M  V30 16649 H 1573.72 0.271928 -0.781015 0
M  V30 16650 H 1576.26 -0.20139 -1.68501 0
M  V30 16651 H 1575.03 -0.132839 -3.91074 0
M  V30 16652 H 1574.66 1.56313 -3.65584 0
M  V30 16653 N 1575.65 1.57214 0.110213 0
M  V30 16654 C 1576.58 2.04015 1.13579 0
M  V30 16655 C 1577.57 0.926215 1.42672 0
M  V30 16656 O 1578.75 1.19651 1.52962 0
M  V30 16657 C 1575.88 2.45187 2.45969 0
M  V30 16658 C 1574.83 3.60105 2.31319 0
M  V30 16659 C 1574.16 3.87205 3.68749 0
M  V30 16660 C 1575.46 4.91526 1.76635 0
M  V30 16661 H 1577.15 2.89944 0.746496 0
M  V30 16662 H 1574.7 1.39488 0.357642 0
M  V30 16663 H 1576.65 2.76534 3.17973 0
M  V30 16664 H 1575.38 1.56238 2.86805 0
M  V30 16665 H 1574.04 3.28981 1.61762 0
M  V30 16666 H 1573.68 2.95448 4.07087 0
M  V30 16667 H 1573.38 4.64563 3.59798 0
M  V30 16668 H 1574.91 4.21013 4.42245 0
M  V30 16669 H 1576.32 5.21351 2.38465 0
M  V30 16670 H 1574.72 5.72944 1.78482 0
M  V30 16671 H 1575.79 4.79456 0.724573 0
M  V30 16672 N 1577.13 -0.380637 1.52934 0
M  V30 16673 C 1578.38 -1.12483 1.68386 0
M  V30 16674 C 1578.71 -1.89733 0.427993 0
M  V30 16675 O 1577.96 -1.86601 -0.589795 0
M  V30 16676 C 1578.26 -2.1227 2.87535 0
M  V30 16677 C 1577.93 -1.51615 4.24645 0
M  V30 16678 C 1576.59 -1.348 4.61933 0
M  V30 16679 C 1578.94 -1.07595 5.09973 0
M  V30 16680 C 1576.27 -0.725254 5.822 0
M  V30 16681 C 1578.62 -0.467273 6.30872 0
M  V30 16682 C 1577.29 -0.286488 6.66885 0
M  V30 16683 H 1576.56 -0.411606 0.616167 0
M  V30 16684 H 1579.2 -0.408435 1.87094 0
M  V30 16685 H 1577.51 -2.90159 2.63277 0
M  V30 16686 H 1579.2 -2.69777 2.96684 0
M  V30 16687 H 1575.79 -1.65693 3.95277 0
M  V30 16688 H 1579.98 -1.19385 4.81727 0
M  V30 16689 H 1575.23 -0.573461 6.08705 0
M  V30 16690 H 1579.41 -0.117914 6.963 0
M  V30 16691 H 1577.04 0.198141 7.59942 0
M  V30 16692 N 1578.61 -1.44039 -0.639573 0
M  V30 16693 C 1579.86 -1.47589 -1.39961 0
M  V30 16694 C 1580.21 -0.103692 -1.9212 0
M  V30 16695 O 1579.5 0.879803 -1.70206 0
M  V30 16696 C 1579.7 -2.46459 -2.5883 0
M  V30 16697 C 1579.53 -3.93157 -2.18306 0
M  V30 16698 C 1578.3 -4.61409 -2.05984 0
M  V30 16699 C 1580.5 -4.8261 -1.77741 0
M  V30 16700 N 1578.48 -5.9297 -1.58935 0
M  V30 16701 C 1579.85 -6.03549 -1.41875 0
M  V30 16702 C 1581.9 -4.69749 -1.65046 0
M  V30 16703 C 1580.61 -7.13054 -0.94584 0
M  V30 16704 C 1582.63 -5.79271 -1.1916 0
M  V30 16705 C 1581.99 -6.99345 -0.842389 0
M  V30 16706 H 1578.09 -0.595136 -0.507284 0
M  V30 16707 H 1580.68 -1.8031 -0.734598 0
M  V30 16708 H 1578.85 -2.15742 -3.22971 0
M  V30 16709 H 1580.58 -2.40359 -3.25592 0
M  V30 16710 H 1577.34 -4.16104 -2.26173 0
M  V30 16711 H 1577.76 -6.62841 -1.37733 0
M  V30 16712 H 1582.4 -3.77361 -1.90679 0
M  V30 16713 H 1580.12 -8.05259 -0.677011 0
M  V30 16714 H 1583.71 -5.71344 -1.09808 0
M  V30 16715 H 1582.59 -7.8265 -0.492752 0
M  V30 16716 N 1580.09 0.879207 -1.30796 0
M  V30 16717 C 1581.04 1.98553 -1.17667 0
M  V30 16718 C 1582.01 1.65974 -0.0647231 0
M  V30 16719 O 1583.19 1.89336 -0.235941 0
M  V30 16720 C 1580.33 3.3368 -0.880434 0
M  V30 16721 C 1579.44 3.78913 -2.07482 0
M  V30 16722 C 1578.58 5.02714 -1.71617 0
M  V30 16723 C 1577.62 5.40371 -2.87517 0
M  V30 16724 N 1576.75 6.55352 -2.5191 0
M  V30 16725 H 1581.59 2.09115 -2.12309 0
M  V30 16726 H 1579.13 1.02382 -1.05623 0
M  V30 16727 H 1581.09 4.11467 -0.689278 0
M  V30 16728 H 1579.72 3.22787 0.0291283 0
M  V30 16729 H 1578.77 2.96987 -2.37704 0
M  V30 16730 H 1580.08 4.02757 -2.94259 0
M  V30 16731 H 1579.24 5.88142 -1.4891 0
M  V30 16732 H 1577.98 4.80754 -0.820181 0
M  V30 16733 H 1576.98 4.53466 -3.10883 0
M  V30 16734 H 1578.21 5.64301 -3.77811 0
M  V30 16735 H 1576.15 6.34956 -1.64823 0
M  V30 16736 H 1576.07 6.79093 -3.32217 0
M  V30 16737 H 1577.34 7.43996 -2.32573 0
M  V30 16738 N 1581.57 1.13606 1.09231 0
M  V30 16739 C 1582.5 0.837908 2.17948 0
M  V30 16740 C 1583.48 -0.203575 1.68877 0
M  V30 16741 O 1584.66 -0.0620702 1.94101 0
M  V30 16742 C 1581.79 0.305342 3.45955 0
M  V30 16743 C 1580.75 1.2813 4.08371 0
M  V30 16744 C 1580.07 0.608412 5.31227 0
M  V30 16745 C 1581.37 2.64055 4.50636 0
M  V30 16746 H 1583.07 1.747 2.43147 0
M  V30 16747 H 1580.61 0.84141 1.1686 0
M  V30 16748 H 1582.57 0.0844116 4.21315 0
M  V30 16749 H 1581.29 -0.639144 3.20285 0
M  V30 16750 H 1579.95 1.48826 3.35032 0
M  V30 16751 H 1579.6 -0.341613 5.01839 0
M  V30 16752 H 1579.3 1.25956 5.73942 0
M  V30 16753 H 1580.82 0.396809 6.09309 0
M  V30 16754 H 1582.24 2.47316 5.17212 0
M  V30 16755 H 1580.63 3.25364 5.0424 0
M  V30 16756 H 1581.7 3.21566 3.62937 0
M  V30 16757 N 1583.05 -1.27244 0.929878 0
M  V30 16758 C 1584.32 -1.89369 0.489774 0
M  V30 16759 C 1584.7 -1.84142 -1.03222 0
M  V30 16760 O 1584.05 -1.2881 -1.88733 0
M  V30 16761 C 1584.26 -3.33196 1.03833 0
M  V30 16762 C 1585.61 -4.101 1.10013 0
M  V30 16763 O 1586.63 -3.42221 0.988106 0
M  V30 16764 O 1585.49 -5.31468 1.27296 0
M  V30 16765 H 1582.59 -0.811789 0.157882 0
M  V30 16766 H 1585.13 -1.35496 1.02171 0
M  V30 16767 H 1583.9 -3.31304 2.08214 0
M  V30 16768 H 1583.53 -3.94592 0.488167 0
M  V30 16769 N 1584.52 -0.695628 -1.41417 0
M  V30 16770 C 1585.49 -0.0392949 -2.29166 0
M  V30 16771 C 1586.49 0.70789 -1.4438 0
M  V30 16772 O 1587.68 0.542771 -1.65528 0
M  V30 16773 C 1584.81 0.954719 -3.27258 0
M  V30 16774 H 1586 -0.811902 -2.88701 0
M  V30 16775 H 1583.55 -0.459128 -1.49405 0
M  V30 16776 H 1584.29 1.75509 -2.72703 0
M  V30 16777 H 1584.07 0.422079 -3.89822 0
M  V30 16778 H 1585.56 1.41174 -3.93014 0
M  V30 16779 N 1586 1.51322 -0.440383 0
M  V30 16780 C 1586.93 2.30708 0.360013 0
M  V30 16781 C 1587.91 1.36254 1.01828 0
M  V30 16782 O 1589.1 1.65174 1.02134 0
M  V30 16783 C 1586.23 3.15132 1.45977 0
M  V30 16784 C 1585.18 4.17889 0.924825 0
M  V30 16785 C 1584.51 4.90853 2.12056 0
M  V30 16786 C 1585.81 5.22282 -0.0428362 0
M  V30 16787 H 1587.5 2.97868 -0.30248 0
M  V30 16788 H 1585.05 1.43249 -0.146914 0
M  V30 16789 H 1587 3.69449 2.02695 0
M  V30 16790 H 1585.72 2.45798 2.1506 0
M  V30 16791 H 1584.38 3.64627 0.379842 0
M  V30 16792 H 1584.03 4.1802 2.79765 0
M  V30 16793 H 1583.73 5.60339 1.769 0
M  V30 16794 H 1585.26 5.47995 2.69322 0
M  V30 16795 H 1586.67 5.71654 0.434137 0
M  V30 16796 H 1585.07 5.99314 -0.307126 0
M  V30 16797 H 1586.14 4.74923 -0.978557 0
M  V30 16798 N 1587.48 0.171848 1.5666 0
M  V30 16799 C 1588.41 -0.789671 2.15167 0
M  V30 16800 C 1589.42 -1.19335 1.10739 0
M  V30 16801 O 1590.61 -1.13311 1.37924 0
M  V30 16802 C 1587.71 -2.07448 2.6799 0
M  V30 16803 C 1586.89 -1.83429 3.9708 0
M  V30 16804 C 1585.95 -2.96134 4.34961 0
M  V30 16805 O 1584.97 -2.66746 5.02827 0
M  V30 16806 N 1586.17 -4.23932 3.96563 0
M  V30 16807 H 1588.94 -0.289484 2.98299 0
M  V30 16808 H 1586.5 -0.0109154 1.61896 0
M  V30 16809 H 1588.49 -2.81941 2.90329 0
M  V30 16810 H 1587.06 -2.48656 1.89444 0
M  V30 16811 H 1586.28 -0.928376 3.83112 0
M  V30 16812 H 1587.57 -1.64749 4.81389 0
M  V30 16813 H 1586.97 -4.50668 3.41928 0
M  V30 16814 H 1585.52 -4.95126 4.23903 0
M  V30 16815 N 1588.96 -1.5727 -0.101874 0
M  V30 16816 C 1590.19 -1.89943 -0.820329 0
M  V30 16817 C 1590.6 -0.764867 -1.72613 0
M  V30 16818 O 1589.96 0.263499 -1.80588 0
M  V30 16819 C 1590.01 -3.2219 -1.63939 0
M  V30 16820 O 1589.73 -4.31279 -0.770039 0
M  V30 16821 C 1591.23 -3.6868 -2.46151 0
M  V30 16822 H 1588.45 -0.628532 -0.234922 0
M  V30 16823 H 1590.99 -2.04339 -0.0811362 0
M  V30 16824 H 1589.15 -3.09411 -2.33117 0
M  V30 16825 H 1589.56 -5.07182 -1.33665 0
M  V30 16826 H 1591.04 -4.63928 -2.99124 0
M  V30 16827 H 1591.51 -2.96183 -3.24303 0
M  V30 16828 H 1592.12 -3.84303 -1.82185 0
M  V30 16829 N 1590.44 0.372521 -1.53134 0
M  V30 16830 C 1591.68 1.11589 -1.6898 0
M  V30 16831 C 1592.01 1.89503 -0.438049 0
M  V30 16832 O 1591.27 1.86911 0.579891 0
M  V30 16833 C 1591.56 2.10742 -2.88656 0
M  V30 16834 C 1591.23 1.49361 -4.25443 0
M  V30 16835 C 1589.89 1.32348 -4.62642 0
M  V30 16836 C 1592.24 1.04889 -5.10537 0
M  V30 16837 C 1589.57 0.694368 -5.82577 0
M  V30 16838 C 1591.92 0.433809 -6.31111 0
M  V30 16839 C 1590.59 0.251118 -6.67027 0
M  V30 16840 H 1589.86 0.408333 -0.618341 0
M  V30 16841 H 1592.51 0.398507 -1.87308 0
M  V30 16842 H 1590.81 2.88759 -2.64812 0
M  V30 16843 H 1592.51 2.682 -2.98111 0
M  V30 16844 H 1589.1 1.63594 -3.9615 0
M  V30 16845 H 1593.28 1.16829 -4.82353 0
M  V30 16846 H 1588.54 0.541171 -6.09 0
M  V30 16847 H 1592.71 0.0809859 -6.96353 0
M  V30 16848 H 1590.34 -0.23844 -7.59826 0
M  V30 16849 N 1591.91 1.44376 0.631925 0
M  V30 16850 C 1593.16 1.46398 1.38747 0
M  V30 16851 C 1593.48 0.100149 1.95343 0
M  V30 16852 O 1594.68 -0.00210908 2.715 0
M  V30 16853 C 1593.14 2.57731 2.51203 0
M  V30 16854 C 1592.75 4.00317 2.01123 0
M  V30 16855 C 1594.49 2.68972 3.28412 0
M  V30 16856 C 1592.4 5.03075 3.10917 0
M  V30 16857 H 1591.33 0.544667 0.521396 0
M  V30 16858 H 1593.98 1.70439 0.679912 0
M  V30 16859 H 1592.36 2.26928 3.2453 0
M  V30 16860 H 1593.53 4.40683 1.34666 0
M  V30 16861 H 1591.85 3.93311 1.36732 0
M  V30 16862 H 1594.45 3.42916 4.10259 0
M  V30 16863 H 1594.79 1.74762 3.77841 0
M  V30 16864 H 1595.32 2.9918 2.62176 0
M  V30 16865 H 1592.06 5.98911 2.66433 0
M  V30 16866 H 1591.58 4.67302 3.76017 0
M  V30 16867 H 1593.26 5.2674 3.75705 0
M  V30 16868 N 1593.39 -0.872258 1.31261 0
M  V30 16869 C 1594.81 -1.15763 1.09868 0
M  V30 16870 C 1595.01 -2.01065 -0.132331 0
M  V30 16871 O 1594.06 -2.38735 -0.822317 0
M  V30 16872 C 1595.38 -1.85199 2.36901 0
M  V30 16873 C 1596.92 -1.9791 2.42489 0
M  V30 16874 C 1597.4 -2.70759 3.69396 0
M  V30 16875 N 1598.89 -2.78296 3.70278 0
M  V30 16876 C 1599.63 -3.3527 4.65168 0
M  V30 16877 N 1599.12 -3.93193 5.70413 0
M  V30 16878 N 1600.91 -3.33206 4.52692 0
M  V30 16879 H 1593.07 -0.303784 2.10216 0
M  V30 16880 H 1595.33 -0.197172 0.927269 0
M  V30 16881 H 1595.03 -1.29968 3.26804 0
M  V30 16882 H 1594.91 -2.85493 2.46523 0
M  V30 16883 H 1597.3 -2.52305 1.53056 0
M  V30 16884 H 1597.38 -0.966644 2.36833 0
M  V30 16885 H 1597.02 -2.17031 4.59195 0
M  V30 16886 H 1596.95 -3.72407 3.72318 0
M  V30 16887 H 1599.44 -2.37185 2.94197 0
M  V30 16888 H 1599.75 -4.34771 6.38901 0
M  V30 16889 H 1598.1 -3.91575 5.7419 0
M  V30 16890 H 1601.29 -2.87191 3.69647 0
M  V30 16891 H 1601.46 -3.7731 5.26822 0
M  V30 16892 N 1594.87 -1.14184 -1.08627 0
M  V30 16893 C 1596.15 -0.81955 -1.77603 0
M  V30 16894 C 1596.53 0.687377 -1.99595 0
M  V30 16895 O 1595.87 1.62744 -1.60396 0
M  V30 16896 C 1596.08 -1.61574 -3.09346 0
M  V30 16897 C 1597.43 -1.81367 -3.83916 0
M  V30 16898 O 1598.46 -1.58241 -3.19121 0
M  V30 16899 O 1597.32 -2.20011 -5.00257 0
M  V30 16900 H 1594.41 -0.300086 -0.770635 0
M  V30 16901 H 1596.96 -1.24691 -1.15109 0
M  V30 16902 H 1595.73 -2.63946 -2.88874 0
M  V30 16903 H 1595.35 -1.18386 -3.79566 0
M  V30 16904 N 1596.35 1.26749 -0.936613 0
M  V30 16905 C 1597.28 2.2892 -0.460213 0
M  V30 16906 C 1598.26 1.63065 0.484135 0
M  V30 16907 O 1599.44 1.90305 0.386973 0
M  V30 16908 C 1596.57 3.46172 0.279648 0
M  V30 16909 C 1595.53 4.24083 -0.57771 0
M  V30 16910 C 1594.85 5.33903 0.291843 0
M  V30 16911 C 1596.15 4.88562 -1.84673 0
M  V30 16912 H 1597.85 2.69019 -1.31412 0
M  V30 16913 H 1595.39 1.29325 -0.633333 0
M  V30 16914 H 1597.35 4.16755 0.623931 0
M  V30 16915 H 1596.07 3.05014 1.16765 0
M  V30 16916 H 1594.73 3.55258 -0.904824 0
M  V30 16917 H 1594.38 4.88986 1.17906 0
M  V30 16918 H 1594.08 5.8694 -0.278372 0
M  V30 16919 H 1595.6 6.07326 0.631498 0
M  V30 16920 H 1597.02 5.51384 -1.56997 0
M  V30 16921 H 1595.41 5.51697 -2.36115 0
M  V30 16922 H 1596.48 4.11761 -2.56088 0
M  V30 16923 N 1597.83 0.703118 1.41046 0
M  V30 16924 C 1598.78 0.0192623 2.27992 0
M  V30 16925 C 1599.76 -0.745216 1.42602 0
M  V30 16926 O 1600.95 -0.619468 1.65806 0
M  V30 16927 C 1598.08 -0.910896 3.30995 0
M  V30 16928 C 1597.17 -0.142265 4.23861 0
M  V30 16929 N 1597.56 0.867928 4.98298 0
M  V30 16930 C 1595.86 -0.376651 4.44407 0
M  V30 16931 C 1596.56 1.32869 5.66322 0
M  V30 16932 N 1595.53 0.653176 5.39662 0
M  V30 16933 H 1599.34 0.793687 2.8298 0
M  V30 16934 H 1596.85 0.534609 1.53348 0
M  V30 16935 H 1598.85 -1.41603 3.92115 0
M  V30 16936 H 1597.51 -1.68483 2.77567 0
M  V30 16937 H 1598.52 1.2484 5.02628 0
M  V30 16938 H 1595.19 -1.12789 4.01976 0
M  V30 16939 H 1596.58 2.16738 6.35983 0
M  V30 16940 N 1599.3 -1.51086 0.448402 0
M  V30 16941 C 1600.55 -2.0312 -0.106726 0
M  V30 16942 C 1600.91 -1.3259 -1.39419 0
M  V30 16943 O 1600.2 -0.435501 -1.86585 0
M  V30 16944 C 1600.39 -3.55488 -0.369232 0
M  V30 16945 C 1600.22 -4.4078 0.891233 0
M  V30 16946 C 1598.99 -4.84703 1.42798 0
M  V30 16947 C 1601.19 -4.82498 1.78044 0
M  V30 16948 N 1599.17 -5.54243 2.63984 0
M  V30 16949 C 1600.54 -5.51218 2.83828 0
M  V30 16950 C 1602.6 -4.64474 1.79354 0
M  V30 16951 C 1601.3 -6.03825 3.90881 0
M  V30 16952 C 1603.33 -5.18005 2.8535 0
M  V30 16953 C 1602.69 -5.86681 3.89853 0
M  V30 16954 H 1598.79 -0.782 0.000394759 0
M  V30 16955 H 1601.37 -1.84846 0.611546 0
M  V30 16956 H 1599.54 -3.73754 -1.05654 0
M  V30 16957 H 1601.27 -3.94181 -0.916694 0
M  V30 16958 H 1598.03 -4.63343 0.980339 0
M  V30 16959 H 1598.45 -5.93634 3.25465 0
M  V30 16960 H 1603.1 -4.10832 0.998865 0
M  V30 16961 H 1600.81 -6.56517 4.7118 0
M  V30 16962 H 1604.4 -5.05905 2.87318 0
M  V30 16963 H 1603.28 -6.27358 4.70522 0
M  V30 16964 N 1600.78 -0.180154 -1.56567 0
M  V30 16965 C 1602.19 0.335054 -1.83669 0
M  V30 16966 C 1602.54 1.62443 -1.1003 0
M  V30 16967 O 1601.67 2.13448 -0.356205 0
M  V30 16968 C 1602.26 0.61468 -3.33177 0
M  V30 16969 C 1600.82 1.0743 -3.60743 0
M  V30 16970 C 1599.97 0.114877 -2.77062 0
M  V30 16971 H 1602.92 -0.404245 -1.53465 0
M  V30 16972 H 1602.94 1.46574 -3.51136 0
M  V30 16973 H 1602.45 -0.323923 -3.86746 0
M  V30 16974 H 1600.56 2.0277 -3.12594 0
M  V30 16975 H 1600.67 0.977349 -4.69025 0
M  V30 16976 H 1599.03 0.613933 -2.4719 0
M  V30 16977 H 1599.82 -0.817904 -3.33414 0
M  V30 16978 N 1602.26 1.57322 0.0935319 0
M  V30 16979 C 1603.17 2.05499 1.13169 0
M  V30 16980 C 1604.19 0.980199 1.43764 0
M  V30 16981 O 1605.36 1.29347 1.54374 0
M  V30 16982 C 1602.43 2.47111 2.43181 0
M  V30 16983 C 1601.49 3.68791 2.19754 0
M  V30 16984 C 1600.72 4.08408 3.43567 0
M  V30 16985 O 1600.94 3.48104 4.51863 0
M  V30 16986 O 1599.88 5.01351 3.33062 0
M  V30 16987 H 1603.7 2.9423 0.752491 0
M  V30 16988 H 1601.29 1.4623 0.306151 0
M  V30 16989 H 1603.17 2.74495 3.19735 0
M  V30 16990 H 1601.85 1.61518 2.80524 0
M  V30 16991 H 1600.75 3.46521 1.40976 0
M  V30 16992 H 1602.09 4.55169 1.87303 0
M  V30 16993 N 1603.74 -0.364395 1.53329 0
M  V30 16994 C 1604.65 -1.47027 1.82812 0
M  V30 16995 C 1605.66 -1.58559 0.716598 0
M  V30 16996 O 1606.84 -1.7443 1.00678 0
M  V30 16997 C 1603.91 -2.82278 2.01295 0
M  V30 16998 C 1602.97 -2.80264 3.25193 0
M  V30 16999 C 1602.2 -4.09065 3.42785 0
M  V30 17000 O 1602.42 -5.0529 2.64648 0
M  V30 17001 O 1601.36 -4.14804 4.36144 0
M  V30 17002 H 1605.18 -1.25035 2.76767 0
M  V30 17003 H 1602.77 -0.554608 1.38724 0
M  V30 17004 H 1604.65 -3.62416 2.15017 0
M  V30 17005 H 1603.32 -3.04244 1.10531 0
M  V30 17006 H 1602.23 -1.9882 3.16893 0
M  V30 17007 H 1603.56 -2.63252 4.15884 0
M  V30 17008 N 1605.22 -1.44709 -0.62426 0
M  V30 17009 C 1606.13 -1.54608 -1.76447 0
M  V30 17010 C 1607.14 -0.43137 -1.68568 0
M  V30 17011 O 1608.32 -0.6897 -1.89222 0
M  V30 17012 C 1605.38 -1.49404 -3.12857 0
M  V30 17013 C 1604.44 -2.71782 -3.32315 0
M  V30 17014 C 1603.68 -2.66817 -4.62217 0
M  V30 17015 O 1603.9 -1.73205 -5.43467 0
M  V30 17016 O 1602.83 -3.57773 -4.84027 0
M  V30 17017 H 1606.66 -2.50951 -1.71048 0
M  V30 17018 H 1604.25 -1.27033 -0.786326 0
M  V30 17019 H 1606.13 -1.4905 -3.9416 0
M  V30 17020 H 1604.8 -0.562078 -3.18783 0
M  V30 17021 H 1603.71 -2.77702 -2.50664 0
M  V30 17022 H 1605.04 -3.64048 -3.31255 0
M  V30 17023 N 1606.69 0.865285 -1.31722 0
M  V30 17024 C 1607.94 1.61868 -1.21675 0
M  V30 17025 C 1608.27 1.93206 0.223988 0
M  V30 17026 O 1607.52 1.5657 1.17407 0
M  V30 17027 C 1607.82 2.95462 -2.0109 0
M  V30 17028 C 1607.49 2.83598 -3.50547 0
M  V30 17029 C 1606.15 2.80069 -3.91299 0
M  V30 17030 C 1608.5 2.70295 -4.45635 0
M  V30 17031 C 1605.83 2.61102 -5.25398 0
M  V30 17032 C 1608.18 2.52864 -5.79864 0
M  V30 17033 C 1606.85 2.47722 -6.19831 0
M  V30 17034 H 1606.12 0.592319 -0.445241 0
M  V30 17035 H 1608.76 1.00456 -1.63036 0
M  V30 17036 H 1607.07 3.60935 -1.52424 0
M  V30 17037 H 1608.77 3.52756 -1.90693 0
M  V30 17038 H 1605.36 2.87164 -3.18175 0
M  V30 17039 H 1609.54 2.72073 -4.15078 0
M  V30 17040 H 1604.8 2.55549 -5.55432 0
M  V30 17041 H 1608.97 2.41548 -6.53167 0
M  V30 17042 H 1606.6 2.32784 -7.23682 0
M  V30 17043 N 1608.17 1.14759 1.0802 0
M  V30 17044 C 1609.42 0.916435 1.80127 0
M  V30 17045 C 1609.74 -0.558281 1.86837 0
M  V30 17046 O 1609.01 -1.40579 1.36434 0
M  V30 17047 H 1607.59 0.336066 0.667135 0
M  V30 17048 H 1610.25 1.44693 1.30576 0
M  V30 17049 H 1609.35 1.31986 2.82818 0
M  V30 17050 N 1609.65 -1.26251 0.943322 0
M  V30 17051 C 1610.6 -2.26304 0.453315 0
M  V30 17052 C 1611.57 -1.58764 -0.488168 0
M  V30 17053 O 1612.75 -1.86476 -0.403906 0
M  V30 17054 C 1609.89 -3.44015 -0.273393 0
M  V30 17055 C 1609.01 -4.26225 0.70401 0
M  V30 17056 C 1608.14 -5.31182 -0.0441134 0
M  V30 17057 C 1607.18 -6.05071 0.924971 0
M  V30 17058 N 1606.32 -7.0179 0.208461 0
M  V30 17059 H 1611.16 -2.67591 1.31146 0
M  V30 17060 H 1608.69 -1.31567 0.657914 0
M  V30 17061 H 1610.65 -4.11094 -0.711192 0
M  V30 17062 H 1609.28 -3.03636 -1.09566 0
M  V30 17063 H 1608.33 -3.58915 1.26032 0
M  V30 17064 H 1609.65 -4.77442 1.44398 0
M  V30 17065 H 1608.8 -6.04282 -0.541091 0
M  V30 17066 H 1607.54 -4.80809 -0.816952 0
M  V30 17067 H 1606.54 -5.30795 1.43305 0
M  V30 17068 H 1607.77 -6.57533 1.69785 0
M  V30 17069 H 1605.71 -6.53725 -0.545846 0
M  V30 17070 H 1605.63 -7.5077 0.887725 0
M  V30 17071 H 1606.9 -7.79041 -0.267352 0
M  V30 17072 N 1611.13 -0.710588 -1.40671 0
M  V30 17073 C 1612.08 -0.031353 -2.27978 0
M  V30 17074 C 1613.06 0.737643 -1.42995 0
M  V30 17075 O 1614.26 0.610666 -1.66132 0
M  V30 17076 C 1611.38 0.893329 -3.31473 0
M  V30 17077 C 1610.47 0.119785 -4.23931 0
M  V30 17078 N 1610.86 -0.894341 -4.9783 0
M  V30 17079 C 1609.16 0.353077 -4.446 0
M  V30 17080 C 1609.86 -1.3587 -5.6561 0
M  V30 17081 N 1608.84 -0.681786 -5.39308 0
M  V30 17082 H 1612.64 -0.808683 -2.82555 0
M  V30 17083 H 1610.15 -0.542734 -1.53063 0
M  V30 17084 H 1612.15 1.39521 -3.92861 0
M  V30 17085 H 1610.81 1.67009 -2.78457 0
M  V30 17086 H 1611.82 -1.27504 -5.01959 0
M  V30 17087 H 1608.5 1.10655 -4.02569 0
M  V30 17088 H 1609.89 -2.20108 -6.34825 0
M  V30 17089 N 1612.61 1.50847 -0.456408 0
M  V30 17090 C 1613.54 2.31077 0.335523 0
M  V30 17091 C 1614.52 1.37326 1.00377 0
M  V30 17092 O 1615.7 1.66247 1.00376 0
M  V30 17093 C 1612.83 3.16662 1.42627 0
M  V30 17094 C 1611.79 4.18846 0.88045 0
M  V30 17095 C 1611.11 4.93074 2.06838 0
M  V30 17096 C 1612.41 5.22208 -0.0982288 0
M  V30 17097 H 1614.11 2.97531 -0.334056 0
M  V30 17098 H 1611.65 1.43085 -0.162099 0
M  V30 17099 H 1613.61 3.71578 1.98765 0
M  V30 17100 H 1612.33 2.48066 2.12441 0
M  V30 17101 H 1610.99 3.65009 0.341147 0
M  V30 17102 H 1610.64 4.20963 2.75316 0
M  V30 17103 H 1610.34 5.62184 1.70947 0
M  V30 17104 H 1611.86 5.5082 2.63494 0
M  V30 17105 H 1613.28 5.72082 0.373481 0
M  V30 17106 H 1611.67 5.98954 -0.370674 0
M  V30 17107 H 1612.74 4.73859 -1.02887 0
M  V30 17108 N 1614.09 0.188454 1.56469 0
M  V30 17109 C 1615 -0.747176 2.22384 0
M  V30 17110 C 1616.01 -1.23985 1.22081 0
M  V30 17111 O 1617.19 -1.2884 1.54797 0
M  V30 17112 C 1614.25 -1.95228 2.86508 0
M  V30 17113 C 1613.31 -1.50482 4.02062 0
M  V30 17114 C 1612.55 -2.65248 4.63119 0
M  V30 17115 O 1612.77 -3.8256 4.23088 0
M  V30 17116 O 1611.7 -2.38341 5.527 0
M  V30 17117 H 1615.53 -0.215857 3.02932 0
M  V30 17118 H 1613.11 -0.0405356 1.49345 0
M  V30 17119 H 1615 -2.65673 3.27103 0
M  V30 17120 H 1613.67 -2.47233 2.08944 0
M  V30 17121 H 1612.58 -0.769365 3.66103 0
M  V30 17122 H 1613.91 -1.03151 4.8127 0
M  V30 17123 N 1615.56 -1.5737 -0.0851874 0
M  V30 17124 C 1616.5 -1.99462 -1.12905 0
M  V30 17125 C 1617.51 -0.898597 -1.35754 0
M  V30 17126 O 1618.7 -1.17662 -1.34231 0
M  V30 17127 C 1615.8 -2.30689 -2.48266 0
M  V30 17128 C 1614.97 -3.61967 -2.45557 0
M  V30 17129 C 1614.03 -3.81017 -3.62922 0
M  V30 17130 O 1613.06 -4.52759 -3.44961 0
M  V30 17131 N 1614.26 -3.22348 -4.82775 0
M  V30 17132 H 1617.02 -2.89621 -0.7707 0
M  V30 17133 H 1614.58 -1.59564 -0.274033 0
M  V30 17134 H 1616.58 -2.40618 -3.254 0
M  V30 17135 H 1615.15 -1.46488 -2.76152 0
M  V30 17136 H 1614.37 -3.62916 -1.539 0
M  V30 17137 H 1615.65 -4.48191 -2.40836 0
M  V30 17138 H 1615.05 -2.64093 -5.00271 0
M  V30 17139 H 1613.61 -3.37747 -5.57468 0
M  V30 17140 N 1617.04 0.356258 -1.53521 0
M  V30 17141 C 1618.46 0.698546 -1.43501 0
M  V30 17142 C 1618.66 1.92926 -0.581547 0
M  V30 17143 O 1617.71 2.5241 -0.0675947 0
M  V30 17144 C 1619.03 0.903047 -2.8682 0
M  V30 17145 C 1620.57 1.00247 -2.96512 0
M  V30 17146 C 1621.05 1.23938 -4.40912 0
M  V30 17147 N 1622.54 1.30687 -4.44382 0
M  V30 17148 C 1623.28 1.50745 -5.5323 0
M  V30 17149 N 1622.77 1.68058 -6.72107 0
M  V30 17150 N 1624.56 1.5319 -5.40823 0
M  V30 17151 H 1616.72 -0.453102 -2.07511 0
M  V30 17152 H 1618.98 -0.140708 -0.937499 0
M  V30 17153 H 1618.68 0.070416 -3.5163 0
M  V30 17154 H 1618.56 1.80847 -3.3102 0
M  V30 17155 H 1620.95 1.82564 -2.3185 0
M  V30 17156 H 1621.03 0.0742303 -2.55692 0
M  V30 17157 H 1620.67 0.421189 -5.06151 0
M  V30 17158 H 1620.6 2.18098 -4.79313 0
M  V30 17159 H 1623.09 1.18883 -3.58713 0
M  V30 17160 H 1623.4 1.82963 -7.50829 0
M  V30 17161 H 1621.75 1.65219 -6.75076 0
M  V30 17162 H 1624.94 1.39237 -4.46912 0
M  V30 17163 H 1625.11 1.6848 -6.25714 0
M  V30 17164 N 1618.52 1.45038 0.616577 0
M  V30 17165 C 1619.45 1.55858 1.73869 0
M  V30 17166 C 1620.43 0.410657 1.65069 0
M  V30 17167 O 1621.62 0.632652 1.83606 0
M  V30 17168 C 1618.75 1.51635 3.12448 0
M  V30 17169 C 1617.7 2.65053 3.36052 0
M  V30 17170 C 1617.03 2.45883 4.74811 0
M  V30 17171 C 1618.33 4.07121 3.27185 0
M  V30 17172 H 1620.02 2.49784 1.6507 0
M  V30 17173 H 1617.57 1.20216 0.792724 0
M  V30 17174 H 1619.52 1.57803 3.90738 0
M  V30 17175 H 1618.24 0.542342 3.22066 0
M  V30 17176 H 1616.9 2.58299 2.60149 0
M  V30 17177 H 1616.55 1.46641 4.8115 0
M  V30 17178 H 1616.25 3.21935 4.9156 0
M  V30 17179 H 1617.77 2.53892 5.55312 0
M  V30 17180 H 1619.19 4.15167 3.9536 0
M  V30 17181 H 1617.58 4.83491 3.55466 0
M  V30 17182 H 1618.65 4.29663 2.24762 0
M  V30 17183 N 1620 -0.858287 1.32179 0
M  V30 17184 C 1620.94 -1.96656 1.20811 0
M  V30 17185 C 1621.91 -1.6585 0.0911199 0
M  V30 17186 O 1623.1 -1.88936 0.266033 0
M  V30 17187 C 1620.24 -3.32237 0.933408 0
M  V30 17188 C 1619.35 -3.75564 2.13484 0
M  V30 17189 C 1618.49 -4.9992 1.79593 0
M  V30 17190 C 1617.53 -5.35728 2.96077 0
M  V30 17191 N 1616.66 -6.51261 2.62304 0
M  V30 17192 H 1621.5 -2.05711 2.15609 0
M  V30 17193 H 1619.04 -1.00689 1.07239 0
M  V30 17194 H 1621 -4.10318 0.754651 0
M  V30 17195 H 1619.63 -3.22792 0.0222279 0
M  V30 17196 H 1618.68 -2.93167 2.42399 0
M  V30 17197 H 1619.99 -3.98025 3.00629 0
M  V30 17198 H 1619.15 -5.85698 1.58248 0
M  V30 17199 H 1617.89 -4.79388 0.896561 0
M  V30 17200 H 1616.89 -4.48463 3.18058 0
M  V30 17201 H 1618.12 -5.58219 3.86741 0
M  V30 17202 H 1616.06 -6.32254 1.74904 0
M  V30 17203 H 1615.98 -6.73722 3.42979 0
M  V30 17204 H 1617.25 -7.40202 2.4438 0
M  V30 17205 N 1621.48 -1.1533 -1.07409 0
M  V30 17206 C 1622.41 -0.872476 -2.16587 0
M  V30 17207 C 1623.39 0.176683 -1.6918 0
M  V30 17208 O 1624.57 0.0311826 -1.94175 0
M  V30 17209 C 1621.7 -0.360342 -3.45426 0
M  V30 17210 C 1620.66 -1.34611 -4.06281 0
M  V30 17211 C 1619.98 -0.692848 -5.30192 0
M  V30 17212 C 1621.28 -2.71191 -4.46378 0
M  V30 17213 H 1622.98 -1.78546 -2.40336 0
M  V30 17214 H 1620.52 -0.859895 -1.15507 0
M  V30 17215 H 1622.47 -0.151429 -4.21128 0
M  V30 17216 H 1621.2 0.588109 -3.21261 0
M  V30 17217 H 1619.86 -1.54137 -3.32622 0
M  V30 17218 H 1619.51 0.261732 -5.02319 0
M  V30 17219 H 1619.21 -1.35071 -5.71865 0
M  V30 17220 H 1620.73 -0.493695 -6.08601 0
M  V30 17221 H 1622.14 -2.55513 -5.13212 0
M  V30 17222 H 1620.54 -3.33345 -4.99 0
M  V30 17223 H 1621.61 -3.273 -3.57775 0
M  V30 17224 N 1622.95 1.25748 -0.950004 0
M  V30 17225 C 1623.89 2.24472 -0.410787 0
M  V30 17226 C 1624.86 1.54549 0.505309 0
M  V30 17227 O 1626.05 1.83275 0.440744 0
M  V30 17228 C 1623.18 3.36224 0.408832 0
M  V30 17229 C 1622.22 4.24151 -0.446997 0
M  V30 17230 S 1623.05 5.01549 -1.87639 0
M  V30 17231 C 1624.21 6.16771 -1.06507 0
M  V30 17232 H 1624.44 2.69863 -1.24745 0
M  V30 17233 H 1621.98 1.34752 -0.753744 0
M  V30 17234 H 1623.93 4.01049 0.875796 0
M  V30 17235 H 1622.6 2.89427 1.22027 0
M  V30 17236 H 1621.79 5.03673 0.181407 0
M  V30 17237 H 1621.39 3.64236 -0.848989 0
M  V30 17238 H 1623.68 6.76783 -0.311531 0
M  V30 17239 H 1624.63 6.83936 -1.83406 0
M  V30 17240 H 1625.03 5.61332 -0.597243 0
M  V30 17241 N 1624.43 0.718038 1.40292 0
M  V30 17242 C 1625.39 0.0757483 2.29075 0
M  V30 17243 C 1626.39 -0.684831 1.45488 0
M  V30 17244 O 1627.58 -0.516369 1.66371 0
M  V30 17245 C 1624.72 -0.902534 3.28736 0
M  V30 17246 H 1625.91 0.857729 2.87373 0
M  V30 17247 H 1623.46 0.482839 1.48655 0
M  V30 17248 H 1624.2 -1.71148 2.75461 0
M  V30 17249 H 1623.98 -0.360009 3.90444 0
M  V30 17250 H 1625.47 -1.34903 3.9521 0
M  V30 17251 N 1625.91 -1.50602 0.464402 0
M  V30 17252 C 1627.14 -2.07191 -0.0930678 0
M  V30 17253 C 1627.56 -1.32675 -1.33338 0
M  V30 17254 O 1626.92 -0.372453 -1.77433 0
M  V30 17255 C 1626.97 -3.5873 -0.366775 0
M  V30 17256 O 1626.07 -3.86125 -1.44849 0
M  V30 17257 H 1625.41 -0.663924 0.0100336 0
M  V30 17258 H 1627.94 -1.93882 0.653522 0
M  V30 17259 H 1627.95 -4.03425 -0.609258 0
M  V30 17260 H 1626.63 -4.12385 0.539608 0
M  V30 17261 H 1625.2 -3.53273 -1.19384 0
M  V30 17262 N 1627.39 -0.19675 -1.56367 0
M  V30 17263 C 1628.67 0.489288 -1.89381 0
M  V30 17264 C 1629.05 1.79529 -1.11052 0
M  V30 17265 O 1628.39 2.27513 -0.212117 0
M  V30 17266 C 1628.6 0.706459 -3.41775 0
M  V30 17267 C 1629.95 1.02508 -4.1204 0
M  V30 17268 O 1630.98 0.794123 -3.47235 0
M  V30 17269 O 1629.83 1.46207 -5.26579 0
M  V30 17270 H 1626.93 0.2553 -0.786607 0
M  V30 17271 H 1629.47 -0.237086 -1.68036 0
M  V30 17272 H 1628.25 -0.215762 -3.90705 0
M  V30 17273 H 1627.87 1.48523 -3.68818 0
M  V30 17274 N 1628.87 1.57413 0.0768405 0
M  V30 17275 C 1629.8 1.98626 1.12352 0
M  V30 17276 C 1630.78 0.862359 1.37848 0
M  V30 17277 O 1631.96 1.12423 1.51305 0
M  V30 17278 C 1629.09 2.31866 2.46893 0
M  V30 17279 C 1628.13 3.54212 2.37563 0
M  V30 17280 S 1628.97 5.05241 1.77459 0
M  V30 17281 C 1630.12 5.41677 3.13588 0
M  V30 17282 H 1630.36 2.87094 0.772273 0
M  V30 17283 H 1627.89 1.51743 0.285191 0
M  V30 17284 H 1629.85 2.51691 3.24287 0
M  V30 17285 H 1628.51 1.43935 2.7918 0
M  V30 17286 H 1627.7 3.7497 3.36769 0
M  V30 17287 H 1627.3 3.33991 1.68304 0
M  V30 17288 H 1629.6 5.39439 4.09893 0
M  V30 17289 H 1630.54 6.42519 2.97614 0
M  V30 17290 H 1630.95 4.69136 3.13961 0
M  V30 17291 N 1630.34 -0.348112 1.53707 0
M  V30 17292 C 1631.59 -1.08626 1.69951 0
M  V30 17293 C 1631.91 -1.89944 0.466992 0
M  V30 17294 O 1633.11 -2.66661 0.51029 0
M  V30 17295 C 1631.57 -1.98052 3.00505 0
M  V30 17296 C 1631.18 -1.21963 4.31079 0
M  V30 17297 C 1632.92 -2.71752 3.26115 0
M  V30 17298 C 1630.83 -2.10392 5.52711 0
M  V30 17299 H 1629.76 -0.409241 0.633275 0
M  V30 17300 H 1632.41 -0.346051 1.80207 0
M  V30 17301 H 1630.79 -2.75874 2.84094 0
M  V30 17302 H 1631.96 -0.490831 4.58178 0
M  V30 17303 H 1630.28 -0.600511 4.12047 0
M  V30 17304 H 1632.88 -3.38174 4.14177 0
M  V30 17305 H 1633.22 -3.38072 2.42926 0
M  V30 17306 H 1633.75 -2.01005 3.43281 0
M  V30 17307 H 1630.49 -1.48622 6.38429 0
M  V30 17308 H 1630.01 -2.81074 5.29866 0
M  V30 17309 H 1631.69 -2.69551 5.88176 0
M  V30 17310 N 1631.82 -1.45363 -0.608876 0
M  V30 17311 C 1632.73 -1.56471 -1.74797 0
M  V30 17312 C 1633.75 -0.449225 -1.68101 0
M  V30 17313 O 1634.92 -0.709731 -1.8848 0
M  V30 17314 C 1631.99 -1.52714 -3.11254 0
M  V30 17315 C 1631.05 -2.75291 -3.29414 0
M  V30 17316 C 1630.28 -2.71704 -4.59361 0
M  V30 17317 O 1630.51 -1.78959 -5.41599 0
M  V30 17318 O 1629.44 -3.62886 -4.80205 0
M  V30 17319 H 1633.27 -2.52751 -1.68377 0
M  V30 17320 H 1630.85 -1.27859 -0.772808 0
M  V30 17321 H 1632.73 -1.53222 -3.92557 0
M  V30 17322 H 1631.41 -0.595858 -3.18169 0
M  V30 17323 H 1630.32 -2.80345 -2.47704 0
M  V30 17324 H 1631.65 -3.67541 -3.27375 0
M  V30 17325 N 1633.3 0.851265 -1.32632 0
M  V30 17326 C 1634.53 1.64328 -1.26535 0
M  V30 17327 C 1634.95 1.87392 0.163086 0
M  V30 17328 O 1634.31 1.42913 1.1156 0
M  V30 17329 C 1634.36 2.97781 -2.03369 0
M  V30 17330 O 1633.46 3.8849 -1.38381 0
M  V30 17331 H 1632.8 0.500864 -0.435926 0
M  V30 17332 H 1635.33 1.06 -1.75001 0
M  V30 17333 H 1635.34 3.47576 -2.1367 0
M  V30 17334 H 1634.02 2.80316 -3.07239 0
M  V30 17335 H 1632.59 3.4696 -1.36649 0
M  V30 17336 N 1634.78 1.15898 1.06796 0
M  V30 17337 C 1636.02 0.947946 1.81089 0
M  V30 17338 C 1636.38 -0.51537 1.84954 0
M  V30 17339 O 1637.58 -0.844928 2.55175 0
M  V30 17340 C 1635.85 1.55214 3.21937 0
M  V30 17341 S 1637.41 1.48502 4.12907 0
M  V30 17342 H 1634.23 0.341025 0.623877 0
M  V30 17343 H 1636.83 1.4755 1.28254 0
M  V30 17344 H 1635.54 2.60996 3.16716 0
M  V30 17345 H 1635.07 1.02369 3.79848 0
M  V30 17346 H 1637.08 0.481773 4.93856 0
M  V30 17347 N 1636.26 -1.25243 0.956659 0
M  V30 17348 C 1637.5 -1.93299 0.613446 0
M  V30 17349 C 1637.84 -1.74723 -0.847671 0
M  V30 17350 O 1637.11 -1.09357 -1.60846 0
M  V30 17351 C 1637.39 -3.46637 0.975421 0
M  V30 17352 C 1637.25 -3.74431 2.49242 0
M  V30 17353 C 1638.57 -4.37228 0.501948 0
M  V30 17354 H 1635.68 -0.702027 0.224338 0
M  V30 17355 H 1638.33 -1.47822 1.19368 0
M  V30 17356 H 1636.48 -3.85503 0.48167 0
M  V30 17357 H 1638.15 -3.4519 3.06009 0
M  V30 17358 H 1636.39 -3.19967 2.92923 0
M  V30 17359 H 1637.06 -4.81674 2.69619 0
M  V30 17360 H 1639.54 -4.05677 0.925514 0
M  V30 17361 H 1638.41 -5.43274 0.783895 0
M  V30 17362 H 1638.68 -4.38036 -0.598082 0
M  V30 17363 N 1637.73 -0.725468 -1.3991 0
M  V30 17364 C 1638.68 -0.0792833 -2.30664 0
M  V30 17365 C 1639.65 0.73984 -1.48713 0
M  V30 17366 O 1640.84 0.701762 -1.77426 0
M  V30 17367 C 1637.98 0.829164 -3.34991 0
M  V30 17368 C 1637.09 -0.00154779 -4.32 0
M  V30 17369 C 1636.22 0.907291 -5.23394 0
M  V30 17370 C 1635.26 0.0712573 -6.12059 0
M  V30 17371 N 1634.4 0.935508 -6.9584 0
M  V30 17372 H 1639.24 -0.858869 -2.85355 0
M  V30 17373 H 1636.78 -0.435214 -1.40514 0
M  V30 17374 H 1638.74 1.37021 -3.94057 0
M  V30 17375 H 1637.37 1.57483 -2.81778 0
M  V30 17376 H 1636.42 -0.659903 -3.74632 0
M  V30 17377 H 1637.73 -0.648387 -4.94568 0
M  V30 17378 H 1636.88 1.51652 -5.87441 0
M  V30 17379 H 1635.62 1.58793 -4.61125 0
M  V30 17380 H 1634.63 -0.550844 -5.47034 0
M  V30 17381 H 1635.85 -0.606025 -6.76391 0
M  V30 17382 H 1633.8 1.60162 -6.36148 0
M  V30 17383 H 1633.72 0.344932 -7.55213 0
M  V30 17384 H 1634.98 1.53061 -7.64325 0
M  V30 17385 N 1639.21 1.50354 -0.472382 0
M  V30 17386 C 1640.63 1.59097 -0.126613 0
M  V30 17387 C 1640.83 1.4804 1.36698 0
M  V30 17388 O 1639.88 1.33956 2.14038 0
M  V30 17389 C 1641.2 2.92958 -0.677957 0
M  V30 17390 C 1642.75 3.06356 -0.6415 0
M  V30 17391 C 1643.22 4.42793 -1.17041 0
M  V30 17392 N 1644.71 4.49208 -1.12988 0
M  V30 17393 C 1645.45 5.53171 -1.50961 0
M  V30 17394 N 1644.94 6.64381 -1.96391 0
M  V30 17395 N 1646.74 5.43722 -1.42556 0
M  V30 17396 H 1638.89 1.55785 -1.44378 0
M  V30 17397 H 1641.15 0.736295 -0.597138 0
M  V30 17398 H 1640.86 3.06529 -1.72433 0
M  V30 17399 H 1640.73 3.77002 -0.122247 0
M  V30 17400 H 1643.12 2.92431 0.395964 0
M  V30 17401 H 1643.2 2.24066 -1.23403 0
M  V30 17402 H 1642.84 4.57466 -2.20651 0
M  V30 17403 H 1642.77 5.23677 -0.554086 0
M  V30 17404 H 1645.26 3.69407 -0.796692 0
M  V30 17405 H 1645.58 7.39772 -2.23511 0
M  V30 17406 H 1643.92 6.65498 -2.00344 0
M  V30 17407 H 1647.11 4.55729 -1.06905 0
M  V30 17408 H 1647.28 6.24625 -1.72476 0
M  V30 17409 N 1640.69 0.205039 1.56261 0
M  V30 17410 C 1641.92 -0.43642 2.02245 0
M  V30 17411 C 1642.33 -1.54504 1.08508 0
M  V30 17412 O 1641.69 -1.82269 0.0916991 0
M  V30 17413 C 1641.74 -0.983483 3.47865 0
M  V30 17414 O 1641.46 0.0809166 4.38025 0
M  V30 17415 C 1642.96 -1.69983 4.09415 0
M  V30 17416 H 1640.18 -0.108577 0.662157 0
M  V30 17417 H 1642.73 0.316659 2.02033 0
M  V30 17418 H 1640.88 -1.6869 3.48744 0
M  V30 17419 H 1641.3 -0.327751 5.23475 0
M  V30 17420 H 1642.77 -2.03481 5.13127 0
M  V30 17421 H 1643.25 -2.60711 3.5345 0
M  V30 17422 H 1643.85 -1.04202 4.12337 0
M  V30 17423 N 1642.17 -1.57451 -0.0684915 0
M  V30 17424 C 1643.59 -1.53883 -0.423354 0
M  V30 17425 C 1643.79 -0.925698 -1.78978 0
M  V30 17426 O 1642.84 -0.529629 -2.46883 0
M  V30 17427 C 1644.15 -2.98521 -0.361386 0
M  V30 17428 C 1645.7 -3.09873 -0.441334 0
M  V30 17429 C 1646.18 -4.56168 -0.409239 0
M  V30 17430 N 1647.67 -4.60817 -0.469216 0
M  V30 17431 C 1648.4 -5.71498 -0.466648 0
M  V30 17432 N 1647.9 -6.91534 -0.4187 0
M  V30 17433 N 1649.69 -5.5975 -0.513452 0
M  V30 17434 H 1641.84 -1.95672 0.8262 0
M  V30 17435 H 1644.11 -0.895759 0.310354 0
M  V30 17436 H 1643.81 -3.46951 0.576035 0
M  V30 17437 H 1643.69 -3.58585 -1.17032 0
M  V30 17438 H 1646.07 -2.61414 -1.36918 0
M  V30 17439 H 1646.15 -2.52712 0.396237 0
M  V30 17440 H 1645.8 -5.05285 0.514772 0
M  V30 17441 H 1645.73 -5.11195 -1.26439 0
M  V30 17442 H 1648.22 -3.74438 -0.510387 0
M  V30 17443 H 1648.53 -7.71654 -0.420757 0
M  V30 17444 H 1646.88 -6.93931 -0.385338 0
M  V30 17445 H 1650.07 -4.64874 -0.548626 0
M  V30 17446 H 1650.24 -6.46006 -0.507982 0
M  V30 17447 N 1643.65 0.339955 -1.5389 0
M  V30 17448 C 1644.9 1.07723 -1.70524 0
M  V30 17449 C 1645.21 1.89693 -0.477058 0
M  V30 17450 O 1646.42 2.66387 -0.524424 0
M  V30 17451 C 1644.87 1.96455 -3.01551 0
M  V30 17452 C 1644.48 1.19675 -4.3172 0
M  V30 17453 C 1646.22 2.70019 -3.27552 0
M  V30 17454 C 1644.13 2.07458 -5.53819 0
M  V30 17455 H 1643.06 0.405877 -0.635437 0
M  V30 17456 H 1645.71 0.336489 -1.80388 0
M  V30 17457 H 1644.09 2.74364 -2.85553 0
M  V30 17458 H 1645.27 0.466526 -4.58432 0
M  V30 17459 H 1643.58 0.578651 -4.1236 0
M  V30 17460 H 1646.18 3.35973 -4.15964 0
M  V30 17461 H 1646.52 3.36779 -2.44716 0
M  V30 17462 H 1647.06 1.99182 -3.44342 0
M  V30 17463 H 1643.79 1.45234 -6.39208 0
M  V30 17464 H 1643.31 2.7826 -5.31349 0
M  V30 17465 H 1644.99 2.66428 -5.89598 0
M  V30 17466 N 1645.13 1.45684 0.601159 0
M  V30 17467 C 1646.09 1.54451 1.69344 0
M  V30 17468 C 1647.09 0.423379 1.55126 0
M  V30 17469 O 1648.28 0.687079 1.60078 0
M  V30 17470 C 1645.41 1.4472 3.08657 0
M  V30 17471 H 1646.6 2.51778 1.62935 0
M  V30 17472 H 1644.16 1.3322 0.81744 0
M  V30 17473 H 1644.89 0.486027 3.20637 0
M  V30 17474 H 1644.68 2.26045 3.20384 0
M  V30 17475 H 1646.17 1.53902 3.88206 0
M  V30 17476 N 1646.6 -0.84422 1.33082 0
M  V30 17477 C 1647.85 -1.59912 1.24235 0
M  V30 17478 C 1648.18 -1.93538 -0.193223 0
M  V30 17479 O 1647.43 -1.58418 -1.14901 0
M  V30 17480 C 1647.73 -2.92225 2.05765 0
M  V30 17481 C 1647.4 -2.77985 3.55014 0
M  V30 17482 C 1646.06 -2.73809 3.95705 0
M  V30 17483 C 1648.41 -2.63171 4.49878 0
M  V30 17484 C 1645.74 -2.5271 5.29485 0
M  V30 17485 C 1648.09 -2.43607 5.83814 0
M  V30 17486 C 1646.76 -2.37829 6.23693 0
M  V30 17487 H 1646.03 -0.58516 0.454608 0
M  V30 17488 H 1648.67 -0.978493 1.64614 0
M  V30 17489 H 1646.98 -3.58465 1.58146 0
M  V30 17490 H 1648.68 -3.49678 1.96281 0
M  V30 17491 H 1645.27 -2.82065 3.22703 0
M  V30 17492 H 1649.45 -2.65435 4.19354 0
M  V30 17493 H 1644.71 -2.4668 5.59427 0
M  V30 17494 H 1648.88 -2.31126 6.56927 0
M  V30 17495 H 1646.51 -2.21241 7.27294 0
M  V30 17496 N 1648.08 -1.16463 -1.0618 0
M  V30 17497 C 1648.99 -0.886601 -2.17202 0
M  V30 17498 C 1650.01 0.141568 -1.73423 0
M  V30 17499 O 1651.18 -0.0353417 -2.01369 0
M  V30 17500 C 1648.25 -0.392829 -3.44467 0
M  V30 17501 C 1647.31 -1.48636 -4.02748 0
M  V30 17502 C 1646.54 -1.01606 -5.23939 0
M  V30 17503 O 1646.77 0.133753 -5.70243 0
M  V30 17504 O 1645.7 -1.80487 -5.74202 0
M  V30 17505 H 1649.53 -1.81502 -2.43497 0
M  V30 17506 H 1647.11 -0.944691 -1.15741 0
M  V30 17507 H 1648.99 -0.124501 -4.21216 0
M  V30 17508 H 1647.67 0.507566 -3.19696 0
M  V30 17509 H 1646.57 -1.80845 -3.27484 0
M  V30 17510 H 1647.91 -2.3621 -4.31817 0
M  V30 17511 N 1649.56 1.24734 -0.963288 0
M  V30 17512 C 1650.81 1.92971 -0.623688 0
M  V30 17513 C 1651.14 1.7517 0.838393 0
M  V30 17514 O 1650.41 1.10208 1.60264 0
M  V30 17515 C 1650.7 3.46115 -0.99379 0
M  V30 17516 C 1650.55 3.73104 -2.51224 0
M  V30 17517 C 1651.87 4.36956 -0.525128 0
M  V30 17518 H 1648.99 0.700827 -0.228058 0
M  V30 17519 H 1651.63 1.47187 -1.2015 0
M  V30 17520 H 1649.78 3.85242 -0.502108 0
M  V30 17521 H 1651.45 3.43563 -3.07835 0
M  V30 17522 H 1649.69 3.18409 -2.94616 0
M  V30 17523 H 1650.37 4.80237 -2.7217 0
M  V30 17524 H 1652.84 4.0518 -0.947015 0
M  V30 17525 H 1651.72 5.4285 -0.812695 0
M  V30 17526 H 1651.98 4.38347 0.574843 0
M  V30 17527 N 1651.04 0.732878 1.39523 0
M  V30 17528 C 1651.98 0.0915149 2.30618 0
M  V30 17529 C 1652.95 -0.731943 1.49103 0
M  V30 17530 O 1654.14 -0.692343 1.77796 0
M  V30 17531 C 1651.28 -0.811387 3.35426 0
M  V30 17532 C 1650.39 0.0244578 4.31993 0
M  V30 17533 C 1649.53 -0.879521 5.23868 0
M  V30 17534 C 1648.57 -0.0387974 6.12088 0
M  V30 17535 N 1647.7 -0.898593 6.96326 0
M  V30 17536 H 1652.54 0.87399 2.84895 0
M  V30 17537 H 1650.08 0.442659 1.40282 0
M  V30 17538 H 1652.04 -1.3493 3.94778 0
M  V30 17539 H 1650.67 -1.55986 2.8261 0
M  V30 17540 H 1649.72 0.679762 3.74277 0
M  V30 17541 H 1651.03 0.674606 4.94217 0
M  V30 17542 H 1650.19 -1.48535 5.88237 0
M  V30 17543 H 1648.93 -1.56345 4.6196 0
M  V30 17544 H 1647.93 0.579847 5.46734 0
M  V30 17545 H 1649.16 0.641887 6.7606 0
M  V30 17546 H 1647.1 -1.56786 6.36988 0
M  V30 17547 H 1647.02 -0.304876 7.55385 0
M  V30 17548 H 1648.29 -1.49005 7.65126 0
M  V30 17549 N 1652.52 -1.50101 0.480349 0
M  V30 17550 C 1653.45 -2.31581 -0.298718 0
M  V30 17551 C 1654.43 -1.38905 -0.981798 0
M  V30 17552 O 1655.61 -1.67823 -0.977188 0
M  V30 17553 C 1652.74 -3.18891 -1.37571 0
M  V30 17554 C 1651.7 -4.20194 -0.813704 0
M  V30 17555 C 1651.02 -4.96302 -1.98968 0
M  V30 17556 C 1652.32 -5.21985 0.181295 0
M  V30 17557 H 1654.02 -2.96961 0.381349 0
M  V30 17558 H 1651.56 -1.42809 0.184842 0
M  V30 17559 H 1653.51 -3.74694 -1.92828 0
M  V30 17560 H 1652.24 -2.51414 -2.08467 0
M  V30 17561 H 1650.9 -3.65506 -0.283034 0
M  V30 17562 H 1650.55 -4.2529 -2.68584 0
M  V30 17563 H 1650.25 -5.64833 -1.61981 0
M  V30 17564 H 1651.77 -5.54943 -2.54698 0
M  V30 17565 H 1653.18 -5.72604 -0.28242 0
M  V30 17566 H 1651.58 -5.98289 0.465916 0
M  V30 17567 H 1652.65 -4.72162 1.10413 0
M  V30 17568 N 1653.99 -0.213323 -1.5615 0
M  V30 17569 C 1654.93 0.732346 -2.17185 0
M  V30 17570 C 1655.94 1.16357 -1.13864 0
M  V30 17571 O 1657.13 1.09614 -1.40879 0
M  V30 17572 C 1654.23 2.0027 -2.73395 0
M  V30 17573 C 1653.4 1.72836 -4.01804 0
M  V30 17574 C 1652.46 2.84497 -4.4266 0
M  V30 17575 O 1651.49 2.5332 -5.09723 0
M  V30 17576 N 1652.69 4.13268 -4.07663 0
M  V30 17577 H 1655.45 0.210294 -2.98961 0
M  V30 17578 H 1653.01 -0.0320124 -1.61868 0
M  V30 17579 H 1655.01 2.74145 -2.97702 0
M  V30 17580 H 1653.58 2.43546 -1.9597 0
M  V30 17581 H 1652.8 0.826474 -3.85439 0
M  V30 17582 H 1654.08 1.51928 -4.85588 0
M  V30 17583 H 1653.48 4.41444 -3.53756 0
M  V30 17584 H 1652.04 4.83713 -4.36881 0
M  V30 17585 N 1655.47 1.57485 0.0601405 0
M  V30 17586 C 1656.42 2.04487 1.07023 0
M  V30 17587 C 1657.39 0.927738 1.37776 0
M  V30 17588 O 1658.57 1.19621 1.48645 0
M  V30 17589 C 1655.71 2.50338 2.37539 0
M  V30 17590 C 1654.83 3.75717 2.13215 0
M  V30 17591 C 1653.96 4.10304 3.37378 0
M  V30 17592 C 1653 5.2869 3.0847 0
M  V30 17593 N 1652.14 5.58858 4.24996 0
M  V30 17594 H 1656.98 2.90544 0.662444 0
M  V30 17595 H 1654.52 1.43676 0.315515 0
M  V30 17596 H 1656.47 2.74978 3.13756 0
M  V30 17597 H 1655.1 1.67242 2.76098 0
M  V30 17598 H 1654.16 3.58348 1.27636 0
M  V30 17599 H 1655.47 4.62068 1.87869 0
M  V30 17600 H 1654.62 4.35907 4.21983 0
M  V30 17601 H 1653.36 3.22544 3.6581 0
M  V30 17602 H 1652.37 5.02871 2.22262 0
M  V30 17603 H 1653.59 6.18077 2.81349 0
M  V30 17604 H 1651.54 4.74058 4.53437 0
M  V30 17605 H 1651.45 6.39652 4.02965 0
M  V30 17606 H 1652.72 5.89019 5.10565 0
M  V30 17607 N 1656.95 -0.331789 1.54068 0
M  V30 17608 C 1658.18 -1.09044 1.75832 0
M  V30 17609 C 1658.59 -1.81976 0.503012 0
M  V30 17610 O 1657.95 -1.74758 -0.525913 0
M  V30 17611 C 1658 -2.09489 2.94613 0
M  V30 17612 O 1657.72 -1.39521 4.1529 0
M  V30 17613 C 1659.22 -2.97637 3.28522 0
M  V30 17614 H 1656.44 -0.324701 0.587205 0
M  V30 17615 H 1658.99 -0.380417 2.00931 0
M  V30 17616 H 1657.14 -2.76038 2.71812 0
M  V30 17617 H 1657.56 -2.06717 4.82046 0
M  V30 17618 H 1659.03 -3.64027 4.14956 0
M  V30 17619 H 1659.51 -3.64292 2.45332 0
M  V30 17620 H 1660.11 -2.3666 3.53372 0
M  V30 17621 N 1658.43 -1.46001 -0.593424 0
M  V30 17622 C 1659.65 -1.54541 -1.38318 0
M  V30 17623 C 1660.08 -0.183555 -1.87202 0
M  V30 17624 O 1659.44 0.834407 -1.60958 0
M  V30 17625 C 1659.48 -2.54559 -2.55405 0
M  V30 17626 O 1658.59 -2.07321 -3.56499 0
M  V30 17627 H 1657.93 -0.520434 -0.412364 0
M  V30 17628 H 1660.46 -1.9148 -0.720862 0
M  V30 17629 H 1660.47 -2.73823 -3.02465 0
M  V30 17630 H 1659.14 -3.53461 -2.19176 0
M  V30 17631 H 1657.72 -1.97997 -3.15993 0
M  V30 17632 N 1659.91 0.83715 -1.33527 0
M  V30 17633 C 1661.32 1.12809 -1.12899 0
M  V30 17634 C 1661.52 2.01345 0.0789761 0
M  V30 17635 O 1660.58 2.40831 0.758732 0
M  V30 17636 C 1661.89 1.78852 -2.41728 0
M  V30 17637 C 1663.44 1.91411 -2.47651 0
M  V30 17638 C 1663.91 2.6087 -3.76445 0
M  V30 17639 N 1665.41 2.68381 -3.77526 0
M  V30 17640 C 1666.14 3.22819 -4.73894 0
M  V30 17641 N 1665.64 3.77931 -5.80638 0
M  V30 17642 N 1667.43 3.21087 -4.61367 0
M  V30 17643 H 1659.58 0.247942 -2.10948 0
M  V30 17644 H 1661.84 0.172518 -0.93217 0
M  V30 17645 H 1661.55 1.21258 -3.30135 0
M  V30 17646 H 1661.42 2.78856 -2.54006 0
M  V30 17647 H 1663.81 2.48159 -1.59691 0
M  V30 17648 H 1663.89 0.903512 -2.39312 0
M  V30 17649 H 1663.54 2.0478 -4.64787 0
M  V30 17650 H 1663.47 3.62404 -3.82061 0
M  V30 17651 H 1665.96 2.29301 -3.00382 0
M  V30 17652 H 1666.27 4.17678 -6.50204 0
M  V30 17653 H 1664.61 3.76214 -5.8437 0
M  V30 17654 H 1667.81 2.7729 -3.77131 0
M  V30 17655 H 1667.98 3.6321 -5.3664 0
M  V30 17656 N 1661.38 1.17024 1.05561 0
M  V30 17657 C 1662.61 0.981293 1.82717 0
M  V30 17658 C 1663.03 -0.465636 1.82246 0
M  V30 17659 O 1662.39 -1.33315 1.22869 0
M  V30 17660 C 1662.44 1.52239 3.26888 0
M  V30 17661 O 1661.54 0.73366 4.05822 0
M  V30 17662 H 1660.89 0.348677 0.565084 0
M  V30 17663 H 1663.42 1.55435 1.33046 0
M  V30 17664 H 1663.43 1.54306 3.77695 0
M  V30 17665 H 1662.1 2.57567 3.26545 0
M  V30 17666 H 1660.68 0.784101 3.64563 0
M  V30 17667 N 1662.86 -1.24221 0.969889 0
M  V30 17668 C 1664.09 -1.96403 0.650658 0
M  V30 17669 C 1664.51 -1.71919 -0.780339 0
M  V30 17670 O 1663.86 -1.00427 -1.52383 0
M  V30 17671 C 1663.91 -3.49636 0.918542 0
M  V30 17672 O 1663.63 -3.73283 2.29328 0
M  V30 17673 C 1665.14 -4.3903 0.613803 0
M  V30 17674 H 1662.36 -0.625614 0.242587 0
M  V30 17675 H 1664.9 -1.57992 1.29842 0
M  V30 17676 H 1663.05 -3.86101 0.316959 0
M  V30 17677 H 1663.47 -4.67649 2.37496 0
M  V30 17678 H 1664.94 -5.4539 0.851679 0
M  V30 17679 H 1665.42 -4.36868 -0.451976 0
M  V30 17680 H 1666.03 -4.08155 1.19539 0
M  V30 17681 N 1664.34 -0.740267 -1.39132 0
M  V30 17682 C 1665.62 -0.216602 -1.94397 0
M  V30 17683 C 1666 1.28264 -1.67665 0
M  V30 17684 O 1665.35 2.05075 -1.00778 0
M  V30 17685 C 1665.56 -0.555899 -3.44544 0
M  V30 17686 C 1666.9 -0.50815 -4.21548 0
M  V30 17687 O 1667.93 -0.493401 -3.52766 0
M  V30 17688 O 1666.79 -0.507321 -5.4414 0
M  V30 17689 H 1663.88 -0.0413037 -0.825968 0
M  V30 17690 H 1666.43 -0.819483 -1.48602 0
M  V30 17691 H 1665.2 -1.59187 -3.57457 0
M  V30 17692 H 1664.82 0.0756793 -3.97528 0
M  V30 17693 N 1665.82 1.49844 -0.488302 0
M  V30 17694 C 1667.07 2.02409 0.0606981 0
M  V30 17695 C 1667.39 1.36901 1.38161 0
M  V30 17696 O 1666.65 0.48951 1.89479 0
M  V30 17697 C 1666.95 3.56342 0.274851 0
M  V30 17698 C 1666.61 4.4042 -0.966481 0
M  V30 17699 C 1665.28 4.63116 -1.30678 0
M  V30 17700 C 1667.63 4.89418 -1.79218 0
M  V30 17701 C 1664.96 5.32055 -2.47253 0
M  V30 17702 C 1667.31 5.59639 -2.94935 0
M  V30 17703 C 1665.97 5.80584 -3.2936 0
M  V30 17704 H 1665.24 0.740667 0.022211 0
M  V30 17705 H 1667.89 1.80279 -0.645882 0
M  V30 17706 H 1666.19 3.7708 1.06384 0
M  V30 17707 H 1667.89 3.94594 0.71388 0
M  V30 17708 H 1664.48 4.22987 -0.691388 0
M  V30 17709 H 1668.66 4.71723 -1.54244 0
M  V30 17710 H 1663.92 5.46477 -2.74177 0
M  V30 17711 H 1668.09 5.96583 -3.59251 0
M  V30 17712 H 1665.72 6.33779 -4.19795 0
M  V30 17713 N 1667.3 0.221601 1.56034 0
M  V30 17714 C 1668.71 -0.133783 1.59038 0
M  V30 17715 C 1668.91 -1.58952 1.23841 0
M  V30 17716 O 1667.97 -2.32972 0.973677 0
M  V30 17717 C 1669.28 0.192549 3.00083 0
M  V30 17718 C 1670.83 0.134791 3.1271 0
M  V30 17719 C 1671.3 0.434799 4.55931 0
M  V30 17720 N 1672.8 0.384372 4.61602 0
M  V30 17721 C 1673.53 0.59 5.70357 0
M  V30 17722 N 1673.03 0.857405 6.87474 0
M  V30 17723 N 1674.82 0.522433 5.59667 0
M  V30 17724 H 1666.97 1.17124 1.77189 0
M  V30 17725 H 1669.23 0.46946 0.823597 0
M  V30 17726 H 1668.94 1.20292 3.30488 0
M  V30 17727 H 1668.81 -0.49243 3.73972 0
M  V30 17728 H 1671.2 -0.866221 2.821 0
M  V30 17729 H 1671.28 0.853247 2.4115 0
M  V30 17730 H 1670.93 1.43325 4.87258 0
M  V30 17731 H 1670.86 -0.304849 5.25717 0
M  V30 17732 H 1673.35 0.185389 3.77445 0
M  V30 17733 H 1673.66 1.00241 7.66271 0
M  V30 17734 H 1672 0.894599 6.89218 0
M  V30 17735 H 1675.2 0.313754 4.67047 0
M  V30 17736 H 1675.37 0.686094 6.44358 0
M  V30 17737 N 1668.77 -1.57515 -0.0517878 0
M  V30 17738 C 1670.02 -1.88493 -0.748206 0
M  V30 17739 C 1670.35 -0.816494 -1.76202 0
M  V30 17740 O 1669.63 0.171075 -1.93746 0
M  V30 17741 C 1669.91 -3.30131 -1.43825 0
M  V30 17742 C 1669.76 -4.47648 -0.4395 0
M  V30 17743 C 1671.08 -3.70315 -2.37813 0
M  V30 17744 H 1668.2 -0.68555 -0.270537 0
M  V30 17745 H 1670.84 -1.89997 -0.0111457 0
M  V30 17746 H 1668.99 -3.2898 -2.06651 0
M  V30 17747 H 1670.67 -4.60929 0.185088 0
M  V30 17748 H 1668.91 -4.33117 0.243381 0
M  V30 17749 H 1669.58 -5.43582 -0.96035 0
M  V30 17750 H 1672.06 -3.72687 -1.8505 0
M  V30 17751 H 1670.93 -4.70269 -2.83087 0
M  V30 17752 H 1671.19 -3.0133 -3.23501 0
M  V30 17753 N 1670.25 0.323614 -1.54242 0
M  V30 17754 C 1671.66 0.898051 -1.63682 0
M  V30 17755 C 1672.02 1.88882 -0.530861 0
M  V30 17756 O 1671.14 2.13772 0.336245 0
M  V30 17757 C 1671.74 1.63561 -2.96704 0
M  V30 17758 C 1670.29 2.15877 -3.08341 0
M  V30 17759 C 1669.44 0.984145 -2.59249 0
M  V30 17760 H 1672.39 0.101198 -1.58377 0
M  V30 17761 H 1672.41 2.49982 -2.86861 0
M  V30 17762 H 1671.93 0.914265 -3.77177 0
M  V30 17763 H 1670.03 2.91127 -2.32542 0
M  V30 17764 H 1670.14 2.40881 -4.14141 0
M  V30 17765 H 1668.5 1.3633 -2.15143 0
M  V30 17766 H 1669.29 0.277118 -3.4218 0
M  V30 17767 N 1671.73 1.46313 0.585673 0
M  V30 17768 C 1672.66 1.52683 1.7094 0
M  V30 17769 C 1673.68 0.415447 1.5741 0
M  V30 17770 O 1674.87 0.683657 1.64889 0
M  V30 17771 C 1671.97 1.38822 3.09163 0
M  V30 17772 C 1671.14 2.64027 3.48724 0
M  V30 17773 C 1670.2 2.44407 4.65995 0
M  V30 17774 O 1669.22 3.18118 4.72006 0
M  V30 17775 N 1670.43 1.50381 5.60683 0
M  V30 17776 H 1673.19 2.49573 1.65932 0
M  V30 17777 H 1670.75 1.42332 0.771573 0
M  V30 17778 H 1672.74 1.23474 3.85404 0
M  V30 17779 H 1671.31 0.501247 3.08555 0
M  V30 17780 H 1670.53 2.94338 2.62219 0
M  V30 17781 H 1671.82 3.47206 3.71921 0
M  V30 17782 H 1671.22 0.895917 5.5856 0
M  V30 17783 H 1669.78 1.40997 6.36367 0
M  V30 17784 N 1673.21 -0.830057 1.33969 0
M  V30 17785 C 1674.43 -1.62294 1.29133 0
M  V30 17786 C 1674.86 -1.87627 -0.133253 0
M  V30 17787 O 1674.22 -1.44669 -1.09272 0
M  V30 17788 C 1674.27 -2.94508 2.0808 0
M  V30 17789 O 1673.37 -3.86239 1.44544 0
M  V30 17790 H 1672.71 -0.493865 0.443839 0
M  V30 17791 H 1675.24 -1.03202 1.76665 0
M  V30 17792 H 1675.25 -3.44133 2.19173 0
M  V30 17793 H 1673.93 -2.75392 3.1166 0
M  V30 17794 H 1672.5 -3.44743 1.42151 0
M  V30 17795 N 1674.69 -1.17582 -1.04939 0
M  V30 17796 C 1675.94 -0.960189 -1.77379 0
M  V30 17797 C 1676.25 0.512001 -1.8878 0
M  V30 17798 O 1677.46 0.845912 -2.57986 0
M  V30 17799 C 1675.91 -1.66882 -3.18871 0
M  V30 17800 C 1675.52 -3.17972 -3.15591 0
M  V30 17801 C 1677.26 -1.53567 -3.95749 0
M  V30 17802 C 1675.17 -3.81513 -4.51887 0
M  V30 17803 H 1674.1 -0.35562 -0.664869 0
M  V30 17804 H 1676.75 -1.40863 -1.17601 0
M  V30 17805 H 1675.13 -1.14813 -3.78991 0
M  V30 17806 H 1676.31 -3.76995 -2.64974 0
M  V30 17807 H 1674.62 -3.31328 -2.52212 0
M  V30 17808 H 1677.22 -1.98408 -4.96526 0
M  V30 17809 H 1677.56 -0.486603 -4.13446 0
M  V30 17810 H 1678.1 -2.02868 -3.42183 0
M  V30 17811 H 1674.83 -4.86428 -4.39395 0
M  V30 17812 H 1674.35 -3.27276 -5.02643 0
M  V30 17813 H 1676.03 -3.83867 -5.20822 0
M  V30 17814 N 1676.17 1.23705 -0.976463 0
M  V30 17815 C 1677.41 1.93751 -0.65114 0
M  V30 17816 C 1677.77 1.74538 0.800022 0
M  V30 17817 O 1678.97 2.38698 1.23599 0
M  V30 17818 C 1677.24 3.42352 -1.02614 0
M  V30 17819 S 1678.8 4.31133 -0.816695 0
M  V30 17820 H 1675.62 0.669772 -0.238591 0
M  V30 17821 H 1678.22 1.49877 -1.25527 0
M  V30 17822 H 1676.92 3.53844 -2.079 0
M  V30 17823 H 1676.46 3.91225 -0.41314 0
M  V30 17824 H 1678.47 4.95284 0.301446 0
M  V30 17825 N 1677.64 0.747635 1.38738 0
M  V30 17826 C 1678.87 0.311781 2.04537 0
M  V30 17827 C 1679.29 -1.05782 1.56383 0
M  V30 17828 O 1678.64 -1.67077 0.734259 0
M  V30 17829 C 1678.69 0.318675 3.60093 0
M  V30 17830 O 1678.42 1.63423 4.06478 0
M  V30 17831 C 1679.92 -0.131782 4.43104 0
M  V30 17832 H 1677.14 0.134141 0.657455 0
M  V30 17833 H 1679.68 1.01482 1.77543 0
M  V30 17834 H 1677.84 -0.335578 3.85944 0
M  V30 17835 H 1678.25 1.55636 5.00877 0
M  V30 17836 H 1679.72 -0.0757978 5.51948 0
M  V30 17837 H 1680.2 -1.17881 4.23085 0
M  V30 17838 H 1680.81 0.493375 4.22429 0
M  V30 17839 N 1679.12 -1.49583 0.496242 0
M  V30 17840 C 1680.05 -2.25783 -0.331257 0
M  V30 17841 C 1681.03 -1.3016 -0.974526 0
M  V30 17842 O 1682.22 -1.59439 -1.00556 0
M  V30 17843 C 1679.34 -3.05323 -1.46614 0
M  V30 17844 C 1678.39 -4.16064 -0.937722 0
M  V30 17845 S 1679.22 -5.35237 0.167715 0
M  V30 17846 C 1680.38 -6.18331 -0.970443 0
M  V30 17847 H 1680.61 -2.95621 0.315507 0
M  V30 17848 H 1678.14 -1.51813 0.28147 0
M  V30 17849 H 1680.1 -3.51735 -2.11642 0
M  V30 17850 H 1678.76 -2.34963 -2.0845 0
M  V30 17851 H 1677.96 -4.71215 -1.78808 0
M  V30 17852 H 1677.56 -3.72217 -0.364726 0
M  V30 17853 H 1679.85 -6.50988 -1.87671 0
M  V30 17854 H 1680.79 -7.0662 -0.457649 0
M  V30 17855 H 1681.2 -5.50811 -1.23563 0
M  V30 17856 N 1680.6 -0.229873 -1.55915 0
M  V30 17857 C 1681.85 0.399565 -1.98519 0
M  V30 17858 C 1682.17 1.59179 -1.1177 0
M  V30 17859 O 1681.43 1.95007 -0.16454 0
M  V30 17860 C 1681.73 0.869043 -3.46673 0
M  V30 17861 C 1681.39 -0.21356 -4.50394 0
M  V30 17862 C 1680.06 -0.510939 -4.7848 0
M  V30 17863 C 1682.41 -0.945307 -5.12556 0
M  V30 17864 C 1679.74 -1.54444 -5.66007 0
M  V30 17865 C 1682.09 -1.9682 -6.01203 0
M  V30 17866 C 1680.75 -2.27241 -6.27629 0
M  V30 17867 H 1680.02 0.146211 -0.726432 0
M  V30 17868 H 1682.67 -0.334135 -1.88562 0
M  V30 17869 H 1680.97 1.68165 -3.53875 0
M  V30 17870 H 1682.67 1.36605 -3.77015 0
M  V30 17871 H 1679.26 0.0283699 -4.28591 0
M  V30 17872 H 1683.45 -0.728806 -4.9092 0
M  V30 17873 H 1678.7 -1.78566 -5.84743 0
M  V30 17874 H 1682.88 -2.54023 -6.48418 0
M  V30 17875 H 1680.5 -3.07465 -6.95248 0
M  V30 17876 N 1682.08 1.5754 0.0434337 0
M  V30 17877 C 1683.03 2.06683 1.067 0
M  V30 17878 C 1684.02 0.977691 1.38339 0
M  V30 17879 O 1685.23 1.16266 1.37412 0
M  V30 17880 H 1681.6 0.659378 0.361559 0
M  V30 17881 H 1683.57 2.91747 0.626605 0
M  V30 17882 C 1682.32 2.54985 2.36385 0
M  V30 17883 H 1681.64 3.384 2.12897 0
M  V30 17884 H 1683.08 2.93095 3.06384 0
M  V30 17885 C 1681.54 1.44484 3.04345 0
M  V30 17886 O 1682.07 0.80291 3.93594 0
M  V30 17887 N 1680.28 1.18292 2.65434 0
M  V30 17888 H 1679.83 1.70676 1.92944 0
M  V30 17889 H 1679.78 0.445676 3.11225 0
M  V30 17890 N 1683.56 -0.31543 1.54411 0
M  V30 17891 C 1684.8 -1.05396 1.73261 0
M  V30 17892 C 1685.13 -1.87406 0.509171 0
M  V30 17893 O 1684.41 -1.88126 -0.493836 0
M  V30 17894 C 1684.69 -1.97195 3.01308 0
M  V30 17895 C 1684.55 -1.18461 4.33921 0
M  V30 17896 C 1685.86 -2.96594 3.25146 0
M  V30 17897 H 1682.98 -0.381763 0.630417 0
M  V30 17898 H 1685.63 -0.329882 1.87114 0
M  V30 17899 H 1683.78 -2.58936 2.89628 0
M  V30 17900 H 1685.45 -0.591171 4.57496 0
M  V30 17901 H 1683.69 -0.487025 4.31057 0
M  V30 17902 H 1684.36 -1.85909 5.19752 0
M  V30 17903 H 1686.84 -2.44977 3.36341 0
M  V30 17904 H 1685.71 -3.58002 4.16084 0
M  V30 17905 H 1685.97 -3.69487 2.42758 0
M  V30 17906 N 1685.03 -1.46622 -0.577906 0
M  V30 17907 C 1685.97 -1.52068 -1.70148 0
M  V30 17908 C 1686.95 -0.374405 -1.58231 0
M  V30 17909 O 1688.13 -0.579245 -1.79379 0
M  V30 17910 C 1685.26 -1.40377 -3.0824 0
M  V30 17911 C 1684.3 -2.59247 -3.38664 0
M  V30 17912 S 1685.14 -4.21576 -3.30203 0
M  V30 17913 C 1686.29 -4.12401 -4.70825 0
M  V30 17914 H 1686.52 -2.4713 -1.6527 0
M  V30 17915 H 1684.06 -1.34567 -0.757045 0
M  V30 17916 H 1686.02 -1.34318 -3.87903 0
M  V30 17917 H 1684.68 -0.467354 -3.10604 0
M  V30 17918 H 1683.87 -2.47073 -4.39285 0
M  V30 17919 H 1683.47 -2.6232 -2.66579 0
M  V30 17920 H 1685.76 -3.79378 -5.61319 0
M  V30 17921 H 1686.71 -5.13037 -4.88056 0
M  V30 17922 H 1687.11 -3.43578 -4.479 0
M  V30 17923 N 1686.51 0.822941 -1.34408 0
M  V30 17924 C 1687.76 1.58149 -1.26951 0
M  V30 17925 C 1688.09 1.93538 0.160222 0
M  V30 17926 O 1687.37 1.60021 1.1056 0
M  V30 17927 C 1687.65 2.88101 -2.16032 0
M  V30 17928 C 1687.5 2.59293 -3.67542 0
M  V30 17929 C 1688.82 3.89673 -2.04556 0
M  V30 17930 H 1685.94 0.573811 -0.462504 0
M  V30 17931 H 1688.58 0.948017 -1.64659 0
M  V30 17932 H 1686.73 3.42162 -1.84003 0
M  V30 17933 H 1688.4 2.11542 -4.09936 0
M  V30 17934 H 1686.65 1.92738 -3.88632 0
M  V30 17935 H 1687.32 3.51962 -4.25238 0
M  V30 17936 H 1689.79 3.44965 -2.32677 0
M  V30 17937 H 1688.67 4.78404 -2.69111 0
M  V30 17938 H 1688.93 4.30113 -1.02253 0
M  V30 17939 N 1687.99 1.18137 1.04314 0
M  V30 17940 C 1689.27 0.884901 1.74439 0
M  V30 17941 C 1689.65 -0.612825 2.02009 0
M  V30 17942 O 1689 -1.56679 1.66325 0
M  V30 17943 C 1689.21 1.72944 3.03136 0
M  V30 17944 C 1690.55 1.95491 3.7692 0
M  V30 17945 O 1691.58 1.69976 3.13028 0
M  V30 17946 O 1690.44 2.38426 4.91747 0
M  V30 17947 H 1687.53 0.328481 0.758966 0
M  V30 17948 H 1690.08 1.28878 1.10402 0
M  V30 17949 H 1688.85 2.74485 2.78879 0
M  V30 17950 H 1688.47 1.32392 3.74911 0
M  V30 17951 N 1689.47 -1.23186 0.98301 0
M  V30 17952 C 1690.43 -2.22979 0.530366 0
M  V30 17953 C 1691.43 -1.56211 -0.381421 0
M  V30 17954 O 1692.62 -1.73321 -0.17475 0
M  V30 17955 C 1689.75 -3.40124 -0.229882 0
M  V30 17956 H 1690.95 -2.64539 1.41277 0
M  V30 17957 H 1688.5 -1.36064 0.769172 0
M  V30 17958 H 1689.23 -3.04024 -1.12871 0
M  V30 17959 H 1689.02 -3.89794 0.424653 0
M  V30 17960 H 1690.51 -4.14158 -0.535078 0
M  V30 17961 N 1690.95 -0.754982 -1.38339 0
M  V30 17962 C 1691.89 -0.128193 -2.30444 0
M  V30 17963 C 1692.86 0.70813 -1.50249 0
M  V30 17964 O 1694.05 0.663969 -1.78875 0
M  V30 17965 C 1691.19 0.757921 -3.36674 0
M  V30 17966 C 1690.3 -0.093181 -4.31899 0
M  V30 17967 C 1689.44 0.796067 -5.25201 0
M  V30 17968 C 1688.48 -0.0585854 -6.12072 0
M  V30 17969 N 1687.61 0.7877 -6.97667 0
M  V30 17970 H 1692.45 -0.919204 -2.83469 0
M  V30 17971 H 1689.99 -0.464921 -1.3956 0
M  V30 17972 H 1691.95 1.28632 -3.96875 0
M  V30 17973 H 1690.58 1.5147 -2.85055 0
M  V30 17974 H 1689.63 -0.73922 -3.73148 0
M  V30 17975 H 1690.94 -0.753146 -4.93081 0
M  V30 17976 H 1690.1 1.39158 -5.90525 0
M  V30 17977 H 1688.83 1.48976 -4.64389 0
M  V30 17978 H 1687.84 -0.666754 -5.45742 0
M  V30 17979 H 1689.06 -0.749361 -6.74953 0
M  V30 17980 H 1687.01 1.46632 -6.39402 0
M  V30 17981 H 1686.93 0.184662 -7.55774 0
M  V30 17982 H 1688.2 1.36814 -7.674 0
M  V30 17983 N 1692.42 1.49318 -0.504168 0
M  V30 17984 C 1693.39 2.27703 0.26157 0
M  V30 17985 C 1694.39 1.3385 0.891114 0
M  V30 17986 O 1695.58 1.56981 0.755156 0
M  V30 17987 C 1692.71 3.11912 1.37564 0
M  V30 17988 H 1693.9 2.96855 -0.426292 0
M  V30 17989 H 1691.46 1.54135 -0.259236 0
M  V30 17990 H 1692.19 2.47332 2.09755 0
M  V30 17991 H 1691.98 3.8092 0.929641 0
M  V30 17992 H 1693.47 3.71106 1.91494 0
M  V30 17993 N 1693.9 0.238138 1.5579 0
M  V30 17994 C 1694.83 -0.697701 2.18323 0
M  V30 17995 C 1695.85 -1.1453 1.15701 0
M  V30 17996 O 1697.04 -1.07359 1.42605 0
M  V30 17997 C 1694.14 -1.95895 2.76547 0
M  V30 17998 C 1693.31 -1.66422 4.04503 0
M  V30 17999 C 1692.37 -2.77419 4.4713 0
M  V30 18000 O 1691.39 -2.45179 5.13689 0
M  V30 18001 N 1692.6 -4.06731 4.14187 0
M  V30 18002 H 1695.36 -0.162705 2.99258 0
M  V30 18003 H 1692.92 0.0577602 1.61797 0
M  V30 18004 H 1694.91 -2.69374 3.02026 0
M  V30 18005 H 1693.48 -2.40398 1.99819 0
M  V30 18006 H 1692.7 -0.76505 3.86705 0
M  V30 18007 H 1693.99 -1.44183 4.87943 0
M  V30 18008 H 1693.39 -4.3576 3.60735 0
M  V30 18009 H 1691.95 -4.76701 4.44521 0
M  V30 18010 N 1695.38 -1.57561 -0.0350783 0
M  V30 18011 C 1696.61 -1.93644 -0.742753 0
M  V30 18012 C 1697.03 -0.837655 -1.68419 0
M  V30 18013 O 1696.39 0.207069 -1.80114 0
M  V30 18014 C 1696.44 -3.28779 -1.48111 0
M  V30 18015 O 1695.54 -3.20604 -2.59398 0
M  V30 18016 H 1694.88 -0.633103 -0.200192 0
M  V30 18017 H 1697.41 -2.04599 0.00765271 0
M  V30 18018 H 1697.42 -3.63527 -1.85236 0
M  V30 18019 H 1696.1 -4.08316 -0.790608 0
M  V30 18020 H 1694.67 -2.97477 -2.2486 0
M  V30 18021 N 1696.86 0.307236 -1.54576 0
M  V30 18022 C 1698.09 1.06233 -1.77545 0
M  V30 18023 C 1698.5 1.81153 -0.5319 0
M  V30 18024 O 1697.86 1.75573 0.498044 0
M  V30 18025 C 1697.91 2.04775 -2.97908 0
M  V30 18026 O 1697.63 1.32896 -4.17457 0
M  V30 18027 C 1699.13 2.92373 -3.33216 0
M  V30 18028 H 1696.35 0.315318 -0.592297 0
M  V30 18029 H 1698.9 0.348403 -2.0151 0
M  V30 18030 H 1697.05 2.71679 -2.76169 0
M  V30 18031 H 1697.46 1.99022 -4.85274 0
M  V30 18032 H 1698.94 3.5738 -4.20694 0
M  V30 18033 H 1699.42 3.60343 -2.51097 0
M  V30 18034 H 1700.02 2.31009 -3.57093 0
M  V30 18035 N 1698.34 1.46926 0.570122 0
M  V30 18036 C 1699.28 1.58442 1.67824 0
M  V30 18037 C 1700.25 0.428053 1.6049 0
M  V30 18038 O 1701.44 0.646445 1.79515 0
M  V30 18039 C 1698.58 1.59253 3.06158 0
M  V30 18040 C 1697.69 2.85714 3.24024 0
M  V30 18041 C 1696.83 2.77945 4.52681 0
M  V30 18042 C 1695.87 3.99289 4.63934 0
M  V30 18043 N 1695 3.89833 5.83931 0
M  V30 18044 H 1699.84 2.5309 1.5732 0
M  V30 18045 H 1697.38 1.25549 0.766548 0
M  V30 18046 H 1699.34 1.57707 3.86244 0
M  V30 18047 H 1697.97 0.68127 3.15529 0
M  V30 18048 H 1697.02 2.97184 2.37458 0
M  V30 18049 H 1698.33 3.7561 3.28206 0
M  V30 18050 H 1697.49 2.74576 5.41011 0
M  V30 18051 H 1696.22 1.85711 4.50958 0
M  V30 18052 H 1695.23 4.02976 3.74019 0
M  V30 18053 H 1696.45 4.92635 4.67427 0
M  V30 18054 H 1694.4 3.00393 5.83181 0
M  V30 18055 H 1694.32 4.73395 5.89434 0
M  V30 18056 H 1695.59 3.90459 6.74657 0
M  V30 18057 N 1699.82 -0.815801 1.34842 0
M  V30 18058 C 1700.75 -1.94193 1.29659 0
M  V30 18059 C 1701.73 -1.69221 0.172703 0
M  V30 18060 O 1702.91 -1.90716 0.366203 0
M  V30 18061 C 1700.04 -3.30777 1.0585 0
M  V30 18062 C 1699 -3.70207 2.1478 0
M  V30 18063 C 1698.32 -5.04852 1.76149 0
M  V30 18064 C 1699.62 -3.81553 3.56671 0
M  V30 18065 H 1701.32 -1.98787 2.23884 0
M  V30 18066 H 1698.86 -0.955013 1.07775 0
M  V30 18067 H 1700.81 -4.0915 1.00866 0
M  V30 18068 H 1699.54 -3.265 0.0806804 0
M  V30 18069 H 1698.2 -2.94113 2.18845 0
M  V30 18070 H 1697.85 -4.9707 0.770099 0
M  V30 18071 H 1697.55 -5.32205 2.49062 0
M  V30 18072 H 1699.07 -5.85676 1.72674 0
M  V30 18073 H 1700.48 -4.50181 3.54979 0
M  V30 18074 H 1698.88 -4.20367 4.28266 0
M  V30 18075 H 1699.95 -2.83356 3.93494 0
M  V30 18076 N 1701.29 -1.18689 -1.03686 0
M  V30 18077 C 1702.53 -0.995625 -1.78512 0
M  V30 18078 C 1702.9 0.466151 -1.86255 0
M  V30 18079 O 1704.1 0.776976 -2.57326 0
M  V30 18080 C 1702.37 -1.63695 -3.17709 0
M  V30 18081 S 1703.93 -1.59397 -4.08825 0
M  V30 18082 H 1700.75 -0.357446 -0.614616 0
M  V30 18083 H 1703.35 -1.50899 -1.24297 0
M  V30 18084 H 1702.05 -2.69301 -3.09685 0
M  V30 18085 H 1701.58 -1.12404 -3.77 0
M  V30 18086 H 1703.6 -0.61254 -4.92405 0
M  V30 18087 N 1702.77 1.22662 -0.989529 0
M  V30 18088 C 1704 1.95883 -0.681511 0
M  V30 18089 C 1704.42 1.72646 0.746646 0
M  V30 18090 O 1703.78 1.00358 1.5099 0
M  V30 18091 C 1703.83 3.46773 -0.988975 0
M  V30 18092 O 1702.93 4.12311 -0.0858485 0
M  V30 18093 H 1702.27 0.612916 -0.255401 0
M  V30 18094 H 1704.8 1.5585 -1.32559 0
M  V30 18095 H 1704.81 3.97273 -0.929426 0
M  V30 18096 H 1703.49 3.63011 -2.02967 0
M  V30 18097 H 1702.06 3.7236 -0.200592 0
M  V30 18098 N 1704.25 0.762308 1.37937 0
M  V30 18099 C 1705.18 0.0886896 2.28028 0
M  V30 18100 C 1706.16 -0.719127 1.45833 0
M  V30 18101 O 1707.34 -0.695902 1.75184 0
M  V30 18102 C 1704.47 -0.880957 3.27043 0
M  V30 18103 C 1703.52 -0.158303 4.26206 0
M  V30 18104 S 1704.35 1.14705 5.23071 0
M  V30 18105 C 1705.51 0.180701 6.25639 0
M  V30 18106 H 1705.74 0.852627 2.84811 0
M  V30 18107 H 1703.27 0.555273 1.4407 0
M  V30 18108 H 1705.23 -1.43504 3.846 0
M  V30 18109 H 1703.89 -1.61793 2.69224 0
M  V30 18110 H 1703.08 -0.893012 4.96025 0
M  V30 18111 H 1702.69 0.324503 3.7259 0
M  V30 18112 H 1704.98 -0.650247 6.74372 0
M  V30 18113 H 1705.92 0.846801 7.03018 0
M  V30 18114 H 1706.33 -0.203883 5.64132 0
M  V30 18115 N 1705.73 -1.49049 0.51208 0
M  V30 18116 C 1706.64 -2.33102 -0.264695 0
M  V30 18117 C 1707.65 -1.45347 -0.956571 0
M  V30 18118 O 1708.83 -1.78355 -0.935501 0
M  V30 18119 C 1705.89 -3.21051 -1.30871 0
M  V30 18120 C 1704.96 -4.24666 -0.629094 0
M  V30 18121 C 1704.19 -5.08412 -1.62337 0
M  V30 18122 O 1704.41 -4.93847 -2.85432 0
M  V30 18123 O 1703.35 -5.90368 -1.17259 0
M  V30 18124 H 1707.17 -3.00732 0.423585 0
M  V30 18125 H 1704.76 -1.4688 0.273246 0
M  V30 18126 H 1706.64 -3.75503 -1.91248 0
M  V30 18127 H 1705.31 -2.56103 -1.97972 0
M  V30 18128 H 1704.22 -3.74097 0.0147056 0
M  V30 18129 H 1705.55 -4.922 -0.000339859 0
M  V30 18130 N 1707.21 -0.246397 -1.55662 0
M  V30 18131 C 1708.14 0.693998 -2.17391 0
M  V30 18132 C 1709.12 1.17321 -1.12581 0
M  V30 18133 O 1710.3 1.25144 -1.40965 0
M  V30 18134 C 1707.43 1.94311 -2.77418 0
M  V30 18135 C 1706.47 1.60181 -3.95277 0
M  V30 18136 S 1707.31 0.704877 -5.30841 0
M  V30 18137 C 1708.46 1.96301 -5.94321 0
M  V30 18138 H 1708.7 0.169407 -2.96817 0
M  V30 18139 H 1706.23 -0.0308583 -1.54369 0
M  V30 18140 H 1708.19 2.66022 -3.12638 0
M  V30 18141 H 1706.85 2.43883 -1.97939 0
M  V30 18142 H 1706.04 2.53053 -4.35867 0
M  V30 18143 H 1705.64 0.965141 -3.61332 0
M  V30 18144 H 1707.93 2.91031 -6.11806 0
M  V30 18145 H 1708.88 1.6006 -6.89773 0
M  V30 18146 H 1709.29 2.11487 -5.23387 0
M  V30 18147 N 1708.68 1.57577 0.026722 0
M  V30 18148 C 1709.93 1.89005 0.715645 0
M  V30 18149 C 1710.25 0.844388 1.7577 0
M  V30 18150 O 1709.52 -0.121693 1.95522 0
M  V30 18151 H 1708.1 0.697535 0.267308 0
M  V30 18152 H 1710.76 1.94898 -0.00788096 0
M  V30 18153 H 1709.86 2.87952 1.20374 0
M  V30 18154 N 1710.16 -0.299034 1.54737 0
M  V30 18155 C 1711.09 -1.39055 1.82199 0
M  V30 18156 C 1712.11 -1.46741 0.705038 0
M  V30 18157 O 1713.3 -1.49025 0.982543 0
M  V30 18158 C 1710.4 -2.7741 1.94671 0
M  V30 18159 C 1709.57 -2.92633 3.25092 0
M  V30 18160 C 1708.63 -4.11499 3.27956 0
M  V30 18161 O 1707.65 -4.03491 4.01477 0
M  V30 18162 N 1708.86 -5.2223 2.53488 0
M  V30 18163 H 1711.62 -1.15852 2.76402 0
M  V30 18164 H 1709.18 -0.489108 1.54335 0
M  V30 18165 H 1711.17 -3.55178 1.93987 0
M  V30 18166 H 1709.74 -2.93552 1.07453 0
M  V30 18167 H 1708.96 -2.01962 3.38534 0
M  V30 18168 H 1710.25 -2.99716 4.11154 0
M  V30 18169 H 1709.65 -5.31617 1.93391 0
M  V30 18170 H 1708.21 -5.98325 2.58555 0
M  V30 18171 N 1711.64 -1.47227 -0.562322 0
M  V30 18172 C 1712.55 -1.61953 -1.69731 0
M  V30 18173 C 1713.57 -0.502478 -1.66587 0
M  V30 18174 O 1714.74 -0.769335 -1.86127 0
M  V30 18175 C 1711.81 -1.62539 -3.06238 0
M  V30 18176 C 1710.87 -2.85632 -3.20489 0
M  V30 18177 C 1710.1 -2.86181 -4.50485 0
M  V30 18178 O 1710.32 -1.96099 -5.35632 0
M  V30 18179 O 1709.26 -3.7798 -4.68417 0
M  V30 18180 H 1713.08 -2.5798 -1.6025 0
M  V30 18181 H 1710.67 -1.30253 -0.73174 0
M  V30 18182 H 1712.55 -1.65634 -3.87483 0
M  V30 18183 H 1711.23 -0.696779 -3.16112 0
M  V30 18184 H 1710.13 -2.88084 -2.3866 0
M  V30 18185 H 1711.47 -3.7777 -3.15517 0
M  V30 18186 N 1713.12 0.808639 -1.35273 0
M  V30 18187 C 1714.07 1.90962 -1.24569 0
M  V30 18188 C 1715.05 1.60277 -0.141424 0
M  V30 18189 O 1716.24 1.73037 -0.372451 0
M  V30 18190 C 1713.37 3.27864 -1.01783 0
M  V30 18191 C 1712.46 3.64622 -2.16592 0
M  V30 18192 N 1712.85 3.72831 -3.41805 0
M  V30 18193 C 1711.15 3.94563 -2.07932 0
M  V30 18194 C 1711.85 4.05271 -4.1729 0
M  V30 18195 N 1710.82 4.19246 -3.46025 0
M  V30 18196 H 1714.63 1.95508 -2.1944 0
M  V30 18197 H 1712.14 1.00311 -1.27716 0
M  V30 18198 H 1714.14 4.06576 -0.922037 0
M  V30 18199 H 1712.8 3.24606 -0.0779494 0
M  V30 18200 H 1713.81 3.55961 -3.76181 0
M  V30 18201 H 1710.49 3.99342 -1.21787 0
M  V30 18202 H 1711.88 4.18707 -5.25485 0
M  V30 18203 N 1714.6 1.19237 1.03055 0
M  V30 18204 C 1715.53 0.886348 2.11368 0
M  V30 18205 C 1716.54 -0.120256 1.62355 0
M  V30 18206 O 1717.73 0.108934 1.78167 0
M  V30 18207 C 1714.83 0.304819 3.37526 0
M  V30 18208 C 1714 1.35957 4.15734 0
M  V30 18209 C 1713.06 0.791885 5.20207 0
M  V30 18210 O 1712.09 1.46916 5.49913 0
M  V30 18211 N 1713.29 -0.40564 5.79081 0
M  V30 18212 H 1716.06 1.81867 2.38211 0
M  V30 18213 H 1713.62 1.09414 1.19332 0
M  V30 18214 H 1715.61 -0.0887629 4.04603 0
M  V30 18215 H 1714.18 -0.531744 3.08044 0
M  V30 18216 H 1713.4 1.92806 3.43831 0
M  V30 18217 H 1714.69 2.07034 4.64773 0
M  V30 18218 H 1714.08 -0.973423 5.57262 0
M  V30 18219 H 1712.64 -0.741021 6.47574 0
M  V30 18220 N 1716.07 -1.22136 0.99602 0
M  V30 18221 C 1717.3 -1.94696 0.691168 0
M  V30 18222 C 1717.71 -1.73754 -0.748749 0
M  V30 18223 O 1717.06 -1.03561 -1.51726 0
M  V30 18224 C 1717.12 -3.47498 0.921152 0
M  V30 18225 C 1716.78 -3.92179 2.34616 0
M  V30 18226 C 1717.78 -3.99603 3.32585 0
M  V30 18227 C 1715.46 -4.24741 2.68142 0
M  V30 18228 C 1717.46 -4.38968 4.62153 0
M  V30 18229 C 1715.14 -4.63785 3.97928 0
M  V30 18230 C 1716.14 -4.70867 4.94745 0
M  V30 18231 O 1715.83 -5.09026 6.22212 0
M  V30 18232 H 1715.56 -0.626231 0.25458 0
M  V30 18233 H 1718.12 -1.56152 1.33438 0
M  V30 18234 H 1716.35 -3.86069 0.220769 0
M  V30 18235 H 1718.04 -4.01274 0.61107 0
M  V30 18236 H 1718.8 -3.74634 3.08017 0
M  V30 18237 H 1714.68 -4.18431 1.93485 0
M  V30 18238 H 1718.22 -4.44411 5.37721 0
M  V30 18239 H 1714.12 -4.88207 4.22285 0
M  V30 18240 H 1714.89 -5.27089 6.26195 0
M  V30 18241 N 1717.55 -0.769612 -1.37531 0
M  V30 18242 C 1718.5 -0.128018 -2.2764 0
M  V30 18243 C 1719.49 0.67633 -1.45995 0
M  V30 18244 O 1720.68 0.539654 -1.68573 0
M  V30 18245 C 1717.81 0.751936 -3.34964 0
M  V30 18246 C 1716.89 -0.0601264 -4.24057 0
M  V30 18247 N 1717.28 -1.10468 -4.93589 0
M  V30 18248 C 1715.58 0.164189 -4.45698 0
M  V30 18249 C 1716.28 -1.59737 -5.59338 0
M  V30 18250 N 1715.26 -0.909912 -5.35931 0
M  V30 18251 H 1719.06 -0.927797 -2.78871 0
M  V30 18252 H 1716.58 -0.607165 -1.50623 0
M  V30 18253 H 1718.57 1.22733 -3.98425 0
M  V30 18254 H 1717.23 1.55049 -2.85289 0
M  V30 18255 H 1718.24 -1.48679 -4.961 0
M  V30 18256 H 1714.92 0.934815 -4.069 0
M  V30 18257 H 1716.31 -2.46835 -6.24918 0
M  V30 18258 N 1719.03 1.48775 -0.519977 0
M  V30 18259 C 1720.26 2.07394 0.0161061 0
M  V30 18260 C 1720.68 1.37532 1.28322 0
M  V30 18261 O 1720.04 0.438049 1.75928 0
M  V30 18262 C 1720.09 3.59844 0.233382 0
M  V30 18263 O 1719.19 3.91235 1.30418 0
M  V30 18264 H 1718.53 0.663094 -0.0346678 0
M  V30 18265 H 1721.06 1.91323 -0.725029 0
M  V30 18266 H 1721.07 4.05409 0.45911 0
M  V30 18267 H 1719.75 4.10098 -0.69229 0
M  V30 18268 H 1718.32 3.5746 1.0619 0
M  V30 18269 N 1720.51 0.254649 1.55529 0
M  V30 18270 C 1721.46 -0.64162 2.21702 0
M  V30 18271 C 1722.43 -1.16544 1.1835 0
M  V30 18272 O 1723.61 -1.2185 1.46824 0
M  V30 18273 C 1720.75 -1.82935 2.92624 0
M  V30 18274 C 1719.86 -1.34132 4.10649 0
M  V30 18275 C 1719 -2.48922 4.69267 0
M  V30 18276 C 1718.04 -1.9702 5.79525 0
M  V30 18277 N 1717.17 -3.05206 6.32293 0
M  V30 18278 H 1722.01 -0.0706476 2.97916 0
M  V30 18279 H 1719.55 -0.0231077 1.47082 0
M  V30 18280 H 1721.51 -2.52719 3.31947 0
M  V30 18281 H 1720.14 -2.37267 2.1887 0
M  V30 18282 H 1719.19 -0.53726 3.76587 0
M  V30 18283 H 1720.5 -0.921003 4.90223 0
M  V30 18284 H 1719.66 -3.26735 5.11203 0
M  V30 18285 H 1718.4 -2.94259 3.88925 0
M  V30 18286 H 1717.4 -1.17679 5.37058 0
M  V30 18287 H 1718.63 -1.52643 6.61723 0
M  V30 18288 H 1716.57 -3.49963 5.54853 0
M  V30 18289 H 1716.49 -2.67528 7.07082 0
M  V30 18290 H 1717.76 -3.83055 6.78888 0
M  V30 18291 N 1721.99 -1.57589 -0.0183649 0
M  V30 18292 C 1723.24 -1.88937 -0.706105 0
M  V30 18293 C 1723.55 -0.854565 -1.75945 0
M  V30 18294 O 1724.75 -1.05763 -2.50053 0
M  V30 18295 C 1723.21 -3.35329 -1.307 0
M  V30 18296 C 1722.82 -4.47064 -0.289444 0
M  V30 18297 C 1724.56 -3.75811 -1.97399 0
M  V30 18298 C 1722.47 -5.84523 -0.899288 0
M  V30 18299 H 1721.4 -0.704959 -0.267486 0
M  V30 18300 H 1724.05 -1.83458 0.0391685 0
M  V30 18301 H 1722.43 -3.35586 -2.10233 0
M  V30 18302 H 1723.61 -4.58294 0.479958 0
M  V30 18303 H 1721.92 -4.15484 0.276066 0
M  V30 18304 H 1724.52 -4.75834 -2.43898 0
M  V30 18305 H 1724.86 -3.08362 -2.79676 0
M  V30 18306 H 1725.39 -3.77774 -1.24626 0
M  V30 18307 H 1722.13 -6.55398 -0.11571 0
M  V30 18308 H 1721.65 -5.76993 -1.63828 0
M  V30 18309 H 1723.33 -6.31595 -1.40344 0
M  V30 18310 N 1723.46 0.290824 -1.54893 0
M  V30 18311 C 1724.74 1.04495 -1.65348 0
M  V30 18312 C 1725.12 2.04888 -0.508348 0
M  V30 18313 O 1724.47 2.23102 0.493749 0
M  V30 18314 C 1724.68 1.71772 -3.03801 0
M  V30 18315 C 1726.03 2.23595 -3.60958 0
M  V30 18316 O 1727.05 1.81788 -3.06319 0
M  V30 18317 O 1725.91 3.00225 -4.56648 0
M  V30 18318 H 1723 0.483605 -0.670862 0
M  V30 18319 H 1725.55 0.288101 -1.67237 0
M  V30 18320 H 1724.32 0.989296 -3.78588 0
M  V30 18321 H 1723.95 2.54188 -3.05735 0
M  V30 18322 N 1724.94 1.47523 0.554506 0
M  V30 18323 C 1725.85 1.62851 1.68869 0
M  V30 18324 C 1726.87 0.511305 1.66318 0
M  V30 18325 O 1728.04 0.779195 1.85716 0
M  V30 18326 C 1725.11 1.64161 3.05372 0
M  V30 18327 C 1724.17 2.87327 3.1897 0
M  V30 18328 C 1723.4 2.88566 4.48961 0
M  V30 18329 O 1723.63 1.98937 5.34584 0
M  V30 18330 O 1722.56 3.80459 4.66406 0
M  V30 18331 H 1726.39 2.58826 1.5888 0
M  V30 18332 H 1723.97 1.3064 0.724822 0
M  V30 18333 H 1725.85 1.67686 3.866 0
M  V30 18334 H 1724.53 0.713534 3.15738 0
M  V30 18335 H 1723.44 2.89345 2.37129 0
M  V30 18336 H 1724.77 3.79438 3.13509 0
M  V30 18337 N 1726.42 -0.801453 1.357 0
M  V30 18338 C 1727.35 -1.92807 1.31711 0
M  V30 18339 C 1728.33 -1.69028 0.190642 0
M  V30 18340 O 1729.52 -1.90317 0.38641 0
M  V30 18341 C 1726.65 -3.29635 1.09352 0
M  V30 18342 C 1725.6 -3.67908 2.18695 0
M  V30 18343 C 1724.93 -5.02955 1.81494 0
M  V30 18344 C 1726.23 -3.77749 3.60698 0
M  V30 18345 H 1727.92 -1.96401 2.2598 0
M  V30 18346 H 1725.47 -0.943528 1.08782 0
M  V30 18347 H 1727.42 -4.08058 1.052 0
M  V30 18348 H 1726.14 -3.26396 0.115306 0
M  V30 18349 H 1724.8 -2.91775 2.21952 0
M  V30 18350 H 1724.45 -4.96225 0.822776 0
M  V30 18351 H 1724.15 -5.29533 2.54692 0
M  V30 18352 H 1725.67 -5.83811 1.78876 0
M  V30 18353 H 1727.09 -4.4639 3.59734 0
M  V30 18354 H 1725.49 -4.15801 4.327 0
M  V30 18355 H 1726.56 -2.79167 3.96477 0
M  V30 18356 N 1727.9 -1.19782 -1.02421 0
M  V30 18357 C 1729.15 -0.997598 -1.75302 0
M  V30 18358 C 1729.46 0.471843 -1.89824 0
M  V30 18359 O 1730.67 0.790999 -2.59722 0
M  V30 18360 C 1729.12 -1.73608 -3.15259 0
M  V30 18361 C 1728.73 -3.24594 -3.08776 0
M  V30 18362 C 1730.47 -1.61927 -3.92403 0
M  V30 18363 C 1728.38 -3.91012 -4.43693 0
M  V30 18364 H 1727.31 -0.369643 -0.657176 0
M  V30 18365 H 1729.96 -1.43325 -1.14587 0
M  V30 18366 H 1728.34 -1.22826 -3.7647 0
M  V30 18367 H 1729.52 -3.82531 -2.56918 0
M  V30 18368 H 1727.83 -3.36603 -2.45127 0
M  V30 18369 H 1730.43 -2.08896 -4.92206 0
M  V30 18370 H 1730.77 -0.574192 -4.12321 0
M  V30 18371 H 1731.31 -2.10081 -3.37803 0
M  V30 18372 H 1728.05 -4.95639 -4.28979 0
M  V30 18373 H 1727.57 -3.37864 -4.95588 0
M  V30 18374 H 1729.24 -3.94828 -5.12562 0
M  V30 18375 N 1729.38 1.21606 -1.00248 0
M  V30 18376 C 1730.29 2.2757 -0.570004 0
M  V30 18377 C 1731.3 1.69669 0.385788 0
M  V30 18378 O 1732.48 1.99839 0.250246 0
M  V30 18379 C 1729.54 3.46558 0.0990566 0
M  V30 18380 C 1728.61 4.19741 -0.9009 0
M  V30 18381 C 1727.84 5.33048 -0.263673 0
M  V30 18382 O 1728.06 5.62599 0.940131 0
M  V30 18383 O 1727 5.93978 -0.973342 0
M  V30 18384 H 1730.82 2.66751 -1.45182 0
M  V30 18385 H 1728.41 1.27955 -0.771224 0
M  V30 18386 H 1730.29 4.18733 0.47339 0
M  V30 18387 H 1728.96 3.09283 0.955285 0
M  V30 18388 H 1727.87 3.49798 -1.32634 0
M  V30 18389 H 1729.2 4.60921 -1.72664 0
M  V30 18390 N 1730.86 0.776895 1.37121 0
M  V30 18391 C 1731.77 0.167552 2.34001 0
M  V30 18392 C 1732.78 -0.673609 1.60432 0
M  V30 18393 O 1733.96 -0.592327 1.92493 0
M  V30 18394 C 1731.02 -0.697343 3.39615 0
M  V30 18395 C 1730.08 0.160869 4.28998 0
M  V30 18396 C 1729.32 -0.662841 5.29568 0
M  V30 18397 O 1729.54 -1.89962 5.37839 0
M  V30 18398 O 1728.47 -0.0693304 6.0186 0
M  V30 18399 H 1732.3 0.968247 2.87852 0
M  V30 18400 H 1729.88 0.538137 1.39372 0
M  V30 18401 H 1731.77 -1.19094 4.04221 0
M  V30 18402 H 1730.44 -1.47614 2.88083 0
M  V30 18403 H 1729.35 0.700941 3.67475 0
M  V30 18404 H 1730.68 0.902875 4.83848 0
M  V30 18405 N 1732.33 -1.48497 0.527859 0
M  V30 18406 C 1733.56 -2.069 -0.00302594 0
M  V30 18407 C 1733.98 -1.38469 -1.28342 0
M  V30 18408 O 1733.33 -0.471524 -1.76303 0
M  V30 18409 C 1733.38 -3.60749 -0.232871 0
M  V30 18410 O 1733.11 -4.26609 0.996797 0
M  V30 18411 C 1734.61 -4.35941 -0.804376 0
M  V30 18412 H 1731.83 -0.67021 0.0325559 0
M  V30 18413 H 1734.37 -1.90916 0.732897 0
M  V30 18414 H 1732.53 -3.76346 -0.918837 0
M  V30 18415 H 1732.94 -5.18725 0.776217 0
M  V30 18416 H 1734.41 -5.4437 -0.914635 0
M  V30 18417 H 1734.89 -4.00225 -1.80876 0
M  V30 18418 H 1735.5 -4.25017 -0.155041 0
M  V30 18419 N 1733.81 -0.262893 -1.55392 0
M  V30 18420 C 1735.06 0.357895 -1.99617 0
M  V30 18421 C 1735.39 1.56415 -1.151 0
M  V30 18422 O 1734.67 1.93273 -0.218139 0
M  V30 18423 C 1734.95 0.752095 -3.52158 0
M  V30 18424 C 1734.8 -0.460658 -4.47435 0
M  V30 18425 C 1736.12 1.59314 -4.10253 0
M  V30 18426 H 1733.24 0.128612 -0.725691 0
M  V30 18427 H 1735.88 -0.367399 -1.86414 0
M  V30 18428 H 1734.03 1.37006 -3.6354 0
M  V30 18429 H 1735.7 -1.09918 -4.48013 0
M  V30 18430 H 1733.95 -1.10093 -4.19597 0
M  V30 18431 H 1734.62 -0.141262 -5.51819 0
M  V30 18432 H 1737.09 1.07135 -4.02071 0
M  V30 18433 H 1735.97 1.83779 -5.1722 0
M  V30 18434 H 1736.23 2.57022 -3.59711 0
M  V30 18435 N 1735.29 1.57597 0.0100073 0
M  V30 18436 C 1736.24 2.07788 1.00463 0
M  V30 18437 C 1737.21 0.971101 1.34755 0
M  V30 18438 O 1738.39 1.2429 1.44764 0
M  V30 18439 C 1735.53 2.57769 2.29454 0
M  V30 18440 C 1734.64 3.8231 2.01153 0
M  V30 18441 C 1733.78 4.2083 3.24154 0
M  V30 18442 C 1732.82 5.38236 2.91494 0
M  V30 18443 N 1731.96 5.72096 4.07001 0
M  V30 18444 H 1736.8 2.92504 0.569675 0
M  V30 18445 H 1734.33 1.44607 0.269645 0
M  V30 18446 H 1736.29 2.84821 3.04849 0
M  V30 18447 H 1734.92 1.75942 2.70637 0
M  V30 18448 H 1733.97 3.62227 1.16171 0
M  V30 18449 H 1735.28 4.67811 1.73074 0
M  V30 18450 H 1734.44 4.49111 4.07902 0
M  V30 18451 H 1733.18 3.34019 3.55363 0
M  V30 18452 H 1732.18 5.09688 2.06151 0
M  V30 18453 H 1733.41 6.26716 2.61543 0
M  V30 18454 H 1731.35 4.88243 4.38126 0
M  V30 18455 H 1731.27 6.52148 3.82411 0
M  V30 18456 H 1732.54 6.04964 4.91567 0
M  V30 18457 N 1736.77 -0.282606 1.55045 0
M  V30 18458 C 1737.68 -1.37129 1.90349 0
M  V30 18459 C 1738.69 -1.54537 0.799639 0
M  V30 18460 O 1739.87 -1.68849 1.09782 0
M  V30 18461 C 1736.93 -2.71211 2.15975 0
M  V30 18462 C 1736 -2.62632 3.39592 0
M  V30 18463 C 1735.23 -3.90319 3.63987 0
M  V30 18464 O 1735.45 -4.90551 2.9106 0
M  V30 18465 O 1734.39 -3.91102 4.57518 0
M  V30 18466 H 1738.21 -1.10189 2.83006 0
M  V30 18467 H 1735.8 -0.480293 1.41469 0
M  V30 18468 H 1737.68 -3.50509 2.33926 0
M  V30 18469 H 1736.35 -2.97958 1.26503 0
M  V30 18470 H 1735.26 -1.81743 3.26987 0
M  V30 18471 H 1736.59 -2.40836 4.29254 0
M  V30 18472 N 1738.25 -1.47815 -0.546675 0
M  V30 18473 C 1739.18 -1.55643 -1.66884 0
M  V30 18474 C 1740.16 -0.407884 -1.57401 0
M  V30 18475 O 1741.34 -0.617164 -1.7811 0
M  V30 18476 C 1738.47 -1.46883 -3.05193 0
M  V30 18477 C 1737.51 -2.66372 -3.33089 0
M  V30 18478 S 1738.35 -4.28485 -3.21187 0
M  V30 18479 C 1739.5 -4.22295 -4.61971 0
M  V30 18480 H 1739.74 -2.5058 -1.59991 0
M  V30 18481 H 1737.27 -1.36142 -0.728331 0
M  V30 18482 H 1739.23 -1.42516 -3.84967 0
M  V30 18483 H 1737.89 -0.533133 -3.09542 0
M  V30 18484 H 1737.08 -2.56335 -4.33945 0
M  V30 18485 H 1736.68 -2.67915 -2.60955 0
M  V30 18486 H 1738.97 -3.91199 -5.53145 0
M  V30 18487 H 1739.92 -5.23274 -4.77064 0
M  V30 18488 H 1740.33 -3.53001 -4.40512 0
M  V30 18489 N 1739.72 0.794246 -1.36123 0
M  V30 18490 C 1740.97 1.54708 -1.29416 0
M  V30 18491 C 1741.29 1.95195 0.125849 0
M  V30 18492 O 1742.49 2.69663 0.315271 0
M  V30 18493 C 1740.95 2.79256 -2.27034 0
M  V30 18494 C 1740.56 2.45957 -3.74445 0
M  V30 18495 C 1742.3 3.57246 -2.29294 0
M  V30 18496 C 1740.21 3.66871 -4.63853 0
M  V30 18497 H 1739.14 0.580743 -0.480888 0
M  V30 18498 H 1741.79 0.871975 -1.61458 0
M  V30 18499 H 1740.17 3.4854 -1.87979 0
M  V30 18500 H 1741.34 1.846 -4.22208 0
M  V30 18501 H 1739.66 1.81187 -3.74913 0
M  V30 18502 H 1742.26 4.47076 -2.93304 0
M  V30 18503 H 1742.6 3.95478 -1.30011 0
M  V30 18504 H 1743.13 2.94936 -2.66941 0
M  V30 18505 H 1739.87 3.33739 -5.6418 0
M  V30 18506 H 1739.39 4.27411 -4.20809 0
M  V30 18507 H 1741.07 4.33957 -4.79886 0
M  V30 18508 N 1741.2 1.20323 1.01785 0
M  V30 18509 C 1742.43 1.03821 1.78966 0
M  V30 18510 C 1742.84 -0.412622 1.84236 0
M  V30 18511 O 1742.2 -1.2865 1.29443 0
M  V30 18512 C 1742.25 1.61352 3.23493 0
M  V30 18513 O 1741.97 3.00758 3.18553 0
M  V30 18514 C 1743.47 1.49786 4.17228 0
M  V30 18515 H 1740.69 0.365291 0.562853 0
M  V30 18516 H 1743.24 1.59383 1.2813 0
M  V30 18517 H 1741.39 1.09913 3.71481 0
M  V30 18518 H 1741.81 3.28034 4.09261 0
M  V30 18519 H 1743.28 1.94802 5.16484 0
M  V30 18520 H 1743.76 0.450143 4.36887 0
M  V30 18521 H 1744.36 2.00409 3.75122 0
M  V30 18522 N 1742.68 -1.21073 1.00892 0
M  V30 18523 C 1743.61 -2.25847 0.592897 0
M  V30 18524 C 1744.59 -1.6561 -0.38824 0
M  V30 18525 O 1745.78 -1.92238 -0.275361 0
M  V30 18526 C 1742.91 -3.47214 -0.0773439 0
M  V30 18527 C 1741.86 -4.19994 0.82398 0
M  V30 18528 C 1741.19 -5.34696 0.0199341 0
M  V30 18529 C 1742.49 -4.76964 2.12844 0
M  V30 18530 H 1744.18 -2.609 1.46873 0
M  V30 18531 H 1741.73 -1.25412 0.707656 0
M  V30 18532 H 1743.68 -4.19684 -0.379889 0
M  V30 18533 H 1742.4 -3.11303 -0.987833 0
M  V30 18534 H 1741.06 -3.49379 1.11041 0
M  V30 18535 H 1740.71 -4.95028 -0.891966 0
M  V30 18536 H 1740.41 -5.84319 0.620102 0
M  V30 18537 H 1741.93 -6.09974 -0.276336 0
M  V30 18538 H 1743.35 -5.41293 1.88878 0
M  V30 18539 H 1741.74 -5.36992 2.67879 0
M  V30 18540 H 1742.81 -3.96129 2.79659 0
M  V30 18541 N 1744.16 -0.784156 -1.36707 0
M  V30 18542 C 1745.09 -0.193081 -2.327 0
M  V30 18543 C 1746.07 0.668999 -1.56392 0
M  V30 18544 O 1747.25 0.603908 -1.84571 0
M  V30 18545 C 1744.38 0.677092 -3.40636 0
M  V30 18546 C 1743.34 -0.0846718 -4.27916 0
M  V30 18547 C 1742.66 0.905754 -5.26973 0
M  V30 18548 C 1743.96 -1.27085 -5.06603 0
M  V30 18549 H 1745.66 -0.995029 -2.82382 0
M  V30 18550 H 1743.2 -0.479929 -1.35767 0
M  V30 18551 H 1745.16 1.1005 -4.06776 0
M  V30 18552 H 1743.88 1.51169 -2.89509 0
M  V30 18553 H 1742.54 -0.488992 -3.63324 0
M  V30 18554 H 1742.19 1.73524 -4.72121 0
M  V30 18555 H 1741.89 0.400524 -5.86233 0
M  V30 18556 H 1743.41 1.32784 -5.95987 0
M  V30 18557 H 1744.83 -0.923469 -5.65814 0
M  V30 18558 H 1743.22 -1.70901 -5.7525 0
M  V30 18559 H 1744.29 -2.06882 -4.38552 0
M  V30 18560 N 1745.64 1.48215 -0.535727 0
M  V30 18561 C 1746.88 2.028 -0.00373305 0
M  V30 18562 C 1747.22 1.41143 1.33388 0
M  V30 18563 O 1746.49 0.559227 1.86287 0
M  V30 18564 C 1746.77 3.59925 0.112186 0
M  V30 18565 C 1746.63 4.32053 -1.251 0
M  V30 18566 C 1747.95 4.32083 0.836177 0
M  V30 18567 H 1745.06 0.736995 -0.00283063 0
M  V30 18568 H 1747.71 1.76877 -0.693868 0
M  V30 18569 H 1745.86 3.82142 0.69996 0
M  V30 18570 H 1747.53 4.21238 -1.88033 0
M  V30 18571 H 1745.77 3.93246 -1.83139 0
M  V30 18572 H 1746.44 5.4046 -1.12283 0
M  V30 18573 H 1748.92 4.1473 0.337333 0
M  V30 18574 H 1747.79 5.41699 0.886196 0
M  V30 18575 H 1748.06 3.99772 1.88771 0
M  V30 18576 N 1747.11 0.27113 1.5525 0
M  V30 18577 C 1748.08 -0.604946 2.21072 0
M  V30 18578 C 1749.08 -1.08438 1.18735 0
M  V30 18579 O 1750.27 -0.985192 1.43665 0
M  V30 18580 C 1747.4 -1.83416 2.87353 0
M  V30 18581 H 1748.59 -0.0302981 2.99885 0
M  V30 18582 H 1746.15 0.0217204 1.56285 0
M  V30 18583 H 1746.88 -2.44942 2.12542 0
M  V30 18584 H 1746.67 -1.49834 3.62343 0
M  V30 18585 H 1748.16 -2.45724 3.37653 0
M  V30 18586 N 1748.59 -1.576 -0.00164943 0
M  V30 18587 C 1749.54 -2.08318 -0.993594 0
M  V30 18588 C 1750.51 -0.978234 -1.34238 0
M  V30 18589 O 1751.69 -1.25056 -1.44103 0
M  V30 18590 C 1748.83 -2.58982 -2.28084 0
M  V30 18591 C 1747.95 -3.83372 -1.99123 0
M  V30 18592 C 1747.08 -4.22543 -3.21917 0
M  V30 18593 C 1746.12 -5.39774 -2.88635 0
M  V30 18594 N 1745.26 -5.74247 -4.03962 0
M  V30 18595 H 1750.1 -2.92802 -0.554154 0
M  V30 18596 H 1747.64 -1.44748 -0.261973 0
M  V30 18597 H 1749.59 -2.86434 -3.03334 0
M  V30 18598 H 1748.22 -1.77374 -2.697 0
M  V30 18599 H 1747.28 -3.62838 -1.14248 0
M  V30 18600 H 1748.59 -4.68722 -1.70591 0
M  V30 18601 H 1747.74 -4.51268 -4.05514 0
M  V30 18602 H 1746.48 -3.35899 -3.53587 0
M  V30 18603 H 1745.49 -5.10774 -2.03445 0
M  V30 18604 H 1746.71 -6.28094 -2.58215 0
M  V30 18605 H 1744.66 -4.9056 -4.35531 0
M  V30 18606 H 1744.57 -6.54167 -3.78948 0
M  V30 18607 H 1745.84 -6.07563 -4.88352 0
M  V30 18608 N 1750.07 0.274379 -1.55193 0
M  V30 18609 C 1751.32 1.00617 -1.75734 0
M  V30 18610 C 1751.65 1.86334 -0.557679 0
M  V30 18611 O 1750.9 1.90221 0.459848 0
M  V30 18612 C 1751.2 1.91958 -3.01475 0
M  V30 18613 C 1750.87 1.22002 -4.34081 0
M  V30 18614 C 1749.53 1.02658 -4.70122 0
M  V30 18615 C 1751.88 0.722087 -5.16174 0
M  V30 18616 C 1749.21 0.322465 -5.85813 0
M  V30 18617 C 1751.56 0.0315683 -6.32592 0
M  V30 18618 C 1750.22 -0.173595 -6.67274 0
M  V30 18619 H 1749.49 0.368182 -0.643058 0
M  V30 18620 H 1752.14 0.278579 -1.89463 0
M  V30 18621 H 1750.45 2.71333 -2.8264 0
M  V30 18622 H 1752.14 2.48698 -3.14564 0
M  V30 18623 H 1748.73 1.3807 -4.05752 0
M  V30 18624 H 1752.92 0.859163 -4.88807 0
M  V30 18625 H 1748.17 0.152775 -6.11209 0
M  V30 18626 H 1752.35 -0.362033 -6.95458 0
M  V30 18627 H 1749.97 -0.721178 -7.56771 0
M  V30 18628 N 1751.55 1.48103 0.538828 0
M  V30 18629 C 1752.79 1.559 1.29704 0
M  V30 18630 C 1753.13 0.228359 1.92853 0
M  V30 18631 O 1752.4 -0.764825 1.78831 0
M  V30 18632 C 1752.69 2.69072 2.39316 0
M  V30 18633 C 1752.54 4.11812 1.80916 0
M  V30 18634 C 1753.86 2.78051 3.41138 0
M  V30 18635 H 1750.98 0.5675 0.470226 0
M  V30 18636 H 1753.62 1.80239 0.601163 0
M  V30 18637 H 1751.77 2.4845 2.98672 0
M  V30 18638 H 1753.44 4.4385 1.25679 0
M  V30 18639 H 1751.68 4.19227 1.11494 0
M  V30 18640 H 1752.35 4.86805 2.6024 0
M  V30 18641 H 1754.83 2.96707 2.91726 0
M  V30 18642 H 1753.71 3.58982 4.15239 0
M  V30 18643 H 1753.97 1.85849 4.01139 0
M  V30 18644 N 1753.03 -0.787016 1.36542 0
M  V30 18645 C 1754.25 -1.57588 1.34065 0
M  V30 18646 C 1754.67 -1.88641 -0.0775397 0
M  V30 18647 O 1754.03 -1.50306 -1.03511 0
M  V30 18648 C 1754.08 -2.89543 2.16442 0
M  V30 18649 O 1753.8 -2.59828 3.52734 0
M  V30 18650 C 1755.3 -3.83838 2.21773 0
M  V30 18651 H 1752.52 -0.488708 0.459789 0
M  V30 18652 H 1755.06 -0.976614 1.79673 0
M  V30 18653 H 1753.22 -3.45933 1.74383 0
M  V30 18654 H 1753.63 -3.44219 3.95744 0
M  V30 18655 H 1755.11 -4.73478 2.83765 0
M  V30 18656 H 1755.58 -4.21862 1.22185 0
M  V30 18657 H 1756.19 -3.33381 2.64078 0
M  V30 18658 N 1754.5 -1.20861 -1.01145 0
M  V30 18659 C 1755.75 -1.01613 -1.74234 0
M  V30 18660 C 1756.07 0.451683 -1.90313 0
M  V30 18661 O 1757.27 0.763408 -2.60546 0
M  V30 18662 C 1755.73 -1.76942 -3.134 0
M  V30 18663 C 1755.34 -3.27851 -3.05316 0
M  V30 18664 C 1757.08 -1.6608 -3.90663 0
M  V30 18665 C 1754.99 -3.95696 -4.39521 0
M  V30 18666 H 1753.92 -0.376593 -0.653218 0
M  V30 18667 H 1756.57 -1.44533 -1.1306 0
M  V30 18668 H 1754.95 -1.26812 -3.75146 0
M  V30 18669 H 1756.12 -3.85234 -2.52846 0
M  V30 18670 H 1754.44 -3.39184 -2.41543 0
M  V30 18671 H 1757.04 -2.14105 -4.89963 0
M  V30 18672 H 1757.38 -0.617892 -4.11689 0
M  V30 18673 H 1757.91 -2.13652 -3.35556 0
M  V30 18674 H 1754.65 -5.00161 -4.23697 0
M  V30 18675 H 1754.17 -3.43102 -4.91977 0
M  V30 18676 H 1755.85 -4.00242 -5.08346 0
M  V30 18677 N 1755.98 1.20536 -1.01532 0
M  V30 18678 C 1756.91 2.2553 -0.604866 0
M  V30 18679 C 1757.89 1.65814 0.379452 0
M  V30 18680 O 1759.08 1.92381 0.265162 0
M  V30 18681 C 1756.21 3.4725 0.0589292 0
M  V30 18682 C 1755.16 4.19551 -0.846241 0
M  V30 18683 C 1754.49 5.34678 -0.0482901 0
M  V30 18684 C 1755.79 4.75829 -2.1537 0
M  V30 18685 H 1757.48 2.60117 -1.48254 0
M  V30 18686 H 1755.03 1.25035 -0.714297 0
M  V30 18687 H 1756.98 4.1988 0.357627 0
M  V30 18688 H 1755.71 3.11822 0.97131 0
M  V30 18689 H 1754.36 3.48785 -1.12892 0
M  V30 18690 H 1754.01 4.95494 0.8657 0
M  V30 18691 H 1753.71 5.83982 -0.651081 0
M  V30 18692 H 1755.24 6.10112 0.243983 0
M  V30 18693 H 1756.65 5.40284 -1.91745 0
M  V30 18694 H 1755.05 5.35564 -2.70723 0
M  V30 18695 H 1756.12 3.94641 -2.81756 0
M  V30 18696 N 1757.46 0.791395 1.36289 0
M  V30 18697 C 1758.37 0.192362 2.3381 0
M  V30 18698 C 1759.39 -0.656556 1.61138 0
M  V30 18699 O 1760.56 -0.571877 1.9311 0
M  V30 18700 C 1757.63 -0.661283 3.40335 0
M  V30 18701 C 1756.69 0.206361 4.28804 0
M  V30 18702 C 1755.92 -0.606636 5.30241 0
M  V30 18703 O 1756.14 -1.84247 5.39823 0
M  V30 18704 O 1755.08 -0.00549116 6.019 0
M  V30 18705 H 1758.9 0.998723 2.86809 0
M  V30 18706 H 1756.49 0.552889 1.38793 0
M  V30 18707 H 1758.37 -1.148 4.05461 0
M  V30 18708 H 1757.05 -1.4455 2.89632 0
M  V30 18709 H 1755.95 0.739877 3.66711 0
M  V30 18710 H 1757.29 0.954142 4.82863 0
M  V30 18711 N 1758.94 -1.47929 0.54358 0
M  V30 18712 C 1760.19 -2.02095 0.0144379 0
M  V30 18713 C 1760.51 -1.42166 -1.33469 0
M  V30 18714 O 1759.78 -0.591899 -1.86744 0
M  V30 18715 H 1758.36 -0.746996 0.00234858 0
M  V30 18716 H 1761.02 -1.81488 0.710498 0
M  V30 18717 H 1760.12 -3.11987 -0.0838074 0
M  V30 18718 N 1760.42 -0.27936 -1.55104 0
M  V30 18719 C 1761.66 0.336703 -1.99985 0
M  V30 18720 C 1762 1.55186 -1.16752 0
M  V30 18721 O 1761.27 1.93031 -0.238626 0
M  V30 18722 C 1761.55 0.714701 -3.52936 0
M  V30 18723 C 1761.41 -0.508088 -4.46921 0
M  V30 18724 C 1762.73 1.54953 -4.11919 0
M  V30 18725 H 1759.85 0.120908 -0.727015 0
M  V30 18726 H 1762.49 -0.38715 -1.86014 0
M  V30 18727 H 1760.64 1.33143 -3.64973 0
M  V30 18728 H 1762.31 -1.14664 -4.46822 0
M  V30 18729 H 1760.55 -1.14537 -4.18406 0
M  V30 18730 H 1761.22 -0.199782 -5.51638 0
M  V30 18731 H 1763.7 1.02864 -4.03185 0
M  V30 18732 H 1762.58 1.78282 -5.1914 0
M  V30 18733 H 1762.84 2.53192 -3.62417 0
M  V30 18734 N 1761.9 1.57599 -0.0067085 0
M  V30 18735 C 1762.83 2.11878 0.981331 0
M  V30 18736 C 1763.81 1.02949 1.35408 0
M  V30 18737 O 1764.99 1.30667 1.43665 0
M  V30 18738 C 1762.12 2.62757 2.27104 0
M  V30 18739 C 1761.08 3.76272 2.0397 0
M  V30 18740 C 1760.4 4.13491 3.39012 0
M  V30 18741 C 1761.7 5.03274 1.39688 0
M  V30 18742 H 1763.4 2.94683 0.529366 0
M  V30 18743 H 1760.94 1.41757 0.253187 0
M  V30 18744 H 1762.89 2.99359 2.96585 0
M  V30 18745 H 1761.62 1.77082 2.74426 0
M  V30 18746 H 1760.28 3.40074 1.36913 0
M  V30 18747 H 1759.93 3.24831 3.8405 0
M  V30 18748 H 1759.63 4.89972 3.24347 0
M  V30 18749 H 1761.15 4.52657 4.09797 0
M  V30 18750 H 1762.56 5.37604 1.99136 0
M  V30 18751 H 1760.96 5.84604 1.3549 0
M  V30 18752 H 1762.03 4.8351 0.366928 0
M  V30 18753 N 1763.37 -0.266145 1.55336 0
M  V30 18754 C 1764.34 -1.31242 1.87904 0
M  V30 18755 C 1765.34 -1.42022 0.754083 0
M  V30 18756 O 1766.53 -1.41054 1.02222 0
M  V30 18757 C 1763.66 -2.69285 2.09041 0
M  V30 18758 H 1764.85 -1.03592 2.81441 0
M  V30 18759 H 1762.4 -0.504537 1.47933 0
M  V30 18760 H 1763.14 -3.02106 1.17909 0
M  V30 18761 H 1762.92 -2.62846 2.90954 0
M  V30 18762 H 1764.41 -3.4487 2.35488 0
M  V30 18763 N 1764.85 -1.48386 -0.530967 0
M  V30 18764 C 1765.8 -1.62835 -1.63564 0
M  V30 18765 C 1766.77 -0.470453 -1.59298 0
M  V30 18766 O 1767.95 -0.693813 -1.77738 0
M  V30 18767 C 1765.09 -1.67314 -3.01828 0
M  V30 18768 C 1764.21 -2.94204 -3.16335 0
M  V30 18769 C 1763.34 -2.8985 -4.45152 0
M  V30 18770 C 1762.38 -4.11449 -4.53185 0
M  V30 18771 N 1761.52 -4.05178 -5.7339 0
M  V30 18772 H 1766.36 -2.57172 -1.50554 0
M  V30 18773 H 1763.89 -1.27537 -0.732991 0
M  V30 18774 H 1765.85 -1.67892 -3.81927 0
M  V30 18775 H 1764.48 -0.764688 -3.13612 0
M  V30 18776 H 1763.53 -3.03375 -2.29495 0
M  V30 18777 H 1764.85 -3.84179 -3.18132 0
M  V30 18778 H 1764 -2.88824 -5.33541 0
M  V30 18779 H 1762.74 -1.97602 -4.45875 0
M  V30 18780 H 1761.74 -4.12751 -3.63203 0
M  V30 18781 H 1762.97 -5.04855 -4.54201 0
M  V30 18782 H 1760.92 -3.15749 -5.75012 0
M  V30 18783 H 1760.83 -4.88857 -5.76676 0
M  V30 18784 H 1762.1 -4.08209 -6.64067 0
M  V30 18785 N 1766.33 0.779763 -1.36958 0
M  V30 18786 C 1767.26 1.90687 -1.34762 0
M  V30 18787 C 1768.24 1.68704 -0.217508 0
M  V30 18788 O 1769.43 1.89678 -0.416639 0
M  V30 18789 C 1766.56 3.27854 -1.14582 0
M  V30 18790 C 1765.51 3.64383 -2.2452 0
M  V30 18791 C 1764.84 5.00004 -1.89473 0
M  V30 18792 C 1766.14 3.71963 -3.66662 0
M  V30 18793 H 1767.83 1.92781 -2.29076 0
M  V30 18794 H 1765.38 0.926102 -1.10269 0
M  V30 18795 H 1767.33 4.06332 -1.11678 0
M  V30 18796 H 1766.05 3.26172 -0.167218 0
M  V30 18797 H 1764.71 2.88207 -2.26566 0
M  V30 18798 H 1764.36 4.94853 -0.901617 0
M  V30 18799 H 1764.06 5.25414 -2.63085 0
M  V30 18800 H 1765.58 5.80892 -1.88141 0
M  V30 18801 H 1767 4.40611 -3.6679 0
M  V30 18802 H 1765.39 4.08864 -4.39261 0
M  V30 18803 H 1766.46 2.72824 -4.00868 0
M  V30 18804 N 1767.81 1.21396 1.00503 0
M  V30 18805 C 1769.03 1.05791 1.7839 0
M  V30 18806 C 1769.46 -0.387921 1.84056 0
M  V30 18807 O 1768.82 -1.27983 1.28413 0
M  V30 18808 C 1768.86 1.65967 3.20137 0
M  V30 18809 O 1767.97 0.905123 4.02345 0
M  V30 18810 H 1767.31 0.372331 0.549787 0
M  V30 18811 H 1769.84 1.60938 1.26334 0
M  V30 18812 H 1769.85 1.70186 3.70811 0
M  V30 18813 H 1768.52 2.71185 3.15327 0
M  V30 18814 H 1767.1 0.938019 3.60909 0
M  V30 18815 N 1769.29 -1.19996 1.0217 0
M  V30 18816 C 1770.7 -1.4154 0.737473 0
M  V30 18817 C 1770.9 -1.89649 -0.680832 0
M  V30 18818 O 1769.96 -2.06865 -1.44787 0
M  V30 18819 C 1771.27 -2.43269 1.76751 0
M  V30 18820 C 1772.82 -2.57027 1.78623 0
M  V30 18821 C 1773.29 -3.62003 2.80567 0
M  V30 18822 N 1774.78 -3.69492 2.79339 0
M  V30 18823 C 1775.52 -4.50391 3.54874 0
M  V30 18824 N 1775.02 -5.35053 4.40103 0
M  V30 18825 N 1776.81 -4.44972 3.43448 0
M  V30 18826 H 1768.96 -0.870855 1.93726 0
M  V30 18827 H 1771.22 -0.444866 0.837137 0
M  V30 18828 H 1770.93 -2.14927 2.78387 0
M  V30 18829 H 1770.8 -3.42336 1.58386 0
M  V30 18830 H 1773.19 -2.84695 0.776695 0
M  V30 18831 H 1773.27 -1.58138 2.01062 0
M  V30 18832 H 1772.91 -3.35078 3.81687 0
M  V30 18833 H 1772.84 -4.60526 2.55388 0
M  V30 18834 H 1775.34 -3.09021 2.17518 0
M  V30 18835 H 1775.65 -5.93881 4.94495 0
M  V30 18836 H 1773.99 -5.34538 4.44178 0
M  V30 18837 H 1777.18 -3.77869 2.76283 0
M  V30 18838 H 1777.36 -5.07782 4.02569 0
M  V30 18839 N 1770.76 -0.798611 -1.35867 0
M  V30 18840 C 1771.99 -0.386918 -2.02945 0
M  V30 18841 C 1772.4 1.00438 -1.6034 0
M  V30 18842 O 1771.74 1.65716 -0.792719 0
M  V30 18843 C 1771.81 -0.381754 -3.57467 0
M  V30 18844 C 1771.47 -1.72219 -4.23308 0
M  V30 18845 C 1772.47 -2.67919 -4.45551 0
M  V30 18846 C 1770.15 -2.00402 -4.60591 0
M  V30 18847 C 1772.15 -3.8999 -5.04169 0
M  V30 18848 C 1769.83 -3.22737 -5.18926 0
M  V30 18849 C 1770.83 -4.1735 -5.40655 0
M  V30 18850 O 1770.52 -5.37527 -5.97762 0
M  V30 18851 H 1770.25 -0.156344 -0.657672 0
M  V30 18852 H 1772.81 -1.08128 -1.74635 0
M  V30 18853 H 1771.04 0.369157 -3.84934 0
M  V30 18854 H 1772.72 0.00653107 -4.05899 0
M  V30 18855 H 1773.49 -2.47436 -4.17134 0
M  V30 18856 H 1769.37 -1.27573 -4.42997 0
M  V30 18857 H 1772.91 -4.6385 -5.21046 0
M  V30 18858 H 1768.81 -3.43094 -5.46769 0
M  V30 18859 H 1769.58 -5.38716 -6.16221 0
M  V30 18860 N 1772.24 1.47639 -0.551417 0
M  V30 18861 C 1773.52 1.95559 0.0401983 0
M  V30 18862 C 1773.9 1.49396 1.49144 0
M  V30 18863 O 1773.25 0.730148 2.1652 0
M  V30 18864 C 1773.46 3.48859 -0.0992677 0
M  V30 18865 C 1774.8 4.24572 0.0490517 0
M  V30 18866 O 1775.83 3.5619 -0.026527 0
M  V30 18867 O 1774.69 5.46094 0.210638 0
M  V30 18868 H 1771.78 0.824251 0.0673694 0
M  V30 18869 H 1774.33 1.58065 -0.617532 0
M  V30 18870 H 1773.1 3.75245 -1.10936 0
M  V30 18871 H 1772.72 3.93102 0.596339 0
M  V30 18872 N 1773.72 0.287581 1.54954 0
M  V30 18873 C 1774.63 -0.604236 2.26685 0
M  V30 18874 C 1775.65 -1.1597 1.29719 0
M  V30 18875 O 1776.82 -1.18735 1.62678 0
M  V30 18876 C 1773.89 -1.76612 2.98344 0
M  V30 18877 C 1772.95 -1.24608 4.10818 0
M  V30 18878 C 1772.18 -2.35258 4.7905 0
M  V30 18879 O 1772.4 -3.54879 4.46561 0
M  V30 18880 O 1771.34 -2.02709 5.66739 0
M  V30 18881 H 1775.16 -0.0227663 3.03691 0
M  V30 18882 H 1772.75 0.0545243 1.493 0
M  V30 18883 H 1774.63 -2.44332 3.43336 0
M  V30 18884 H 1773.31 -2.33444 2.24244 0
M  V30 18885 H 1772.21 -0.53498 3.70255 0
M  V30 18886 H 1773.55 -0.723348 4.86856 0
M  V30 18887 N 1775.2 -1.57593 0.0150662 0
M  V30 18888 C 1776.45 -1.90836 -0.665282 0
M  V30 18889 C 1776.77 -0.890693 -1.73469 0
M  V30 18890 O 1776.04 0.0698113 -1.95776 0
M  V30 18891 H 1774.62 -0.704377 -0.24872 0
M  V30 18892 H 1777.28 -1.94809 0.0595521 0
M  V30 18893 H 1776.38 -2.91043 -1.12697 0
M  V30 18894 N 1776.68 0.257904 -1.55475 0
M  V30 18895 C 1777.9 1.00531 -1.80834 0
M  V30 18896 C 1778.32 1.79369 -0.589263 0
M  V30 18897 O 1777.68 1.77068 0.441935 0
M  V30 18898 C 1777.73 1.95194 -3.04272 0
M  V30 18899 O 1777.45 1.19548 -4.21473 0
M  V30 18900 C 1778.95 2.81624 -3.42349 0
M  V30 18901 H 1776.17 0.296315 -0.602029 0
M  V30 18902 H 1778.71 0.284118 -2.02517 0
M  V30 18903 H 1776.87 2.62756 -2.84672 0
M  V30 18904 H 1777.28 1.83483 -4.9136 0
M  V30 18905 H 1778.76 3.43815 -4.31851 0
M  V30 18906 H 1779.23 3.52172 -2.62434 0
M  V30 18907 H 1779.84 2.19531 -3.64261 0
M  V30 18908 N 1778.15 1.48666 0.52309 0
M  V30 18909 C 1779.08 1.666 1.63605 0
M  V30 18910 C 1780.07 0.514803 1.62123 0
M  V30 18911 O 1781.25 0.748138 1.79211 0
M  V30 18912 C 1778.38 1.71199 3.02172 0
M  V30 18913 C 1777.33 2.85888 3.18515 0
M  V30 18914 C 1776.66 2.75582 4.58213 0
M  V30 18915 C 1777.96 4.27104 3.00631 0
M  V30 18916 H 1779.65 2.59776 1.48851 0
M  V30 18917 H 1777.2 1.25014 0.714667 0
M  V30 18918 H 1779.15 1.82333 3.79911 0
M  V30 18919 H 1777.88 0.746066 3.17964 0
M  V30 18920 H 1776.54 2.7432 2.43195 0
M  V30 18921 H 1776.18 1.76944 4.7085 0
M  V30 18922 H 1775.88 3.52545 4.70091 0
M  V30 18923 H 1777.41 2.88693 5.38041 0
M  V30 18924 H 1778.82 4.3947 3.68157 0
M  V30 18925 H 1777.22 5.05119 3.23999 0
M  V30 18926 H 1778.29 4.43087 1.96982 0
M  V30 18927 N 1779.63 -0.772489 1.37369 0
M  V30 18928 C 1780.88 -1.53102 1.32537 0
M  V30 18929 C 1781.21 -1.9429 -0.0903608 0
M  V30 18930 O 1780.46 -1.64286 -1.06342 0
M  V30 18931 C 1780.76 -2.80907 2.20966 0
M  V30 18932 C 1780.43 -2.58775 3.69251 0
M  V30 18933 C 1779.09 -2.52448 4.09663 0
M  V30 18934 C 1781.44 -2.38954 4.63196 0
M  V30 18935 C 1778.77 -2.24288 5.42136 0
M  V30 18936 C 1781.12 -2.12318 5.95906 0
M  V30 18937 C 1779.79 -2.04434 6.35423 0
M  V30 18938 H 1779.06 -0.56024 0.484987 0
M  V30 18939 H 1781.7 -0.889859 1.69569 0
M  V30 18940 H 1780.01 -3.49578 1.76925 0
M  V30 18941 H 1781.7 -3.38782 2.14541 0
M  V30 18942 H 1778.29 -2.64563 3.37201 0
M  V30 18943 H 1782.48 -2.42833 4.32835 0
M  V30 18944 H 1777.73 -2.16679 5.71717 0
M  V30 18945 H 1781.91 -1.95979 6.68255 0
M  V30 18946 H 1779.54 -1.82378 7.37999 0
M  V30 18947 N 1781.11 -1.21927 -0.998575 0
M  V30 18948 C 1782.34 -1.06735 -1.77827 0
M  V30 18949 C 1782.76 0.378154 -1.8426 0
M  V30 18950 O 1782.12 1.27301 -1.2909 0
M  V30 18951 C 1782.17 -1.67662 -3.19252 0
M  V30 18952 O 1781.27 -0.926448 -4.01859 0
M  V30 18953 H 1780.61 -0.375241 -0.547805 0
M  V30 18954 H 1783.14 -1.61605 -1.25478 0
M  V30 18955 H 1783.15 -1.72151 -3.69903 0
M  V30 18956 H 1781.83 -2.72854 -3.13885 0
M  V30 18957 H 1780.4 -0.957145 -3.60407 0
M  V30 18958 N 1782.59 1.19452 -1.02805 0
M  V30 18959 C 1783.81 1.93616 -0.743485 0
M  V30 18960 C 1784.24 1.74934 0.691342 0
M  V30 18961 O 1783.6 1.05111 1.47721 0
M  V30 18962 C 1783.64 3.43451 -1.0988 0
M  V30 18963 O 1782.75 4.11829 -0.216978 0
M  V30 18964 H 1782.09 0.60448 -0.274771 0
M  V30 18965 H 1784.62 1.51554 -1.37451 0
M  V30 18966 H 1784.63 3.94115 -1.05535 0
M  V30 18967 H 1783.3 3.5637 -2.14413 0
M  V30 18968 H 1781.88 3.71533 -0.318954 0
M  V30 18969 N 1784.07 0.805805 1.35442 0
M  V30 18970 C 1785.31 0.385808 1.98791 0
M  V30 18971 C 1785.64 -1.04681 1.63927 0
M  V30 18972 O 1784.9 -1.7408 0.894125 0
M  V30 18973 C 1785.2 0.515335 3.53665 0
M  V30 18974 C 1784.86 1.91115 4.08394 0
M  V30 18975 C 1783.52 2.29302 4.23053 0
M  V30 18976 C 1785.88 2.82437 4.38039 0
M  V30 18977 C 1783.2 3.58182 4.64675 0
M  V30 18978 C 1785.56 4.10762 4.811 0
M  V30 18979 C 1784.22 4.48949 4.93964 0
M  V30 18980 H 1783.49 0.141177 0.727427 0
M  V30 18981 H 1786.14 1.02644 1.61667 0
M  V30 18982 H 1784.44 -0.208753 3.91243 0
M  V30 18983 H 1786.14 0.171152 4.00635 0
M  V30 18984 H 1782.73 1.60446 3.97436 0
M  V30 18985 H 1786.91 2.54183 4.26268 0
M  V30 18986 H 1782.17 3.87618 4.72824 0
M  V30 18987 H 1786.34 4.81626 5.03 0
M  V30 18988 H 1783.97 5.48867 5.25974 0
M  V30 18989 N 1785.54 -1.47344 0.559239 0
M  V30 18990 C 1786.47 -2.32839 -0.175542 0
M  V30 18991 C 1787.46 -1.43914 -0.906787 0
M  V30 18992 O 1788.64 -1.72767 -0.886855 0
M  V30 18993 C 1785.77 -3.25735 -1.20474 0
M  V30 18994 C 1784.72 -4.23916 -0.589825 0
M  V30 18995 C 1784.05 -5.06151 -1.7238 0
M  V30 18996 C 1785.35 -5.2029 0.457733 0
M  V30 18997 H 1787.04 -2.94522 0.538225 0
M  V30 18998 H 1784.59 -1.41628 0.260282 0
M  V30 18999 H 1786.54 -3.84388 -1.72695 0
M  V30 19000 H 1785.27 -2.62111 -1.94847 0
M  V30 19001 H 1783.93 -3.66492 -0.0888897 0
M  V30 19002 H 1783.57 -4.38929 -2.45663 0
M  V30 19003 H 1783.27 -5.72625 -1.31813 0
M  V30 19004 H 1784.8 -5.67663 -2.24923 0
M  V30 19005 H 1786.21 -5.73296 0.0215019 0
M  V30 19006 H 1784.61 -5.94978 0.7824 0
M  V30 19007 H 1785.68 -4.65645 1.35286 0
M  V30 19008 N 1787.02 -0.295795 -1.54799 0
M  V30 19009 C 1788.25 0.32058 -2.04907 0
M  V30 19010 C 1788.67 1.47132 -1.17191 0
M  V30 19011 O 1788.03 1.80455 -0.174869 0
M  V30 19012 C 1788.08 0.759439 -3.52512 0
M  V30 19013 O 1787.18 1.86474 -3.67833 0
M  V30 19014 H 1786.52 0.0631128 -0.660994 0
M  V30 19015 H 1789.05 -0.436123 -1.99898 0
M  V30 19016 H 1789.06 1.04965 -3.94267 0
M  V30 19017 H 1787.74 -0.0823715 -4.15818 0
M  V30 19018 H 1786.32 1.57547 -3.37984 0
M  V30 19019 N 1788.5 1.57583 -0.0234236 0
M  V30 19020 C 1789.75 1.91565 0.656449 0
M  V30 19021 C 1790.08 0.899298 1.72461 0
M  V30 19022 O 1789.33 -0.0926107 1.95481 0
M  V30 19023 C 1789.63 3.32283 1.31616 0
M  V30 19024 C 1789.3 4.49305 0.378925 0
M  V30 19025 C 1787.96 4.81048 0.120945 0
M  V30 19026 C 1790.31 5.20526 -0.264985 0
M  V30 19027 C 1787.64 5.81373 -0.788846 0
M  V30 19028 C 1789.99 6.21821 -1.1628 0
M  V30 19029 C 1788.65 6.52009 -1.42972 0
M  V30 19030 H 1787.92 0.700985 0.240212 0
M  V30 19031 H 1790.57 1.91316 -0.0839711 0
M  V30 19032 H 1788.88 3.28766 2.13119 0
M  V30 19033 H 1790.57 3.55845 1.84866 0
M  V30 19034 H 1787.16 4.24517 0.590173 0
M  V30 19035 H 1791.35 4.96238 -0.0787258 0
M  V30 19036 H 1786.6 6.0311 -1.00341 0
M  V30 19037 H 1790.78 6.7613 -1.66796 0
M  V30 19038 H 1788.4 7.29564 -2.13636 0
M  V30 19039 N 1789.98 -0.249655 1.5561 0
M  V30 19040 C 1791.21 -0.995707 1.81365 0
M  V30 19041 C 1791.62 -1.79054 0.598767 0
M  V30 19042 O 1790.98 -1.773 -0.432538 0
M  V30 19043 C 1791.03 -1.93577 3.05303 0
M  V30 19044 O 1790.75 -1.17311 4.22102 0
M  V30 19045 C 1792.25 -2.79804 3.43838 0
M  V30 19046 H 1789.47 -0.293118 0.603591 0
M  V30 19047 H 1792.02 -0.273374 2.02665 0
M  V30 19048 H 1790.17 -2.61242 2.86062 0
M  V30 19049 H 1790.59 -1.80875 4.92326 0
M  V30 19050 H 1792.06 -3.4152 4.33668 0
M  V30 19051 H 1792.54 -3.50776 2.64298 0
M  V30 19052 H 1793.14 -2.17596 3.6542 0
M  V30 19053 N 1791.46 -1.48941 -0.515198 0
M  V30 19054 C 1792.7 -1.57943 -1.27207 0
M  V30 19055 C 1793.04 -0.259011 -1.92465 0
M  V30 19056 O 1792.31 0.736277 -1.80026 0
M  V30 19057 C 1792.59 -2.72846 -2.35005 0
M  V30 19058 C 1792.45 -4.14639 -1.74341 0
M  V30 19059 C 1793.77 -2.83444 -3.36672 0
M  V30 19060 H 1790.89 -0.574909 -0.461138 0
M  V30 19061 H 1793.53 -1.81172 -0.572413 0
M  V30 19062 H 1791.68 -2.5317 -2.94681 0
M  V30 19063 H 1793.35 -4.45793 -1.18602 0
M  V30 19064 H 1791.59 -4.20948 -1.0481 0
M  V30 19065 H 1792.26 -4.90883 -2.52463 0
M  V30 19066 H 1794.74 -3.01311 -2.86969 0
M  V30 19067 H 1793.62 -3.65542 -4.09475 0
M  V30 19068 H 1793.88 -1.92208 -3.98131 0
M  V30 19069 N 1792.94 0.765193 -1.37777 0
M  V30 19070 C 1793.88 1.87866 -1.34071 0
M  V30 19071 C 1794.85 1.64828 -0.205154 0
M  V30 19072 O 1796.04 1.86655 -0.395555 0
M  V30 19073 C 1793.18 3.25018 -1.16006 0
M  V30 19074 C 1792.29 3.59966 -2.38848 0
M  V30 19075 C 1791.43 4.8636 -2.13605 0
M  V30 19076 C 1790.46 5.14059 -3.32279 0
M  V30 19077 N 1789.6 6.31644 -3.06545 0
M  V30 19078 H 1794.44 1.90369 -2.29267 0
M  V30 19079 H 1791.98 0.930625 -1.1392 0
M  V30 19080 H 1793.94 4.04145 -1.03552 0
M  V30 19081 H 1792.57 3.21872 -0.24454 0
M  V30 19082 H 1791.62 2.75773 -2.62018 0
M  V30 19083 H 1792.93 3.76369 -3.27334 0
M  V30 19084 H 1792.08 5.73406 -1.9822 0
M  V30 19085 H 1790.82 4.72073 -1.22467 0
M  V30 19086 H 1789.83 4.25487 -3.48196 0
M  V30 19087 H 1791.05 5.30251 -4.24277 0
M  V30 19088 H 1789 6.18703 -2.18043 0
M  V30 19089 H 1788.92 6.48494 -3.88576 0
M  V30 19090 H 1790.18 7.21608 -2.94791 0
M  V30 19091 N 1794.41 1.22455 0.992094 0
M  V30 19092 C 1795.38 0.996703 2.06394 0
M  V30 19093 C 1796.38 -0.0371659 1.60757 0
M  V30 19094 O 1797.57 0.20142 1.73032 0
M  V30 19095 C 1794.7 0.505675 3.37129 0
M  V30 19096 H 1795.89 1.94776 2.28041 0
M  V30 19097 H 1793.44 1.04335 1.16378 0
M  V30 19098 H 1794.18 -0.449697 3.21167 0
M  V30 19099 H 1793.96 1.25158 3.71588 0
M  V30 19100 H 1795.45 0.366535 4.15988 0
M  V30 19101 N 1795.89 -1.18905 1.03437 0
M  V30 19102 C 1796.85 -2.20529 0.624461 0
M  V30 19103 C 1797.85 -1.57688 -0.314824 0
M  V30 19104 O 1799.04 -1.73906 -0.101082 0
M  V30 19105 C 1796.18 -3.40793 -0.0854166 0
M  V30 19106 H 1797.37 -2.58309 1.5237 0
M  V30 19107 H 1794.92 -1.32679 0.826189 0
M  V30 19108 H 1795.66 -3.08538 -0.998747 0
M  V30 19109 H 1795.44 -3.87642 0.589596 0
M  V30 19110 H 1796.93 -4.16055 -0.358938 0
M  V30 19111 N 1797.37 -0.812977 -1.35013 0
M  V30 19112 C 1798.59 -0.407969 -2.03348 0
M  V30 19113 C 1799.02 0.975148 -1.60849 0
M  V30 19114 O 1798.38 1.63267 -0.788256 0
M  V30 19115 C 1798.43 -0.506754 -3.57022 0
M  V30 19116 O 1797.53 0.477322 -4.09628 0
M  V30 19117 H 1796.87 -0.169416 -0.642023 0
M  V30 19118 H 1799.4 -1.10064 -1.72474 0
M  V30 19119 H 1799.41 -0.378883 -4.06237 0
M  V30 19120 H 1798.09 -1.51557 -3.87302 0
M  V30 19121 H 1796.66 0.309161 -3.71616 0
M  V30 19122 N 1798.85 1.47045 -0.567045 0
M  V30 19123 C 1799.79 2.30135 0.175115 0
M  V30 19124 C 1800.76 1.39665 0.899049 0
M  V30 19125 O 1801.95 1.68623 0.892809 0
M  V30 19126 C 1799.09 3.23827 1.19289 0
M  V30 19127 C 1798.2 4.29392 0.474011 0
M  V30 19128 C 1797.34 5.10226 1.47793 0
M  V30 19129 C 1796.38 6.07554 0.744584 0
M  V30 19130 N 1795.51 6.81313 1.69581 0
M  V30 19131 H 1800.35 2.93075 -0.539529 0
M  V30 19132 H 1797.89 1.44451 -0.277889 0
M  V30 19133 H 1799.85 3.76579 1.79567 0
M  V30 19134 H 1798.48 2.6273 1.87544 0
M  V30 19135 H 1797.53 3.7962 -0.243494 0
M  V30 19136 H 1798.84 4.987 -0.100022 0
M  V30 19137 H 1798 5.67176 2.15397 0
M  V30 19138 H 1796.74 4.40842 2.08589 0
M  V30 19139 H 1795.74 5.49773 0.0546832 0
M  V30 19140 H 1796.97 6.78951 0.142235 0
M  V30 19141 H 1794.91 6.14651 2.29216 0
M  V30 19142 H 1794.83 7.46826 1.17418 0
M  V30 19143 H 1796.1 7.42831 2.36268 0
M  V30 19144 N 1800.33 0.304 1.5464 0
M  V30 19145 C 1801.56 -0.306471 2.04314 0
M  V30 19146 C 1801.96 -1.47839 1.18069 0
M  V30 19147 O 1801.31 -1.82612 0.199666 0
M  V30 19148 C 1801.37 -0.822694 3.4996 0
M  V30 19149 C 1801.03 0.224343 4.56449 0
M  V30 19150 C 1802.03 1.05382 5.09108 0
M  V30 19151 C 1799.71 0.366905 5.00958 0
M  V30 19152 C 1801.71 2.01176 6.0482 0
M  V30 19153 C 1799.4 1.32829 5.96489 0
M  V30 19154 C 1800.39 2.1492 6.48304 0
M  V30 19155 O 1800.08 3.09429 7.41963 0
M  V30 19156 H 1799.81 -0.0701033 0.672355 0
M  V30 19157 H 1802.37 0.442449 2.00578 0
M  V30 19158 H 1800.6 -1.62219 3.5103 0
M  V30 19159 H 1802.29 -1.34938 3.82814 0
M  V30 19160 H 1803.05 0.954561 4.75514 0
M  V30 19161 H 1798.93 -0.262121 4.60254 0
M  V30 19162 H 1802.48 2.65291 6.45187 0
M  V30 19163 H 1798.37 1.42826 6.29501 0
M  V30 19164 H 1799.14 3.04442 7.59774 0
M  V30 19165 N 1801.8 -1.57568 0.0317802 0
M  V30 19166 C 1803.05 -1.92194 -0.647238 0
M  V30 19167 C 1803.38 -0.908747 -1.71626 0
M  V30 19168 O 1802.66 0.0681334 -1.94381 0
M  V30 19169 C 1802.94 -3.3729 -1.26124 0
M  V30 19170 C 1802.79 -4.49348 -0.201594 0
M  V30 19171 C 1804.11 -3.824 -2.17849 0
M  V30 19172 H 1801.23 -0.698927 -0.233817 0
M  V30 19173 H 1803.87 -1.89789 0.0895831 0
M  V30 19174 H 1802.02 -3.39471 -1.88922 0
M  V30 19175 H 1803.7 -4.59299 0.429155 0
M  V30 19176 H 1801.94 -4.31218 0.472624 0
M  V30 19177 H 1802.61 -5.47908 -0.670859 0
M  V30 19178 H 1805.09 -3.81972 -1.65034 0
M  V30 19179 H 1803.96 -4.84614 -2.57761 0
M  V30 19180 H 1804.22 -3.18054 -3.07073 0
M  V30 19181 N 1803.28 0.241399 -1.5574 0
M  V30 19182 C 1804.56 0.991821 -1.68589 0
M  V30 19183 C 1804.94 2.03167 -0.573274 0
M  V30 19184 O 1804.29 2.2456 0.422521 0
M  V30 19185 C 1804.5 1.6202 -3.09112 0
M  V30 19186 C 1805.85 2.11998 -3.67889 0
M  V30 19187 O 1806.87 1.71951 -3.11948 0
M  V30 19188 O 1805.73 2.85545 -4.65968 0
M  V30 19189 H 1802.82 0.462017 -0.685907 0
M  V30 19190 H 1805.37 0.23475 -1.68068 0
M  V30 19191 H 1804.14 0.86835 -3.81543 0
M  V30 19192 H 1803.76 2.44333 -3.13667 0
M  V30 19193 N 1804.76 1.49212 0.507292 0
M  V30 19194 C 1806.01 1.58616 1.26368 0
M  V30 19195 C 1806.34 0.269215 1.92325 0
M  V30 19196 O 1805.61 -0.72672 1.80414 0
M  V30 19197 C 1805.9 2.74088 2.33555 0
M  V30 19198 C 1805.75 4.15557 1.7214 0
M  V30 19199 C 1807.07 2.85225 3.35164 0
M  V30 19200 H 1804.19 0.577347 0.458083 0
M  V30 19201 H 1806.83 1.81473 0.562797 0
M  V30 19202 H 1804.98 2.5473 2.93335 0
M  V30 19203 H 1806.65 4.46416 1.16236 0
M  V30 19204 H 1804.9 4.21498 1.02576 0
M  V30 19205 H 1805.57 4.92215 2.49856 0
M  V30 19206 H 1808.04 3.02828 2.85367 0
M  V30 19207 H 1806.92 3.67709 4.07531 0
M  V30 19208 H 1807.18 1.94316 3.97107 0
M  V30 19209 N 1806.24 -0.757876 1.38181 0
M  V30 19210 C 1807.65 -1.33496 1.30521 0
M  V30 19211 C 1808 -1.96157 -0.0409405 0
M  V30 19212 O 1807.13 -1.94775 -0.942957 0
M  V30 19213 C 1807.72 -2.42725 2.36369 0
M  V30 19214 C 1806.28 -2.96165 2.323 0
M  V30 19215 C 1805.43 -1.69505 2.19461 0
M  V30 19216 H 1808.38 -0.557075 1.48601 0
M  V30 19217 H 1808.4 -3.22556 2.01836 0
M  V30 19218 H 1807.91 -1.97089 3.34331 0
M  V30 19219 H 1806.01 -3.4614 1.37904 0
M  V30 19220 H 1806.12 -3.50836 3.26269 0
M  V30 19221 H 1804.49 -1.92967 1.66241 0
M  V30 19222 H 1805.27 -1.25954 3.1936 0
M  V30 19223 N 1807.72 -1.22979 -0.985586 0
M  V30 19224 C 1808.66 -1.00637 -2.07704 0
M  V30 19225 C 1809.63 0.0744076 -1.65933 0
M  V30 19226 O 1810.82 -0.0766583 -1.90646 0
M  V30 19227 C 1807.96 -0.598088 -3.39878 0
M  V30 19228 C 1807.07 -1.75043 -3.94948 0
M  V30 19229 C 1806.21 -1.28943 -5.15313 0
M  V30 19230 C 1805.25 -2.41285 -5.62537 0
M  V30 19231 N 1804.38 -1.9618 -6.74135 0
M  V30 19232 H 1809.22 -1.94063 -2.26149 0
M  V30 19233 H 1806.76 -0.966841 -1.10863 0
M  V30 19234 H 1808.72 -0.342503 -4.15792 0
M  V30 19235 H 1807.35 0.299167 -3.21411 0
M  V30 19236 H 1806.4 -2.12015 -3.15838 0
M  V30 19237 H 1807.71 -2.5952 -4.25971 0
M  V30 19238 H 1806.87 -0.99166 -5.98541 0
M  V30 19239 H 1805.6 -0.41496 -4.85931 0
M  V30 19240 H 1804.61 -2.71842 -4.77893 0
M  V30 19241 H 1805.83 -3.2926 -5.9394 0
M  V30 19242 H 1803.78 -1.11105 -6.46523 0
M  V30 19243 H 1803.7 -2.74219 -7.04514 0
M  V30 19244 H 1804.97 -1.69492 -7.6085 0
M  V30 19245 N 1809.19 1.18355 -1.04066 0
M  V30 19246 C 1810.61 1.69995 -0.771919 0
M  V30 19247 C 1810.96 1.83011 0.707213 0
M  V30 19248 O 1810.08 1.5096 1.55048 0
M  V30 19249 C 1810.68 3.08765 -1.39461 0
M  V30 19250 C 1809.24 3.57617 -1.17418 0
M  V30 19251 C 1808.38 2.34168 -1.48528 0
M  V30 19252 H 1811.33 1.0303 -1.20708 0
M  V30 19253 H 1811.35 3.72042 -0.79782 0
M  V30 19254 H 1810.87 2.9926 -2.47113 0
M  V30 19255 H 1808.97 3.72418 -0.116398 0
M  V30 19256 H 1809.08 4.41048 -1.87119 0
M  V30 19257 H 1807.44 2.38081 -0.904972 0
M  V30 19258 H 1808.23 2.27282 -2.57289 0
M  V30 19259 N 1810.67 0.820125 1.3458 0
M  V30 19260 C 1811.92 0.406067 1.97979 0
M  V30 19261 C 1812.24 -1.03366 1.65349 0
M  V30 19262 O 1811.51 -1.71721 0.942798 0
M  V30 19263 H 1810.09 0.147162 0.732361 0
M  V30 19264 H 1812.75 1.04895 1.64265 0
M  V30 19265 H 1811.85 0.52279 3.0769 0
M  V30 19266 N 1812.15 -1.46743 0.574835 0
M  V30 19267 C 1813.08 -2.27221 -0.211109 0
M  V30 19268 C 1814.06 -1.35143 -0.90416 0
M  V30 19269 O 1815.25 -1.64545 -0.919627 0
M  V30 19270 C 1812.37 -3.12665 -1.30223 0
M  V30 19271 C 1811.42 -4.20449 -0.715857 0
M  V30 19272 S 1812.25 -5.33596 0.451197 0
M  V30 19273 C 1813.41 -6.22606 -0.641314 0
M  V30 19274 H 1813.64 -2.93533 0.471766 0
M  V30 19275 H 1811.17 -1.50107 0.361547 0
M  V30 19276 H 1813.13 -3.62459 -1.927 0
M  V30 19277 H 1811.79 -2.45682 -1.95702 0
M  V30 19278 H 1810.99 -4.80031 -1.53578 0
M  V30 19279 H 1810.59 -3.73627 -0.166909 0
M  V30 19280 H 1812.88 -6.60021 -1.52899 0
M  V30 19281 H 1813.82 -7.08052 -0.0824416 0
M  V30 19282 H 1814.23 -5.56586 -0.941918 0
M  V30 19283 N 1813.63 -0.312197 -1.54477 0
M  V30 19284 C 1814.91 0.347462 -1.92489 0
M  V30 19285 C 1815.29 1.70797 -1.24063 0
M  V30 19286 O 1814.63 2.25313 -0.380296 0
M  V30 19287 C 1814.84 0.450992 -3.46074 0
M  V30 19288 C 1816.19 0.716618 -4.18509 0
M  V30 19289 O 1817.22 0.534364 -3.52169 0
M  V30 19290 O 1816.07 1.06744 -5.35974 0
M  V30 19291 H 1813.17 0.196248 -0.803378 0
M  V30 19292 H 1815.71 -0.361078 -1.65814 0
M  V30 19293 H 1814.49 -0.504982 -3.88028 0
M  V30 19294 H 1814.11 1.20756 -3.78819 0
M  V30 19295 N 1815.11 1.57549 -0.040136 0
M  V30 19296 C 1816.35 1.92535 0.637037 0
M  V30 19297 C 1816.69 0.917836 1.71141 0
M  V30 19298 O 1815.96 -0.057824 1.94414 0
M  V30 19299 C 1816.24 3.37955 1.24333 0
M  V30 19300 C 1816.1 4.49449 0.177761 0
M  V30 19301 C 1817.42 3.8355 2.15818 0
M  V30 19302 H 1814.53 0.700157 0.230107 0
M  V30 19303 H 1817.18 1.89739 -0.0996468 0
M  V30 19304 H 1815.33 3.40468 1.87119 0
M  V30 19305 H 1817 4.59065 -0.453507 0
M  V30 19306 H 1815.24 4.30961 -0.495486 0
M  V30 19307 H 1815.91 5.48256 0.641792 0
M  V30 19308 H 1818.39 3.82842 1.63006 0
M  V30 19309 H 1817.26 4.85974 2.55188 0
M  V30 19310 H 1817.53 3.19678 3.05382 0
M  V30 19311 N 1816.58 -0.233136 1.55866 0
M  V30 19312 C 1817.55 -1.27227 1.90646 0
M  V30 19313 C 1818.55 -1.4039 0.784038 0
M  V30 19314 O 1819.74 -1.38854 1.05191 0
M  V30 19315 C 1816.87 -2.64791 2.14706 0
M  V30 19316 H 1818.06 -0.975986 2.83575 0
M  V30 19317 H 1815.62 -0.473045 1.4897 0
M  V30 19318 H 1816.35 -2.99537 1.24291 0
M  V30 19319 H 1816.14 -2.56615 2.96464 0
M  V30 19320 H 1817.63 -3.39797 2.4275 0
M  V30 19321 N 1818.06 -1.49479 -0.499372 0
M  V30 19322 C 1819.34 -1.4955 -1.26071 0
M  V30 19323 C 1819.72 -0.224142 -2.09907 0
M  V30 19324 O 1819.07 0.793432 -2.14282 0
M  V30 19325 C 1819.28 -2.77534 -2.11604 0
M  V30 19326 C 1820.63 -3.27088 -2.70738 0
M  V30 19327 O 1821.65 -2.78662 -2.2187 0
M  V30 19328 O 1820.51 -4.11432 -3.59703 0
M  V30 19329 H 1817.6 -0.598631 -0.570587 0
M  V30 19330 H 1820.15 -1.61744 -0.513509 0
M  V30 19331 H 1818.92 -3.61556 -1.49642 0
M  V30 19332 H 1818.54 -2.68208 -2.93514 0
M  V30 19333 N 1819.54 0.750537 -1.38581 0
M  V30 19334 C 1820.5 1.84599 -1.35852 0
M  V30 19335 C 1821.5 1.58709 -0.258462 0
M  V30 19336 O 1822.69 1.66397 -0.51552 0
M  V30 19337 C 1819.83 3.22124 -1.11573 0
M  V30 19338 H 1821.02 1.88426 -2.33314 0
M  V30 19339 H 1818.57 0.952564 -1.23919 0
M  V30 19340 H 1819.31 3.23965 -0.147295 0
M  V30 19341 H 1819.09 3.42311 -1.91221 0
M  V30 19342 H 1820.58 4.02198 -1.12367 0
M  V30 19343 N 1821.02 1.235 0.979051 0
M  V30 19344 C 1822.25 1.09304 1.75318 0
M  V30 19345 C 1822.66 -0.358266 1.85777 0
M  V30 19346 O 1822 -1.25956 1.33719 0
M  V30 19347 C 1822.06 1.6457 3.1962 0
M  V30 19348 C 1821.73 3.1334 3.32666 0
M  V30 19349 C 1822.72 4.1062 3.18885 0
M  V30 19350 C 1820.41 3.53076 3.57271 0
M  V30 19351 C 1822.4 5.45617 3.29515 0
M  V30 19352 C 1820.09 4.88218 3.67541 0
M  V30 19353 C 1821.09 5.84298 3.53674 0
M  V30 19354 O 1820.78 7.16985 3.63577 0
M  V30 19355 H 1820.51 0.383087 0.556974 0
M  V30 19356 H 1823.06 1.6385 1.23864 0
M  V30 19357 H 1821.29 1.04446 3.72328 0
M  V30 19358 H 1822.98 1.4583 3.78799 0
M  V30 19359 H 1823.75 3.81264 2.99771 0
M  V30 19360 H 1819.63 2.78804 3.67136 0
M  V30 19361 H 1823.17 6.20592 3.18608 0
M  V30 19362 H 1819.07 5.17249 3.86165 0
M  V30 19363 H 1819.83 7.24752 3.80364 0
M  V30 19364 N 1822.5 -1.17802 1.04693 0
M  V30 19365 C 1823.74 -1.88217 0.755141 0
M  V30 19366 C 1824.08 -1.8053 -0.715731 0
M  V30 19367 O 1823.35 -1.20987 -1.52291 0
M  V30 19368 C 1823.63 -3.38447 1.22986 0
M  V30 19369 C 1823.49 -3.54911 2.7633 0
M  V30 19370 C 1824.81 -4.323 0.824891 0
M  V30 19371 H 1821.93 -0.683452 0.275795 0
M  V30 19372 H 1824.57 -1.38561 1.30004 0
M  V30 19373 H 1822.72 -3.80868 0.7663 0
M  V30 19374 H 1824.39 -3.2154 3.30771 0
M  V30 19375 H 1822.63 -2.97357 3.1585 0
M  V30 19376 H 1823.3 -4.60347 3.04606 0
M  V30 19377 H 1825.78 -3.97694 1.22389 0
M  V30 19378 H 1824.66 -5.35962 1.18472 0
M  V30 19379 H 1824.92 -4.41265 -0.27151 0
M  V30 19380 N 1823.98 -0.827251 -1.34143 0
M  V30 19381 C 1825.2 -0.430502 -2.02372 0
M  V30 19382 C 1825.62 0.964846 -1.62284 0
M  V30 19383 O 1824.98 1.62512 -0.830421 0
M  V30 19384 C 1825.03 -0.528077 -3.57622 0
M  V30 19385 O 1824.75 -1.86843 -3.96259 0
M  V30 19386 C 1826.25 -0.126784 -4.43119 0
M  V30 19387 H 1823.47 -0.172244 -0.648516 0
M  V30 19388 H 1826.01 -1.11661 -1.71325 0
M  V30 19389 H 1824.17 0.109991 -3.87244 0
M  V30 19390 H 1824.58 -1.84573 -4.90951 0
M  V30 19391 H 1826.06 -0.246133 -5.51451 0
M  V30 19392 H 1826.53 0.930138 -4.29238 0
M  V30 19393 H 1827.14 -0.738824 -4.18833 0
M  V30 19394 N 1825.45 1.46436 -0.582609 0
M  V30 19395 C 1826.7 2.02385 -0.0681494 0
M  V30 19396 C 1827.03 1.4541 1.29175 0
M  V30 19397 O 1826.28 0.609021 1.85982 0
M  V30 19398 C 1826.58 3.57368 0.0476745 0
M  V30 19399 C 1826.25 4.33382 -1.24462 0
M  V30 19400 C 1824.91 4.53868 -1.59866 0
M  V30 19401 C 1827.26 4.7703 -2.09981 0
M  V30 19402 C 1824.59 5.15254 -2.80589 0
M  V30 19403 C 1826.94 5.39749 -3.29929 0
M  V30 19404 C 1825.61 5.58463 -3.65616 0
M  V30 19405 H 1824.88 0.74058 -0.0249376 0
M  V30 19406 H 1827.52 1.75807 -0.759226 0
M  V30 19407 H 1825.83 3.83083 0.821879 0
M  V30 19408 H 1827.53 3.98336 0.461487 0
M  V30 19409 H 1824.12 4.17734 -0.958993 0
M  V30 19410 H 1828.3 4.60959 -1.83931 0
M  V30 19411 H 1823.56 5.27934 -3.08376 0
M  V30 19412 H 1827.73 5.72529 -3.96464 0
M  V30 19413 H 1825.36 6.05799 -4.59252 0
M  V30 19414 N 1826.93 0.320385 1.54309 0
M  V30 19415 C 1828.18 -0.283562 2.00808 0
M  V30 19416 C 1828.51 -1.52036 1.20826 0
M  V30 19417 O 1827.79 -1.9233 0.289721 0
M  V30 19418 C 1828.07 -0.620875 3.54707 0
M  V30 19419 C 1827.92 0.626403 4.45417 0
M  V30 19420 C 1829.24 -1.43978 4.15883 0
M  V30 19421 H 1826.36 -0.10159 0.729965 0
M  V30 19422 H 1829 0.436332 1.84922 0
M  V30 19423 H 1827.15 -1.23419 3.68375 0
M  V30 19424 H 1828.82 1.2647 4.43625 0
M  V30 19425 H 1827.07 1.2559 4.15222 0
M  V30 19426 H 1827.74 0.345969 5.50915 0
M  V30 19427 H 1830.21 -0.921381 4.05771 0
M  V30 19428 H 1829.09 -1.64456 5.23685 0
M  V30 19429 H 1829.35 -2.43494 3.69003 0
M  V30 19430 N 1828.41 -1.57525 0.0484906 0
M  V30 19431 C 1829.83 -1.56599 -0.308041 0
M  V30 19432 C 1830.03 -1.05591 -1.71618 0
M  V30 19433 O 1829.08 -0.711302 -2.42274 0
M  V30 19434 C 1830.39 -3.00379 -0.138955 0
M  V30 19435 C 1831.94 -3.12293 -0.210262 0
M  V30 19436 C 1832.42 -4.57947 -0.0697369 0
M  V30 19437 N 1833.91 -4.63028 -0.1261 0
M  V30 19438 C 1834.64 -5.73385 -0.0414392 0
M  V30 19439 N 1834.14 -6.92734 0.0954164 0
M  V30 19440 N 1835.93 -5.62017 -0.0968281 0
M  V30 19441 H 1828.08 -1.89005 0.969069 0
M  V30 19442 H 1830.35 -0.87027 0.375944 0
M  V30 19443 H 1830.05 -3.41722 0.831808 0
M  V30 19444 H 1829.93 -3.66278 -0.901109 0
M  V30 19445 H 1832.31 -2.7085 -1.1715 0
M  V30 19446 H 1832.39 -2.49077 0.582601 0
M  V30 19447 H 1832.04 -5.00074 0.888161 0
M  V30 19448 H 1831.97 -5.19166 -0.881711 0
M  V30 19449 H 1834.46 -3.77192 -0.231232 0
M  V30 19450 H 1834.77 -7.72649 0.152796 0
M  V30 19451 H 1833.12 -6.94878 0.130465 0
M  V30 19452 H 1836.31 -4.67663 -0.202283 0
M  V30 19453 H 1836.48 -6.47994 -0.0273908 0
M  V30 19454 N 1829.89 0.224867 -1.55988 0
M  V30 19455 C 1830.84 1.28206 -1.8854 0
M  V30 19456 C 1831.82 1.42447 -0.748172 0
M  V30 19457 O 1833.01 1.45318 -1.01053 0
M  V30 19458 C 1830.14 2.63315 -2.20273 0
M  V30 19459 C 1829.23 2.52988 -3.40379 0
M  V30 19460 N 1829.62 2.1231 -4.59084 0
M  V30 19461 C 1827.92 2.83954 -3.43927 0
M  V30 19462 C 1828.62 2.13153 -5.4124 0
M  V30 19463 N 1827.59 2.53513 -4.80866 0
M  V30 19464 H 1831.4 0.958396 -2.77834 0
M  V30 19465 H 1828.91 0.433439 -1.56509 0
M  V30 19466 H 1830.91 3.39639 -2.41767 0
M  V30 19467 H 1829.57 2.9653 -1.32289 0
M  V30 19468 H 1830.58 1.83495 -4.84304 0
M  V30 19469 H 1827.26 3.21563 -2.66277 0
M  V30 19470 H 1828.65 1.83856 -6.46256 0
M  V30 19471 N 1831.37 1.49742 0.491438 0
M  V30 19472 C 1832.59 1.63703 1.27343 0
M  V30 19473 C 1833.02 0.312079 1.85493 0
M  V30 19474 O 1832.37 -0.721545 1.66323 0
M  V30 19475 C 1832.42 2.71549 2.37262 0
M  V30 19476 O 1831.53 2.31387 3.41371 0
M  V30 19477 H 1830.87 0.547605 0.375533 0
M  V30 19478 H 1833.4 1.95991 0.587243 0
M  V30 19479 H 1833.41 2.94009 2.82883 0
M  V30 19480 H 1832.08 3.6772 1.94306 0
M  V30 19481 H 1830.66 2.19295 3.01603 0
M  V30 19482 N 1832.84 -0.743177 1.38977 0
M  V30 19483 C 1833.78 -1.86709 1.32938 0
M  V30 19484 C 1834.79 -1.61027 0.239644 0
M  V30 19485 O 1835.98 -1.71413 0.497991 0
M  V30 19486 C 1833.08 -3.22566 1.03945 0
M  V30 19487 C 1832.25 -3.75669 2.24034 0
M  V30 19488 C 1831.31 -4.90068 1.91625 0
M  V30 19489 O 1830.34 -5.04156 2.64226 0
M  V30 19490 N 1831.54 -5.7383 0.877465 0
M  V30 19491 H 1834.3 -1.92397 2.2979 0
M  V30 19492 H 1831.86 -0.923564 1.32973 0
M  V30 19493 H 1833.86 -3.96654 0.802977 0
M  V30 19494 H 1832.43 -3.12198 0.15854 0
M  V30 19495 H 1831.65 -2.93027 2.63683 0
M  V30 19496 H 1832.93 -4.07882 3.04154 0
M  V30 19497 H 1832.33 -5.65028 0.275604 0
M  V30 19498 H 1830.89 -6.48021 0.700881 0
M  V30 19499 N 1834.32 -1.24018 -0.972487 0
M  V30 19500 C 1835.6 -0.985099 -1.68983 0
M  V30 19501 C 1835.98 0.494006 -2.05238 0
M  V30 19502 O 1835.33 1.46715 -1.75177 0
M  V30 19503 C 1835.54 -1.90324 -2.92537 0
M  V30 19504 C 1836.89 -2.17134 -3.64881 0
M  V30 19505 O 1837.91 -1.87938 -3.02585 0
M  V30 19506 O 1836.77 -2.66691 -4.7701 0
M  V30 19507 H 1833.86 -0.372172 -0.738524 0
M  V30 19508 H 1836.41 -1.35095 -1.027 0
M  V30 19509 H 1835.18 -2.90278 -2.62401 0
M  V30 19510 H 1834.8 -1.54025 -3.66554 0
M  V30 19511 N 1835.8 1.17245 -1.05316 0
M  V30 19512 C 1837.05 1.87813 -0.765112 0
M  V30 19513 C 1837.38 1.80907 0.706147 0
M  V30 19514 O 1836.65 1.21793 1.51647 0
M  V30 19515 C 1836.94 3.3779 -1.24779 0
M  V30 19516 C 1836.79 3.53441 -2.78208 0
M  V30 19517 C 1838.11 4.31857 -0.847805 0
M  V30 19518 H 1835.23 0.681979 -0.279415 0
M  V30 19519 H 1837.87 1.37869 -1.30737 0
M  V30 19520 H 1836.02 3.80456 -0.786487 0
M  V30 19521 H 1837.69 3.19782 -3.32472 0
M  V30 19522 H 1835.94 2.95678 -3.17423 0
M  V30 19523 H 1836.61 4.58725 -3.07043 0
M  V30 19524 H 1839.08 3.97039 -1.24496 0
M  V30 19525 H 1837.96 5.35326 -1.21313 0
M  V30 19526 H 1838.22 4.41403 0.248104 0
M  V30 19527 N 1837.28 0.834353 1.33702 0
M  V30 19528 C 1838.21 0.279313 2.31823 0
M  V30 19529 C 1839.19 -0.610495 1.58767 0
M  V30 19530 O 1840.37 -0.534989 1.86686 0
M  V30 19531 C 1837.5 -0.550201 3.42914 0
M  V30 19532 C 1836.46 0.243432 4.27307 0
M  V30 19533 C 1835.78 -0.709548 5.29971 0
M  V30 19534 C 1837.08 1.45799 5.01537 0
M  V30 19535 H 1838.78 1.09915 2.78494 0
M  V30 19536 H 1836.32 0.529987 1.33892 0
M  V30 19537 H 1838.28 -0.948764 4.10581 0
M  V30 19538 H 1837 -1.4032 2.9492 0
M  V30 19539 H 1835.66 0.6235 3.61259 0
M  V30 19540 H 1835.31 -1.55882 4.78236 0
M  V30 19541 H 1835.01 -0.182671 5.87316 0
M  V30 19542 H 1836.53 -1.10572 6.00505 0
M  V30 19543 H 1837.95 1.13283 5.61996 0
M  V30 19544 H 1836.34 1.92133 5.68511 0
M  V30 19545 H 1837.41 2.23016 4.30571 0
M  V30 19546 N 1838.76 -1.46125 0.590367 0
M  V30 19547 C 1840.17 -1.57588 0.252639 0
M  V30 19548 C 1840.37 -1.58435 -1.24502 0
M  V30 19549 O 1839.43 -1.50541 -2.02716 0
M  V30 19550 C 1840.74 -2.86644 0.908612 0
M  V30 19551 C 1842.29 -3.00289 0.882917 0
M  V30 19552 C 1842.76 -4.32092 1.51858 0
M  V30 19553 N 1844.26 -4.38809 1.48327 0
M  V30 19554 C 1844.99 -5.39426 1.94442 0
M  V30 19555 N 1844.49 -6.46674 2.48565 0
M  V30 19556 N 1846.28 -5.30675 1.85313 0
M  V30 19557 H 1838.43 -1.43819 1.56301 0
M  V30 19558 H 1840.69 -0.686515 0.653759 0
M  V30 19559 H 1840.4 -2.91857 1.96246 0
M  V30 19560 H 1840.27 -3.74838 0.421445 0
M  V30 19561 H 1842.66 -2.94653 -0.16233 0
M  V30 19562 H 1842.74 -2.13551 1.40818 0
M  V30 19563 H 1842.39 -4.38486 2.56306 0
M  V30 19564 H 1842.32 -5.17618 0.968474 0
M  V30 19565 H 1844.81 -3.61907 1.08772 0
M  V30 19566 H 1845.12 -7.19671 2.8159 0
M  V30 19567 H 1843.46 -6.47473 2.52595 0
M  V30 19568 H 1846.66 -4.45793 1.42782 0
M  V30 19569 H 1846.83 -6.08943 2.21567 0
M  V30 19570 N 1840.23 -0.328564 -1.54137 0
M  V30 19571 C 1841.51 0.327026 -1.92847 0
M  V30 19572 C 1841.89 1.69472 -1.25867 0
M  V30 19573 O 1841.24 2.24897 -0.404172 0
M  V30 19574 C 1841.45 0.414261 -3.46533 0
M  V30 19575 C 1842.8 0.672189 -4.19245 0
M  V30 19576 O 1843.82 0.496982 -3.52716 0
M  V30 19577 O 1842.68 1.01053 -5.37076 0
M  V30 19578 H 1839.77 0.187716 -0.805414 0
M  V30 19579 H 1842.32 -0.378645 -1.65422 0
M  V30 19580 H 1841.09 -0.54611 -3.8747 0
M  V30 19581 H 1840.72 1.16731 -3.80078 0
M  V30 19582 N 1841.71 1.57497 -0.0568439 0
M  V30 19583 C 1842.66 2.11862 0.915593 0
M  V30 19584 C 1843.63 1.02738 1.30515 0
M  V30 19585 O 1844.81 1.30318 1.39362 0
M  V30 19586 C 1841.95 2.67269 2.18315 0
M  V30 19587 C 1841.07 3.90498 1.84757 0
M  V30 19588 C 1840.2 4.342 3.06013 0
M  V30 19589 C 1839.24 5.50115 2.68403 0
M  V30 19590 N 1838.38 5.88844 3.8237 0
M  V30 19591 H 1843.22 2.94657 0.445101 0
M  V30 19592 H 1840.76 1.45621 0.20807 0
M  V30 19593 H 1842.71 2.97494 2.92494 0
M  V30 19594 H 1841.34 1.87262 2.62931 0
M  V30 19595 H 1840.4 3.66828 1.00703 0
M  V30 19596 H 1841.71 4.7473 1.53077 0
M  V30 19597 H 1840.86 4.66008 3.88486 0
M  V30 19598 H 1839.6 3.4879 3.40876 0
M  V30 19599 H 1838.61 5.17973 1.84348 0
M  V30 19600 H 1839.83 6.37244 2.34726 0
M  V30 19601 H 1837.78 5.06387 4.17024 0
M  V30 19602 H 1837.69 6.67781 3.54407 0
M  V30 19603 H 1838.96 6.25269 4.65466 0
M  V30 19604 N 1843.19 -0.216591 1.56105 0
M  V30 19605 C 1844.44 -0.941642 1.79613 0
M  V30 19606 C 1844.77 -1.83789 0.627323 0
M  V30 19607 O 1844.04 -1.90886 -0.373195 0
M  V30 19608 C 1844.33 -1.77634 3.13238 0
M  V30 19609 C 1844.18 -0.906251 4.40576 0
M  V30 19610 C 1845.5 -2.75315 3.4335 0
M  V30 19611 H 1842.62 -0.340898 0.65342 0
M  V30 19612 H 1845.26 -0.210217 1.88833 0
M  V30 19613 H 1843.41 -2.39993 3.05509 0
M  V30 19614 H 1845.08 -0.299023 4.6033 0
M  V30 19615 H 1843.33 -0.211902 4.33282 0
M  V30 19616 H 1844 -1.52478 5.30523 0
M  V30 19617 H 1846.47 -2.23091 3.5124 0
M  V30 19618 H 1845.35 -3.30816 4.38009 0
M  V30 19619 H 1845.61 -3.53301 2.65765 0
M  V30 19620 N 1844.67 -1.5 -0.48349 0
M  V30 19621 C 1845.62 -1.68467 -1.6038 0
M  V30 19622 C 1846.61 -0.550508 -1.60205 0
M  V30 19623 O 1847.82 -0.730656 -1.64504 0
M  V30 19624 H 1844.19 -0.531525 -0.531964 0
M  V30 19625 H 1846.16 -2.62468 -1.41962 0
M  V30 19626 C 1844.91 -1.78462 -2.98407 0
M  V30 19627 H 1844.23 -2.65117 -2.99254 0
M  V30 19628 H 1845.67 -1.95413 -3.76284 0
M  V30 19629 C 1844.13 -0.533368 -3.32651 0
M  V30 19630 O 1844.66 0.333087 -4.00317 0
M  V30 19631 N 1842.87 -0.391077 -2.87957 0
M  V30 19632 H 1842.42 -1.09719 -2.33066 0
M  V30 19633 H 1842.37 0.444995 -3.11235 0
M  V30 19634 N 1846.15 0.735796 -1.39369 0
M  V30 19635 C 1847.06 1.88026 -1.40298 0
M  V30 19636 C 1848.07 1.71431 -0.297878 0
M  V30 19637 O 1849.25 1.94047 -0.539219 0
M  V30 19638 C 1846.31 3.23607 -1.24415 0
M  V30 19639 C 1845.37 3.52601 -2.4489 0
M  V30 19640 C 1844.61 4.81714 -2.29755 0
M  V30 19641 O 1844.83 5.55374 -1.30061 0
M  V30 19642 O 1843.76 5.10588 -3.18722 0
M  V30 19643 H 1847.59 1.90197 -2.36767 0
M  V30 19644 H 1845.18 0.883504 -1.20476 0
M  V30 19645 H 1847.06 4.04633 -1.17688 0
M  V30 19646 H 1845.73 3.22208 -0.310409 0
M  V30 19647 H 1844.64 2.71665 -2.57194 0
M  V30 19648 H 1845.97 3.58778 -3.36955 0
M  V30 19649 N 1847.63 1.24532 0.965897 0
M  V30 19650 C 1848.54 1.0564 2.09469 0
M  V30 19651 C 1849.55 -0.00330962 1.74 0
M  V30 19652 O 1850.73 0.195248 2.00451 0
M  V30 19653 C 1847.79 0.665318 3.40256 0
M  V30 19654 C 1846.85 1.80171 3.89663 0
M  V30 19655 C 1846.09 1.42919 5.14208 0
M  V30 19656 O 1846.31 0.319815 5.69503 0
M  V30 19657 O 1845.24 2.25546 5.58044 0
M  V30 19658 H 1849.07 2.00277 2.28304 0
M  V30 19659 H 1846.65 1.03368 1.07868 0
M  V30 19660 H 1848.54 0.458827 4.18895 0
M  V30 19661 H 1847.21 -0.251914 3.22718 0
M  V30 19662 H 1846.12 2.06296 3.12078 0
M  V30 19663 H 1847.45 2.69778 4.11681 0
M  V30 19664 N 1849.1 -1.16685 1.05936 0
M  V30 19665 C 1850.04 -2.19862 0.611219 0
M  V30 19666 C 1851.01 -1.58471 -0.364111 0
M  V30 19667 O 1852.2 -1.86499 -0.273946 0
M  V30 19668 C 1849.33 -3.38539 -0.104458 0
M  V30 19669 C 1848.37 -4.18404 0.82706 0
M  V30 19670 S 1849.2 -4.82619 2.32034 0
M  V30 19671 C 1850.36 -6.04677 1.61605 0
M  V30 19672 H 1850.59 -2.57535 1.48536 0
M  V30 19673 H 1848.13 -1.27418 0.872005 0
M  V30 19674 H 1850.08 -4.07305 -0.511162 0
M  V30 19675 H 1848.75 -2.99238 -0.954736 0
M  V30 19676 H 1847.94 -5.03261 0.272804 0
M  V30 19677 H 1847.54 -3.55113 1.17348 0
M  V30 19678 H 1849.83 -6.7123 0.919598 0
M  V30 19679 H 1850.78 -6.64645 2.44238 0
M  V30 19680 H 1851.18 -5.53675 1.1002 0
M  V30 19681 N 1850.58 -0.841432 -1.33258 0
M  V30 19682 C 1851.81 -0.451287 -2.01611 0
M  V30 19683 C 1852.22 0.952858 -1.63454 0
M  V30 19684 O 1851.56 1.6311 -0.845039 0
M  V30 19685 C 1851.62 -0.495287 -3.56072 0
M  V30 19686 C 1851.29 -1.856 -4.17614 0
M  V30 19687 C 1852.29 -2.81959 -4.36801 0
M  V30 19688 C 1849.97 -2.14953 -4.53983 0
M  V30 19689 C 1851.96 -4.05832 -4.91507 0
M  V30 19690 C 1849.65 -3.39083 -5.08395 0
M  V30 19691 C 1850.65 -4.34339 -5.27104 0
M  V30 19692 O 1850.34 -5.56273 -5.80359 0
M  V30 19693 H 1850.07 -0.177188 -0.652365 0
M  V30 19694 H 1852.62 -1.13629 -1.71107 0
M  V30 19695 H 1850.85 0.246506 -3.85914 0
M  V30 19696 H 1852.54 -0.122606 -4.05715 0
M  V30 19697 H 1853.31 -2.60582 -4.0905 0
M  V30 19698 H 1849.19 -1.41602 -4.38714 0
M  V30 19699 H 1852.73 -4.80192 -5.06025 0
M  V30 19700 H 1848.63 -3.60316 -5.35577 0
M  V30 19701 H 1849.4 -5.58047 -5.9877 0
M  V30 19702 N 1852.06 1.4581 -0.598108 0
M  V30 19703 C 1853.31 2.01511 -0.0872421 0
M  V30 19704 C 1853.62 1.47345 1.28642 0
M  V30 19705 O 1854.83 1.94963 1.88949 0
M  V30 19706 C 1853.28 3.59746 -0.105317 0
M  V30 19707 C 1852.89 4.22909 -1.47824 0
M  V30 19708 C 1854.64 4.23048 0.350802 0
M  V30 19709 C 1852.54 5.73268 -1.45321 0
M  V30 19710 H 1851.47 0.753448 -0.0288462 0
M  V30 19711 H 1854.12 1.67382 -0.752037 0
M  V30 19712 H 1852.51 3.91022 0.625947 0
M  V30 19713 H 1853.68 4.03221 -2.23046 0
M  V30 19714 H 1851.99 3.71763 -1.87566 0
M  V30 19715 H 1854.59 5.33286 0.388561 0
M  V30 19716 H 1854.93 3.93058 1.37155 0
M  V30 19717 H 1855.47 3.96455 -0.326889 0
M  V30 19718 H 1852.21 6.07942 -2.45126 0
M  V30 19719 H 1851.73 5.95175 -0.743436 0
M  V30 19720 H 1853.41 6.36283 -1.17275 0
M  V30 19721 N 1853.54 0.336733 1.53961 0
M  V30 19722 C 1854.45 -0.531812 2.28493 0
M  V30 19723 C 1855.46 -1.11784 1.33343 0
M  V30 19724 O 1856.64 -1.13499 1.66373 0
M  V30 19725 C 1853.7 -1.67031 3.03812 0
M  V30 19726 C 1852.77 -1.11475 4.14574 0
M  V30 19727 C 1852 -2.19898 4.86292 0
M  V30 19728 O 1852.22 -3.40492 4.57625 0
M  V30 19729 O 1851.16 -1.84576 5.72901 0
M  V30 19730 H 1854.98 0.0738624 3.0361 0
M  V30 19731 H 1852.57 0.101996 1.49051 0
M  V30 19732 H 1854.45 -2.33286 3.50936 0
M  V30 19733 H 1853.12 -2.26192 2.31558 0
M  V30 19734 H 1852.03 -0.416915 3.7177 0
M  V30 19735 H 1853.36 -0.568092 4.88911 0
M  V30 19736 N 1855.02 -1.57465 0.0651956 0
M  V30 19737 C 1856.43 -1.56917 -0.291414 0
M  V30 19738 C 1856.63 -1.07405 -1.70489 0
M  V30 19739 O 1855.69 -0.736958 -2.41506 0
M  V30 19740 C 1857 -3.00509 -0.107088 0
M  V30 19741 C 1858.55 -3.12498 -0.177127 0
M  V30 19742 C 1859.02 -4.57995 -0.0211616 0
M  V30 19743 N 1860.51 -4.63136 -0.0769824 0
M  V30 19744 C 1861.25 -5.73397 0.0193783 0
M  V30 19745 N 1860.75 -6.92594 0.168885 0
M  V30 19746 N 1862.54 -5.62088 -0.0372133 0
M  V30 19747 H 1854.69 -1.87966 0.989061 0
M  V30 19748 H 1856.95 -0.866234 0.385154 0
M  V30 19749 H 1856.66 -3.4082 0.868005 0
M  V30 19750 H 1856.53 -3.67214 -0.86221 0
M  V30 19751 H 1858.92 -2.72078 -1.1427 0
M  V30 19752 H 1859 -2.48445 0.608986 0
M  V30 19753 H 1858.64 -4.99104 0.941151 0
M  V30 19754 H 1858.57 -5.20072 -0.826597 0
M  V30 19755 H 1861.07 -3.77416 -0.191213 0
M  V30 19756 H 1861.38 -7.72443 0.234737 0
M  V30 19757 H 1859.72 -6.947 0.204159 0
M  V30 19758 H 1862.91 -4.67851 -0.152669 0
M  V30 19759 H 1863.09 -6.47987 0.0413392 0
M  V30 19760 N 1856.49 0.20831 -1.56217 0
M  V30 19761 C 1857.42 1.26115 -1.96513 0
M  V30 19762 C 1858.4 1.48185 -0.835183 0
M  V30 19763 O 1859.59 1.60145 -1.09851 0
M  V30 19764 C 1856.72 2.6082 -2.29326 0
M  V30 19765 C 1855.67 2.53385 -3.44935 0
M  V30 19766 C 1855 3.92241 -3.63388 0
M  V30 19767 C 1856.3 2.07026 -4.79518 0
M  V30 19768 H 1857.99 0.92635 -2.84709 0
M  V30 19769 H 1855.54 0.444169 -1.36979 0
M  V30 19770 H 1857.49 3.34644 -2.56109 0
M  V30 19771 H 1856.22 2.96014 -1.37997 0
M  V30 19772 H 1854.88 1.82018 -3.18222 0
M  V30 19773 H 1854.52 4.24766 -2.69413 0
M  V30 19774 H 1854.22 3.88145 -4.41154 0
M  V30 19775 H 1855.75 4.67707 -3.92533 0
M  V30 19776 H 1857.16 2.70601 -5.05419 0
M  V30 19777 H 1855.56 2.13961 -5.60661 0
M  V30 19778 H 1856.63 1.02298 -4.73986 0
M  V30 19779 N 1857.97 1.50255 0.475528 0
M  V30 19780 C 1859.22 1.61022 1.22793 0
M  V30 19781 C 1859.55 0.308508 1.92038 0
M  V30 19782 O 1858.8 -0.70533 1.82547 0
M  V30 19783 C 1859.1 2.73698 2.29835 0
M  V30 19784 C 1858.77 4.14333 1.77873 0
M  V30 19785 C 1857.43 4.526 1.63423 0
M  V30 19786 C 1859.78 5.02247 1.39275 0
M  V30 19787 C 1857.11 5.76525 1.08791 0
M  V30 19788 C 1859.46 6.26715 0.860869 0
M  V30 19789 C 1858.12 6.63788 0.702959 0
M  V30 19790 H 1857.39 0.589221 0.449332 0
M  V30 19791 H 1860.04 1.84173 0.524633 0
M  V30 19792 H 1858.35 2.44617 3.06055 0
M  V30 19793 H 1860.04 2.79233 2.87802 0
M  V30 19794 H 1856.63 3.84142 1.90087 0
M  V30 19795 H 1860.82 4.73319 1.49276 0
M  V30 19796 H 1856.07 6.03927 0.952987 0
M  V30 19797 H 1860.25 6.942 0.553109 0
M  V30 19798 H 1857.87 7.59693 0.277471 0
M  V30 19799 N 1859.45 -0.728395 1.39758 0
M  V30 19800 C 1860.73 -1.48036 1.27846 0
M  V30 19801 C 1861.11 -2.10818 -0.108996 0
M  V30 19802 O 1860.45 -1.99125 -1.12078 0
M  V30 19803 C 1860.66 -2.52644 2.40774 0
M  V30 19804 C 1862.01 -3.1884 2.80404 0
M  V30 19805 O 1863.04 -2.6296 2.40272 0
M  V30 19806 O 1861.9 -4.19971 3.49696 0
M  V30 19807 H 1858.99 -0.657688 0.501374 0
M  V30 19808 H 1861.54 -0.761658 1.51647 0
M  V30 19809 H 1860.31 -2.04678 3.335 0
M  V30 19810 H 1859.93 -3.32066 2.18674 0
M  V30 19811 N 1860.93 -1.25042 -0.959279 0
M  V30 19812 C 1861.86 -1.00807 -2.05841 0
M  V30 19813 C 1862.87 0.0253938 -1.6278 0
M  V30 19814 O 1864.06 -0.212625 -1.77229 0
M  V30 19815 C 1861.16 -0.501088 -3.35175 0
M  V30 19816 C 1860.33 -1.59964 -4.071 0
M  V30 19817 C 1859.39 -1.09383 -5.14705 0
M  V30 19818 O 1858.42 -1.78728 -5.40412 0
M  V30 19819 N 1859.62 0.0673296 -5.80461 0
M  V30 19820 H 1862.39 -1.95446 -2.27203 0
M  V30 19821 H 1859.95 -1.16185 -1.1275 0
M  V30 19822 H 1861.94 -0.147283 -4.04432 0
M  V30 19823 H 1860.51 0.351241 -3.1062 0
M  V30 19824 H 1859.73 -2.12524 -3.32005 0
M  V30 19825 H 1861.02 -2.3378 -4.51912 0
M  V30 19826 H 1860.42 0.646867 -5.61989 0
M  V30 19827 H 1858.97 0.362206 -6.50793 0
M  V30 19828 N 1862.41 1.16121 -1.06553 0
M  V30 19829 C 1863.65 1.87228 -0.794807 0
M  V30 19830 C 1864.01 1.803 0.671546 0
M  V30 19831 O 1863.3 1.20961 1.4859 0
M  V30 19832 C 1863.49 3.35676 -1.22705 0
M  V30 19833 C 1863.32 3.57056 -2.73388 0
M  V30 19834 C 1862.09 3.72992 -3.40888 0
M  V30 19835 C 1864.29 3.55555 -3.71598 0
M  V30 19836 N 1862.27 3.82348 -4.80295 0
M  V30 19837 C 1863.64 3.70927 -4.96803 0
M  V30 19838 C 1865.7 3.38782 -3.64871 0
M  V30 19839 C 1864.4 3.7126 -6.16083 0
M  V30 19840 C 1866.43 3.4041 -4.83606 0
M  V30 19841 C 1865.79 3.56304 -6.07641 0
M  V30 19842 H 1861.89 0.702626 -0.343278 0
M  V30 19843 H 1864.47 1.39308 -1.3602 0
M  V30 19844 H 1862.64 3.82232 -0.689456 0
M  V30 19845 H 1864.38 3.94458 -0.904716 0
M  V30 19846 H 1861.13 3.73426 -2.91291 0
M  V30 19847 H 1861.56 3.90788 -5.52823 0
M  V30 19848 H 1866.2 3.2542 -2.69928 0
M  V30 19849 H 1863.92 3.83403 -7.11356 0
M  V30 19850 H 1867.5 3.28672 -4.80069 0
M  V30 19851 H 1866.38 3.57486 -6.97978 0
M  V30 19852 N 1863.88 0.848487 1.3281 0
M  V30 19853 C 1865.11 0.461973 2.01369 0
M  V30 19854 C 1865.52 -0.944176 1.63957 0
M  V30 19855 O 1864.87 -1.62659 0.853677 0
M  V30 19856 C 1864.93 0.514163 3.55804 0
M  V30 19857 C 1864.59 1.87812 4.16624 0
M  V30 19858 C 1865.59 2.84271 4.353 0
M  V30 19859 C 1863.27 2.17358 4.52836 0
M  V30 19860 C 1865.27 4.08433 4.89348 0
M  V30 19861 C 1862.95 3.41774 5.0659 0
M  V30 19862 C 1863.95 4.37128 5.24793 0
M  V30 19863 O 1863.64 5.59342 5.774 0
M  V30 19864 H 1863.37 0.180645 0.651416 0
M  V30 19865 H 1865.93 1.14535 1.70502 0
M  V30 19866 H 1864.16 -0.226037 3.86039 0
M  V30 19867 H 1865.85 0.14412 4.05644 0
M  V30 19868 H 1866.61 2.62747 4.07663 0
M  V30 19869 H 1862.49 1.43927 4.37957 0
M  V30 19870 H 1866.03 4.82869 5.03471 0
M  V30 19871 H 1861.93 3.63151 5.33659 0
M  V30 19872 H 1862.7 5.61215 5.95802 0
M  V30 19873 N 1865.36 -1.4549 0.605832 0
M  V30 19874 C 1866.31 -2.32256 -0.126541 0
M  V30 19875 C 1867.3 -1.45865 -0.861381 0
M  V30 19876 O 1868.51 -1.62359 -0.777146 0
M  V30 19877 H 1864.89 -0.749629 -0.0596684 0
M  V30 19878 H 1866.86 -2.91809 0.623708 0
M  V30 19879 C 1865.61 -3.2945 -1.11165 0
M  V30 19880 H 1864.93 -3.9592 -0.555636 0
M  V30 19881 H 1866.37 -3.92894 -1.59406 0
M  V30 19882 C 1864.83 -2.56493 -2.18433 0
M  V30 19883 O 1865.36 -2.34501 -3.26147 0
M  V30 19884 N 1863.56 -2.16658 -1.93669 0
M  V30 19885 H 1863.11 -2.34744 -1.0608 0
M  V30 19886 H 1863.07 -1.68166 -2.65645 0
M  V30 19887 N 1866.84 -0.344893 -1.5378 0
M  V30 19888 C 1868.07 0.255228 -2.05824 0
M  V30 19889 C 1868.49 1.43329 -1.21812 0
M  V30 19890 O 1867.85 1.79807 -0.232191 0
M  V30 19891 C 1867.9 0.646906 -3.5475 0
M  V30 19892 O 1867 1.74677 -3.7358 0
M  V30 19893 H 1866.34 0.0420518 -0.662667 0
M  V30 19894 H 1868.87 -0.499498 -1.98409 0
M  V30 19895 H 1868.88 0.923686 -3.97407 0
M  V30 19896 H 1867.56 -0.214619 -4.15346 0
M  V30 19897 H 1866.13 1.46715 -3.42825 0
M  V30 19898 N 1868.32 1.57428 -0.0735454 0
M  V30 19899 C 1869.54 1.98301 0.607591 0
M  V30 19900 C 1869.97 0.951686 1.62248 0
M  V30 19901 O 1869.33 -0.0825008 1.81112 0
M  V30 19902 C 1869.37 3.38201 1.2511 0
M  V30 19903 O 1868.48 3.37711 2.36696 0
M  V30 19904 H 1867.82 0.64539 0.156104 0
M  V30 19905 H 1870.35 2.0406 -0.148578 0
M  V30 19906 H 1870.36 3.75424 1.59753 0
M  V30 19907 H 1869.03 4.12793 0.50745 0
M  V30 19908 H 1867.61 3.1226 2.03833 0
M  V30 19909 N 1869.8 -0.200022 1.56326 0
M  V30 19910 C 1870.73 -1.27579 1.89206 0
M  V30 19911 C 1871.71 -1.44185 0.751625 0
M  V30 19912 O 1872.89 -1.59654 1.00214 0
M  V30 19913 C 1870.02 -2.64312 2.11794 0
M  V30 19914 C 1869.06 -2.64603 3.34496 0
M  V30 19915 S 1869.9 -2.16526 4.89772 0
M  V30 19916 C 1871.05 -3.55092 5.15422 0
M  V30 19917 H 1871.29 -0.99499 2.80156 0
M  V30 19918 H 1868.82 -0.403286 1.4904 0
M  V30 19919 H 1870.78 -3.43022 2.25491 0
M  V30 19920 H 1869.44 -2.89606 1.21603 0
M  V30 19921 H 1868.63 -3.65131 3.47412 0
M  V30 19922 H 1868.23 -1.93972 3.19767 0
M  V30 19923 H 1870.53 -4.50925 5.05641 0
M  V30 19924 H 1871.47 -3.47075 6.17207 0
M  V30 19925 H 1871.88 -3.49777 4.43076 0
M  V30 19926 N 1871.27 -1.50505 -0.467553 0
M  V30 19927 C 1872.22 -1.70158 -1.58584 0
M  V30 19928 C 1873.22 -0.567469 -1.59613 0
M  V30 19929 O 1874.42 -0.748063 -1.63719 0
M  V30 19930 H 1870.8 -0.537137 -0.526296 0
M  V30 19931 H 1872.77 -2.63959 -1.39171 0
M  V30 19932 C 1871.52 -1.81617 -2.96497 0
M  V30 19933 H 1870.84 -2.68276 -2.96425 0
M  V30 19934 H 1872.28 -1.99393 -3.74191 0
M  V30 19935 C 1870.74 -0.56862 -3.32067 0
M  V30 19936 O 1871.27 0.29061 -4.00647 0
M  V30 19937 N 1869.48 -0.421597 -2.87526 0
M  V30 19938 H 1869.02 -1.12184 -2.31889 0
M  V30 19939 H 1868.98 0.411959 -3.11689 0
M  V30 19940 N 1872.75 0.720973 -1.40142 0
M  V30 19941 C 1874 1.48297 -1.38332 0
M  V30 19942 C 1874.33 1.94193 0.0162191 0
M  V30 19943 O 1873.61 1.67781 0.983853 0
M  V30 19944 C 1873.89 2.71283 -2.36807 0
M  V30 19945 C 1873.74 2.31316 -3.85763 0
M  V30 19946 C 1875.06 3.73426 -2.32897 0
M  V30 19947 H 1872.18 0.537922 -0.503794 0
M  V30 19948 H 1874.82 0.823265 -1.71238 0
M  V30 19949 H 1872.97 3.27571 -2.08877 0
M  V30 19950 H 1874.64 1.80551 -4.24499 0
M  V30 19951 H 1872.89 1.63379 -4.01858 0
M  V30 19952 H 1873.56 3.19449 -4.50174 0
M  V30 19953 H 1876.03 3.26755 -2.57624 0
M  V30 19954 H 1874.91 4.57124 -3.03856 0
M  V30 19955 H 1875.17 4.21343 -1.33876 0
M  V30 19956 N 1874.23 1.25549 0.952634 0
M  V30 19957 C 1875.48 1.09811 1.69188 0
M  V30 19958 C 1875.79 -0.360368 1.92252 0
M  V30 19959 O 1877 -0.638228 2.63892 0
M  V30 19960 C 1875.45 1.91693 3.04601 0
M  V30 19961 C 1875.06 3.42045 2.89326 0
M  V30 19962 C 1876.81 1.8453 3.82294 0
M  V30 19963 C 1874.71 4.16216 4.20141 0
M  V30 19964 H 1873.64 0.40733 0.634507 0
M  V30 19965 H 1876.29 1.49762 1.06035 0
M  V30 19966 H 1874.68 1.44566 3.68669 0
M  V30 19967 H 1875.85 3.96859 2.34178 0
M  V30 19968 H 1874.17 3.50322 2.25085 0
M  V30 19969 H 1876.76 2.37237 4.79189 0
M  V30 19970 H 1877.11 0.81361 4.08272 0
M  V30 19971 H 1877.64 2.29418 3.2498 0
M  V30 19972 H 1874.38 5.19806 3.99352 0
M  V30 19973 H 1873.9 3.66184 4.75047 0
M  V30 19974 H 1875.58 4.2404 4.88671 0
M  V30 19975 N 1875.71 -1.15554 1.07168 0
M  V30 19976 C 1876.95 -1.87964 0.803046 0
M  V30 19977 C 1877.31 -1.80344 -0.658795 0
M  V30 19978 O 1878.51 -2.47765 -1.0424 0
M  V30 19979 C 1876.78 -3.33115 1.29495 0
M  V30 19980 S 1878.34 -4.2328 1.15671 0
M  V30 19981 H 1875.16 -0.648695 0.29106 0
M  V30 19982 H 1877.76 -1.39428 1.3704 0
M  V30 19983 H 1876.47 -3.36205 2.35361 0
M  V30 19984 H 1876 -3.86704 0.722721 0
M  V30 19985 H 1878.01 -4.96113 0.0930855 0
M  V30 19986 N 1877.19 -0.855519 -1.32358 0
M  V30 19987 C 1878.42 -0.473331 -2.01413 0
M  V30 19988 C 1878.83 0.930206 -1.64294 0
M  V30 19989 O 1878.19 1.60714 -0.864705 0
M  V30 19990 C 1878.24 -0.603815 -3.56422 0
M  V30 19991 O 1877.96 -1.95207 -3.92207 0
M  V30 19992 C 1879.46 -0.220748 -4.4275 0
M  V30 19993 H 1876.68 -0.185962 -0.644716 0
M  V30 19994 H 1879.22 -1.1527 -1.68918 0
M  V30 19995 H 1877.38 0.0278263 -3.8739 0
M  V30 19996 H 1877.79 -1.94946 -4.86925 0
M  V30 19997 H 1879.27 -0.363048 -5.50805 0
M  V30 19998 H 1879.74 0.838881 -4.31114 0
M  V30 19999 H 1880.35 -0.827498 -4.17172 0
M  V30 20000 N 1878.67 1.45167 -0.61354 0
M  V30 20001 C 1879.91 2.03048 -0.119679 0
M  V30 20002 C 1880.27 1.47264 1.23819 0
M  V30 20003 O 1879.56 0.640171 1.80589 0
M  V30 20004 C 1879.75 3.57389 -0.0281394 0
M  V30 20005 C 1879.58 4.28144 -1.37559 0
M  V30 20006 C 1878.35 4.6583 -1.95783 0
M  V30 20007 C 1880.55 4.59722 -2.30566 0
M  V30 20008 N 1878.53 5.21471 -3.23946 0
M  V30 20009 C 1879.9 5.16259 -3.43331 0
M  V30 20010 C 1881.96 4.41664 -2.29864 0
M  V30 20011 C 1880.66 5.56642 -4.55568 0
M  V30 20012 C 1882.69 4.83083 -3.41152 0
M  V30 20013 C 1882.05 5.39719 -4.5264 0
M  V30 20014 H 1878.15 0.777111 -0.0873027 0
M  V30 20015 H 1880.73 1.76905 -0.813193 0
M  V30 20016 H 1878.9 3.8318 0.634609 0
M  V30 20017 H 1880.64 4.01927 0.472928 0
M  V30 20018 H 1877.39 4.49577 -1.48922 0
M  V30 20019 H 1877.81 5.53785 -3.89424 0
M  V30 20020 H 1882.46 3.97185 -1.44927 0
M  V30 20021 H 1880.17 6.00084 -5.41226 0
M  V30 20022 H 1883.76 4.70838 -3.41764 0
M  V30 20023 H 1882.64 5.71179 -5.37331 0
M  V30 20024 N 1880.14 0.353044 1.53595 0
M  V30 20025 C 1881.07 -0.491481 2.28269 0
M  V30 20026 C 1882.05 -1.0946 1.30201 0
M  V30 20027 O 1883.24 -1.11421 1.59056 0
M  V30 20028 C 1880.37 -1.63776 3.06259 0
M  V30 20029 C 1879.32 -1.16251 4.1191 0
M  V30 20030 C 1878.65 -2.39805 4.7791 0
M  V30 20031 C 1879.95 -0.256191 5.21671 0
M  V30 20032 H 1881.64 0.131483 2.99111 0
M  V30 20033 H 1879.19 0.0646771 1.43855 0
M  V30 20034 H 1881.14 -2.2351 3.57241 0
M  V30 20035 H 1879.87 -2.28777 2.33085 0
M  V30 20036 H 1878.53 -0.587934 3.61855 0
M  V30 20037 H 1878.17 -3.03234 4.0132 0
M  V30 20038 H 1877.87 -2.08684 5.49295 0
M  V30 20039 H 1879.4 -3.00248 5.3168 0
M  V30 20040 H 1880.81 -0.760642 5.68232 0
M  V30 20041 H 1879.21 -0.0364273 6.00089 0
M  V30 20042 H 1880.28 0.705105 4.79746 0
M  V30 20043 N 1881.62 -1.57387 0.0818932 0
M  V30 20044 C 1882.85 -1.98201 -0.593645 0
M  V30 20045 C 1883.26 -0.960602 -1.62536 0
M  V30 20046 O 1882.62 0.0514903 -1.82427 0
M  V30 20047 C 1882.67 -3.39083 -1.2532 0
M  V30 20048 O 1882.39 -4.37311 -0.262763 0
M  V30 20049 C 1883.89 -3.94827 -2.0156 0
M  V30 20050 H 1881.11 -0.651606 -0.160159 0
M  V30 20051 H 1883.66 -2.03894 0.157281 0
M  V30 20052 H 1881.81 -3.34444 -1.95514 0
M  V30 20053 H 1882.23 -5.19294 -0.737169 0
M  V30 20054 H 1883.7 -4.95594 -2.43086 0
M  V30 20055 H 1884.18 -3.31921 -2.8762 0
M  V30 20056 H 1884.78 -4.02898 -1.36211 0
M  V30 20057 N 1883.1 0.191729 -1.56429 0
M  V30 20058 C 1884.38 0.937684 -1.71659 0
M  V30 20059 C 1884.76 2.0124 -0.63762 0
M  V30 20060 O 1884.1 2.2579 0.350865 0
M  V30 20061 C 1884.31 1.52104 -3.14111 0
M  V30 20062 C 1885.66 2.00186 -3.74447 0
M  V30 20063 O 1886.69 1.61939 -3.1726 0
M  V30 20064 O 1885.55 2.70576 -4.74817 0
M  V30 20065 H 1882.64 0.439962 -0.700259 0
M  V30 20066 H 1885.19 0.181161 -1.6873 0
M  V30 20067 H 1883.96 0.746526 -3.84113 0
M  V30 20068 H 1883.58 2.3423 -3.21282 0
M  V30 20069 N 1884.58 1.50751 0.459565 0
M  V30 20070 C 1885.99 1.38432 0.794269 0
M  V30 20071 C 1886.19 0.449353 1.96426 0
M  V30 20072 O 1885.25 -0.103761 2.52287 0
M  V30 20073 C 1886.56 2.80034 1.09551 0
M  V30 20074 C 1888.11 2.8903 1.20127 0
M  V30 20075 C 1888.59 4.3149 1.53558 0
M  V30 20076 N 1890.08 4.34494 1.60527 0
M  V30 20077 C 1890.81 5.41732 1.87921 0
M  V30 20078 N 1890.31 6.59161 2.13258 0
M  V30 20079 N 1892.1 5.29187 1.89519 0
M  V30 20080 H 1884.25 2.10106 -0.311312 0
M  V30 20081 H 1886.51 0.944884 -0.0767974 0
M  V30 20082 H 1886.22 3.50342 0.308751 0
M  V30 20083 H 1886.09 3.17992 2.02882 0
M  V30 20084 H 1888.48 2.18934 1.97869 0
M  V30 20085 H 1888.56 2.546 0.247486 0
M  V30 20086 H 1888.21 5.02128 0.763522 0
M  V30 20087 H 1888.14 4.63416 2.50106 0
M  V30 20088 H 1890.63 3.49824 1.42939 0
M  V30 20089 H 1890.94 7.3669 2.33468 0
M  V30 20090 H 1889.29 6.62315 2.10626 0
M  V30 20091 H 1892.48 4.36439 1.69229 0
M  V30 20092 H 1892.65 6.12846 2.10532 0
M  V30 20093 N 1886.06 -0.713531 1.40522 0
M  V30 20094 C 1886.99 -1.83724 1.35354 0
M  V30 20095 C 1887.97 -1.61055 0.223598 0
M  V30 20096 O 1889.15 -1.84041 0.407593 0
M  V30 20097 C 1886.28 -3.20099 1.10699 0
M  V30 20098 C 1885.32 -3.61592 2.26172 0
M  V30 20099 S 1886.16 -3.68469 3.88576 0
M  V30 20100 C 1887.31 -5.076 3.66188 0
M  V30 20101 H 1887.55 -1.87828 2.30452 0
M  V30 20102 H 1885.08 -0.88051 1.26832 0
M  V30 20103 H 1887.04 -3.98836 0.971588 0
M  V30 20104 H 1885.7 -3.13626 0.172515 0
M  V30 20105 H 1884.89 -4.60617 2.04568 0
M  V30 20106 H 1884.49 -2.90117 2.36026 0
M  V30 20107 H 1886.78 -5.94578 3.24782 0
M  V30 20108 H 1887.73 -5.3424 4.64751 0
M  V30 20109 H 1888.14 -4.7829 2.99831 0
M  V30 20110 N 1887.53 -1.26053 -0.945962 0
M  V30 20111 C 1888.81 -1.02072 -1.66855 0
M  V30 20112 C 1889.19 0.45036 -2.0624 0
M  V30 20113 O 1888.54 1.42966 -1.7825 0
M  V30 20114 C 1888.75 -1.96486 -2.88434 0
M  V30 20115 C 1890.1 -2.24825 -3.60193 0
M  V30 20116 O 1891.12 -1.94314 -2.98531 0
M  V30 20117 O 1889.98 -2.76749 -4.71245 0
M  V30 20118 H 1887.07 -0.387753 -0.730463 0
M  V30 20119 H 1889.62 -1.37243 -0.998117 0
M  V30 20120 H 1888.39 -2.95779 -2.56185 0
M  V30 20121 H 1888.01 -1.61765 -3.63205 0
M  V30 20122 N 1889.01 1.14984 -1.07779 0
M  V30 20123 C 1889.94 2.22006 -0.723564 0
M  V30 20124 C 1890.92 1.67592 0.291024 0
M  V30 20125 O 1892.11 1.93516 0.162812 0
M  V30 20126 C 1889.24 3.47074 -0.125223 0
M  V30 20127 C 1888.19 4.14475 -1.06745 0
M  V30 20128 C 1887.52 5.33671 -0.331643 0
M  V30 20129 C 1888.82 4.63744 -2.4029 0
M  V30 20130 H 1890.51 2.51893 -1.61834 0
M  V30 20131 H 1888.06 1.21073 -0.779571 0
M  V30 20132 H 1890.01 4.21185 0.134555 0
M  V30 20133 H 1888.73 3.16533 0.804654 0
M  V30 20134 H 1887.39 3.4231 -1.31222 0
M  V30 20135 H 1887.04 4.99387 0.601833 0
M  V30 20136 H 1886.74 5.7971 -0.959721 0
M  V30 20137 H 1888.27 6.10548 -0.0797668 0
M  V30 20138 H 1889.68 5.2936 -2.20115 0
M  V30 20139 H 1888.08 5.20461 -2.98732 0
M  V30 20140 H 1889.15 3.79151 -3.02279 0
M  V30 20141 N 1890.49 0.862526 1.31902 0
M  V30 20142 C 1891.42 0.270103 2.27603 0
M  V30 20143 C 1892.43 -0.562639 1.52768 0
M  V30 20144 O 1893.62 -0.385845 1.7428 0
M  V30 20145 C 1890.72 -0.636314 3.32873 0
M  V30 20146 C 1889.9 0.162327 4.37099 0
M  V30 20147 C 1888.96 -0.67107 5.21903 0
M  V30 20148 O 1887.98 -0.101765 5.69109 0
M  V30 20149 N 1889.18 -1.98441 5.45529 0
M  V30 20150 H 1891.95 1.09248 2.79079 0
M  V30 20151 H 1889.51 0.723275 1.44846 0
M  V30 20152 H 1891.5 -1.19937 3.86519 0
M  V30 20153 H 1890.07 -1.35936 2.81496 0
M  V30 20154 H 1889.29 0.906824 3.83628 0
M  V30 20155 H 1890.58 0.710602 5.03813 0
M  V30 20156 H 1889.98 -2.47017 5.0892 0
M  V30 20157 H 1888.53 -2.49542 6.0214 0
M  V30 20158 N 1891.97 -1.4484 0.62123 0
M  V30 20159 C 1892.9 -2.33374 -0.0766286 0
M  V30 20160 C 1893.88 -1.47631 -0.844932 0
M  V30 20161 O 1895.06 -1.76373 -0.81278 0
M  V30 20162 C 1892.19 -3.30552 -1.0655 0
M  V30 20163 C 1891.15 -4.26037 -0.409496 0
M  V30 20164 C 1890.47 -5.13007 -1.50757 0
M  V30 20165 C 1891.77 -5.17881 0.677994 0
M  V30 20166 H 1893.47 -2.91975 0.662658 0
M  V30 20167 H 1891.01 -1.40397 0.320117 0
M  V30 20168 H 1892.97 -3.91367 -1.56237 0
M  V30 20169 H 1891.69 -2.70139 -1.83555 0
M  V30 20170 H 1890.35 -3.66539 0.0666321 0
M  V30 20171 H 1890 -4.48954 -2.26825 0
M  V30 20172 H 1889.7 -5.777 -1.07407 0
M  V30 20173 H 1891.22 -5.76692 -2.00645 0
M  V30 20174 H 1892.64 -5.72689 0.264637 0
M  V30 20175 H 1891.03 -5.91124 1.03405 0
M  V30 20176 H 1892.1 -4.59488 1.54914 0
M  V30 20177 N 1893.45 -0.361184 -1.53405 0
M  V30 20178 C 1894.4 0.503718 -2.22366 0
M  V30 20179 C 1895.38 1.05217 -1.2173 0
M  V30 20180 O 1896.57 0.982945 -1.47198 0
M  V30 20181 C 1893.7 1.64517 -3.01312 0
M  V30 20182 C 1892.79 1.1098 -4.09322 0
M  V30 20183 N 1893.18 0.297072 -5.04927 0
M  V30 20184 C 1891.48 1.38503 -4.23949 0
M  V30 20185 C 1892.18 0.00446147 -5.817 0
M  V30 20186 N 1891.15 0.600899 -5.40269 0
M  V30 20187 H 1894.96 -0.124086 -2.93638 0
M  V30 20188 H 1892.47 -0.168968 -1.61519 0
M  V30 20189 H 1894.47 2.27692 -3.49231 0
M  V30 20190 H 1893.13 2.27607 -2.31571 0
M  V30 20191 H 1894.14 -0.0633533 -5.17861 0
M  V30 20192 H 1890.81 2.01904 -3.65432 0
M  V30 20193 H 1892.2 -0.65228 -6.68726 0
M  V30 20194 N 1894.92 1.57341 -0.0902386 0
M  V30 20195 C 1896.17 1.93352 0.574273 0
M  V30 20196 C 1896.49 0.97374 1.6964 0
M  V30 20197 O 1897.69 1.22737 2.42173 0
M  V30 20198 C 1896.15 3.43536 1.07289 0
M  V30 20199 C 1895.76 4.47996 -0.0192163 0
M  V30 20200 C 1897.5 3.88516 1.71042 0
M  V30 20201 C 1895.41 5.89329 0.494487 0
M  V30 20202 H 1894.34 0.721711 0.218287 0
M  V30 20203 H 1896.99 1.82753 -0.165456 0
M  V30 20204 H 1895.37 3.49271 1.86616 0
M  V30 20205 H 1896.54 4.53899 -0.794527 0
M  V30 20206 H 1894.86 4.12595 -0.561628 0
M  V30 20207 H 1897.46 4.91505 2.1054 0
M  V30 20208 H 1897.8 3.26896 2.57769 0
M  V30 20209 H 1898.33 3.85462 0.983058 0
M  V30 20210 H 1895.07 6.54638 -0.336054 0
M  V30 20211 H 1894.59 5.86908 1.23691 0
M  V30 20212 H 1896.27 6.39763 0.965014 0
M  V30 20213 N 1896.4 -0.183431 1.56529 0
M  V30 20214 C 1897.63 -0.916557 1.85156 0
M  V30 20215 C 1898.04 -1.76861 0.672063 0
M  V30 20216 O 1897.38 -1.7997 -0.3683 0
M  V30 20217 C 1897.45 -1.85342 3.0804 0
M  V30 20218 C 1897.11 -1.18216 4.41445 0
M  V30 20219 C 1898.11 -0.553445 5.16946 0
M  V30 20220 C 1895.79 -1.18253 4.88182 0
M  V30 20221 C 1897.79 0.0659422 6.37366 0
M  V30 20222 C 1895.47 -0.559316 6.08535 0
M  V30 20223 C 1896.47 0.0638301 6.8297 0
M  V30 20224 O 1896.16 0.677251 8.01042 0
M  V30 20225 H 1895.89 -0.272343 0.618713 0
M  V30 20226 H 1898.44 -0.192085 2.045 0
M  V30 20227 H 1896.67 -2.61789 2.84611 0
M  V30 20228 H 1898.36 -2.45533 3.23215 0
M  V30 20229 H 1899.13 -0.545219 4.81926 0
M  V30 20230 H 1895.01 -1.65696 4.30193 0
M  V30 20231 H 1898.55 0.552935 6.95405 0
M  V30 20232 H 1894.45 -0.565084 6.43022 0
M  V30 20233 H 1895.22 0.575305 8.16476 0
M  V30 20234 N 1897.88 -1.50992 -0.451564 0
M  V30 20235 C 1898.81 -1.67453 -1.56499 0
M  V30 20236 C 1899.83 -0.555481 -1.5303 0
M  V30 20237 O 1901.01 -0.829335 -1.58064 0
M  V30 20238 C 1898.11 -1.66093 -2.95409 0
M  V30 20239 C 1897.29 -2.94351 -3.23537 0
M  V30 20240 C 1896.35 -2.8537 -4.42098 0
M  V30 20241 O 1895.37 -3.59323 -4.41447 0
M  V30 20242 N 1896.57 -2.0025 -5.44867 0
M  V30 20243 H 1899.34 -2.63499 -1.42788 0
M  V30 20244 H 1896.9 -1.48701 -0.640293 0
M  V30 20245 H 1898.89 -1.57672 -3.72722 0
M  V30 20246 H 1897.46 -0.777014 -3.02789 0
M  V30 20247 H 1896.68 -3.16751 -2.34654 0
M  V30 20248 H 1897.97 -3.79281 -3.39151 0
M  V30 20249 H 1897.37 -1.39517 -5.48226 0
M  V30 20250 H 1895.93 -1.97719 -6.21088 0
M  V30 20251 N 1899.36 0.706069 -1.40899 0
M  V30 20252 C 1900.29 1.83275 -1.44681 0
M  V30 20253 C 1901.27 1.67313 -0.306629 0
M  V30 20254 O 1902.45 1.87203 -0.516597 0
M  V30 20255 C 1899.58 3.21319 -1.318 0
M  V30 20256 C 1898.54 3.51969 -2.4352 0
M  V30 20257 C 1897.86 4.89258 -2.1571 0
M  V30 20258 C 1899.16 3.52004 -3.85864 0
M  V30 20259 H 1900.86 1.80367 -2.38973 0
M  V30 20260 H 1898.4 0.866349 -1.15023 0
M  V30 20261 H 1900.36 3.99841 -1.3306 0
M  V30 20262 H 1899.08 3.24827 -0.339879 0
M  V30 20263 H 1897.74 2.75792 -2.41525 0
M  V30 20264 H 1897.39 4.89378 -1.16266 0
M  V30 20265 H 1897.09 5.1073 -2.90566 0
M  V30 20266 H 1898.61 5.70102 -2.18669 0
M  V30 20267 H 1900.03 4.20548 -3.8963 0
M  V30 20268 H 1898.42 3.85005 -4.60316 0
M  V30 20269 H 1899.49 2.51191 -4.14766 0
M  V30 20270 N 1900.84 1.26553 0.939264 0
M  V30 20271 C 1901.78 1.08276 2.03826 0
M  V30 20272 C 1902.75 -0.0127713 1.66095 0
M  V30 20273 O 1903.94 0.147362 1.9023 0
M  V30 20274 C 1901.08 0.723819 3.37424 0
M  V30 20275 C 1900.19 1.8958 3.88179 0
M  V30 20276 C 1899.33 1.4798 5.10172 0
M  V30 20277 C 1898.37 2.61997 5.53194 0
M  V30 20278 N 1897.5 2.21064 6.66389 0
M  V30 20279 H 1902.34 2.02323 2.18791 0
M  V30 20280 H 1899.88 1.00732 1.07198 0
M  V30 20281 H 1901.84 0.496585 4.14234 0
M  V30 20282 H 1900.47 -0.179671 3.223 0
M  V30 20283 H 1899.52 2.23591 3.07752 0
M  V30 20284 H 1900.83 2.7515 4.16045 0
M  V30 20285 H 1899.99 1.21312 5.94448 0
M  V30 20286 H 1898.72 0.595025 4.84057 0
M  V30 20287 H 1897.73 2.89391 4.67475 0
M  V30 20288 H 1898.95 3.51076 5.81311 0
M  V30 20289 H 1896.9 1.35024 6.41954 0
M  V30 20290 H 1896.82 3.00177 6.93851 0
M  V30 20291 H 1898.09 1.97614 7.54035 0
M  V30 20292 N 1902.31 -1.14411 1.08387 0
M  V30 20293 C 1903.54 -1.89307 0.834895 0
M  V30 20294 C 1903.96 -1.78574 -0.612923 0
M  V30 20295 O 1903.31 -1.14494 -1.42118 0
M  V30 20296 C 1903.37 -3.39289 1.24761 0
M  V30 20297 O 1903.09 -3.49725 2.63863 0
M  V30 20298 C 1904.59 -4.31181 1.02947 0
M  V30 20299 H 1901.81 -0.599644 0.301112 0
M  V30 20300 H 1904.35 -1.44897 1.44309 0
M  V30 20301 H 1902.51 -3.81322 0.683524 0
M  V30 20302 H 1902.92 -4.42884 2.80988 0
M  V30 20303 H 1904.39 -5.34789 1.36763 0
M  V30 20304 H 1904.87 -4.39187 -0.0335224 0
M  V30 20305 H 1905.48 -3.94903 1.57898 0
M  V30 20306 N 1903.79 -0.869509 -1.31443 0
M  V30 20307 C 1904.72 -0.340679 -2.31001 0
M  V30 20308 C 1905.7 0.568186 -1.6033 0
M  V30 20309 O 1906.89 0.485305 -1.88038 0
M  V30 20310 C 1904.02 0.45909 -3.44252 0
M  V30 20311 C 1902.97 -0.356639 -4.26512 0
M  V30 20312 C 1902.3 0.568786 -5.31666 0
M  V30 20313 C 1903.6 -1.59045 -4.97496 0
M  V30 20314 H 1905.29 -1.1726 -2.75482 0
M  V30 20315 H 1902.84 -0.5653 -1.3244 0
M  V30 20316 H 1904.79 0.839573 -4.12952 0
M  V30 20317 H 1903.52 1.32451 -2.98537 0
M  V30 20318 H 1902.17 -0.719063 -3.59479 0
M  V30 20319 H 1901.82 1.43148 -4.82201 0
M  V30 20320 H 1901.52 0.0268906 -5.87594 0
M  V30 20321 H 1903.05 0.946122 -6.03225 0
M  V30 20322 H 1904.46 -1.28144 -5.58795 0
M  V30 20323 H 1902.86 -2.07139 -5.63217 0
M  V30 20324 H 1903.93 -2.34354 -4.24507 0
M  V30 20325 N 1905.27 1.44508 -0.628902 0
M  V30 20326 C 1906.52 2.01281 -0.129966 0
M  V30 20327 C 1906.83 1.50041 1.25488 0
M  V30 20328 O 1908.04 1.98927 1.84771 0
M  V30 20329 C 1906.49 3.59442 -0.1816 0
M  V30 20330 C 1906.1 4.19678 -1.56762 0
M  V30 20331 C 1907.85 4.23697 0.260988 0
M  V30 20332 C 1905.75 5.70056 -1.57449 0
M  V30 20333 H 1904.68 0.752667 -0.0448215 0
M  V30 20334 H 1907.33 1.65749 -0.787372 0
M  V30 20335 H 1905.72 3.92261 0.542864 0
M  V30 20336 H 1906.89 3.98399 -2.31549 0
M  V30 20337 H 1905.21 3.67701 -1.9541 0
M  V30 20338 H 1907.8 5.33991 0.275356 0
M  V30 20339 H 1908.15 3.95878 1.28787 0
M  V30 20340 H 1908.68 3.95672 -0.410909 0
M  V30 20341 H 1905.42 6.02606 -2.57966 0
M  V30 20342 H 1904.94 5.93464 -0.869514 0
M  V30 20343 H 1906.62 6.33652 -1.30745 0
M  V30 20344 N 1906.75 0.369315 1.53212 0
M  V30 20345 C 1908.17 0.0184115 1.59589 0
M  V30 20346 C 1908.37 -1.46424 1.38428 0
M  V30 20347 O 1907.42 -2.2263 1.1913 0
M  V30 20348 C 1908.73 0.477693 2.96881 0
M  V30 20349 C 1910.28 0.432233 3.10001 0
M  V30 20350 C 1910.76 0.867386 4.49711 0
M  V30 20351 N 1912.25 0.822594 4.55837 0
M  V30 20352 C 1912.98 1.13094 5.62136 0
M  V30 20353 N 1912.48 1.50876 6.76172 0
M  V30 20354 N 1914.27 1.0535 5.52139 0
M  V30 20355 H 1906.42 1.33479 1.65218 0
M  V30 20356 H 1908.69 0.545823 0.775101 0
M  V30 20357 H 1908.39 1.51245 3.17518 0
M  V30 20358 H 1908.27 -0.133741 3.76963 0
M  V30 20359 H 1910.65 -0.593397 2.89072 0
M  V30 20360 H 1910.73 1.07921 2.3192 0
M  V30 20361 H 1910.38 1.89115 4.71379 0
M  V30 20362 H 1910.31 0.19762 5.26229 0
M  V30 20363 H 1912.8 0.544303 3.7396 0
M  V30 20364 H 1913.11 1.72821 7.53228 0
M  V30 20365 H 1911.46 1.54745 6.77554 0
M  V30 20366 H 1914.65 0.757487 4.6193 0
M  V30 20367 H 1914.82 1.29713 6.34885 0
M  V30 20368 N 1908.23 -1.57291 0.0985816 0
M  V30 20369 C 1909.16 -2.09882 -0.895809 0
M  V30 20370 C 1910.14 -1.01022 -1.2741 0
M  V30 20371 O 1911.32 -1.28543 -1.37873 0
M  V30 20372 C 1908.45 -2.57868 -2.19594 0
M  V30 20373 C 1907.5 -3.7842 -1.96725 0
M  V30 20374 S 1908.33 -5.21834 -1.20208 0
M  V30 20375 C 1909.48 -5.73172 -2.51444 0
M  V30 20376 H 1909.72 -2.93899 -0.448416 0
M  V30 20377 H 1907.25 -1.53973 -0.114779 0
M  V30 20378 H 1909.21 -2.86173 -2.94305 0
M  V30 20379 H 1907.87 -1.74071 -2.61454 0
M  V30 20380 H 1907.06 -4.10075 -2.93009 0
M  V30 20381 H 1906.66 -3.50627 -1.30142 0
M  V30 20382 H 1908.96 -5.81652 -3.47401 0
M  V30 20383 H 1909.9 -6.71615 -2.24362 0
M  V30 20384 H 1910.31 -5.01123 -2.59877 0
M  V30 20385 N 1909.71 0.175127 -1.56624 0
M  V30 20386 C 1910.95 0.89369 -1.82047 0
M  V30 20387 C 1911.28 1.82061 -0.675831 0
M  V30 20388 O 1910.56 1.91808 0.322453 0
M  V30 20389 C 1910.84 1.69266 -3.17838 0
M  V30 20390 C 1910.7 0.789122 -4.42824 0
M  V30 20391 C 1912.01 2.66115 -3.50529 0
M  V30 20392 H 1909.13 0.323454 -0.662228 0
M  V30 20393 H 1911.78 0.160077 -1.89324 0
M  V30 20394 H 1909.93 2.31808 -3.11765 0
M  V30 20395 H 1911.6 0.17687 -4.60961 0
M  V30 20396 H 1909.84 0.0969508 -4.33692 0
M  V30 20397 H 1910.51 1.38358 -5.34379 0
M  V30 20398 H 1912.99 2.137 -3.57031 0
M  V30 20399 H 1911.86 3.19087 -4.46626 0
M  V30 20400 H 1912.12 3.4613 -2.75038 0
M  V30 20401 N 1911.18 1.5123 0.44355 0
M  V30 20402 C 1912.13 1.72095 1.53792 0
M  V30 20403 C 1913.1 0.562529 1.56284 0
M  V30 20404 O 1914.29 0.796259 1.73391 0
M  V30 20405 C 1911.43 1.84627 2.9156 0
M  V30 20406 C 1910.54 3.12147 2.98644 0
M  V30 20407 C 1909.67 3.1531 4.27496 0
M  V30 20408 C 1908.71 4.37171 4.28425 0
M  V30 20409 N 1907.85 4.37919 5.48791 0
M  V30 20410 H 1912.69 2.65512 1.35304 0
M  V30 20411 H 1910.23 1.31593 0.657387 0
M  V30 20412 H 1912.18 1.89874 3.71488 0
M  V30 20413 H 1910.81 0.946232 3.0862 0
M  V30 20414 H 1909.87 3.16239 2.11417 0
M  V30 20415 H 1911.18 4.02074 2.95192 0
M  V30 20416 H 1910.33 3.19439 5.15794 0
M  V30 20417 H 1909.07 2.23261 4.33596 0
M  V30 20418 H 1908.08 4.33225 3.38521 0
M  V30 20419 H 1909.3 5.30477 4.23994 0
M  V30 20420 H 1907.25 3.48737 5.55624 0
M  V30 20421 H 1907.16 5.21647 5.47193 0
M  V30 20422 H 1908.43 4.46232 6.39138 0
M  V30 20423 N 1912.66 -0.698586 1.41271 0
M  V30 20424 C 1913.61 -1.81256 1.42881 0
M  V30 20425 C 1914.58 -1.63662 0.283562 0
M  V30 20426 O 1915.76 -1.84555 0.48416 0
M  V30 20427 C 1912.9 -3.19113 1.31381 0
M  V30 20428 C 1912.02 -3.4816 2.55751 0
M  V30 20429 C 1911.15 -4.75615 2.36566 0
M  V30 20430 C 1910.19 -4.9762 3.56427 0
M  V30 20431 N 1909.33 -6.16299 3.36332 0
M  V30 20432 H 1914.17 -1.79214 2.38089 0
M  V30 20433 H 1911.7 -0.875213 1.1823 0
M  V30 20434 H 1913.66 -3.98744 1.22716 0
M  V30 20435 H 1912.29 -3.20339 0.397831 0
M  V30 20436 H 1911.34 -2.62957 2.74878 0
M  V30 20437 H 1912.66 -3.60323 3.44918 0
M  V30 20438 H 1911.81 -5.63295 2.25352 0
M  V30 20439 H 1910.55 -4.65693 1.44851 0
M  V30 20440 H 1909.55 -4.0839 3.681 0
M  V30 20441 H 1910.78 -5.09404 4.49093 0
M  V30 20442 H 1908.73 -6.07595 2.47314 0
M  V30 20443 H 1908.64 -6.29216 4.19074 0
M  V30 20444 H 1909.91 -7.06722 3.28884 0
M  V30 20445 N 1914.14 -1.27049 -0.93254 0
M  V30 20446 C 1915.37 -1.15903 -1.71389 0
M  V30 20447 C 1915.78 0.284726 -1.86641 0
M  V30 20448 O 1915.14 1.19428 -1.37997 0
M  V30 20449 C 1915.19 -1.83254 -3.11609 0
M  V30 20450 O 1914.91 -3.21988 -2.97078 0
M  V30 20451 C 1916.41 -1.78172 -4.05918 0
M  V30 20452 H 1913.63 -0.403197 -0.536352 0
M  V30 20453 H 1916.18 -1.67831 -1.16846 0
M  V30 20454 H 1914.33 -1.35243 -3.63026 0
M  V30 20455 H 1914.75 -3.55447 -3.85691 0
M  V30 20456 H 1916.22 -2.29919 -5.01838 0
M  V30 20457 H 1916.7 -0.750036 -4.32748 0
M  V30 20458 H 1917.3 -2.25774 -3.60425 0
M  V30 20459 N 1915.62 1.13835 -1.08993 0
M  V30 20460 C 1916.85 1.88588 -0.843698 0
M  V30 20461 C 1917.26 1.79154 0.608307 0
M  V30 20462 O 1916.6 1.1529 1.43017 0
M  V30 20463 C 1916.66 3.39079 -1.19438 0
M  V30 20464 C 1916.32 3.72295 -2.65038 0
M  V30 20465 C 1917.32 3.71911 -3.63288 0
M  V30 20466 C 1915.01 4.0209 -3.01046 0
M  V30 20467 C 1917 4.00855 -4.95574 0
M  V30 20468 C 1914.69 4.30697 -4.33525 0
M  V30 20469 C 1915.69 4.30063 -5.30598 0
M  V30 20470 O 1915.37 4.57972 -6.60694 0
M  V30 20471 H 1915.11 0.60402 -0.303539 0
M  V30 20472 H 1917.66 1.45055 -1.45424 0
M  V30 20473 H 1915.89 3.83094 -0.526861 0
M  V30 20474 H 1917.58 3.95149 -0.928011 0
M  V30 20475 H 1918.34 3.48972 -3.36814 0
M  V30 20476 H 1914.22 4.01733 -2.26123 0
M  V30 20477 H 1917.77 4.00276 -5.71336 0
M  V30 20478 H 1913.66 4.53106 -4.59745 0
M  V30 20479 H 1914.43 4.75661 -6.661 0
M  V30 20480 N 1917.1 0.876467 1.3098 0
M  V30 20481 C 1918.51 0.569284 1.49102 0
M  V30 20482 C 1918.71 -0.895048 1.8053 0
M  V30 20483 O 1917.77 -1.67682 1.88783 0
M  V30 20484 C 1919.08 1.4751 2.62033 0
M  V30 20485 C 1920.63 1.47783 2.75915 0
M  V30 20486 C 1921.1 2.36937 3.9195 0
M  V30 20487 N 1922.59 2.34853 3.99247 0
M  V30 20488 C 1923.33 3.00553 4.88319 0
M  V30 20489 N 1922.83 3.75446 5.82247 0
M  V30 20490 N 1924.62 2.89828 4.81618 0
M  V30 20491 H 1916.77 1.82388 1.08851 0
M  V30 20492 H 1919.03 0.780233 0.538461 0
M  V30 20493 H 1918.74 2.51737 2.45605 0
M  V30 20494 H 1918.61 1.1784 3.5832 0
M  V30 20495 H 1921 0.443113 2.91754 0
M  V30 20496 H 1921.08 1.81479 1.80275 0
M  V30 20497 H 1920.72 3.40488 3.76869 0
M  V30 20498 H 1920.65 2.00561 4.86911 0
M  V30 20499 H 1923.15 1.80421 3.32049 0
M  V30 20500 H 1923.46 4.2269 6.46957 0
M  V30 20501 H 1921.8 3.79554 5.82206 0
M  V30 20502 H 1924.99 2.30852 4.07216 0
M  V30 20503 H 1925.17 3.41309 5.50829 0
M  V30 20504 N 1918.57 -1.44173 0.636557 0
M  V30 20505 C 1919.85 -1.9546 0.0738864 0
M  V30 20506 C 1920.23 -1.57838 -1.4018 0
M  V30 20507 O 1919.58 -0.855144 -2.11895 0
M  V30 20508 C 1919.79 -3.47687 0.302493 0
M  V30 20509 C 1921.14 -4.24135 0.198569 0
M  V30 20510 O 1922.16 -3.5543 0.234151 0
M  V30 20511 O 1921.02 -5.46393 0.108108 0
M  V30 20512 H 1918.11 -0.826777 -0.0191985 0
M  V30 20513 H 1920.66 -1.54196 0.708638 0
M  V30 20514 H 1919.43 -3.68139 1.32625 0
M  V30 20515 H 1919.05 -3.95911 -0.366134 0
M  V30 20516 N 1920.05 -0.377435 -1.53014 0
M  V30 20517 C 1921.3 0.20853 -2.01423 0
M  V30 20518 C 1921.63 1.47801 -1.26433 0
M  V30 20519 O 1920.88 1.92551 -0.34966 0
M  V30 20520 C 1921.18 0.534659 -3.53378 0
M  V30 20521 C 1920.85 -0.641876 -4.46308 0
M  V30 20522 C 1919.51 -0.964671 -4.71431 0
M  V30 20523 C 1921.86 -1.42954 -5.01212 0
M  V30 20524 C 1919.19 -2.07689 -5.4871 0
M  V30 20525 C 1921.54 -2.53227 -5.79706 0
M  V30 20526 C 1920.2 -2.86028 -6.03112 0
M  V30 20527 H 1919.47 0.0763064 -0.737061 0
M  V30 20528 H 1922.12 -0.51234 -1.84519 0
M  V30 20529 H 1920.43 1.3367 -3.68293 0
M  V30 20530 H 1922.12 1.00048 -3.88319 0
M  V30 20531 H 1918.71 -0.380266 -4.2691 0
M  V30 20532 H 1922.9 -1.1934 -4.81738 0
M  V30 20533 H 1918.15 -2.33487 -5.65061 0
M  V30 20534 H 1922.33 -3.14669 -6.21254 0
M  V30 20535 H 1919.95 -3.72332 -6.62777 0
M  V30 20536 N 1921.53 1.57237 -0.106922 0
M  V30 20537 C 1922.95 1.57634 0.249708 0
M  V30 20538 C 1923.15 1.11888 1.67581 0
M  V30 20539 O 1922.2 0.80073 2.39467 0
M  V30 20540 C 1923.52 3.00688 0.0273757 0
M  V30 20541 C 1925.06 3.12858 0.0942116 0
M  V30 20542 C 1925.54 4.5789 -0.100275 0
M  V30 20543 N 1927.03 4.63177 -0.045837 0
M  V30 20544 C 1927.76 5.73144 -0.171398 0
M  V30 20545 N 1927.26 6.91903 -0.352455 0
M  V30 20546 N 1929.05 5.61989 -0.111827 0
M  V30 20547 H 1921.2 1.85278 -1.03855 0
M  V30 20548 H 1923.47 0.855717 -0.407985 0
M  V30 20549 H 1923.17 3.38399 -0.958063 0
M  V30 20550 H 1923.05 3.6937 0.764546 0
M  V30 20551 H 1925.43 2.75012 1.07016 0
M  V30 20552 H 1925.52 2.46743 -0.674643 0
M  V30 20553 H 1925.16 4.96433 -1.07315 0
M  V30 20554 H 1925.09 5.22081 0.688418 0
M  V30 20555 H 1927.58 3.7779 0.0910806 0
M  V30 20556 H 1927.89 7.7155 -0.439454 0
M  V30 20557 H 1926.24 6.93915 -0.388274 0
M  V30 20558 H 1929.43 4.68091 0.0285732 0
M  V30 20559 H 1929.6 6.47649 -0.213127 0
M  V30 20560 N 1923.01 -0.166818 1.56715 0
M  V30 20561 C 1923.94 -1.2086 1.99787 0
M  V30 20562 C 1924.92 -1.45918 0.874178 0
M  V30 20563 O 1926.1 -1.57176 1.14058 0
M  V30 20564 C 1923.23 -2.54648 2.3616 0
M  V30 20565 C 1922.19 -2.44151 3.51532 0
M  V30 20566 C 1921.51 -3.82469 3.7366 0
M  V30 20567 C 1922.81 -1.9424 4.84838 0
M  V30 20568 H 1924.51 -0.850538 2.87065 0
M  V30 20569 H 1922.05 -0.407696 1.38108 0
M  V30 20570 H 1924.01 -3.27736 2.64891 0
M  V30 20571 H 1922.73 -2.92251 1.45797 0
M  V30 20572 H 1921.39 -1.73516 3.22936 0
M  V30 20573 H 1921.04 -4.17473 2.8058 0
M  V30 20574 H 1920.74 -3.76312 4.5129 0
M  V30 20575 H 1922.26 -4.57136 4.04796 0
M  V30 20576 H 1923.68 -2.57105 5.12416 0
M  V30 20577 H 1922.07 -1.99021 5.66137 0
M  V30 20578 H 1923.14 -0.89695 4.76532 0
M  V30 20579 N 1924.49 -1.51463 -0.435524 0
M  V30 20580 C 1925.42 -1.69104 -1.54715 0
M  V30 20581 C 1926.43 -0.571681 -1.52432 0
M  V30 20582 O 1927.62 -0.846054 -1.57176 0
M  V30 20583 C 1924.72 -1.69217 -2.9363 0
M  V30 20584 C 1923.89 -2.97766 -3.20397 0
M  V30 20585 C 1922.95 -2.90043 -4.39046 0
M  V30 20586 O 1921.98 -3.63985 -4.37611 0
M  V30 20587 N 1923.18 -2.06018 -5.42712 0
M  V30 20588 H 1925.95 -2.64998 -1.39985 0
M  V30 20589 H 1923.51 -1.49371 -0.624486 0
M  V30 20590 H 1925.5 -1.61616 -3.71029 0
M  V30 20591 H 1924.07 -0.809085 -3.01948 0
M  V30 20592 H 1923.29 -3.19222 -2.31282 0
M  V30 20593 H 1924.58 -3.82857 -3.35109 0
M  V30 20594 H 1923.97 -1.45324 -5.46715 0
M  V30 20595 H 1922.53 -2.04295 -6.18956 0
M  V30 20596 N 1925.96 0.691085 -1.4164 0
M  V30 20597 C 1927.21 1.44828 -1.40959 0
M  V30 20598 C 1927.53 1.94988 -0.0211789 0
M  V30 20599 O 1926.8 1.71999 0.937714 0
M  V30 20600 H 1925.38 0.53739 -0.518865 0
M  V30 20601 H 1928.05 0.817677 -1.76918 0
M  V30 20602 H 1927.14 2.30926 -2.09952 0
M  V30 20603 N 1927.44 1.27542 0.925789 0
M  V30 20604 C 1928.69 1.14161 1.67616 0
M  V30 20605 C 1929.02 -0.311471 1.91686 0
M  V30 20606 O 1928.3 -1.22766 1.5086 0
M  V30 20607 C 1928.58 1.92778 3.04152 0
M  V30 20608 C 1928.43 3.46081 2.87312 0
M  V30 20609 C 1929.75 1.73374 4.04511 0
M  V30 20610 H 1926.87 0.416091 0.608307 0
M  V30 20611 H 1929.51 1.56719 1.0742 0
M  V30 20612 H 1927.66 1.5661 3.55536 0
M  V30 20613 H 1929.33 3.92089 2.43031 0
M  V30 20614 H 1927.58 3.72324 2.22615 0
M  V30 20615 H 1928.25 3.96333 3.84219 0
M  V30 20616 H 1930.72 2.04914 3.62146 0
M  V30 20617 H 1929.6 2.30773 4.98031 0
M  V30 20618 H 1929.86 0.682154 4.36806 0
M  V30 20619 N 1928.92 -1.13255 1.09595 0
M  V30 20620 C 1929.85 -2.20827 0.758791 0
M  V30 20621 C 1930.83 -1.68034 -0.264325 0
M  V30 20622 O 1932.02 -1.93751 -0.132005 0
M  V30 20623 C 1929.15 -3.46831 0.180424 0
M  V30 20624 C 1928.1 -4.12724 1.13325 0
M  V30 20625 C 1927.43 -5.33075 0.416504 0
M  V30 20626 C 1928.73 -4.59862 2.47637 0
M  V30 20627 H 1930.42 -2.49287 1.65821 0
M  V30 20628 H 1927.97 -1.19818 0.798734 0
M  V30 20629 H 1929.92 -4.21346 -0.0675313 0
M  V30 20630 H 1928.64 -3.17773 -0.754194 0
M  V30 20631 H 1927.3 -3.40179 1.36651 0
M  V30 20632 H 1926.95 -5.00281 -0.522308 0
M  V30 20633 H 1926.65 -5.78109 1.05183 0
M  V30 20634 H 1928.17 -6.10344 0.17689 0
M  V30 20635 H 1929.59 -5.25791 2.28509 0
M  V30 20636 H 1927.99 -5.15642 3.06974 0
M  V30 20637 H 1929.06 -3.74294 3.08273 0
M  V30 20638 N 1930.4 -0.883401 -1.30514 0
M  V30 20639 C 1931.68 -0.421186 -1.91011 0
M  V30 20640 C 1932.06 1.09793 -1.80301 0
M  V30 20641 O 1931.4 1.93254 -1.21923 0
M  V30 20642 C 1931.61 -0.917533 -3.36723 0
M  V30 20643 C 1932.96 -0.951573 -4.138 0
M  V30 20644 O 1933.99 -0.86409 -3.4556 0
M  V30 20645 O 1932.84 -1.08053 -5.35711 0
M  V30 20646 H 1929.94 -0.128514 -0.816954 0
M  V30 20647 H 1932.48 -0.972198 -1.39091 0
M  V30 20648 H 1931.26 -1.96135 -3.38595 0
M  V30 20649 H 1930.88 -0.345595 -3.96095 0
M  V30 20650 N 1931.88 1.43833 -0.644194 0
M  V30 20651 C 1933.1 2.06784 -0.159719 0
M  V30 20652 C 1933.53 1.47913 1.16204 0
M  V30 20653 O 1932.88 0.585574 1.71583 0
M  V30 20654 C 1932.93 3.60527 -0.0724271 0
M  V30 20655 O 1932.04 4.0088 0.967917 0
M  V30 20656 H 1931.38 0.657771 -0.0907406 0
M  V30 20657 H 1933.91 1.8449 -0.884568 0
M  V30 20658 H 1933.92 4.07841 0.113872 0
M  V30 20659 H 1932.59 4.02755 -1.03736 0
M  V30 20660 H 1931.17 3.65174 0.755135 0
M  V30 20661 N 1933.35 0.385544 1.52811 0
M  V30 20662 C 1934.58 -0.198025 2.0595 0
M  V30 20663 C 1935 -1.40822 1.25756 0
M  V30 20664 O 1934.35 -1.79963 0.303251 0
M  V30 20665 C 1934.41 -0.571856 3.56948 0
M  V30 20666 O 1934.13 0.59026 4.34105 0
M  V30 20667 C 1935.63 -1.21169 4.26419 0
M  V30 20668 H 1932.85 -0.0307594 0.670295 0
M  V30 20669 H 1935.39 0.549688 1.96974 0
M  V30 20670 H 1933.55 -1.26947 3.6601 0
M  V30 20671 H 1933.96 0.28384 5.23731 0
M  V30 20672 H 1935.43 -1.42366 5.33325 0
M  V30 20673 H 1935.91 -2.17794 3.81395 0
M  V30 20674 H 1936.52 -0.554949 4.21664 0
M  V30 20675 N 1934.83 -1.57178 0.115259 0
M  V30 20676 C 1935.76 -2.18134 -0.833042 0
M  V30 20677 C 1936.74 -1.12033 -1.27995 0
M  V30 20678 O 1937.93 -1.40254 -1.34323 0
M  V30 20679 C 1935.06 -2.77778 -2.08463 0
M  V30 20680 C 1934.01 -3.89429 -1.77565 0
M  V30 20681 C 1933.34 -4.35863 -3.09722 0
M  V30 20682 C 1934.64 -5.11701 -1.04687 0
M  V30 20683 H 1936.33 -2.9763 -0.325107 0
M  V30 20684 H 1933.88 -1.43164 -0.154933 0
M  V30 20685 H 1935.83 -3.19079 -2.75258 0
M  V30 20686 H 1934.56 -1.95566 -2.61575 0
M  V30 20687 H 1933.21 -3.48698 -1.13161 0
M  V30 20688 H 1932.86 -3.50515 -3.6076 0
M  V30 20689 H 1932.56 -5.11152 -2.89823 0
M  V30 20690 H 1934.09 -4.79812 -3.77641 0
M  V30 20691 H 1935.5 -5.50045 -1.61628 0
M  V30 20692 H 1933.9 -5.92549 -0.948964 0
M  V30 20693 H 1934.97 -4.84889 -0.032977 0
M  V30 20694 N 1936.31 0.158505 -1.56801 0
M  V30 20695 C 1937.26 1.21526 -1.98328 0
M  V30 20696 C 1938.25 1.45117 -0.873926 0
M  V30 20697 O 1939.46 1.45545 -1.05908 0
M  V30 20698 H 1935.83 0.408803 -0.631177 0
M  V30 20699 H 1937.81 0.838242 -2.86384 0
M  V30 20700 C 1936.55 2.54396 -2.37019 0
M  V30 20701 H 1935.88 2.3707 -3.21928 0
M  V30 20702 H 1937.32 3.26994 -2.69909 0
M  V30 20703 C 1935.78 3.14095 -1.21845 0
M  V30 20704 O 1936.31 3.98411 -0.51298 0
M  V30 20705 N 1934.51 2.73373 -0.985675 0
M  V30 20706 H 1934.06 2.04907 -1.56112 0
M  V30 20707 H 1934.02 3.13651 -0.216926 0
M  V30 20708 N 1937.79 1.51692 0.427485 0
M  V30 20709 C 1939.01 1.68956 1.20285 0
M  V30 20710 C 1939.44 0.390472 1.84003 0
M  V30 20711 O 1938.8 -0.650352 1.69234 0
M  V30 20712 C 1938.85 2.81368 2.25532 0
M  V30 20713 O 1937.95 2.45657 3.3125 0
M  V30 20714 H 1937.29 0.56304 0.351969 0
M  V30 20715 H 1939.82 1.98306 0.503588 0
M  V30 20716 H 1939.83 3.05742 2.70158 0
M  V30 20717 H 1938.51 3.7563 1.78535 0
M  V30 20718 H 1937.08 2.31889 2.9203 0
M  V30 20719 N 1939.27 -0.683564 1.42004 0
M  V30 20720 C 1940.21 -1.7973 1.44796 0
M  V30 20721 C 1941.18 -1.63352 0.300905 0
M  V30 20722 O 1942.37 -1.84031 0.503707 0
M  V30 20723 C 1939.51 -3.17701 1.34758 0
M  V30 20724 C 1938.62 -3.45428 2.59429 0
M  V30 20725 C 1937.76 -4.73079 2.41598 0
M  V30 20726 C 1936.8 -4.93812 3.61685 0
M  V30 20727 N 1935.93 -6.12698 3.4285 0
M  V30 20728 H 1940.77 -1.76679 2.39976 0
M  V30 20729 H 1938.31 -0.862624 1.19152 0
M  V30 20730 H 1940.27 -3.9742 1.26938 0
M  V30 20731 H 1938.9 -3.19899 0.431785 0
M  V30 20732 H 1937.95 -2.60027 2.77651 0
M  V30 20733 H 1939.26 -3.56645 3.48721 0
M  V30 20734 H 1938.42 -5.60873 2.31314 0
M  V30 20735 H 1937.16 -4.6413 1.49782 0
M  V30 20736 H 1936.16 -4.04463 3.72411 0
M  V30 20737 H 1937.39 -5.04612 4.5447 0
M  V30 20738 H 1935.33 -6.04938 2.53744 0
M  V30 20739 H 1935.25 -6.24736 4.25724 0
M  V30 20740 H 1936.52 -7.03194 3.36361 0
M  V30 20741 N 1940.75 -1.28031 -0.919012 0
M  V30 20742 C 1941.97 -1.17714 -1.7015 0
M  V30 20743 C 1942.39 0.264914 -1.86932 0
M  V30 20744 O 1941.75 1.17957 -1.39256 0
M  V30 20745 C 1941.8 -1.86548 -3.09648 0
M  V30 20746 O 1941.52 -3.25121 -2.93646 0
M  V30 20747 C 1943.02 -1.82467 -4.04006 0
M  V30 20748 H 1940.24 -0.408863 -0.532045 0
M  V30 20749 H 1942.78 -1.69061 -1.1506 0
M  V30 20750 H 1940.94 -1.39085 -3.61572 0
M  V30 20751 H 1941.35 -3.59518 -3.81899 0
M  V30 20752 H 1942.83 -2.35229 -4.99371 0
M  V30 20753 H 1943.3 -0.795892 -4.31928 0
M  V30 20754 H 1943.91 -2.29585 -3.5801 0
M  V30 20755 N 1942.22 1.12672 -1.10194 0
M  V30 20756 C 1943.45 1.87682 -0.863653 0
M  V30 20757 C 1943.86 1.79789 0.589271 0
M  V30 20758 O 1943.2 1.16801 1.41786 0
M  V30 20759 C 1943.27 3.37794 -1.23028 0
M  V30 20760 C 1942.93 3.69463 -2.68972 0
M  V30 20761 C 1943.93 3.68037 -3.67212 0
M  V30 20762 C 1941.61 3.98875 -3.05294 0
M  V30 20763 C 1943.61 3.95576 -4.99798 0
M  V30 20764 C 1941.29 4.26074 -4.38068 0
M  V30 20765 C 1942.29 4.24411 -5.3513 0
M  V30 20766 O 1941.98 4.50939 -6.65515 0
M  V30 20767 H 1941.71 0.600767 -0.309928 0
M  V30 20768 H 1944.27 1.43504 -1.46955 0
M  V30 20769 H 1942.5 3.82514 -0.567464 0
M  V30 20770 H 1944.18 3.94143 -0.969869 0
M  V30 20771 H 1944.95 3.4538 -3.40496 0
M  V30 20772 H 1940.83 3.99312 -2.30372 0
M  V30 20773 H 1944.37 3.94193 -5.7555 0
M  V30 20774 H 1940.27 4.48204 -4.64525 0
M  V30 20775 H 1941.04 4.68569 -6.71107 0
M  V30 20776 N 1943.7 0.89031 1.30043 0
M  V30 20777 C 1944.61 0.365266 2.31739 0
M  V30 20778 C 1945.63 -0.535219 1.65564 0
M  V30 20779 O 1946.8 -0.427058 1.9682 0
M  V30 20780 C 1943.87 -0.407009 3.44303 0
M  V30 20781 C 1942.93 0.523869 4.26092 0
M  V30 20782 C 1942.16 -0.211645 5.3328 0
M  V30 20783 O 1942.39 -1.43697 5.52003 0
M  V30 20784 O 1941.32 0.440999 6.00282 0
M  V30 20785 H 1945.15 1.20872 2.7861 0
M  V30 20786 H 1942.73 0.654319 1.34309 0
M  V30 20787 H 1944.61 -0.844074 4.1286 0
M  V30 20788 H 1943.29 -1.22668 2.99557 0
M  V30 20789 H 1942.19 1.00986 3.60212 0
M  V30 20790 H 1943.53 1.30969 4.74455 0
M  V30 20791 N 1945.18 -1.43489 0.651812 0
M  V30 20792 C 1946.41 -2.06181 0.172334 0
M  V30 20793 C 1946.82 -1.48848 -1.16145 0
M  V30 20794 O 1946.18 -0.619246 -1.71673 0
M  V30 20795 C 1946.23 -3.61425 0.0737039 0
M  V30 20796 O 1945.95 -4.16627 1.35476 0
M  V30 20797 C 1947.45 -4.4119 -0.432019 0
M  V30 20798 H 1944.67 -0.665039 0.0892394 0
M  V30 20799 H 1947.22 -1.84018 0.892063 0
M  V30 20800 H 1945.37 -3.82779 -0.596577 0
M  V30 20801 H 1945.79 -5.1028 1.21305 0
M  V30 20802 H 1947.26 -5.50163 -0.449989 0
M  V30 20803 H 1947.74 -4.14115 -1.46306 0
M  V30 20804 H 1948.34 -4.24802 0.205721 0
M  V30 20805 N 1946.66 -0.393643 -1.52605 0
M  V30 20806 C 1947.91 0.188423 -2.00818 0
M  V30 20807 C 1948.22 1.47537 -1.28422 0
M  V30 20808 O 1949.43 2.13775 -1.6737 0
M  V30 20809 C 1947.88 0.386341 -3.5782 0
M  V30 20810 C 1947.49 -0.887606 -4.39119 0
M  V30 20811 C 1949.23 0.924537 -4.1431 0
M  V30 20812 C 1947.14 -0.657729 -5.87731 0
M  V30 20813 H 1946.07 0.0741894 -0.750341 0
M  V30 20814 H 1948.72 -0.516709 -1.76075 0
M  V30 20815 H 1947.1 1.15343 -3.7883 0
M  V30 20816 H 1948.28 -1.65965 -4.29875 0
M  V30 20817 H 1946.59 -1.35107 -3.93872 0
M  V30 20818 H 1949.19 1.1123 -5.23003 0
M  V30 20819 H 1949.53 1.89484 -3.70677 0
M  V30 20820 H 1950.07 0.216908 -3.97208 0
M  V30 20821 H 1946.8 -1.59915 -6.35694 0
M  V30 20822 H 1946.32 0.0752963 -5.99753 0
M  V30 20823 H 1948 -0.293935 -6.46332 0
M  V30 20824 N 1948.14 1.57115 -0.123593 0
M  V30 20825 C 1949.55 1.5789 0.232975 0
M  V30 20826 C 1949.75 1.13659 1.66385 0
M  V30 20827 O 1948.81 0.826084 2.38604 0
M  V30 20828 C 1950.12 3.007 -0.0045178 0
M  V30 20829 C 1951.67 3.12941 0.0610235 0
M  V30 20830 C 1952.14 4.57758 -0.148835 0
M  V30 20831 N 1953.63 4.63103 -0.0949606 0
M  V30 20832 C 1954.37 5.7293 -0.232177 0
M  V30 20833 N 1953.87 6.9149 -0.42582 0
M  V30 20834 N 1955.66 5.61839 -0.171428 0
M  V30 20835 H 1947.81 1.84166 -1.05814 0
M  V30 20836 H 1950.07 0.851342 -0.417038 0
M  V30 20837 H 1949.78 3.37364 -0.993901 0
M  V30 20838 H 1949.65 3.70161 0.725327 0
M  V30 20839 H 1952.04 2.76131 1.04094 0
M  V30 20840 H 1952.12 2.46014 -0.700776 0
M  V30 20841 H 1951.76 4.95267 -1.12574 0
M  V30 20842 H 1951.69 5.22782 0.633006 0
M  V30 20843 H 1954.19 3.77866 0.0510058 0
M  V30 20844 H 1954.5 7.7104 -0.521263 0
M  V30 20845 H 1952.84 6.93464 -0.461851 0
M  V30 20846 H 1956.03 4.68095 -0.0210758 0
M  V30 20847 H 1956.21 6.47387 -0.281807 0
M  V30 20848 N 1949.61 -0.150187 1.56883 0
M  V30 20849 C 1950.56 -1.20473 1.9897 0
M  V30 20850 C 1951.56 -1.44651 0.881609 0
M  V30 20851 O 1952.76 -1.44982 1.06678 0
M  V30 20852 H 1949.14 -0.405449 0.633336 0
M  V30 20853 H 1951.11 -0.823043 2.86825 0
M  V30 20854 C 1949.86 -2.53135 2.38365 0
M  V30 20855 H 1949.18 -2.3536 3.23181 0
M  V30 20856 H 1950.62 -3.25558 2.71639 0
M  V30 20857 C 1949.08 -3.13444 1.23509 0
M  V30 20858 O 1949.61 -3.98133 0.534101 0
M  V30 20859 N 1947.81 -2.72846 1.00016 0
M  V30 20860 H 1947.36 -2.04076 1.57196 0
M  V30 20861 H 1947.32 -3.13531 0.233557 0
M  V30 20862 N 1951.09 -1.51916 -0.419434 0
M  V30 20863 C 1952.51 -1.4049 -0.757287 0
M  V30 20864 C 1952.71 -0.501274 -1.95165 0
M  V30 20865 O 1951.76 0.0368349 -2.52473 0
M  V30 20866 C 1953.08 -2.8284 -1.02088 0
M  V30 20867 C 1954.63 -2.92113 -1.12422 0
M  V30 20868 C 1955.1 -4.3541 -1.42064 0
M  V30 20869 N 1956.59 -4.38598 -1.4895 0
M  V30 20870 C 1957.33 -5.46524 -1.73492 0
M  V30 20871 N 1956.82 -6.64583 -1.95706 0
M  V30 20872 N 1958.62 -5.34026 -1.75422 0
M  V30 20873 H 1950.77 -2.09207 0.366909 0
M  V30 20874 H 1953.03 -0.942516 0.101822 0
M  V30 20875 H 1952.74 -3.51038 -0.215755 0
M  V30 20876 H 1952.61 -3.23259 -1.9438 0
M  V30 20877 H 1955 -2.24103 -1.91994 0
M  V30 20878 H 1955.08 -2.55167 -0.179896 0
M  V30 20879 H 1954.72 -5.03976 -0.630123 0
M  V30 20880 H 1954.65 -4.69884 -2.37731 0
M  V30 20881 H 1957.14 -3.53491 -1.33614 0
M  V30 20882 H 1957.46 -7.42621 -2.13854 0
M  V30 20883 H 1955.8 -6.67667 -1.92992 0
M  V30 20884 H 1958.99 -4.40773 -1.57598 0
M  V30 20885 H 1959.16 -6.18212 -1.9421 0
M  V30 20886 N 1952.57 0.676023 -1.42365 0
M  V30 20887 C 1953.5 1.80165 -1.48536 0
M  V30 20888 C 1954.48 1.66625 -0.342049 0
M  V30 20889 O 1955.67 1.86065 -0.55619 0
M  V30 20890 C 1952.8 3.18451 -1.38586 0
M  V30 20891 C 1951.75 3.46724 -2.50931 0
M  V30 20892 C 1951.08 4.84572 -2.2604 0
M  V30 20893 C 1952.38 3.4374 -3.93243 0
M  V30 20894 H 1954.07 1.75258 -2.42745 0
M  V30 20895 H 1951.62 0.841756 -1.16835 0
M  V30 20896 H 1953.57 3.96929 -1.41511 0
M  V30 20897 H 1952.29 3.24033 -0.408703 0
M  V30 20898 H 1950.95 2.70607 -2.47321 0
M  V30 20899 H 1950.6 4.86802 -1.2662 0
M  V30 20900 H 1950.3 5.04452 -3.01334 0
M  V30 20901 H 1951.82 5.65336 -2.30712 0
M  V30 20902 H 1953.24 4.12189 -3.98463 0
M  V30 20903 H 1951.64 3.75155 -4.68379 0
M  V30 20904 H 1952.71 2.42337 -4.20001 0
M  V30 20905 N 1954.05 1.28517 0.912209 0
M  V30 20906 C 1955.28 1.18615 1.69523 0
M  V30 20907 C 1955.69 -0.254997 1.8707 0
M  V30 20908 O 1955.05 -1.17217 1.3988 0
M  V30 20909 C 1955.1 1.88188 3.08655 0
M  V30 20910 O 1954.82 3.26673 2.91918 0
M  V30 20911 C 1956.32 1.84607 4.03032 0
M  V30 20912 H 1953.54 0.411679 0.529869 0
M  V30 20913 H 1956.09 1.69668 1.14162 0
M  V30 20914 H 1954.24 1.41001 3.60829 0
M  V30 20915 H 1954.65 3.61538 3.79987 0
M  V30 20916 H 1956.13 2.37874 4.98116 0
M  V30 20917 H 1956.61 0.818787 4.315 0
M  V30 20918 H 1957.21 2.3148 3.56787 0
M  V30 20919 N 1955.53 -1.12086 1.1079 0
M  V30 20920 C 1956.77 -1.83949 0.853848 0
M  V30 20921 C 1957.11 -1.8407 -0.619029 0
M  V30 20922 O 1956.38 -1.28889 -1.45664 0
M  V30 20923 C 1956.66 -3.31452 1.40754 0
M  V30 20924 C 1956.52 -3.39765 2.94754 0
M  V30 20925 C 1957.84 -4.2732 1.05288 0
M  V30 20926 H 1954.95 -0.667872 0.311635 0
M  V30 20927 H 1957.6 -1.31475 1.37166 0
M  V30 20928 H 1955.75 -3.7627 0.967112 0
M  V30 20929 H 1957.42 -3.03555 3.4735 0
M  V30 20930 H 1955.66 -2.80196 3.31168 0
M  V30 20931 H 1956.33 -4.43553 3.2858 0
M  V30 20932 H 1958.81 -3.90647 1.43297 0
M  V30 20933 H 1957.68 -5.28929 1.46716 0
M  V30 20934 H 1957.95 -4.42084 -0.0372227 0
M  V30 20935 N 1957 -0.897194 -1.29569 0
M  V30 20936 C 1957.91 -0.377551 -2.31542 0
M  V30 20937 C 1958.93 0.526431 -1.65845 0
M  V30 20938 O 1960.11 0.416614 -1.97044 0
M  V30 20939 C 1957.17 0.388744 -3.44514 0
M  V30 20940 C 1956.23 -0.546458 -4.25808 0
M  V30 20941 C 1955.47 0.183361 -5.33385 0
M  V30 20942 O 1955.69 1.40767 -5.52757 0
M  V30 20943 O 1954.62 -0.472827 -6.0004 0
M  V30 20944 H 1958.45 -1.22348 -2.77965 0
M  V30 20945 H 1956.03 -0.661433 -1.33961 0
M  V30 20946 H 1957.92 0.822167 -4.13302 0
M  V30 20947 H 1956.59 1.21077 -3.00203 0
M  V30 20948 H 1955.5 -1.02894 -3.59671 0
M  V30 20949 H 1956.83 -1.33483 -4.73754 0
M  V30 20950 N 1958.48 1.43142 -0.659413 0
M  V30 20951 C 1959.39 2.34582 0.0288714 0
M  V30 20952 C 1960.41 1.54232 0.805512 0
M  V30 20953 O 1961.58 1.8686 0.751347 0
M  V30 20954 C 1958.65 3.32587 0.97912 0
M  V30 20955 C 1957.71 4.2884 0.198725 0
M  V30 20956 C 1956.94 5.22163 1.10371 0
M  V30 20957 O 1957.17 5.20054 2.34308 0
M  V30 20958 O 1956.1 5.99168 0.572785 0
M  V30 20959 H 1959.93 2.94945 -0.723947 0
M  V30 20960 H 1957.51 1.43386 -0.419609 0
M  V30 20961 H 1959.39 3.92836 1.52505 0
M  V30 20962 H 1958.07 2.74719 1.71206 0
M  V30 20963 H 1956.98 3.72052 -0.390942 0
M  V30 20964 H 1958.31 4.89707 -0.494774 0
M  V30 20965 N 1959.96 0.40173 1.52394 0
M  V30 20966 C 1960.92 -0.41541 2.25404 0
M  V30 20967 C 1961.92 -0.979848 1.27498 0
M  V30 20968 O 1963.11 -0.859891 1.51498 0
M  V30 20969 C 1960.25 -1.58403 3.01863 0
M  V30 20970 H 1961.44 0.223965 2.99063 0
M  V30 20971 H 1958.99 0.154095 1.55539 0
M  V30 20972 H 1959.73 -2.26048 2.32536 0
M  V30 20973 H 1959.51 -1.18586 3.73737 0
M  V30 20974 H 1961 -2.16224 3.57263 0
M  V30 20975 N 1961.44 -1.57047 0.131923 0
M  V30 20976 C 1962.67 -1.99989 -0.530289 0
M  V30 20977 C 1963.08 -1.01182 -1.59397 0
M  V30 20978 O 1962.44 -0.00657368 -1.82499 0
M  V30 20979 C 1962.49 -3.42898 -1.14469 0
M  V30 20980 O 1962.21 -4.37926 -0.123503 0
M  V30 20981 C 1963.71 -4.0104 -1.88897 0
M  V30 20982 H 1960.93 -0.656371 -0.139348 0
M  V30 20983 H 1963.48 -2.03291 0.222069 0
M  V30 20984 H 1961.63 -3.40495 -1.84775 0
M  V30 20985 H 1962.04 -5.21376 -0.571587 0
M  V30 20986 H 1963.52 -5.03077 -2.27196 0
M  V30 20987 H 1964 -3.40903 -2.76915 0
M  V30 20988 H 1964.6 -4.07027 -1.23324 0
M  V30 20989 N 1962.92 0.141865 -1.5696 0
M  V30 20990 C 1963.88 1.15896 -1.97739 0
M  V30 20991 C 1964.88 1.3558 -0.864556 0
M  V30 20992 O 1966.07 1.32485 -1.13107 0
M  V30 20993 C 1963.2 2.51822 -2.29779 0
M  V30 20994 H 1964.39 0.808993 -2.88782 0
M  V30 20995 H 1961.95 0.385387 -1.51474 0
M  V30 20996 H 1962.68 2.91781 -1.41543 0
M  V30 20997 H 1962.47 2.38894 -3.10921 0
M  V30 20998 H 1963.96 3.25066 -2.62148 0
M  V30 20999 N 1964.39 1.52136 0.411372 0
M  V30 21000 C 1965.62 1.70223 1.18486 0
M  V30 21001 C 1966.04 0.409966 1.83578 0
M  V30 21002 O 1965.4 -0.632366 1.69914 0
M  V30 21003 C 1965.45 2.83744 2.22535 0
M  V30 21004 O 1964.55 2.49157 3.28625 0
M  V30 21005 H 1963.9 0.566741 0.345978 0
M  V30 21006 H 1966.43 1.98829 0.482526 0
M  V30 21007 H 1966.44 3.08591 2.669 0
M  V30 21008 H 1965.11 3.77503 1.74541 0
M  V30 21009 H 1963.69 2.34974 2.89554 0
M  V30 21010 N 1965.87 -0.668464 1.42721 0
M  V30 21011 C 1967.12 -1.43061 1.43741 0
M  V30 21012 C 1967.45 -1.9412 0.0558656 0
M  V30 21013 O 1966.73 -1.71317 -0.920904 0
M  V30 21014 C 1967.01 -2.62307 2.46712 0
M  V30 21015 C 1966.86 -2.16839 3.94082 0
M  V30 21016 C 1968.18 -3.64525 2.46596 0
M  V30 21017 H 1965.3 -0.518854 0.523412 0
M  V30 21018 H 1967.94 -0.759144 1.74175 0
M  V30 21019 H 1966.09 -3.19593 2.20891 0
M  V30 21020 H 1967.77 -1.64672 4.30907 0
M  V30 21021 H 1966.01 -1.48352 4.07645 0
M  V30 21022 H 1966.68 -3.02521 4.6172 0
M  V30 21023 H 1969.16 -3.16968 2.69574 0
M  V30 21024 H 1968.03 -4.45532 3.20613 0
M  V30 21025 H 1968.29 -4.16084 1.49421 0
M  V30 21026 N 1967.35 -1.28999 -0.905381 0
M  V30 21027 C 1968.58 -1.19632 -1.69419 0
M  V30 21028 C 1969 0.240433 -1.86557 0
M  V30 21029 O 1968.36 1.17374 -1.38177 0
M  V30 21030 C 1968.41 -1.90881 -3.05936 0
M  V30 21031 O 1967.51 -1.22198 -3.9388 0
M  V30 21032 H 1966.85 -0.414842 -0.518461 0
M  V30 21033 H 1969.38 -1.70468 -1.13145 0
M  V30 21034 H 1969.39 -1.99115 -3.56114 0
M  V30 21035 H 1968.07 -2.95385 -2.9278 0
M  V30 21036 H 1966.64 -1.22185 -3.52314 0
M  V30 21037 N 1968.83 1.11497 -1.11383 0
M  V30 21038 C 1969.74 2.21101 -0.784315 0
M  V30 21039 C 1970.76 1.72574 0.222313 0
M  V30 21040 O 1971.93 2.01315 0.058632 0
M  V30 21041 C 1969 3.45925 -0.231713 0
M  V30 21042 C 1968.06 4.09243 -1.29687 0
M  V30 21043 C 1967.29 5.28108 -0.770542 0
M  V30 21044 O 1967.51 5.68998 0.399616 0
M  V30 21045 O 1966.45 5.81996 -1.53505 0
M  V30 21046 H 1970.27 2.51699 -1.69946 0
M  V30 21047 H 1967.86 1.20022 -0.889672 0
M  V30 21048 H 1969.74 4.21338 0.0721248 0
M  V30 21049 H 1968.42 3.1698 0.656146 0
M  V30 21050 H 1967.32 3.35564 -1.65371 0
M  V30 21051 H 1968.66 4.42365 -2.1581 0
M  V30 21052 N 1970.31 0.904053 1.29092 0
M  V30 21053 C 1971.56 0.531152 1.94995 0
M  V30 21054 C 1971.88 -0.926415 1.71588 0
M  V30 21055 O 1971.15 -1.65378 1.0501 0
M  V30 21056 H 1969.73 0.193439 0.721519 0
M  V30 21057 H 1972.39 1.1513 1.57262 0
M  V30 21058 H 1971.48 0.717412 3.03743 0
M  V30 21059 N 1971.79 -1.4279 0.666995 0
M  V30 21060 C 1973.03 -2.01245 0.185662 0
M  V30 21061 C 1973.35 -1.52966 -1.2094 0
M  V30 21062 O 1972.62 -0.748036 -1.81056 0
M  V30 21063 H 1971.2 -0.74411 0.0656484 0
M  V30 21064 H 1973.87 -1.74814 0.861754 0
M  V30 21065 H 1972.96 -3.11575 0.180905 0
M  V30 21066 N 1973.26 -0.409806 -1.52179 0
M  V30 21067 C 1974.51 0.16543 -2.01422 0
M  V30 21068 C 1974.83 1.45588 -1.29727 0
M  V30 21069 O 1974.1 1.9127 -0.423399 0
M  V30 21070 H 1972.68 0.0641237 -0.744243 0
M  V30 21071 H 1975.34 -0.546204 -1.8709 0
M  V30 21072 H 1974.44 0.361061 -3.10004 0
M  V30 21073 N 1974.74 1.56975 -0.14025 0
M  V30 21074 C 1975.67 2.19432 0.798233 0
M  V30 21075 C 1976.65 1.14055 1.26196 0
M  V30 21076 O 1977.84 1.42373 1.32074 0
M  V30 21077 C 1974.97 2.81059 2.04018 0
M  V30 21078 C 1973.92 3.92204 1.71347 0
M  V30 21079 C 1973.25 4.40735 3.02748 0
M  V30 21080 C 1974.55 5.13302 0.965327 0
M  V30 21081 H 1976.24 2.98109 0.277716 0
M  V30 21082 H 1973.79 1.43392 0.132137 0
M  V30 21083 H 1975.74 3.23417 2.70147 0
M  V30 21084 H 1974.46 1.99703 2.5843 0
M  V30 21085 H 1973.12 3.50454 1.07599 0
M  V30 21086 H 1972.77 3.5621 3.55138 0
M  V30 21087 H 1972.47 5.15698 2.81654 0
M  V30 21088 H 1974 4.85759 3.6996 0
M  V30 21089 H 1975.41 5.52547 1.52857 0
M  V30 21090 H 1973.81 5.93984 0.854574 0
M  V30 21091 H 1974.88 4.8488 -0.0441688 0
M  V30 21092 N 1976.22 -0.133539 1.57033 0
M  V30 21093 C 1977.15 -1.18985 1.95896 0
M  V30 21094 C 1978.16 -1.38453 0.856426 0
M  V30 21095 O 1979.35 -1.37785 1.13479 0
M  V30 21096 C 1976.45 -2.55242 2.22946 0
M  V30 21097 C 1975.63 -2.56572 3.54245 0
M  V30 21098 C 1974.69 -3.74467 3.69677 0
M  V30 21099 O 1973.71 -3.5872 4.41937 0
M  V30 21100 N 1974.91 -4.92459 3.0735 0
M  V30 21101 H 1977.68 -0.859396 2.87114 0
M  V30 21102 H 1975.24 -0.32297 1.58646 0
M  V30 21103 H 1977.23 -3.32645 2.30498 0
M  V30 21104 H 1975.8 -2.80526 1.37926 0
M  V30 21105 H 1975.02 -1.64988 3.58012 0
M  V30 21106 H 1976.31 -2.54504 4.40574 0
M  V30 21107 H 1975.71 -5.08156 2.48584 0
M  V30 21108 H 1974.26 -5.6759 3.20445 0
M  V30 21109 N 1977.7 -1.52352 -0.403298 0
M  V30 21110 C 1978.95 -1.66368 -1.14744 0
M  V30 21111 C 1979.27 -0.398899 -1.90876 0
M  V30 21112 O 1978.54 0.586372 -1.86918 0
M  V30 21113 H 1977.12 -0.613226 -0.426571 0
M  V30 21114 H 1979.78 -1.89416 -0.459075 0
M  V30 21115 H 1978.87 -2.50748 -1.85828 0
M  V30 21116 N 1979.18 0.660885 -1.43074 0
M  V30 21117 C 1980.42 1.41668 -1.43572 0
M  V30 21118 C 1980.74 1.95506 -0.0607715 0
M  V30 21119 O 1981.94 2.71441 0.0568092 0
M  V30 21120 C 1980.4 2.56345 -2.52617 0
M  V30 21121 C 1980.01 2.09147 -3.96183 0
M  V30 21122 C 1981.75 3.33765 -2.623 0
M  V30 21123 C 1979.66 3.20989 -4.96709 0
M  V30 21124 H 1978.59 0.532264 -0.534051 0
M  V30 21125 H 1981.24 0.714113 -1.69035 0
M  V30 21126 H 1979.62 3.29036 -2.20343 0
M  V30 21127 H 1980.8 1.43518 -4.3788 0
M  V30 21128 H 1979.11 1.44628 -3.90476 0
M  V30 21129 H 1981.71 4.17085 -3.34581 0
M  V30 21130 H 1982.05 3.81285 -1.67114 0
M  V30 21131 H 1982.58 2.6815 -2.93837 0
M  V30 21132 H 1979.32 2.78445 -5.93421 0
M  V30 21133 H 1978.84 3.85356 -4.59631 0
M  V30 21134 H 1980.52 3.86241 -5.19063 0
M  V30 21135 N 1980.65 1.29477 0.898527 0
M  V30 21136 C 1981.88 1.20529 1.68783 0
M  V30 21137 C 1982.3 -0.230536 1.86682 0
M  V30 21138 O 1981.66 -1.1664 1.38798 0
M  V30 21139 C 1981.71 1.92501 3.04919 0
M  V30 21140 O 1980.81 1.24286 3.93226 0
M  V30 21141 H 1980.16 0.417586 0.516254 0
M  V30 21142 H 1982.69 1.71066 1.1224 0
M  V30 21143 H 1982.7 2.01001 3.55053 0
M  V30 21144 H 1981.37 2.96934 2.9121 0
M  V30 21145 H 1979.95 1.24052 3.51661 0
M  V30 21146 N 1982.13 -1.10905 1.11972 0
M  V30 21147 C 1983.07 -2.16313 0.726904 0
M  V30 21148 C 1984.04 -1.60178 -0.279598 0
M  V30 21149 O 1985.23 -1.87689 -0.174702 0
M  V30 21150 C 1982.35 -3.38617 0.0751409 0
M  V30 21151 C 1981.4 -4.13432 1.04768 0
M  V30 21152 S 1982.23 -4.6964 2.5729 0
M  V30 21153 C 1983.39 -5.95261 1.9343 0
M  V30 21154 H 1983.62 -2.493 1.61978 0
M  V30 21155 H 1981.16 -1.22617 0.93832 0
M  V30 21156 H 1983.11 -4.09442 -0.294539 0
M  V30 21157 H 1981.77 -3.03879 -0.794774 0
M  V30 21158 H 1980.97 -5.01108 0.539188 0
M  V30 21159 H 1980.57 -3.48394 1.36006 0
M  V30 21160 H 1982.86 -6.65412 1.27411 0
M  V30 21161 H 1983.8 -6.50764 2.79126 0
M  V30 21162 H 1984.21 -5.47064 1.39215 0
M  V30 21163 N 1983.61 -0.910886 -1.2861 0
M  V30 21164 C 1984.56 -0.395575 -2.27385 0
M  V30 21165 C 1985.53 0.528415 -1.57471 0
M  V30 21166 O 1986.71 0.451232 -1.85388 0
M  V30 21167 C 1983.85 0.360855 -3.43208 0
M  V30 21168 C 1982.97 -0.59531 -4.27879 0
M  V30 21169 C 1982.1 0.179282 -5.30897 0
M  V30 21170 C 1981.14 -0.770684 -6.07229 0
M  V30 21171 N 1980.28 -0.0297918 -7.02094 0
M  V30 21172 H 1985.12 -1.24293 -2.70842 0
M  V30 21173 H 1982.65 -0.624218 -1.33199 0
M  V30 21174 H 1984.61 0.815583 -4.0915 0
M  V30 21175 H 1983.24 1.17258 -3.0075 0
M  V30 21176 H 1982.29 -1.16857 -3.62006 0
M  V30 21177 H 1983.61 -1.32201 -4.80962 0
M  V30 21178 H 1982.76 0.694702 -6.0271 0
M  V30 21179 H 1981.5 0.93905 -4.78574 0
M  V30 21180 H 1980.5 -1.29751 -5.3427 0
M  V30 21181 H 1981.73 -1.52996 -6.61641 0
M  V30 21182 H 1979.67 0.712039 -6.52124 0
M  V30 21183 H 1979.59 -0.69637 -7.52786 0
M  V30 21184 H 1980.86 0.465527 -7.78109 0
M  V30 21185 N 1985.09 1.42434 -0.674558 0
M  V30 21186 C 1986.37 1.95196 -0.125683 0
M  V30 21187 C 1986.75 1.61499 1.35946 0
M  V30 21188 O 1986.09 0.911023 2.09553 0
M  V30 21189 C 1986.3 3.46762 -0.39457 0
M  V30 21190 C 1987.65 4.2346 -0.310951 0
M  V30 21191 O 1988.68 3.54684 -0.328304 0
M  V30 21192 O 1987.53 5.45914 -0.252937 0
M  V30 21193 H 1984.63 0.826995 -0.00272875 0
M  V30 21194 H 1987.17 1.52263 -0.749271 0
M  V30 21195 H 1985.95 3.64493 -1.42339 0
M  V30 21196 H 1985.57 3.96742 0.261037 0
M  V30 21197 N 1986.57 0.417871 1.51959 0
M  V30 21198 C 1987.79 -0.156736 2.06807 0
M  V30 21199 C 1988.22 -1.37354 1.28512 0
M  V30 21200 O 1987.57 -1.78494 0.317715 0
M  V30 21201 C 1987.62 -0.476913 3.57432 0
M  V30 21202 O 1986.73 -1.56654 3.81488 0
M  V30 21203 H 1986.07 -0.0103873 0.663919 0
M  V30 21204 H 1988.6 0.593593 1.958 0
M  V30 21205 H 1988.61 -0.733026 4.01361 0
M  V30 21206 H 1987.28 0.412542 4.13849 0
M  V30 21207 H 1985.86 -1.30191 3.49435 0
M  V30 21208 N 1988.04 -1.56898 0.148573 0
M  V30 21209 C 1989.32 -1.87787 -0.547293 0
M  V30 21210 C 1989.7 -1.05479 -1.82859 0
M  V30 21211 O 1989.05 -0.142055 -2.28058 0
M  V30 21212 C 1989.26 -3.39441 -0.811223 0
M  V30 21213 C 1990.61 -4.08693 -1.1513 0
M  V30 21214 O 1991.63 -3.44629 -0.900524 0
M  V30 21215 O 1990.49 -5.21834 -1.62331 0
M  V30 21216 H 1987.58 -0.778385 -0.279368 0
M  V30 21217 H 1990.13 -1.68685 0.185302 0
M  V30 21218 H 1988.9 -3.91183 0.0955156 0
M  V30 21219 H 1988.53 -3.64076 -1.59794 0
M  V30 21220 N 1989.52 0.125209 -1.57102 0
M  V30 21221 C 1990.43 1.17286 -2.03177 0
M  V30 21222 C 1991.45 1.4571 -0.951035 0
M  V30 21223 O 1992.62 1.56949 -1.2621 0
M  V30 21224 C 1989.69 2.4811 -2.42161 0
M  V30 21225 C 1988.75 2.2714 -3.64288 0
M  V30 21226 C 1987.98 3.51726 -4.01404 0
M  V30 21227 O 1988.21 4.58785 -3.38929 0
M  V30 21228 O 1987.14 3.43096 -4.94539 0
M  V30 21229 H 1990.97 0.811619 -2.92654 0
M  V30 21230 H 1988.55 0.335551 -1.45583 0
M  V30 21231 H 1990.43 3.252 -2.67998 0
M  V30 21232 H 1989.11 2.83721 -1.55833 0
M  V30 21233 H 1988.02 1.47929 -3.4361 0
M  V30 21234 H 1989.35 1.96435 -4.51303 0
M  V30 21235 N 1991 1.52564 0.395213 0
M  V30 21236 C 1991.91 1.79813 1.5068 0
M  V30 21237 C 1992.93 0.684507 1.5997 0
M  V30 21238 O 1994.1 0.971428 1.76423 0
M  V30 21239 C 1991.17 1.95567 2.86277 0
M  V30 21240 C 1990.23 3.19481 2.86759 0
M  V30 21241 C 1989.46 3.34474 4.15888 0
M  V30 21242 O 1989.68 2.54414 5.10519 0
M  V30 21243 O 1988.62 4.27698 4.23507 0
M  V30 21244 H 1992.44 2.74191 1.30586 0
M  V30 21245 H 1990.03 1.37579 0.582445 0
M  V30 21246 H 1991.91 2.07672 3.66675 0
M  V30 21247 H 1990.59 1.04378 3.0641 0
M  V30 21248 H 1989.49 3.12823 2.05164 0
M  V30 21249 H 1990.83 4.10496 2.71577 0
M  V30 21250 N 1992.48 -0.653289 1.43422 0
M  V30 21251 C 1993.76 -1.41051 1.35513 0
M  V30 21252 C 1994.14 -2.111 0.00290798 0
M  V30 21253 O 1993.48 -2.04786 -1.01365 0
M  V30 21254 C 1993.69 -2.39526 2.53827 0
M  V30 21255 C 1995.04 -3.03528 2.96911 0
M  V30 21256 O 1996.07 -2.49854 2.53873 0
M  V30 21257 O 1994.92 -4.00843 3.71466 0
M  V30 21258 H 1992.02 -0.630186 0.535532 0
M  V30 21259 H 1994.56 -0.680203 1.55471 0
M  V30 21260 H 1993.34 -1.86712 3.43881 0
M  V30 21261 H 1992.96 -3.20007 2.35968 0
M  V30 21262 N 1993.96 -1.29952 -0.891648 0
M  V30 21263 C 1994.87 -1.17673 -2.02954 0
M  V30 21264 C 1995.88 -0.0981428 -1.73723 0
M  V30 21265 O 1997.06 -0.311785 -1.98972 0
M  V30 21266 C 1994.12 -0.862565 -3.35799 0
M  V30 21267 C 1993.18 -2.02583 -3.78495 0
M  V30 21268 C 1992.42 -1.72656 -5.05001 0
M  V30 21269 O 1992.64 -0.651307 -5.66669 0
M  V30 21270 O 1991.57 -2.57698 -5.43944 0
M  V30 21271 H 1995.4 -2.13248 -2.16239 0
M  V30 21272 H 1992.99 -1.09481 -1.01658 0
M  V30 21273 H 1994.87 -0.702274 -4.15507 0
M  V30 21274 H 1993.54 0.0633315 -3.23638 0
M  V30 21275 H 1992.45 -2.2414 -2.99519 0
M  V30 21276 H 1993.78 -2.93321 -3.95251 0
M  V30 21277 N 1995.44 1.1031 -1.12559 0
M  V30 21278 C 1996.35 2.20257 -0.807721 0
M  V30 21279 C 1997.36 1.728 0.203997 0
M  V30 21280 O 1998.54 2.01365 0.0372766 0
M  V30 21281 C 1995.6 3.4566 -0.26839 0
M  V30 21282 C 1994.66 4.07844 -1.3402 0
M  V30 21283 C 1993.9 5.27261 -0.826511 0
M  V30 21284 O 1994.12 5.6939 0.339244 0
M  V30 21285 O 1993.05 5.80335 -1.5967 0
M  V30 21286 H 1996.88 2.49882 -1.72606 0
M  V30 21287 H 1994.46 1.19071 -0.902352 0
M  V30 21288 H 1996.35 4.21391 0.0274321 0
M  V30 21289 H 1995.02 3.17658 0.622489 0
M  V30 21290 H 1993.93 3.33791 -1.68921 0
M  V30 21291 H 1995.26 4.40051 -2.20489 0
M  V30 21292 N 1996.91 0.917694 1.28125 0
M  V30 21293 C 1998.19 0.471682 1.89828 0
M  V30 21294 C 1998.57 -1.04974 1.83149 0
M  V30 21295 O 1997.92 -1.89953 1.27004 0
M  V30 21296 C 1998.13 1.00649 3.34172 0
M  V30 21297 C 1999.48 1.06095 4.11131 0
M  V30 21298 O 2000.5 0.955405 3.43148 0
M  V30 21299 O 1999.36 1.22219 5.32658 0
M  V30 21300 H 1996.45 0.150129 0.813259 0
M  V30 21301 H 1999 1.00873 1.36465 0
M  V30 21302 H 1997.77 2.05043 3.33276 0
M  V30 21303 H 1997.39 0.450491 3.9504 0
M  V30 21304 N 1998.39 -1.42074 0.682102 0
M  V30 21305 C 1999.67 -1.95126 0.136033 0
M  V30 21306 C 2000.05 -1.62218 -1.35088 0
M  V30 21307 O 1999.4 -0.922124 -2.09067 0
M  V30 21308 C 1999.61 -3.46548 0.412954 0
M  V30 21309 C 2000.95 -4.23289 0.333404 0
M  V30 21310 O 2001.98 -3.54505 0.34711 0
M  V30 21311 O 2000.84 -5.45773 0.281884 0
M  V30 21312 H 1997.93 -0.826969 0.00711447 0
M  V30 21313 H 2000.48 -1.51864 0.757335 0
M  V30 21314 H 1999.25 -3.63733 1.4427 0
M  V30 21315 H 1998.87 -3.96875 -0.239993 0
M  V30 21316 O 1999.91 -0.568015 -1.51181 0
M  V30 21317 H 2000.6 -0.0685539 -1.93579 0
M  V30 END ATOM
M  V30 BEGIN BOND
M  V30 END BOND
M  V30 END CTAB
M  END
$$$$
