drugbank_target|Q9ULC6 Protein-arginine deiminase type-1 (DB00155)
 OpenBabel12092120083D

  0  0  0     0  0            999 V3000
M  V30 BEGIN CTAB
M  V30 COUNTS 10455 10587 0 0 0
M  V30 BEGIN ATOM
M  V30 1 H -0.908 1.98254 -0.117106 0
M  V30 2 N 0 1.576 0 0
M  V30 3 C 0.933 2.03868 1.02534 0
M  V30 4 C 1.911 0.928543 1.3348 0
M  V30 5 O 3.095 1.19667 1.45644 0
M  V30 6 C 0.222 2.43627 2.35294 0
M  V30 7 C -0.732 3.65373 2.2001 0
M  V30 8 S 0.101 5.13292 1.52614 0
M  V30 9 C 1.257 5.56322 2.86805 0
M  V30 10 H 1.49 2.90518 0.631377 0
M  V30 11 H -0.977 1.52953 0.210867 0
M  V30 12 H 0.981 2.67203 3.11629 0
M  V30 13 H -0.358 1.57376 2.7183 0
M  V30 14 H -1.165 3.90944 3.18086 0
M  V30 15 H -1.563 3.418 1.51819 0
M  V30 16 H 0.729 5.58782 3.83104 0
M  V30 17 H 1.672 6.56266 2.65933 0
M  V30 18 H 2.08 4.83886 2.90714 0
M  V30 19 N 1.4781 -0.272755 1.55222 0
M  V30 20 C 2.4411 -1.32041 1.87344 0
M  V30 21 C 3.4411 -1.42342 0.74803 0
M  V30 22 O 4.6311 -1.41488 1.0162 0
M  V30 23 C 1.7631 -2.70173 2.07893 0
M  V30 24 H 2.9561 -1.04789 2.80997 0
M  V30 25 H 0.5091 -0.51083 1.47717 0
M  V30 26 H 1.2441 -3.02605 1.16622 0
M  V30 27 H 1.0291 -2.64082 2.89833 0
M  V30 28 H 2.5191 -3.45869 2.34017 0
M  V30 29 N 2.9562 -1.48159 -0.537278 0
M  V30 30 C 4.3672 -1.49429 -1.11928 0
M  V30 31 C 4.7182 -0.26 -1.9447 0
M  V30 32 O 3.8432 0.633489 -2.0692 0
M  V30 33 C 4.4382 -2.70758 -2.03656 0
M  V30 34 C 2.9972 -2.74923 -2.57088 0
M  V30 35 C 2.1442 -2.42835 -1.3389 0
M  V30 36 H 5.0952 -1.55381 -0.322886 0
M  V30 37 H 5.1162 -2.48861 -2.87834 0
M  V30 38 H 4.6282 -3.60575 -1.43553 0
M  V30 39 H 2.7292 -1.89296 -3.20933 0
M  V30 40 H 2.8422 -3.76157 -2.9672 0
M  V30 41 H 1.2062 -1.93836 -1.65226 0
M  V30 42 H 1.9892 -3.34884 -0.755504 0
M  V30 43 N 4.4343 0.785586 -1.36625 0
M  V30 44 C 5.3813 1.89838 -1.31264 0
M  V30 45 C 6.3513 1.65115 -0.180633 0
M  V30 46 O 7.5363 1.87222 -0.36777 0
M  V30 47 C 4.6763 3.26706 -1.11163 0
M  V30 48 C 3.7893 3.63476 -2.33472 0
M  V30 49 C 2.9243 4.89481 -2.06353 0
M  V30 50 C 1.9633 5.18941 -3.24602 0
M  V30 51 N 1.1003 6.36131 -2.97123 0
M  V30 52 H 5.9403 1.93756 -2.26413 0
M  V30 53 H 3.4773 0.947454 -1.12524 0
M  V30 54 H 5.4353 4.05639 -0.975337 0
M  V30 55 H 4.0653 3.222 -0.196674 0
M  V30 56 H 3.1173 2.79636 -2.57891 0
M  V30 57 H 4.4293 3.81193 -3.21704 0
M  V30 58 H 3.5833 5.76288 -1.89675 0
M  V30 59 H 2.3223 4.73841 -1.15437 0
M  V30 60 H 1.3273 4.30615 -3.41834 0
M  V30 61 H 2.5523 5.36498 -4.16349 0
M  V30 62 H 0.4983 6.21875 -2.08823 0
M  V30 63 H 0.4153 6.54198 -3.78894 0
M  V30 64 H 1.6833 7.2591 -2.84033 0
M  V30 65 N 5.9124 1.20967 1.01018 0
M  V30 66 C 7.3284 0.965905 1.27053 0
M  V30 67 C 7.5284 -0.350785 1.98423 0
M  V30 68 O 6.5844 -1.07773 2.28344 0
M  V30 69 C 7.8974 2.15294 2.09926 0
M  V30 70 C 9.4454 2.19463 2.23171 0
M  V30 71 C 9.9204 3.3767 3.09424 0
M  V30 72 N 11.4114 3.37724 3.17012 0
M  V30 73 C 12.1464 4.25837 3.83993 0
M  V30 74 N 11.6424 5.24138 4.53047 0
M  V30 75 N 13.4354 4.1366 3.80581 0
M  V30 76 H 5.5864 2.0565 0.531194 0
M  V30 77 H 7.8494 0.90024 0.297106 0
M  V30 78 H 7.5554 3.10684 1.64828 0
M  V30 79 H 7.4294 2.13923 3.10672 0
M  V30 80 H 9.8164 1.24632 2.6749 0
M  V30 81 H 9.8974 2.2488 1.21912 0
M  V30 82 H 9.5414 4.32791 2.65808 0
M  V30 83 H 9.4714 3.29491 4.10784 0
M  V30 84 H 11.9624 2.6658 2.6785 0
M  V30 85 H 12.2754 5.87684 5.01844 0
M  V30 86 H 10.6204 5.28068 4.5185 0
M  V30 87 H 13.8114 3.36127 3.25785 0
M  V30 88 H 13.9844 4.82538 4.32505 0
M  V30 89 N 7.3905 -1.2043 1.01659 0
M  V30 90 C 8.6365 -1.90079 0.706963 0
M  V30 91 C 8.9695 -1.78648 -0.761474 0
M  V30 92 O 8.2445 -1.17069 -1.55323 0
M  V30 93 C 8.5275 -3.41469 1.14327 0
M  V30 94 C 8.3805 -3.61833 2.67201 0
M  V30 95 C 9.6995 -4.34261 0.714529 0
M  V30 96 H 6.8185 -0.690254 0.2583 0
M  V30 97 H 9.4605 -1.41826 1.26433 0
M  V30 98 H 7.6105 -3.82696 0.669056 0
M  V30 99 H 9.2825 -3.2986 3.22475 0
M  V30 100 H 7.5255 -3.05304 3.08175 0
M  V30 101 H 8.1965 -4.67955 2.92783 0
M  V30 102 H 10.6725 -4.00682 1.12221 0
M  V30 103 H 9.5485 -5.38806 1.04784 0
M  V30 104 H 9.8095 -4.40431 -0.383799 0
M  V30 105 N 8.8686 -0.792821 -1.36206 0
M  V30 106 C 10.1146 -0.36733 -1.99446 0
M  V30 107 C 10.4476 1.05917 -1.62774 0
M  V30 108 O 9.7226 1.7324 -0.88421 0
M  V30 109 C 10.0056 -0.535044 -3.56103 0
M  V30 110 C 9.8586 -2.00548 -4.02617 0
M  V30 111 C 11.1776 0.0478191 -4.40074 0
M  V30 112 H 8.2966 -0.134941 -0.724541 0
M  V30 113 H 10.9386 -0.999794 -1.61568 0
M  V30 114 H 9.0886 0.00336329 -3.885 0
M  V30 115 H 10.7606 -2.60521 -3.80692 0
M  V30 116 H 9.0036 -2.50686 -3.54032 0
M  V30 117 H 9.6746 -2.07377 -5.11565 0
M  V30 118 H 12.1506 -0.411822 -4.14057 0
M  V30 119 H 11.0266 -0.0995336 -5.4881 0
M  V30 120 H 11.2876 1.14025 -4.27142 0
M  V30 121 N 10.3467 1.47872 -0.545128 0
M  V30 122 C 11.2787 2.27869 0.246621 0
M  V30 123 C 12.2917 1.36282 0.890561 0
M  V30 124 O 13.4807 1.61207 0.766449 0
M  V30 125 C 10.5807 3.10159 1.36582 0
M  V30 126 C 9.7537 4.29627 0.820954 0
M  V30 127 C 8.8127 4.93607 1.82314 0
M  V30 128 O 7.8387 5.52366 1.37406 0
M  V30 129 N 9.0407 4.87211 3.15603 0
M  V30 130 H 11.8057 2.96459 -0.439539 0
M  V30 131 H 9.3667 1.57367 -0.380421 0
M  V30 132 H 11.3587 3.49829 2.03474 0
M  V30 133 H 9.9287 2.43891 1.9554 0
M  V30 134 H 9.1487 3.94192 -0.0244032 0
M  V30 135 H 10.4367 5.06928 0.436063 0
M  V30 136 H 9.8347 4.40651 3.54744 0
M  V30 137 H 8.3917 5.30937 3.78087 0
M  V30 138 N 11.8248 0.280983 1.55075 0
M  V30 139 C 12.7548 -0.597469 2.25727 0
M  V30 140 C 13.7358 -1.15417 1.24952 0
M  V30 141 O 14.9208 -1.18722 1.53684 0
M  V30 142 C 12.0508 -1.7789 2.98283 0
M  V30 143 C 11.0048 -1.35347 4.06036 0
M  V30 144 C 10.3308 -2.61846 4.66198 0
M  V30 145 C 11.6308 -0.499354 5.19907 0
M  V30 146 H 13.3248 -0.00824265 2.99399 0
M  V30 147 H 10.8708 -0.0025244 1.44 0
M  V30 148 H 12.8238 -2.39937 3.46422 0
M  V30 149 H 11.5478 -2.39405 2.22155 0
M  V30 150 H 10.2068 -0.756156 3.58717 0
M  V30 151 H 9.8548 -3.21632 3.86732 0
M  V30 152 H 9.5548 -2.3409 5.38958 0
M  V30 153 H 11.0788 -3.24732 5.1709 0
M  V30 154 H 12.4928 -1.02498 5.64063 0
M  V30 155 H 10.8898 -0.316424 5.99265 0
M  V30 156 H 11.9598 0.480459 4.82514 0
M  V30 157 N 13.3029 -1.57598 0.00835791 0
M  V30 158 C 14.5279 -1.95617 -0.689103 0
M  V30 159 C 14.9529 -0.883753 -1.66046 0
M  V30 160 O 14.3109 0.157352 -1.80616 0
M  V30 161 C 14.3589 -3.32736 -1.38994 0
M  V30 162 O 13.4629 -3.27631 -2.50463 0
M  V30 163 H 12.8039 -0.638379 -0.182668 0
M  V30 164 H 15.3339 -2.045 0.064036 0
M  V30 165 H 15.3439 -3.68494 -1.75147 0
M  V30 166 H 14.0189 -4.1034 -0.677778 0
M  V30 167 H 12.5959 -3.03561 -2.16576 0
M  V30 168 N 14.781 0.264519 -1.55364 0
M  V30 169 C 15.711 1.33121 -1.91836 0
M  V30 170 C 16.692 1.51101 -0.781192 0
M  V30 171 O 17.877 1.64003 -1.04003 0
M  V30 172 C 15.007 2.68921 -2.19769 0
M  V30 173 C 13.961 2.65661 -3.35571 0
M  V30 174 C 13.287 4.05093 -3.49004 0
M  V30 175 C 14.587 2.24187 -4.71739 0
M  V30 176 H 16.281 1.02844 -2.81182 0
M  V30 177 H 13.827 0.493286 -1.35287 0
M  V30 178 H 15.78 3.43663 -2.43872 0
M  V30 179 H 14.504 3.00799 -1.27231 0
M  V30 180 H 13.163 1.93377 -3.1145 0
M  V30 181 H 12.811 4.34206 -2.53917 0
M  V30 182 H 12.511 4.03804 -4.26868 0
M  V30 183 H 14.035 4.81561 -3.75408 0
M  V30 184 H 15.449 2.88654 -4.9533 0
M  V30 185 H 13.846 2.34044 -5.52579 0
M  V30 186 H 14.916 1.19327 -4.69988 0
M  V30 187 N 16.2591 1.48442 0.529413 0
M  V30 188 C 17.2061 1.63007 1.63394 0
M  V30 189 C 18.1761 0.47212 1.59249 0
M  V30 190 O 19.3611 0.695673 1.77666 0
M  V30 191 C 16.5011 1.6763 3.01653 0
M  V30 192 C 15.6141 2.94535 3.16027 0
M  V30 193 C 14.7491 2.90316 4.44849 0
M  V30 194 C 13.7881 4.11923 4.52754 0
M  V30 195 N 12.9251 4.05777 5.72965 0
M  V30 196 H 17.7651 2.5733 1.50285 0
M  V30 197 H 15.3021 1.27613 0.731656 0
M  V30 198 H 17.2601 1.68292 3.81751 0
M  V30 199 H 15.8901 0.76797 3.13532 0
M  V30 200 H 14.9421 3.03615 2.29177 0
M  V30 201 H 16.2541 3.84512 3.17729 0
M  V30 202 H 15.4081 2.89382 5.33238 0
M  V30 203 H 14.1471 1.98068 4.45668 0
M  V30 204 H 13.1521 4.13131 3.62771 0
M  V30 205 H 14.3771 5.0533 4.53672 0
M  V30 206 H 12.3231 3.16351 5.74681 0
M  V30 207 H 12.2401 4.8946 5.76164 0
M  V30 208 H 13.5081 4.08904 6.6364 0
M  V30 209 N 17.7372 -0.778329 1.37039 0
M  V30 210 C 18.6702 -1.8984 1.26633 0
M  V30 211 C 19.6482 -1.61923 0.148197 0
M  V30 212 O 20.8322 -1.85742 0.321265 0
M  V30 213 C 17.9592 -3.24916 0.956403 0
M  V30 214 C 17.0052 -3.71752 2.09051 0
M  V30 215 S 17.8382 -3.86201 3.70957 0
M  V30 216 C 18.9942 -5.24135 3.42101 0
M  V30 217 H 19.2272 -1.98377 2.21436 0
M  V30 218 H 16.7602 -0.938738 1.22585 0
M  V30 219 H 18.7182 -4.02936 0.784409 0
M  V30 220 H 17.3792 -3.14089 0.0259713 0
M  V30 221 H 16.5722 -4.69661 1.8285 0
M  V30 222 H 16.1742 -3.00815 2.2223 0
M  V30 223 H 18.4662 -6.09086 2.96682 0
M  V30 224 H 19.4092 -5.55346 4.39314 0
M  V30 225 H 19.8172 -4.91761 2.77185 0
M  V30 226 N 19.2153 -1.21501 -1.00376 0
M  V30 227 C 20.6263 -1.03146 -1.55621 0
M  V30 228 C 20.9773 0.408375 -1.91903 0
M  V30 229 O 20.1023 1.29177 -1.73616 0
M  V30 230 C 20.6973 -1.86612 -2.82775 0
M  V30 231 C 19.2563 -1.72586 -3.34501 0
M  V30 232 C 18.4033 -1.83747 -2.07683 0
M  V30 233 H 21.3543 -1.35505 -0.826081 0
M  V30 234 H 21.3753 -1.3771 -3.54706 0
M  V30 235 H 20.8873 -2.91399 -2.56336 0
M  V30 236 H 18.9883 -0.704877 -3.65872 0
M  V30 237 H 19.1013 -2.54623 -4.05837 0
M  V30 238 H 17.4653 -1.27069 -2.20739 0
M  V30 239 H 18.2483 -2.90044 -1.83655 0
M  V30 240 N 20.6934 1.19889 -1.02296 0
M  V30 241 C 21.9214 1.9339 -0.735399 0
M  V30 242 C 22.3364 1.75148 0.704887 0
M  V30 243 O 21.6934 1.06954 1.47875 0
M  V30 244 C 21.7444 3.45313 -1.06962 0
M  V30 245 O 21.4654 3.62964 -2.45334 0
M  V30 246 C 22.9664 4.35948 -0.804021 0
M  V30 247 H 20.1864 0.61448 -0.269546 0
M  V30 248 H 22.7304 1.522 -1.36585 0
M  V30 249 H 20.8854 3.84359 -0.484455 0
M  V30 250 H 21.2994 4.56886 -2.57595 0
M  V30 251 H 22.7734 5.41174 -1.0879 0
M  V30 252 H 23.2504 4.3842 0.261691 0
M  V30 253 H 23.8564 4.02574 -1.37164 0
M  V30 254 N 22.1715 0.800033 1.35784 0
M  V30 255 C 23.1215 0.178654 2.27299 0
M  V30 256 C 24.1055 -0.643667 1.47464 0
M  V30 257 O 25.2975 -0.502 1.69732 0
M  V30 258 C 22.4265 -0.677194 3.36555 0
M  V30 259 C 21.5125 0.154497 4.23818 0
M  V30 260 N 21.9035 1.21427 4.91008 0
M  V30 261 C 20.2015 -0.0649462 4.45953 0
M  V30 262 C 20.9025 1.72147 5.55644 0
M  V30 263 N 19.8785 1.02897 5.33773 0
M  V30 264 H 23.6805 0.989637 2.76737 0
M  V30 265 H 21.1945 0.64054 1.49234 0
M  V30 266 H 23.1915 -1.13835 4.01058 0
M  V30 267 H 21.8515 -1.4866 2.8867 0
M  V30 268 H 22.8625 1.59684 4.92668 0
M  V30 269 H 19.5395 -0.844016 4.0888 0
M  V30 270 H 20.9295 2.60683 6.19269 0
M  V30 271 N 23.6496 -1.47581 0.552962 0
M  V30 272 C 24.6126 -2.28439 -0.186605 0
M  V30 273 C 25.6126 -1.36706 -0.84665 0
M  V30 274 O 26.8026 -1.59378 -0.703164 0
M  V30 275 C 23.9346 -3.16264 -1.2724 0
M  V30 276 H 25.1276 -2.95294 0.523609 0
M  V30 277 H 22.6806 -1.532 0.309745 0
M  V30 278 H 23.4156 -2.54091 -2.01514 0
M  V30 279 H 23.2006 -3.83769 -0.803968 0
M  V30 280 H 24.6906 -3.77198 -1.79196 0
M  V30 281 N 25.1277 -0.289203 -1.54924 0
M  V30 282 C 26.3737 0.323998 -2.00195 0
M  V30 283 C 26.7067 1.54441 -1.17735 0
M  V30 284 O 25.9817 1.92875 -0.250878 0
M  V30 285 C 26.2647 0.692276 -3.53383 0
M  V30 286 C 26.1177 -0.536457 -4.46589 0
M  V30 287 C 27.4367 1.52335 -4.12895 0
M  V30 288 H 24.5557 0.116289 -0.727768 0
M  V30 289 H 27.1977 -0.398954 -1.85764 0
M  V30 290 H 25.3477 1.30822 -3.65811 0
M  V30 291 H 27.0197 -1.17499 -4.46085 0
M  V30 292 H 25.2627 -1.17192 -4.1767 0
M  V30 293 H 25.9337 -0.234806 -5.515 0
M  V30 294 H 28.4097 1.00302 -4.0383 0
M  V30 295 H 27.2857 1.74982 -5.20262 0
M  V30 296 H 27.5467 2.50886 -3.64018 0
M  V30 297 N 26.6058 1.57591 -0.0167156 0
M  V30 298 C 27.8458 1.93145 0.668902 0
M  V30 299 C 28.2098 0.892406 1.7 0
M  V30 300 O 29.4108 1.13373 2.43721 0
M  V30 301 C 27.6818 3.33678 1.28039 0
M  V30 302 S 29.2408 3.91142 1.9888 0
M  V30 303 H 26.0588 0.67593 0.220545 0
M  V30 304 H 28.6608 1.95347 -0.0774105 0
M  V30 305 H 27.3648 4.07126 0.517339 0
M  V30 306 H 26.8958 3.3489 2.06427 0
M  V30 307 H 28.9108 3.73571 3.26587 0
M  V30 308 N 28.0839 -0.256276 1.55502 0
M  V30 309 C 29.3299 -0.987079 1.77157 0
M  V30 310 C 29.6629 -1.85327 0.580315 0
M  V30 311 O 28.9379 -1.89874 -0.421686 0
M  V30 312 C 29.2209 -1.85553 3.08613 0
M  V30 313 C 29.0739 -1.01816 4.38125 0
M  V30 314 C 30.3929 -2.8397 3.36228 0
M  V30 315 H 27.5119 -0.357428 0.644526 0
M  V30 316 H 30.1539 -0.258239 1.88237 0
M  V30 317 H 28.3039 -2.47695 2.99298 0
M  V30 318 H 29.9759 -0.416159 4.59419 0
M  V30 319 H 28.2189 -0.322178 4.32602 0
M  V30 320 H 28.8899 -1.65939 5.26468 0
M  V30 321 H 31.3659 -2.31964 3.45445 0
M  V30 322 H 30.2419 -3.41864 4.29442 0
M  V30 323 H 30.5029 -3.59955 2.56681 0
M  V30 324 N 29.562 -1.4872 -0.521534 0
M  V30 325 C 30.808 -1.574 -1.27879 0
M  V30 326 C 31.141 -0.250817 -1.92573 0
M  V30 327 O 30.416 0.743934 -1.79711 0
M  V30 328 C 30.699 -2.71843 -2.36164 0
M  V30 329 C 30.552 -4.13893 -1.76105 0
M  V30 330 C 31.871 -2.82008 -3.37875 0
M  V30 331 H 28.99 -0.572941 -0.463581 0
M  V30 332 H 31.632 -1.80927 -0.580119 0
M  V30 333 H 29.782 -2.51914 -2.95756 0
M  V30 334 H 31.454 -4.45284 -1.20499 0
M  V30 335 H 29.697 -4.20498 -1.06601 0
M  V30 336 H 30.368 -4.89804 -2.5455 0
M  V30 337 H 32.844 -3.00086 -2.88249 0
M  V30 338 H 31.72 -3.63796 -4.11028 0
M  V30 339 H 31.981 -1.90511 -3.98946 0
M  V30 340 N 31.0401 0.771051 -1.3745 0
M  V30 341 C 32.2881 1.52661 -1.32435 0
M  V30 342 C 32.6091 1.9479 0.0905024 0
M  V30 343 O 31.8791 1.66348 1.03466 0
M  V30 344 H 30.4591 0.566218 -0.487244 0
M  V30 345 H 33.1211 0.917636 -1.71946 0
M  V30 346 H 32.2171 2.42568 -1.96385 0
M  V30 347 N 32.5182 1.22032 0.997298 0
M  V30 348 C 33.7642 1.04376 1.73878 0
M  V30 349 C 34.0972 -0.420716 1.89588 0
M  V30 350 O 33.3722 -1.31202 1.43583 0
M  V30 351 C 33.6552 1.75047 3.14691 0
M  V30 352 C 33.5082 3.29062 3.06656 0
M  V30 353 C 34.8272 1.49928 4.13775 0
M  V30 354 H 31.9462 0.380578 0.631133 0
M  V30 355 H 34.5882 1.50312 1.16217 0
M  V30 356 H 32.7382 1.35996 3.63919 0
M  V30 357 H 34.4102 3.7753 2.65083 0
M  V30 358 H 32.6532 3.58967 2.43568 0
M  V30 359 H 33.3242 3.73683 4.06282 0
M  V30 360 H 35.8002 1.83842 3.73285 0
M  V30 361 H 34.6762 2.01878 5.10428 0
M  V30 362 H 34.9372 0.430929 4.39995 0
M  V30 363 N 33.9963 -1.19345 1.0293 0
M  V30 364 C 34.9063 -2.26245 0.620515 0
M  V30 365 C 35.9223 -1.70486 -0.347928 0
M  V30 366 O 37.0983 -2.00347 -0.205704 0
M  V30 367 C 34.1633 -3.46693 -0.0218957 0
M  V30 368 C 33.2243 -4.17632 0.994102 0
M  V30 369 C 32.4573 -5.32329 0.382253 0
M  V30 370 O 32.6803 -5.64552 -0.814676 0
M  V30 371 O 31.6143 -5.91664 1.10531 0
M  V30 372 H 35.4403 -2.63453 1.51083 0
M  V30 373 H 33.0253 -1.26207 0.799513 0
M  V30 374 H 34.9073 -4.19683 -0.380072 0
M  V30 375 H 33.5823 -3.11333 -0.886209 0
M  V30 376 H 32.4893 -3.4676 1.40387 0
M  V30 377 H 33.8223 -4.56964 1.8288 0
M  V30 378 N 35.4744 -0.807222 -1.35358 0
M  V30 379 C 36.4374 -0.223665 -2.28106 0
M  V30 380 C 37.4374 0.589354 -1.4961 0
M  V30 381 O 38.6274 0.407745 -1.69361 0
M  V30 382 C 35.7594 0.688149 -3.33882 0
M  V30 383 H 36.9524 -1.04169 -2.81227 0
M  V30 384 H 34.5054 -0.577921 -1.45223 0
M  V30 385 H 35.2404 1.52984 -2.85948 0
M  V30 386 H 35.0254 0.10687 -3.91954 0
M  V30 387 H 36.5154 1.09075 -4.03104 0
M  V30 388 N 36.9525 1.47285 -0.560781 0
M  V30 389 C 37.9025 2.27073 0.205384 0
M  V30 390 C 38.8865 1.34569 0.882044 0
M  V30 391 O 40.0785 1.58899 0.77976 0
M  V30 392 C 37.2075 3.20414 1.23247 0
M  V30 393 C 36.2935 4.20399 0.559041 0
M  V30 394 N 36.6845 5.04423 -0.372927 0
M  V30 395 C 34.9825 4.38536 0.812522 0
M  V30 396 C 35.6835 5.76655 -0.764446 0
M  V30 397 N 34.6595 5.43471 -0.11848 0
M  V30 398 H 38.4615 2.89422 -0.511117 0
M  V30 399 H 35.9755 1.57868 -0.380975 0
M  V30 400 H 37.9725 3.76262 1.79534 0
M  V30 401 H 36.6325 2.59623 1.95002 0
M  V30 402 H 37.6435 5.1248 -0.747287 0
M  V30 403 H 34.3205 3.88913 1.51832 0
M  V30 404 H 35.7105 6.54238 -1.53045 0
M  V30 405 N 38.4306 0.297415 1.54768 0
M  V30 406 C 39.6766 -0.313376 2.00364 0
M  V30 407 C 40.0096 -1.53815 1.18553 0
M  V30 408 O 39.2846 -1.92739 0.261103 0
M  V30 409 C 39.5676 -0.673525 3.53745 0
M  V30 410 C 39.4206 0.560133 4.46299 0
M  V30 411 C 40.7396 -1.50143 4.13697 0
M  V30 412 H 37.8586 -0.112428 0.728374 0
M  V30 413 H 40.5006 0.4088 1.8555 0
M  V30 414 H 38.6506 -1.28881 3.665 0
M  V30 415 H 40.3226 1.19863 4.45455 0
M  V30 416 H 38.5656 1.19405 4.17043 0
M  V30 417 H 39.2366 0.26405 5.51368 0
M  V30 418 H 41.7126 -0.981588 4.04356 0
M  V30 419 H 40.5886 -1.72221 5.21182 0
M  V30 420 H 40.8496 -2.48952 3.65343 0
M  V30 421 N 39.9087 -1.5758 0.0250728 0
M  V30 422 C 41.1857 -1.82917 -0.692873 0
M  V30 423 C 41.5657 -0.908137 -1.90568 0
M  V30 424 O 40.9137 0.0372298 -2.2847 0
M  V30 425 C 41.1237 -3.32034 -1.07492 0
M  V30 426 C 42.4717 -3.98406 -1.46826 0
M  V30 427 O 43.4957 -3.36505 -1.16801 0
M  V30 428 O 42.3547 -5.07497 -2.02754 0
M  V30 429 H 39.4487 -0.754079 -0.33955 0
M  V30 430 H 41.9947 -1.69619 0.0524456 0
M  V30 431 H 40.7667 -3.90728 -0.211552 0
M  V30 432 H 40.3897 -3.50424 -1.87854 0
M  V30 433 N 41.3868 0.248026 -1.55636 0
M  V30 434 C 42.6358 0.974134 -1.76617 0
M  V30 435 C 42.9488 1.86528 -0.588796 0
M  V30 436 O 44.1548 2.62805 -0.681594 0
M  V30 437 C 42.6108 1.78213 -3.12679 0
M  V30 438 C 42.2188 0.93843 -4.38061 0
M  V30 439 C 43.9628 2.50104 -3.42999 0
M  V30 440 C 41.8698 1.74225 -5.65155 0
M  V30 441 H 40.7998 0.36745 -0.658405 0
M  V30 442 H 43.4508 0.22884 -1.82067 0
M  V30 443 H 41.8328 2.56933 -3.01333 0
M  V30 444 H 43.0068 0.193635 -4.60393 0
M  V30 445 H 41.3218 0.332905 -4.15067 0
M  V30 446 H 43.9188 3.10694 -4.3517 0
M  V30 447 H 44.2618 3.21662 -2.64271 0
M  V30 448 H 44.7948 1.78395 -3.55556 0
M  V30 449 H 41.5338 1.07043 -6.46701 0
M  V30 450 H 41.0538 2.46235 -5.46926 0
M  V30 451 H 42.7328 2.30967 -6.0437 0
M  V30 452 N 42.8649 1.48995 0.513639 0
M  V30 453 C 43.8149 1.61127 1.61314 0
M  V30 454 C 44.7989 0.467521 1.53958 0
M  V30 455 O 45.9909 0.719826 1.61702 0
M  V30 456 C 43.1199 1.66937 2.99978 0
M  V30 457 C 42.2059 2.86847 3.12377 0
M  V30 458 N 42.5969 4.11078 2.94701 0
M  V30 459 C 40.8949 2.84521 3.43459 0
M  V30 460 C 41.5959 4.91615 3.10949 0
M  V30 461 N 40.5719 4.24739 3.3926 0
M  V30 462 H 44.3739 2.54909 1.46282 0
M  V30 463 H 41.8879 1.45593 0.719483 0
M  V30 464 H 43.8849 1.73725 3.78979 0
M  V30 465 H 42.5449 0.742831 3.16089 0
M  V30 466 H 43.5559 4.41258 2.71131 0
M  V30 467 H 40.2329 2.01192 3.65825 0
M  V30 468 H 41.6229 6.00264 3.01882 0
M  V30 469 N 44.343 -0.763751 1.37857 0
M  V30 470 C 45.568 -1.55805 1.36893 0
M  V30 471 C 45.993 -1.88054 -0.0416135 0
M  V30 472 O 45.351 -1.49825 -1.02089 0
M  V30 473 C 45.399 -2.84012 2.22192 0
M  V30 474 O 44.503 -3.78732 1.63204 0
M  V30 475 H 43.844 -0.471638 0.46739 0
M  V30 476 H 46.374 -0.944657 1.81487 0
M  V30 477 H 46.384 -3.33037 2.35691 0
M  V30 478 H 45.059 -2.59869 3.24716 0
M  V30 479 H 43.636 -3.37402 1.58791 0
M  V30 480 N 45.8211 -1.22559 -0.990812 0
M  V30 481 C 47.0981 -0.959875 -1.70428 0
M  V30 482 C 47.4781 0.524455 -2.04481 0
M  V30 483 O 46.8261 1.49302 -1.72977 0
M  V30 484 C 47.0361 -1.85955 -2.95333 0
M  V30 485 C 48.3841 -2.11687 -3.68068 0
M  V30 486 O 49.4081 -1.8342 -3.05345 0
M  V30 487 O 48.2671 -2.59572 -4.80921 0
M  V30 488 H 45.3611 -0.361154 -0.743974 0
M  V30 489 H 47.9071 -1.33554 -1.04697 0
M  V30 490 H 46.6791 -2.86346 -2.66687 0
M  V30 491 H 46.3021 -1.4856 -3.68803 0
M  V30 492 N 47.2992 1.18797 -1.03562 0
M  V30 493 C 48.5452 1.8893 -0.737113 0
M  V30 494 C 48.8782 1.79837 0.732956 0
M  V30 495 O 48.1532 1.19525 1.5344 0
M  V30 496 C 48.4362 3.39607 -1.19745 0
M  V30 497 C 48.2892 3.57537 -2.72924 0
M  V30 498 C 49.6082 4.33069 -0.783526 0
M  V30 499 H 46.7272 0.686057 -0.269249 0
M  V30 500 H 49.3692 1.39797 -1.28673 0
M  V30 501 H 47.5192 3.81583 -0.729855 0
M  V30 502 H 49.1912 3.24688 -3.27682 0
M  V30 503 H 47.4342 3.00363 -3.12993 0
M  V30 504 H 48.1052 4.63238 -3.00191 0
M  V30 505 H 50.5812 3.98846 -1.18581 0
M  V30 506 H 49.4572 5.3707 -1.13343 0
M  V30 507 H 49.7182 4.40986 0.313681 0
M  V30 508 N 48.7773 0.814389 1.34928 0
M  V30 509 C 50.1883 0.458364 1.80986 0
M  V30 510 C 50.5393 -1.02042 1.67577 0
M  V30 511 O 49.6643 -1.79352 1.21086 0
M  V30 512 C 50.2593 0.825212 3.28597 0
M  V30 513 C 48.8183 0.521677 3.72767 0
M  V30 514 C 47.9653 1.04668 2.56788 0
M  V30 515 H 50.9163 1.00533 1.22795 0
M  V30 516 H 50.9373 0.12571 3.80292 0
M  V30 517 H 50.4493 1.90154 3.38324 0
M  V30 518 H 48.5503 -0.545589 3.68584 0
M  V30 519 H 48.6633 1.05977 4.67232 0
M  V30 520 H 47.0273 0.468622 2.50352 0
M  V30 521 H 47.8103 2.12927 2.6929 0
M  V30 522 N 50.2554 -1.46986 0.568584 0
M  V30 523 C 51.2024 -2.30153 -0.172707 0
M  V30 524 C 52.1724 -1.39759 -0.897586 0
M  V30 525 O 53.3574 -1.68716 -0.891044 0
M  V30 526 C 50.4974 -3.23952 -1.1895 0
M  V30 527 C 49.6104 -4.29441 -0.469517 0
M  V30 528 C 48.7454 -5.1038 -1.47259 0
M  V30 529 C 47.7844 -6.07632 -0.738225 0
M  V30 530 N 46.9214 -6.8149 -1.68868 0
M  V30 531 H 51.7614 -2.93019 0.542596 0
M  V30 532 H 49.2984 -1.44422 0.279401 0
M  V30 533 H 51.2564 -3.76767 -1.79173 0
M  V30 534 H 49.8864 -2.62926 -1.87269 0
M  V30 535 H 48.9384 -3.79594 0.247467 0
M  V30 536 H 50.2504 -4.98689 0.105241 0
M  V30 537 H 49.4044 -5.67402 -2.14803 0
M  V30 538 H 48.1434 -4.4106 -2.08128 0
M  V30 539 H 47.1484 -5.49778 -0.0489293 0
M  V30 540 H 48.3734 -6.78966 -0.135129 0
M  V30 541 H 46.3194 -6.14891 -2.28573 0
M  V30 542 H 46.2364 -7.46948 -1.16636 0
M  V30 543 H 47.5044 -7.43078 -2.3549 0
M  V30 544 N 51.7335 -0.305618 -1.54608 0
M  V30 545 C 52.9815 0.301701 -1.99835 0
M  V30 546 C 53.3025 1.54054 -1.19551 0
M  V30 547 O 52.5725 1.93702 -0.292658 0
M  V30 548 H 51.1525 0.114468 -0.738178 0
M  V30 549 H 53.8145 -0.418016 -1.90364 0
M  V30 550 H 52.9105 0.570548 -3.06841 0
M  V30 551 N 53.2116 1.57565 -0.0334293 0
M  V30 552 C 54.1746 2.09393 0.932048 0
M  V30 553 C 55.1746 1.00986 1.25134 0
M  V30 554 O 56.3646 1.27129 1.19096 0
M  V30 555 C 53.4966 2.56338 2.2473 0
M  V30 556 H 54.6896 2.95984 0.483085 0
M  V30 557 H 52.2426 1.54819 0.21468 0
M  V30 558 H 52.9776 1.7309 2.74245 0
M  V30 559 H 52.7626 3.35542 2.02865 0
M  V30 560 H 54.2526 2.96646 2.93923 0
M  V30 561 N 54.6897 -0.239769 1.55765 0
M  V30 562 C 55.6377 -1.31668 1.91745 0
M  V30 563 C 56.6317 -1.49462 0.797338 0
M  V30 564 O 57.8377 -1.50852 0.982021 0
M  V30 565 H 54.2127 -0.441048 0.609082 0
M  V30 566 H 56.1837 -0.985923 2.81642 0
M  V30 567 C 54.9327 -2.66368 2.2348 0
M  V30 568 H 54.2557 -2.53478 3.09175 0
M  V30 569 H 55.6957 -3.40578 2.52553 0
M  V30 570 C 54.1547 -3.20002 1.05359 0
M  V30 571 O 54.6847 -4.00538 0.305261 0
M  V30 572 N 52.8907 -2.78126 0.842292 0
M  V30 573 H 52.4377 -2.12742 1.45253 0
M  V30 574 H 52.3957 -3.14354 0.053652 0
M  V30 575 N 56.1678 -1.49265 -0.50573 0
M  V30 576 C 57.3928 -1.62478 -1.28902 0
M  V30 577 C 57.8178 -0.294332 -1.85783 0
M  V30 578 O 57.1758 0.737412 -1.65626 0
M  V30 579 C 57.2238 -2.69268 -2.39848 0
M  V30 580 O 56.3278 -2.28113 -3.43567 0
M  V30 581 H 55.6688 -0.54399 -0.380751 0
M  V30 582 H 58.1988 -1.95421 -0.605952 0
M  V30 583 H 58.2088 -2.91291 -2.85681 0
M  V30 584 H 56.8838 -3.65846 -1.97812 0
M  V30 585 H 55.4608 -2.16401 -3.03685 0
M  V30 586 N 57.6459 0.756429 -1.3826 0
M  V30 587 C 58.8929 1.51547 -1.34312 0
M  V30 588 C 59.2209 1.94382 0.0677144 0
M  V30 589 O 58.4759 1.65514 1.04421 0
M  V30 590 C 58.7749 2.78313 -2.24224 0
M  V30 591 C 58.4409 2.54455 -3.72241 0
M  V30 592 C 57.1029 2.47657 -4.12576 0
M  V30 593 C 59.4549 2.3354 -4.65949 0
M  V30 594 C 56.7829 2.17956 -5.44713 0
M  V30 595 C 59.1349 2.05359 -5.9834 0
M  V30 596 C 57.7989 1.97016 -6.37762 0
M  V30 597 H 57.0689 0.55455 -0.491482 0
M  V30 598 H 59.7159 0.870039 -1.70595 0
M  V30 599 H 58.0209 3.47492 -1.80987 0
M  V30 600 H 59.7179 3.36259 -2.18474 0
M  V30 601 H 56.3079 2.60616 -3.40261 0
M  V30 602 H 60.4919 2.37772 -4.35635 0
M  V30 603 H 55.7479 2.10003 -5.74203 0
M  V30 604 H 59.9219 1.88179 -6.70494 0
M  V30 605 H 57.5489 1.73766 -7.40074 0
M  V30 606 N 59.124 1.23083 0.984299 0
M  V30 607 C 60.54 0.992637 1.24975 0
M  V30 608 C 60.74 -0.308618 1.99123 0
M  V30 609 O 59.796 -1.02905 2.30579 0
M  V30 610 C 61.109 2.19698 2.05312 0
M  V30 611 C 62.657 2.24147 2.18465 0
M  V30 612 C 63.132 3.44157 3.02192 0
M  V30 613 N 64.623 3.44372 3.09777 0
M  V30 614 C 65.358 4.33886 3.74874 0
M  V30 615 N 64.854 5.3363 4.41827 0
M  V30 616 N 66.647 4.21639 3.71721 0
M  V30 617 H 58.798 2.06731 0.487453 0
M  V30 618 H 61.061 0.906339 0.277944 0
M  V30 619 H 60.767 3.1411 1.58201 0
M  V30 620 H 60.641 2.20465 3.06064 0
M  V30 621 H 63.028 1.30277 2.64786 0
M  V30 622 H 63.109 2.27415 1.17115 0
M  V30 623 H 62.753 4.38332 2.56568 0
M  V30 624 H 62.683 3.3813 4.03702 0
M  V30 625 H 65.174 2.72201 2.62135 0
M  V30 626 H 65.487 5.98196 4.89266 0
M  V30 627 H 63.832 5.37534 4.40548 0
M  V30 628 H 67.023 3.42962 3.18582 0
M  V30 629 H 67.196 4.91604 4.22173 0
M  V30 630 N 60.6021 -1.18246 1.0419 0
M  V30 631 C 61.8481 -1.88536 0.747122 0
M  V30 632 C 62.1811 -1.80223 -0.723409 0
M  V30 633 O 61.4561 -1.20337 -1.52804 0
M  V30 634 C 61.7391 -3.38968 1.21544 0
M  V30 635 C 61.5921 -3.56084 2.74816 0
M  V30 636 C 62.9111 -4.32648 0.806482 0
M  V30 637 H 60.0301 -0.684619 0.272883 0
M  V30 638 H 62.6721 -1.39113 1.29413 0
M  V30 639 H 60.8221 -3.8119 0.750081 0
M  V30 640 H 62.4941 -3.22946 3.29399 0
M  V30 641 H 60.7371 -2.98699 3.14582 0
M  V30 642 H 61.4081 -4.61639 3.02644 0
M  V30 643 H 63.8841 -3.98211 1.20695 0
M  V30 644 H 62.7601 -5.36462 1.1619 0
M  V30 645 H 63.0211 -4.41146 -0.29029 0
M  V30 646 N 62.0802 -0.821533 -1.34494 0
M  V30 647 C 63.3052 -0.420873 -2.03085 0
M  V30 648 C 63.7302 0.964915 -1.61465 0
M  V30 649 O 63.0882 1.62763 -0.798607 0
M  V30 650 C 63.1362 -0.529414 -3.56693 0
M  V30 651 O 62.2402 0.451302 -4.09923 0
M  V30 652 H 61.5812 -0.173489 -0.640935 0
M  V30 653 H 64.1112 -1.11157 -1.71771 0
M  V30 654 H 64.1212 -0.404671 -4.05988 0
M  V30 655 H 62.7962 -1.54014 -3.86332 0
M  V30 656 H 61.3732 0.285558 -3.71805 0
M  V30 657 N 63.5583 1.46682 -0.576371 0
M  V30 658 C 64.8063 2.02013 -0.0594163 0
M  V30 659 C 65.1273 1.45101 1.30271 0
M  V30 660 O 64.3973 0.633317 1.8538 0
M  V30 661 H 62.9773 0.746759 -0.0189745 0
M  V30 662 H 65.6393 1.79862 -0.750717 0
M  V30 663 H 64.7353 3.12097 0.014345 0
M  V30 664 N 65.0364 0.313813 1.54444 0
M  V30 665 C 66.2614 -0.296681 2.05267 0
M  V30 666 C 66.6864 -1.45757 1.18897 0
M  V30 667 O 66.0444 -1.80239 0.195886 0
M  V30 668 C 66.0924 -0.71831 3.53373 0
M  V30 669 O 65.1964 -1.82175 3.69981 0
M  V30 670 H 64.5374 -0.0554061 0.661684 0
M  V30 671 H 67.0674 0.459387 1.99376 0
M  V30 672 H 67.0774 -1.00364 3.95463 0
M  V30 673 H 65.7524 0.130821 4.15694 0
M  V30 674 H 64.3294 -1.53598 3.39797 0
M  V30 675 N 66.5145 -1.57545 0.0417849 0
M  V30 676 C 67.7395 -1.97035 -0.647455 0
M  V30 677 C 68.1645 -0.918775 -1.64135 0
M  V30 678 O 67.5225 0.119006 -1.80909 0
M  V30 679 C 67.5705 -3.35609 -1.31905 0
M  V30 680 O 66.6745 -3.3287 -2.43457 0
M  V30 681 H 66.0155 -0.64211 -0.169086 0
M  V30 682 H 68.5455 -2.04318 0.107399 0
M  V30 683 H 68.5555 -3.72126 -1.67291 0
M  V30 684 H 67.2305 -4.11685 -0.590586 0
M  V30 685 H 65.8075 -3.08087 -2.10088 0
M  V30 686 N 67.9926 0.231505 -1.5589 0
M  V30 687 C 69.2406 0.955461 -1.78088 0
M  V30 688 C 69.5616 1.85262 -0.608533 0
M  V30 689 O 68.8316 1.92277 0.375035 0
M  V30 690 H 67.4116 0.355787 -0.656829 0
M  V30 691 H 70.0736 0.245751 -1.93344 0
M  V30 692 H 69.1696 1.56814 -2.69844 0
M  V30 693 N 69.4707 1.49531 0.497807 0
M  V30 694 C 70.7167 1.59415 1.25358 0
M  V30 695 C 71.0497 0.281422 1.9215 0
M  V30 696 O 70.3247 -0.715249 1.80871 0
M  V30 697 C 70.6077 2.75566 2.3181 0
M  V30 698 C 70.4607 4.16642 1.69498 0
M  V30 699 C 71.7797 2.87347 3.33346 0
M  V30 700 H 68.8987 0.580244 0.454408 0
M  V30 701 H 71.5407 1.81827 0.551262 0
M  V30 702 H 69.6907 2.56587 2.91711 0
M  V30 703 H 71.3627 4.47145 1.13399 0
M  V30 704 H 69.6057 4.22141 0.998978 0
M  V30 705 H 70.2767 4.93792 2.46725 0
M  V30 706 H 72.7527 3.04634 2.83438 0
M  V30 707 H 71.6287 3.70289 4.05188 0
M  V30 708 H 71.8897 1.96834 3.95865 0
M  V30 709 N 70.9488 -0.749086 1.3866 0
M  V30 710 C 71.8588 -1.89358 1.38494 0
M  V30 711 C 72.8748 -1.71708 0.281476 0
M  V30 712 O 74.0508 -1.94554 0.520643 0
M  V30 713 C 71.1158 -3.24782 1.21316 0
M  V30 714 C 70.1768 -3.54926 2.41508 0
M  V30 715 C 69.4098 -4.83888 2.2514 0
M  V30 716 O 69.6328 -5.56592 1.24746 0
M  V30 717 O 68.5668 -5.13612 3.13826 0
M  V30 718 H 72.3928 -1.92452 2.34938 0
M  V30 719 H 69.9778 -0.894981 1.19626 0
M  V30 720 H 71.8598 -4.05739 1.13814 0
M  V30 721 H 70.5348 -3.2249 0.279592 0
M  V30 722 H 69.4418 -2.74112 2.54585 0
M  V30 723 H 70.7748 -3.61983 3.3351 0
M  V30 724 N 72.4269 -1.23603 -0.977757 0
M  V30 725 C 73.6729 -1.07129 -1.72195 0
M  V30 726 C 74.0059 0.390501 -1.90233 0
M  V30 727 O 73.2809 1.28902 -1.45653 0
M  V30 728 C 73.5639 -1.80031 -3.11867 0
M  V30 729 C 73.4169 -3.33899 -3.01383 0
M  V30 730 C 74.7359 -1.56492 -4.11337 0
M  V30 731 H 71.8549 -0.390571 -0.624999 0
M  V30 732 H 74.4969 -1.52142 -1.13811 0
M  V30 733 H 72.6469 -1.41768 -3.6171 0
M  V30 734 H 74.3189 -3.81699 -2.59043 0
M  V30 735 H 72.5619 -3.62796 -2.37827 0
M  V30 736 H 73.2329 -3.801 -4.00285 0
M  V30 737 H 75.7089 -1.89757 -3.70313 0
M  V30 738 H 74.5849 -2.09973 -5.07151 0
M  V30 739 H 74.8459 -0.500874 -4.39254 0
M  V30 740 N 73.905 1.17692 -1.04816 0
M  V30 741 C 75.152 1.87859 -0.75599 0
M  V30 742 C 75.48 1.80812 0.716752 0
M  V30 743 O 74.735 1.20819 1.53952 0
M  V30 744 C 75.034 3.37462 -1.17703 0
M  V30 745 C 74.7 3.64713 -2.65133 0
M  V30 746 C 73.362 3.71859 -3.05408 0
M  V30 747 C 75.714 3.76492 -3.60421 0
M  V30 748 C 73.042 3.88271 -4.39843 0
M  V30 749 C 75.394 3.94421 -4.94585 0
M  V30 750 C 74.058 3.99806 -5.3452 0
M  V30 751 H 73.328 0.687425 -0.276636 0
M  V30 752 H 75.975 1.39255 -1.31455 0
M  V30 753 H 74.28 3.88097 -0.537395 0
M  V30 754 H 75.977 3.90109 -0.928218 0
M  V30 755 H 72.567 3.59772 -2.32942 0
M  V30 756 H 76.751 3.70295 -3.30447 0
M  V30 757 H 72.007 3.90687 -4.70291 0
M  V30 758 H 76.181 4.02477 -5.68318 0
M  V30 759 H 73.808 4.12276 -6.38696 0
M  V30 760 N 75.3831 0.828654 1.34056 0
M  V30 761 C 76.3161 0.199763 2.27324 0
M  V30 762 C 77.2941 -0.647168 1.49166 0
M  V30 763 O 78.4781 -0.609661 1.78369 0
M  V30 764 C 75.6051 -0.720455 3.30949 0
M  V30 765 C 74.6511 0.0496888 4.26471 0
M  V30 766 S 75.4841 1.40072 5.16856 0
M  V30 767 C 76.6401 0.485527 6.24014 0
M  V30 768 H 76.8731 0.990478 2.80316 0
M  V30 769 H 74.4061 0.624857 1.41191 0
M  V30 770 H 76.3641 -1.24581 3.91139 0
M  V30 771 H 75.0251 -1.48474 2.76793 0
M  V30 772 H 74.2181 -0.650104 4.9979 0
M  V30 773 H 73.8201 0.505779 3.70564 0
M  V30 774 H 76.1121 -0.320672 6.76741 0
M  V30 775 H 77.0551 1.18856 6.98054 0
M  V30 776 H 77.4631 0.0714109 5.64455 0
M  V30 777 N 76.8612 -1.46375 0.584142 0
M  V30 778 C 78.1072 -2.02678 0.0703716 0
M  V30 779 C 78.4402 -1.4545 -1.28678 0
M  V30 780 O 77.7152 -0.62014 -1.84349 0
M  V30 781 C 77.9982 -3.60099 0.00614674 0
M  V30 782 C 77.8512 -4.27709 1.3923 0
M  V30 783 C 79.1702 -4.34598 -0.693742 0
M  V30 784 H 76.2892 -0.736504 0.027047 0
M  V30 785 H 78.9312 -1.74501 0.751615 0
M  V30 786 H 77.0812 -3.84236 -0.574009 0
M  V30 787 H 78.7532 -4.14832 2.01773 0
M  V30 788 H 76.9962 -3.87016 1.95962 0
M  V30 789 H 77.6672 -5.36478 1.29982 0
M  V30 790 H 80.1432 -4.15615 -0.200869 0
M  V30 791 H 79.0192 -5.44318 -0.707714 0
M  V30 792 H 79.2802 -4.05759 -1.75533 0
M  V30 793 N 78.3393 -0.321999 -1.54275 0
M  V30 794 C 79.5693 0.282642 -2.04658 0
M  V30 795 C 79.9773 1.46453 -1.19784 0
M  V30 796 O 79.3203 1.82367 -0.220932 0
M  V30 797 C 79.3823 0.781857 -3.50895 0
M  V30 798 C 79.0463 -0.277517 -4.56157 0
M  V30 799 C 80.0433 -1.11307 -5.07845 0
M  V30 800 C 77.7283 -0.425256 -5.00497 0
M  V30 801 C 79.7223 -2.08211 -6.02434 0
M  V30 802 C 77.4093 -1.39771 -5.94901 0
M  V30 803 C 78.4073 -2.2246 -6.45756 0
M  V30 804 O 78.0953 -3.18054 -7.38307 0
M  V30 805 H 77.8273 0.0622636 -0.673126 0
M  V30 806 H 80.3813 -0.465792 -2.00049 0
M  V30 807 H 78.6113 1.58118 -3.52896 0
M  V30 808 H 80.3003 1.30467 -3.84361 0
M  V30 809 H 81.0663 -1.00991 -4.74369 0
M  V30 810 H 76.9453 0.20847 -4.60528 0
M  V30 811 H 80.4893 -2.72791 -6.42052 0
M  V30 812 H 76.3863 -1.50152 -6.27794 0
M  V30 813 H 77.1543 -3.13275 -7.56175 0
M  V30 814 N 79.8174 1.5752 -0.0501392 0
M  V30 815 C 80.7654 2.12651 0.942459 0
M  V30 816 C 81.7594 1.05807 1.32292 0
M  V30 817 O 82.9654 1.24217 1.3027 0
M  V30 818 H 79.3404 0.679673 0.321789 0
M  V30 819 H 81.3114 2.94951 0.452356 0
M  V30 820 C 80.0604 2.68565 2.20836 0
M  V30 821 H 79.3834 3.50439 1.92439 0
M  V30 822 H 80.8234 3.10761 2.8845 0
M  V30 823 C 79.2824 1.62291 2.95234 0
M  V30 824 O 79.8124 1.03508 3.88135 0
M  V30 825 N 78.0184 1.33836 2.57946 0
M  V30 826 H 77.5654 1.81826 1.82475 0
M  V30 827 H 77.5234 0.629595 3.08032 0
M  V30 828 N 81.2955 -0.223234 1.56011 0
M  V30 829 C 82.7115 -0.572856 1.48965 0
M  V30 830 C 82.9115 -1.87225 0.74492 0
M  V30 831 O 81.9675 -2.50899 0.283896 0
M  V30 832 C 83.2805 -0.653646 2.9351 0
M  V30 833 C 84.8285 -0.744386 3.0402 0
M  V30 834 C 85.3035 -0.856535 4.49919 0
M  V30 835 N 86.7945 -0.9208 4.53955 0
M  V30 836 C 87.5295 -1.02726 5.64123 0
M  V30 837 N 87.0255 -1.09777 6.84047 0
M  V30 838 N 88.8185 -1.06226 5.51971 0
M  V30 839 H 80.9695 0.629462 2.02858 0
M  V30 840 H 83.2325 0.220621 0.921971 0
M  V30 841 H 82.9385 0.231518 3.50937 0
M  V30 842 H 82.8125 -1.51781 3.45315 0
M  V30 843 H 85.1995 -1.61999 2.46658 0
M  V30 844 H 85.2805 0.14541 2.55386 0
M  V30 845 H 84.9245 0.0146069 5.07898 0
M  V30 846 H 84.8545 -1.76172 4.96257 0
M  V30 847 H 87.3455 -0.876694 3.6759 0
M  V30 848 H 87.6585 -1.17872 7.63758 0
M  V30 849 H 86.0035 -1.06693 6.86762 0
M  V30 850 H 89.1945 -1.00382 4.5721 0
M  V30 851 H 89.3675 -1.14177 6.37862 0
M  V30 852 N 82.7736 -1.49793 -0.48987 0
M  V30 853 C 84.0016 -1.63568 -1.26701 0
M  V30 854 C 84.4166 -0.311465 -1.86213 0
M  V30 855 O 83.7736 0.704416 -1.68357 0
M  V30 856 C 83.8246 -2.71284 -2.38929 0
M  V30 857 O 83.5456 -3.9857 -1.81861 0
M  V30 858 C 85.0466 -2.95864 -3.3012 0
M  V30 859 H 82.2666 -0.550342 -0.383881 0
M  V30 860 H 84.8106 -1.95898 -0.586864 0
M  V30 861 H 82.9656 -2.417 -3.02753 0
M  V30 862 H 83.3796 -4.57993 -2.55622 0
M  V30 863 H 84.8536 -3.74941 -4.05121 0
M  V30 864 H 85.3306 -2.06206 -3.87783 0
M  V30 865 H 85.9366 -3.26907 -2.72051 0
M  V30 866 N 84.2517 0.741722 -1.39055 0
M  V30 867 C 85.6677 1.04638 -1.20512 0
M  V30 868 C 85.8677 2.01405 -0.0620218 0
M  V30 869 O 84.9237 2.45547 0.588457 0
M  V30 870 C 86.2367 1.6151 -2.53643 0
M  V30 871 C 87.7847 1.73623 -2.6043 0
M  V30 872 C 88.2597 2.33906 -3.93767 0
M  V30 873 N 89.7507 2.41323 -3.9537 0
M  V30 874 C 90.4857 2.88888 -4.95309 0
M  V30 875 N 89.9817 3.36401 -6.05645 0
M  V30 876 N 91.7747 2.88037 -4.82692 0
M  V30 877 H 83.9257 0.0998155 -2.12165 0
M  V30 878 H 86.1887 0.106907 -0.941953 0
M  V30 879 H 85.8947 0.978739 -3.37807 0
M  V30 880 H 85.7687 2.60411 -2.72885 0
M  V30 881 H 88.1557 2.36384 -1.76655 0
M  V30 882 H 88.2367 0.733945 -2.45045 0
M  V30 883 H 87.8807 1.71776 -4.7797 0
M  V30 884 H 87.8107 3.34799 -4.06469 0
M  V30 885 H 90.3017 2.07734 -3.15682 0
M  V30 886 H 90.6147 3.71186 -6.77821 0
M  V30 887 H 88.9597 3.34427 -6.09248 0
M  V30 888 H 92.1507 2.50237 -3.95599 0
M  V30 889 H 92.3237 3.24792 -5.60726 0
M  V30 890 N 85.7298 1.2412 0.971189 0
M  V30 891 C 86.9758 1.08041 1.71625 0
M  V30 892 C 87.3088 -0.380407 1.90438 0
M  V30 893 O 86.5838 -1.28127 1.46334 0
M  V30 894 C 86.8668 1.81682 3.10908 0
M  V30 895 C 86.7198 3.35493 2.99608 0
M  V30 896 C 88.0388 1.58671 4.10501 0
M  V30 897 H 85.1578 0.39388 0.622919 0
M  V30 898 H 87.7998 1.52743 1.13003 0
M  V30 899 H 85.9498 1.43684 3.60953 0
M  V30 900 H 87.6218 3.83068 2.57015 0
M  V30 901 H 85.8648 3.64052 2.35899 0
M  V30 902 H 86.5358 3.82217 3.98264 0
M  V30 903 H 89.0118 1.91719 3.69301 0
M  V30 904 H 87.8878 2.1266 5.06031 0
M  V30 905 H 88.1488 0.524161 4.38982 0
M  V30 906 N 87.2079 -1.17134 1.05439 0
M  V30 907 C 88.1549 -2.21235 0.657539 0
M  V30 908 C 89.1249 -1.62551 -0.341543 0
M  V30 909 O 90.3099 -1.89379 -0.232393 0
M  V30 910 C 87.4499 -3.45076 0.0410575 0
M  V30 911 C 86.5629 -4.18042 1.08927 0
M  V30 912 C 85.6979 -5.29376 0.439848 0
M  V30 913 C 84.7369 -5.94132 1.4722 0
M  V30 914 N 83.8739 -6.96975 0.846756 0
M  V30 915 H 88.7139 -2.54534 1.54972 0
M  V30 916 H 86.2509 -1.25028 0.775006 0
M  V30 917 H 88.2089 -4.15862 -0.33383 0
M  V30 918 H 86.8389 -3.12353 -0.814568 0
M  V30 919 H 85.8909 -3.45945 1.58196 0
M  V30 920 H 87.2029 -4.62306 1.87282 0
M  V30 921 H 86.3569 -6.06699 0.0115125 0
M  V30 922 H 85.0959 -4.86251 -0.375656 0
M  V30 923 H 84.1009 -5.15538 1.91052 0
M  V30 924 H 85.3259 -6.39337 2.28965 0
M  V30 925 H 83.2719 -6.5598 0.0518075 0
M  V30 926 H 83.1889 -7.39565 1.5678 0
M  V30 927 H 84.4569 -7.78239 0.443277 0
M  V30 928 N 88.686 -0.835752 -1.33615 0
M  V30 929 C 89.596 -0.269088 -2.33052 0
M  V30 930 C 90.612 0.603251 -1.63208 0
M  V30 931 O 91.788 0.508112 -1.94885 0
M  V30 932 C 88.853 0.549091 -3.42324 0
M  V30 933 C 87.914 -0.347156 -4.27894 0
M  V30 934 C 87.147 0.43207 -5.31948 0
M  V30 935 O 87.37 1.66409 -5.45586 0
M  V30 936 O 86.304 -0.192298 -6.01593 0
M  V30 937 H 90.13 -1.09243 -2.83372 0
M  V30 938 H 87.715 -0.598198 -1.36901 0
M  V30 939 H 89.597 1.01414 -4.09015 0
M  V30 940 H 88.272 1.34955 -2.94226 0
M  V30 941 H 87.179 -0.859979 -3.64081 0
M  V30 942 H 88.512 -1.1123 -4.79467 0
M  V30 943 N 90.1641 1.46063 -0.591896 0
M  V30 944 C 91.5751 1.85944 -0.167822 0
M  V30 945 C 91.9261 1.49429 1.27143 0
M  V30 946 O 91.0511 0.913515 1.96173 0
M  V30 947 C 91.6461 3.37489 -0.297794 0
M  V30 948 C 90.2051 3.76332 0.0714732 0
M  V30 949 C 89.3521 2.7006 -0.629509 0
M  V30 950 H 92.3031 1.37087 -0.799555 0
M  V30 951 H 92.3241 3.77532 0.474349 0
M  V30 952 H 91.8361 3.64034 -1.3454 0
M  V30 953 H 89.9371 3.55405 1.11886 0
M  V30 954 H 90.0501 4.78088 -0.311245 0
M  V30 955 H 88.4141 2.54607 -0.0687867 0
M  V30 956 H 89.1971 2.99444 -1.67894 0
M  V30 957 N 91.6422 0.330177 1.54103 0
M  V30 958 C 92.8912 -0.271336 1.99867 0
M  V30 959 C 93.2042 -1.52723 1.22209 0
M  V30 960 O 94.4102 -2.20515 1.58383 0
M  V30 961 C 92.8662 -0.534032 3.55916 0
M  V30 962 C 92.4742 0.705193 4.42415 0
M  V30 963 C 94.2182 -1.09514 4.1013 0
M  V30 964 C 92.1252 0.414035 5.89949 0
M  V30 965 H 91.0552 -0.105166 0.74663 0
M  V30 966 H 93.7062 0.443429 1.78062 0
M  V30 967 H 92.0882 -1.30915 3.73734 0
M  V30 968 H 93.2622 1.4804 4.36372 0
M  V30 969 H 91.5772 1.18698 3.99124 0
M  V30 970 H 94.1742 -1.3277 5.17954 0
M  V30 971 H 94.5172 -2.04656 3.62521 0
M  V30 972 H 95.0502 -0.381038 3.95971 0
M  V30 973 H 91.7892 1.33481 6.41766 0
M  V30 974 H 91.3092 -0.323336 5.98928 0
M  V30 975 H 92.9882 0.0263105 6.46995 0
M  V30 976 N 93.1203 -1.57491 0.0584922 0
M  V30 977 C 94.3683 -1.92597 -0.612436 0
M  V30 978 C 94.6893 -0.938162 -1.70949 0
M  V30 979 O 93.9593 0.0158301 -1.95894 0
M  V30 980 H 92.5393 -0.710964 -0.229214 0
M  V30 981 H 95.2013 -1.94571 0.113218 0
M  V30 982 H 94.2973 -2.94038 -1.04633 0
M  V30 983 N 94.5984 0.214957 -1.56127 0
M  V30 984 C 95.5454 1.26642 -1.92952 0
M  V30 985 C 96.5154 1.46244 -0.78753 0
M  V30 986 O 97.7004 1.59704 -1.04399 0
M  V30 987 C 94.8404 2.6104 -2.25726 0
M  V30 988 C 93.9534 2.49183 -3.52891 0
M  V30 989 C 93.0884 3.76149 -3.7508 0
M  V30 990 C 92.1274 3.59041 -4.95738 0
M  V30 991 N 91.2644 4.77972 -5.14283 0
M  V30 992 H 96.1044 0.945384 -2.82607 0
M  V30 993 H 93.6414 0.455489 -1.3987 0
M  V30 994 H 95.5994 3.39313 -2.42739 0
M  V30 995 H 94.2294 2.91227 -1.39236 0
M  V30 996 H 93.2814 1.6231 -3.44034 0
M  V30 997 H 94.5934 2.32466 -4.41318 0
M  V30 998 H 93.7474 4.62865 -3.92226 0
M  V30 999 H 92.4864 3.95799 -2.84947 0
M  V30 1000 H 91.4914 2.7071 -4.78535 0
M  V30 1001 H 92.7164 3.40856 -5.87362 0
M  V30 1002 H 90.6624 4.97923 -4.27093 0
M  V30 1003 H 90.5794 4.64006 -5.96853 0
M  V30 1004 H 91.8474 5.66096 -5.35869 0
M  V30 1005 N 96.0765 1.50051 0.48192 0
M  V30 1006 C 97.0395 1.67584 1.5636 0
M  V30 1007 C 98.0395 0.546894 1.51214 0
M  V30 1008 O 99.2295 0.813725 1.54026 0
M  V30 1009 C 96.3615 1.691 2.96003 0
M  V30 1010 H 97.5545 2.64078 1.42136 0
M  V30 1011 H 95.1075 1.39369 0.707533 0
M  V30 1012 H 95.8425 0.742589 3.15684 0
M  V30 1013 H 95.6275 2.51105 3.01146 0
M  V30 1014 H 97.1175 1.84656 3.74556 0
M  V30 1015 N 97.5546 -0.734337 1.39446 0
M  V30 1016 C 98.9706 -1.03997 1.21065 0
M  V30 1017 C 99.1706 -2.01369 0.0727019 0
M  V30 1018 O 98.2266 -2.45856 -0.575426 0
M  V30 1019 C 99.5396 -1.60163 2.54496 0
M  V30 1020 C 101.088 -1.7224 2.61347 0
M  V30 1021 C 101.563 -2.31814 3.95002 0
M  V30 1022 N 103.054 -2.39223 3.96644 0
M  V30 1023 C 103.789 -2.86258 4.96834 0
M  V30 1024 N 103.285 -3.33184 6.07421 0
M  V30 1025 N 105.078 -2.85473 4.84213 0
M  V30 1026 H 97.2286 -0.0885624 2.12215 0
M  V30 1027 H 99.4916 -0.10191 0.942506 0
M  V30 1028 H 99.1976 -0.960811 3.38321 0
M  V30 1029 H 99.0716 -2.5896 2.74262 0
M  V30 1030 H 101.459 -2.35443 1.77906 0
M  V30 1031 H 101.54 -0.720939 2.4543 0
M  V30 1032 H 101.184 -1.69238 4.78875 0
M  V30 1033 H 101.114 -3.32638 4.08239 0
M  V30 1034 H 103.605 -2.06057 3.16779 0
M  V30 1035 H 103.918 -3.67586 6.7978 0
M  V30 1036 H 102.263 -3.31191 6.11013 0
M  V30 1037 H 105.454 -2.48136 3.96921 0
M  V30 1038 H 105.627 -3.21814 5.62441 0
M  V30 1039 N 99.0327 -1.24633 -0.964593 0
M  V30 1040 C 100.279 -1.09957 -1.71117 0
M  V30 1041 C 100.634 0.357422 -1.89051 0
M  V30 1042 O 99.9267 1.26029 -1.44317 0
M  V30 1043 C 100.121 -1.7763 -3.10133 0
M  V30 1044 C 99.9497 -3.29759 -3.05759 0
M  V30 1045 C 98.7197 -3.98981 -3.10068 0
M  V30 1046 C 100.918 -4.26305 -2.87695 0
M  V30 1047 N 98.8997 -5.37966 -2.95747 0
M  V30 1048 C 100.271 -5.52308 -2.81702 0
M  V30 1049 C 102.326 -4.16842 -2.72299 0
M  V30 1050 C 101.029 -6.69931 -2.61887 0
M  V30 1051 C 103.055 -5.34147 -2.53853 0
M  V30 1052 C 102.417 -6.59084 -2.48572 0
M  V30 1053 H 98.5157 -0.457003 -0.634564 0
M  V30 1054 H 101.1 -1.57592 -1.14337 0
M  V30 1055 H 99.2707 -1.32504 -3.65099 0
M  V30 1056 H 101.003 -1.55786 -3.73514 0
M  V30 1057 H 97.7577 -3.50169 -3.18871 0
M  V30 1058 H 98.1817 -6.10877 -2.91818 0
M  V30 1059 H 102.824 -3.21007 -2.75163 0
M  V30 1060 H 100.542 -7.65886 -2.57767 0
M  V30 1061 H 104.128 -5.28678 -2.4288 0
M  V30 1062 H 103.008 -7.48324 -2.34481 0
M  V30 1063 N 100.511 1.16574 -1.06058 0
M  V30 1064 C 101.922 1.68662 -0.800632 0
M  V30 1065 C 102.273 1.84184 0.67608 0
M  V30 1066 O 101.398 1.53568 1.52466 0
M  V30 1067 C 101.993 3.06356 -1.44676 0
M  V30 1068 C 100.552 3.55575 -1.23465 0
M  V30 1069 C 99.6988 2.31616 -1.52477 0
M  V30 1070 H 102.65 1.00969 -1.22438 0
M  V30 1071 H 102.671 3.70636 -0.860788 0
M  V30 1072 H 102.183 2.95027 -2.52152 0
M  V30 1073 H 100.284 3.72167 -0.179527 0
M  V30 1074 H 100.397 4.37812 -1.94571 0
M  V30 1075 H 98.7608 2.36512 -0.945209 0
M  V30 1076 H 99.5438 2.22887 -2.61106 0
M  V30 1077 N 101.989 0.842826 1.3317 0
M  V30 1078 C 102.919 0.294028 2.31641 0
M  V30 1079 C 103.9 -0.600401 1.59151 0
M  V30 1080 O 105.085 -0.523124 1.87022 0
M  V30 1081 C 102.215 -0.528416 3.43257 0
M  V30 1082 C 101.169 0.27056 4.27144 0
M  V30 1083 C 100.495 -0.675881 5.30411 0
M  V30 1084 C 101.795 1.48981 5.00602 0
M  V30 1085 H 103.489 1.11681 2.77791 0
M  V30 1086 H 101.035 0.538478 1.33553 0
M  V30 1087 H 102.988 -0.922674 4.11175 0
M  V30 1088 H 101.712 -1.38445 2.95805 0
M  V30 1089 H 100.371 0.646427 3.60856 0
M  V30 1090 H 100.019 -1.52842 4.79216 0
M  V30 1091 H 99.7189 -0.145374 5.8742 0
M  V30 1092 H 101.243 -1.06757 6.01195 0
M  V30 1093 H 102.657 1.16849 5.61266 0
M  V30 1094 H 101.054 1.95739 5.6728 0
M  V30 1095 H 102.124 2.25746 4.29147 0
M  V30 1096 N 103.467 -1.45747 0.599634 0
M  V30 1097 C 104.744 -1.95585 0.0240846 0
M  V30 1098 C 105.124 -1.54217 -1.44154 0
M  V30 1099 O 104.472 -0.800903 -2.14004 0
M  V30 1100 C 104.682 -3.48344 0.21385 0
M  V30 1101 C 106.03 -4.24504 0.0904902 0
M  V30 1102 O 107.054 -3.55911 0.143558 0
M  V30 1103 O 105.913 -5.46491 -0.0310766 0
M  V30 1104 H 103.007 -0.82602 -0.0402478 0
M  V30 1105 H 105.553 -1.55951 0.669139 0
M  V30 1106 H 104.325 -3.71397 1.23206 0
M  V30 1107 H 103.948 -3.9485 -0.466842 0
M  V30 1108 N 104.945 -0.338344 -1.53925 0
M  V30 1109 C 106.173 0.261298 -2.05243 0
M  V30 1110 C 106.588 1.44625 -1.21363 0
M  V30 1111 O 105.945 1.80811 -0.247736 0
M  V30 1112 C 105.996 0.681412 -3.5502 0
M  V30 1113 O 105.717 -0.456414 -4.35716 0
M  V30 1114 C 107.218 1.34232 -4.22489 0
M  V30 1115 H 104.438 0.0513685 -0.669031 0
M  V30 1116 H 106.982 -0.488822 -1.98572 0
M  V30 1117 H 105.137 1.38148 -3.61931 0
M  V30 1118 H 105.551 -0.122564 -5.24357 0
M  V30 1119 H 107.025 1.58708 -5.28693 0
M  V30 1120 H 107.502 2.29426 -3.74514 0
M  V30 1121 H 108.108 0.684424 -4.19757 0
M  V30 1122 N 106.423 1.57458 -0.0668435 0
M  V30 1123 C 107.7 1.8469 0.644132 0
M  V30 1124 C 108.08 0.958343 1.88093 0
M  V30 1125 O 107.428 0.0233579 2.28488 0
M  V30 1126 C 107.638 3.34767 0.986509 0
M  V30 1127 C 108.986 4.02159 1.36212 0
M  V30 1128 O 110.01 3.39484 1.07839 0
M  V30 1129 O 108.869 5.12694 1.89227 0
M  V30 1130 H 105.963 0.762816 0.319437 0
M  V30 1131 H 108.509 1.6942 -0.0973986 0
M  V30 1132 H 107.281 3.91151 0.107883 0
M  V30 1133 H 106.904 3.55281 1.78497 0
M  V30 1134 N 107.901 -0.206675 1.56239 0
M  V30 1135 C 108.864 -1.23976 1.92776 0
M  V30 1136 C 109.864 -1.39041 0.807729 0
M  V30 1137 O 111.054 -1.37051 1.0753 0
M  V30 1138 C 108.186 -2.61112 2.19165 0
M  V30 1139 H 109.379 -0.927764 2.85189 0
M  V30 1140 H 106.932 -0.447718 1.4975 0
M  V30 1141 H 107.667 -2.97386 1.29352 0
M  V30 1142 H 107.452 -2.51552 3.00772 0
M  V30 1143 H 108.942 -3.35633 2.48476 0
M  V30 1144 N 109.379 -1.50304 -0.473955 0
M  V30 1145 C 110.656 -1.51667 -1.23518 0
M  V30 1146 C 111.036 -0.259701 -2.09496 0
M  V30 1147 O 110.384 0.756986 -2.15597 0
M  V30 1148 C 110.594 -2.81082 -2.06868 0
M  V30 1149 C 111.942 -3.31631 -2.65153 0
M  V30 1150 O 112.966 -2.82384 -2.17113 0
M  V30 1151 O 111.825 -4.17471 -3.52675 0
M  V30 1152 H 108.919 -0.60822 -0.560355 0
M  V30 1153 H 111.465 -1.62592 -0.486011 0
M  V30 1154 H 110.237 -3.64041 -1.4349 0
M  V30 1155 H 109.86 -2.73146 -2.88924 0
M  V30 1156 N 110.857 0.726932 -1.39834 0
M  V30 1157 C 111.79 1.8501 -1.33592 0
M  V30 1158 C 112.768 1.61262 -0.208191 0
M  V30 1159 O 113.952 1.84422 -0.389981 0
M  V30 1160 C 111.079 3.21143 -1.07633 0
M  V30 1161 C 110.125 3.63737 -2.22705 0
M  V30 1162 S 110.958 3.72167 -3.85035 0
M  V30 1163 C 112.114 5.11077 -3.61318 0
M  V30 1164 H 112.347 1.90022 -2.28646 0
M  V30 1165 H 109.88 0.892595 -1.25985 0
M  V30 1166 H 111.838 3.99747 -0.933415 0
M  V30 1167 H 110.499 3.13776 -0.142526 0
M  V30 1168 H 109.692 4.62551 -2.00155 0
M  V30 1169 H 109.294 2.9236 -2.33242 0
M  V30 1170 H 111.586 5.97656 -3.19083 0
M  V30 1171 H 112.529 5.38658 -4.59623 0
M  V30 1172 H 112.937 4.81135 -2.95245 0
M  V30 1173 N 112.336 1.25143 0.95797 0
M  V30 1174 C 113.582 1.09855 1.70469 0
M  V30 1175 C 113.915 -0.360187 1.90831 0
M  V30 1176 O 113.19 -1.26568 1.47685 0
M  V30 1177 C 113.473 1.8497 3.08963 0
M  V30 1178 C 113.326 3.38652 2.96032 0
M  V30 1179 C 114.645 1.63016 4.08795 0
M  V30 1180 H 111.764 0.400465 0.618706 0
M  V30 1181 H 114.406 1.53933 1.11376 0
M  V30 1182 H 112.556 1.47505 3.59409 0
M  V30 1183 H 114.228 3.85772 2.52938 0
M  V30 1184 H 112.471 3.66534 2.32025 0
M  V30 1185 H 113.142 3.8642 3.94187 0
M  V30 1186 H 115.618 1.95625 3.67247 0
M  V30 1187 H 114.494 2.18015 5.03747 0
M  V30 1188 H 114.755 0.570692 4.38401 0
M  V30 1189 N 113.814 -1.1601 1.06675 0
M  V30 1190 C 115.06 -1.86909 0.786945 0
M  V30 1191 C 115.393 -1.81717 -0.685018 0
M  V30 1192 O 114.668 -1.23551 -1.50218 0
M  V30 1193 C 114.951 -3.36313 1.28707 0
M  V30 1194 C 114.804 -3.50175 2.82308 0
M  V30 1195 C 116.123 -4.3084 0.898071 0
M  V30 1196 H 113.242 -0.678677 0.287343 0
M  V30 1197 H 115.884 -1.36336 1.32334 0
M  V30 1198 H 114.034 -3.79513 0.830768 0
M  V30 1199 H 115.706 -3.15886 3.36175 0
M  V30 1200 H 113.949 -2.91959 3.20847 0
M  V30 1201 H 114.62 -4.55116 3.12368 0
M  V30 1202 H 117.096 -3.95561 1.29114 0
M  V30 1203 H 115.972 -5.33876 1.27543 0
M  V30 1204 H 116.233 -4.41662 -0.196651 0
M  V30 1205 N 115.292 -0.849877 -1.32721 0
M  V30 1206 C 116.517 -0.463856 -2.02146 0
M  V30 1207 C 116.942 0.930449 -1.63476 0
M  V30 1208 O 116.3 1.61033 -0.832952 0
M  V30 1209 C 116.348 -0.604955 -3.55489 0
M  V30 1210 O 115.452 0.36425 -4.10788 0
M  V30 1211 H 114.793 -0.187046 -0.637111 0
M  V30 1212 H 117.323 -1.14775 -1.69375 0
M  V30 1213 H 117.333 -0.490696 -4.05038 0
M  V30 1214 H 116.008 -1.62174 -3.82978 0
M  V30 1215 H 114.585 0.206628 -3.72327 0
M  V30 1216 N 116.77 1.45427 -0.607355 0
M  V30 1217 C 118.016 2.0254 -0.102607 0
M  V30 1218 C 118.349 1.47478 1.26348 0
M  V30 1219 O 117.624 0.64939 1.83339 0
M  V30 1220 C 117.907 3.60044 -0.0634347 0
M  V30 1221 C 117.76 4.2544 -1.46017 0
M  V30 1222 C 119.079 4.35646 0.624514 0
M  V30 1223 H 116.198 0.73598 -0.0387607 0
M  V30 1224 H 118.84 1.73284 -0.779282 0
M  V30 1225 H 116.99 3.85101 0.512808 0
M  V30 1226 H 118.662 4.11569 -2.08347 0
M  V30 1227 H 116.905 3.83849 -2.02094 0
M  V30 1228 H 117.576 5.34342 -1.385 0
M  V30 1229 H 120.052 4.15882 0.134723 0
M  V30 1230 H 118.928 5.45376 0.621028 0
M  V30 1231 H 119.189 4.08501 1.69055 0
M  V30 1232 N 118.248 0.346503 1.53744 0
M  V30 1233 C 119.496 -0.248612 2.00565 0
M  V30 1234 C 119.817 -1.5083 1.23593 0
M  V30 1235 O 119.087 -1.92858 0.343912 0
M  V30 1236 H 117.667 -0.0948564 0.740953 0
M  V30 1237 H 120.329 0.468341 1.89189 0
M  V30 1238 H 119.425 -0.488994 3.08245 0
M  V30 1239 N 119.726 -1.57421 0.075193 0
M  V30 1240 C 120.954 -1.97946 -0.602076 0
M  V30 1241 C 121.369 -0.953674 -1.62943 0
M  V30 1242 O 120.726 0.0592551 -1.82404 0
M  V30 1243 C 120.777 -3.38546 -1.26762 0
M  V30 1244 O 120.498 -4.37195 -0.281376 0
M  V30 1245 C 121.999 -3.93966 -2.03239 0
M  V30 1246 H 119.219 -0.650918 -0.162931 0
M  V30 1247 H 121.763 -2.03959 0.148601 0
M  V30 1248 H 119.918 -3.33609 -1.96936 0
M  V30 1249 H 120.332 -5.18975 -0.759267 0
M  V30 1250 H 121.806 -4.94555 -2.45193 0
M  V30 1251 H 122.283 -3.30693 -2.8903 0
M  V30 1252 H 122.889 -4.02315 -1.37924 0
M  V30 1253 N 121.204 0.198386 -1.56346 0
M  V30 1254 C 122.167 1.22952 -1.93431 0
M  V30 1255 C 123.167 1.38611 -0.815092 0
M  V30 1256 O 124.357 1.36479 -1.08255 0
M  V30 1257 C 121.489 2.59946 -2.20546 0
M  V30 1258 H 122.682 0.912626 -2.85677 0
M  V30 1259 H 120.235 0.43977 -1.49986 0
M  V30 1260 H 120.97 2.96696 -1.30927 0
M  V30 1261 H 120.755 2.49953 -3.02102 0
M  V30 1262 H 122.245 3.3431 -2.50253 0
M  V30 1263 N 122.682 1.50554 0.465978 0
M  V30 1264 C 123.907 1.65838 1.24549 0
M  V30 1265 C 124.332 0.343486 1.84937 0
M  V30 1266 O 123.69 -0.69324 1.67523 0
M  V30 1267 C 123.738 2.75533 2.32624 0
M  V30 1268 O 122.842 2.37142 3.37398 0
M  V30 1269 H 122.183 0.553893 0.366194 0
M  V30 1270 H 124.713 1.96959 0.553927 0
M  V30 1271 H 124.723 2.98763 2.77857 0
M  V30 1272 H 123.398 3.70962 1.88043 0
M  V30 1273 H 121.975 2.24377 2.97841 0
M  V30 1274 N 124.16 -0.719506 1.40217 0
M  V30 1275 C 125.107 -1.83359 1.40172 0
M  V30 1276 C 126.077 -1.64065 0.259206 0
M  V30 1277 O 127.262 -1.85254 0.456677 0
M  V30 1278 C 124.402 -3.2103 1.26624 0
M  V30 1279 C 123.515 -3.51923 2.50548 0
M  V30 1280 C 122.65 -4.79079 2.29471 0
M  V30 1281 C 121.689 -5.02863 3.48992 0
M  V30 1282 N 120.826 -6.2123 3.27135 0
M  V30 1283 H 125.666 -1.82733 2.35399 0
M  V30 1284 H 123.203 -0.892688 1.16917 0
M  V30 1285 H 125.161 -4.00524 1.16776 0
M  V30 1286 H 123.791 -3.20895 0.350176 0
M  V30 1287 H 122.843 -2.67014 2.70939 0
M  V30 1288 H 124.155 -3.6541 3.39525 0
M  V30 1289 H 123.309 -5.66582 2.16955 0
M  V30 1290 H 122.048 -4.67794 1.37913 0
M  V30 1291 H 121.053 -4.13816 3.6199 0
M  V30 1292 H 122.278 -5.16023 4.41472 0
M  V30 1293 H 120.224 -6.11204 2.38256 0
M  V30 1294 H 120.141 -6.35375 4.09675 0
M  V30 1295 H 121.409 -7.11532 3.18344 0
M  V30 1296 N 125.638 -1.25649 -0.95132 0
M  V30 1297 C 126.548 -1.08073 -2.08224 0
M  V30 1298 C 127.564 -0.0169666 -1.73992 0
M  V30 1299 O 128.74 -0.218593 -2.0021 0
M  V30 1300 C 125.805 -0.704922 -3.39458 0
M  V30 1301 C 124.866 -1.84699 -3.87537 0
M  V30 1302 C 124.099 -1.48902 -5.12508 0
M  V30 1303 O 124.322 -0.386156 -5.69091 0
M  V30 1304 O 123.256 -2.32033 -5.55378 0
M  V30 1305 H 127.082 -2.02924 -2.25954 0
M  V30 1306 H 124.667 -1.04618 -1.06656 0
M  V30 1307 H 126.549 -0.507609 -4.18332 0
M  V30 1308 H 125.224 0.214291 -3.2299 0
M  V30 1309 H 124.131 -2.09919 -3.09653 0
M  V30 1310 H 125.464 -2.74557 -4.08509 0
M  V30 1311 N 127.117 1.15442 -1.07289 0
M  V30 1312 C 128.047 2.22312 -0.714107 0
M  V30 1313 C 129.028 1.67467 0.298155 0
M  V30 1314 O 130.213 1.93445 0.171048 0
M  V30 1315 C 127.343 3.47124 -0.110448 0
M  V30 1316 C 126.297 4.14926 -1.04979 0
M  V30 1317 C 125.623 5.33807 -0.308924 0
M  V30 1318 C 126.923 4.64762 -2.38314 0
M  V30 1319 H 128.617 2.5258 -1.6076 0
M  V30 1320 H 126.163 1.21404 -0.77441 0
M  V30 1321 H 128.116 4.21124 0.152482 0
M  V30 1322 H 126.84 3.16187 0.81812 0
M  V30 1323 H 125.499 3.42866 -1.29764 0
M  V30 1324 H 125.147 4.99126 0.623084 0
M  V30 1325 H 124.847 5.80113 -0.935036 0
M  V30 1326 H 126.371 6.10576 -0.0537771 0
M  V30 1327 H 127.785 5.30292 -2.1786 0
M  V30 1328 H 126.182 5.21728 -2.96514 0
M  V30 1329 H 127.252 3.80434 -3.00663 0
M  V30 1330 N 128.595 0.856903 1.32268 0
M  V30 1331 C 129.542 0.301172 2.28827 0
M  V30 1332 C 130.512 -0.593104 1.5515 0
M  V30 1333 O 131.697 -0.527537 1.83362 0
M  V30 1334 C 128.837 -0.502523 3.41422 0
M  V30 1335 C 127.95 0.417797 4.29975 0
M  V30 1336 C 127.085 -0.398749 5.29701 0
M  V30 1337 C 126.124 0.518827 6.09897 0
M  V30 1338 N 125.261 -0.260674 7.01616 0
M  V30 1339 H 130.101 1.12983 2.75751 0
M  V30 1340 H 127.638 0.568582 1.35667 0
M  V30 1341 H 129.596 -0.984141 4.05426 0
M  V30 1342 H 128.226 -1.29599 2.95642 0
M  V30 1343 H 127.278 1.01781 3.66531 0
M  V30 1344 H 128.59 1.12191 4.86019 0
M  V30 1345 H 127.744 -0.943435 5.9932 0
M  V30 1346 H 126.483 -1.13622 4.7428 0
M  V30 1347 H 125.488 1.07538 5.39181 0
M  V30 1348 H 126.713 1.25495 6.67404 0
M  V30 1349 H 124.659 -0.981198 6.4862 0
M  V30 1350 H 124.576 0.384364 7.55022 0
M  V30 1351 H 125.844 -0.787014 7.75517 0
M  V30 1352 N 130.073 -1.45103 0.615059 0
M  V30 1353 C 131.35 -1.95549 0.0448276 0
M  V30 1354 C 131.73 -1.55737 -1.4251 0
M  V30 1355 O 131.078 -0.823556 -2.13143 0
M  V30 1356 C 131.288 -3.48098 0.250785 0
M  V30 1357 C 132.636 -4.24384 0.135509 0
M  V30 1358 O 133.66 -3.55738 0.181299 0
M  V30 1359 O 132.519 -5.46493 0.0268878 0
M  V30 1360 H 129.613 -0.8264 -0.0314845 0
M  V30 1361 H 132.159 -1.55232 0.685642 0
M  V30 1362 H 130.931 -3.7007 1.27139 0
M  V30 1363 H 130.554 -3.95323 -0.424937 0
M  V30 1364 N 131.551 -0.354651 -1.53558 0
M  V30 1365 C 132.798 0.238443 -2.01091 0
M  V30 1366 C 133.126 1.49663 -1.24222 0
M  V30 1367 O 132.381 1.93049 -0.321003 0
M  V30 1368 C 132.68 0.587121 -3.52545 0
M  V30 1369 C 132.346 -0.575472 -4.47213 0
M  V30 1370 C 131.008 -0.894497 -4.72813 0
M  V30 1371 C 133.36 -1.35489 -5.03281 0
M  V30 1372 C 130.688 -1.99511 -5.51736 0
M  V30 1373 C 133.04 -2.44583 -5.83405 0
M  V30 1374 C 131.704 -2.77033 -6.07296 0
M  V30 1375 H 130.974 0.0872526 -0.735845 0
M  V30 1376 H 133.621 -0.484859 -1.8526 0
M  V30 1377 H 131.926 1.39129 -3.66265 0
M  V30 1378 H 133.623 1.05809 -3.86789 0
M  V30 1379 H 130.213 -0.316774 -4.27428 0
M  V30 1380 H 134.397 -1.12167 -4.83459 0
M  V30 1381 H 129.653 -2.25063 -5.68469 0
M  V30 1382 H 133.827 -3.05401 -6.25862 0
M  V30 1383 H 131.454 -3.6244 -6.68237 0
M  V30 1384 N 133.029 1.57378 -0.0835403 0
M  V30 1385 C 133.976 2.13384 0.879539 0
M  V30 1386 C 134.946 1.04936 1.28754 0
M  V30 1387 O 136.131 1.32662 1.37133 0
M  V30 1388 C 133.271 2.70932 2.13752 0
M  V30 1389 C 132.384 3.93575 1.7811 0
M  V30 1390 C 131.519 4.39326 2.98607 0
M  V30 1391 C 130.558 5.54587 2.59037 0
M  V30 1392 N 129.695 5.95243 3.72331 0
M  V30 1393 H 134.535 2.9537 0.395076 0
M  V30 1394 H 132.072 1.45953 0.183349 0
M  V30 1395 H 134.03 3.02411 2.87408 0
M  V30 1396 H 132.66 1.91693 2.59718 0
M  V30 1397 H 131.712 3.68483 0.94469 0
M  V30 1398 H 133.024 4.77258 1.45005 0
M  V30 1399 H 132.178 4.72528 3.80529 0
M  V30 1400 H 130.917 3.5452 3.34913 0
M  V30 1401 H 129.922 5.21024 1.75539 0
M  V30 1402 H 131.147 6.41133 2.23887 0
M  V30 1403 H 129.093 5.13385 4.08378 0
M  V30 1404 H 129.01 6.73694 3.43034 0
M  V30 1405 H 130.278 6.33072 4.54797 0
M  V30 1406 N 134.507 -0.190092 1.56449 0
M  V30 1407 C 135.753 -0.911052 1.81184 0
M  V30 1408 C 136.086 -1.82699 0.658396 0
M  V30 1409 O 135.361 -1.91491 -0.340775 0
M  V30 1410 C 135.644 -1.72297 3.16205 0
M  V30 1411 C 135.497 -0.831419 4.42049 0
M  V30 1412 C 136.816 -2.69454 3.47969 0
M  V30 1413 H 133.935 -0.32977 0.659106 0
M  V30 1414 H 136.577 -0.178169 1.89163 0
M  V30 1415 H 134.727 -2.34778 3.09534 0
M  V30 1416 H 136.399 -0.220929 4.60771 0
M  V30 1417 H 134.642 -0.138406 4.33579 0
M  V30 1418 H 135.313 -1.43461 5.33032 0
M  V30 1419 H 137.789 -2.17104 3.54972 0
M  V30 1420 H 136.665 -3.23342 4.43555 0
M  V30 1421 H 136.926 -3.48744 2.71717 0
M  V30 1422 N 135.985 -1.50799 -0.457987 0
M  V30 1423 C 137.401 -1.38515 -0.792819 0
M  V30 1424 C 137.601 -0.451409 -1.96379 0
M  V30 1425 O 136.657 0.10112 -2.52297 0
M  V30 1426 C 137.97 -2.80149 -1.09258 0
M  V30 1427 C 139.518 -2.89156 -1.19825 0
M  V30 1428 C 139.993 -4.31651 -1.53106 0
M  V30 1429 N 141.484 -4.34662 -1.60072 0
M  V30 1430 C 142.219 -5.41928 -1.87354 0
M  V30 1431 N 141.715 -6.59384 -2.12568 0
M  V30 1432 N 143.508 -5.29385 -1.88965 0
M  V30 1433 H 135.659 -2.10073 0.313511 0
M  V30 1434 H 137.922 -0.944803 0.0777862 0
M  V30 1435 H 137.628 -3.50374 -0.305084 0
M  V30 1436 H 137.502 -3.18204 -2.02549 0
M  V30 1437 H 139.889 -2.19141 -1.97639 0
M  V30 1438 H 139.97 -2.54626 -0.244821 0
M  V30 1439 H 139.614 -5.02208 -0.758266 0
M  V30 1440 H 139.544 -4.63678 -2.49621 0
M  V30 1441 H 142.035 -3.49973 -1.42573 0
M  V30 1442 H 142.348 -7.36934 -2.32696 0
M  V30 1443 H 140.693 -6.62535 -2.09933 0
M  V30 1444 H 143.884 -4.36616 -1.68772 0
M  V30 1445 H 144.057 -6.13066 -2.09891 0
M  V30 1446 N 137.463 0.71206 -1.40597 0
M  V30 1447 C 138.709 1.47416 -1.39271 0
M  V30 1448 C 139.042 1.942 0.00388791 0
M  V30 1449 O 138.317 1.68403 0.973179 0
M  V30 1450 C 138.6 2.69774 -2.38525 0
M  V30 1451 C 138.453 2.28861 -3.87224 0
M  V30 1452 C 139.772 3.71939 -2.35264 0
M  V30 1453 H 136.891 0.534713 -0.5072 0
M  V30 1454 H 139.533 0.812375 -1.71757 0
M  V30 1455 H 137.683 3.26238 -2.10953 0
M  V30 1456 H 139.355 1.77852 -4.25636 0
M  V30 1457 H 137.598 1.60824 -4.02887 0
M  V30 1458 H 138.269 3.16584 -4.52193 0
M  V30 1459 H 140.745 3.25113 -2.59694 0
M  V30 1460 H 139.621 4.55186 -3.06753 0
M  V30 1461 H 139.882 4.20484 -1.36549 0
M  V30 1462 N 138.941 1.26152 0.944643 0
M  V30 1463 C 140.166 1.14363 1.7302 0
M  V30 1464 C 140.591 -0.29772 1.85729 0
M  V30 1465 O 139.949 -1.2157 1.34501 0
M  V30 1466 C 139.997 1.81378 3.11664 0
M  V30 1467 O 139.101 1.10022 3.97453 0
M  V30 1468 H 138.442 0.398694 0.53098 0
M  V30 1469 H 140.972 1.66906 1.18337 0
M  V30 1470 H 140.982 1.88064 3.62072 0
M  V30 1471 H 139.657 2.86237 3.0173 0
M  V30 1472 H 138.234 1.11287 3.55907 0
M  V30 1473 N 140.419 -1.14872 1.07899 0
M  V30 1474 C 141.649 -1.89386 0.825631 0
M  V30 1475 C 142.057 -1.78565 -0.625406 0
M  V30 1476 O 141.4 -1.13918 -1.44113 0
M  V30 1477 C 141.462 -3.40206 1.16191 0
M  V30 1478 C 141.126 -3.74812 2.61467 0
M  V30 1479 C 142.123 -3.75367 3.59716 0
M  V30 1480 C 139.808 -4.0495 2.97189 0
M  V30 1481 C 141.802 -4.05574 4.9172 0
M  V30 1482 C 139.489 -4.34821 4.29388 0
M  V30 1483 C 140.487 -4.35116 5.26463 0
M  V30 1484 O 140.175 -4.64267 6.56286 0
M  V30 1485 H 139.907 -0.606894 0.297751 0
M  V30 1486 H 142.461 -1.46438 1.44031 0
M  V30 1487 H 140.691 -3.8358 0.490214 0
M  V30 1488 H 142.38 -3.96018 0.890193 0
M  V30 1489 H 143.146 -3.52176 3.33462 0
M  V30 1490 H 139.025 -4.03876 2.22273 0
M  V30 1491 H 142.569 -4.05719 5.67484 0
M  V30 1492 H 138.466 -4.5748 4.55392 0
M  V30 1493 H 139.234 -4.82007 6.61522 0
M  V30 1494 N 141.898 -0.863906 -1.31812 0
M  V30 1495 C 143.145 -0.471836 -1.96926 0
M  V30 1496 C 143.473 0.974578 -1.68322 0
M  V30 1497 O 142.728 1.7003 -0.968933 0
M  V30 1498 C 143.027 -0.668547 -3.51091 0
M  V30 1499 C 142.693 -2.08683 -3.99703 0
M  V30 1500 C 141.355 -2.47471 -4.12688 0
M  V30 1501 C 143.707 -3.01207 -4.25351 0
M  V30 1502 C 141.035 -3.78037 -4.4867 0
M  V30 1503 C 143.387 -4.31282 -4.62794 0
M  V30 1504 C 142.051 -4.69992 -4.73987 0
M  V30 1505 H 141.321 -0.172657 -0.720604 0
M  V30 1506 H 143.968 -1.09573 -1.57054 0
M  V30 1507 H 142.273 0.0385252 -3.91781 0
M  V30 1508 H 143.97 -0.345102 -3.99512 0
M  V30 1509 H 140.56 -1.77566 -3.90087 0
M  V30 1510 H 144.744 -2.72469 -4.14819 0
M  V30 1511 H 140 -4.078 -4.55532 0
M  V30 1512 H 144.174 -5.03031 -4.81594 0
M  V30 1513 H 141.801 -5.71207 -5.01624 0
M  V30 1514 N 143.376 1.44774 -0.622745 0
M  V30 1515 C 144.624 2.01721 -0.123655 0
M  V30 1516 C 144.945 1.49172 1.25589 0
M  V30 1517 O 144.215 0.691974 1.83272 0
M  V30 1518 H 142.795 0.745777 -0.0427225 0
M  V30 1519 H 145.457 1.77382 -0.807559 0
M  V30 1520 H 144.553 3.11984 -0.0849534 0
M  V30 1521 N 144.854 0.36279 1.53368 0
M  V30 1522 C 145.764 -0.492994 2.29362 0
M  V30 1523 C 146.78 -1.09507 1.35219 0
M  V30 1524 O 147.956 -1.10662 1.68273 0
M  V30 1525 C 145.021 -1.61855 3.066 0
M  V30 1526 C 144.082 -1.04429 4.16405 0
M  V30 1527 C 143.315 -2.11621 4.89951 0
M  V30 1528 O 143.538 -3.32684 4.63333 0
M  V30 1529 O 142.472 -1.74835 5.75948 0
M  V30 1530 H 146.298 0.125331 3.03441 0
M  V30 1531 H 143.883 0.127253 1.48857 0
M  V30 1532 H 145.765 -2.27302 3.54841 0
M  V30 1533 H 144.44 -2.22233 2.3536 0
M  V30 1534 H 143.347 -0.353819 3.72423 0
M  V30 1535 H 144.68 -0.485113 4.89804 0
M  V30 1536 N 146.332 -1.57332 0.0918853 0
M  V30 1537 C 147.264 -2.10869 -0.898168 0
M  V30 1538 C 148.277 -1.04521 -1.24817 0
M  V30 1539 O 149.466 -1.31977 -1.20184 0
M  V30 1540 C 146.566 -2.57083 -2.2082 0
M  V30 1541 C 145.739 -3.87229 -2.03402 0
M  V30 1542 C 144.798 -4.19324 -3.17889 0
M  V30 1543 O 143.824 -4.88598 -2.91994 0
M  V30 1544 N 145.026 -3.74471 -4.43567 0
M  V30 1545 H 147.791 -2.96439 -0.440943 0
M  V30 1546 H 145.352 -1.61631 -0.0933064 0
M  V30 1547 H 147.344 -2.75602 -2.96354 0
M  V30 1548 H 145.914 -1.76541 -2.57977 0
M  V30 1549 H 145.134 -3.7789 -1.12218 0
M  V30 1550 H 146.422 -4.72379 -1.89038 0
M  V30 1551 H 145.82 -3.18546 -4.67488 0
M  V30 1552 H 144.377 -3.98151 -5.16061 0
M  V30 1553 N 147.81 0.181792 -1.56548 0
M  V30 1554 C 148.72 1.24538 -1.98815 0
M  V30 1555 C 149.736 1.49045 -0.897861 0
M  V30 1556 O 150.912 1.61399 -1.20467 0
M  V30 1557 C 147.977 2.56683 -2.33055 0
M  V30 1558 C 147.038 2.40131 -3.55859 0
M  V30 1559 C 146.271 3.65975 -3.88456 0
M  V30 1560 O 146.494 4.70711 -3.22161 0
M  V30 1561 O 145.428 3.6071 -4.81842 0
M  V30 1562 H 149.254 0.916647 -2.89536 0
M  V30 1563 H 146.839 0.387842 -1.44278 0
M  V30 1564 H 148.721 3.34655 -2.56094 0
M  V30 1565 H 147.396 2.89157 -1.45498 0
M  V30 1566 H 146.303 1.60226 -3.38051 0
M  V30 1567 H 147.636 2.12585 -4.43924 0
M  V30 1568 N 149.288 1.51039 0.449983 0
M  V30 1569 C 150.565 1.53612 1.21089 0
M  V30 1570 C 150.945 0.292997 2.09057 0
M  V30 1571 O 150.293 -0.72259 2.16774 0
M  V30 1572 C 150.503 2.84337 2.0237 0
M  V30 1573 C 151.851 3.35807 2.59843 0
M  V30 1574 O 152.875 2.85802 2.12593 0
M  V30 1575 O 151.734 4.23029 3.45989 0
M  V30 1576 H 148.828 0.617057 0.550608 0
M  V30 1577 H 151.374 1.63344 0.460082 0
M  V30 1578 H 150.146 3.66278 1.37681 0
M  V30 1579 H 149.769 2.77708 2.84542 0
M  V30 1580 N 150.766 -0.704594 1.40972 0
M  V30 1581 C 151.698 -1.82974 1.38033 0
M  V30 1582 C 152.711 -1.60305 0.283931 0
M  V30 1583 O 153.9 -1.69975 0.545042 0
M  V30 1584 C 151 -3.19578 1.12795 0
M  V30 1585 C 150.173 -3.69352 2.34302 0
M  V30 1586 C 149.232 -4.84601 2.05058 0
M  V30 1587 O 148.258 -4.96682 2.7802 0
M  V30 1588 N 149.46 -5.71194 1.03528 0
M  V30 1589 H 152.225 -1.85991 2.35005 0
M  V30 1590 H 149.786 -0.886567 1.35468 0
M  V30 1591 H 151.778 -3.9429 0.911987 0
M  V30 1592 H 150.348 -3.11642 0.24452 0
M  V30 1593 H 149.568 -2.85649 2.71659 0
M  V30 1594 H 150.856 -3.99345 3.1528 0
M  V30 1595 H 150.254 -5.64054 0.431217 0
M  V30 1596 H 148.811 -6.45843 0.879205 0
M  V30 1597 N 152.244 -1.26651 -0.937939 0
M  V30 1598 C 153.207 -1.08546 -2.01867 0
M  V30 1599 C 154.207 -0.0327327 -1.60767 0
M  V30 1600 O 155.397 -0.276427 -1.71993 0
M  V30 1601 C 152.529 -0.651711 -3.34613 0
M  V30 1602 H 153.722 -2.04502 -2.1936 0
M  V30 1603 H 151.275 -1.09294 -1.11734 0
M  V30 1604 H 152.01 0.309696 -3.22818 0
M  V30 1605 H 151.795 -1.41189 -3.65798 0
M  V30 1606 H 153.285 -0.546973 -4.14002 0
M  V30 1607 N 153.722 1.14298 -1.08507 0
M  V30 1608 C 154.652 2.21542 -0.737646 0
M  V30 1609 C 155.633 1.67773 0.280377 0
M  V30 1610 O 156.818 1.93616 0.150521 0
M  V30 1611 C 153.948 3.46988 -0.147259 0
M  V30 1612 C 152.902 4.13789 -1.09374 0
M  V30 1613 C 152.228 5.33449 -0.365524 0
M  V30 1614 C 153.528 4.62208 -2.4323 0
M  V30 1615 H 155.222 2.5086 -1.6343 0
M  V30 1616 H 152.768 1.20576 -0.787243 0
M  V30 1617 H 154.721 4.21262 0.107808 0
M  V30 1618 H 153.445 3.17037 0.784538 0
M  V30 1619 H 152.104 3.4147 -1.33393 0
M  V30 1620 H 151.752 4.99759 0.57011 0
M  V30 1621 H 151.452 5.79088 -0.996512 0
M  V30 1622 H 152.976 6.10485 -0.118534 0
M  V30 1623 H 154.39 5.27952 -2.23472 0
M  V30 1624 H 152.787 5.18553 -3.02031 0
M  V30 1625 H 153.857 3.77224 -3.04681 0
M  V30 1626 N 155.201 0.870884 1.31352 0
M  V30 1627 C 156.449 0.48132 1.96285 0
M  V30 1628 C 156.77 -0.969813 1.69173 0
M  V30 1629 O 156.04 -1.67998 1.00764 0
M  V30 1630 H 154.62 0.175002 0.726212 0
M  V30 1631 H 157.282 1.11087 1.60143 0
M  V30 1632 H 156.378 0.639825 3.05471 0
M  V30 1633 N 156.679 -1.44442 0.630414 0
M  V30 1634 C 158.095 -1.56832 0.295973 0
M  V30 1635 C 158.295 -1.61806 -1.20088 0
M  V30 1636 O 157.351 -1.5607 -1.9849 0
M  V30 1637 C 158.664 -2.84031 0.987264 0
M  V30 1638 C 160.212 -2.97742 0.96534 0
M  V30 1639 C 160.687 -4.27743 1.63708 0
M  V30 1640 N 162.178 -4.34555 1.60364 0
M  V30 1641 C 162.913 -5.33862 2.09234 0
M  V30 1642 N 162.409 -6.39578 2.66292 0
M  V30 1643 N 164.202 -5.25366 1.99867 0
M  V30 1644 H 156.353 -1.39457 1.60205 0
M  V30 1645 H 158.616 -0.668237 0.672431 0
M  V30 1646 H 158.322 -2.86338 2.04215 0
M  V30 1647 H 158.196 -3.73534 0.524588 0
M  V30 1648 H 160.583 -2.94989 -0.0810639 0
M  V30 1649 H 160.664 -2.09589 1.4665 0
M  V30 1650 H 160.308 -4.31255 2.68293 0
M  V30 1651 H 160.238 -5.14752 1.11076 0
M  V30 1652 H 162.729 -3.58772 1.18705 0
M  V30 1653 H 163.042 -7.11637 3.01317 0
M  V30 1654 H 161.387 -6.40265 2.70343 0
M  V30 1655 H 164.578 -4.41688 1.55013 0
M  V30 1656 H 164.751 -6.02606 2.38265 0
M  V30 1657 N 158.157 -0.370918 -1.53173 0
M  V30 1658 C 159.382 0.220293 -2.06227 0
M  V30 1659 C 159.807 1.41243 -1.24225 0
M  V30 1660 O 159.165 1.79387 -0.262645 0
M  V30 1661 C 159.213 0.586663 -3.55796 0
M  V30 1662 O 158.317 1.68317 -3.76488 0
M  V30 1663 H 157.658 0.0308099 -0.663285 0
M  V30 1664 H 160.188 -0.533068 -1.97534 0
M  V30 1665 H 160.198 0.85617 -3.98916 0
M  V30 1666 H 158.873 -0.285013 -4.14922 0
M  V30 1667 H 157.45 1.40881 -3.45264 0
M  V30 1668 N 159.635 1.57281 -0.100228 0
M  V30 1669 C 160.881 1.94826 0.563101 0
M  V30 1670 C 161.214 0.982475 1.67514 0
M  V30 1671 O 160.489 0.0164069 1.94493 0
M  V30 1672 C 160.772 3.42453 1.11346 0
M  V30 1673 C 160.625 4.498 0.00612081 0
M  V30 1674 C 161.944 3.91506 2.01024 0
M  V30 1675 H 159.063 0.708428 0.203221 0
M  V30 1676 H 161.705 1.8922 -0.171979 0
M  V30 1677 H 159.855 3.47361 1.7399 0
M  V30 1678 H 161.527 4.57 -0.628357 0
M  V30 1679 H 159.77 4.28756 -0.659581 0
M  V30 1680 H 160.441 5.50306 0.432109 0
M  V30 1681 H 162.917 3.88784 1.48278 0
M  V30 1682 H 161.793 4.95358 2.36457 0
M  V30 1683 H 162.054 3.31099 2.92961 0
M  V30 1684 N 161.113 -0.173488 1.56642 0
M  V30 1685 C 162.043 -1.2171 1.99271 0
M  V30 1686 C 163.024 -1.46289 0.867959 0
M  V30 1687 O 164.209 -1.5766 1.13388 0
M  V30 1688 C 161.339 -2.55651 2.35074 0
M  V30 1689 C 160.293 -2.45645 3.50489 0
M  V30 1690 C 159.619 -3.84056 3.72028 0
M  V30 1691 C 160.919 -1.96302 4.84007 0
M  V30 1692 H 162.613 -0.86275 2.867 0
M  V30 1693 H 160.159 -0.413571 1.37933 0
M  V30 1694 H 162.112 -3.2886 2.63494 0
M  V30 1695 H 160.836 -2.92869 1.44552 0
M  V30 1696 H 159.495 -1.7489 3.22194 0
M  V30 1697 H 159.143 -4.18664 2.788 0
M  V30 1698 H 158.843 -3.7823 4.49684 0
M  V30 1699 H 160.367 -4.58854 4.02846 0
M  V30 1700 H 161.781 -2.59284 5.11317 0
M  V30 1701 H 160.178 -2.01429 5.65284 0
M  V30 1702 H 161.248 -0.917226 4.76146 0
M  V30 1703 N 162.591 -1.51276 -0.441967 0
M  V30 1704 C 163.821 -1.67273 -1.21257 0
M  V30 1705 C 164.229 -0.367624 -1.85594 0
M  V30 1706 O 163.572 0.663349 -1.71305 0
M  V30 1707 C 163.634 -2.72807 -2.34129 0
M  V30 1708 C 163.298 -4.1554 -1.90198 0
M  V30 1709 C 164.295 -5.00471 -1.40801 0
M  V30 1710 C 161.98 -4.61616 -1.9803 0
M  V30 1711 C 163.974 -6.29536 -0.998174 0
M  V30 1712 C 161.661 -5.90679 -1.56658 0
M  V30 1713 C 162.659 -6.74466 -1.07633 0
M  V30 1714 O 162.347 -8.01116 -0.668459 0
M  V30 1715 H 162.079 -0.564614 -0.371734 0
M  V30 1716 H 164.633 -1.9843 -0.530521 0
M  V30 1717 H 162.863 -2.36954 -3.05597 0
M  V30 1718 H 164.552 -2.77729 -2.96009 0
M  V30 1719 H 165.318 -4.66079 -1.34148 0
M  V30 1720 H 161.197 -3.96526 -2.35135 0
M  V30 1721 H 164.741 -6.94885 -0.61482 0
M  V30 1722 H 160.638 -6.24586 -1.62979 0
M  V30 1723 H 161.406 -8.14633 -0.794722 0
M  V30 1724 N 164.069 0.697108 -1.41344 0
M  V30 1725 C 164.999 1.82353 -1.45841 0
M  V30 1726 C 165.98 1.67115 -0.317247 0
M  V30 1727 O 167.165 1.86871 -0.528474 0
M  V30 1728 C 164.295 3.20476 -1.33838 0
M  V30 1729 C 163.249 3.50415 -2.4575 0
M  V30 1730 C 162.575 4.87878 -2.18813 0
M  V30 1731 C 163.875 3.49546 -3.88091 0
M  V30 1732 H 165.569 1.78846 -2.40113 0
M  V30 1733 H 163.115 0.859028 -1.15571 0
M  V30 1734 H 165.068 3.98988 -1.35596 0
M  V30 1735 H 163.792 3.24604 -0.360498 0
M  V30 1736 H 162.451 2.74253 -2.43271 0
M  V30 1737 H 162.099 4.8863 -1.19371 0
M  V30 1738 H 161.799 5.08875 -2.93803 0
M  V30 1739 H 163.323 5.68702 -2.22284 0
M  V30 1740 H 164.737 4.18066 -3.92293 0
M  V30 1741 H 163.134 3.82075 -4.62751 0
M  V30 1742 H 164.204 2.48552 -4.16353 0
M  V30 1743 N 165.547 1.27147 0.931209 0
M  V30 1744 C 166.775 1.16082 1.71267 0
M  V30 1745 C 167.19 -0.282772 1.8667 0
M  V30 1746 O 166.547 -1.19283 1.38122 0
M  V30 1747 C 166.598 1.8358 3.11417 0
M  V30 1748 O 166.319 3.22299 2.96741 0
M  V30 1749 C 167.82 1.78597 4.05732 0
M  V30 1750 H 165.04 0.403758 0.535929 0
M  V30 1751 H 167.584 1.67953 1.16671 0
M  V30 1752 H 165.739 1.35623 3.62885 0
M  V30 1753 H 166.153 3.55851 3.85319 0
M  V30 1754 H 167.627 2.30444 5.01597 0
M  V30 1755 H 168.104 0.754564 4.3267 0
M  V30 1756 H 168.71 2.26152 3.60188 0
M  V30 1757 N 167.025 -1.13721 1.09112 0
M  V30 1758 C 168.273 -1.84559 0.823562 0
M  V30 1759 C 168.594 -1.83754 -0.652658 0
M  V30 1760 O 167.864 -1.29102 -1.47342 0
M  V30 1761 H 166.444 -0.683376 0.301673 0
M  V30 1762 H 169.106 -1.37771 1.37859 0
M  V30 1763 H 168.202 -2.8917 1.17419 0
M  V30 1764 N 168.503 -0.877838 -1.30888 0
M  V30 1765 C 169.749 -0.493426 -1.96706 0
M  V30 1766 C 170.082 0.953504 -1.6918 0
M  V30 1767 O 169.357 1.67266 -0.992594 0
M  V30 1768 C 169.64 -0.760429 -3.51979 0
M  V30 1769 C 169.493 -2.25747 -3.89048 0
M  V30 1770 C 170.812 -0.232148 -4.39487 0
M  V30 1771 H 167.931 -0.180746 -0.714493 0
M  V30 1772 H 170.573 -1.10052 -1.54882 0
M  V30 1773 H 168.723 -0.243715 -3.87735 0
M  V30 1774 H 170.395 -2.84204 -3.63354 0
M  V30 1775 H 168.638 -2.72694 -3.37373 0
M  V30 1776 H 169.309 -2.39491 -4.97341 0
M  V30 1777 H 171.785 -0.674314 -4.106 0
M  V30 1778 H 170.661 -0.448355 -5.47066 0
M  V30 1779 H 170.922 0.866297 -4.33529 0
M  V30 1780 N 169.982 1.44106 -0.638065 0
M  V30 1781 C 171.259 1.95453 -0.0759321 0
M  V30 1782 C 171.639 1.57984 1.40015 0
M  V30 1783 O 170.987 0.857361 2.11806 0
M  V30 1784 C 171.197 3.47655 -0.306132 0
M  V30 1785 C 172.545 4.24114 -0.203008 0
M  V30 1786 O 173.569 3.55405 -0.237871 0
M  V30 1787 O 172.428 5.46381 -0.113827 0
M  V30 1788 H 169.522 0.826797 0.0183332 0
M  V30 1789 H 172.068 1.54122 -0.710251 0
M  V30 1790 H 170.84 3.68 -1.3301 0
M  V30 1791 H 170.463 3.95949 0.361991 0
M  V30 1792 N 171.46 0.379036 1.52974 0
M  V30 1793 C 172.709 -0.207612 2.00629 0
M  V30 1794 C 173.022 -1.48758 1.27006 0
M  V30 1795 O 174.228 -2.15365 1.65318 0
M  V30 1796 C 172.684 -0.42053 3.57435 0
M  V30 1797 C 172.292 0.845587 4.39948 0
M  V30 1798 C 174.036 -0.964102 4.13407 0
M  V30 1799 C 171.943 0.601513 5.88333 0
M  V30 1800 H 170.873 -0.0813591 0.749598 0
M  V30 1801 H 173.524 0.499853 1.76561 0
M  V30 1802 H 171.906 -1.18959 3.7771 0
M  V30 1803 H 173.08 1.61848 4.31442 0
M  V30 1804 H 171.395 1.31336 3.95145 0
M  V30 1805 H 173.992 -1.16225 5.21916 0
M  V30 1806 H 174.335 -1.93019 3.68849 0
M  V30 1807 H 174.868 -0.25487 3.96983 0
M  V30 1808 H 171.607 1.53831 6.37194 0
M  V30 1809 H 171.127 -0.132628 5.99653 0
M  V30 1810 H 172.806 0.232134 6.46583 0
M  V30 1811 N 172.938 -1.57226 0.108567 0
M  V30 1812 C 174.163 -1.99604 -0.563303 0
M  V30 1813 C 174.588 -0.987563 -1.6009 0
M  V30 1814 O 173.946 0.0421687 -1.81251 0
M  V30 1815 C 173.994 -3.40902 -1.17552 0
M  V30 1816 O 173.098 -3.42896 -2.2912 0
M  V30 1817 H 172.439 -0.648704 -0.1417 0
M  V30 1818 H 174.969 -2.03679 0.193961 0
M  V30 1819 H 174.979 -3.78886 -1.51357 0
M  V30 1820 H 173.654 -4.1382 -0.415445 0
M  V30 1821 H 172.231 -3.1672 -1.96832 0
M  V30 1822 N 174.416 0.165178 -1.56732 0
M  V30 1823 C 175.346 1.20651 -1.99914 0
M  V30 1824 C 176.327 1.45827 -0.875705 0
M  V30 1825 O 177.512 1.57057 -1.14223 0
M  V30 1826 C 174.642 2.54401 -2.36427 0
M  V30 1827 C 173.596 2.43782 -3.51787 0
M  V30 1828 C 172.922 3.82078 -3.7406 0
M  V30 1829 C 174.222 1.93732 -4.85041 0
M  V30 1830 H 175.916 0.847534 -2.87154 0
M  V30 1831 H 173.462 0.40625 -1.38151 0
M  V30 1832 H 175.415 3.27458 -2.65234 0
M  V30 1833 H 174.139 2.92098 -1.46103 0
M  V30 1834 H 172.798 1.73178 -3.23117 0
M  V30 1835 H 172.446 4.17179 -2.81017 0
M  V30 1836 H 172.146 3.7584 -4.51684 0
M  V30 1837 H 173.67 4.56712 -4.05274 0
M  V30 1838 H 175.084 2.56569 -5.12684 0
M  V30 1839 H 173.481 1.98428 -5.66345 0
M  V30 1840 H 174.551 0.891962 -4.76626 0
M  V30 1841 N 175.894 1.51508 0.433938 0
M  V30 1842 C 176.804 1.75917 1.5521 0
M  V30 1843 C 177.82 0.643545 1.61662 0
M  V30 1844 O 178.996 0.926183 1.7884 0
M  V30 1845 C 176.061 1.88213 2.91164 0
M  V30 1846 C 175.122 3.12074 2.94802 0
M  V30 1847 C 174.355 3.23774 4.24271 0
M  V30 1848 O 174.578 2.4133 5.16833 0
M  V30 1849 O 173.512 4.16774 4.34262 0
M  V30 1850 H 177.338 2.70777 1.37527 0
M  V30 1851 H 174.923 1.36051 0.617293 0
M  V30 1852 H 176.805 1.98267 3.71845 0
M  V30 1853 H 175.48 0.965413 3.08968 0
M  V30 1854 H 174.387 3.07497 2.13065 0
M  V30 1855 H 175.72 4.03446 2.81943 0
M  V30 1856 N 177.372 -0.689602 1.41712 0
M  V30 1857 C 178.618 -1.45181 1.41599 0
M  V30 1858 C 178.951 -1.94181 0.0270081 0
M  V30 1859 O 178.226 -1.6993 -0.946265 0
M  V30 1860 C 178.509 -2.65945 2.42787 0
M  V30 1861 C 178.362 -2.22672 3.90816 0
M  V30 1862 C 179.681 -3.68149 2.41151 0
M  V30 1863 H 176.8 -0.526576 0.515642 0
M  V30 1864 H 179.442 -0.784947 1.73028 0
M  V30 1865 H 177.592 -3.2284 2.16116 0
M  V30 1866 H 179.264 -1.71058 4.28412 0
M  V30 1867 H 177.507 -1.54394 4.05395 0
M  V30 1868 H 178.178 -3.0935 4.57172 0
M  V30 1869 H 180.654 -3.2094 2.64834 0
M  V30 1870 H 179.53 -4.50248 3.13955 0
M  V30 1871 H 179.791 -4.18259 1.43221 0
M  V30 1872 N 178.85 -1.27639 -0.924453 0
M  V30 1873 C 180.127 -1.04887 -1.651 0
M  V30 1874 C 180.507 0.415327 -2.06974 0
M  V30 1875 O 179.855 1.39923 -1.80648 0
M  V30 1876 C 180.065 -2.01348 -2.85061 0
M  V30 1877 C 181.413 -2.30899 -3.56329 0
M  V30 1878 O 182.437 -1.99348 -2.95193 0
M  V30 1879 O 181.296 -2.84699 -4.66485 0
M  V30 1880 H 178.39 -0.400083 -0.723784 0
M  V30 1881 H 180.936 -1.38916 -0.974703 0
M  V30 1882 H 179.708 -3.0008 -2.51133 0
M  V30 1883 H 179.331 -1.679 -3.6041 0
M  V30 1884 N 180.328 1.1314 -1.09713 0
M  V30 1885 C 181.556 1.88321 -0.856898 0
M  V30 1886 C 181.971 1.79276 0.592073 0
M  V30 1887 O 181.328 1.16142 1.40774 0
M  V30 1888 C 181.379 3.37812 -1.28706 0
M  V30 1889 O 181.1 3.46627 -2.67921 0
M  V30 1890 C 182.601 4.29952 -1.07964 0
M  V30 1891 H 179.821 0.596094 -0.308079 0
M  V30 1892 H 182.365 1.43205 -1.45988 0
M  V30 1893 H 180.52 3.805 -0.727912 0
M  V30 1894 H 180.934 4.39579 -2.8613 0
M  V30 1895 H 182.408 5.33159 -1.42986 0
M  V30 1896 H 182.885 4.39196 -0.0176577 0
M  V30 1897 H 183.491 3.93036 -1.62489 0
M  V30 1898 N 181.806 0.884767 1.30421 0
M  V30 1899 C 183.054 0.502112 1.95763 0
M  V30 1900 C 183.375 -0.951815 1.70192 0
M  V30 1901 O 182.645 -1.6692 1.0254 0
M  V30 1902 H 181.225 0.182694 0.724315 0
M  V30 1903 H 183.887 1.1278 1.58955 0
M  V30 1904 H 182.983 0.672188 3.04775 0
M  V30 1905 N 183.284 -1.43765 0.645699 0
M  V30 1906 C 184.7 -1.56509 0.312591 0
M  V30 1907 C 184.9 -1.6307 -1.18365 0
M  V30 1908 O 183.956 -1.58167 -1.96824 0
M  V30 1909 C 185.269 -2.82968 1.01733 0
M  V30 1910 C 186.817 -2.96701 0.996865 0
M  V30 1911 C 187.292 -4.25982 1.68236 0
M  V30 1912 N 188.783 -4.32829 1.64964 0
M  V30 1913 C 189.518 -5.31613 2.14885 0
M  V30 1914 N 189.014 -6.36718 2.73061 0
M  V30 1915 N 190.807 -5.23217 2.05428 0
M  V30 1916 H 182.958 -1.3775 1.61675 0
M  V30 1917 H 185.221 -0.661067 0.679481 0
M  V30 1918 H 184.927 -2.84156 2.0724 0
M  V30 1919 H 184.801 -3.72957 0.564177 0
M  V30 1920 H 187.188 -2.95058 -0.0497719 0
M  V30 1921 H 187.269 -2.08022 1.48865 0
M  V30 1922 H 186.913 -4.28386 2.72852 0
M  V30 1923 H 186.843 -5.13545 1.16529 0
M  V30 1924 H 189.334 -3.57493 1.22503 0
M  V30 1925 H 189.647 -7.08401 3.08848 0
M  V30 1926 H 187.992 -6.37362 2.77118 0
M  V30 1927 H 191.183 -4.40019 1.59689 0
M  V30 1928 H 191.356 -6.00045 2.44643 0
M  V30 1929 N 184.763 -0.387143 -1.52771 0
M  V30 1930 C 185.991 0.195869 -2.05971 0
M  V30 1931 C 186.406 1.40691 -1.25903 0
M  V30 1932 O 185.763 1.79931 -0.305134 0
M  V30 1933 C 185.814 0.56812 -3.57008 0
M  V30 1934 O 185.535 -0.594803 -4.34043 0
M  V30 1935 C 187.036 1.20723 -4.26545 0
M  V30 1936 H 184.256 0.0300578 -0.670326 0
M  V30 1937 H 186.8 -0.551749 -1.96916 0
M  V30 1938 H 184.955 1.26564 -3.66143 0
M  V30 1939 H 185.369 -0.289322 -5.23701 0
M  V30 1940 H 186.843 1.41807 -5.33474 0
M  V30 1941 H 187.32 2.17395 -3.81623 0
M  V30 1942 H 187.926 0.550535 -4.21722 0
M  V30 1943 N 186.241 1.57166 -0.116904 0
M  V30 1944 C 187.489 1.94737 0.540533 0
M  V30 1945 C 187.81 1.00096 1.67349 0
M  V30 1946 O 187.08 0.0568854 1.95817 0
M  V30 1947 H 185.66 0.718981 0.202669 0
M  V30 1948 H 188.322 1.94017 -0.185353 0
M  V30 1949 H 187.418 2.97719 0.936483 0
M  V30 1950 N 187.719 -0.156864 1.56817 0
M  V30 1951 C 188.666 -1.19394 1.97519 0
M  V30 1952 C 189.636 -1.4322 0.841265 0
M  V30 1953 O 190.821 -1.55719 1.10255 0
M  V30 1954 C 187.961 -2.52483 2.35258 0
M  V30 1955 C 187.074 -2.35914 3.61896 0
M  V30 1956 C 186.209 -3.61969 3.88782 0
M  V30 1957 C 185.248 -3.40395 5.08722 0
M  V30 1958 N 184.385 -4.58556 5.31668 0
M  V30 1959 H 189.225 -0.839845 2.85921 0
M  V30 1960 H 186.762 -0.403264 1.41464 0
M  V30 1961 H 188.72 -3.30071 2.55165 0
M  V30 1962 H 187.35 -2.85859 1.49949 0
M  V30 1963 H 186.402 -1.49429 3.49821 0
M  V30 1964 H 187.714 -2.15926 4.49641 0
M  V30 1965 H 186.868 -4.47989 4.09135 0
M  V30 1966 H 185.607 -3.84951 2.9944 0
M  V30 1967 H 184.612 -2.52763 4.88253 0
M  V30 1968 H 185.837 -3.18822 5.99608 0
M  V30 1969 H 183.783 -4.81729 4.45279 0
M  V30 1970 H 183.7 -4.41535 6.13664 0
M  V30 1971 H 184.968 -5.45817 5.5651 0
M  V30 1972 N 189.197 -1.51736 -0.425897 0
M  V30 1973 C 190.443 -1.65214 -1.1761 0
M  V30 1974 C 190.776 -0.372778 -1.90589 0
M  V30 1975 O 190.051 0.628139 -1.84078 0
M  V30 1976 C 190.334 -2.86312 -2.18398 0
M  V30 1977 C 190.187 -4.24254 -1.49426 0
M  V30 1978 C 191.506 -3.02925 -3.19256 0
M  V30 1979 H 188.625 -0.601263 -0.426206 0
M  V30 1980 H 191.267 -1.8425 -0.463882 0
M  V30 1981 H 189.417 -2.70213 -2.79137 0
M  V30 1982 H 191.089 -4.52046 -0.919362 0
M  V30 1983 H 189.332 -4.26426 -0.796432 0
M  V30 1984 H 190.003 -5.05001 -2.22885 0
M  V30 1985 H 192.479 -3.1781 -2.68581 0
M  V30 1986 H 191.355 -3.89199 -3.8706 0
M  V30 1987 H 191.616 -2.15497 -3.86023 0
M  V30 1988 N 190.675 0.682077 -1.42076 0
M  V30 1989 C 191.622 1.79578 -1.44984 0
M  V30 1990 C 192.592 1.6332 -0.302614 0
M  V30 1991 O 193.777 1.83978 -0.505633 0
M  V30 1992 C 190.917 3.1756 -1.35091 0
M  V30 1993 C 190.03 3.45156 -2.59791 0
M  V30 1994 C 189.165 4.72826 -2.42093 0
M  V30 1995 C 188.204 4.93433 -3.62202 0
M  V30 1996 N 187.341 6.12338 -3.43491 0
M  V30 1997 H 192.181 1.76427 -2.40161 0
M  V30 1998 H 189.718 0.861376 -1.19242 0
M  V30 1999 H 191.676 3.97287 -1.27354 0
M  V30 2000 H 190.306 3.19854 -0.435133 0
M  V30 2001 H 189.358 2.59736 -2.77923 0
M  V30 2002 H 190.67 3.5628 -3.49094 0
M  V30 2003 H 189.824 5.60631 -2.319 0
M  V30 2004 H 188.563 4.63973 -1.50268 0
M  V30 2005 H 187.568 4.04073 -3.72834 0
M  V30 2006 H 188.793 5.04136 -4.54998 0
M  V30 2007 H 186.739 6.04672 -2.54377 0
M  V30 2008 H 186.656 6.2429 -4.26377 0
M  V30 2009 H 187.924 7.02841 -3.37097 0
M  V30 2010 N 192.153 1.28127 0.917671 0
M  V30 2011 C 193.569 1.05749 1.19538 0
M  V30 2012 C 193.769 -0.202633 2.00479 0
M  V30 2013 O 192.825 -0.905382 2.3571 0
M  V30 2014 C 194.138 2.30273 1.93378 0
M  V30 2015 C 195.686 2.35412 2.06277 0
M  V30 2016 C 196.161 3.59692 2.83524 0
M  V30 2017 N 197.652 3.60309 2.91087 0
M  V30 2018 C 198.387 4.53147 3.51348 0
M  V30 2019 N 197.883 5.563 4.12919 0
M  V30 2020 N 199.676 4.40751 3.48849 0
M  V30 2021 H 191.827 2.09024 0.377184 0
M  V30 2022 H 194.09 0.919798 0.22951 0
M  V30 2023 H 193.796 3.22055 1.41328 0
M  V30 2024 H 193.67 2.36378 2.93947 0
M  V30 2025 H 196.057 1.4413 2.57508 0
M  V30 2026 H 196.138 2.33304 1.04895 0
M  V30 2027 H 195.782 4.51316 2.32973 0
M  V30 2028 H 195.712 3.59054 3.85211 0
M  V30 2029 H 198.203 2.85714 2.47338 0
M  V30 2030 H 198.516 6.2329 4.56869 0
M  V30 2031 H 196.861 5.60131 4.11435 0
M  V30 2032 H 200.052 3.59367 2.99955 0
M  V30 2033 H 200.225 5.13291 3.9552 0
M  V30 2034 N 193.631 -1.12557 1.10312 0
M  V30 2035 C 194.856 -1.88405 0.867085 0
M  V30 2036 C 195.281 -1.79038 -0.576817 0
M  V30 2037 O 194.639 -1.14439 -1.40618 0
M  V30 2038 C 194.687 -3.3563 1.31851 0
M  V30 2039 O 193.791 -4.09565 0.482734 0
M  V30 2040 H 193.132 -0.585455 0.313271 0
M  V30 2041 H 195.662 -1.42352 1.4696 0
M  V30 2042 H 195.672 -3.86469 1.3079 0
M  V30 2043 H 194.347 -3.41765 2.37001 0
M  V30 2044 H 192.924 -3.68695 0.558448 0
M  V30 2045 N 195.109 -0.891671 -1.2995 0
M  V30 2046 C 196.041 -0.320695 -2.26945 0
M  V30 2047 C 197.054 0.528497 -1.53983 0
M  V30 2048 O 198.243 0.346959 -1.75096 0
M  V30 2049 C 195.343 0.562066 -3.34207 0
M  V30 2050 C 194.516 -0.259576 -4.36629 0
M  V30 2051 C 193.575 0.554739 -5.23268 0
M  V30 2052 O 192.601 -0.0249311 -5.69195 0
M  V30 2053 N 193.803 1.8625 -5.4981 0
M  V30 2054 H 196.568 -1.15432 -2.76578 0
M  V30 2055 H 194.129 -0.755336 -1.432 0
M  V30 2056 H 196.121 1.11304 -3.89093 0
M  V30 2057 H 194.691 1.29637 -2.84452 0
M  V30 2058 H 193.911 -0.991986 -3.81514 0
M  V30 2059 H 195.199 -0.822564 -5.02107 0
M  V30 2060 H 194.597 2.35628 -5.14292 0
M  V30 2061 H 193.154 2.36078 -6.07545 0
M  V30 2062 N 196.587 1.43421 -0.653314 0
M  V30 2063 C 197.835 2.01414 -0.166415 0
M  V30 2064 C 198.156 1.51803 1.22397 0
M  V30 2065 O 197.426 0.730693 1.81763 0
M  V30 2066 H 196.006 0.744703 -0.0585319 0
M  V30 2067 H 198.668 1.75629 -0.845003 0
M  V30 2068 H 197.764 3.11734 -0.151111 0
M  V30 2069 N 198.065 0.39524 1.52563 0
M  V30 2070 C 199.342 -0.242908 1.94086 0
M  V30 2071 C 199.722 -1.63841 1.33114 0
M  V30 2072 O 199.07 -2.22928 0.501529 0
M  V30 2073 C 199.28 -0.26327 3.48006 0
M  V30 2074 C 200.628 -0.489354 4.21771 0
M  V30 2075 O 201.652 -0.343226 3.54543 0
M  V30 2076 O 200.511 -0.776169 5.4096 0
M  V30 2077 H 197.605 -0.152536 0.812811 0
M  V30 2078 H 200.151 0.450178 1.6362 0
M  V30 2079 H 198.923 0.713985 3.84731 0
M  V30 2080 H 198.546 -1.00103 3.84792 0
M  V30 2081 N 199.544 -1.57102 0.125237 0
M  V30 2082 C 200.491 -2.15641 -0.822655 0
M  V30 2083 C 201.461 -1.08313 -1.25927 0
M  V30 2084 O 202.646 -1.36251 -1.33567 0
M  V30 2085 C 199.786 -2.76504 -2.06494 0
M  V30 2086 C 198.899 -3.98158 -1.67612 0
M  V30 2087 C 198.034 -4.47088 -2.86854 0
M  V30 2088 C 197.073 -5.6126 -2.44242 0
M  V30 2089 N 196.21 -6.04905 -3.56419 0
M  V30 2090 H 201.05 -2.96313 -0.316625 0
M  V30 2091 H 198.587 -1.46388 -0.144588 0
M  V30 2092 H 200.545 -3.09925 -2.79289 0
M  V30 2093 H 199.175 -1.98512 -2.54545 0
M  V30 2094 H 198.227 -3.70858 -0.846661 0
M  V30 2095 H 199.539 -4.80934 -1.32301 0
M  V30 2096 H 198.693 -4.82451 -3.67867 0
M  V30 2097 H 197.432 -3.63275 -3.25396 0
M  V30 2098 H 196.437 -5.25495 -1.61663 0
M  V30 2099 H 197.662 -6.46843 -2.0681 0
M  V30 2100 H 195.608 -5.24032 -3.94623 0
M  V30 2101 H 195.525 -6.82552 -3.25051 0
M  V30 2102 H 196.793 -6.44907 -4.37853 0
M  V30 2103 N 201.022 0.148545 -1.56898 0
M  V30 2104 C 201.969 1.18345 -1.98149 0
M  V30 2105 C 202.939 1.42772 -0.848848 0
M  V30 2106 O 204.124 1.55132 -1.11079 0
M  V30 2107 C 201.264 2.51231 -2.36594 0
M  V30 2108 C 200.377 2.33991 -3.63142 0
M  V30 2109 C 199.512 3.59902 -3.90697 0
M  V30 2110 C 198.551 3.37692 -5.1052 0
M  V30 2111 N 197.688 4.5573 -5.34092 0
M  V30 2112 H 202.528 0.82467 -2.86362 0
M  V30 2113 H 200.065 0.395756 -1.41676 0
M  V30 2114 H 202.023 3.28713 -2.56912 0
M  V30 2115 H 200.653 2.85059 -1.51463 0
M  V30 2116 H 199.705 1.47572 -3.50609 0
M  V30 2117 H 201.017 2.13539 -4.5078 0
M  V30 2118 H 200.171 4.45813 -4.11505 0
M  V30 2119 H 198.91 3.83357 -3.01477 0
M  V30 2120 H 197.915 2.5017 -4.89587 0
M  V30 2121 H 199.14 3.15637 -6.0129 0
M  V30 2122 H 197.086 4.79361 -4.47827 0
M  V30 2123 H 197.003 4.38274 -6.15996 0
M  V30 2124 H 198.271 5.42858 -5.59397 0
M  V30 2125 N 202.5 1.5196 0.417844 0
M  V30 2126 C 203.728 1.69426 1.18753 0
M  V30 2127 C 204.143 0.399955 1.84515 0
M  V30 2128 O 203.5 -0.623288 1.71527 0
M  V30 2129 C 203.551 2.82375 2.25714 0
M  V30 2130 O 203.272 4.06793 1.62638 0
M  V30 2131 C 204.773 3.11277 3.15628 0
M  V30 2132 H 201.993 0.568031 0.357186 0
M  V30 2133 H 204.537 1.98475 0.49273 0
M  V30 2134 H 202.692 2.5587 2.90877 0
M  V30 2135 H 203.106 4.69667 2.3348 0
M  V30 2136 H 204.58 3.93843 3.86771 0
M  V30 2137 H 205.057 2.24473 3.77503 0
M  V30 2138 H 205.663 3.39515 2.56144 0
M  V30 2139 N 203.978 -0.674533 1.42435 0
M  V30 2140 C 205.224 -1.43521 1.4413 0
M  V30 2141 C 205.579 -1.92316 0.0567773 0
M  V30 2142 O 204.872 -1.68008 -0.921076 0
M  V30 2143 C 205.066 -2.64767 2.40069 0
M  V30 2144 C 204.895 -2.27836 3.87713 0
M  V30 2145 C 203.665 -2.17183 4.56245 0
M  V30 2146 C 205.863 -1.89466 4.78129 0
M  V30 2147 N 203.845 -1.73358 5.88915 0
M  V30 2148 C 205.216 -1.56561 5.99907 0
M  V30 2149 C 207.271 -1.7646 4.65582 0
M  V30 2150 C 205.974 -1.11957 7.10534 0
M  V30 2151 C 208 -1.3326 5.76191 0
M  V30 2152 C 207.362 -1.0128 6.97081 0
M  V30 2153 H 203.461 -0.521656 0.582579 0
M  V30 2154 H 206.045 -0.778381 1.78464 0
M  V30 2155 H 204.216 -3.28139 2.07796 0
M  V30 2156 H 205.948 -3.3136 2.32342 0
M  V30 2157 H 202.703 -2.3626 4.10461 0
M  V30 2158 H 203.127 -1.53867 6.59283 0
M  V30 2159 H 207.769 -1.99831 3.72595 0
M  V30 2160 H 205.487 -0.873318 8.03367 0
M  V30 2161 H 209.073 -1.23717 5.68494 0
M  V30 2162 H 207.953 -0.683597 7.81215 0
M  V30 2163 N 205.456 -1.28612 -0.910864 0
M  V30 2164 C 206.872 -1.06381 -1.18976 0
M  V30 2165 C 207.072 0.191998 -2.00583 0
M  V30 2166 O 206.128 0.892869 -2.36187 0
M  V30 2167 C 207.441 -2.31295 -1.92154 0
M  V30 2168 C 208.989 -2.36503 -2.05025 0
M  V30 2169 C 209.464 -3.61191 -2.81612 0
M  V30 2170 N 210.955 -3.61847 -2.89172 0
M  V30 2171 C 211.69 -4.55004 -3.4894 0
M  V30 2172 N 211.186 -5.58482 -4.09963 0
M  V30 2173 N 212.979 -4.42594 -3.46506 0
M  V30 2174 H 205.13 -2.09221 -0.366094 0
M  V30 2175 H 207.393 -0.921003 -0.224629 0
M  V30 2176 H 207.099 -3.228 -1.39618 0
M  V30 2177 H 206.973 -2.37934 -2.9269 0
M  V30 2178 H 209.36 -1.45494 -2.5674 0
M  V30 2179 H 209.441 -2.33857 -1.03657 0
M  V30 2180 H 209.085 -4.52545 -2.30576 0
M  V30 2181 H 209.015 -3.61092 -3.83302 0
M  V30 2182 H 211.506 -2.87022 -2.45819 0
M  V30 2183 H 211.819 -6.25704 -4.53557 0
M  V30 2184 H 210.164 -5.62305 -4.08459 0
M  V30 2185 H 213.355 -3.60953 -2.98045 0
M  V30 2186 H 213.528 -5.15381 -3.92793 0
M  V30 2187 N 206.934 1.1197 -1.10907 0
M  V30 2188 C 208.18 1.84059 -0.865674 0
M  V30 2189 C 208.535 1.82731 0.602254 0
M  V30 2190 O 207.828 1.26543 1.43866 0
M  V30 2191 C 208.022 3.30749 -1.35425 0
M  V30 2192 C 207.851 3.46363 -2.86815 0
M  V30 2193 C 206.621 3.59712 -3.54874 0
M  V30 2194 C 208.819 3.41116 -3.84895 0
M  V30 2195 N 206.801 3.63741 -4.94536 0
M  V30 2196 C 208.172 3.51698 -5.10596 0
M  V30 2197 C 210.227 3.24612 -3.77533 0
M  V30 2198 C 208.93 3.4748 -6.29802 0
M  V30 2199 C 210.956 3.21708 -4.96244 0
M  V30 2200 C 210.318 3.32856 -6.20795 0
M  V30 2201 H 206.417 0.689015 -0.369841 0
M  V30 2202 H 209.001 1.34016 -1.41237 0
M  V30 2203 H 207.172 3.79322 -0.834814 0
M  V30 2204 H 208.904 3.90718 -1.05458 0
M  V30 2205 H 205.659 3.62038 -3.05329 0
M  V30 2206 H 206.083 3.69408 -5.67333 0
M  V30 2207 H 210.725 3.14883 -2.8215 0
M  V30 2208 H 208.443 3.55978 -7.25469 0
M  V30 2209 H 212.029 3.10113 -4.92261 0
M  V30 2210 H 210.909 3.3059 -7.11112 0
M  V30 2211 N 208.412 0.89855 1.29475 0
M  V30 2212 C 209.66 0.522847 1.9522 0
M  V30 2213 C 209.981 -0.93371 1.71192 0
M  V30 2214 O 209.251 -1.65823 1.04305 0
M  V30 2215 H 207.831 0.190366 0.722336 0
M  V30 2216 H 210.493 1.14459 1.5775 0
M  V30 2217 H 209.589 0.704476 3.04045 0
M  V30 2218 N 209.89 -1.43072 0.660911 0
M  V30 2219 C 211.301 -1.84932 0.256348 0
M  V30 2220 C 211.652 -1.55325 -1.19868 0
M  V30 2221 O 210.777 -1.00607 -1.91591 0
M  V30 2222 C 211.372 -3.35684 0.458475 0
M  V30 2223 C 209.931 -3.76245 0.108161 0
M  V30 2224 C 209.078 -2.66749 0.757641 0
M  V30 2225 H 212.029 -1.33116 0.864051 0
M  V30 2226 H 212.05 -3.79365 -0.293683 0
M  V30 2227 H 211.562 -3.572 1.51755 0
M  V30 2228 H 209.663 -3.60338 -0.948014 0
M  V30 2229 H 209.776 -4.76058 0.538992 0
M  V30 2230 H 208.14 -2.53989 0.190185 0
M  V30 2231 H 208.923 -2.91092 1.81989 0
M  V30 2232 N 211.368 -0.403325 -1.52352 0
M  V30 2233 C 212.278 0.432009 -2.30588 0
M  V30 2234 C 213.294 1.05884 -1.38075 0
M  V30 2235 O 214.47 1.06161 -1.71148 0
M  V30 2236 C 211.535 1.53669 -3.10784 0
M  V30 2237 C 210.596 0.933525 -4.19027 0
M  V30 2238 C 209.829 1.98557 -4.9539 0
M  V30 2239 O 210.052 3.20283 -4.71991 0
M  V30 2240 O 208.986 1.59504 -5.80381 0
M  V30 2241 H 212.812 -0.205739 -3.03002 0
M  V30 2242 H 210.397 -0.166675 -1.48467 0
M  V30 2243 H 212.279 2.17814 -3.60742 0
M  V30 2244 H 210.954 2.15915 -2.41169 0
M  V30 2245 H 209.861 0.254954 -3.7323 0
M  V30 2246 H 211.194 0.35508 -4.90918 0
M  V30 2247 N 212.846 1.57033 -0.133567 0
M  V30 2248 C 214.094 1.953 0.519848 0
M  V30 2249 C 214.415 1.01866 1.66278 0
M  V30 2250 O 213.685 0.0776513 1.95746 0
M  V30 2251 H 212.265 0.721091 0.195032 0
M  V30 2252 H 214.927 1.93809 -0.205921 0
M  V30 2253 H 214.023 2.98695 0.904854 0
M  V30 2254 N 214.325 -0.140222 1.56975 0
M  V30 2255 C 215.555 -0.865181 1.87612 0
M  V30 2256 C 215.963 -1.74942 0.72055 0
M  V30 2257 O 215.306 -1.80917 -0.318561 0
M  V30 2258 C 215.368 -1.76782 3.13031 0
M  V30 2259 C 215.032 -1.06005 4.44536 0
M  V30 2260 C 216.029 -0.410768 5.18275 0
M  V30 2261 C 213.714 -1.04754 4.91255 0
M  V30 2262 C 215.708 0.241572 6.36942 0
M  V30 2263 C 213.395 -0.391394 6.09845 0
M  V30 2264 C 214.393 0.252029 6.82535 0
M  V30 2265 O 214.081 0.897757 7.98871 0
M  V30 2266 H 213.813 -0.255188 0.625983 0
M  V30 2267 H 216.367 -0.135653 2.04952 0
M  V30 2268 H 214.597 -2.53846 2.91718 0
M  V30 2269 H 216.286 -2.36533 3.29859 0
M  V30 2270 H 217.052 -0.412195 4.83245 0
M  V30 2271 H 212.931 -1.53777 4.34596 0
M  V30 2272 H 216.475 0.744375 6.93617 0
M  V30 2273 H 212.372 -0.387656 6.44335 0
M  V30 2274 H 213.14 0.800102 8.1458 0
M  V30 2275 N 215.803 -1.52179 -0.40978 0
M  V30 2276 C 217.051 -1.65878 -1.15451 0
M  V30 2277 C 217.372 -0.390771 -1.91044 0
M  V30 2278 O 216.642 0.594323 -1.86667 0
M  V30 2279 H 215.222 -0.611405 -0.429177 0
M  V30 2280 H 217.884 -1.89219 -0.467134 0
M  V30 2281 H 216.98 -2.49954 -1.86894 0
M  V30 2282 N 217.281 0.66697 -1.42791 0
M  V30 2283 C 218.244 1.76211 -1.46568 0
M  V30 2284 C 219.244 1.56896 -0.352196 0
M  V30 2285 O 220.434 1.63044 -0.613364 0
M  V30 2286 C 217.566 3.14935 -1.30494 0
M  V30 2287 H 218.759 1.74247 -2.44086 0
M  V30 2288 H 216.312 0.877342 -1.29354 0
M  V30 2289 H 217.047 3.2252 -0.339301 0
M  V30 2290 H 216.832 3.30359 -2.11199 0
M  V30 2291 H 218.322 3.94821 -1.36038 0
M  V30 2292 N 218.759 1.29093 0.90403 0
M  V30 2293 C 220.008 1.16187 1.64874 0
M  V30 2294 C 220.321 -0.286742 1.93487 0
M  V30 2295 O 221.527 -0.537062 2.66135 0
M  V30 2296 C 219.983 2.03177 2.97064 0
M  V30 2297 C 219.591 3.52836 2.76062 0
M  V30 2298 C 221.335 1.98984 3.74974 0
M  V30 2299 C 219.242 4.31945 4.03952 0
M  V30 2300 H 218.172 0.431246 0.618501 0
M  V30 2301 H 220.823 1.53699 1.00243 0
M  V30 2302 H 219.205 1.5853 3.62883 0
M  V30 2303 H 220.379 4.05507 2.18863 0
M  V30 2304 H 218.694 3.58656 2.11553 0
M  V30 2305 H 221.291 2.55351 4.69787 0
M  V30 2306 H 221.634 0.968815 4.0487 0
M  V30 2307 H 222.167 2.41652 3.15989 0
M  V30 2308 H 218.906 5.34667 3.79225 0
M  V30 2309 H 218.426 3.84045 4.60727 0
M  V30 2310 H 220.105 4.42379 4.72133 0
M  V30 2311 N 220.237 -1.11381 1.11499 0
M  V30 2312 C 221.167 -2.19509 0.796125 0
M  V30 2313 C 222.148 -1.68458 -0.235796 0
M  V30 2314 O 223.333 -1.93947 -0.0991344 0
M  V30 2315 C 220.463 -3.46475 0.239205 0
M  V30 2316 C 219.417 -4.10744 1.20307 0
M  V30 2317 C 218.743 -5.32293 0.50683 0
M  V30 2318 C 220.043 -4.55597 2.55399 0
M  V30 2319 H 221.737 -2.46439 1.70024 0
M  V30 2320 H 219.283 -1.18446 0.818935 0
M  V30 2321 H 221.236 -4.214 0.00392006 0
M  V30 2322 H 219.96 -3.19006 -0.700206 0
M  V30 2323 H 218.619 -3.37813 1.42399 0
M  V30 2324 H 218.267 -5.01095 -0.437408 0
M  V30 2325 H 217.967 -5.76243 1.1497 0
M  V30 2326 H 219.491 -6.09956 0.280351 0
M  V30 2327 H 220.905 -5.21841 2.37391 0
M  V30 2328 H 219.302 -5.10363 3.15673 0
M  V30 2329 H 220.372 -3.69013 3.14575 0
M  V30 2330 N 221.715 -0.905404 -1.28997 0
M  V30 2331 C 222.645 -0.404212 -2.29975 0
M  V30 2332 C 223.626 0.523784 -1.61835 0
M  V30 2333 O 224.811 0.433298 -1.89304 0
M  V30 2334 C 221.941 0.364042 -3.45387 0
M  V30 2335 C 220.895 -0.474048 -4.25367 0
M  V30 2336 C 220.221 0.422045 -5.33032 0
M  V30 2337 C 221.521 -1.72696 -4.92923 0
M  V30 2338 H 223.215 -1.24807 -2.72146 0
M  V30 2339 H 220.761 -0.601585 -1.30832 0
M  V30 2340 H 222.714 0.725447 -4.15109 0
M  V30 2341 H 221.438 1.24174 -3.02074 0
M  V30 2342 H 220.097 -0.81786 -3.57361 0
M  V30 2343 H 219.745 1.29804 -4.85963 0
M  V30 2344 H 219.445 -0.135057 -5.87445 0
M  V30 2345 H 220.969 0.779517 -6.05604 0
M  V30 2346 H 222.383 -1.43495 -5.55051 0
M  V30 2347 H 220.78 -2.22582 -5.57295 0
M  V30 2348 H 221.85 -2.45964 -4.17887 0
M  V30 2349 N 223.193 1.4272 -0.668489 0
M  V30 2350 C 224.439 2.01923 -0.188419 0
M  V30 2351 C 224.772 1.52704 1.19979 0
M  V30 2352 O 224.047 0.726566 1.8042 0
M  V30 2353 C 224.33 3.59451 -0.216085 0
M  V30 2354 C 224.183 4.18864 -1.6393 0
M  V30 2355 C 225.502 4.37903 0.439179 0
M  V30 2356 H 222.621 0.733674 -0.0699412 0
M  V30 2357 H 225.263 1.69822 -0.852076 0
M  V30 2358 H 223.413 3.86929 0.349012 0
M  V30 2359 H 225.085 4.02362 -2.25616 0
M  V30 2360 H 223.328 3.74933 -2.18193 0
M  V30 2361 H 223.999 5.27987 -1.61039 0
M  V30 2362 H 226.475 4.16079 -0.0417878 0
M  V30 2363 H 225.351 5.47519 0.389157 0
M  V30 2364 H 225.612 4.15303 1.51577 0
M  V30 2365 N 224.671 0.411399 1.52136 0
M  V30 2366 C 225.619 -0.427633 2.28635 0
M  V30 2367 C 226.613 -1.04383 1.33419 0
M  V30 2368 O 227.819 -0.981772 1.50868 0
M  V30 2369 H 224.194 -0.156689 0.735495 0
M  V30 2370 H 226.165 0.238761 2.97443 0
M  V30 2371 C 224.914 -1.53082 3.12188 0
M  V30 2372 H 224.237 -1.06601 3.85326 0
M  V30 2373 H 225.677 -2.09167 3.68816 0
M  V30 2374 C 224.136 -2.49946 2.25895 0
M  V30 2375 O 224.666 -3.53884 1.90076 0
M  V30 2376 N 222.872 -2.2021 1.8962 0
M  V30 2377 H 222.419 -1.35719 2.18948 0
M  V30 2378 H 222.377 -2.85266 1.32176 0
M  V30 2379 N 226.149 -1.5696 0.141893 0
M  V30 2380 C 227.389 -1.9785 -0.513304 0
M  V30 2381 C 227.753 -1.02467 -1.62371 0
M  V30 2382 O 228.954 -1.32382 -2.33941 0
M  V30 2383 C 227.225 -3.42797 -1.01118 0
M  V30 2384 S 228.784 -4.05709 -1.67169 0
M  V30 2385 H 225.602 -0.691318 -0.166135 0
M  V30 2386 H 228.204 -1.94114 0.232398 0
M  V30 2387 H 226.908 -4.0995 -0.192179 0
M  V30 2388 H 226.439 -3.50235 -1.79162 0
M  V30 2389 H 228.454 -3.98342 -2.95868 0
M  V30 2390 N 227.627 0.131896 -1.57047 0
M  V30 2391 C 228.904 0.871495 -1.75112 0
M  V30 2392 C 229.284 1.9866 -0.713949 0
M  V30 2393 O 228.632 2.26965 0.264447 0
M  V30 2394 C 228.842 1.40007 -3.19686 0
M  V30 2395 C 230.19 1.85752 -3.81813 0
M  V30 2396 O 231.214 1.49715 -3.23209 0
M  V30 2397 O 230.073 2.5226 -4.84796 0
M  V30 2398 H 227.167 0.412919 -0.716538 0
M  V30 2399 H 229.713 0.116641 -1.69299 0
M  V30 2400 H 228.485 0.599404 -3.86682 0
M  V30 2401 H 228.108 2.218 -3.29986 0
M  V30 2402 N 229.106 1.52395 0.401703 0
M  V30 2403 C 230.522 1.41363 0.740864 0
M  V30 2404 C 230.722 0.523982 1.94568 0
M  V30 2405 O 229.778 -0.00741204 2.52499 0
M  V30 2406 C 231.091 2.84011 0.987847 0
M  V30 2407 C 232.639 2.93404 1.09011 0
M  V30 2408 C 233.114 4.37036 1.3698 0
M  V30 2409 N 234.605 4.40304 1.43829 0
M  V30 2410 C 235.34 5.48508 1.67112 0
M  V30 2411 N 234.836 6.66819 1.87949 0
M  V30 2412 N 236.629 5.36034 1.69187 0
M  V30 2413 H 228.78 2.08765 -0.391262 0
M  V30 2414 H 231.043 0.941265 -0.112798 0
M  V30 2415 H 230.749 3.51265 0.174835 0
M  V30 2416 H 230.623 3.25502 1.906 0
M  V30 2417 H 233.01 2.26325 1.8937 0
M  V30 2418 H 233.091 2.55359 0.15015 0
M  V30 2419 H 232.735 5.04676 0.571353 0
M  V30 2420 H 232.665 4.72623 2.3224 0
M  V30 2421 H 235.156 3.55024 1.29486 0
M  V30 2422 H 235.469 7.45063 2.05185 0
M  V30 2423 H 233.814 6.6987 1.85199 0
M  V30 2424 H 237.005 4.42579 1.52451 0
M  V30 2425 H 237.178 6.20434 1.86993 0
M  V30 2426 N 230.584 -0.659388 1.43143 0
M  V30 2427 C 231.861 -1.41627 1.34912 0
M  V30 2428 C 232.241 -2.11099 -0.00607785 0
M  V30 2429 O 231.589 -2.04353 -1.02236 0
M  V30 2430 C 231.799 -2.40604 2.52805 0
M  V30 2431 C 233.147 -3.04789 2.95616 0
M  V30 2432 O 234.171 -2.50932 2.52807 0
M  V30 2433 O 233.03 -4.02421 3.69756 0
M  V30 2434 H 230.124 -0.63246 0.532844 0
M  V30 2435 H 232.67 -0.686814 1.5518 0
M  V30 2436 H 231.442 -1.88174 3.43083 0
M  V30 2437 H 231.065 -3.21009 2.34604 0
M  V30 2438 N 232.062 -1.29571 -0.897171 0
M  V30 2439 C 233.01 -1.14802 -2.02295 0
M  V30 2440 C 234.004 -0.0629637 -1.69283 0
M  V30 2441 O 235.21 -0.222945 -1.78614 0
M  V30 2442 H 231.585 -0.354692 -0.663097 0
M  V30 2443 H 233.556 -2.10108 -2.11889 0
M  V30 2444 C 232.305 -0.843966 -3.37302 0
M  V30 2445 H 231.628 -1.67093 -3.63208 0
M  V30 2446 H 233.068 -0.780672 -4.16751 0
M  V30 2447 C 231.527 0.452843 -3.33843 0
M  V30 2448 O 232.057 1.47813 -3.73516 0
M  V30 2449 N 230.263 0.459601 -2.86943 0
M  V30 2450 H 229.81 -0.375213 -2.54853 0
M  V30 2451 H 229.768 1.32726 -2.85011 0
M  V30 2452 N 233.54 1.10788 -1.12088 0
M  V30 2453 C 234.49 2.15158 -0.754401 0
M  V30 2454 C 235.474 1.59026 0.244846 0
M  V30 2455 O 236.666 1.76927 0.0509097 0
M  V30 2456 C 233.795 3.42677 -0.206657 0
M  V30 2457 C 232.881 4.05751 -1.23398 0
M  V30 2458 N 233.272 4.43582 -2.43041 0
M  V30 2459 C 231.57 4.32764 -1.07848 0
M  V30 2460 C 232.271 4.93085 -3.08613 0
M  V30 2461 N 231.247 4.89664 -2.36072 0
M  V30 2462 H 235.049 2.42195 -1.6649 0
M  V30 2463 H 232.563 1.27872 -1.00112 0
M  V30 2464 H 234.56 4.16834 0.0740646 0
M  V30 2465 H 233.22 3.17101 0.698342 0
M  V30 2466 H 234.231 4.35395 -2.80449 0
M  V30 2467 H 230.908 4.16863 -0.230483 0
M  V30 2468 H 232.298 5.31933 -4.10483 0
M  V30 2469 N 235.018 0.912232 1.28515 0
M  V30 2470 C 236.434 0.610159 1.47476 0
M  V30 2471 C 236.634 -0.844955 1.82928 0
M  V30 2472 O 235.69 -1.62416 1.93332 0
M  V30 2473 C 237.003 1.54675 2.57868 0
M  V30 2474 C 238.551 1.55331 2.71738 0
M  V30 2475 C 239.026 2.47649 3.85272 0
M  V30 2476 N 240.517 2.45767 3.92623 0
M  V30 2477 C 241.252 3.13896 4.79851 0
M  V30 2478 N 240.748 3.9135 5.71679 0
M  V30 2479 N 242.541 3.02991 4.73448 0
M  V30 2480 H 234.692 1.85318 1.03783 0
M  V30 2481 H 236.955 0.794777 0.516753 0
M  V30 2482 H 236.661 2.5841 2.38574 0
M  V30 2483 H 236.535 1.27671 3.54937 0
M  V30 2484 H 238.922 0.52335 2.90422 0
M  V30 2485 H 239.003 1.86378 1.75205 0
M  V30 2486 H 238.647 3.50745 3.67342 0
M  V30 2487 H 238.577 2.13904 4.81199 0
M  V30 2488 H 241.068 1.89503 3.26951 0
M  V30 2489 H 241.381 4.40359 6.35062 0
M  V30 2490 H 239.726 3.95455 5.71524 0
M  V30 2491 H 242.917 2.41987 4.007 0
M  V30 2492 H 243.09 3.5636 5.41213 0
M  V30 2493 N 236.496 -1.42363 0.676048 0
M  V30 2494 C 237.721 -2.06377 0.205705 0
M  V30 2495 C 238.146 -1.50463 -1.12883 0
M  V30 2496 O 237.504 -0.623619 -1.70237 0
M  V30 2497 C 237.552 -3.60277 0.152655 0
M  V30 2498 O 236.656 -4.02935 -0.87845 0
M  V30 2499 H 235.997 -0.655588 0.105359 0
M  V30 2500 H 238.527 -1.82475 0.925412 0
M  V30 2501 H 238.537 -4.07993 -0.0230675 0
M  V30 2502 H 237.212 -4.00346 1.12675 0
M  V30 2503 H 235.789 -3.66764 -0.673668 0
M  V30 2504 N 237.974 -0.419461 -1.51915 0
M  V30 2505 C 238.937 0.389116 -2.25873 0
M  V30 2506 C 239.937 0.964924 -1.28631 0
M  V30 2507 O 241.127 0.842179 -1.52489 0
M  V30 2508 C 238.259 1.54874 -3.03689 0
M  V30 2509 H 239.452 -0.258799 -2.98781 0
M  V30 2510 H 237.005 -0.172209 -1.55348 0
M  V30 2511 H 237.74 2.23323 -2.35154 0
M  V30 2512 H 237.525 1.14223 -3.75094 0
M  V30 2513 H 239.015 2.12046 -3.59759 0
M  V30 2514 N 239.452 1.56882 -0.150215 0
M  V30 2515 C 240.362 2.20494 0.801222 0
M  V30 2516 C 241.378 1.19019 1.26927 0
M  V30 2517 O 242.554 1.51607 1.32579 0
M  V30 2518 C 239.619 2.81659 2.02161 0
M  V30 2519 C 238.68 3.9827 1.60249 0
M  V30 2520 C 237.913 4.56508 2.7647 0
M  V30 2521 O 238.136 4.13627 3.92771 0
M  V30 2522 O 237.07 5.46719 2.51757 0
M  V30 2523 H 240.896 3.02315 0.289717 0
M  V30 2524 H 238.481 1.49202 0.0769684 0
M  V30 2525 H 240.363 3.20522 2.73576 0
M  V30 2526 H 239.038 2.02849 2.52258 0
M  V30 2527 H 237.945 3.64117 0.858477 0
M  V30 2528 H 239.278 4.78609 1.14864 0
M  V30 2529 N 240.93 -0.123565 1.57115 0
M  V30 2530 C 242.341 -0.681198 1.73829 0
M  V30 2531 C 242.692 -1.80535 0.768214 0
M  V30 2532 O 241.817 -2.16317 -0.0599103 0
M  V30 2533 C 242.412 -1.24246 3.15196 0
M  V30 2534 C 240.971 -1.74643 3.33432 0
M  V30 2535 C 240.118 -0.644284 2.69711 0
M  V30 2536 H 243.069 0.102315 1.5837 0
M  V30 2537 H 243.09 -2.11216 3.16493 0
M  V30 2538 H 242.602 -0.424062 3.85776 0
M  V30 2539 H 240.703 -2.58974 2.67886 0
M  V30 2540 H 240.816 -1.85902 4.41562 0
M  V30 2541 H 239.18 -1.07676 2.3082 0
M  V30 2542 H 239.963 0.163058 3.42913 0
M  V30 2543 N 242.408 -1.52605 -0.393616 0
M  V30 2544 C 243.685 -1.58001 -1.15304 0
M  V30 2545 C 244.065 -0.370385 -2.07825 0
M  V30 2546 O 243.413 0.641638 -2.19306 0
M  V30 2547 C 243.623 -2.91652 -1.91677 0
M  V30 2548 C 244.971 -3.4522 -2.47201 0
M  V30 2549 O 245.995 -2.93495 -2.01839 0
M  V30 2550 O 244.854 -4.35579 -3.3005 0
M  V30 2551 H 241.948 -0.637068 -0.527327 0
M  V30 2552 H 244.494 -1.64939 -0.399141 0
M  V30 2553 H 243.266 -3.71136 -1.23992 0
M  V30 2554 H 242.889 -2.88077 -2.74039 0
M  V30 2555 N 243.887 0.651787 -1.4349 0
M  V30 2556 C 244.817 1.77621 -1.51569 0
M  V30 2557 C 245.798 1.66022 -0.370253 0
M  V30 2558 O 246.983 1.85095 -0.587658 0
M  V30 2559 C 244.113 3.16056 -1.43966 0
M  V30 2560 C 243.067 3.4242 -2.56774 0
M  V30 2561 C 242.393 4.8067 -2.34223 0
M  V30 2562 C 243.693 3.37023 -3.99015 0
M  V30 2563 H 245.387 1.71117 -2.45681 0
M  V30 2564 H 242.933 0.821825 -1.18246 0
M  V30 2565 H 244.886 3.94472 -1.48221 0
M  V30 2566 H 243.61 3.23293 -0.463586 0
M  V30 2567 H 242.269 2.66375 -2.51873 0
M  V30 2568 H 241.917 4.84585 -1.34856 0
M  V30 2569 H 241.617 4.9927 -3.09844 0
M  V30 2570 H 243.141 5.61342 -2.40265 0
M  V30 2571 H 244.555 4.05374 -4.05395 0
M  V30 2572 H 242.952 3.67159 -4.74673 0
M  V30 2573 H 244.022 2.3518 -4.2405 0
M  V30 2574 N 245.365 1.30045 0.890287 0
M  V30 2575 C 246.593 1.21472 1.67487 0
M  V30 2576 C 247.008 -0.223241 1.87476 0
M  V30 2577 O 246.365 -1.14828 1.41847 0
M  V30 2578 C 246.416 1.93394 3.05419 0
M  V30 2579 O 246.137 3.31576 2.86337 0
M  V30 2580 C 247.638 1.91414 3.99844 0
M  V30 2581 H 244.858 0.420604 0.522813 0
M  V30 2582 H 247.402 1.7158 1.11268 0
M  V30 2583 H 245.557 1.47099 3.58386 0
M  V30 2584 H 245.971 3.67929 3.73802 0
M  V30 2585 H 247.445 2.46285 4.94012 0
M  V30 2586 H 247.922 0.891833 4.3005 0
M  V30 2587 H 248.528 2.37496 3.52811 0
M  V30 2588 N 246.843 -1.10192 1.12674 0
M  V30 2589 C 247.793 -2.14754 0.765801 0
M  V30 2590 C 248.777 -1.59154 -0.236409 0
M  V30 2591 O 249.969 -1.76951 -0.0415261 0
M  V30 2592 C 247.098 -3.42563 0.224827 0
M  V30 2593 C 246.184 -4.05091 1.25548 0
M  V30 2594 N 246.575 -4.42287 2.4539 0
M  V30 2595 C 244.873 -4.32186 1.10142 0
M  V30 2596 C 245.574 -4.91441 3.11224 0
M  V30 2597 N 244.55 -4.88405 2.38666 0
M  V30 2598 H 248.352 -2.41309 1.67772 0
M  V30 2599 H 245.866 -1.27339 1.00789 0
M  V30 2600 H 247.863 -4.16868 -0.0519578 0
M  V30 2601 H 246.523 -3.17467 -0.681515 0
M  V30 2602 H 247.534 -4.33902 2.82754 0
M  V30 2603 H 244.211 -4.16735 0.252587 0
M  V30 2604 H 245.601 -5.29749 4.13298 0
M  V30 2605 N 248.321 -0.919034 -1.28029 0
M  V30 2606 C 249.546 -0.570357 -1.99403 0
M  V30 2607 C 249.971 0.842486 -1.68178 0
M  V30 2608 O 249.329 1.56391 -0.917141 0
M  V30 2609 C 249.377 -0.792541 -3.51783 0
M  V30 2610 O 248.481 0.145988 -4.12142 0
M  V30 2611 H 247.822 -0.220555 -0.6263 0
M  V30 2612 H 250.352 -1.23592 -1.63053 0
M  V30 2613 H 250.362 -0.704708 -4.01868 0
M  V30 2614 H 249.037 -1.82247 -3.73844 0
M  V30 2615 H 247.614 0.00897528 -3.72899 0
M  V30 2616 N 249.799 1.42003 -0.683588 0
M  V30 2617 C 251.045 2.02223 -0.218536 0
M  V30 2618 C 251.4 1.53126 1.16492 0
M  V30 2619 O 250.693 0.727459 1.77253 0
M  V30 2620 C 250.887 3.56827 -0.202357 0
M  V30 2621 C 250.716 4.20928 -1.5827 0
M  V30 2622 C 249.486 4.5573 -2.18262 0
M  V30 2623 C 251.684 4.47933 -2.52706 0
M  V30 2624 N 249.666 5.05056 -3.48986 0
M  V30 2625 C 251.037 4.98906 -3.68094 0
M  V30 2626 C 253.092 4.29931 -2.51125 0
M  V30 2627 C 251.795 5.33768 -4.82166 0
M  V30 2628 C 253.821 4.65875 -3.643 0
M  V30 2629 C 253.183 5.17008 -4.78417 0
M  V30 2630 H 249.282 0.771931 -0.125088 0
M  V30 2631 H 251.866 1.72729 -0.898479 0
M  V30 2632 H 250.037 3.85819 0.447029 0
M  V30 2633 H 251.769 4.03755 0.276399 0
M  V30 2634 H 248.524 4.41781 -1.70665 0
M  V30 2635 H 248.948 5.34139 -4.15962 0
M  V30 2636 H 253.59 3.89647 -1.6412 0
M  V30 2637 H 251.308 5.72981 -5.6984 0
M  V30 2638 H 254.894 4.53615 -3.64314 0
M  V30 2639 H 253.774 5.44301 -5.64541 0
M  V30 2640 N 251.277 0.427512 1.51691 0
M  V30 2641 C 252.207 -0.3796 2.30394 0
M  V30 2642 C 253.188 -1.02982 1.35384 0
M  V30 2643 O 254.373 -1.03534 1.643 0
M  V30 2644 C 251.503 -1.48649 3.1388 0
M  V30 2645 C 250.457 -0.960294 4.17088 0
M  V30 2646 C 249.783 -2.16219 4.89033 0
M  V30 2647 C 251.083 -0.00153679 5.223 0
M  V30 2648 H 252.777 0.277164 2.98114 0
M  V30 2649 H 250.323 0.134739 1.43368 0
M  V30 2650 H 252.276 -2.05826 3.67714 0
M  V30 2651 H 251 -2.1714 2.43962 0
M  V30 2652 H 249.659 -0.410806 3.64291 0
M  V30 2653 H 249.307 -2.83307 4.15628 0
M  V30 2654 H 249.007 -1.81654 5.58816 0
M  V30 2655 H 250.531 -2.73968 5.45687 0
M  V30 2656 H 251.945 -0.482687 5.71264 0
M  V30 2657 H 250.342 0.256199 5.99553 0
M  V30 2658 H 251.412 0.938174 4.75738 0
M  V30 2659 N 252.755 -1.56801 0.158532 0
M  V30 2660 C 253.688 -2.13148 -0.815065 0
M  V30 2661 C 254.666 -1.0581 -1.23462 0
M  V30 2662 O 255.85 -1.3371 -1.32868 0
M  V30 2663 C 252.977 -2.6606 -2.09594 0
M  V30 2664 C 252.023 -3.85651 -1.82141 0
M  V30 2665 S 252.856 -5.26041 -1.00207 0
M  V30 2666 C 254.012 -5.8235 -2.29389 0
M  V30 2667 H 254.245 -2.95396 -0.335937 0
M  V30 2668 H 251.778 -1.54299 -0.0559391 0
M  V30 2669 H 253.736 -2.97195 -2.8317 0
M  V30 2670 H 252.397 -1.83921 -2.54621 0
M  V30 2671 H 251.59 -4.20958 -2.77147 0
M  V30 2672 H 251.192 -3.55338 -1.16667 0
M  V30 2673 H 253.484 -5.94485 -3.24952 0
M  V30 2674 H 254.427 -6.79688 -1.9857 0
M  V30 2675 H 254.835 -5.10675 -2.40564 0
M  V30 2676 N 254.233 0.115231 -1.57178 0
M  V30 2677 C 255.458 0.840354 -1.89612 0
M  V30 2678 C 255.883 1.72464 -0.750845 0
M  V30 2679 O 255.241 1.78826 0.298478 0
M  V30 2680 C 255.289 1.64654 -3.20814 0
M  V30 2681 O 254.393 2.7538 -3.06985 0
M  V30 2682 H 253.734 0.232158 -0.622092 0
M  V30 2683 H 256.264 0.0964977 -2.04372 0
M  V30 2684 H 256.274 2.03499 -3.53627 0
M  V30 2685 H 254.949 0.997416 -4.03763 0
M  V30 2686 H 253.526 2.3971 -2.85646 0
M  V30 2687 N 255.711 1.52812 0.385517 0
M  V30 2688 C 256.641 1.80808 1.47752 0
M  V30 2689 C 257.622 0.660318 1.5676 0
M  V30 2690 O 258.807 0.908246 1.71652 0
M  V30 2691 C 255.937 1.98008 2.85324 0
M  V30 2692 C 254.891 3.13709 2.91154 0
M  V30 2693 C 254.217 3.16169 4.31209 0
M  V30 2694 C 255.517 4.52709 2.60483 0
M  V30 2695 H 257.211 2.72253 1.24573 0
M  V30 2696 H 254.757 1.31003 0.597839 0
M  V30 2697 H 256.71 2.16176 3.61726 0
M  V30 2698 H 255.434 1.03255 3.09848 0
M  V30 2699 H 254.093 2.95329 2.17201 0
M  V30 2700 H 253.741 2.19092 4.52778 0
M  V30 2701 H 253.441 3.93894 4.36029 0
M  V30 2702 H 254.965 3.36496 5.09512 0
M  V30 2703 H 256.379 4.71173 3.26602 0
M  V30 2704 H 254.776 5.32528 2.76648 0
M  V30 2705 H 255.846 4.59186 1.55809 0
M  V30 2706 N 257.189 -0.644168 1.43834 0
M  V30 2707 C 258.152 -1.73857 1.49353 0
M  V30 2708 C 259.152 -1.56315 0.377112 0
M  V30 2709 O 260.342 -1.62048 0.639226 0
M  V30 2710 C 257.474 -3.12819 1.35488 0
M  V30 2711 H 258.667 -1.70342 2.46827 0
M  V30 2712 H 256.22 -0.856652 1.30733 0
M  V30 2713 H 256.955 -3.2194 0.390569 0
M  V30 2714 H 256.74 -3.26958 2.16428 0
M  V30 2715 H 258.23 -3.92606 1.42302 0
M  V30 2716 N 258.668 -1.30515 -0.883378 0
M  V30 2717 C 259.945 -1.10086 -1.6168 0
M  V30 2718 C 260.325 0.349269 -2.08191 0
M  V30 2719 O 259.673 1.34105 -1.85008 0
M  V30 2720 C 259.883 -2.10315 -2.78511 0
M  V30 2721 C 261.231 -2.42119 -3.48803 0
M  V30 2722 O 262.255 -2.08638 -2.88702 0
M  V30 2723 O 261.114 -2.99396 -4.57192 0
M  V30 2724 H 258.208 -0.422907 -0.710689 0
M  V30 2725 H 260.754 -1.41947 -0.930015 0
M  V30 2726 H 259.526 -3.07917 -2.41459 0
M  V30 2727 H 259.149 -1.79282 -3.54886 0
M  V30 2728 N 260.146 1.09593 -1.13257 0
M  V30 2729 C 261.076 2.18214 -0.830946 0
M  V30 2730 C 262.057 1.68812 0.208966 0
M  V30 2731 O 263.242 1.9408 0.0682666 0
M  V30 2732 C 260.372 3.46051 -0.294296 0
M  V30 2733 C 259.326 4.08778 -1.26826 0
M  V30 2734 C 258.652 5.31419 -0.591449 0
M  V30 2735 C 259.952 4.51476 -2.62615 0
M  V30 2736 H 261.646 2.43703 -1.73923 0
M  V30 2737 H 259.192 1.17128 -0.837675 0
M  V30 2738 H 261.145 4.2134 -0.0709606 0
M  V30 2739 H 259.869 3.20079 0.649366 0
M  V30 2740 H 258.528 3.35505 -1.47756 0
M  V30 2741 H 258.176 5.01727 0.357633 0
M  V30 2742 H 257.876 5.74341 -1.24123 0
M  V30 2743 H 259.4 6.09433 -0.377355 0
M  V30 2744 H 260.814 5.17999 -2.45663 0
M  V30 2745 H 259.211 5.05277 -3.23752 0
M  V30 2746 H 260.281 3.63962 -3.20406 0
M  V30 2747 N 261.624 0.925811 1.2754 0
M  V30 2748 C 262.556 0.380753 2.26015 0
M  V30 2749 C 263.569 -0.487485 1.5533 0
M  V30 2750 O 264.758 -0.300413 1.75954 0
M  V30 2751 C 261.858 -0.473259 3.35579 0
M  V30 2752 C 261.031 0.375249 4.35787 0
M  V30 2753 C 260.09 -0.415809 5.24555 0
M  V30 2754 O 259.116 0.175834 5.68928 0
M  V30 2755 N 260.318 -1.71607 5.54555 0
M  V30 2756 H 263.083 1.22725 2.73421 0
M  V30 2757 H 260.644 0.793037 1.41147 0
M  V30 2758 H 262.636 -1.00949 3.91907 0
M  V30 2759 H 261.206 -1.2205 2.87789 0
M  V30 2760 H 260.426 1.09279 3.7875 0
M  V30 2761 H 261.714 0.955399 4.99749 0
M  V30 2762 H 261.112 -2.2191 5.20358 0
M  V30 2763 H 259.669 -2.19887 6.1359 0
M  V30 2764 N 263.102 -1.41638 0.69111 0
M  V30 2765 C 264.379 -1.95036 0.148421 0
M  V30 2766 C 264.759 -1.63072 -1.34055 0
M  V30 2767 O 264.107 -0.93538 -2.08478 0
M  V30 2768 C 264.317 -3.46279 0.434951 0
M  V30 2769 C 265.665 -4.23069 0.360275 0
M  V30 2770 O 266.689 -3.54277 0.369613 0
M  V30 2771 O 265.548 -5.45583 0.316534 0
M  V30 2772 H 262.642 -0.826908 0.0123654 0
M  V30 2773 H 265.188 -1.5138 0.766963 0
M  V30 2774 H 263.96 -3.6281 1.46576 0
M  V30 2775 H 263.583 -3.97019 -0.214787 0
M  V30 2776 N 264.58 -0.43555 -1.51462 0
M  V30 2777 C 265.513 0.421989 -2.24264 0
M  V30 2778 C 266.491 1.02619 -1.26127 0
M  V30 2779 O 267.675 1.069 -1.55257 0
M  V30 2780 C 264.802 1.588 -2.99166 0
M  V30 2781 C 263.848 1.10465 -4.11946 0
M  V30 2782 S 264.681 0.048146 -5.35478 0
M  V30 2783 C 265.837 1.21887 -6.13917 0
M  V30 2784 H 266.07 -0.196102 -2.96653 0
M  V30 2785 H 263.603 -0.220054 -1.52824 0
M  V30 2786 H 265.561 2.25647 -3.42919 0
M  V30 2787 H 264.222 2.1775 -2.26371 0
M  V30 2788 H 263.415 1.97654 -4.63626 0
M  V30 2789 H 263.017 0.51445 -3.70445 0
M  V30 2790 H 265.309 2.13756 -6.42895 0
M  V30 2791 H 266.252 0.742076 -7.04201 0
M  V30 2792 H 266.66 1.45663 -5.45383 0
M  V30 2793 N 266.058 1.56714 -0.166846 0
M  V30 2794 C 267.283 2.01557 0.488833 0
M  V30 2795 C 267.708 1.0463 1.56314 0
M  V30 2796 O 267.066 0.0251304 1.81283 0
M  V30 2797 C 267.114 3.4503 1.04818 0
M  V30 2798 O 266.218 3.51163 2.16236 0
M  V30 2799 H 265.559 0.653516 0.117526 0
M  V30 2800 H 268.089 2.02818 -0.269421 0
M  V30 2801 H 268.099 3.84243 1.37191 0
M  V30 2802 H 266.774 4.15077 0.261572 0
M  V30 2803 H 265.351 3.23807 1.84942 0
M  V30 2804 N 267.536 -0.106894 1.57237 0
M  V30 2805 C 268.947 -0.662723 1.74542 0
M  V30 2806 C 269.298 -1.7971 0.787319 0
M  V30 2807 O 268.423 -2.16368 -0.0369636 0
M  V30 2808 C 269.018 -1.20896 3.16496 0
M  V30 2809 C 267.577 -1.71096 3.35266 0
M  V30 2810 C 266.724 -0.615642 2.7038 0
M  V30 2811 H 269.675 0.119106 1.58252 0
M  V30 2812 H 269.696 -2.07847 3.18716 0
M  V30 2813 H 269.208 -0.383122 3.86204 0
M  V30 2814 H 267.309 -2.56119 2.70618 0
M  V30 2815 H 267.422 -1.81208 4.43509 0
M  V30 2816 H 265.786 -1.05222 2.31949 0
M  V30 2817 H 266.569 0.199419 3.4272 0
M  V30 2818 N 269.014 -1.53014 -0.377408 0
M  V30 2819 C 269.947 -1.73382 -1.48371 0
M  V30 2820 C 270.925 -0.581879 -1.51832 0
M  V30 2821 O 272.109 -0.81307 -1.70063 0
M  V30 2822 C 269.236 -1.80192 -2.8679 0
M  V30 2823 C 268.282 -3.02056 -3.01105 0
M  V30 2824 S 269.115 -4.61811 -2.71093 0
M  V30 2825 C 270.271 -4.71453 -4.11683 0
M  V30 2826 H 270.504 -2.66946 -1.30872 0
M  V30 2827 H 268.037 -1.43453 -0.571012 0
M  V30 2828 H 269.995 -1.84802 -3.6655 0
M  V30 2829 H 268.656 -0.877008 -3.01608 0
M  V30 2830 H 267.849 -3.03396 -4.02451 0
M  V30 2831 H 267.451 -2.95498 -2.29253 0
M  V30 2832 H 269.743 -4.50781 -5.0577 0
M  V30 2833 H 270.686 -5.73487 -4.15353 0
M  V30 2834 H 271.094 -4.00189 -3.98132 0
M  V30 2835 N 270.492 0.636531 -1.44174 0
M  V30 2836 C 271.422 1.76003 -1.53444 0
M  V30 2837 C 272.403 1.65619 -0.387841 0
M  V30 2838 O 273.588 1.84461 -0.607257 0
M  V30 2839 C 270.718 3.14511 -1.4731 0
M  V30 2840 C 269.672 3.39677 -2.60391 0
M  V30 2841 C 268.998 4.78159 -2.39308 0
M  V30 2842 C 270.298 3.32772 -4.02567 0
M  V30 2843 H 271.992 1.68501 -2.47483 0
M  V30 2844 H 269.538 0.809237 -1.19111 0
M  V30 2845 H 271.491 3.92878 -1.52397 0
M  V30 2846 H 270.215 3.22783 -0.49785 0
M  V30 2847 H 268.874 2.63688 -2.54684 0
M  V30 2848 H 268.522 4.83128 -1.39988 0
M  V30 2849 H 268.222 4.95956 -3.15122 0
M  V30 2850 H 269.746 5.58762 -2.46205 0
M  V30 2851 H 271.16 4.01051 -4.09672 0
M  V30 2852 H 269.557 3.62104 -4.7854 0
M  V30 2853 H 270.627 2.30669 -4.2652 0
M  V30 2854 N 271.97 1.30982 0.876444 0
M  V30 2855 C 272.9 1.20668 1.99903 0
M  V30 2856 C 273.881 0.095354 1.69833 0
M  V30 2857 O 275.066 0.27885 1.92188 0
M  V30 2858 C 272.196 0.90655 3.3526 0
M  V30 2859 C 271.15 1.97675 3.79617 0
M  V30 2860 C 270.476 1.52943 5.1236 0
M  V30 2861 C 271.776 3.389 3.97422 0
M  V30 2862 H 273.47 2.14586 2.0879 0
M  V30 2863 H 271.016 1.03308 1.00317 0
M  V30 2864 H 272.969 0.821025 4.13324 0
M  V30 2865 H 271.693 -0.0682969 3.26529 0
M  V30 2866 H 270.352 2.05205 3.03787 0
M  V30 2867 H 270 0.54262 5.00065 0
M  V30 2868 H 269.7 2.24532 5.43009 0
M  V30 2869 H 271.224 1.45786 5.92941 0
M  V30 2870 H 272.638 3.34081 4.659 0
M  V30 2871 H 271.035 4.0865 4.3946 0
M  V30 2872 H 272.105 3.80163 3.01006 0
M  V30 2873 N 273.449 -1.08991 1.13837 0
M  V30 2874 C 274.674 -1.85551 0.926585 0
M  V30 2875 C 275.099 -1.80782 -0.519566 0
M  V30 2876 O 274.457 -1.18855 -1.36906 0
M  V30 2877 C 274.505 -3.31266 1.42462 0
M  V30 2878 O 273.609 -4.07822 0.612789 0
M  V30 2879 H 272.95 -0.575192 0.331738 0
M  V30 2880 H 275.48 -1.37604 1.51414 0
M  V30 2881 H 275.49 -3.82112 1.43019 0
M  V30 2882 H 274.165 -3.34052 2.47754 0
M  V30 2883 H 272.742 -3.66731 0.675463 0
M  V30 2884 N 274.927 -0.932562 -1.27047 0
M  V30 2885 C 276.167 -0.582919 -1.95912 0
M  V30 2886 C 276.531 0.860629 -1.71631 0
M  V30 2887 O 277.732 1.31878 -2.34225 0
M  V30 2888 C 276.003 -0.905673 -3.45734 0
M  V30 2889 S 277.562 -0.665277 -4.33727 0
M  V30 2890 H 274.38 -0.215 -0.677714 0
M  V30 2891 H 276.982 -1.20204 -1.54179 0
M  V30 2892 H 275.686 -1.95386 -3.60905 0
M  V30 2893 H 275.217 -0.275939 -3.92431 0
M  V30 2894 H 277.232 0.474635 -4.93925 0
M  V30 2895 N 276.405 1.4127 -0.698611 0
M  V30 2896 C 277.353 2.32588 -0.023855 0
M  V30 2897 C 278.347 1.51128 0.765292 0
M  V30 2898 O 279.553 1.67043 0.670571 0
M  V30 2899 H 275.928 0.751918 0.0110871 0
M  V30 2900 H 277.899 2.87167 -0.811031 0
M  V30 2901 C 276.648 3.35947 0.896369 0
M  V30 2902 H 275.971 3.98684 0.298548 0
M  V30 2903 H 277.411 4.02376 1.33676 0
M  V30 2904 C 275.87 2.70076 2.01396 0
M  V30 2905 O 276.4 2.55093 3.10307 0
M  V30 2906 N 274.606 2.28724 1.79259 0
M  V30 2907 H 274.153 2.4111 0.906841 0
M  V30 2908 H 274.111 1.84986 2.54219 0
M  V30 2909 N 277.883 0.443576 1.51229 0
M  V30 2910 C 279.131 -0.120557 2.0174 0
M  V30 2911 C 279.452 -1.42665 1.32935 0
M  V30 2912 O 278.722 -1.9028 0.465866 0
M  V30 2913 H 277.302 -0.0475426 0.745486 0
M  V30 2914 H 279.964 0.587711 1.85828 0
M  V30 2915 H 279.06 -0.291972 3.10731 0
M  V30 2916 N 279.361 -1.56624 0.175154 0
M  V30 2917 C 280.772 -1.83561 -0.340916 0
M  V30 2918 C 281.123 -1.09511 -1.62794 0
M  V30 2919 O 280.248 -0.349389 -2.13561 0
M  V30 2920 C 280.843 -3.32979 -0.625313 0
M  V30 2921 C 279.402 -3.60399 -1.08581 0
M  V30 2922 C 278.549 -2.77024 -0.123722 0
M  V30 2923 H 281.5 -1.53593 0.399344 0
M  V30 2924 H 281.521 -3.50666 -1.47694 0
M  V30 2925 H 281.033 -3.86847 0.311575 0
M  V30 2926 H 279.134 -3.11945 -2.03767 0
M  V30 2927 H 279.247 -4.68711 -0.992317 0
M  V30 2928 H 277.611 -2.46993 -0.621821 0
M  V30 2929 H 278.394 -3.33674 0.807256 0
M  V30 2930 N 280.839 0.0985539 -1.57292 0
M  V30 2931 C 282.116 0.834155 -1.76921 0
M  V30 2932 C 282.496 1.97101 -0.755928 0
M  V30 2933 O 281.844 2.27474 0.216245 0
M  V30 2934 C 282.054 1.33194 -3.22584 0
M  V30 2935 C 283.402 1.77611 -3.85668 0
M  V30 2936 O 284.426 1.42825 -3.26312 0
M  V30 2937 O 283.285 2.4192 -4.90038 0
M  V30 2938 H 280.379 0.397628 -0.725135 0
M  V30 2939 H 282.925 0.0807044 -1.69508 0
M  V30 2940 H 281.697 0.517248 -3.87866 0
M  V30 2941 H 281.32 2.1475 -3.34616 0
M  V30 2942 N 282.317 1.53212 0.369288 0
M  V30 2943 C 283.264 1.79388 1.45219 0
M  V30 2944 C 284.234 0.638059 1.53356 0
M  V30 2945 O 285.419 0.879852 1.69302 0
M  V30 2946 C 282.559 1.98623 2.82211 0
M  V30 2947 C 281.672 3.26337 2.8307 0
M  V30 2948 C 280.807 3.35779 4.11614 0
M  V30 2949 C 279.846 4.5754 4.06601 0
M  V30 2950 N 278.983 4.64155 5.26787 0
M  V30 2951 H 283.823 2.71794 1.22198 0
M  V30 2952 H 281.36 1.34642 0.592444 0
M  V30 2953 H 283.318 2.07761 3.61789 0
M  V30 2954 H 281.948 1.09558 3.03639 0
M  V30 2955 H 281 3.26171 1.95747 0
M  V30 2956 H 282.312 4.15988 2.75237 0
M  V30 2957 H 281.466 3.44208 4.99606 0
M  V30 2958 H 280.205 2.44137 4.22195 0
M  V30 2959 H 279.21 4.49215 3.16996 0
M  V30 2960 H 280.435 5.50519 3.97625 0
M  V30 2961 H 278.381 3.75413 5.3796 0
M  V30 2962 H 278.298 5.47706 5.21109 0
M  V30 2963 H 279.566 4.76863 6.16621 0
M  V30 2964 N 283.795 -0.628877 1.44509 0
M  V30 2965 C 284.725 -1.75187 1.54376 0
M  V30 2966 C 285.706 -1.65411 0.396618 0
M  V30 2967 O 286.891 -1.84137 0.617031 0
M  V30 2968 C 284.021 -3.13725 1.48976 0
M  V30 2969 C 282.975 -3.38291 2.62189 0
M  V30 2970 C 282.301 -4.76883 2.41841 0
M  V30 2971 C 283.601 -3.30632 4.04326 0
M  V30 2972 H 285.295 -1.67187 2.48373 0
M  V30 2973 H 282.841 -0.802909 1.19538 0
M  V30 2974 H 284.794 -3.92064 1.54478 0
M  V30 2975 H 283.518 -3.22515 0.514961 0
M  V30 2976 H 282.177 -2.62334 2.56079 0
M  V30 2977 H 281.825 -4.82378 1.42548 0
M  V30 2978 H 281.525 -4.94278 3.17747 0
M  V30 2979 H 283.049 -5.57449 2.49165 0
M  V30 2980 H 284.463 -3.98873 4.11793 0
M  V30 2981 H 282.86 -3.59561 4.80454 0
M  V30 2982 H 283.93 -2.28404 4.27738 0
M  V30 2983 N 285.273 -1.31445 -0.869486 0
M  V30 2984 C 286.52 -1.21158 -1.62256 0
M  V30 2985 C 286.848 0.230155 -1.93133 0
M  V30 2986 O 286.103 1.17906 -1.56194 0
M  V30 2987 C 286.402 -2.00145 -2.96102 0
M  V30 2988 C 286.068 -3.4964 -2.84715 0
M  V30 2989 C 284.73 -3.90403 -2.81317 0
M  V30 2990 C 287.082 -4.44769 -2.71716 0
M  V30 2991 C 284.41 -5.24561 -2.62778 0
M  V30 2992 C 286.762 -5.79054 -2.54714 0
M  V30 2993 C 285.426 -6.19037 -2.49699 0
M  V30 2994 H 284.696 -0.443348 -0.593737 0
M  V30 2995 H 287.343 -1.62715 -1.00976 0
M  V30 2996 H 285.648 -1.5127 -3.6142 0
M  V30 2997 H 287.345 -1.89566 -3.53363 0
M  V30 2998 H 283.935 -3.17256 -2.88178 0
M  V30 2999 H 288.119 -4.14208 -2.73397 0
M  V30 3000 H 283.375 -5.54613 -2.57321 0
M  V30 3001 H 287.549 -6.52393 -2.43632 0
M  V30 3002 H 285.176 -7.22935 -2.35093 0
M  V30 3003 N 286.751 1.08385 -1.14413 0
M  V30 3004 C 288.028 1.77429 -0.823297 0
M  V30 3005 C 288.408 1.9974 0.683163 0
M  V30 3006 O 287.756 1.60739 1.62405 0
M  V30 3007 C 287.966 3.09004 -1.62227 0
M  V30 3008 C 289.314 3.83532 -1.82177 0
M  V30 3009 O 290.338 3.18786 -1.58915 0
M  V30 3010 O 289.197 4.99792 -2.21067 0
M  V30 3011 H 286.291 0.769999 -0.301712 0
M  V30 3012 H 288.837 1.14846 -1.24934 0
M  V30 3013 H 287.609 2.88316 -2.64555 0
M  V30 3014 H 287.232 3.79316 -1.19187 0
M  V30 3015 N 288.23 0.939286 1.26551 0
M  V30 3016 C 289.455 0.602008 1.98471 0
M  V30 3017 C 289.88 -0.815624 1.69497 0
M  V30 3018 O 289.238 -1.54912 0.941905 0
M  V30 3019 C 289.286 0.848407 3.50477 0
M  V30 3020 O 288.39 -0.0804009 4.12322 0
M  V30 3021 H 287.731 0.23049 0.622712 0
M  V30 3022 H 290.261 1.2617 1.61066 0
M  V30 3023 H 290.271 0.768553 4.00696 0
M  V30 3024 H 288.946 1.88171 3.70897 0
M  V30 3025 H 287.523 0.0503508 3.72866 0
M  V30 3026 N 289.708 -1.40897 0.706093 0
M  V30 3027 C 290.658 -2.27987 0.0240746 0
M  V30 3028 C 291.642 -1.42759 -0.742204 0
M  V30 3029 O 292.834 -1.65936 -0.615966 0
M  V30 3030 C 289.963 -3.31186 -0.903907 0
M  V30 3031 C 289.049 -4.2389 -0.133318 0
M  V30 3032 N 289.44 -4.98113 0.878444 0
M  V30 3033 C 287.738 -4.44485 -0.367269 0
M  V30 3034 C 288.439 -5.6604 1.34064 0
M  V30 3035 N 287.415 -5.39522 0.664565 0
M  V30 3036 H 291.217 -2.82812 0.799658 0
M  V30 3037 H 288.731 -1.53235 0.537845 0
M  V30 3038 H 290.728 -3.92413 -1.40775 0
M  V30 3039 H 289.388 -2.77922 -1.67897 0
M  V30 3040 H 290.399 -5.02364 1.25901 0
M  V30 3041 H 287.076 -4.02213 -1.1194 0
M  V30 3042 H 288.466 -6.35524 2.1808 0
M  V30 3043 N 291.186 -0.45159 -1.50991 0
M  V30 3044 C 292.133 0.352625 -2.2809 0
M  V30 3045 C 293.103 1.0044 -1.32291 0
M  V30 3046 O 294.288 1.02058 -1.6121 0
M  V30 3047 C 291.428 1.43983 -3.13629 0
M  V30 3048 C 290.541 0.804772 -4.24438 0
M  V30 3049 C 289.676 1.86822 -4.97263 0
M  V30 3050 C 288.715 1.21236 -5.99973 0
M  V30 3051 N 287.852 2.2178 -6.66152 0
M  V30 3052 H 292.692 -0.311186 -2.96371 0
M  V30 3053 H 290.229 -0.165308 -1.46168 0
M  V30 3054 H 292.187 2.08161 -3.61559 0
M  V30 3055 H 290.817 2.07307 -2.47434 0
M  V30 3056 H 289.869 0.0509129 -3.80366 0
M  V30 3057 H 291.181 0.286076 -4.97979 0
M  V30 3058 H 290.335 2.58628 -5.48813 0
M  V30 3059 H 289.074 2.42068 -4.23385 0
M  V30 3060 H 288.079 0.479828 -5.47702 0
M  V30 3061 H 289.304 0.667051 -6.75816 0
M  V30 3062 H 287.25 2.76079 -5.95077 0
M  V30 3063 H 287.167 1.74841 -7.35504 0
M  V30 3064 H 288.435 2.93026 -7.22327 0
M  V30 3065 N 292.664 1.56529 -0.183458 0
M  V30 3066 C 293.594 2.21549 0.737456 0
M  V30 3067 C 294.575 1.17489 1.23005 0
M  V30 3068 O 295.76 1.45959 1.281 0
M  V30 3069 C 292.89 2.86575 1.96194 0
M  V30 3070 C 291.844 3.96778 1.60473 0
M  V30 3071 C 291.17 4.48911 2.90487 0
M  V30 3072 C 292.47 5.15767 0.823497 0
M  V30 3073 H 294.164 2.98761 0.195453 0
M  V30 3074 H 291.71 1.43702 0.0925686 0
M  V30 3075 H 293.663 3.30739 2.61131 0
M  V30 3076 H 292.387 2.06749 2.52828 0
M  V30 3077 H 291.046 3.53286 0.978997 0
M  V30 3078 H 290.694 3.65862 3.45186 0
M  V30 3079 H 290.394 5.23265 2.67335 0
M  V30 3080 H 291.918 4.95771 3.56432 0
M  V30 3081 H 293.332 5.56549 1.37571 0
M  V30 3082 H 291.729 5.96114 0.690551 0
M  V30 3083 H 292.799 4.84574 -0.177782 0
M  V30 3084 N 294.142 -0.090211 1.57342 0
M  V30 3085 C 295.388 -0.793982 1.86611 0
M  V30 3086 C 295.721 -1.78142 0.773252 0
M  V30 3087 O 294.996 -1.93271 -0.218304 0
M  V30 3088 C 295.279 -1.51839 3.26523 0
M  V30 3089 C 295.132 -0.548609 4.46442 0
M  V30 3090 C 296.451 -2.46779 3.64401 0
M  V30 3091 H 293.57 -0.287186 0.678744 0
M  V30 3092 H 296.212 -0.0575076 1.89913 0
M  V30 3093 H 294.362 -2.14617 3.23839 0
M  V30 3094 H 296.034 0.0725513 4.61243 0
M  V30 3095 H 294.277 0.137614 4.33582 0
M  V30 3096 H 294.948 -1.09271 5.41076 0
M  V30 3097 H 297.424 -1.94089 3.68061 0
M  V30 3098 H 296.3 -2.94479 4.63221 0
M  V30 3099 H 296.561 -3.30758 2.93346 0
M  V30 3100 N 295.62 -1.53406 -0.361157 0
M  V30 3101 C 296.55 -1.83136 -1.44857 0
M  V30 3102 C 297.531 -0.685174 -1.5569 0
M  V30 3103 O 298.716 -0.93544 -1.70186 0
M  V30 3104 C 295.846 -2.02522 -2.82138 0
M  V30 3105 C 294.8 -3.18302 -2.86126 0
M  V30 3106 C 294.126 -3.22989 -4.26125 0
M  V30 3107 C 295.426 -4.56796 -2.53248 0
M  V30 3108 H 297.12 -2.74201 -1.20226 0
M  V30 3109 H 294.666 -1.31938 -0.576922 0
M  V30 3110 H 296.619 -2.21904 -3.58241 0
M  V30 3111 H 295.343 -1.08172 -3.08166 0
M  V30 3112 H 294.002 -2.98747 -2.12475 0
M  V30 3113 H 293.65 -2.26267 -4.49235 0
M  V30 3114 H 293.35 -4.00781 -4.29708 0
M  V30 3115 H 294.874 -3.44559 -5.04094 0
M  V30 3116 H 296.288 -4.7631 -3.19064 0
M  V30 3117 H 294.685 -5.36862 -2.68141 0
M  V30 3118 H 295.755 -4.61606 -1.48484 0
M  V30 3119 N 297.098 0.621204 -1.44841 0
M  V30 3120 C 298.046 1.75385 -1.52784 0
M  V30 3121 C 299.04 1.64639 -0.398779 0
M  V30 3122 O 300.246 1.70598 -0.574137 0
M  V30 3123 H 296.621 0.579193 -0.479625 0
M  V30 3124 H 298.592 1.6581 -2.48092 0
M  V30 3125 C 297.341 3.13742 -1.4987 0
M  V30 3126 H 296.664 3.22663 -2.36069 0
M  V30 3127 H 298.104 3.92861 -1.59487 0
M  V30 3128 C 296.563 3.36175 -0.220973 0
M  V30 3129 O 297.093 3.95469 0.704782 0
M  V30 3130 N 295.299 2.90348 -0.120963 0
M  V30 3131 H 294.846 2.42278 -0.875162 0
M  V30 3132 H 294.804 3.05732 0.733168 0
M  V30 3133 N 298.576 1.31904 0.862503 0
M  V30 3134 C 299.822 1.22197 1.61851 0
M  V30 3135 C 300.155 -0.217641 1.92977 0
M  V30 3136 O 299.43 -1.15264 1.56666 0
M  V30 3137 C 299.713 2.07378 2.94391 0
M  V30 3138 C 299.566 3.59678 2.70096 0
M  V30 3139 C 300.885 1.92891 3.95577 0
M  V30 3140 H 298.004 0.445255 0.587296 0
M  V30 3141 H 300.646 1.6177 0.99651 0
M  V30 3142 H 298.796 1.73758 3.47477 0
M  V30 3143 H 300.468 4.03472 2.23625 0
M  V30 3144 H 298.711 3.82735 2.04197 0
M  V30 3145 H 299.382 4.14595 3.64438 0
M  V30 3146 H 301.858 2.22327 3.51724 0
M  V30 3147 H 300.734 2.54781 4.86187 0
M  V30 3148 H 300.995 0.894315 4.3296 0
M  V30 3149 N 300.054 -1.07777 1.14986 0
M  V30 3150 C 301.465 -1.61766 0.932127 0
M  V30 3151 C 301.816 -1.88974 -0.527581 0
M  V30 3152 O 300.941 -1.65198 -1.39781 0
M  V30 3153 C 301.536 -2.93891 1.68563 0
M  V30 3154 C 300.095 -3.44639 1.5133 0
M  V30 3155 C 299.242 -2.18767 1.704 0
M  V30 3156 H 302.193 -0.909201 1.30074 0
M  V30 3157 H 302.214 -3.62623 1.15259 0
M  V30 3158 H 301.726 -2.74057 2.74799 0
M  V30 3159 H 299.827 -3.69564 0.474702 0
M  V30 3160 H 299.94 -4.20966 2.28746 0
M  V30 3161 H 298.304 -2.28253 1.13016 0
M  V30 3162 H 299.087 -2.01433 2.77992 0
M  V30 3163 N 301.532 -0.945985 -1.26051 0
M  V30 3164 C 302.779 -0.596118 -1.93527 0
M  V30 3165 C 303.107 0.865559 -1.74179 0
M  V30 3166 O 302.362 1.63524 -1.0751 0
M  V30 3167 C 302.661 -0.890475 -3.46129 0
M  V30 3168 C 302.327 -2.3368 -3.85622 0
M  V30 3169 C 300.989 -2.73216 -3.96114 0
M  V30 3170 C 303.341 -3.27648 -4.05334 0
M  V30 3171 C 300.669 -4.05806 -4.2372 0
M  V30 3172 C 303.021 -4.59841 -4.3443 0
M  V30 3173 C 301.685 -4.99185 -4.43137 0
M  V30 3174 H 300.955 -0.218135 -0.708165 0
M  V30 3175 H 303.602 -1.1934 -1.49768 0
M  V30 3176 H 301.907 -0.210711 -3.91233 0
M  V30 3177 H 303.604 -0.598478 -3.96509 0
M  V30 3178 H 300.194 -2.02015 -3.78005 0
M  V30 3179 H 304.378 -2.98298 -3.96651 0
M  V30 3180 H 299.634 -4.35945 -4.28675 0
M  V30 3181 H 303.808 -5.32641 -4.48628 0
M  V30 3182 H 301.435 -6.01952 -4.64282 0
M  V30 3183 N 303.011 1.40521 -0.713556 0
M  V30 3184 C 304.236 2.05759 -0.26035 0
M  V30 3185 C 304.661 1.53403 1.08854 0
M  V30 3186 O 304.019 0.668535 1.68524 0
M  V30 3187 C 304.067 3.59745 -0.248122 0
M  V30 3188 O 303.171 4.05123 0.77131 0
M  V30 3189 H 302.512 0.652564 -0.122703 0
M  V30 3190 H 305.042 1.79958 -0.973467 0
M  V30 3191 H 305.052 4.07911 -0.0851129 0
M  V30 3192 H 303.727 3.97218 -1.2325 0
M  V30 3193 H 302.304 3.68422 0.57619 0
M  V30 3194 N 304.489 0.459591 1.5075 0
M  V30 3195 C 305.766 -0.160371 1.94941 0
M  V30 3196 C 306.146 -1.58048 1.39943 0
M  V30 3197 O 305.494 -2.206 0.595629 0
M  V30 3198 C 305.704 -0.115432 3.48809 0
M  V30 3199 C 307.052 -0.310026 4.23467 0
M  V30 3200 O 308.076 -0.192543 3.55679 0
M  V30 3201 O 306.935 -0.546031 5.43765 0
M  V30 3202 H 304.029 -0.117925 0.818549 0
M  V30 3203 H 306.575 0.519169 1.61563 0
M  V30 3204 H 305.347 0.87652 3.81357 0
M  V30 3205 H 304.97 -0.836928 3.88692 0
M  V30 3206 N 305.967 -1.56429 0.191757 0
M  V30 3207 C 307.192 -2.02309 -0.456706 0
M  V30 3208 C 307.617 -1.07103 -1.5463 0
M  V30 3209 O 306.975 -0.0539677 -1.8122 0
M  V30 3210 C 307.023 -3.46654 -0.993159 0
M  V30 3211 O 306.127 -3.54559 -2.10622 0
M  V30 3212 H 305.468 -0.655303 -0.107114 0
M  V30 3213 H 307.998 -2.02364 0.301653 0
M  V30 3214 H 308.008 -3.86377 -1.31061 0
M  V30 3215 H 306.683 -4.1544 -0.195504 0
M  V30 3216 H 305.26 -3.26708 -1.79767 0
M  V30 3217 N 307.445 0.0818655 -1.57387 0
M  V30 3218 C 308.392 1.09834 -2.0299 0
M  V30 3219 C 309.362 1.39043 -0.908639 0
M  V30 3220 O 310.547 1.50282 -1.17559 0
M  V30 3221 C 307.687 2.40971 -2.47037 0
M  V30 3222 C 306.8 2.18379 -3.7274 0
M  V30 3223 C 305.935 3.43008 -4.0561 0
M  V30 3224 C 304.974 3.15736 -5.24383 0
M  V30 3225 N 304.111 4.32667 -5.52941 0
M  V30 3226 H 308.951 0.702472 -2.89602 0
M  V30 3227 H 306.488 0.33531 -1.43227 0
M  V30 3228 H 308.446 3.1752 -2.70623 0
M  V30 3229 H 307.076 2.78379 -1.63417 0
M  V30 3230 H 306.128 1.32569 -3.56552 0
M  V30 3231 H 307.44 1.94227 -4.59431 0
M  V30 3232 H 306.594 4.27958 -4.30043 0
M  V30 3233 H 305.333 3.70225 -3.17466 0
M  V30 3234 H 304.338 2.2918 -4.99757 0
M  V30 3235 H 305.563 2.8985 -6.14136 0
M  V30 3236 H 303.509 4.59935 -4.67756 0
M  V30 3237 H 303.426 4.11753 -6.34031 0
M  V30 3238 H 304.694 5.18644 -5.81918 0
M  V30 3239 N 308.923 1.53595 0.353017 0
M  V30 3240 C 310.339 1.43648 0.695516 0
M  V30 3241 C 310.539 0.585617 1.92802 0
M  V30 3242 O 309.595 0.0729223 2.52395 0
M  V30 3243 C 310.908 2.8701 0.896991 0
M  V30 3244 C 312.456 2.96723 0.996209 0
M  V30 3245 C 312.931 4.41173 1.23007 0
M  V30 3246 N 314.422 4.44657 1.29749 0
M  V30 3247 C 315.157 5.53547 1.49577 0
M  V30 3248 N 314.653 6.72461 1.66639 0
M  V30 3249 N 316.446 5.41145 1.52048 0
M  V30 3250 H 308.597 2.07415 -0.457481 0
M  V30 3251 H 310.86 0.9372 -0.142687 0
M  V30 3252 H 310.566 3.51644 0.0629938 0
M  V30 3253 H 310.44 3.31401 1.80148 0
M  V30 3254 H 312.827 2.32235 1.82074 0
M  V30 3255 H 312.908 2.55707 0.0688331 0
M  V30 3256 H 312.552 5.06238 0.410505 0
M  V30 3257 H 312.482 4.79772 2.17086 0
M  V30 3258 H 314.973 3.58963 1.18126 0
M  V30 3259 H 315.286 7.51214 1.81378 0
M  V30 3260 H 313.631 6.75423 1.63794 0
M  V30 3261 H 316.822 4.47205 1.38294 0
M  V30 3262 H 316.995 6.26068 1.67159 0
M  V30 3263 N 310.401 -0.613514 1.45168 0
M  V30 3264 C 311.647 -1.37471 1.49096 0
M  V30 3265 C 311.98 -1.93765 0.129901 0
M  V30 3266 O 311.255 -1.74707 -0.854858 0
M  V30 3267 C 311.538 -2.52701 2.56542 0
M  V30 3268 C 311.391 -2.01643 4.0207 0
M  V30 3269 C 312.71 -3.54849 2.60327 0
M  V30 3270 H 309.829 -0.498502 0.54283 0
M  V30 3271 H 312.471 -0.692125 1.76945 0
M  V30 3272 H 310.621 -3.10931 2.32926 0
M  V30 3273 H 312.293 -1.48108 4.36877 0
M  V30 3274 H 310.536 -1.32688 4.13009 0
M  V30 3275 H 311.207 -2.84681 4.72928 0
M  V30 3276 H 313.683 -3.0645 2.81474 0
M  V30 3277 H 312.559 -4.32973 3.37381 0
M  V30 3278 H 312.82 -4.10079 1.6519 0
M  V30 3279 N 311.879 -1.3236 -0.855495 0
M  V30 3280 C 313.295 -1.11332 -1.14356 0
M  V30 3281 C 313.495 0.106751 -2.01217 0
M  V30 3282 O 312.551 0.791891 -2.39761 0
M  V30 3283 C 313.864 -2.39237 -1.82171 0
M  V30 3284 C 315.412 -2.44986 -1.9481 0
M  V30 3285 C 315.887 -3.7281 -2.66039 0
M  V30 3286 N 317.378 -3.73787 -2.73565 0
M  V30 3287 C 318.113 -4.69394 -3.29327 0
M  V30 3288 N 317.609 -5.75367 -3.85907 0
M  V30 3289 N 319.402 -4.56893 -3.27423 0
M  V30 3290 H 311.553 -2.10586 -0.277027 0
M  V30 3291 H 313.816 -0.929701 -0.185364 0
M  V30 3292 H 313.522 -3.28431 -1.25802 0
M  V30 3293 H 313.396 -2.50134 -2.82335 0
M  V30 3294 H 315.783 -1.56252 -2.50338 0
M  V30 3295 H 315.864 -2.38043 -0.936448 0
M  V30 3296 H 315.508 -4.61918 -2.11174 0
M  V30 3297 H 315.438 -3.77024 -3.67642 0
M  V30 3298 H 317.929 -2.97189 -2.33424 0
M  V30 3299 H 318.242 -6.44378 -4.26611 0
M  V30 3300 H 316.587 -5.79123 -3.84242 0
M  V30 3301 H 319.778 -3.73269 -2.82467 0
M  V30 3302 H 319.951 -5.31577 -3.7058 0
M  V30 3303 N 313.357 1.07166 -1.15556 0
M  V30 3304 C 314.603 1.80065 -0.932984 0
M  V30 3305 C 314.936 1.86586 0.53845 0
M  V30 3306 O 314.211 1.35098 1.39924 0
M  V30 3307 C 314.494 3.25022 -1.55025 0
M  V30 3308 C 314.347 3.26634 -3.09242 0
M  V30 3309 C 315.666 4.22341 -1.2376 0
M  V30 3310 H 312.785 0.653697 -0.340366 0
M  V30 3311 H 315.427 1.25389 -1.4275 0
M  V30 3312 H 313.577 3.71712 -1.12972 0
M  V30 3313 H 315.249 2.88173 -3.60214 0
M  V30 3314 H 313.492 2.65539 -3.43033 0
M  V30 3315 H 314.163 4.28854 -3.47546 0
M  V30 3316 H 316.639 3.8405 -1.60139 0
M  V30 3317 H 315.515 5.22053 -1.69564 0
M  V30 3318 H 315.776 4.41828 -0.154938 0
M  V30 3319 N 314.835 0.952656 1.25548 0
M  V30 3320 C 316.082 0.606373 1.93208 0
M  V30 3321 C 316.41 -0.85631 1.74636 0
M  V30 3322 O 315.665 -1.62951 1.08376 0
M  V30 3323 C 315.964 0.908818 3.45652 0
M  V30 3324 C 315.63 2.35722 3.84378 0
M  V30 3325 C 314.292 2.75312 3.9466 0
M  V30 3326 C 316.644 3.29793 4.03591 0
M  V30 3327 C 313.972 4.08047 4.21562 0
M  V30 3328 C 316.324 4.62138 4.31985 0
M  V30 3329 C 314.988 5.01528 4.40484 0
M  V30 3330 H 314.258 0.221888 0.706998 0
M  V30 3331 H 316.905 1.20132 1.49133 0
M  V30 3332 H 315.21 0.231456 3.91116 0
M  V30 3333 H 316.907 0.619498 3.96186 0
M  V30 3334 H 313.497 2.04017 3.76928 0
M  V30 3335 H 317.681 3.00397 3.95064 0
M  V30 3336 H 312.937 4.38212 4.26357 0
M  V30 3337 H 317.111 5.35012 4.45797 0
M  V30 3338 H 314.738 6.04406 4.61083 0
M  V30 3339 N 316.313 -1.40141 0.720998 0
M  V30 3340 C 317.553 -2.02644 0.267335 0
M  V30 3341 C 317.917 -1.55948 -1.12001 0
M  V30 3342 O 319.118 -2.10552 -1.67097 0
M  V30 3343 C 317.389 -3.55679 0.350281 0
M  V30 3344 S 318.948 -4.38793 -0.0256004 0
M  V30 3345 H 315.766 -0.703105 0.105664 0
M  V30 3346 H 318.368 -1.71175 0.944416 0
M  V30 3347 H 317.072 -3.87157 1.36153 0
M  V30 3348 H 316.603 -3.91883 -0.345096 0
M  V30 3349 H 318.618 -4.803 -1.24604 0
M  V30 3350 N 317.792 -0.46758 -1.50504 0
M  V30 3351 C 318.755 0.317059 -2.26996 0
M  V30 3352 C 319.755 0.923513 -1.31635 0
M  V30 3353 O 320.945 0.793239 -1.55091 0
M  V30 3354 C 318.077 1.45134 -3.08462 0
M  V30 3355 H 319.27 -0.353723 -2.97807 0
M  V30 3356 H 316.823 -0.221545 -1.54722 0
M  V30 3357 H 317.558 2.15728 -2.4214 0
M  V30 3358 H 317.343 1.02232 -3.78538 0
M  V30 3359 H 318.833 2.00493 -3.66323 0
M  V30 3360 N 319.27 1.56325 -0.20005 0
M  V30 3361 C 320.686 1.58839 0.155716 0
M  V30 3362 C 320.886 1.21636 1.60645 0
M  V30 3363 O 319.942 0.941437 2.34293 0
M  V30 3364 C 321.255 3.0032 -0.151124 0
M  V30 3365 C 322.803 3.12866 -0.0916284 0
M  V30 3366 C 323.278 4.56488 -0.371845 0
M  V30 3367 N 324.769 4.62089 -0.320641 0
M  V30 3368 C 325.504 5.71116 -0.511243 0
M  V30 3369 N 325 6.88592 -0.762461 0
M  V30 3370 N 326.793 5.60335 -0.445157 0
M  V30 3371 H 318.944 1.78788 -1.14668 0
M  V30 3372 H 321.207 0.829996 -0.458051 0
M  V30 3373 H 320.913 3.32117 -1.15721 0
M  V30 3374 H 320.787 3.73257 0.543986 0
M  V30 3375 H 323.174 2.80878 0.905065 0
M  V30 3376 H 323.255 2.42304 -0.81989 0
M  V30 3377 H 322.899 4.89189 -1.36588 0
M  V30 3378 H 322.829 5.25246 0.377362 0
M  V30 3379 H 325.32 3.77665 -0.13329 0
M  V30 3380 H 325.633 7.67581 -0.896576 0
M  V30 3381 H 323.978 6.90387 -0.799412 0
M  V30 3382 H 327.169 4.67436 -0.249278 0
M  V30 3383 H 327.342 6.45243 -0.597116 0
M  V30 3384 N 320.748 -0.0735177 1.57428 0
M  V30 3385 C 321.996 -0.771472 1.86796 0
M  V30 3386 C 322.317 -1.78201 0.791804 0
M  V30 3387 O 321.587 -1.95074 -0.179718 0
M  V30 3388 H 320.167 -0.28791 0.689287 0
M  V30 3389 H 322.829 -0.0500161 1.94836 0
M  V30 3390 H 321.925 -1.28874 2.8425 0
M  V30 3391 N 322.226 -1.5378 -0.344866 0
M  V30 3392 C 323.474 -1.70625 -1.08311 0
M  V30 3393 C 323.795 -0.471447 -1.89215 0
M  V30 3394 O 323.065 0.514616 -1.8902 0
M  V30 3395 H 321.645 -0.629058 -0.402859 0
M  V30 3396 H 324.307 -1.9103 -0.386459 0
M  V30 3397 H 323.403 -2.57656 -1.76124 0
M  V30 3398 N 323.704 0.605807 -1.45491 0
M  V30 3399 C 324.652 1.73754 -1.54636 0
M  V30 3400 C 325.646 1.64207 -0.416219 0
M  V30 3401 O 326.852 1.69979 -0.592199 0
M  V30 3402 H 323.227 0.574073 -0.485741 0
M  V30 3403 H 325.198 1.63169 -2.49837 0
M  V30 3404 C 323.947 3.12135 -1.53189 0
M  V30 3405 H 323.27 3.20141 -2.39478 0
M  V30 3406 H 324.71 3.91147 -1.63645 0
M  V30 3407 C 323.169 3.35921 -0.256616 0
M  V30 3408 O 323.699 3.96194 0.662798 0
M  V30 3409 N 321.905 2.90204 -0.151751 0
M  V30 3410 H 321.452 2.41336 -0.90081 0
M  V30 3411 H 321.41 3.06492 0.700699 0
M  V30 3412 N 325.182 1.32811 0.848464 0
M  V30 3413 C 326.407 1.26882 1.6406 0
M  V30 3414 C 326.832 -0.15913 1.87426 0
M  V30 3415 O 326.19 -1.11258 1.43148 0
M  V30 3416 C 326.238 2.03997 2.97351 0
M  V30 3417 O 325.342 1.39201 3.88197 0
M  V30 3418 H 324.683 0.436982 0.499943 0
M  V30 3419 H 327.213 1.75224 1.0563 0
M  V30 3420 H 327.223 2.14403 3.47124 0
M  V30 3421 H 325.898 3.0783 2.79666 0
M  V30 3422 H 324.475 1.37381 3.46671 0
M  V30 3423 N 326.66 -1.06551 1.16123 0
M  V30 3424 C 327.59 -2.15935 0.88851 0
M  V30 3425 C 328.571 -1.69306 -0.164135 0
M  V30 3426 O 329.756 -1.94193 -0.0167857 0
M  V30 3427 C 326.886 -3.45149 0.385942 0
M  V30 3428 C 325.84 -4.05271 1.3762 0
M  V30 3429 C 325.166 -5.29664 0.732137 0
M  V30 3430 C 326.466 -4.44355 2.74493 0
M  V30 3431 H 328.16 -2.39006 1.80323 0
M  V30 3432 H 325.706 -1.14866 0.868435 0
M  V30 3433 H 327.659 -4.21004 0.182647 0
M  V30 3434 H 326.383 -3.21689 -0.564274 0
M  V30 3435 H 325.042 -3.3147 1.56599 0
M  V30 3436 H 324.69 -5.02499 -0.224483 0
M  V30 3437 H 324.39 -5.70848 1.39307 0
M  V30 3438 H 325.914 -6.08218 0.538802 0
M  V30 3439 H 327.328 -5.11303 2.59311 0
M  V30 3440 H 325.725 -4.96515 3.37035 0
M  V30 3441 H 326.795 -3.55339 3.29943 0
M  V30 3442 N 328.138 -0.959301 -1.25041 0
M  V30 3443 C 329.363 -0.633507 -1.97488 0
M  V30 3444 C 329.788 0.788555 -1.70773 0
M  V30 3445 O 329.146 1.53394 -0.966431 0
M  V30 3446 C 329.194 -0.904057 -3.49083 0
M  V30 3447 O 328.298 0.0147939 -4.12397 0
M  V30 3448 H 327.639 -0.240368 -0.618966 0
M  V30 3449 H 330.169 -1.28717 -1.59038 0
M  V30 3450 H 330.179 -0.832203 -3.99423 0
M  V30 3451 H 328.854 -1.94048 -3.67856 0
M  V30 3452 H 327.431 -0.109664 -3.72739 0
M  V30 3453 N 329.616 1.39756 -0.72842 0
M  V30 3454 C 330.893 1.94574 -0.200079 0
M  V30 3455 C 331.273 1.66569 1.29684 0
M  V30 3456 O 330.621 0.990326 2.05924 0
M  V30 3457 C 330.831 3.45004 -0.526608 0
M  V30 3458 C 332.179 4.21965 -0.472318 0
M  V30 3459 O 333.203 3.53173 -0.463413 0
M  V30 3460 O 332.062 5.44552 -0.461075 0
M  V30 3461 H 329.156 0.826289 -0.0342851 0
M  V30 3462 H 331.702 1.49293 -0.806829 0
M  V30 3463 H 330.474 3.58796 -1.56144 0
M  V30 3464 H 330.097 3.97449 0.109449 0
M  V30 3465 N 331.094 0.475555 1.50254 0
M  V30 3466 C 332.324 -0.0753399 2.06463 0
M  V30 3467 C 332.732 -1.33661 1.33908 0
M  V30 3468 O 332.075 -1.79219 0.403257 0
M  V30 3469 C 332.137 -0.424921 3.5698 0
M  V30 3470 C 331.801 0.734965 4.51051 0
M  V30 3471 C 332.798 1.61827 4.94073 0
M  V30 3472 C 330.483 0.926557 4.9368 0
M  V30 3473 C 332.477 2.67754 5.78434 0
M  V30 3474 C 330.164 1.98904 5.77824 0
M  V30 3475 C 331.162 2.8629 6.20103 0
M  V30 3476 O 330.85 3.90708 7.02568 0
M  V30 3477 H 330.582 0.00576308 0.675975 0
M  V30 3478 H 333.136 0.664662 1.94349 0
M  V30 3479 H 331.366 -1.21817 3.67012 0
M  V30 3480 H 333.055 -0.911422 3.95535 0
M  V30 3481 H 333.821 1.48196 4.61804 0
M  V30 3482 H 329.7 0.25584 4.6029 0
M  V30 3483 H 333.244 3.35992 6.11355 0
M  V30 3484 H 329.141 2.12541 6.09505 0
M  V30 3485 H 329.909 3.87751 7.20827 0
M  V30 3486 N 332.573 -1.56217 0.208337 0
M  V30 3487 C 333.52 -2.19699 -0.707192 0
M  V30 3488 C 334.49 -1.14836 -1.20008 0
M  V30 3489 O 335.675 -1.4314 -1.26157 0
M  V30 3490 C 332.815 -2.87061 -1.91546 0
M  V30 3491 C 331.928 -4.06483 -1.46271 0
M  V30 3492 C 331.063 -4.61665 -2.62752 0
M  V30 3493 C 330.102 -5.73417 -2.14147 0
M  V30 3494 N 329.239 -6.22948 -3.23853 0
M  V30 3495 H 334.079 -2.97575 -0.159111 0
M  V30 3496 H 331.616 -1.46948 -0.0667874 0
M  V30 3497 H 333.574 -3.24294 -2.62468 0
M  V30 3498 H 332.204 -2.11725 -2.43664 0
M  V30 3499 H 331.256 -3.74825 -0.648886 0
M  V30 3500 H 332.568 -4.87271 -1.06622 0
M  V30 3501 H 331.722 -5.01272 -3.41776 0
M  V30 3502 H 330.461 -3.80013 -3.05682 0
M  V30 3503 H 329.466 -5.33326 -1.33581 0
M  V30 3504 H 330.691 -6.56897 -1.72232 0
M  V30 3505 H 328.637 -5.44213 -3.6629 0
M  V30 3506 H 328.554 -6.98823 -2.88414 0
M  V30 3507 H 329.822 -6.6721 -4.03052 0
M  V30 3508 N 334.051 0.0651679 -1.57465 0
M  V30 3509 C 334.983 1.10359 -2.00882 0
M  V30 3510 C 335.996 1.346 -0.915788 0
M  V30 3511 O 337.185 1.32723 -1.1936 0
M  V30 3512 C 334.285 2.45312 -2.33828 0
M  V30 3513 C 333.458 2.40934 -3.65061 0
M  V30 3514 C 332.517 3.58047 -3.85602 0
M  V30 3515 O 331.543 3.39175 -4.57109 0
M  V30 3516 N 332.745 4.78637 -3.28462 0
M  V30 3517 H 335.51 0.733807 -2.90578 0
M  V30 3518 H 333.071 0.253719 -1.599 0
M  V30 3519 H 335.063 3.22314 -2.44737 0
M  V30 3520 H 333.633 2.74267 -1.49988 0
M  V30 3521 H 332.853 1.49273 -3.64844 0
M  V30 3522 H 334.141 2.35117 -4.51218 0
M  V30 3523 H 333.539 4.96872 -2.70433 0
M  V30 3524 H 332.096 5.53127 -3.44809 0
M  V30 3525 N 335.529 1.53961 0.336706 0
M  V30 3526 C 336.775 1.7179 1.07777 0
M  V30 3527 C 337.108 0.483263 1.88091 0
M  V30 3528 O 336.383 -0.519747 1.87427 0
M  V30 3529 C 336.666 2.98558 2.01334 0
M  V30 3530 C 336.519 4.32245 1.24437 0
M  V30 3531 C 337.838 3.21023 3.01052 0
M  V30 3532 H 334.957 0.625089 0.390426 0
M  V30 3533 H 337.599 1.86641 0.35567 0
M  V30 3534 H 335.749 2.86028 2.62908 0
M  V30 3535 H 337.421 4.56637 0.654243 0
M  V30 3536 H 335.664 4.30344 0.546458 0
M  V30 3537 H 336.335 5.17137 1.93063 0
M  V30 3538 H 338.811 3.32929 2.49595 0
M  V30 3539 H 337.687 4.11104 3.6371 0
M  V30 3540 H 337.948 2.37637 3.72802 0
M  V30 3541 N 337.007 -0.598083 1.45811 0
M  V30 3542 C 337.937 -1.71873 1.58057 0
M  V30 3543 C 338.918 -1.64533 0.431615 0
M  V30 3544 O 340.103 -1.82787 0.65595 0
M  V30 3545 C 337.233 -3.10495 1.55597 0
M  V30 3546 C 336.187 -3.32654 2.69305 0
M  V30 3547 C 335.513 -4.71646 2.51902 0
M  V30 3548 C 336.813 -3.21981 4.11248 0
M  V30 3549 H 338.507 -1.61881 2.51863 0
M  V30 3550 H 336.053 -0.777372 1.21214 0
M  V30 3551 H 338.006 -3.88699 1.6276 0
M  V30 3552 H 336.73 -3.2135 0.583255 0
M  V30 3553 H 335.389 -2.56843 2.61586 0
M  V30 3554 H 335.037 -4.79246 1.52748 0
M  V30 3555 H 334.737 -4.87426 3.2816 0
M  V30 3556 H 336.261 -5.52038 2.60933 0
M  V30 3557 H 337.675 -3.90049 4.20161 0
M  V30 3558 H 336.072 -3.49289 4.87972 0
M  V30 3559 H 337.142 -2.1928 4.32486 0
M  V30 3560 N 338.485 -1.33259 -0.841409 0
M  V30 3561 C 339.733 -1.24326 -1.59334 0
M  V30 3562 C 340.054 0.191564 -1.94057 0
M  V30 3563 O 339.324 1.11967 -1.60749 0
M  V30 3564 H 337.904 -0.457174 -0.590763 0
M  V30 3565 H 340.566 -1.66947 -1.00571 0
M  V30 3566 H 339.662 -1.8352 -2.52442 0
M  V30 3567 N 339.963 1.05934 -1.16686 0
M  V30 3568 C 341.374 1.60263 -0.957745 0
M  V30 3569 C 341.725 1.89789 0.49745 0
M  V30 3570 O 340.85 1.67401 1.37135 0
M  V30 3571 C 341.445 2.91172 -1.73218 0
M  V30 3572 C 340.004 3.42188 -1.56794 0
M  V30 3573 C 339.151 2.16028 -1.73859 0
M  V30 3574 H 342.102 0.888392 -1.31504 0
M  V30 3575 H 342.123 3.60744 -1.21014 0
M  V30 3576 H 341.635 2.6965 -2.79124 0
M  V30 3577 H 339.736 3.68762 -0.533437 0
M  V30 3578 H 339.849 4.17273 -2.35414 0
M  V30 3579 H 338.213 2.26426 -1.16633 0
M  V30 3580 H 338.996 1.96985 -2.81161 0
M  V30 3581 N 341.441 0.965919 1.2453 0
M  V30 3582 C 342.373 0.452465 2.2469 0
M  V30 3583 C 343.386 -0.437821 1.56802 0
M  V30 3584 O 344.575 -0.244283 1.76821 0
M  V30 3585 C 341.675 -0.366258 3.36915 0
M  V30 3586 C 340.848 0.513701 4.34373 0
M  V30 3587 C 339.907 -0.248716 5.25612 0
M  V30 3588 O 338.933 0.356745 5.68081 0
M  V30 3589 N 340.135 -1.53877 5.59734 0
M  V30 3590 H 342.9 1.31361 2.69378 0
M  V30 3591 H 340.461 0.837541 1.38553 0
M  V30 3592 H 342.453 -0.884297 3.94921 0
M  V30 3593 H 341.023 -1.12832 2.91526 0
M  V30 3594 H 340.243 1.21273 3.75082 0
M  V30 3595 H 341.531 1.11391 4.96457 0
M  V30 3596 H 340.929 -2.05243 5.27154 0
M  V30 3597 H 339.486 -2.00254 6.20275 0
M  V30 3598 N 342.919 -1.39368 0.735821 0
M  V30 3599 C 344.159 -2.02349 0.288813 0
M  V30 3600 C 344.523 -1.57127 -1.10341 0
M  V30 3601 O 345.724 -2.12312 -1.64854 0
M  V30 3602 C 343.995 -3.55288 0.387986 0
M  V30 3603 S 345.554 -4.38795 0.0209408 0
M  V30 3604 H 342.372 -0.701944 0.113115 0
M  V30 3605 H 344.974 -1.70164 0.962518 0
M  V30 3606 H 343.678 -3.85691 1.40252 0
M  V30 3607 H 343.209 -3.92227 -0.303512 0
M  V30 3608 H 345.224 -4.81595 -1.19503 0
M  V30 3609 N 344.397 -0.483516 -1.5 0
M  V30 3610 C 345.327 0.293829 -2.31644 0
M  V30 3611 C 346.308 0.978864 -1.39112 0
M  V30 3612 O 347.493 0.973644 -1.68029 0
M  V30 3613 C 344.623 1.36897 -3.19181 0
M  V30 3614 C 343.577 0.804833 -4.20365 0
M  V30 3615 C 342.903 1.9792 -4.96721 0
M  V30 3616 C 344.203 -0.192313 -5.21946 0
M  V30 3617 H 345.897 -0.387616 -2.9688 0
M  V30 3618 H 343.443 -0.187856 -1.42769 0
M  V30 3619 H 345.396 1.92037 -3.751 0
M  V30 3620 H 344.12 2.07936 -2.51853 0
M  V30 3621 H 342.779 0.275319 -3.65565 0
M  V30 3622 H 342.427 2.67686 -4.25856 0
M  V30 3623 H 342.127 1.60789 -5.65173 0
M  V30 3624 H 343.651 2.53526 -5.55479 0
M  V30 3625 H 345.065 0.270333 -5.72662 0
M  V30 3626 H 343.462 -0.478543 -5.98189 0
M  V30 3627 H 344.532 -1.11409 -4.71928 0
M  V30 3628 N 345.875 1.56104 -0.216619 0
M  V30 3629 C 347.1 2.0301 0.424462 0
M  V30 3630 C 347.525 1.0955 1.52907 0
M  V30 3631 O 346.883 0.0827914 1.81111 0
M  V30 3632 C 346.931 3.4819 0.937883 0
M  V30 3633 O 346.035 3.57865 2.04955 0
M  V30 3634 H 345.376 0.656925 0.0966755 0
M  V30 3635 H 347.906 2.01859 -0.33381 0
M  V30 3636 H 347.916 3.88413 1.24897 0
M  V30 3637 H 346.591 4.15699 0.129387 0
M  V30 3638 H 345.168 3.29527 1.74546 0
M  V30 3639 N 347.353 -0.0568162 1.57498 0
M  V30 3640 C 348.583 -0.764515 1.91934 0
M  V30 3641 C 348.991 -1.70877 0.81227 0
M  V30 3642 O 348.334 -1.82351 -0.222213 0
M  V30 3643 C 348.396 -1.5994 3.21962 0
M  V30 3644 C 348.06 -0.822925 4.4953 0
M  V30 3645 C 349.057 -0.135464 5.19723 0
M  V30 3646 C 346.742 -0.785666 4.96117 0
M  V30 3647 C 348.736 0.578861 6.34766 0
M  V30 3648 C 346.423 -0.0675784 6.11063 0
M  V30 3649 C 347.421 0.613471 6.80239 0
M  V30 3650 O 347.109 1.31996 7.92989 0
M  V30 3651 H 346.841 -0.221647 0.63863 0
M  V30 3652 H 349.395 -0.0268218 2.05382 0
M  V30 3653 H 347.625 -2.38026 3.04763 0
M  V30 3654 H 349.314 -2.18715 3.41934 0
M  V30 3655 H 350.08 -0.155458 4.84751 0
M  V30 3656 H 345.959 -1.30524 4.42136 0
M  V30 3657 H 349.503 1.111 6.88696 0
M  V30 3658 H 345.4 -0.0455636 6.45484 0
M  V30 3659 H 346.168 1.23077 8.09194 0
M  V30 3660 N 348.832 -1.54138 -0.328536 0
M  V30 3661 C 349.742 -1.86192 -1.42723 0
M  V30 3662 C 350.758 -0.753382 -1.56844 0
M  V30 3663 O 351.934 -1.04718 -1.72035 0
M  V30 3664 C 348.999 -2.07824 -2.77507 0
M  V30 3665 C 348.06 -3.31641 -2.72603 0
M  V30 3666 C 347.293 -3.52232 -4.00959 0
M  V30 3667 O 347.516 -2.7636 -4.9898 0
M  V30 3668 O 346.45 -4.45699 -4.0452 0
M  V30 3669 H 350.276 -2.79608 -1.18547 0
M  V30 3670 H 347.861 -1.3998 -0.522104 0
M  V30 3671 H 349.743 -2.23411 -3.57303 0
M  V30 3672 H 348.418 -1.17596 -3.01584 0
M  V30 3673 H 347.325 -3.21444 -1.91376 0
M  V30 3674 H 348.658 -4.2191 -2.53481 0
M  V30 3675 N 350.31 0.590341 -1.46126 0
M  V30 3676 C 351.556 1.35082 -1.51264 0
M  V30 3677 C 351.889 1.93534 -0.160711 0
M  V30 3678 O 351.164 1.76045 0.826956 0
M  V30 3679 C 351.447 2.48588 -2.6053 0
M  V30 3680 C 351.3 1.95221 -4.05227 0
M  V30 3681 C 352.619 3.50662 -2.6594 0
M  V30 3682 H 349.738 0.489803 -0.550692 0
M  V30 3683 H 352.38 0.663887 -1.78024 0
M  V30 3684 H 350.53 3.07186 -2.37843 0
M  V30 3685 H 352.202 1.41139 -4.39178 0
M  V30 3686 H 350.445 1.26101 -4.15068 0
M  V30 3687 H 351.116 2.77121 -4.77397 0
M  V30 3688 H 353.592 3.01934 -2.86313 0
M  V30 3689 H 352.468 4.27551 -3.44226 0
M  V30 3690 H 352.729 4.07399 -1.71694 0
M  V30 3691 N 351.788 1.33704 0.83433 0
M  V30 3692 C 352.698 1.26382 1.97648 0
M  V30 3693 C 353.714 0.173548 1.73132 0
M  V30 3694 O 354.89 0.397962 1.97429 0
M  V30 3695 C 351.955 1.00769 3.31733 0
M  V30 3696 C 351.016 2.1884 3.69334 0
M  V30 3697 C 350.249 1.9444 4.9702 0
M  V30 3698 O 350.472 0.896961 5.63303 0
M  V30 3699 O 349.406 2.81093 5.32231 0
M  V30 3700 H 353.232 2.22444 2.06767 0
M  V30 3701 H 350.817 1.13795 0.968037 0
M  V30 3702 H 352.699 0.882186 4.12062 0
M  V30 3703 H 351.374 0.0773783 3.23608 0
M  V30 3704 H 350.281 2.36946 2.89495 0
M  V30 3705 H 351.614 3.10221 3.82131 0
M  V30 3706 N 353.266 -1.05314 1.17247 0
M  V30 3707 C 354.682 -1.30452 0.919473 0
M  V30 3708 C 354.882 -1.9703 -0.42209 0
M  V30 3709 O 353.938 -2.24311 -1.15935 0
M  V30 3710 C 355.251 -2.17551 2.07586 0
M  V30 3711 C 356.799 -2.30937 2.11275 0
M  V30 3712 C 357.274 -3.21396 3.26296 0
M  V30 3713 N 358.765 -3.28981 3.26076 0
M  V30 3714 C 359.5 -3.99095 4.11716 0
M  V30 3715 N 358.996 -4.71648 5.07465 0
M  V30 3716 N 360.789 -3.95247 3.9967 0
M  V30 3717 H 352.94 -0.604988 2.03602 0
M  V30 3718 H 355.203 -0.329368 0.888944 0
M  V30 3719 H 354.909 -1.75921 3.0454 0
M  V30 3720 H 354.783 -3.18182 2.02584 0
M  V30 3721 H 357.17 -2.71809 1.14907 0
M  V30 3722 H 357.251 -1.2994 2.20339 0
M  V30 3723 H 356.895 -2.81238 4.22927 0
M  V30 3724 H 356.825 -4.22395 3.14467 0
M  V30 3725 H 359.316 -2.77286 2.5675 0
M  V30 3726 H 359.629 -5.22705 5.6921 0
M  V30 3727 H 357.974 -4.70594 5.11435 0
M  V30 3728 H 361.165 -3.37691 3.24164 0
M  V30 3729 H 361.338 -4.4962 4.66632 0
M  V30 3730 N 354.744 -0.972509 -1.24016 0
M  V30 3731 C 355.676 -0.464375 -2.24446 0
M  V30 3732 C 356.689 0.4295 -1.57032 0
M  V30 3733 O 357.878 0.234902 -1.76948 0
M  V30 3734 C 354.978 0.348385 -3.37105 0
M  V30 3735 C 354.151 -0.53673 -4.34094 0
M  V30 3736 C 353.21 0.220838 -5.25736 0
M  V30 3737 O 352.236 -0.386867 -5.67884 0
M  V30 3738 N 353.438 1.50907 -5.60542 0
M  V30 3739 H 356.203 -1.32788 -2.68677 0
M  V30 3740 H 353.764 -0.844877 -1.38107 0
M  V30 3741 H 355.756 0.863341 -3.95384 0
M  V30 3742 H 354.326 1.11285 -2.92121 0
M  V30 3743 H 353.546 -1.23261 -3.74433 0
M  V30 3744 H 354.834 -1.14022 -4.95859 0
M  V30 3745 H 354.232 2.02444 -5.28236 0
M  V30 3746 H 352.789 1.96962 -6.21329 0
M  V30 3747 N 356.222 1.38976 -0.743202 0
M  V30 3748 C 357.633 1.83123 -0.363732 0
M  V30 3749 C 357.984 1.6205 1.10609 0
M  V30 3750 O 357.109 1.11606 1.854 0
M  V30 3751 C 357.704 3.32439 -0.653408 0
M  V30 3752 C 356.263 3.74974 -0.327338 0
M  V30 3753 C 355.41 2.61878 -0.911875 0
M  V30 3754 H 358.361 1.27852 -0.940191 0
M  V30 3755 H 358.382 3.80432 0.0720031 0
M  V30 3756 H 357.894 3.47745 -1.72323 0
M  V30 3757 H 355.995 3.65252 0.736314 0
M  V30 3758 H 356.108 4.72106 -0.815631 0
M  V30 3759 H 354.472 2.52448 -0.337944 0
M  V30 3760 H 355.255 2.79987 -1.98651 0
M  V30 3761 N 357.7 0.491464 1.49741 0
M  V30 3762 C 358.948 -0.0563141 2.02022 0
M  V30 3763 C 359.269 -1.38363 1.37407 0
M  V30 3764 O 358.539 -1.88702 0.526166 0
M  V30 3765 H 357.119 -0.0238014 0.746621 0
M  V30 3766 H 359.781 0.646533 1.83864 0
M  V30 3767 H 358.877 -0.192967 3.11503 0
M  V30 3768 N 359.178 -1.55987 0.224894 0
M  V30 3769 C 360.088 -2.24066 -0.69511 0
M  V30 3770 C 361.104 -1.24939 -1.21104 0
M  V30 3771 O 362.28 -1.5776 -1.25195 0
M  V30 3772 C 359.345 -2.90983 -1.88493 0
M  V30 3773 C 358.406 -4.05462 -1.41064 0
M  V30 3774 C 357.639 -4.69179 -2.54375 0
M  V30 3775 O 357.862 -4.31895 -3.72589 0
M  V30 3776 O 356.796 -5.58108 -2.25386 0
M  V30 3777 H 360.622 -3.03353 -0.145149 0
M  V30 3778 H 358.207 -1.49399 -0.00569476 0
M  V30 3779 H 360.089 -3.33209 -2.57972 0
M  V30 3780 H 358.764 -2.14653 -2.42293 0
M  V30 3781 H 357.671 -3.67798 -0.683774 0
M  V30 3782 H 359.004 -4.83545 -0.918985 0
M  V30 3783 N 360.656 0.0484629 -1.57525 0
M  V30 3784 C 361.588 1.08222 -2.02041 0
M  V30 3785 C 362.601 1.33621 -0.930012 0
M  V30 3786 O 363.79 1.3145 -1.20761 0
M  V30 3787 C 360.89 2.42818 -2.36416 0
M  V30 3788 C 360.063 2.37049 -3.67596 0
M  V30 3789 C 359.122 3.53937 -3.89378 0
M  V30 3790 O 358.148 3.34308 -4.60681 0
M  V30 3791 N 359.35 4.75126 -3.3352 0
M  V30 3792 H 362.115 0.702946 -2.9134 0
M  V30 3793 H 359.676 0.236745 -1.6016 0
M  V30 3794 H 361.668 3.197 -2.48141 0
M  V30 3795 H 360.238 2.72661 -1.52888 0
M  V30 3796 H 359.458 1.45395 -3.66407 0
M  V30 3797 H 360.746 2.30318 -4.53686 0
M  V30 3798 H 360.144 4.93976 -2.75688 0
M  V30 3799 H 358.701 5.49439 -3.50656 0
M  V30 3800 N 362.134 1.5431 0.320358 0
M  V30 3801 C 363.044 1.86946 1.41734 0
M  V30 3802 C 364.06 0.761689 1.56443 0
M  V30 3803 O 365.236 1.05629 1.71477 0
M  V30 3804 C 362.301 2.09293 2.76401 0
M  V30 3805 C 361.362 3.33082 2.70841 0
M  V30 3806 C 360.595 3.54353 3.99086 0
M  V30 3807 O 360.818 2.79002 4.97508 0
M  V30 3808 O 359.752 4.47838 4.0215 0
M  V30 3809 H 363.578 2.80232 1.17062 0
M  V30 3810 H 361.163 1.40255 0.514673 0
M  V30 3811 H 363.045 2.25303 3.56113 0
M  V30 3812 H 361.72 1.19194 3.00956 0
M  V30 3813 H 360.627 3.22454 1.89668 0
M  V30 3814 H 361.96 4.23249 2.5124 0
M  V30 3815 N 363.613 -0.582584 1.46437 0
M  V30 3816 C 364.862 -1.337 1.5102 0
M  V30 3817 C 365.175 -1.94891 0.166359 0
M  V30 3818 O 366.381 -2.71351 0.0899954 0
M  V30 3819 C 364.837 -2.42315 2.66104 0
M  V30 3820 C 364.445 -1.87427 4.06909 0
M  V30 3821 C 366.189 -3.19099 2.79958 0
M  V30 3822 C 364.096 -2.93672 5.13333 0
M  V30 3823 H 363.026 -0.502619 0.562041 0
M  V30 3824 H 365.677 -0.621701 1.72647 0
M  V30 3825 H 364.059 -3.16645 2.37807 0
M  V30 3826 H 365.233 -1.19639 4.44998 0
M  V30 3827 H 363.548 -1.2331 3.97723 0
M  V30 3828 H 366.145 -3.9839 3.56636 0
M  V30 3829 H 366.488 -3.71695 1.87479 0
M  V30 3830 H 367.021 -2.51875 3.07902 0
M  V30 3831 H 363.76 -2.45962 6.07604 0
M  V30 3832 H 363.28 -3.59948 4.79789 0
M  V30 3833 H 364.959 -3.5762 5.39182 0
M  V30 3834 N 365.091 -1.34144 -0.827227 0
M  V30 3835 C 366.038 -1.25364 -1.93785 0
M  V30 3836 C 367.008 -0.129774 -1.65592 0
M  V30 3837 O 368.193 -0.310024 -1.88264 0
M  V30 3838 C 365.333 -1.01064 -3.2997 0
M  V30 3839 C 364.446 -2.22185 -3.70484 0
M  V30 3840 C 363.581 -1.91203 -4.95595 0
M  V30 3841 C 362.62 -3.08491 -5.28677 0
M  V30 3842 N 361.757 -2.77421 -6.44967 0
M  V30 3843 H 366.597 -2.20347 -2.00627 0
M  V30 3844 H 364.134 -1.09558 -0.981608 0
M  V30 3845 H 366.092 -0.850139 -4.08446 0
M  V30 3846 H 364.722 -0.0975026 -3.22653 0
M  V30 3847 H 363.774 -2.4917 -2.87434 0
M  V30 3848 H 365.086 -3.0983 -3.90905 0
M  V30 3849 H 364.24 -1.71864 -5.81848 0
M  V30 3850 H 362.979 -1.00812 -4.77167 0
M  V30 3851 H 361.984 -3.28431 -4.40923 0
M  V30 3852 H 363.209 -3.99655 -5.49047 0
M  V30 3853 H 361.155 -1.89601 -6.28003 0
M  V30 3854 H 361.072 -3.58598 -6.6554 0
M  V30 3855 H 362.34 -2.61577 -7.34301 0
M  V30 3856 N 366.569 1.04691 -1.17803 0
M  V30 3857 C 367.816 1.77782 -0.969532 0
M  V30 3858 C 368.144 1.87926 0.501401 0
M  V30 3859 O 367.399 1.37918 1.38842 0
M  V30 3860 C 367.698 3.21467 -1.56186 0
M  V30 3861 C 367.364 3.3137 -3.05786 0
M  V30 3862 C 366.026 3.3378 -3.46619 0
M  V30 3863 C 368.378 3.31976 -4.01797 0
M  V30 3864 C 365.706 3.34431 -4.82051 0
M  V30 3865 C 368.058 3.34167 -5.37136 0
M  V30 3866 C 366.722 3.34866 -5.77426 0
M  V30 3867 H 365.992 0.650549 -0.354777 0
M  V30 3868 H 368.639 1.23006 -1.46772 0
M  V30 3869 H 366.944 3.79203 -0.985515 0
M  V30 3870 H 368.641 3.76652 -1.37602 0
M  V30 3871 H 365.231 3.3021 -2.73238 0
M  V30 3872 H 369.415 3.29311 -3.71306 0
M  V30 3873 H 364.671 3.33285 -5.12573 0
M  V30 3874 H 368.845 3.33585 -6.11305 0
M  V30 3875 H 366.472 3.35124 -6.82346 0
M  V30 3876 N 368.047 0.979072 1.23499 0
M  V30 3877 C 369.277 0.664237 1.95631 0
M  V30 3878 C 369.685 -0.772653 1.72704 0
M  V30 3879 O 369.028 -1.53141 1.01457 0
M  V30 3880 C 369.09 0.873115 3.48736 0
M  V30 3881 C 368.754 2.29182 3.95379 0
M  V30 3882 C 369.751 3.2704 4.04155 0
M  V30 3883 C 367.436 2.62256 4.28401 0
M  V30 3884 C 369.43 4.56052 4.45304 0
M  V30 3885 C 367.117 3.91491 4.69231 0
M  V30 3886 C 368.115 4.88201 4.77649 0
M  V30 3887 O 367.803 6.15129 5.17563 0
M  V30 3888 H 367.535 0.245915 0.629684 0
M  V30 3889 H 370.089 1.3127 1.57979 0
M  V30 3890 H 368.319 0.167476 3.86337 0
M  V30 3891 H 370.008 0.555642 4.02079 0
M  V30 3892 H 370.774 3.02819 3.78848 0
M  V30 3893 H 366.653 1.87692 4.21061 0
M  V30 3894 H 370.197 5.31538 4.51789 0
M  V30 3895 H 366.094 4.15508 4.93987 0
M  V30 3896 H 366.862 6.18862 5.35679 0
M  V30 3897 N 369.525 -1.3858 0.750561 0
M  V30 3898 C 370.771 -2.00481 0.305825 0
M  V30 3899 C 371.104 -1.5944 -1.10872 0
M  V30 3900 O 370.379 -0.83052 -1.75877 0
M  V30 3901 C 370.662 -3.5758 0.425287 0
M  V30 3902 C 370.515 -4.08594 1.88072 0
M  V30 3903 C 371.834 -4.39719 -0.183122 0
M  V30 3904 H 368.953 -0.728348 0.112598 0
M  V30 3905 H 371.595 -1.64566 0.949638 0
M  V30 3906 H 369.745 -3.88306 -0.122828 0
M  V30 3907 H 371.417 -3.88523 2.48691 0
M  V30 3908 H 369.66 -3.61574 2.39681 0
M  V30 3909 H 370.331 -5.177 1.91548 0
M  V30 3910 H 372.807 -4.15128 0.284303 0
M  V30 3911 H 371.683 -5.48856 -0.0692757 0
M  V30 3912 H 371.944 -4.23434 -1.27106 0
M  V30 3913 N 371.003 -0.499398 -1.49478 0
M  V30 3914 C 371.913 0.284489 -2.32869 0
M  V30 3915 C 372.929 0.968885 -1.44529 0
M  V30 3916 O 374.105 0.95062 -1.77553 0
M  V30 3917 C 371.17 1.33594 -3.19928 0
M  V30 3918 C 370.231 0.665149 -4.24116 0
M  V30 3919 C 369.464 1.6665 -5.07014 0
M  V30 3920 O 369.687 2.89618 -4.91404 0
M  V30 3921 O 368.621 1.22271 -5.8935 0
M  V30 3922 H 372.447 -0.39802 -3.01081 0
M  V30 3923 H 370.032 -0.260758 -1.47107 0
M  V30 3924 H 371.914 1.94431 -3.73864 0
M  V30 3925 H 370.589 2.0014 -2.54412 0
M  V30 3926 H 369.496 0.0170769 -3.74096 0
M  V30 3927 H 370.829 0.0421555 -4.92182 0
M  V30 3928 N 372.481 1.55866 -0.233164 0
M  V30 3929 C 373.729 1.9821 0.394593 0
M  V30 3930 C 374.05 1.12234 1.59463 0
M  V30 3931 O 373.32 0.201981 1.94856 0
M  V30 3932 H 371.9 0.732034 0.148778 0
M  V30 3933 H 374.562 1.92107 -0.32876 0
M  V30 3934 H 373.658 3.03845 0.713063 0
M  V30 3935 N 373.959 -0.0401083 1.57549 0
M  V30 3936 C 374.889 -1.04384 2.08869 0
M  V30 3937 C 375.87 -1.38407 0.988817 0
M  V30 3938 O 377.055 -1.47483 1.26342 0
M  V30 3939 C 374.185 -2.34808 2.55895 0
M  V30 3940 C 373.139 -2.15057 3.70047 0
M  V30 3941 C 372.465 -3.51145 4.03239 0
M  V30 3942 C 373.765 -1.54576 4.98902 0
M  V30 3943 H 375.459 -0.616666 2.92981 0
M  V30 3944 H 373.005 -0.295184 1.40942 0
M  V30 3945 H 374.958 -3.05346 2.90417 0
M  V30 3946 H 373.682 -2.79565 1.68853 0
M  V30 3947 H 372.341 -1.46954 3.35857 0
M  V30 3948 H 371.989 -3.93529 3.13279 0
M  V30 3949 H 371.689 -3.38758 4.80122 0
M  V30 3950 H 373.213 -4.23062 4.40285 0
M  V30 3951 H 374.627 -2.15017 5.31451 0
M  V30 3952 H 373.024 -1.52796 5.80322 0
M  V30 3953 H 374.094 -0.51039 4.82206 0
M  V30 3954 N 375.437 -1.54477 -0.31217 0
M  V30 3955 C 376.665 -1.77205 -1.068 0
M  V30 3956 C 377.08 -0.526114 -1.81321 0
M  V30 3957 O 376.437 0.503647 -1.75413 0
M  V30 3958 C 376.488 -2.97253 -2.05725 0
M  V30 3959 O 376.209 -4.1703 -1.34228 0
M  V30 3960 C 377.71 -3.32281 -2.93435 0
M  V30 3961 H 374.93 -0.591287 -0.317208 0
M  V30 3962 H 377.474 -2.01398 -0.354834 0
M  V30 3963 H 375.629 -2.753 -2.72559 0
M  V30 3964 H 376.043 -4.84636 -2.00571 0
M  V30 3965 H 377.517 -4.19551 -3.58721 0
M  V30 3966 H 377.994 -2.49945 -3.61143 0
M  V30 3967 H 378.6 -3.56353 -2.32147 0
M  V30 3968 N 376.915 0.57481 -1.46744 0
M  V30 3969 C 378.162 1.33272 -1.52462 0
M  V30 3970 C 378.49 1.93669 -0.179572 0
M  V30 3971 O 377.745 1.7743 0.825664 0
M  V30 3972 C 378.044 2.476 -2.57738 0
M  V30 3973 C 377.71 2.05146 -4.01529 0
M  V30 3974 C 376.372 1.93284 -4.40676 0
M  V30 3975 C 378.724 1.72506 -4.91824 0
M  V30 3976 C 376.052 1.47049 -5.67973 0
M  V30 3977 C 378.404 1.27748 -6.19567 0
M  V30 3978 C 377.068 1.14468 -6.57612 0
M  V30 3979 H 376.338 0.487678 -0.557899 0
M  V30 3980 H 378.985 0.646456 -1.80259 0
M  V30 3981 H 377.29 3.21708 -2.23632 0
M  V30 3982 H 378.987 3.05807 -2.5939 0
M  V30 3983 H 375.577 2.15316 -3.7059 0
M  V30 3984 H 379.761 1.80552 -4.62293 0
M  V30 3985 H 375.017 1.35417 -5.96215 0
M  V30 3986 H 379.191 1.01547 -6.88957 0
M  V30 3987 H 376.818 0.78419 -7.56145 0
M  V30 3988 N 378.394 1.34581 0.820102 0
M  V30 3989 C 379.805 1.24298 1.39309 0
M  V30 3990 C 380.156 -0.130351 1.95767 0
M  V30 3991 O 379.281 -1.0308 1.90272 0
M  V30 3992 C 379.876 2.25054 2.53251 0
M  V30 3993 C 378.435 2.18552 3.0645 0
M  V30 3994 C 377.582 2.11503 1.79337 0
M  V30 3995 H 380.533 1.45906 0.624262 0
M  V30 3996 H 380.554 1.86917 3.31425 0
M  V30 3997 H 380.066 3.24996 2.1213 0
M  V30 3998 H 378.167 1.21976 3.52069 0
M  V30 3999 H 378.28 3.0993 3.65349 0
M  V30 4000 H 376.644 1.57268 2.00347 0
M  V30 4001 H 377.427 3.13284 1.40386 0
M  V30 4002 N 379.872 -1.04064 1.18357 0
M  V30 4003 C 381.149 -1.74252 0.888581 0
M  V30 4004 C 381.529 -2.02138 -0.60856 0
M  V30 4005 O 380.877 -1.66656 -1.56327 0
M  V30 4006 C 381.087 -3.0277 1.73584 0
M  V30 4007 C 382.435 -3.76506 1.96286 0
M  V30 4008 O 383.459 -3.12668 1.70637 0
M  V30 4009 O 382.318 -4.91243 2.39464 0
M  V30 4010 H 379.412 -0.758271 0.330082 0
M  V30 4011 H 381.958 -1.1013 1.2911 0
M  V30 4012 H 380.73 -2.78299 2.75073 0
M  V30 4013 H 380.353 -3.74631 1.33183 0
M  V30 4014 N 381.35 -0.985608 -1.22978 0
M  V30 4015 C 382.313 -0.535071 -2.22867 0
M  V30 4016 C 383.313 0.378123 -1.56291 0
M  V30 4017 O 384.503 0.171092 -1.73358 0
M  V30 4018 C 381.635 0.222702 -3.40172 0
M  V30 4019 H 382.828 -1.41835 -2.6424 0
M  V30 4020 H 380.381 -0.772042 -1.35901 0
M  V30 4021 H 381.116 1.12229 -3.04262 0
M  V30 4022 H 380.901 -0.43288 -3.89703 0
M  V30 4023 H 382.391 0.526335 -4.1427 0
M  V30 4024 N 382.828 1.3818 -0.7579 0
M  V30 4025 C 384.105 1.94106 -0.241306 0
M  V30 4026 C 384.485 1.69282 1.26122 0
M  V30 4027 O 383.833 1.03378 2.03777 0
M  V30 4028 C 384.043 3.43809 -0.59967 0
M  V30 4029 C 385.391 4.20868 -0.561717 0
M  V30 4030 O 386.415 3.5211 -0.538222 0
M  V30 4031 O 385.274 5.43451 -0.576478 0
M  V30 4032 H 382.368 0.825376 -0.0518042 0
M  V30 4033 H 384.914 1.47548 -0.838315 0
M  V30 4034 H 383.686 3.55403 -1.6372 0
M  V30 4035 H 383.309 3.97592 0.0251197 0
M  V30 4036 N 384.306 0.507319 1.49211 0
M  V30 4037 C 385.553 -0.0349529 2.0247 0
M  V30 4038 C 385.881 -1.36409 1.38647 0
M  V30 4039 O 385.136 -1.88841 0.513566 0
M  V30 4040 C 385.435 -0.229513 3.56662 0
M  V30 4041 C 385.101 1.02241 4.39156 0
M  V30 4042 C 383.763 1.36557 4.61417 0
M  V30 4043 C 386.115 1.85428 4.871 0
M  V30 4044 C 383.443 2.53999 5.28868 0
M  V30 4045 C 385.795 3.02028 5.55843 0
M  V30 4046 C 384.459 3.36717 5.76349 0
M  V30 4047 H 383.729 -0.0127902 0.74089 0
M  V30 4048 H 386.376 0.668756 1.79443 0
M  V30 4049 H 384.681 -1.0158 3.78403 0
M  V30 4050 H 386.378 -0.663641 3.9547 0
M  V30 4051 H 382.968 0.745124 4.22073 0
M  V30 4052 H 387.152 1.6023 4.69723 0
M  V30 4053 H 382.408 2.81105 5.42946 0
M  V30 4054 H 386.582 3.66808 5.91967 0
M  V30 4055 H 384.209 4.27821 6.28389 0
M  V30 4056 N 385.784 -1.5574 0.241426 0
M  V30 4057 C 386.714 -2.24133 -0.654722 0
M  V30 4058 C 387.695 -1.21974 -1.1856 0
M  V30 4059 O 388.88 -1.50612 -1.22595 0
M  V30 4060 C 386.01 -2.93659 -1.85423 0
M  V30 4061 C 384.964 -4.0246 -1.45636 0
M  V30 4062 C 384.29 -4.59383 -2.73626 0
M  V30 4063 C 385.59 -5.18468 -0.631506 0
M  V30 4064 H 387.284 -2.99281 -0.0844353 0
M  V30 4065 H 384.83 -1.43947 -0.0391707 0
M  V30 4066 H 386.783 -3.40203 -2.48676 0
M  V30 4067 H 385.507 -2.15991 -2.44981 0
M  V30 4068 H 384.166 -3.56676 -0.847202 0
M  V30 4069 H 383.814 -3.78422 -3.3137 0
M  V30 4070 H 383.514 -5.32826 -2.4773 0
M  V30 4071 H 385.038 -5.08658 -3.37786 0
M  V30 4072 H 386.452 -5.61272 -1.1682 0
M  V30 4073 H 384.849 -5.98266 -0.468831 0
M  V30 4074 H 385.919 -4.8358 0.357506 0
M  V30 4075 N 387.262 0.0317525 -1.57568 0
M  V30 4076 C 388.51 0.721676 -1.88776 0
M  V30 4077 C 388.831 1.76039 -0.838772 0
M  V30 4078 O 388.101 1.95482 0.127935 0
M  V30 4079 H 386.681 0.269534 -0.696678 0
M  V30 4080 H 389.343 -0.00165879 -1.949 0
M  V30 4081 H 388.439 1.21293 -2.87566 0
M  V30 4082 N 388.74 1.54641 0.303973 0
M  V30 4083 C 389.67 1.88386 1.3796 0
M  V30 4084 C 390.651 0.742485 1.5304 0
M  V30 4085 O 391.836 0.997959 1.66597 0
M  V30 4086 C 388.966 2.12854 2.74427 0
M  V30 4087 C 387.92 3.28702 2.74115 0
M  V30 4088 C 387.246 3.38582 4.13844 0
M  V30 4089 C 388.546 4.65881 2.3612 0
M  V30 4090 H 390.24 2.78474 1.09966 0
M  V30 4091 H 387.786 1.33988 0.527556 0
M  V30 4092 H 389.739 2.35047 3.49758 0
M  V30 4093 H 388.463 1.19535 3.03939 0
M  V30 4094 H 387.122 3.06428 2.0124 0
M  V30 4095 H 386.77 2.42784 4.40528 0
M  V30 4096 H 386.47 4.16453 4.14537 0
M  V30 4097 H 387.994 3.63031 4.90959 0
M  V30 4098 H 389.408 4.87823 3.01167 0
M  V30 4099 H 387.805 5.46444 2.48031 0
M  V30 4100 H 388.875 4.66799 1.3125 0
M  V30 4101 N 390.218 -0.567019 1.47046 0
M  V30 4102 C 391.464 -1.32658 1.53394 0
M  V30 4103 C 391.797 -1.93254 0.19148 0
M  V30 4104 O 391.072 -1.77338 -0.798844 0
M  V30 4105 C 391.355 -2.44412 2.64452 0
M  V30 4106 C 391.208 -1.88749 4.08282 0
M  V30 4107 C 392.527 -3.46387 2.71485 0
M  V30 4108 H 389.646 -0.48098 0.558415 0
M  V30 4109 H 392.288 -0.635481 1.79058 0
M  V30 4110 H 390.438 -3.03363 2.427 0
M  V30 4111 H 392.11 -1.34134 4.41368 0
M  V30 4112 H 390.353 -1.19481 4.17021 0
M  V30 4113 H 391.024 -2.69491 4.81745 0
M  V30 4114 H 393.5 -2.9734 2.91081 0
M  V30 4115 H 392.376 -4.2202 3.50985 0
M  V30 4116 H 392.637 -4.04616 1.78153 0
M  V30 4117 N 391.696 -1.35014 -0.812953 0
M  V30 4118 C 392.921 -1.31187 -1.60639 0
M  V30 4119 C 393.346 0.109382 -1.87782 0
M  V30 4120 O 392.704 1.07424 -1.46047 0
M  V30 4121 C 392.752 -2.11809 -2.91838 0
M  V30 4122 O 391.856 -1.49444 -3.8437 0
M  V30 4123 H 391.197 -0.450084 -0.488181 0
M  V30 4124 H 393.727 -1.77963 -1.00947 0
M  V30 4125 H 393.737 -2.23531 -3.41318 0
M  V30 4126 H 392.412 -3.15137 -2.71407 0
M  V30 4127 H 390.989 -1.46524 -3.42907 0
M  V30 4128 N 393.175 1.03435 -1.18907 0
M  V30 4129 C 394.105 2.13503 -0.945448 0
M  V30 4130 C 395.086 1.69682 0.119189 0
M  V30 4131 O 396.271 1.94169 -0.034707 0
M  V30 4132 C 393.401 3.44004 -0.477316 0
M  V30 4133 C 392.355 4.0148 -1.48316 0
M  V30 4134 C 391.681 5.27537 -0.872311 0
M  V30 4135 C 392.981 4.36921 -2.86177 0
M  V30 4136 H 394.675 2.34141 -1.86597 0
M  V30 4137 H 392.221 1.12523 -0.898584 0
M  V30 4138 H 394.174 4.20372 -0.294204 0
M  V30 4139 H 392.898 3.23072 0.478786 0
M  V30 4140 H 391.557 3.27201 -1.65332 0
M  V30 4141 H 391.205 5.02917 0.0911752 0
M  V30 4142 H 390.905 5.66954 -1.54393 0
M  V30 4143 H 392.429 6.06576 -0.699871 0
M  V30 4144 H 393.843 5.04248 -2.72776 0
M  V30 4145 H 392.24 4.87405 -3.50081 0
M  V30 4146 H 393.31 3.46466 -3.39248 0
M  V30 4147 N 394.653 0.992116 1.22453 0
M  V30 4148 C 395.878 0.685644 1.95739 0
M  V30 4149 C 396.303 -0.743 1.72804 0
M  V30 4150 O 395.661 -1.50778 1.00676 0
M  V30 4151 C 395.709 0.996293 3.46564 0
M  V30 4152 O 394.813 0.0945512 4.12292 0
M  V30 4153 H 394.154 0.256694 0.612376 0
M  V30 4154 H 396.684 1.32888 1.5557 0
M  V30 4155 H 396.694 0.93781 3.97076 0
M  V30 4156 H 395.369 2.03733 3.62582 0
M  V30 4157 H 393.946 0.208451 3.72317 0
M  V30 4158 N 396.131 -1.37776 0.765217 0
M  V30 4159 C 397.377 -2.00145 0.327072 0
M  V30 4160 C 397.71 -1.60607 -1.09175 0
M  V30 4161 O 396.985 -0.849127 -1.74986 0
M  V30 4162 C 397.268 -3.57109 0.46319 0
M  V30 4163 C 397.121 -4.06576 1.92395 0
M  V30 4164 C 398.44 -4.39888 -0.136473 0
M  V30 4165 H 395.559 -0.727113 0.120316 0
M  V30 4166 H 398.201 -1.63549 0.967039 0
M  V30 4167 H 396.351 -3.88414 -0.0816358 0
M  V30 4168 H 398.023 -3.85864 2.52798 0
M  V30 4169 H 396.266 -3.59011 2.43503 0
M  V30 4170 H 396.937 -5.15639 1.97028 0
M  V30 4171 H 399.413 -4.14803 0.328317 0
M  V30 4172 H 398.289 -5.48899 -0.0110582 0
M  V30 4173 H 398.55 -4.24758 -1.22608 0
M  V30 4174 N 397.609 -0.515225 -1.4894 0
M  V30 4175 C 398.834 0.022727 -2.07388 0
M  V30 4176 C 399.259 1.2876 -1.37122 0
M  V30 4177 O 398.617 1.76067 -0.432431 0
M  V30 4178 C 398.665 0.244869 -3.59768 0
M  V30 4179 O 397.769 1.31667 -3.90817 0
M  V30 4180 H 397.11 -0.0325506 -0.663202 0
M  V30 4181 H 399.64 -0.718918 -1.91553 0
M  V30 4182 H 399.65 0.47205 -4.0526 0
M  V30 4183 H 398.325 -0.679194 -4.10317 0
M  V30 4184 H 396.902 1.07331 -3.5712 0
M  V30 4185 N 399.087 1.5561 -0.249682 0
M  V30 4186 C 400.017 2.24477 0.642826 0
M  V30 4187 C 400.998 1.22601 1.17911 0
M  V30 4188 O 402.183 1.5126 1.21795 0
M  V30 4189 C 399.313 2.94638 1.83863 0
M  V30 4190 C 398.267 4.03227 1.435 0
M  V30 4191 C 397.593 4.60828 2.71186 0
M  V30 4192 C 398.893 5.18796 0.604002 0
M  V30 4193 H 400.587 2.99321 0.0685625 0
M  V30 4194 H 398.133 1.43965 0.0315363 0
M  V30 4195 H 400.086 3.41517 2.46868 0
M  V30 4196 H 398.81 2.17287 2.43832 0
M  V30 4197 H 397.469 3.57121 0.828275 0
M  V30 4198 H 397.117 3.80174 3.29358 0
M  V30 4199 H 396.817 5.34132 2.44901 0
M  V30 4200 H 398.341 5.10442 3.35084 0
M  V30 4201 H 399.755 5.61883 1.13842 0
M  V30 4202 H 398.152 5.98506 0.437097 0
M  V30 4203 H 399.222 4.83384 -0.383147 0
M  V30 4204 N 400.565 -0.0233959 1.57583 0
M  V30 4205 C 401.811 -0.714119 1.89811 0
M  V30 4206 C 402.144 -1.74702 0.848113 0
M  V30 4207 O 401.419 -1.94023 -0.136135 0
M  V30 4208 C 401.702 -1.37853 3.32669 0
M  V30 4209 C 401.555 -0.358764 4.48367 0
M  V30 4210 C 402.874 -2.31101 3.7454 0
M  V30 4211 H 399.993 -0.25814 0.690314 0
M  V30 4212 H 402.635 0.0230927 1.89986 0
M  V30 4213 H 400.785 -2.00689 3.3265 0
M  V30 4214 H 402.457 0.268115 4.6052 0
M  V30 4215 H 400.7 0.321387 4.32608 0
M  V30 4216 H 401.371 -0.862242 5.45224 0
M  V30 4217 H 403.847 -1.78304 3.75961 0
M  V30 4218 H 402.723 -2.74567 4.75294 0
M  V30 4219 H 402.984 -3.18018 3.0711 0
M  V30 4220 N 402.043 -1.548 -0.295768 0
M  V30 4221 C 403.32 -1.65014 -1.05023 0
M  V30 4222 C 403.7 -0.501805 -2.05049 0
M  V30 4223 O 403.048 0.500869 -2.22943 0
M  V30 4224 C 403.258 -3.03252 -1.72741 0
M  V30 4225 C 404.606 -3.60242 -2.24746 0
M  V30 4226 O 405.63 -3.05737 -1.82765 0
M  V30 4227 O 404.489 -4.55687 -3.01681 0
M  V30 4228 H 401.583 -0.669314 -0.485744 0
M  V30 4229 H 404.129 -1.67144 -0.293438 0
M  V30 4230 H 402.901 -3.7827 -1.00138 0
M  V30 4231 H 402.524 -3.04922 -2.55163 0
M  V30 4232 N 403.521 0.559213 -1.47345 0
M  V30 4233 C 404.932 1.14134 -1.47751 0
M  V30 4234 C 405.283 1.94834 -0.231103 0
M  V30 4235 O 404.408 2.05957 0.664137 0
M  V30 4236 C 405.003 2.07653 -2.67705 0
M  V30 4237 C 403.562 2.61141 -2.71076 0
M  V30 4238 C 402.709 1.3748 -2.40821 0
M  V30 4239 H 405.66 0.345917 -1.54884 0
M  V30 4240 H 405.681 2.91497 -2.44561 0
M  V30 4241 H 405.193 1.4889 -3.58404 0
M  V30 4242 H 403.294 3.23707 -1.84511 0
M  V30 4243 H 403.407 3.02272 -3.7171 0
M  V30 4244 H 401.771 1.68086 -1.91362 0
M  V30 4245 H 402.554 0.805135 -3.33725 0
M  V30 4246 N 404.999 1.35443 0.805782 0
M  V30 4247 C 406.247 1.28507 1.55982 0
M  V30 4248 C 406.568 -0.140046 1.94496 0
M  V30 4249 O 405.838 -1.07666 1.63661 0
M  V30 4250 H 404.418 0.472676 0.578434 0
M  V30 4251 H 407.08 1.69555 0.961098 0
M  V30 4252 H 406.176 1.90148 2.47488 0
M  V30 4253 N 406.477 -1.02803 1.19454 0
M  V30 4254 C 407.705 -1.79841 1.02297 0
M  V30 4255 C 408.12 -1.83879 -0.428259 0
M  V30 4256 O 407.477 -1.28345 -1.29745 0
M  V30 4257 C 407.528 -3.24852 1.58598 0
M  V30 4258 O 407.249 -3.21097 2.98041 0
M  V30 4259 C 408.75 -4.18485 1.46236 0
M  V30 4260 H 405.97 -0.565936 0.360496 0
M  V30 4261 H 408.514 -1.2948 1.58288 0
M  V30 4262 H 406.669 -3.72401 1.06753 0
M  V30 4263 H 407.083 -4.12033 3.24545 0
M  V30 4264 H 408.557 -5.18121 1.90407 0
M  V30 4265 H 409.034 -4.37254 0.41301 0
M  V30 4266 H 409.64 -3.76811 1.97215 0
M  V30 4267 N 407.956 -0.998596 -1.21925 0
M  V30 4268 C 408.886 -0.573688 -2.26343 0
M  V30 4269 C 409.867 0.402296 -1.65274 0
M  V30 4270 O 411.052 0.291683 -1.91997 0
M  V30 4271 C 408.182 0.106839 -3.47136 0
M  V30 4272 C 407.136 -0.788269 -4.20678 0
M  V30 4273 C 406.462 0.0254927 -5.34694 0
M  V30 4274 C 407.762 -2.08784 -4.78755 0
M  V30 4275 H 409.456 -1.44651 -2.62138 0
M  V30 4276 H 407.002 -0.696975 -1.26009 0
M  V30 4277 H 408.955 0.415531 -4.19346 0
M  V30 4278 H 407.679 1.01424 -3.10452 0
M  V30 4279 H 406.338 -1.08069 -3.50309 0
M  V30 4280 H 405.986 0.933989 -4.94253 0
M  V30 4281 H 405.686 -0.570437 -5.84825 0
M  V30 4282 H 407.21 0.328147 -6.09718 0
M  V30 4283 H 408.624 -1.84272 -5.42878 0
M  V30 4284 H 407.021 -2.63307 -5.39249 0
M  V30 4285 H 408.091 -2.76284 -3.98491 0
M  V30 4286 N 409.434 1.37368 -0.772513 0
M  V30 4287 C 410.845 1.8231 -0.402493 0
M  V30 4288 C 411.196 1.6436 1.07146 0
M  V30 4289 O 410.321 1.15514 1.82991 0
M  V30 4290 C 410.916 3.30979 -0.723776 0
M  V30 4291 C 409.475 3.74195 -0.406802 0
M  V30 4292 C 408.622 2.59885 -0.967218 0
M  V30 4293 H 411.573 1.25829 -0.967099 0
M  V30 4294 H 411.594 3.80499 -0.00870832 0
M  V30 4295 H 411.106 3.44011 -1.7966 0
M  V30 4296 H 409.207 3.66732 0.658673 0
M  V30 4297 H 409.32 4.7027 -0.915588 0
M  V30 4298 H 407.684 2.51674 -0.391416 0
M  V30 4299 H 408.467 2.7571 -2.04546 0
M  V30 4300 N 410.912 0.523116 1.48665 0
M  V30 4301 C 411.822 -0.247406 2.33292 0
M  V30 4302 C 412.838 -0.945769 1.46052 0
M  V30 4303 O 414.014 -0.922253 1.79043 0
M  V30 4304 C 411.079 -1.28487 3.22012 0
M  V30 4305 C 410.14 -0.597592 4.2512 0
M  V30 4306 C 409.373 -1.58563 5.09601 0
M  V30 4307 O 409.596 -2.81763 4.95949 0
M  V30 4308 O 408.53 -1.12879 5.91221 0
M  V30 4309 H 412.356 0.445869 3.00409 0
M  V30 4310 H 409.941 0.284128 1.46673 0
M  V30 4311 H 411.823 -1.88459 3.7691 0
M  V30 4312 H 410.498 -1.96068 2.57564 0
M  V30 4313 H 409.405 0.0424407 3.74076 0
M  V30 4314 H 410.738 0.0361517 4.92187 0
M  V30 4315 N 412.39 -1.55475 0.257931 0
M  V30 4316 C 413.636 -1.99502 -0.364266 0
M  V30 4317 C 413.969 -1.146 -1.56782 0
M  V30 4318 O 413.244 -0.211968 -1.93342 0
M  V30 4319 C 413.527 -3.51917 -0.763333 0
M  V30 4320 C 413.38 -4.4758 0.446371 0
M  V30 4321 C 414.699 -4.09742 -1.60623 0
M  V30 4322 H 411.818 -0.725277 -0.130929 0
M  V30 4323 H 414.46 -1.8653 0.361446 0
M  V30 4324 H 412.61 -3.63101 -1.38166 0
M  V30 4325 H 414.282 -4.48362 1.08487 0
M  V30 4326 H 412.525 -4.19947 1.08753 0
M  V30 4327 H 413.196 -5.51862 0.123645 0
M  V30 4328 H 415.672 -4.01727 -1.08418 0
M  V30 4329 H 414.548 -5.16631 -1.85429 0
M  V30 4330 H 414.809 -3.58889 -2.58169 0
M  V30 4331 N 413.868 0.0150385 -1.57593 0
M  V30 4332 C 415.096 0.714395 -1.94175 0
M  V30 4333 C 415.511 1.68135 -0.858841 0
M  V30 4334 O 414.868 1.81766 0.163567 0
M  V30 4335 C 414.919 1.45933 -3.30735 0
M  V30 4336 O 414.64 0.531167 -4.34868 0
M  V30 4337 C 416.141 2.25456 -3.81686 0
M  V30 4338 H 413.361 0.199923 -0.640525 0
M  V30 4339 H 415.905 -0.0316096 -2.04476 0
M  V30 4340 H 414.06 2.15709 -3.21789 0
M  V30 4341 H 414.474 1.05509 -5.13778 0
M  V30 4342 H 415.948 2.731 -4.79709 0
M  V30 4343 H 416.425 3.07485 -3.13607 0
M  V30 4344 H 417.031 1.60727 -3.9376 0
M  V30 4345 N 415.346 1.54954 0.287554 0
M  V30 4346 C 416.276 1.89839 1.35954 0
M  V30 4347 C 417.257 0.758675 1.52244 0
M  V30 4348 O 418.442 1.01557 1.65529 0
M  V30 4349 C 415.572 2.15753 2.72154 0
M  V30 4350 C 414.526 3.3159 2.70614 0
M  V30 4351 C 413.852 3.42952 4.10229 0
M  V30 4352 C 415.152 4.68359 2.31165 0
M  V30 4353 H 416.846 2.79625 1.07007 0
M  V30 4354 H 414.392 1.3454 0.513316 0
M  V30 4355 H 416.345 2.38743 3.47246 0
M  V30 4356 H 415.069 1.22752 3.02654 0
M  V30 4357 H 413.728 3.08545 1.97979 0
M  V30 4358 H 413.376 2.47443 4.37928 0
M  V30 4359 H 413.076 4.20826 4.10097 0
M  V30 4360 H 414.6 3.68218 4.87081 0
M  V30 4361 H 416.014 4.9099 2.95976 0
M  V30 4362 H 414.411 5.49044 2.42221 0
M  V30 4363 H 415.481 4.68165 1.26291 0
M  V30 4364 N 416.824 -0.551391 1.4764 0
M  V30 4365 C 418.071 -1.3083 1.54563 0
M  V30 4366 C 418.399 -1.93359 0.210361 0
M  V30 4367 O 417.654 -1.78721 -0.797332 0
M  V30 4368 C 417.953 -2.43469 2.61644 0
M  V30 4369 C 417.619 -1.98732 4.04742 0
M  V30 4370 C 416.281 -1.86248 4.43695 0
M  V30 4371 C 418.633 -1.64659 4.94507 0
M  V30 4372 C 415.961 -1.37995 5.70241 0
M  V30 4373 C 418.313 -1.17875 6.21521 0
M  V30 4374 C 416.977 -1.03992 6.5935 0
M  V30 4375 H 416.247 -0.478741 0.565587 0
M  V30 4376 H 418.894 -0.617697 1.81264 0
M  V30 4377 H 417.199 -3.18109 2.28722 0
M  V30 4378 H 418.896 -3.01642 2.64222 0
M  V30 4379 H 415.486 -2.09393 3.73968 0
M  V30 4380 H 419.67 -1.73174 4.65107 0
M  V30 4381 H 414.926 -1.25915 5.98294 0
M  V30 4382 H 419.1 -0.905739 6.90485 0
M  V30 4383 H 416.727 -0.663794 7.57296 0
M  V30 4384 N 418.302 -1.35869 -0.798587 0
M  V30 4385 C 419.53 -1.32722 -1.58722 0
M  V30 4386 C 419.945 0.0935631 -1.88568 0
M  V30 4387 O 419.302 1.04784 -1.49421 0
M  V30 4388 C 419.353 -2.13974 -2.91371 0
M  V30 4389 O 419.074 -3.50514 -2.62815 0
M  V30 4390 C 420.575 -2.18504 -3.85708 0
M  V30 4391 H 417.795 -0.45562 -0.492596 0
M  V30 4392 H 420.339 -1.78837 -0.991843 0
M  V30 4393 H 418.494 -1.71438 -3.47402 0
M  V30 4394 H 418.908 -3.92806 -3.47568 0
M  V30 4395 H 420.382 -2.79732 -4.75872 0
M  V30 4396 H 420.859 -1.18597 -4.22885 0
M  V30 4397 H 421.465 -2.61236 -3.35612 0
M  V30 4398 N 419.78 1.02168 -1.19998 0
M  V30 4399 C 421.057 1.72816 -0.916191 0
M  V30 4400 C 421.437 2.03081 0.576325 0
M  V30 4401 O 420.785 1.69122 1.53656 0
M  V30 4402 C 420.995 2.9997 -1.78378 0
M  V30 4403 C 422.343 3.73336 -2.02251 0
M  V30 4404 O 423.367 3.09914 -1.75589 0
M  V30 4405 O 422.226 4.87371 -2.47249 0
M  V30 4406 H 419.32 0.752924 -0.342103 0
M  V30 4407 H 421.866 1.08062 -1.30846 0
M  V30 4408 H 420.638 2.73888 -2.79466 0
M  V30 4409 H 420.261 3.72464 -1.39126 0
M  V30 4410 N 421.258 1.00505 1.21394 0
M  V30 4411 C 422.486 0.706609 1.9446 0
M  V30 4412 C 422.901 -0.73081 1.74082 0
M  V30 4413 O 422.258 -1.49446 1.04747 0
M  V30 4414 C 422.309 1.01824 3.46863 0
M  V30 4415 O 422.03 2.39919 3.66566 0
M  V30 4416 C 423.531 0.739216 4.37093 0
M  V30 4417 H 420.751 0.260394 0.618414 0
M  V30 4418 H 423.295 1.34311 1.54211 0
M  V30 4419 H 421.45 0.427343 3.85036 0
M  V30 4420 H 421.864 2.50784 4.6066 0
M  V30 4421 H 423.338 1.00744 5.42729 0
M  V30 4422 H 423.815 -0.326746 4.37983 0
M  V30 4423 H 424.421 1.31173 4.04566 0
M  V30 4424 N 422.737 -1.36956 0.779787 0
M  V30 4425 C 423.983 -1.99787 0.348281 0
M  V30 4426 C 424.316 -1.61756 -1.07465 0
M  V30 4427 O 423.591 -0.867639 -1.74075 0
M  V30 4428 C 423.874 -3.56597 0.50104 0
M  V30 4429 C 423.727 -4.04513 1.96697 0
M  V30 4430 C 425.046 -4.40008 -0.0898097 0
M  V30 4431 H 422.165 -0.725796 0.128022 0
M  V30 4432 H 424.807 -1.62514 0.984331 0
M  V30 4433 H 422.957 -3.88479 -0.0404347 0
M  V30 4434 H 424.629 -3.83161 2.56876 0
M  V30 4435 H 422.872 -3.56408 2.47297 0
M  V30 4436 H 423.543 -5.1352 2.02486 0
M  V30 4437 H 426.019 -4.14431 0.372293 0
M  V30 4438 H 424.895 -5.4888 0.0471605 0
M  V30 4439 H 425.156 -4.26035 -1.18096 0
M  V30 4440 N 424.215 -0.530993 -1.48385 0
M  V30 4441 C 425.463 0.00273189 -2.021 0
M  V30 4442 C 425.784 1.34672 -1.41027 0
M  V30 4443 O 425.054 1.8724 -0.576012 0
M  V30 4444 H 423.634 0.00399774 -0.746989 0
M  V30 4445 H 426.296 -0.695054 -1.82085 0
M  V30 4446 H 425.392 0.11031 -3.11905 0
M  V30 4447 N 425.693 1.55336 -0.266172 0
M  V30 4448 C 426.94 1.99397 0.353158 0
M  V30 4449 C 427.268 1.15451 1.56529 0
M  V30 4450 O 426.523 0.209974 1.9457 0
M  V30 4451 C 426.822 3.48606 0.787957 0
M  V30 4452 C 426.488 4.49773 -0.318541 0
M  V30 4453 C 425.15 4.77158 -0.62239 0
M  V30 4454 C 427.502 5.10212 -1.06459 0
M  V30 4455 C 424.83 5.62251 -1.67602 0
M  V30 4456 C 427.182 5.96449 -2.10788 0
M  V30 4457 C 425.846 6.22158 -2.41817 0
M  V30 4458 H 425.116 0.729644 0.12923 0
M  V30 4459 H 427.763 1.87732 -0.37802 0
M  V30 4460 H 426.068 3.57701 1.59866 0
M  V30 4461 H 427.765 3.80098 1.27775 0
M  V30 4462 H 424.355 4.2854 -0.0715925 0
M  V30 4463 H 428.539 4.89086 -0.843098 0
M  V30 4464 H 423.795 5.80419 -1.92155 0
M  V30 4465 H 427.969 6.42317 -2.69076 0
M  V30 4466 H 425.596 6.87888 -3.23596 0
M  V30 4467 N 427.171 -0.0066808 1.57599 0
M  V30 4468 C 428.587 -0.36267 1.55425 0
M  V30 4469 C 428.787 -1.75209 0.995187 0
M  V30 4470 O 427.843 -2.44616 0.626058 0
M  V30 4471 C 429.156 -0.244017 2.99708 0
M  V30 4472 C 430.704 -0.319451 3.11366 0
M  V30 4473 C 431.179 -0.229998 4.57422 0
M  V30 4474 N 432.67 -0.288105 4.62303 0
M  V30 4475 C 433.405 -0.242127 5.72889 0
M  V30 4476 N 432.901 -0.147133 6.92644 0
M  V30 4477 N 434.694 -0.293502 5.61333 0
M  V30 4478 H 426.845 0.902314 1.92281 0
M  V30 4479 H 429.108 0.34525 0.882896 0
M  V30 4480 H 428.814 0.711678 3.44424 0
M  V30 4481 H 428.688 -1.02877 3.629 0
M  V30 4482 H 431.075 -1.26559 2.66584 0
M  V30 4483 H 431.156 0.495055 2.50964 0
M  V30 4484 H 430.8 0.712566 5.02877 0
M  V30 4485 H 430.73 -1.0629 5.15761 0
M  V30 4486 H 433.221 -0.363126 3.76151 0
M  V30 4487 H 433.534 -0.117763 7.7271 0
M  V30 4488 H 431.879 -0.112857 6.94908 0
M  V30 4489 H 435.07 -0.365864 4.66668 0
M  V30 4490 H 435.243 -0.254204 6.47501 0
M  V30 4491 N 428.649 -1.55105 -0.279332 0
M  V30 4492 C 429.582 -1.82467 -1.37044 0
M  V30 4493 C 430.56 -0.677261 -1.47824 0
M  V30 4494 O 431.744 -0.919578 -1.64548 0
M  V30 4495 C 428.871 -1.98066 -2.7475 0
M  V30 4496 C 427.917 -3.20594 -2.81286 0
M  V30 4497 S 428.75 -4.78116 -2.41175 0
M  V30 4498 C 429.906 -4.9668 -3.80867 0
M  V30 4499 H 430.139 -2.74728 -1.1363 0
M  V30 4500 H 427.672 -1.46794 -0.478625 0
M  V30 4501 H 429.63 -2.07739 -3.54055 0
M  V30 4502 H 428.291 -1.06704 -2.9542 0
M  V30 4503 H 427.484 -3.28376 -3.82341 0
M  V30 4504 H 427.086 -3.09479 -2.09996 0
M  V30 4505 H 429.378 -4.82033 -4.76078 0
M  V30 4506 H 430.321 -5.98741 -3.78041 0
M  V30 4507 H 430.729 -4.24698 -3.71876 0
M  V30 4508 N 430.127 0.543554 -1.4793 0
M  V30 4509 C 431.09 1.63156 -1.60975 0
M  V30 4510 C 432.09 1.53346 -0.483899 0
M  V30 4511 O 433.28 1.5726 -0.749339 0
M  V30 4512 C 430.412 3.02743 -1.56716 0
M  V30 4513 H 431.605 1.52934 -2.57975 0
M  V30 4514 H 429.158 0.764557 -1.36324 0
M  V30 4515 H 429.893 3.18484 -0.611418 0
M  V30 4516 H 429.678 3.11272 -2.38438 0
M  V30 4517 H 431.168 3.81871 -1.6901 0
M  V30 4518 N 431.605 1.3629 0.791371 0
M  V30 4519 C 433.016 1.27225 1.36641 0
M  V30 4520 C 433.367 -0.0887968 1.95999 0
M  V30 4521 O 432.492 -0.990207 1.92416 0
M  V30 4522 C 433.087 2.30375 2.48421 0
M  V30 4523 C 431.646 2.25004 3.01746 0
M  V30 4524 C 430.793 2.15259 1.7481 0
M  V30 4525 H 433.744 1.47198 0.593173 0
M  V30 4526 H 433.765 1.93905 3.27385 0
M  V30 4527 H 433.277 3.29422 2.05189 0
M  V30 4528 H 431.378 1.29417 3.49403 0
M  V30 4529 H 431.491 3.1761 3.58693 0
M  V30 4530 H 429.855 1.61482 1.96966 0
M  V30 4531 H 430.638 3.16191 1.33709 0
M  V30 4532 N 433.083 -1.0153 1.20538 0
M  V30 4533 C 434.329 -1.75517 1.02787 0
M  V30 4534 C 434.684 -1.87411 -0.435289 0
M  V30 4535 O 433.977 -1.38982 -1.31889 0
M  V30 4536 C 434.171 -3.17213 1.64654 0
M  V30 4537 C 434 -3.19134 3.16834 0
M  V30 4538 C 432.77 -3.26301 3.85818 0
M  V30 4539 C 434.968 -3.05077 4.14044 0
M  V30 4540 N 432.95 -3.17739 5.25276 0
M  V30 4541 C 434.321 -3.04299 5.40187 0
M  V30 4542 C 436.376 -2.89303 4.05226 0
M  V30 4543 C 435.079 -2.89365 6.58529 0
M  V30 4544 C 437.105 -2.75723 5.23193 0
M  V30 4545 C 436.467 -2.75612 6.48242 0
M  V30 4546 H 432.566 -0.652919 0.430373 0
M  V30 4547 H 435.15 -1.20755 1.52729 0
M  V30 4548 H 433.321 -3.70266 1.17294 0
M  V30 4549 H 435.053 -3.79637 1.40208 0
M  V30 4550 H 431.808 -3.33078 3.36684 0
M  V30 4551 H 432.232 -3.16829 5.98288 0
M  V30 4552 H 436.874 -2.88201 3.09354 0
M  V30 4553 H 434.592 -2.89216 7.54573 0
M  V30 4554 H 438.178 -2.64533 5.18183 0
M  V30 4555 H 437.058 -2.65224 7.37988 0
M  V30 4556 N 434.561 -1.01147 -1.20859 0
M  V30 4557 C 435.81 -0.693214 -1.89413 0
M  V30 4558 C 436.123 0.779969 -1.79376 0
M  V30 4559 O 437.329 1.21057 -2.43017 0
M  V30 4560 C 435.785 -1.18949 -3.39675 0
M  V30 4561 C 435.393 -2.68921 -3.58309 0
M  V30 4562 C 437.137 -0.94642 -4.13815 0
M  V30 4563 C 435.044 -3.12056 -5.0237 0
M  V30 4564 H 433.974 -0.255595 -0.709357 0
M  V30 4565 H 436.625 -1.22349 -1.36759 0
M  V30 4566 H 435.007 -0.587228 -3.91622 0
M  V30 4567 H 436.181 -3.34652 -3.16772 0
M  V30 4568 H 434.496 -2.91314 -2.97532 0
M  V30 4569 H 437.093 -1.24417 -5.20023 0
M  V30 4570 H 437.436 0.117219 -4.16135 0
M  V30 4571 H 437.969 -1.5118 -3.67953 0
M  V30 4572 H 434.708 -4.17674 -5.05202 0
M  V30 4573 H 434.228 -2.51041 -5.44737 0
M  V30 4574 H 435.907 -3.04403 -5.70918 0
M  V30 4575 N 436.039 1.36541 -0.78704 0
M  V30 4576 C 436.972 2.27831 -0.129765 0
M  V30 4577 C 437.95 1.47105 0.692732 0
M  V30 4578 O 439.134 1.7641 0.664222 0
M  V30 4579 C 436.261 3.28577 0.821883 0
M  V30 4580 C 435.307 4.26422 0.0814771 0
M  V30 4581 S 436.14 5.20919 -1.24112 0
M  V30 4582 C 437.296 6.25212 -0.293409 0
M  V30 4583 H 437.529 2.83229 -0.903811 0
M  V30 4584 H 435.062 1.43046 -0.581144 0
M  V30 4585 H 437.02 3.87123 1.3655 0
M  V30 4586 H 435.681 2.72096 1.56916 0
M  V30 4587 H 434.874 4.97554 0.803485 0
M  V30 4588 H 434.476 3.71944 -0.391589 0
M  V30 4589 H 436.768 6.75435 0.528622 0
M  V30 4590 H 437.711 7.01378 -0.973344 0
M  V30 4591 H 438.119 5.64407 0.102196 0
M  V30 4592 N 437.518 0.538854 1.48102 0
M  V30 4593 C 438.746 0.0123136 2.06896 0
M  V30 4594 C 439.161 -1.27312 1.39417 0
M  V30 4595 O 438.518 -1.75949 0.484582 0
M  V30 4596 C 438.569 -0.206118 3.60912 0
M  V30 4597 O 438.29 1.0284 4.25859 0
M  V30 4598 C 439.791 -0.772033 4.36526 0
M  V30 4599 H 437.011 0.0375239 0.66995 0
M  V30 4600 H 439.555 0.747032 1.90367 0
M  V30 4601 H 437.71 -0.89091 3.77017 0
M  V30 4602 H 438.124 0.814654 5.18135 0
M  V30 4603 H 439.598 -0.874251 5.45033 0
M  V30 4604 H 440.075 -1.77904 4.01555 0
M  V30 4605 H 440.681 -0.123526 4.25121 0
M  V30 4606 N 438.996 -1.55193 0.274407 0
M  V30 4607 C 440.407 -1.85358 -0.223488 0
M  V30 4608 C 440.758 -1.19642 -1.555 0
M  V30 4609 O 439.883 -0.484498 -2.10907 0
M  V30 4610 C 440.478 -3.36282 -0.412285 0
M  V30 4611 C 439.037 -3.66574 -0.854413 0
M  V30 4612 C 438.184 -2.7725 0.0527056 0
M  V30 4613 H 441.135 -1.50743 0.496215 0
M  V30 4614 H 441.156 -3.59349 -1.25094 0
M  V30 4615 H 440.668 -3.84083 0.556965 0
M  V30 4616 H 438.769 -3.24273 -1.83516 0
M  V30 4617 H 438.882 -4.74073 -0.692226 0
M  V30 4618 H 437.246 -2.50447 -0.463484 0
M  V30 4619 H 438.029 -3.27865 1.01783 0
M  V30 4620 N 440.474 -0.00167713 -1.576 0
M  V30 4621 C 441.422 1.0074 -2.09652 0
M  V30 4622 C 442.416 1.35483 -1.01689 0
M  V30 4623 O 443.622 1.34028 -1.20152 0
M  V30 4624 H 439.997 0.342537 -0.669457 0
M  V30 4625 H 441.968 0.542841 -2.93421 0
M  V30 4626 C 440.717 2.2899 -2.61647 0
M  V30 4627 H 440.04 2.03124 -3.44355 0
M  V30 4628 H 441.48 2.9787 -3.01744 0
M  V30 4629 C 439.939 3.00085 -1.53136 0
M  V30 4630 O 440.469 3.91135 -0.91524 0
M  V30 4631 N 438.675 2.6194 -1.25841 0
M  V30 4632 H 438.222 1.8798 -1.76129 0
M  V30 4633 H 438.18 3.09822 -0.534576 0
M  V30 4634 N 441.952 1.55251 0.271103 0
M  V30 4635 C 443.18 1.79974 1.02064 0
M  V30 4636 C 443.595 0.574003 1.79863 0
M  V30 4637 O 442.952 -0.456962 1.76686 0
M  V30 4638 C 443.003 3.02603 1.97772 0
M  V30 4639 O 442.724 4.20443 1.23124 0
M  V30 4640 C 444.225 3.39944 2.84522 0
M  V30 4641 H 441.445 0.599489 0.301419 0
M  V30 4642 H 443.989 2.02268 0.301313 0
M  V30 4643 H 442.144 2.8243 2.65165 0
M  V30 4644 H 442.558 4.89783 1.87651 0
M  V30 4645 H 444.032 4.28915 3.47471 0
M  V30 4646 H 444.509 2.59432 3.54389 0
M  V30 4647 H 445.115 3.62383 2.22618 0
M  V30 4648 N 443.43 -0.535701 1.48216 0
M  V30 4649 C 444.362 -1.65662 1.58394 0
M  V30 4650 C 445.375 -1.5591 0.468607 0
M  V30 4651 O 446.564 -1.62475 0.7392 0
M  V30 4652 C 443.664 -3.04276 1.4923 0
M  V30 4653 C 442.837 -3.39567 2.75705 0
M  V30 4654 C 441.896 -4.57436 2.60075 0
M  V30 4655 O 440.922 -4.60942 3.33948 0
M  V30 4656 N 442.124 -5.55259 1.69315 0
M  V30 4657 H 444.889 -1.5737 2.55058 0
M  V30 4658 H 442.45 -0.722845 1.44867 0
M  V30 4659 H 444.442 -3.80994 1.36477 0
M  V30 4660 H 443.012 -3.06677 0.605632 0
M  V30 4661 H 442.232 -2.52083 3.03064 0
M  V30 4662 H 443.52 -3.59929 3.59623 0
M  V30 4663 H 442.918 -5.552 1.08489 0
M  V30 4664 H 441.475 -6.31218 1.62504 0
M  V30 4665 N 444.908 -1.36708 -0.784132 0
M  V30 4666 C 446.319 -1.27947 -1.35965 0
M  V30 4667 C 446.67 0.0784013 -1.96043 0
M  V30 4668 O 445.795 0.979989 -1.92938 0
M  V30 4669 C 446.39 -2.31689 -2.47195 0
M  V30 4670 C 444.949 -2.26601 -3.00548 0
M  V30 4671 C 444.096 -2.16184 -1.73666 0
M  V30 4672 H 447.047 -1.4751 -0.585358 0
M  V30 4673 H 447.068 -1.95638 -3.26352 0
M  V30 4674 H 446.58 -3.30506 -2.03439 0
M  V30 4675 H 444.681 -1.31268 -3.48711 0
M  V30 4676 H 444.794 -3.19508 -3.57004 0
M  V30 4677 H 443.158 -1.62524 -1.96107 0
M  V30 4678 H 443.941 -3.16896 -1.32031 0
M  V30 4679 N 446.386 1.0089 -1.21074 0
M  V30 4680 C 447.797 1.56056 -1.02486 0
M  V30 4681 C 448.148 1.91728 0.416506 0
M  V30 4682 O 447.273 1.73066 1.29912 0
M  V30 4683 C 447.868 2.83563 -1.85411 0
M  V30 4684 C 446.427 3.3523 -1.71166 0
M  V30 4685 C 445.574 2.0846 -1.82865 0
M  V30 4686 H 448.525 0.831818 -1.35154 0
M  V30 4687 H 448.546 3.55286 -1.36205 0
M  V30 4688 H 448.058 2.57569 -2.9031 0
M  V30 4689 H 446.159 3.66167 -0.689361 0
M  V30 4690 H 446.272 4.06913 -2.52901 0
M  V30 4691 H 444.636 2.21275 -1.26132 0
M  V30 4692 H 445.419 1.84883 -2.89263 0
M  V30 4693 N 447.864 1.01787 1.20321 0
M  V30 4694 C 448.774 0.598898 2.26827 0
M  V30 4695 C 449.79 -0.36418 1.70146 0
M  V30 4696 O 450.966 -0.224812 2.00141 0
M  V30 4697 C 448.031 -0.0549769 3.46656 0
M  V30 4698 C 447.092 0.954205 4.18561 0
M  V30 4699 C 446.325 0.331439 5.3267 0
M  V30 4700 O 446.548 -0.86851 5.63749 0
M  V30 4701 O 445.482 1.0488 5.92692 0
M  V30 4702 H 449.308 1.48562 2.64883 0
M  V30 4703 H 446.893 0.787434 1.26964 0
M  V30 4704 H 448.775 -0.420102 4.19301 0
M  V30 4705 H 447.45 -0.915876 3.10473 0
M  V30 4706 H 446.357 1.37072 3.48083 0
M  V30 4707 H 447.69 1.78511 4.58688 0
M  V30 4708 N 449.342 -1.36122 0.79427 0
M  V30 4709 C 450.252 -2.33769 0.197296 0
M  V30 4710 C 451.268 -1.61276 -0.653153 0
M  V30 4711 O 452.444 -1.9323 -0.5678 0
M  V30 4712 C 449.509 -3.40474 -0.654098 0
M  V30 4713 C 448.57 -4.28759 0.215411 0
M  V30 4714 C 447.803 -5.30368 -0.595443 0
M  V30 4715 O 448.026 -5.40211 -1.83107 0
M  V30 4716 O 446.96 -6.019 0.00721351 0
M  V30 4717 H 450.786 -2.86597 1.00478 0
M  V30 4718 H 448.371 -1.38676 0.555818 0
M  V30 4719 H 450.253 -4.05703 -1.13944 0
M  V30 4720 H 448.928 -2.89937 -1.43938 0
M  V30 4721 H 447.835 -3.66554 0.747615 0
M  V30 4722 H 449.168 -4.82661 0.964332 0
M  V30 4723 N 450.82 -0.546701 -1.47814 0
M  V30 4724 C 451.75 0.195317 -2.32682 0
M  V30 4725 C 452.731 0.918981 -1.43139 0
M  V30 4726 O 453.916 0.901501 -1.72008 0
M  V30 4727 C 451.046 1.23237 -3.247 0
M  V30 4728 C 450 0.625818 -4.234 0
M  V30 4729 C 449.326 1.76674 -5.04669 0
M  V30 4730 C 450.626 -0.413515 -5.2066 0
M  V30 4731 H 452.32 -0.513184 -2.94969 0
M  V30 4732 H 449.866 -0.248241 -1.41844 0
M  V30 4733 H 451.819 1.75955 -3.82907 0
M  V30 4734 H 450.543 1.97067 -2.60446 0
M  V30 4735 H 449.202 0.120023 -3.66403 0
M  V30 4736 H 448.85 2.49383 -4.36826 0
M  V30 4737 H 448.55 1.36673 -5.71484 0
M  V30 4738 H 450.074 2.29738 -5.65732 0
M  V30 4739 H 451.488 0.0272042 -5.73294 0
M  V30 4740 H 449.885 -0.731825 -5.95621 0
M  V30 4741 H 450.955 -1.31325 -4.66778 0
M  V30 4742 N 452.299 1.55045 -0.282633 0
M  V30 4743 C 453.529 2.03872 0.334635 0
M  V30 4744 C 453.937 1.16018 1.49454 0
M  V30 4745 O 453.28 0.174449 1.8287 0
M  V30 4746 C 453.342 3.48791 0.870905 0
M  V30 4747 C 453.006 4.56715 -0.161338 0
M  V30 4748 C 454.003 5.10513 -0.983466 0
M  V30 4749 C 451.688 5.01417 -0.297745 0
M  V30 4750 C 453.682 6.07538 -1.92811 0
M  V30 4751 C 451.369 5.98265 -1.24586 0
M  V30 4752 C 452.367 6.51208 -2.05954 0
M  V30 4753 O 452.055 7.46162 -2.99162 0
M  V30 4754 H 451.787 0.671324 0.0793742 0
M  V30 4755 H 454.341 2.01169 -0.41473 0
M  V30 4756 H 452.571 3.48758 1.67047 0
M  V30 4757 H 454.26 3.80916 1.40207 0
M  V30 4758 H 455.026 4.76785 -0.888856 0
M  V30 4759 H 450.905 4.59849 0.325604 0
M  V30 4760 H 454.449 6.48787 -2.56363 0
M  V30 4761 H 450.346 6.31412 -1.34126 0
M  V30 4762 H 451.114 7.63903 -2.93929 0
M  V30 4763 N 453.777 0.010035 1.57597 0
M  V30 4764 C 455.023 -0.673697 1.91283 0
M  V30 4765 C 455.356 -1.72863 0.884979 0
M  V30 4766 O 454.631 -1.94268 -0.0949487 0
M  V30 4767 C 454.914 -1.30766 3.35518 0
M  V30 4768 C 454.767 -0.263578 4.49027 0
M  V30 4769 C 456.086 -2.23105 3.79358 0
M  V30 4770 H 453.205 -0.243439 0.695634 0
M  V30 4771 H 455.847 0.0633864 1.89894 0
M  V30 4772 H 453.997 -1.93588 3.36832 0
M  V30 4773 H 455.669 0.365738 4.59848 0
M  V30 4774 H 453.912 0.413077 4.31829 0
M  V30 4775 H 454.583 -0.746398 5.4693 0
M  V30 4776 H 457.059 -1.70289 3.79659 0
M  V30 4777 H 455.935 -2.64424 4.81011 0
M  V30 4778 H 456.196 -3.11433 3.13787 0
M  V30 4779 N 455.255 -1.55392 -0.262866 0
M  V30 4780 C 456.495 -1.78231 -1.00064 0
M  V30 4781 C 456.859 -0.576966 -1.83126 0
M  V30 4782 O 458.06 -0.683809 -2.59957 0
M  V30 4783 C 456.331 -3.05701 -1.85153 0
M  V30 4784 S 457.89 -3.49699 -2.65058 0
M  V30 4785 H 454.708 -0.626138 -0.336856 0
M  V30 4786 H 457.31 -1.93626 -0.27005 0
M  V30 4787 H 456.014 -3.91511 -1.23074 0
M  V30 4788 H 455.545 -2.93 -2.62515 0
M  V30 4789 H 457.56 -3.09772 -3.87629 0
M  V30 4790 N 456.733 0.527833 -1.48498 0
M  V30 4791 C 458.149 0.856571 -1.34666 0
M  V30 4792 C 458.349 1.98271 -0.35931 0
M  V30 4793 O 457.405 2.51551 0.218703 0
M  V30 4794 C 458.718 1.22207 -2.74747 0
M  V30 4795 C 460.266 1.33183 -2.83251 0
M  V30 4796 C 460.741 1.73075 -4.24039 0
M  V30 4797 N 462.232 1.80174 -4.26722 0
M  V30 4798 C 462.967 2.1243 -5.32598 0
M  V30 4799 N 462.463 2.43096 -6.4875 0
M  V30 4800 N 464.256 2.13454 -5.19994 0
M  V30 4801 H 456.407 -0.215174 -2.11307 0
M  V30 4802 H 458.67 -0.0336281 -0.947403 0
M  V30 4803 H 458.376 0.468195 -3.4857 0
M  V30 4804 H 458.25 2.17173 -3.08409 0
M  V30 4805 H 460.637 2.07647 -2.09683 0
M  V30 4806 H 460.718 0.363333 -2.53206 0
M  V30 4807 H 460.362 0.991712 -4.98124 0
M  V30 4808 H 460.292 2.70979 -4.51529 0
M  V30 4809 H 462.783 1.58744 -3.42942 0
M  V30 4810 H 463.096 2.6682 -7.25277 0
M  V30 4811 H 461.441 2.40611 -6.52021 0
M  V30 4812 H 464.632 1.88956 -4.28268 0
M  V30 4813 H 464.805 2.38261 -6.02608 0
M  V30 4814 N 458.211 1.37122 0.776871 0
M  V30 4815 C 459.457 1.32243 1.53752 0
M  V30 4816 C 459.79 -0.0944745 1.9397 0
M  V30 4817 O 459.065 -1.05068 1.6368 0
M  V30 4818 C 459.348 2.25681 2.80607 0
M  V30 4819 C 459.201 3.76127 2.46676 0
M  V30 4820 C 460.52 2.17657 3.82509 0
M  V30 4821 H 457.639 0.481704 0.557791 0
M  V30 4822 H 460.281 1.6778 0.891612 0
M  V30 4823 H 458.431 1.95505 3.35723 0
M  V30 4824 H 460.103 4.16877 1.97513 0
M  V30 4825 H 458.346 3.94946 1.79443 0
M  V30 4826 H 459.017 4.36933 3.37333 0
M  V30 4827 H 461.493 2.44245 3.36873 0
M  V30 4828 H 460.369 2.85185 4.69 0
M  V30 4829 H 460.63 1.16785 4.26396 0
M  V30 4830 N 459.689 -1.00246 1.21608 0
M  V30 4831 C 460.622 -2.08794 0.920892 0
M  V30 4832 C 461.6 -1.62059 -0.132552 0
M  V30 4833 O 462.784 -1.885 -0.0030366 0
M  V30 4834 C 459.911 -3.36525 0.383226 0
M  V30 4835 C 458.957 -4.02172 1.41987 0
M  V30 4836 S 459.79 -4.44256 2.98994 0
M  V30 4837 C 460.946 -5.7517 2.4684 0
M  V30 4838 H 461.179 -2.33511 1.8401 0
M  V30 4839 H 458.712 -1.13562 1.04609 0
M  V30 4840 H 460.67 -4.10423 0.0795871 0
M  V30 4841 H 459.331 -3.09854 -0.514711 0
M  V30 4842 H 458.524 -4.94114 0.993335 0
M  V30 4843 H 458.126 -3.34559 1.67171 0
M  V30 4844 H 460.418 -6.51042 1.87484 0
M  V30 4845 H 461.361 -6.22638 3.37235 0
M  V30 4846 H 461.769 -5.32112 1.88461 0
M  V30 4847 N 461.167 -1.02423 -1.1978 0
M  V30 4848 C 462.444 -0.632802 -1.85081 0
M  V30 4849 C 462.824 0.888745 -1.9148 0
M  V30 4850 O 462.172 1.78357 -1.42832 0
M  V30 4851 C 462.382 -1.28947 -3.24305 0
M  V30 4852 C 463.73 -1.40976 -4.00513 0
M  V30 4853 O 464.754 -1.24628 -3.33686 0
M  V30 4854 O 463.613 -1.67467 -5.20209 0
M  V30 4855 H 460.707 -0.219348 -0.79738 0
M  V30 4856 H 463.253 -1.12209 -1.27307 0
M  V30 4857 H 462.025 -2.3288 -3.14456 0
M  V30 4858 H 461.648 -0.787748 -3.89718 0
M  V30 4859 N 462.645 1.35699 -0.801477 0
M  V30 4860 C 463.873 2.03157 -0.391768 0
M  V30 4861 C 464.288 1.60412 0.995668 0
M  V30 4862 O 463.645 0.799228 1.64069 0
M  V30 4863 C 463.696 3.58566 -0.459671 0
M  V30 4864 O 463.417 3.99756 -1.7924 0
M  V30 4865 C 464.918 4.4328 -0.0421205 0
M  V30 4866 H 462.138 0.651688 -0.159825 0
M  V30 4867 H 464.682 1.73426 -1.08368 0
M  V30 4868 H 462.837 3.86963 0.183939 0
M  V30 4869 H 463.251 4.94387 -1.75162 0
M  V30 4870 H 464.725 5.51821 -0.140754 0
M  V30 4871 H 465.202 4.27383 1.01196 0
M  V30 4872 H 465.808 4.20168 -0.658687 0
M  V30 4873 N 464.123 0.554532 1.47522 0
M  V30 4874 C 465.073 -0.215008 2.26984 0
M  V30 4875 C 466.057 -0.88774 1.34194 0
M  V30 4876 O 467.249 -0.786489 1.58567 0
M  V30 4877 C 464.378 -1.24604 3.19889 0
M  V30 4878 C 463.464 -0.576857 4.20159 0
M  V30 4879 N 463.855 0.351541 5.04577 0
M  V30 4880 C 462.153 -0.831104 4.38188 0
M  V30 4881 C 462.854 0.739995 5.76974 0
M  V30 4882 N 461.83 0.0954407 5.43516 0
M  V30 4883 H 465.632 0.498843 2.89636 0
M  V30 4884 H 463.146 0.374279 1.58028 0
M  V30 4885 H 465.143 -1.81128 3.75498 0
M  V30 4886 H 463.803 -1.96101 2.58794 0
M  V30 4887 H 464.814 0.725556 5.12792 0
M  V30 4888 H 461.491 -1.53479 3.88266 0
M  V30 4889 H 462.881 1.50271 6.5488 0
M  V30 4890 N 465.601 -1.54893 0.290851 0
M  V30 4891 C 466.849 -1.99538 -0.320756 0
M  V30 4892 C 467.17 -1.18075 -1.55188 0
M  V30 4893 O 466.44 -0.274162 -1.93972 0
M  V30 4894 H 465.02 -0.737052 -0.121507 0
M  V30 4895 H 467.682 -1.90755 0.399832 0
M  V30 4896 H 466.778 -3.06282 -0.599802 0
M  V30 4897 N 467.08 -0.0183926 -1.57589 0
M  V30 4898 C 468.305 0.676634 -1.96052 0
M  V30 4899 C 468.73 1.6548 -0.894307 0
M  V30 4900 O 468.088 1.80712 0.145849 0
M  V30 4901 C 468.136 1.36872 -3.33614 0
M  V30 4902 O 467.24 2.48372 -3.29219 0
M  V30 4903 H 466.581 0.1786 -0.63953 0
M  V30 4904 H 469.111 -0.077056 -2.04455 0
M  V30 4905 H 469.121 1.72797 -3.69601 0
M  V30 4906 H 467.796 0.651636 -4.10763 0
M  V30 4907 H 466.373 2.14639 -3.04934 0
M  V30 4908 N 468.558 1.5553 0.254621 0
M  V30 4909 C 469.506 1.9048 1.33492 0
M  V30 4910 C 470.5 0.78304 1.50216 0
M  V30 4911 O 471.706 0.967582 1.51782 0
M  V30 4912 H 468.081 0.604846 0.44684 0
M  V30 4913 H 470.052 2.80688 1.01275 0
M  V30 4914 C 468.801 2.20928 2.68489 0
M  V30 4915 H 468.124 3.06742 2.56417 0
M  V30 4916 H 469.564 2.49291 3.42972 0
M  V30 4917 C 468.023 1.023 3.20993 0
M  V30 4918 O 468.553 0.267027 4.00811 0
M  V30 4919 N 466.759 0.815714 2.78917 0
M  V30 4920 H 466.306 1.43217 2.14119 0
M  V30 4921 H 466.264 0.0236532 3.14391 0
M  V30 4922 N 470.036 -0.519951 1.48776 0
M  V30 4923 C 470.946 -1.65025 1.66745 0
M  V30 4924 C 471.962 -1.6508 0.549954 0
M  V30 4925 O 473.138 -1.83848 0.822295 0
M  V30 4926 C 470.203 -3.0146 1.71238 0
M  V30 4927 C 469.264 -3.12182 2.94688 0
M  V30 4928 C 468.497 -4.42109 2.98958 0
M  V30 4929 O 468.72 -5.29799 2.1135 0
M  V30 4930 O 467.654 -4.57406 3.91233 0
M  V30 4931 H 471.48 -1.52801 2.62461 0
M  V30 4932 H 469.065 -0.694157 1.32294 0
M  V30 4933 H 470.947 -3.82584 1.76657 0
M  V30 4934 H 469.622 -3.13988 0.786975 0
M  V30 4935 H 468.529 -2.30316 2.94797 0
M  V30 4936 H 469.862 -3.04574 3.86646 0
M  V30 4937 N 471.514 -1.37532 -0.769588 0
M  V30 4938 C 472.461 -1.3347 -1.88293 0
M  V30 4939 C 473.431 -0.199891 -1.64893 0
M  V30 4940 O 474.616 -0.389594 -1.8678 0
M  V30 4941 C 471.756 -1.14968 -3.25387 0
M  V30 4942 C 470.869 -2.37698 -3.60727 0
M  V30 4943 C 470.004 -2.12051 -4.8704 0
M  V30 4944 C 469.043 -3.30636 -5.15117 0
M  V30 4945 N 468.18 -3.04527 -6.3262 0
M  V30 4946 H 473.02 -2.28658 -1.911 0
M  V30 4947 H 470.557 -1.13622 -0.934257 0
M  V30 4948 H 472.515 -1.02261 -4.04473 0
M  V30 4949 H 471.145 -0.234263 -3.21949 0
M  V30 4950 H 470.197 -2.61137 -2.76608 0
M  V30 4951 H 471.509 -3.26131 -3.77413 0
M  V30 4952 H 470.663 -1.96388 -5.74035 0
M  V30 4953 H 469.402 -1.20959 -4.72462 0
M  V30 4954 H 468.407 -3.46836 -4.26597 0
M  V30 4955 H 469.632 -4.22582 -5.31603 0
M  V30 4956 H 467.578 -2.16067 -6.19396 0
M  V30 4957 H 467.495 -3.86503 -6.49732 0
M  V30 4958 H 468.763 -2.92485 -7.22546 0
M  V30 4959 N 472.992 0.995999 -1.22138 0
M  V30 4960 C 474.239 1.7351 -1.04406 0
M  V30 4961 C 474.567 1.89884 0.421244 0
M  V30 4962 O 473.822 1.43683 1.32867 0
M  V30 4963 C 474.121 3.14553 -1.6968 0
M  V30 4964 C 473.787 3.18102 -3.19565 0
M  V30 4965 C 472.449 3.18778 -3.60464 0
M  V30 4966 C 474.801 3.14636 -4.15516 0
M  V30 4967 C 472.129 3.13684 -4.95801 0
M  V30 4968 C 474.481 3.11084 -5.50826 0
M  V30 4969 C 473.145 3.10074 -5.91109 0
M  V30 4970 H 472.415 0.634916 -0.38205 0
M  V30 4971 H 475.062 1.1667 -1.51857 0
M  V30 4972 H 473.367 3.74682 -1.14546 0
M  V30 4973 H 475.064 3.70477 -1.53454 0
M  V30 4974 H 471.654 3.18324 -2.86998 0
M  V30 4975 H 475.838 3.13266 -3.84939 0
M  V30 4976 H 471.094 3.11245 -5.26247 0
M  V30 4977 H 475.268 3.07357 -6.24904 0
M  V30 4978 H 472.895 3.05882 -6.95946 0
M  V30 4979 N 474.47 1.03057 1.19235 0
M  V30 4980 C 475.4 0.633497 2.24742 0
M  V30 4981 C 476.381 -0.358335 1.66283 0
M  V30 4982 O 477.566 -0.240676 1.92703 0
M  V30 4983 C 474.696 -0.0147648 3.47297 0
M  V30 4984 C 473.65 0.899527 4.18441 0
M  V30 4985 C 472.976 0.116281 5.34574 0
M  V30 4986 C 474.276 2.21404 4.73051 0
M  V30 4987 H 475.97 1.5155 2.58211 0
M  V30 4988 H 473.516 0.73014 1.24117 0
M  V30 4989 H 475.469 -0.304202 4.20301 0
M  V30 4990 H 474.193 -0.931577 3.13032 0
M  V30 4991 H 472.852 1.17319 3.47321 0
M  V30 4992 H 472.5 -0.802619 4.96555 0
M  V30 4993 H 472.2 0.725293 5.83107 0
M  V30 4994 H 473.724 -0.166376 6.10373 0
M  V30 4995 H 475.138 1.98601 5.37802 0
M  V30 4996 H 473.535 2.77512 5.32078 0
M  V30 4997 H 474.605 2.86752 3.91026 0
M  V30 4998 N 475.948 -1.35272 0.808662 0
M  V30 4999 C 476.858 -2.33546 0.222079 0
M  V30 5000 C 477.874 -1.6196 -0.636011 0
M  V30 5001 O 479.05 -1.93822 -0.547274 0
M  V30 5002 C 476.115 -3.41148 -0.61795 0
M  V30 5003 C 475.176 -4.28507 0.260875 0
M  V30 5004 C 474.409 -5.3097 -0.539156 0
M  V30 5005 O 474.632 -5.42123 -1.77367 0
M  V30 5006 O 473.566 -6.01858 0.0710526 0
M  V30 5007 H 477.392 -2.85515 1.03512 0
M  V30 5008 H 474.977 -1.38079 0.570495 0
M  V30 5009 H 476.859 -4.06889 -1.09634 0
M  V30 5010 H 475.534 -2.91447 -1.40855 0
M  V30 5011 H 474.441 -3.6574 0.786451 0
M  V30 5012 H 475.774 -4.81611 1.01547 0
M  V30 5013 N 477.426 -0.562348 -1.47226 0
M  V30 5014 C 478.703 0.0256985 -1.95583 0
M  V30 5015 C 479.083 1.48032 -1.50498 0
M  V30 5016 O 478.431 2.15973 -0.746181 0
M  V30 5017 C 478.641 -0.125129 -3.48776 0
M  V30 5018 C 479.989 0.0175728 -4.24596 0
M  V30 5019 O 481.013 -0.0529341 -3.56161 0
M  V30 5020 O 479.872 0.170145 -5.46235 0
M  V30 5021 H 476.966 0.0612565 -0.824728 0
M  V30 5022 H 479.512 -0.629233 -1.57603 0
M  V30 5023 H 478.284 -1.13715 -3.74412 0
M  V30 5024 H 477.907 0.567178 -3.93534 0
M  V30 5025 N 478.904 1.54736 -0.299062 0
M  V30 5026 C 479.837 2.1962 0.619851 0
M  V30 5027 C 480.815 1.16496 1.13434 0
M  V30 5028 O 481.999 1.4513 1.2029 0
M  V30 5029 C 479.126 2.8385 1.84788 0
M  V30 5030 C 478.172 4.00484 1.46679 0
M  V30 5031 S 479.005 5.32926 0.524389 0
M  V30 5032 C 480.161 6.00638 1.76026 0
M  V30 5033 H 480.394 2.97221 0.0686177 0
M  V30 5034 H 477.927 1.54176 -0.0832085 0
M  V30 5035 H 479.885 3.21483 2.55263 0
M  V30 5036 H 478.546 2.06099 2.37028 0
M  V30 5037 H 477.739 4.44201 2.38121 0
M  V30 5038 H 477.341 3.64398 0.842008 0
M  V30 5039 H 479.633 6.21327 2.70109 0
M  V30 5040 H 480.576 6.94805 1.36569 0
M  V30 5041 H 480.984 5.3026 1.93609 0
M  V30 5042 N 480.382 0.0267497 1.57577 0
M  V30 5043 C 481.607 -0.666227 1.96408 0
M  V30 5044 C 482.032 -1.65004 0.903071 0
M  V30 5045 O 481.39 -1.80787 -0.136263 0
M  V30 5046 C 481.438 -1.35101 3.34335 0
M  V30 5047 O 480.542 -2.46623 3.30531 0
M  V30 5048 H 479.883 -0.175206 0.640468 0
M  V30 5049 H 482.413 0.0878977 2.04411 0
M  V30 5050 H 482.423 -1.70834 3.70513 0
M  V30 5051 H 481.098 -0.629844 4.11103 0
M  V30 5052 H 479.675 -2.13019 3.06068 0
M  V30 5053 N 481.861 -1.55662 -0.24637 0
M  V30 5054 C 483.091 -1.81312 -0.990438 0
M  V30 5055 C 483.499 -0.600234 -1.79426 0
M  V30 5056 O 482.842 0.440537 -1.78339 0
M  V30 5057 C 482.904 -3.0032 -1.97607 0
M  V30 5058 C 482.568 -4.36322 -1.35912 0
M  V30 5059 C 483.565 -5.14295 -0.761348 0
M  V30 5060 C 481.25 -4.83019 -1.37833 0
M  V30 5061 C 483.244 -6.37114 -0.190998 0
M  V30 5062 C 480.931 -6.05786 -0.804128 0
M  V30 5063 C 481.929 -6.82672 -0.211489 0
M  V30 5064 O 481.617 -8.03121 0.353845 0
M  V30 5065 H 481.349 -0.607233 -0.297058 0
M  V30 5066 H 483.903 -2.0356 -0.274351 0
M  V30 5067 H 482.133 -2.73829 -2.73047 0
M  V30 5068 H 483.822 -3.13057 -2.58361 0
M  V30 5069 H 484.588 -4.79337 -0.739013 0
M  V30 5070 H 480.467 -4.23165 -1.829 0
M  V30 5071 H 484.011 -6.97069 0.272206 0
M  V30 5072 H 479.908 -6.40222 -0.823792 0
M  V30 5073 H 480.676 -8.18131 0.245761 0
M  V30 5074 N 483.339 0.512053 -1.4905 0
M  V30 5075 C 484.269 1.62365 -1.67809 0
M  V30 5076 C 485.25 1.61737 -0.526809 0
M  V30 5077 O 486.435 1.78651 -0.761404 0
M  V30 5078 C 483.565 3.00895 -1.73435 0
M  V30 5079 C 482.519 3.16387 -2.88242 0
M  V30 5080 C 481.845 4.56157 -2.78971 0
M  V30 5081 C 483.145 2.97457 -4.29321 0
M  V30 5082 H 484.839 1.46921 -2.60873 0
M  V30 5083 H 482.385 0.705379 -1.2554 0
M  V30 5084 H 484.338 3.78549 -1.85145 0
M  V30 5085 H 483.062 3.17403 -0.769619 0
M  V30 5086 H 481.721 2.41155 -2.76116 0
M  V30 5087 H 481.369 4.69525 -1.8043 0
M  V30 5088 H 481.069 4.67465 -3.5602 0
M  V30 5089 H 482.593 5.35886 -2.92675 0
M  V30 5090 H 484.007 3.64888 -4.42187 0
M  V30 5091 H 482.404 3.20245 -5.07507 0
M  V30 5092 H 483.474 1.93692 -4.44535 0
M  V30 5093 N 484.817 1.37938 0.762283 0
M  V30 5094 C 486.045 1.36883 1.55147 0
M  V30 5095 C 486.46 -0.0435348 1.8875 0
M  V30 5096 O 485.817 -1.00786 1.52146 0
M  V30 5097 C 485.868 2.21624 2.85596 0
M  V30 5098 O 485.589 3.57358 2.5343 0
M  V30 5099 C 487.09 2.28653 3.7978 0
M  V30 5100 H 484.31 0.468521 0.480343 0
M  V30 5101 H 486.854 1.81404 0.944079 0
M  V30 5102 H 485.009 1.80588 3.42734 0
M  V30 5103 H 485.423 4.01883 3.37032 0
M  V30 5104 H 486.897 2.9225 4.68288 0
M  V30 5105 H 487.374 1.29767 4.19592 0
M  V30 5106 H 487.98 2.70043 3.28568 0
M  V30 5107 N 486.295 -0.989507 1.22664 0
M  V30 5108 C 487.225 -2.09847 1.02404 0
M  V30 5109 C 488.206 -1.70007 -0.0561303 0
M  V30 5110 O 489.391 -1.93906 0.106748 0
M  V30 5111 C 486.521 -3.41996 0.604663 0
M  V30 5112 C 485.475 -3.95699 1.63115 0
M  V30 5113 C 484.801 -5.23936 1.0675 0
M  V30 5114 C 486.101 -4.25999 3.02196 0
M  V30 5115 H 487.795 -2.27054 1.95158 0
M  V30 5116 H 485.341 -1.09111 0.939727 0
M  V30 5117 H 487.294 -4.1899 0.45002 0
M  V30 5118 H 486.018 -3.24626 -0.35855 0
M  V30 5119 H 484.677 -3.2084 1.77362 0
M  V30 5120 H 484.325 -5.02909 0.0955422 0
M  V30 5121 H 484.025 -5.60833 1.75328 0
M  V30 5122 H 485.549 -6.0356 0.924516 0
M  V30 5123 H 486.963 -4.93777 2.91303 0
M  V30 5124 H 485.36 -4.74076 3.67929 0
M  V30 5125 H 486.43 -3.33636 3.51873 0
M  V30 5126 N 487.773 -1.03688 -1.18687 0
M  V30 5127 C 488.72 -0.624624 -2.22187 0
M  V30 5128 C 489.69 0.365636 -1.62026 0
M  V30 5129 O 490.875 0.260481 -1.89014 0
M  V30 5130 C 488.015 0.0101738 -3.45099 0
M  V30 5131 C 487.128 -1.02709 -4.19613 0
M  V30 5132 C 486.263 -0.361213 -5.2997 0
M  V30 5133 C 485.302 -1.38384 -5.96252 0
M  V30 5134 N 484.439 -0.743196 -6.98155 0
M  V30 5135 H 489.279 -1.51176 -2.56807 0
M  V30 5136 H 486.816 -0.75636 -1.26165 0
M  V30 5137 H 488.774 0.395528 -4.15321 0
M  V30 5138 H 487.404 0.860848 -3.1111 0
M  V30 5139 H 486.456 -1.53043 -3.48256 0
M  V30 5140 H 487.768 -1.80398 -4.65036 0
M  V30 5141 H 486.922 0.0785537 -6.06649 0
M  V30 5142 H 485.661 0.447799 -4.8564 0
M  V30 5143 H 484.666 -1.83378 -5.18317 0
M  V30 5144 H 485.891 -2.19448 -6.42666 0
M  V30 5145 H 483.837 0.0455789 -6.55984 0
M  V30 5146 H 483.754 -1.45784 -7.41811 0
M  V30 5147 H 485.022 -0.327698 -7.78811 0
M  V30 5148 N 489.251 1.34841 -0.815825 0
M  V30 5149 C 490.214 2.27959 -0.238185 0
M  V30 5150 C 491.214 1.49983 0.579816 0
M  V30 5151 O 492.404 1.69617 0.396953 0
M  V30 5152 C 489.536 3.34314 0.666876 0
M  V30 5153 H 490.729 2.80558 -1.05958 0
M  V30 5154 H 488.282 1.44852 -0.587156 0
M  V30 5155 H 489.017 2.86916 1.5116 0
M  V30 5156 H 488.802 3.92014 0.0819106 0
M  V30 5157 H 490.292 4.0379 1.06506 0
M  V30 5158 N 490.729 0.570148 1.46925 0
M  V30 5159 C 491.677 -0.183181 2.31878 0
M  V30 5160 C 492.671 -0.896721 1.43719 0
M  V30 5161 O 493.877 -0.816536 1.60414 0
M  V30 5162 H 490.252 -0.077944 0.74795 0
M  V30 5163 H 492.223 0.552312 2.93244 0
M  V30 5164 C 490.972 -1.19172 3.2664 0
M  V30 5165 H 490.295 -0.652088 3.94446 0
M  V30 5166 H 491.735 -1.68946 3.88887 0
M  V30 5167 C 490.194 -2.24627 2.51086 0
M  V30 5168 O 490.724 -3.31773 2.26472 0
M  V30 5169 N 488.93 -1.98898 2.11867 0
M  V30 5170 H 488.477 -1.11777 2.32086 0
M  V30 5171 H 488.435 -2.6967 1.61634 0
M  V30 5172 N 492.207 -1.54576 0.307264 0
M  V30 5173 C 493.447 -2.02172 -0.300962 0
M  V30 5174 C 493.811 -1.19081 -1.50611 0
M  V30 5175 O 495.012 -1.56405 -2.18612 0
M  V30 5176 C 493.283 -3.51576 -0.642591 0
M  V30 5177 S 494.842 -4.21127 -1.23279 0
M  V30 5178 H 491.66 -0.705021 -0.0920141 0
M  V30 5179 H 494.262 -1.90563 0.436594 0
M  V30 5180 H 492.966 -4.09681 0.242901 0
M  V30 5181 H 492.497 -3.67234 -1.41077 0
M  V30 5182 H 494.512 -4.27426 -2.52034 0
M  V30 5183 N 493.685 -0.035106 -1.57561 0
M  V30 5184 C 494.632 0.94474 -2.10578 0
M  V30 5185 C 495.602 1.3192 -1.00927 0
M  V30 5186 O 496.787 1.41147 -1.28382 0
M  V30 5187 C 493.927 2.21982 -2.64231 0
M  V30 5188 C 493.04 1.90128 -3.87911 0
M  V30 5189 C 492.175 3.11975 -4.29936 0
M  V30 5190 C 491.214 2.75968 -5.46359 0
M  V30 5191 N 490.351 3.90459 -5.83512 0
M  V30 5192 H 495.191 0.485717 -2.94015 0
M  V30 5193 H 492.728 0.228143 -1.4532 0
M  V30 5194 H 494.686 2.96572 -2.9343 0
M  V30 5195 H 493.316 2.6549 -1.83616 0
M  V30 5196 H 492.368 1.05755 -3.65404 0
M  V30 5197 H 493.68 1.59613 -4.72573 0
M  V30 5198 H 492.834 3.9488 -4.60603 0
M  V30 5199 H 491.573 3.45657 -3.44053 0
M  V30 5200 H 490.578 1.91478 -5.1538 0
M  V30 5201 H 491.803 2.43497 -6.33945 0
M  V30 5202 H 489.749 4.23971 -5.00584 0
M  V30 5203 H 489.666 3.63588 -6.62827 0
M  V30 5204 H 490.934 4.7405 -6.18787 0
M  V30 5205 N 495.163 1.55791 0.238111 0
M  V30 5206 C 496.093 1.94068 1.29846 0
M  V30 5207 C 497.074 0.806726 1.49753 0
M  V30 5208 O 498.259 1.06772 1.62214 0
M  V30 5209 C 495.389 2.24302 2.65153 0
M  V30 5210 C 494.343 3.40032 2.59927 0
M  V30 5211 C 493.669 3.55829 3.99111 0
M  V30 5212 C 494.969 4.75476 2.16148 0
M  V30 5213 H 496.663 2.82887 0.980563 0
M  V30 5214 H 494.209 1.36105 0.470253 0
M  V30 5215 H 496.162 2.4967 3.39475 0
M  V30 5216 H 494.886 1.32318 2.98596 0
M  V30 5217 H 493.545 3.14687 1.88063 0
M  V30 5218 H 493.193 2.6125 4.29834 0
M  V30 5219 H 492.893 4.3366 3.96501 0
M  V30 5220 H 494.417 3.83528 4.7512 0
M  V30 5221 H 495.831 5.00158 2.80205 0
M  V30 5222 H 494.228 5.56472 2.24631 0
M  V30 5223 H 495.298 4.71946 1.11333 0
M  V30 5224 N 496.642 -0.504142 1.49319 0
M  V30 5225 C 497.87 -1.28256 1.62351 0
M  V30 5226 C 498.285 -1.86502 0.293682 0
M  V30 5227 O 497.642 -1.67678 -0.720449 0
M  V30 5228 C 497.693 -2.41507 2.68992 0
M  V30 5229 O 497.414 -1.85656 3.96817 0
M  V30 5230 C 498.915 -3.32929 2.927 0
M  V30 5231 H 496.135 -0.389115 0.546654 0
M  V30 5232 H 498.679 -0.605531 1.95329 0
M  V30 5233 H 496.834 -3.05046 2.38801 0
M  V30 5234 H 497.248 -2.59981 4.55533 0
M  V30 5235 H 498.722 -4.0868 3.71058 0
M  V30 5236 H 499.199 -3.89733 2.02496 0
M  V30 5237 H 499.805 -2.75158 3.24296 0
M  V30 5238 N 498.12 -1.38341 -0.754957 0
M  V30 5239 C 499.369 -1.33791 -1.5094 0
M  V30 5240 C 499.682 0.0699267 -1.95475 0
M  V30 5241 O 500.888 0.237956 -2.70455 0
M  V30 5242 C 499.344 -2.34934 -2.72643 0
M  V30 5243 C 498.952 -3.81332 -2.35138 0
M  V30 5244 C 500.696 -2.39425 -3.50536 0
M  V30 5245 C 498.603 -4.74164 -3.53444 0
M  V30 5246 H 497.533 -0.497314 -0.566741 0
M  V30 5247 H 500.184 -1.63888 -0.825403 0
M  V30 5248 H 498.566 -1.97878 -3.43017 0
M  V30 5249 H 499.74 -4.27319 -1.7244 0
M  V30 5250 H 498.055 -3.79946 -1.70382 0
M  V30 5251 H 500.652 -3.0598 -4.38498 0
M  V30 5252 H 500.995 -1.41278 -3.91594 0
M  V30 5253 H 501.528 -2.75274 -2.87174 0
M  V30 5254 H 498.267 -5.73501 -3.17453 0
M  V30 5255 H 497.787 -4.3287 -4.15191 0
M  V30 5256 H 499.466 -4.92111 -4.20043 0
M  V30 5257 N 499.598 0.982988 -1.23187 0
M  V30 5258 C 500.838 1.73903 -1.07412 0
M  V30 5259 C 501.202 1.88146 0.382764 0
M  V30 5260 O 502.403 2.6053 0.661638 0
M  V30 5261 C 500.674 3.10105 -1.77678 0
M  V30 5262 S 502.233 4.01323 -1.77441 0
M  V30 5263 H 499.051 0.598093 -0.384456 0
M  V30 5264 H 501.653 1.17456 -1.56283 0
M  V30 5265 H 500.357 2.97388 -2.82822 0
M  V30 5266 H 499.888 3.71622 -1.29077 0
M  V30 5267 H 501.903 4.89189 -0.831162 0
M  V30 5268 N 501.076 1.04316 1.18135 0
M  V30 5269 C 502.487 0.775505 1.69832 0
M  V30 5270 C 502.838 -0.703348 1.8316 0
M  V30 5271 O 501.963 -1.54729 1.51287 0
M  V30 5272 C 502.558 1.40112 3.0847 0
M  V30 5273 C 501.117 1.18172 3.57368 0
M  V30 5274 C 500.264 1.49022 2.33854 0
M  V30 5275 H 503.215 1.20925 1.02775 0
M  V30 5276 H 503.236 0.805672 3.71873 0
M  V30 5277 H 502.748 2.47744 2.98738 0
M  V30 5278 H 500.849 0.124258 3.72393 0
M  V30 5279 H 500.962 1.8805 4.40652 0
M  V30 5280 H 499.326 0.909995 2.37889 0
M  V30 5281 H 500.109 2.57768 2.26738 0
M  V30 5282 N 502.554 -1.34406 0.822964 0
M  V30 5283 C 503.486 -2.28305 0.202375 0
M  V30 5284 C 504.499 -1.5103 -0.60777 0
M  V30 5285 O 505.688 -1.73057 -0.437444 0
M  V30 5286 C 502.788 -3.30836 -0.734911 0
M  V30 5287 C 501.961 -4.37388 0.0324177 0
M  V30 5288 C 501.02 -5.1968 -0.825803 0
M  V30 5289 O 500.046 -5.68556 -0.270771 0
M  V30 5290 N 501.248 -5.39393 -2.14558 0
M  V30 5291 H 504.013 -2.82201 1.00909 0
M  V30 5292 H 501.574 -1.4693 0.67993 0
M  V30 5293 H 503.566 -3.82786 -1.31365 0
M  V30 5294 H 502.136 -2.77334 -1.44238 0
M  V30 5295 H 501.356 -3.86152 0.792469 0
M  V30 5296 H 502.644 -5.05702 0.560633 0
M  V30 5297 H 502.042 -5.01357 -2.62025 0
M  V30 5298 H 500.599 -5.94461 -2.67318 0
M  V30 5299 N 504.032 -0.577932 -1.46621 0
M  V30 5300 C 505.278 -0.0617793 -2.02706 0
M  V30 5301 C 505.611 1.29294 -1.44903 0
M  V30 5302 O 504.886 1.8461 -0.61232 0
M  V30 5303 C 505.169 0.00911824 -3.60099 0
M  V30 5304 C 505.022 -1.37416 -4.28295 0
M  V30 5305 C 506.341 0.712159 -4.343 0
M  V30 5306 H 503.46 -0.0239246 -0.736612 0
M  V30 5307 H 506.102 -0.744211 -1.74818 0
M  V30 5308 H 504.252 0.590292 -3.83989 0
M  V30 5309 H 505.924 -2.00013 -4.15683 0
M  V30 5310 H 504.167 -1.94319 -3.87843 0
M  V30 5311 H 504.838 -1.27707 -5.37024 0
M  V30 5312 H 507.314 0.218486 -4.15526 0
M  V30 5313 H 506.19 0.730782 -5.44014 0
M  V30 5314 H 506.451 1.77251 -4.05012 0
M  V30 5315 N 505.51 1.54411 -0.315457 0
M  V30 5316 C 506.42 2.27737 0.56329 0
M  V30 5317 C 507.436 1.31787 1.13614 0
M  V30 5318 O 508.612 1.64791 1.15784 0
M  V30 5319 C 505.677 3.01478 1.71207 0
M  V30 5320 C 504.738 4.12997 1.17185 0
M  V30 5321 C 503.971 4.83212 2.26588 0
M  V30 5322 O 504.194 4.52884 3.46775 0
M  V30 5323 O 503.128 5.70299 1.92463 0
M  V30 5324 H 506.954 3.03683 -0.0319614 0
M  V30 5325 H 504.539 1.49178 -0.0814188 0
M  V30 5326 H 506.421 3.47683 2.38106 0
M  V30 5327 H 505.096 2.28414 2.29366 0
M  V30 5328 H 504.003 3.71159 0.468174 0
M  V30 5329 H 505.336 4.8808 0.635501 0
M  V30 5330 N 506.988 0.0434614 1.5754 0
M  V30 5331 C 507.936 -0.951465 2.1225 0
M  V30 5332 C 508.93 -1.3274 1.05245 0
M  V30 5333 O 510.136 -1.30795 1.23663 0
M  V30 5334 H 506.511 -0.324667 0.678303 0
M  V30 5335 H 508.482 -0.464855 2.94757 0
M  V30 5336 C 507.231 -2.21972 2.67626 0
M  V30 5337 H 506.554 -1.93923 3.4962 0
M  V30 5338 H 507.994 -2.89765 3.09536 0
M  V30 5339 C 506.453 -2.95919 1.61038 0
M  V30 5340 O 506.983 -3.8857 1.01862 0
M  V30 5341 N 505.189 -2.58511 1.32741 0
M  V30 5342 H 504.736 -1.83244 1.81051 0
M  V30 5343 H 504.694 -3.08296 0.616531 0
M  V30 5344 N 508.466 -1.55915 -0.229846 0
M  V30 5345 C 509.882 -1.48721 -0.579166 0
M  V30 5346 C 510.082 -0.736976 -1.87539 0
M  V30 5347 O 509.138 -0.273258 -2.51017 0
M  V30 5348 C 510.451 -2.9323 -0.666082 0
M  V30 5349 C 511.999 -3.03701 -0.757267 0
M  V30 5350 C 512.474 -4.49552 -0.8756 0
M  V30 5351 N 513.965 -4.53561 -0.940035 0
M  V30 5352 C 514.7 -5.63683 -1.05116 0
M  V30 5353 N 514.196 -6.83576 -1.12675 0
M  V30 5354 N 515.989 -5.51516 -1.08565 0
M  V30 5355 H 508.14 -2.03123 0.620857 0
M  V30 5356 H 510.403 -0.922898 0.21671 0
M  V30 5357 H 510.109 -3.51032 0.21664 0
M  V30 5358 H 509.983 -3.44668 -1.53243 0
M  V30 5359 H 512.37 -2.45969 -1.63043 0
M  V30 5360 H 512.451 -2.55446 0.134583 0
M  V30 5361 H 512.095 -5.079 -0.00692351 0
M  V30 5362 H 512.025 -4.95506 -1.78274 0
M  V30 5363 H 514.516 -3.67215 -0.892269 0
M  V30 5364 H 514.829 -7.63251 -1.21109 0
M  V30 5365 H 513.174 -6.86303 -1.09603 0
M  V30 5366 H 516.365 -4.5678 -1.02319 0
M  V30 5367 H 516.538 -6.37372 -1.1688 0
M  V30 5368 N 509.944 0.496216 -1.49584 0
M  V30 5369 C 510.892 1.61805 -1.67098 0
M  V30 5370 C 511.886 1.60667 -0.536877 0
M  V30 5371 O 513.092 1.65118 -0.716654 0
M  V30 5372 H 509.467 0.53646 -0.526986 0
M  V30 5373 H 511.438 1.44187 -2.61252 0
M  V30 5374 C 510.187 2.99912 -1.75921 0
M  V30 5375 H 509.51 3.01496 -2.62565 0
M  V30 5376 H 510.95 3.77931 -1.92209 0
M  V30 5377 C 509.409 3.33092 -0.505088 0
M  V30 5378 O 509.939 4.00019 0.367085 0
M  V30 5379 N 508.145 2.88278 -0.366599 0
M  V30 5380 H 507.692 2.33989 -1.07735 0
M  V30 5381 H 507.65 3.10846 0.47142 0
M  V30 5382 N 511.423 1.38739 0.74761 0
M  V30 5383 C 512.7 1.25791 1.49786 0
M  V30 5384 C 513.08 -0.138075 2.10648 0
M  V30 5385 O 512.428 -1.14815 1.9756 0
M  V30 5386 C 512.638 2.37265 2.55942 0
M  V30 5387 C 513.986 2.75978 3.22679 0
M  V30 5388 O 515.01 2.36621 2.6625 0
M  V30 5389 O 513.869 3.43867 4.24756 0
M  V30 5390 H 510.963 0.492251 0.664543 0
M  V30 5391 H 513.509 1.50582 0.782511 0
M  V30 5392 H 512.281 3.30644 2.0926 0
M  V30 5393 H 511.904 2.14071 3.35051 0
M  V30 5394 N 512.901 -0.976442 1.23707 0
M  V30 5395 C 514.317 -1.24341 1.00058 0
M  V30 5396 C 514.517 -1.99315 -0.295932 0
M  V30 5397 O 513.573 -2.3123 -1.01435 0
M  V30 5398 C 514.886 -2.03909 2.21001 0
M  V30 5399 C 516.434 -2.17034 2.25534 0
M  V30 5400 C 516.909 -2.99994 3.46075 0
M  V30 5401 N 518.4 -3.07578 3.46338 0
M  V30 5402 C 519.135 -3.72104 4.36264 0
M  V30 5403 N 518.631 -4.3842 5.36432 0
M  V30 5404 N 520.424 -3.69029 4.23998 0
M  V30 5405 H 512.575 -0.47428 2.07037 0
M  V30 5406 H 514.838 -0.272167 0.908091 0
M  V30 5407 H 514.544 -1.56198 3.15111 0
M  V30 5408 H 514.418 -3.04654 2.22409 0
M  V30 5409 H 516.805 -2.63951 1.31961 0
M  V30 5410 H 516.886 -1.15664 2.28156 0
M  V30 5411 H 516.53 -2.53772 4.39957 0
M  V30 5412 H 516.46 -4.01541 3.40694 0
M  V30 5413 H 518.951 -2.60397 2.73865 0
M  V30 5414 H 519.264 -4.85447 6.013 0
M  V30 5415 H 517.609 -4.37116 5.40328 0
M  V30 5416 H 520.8 -3.16392 3.44984 0
M  V30 5417 H 520.973 -4.19034 4.94282 0
M  V30 5418 N 514.379 -1.04941 -1.1758 0
M  V30 5419 C 515.625 -0.768896 -1.88307 0
M  V30 5420 C 515.98 0.696361 -1.79356 0
M  V30 5421 O 515.273 1.50245 -1.18899 0
M  V30 5422 C 515.467 -1.18062 -3.37337 0
M  V30 5423 C 515.296 -2.68436 -3.60794 0
M  V30 5424 C 514.066 -3.35709 -3.77661 0
M  V30 5425 C 516.264 -3.66657 -3.60649 0
M  V30 5426 N 514.246 -4.74974 -3.88939 0
M  V30 5427 C 515.617 -4.91638 -3.77747 0
M  V30 5428 C 517.672 -3.60162 -3.43785 0
M  V30 5429 C 516.375 -6.10902 -3.79726 0
M  V30 5430 C 518.401 -4.78863 -3.47051 0
M  V30 5431 C 517.763 -6.02666 -3.64654 0
M  V30 5432 H 513.862 -0.33355 -0.707296 0
M  V30 5433 H 516.446 -1.34085 -1.41171 0
M  V30 5434 H 514.617 -0.636648 -3.83147 0
M  V30 5435 H 516.349 -0.8502 -3.95669 0
M  V30 5436 H 513.104 -2.8611 -3.77409 0
M  V30 5437 H 513.528 -5.47378 -3.98379 0
M  V30 5438 H 518.17 -2.65412 -3.29114 0
M  V30 5439 H 515.888 -7.05998 -3.93182 0
M  V30 5440 H 519.474 -4.75488 -3.35265 0
M  V30 5441 H 518.354 -6.92979 -3.67083 0
M  V30 5442 N 515.857 1.33968 -0.830081 0
M  V30 5443 C 517.106 1.97323 -0.417928 0
M  V30 5444 C 517.419 1.6652 1.02618 0
M  V30 5445 O 518.625 2.2342 1.54259 0
M  V30 5446 C 517.081 3.53099 -0.696359 0
M  V30 5447 C 516.689 3.92788 -2.15457 0
M  V30 5448 C 518.433 4.23049 -0.350724 0
M  V30 5449 C 516.34 5.41506 -2.37751 0
M  V30 5450 H 515.27 0.738409 -0.152541 0
M  V30 5451 H 517.921 1.52711 -1.01744 0
M  V30 5452 H 516.303 3.95991 -0.0265904 0
M  V30 5453 H 517.477 3.6098 -2.86408 0
M  V30 5454 H 515.792 3.35795 -2.46232 0
M  V30 5455 H 518.389 5.32403 -0.495036 0
M  V30 5456 H 518.732 4.10279 0.705476 0
M  V30 5457 H 519.265 3.85657 -0.975362 0
M  V30 5458 H 516.004 5.5927 -3.41903 0
M  V30 5459 H 515.524 5.74804 -1.7135 0
M  V30 5460 H 517.203 6.0828 -2.20465 0
M  V30 5461 N 517.335 0.585699 1.46312 0
M  V30 5462 C 518.267 -0.183687 2.28463 0
M  V30 5463 C 519.28 -0.85264 1.38686 0
M  V30 5464 O 520.469 -0.721701 1.6326 0
M  V30 5465 C 517.569 -1.27977 3.13808 0
M  V30 5466 C 516.742 -0.702164 4.31727 0
M  V30 5467 C 515.801 -1.68633 4.98447 0
M  V30 5468 O 514.827 -1.22121 5.55945 0
M  V30 5469 N 516.029 -3.02047 4.95729 0
M  V30 5470 H 518.794 0.521127 2.95134 0
M  V30 5471 H 516.355 0.423673 1.56258 0
M  V30 5472 H 518.347 -1.9375 3.55307 0
M  V30 5473 H 516.917 -1.8874 2.4919 0
M  V30 5474 H 516.137 0.1331 3.93975 0
M  V30 5475 H 517.425 -0.296101 5.07938 0
M  V30 5476 H 516.823 -3.42457 4.50266 0
M  V30 5477 H 515.38 -3.63301 5.41161 0
M  V30 5478 N 518.813 -1.54241 0.323641 0
M  V30 5479 C 520.09 -1.92741 -0.333181 0
M  V30 5480 C 520.47 -1.25326 -1.69872 0
M  V30 5481 O 519.818 -0.396991 -2.25025 0
M  V30 5482 C 520.028 -3.46399 -0.425322 0
M  V30 5483 C 521.376 -4.19029 -0.68557 0
M  V30 5484 O 522.4 -3.52555 -0.50824 0
M  V30 5485 O 521.259 -5.36751 -1.02767 0
M  V30 5486 H 518.353 -0.804811 -0.190286 0
M  V30 5487 H 520.899 -1.65542 0.373361 0
M  V30 5488 H 519.671 -3.87643 0.533737 0
M  V30 5489 H 519.294 -3.79704 -1.17944 0
M  V30 5490 N 520.291 -0.0518155 -1.57515 0
M  V30 5491 C 521.201 0.937539 -2.15052 0
M  V30 5492 C 522.217 1.34121 -1.10849 0
M  V30 5493 O 523.393 1.418 -1.4302 0
M  V30 5494 C 520.458 2.19379 -2.68466 0
M  V30 5495 C 519.519 1.84841 -3.87469 0
M  V30 5496 C 518.752 3.04477 -4.38326 0
M  V30 5497 O 518.975 4.17868 -3.88256 0
M  V30 5498 O 517.909 2.85453 -5.29906 0
M  V30 5499 H 521.735 0.478201 -2.99912 0
M  V30 5500 H 519.32 0.17012 -1.48428 0
M  V30 5501 H 521.202 2.93084 -3.02787 0
M  V30 5502 H 519.877 2.64449 -1.86677 0
M  V30 5503 H 518.784 1.08449 -3.58036 0
M  V30 5504 H 520.117 1.44569 -4.7049 0
M  V30 5505 N 521.769 1.56035 0.221574 0
M  V30 5506 C 522.702 1.87427 1.30178 0
M  V30 5507 C 523.68 0.731658 1.45209 0
M  V30 5508 O 524.864 0.980016 1.61022 0
M  V30 5509 C 521.991 2.08127 2.67209 0
M  V30 5510 C 521.037 3.30813 2.69194 0
M  V30 5511 S 521.87 4.86738 2.23263 0
M  V30 5512 C 523.026 5.10474 3.62171 0
M  V30 5513 H 523.259 2.78756 1.03355 0
M  V30 5514 H 520.792 1.48469 0.423813 0
M  V30 5515 H 522.75 2.20736 3.46101 0
M  V30 5516 H 521.411 1.17595 2.91256 0
M  V30 5517 H 520.604 3.42341 3.6989 0
M  V30 5518 H 520.206 3.1706 1.98366 0
M  V30 5519 H 522.498 4.9937 4.5786 0
M  V30 5520 H 523.441 6.12359 3.55558 0
M  V30 5521 H 523.849 4.38208 3.55857 0
M  V30 5522 N 523.247 -0.488276 1.49845 0
M  V30 5523 C 524.157 -1.61451 1.70207 0
M  V30 5524 C 525.173 -1.63877 0.584846 0
M  V30 5525 O 526.349 -1.82063 0.861107 0
M  V30 5526 C 523.414 -2.9776 1.77594 0
M  V30 5527 C 522.475 -3.05861 3.01243 0
M  V30 5528 C 521.708 -4.35668 3.08268 0
M  V30 5529 O 521.931 -5.25197 2.22541 0
M  V30 5530 O 520.865 -4.49005 4.00847 0
M  V30 5531 H 524.691 -1.47199 2.65643 0
M  V30 5532 H 522.276 -0.665939 1.33737 0
M  V30 5533 H 524.158 -3.7875 1.84732 0
M  V30 5534 H 522.833 -3.12248 0.8534 0
M  V30 5535 H 521.74 -2.24012 2.99616 0
M  V30 5536 H 523.073 -2.96304 3.9302 0
M  V30 5537 N 524.725 -1.39134 -0.740242 0
M  V30 5538 C 525.972 -1.36071 -1.49969 0
M  V30 5539 C 526.3 0.0450245 -1.94448 0
M  V30 5540 O 525.555 1.02482 -1.66721 0
M  V30 5541 C 525.854 -2.27457 -2.75678 0
M  V30 5542 C 525.52 -3.75185 -2.50094 0
M  V30 5543 C 524.182 -4.15439 -2.42825 0
M  V30 5544 C 526.534 -4.68643 -2.28086 0
M  V30 5545 C 523.862 -5.4722 -2.11584 0
M  V30 5546 C 526.214 -6.00695 -1.98363 0
M  V30 5547 C 524.878 -6.40018 -1.8956 0
M  V30 5548 H 524.148 -0.497921 -0.548777 0
M  V30 5549 H 526.795 -1.71599 -0.85007 0
M  V30 5550 H 525.1 -1.8503 -3.45356 0
M  V30 5551 H 526.797 -2.22384 -3.33686 0
M  V30 5552 H 523.387 -3.43279 -2.56627 0
M  V30 5553 H 527.571 -4.3838 -2.32672 0
M  V30 5554 H 522.827 -5.76615 -2.03287 0
M  V30 5555 H 527.001 -6.72644 -1.80341 0
M  V30 5556 H 524.628 -7.42051 -1.65117 0
M  V30 5557 N 526.204 0.969867 -1.24223 0
M  V30 5558 C 527.452 1.70918 -1.0785 0
M  V30 5559 C 527.773 1.91186 0.383763 0
M  V30 5560 O 527.043 1.48806 1.27411 0
M  V30 5561 H 525.623 0.633334 -0.396103 0
M  V30 5562 H 528.285 1.16689 -1.56108 0
M  V30 5563 H 527.381 2.69455 -1.57482 0
M  V30 5564 N 527.682 1.05563 1.17022 0
M  V30 5565 C 528.912 0.787307 1.91011 0
M  V30 5566 C 529.32 -0.661256 1.77268 0
M  V30 5567 O 528.663 -1.46379 1.10991 0
M  V30 5568 C 528.725 1.09313 3.42478 0
M  V30 5569 C 528.389 2.53863 3.80004 0
M  V30 5570 C 529.386 3.52081 3.82538 0
M  V30 5571 C 527.071 2.88969 4.10855 0
M  V30 5572 C 529.065 4.83449 4.15399 0
M  V30 5573 C 526.752 4.2054 4.43384 0
M  V30 5574 C 527.75 5.17589 4.45635 0
M  V30 5575 O 527.438 6.46799 4.77395 0
M  V30 5576 H 527.17 0.285463 0.61277 0
M  V30 5577 H 529.724 1.41051 1.49311 0
M  V30 5578 H 527.954 0.412833 3.8449 0
M  V30 5579 H 529.643 0.810224 3.97731 0
M  V30 5580 H 530.409 3.26299 3.58823 0
M  V30 5581 H 526.288 2.1409 4.08272 0
M  V30 5582 H 529.832 5.59194 4.1707 0
M  V30 5583 H 525.729 4.46083 4.66563 0
M  V30 5584 H 526.497 6.51677 4.95237 0
M  V30 5585 N 529.16 -1.33526 0.837174 0
M  V30 5586 C 530.409 -1.97098 0.428387 0
M  V30 5587 C 530.722 -1.67062 -1.01734 0
M  V30 5588 O 531.928 -2.24235 -1.53072 0
M  V30 5589 C 530.384 -3.52725 0.715075 0
M  V30 5590 C 529.992 -3.9164 2.17537 0
M  V30 5591 C 531.736 -4.22857 0.373154 0
M  V30 5592 C 529.643 -5.40237 2.40619 0
M  V30 5593 H 528.573 -0.737589 0.156455 0
M  V30 5594 H 531.224 -1.52169 1.02552 0
M  V30 5595 H 529.606 -3.95971 0.0475904 0
M  V30 5596 H 530.78 -3.59456 2.88319 0
M  V30 5597 H 529.095 -3.34485 2.4801 0
M  V30 5598 H 531.692 -5.32133 0.523264 0
M  V30 5599 H 532.035 -4.10647 -0.683708 0
M  V30 5600 H 532.568 -3.85135 0.995801 0
M  V30 5601 H 529.307 -5.57449 3.44864 0
M  V30 5602 H 528.827 -5.73887 1.74396 0
M  V30 5603 H 530.506 -6.07102 2.23688 0
M  V30 5604 N 530.638 -0.59345 -1.46 0
M  V30 5605 C 531.548 0.135817 -2.34207 0
M  V30 5606 C 532.564 0.875008 -1.50398 0
M  V30 5607 O 533.74 0.835778 -1.83239 0
M  V30 5608 C 530.805 1.12977 -3.27776 0
M  V30 5609 C 529.866 0.394081 -4.27487 0
M  V30 5610 C 529.099 1.34068 -5.16586 0
M  V30 5611 O 529.322 2.5778 -5.08828 0
M  V30 5612 O 528.256 0.845426 -5.95933 0
M  V30 5613 H 532.082 -0.588691 -2.9794 0
M  V30 5614 H 529.667 -0.353784 -1.45151 0
M  V30 5615 H 531.549 1.70261 -3.85473 0
M  V30 5616 H 530.224 1.83556 -2.66625 0
M  V30 5617 H 529.131 -0.220869 -3.73447 0
M  V30 5618 H 530.464 -0.270939 -4.91454 0
M  V30 5619 N 532.116 1.54067 -0.331816 0
M  V30 5620 C 533.079 2.23275 0.517768 0
M  V30 5621 C 534.079 1.22897 1.03697 0
M  V30 5622 O 535.269 1.47419 0.928084 0
M  V30 5623 C 532.401 2.94326 1.72004 0
M  V30 5624 H 533.594 2.99773 -0.0873507 0
M  V30 5625 H 531.147 1.56079 -0.0830042 0
M  V30 5626 H 531.882 2.21986 2.36417 0
M  V30 5627 H 531.667 3.67941 1.35507 0
M  V30 5628 H 533.157 3.47031 2.32291 0
M  V30 5629 N 533.594 0.0601682 1.57485 0
M  V30 5630 C 535.005 -0.474217 1.80577 0
M  V30 5631 C 535.356 -1.70365 0.973147 0
M  V30 5632 O 534.481 -2.15544 0.192306 0
M  V30 5633 C 535.076 -0.867102 3.27516 0
M  V30 5634 C 533.635 -1.34642 3.51495 0
M  V30 5635 C 532.782 -0.32594 2.75378 0
M  V30 5636 H 535.733 0.285973 1.56102 0
M  V30 5637 H 535.754 -1.72938 3.38929 0
M  V30 5638 H 535.266 0.0278927 3.8809 0
M  V30 5639 H 533.367 -2.2603 2.96212 0
M  V30 5640 H 533.48 -1.33237 4.60201 0
M  V30 5641 H 531.844 -0.800749 2.41785 0
M  V30 5642 H 532.627 0.561125 3.38683 0
M  V30 5643 N 535.072 -1.5615 -0.213296 0
M  V30 5644 C 536.022 -1.89485 -1.26804 0
M  V30 5645 C 537.006 -0.758713 -1.41889 0
M  V30 5646 O 538.198 -1.02127 -1.44565 0
M  V30 5647 C 535.327 -2.22219 -2.61675 0
M  V30 5648 C 534.413 -3.42245 -2.50458 0
M  V30 5649 N 534.804 -4.60645 -2.089 0
M  V30 5650 C 533.102 -3.46023 -2.81397 0
M  V30 5651 C 533.803 -5.42805 -2.09135 0
M  V30 5652 N 532.779 -4.82732 -2.49941 0
M  V30 5653 H 536.581 -2.78537 -0.937771 0
M  V30 5654 H 534.095 -1.56826 -0.421824 0
M  V30 5655 H 536.092 -2.44278 -3.37837 0
M  V30 5656 H 534.752 -1.34484 -2.95541 0
M  V30 5657 H 535.763 -4.85651 -1.79899 0
M  V30 5658 H 532.44 -2.68654 -3.1958 0
M  V30 5659 H 533.83 -6.47601 -1.79059 0
M  V30 5660 N 536.55 0.480323 -1.50102 0
M  V30 5661 C 537.497 1.57946 -1.6829 0
M  V30 5662 C 538.467 1.57611 -0.524223 0
M  V30 5663 O 539.652 1.75282 -0.753709 0
M  V30 5664 C 536.792 2.95978 -1.77457 0
M  V30 5665 C 535.905 3.06173 -3.04766 0
M  V30 5666 C 535.04 4.35063 -3.04784 0
M  V30 5667 C 534.079 4.38966 -4.26586 0
M  V30 5668 N 533.216 5.59314 -4.24396 0
M  V30 5669 H 538.056 1.41743 -2.62131 0
M  V30 5670 H 535.593 0.689304 -1.2995 0
M  V30 5671 H 537.551 3.76011 -1.80752 0
M  V30 5672 H 536.181 3.10837 -0.870637 0
M  V30 5673 H 535.233 2.19071 -3.10986 0
M  V30 5674 H 536.545 3.04916 -3.9475 0
M  V30 5675 H 535.699 5.23436 -3.06757 0
M  V30 5676 H 534.438 4.38915 -2.12614 0
M  V30 5677 H 533.443 3.48992 -4.24835 0
M  V30 5678 H 534.668 4.36813 -5.19972 0
M  V30 5679 H 532.614 5.63969 -3.35074 0
M  V30 5680 H 532.531 5.5976 -5.08138 0
M  V30 5681 H 533.799 6.49837 -4.30502 0
M  V30 5682 N 538.028 1.39524 0.732853 0
M  V30 5683 C 539.253 1.40329 1.52717 0
M  V30 5684 C 539.678 0.000286574 1.881 0
M  V30 5685 O 539.036 -0.987262 1.52062 0
M  V30 5686 C 539.084 2.28464 2.78992 0
M  V30 5687 O 538.188 1.716 3.75003 0
M  V30 5688 H 537.529 0.47778 0.461109 0
M  V30 5689 H 540.059 1.83546 0.903996 0
M  V30 5690 H 540.069 2.43051 3.27705 0
M  V30 5691 H 538.744 3.30425 2.52572 0
M  V30 5692 H 537.321 1.66267 3.33781 0
M  V30 5693 N 539.506 -0.963266 1.24736 0
M  V30 5694 C 540.753 -1.7068 1.0897 0
M  V30 5695 C 541.081 -1.90934 -0.370751 0
M  V30 5696 O 540.336 -1.47155 -1.29011 0
M  V30 5697 C 540.635 -3.09944 1.7796 0
M  V30 5698 C 540.301 -3.09518 3.27887 0
M  V30 5699 C 538.963 -3.09109 3.68789 0
M  V30 5700 C 541.315 -3.03509 4.23712 0
M  V30 5701 C 538.643 -3.00429 5.03944 0
M  V30 5702 C 540.995 -2.96371 5.5888 0
M  V30 5703 C 539.659 -2.94293 5.99123 0
M  V30 5704 H 538.929 -0.624564 0.398749 0
M  V30 5705 H 541.576 -1.12603 1.54896 0
M  V30 5706 H 539.881 -3.71513 1.2444 0
M  V30 5707 H 541.578 -3.66278 1.63222 0
M  V30 5708 H 538.168 -3.10603 2.95337 0
M  V30 5709 H 542.352 -3.0295 3.93109 0
M  V30 5710 H 537.608 -2.97183 5.34314 0
M  V30 5711 H 541.782 -2.90681 6.32833 0
M  V30 5712 H 539.409 -2.87322 7.03811 0
M  V30 5713 N 540.985 -1.06182 -1.16461 0
M  V30 5714 C 542.396 -0.802426 -1.68576 0
M  V30 5715 C 542.747 0.67412 -1.84255 0
M  V30 5716 O 541.872 1.52303 -1.5373 0
M  V30 5717 C 542.467 -1.45002 -3.06202 0
M  V30 5718 C 541.026 -1.23843 -3.55443 0
M  V30 5719 C 540.173 -1.52724 -2.31454 0
M  V30 5720 H 543.124 -1.22545 -1.00839 0
M  V30 5721 H 543.145 -0.864731 -3.70544 0
M  V30 5722 H 542.657 -2.52466 -2.94759 0
M  V30 5723 H 540.758 -0.183487 -3.72148 0
M  V30 5724 H 540.871 -1.95036 -4.37604 0
M  V30 5725 H 539.235 -0.947726 -2.36411 0
M  V30 5726 H 540.018 -2.61343 -2.22609 0
M  V30 5727 N 542.463 1.3308 -0.844243 0
M  V30 5728 C 543.709 1.97898 -0.443206 0
M  V30 5729 C 544.042 1.66699 0.99625 0
M  V30 5730 O 543.317 0.949704 1.69738 0
M  V30 5731 C 543.6 3.53801 -0.670606 0
M  V30 5732 C 543.453 3.94667 -2.15772 0
M  V30 5733 C 544.772 4.39936 -0.120226 0
M  V30 5734 H 541.891 0.718861 -0.162504 0
M  V30 5735 H 544.533 1.57633 -1.06075 0
M  V30 5736 H 542.683 3.88229 -0.14496 0
M  V30 5737 H 544.355 3.70469 -2.74865 0
M  V30 5738 H 542.598 3.44203 -2.6402 0
M  V30 5739 H 543.269 5.03275 -2.26757 0
M  V30 5740 H 545.745 4.12183 -0.5696 0
M  V30 5741 H 544.621 5.4803 -0.308984 0
M  V30 5742 H 544.882 4.31184 0.976347 0
M  V30 5743 N 543.941 0.601185 1.45683 0
M  V30 5744 C 545.187 0.0940202 2.02582 0
M  V30 5745 C 545.52 -1.26972 1.46941 0
M  V30 5746 O 544.795 -1.83613 0.641612 0
M  V30 5747 C 545.078 0.0481715 3.60068 0
M  V30 5748 C 544.931 1.44212 4.26055 0
M  V30 5749 C 546.25 -0.642975 4.35378 0
M  V30 5750 H 543.369 0.0356404 0.736138 0
M  V30 5751 H 546.011 0.771929 1.73612 0
M  V30 5752 H 544.161 -0.529128 3.8488 0
M  V30 5753 H 545.833 2.06601 4.12449 0
M  V30 5754 H 544.076 2.00465 3.84703 0
M  V30 5755 H 544.747 1.36234 5.34925 0
M  V30 5756 H 547.223 -0.152351 4.15821 0
M  V30 5757 H 546.099 -0.644141 5.45107 0
M  V30 5758 H 546.36 -1.70785 4.0778 0
M  V30 5759 N 545.419 -1.53889 0.339982 0
M  V30 5760 C 546.666 -2.00855 -0.257621 0
M  V30 5761 C 546.994 -1.22788 -1.50842 0
M  V30 5762 O 546.249 -0.302567 -1.93347 0
M  V30 5763 C 546.548 -3.51968 -0.620735 0
M  V30 5764 C 546.214 -4.47741 0.532771 0
M  V30 5765 C 544.876 -4.73645 0.849339 0
M  V30 5766 C 547.228 -5.04551 1.3068 0
M  V30 5767 C 544.556 -5.53614 1.94237 0
M  V30 5768 C 546.908 -5.85713 2.39005 0
M  V30 5769 C 545.572 -6.09912 2.71225 0
M  V30 5770 H 544.842 -0.734979 -0.0942703 0
M  V30 5771 H 547.489 -1.85714 0.467159 0
M  V30 5772 H 545.794 -3.64921 -1.42618 0
M  V30 5773 H 547.491 -3.85762 -1.09495 0
M  V30 5774 H 544.081 -4.27711 0.275973 0
M  V30 5775 H 548.265 -4.84507 1.07549 0
M  V30 5776 H 543.521 -5.7059 2.19628 0
M  V30 5777 H 547.695 -6.28748 2.99415 0
M  V30 5778 H 545.322 -6.71665 3.56047 0
M  V30 5779 N 546.897 -0.0685191 -1.57451 0
M  V30 5780 C 548.174 0.642167 -1.84758 0
M  V30 5781 C 548.554 1.87991 -0.960344 0
M  V30 5782 O 547.902 2.28485 -0.0257894 0
M  V30 5783 C 548.112 0.982946 -3.34872 0
M  V30 5784 C 549.46 1.35784 -4.02303 0
M  V30 5785 O 550.484 1.07477 -3.39598 0
M  V30 5786 O 549.343 1.88681 -5.12895 0
M  V30 5787 H 546.437 0.318625 -0.763156 0
M  V30 5788 H 548.983 -0.0992015 -1.6941 0
M  V30 5789 H 547.755 0.10372 -3.91163 0
M  V30 5790 H 547.378 1.78119 -3.55471 0
M  V30 5791 N 548.375 1.56261 0.205012 0
M  V30 5792 C 549.6 1.84491 0.947512 0
M  V30 5793 C 550.025 0.650894 1.76479 0
M  V30 5794 O 549.383 -0.40035 1.76824 0
M  V30 5795 C 549.431 3.10863 1.82747 0
M  V30 5796 O 548.535 2.90719 2.925 0
M  V30 5797 H 547.876 0.607783 0.267386 0
M  V30 5798 H 550.406 2.03485 0.213323 0
M  V30 5799 H 550.416 3.41399 2.23407 0
M  V30 5800 H 549.091 3.97392 1.2269 0
M  V30 5801 H 547.668 2.71457 2.55667 0
M  V30 5802 N 549.853 -0.472356 1.50355 0
M  V30 5803 C 551.264 -1.05326 1.54154 0
M  V30 5804 C 551.615 -1.93155 0.344303 0
M  V30 5805 O 550.74 -2.09479 -0.542928 0
M  V30 5806 C 551.335 -1.91691 2.79356 0
M  V30 5807 C 549.894 -2.44892 2.8584 0
M  V30 5808 C 549.041 -1.23205 2.48426 0
M  V30 5809 H 551.992 -0.255027 1.56637 0
M  V30 5810 H 552.013 -2.76742 2.6114 0
M  V30 5811 H 551.525 -1.27741 3.66475 0
M  V30 5812 H 549.626 -3.12399 2.0307 0
M  V30 5813 H 549.739 -2.80086 3.88701 0
M  V30 5814 H 548.103 -1.56643 2.00836 0
M  V30 5815 H 548.886 -0.609194 3.37852 0
M  V30 5816 N 551.331 -1.39911 -0.725443 0
M  V30 5817 C 552.747 -1.21725 -1.03224 0
M  V30 5818 C 552.947 -0.0855224 -2.01318 0
M  V30 5819 O 552.003 0.55976 -2.46217 0
M  V30 5820 C 553.316 -2.55511 -1.58539 0
M  V30 5821 C 554.864 -2.62439 -1.70572 0
M  V30 5822 C 555.339 -3.9647 -2.29294 0
M  V30 5823 N 556.83 -3.98159 -2.36692 0
M  V30 5824 C 557.565 -4.98647 -2.83088 0
M  V30 5825 N 557.061 -6.0953 -3.2931 0
M  V30 5826 N 558.854 -4.8602 -2.82384 0
M  V30 5827 H 551.005 -2.12267 -0.075048 0
M  V30 5828 H 553.268 -0.943136 -0.0959066 0
M  V30 5829 H 552.974 -3.38926 -0.939249 0
M  V30 5830 H 552.848 -2.75905 -2.57208 0
M  V30 5831 H 555.235 -1.79401 -2.34306 0
M  V30 5832 H 555.316 -2.45885 -0.705297 0
M  V30 5833 H 554.96 -4.79942 -1.66186 0
M  V30 5834 H 554.89 -4.10349 -3.30032 0
M  V30 5835 H 557.381 -3.18085 -2.04035 0
M  V30 5836 H 557.694 -6.82106 -3.6325 0
M  V30 5837 H 556.039 -6.1311 -3.27294 0
M  V30 5838 H 559.23 -3.98493 -2.45603 0
M  V30 5839 H 559.403 -5.64478 -3.18226 0
M  V30 5840 N 552.809 0.956637 -1.25245 0
M  V30 5841 C 553.757 2.0743 -1.0524 0
M  V30 5842 C 554.751 1.69392 0.0160725 0
M  V30 5843 O 555.957 1.7946 -0.139382 0
M  V30 5844 H 552.332 0.678921 -0.323373 0
M  V30 5845 H 554.303 2.2146 -1.99995 0
M  V30 5846 C 553.052 3.40872 -0.685702 0
M  V30 5847 H 552.375 3.70607 -1.49968 0
M  V30 5848 H 553.815 4.19939 -0.585415 0
M  V30 5849 C 552.274 3.31367 0.608082 0
M  V30 5850 O 552.804 3.66214 1.65076 0
M  V30 5851 N 551.01 2.84486 0.592955 0
M  V30 5852 H 550.557 2.56326 -0.25592 0
M  V30 5853 H 550.515 2.78509 1.45877 0
M  V30 5854 N 554.287 1.06798 1.15896 0
M  V30 5855 C 555.703 0.792423 1.38538 0
M  V30 5856 C 555.903 -0.60592 1.92174 0
M  V30 5857 O 554.959 -1.36561 2.12385 0
M  V30 5858 C 556.272 1.86157 2.36149 0
M  V30 5859 C 557.82 1.88567 2.49823 0
M  V30 5860 C 558.295 2.9455 3.5072 0
M  V30 5861 N 559.786 2.93616 3.58251 0
M  V30 5862 C 560.521 3.72267 4.36125 0
M  V30 5863 N 560.017 4.60751 5.17379 0
M  V30 5864 N 561.81 3.60637 4.31158 0
M  V30 5865 H 553.961 1.96993 0.794198 0
M  V30 5866 H 556.224 0.853942 0.411688 0
M  V30 5867 H 555.93 2.86603 2.03843 0
M  V30 5868 H 555.804 1.71692 3.3586 0
M  V30 5869 H 558.191 0.887765 2.8143 0
M  V30 5870 H 558.272 2.0711 1.5013 0
M  V30 5871 H 557.916 3.94537 3.19849 0
M  V30 5872 H 557.846 2.73255 4.50155 0
M  V30 5873 H 560.337 2.29472 3.00252 0
M  V30 5874 H 560.65 5.17408 5.74028 0
M  V30 5875 H 558.995 4.64803 5.16704 0
M  V30 5876 H 562.186 2.90892 3.66742 0
M  V30 5877 H 562.359 4.22176 4.91601 0
M  V30 5878 N 555.766 -1.3263 0.851289 0
M  V30 5879 C 557.014 -1.96978 0.452128 0
M  V30 5880 C 557.335 -1.67715 -0.99482 0
M  V30 5881 O 556.605 -0.98259 -1.69476 0
M  V30 5882 H 555.185 -0.72873 0.164202 0
M  V30 5883 H 557.847 -1.61774 1.08698 0
M  V30 5884 H 556.943 -3.06387 0.594407 0
M  V30 5885 N 557.244 -0.608902 -1.45362 0
M  V30 5886 C 558.174 0.0964526 -2.33301 0
M  V30 5887 C 559.155 0.857444 -1.46908 0
M  V30 5888 O 560.34 0.827735 -1.75676 0
M  V30 5889 C 557.47 1.09354 -3.29635 0
M  V30 5890 C 556.424 0.445676 -4.25673 0
M  V30 5891 C 555.75 1.5511 -5.11708 0
M  V30 5892 C 557.05 -0.633972 -5.18438 0
M  V30 5893 H 558.744 -0.637829 -2.92527 0
M  V30 5894 H 556.29 -0.308178 -1.40664 0
M  V30 5895 H 558.243 1.59556 -3.90025 0
M  V30 5896 H 556.967 1.85843 -2.6857 0
M  V30 5897 H 555.626 -0.0354897 -3.66583 0
M  V30 5898 H 555.274 2.30631 -4.4701 0
M  V30 5899 H 554.974 1.12311 -5.76767 0
M  V30 5900 H 556.498 2.05537 -5.74967 0
M  V30 5901 H 557.912 -0.215974 -5.72893 0
M  V30 5902 H 556.309 -0.983789 -5.91981 0
M  V30 5903 H 557.379 -1.51005 -4.60788 0
M  V30 5904 N 558.722 1.53707 -0.348139 0
M  V30 5905 C 559.669 2.25173 0.506518 0
M  V30 5906 C 560.639 1.25174 1.09182 0
M  V30 5907 O 561.824 1.53917 1.12757 0
M  V30 5908 C 558.964 3.03141 1.64923 0
M  V30 5909 C 558.077 4.18002 1.0908 0
M  V30 5910 C 557.212 4.83447 2.20119 0
M  V30 5911 C 556.251 5.90369 1.61651 0
M  V30 5912 N 555.388 6.49575 2.66451 0
M  V30 5913 H 560.228 2.97799 -0.109452 0
M  V30 5914 H 557.765 1.46953 -0.0657866 0
M  V30 5915 H 559.723 3.46607 2.32205 0
M  V30 5916 H 558.353 2.32803 2.23612 0
M  V30 5917 H 557.405 3.79145 0.308783 0
M  V30 5918 H 558.717 4.94892 0.623178 0
M  V30 5919 H 557.871 5.30008 2.95257 0
M  V30 5920 H 556.61 4.05991 2.70227 0
M  V30 5921 H 555.615 5.43186 0.850209 0
M  V30 5922 H 556.84 6.69735 1.1239 0
M  V30 5923 H 554.786 5.74981 3.15805 0
M  V30 5924 H 554.703 7.21952 2.24325 0
M  V30 5925 H 555.971 7.00789 3.41344 0
M  V30 5926 N 560.2 0.0768682 1.57412 0
M  V30 5927 C 561.477 -0.632359 1.85096 0
M  V30 5928 C 561.857 -1.87479 0.9703 0
M  V30 5929 O 561.205 -2.28469 0.0379062 0
M  V30 5930 C 561.415 -0.965174 3.35388 0
M  V30 5931 C 562.763 -1.33648 4.03018 0
M  V30 5932 O 563.787 -1.05675 3.40164 0
M  V30 5933 O 562.646 -1.85959 5.13889 0
M  V30 5934 H 559.74 -0.314574 0.764835 0
M  V30 5935 H 562.286 0.108184 1.69355 0
M  V30 5936 H 561.058 -0.0829745 3.91212 0
M  V30 5937 H 560.681 -1.76231 3.5641 0
M  V30 5938 N 561.678 -1.56367 -0.196722 0
M  V30 5939 C 562.925 -1.80529 -0.917366 0
M  V30 5940 C 563.253 -0.649817 -1.83324 0
M  V30 5941 O 562.508 0.36451 -1.92275 0
M  V30 5942 C 562.807 -3.10663 -1.767 0
M  V30 5943 C 562.473 -4.3962 -1.00225 0
M  V30 5944 C 561.135 -4.74653 -0.791095 0
M  V30 5945 C 563.487 -5.1913 -0.464035 0
M  V30 5946 C 560.815 -5.86692 -0.0302155 0
M  V30 5947 C 563.167 -6.31964 0.283625 0
M  V30 5948 C 561.831 -6.65581 0.505813 0
M  V30 5949 H 561.101 -0.660602 -0.335688 0
M  V30 5950 H 563.748 -1.90615 -0.183844 0
M  V30 5951 H 562.053 -2.95807 -2.56915 0
M  V30 5952 H 563.75 -3.26563 -2.32718 0
M  V30 5953 H 560.34 -4.12127 -1.17684 0
M  V30 5954 H 564.524 -4.9248 -0.614575 0
M  V30 5955 H 559.78 -6.11211 0.151917 0
M  V30 5956 H 563.954 -6.92791 0.708057 0
M  V30 5957 H 561.581 -7.52239 1.0973 0
M  V30 5958 N 563.156 0.464375 -1.50603 0
M  V30 5959 C 564.567 1.04507 -1.5471 0
M  V30 5960 C 564.918 1.9297 -0.354542 0
M  V30 5961 O 564.043 2.09763 0.531812 0
M  V30 5962 C 564.638 1.90207 -2.80369 0
M  V30 5963 C 563.197 2.43373 -2.87135 0
M  V30 5964 C 562.344 1.21886 -2.49076 0
M  V30 5965 H 565.295 0.246716 -1.56771 0
M  V30 5966 H 565.316 2.75353 -2.62604 0
M  V30 5967 H 564.828 1.25796 -3.67147 0
M  V30 5968 H 562.929 3.11318 -2.04724 0
M  V30 5969 H 563.042 2.7802 -3.90181 0
M  V30 5970 H 561.406 1.55575 -2.01664 0
M  V30 5971 H 562.189 0.591268 -3.3817 0
M  V30 5972 N 564.634 1.40294 0.718013 0
M  V30 5973 C 565.864 1.41544 1.50495 0
M  V30 5974 C 566.272 0.0127877 1.89196 0
M  V30 5975 O 565.615 -0.97305 1.55812 0
M  V30 5976 C 565.677 2.24021 2.81167 0
M  V30 5977 C 565.341 3.72463 2.64803 0
M  V30 5978 C 566.338 4.65154 2.32223 0
M  V30 5979 C 564.023 4.1625 2.81143 0
M  V30 5980 C 566.017 5.99618 2.16189 0
M  V30 5981 C 563.704 5.50784 2.64727 0
M  V30 5982 C 564.702 6.42283 2.32297 0
M  V30 5983 O 564.39 7.74337 2.16004 0
M  V30 5984 H 564.122 0.484819 0.471091 0
M  V30 5985 H 566.676 1.84948 0.893488 0
M  V30 5986 H 564.906 1.75393 3.44636 0
M  V30 5987 H 566.595 2.17243 3.42871 0
M  V30 5988 H 567.361 4.32622 2.19234 0
M  V30 5989 H 563.24 3.45352 3.05373 0
M  V30 5990 H 566.784 6.71 1.90799 0
M  V30 5991 H 562.681 5.82902 2.773 0
M  V30 5992 H 563.449 7.85244 2.30942 0
M  V30 5993 N 566.112 -0.949982 1.2575 0
M  V30 5994 C 567.059 -2.04738 1.06541 0
M  V30 5995 C 568.029 -1.66078 -0.0268818 0
M  V30 5996 O 569.214 -1.90348 0.131196 0
M  V30 5997 C 566.354 -3.38027 0.695127 0
M  V30 5998 C 565.467 -3.89776 1.86276 0
M  V30 5999 C 564.602 -5.11411 1.4364 0
M  V30 6000 C 563.641 -5.554 2.57287 0
M  V30 6001 N 562.778 -6.68244 2.15395 0
M  V30 6002 H 567.618 -2.20502 2.00457 0
M  V30 6003 H 565.155 -1.0805 0.998178 0
M  V30 6004 H 567.113 -4.14641 0.461375 0
M  V30 6005 H 565.743 -3.22135 -0.207046 0
M  V30 6006 H 564.795 -3.0964 2.20969 0
M  V30 6007 H 566.107 -4.18368 2.71606 0
M  V30 6008 H 565.261 -5.95457 1.16257 0
M  V30 6009 H 564 -4.84545 0.553879 0
M  V30 6010 H 563.005 -4.69916 2.85409 0
M  V30 6011 H 564.23 -5.84272 3.46125 0
M  V30 6012 H 562.176 -6.43078 1.29565 0
M  V30 6013 H 562.093 -6.96377 2.94272 0
M  V30 6014 H 563.361 -7.55687 1.91201 0
M  V30 6015 N 567.59 -1.07411 -1.15328 0
M  V30 6016 C 569.006 -0.799759 -1.38116 0
M  V30 6017 C 569.206 0.59572 -1.92493 0
M  V30 6018 O 568.262 1.35433 -2.13106 0
M  V30 6019 C 569.575 -1.87407 -2.35158 0
M  V30 6020 C 571.123 -1.89889 -2.48819 0
M  V30 6021 C 571.598 -2.96406 -3.49153 0
M  V30 6022 N 573.089 -2.95512 -3.56689 0
M  V30 6023 C 573.824 -3.74575 -4.34144 0
M  V30 6024 N 573.32 -4.63488 -5.14928 0
M  V30 6025 N 575.113 -3.62919 -4.29239 0
M  V30 6026 H 567.264 -1.97411 -0.78374 0
M  V30 6027 H 569.527 -0.856113 -0.407154 0
M  V30 6028 H 569.233 -2.8768 -2.0232 0
M  V30 6029 H 569.107 -1.73471 -3.34944 0
M  V30 6030 H 571.494 -0.902677 -2.80955 0
M  V30 6031 H 571.575 -2.07904 -1.49029 0
M  V30 6032 H 571.219 -3.96227 -3.17752 0
M  V30 6033 H 571.149 -2.75638 -4.48699 0
M  V30 6034 H 573.64 -2.31061 -2.99031 0
M  V30 6035 H 573.953 -5.20445 -5.71276 0
M  V30 6036 H 572.298 -4.67537 -5.14232 0
M  V30 6037 H 575.489 -2.92833 -3.65194 0
M  V30 6038 H 575.662 -4.24777 -4.89355 0
M  V30 6039 N 569.068 1.32177 -0.85831 0
M  V30 6040 C 570.317 1.96392 -0.459689 0
M  V30 6041 C 570.63 1.68659 0.990632 0
M  V30 6042 O 571.836 2.26641 1.49485 0
M  V30 6043 C 570.292 3.51542 -0.7711 0
M  V30 6044 C 569.9 3.8813 -2.2374 0
M  V30 6045 C 571.644 4.2221 -0.44038 0
M  V30 6046 C 569.551 5.36341 -2.49183 0
M  V30 6047 H 568.481 0.735007 -0.168169 0
M  V30 6048 H 571.132 1.50518 -1.0496 0
M  V30 6049 H 569.514 3.95846 -0.11058 0
M  V30 6050 H 570.688 3.54824 -2.94001 0
M  V30 6051 H 569.003 3.30497 -2.533 0
M  V30 6052 H 571.6 5.31234 -0.607855 0
M  V30 6053 H 571.943 4.11683 0.618291 0
M  V30 6054 H 572.476 3.83502 -1.05695 0
M  V30 6055 H 569.215 5.51892 -3.53689 0
M  V30 6056 H 568.735 5.7104 -1.83504 0
M  V30 6057 H 570.414 6.03466 -2.33318 0
M  V30 6058 N 570.547 0.616602 1.45037 0
M  V30 6059 C 571.477 -0.0840787 2.33349 0
M  V30 6060 C 572.458 -0.849641 1.4736 0
M  V30 6061 O 573.643 -0.818407 1.76113 0
M  V30 6062 C 570.773 -1.07604 3.3021 0
M  V30 6063 C 569.727 -0.423096 4.25904 0
M  V30 6064 C 569.053 -1.52394 5.12523 0
M  V30 6065 C 570.353 0.661457 5.18095 0
M  V30 6066 H 572.047 0.653333 2.92185 0
M  V30 6067 H 569.593 0.315634 1.40498 0
M  V30 6068 H 571.546 -1.57485 3.90866 0
M  V30 6069 H 570.27 -1.84416 2.69552 0
M  V30 6070 H 568.929 0.05493 3.66559 0
M  V30 6071 H 568.577 -2.28257 4.48227 0
M  V30 6072 H 568.277 -1.09251 5.77354 0
M  V30 6073 H 569.801 -2.02485 5.76049 0
M  V30 6074 H 571.215 0.246353 5.7277 0
M  V30 6075 H 569.612 1.01517 5.91451 0
M  V30 6076 H 570.682 1.53446 4.59981 0
M  V30 6077 N 572.025 -1.5352 0.356285 0
M  V30 6078 C 573.273 -2.00719 -0.235837 0
M  V30 6079 C 573.594 -1.24551 -1.5004 0
M  V30 6080 O 572.864 -0.356185 -1.92635 0
M  V30 6081 H 571.444 -0.741542 -0.0901366 0
M  V30 6082 H 574.106 -1.88887 0.480378 0
M  V30 6083 H 573.202 -3.08551 -0.469357 0
M  V30 6084 N 573.503 -0.0852151 -1.57369 0
M  V30 6085 C 574.914 0.445428 -1.81309 0
M  V30 6086 C 575.265 1.68795 -1.00013 0
M  V30 6087 O 574.39 2.15211 -0.226573 0
M  V30 6088 C 574.985 0.814887 -3.28854 0
M  V30 6089 C 573.544 1.29032 -3.53592 0
M  V30 6090 C 572.691 0.282089 -2.75861 0
M  V30 6091 H 575.642 -0.310771 -1.55627 0
M  V30 6092 H 575.663 1.67524 -3.41637 0
M  V30 6093 H 575.175 -0.0896309 -3.87996 0
M  V30 6094 H 573.276 2.21289 -2.9977 0
M  V30 6095 H 573.389 1.25898 -4.62262 0
M  V30 6096 H 571.753 0.762182 -2.43029 0
M  V30 6097 H 572.536 -0.614936 -3.37748 0
M  V30 6098 N 574.981 1.5647 0.188427 0
M  V30 6099 C 576.258 1.71857 0.934058 0
M  V30 6100 C 576.638 0.641867 2.01105 0
M  V30 6101 O 575.986 -0.346098 2.25864 0
M  V30 6102 C 576.196 3.14431 1.5144 0
M  V30 6103 C 577.544 3.74869 1.99396 0
M  V30 6104 O 578.568 3.17601 1.61269 0
M  V30 6105 O 577.427 4.75387 2.69573 0
M  V30 6106 H 574.521 0.701186 0.438483 0
M  V30 6107 H 577.067 1.68768 0.177599 0
M  V30 6108 H 575.839 3.8427 0.738416 0
M  V30 6109 H 575.462 3.21775 2.33552 0
M  V30 6110 N 576.459 -0.456382 1.50847 0
M  V30 6111 C 577.706 -1.20736 1.62571 0
M  V30 6112 C 578.034 -1.9163 0.332904 0
M  V30 6113 O 577.289 -1.8343 -0.682058 0
M  V30 6114 C 577.588 -2.26336 2.76599 0
M  V30 6115 C 577.254 -1.7259 4.16562 0
M  V30 6116 C 575.916 -1.57654 4.54641 0
M  V30 6117 C 578.268 -1.32877 5.03977 0
M  V30 6118 C 575.596 -1.0145 5.77862 0
M  V30 6119 C 577.948 -0.7811 6.27759 0
M  V30 6120 C 576.612 -0.618488 6.64628 0
M  V30 6121 H 575.882 -0.441803 0.594888 0
M  V30 6122 H 578.529 -0.501169 1.84826 0
M  V30 6123 H 576.834 -3.0292 2.48489 0
M  V30 6124 H 578.531 -2.84227 2.82871 0
M  V30 6125 H 575.121 -1.85187 3.86528 0
M  V30 6126 H 579.305 -1.43245 4.75179 0
M  V30 6127 H 574.561 -0.876109 6.0509 0
M  V30 6128 H 578.735 -0.464783 6.94847 0
M  V30 6129 H 576.362 -0.180838 7.59985 0
M  V30 6130 N 577.937 -1.40673 -0.710563 0
M  V30 6131 C 579.185 -1.38947 -1.46759 0
M  V30 6132 C 579.506 0.00572879 -1.94999 0
M  V30 6133 O 578.776 0.961358 -1.70689 0
M  V30 6134 H 577.356 -0.5114 -0.544499 0
M  V30 6135 H 580.018 -1.75773 -0.842012 0
M  V30 6136 H 579.114 -2.06745 -2.33801 0
M  V30 6137 N 579.415 0.9433 -1.26252 0
M  V30 6138 C 580.645 1.72117 -1.14277 0
M  V30 6139 C 581.053 1.86726 0.304944 0
M  V30 6140 O 580.396 1.3727 1.22076 0
M  V30 6141 C 580.458 3.14778 -1.73651 0
M  V30 6142 C 580.122 3.23561 -3.22734 0
M  V30 6143 C 581.119 3.07001 -4.19579 0
M  V30 6144 C 578.804 3.47019 -3.63157 0
M  V30 6145 C 580.798 3.13763 -5.54826 0
M  V30 6146 C 578.485 3.53416 -4.98538 0
M  V30 6147 C 579.483 3.36804 -5.94182 0
M  V30 6148 O 579.171 3.42906 -7.27098 0
M  V30 6149 H 578.903 0.545781 -0.398873 0
M  V30 6150 H 581.457 1.19123 -1.67328 0
M  V30 6151 H 579.687 3.69186 -1.1506 0
M  V30 6152 H 581.376 3.74469 -1.56613 0
M  V30 6153 H 582.142 2.88736 -3.89688 0
M  V30 6154 H 578.021 3.59006 -2.89199 0
M  V30 6155 H 581.565 3.00714 -6.29458 0
M  V30 6156 H 577.462 3.71201 -5.28091 0
M  V30 6157 H 578.23 3.59463 -7.35342 0
M  V30 6158 N 580.893 1.08022 1.14757 0
M  V30 6159 C 582.139 0.808705 1.85978 0
M  V30 6160 C 582.472 -0.663764 1.82504 0
M  V30 6161 O 581.747 -1.48765 1.25296 0
M  V30 6162 C 582.03 1.32623 3.34788 0
M  V30 6163 C 581.883 2.86375 3.46856 0
M  V30 6164 C 583.202 0.948291 4.29762 0
M  V30 6165 H 580.321 0.295244 0.675278 0
M  V30 6166 H 582.963 1.33917 1.34783 0
M  V30 6167 H 581.113 0.875002 3.78518 0
M  V30 6168 H 582.785 3.39839 3.11941 0
M  V30 6169 H 581.028 3.24232 2.88194 0
M  V30 6170 H 581.699 3.17658 4.51439 0
M  V30 6171 H 584.175 1.33722 3.94028 0
M  V30 6172 H 583.051 1.33765 5.32352 0
M  V30 6173 H 583.312 -0.145094 4.41862 0
M  V30 6174 N 582.371 -1.3172 0.865308 0
M  V30 6175 C 583.599 -2.01057 0.488251 0
M  V30 6176 C 584.014 -1.64979 -0.918 0
M  V30 6177 O 583.371 -0.876597 -1.60069 0
M  V30 6178 C 583.422 -3.55964 0.630224 0
M  V30 6179 O 583.143 -3.90749 1.98109 0
M  V30 6180 C 584.644 -4.42574 0.253567 0
M  V30 6181 H 581.864 -0.64332 0.190736 0
M  V30 6182 H 584.408 -1.68058 1.16519 0
M  V30 6183 H 582.563 -3.874 0.000895422 0
M  V30 6184 H 582.977 -4.85467 1.9855 0
M  V30 6185 H 584.451 -5.50521 0.403875 0
M  V30 6186 H 584.928 -4.31724 -0.806895 0
M  V30 6187 H 585.534 -4.16547 0.858404 0
M  V30 6188 N 583.85 -0.624285 -1.44708 0
M  V30 6189 C 585.266 -0.289322 -1.56956 0
M  V30 6190 C 585.466 1.20773 -1.61295 0
M  V30 6191 O 584.522 1.9915 -1.55227 0
M  V30 6192 C 585.835 -0.975215 -2.84447 0
M  V30 6193 C 587.383 -0.952709 -2.98148 0
M  V30 6194 C 587.858 -1.61893 -4.28433 0
M  V30 6195 N 589.349 -1.5852 -4.35231 0
M  V30 6196 C 590.084 -2.06969 -5.34744 0
M  V30 6197 N 589.58 -2.63579 -6.40701 0
M  V30 6198 N 591.373 -1.97638 -5.26209 0
M  V30 6199 H 583.524 -1.59612 -1.40135 0
M  V30 6200 H 585.787 -0.669592 -0.671081 0
M  V30 6201 H 585.493 -2.02999 -2.87201 0
M  V30 6202 H 585.367 -0.508749 -3.73753 0
M  V30 6203 H 587.754 0.093568 -2.94952 0
M  V30 6204 H 587.835 -1.4576 -2.10209 0
M  V30 6205 H 587.479 -2.66463 -4.32389 0
M  V30 6206 H 587.409 -1.08893 -5.15218 0
M  V30 6207 H 589.899 -1.17183 -3.59272 0
M  V30 6208 H 590.213 -2.98298 -7.12908 0
M  V30 6209 H 588.558 -2.67626 -6.41406 0
M  V30 6210 H 591.749 -1.5314 -4.42341 0
M  V30 6211 H 591.922 -2.35708 -6.03611 0
M  V30 6212 N 585.328 1.53329 -0.364422 0
M  V30 6213 C 586.238 2.29414 0.490552 0
M  V30 6214 C 587.254 1.35335 1.09363 0
M  V30 6215 O 588.43 1.68391 1.10483 0
M  V30 6216 C 585.495 3.06772 1.61529 0
M  V30 6217 C 584.556 4.16516 1.03986 0
M  V30 6218 C 583.789 4.90176 2.111 0
M  V30 6219 O 584.012 4.63687 3.32191 0
M  V30 6220 O 582.946 5.76134 1.74222 0
M  V30 6221 H 586.772 3.03428 -0.12856 0
M  V30 6222 H 584.357 1.48843 -0.128837 0
M  V30 6223 H 586.239 3.55082 2.26924 0
M  V30 6224 H 584.914 2.35596 2.21983 0
M  V30 6225 H 583.821 3.7246 0.349856 0
M  V30 6226 H 585.154 4.89855 0.4799 0
M  V30 6227 N 586.806 0.0935595 1.57322 0
M  V30 6228 C 588.055 -0.570191 1.93473 0
M  V30 6229 C 588.368 -1.69434 0.977318 0
M  V30 6230 O 589.574 -2.41914 1.23248 0
M  V30 6231 C 588.03 -1.06564 3.43762 0
M  V30 6232 C 587.638 0.0286723 4.47991 0
M  V30 6233 C 589.382 -1.70221 3.88877 0
M  V30 6234 C 587.289 -0.482046 5.89432 0
M  V30 6235 H 586.219 -0.216764 0.72217 0
M  V30 6236 H 588.87 0.169313 1.82717 0
M  V30 6237 H 587.252 -1.85878 3.49664 0
M  V30 6238 H 588.426 0.804106 4.5373 0
M  V30 6239 H 586.741 0.570336 4.12476 0
M  V30 6240 H 589.338 -2.09502 4.91948 0
M  V30 6241 H 589.681 -2.57078 3.27439 0
M  V30 6242 H 590.214 -0.974919 3.85668 0
M  V30 6243 H 586.953 0.349871 6.54566 0
M  V30 6244 H 586.473 -1.22452 5.87167 0
M  V30 6245 H 588.152 -0.951508 6.39965 0
M  V30 6246 N 588.284 -1.56567 -0.180126 0
M  V30 6247 C 589.695 -1.7126 -0.743422 0
M  V30 6248 C 590.046 -0.70263 -1.83187 0
M  V30 6249 O 589.171 0.137856 -2.1596 0
M  V30 6250 C 589.766 -3.10512 -1.35528 0
M  V30 6251 C 588.325 -3.26919 -1.8655 0
M  V30 6252 C 587.472 -2.67213 -0.741099 0
M  V30 6253 H 590.423 -1.58636 0.0451543 0
M  V30 6254 H 590.444 -3.08673 -2.22489 0
M  V30 6255 H 589.956 -3.83997 -0.562862 0
M  V30 6256 H 588.057 -2.58376 -2.68464 0
M  V30 6257 H 588.17 -4.34574 -2.01699 0
M  V30 6258 H 586.534 -2.26788 -1.15927 0
M  V30 6259 H 587.317 -3.43277 0.0393291 0
M  V30 6260 N 589.762 0.448376 -1.51087 0
M  V30 6261 C 590.692 1.55102 -1.74544 0
M  V30 6262 C 591.673 1.59357 -0.594932 0
M  V30 6263 O 592.858 1.75261 -0.836491 0
M  V30 6264 C 589.988 2.93268 -1.86041 0
M  V30 6265 C 588.942 3.03877 -3.01402 0
M  V30 6266 C 588.268 4.43914 -2.98068 0
M  V30 6267 C 589.568 2.7898 -4.41551 0
M  V30 6268 H 591.262 1.35724 -2.66869 0
M  V30 6269 H 588.808 0.651498 -1.28419 0
M  V30 6270 H 590.761 3.70356 -2.01034 0
M  V30 6271 H 589.485 3.13853 -0.903548 0
M  V30 6272 H 588.144 2.29227 -2.86096 0
M  V30 6273 H 587.792 4.6145 -2.00182 0
M  V30 6274 H 587.492 4.51944 -3.75527 0
M  V30 6275 H 589.016 5.22991 -3.1514 0
M  V30 6276 H 590.43 3.45805 -4.57265 0
M  V30 6277 H 588.827 2.98431 -5.20633 0
M  V30 6278 H 589.897 1.74663 -4.5235 0
M  V30 6279 N 591.24 1.41047 0.703093 0
M  V30 6280 C 592.651 1.35657 1.28274 0
M  V30 6281 C 593.002 0.0360309 1.96167 0
M  V30 6282 O 592.127 -0.865833 1.98324 0
M  V30 6283 C 592.722 2.45707 2.33267 0
M  V30 6284 C 591.281 2.43738 2.86825 0
M  V30 6285 C 590.428 2.25941 1.60767 0
M  V30 6286 H 593.379 1.50672 0.49836 0
M  V30 6287 H 593.4 2.14333 3.14391 0
M  V30 6288 H 592.912 3.41805 1.83824 0
M  V30 6289 H 591.013 1.51375 3.40465 0
M  V30 6290 H 591.126 3.39779 3.37768 0
M  V30 6291 H 589.49 1.73681 1.86298 0
M  V30 6292 H 590.273 3.24054 1.1333 0
M  V30 6293 N 592.718 -0.936591 1.26751 0
M  V30 6294 C 593.966 -1.67998 1.12343 0
M  V30 6295 C 594.287 -1.92137 -0.332938 0
M  V30 6296 O 593.557 -1.52132 -1.23421 0
M  V30 6297 H 592.137 -0.622609 0.412756 0
M  V30 6298 H 594.799 -1.12509 1.59147 0
M  V30 6299 H 593.895 -2.65185 1.64571 0
M  V30 6300 N 594.196 -1.08629 -1.14182 0
M  V30 6301 C 595.607 -0.838003 -1.66836 0
M  V30 6302 C 595.958 0.634885 -1.85644 0
M  V30 6303 O 595.083 1.49008 -1.56926 0
M  V30 6304 C 595.678 -1.51465 -3.03058 0
M  V30 6305 C 594.237 -1.31355 -3.52736 0
M  V30 6306 C 593.384 -1.57599 -2.28162 0
M  V30 6307 H 596.335 -1.24656 -0.982165 0
M  V30 6308 H 596.356 -0.943134 -3.68626 0
M  V30 6309 H 595.868 -2.58661 -2.89337 0
M  V30 6310 H 593.969 -0.262384 -3.71675 0
M  V30 6311 H 594.082 -2.04275 -4.33369 0
M  V30 6312 H 592.446 -0.997659 -2.34348 0
M  V30 6313 H 593.229 -2.66006 -2.17015 0
M  V30 6314 N 595.674 1.31259 -0.872281 0
M  V30 6315 C 596.899 2.0133 -0.498099 0
M  V30 6316 C 597.324 1.65031 0.902568 0
M  V30 6317 O 596.682 0.860164 1.59596 0
M  V30 6318 C 596.73 3.54411 -0.665205 0
M  V30 6319 O 595.834 4.11347 0.294473 0
M  V30 6320 H 595.175 0.633844 -0.197832 0
M  V30 6321 H 597.705 1.67402 -1.17633 0
M  V30 6322 H 597.715 4.04147 -0.559373 0
M  V30 6323 H 596.39 3.80171 -1.68651 0
M  V30 6324 H 594.967 3.72624 0.143403 0
M  V30 6325 N 597.152 0.631951 1.44375 0
M  V30 6326 C 598.377 0.142146 2.06912 0
M  V30 6327 C 598.802 -1.17456 1.4692 0
M  V30 6328 O 598.16 -1.72074 0.570975 0
M  V30 6329 C 598.208 0.0417952 3.60576 0
M  V30 6330 O 597.312 -1.00194 4.00044 0
M  V30 6331 H 596.653 0.0851491 0.658518 0
M  V30 6332 H 599.183 0.868863 1.85235 0
M  V30 6333 H 599.193 -0.148517 4.0773 0
M  V30 6334 H 597.868 1.0031 4.03622 0
M  V30 6335 H 596.445 -0.786131 3.64519 0
M  V30 6336 N 598.631 -1.53133 0.372548 0
M  V30 6337 C 599.561 -2.28876 -0.462412 0
M  V30 6338 C 600.542 -1.31583 -1.07796 0
M  V30 6339 O 601.727 -1.60461 -1.09389 0
M  V30 6340 C 598.857 -3.08317 -1.59868 0
M  V30 6341 C 597.811 -4.13355 -1.11003 0
M  V30 6342 C 597.137 -4.8092 -2.33708 0
M  V30 6343 C 598.437 -5.21955 -0.18983 0
M  V30 6344 H 600.131 -2.9892 0.169511 0
M  V30 6345 H 597.677 -1.43761 0.0829658 0
M  V30 6346 H 599.63 -3.60055 -2.18949 0
M  V30 6347 H 598.354 -2.35976 -2.25794 0
M  V30 6348 H 597.013 -3.62573 -0.541869 0
M  V30 6349 H 596.661 -4.05144 -2.98106 0
M  V30 6350 H 596.361 -5.51904 -2.01682 0
M  V30 6351 H 597.885 -5.35455 -2.93462 0
M  V30 6352 H 599.299 -5.69153 -0.688319 0
M  V30 6353 H 597.696 -6.00087 0.0398887 0
M  V30 6354 H 598.766 -4.78811 0.766057 0
M  V30 6355 N 600.109 -0.101901 -1.5727 0
M  V30 6356 C 601.386 0.602832 -1.86079 0
M  V30 6357 C 601.766 1.85912 -1 0
M  V30 6358 O 601.114 2.28379 -0.0742488 0
M  V30 6359 C 601.324 0.911694 -3.36881 0
M  V30 6360 C 602.672 1.2722 -4.05093 0
M  V30 6361 O 603.696 1.0025 -3.41802 0
M  V30 6362 O 602.555 1.7776 -5.16782 0
M  V30 6363 H 599.649 0.302366 -0.769743 0
M  V30 6364 H 602.195 -0.135113 -1.69161 0
M  V30 6365 H 600.967 0.0207256 -3.91295 0
M  V30 6366 H 600.59 1.70538 -3.59169 0
M  V30 6367 N 601.587 1.56661 0.17182 0
M  V30 6368 C 602.812 1.86459 0.908165 0
M  V30 6369 C 603.237 0.688181 1.75059 0
M  V30 6370 O 602.595 -0.362753 1.77634 0
M  V30 6371 C 602.643 3.14669 1.76112 0
M  V30 6372 O 601.747 2.96858 2.86268 0
M  V30 6373 H 601.088 0.613318 0.254434 0
M  V30 6374 H 603.618 2.03892 0.170113 0
M  V30 6375 H 603.628 3.46061 2.16115 0
M  V30 6376 H 602.303 3.99905 1.14233 0
M  V30 6377 H 600.88 2.76819 2.49852 0
M  V30 6378 N 603.065 -0.440357 1.51323 0
M  V30 6379 C 604.312 -1.19004 1.63842 0
M  V30 6380 C 604.64 -1.91266 0.35321 0
M  V30 6381 O 603.895 -1.84143 -0.662565 0
M  V30 6382 C 604.194 -2.2339 2.78984 0
M  V30 6383 C 603.86 -1.68162 4.18369 0
M  V30 6384 C 602.522 -1.52823 4.56288 0
M  V30 6385 C 604.874 -1.27524 5.05358 0
M  V30 6386 C 602.202 -0.953157 5.78906 0
M  V30 6387 C 604.554 -0.714474 6.28552 0
M  V30 6388 C 603.218 -0.547961 6.65247 0
M  V30 6389 H 602.488 -0.435468 0.59954 0
M  V30 6390 H 605.135 -0.481538 1.85347 0
M  V30 6391 H 603.44 -3.00267 2.51688 0
M  V30 6392 H 605.137 -2.81211 2.85869 0
M  V30 6393 H 601.727 -1.81077 3.8847 0
M  V30 6394 H 605.911 -1.38197 4.76671 0
M  V30 6395 H 601.167 -0.811882 6.05986 0
M  V30 6396 H 605.341 -0.391059 6.95301 0
M  V30 6397 H 602.968 -0.100222 7.60134 0
M  V30 6398 N 604.543 -1.41418 -0.695603 0
M  V30 6399 C 605.791 -1.40496 -1.45277 0
M  V30 6400 C 606.112 -0.0149538 -1.94994 0
M  V30 6401 O 605.382 0.9432 -1.71699 0
M  V30 6402 H 603.962 -0.517147 -0.539044 0
M  V30 6403 H 606.624 -1.76656 -0.823321 0
M  V30 6404 H 605.72 -2.09214 -2.31595 0
M  V30 6405 N 606.021 0.929856 -1.27246 0
M  V30 6406 C 606.969 2.05151 -1.09616 0
M  V30 6407 C 607.963 1.69388 -0.0198617 0
M  V30 6408 O 609.169 1.79124 -0.177417 0
M  V30 6409 H 605.544 0.671909 -0.337701 0
M  V30 6410 H 607.515 2.17168 -2.04648 0
M  V30 6411 C 606.264 3.3934 -0.757851 0
M  V30 6412 H 605.587 3.67343 -1.57795 0
M  V30 6413 H 607.027 4.18603 -0.674358 0
M  V30 6414 C 605.486 3.32582 0.537658 0
M  V30 6415 O 606.016 3.69633 1.57271 0
M  V30 6416 N 604.222 2.8568 0.532478 0
M  V30 6417 H 603.769 2.55725 -0.310233 0
M  V30 6418 H 603.727 2.81541 1.39936 0
M  V30 6419 N 607.499 1.09233 1.13605 0
M  V30 6420 C 608.429 0.751738 2.21068 0
M  V30 6421 C 609.41 -0.269688 1.67948 0
M  V30 6422 O 610.595 -0.13819 1.93708 0
M  V30 6423 C 607.725 0.16935 3.46887 0
M  V30 6424 C 606.679 1.12007 4.13084 0
M  V30 6425 C 606.005 0.399483 5.33206 0
M  V30 6426 C 607.305 2.46168 4.6065 0
M  V30 6427 H 608.999 1.65024 2.49815 0
M  V30 6428 H 606.545 0.794905 1.20072 0
M  V30 6429 H 608.498 -0.0809824 4.21322 0
M  V30 6430 H 607.222 -0.764335 3.1753 0
M  V30 6431 H 605.881 1.35564 3.40614 0
M  V30 6432 H 605.529 -0.538277 5.00112 0
M  V30 6433 H 605.229 1.03337 5.78442 0
M  V30 6434 H 606.753 0.157403 6.10397 0
M  V30 6435 H 608.167 2.26829 5.26518 0
M  V30 6436 H 606.564 3.05326 5.1662 0
M  V30 6437 H 607.634 3.07076 3.75276 0
M  V30 6438 N 608.977 -1.30795 0.87923 0
M  V30 6439 C 610.254 -1.91145 0.415086 0
M  V30 6440 C 610.634 -1.7995 -1.10368 0
M  V30 6441 O 609.982 -1.21305 -1.93642 0
M  V30 6442 C 610.192 -3.37014 0.906778 0
M  V30 6443 C 611.54 -4.14101 0.938358 0
M  V30 6444 O 612.564 -3.45834 0.853053 0
M  V30 6445 O 611.423 -5.36054 1.06342 0
M  V30 6446 H 608.517 -0.81736 0.125905 0
M  V30 6447 H 611.063 -1.39401 0.967753 0
M  V30 6448 H 609.835 -3.3922 1.95053 0
M  V30 6449 H 609.458 -3.96204 0.332948 0
M  V30 6450 N 610.455 -0.639598 -1.44038 0
M  V30 6451 C 611.701 -0.147698 -2.02261 0
M  V30 6452 C 612.034 1.23031 -1.50256 0
M  V30 6453 O 611.309 1.81847 -0.690068 0
M  V30 6454 C 611.592 -0.14362 -3.59813 0
M  V30 6455 C 611.445 -1.55458 -4.22082 0
M  V30 6456 C 612.764 0.527317 -4.36929 0
M  V30 6457 H 609.883 -0.0551453 -0.734934 0
M  V30 6458 H 612.525 -0.817688 -1.71505 0
M  V30 6459 H 610.675 0.426898 -3.86147 0
M  V30 6460 H 612.347 -2.17464 -4.06826 0
M  V30 6461 H 610.59 -2.10594 -3.79253 0
M  V30 6462 H 611.261 -1.50369 -5.31124 0
M  V30 6463 H 613.737 0.0420504 -4.16079 0
M  V30 6464 H 612.613 0.499389 -5.46624 0
M  V30 6465 H 612.874 1.59914 -4.12165 0
M  V30 6466 N 611.933 1.52934 -0.380664 0
M  V30 6467 C 613.158 2.06363 0.207157 0
M  V30 6468 C 613.583 1.25122 1.4045 0
M  V30 6469 O 612.941 0.274062 1.79217 0
M  V30 6470 C 612.989 3.56162 0.563996 0
M  V30 6471 O 612.093 3.77552 1.65917 0
M  V30 6472 H 611.434 0.663468 0.0265859 0
M  V30 6473 H 613.964 1.9719 -0.545635 0
M  V30 6474 H 613.974 3.99453 0.830752 0
M  V30 6475 H 612.649 4.14732 -0.311427 0
M  V30 6476 H 611.226 3.46154 1.3868 0
M  V30 6477 N 613.412 0.11024 1.57214 0
M  V30 6478 C 614.823 -0.416527 1.81994 0
M  V30 6479 C 615.174 -1.67183 1.02686 0
M  V30 6480 O 614.299 -2.14823 0.260782 0
M  V30 6481 C 614.894 -0.762466 3.30109 0
M  V30 6482 C 613.453 -1.23391 3.556 0
M  V30 6483 C 612.6 -0.238166 2.76275 0
M  V30 6484 H 615.551 0.335491 1.55113 0
M  V30 6485 H 615.572 -1.62068 3.44259 0
M  V30 6486 H 615.084 0.151346 3.87805 0
M  V30 6487 H 613.185 -2.16492 3.03253 0
M  V30 6488 H 613.298 -1.18528 4.64207 0
M  V30 6489 H 611.662 -0.723421 2.4421 0
M  V30 6490 H 612.445 0.668591 3.36727 0
M  V30 6491 N 614.89 -1.56749 -0.16351 0
M  V30 6492 C 616.301 -1.72039 -0.725216 0
M  V30 6493 C 616.652 -0.72202 -1.82432 0
M  V30 6494 O 615.777 0.114942 -2.16095 0
M  V30 6495 C 616.372 -3.11932 -1.32227 0
M  V30 6496 C 614.931 -3.28879 -1.83072 0
M  V30 6497 C 614.078 -2.67984 -0.712716 0
M  V30 6498 H 617.029 -1.58579 0.0619772 0
M  V30 6499 H 617.05 -3.11015 -2.19202 0
M  V30 6500 H 616.562 -3.84572 -0.522103 0
M  V30 6501 H 614.663 -2.61209 -2.65708 0
M  V30 6502 H 614.776 -4.36688 -1.97079 0
M  V30 6503 H 613.14 -2.28005 -1.13515 0
M  V30 6504 H 613.923 -3.43216 0.0757361 0
M  V30 6505 N 616.368 0.432326 -1.51554 0
M  V30 6506 C 617.614 1.18309 -1.64714 0
M  V30 6507 C 617.947 1.90745 -0.364696 0
M  V30 6508 O 617.222 1.8381 0.635936 0
M  V30 6509 C 617.505 2.1961 -2.85383 0
M  V30 6510 C 617.358 1.51223 -4.23617 0
M  V30 6511 C 618.677 3.20538 -3.01569 0
M  V30 6512 H 615.796 0.428751 -0.599451 0
M  V30 6513 H 618.438 0.471689 -1.84052 0
M  V30 6514 H 616.588 2.8028 -2.69027 0
M  V30 6515 H 618.26 0.938516 -4.51652 0
M  V30 6516 H 616.503 0.814501 -4.26085 0
M  V30 6517 H 617.174 2.25024 -5.04052 0
M  V30 6518 H 619.65 2.69926 -3.16669 0
M  V30 6519 H 618.526 3.88706 -3.87555 0
M  V30 6520 H 618.787 3.86933 -2.13859 0
M  V30 6521 N 617.846 1.41785 0.688094 0
M  V30 6522 C 619.074 1.44915 1.47673 0
M  V30 6523 C 619.489 0.0565786 1.88715 0
M  V30 6524 O 618.846 -0.92579 1.57275 0
M  V30 6525 C 618.897 2.36452 2.73446 0
M  V30 6526 O 618.618 3.7029 2.34131 0
M  V30 6527 C 620.119 2.48463 3.67125 0
M  V30 6528 H 617.339 0.493324 0.454832 0
M  V30 6529 H 619.883 1.86153 0.846594 0
M  V30 6530 H 618.038 1.98502 3.3268 0
M  V30 6531 H 618.452 4.19183 3.15255 0
M  V30 6532 H 619.926 3.16662 4.52138 0
M  V30 6533 H 620.403 1.51826 4.12123 0
M  V30 6534 H 621.009 2.8708 3.13792 0
M  V30 6535 N 619.324 -0.923095 1.27737 0
M  V30 6536 C 620.57 -1.67375 1.14514 0
M  V30 6537 C 620.903 -1.91751 -0.307424 0
M  V30 6538 O 620.178 -1.51119 -1.22447 0
M  V30 6539 C 620.461 -3.03745 1.9342 0
M  V30 6540 C 620.314 -2.86581 3.46686 0
M  V30 6541 C 621.633 -4.04144 1.74228 0
M  V30 6542 H 618.752 -0.607427 0.417374 0
M  V30 6543 H 621.394 -1.07089 1.56946 0
M  V30 6544 H 619.544 -3.55204 1.5736 0
M  V30 6545 H 621.216 -2.42203 3.92601 0
M  V30 6546 H 619.459 -2.21829 3.72793 0
M  V30 6547 H 620.13 -3.83381 3.97143 0
M  V30 6548 H 622.606 -3.61712 2.05678 0
M  V30 6549 H 621.482 -4.97543 2.31824 0
M  V30 6550 H 621.743 -4.36661 0.691373 0
M  V30 6551 N 620.802 -1.09834 -1.13024 0
M  V30 6552 C 622.05 -0.835297 -1.8403 0
M  V30 6553 C 622.371 0.640944 -1.84165 0
M  V30 6554 O 621.641 1.46517 -1.30037 0
M  V30 6555 H 620.221 -0.306018 -0.681441 0
M  V30 6556 H 622.883 -1.38734 -1.36891 0
M  V30 6557 H 621.979 -1.19258 -2.88416 0
M  V30 6558 N 622.28 1.30327 -0.886154 0
M  V30 6559 C 623.528 1.9571 -0.504195 0
M  V30 6560 C 623.849 1.70294 0.950003 0
M  V30 6561 O 623.119 1.02718 1.66811 0
M  V30 6562 H 621.699 0.72412 -0.183465 0
M  V30 6563 H 624.361 1.58835 -1.12949 0
M  V30 6564 H 623.457 3.04704 -0.675431 0
M  V30 6565 N 623.758 0.647228 1.43697 0
M  V30 6566 C 624.986 0.16575 2.06235 0
M  V30 6567 C 625.401 -1.1662 1.48476 0
M  V30 6568 O 624.758 -1.7187 0.613762 0
M  V30 6569 C 624.809 0.0621651 3.61447 0
M  V30 6570 O 624.53 1.34146 4.17057 0
M  V30 6571 C 626.031 -0.446102 4.4105 0
M  V30 6572 H 623.251 0.0871158 0.665321 0
M  V30 6573 H 625.795 0.886183 1.84301 0
M  V30 6574 H 623.95 -0.608794 3.82587 0
M  V30 6575 H 624.364 1.19675 5.10664 0
M  V30 6576 H 625.838 -0.46755 5.50016 0
M  V30 6577 H 626.315 -1.47627 4.13646 0
M  V30 6578 H 626.921 0.192159 4.24866 0
M  V30 6579 N 625.236 -1.5273 0.388769 0
M  V30 6580 C 626.146 -2.30165 -0.453993 0
M  V30 6581 C 627.162 -1.37058 -1.07197 0
M  V30 6582 O 628.338 -1.70127 -1.0779 0
M  V30 6583 C 625.403 -3.09303 -1.56628 0
M  V30 6584 C 624.464 -4.18117 -0.973467 0
M  V30 6585 C 623.697 -4.93472 -2.03275 0
M  V30 6586 O 623.92 -4.68913 -3.24772 0
M  V30 6587 O 622.854 -5.78833 -1.65034 0
M  V30 6588 H 626.68 -3.03185 0.176816 0
M  V30 6589 H 624.265 -1.4862 0.152501 0
M  V30 6590 H 626.147 -3.58648 -2.21246 0
M  V30 6591 H 624.822 -2.39098 -2.18206 0
M  V30 6592 H 623.729 -3.7297 -0.290556 0
M  V30 6593 H 625.062 -4.90556 -0.401908 0
M  V30 6594 N 626.714 -0.118576 -1.57153 0
M  V30 6595 C 627.944 0.546466 -1.99242 0
M  V30 6596 C 628.352 1.60791 -0.997148 0
M  V30 6597 O 627.695 1.83691 0.0181745 0
M  V30 6598 C 627.757 1.23167 -3.37743 0
M  V30 6599 C 627.421 0.318226 -4.55891 0
M  V30 6600 C 628.418 -0.442988 -5.18009 0
M  V30 6601 C 626.103 0.229421 -5.01776 0
M  V30 6602 C 628.097 -1.28074 -6.244 0
M  V30 6603 C 625.784 -0.611966 -6.08028 0
M  V30 6604 C 626.782 -1.36568 -6.69207 0
M  V30 6605 O 626.47 -2.1931 -7.73407 0
M  V30 6606 H 626.202 0.149297 -0.659307 0
M  V30 6607 H 628.756 -0.201603 -2.04408 0
M  V30 6608 H 626.986 2.0268 -3.29329 0
M  V30 6609 H 628.675 1.79358 -3.64123 0
M  V30 6610 H 629.441 -0.38425 -4.83475 0
M  V30 6611 H 625.32 0.805771 -4.53903 0
M  V30 6612 H 628.864 -1.86952 -6.72082 0
M  V30 6613 H 624.761 -0.6721 -6.41991 0
M  V30 6614 H 625.529 -2.12247 -7.90502 0
M  V30 6615 N 628.193 1.56834 0.155195 0
M  V30 6616 C 629.604 1.72421 0.716082 0
M  V30 6617 C 629.955 0.731685 1.82046 0
M  V30 6618 O 629.08 -0.103481 2.16152 0
M  V30 6619 C 629.675 3.12629 1.30571 0
M  V30 6620 C 628.234 3.29846 1.81325 0
M  V30 6621 C 627.381 2.68359 0.698494 0
M  V30 6622 H 630.332 1.58544 -0.0703861 0
M  V30 6623 H 630.353 3.12174 2.1755 0
M  V30 6624 H 629.865 3.84844 0.501701 0
M  V30 6625 H 627.966 2.62614 2.64319 0
M  V30 6626 H 628.079 4.37727 1.9476 0
M  V30 6627 H 626.443 2.28604 1.12305 0
M  V30 6628 H 627.226 3.43171 -0.0939366 0
M  V30 6629 N 629.671 -0.424282 1.51781 0
M  V30 6630 C 630.601 -1.52305 1.7699 0
M  V30 6631 C 631.582 -1.5839 0.620209 0
M  V30 6632 O 632.767 -1.73908 0.864268 0
M  V30 6633 C 629.897 -2.90271 1.90683 0
M  V30 6634 C 628.851 -2.99043 3.06198 0
M  V30 6635 C 628.177 -4.39116 3.05092 0
M  V30 6636 C 629.477 -2.7192 4.45934 0
M  V30 6637 H 631.171 -1.31461 2.68995 0
M  V30 6638 H 628.717 -0.630985 1.29439 0
M  V30 6639 H 630.67 -3.6711 2.06901 0
M  V30 6640 H 629.394 -3.12376 0.953365 0
M  V30 6641 H 628.053 -2.24646 2.89706 0
M  V30 6642 H 627.701 -4.58207 2.07498 0
M  V30 6643 H 627.401 -4.45912 3.82669 0
M  V30 6644 H 628.925 -5.17911 3.2342 0
M  V30 6645 H 630.339 -3.38487 4.62709 0
M  V30 6646 H 628.736 -2.90111 5.25315 0
M  V30 6647 H 629.806 -1.67445 4.55072 0
M  V30 6648 N 631.149 -1.42148 -0.680565 0
M  V30 6649 C 632.397 -1.42029 -1.43779 0
M  V30 6650 C 632.718 -0.0356347 -1.94967 0
M  V30 6651 O 631.988 0.924936 -1.7269 0
M  V30 6652 H 630.568 -0.522835 -0.533529 0
M  V30 6653 H 633.23 -1.7752 -0.804538 0
M  V30 6654 H 632.326 -2.11658 -2.29363 0
M  V30 6655 N 632.627 0.916307 -1.28225 0
M  V30 6656 C 634.043 1.19425 -1.05876 0
M  V30 6657 C 634.243 2.005 0.2005 0
M  V30 6658 O 633.299 2.35806 0.902873 0
M  V30 6659 C 634.612 1.93133 -2.30478 0
M  V30 6660 C 636.16 2.06026 -2.35632 0
M  V30 6661 C 636.635 2.83141 -3.59994 0
M  V30 6662 N 638.126 2.90704 -3.60618 0
M  V30 6663 C 638.861 3.50865 -4.53521 0
M  V30 6664 N 638.357 4.12327 -5.56739 0
M  V30 6665 N 640.15 3.48379 -4.41122 0
M  V30 6666 H 632.301 0.37496 -2.09064 0
M  V30 6667 H 634.564 0.228531 -0.920042 0
M  V30 6668 H 634.27 1.40985 -3.22205 0
M  V30 6669 H 634.144 2.93696 -2.36691 0
M  V30 6670 H 636.531 2.57355 -1.44404 0
M  V30 6671 H 636.612 1.04647 -2.33415 0
M  V30 6672 H 636.256 2.32492 -4.51564 0
M  V30 6673 H 636.186 3.84829 -3.59464 0
M  V30 6674 H 638.677 2.47034 -2.85977 0
M  V30 6675 H 638.99 4.56205 -6.23776 0
M  V30 6676 H 637.335 4.10839 -5.60568 0
M  V30 6677 H 640.526 2.99572 -3.59686 0
M  V30 6678 H 640.699 3.94974 -5.13712 0
M  V30 6679 N 634.105 1.10431 1.1244 0
M  V30 6680 C 635.354 0.841539 1.83306 0
M  V30 6681 C 635.667 -0.634961 1.85007 0
M  V30 6682 O 636.873 -1.01363 2.51869 0
M  V30 6683 C 635.329 1.45565 3.29149 0
M  V30 6684 C 634.937 2.96544 3.35806 0
M  V30 6685 C 636.681 1.27227 4.04986 0
M  V30 6686 C 634.588 3.5099 4.75983 0
M  V30 6687 H 633.518 0.311156 0.686803 0
M  V30 6688 H 636.169 1.32829 1.26604 0
M  V30 6689 H 634.551 0.896574 3.85717 0
M  V30 6690 H 635.725 3.58766 2.89177 0
M  V30 6691 H 634.04 3.14036 2.73442 0
M  V30 6692 H 636.637 1.65348 5.08492 0
M  V30 6693 H 636.98 0.213834 4.1575 0
M  V30 6694 H 637.513 1.79941 3.54776 0
M  V30 6695 H 634.252 4.56499 4.70413 0
M  V30 6696 H 633.772 2.93535 5.23065 0
M  V30 6697 H 635.451 3.48808 5.44924 0
M  V30 6698 N 635.583 -1.29855 0.893053 0
M  V30 6699 C 636.513 -2.3035 0.382249 0
M  V30 6700 C 637.494 -1.61328 -0.539203 0
M  V30 6701 O 638.679 -1.88882 -0.451342 0
M  V30 6702 C 635.809 -3.45024 -0.396983 0
M  V30 6703 C 634.763 -4.258 0.433437 0
M  V30 6704 C 634.089 -5.32605 -0.472889 0
M  V30 6705 C 635.389 -4.94549 1.67984 0
M  V30 6706 H 637.083 -2.73325 1.22205 0
M  V30 6707 H 634.629 -1.314 0.589073 0
M  V30 6708 H 636.582 -4.14398 -0.765024 0
M  V30 6709 H 635.306 -3.00875 -1.2705 0
M  V30 6710 H 633.965 -3.58125 0.783723 0
M  V30 6711 H 633.613 -4.84702 -1.34435 0
M  V30 6712 H 633.313 -5.87547 0.0789958 0
M  V30 6713 H 634.837 -6.04832 -0.837269 0
M  V30 6714 H 636.251 -5.56395 1.38192 0
M  V30 6715 H 634.648 -5.59393 2.17254 0
M  V30 6716 H 635.718 -4.20215 2.41965 0
M  V30 6717 N 637.061 -0.65484 -1.43351 0
M  V30 6718 C 638.31 -0.166215 -2.01014 0
M  V30 6719 C 638.623 1.22764 -1.52278 0
M  V30 6720 O 639.829 1.81156 -2.02224 0
M  V30 6721 C 638.285 -0.246341 -3.59056 0
M  V30 6722 C 637.893 -1.64299 -4.16785 0
M  V30 6723 C 639.637 0.184597 -4.24098 0
M  V30 6724 C 637.544 -1.67695 -5.67126 0
M  V30 6725 H 636.474 -0.0583769 -0.751737 0
M  V30 6726 H 639.125 -0.817111 -1.64303 0
M  V30 6727 H 637.507 0.472092 -3.93176 0
M  V30 6728 H 638.681 -2.3869 -3.94162 0
M  V30 6729 H 636.996 -2.02004 -3.6412 0
M  V30 6730 H 639.593 0.179088 -5.344 0
M  V30 6731 H 639.936 1.21632 -3.98135 0
M  V30 6732 H 640.469 -0.482141 -3.94867 0
M  V30 6733 H 637.208 -2.68783 -5.9786 0
M  V30 6734 H 636.728 -0.976313 -5.91801 0
M  V30 6735 H 638.407 -1.42142 -6.31193 0
M  V30 6736 N 638.539 1.52521 -0.396863 0
M  V30 6737 C 639.787 2.01274 0.182536 0
M  V30 6738 C 640.108 1.28485 1.46685 0
M  V30 6739 O 639.378 0.407134 1.91623 0
M  V30 6740 H 637.958 0.743671 0.0704442 0
M  V30 6741 H 640.62 1.87547 -0.530289 0
M  V30 6742 H 639.716 3.09687 0.387385 0
M  V30 6743 N 640.017 0.126909 1.57088 0
M  V30 6744 C 641.242 -0.53997 2.00248 0
M  V30 6745 C 641.667 -1.58927 1.00618 0
M  V30 6746 O 641.025 -1.81288 -0.0210131 0
M  V30 6747 C 641.073 -1.13565 3.4225 0
M  V30 6748 O 640.177 -2.25103 3.45547 0
M  V30 6749 H 639.518 -0.13412 0.650314 0
M  V30 6750 H 642.048 0.217718 2.03438 0
M  V30 6751 H 642.058 -1.46925 3.80627 0
M  V30 6752 H 640.733 -0.367122 4.14277 0
M  V30 6753 H 639.31 -1.93123 3.18995 0
M  V30 6754 N 641.495 -1.56914 -0.146875 0
M  V30 6755 C 642.72 -1.87881 -0.878386 0
M  V30 6756 C 643.145 -0.715945 -1.73942 0
M  V30 6757 O 642.503 0.334447 -1.78189 0
M  V30 6758 C 642.551 -3.17431 -1.71084 0
M  V30 6759 O 641.655 -3.01374 -2.81509 0
M  V30 6760 H 640.996 -0.617289 -0.244644 0
M  V30 6761 H 643.526 -2.04136 -0.137654 0
M  V30 6762 H 643.536 -3.49455 -2.10582 0
M  V30 6763 H 642.211 -4.01671 -1.07856 0
M  V30 6764 H 640.788 -2.80758 -2.45416 0
M  V30 6765 N 642.974 0.416227 -1.52004 0
M  V30 6766 C 644.221 1.16383 -1.65714 0
M  V30 6767 C 644.549 1.9068 -0.383594 0
M  V30 6768 O 643.804 1.85174 0.633185 0
M  V30 6769 C 644.103 2.18923 -2.82502 0
M  V30 6770 C 643.769 1.61485 -4.20991 0
M  V30 6771 C 642.431 1.45545 -4.58661 0
M  V30 6772 C 644.783 1.19468 -5.07323 0
M  V30 6773 C 642.111 0.860937 -5.80349 0
M  V30 6774 C 644.463 0.614386 -6.29609 0
M  V30 6775 C 643.127 0.442056 -6.66035 0
M  V30 6776 H 642.397 0.425875 -0.606392 0
M  V30 6777 H 645.044 0.45199 -1.8609 0
M  V30 6778 H 643.349 2.96225 -2.56433 0
M  V30 6779 H 645.046 2.76628 -2.90307 0
M  V30 6780 H 641.636 1.74873 -3.91302 0
M  V30 6781 H 645.82 1.30596 -4.78809 0
M  V30 6782 H 641.076 0.715372 -6.072 0
M  V30 6783 H 645.25 0.280393 -6.95835 0
M  V30 6784 H 642.877 -0.0207218 -7.60197 0
M  V30 6785 N 644.452 1.42507 0.673017 0
M  V30 6786 C 645.863 1.38347 1.25367 0
M  V30 6787 C 646.214 0.0776327 1.96046 0
M  V30 6788 O 645.339 -0.823571 2.00116 0
M  V30 6789 C 645.934 2.506 2.28002 0
M  V30 6790 C 644.493 2.49767 2.81591 0
M  V30 6791 C 643.64 2.293 1.55938 0
M  V30 6792 H 646.591 1.51695 0.466288 0
M  V30 6793 H 646.612 2.20953 3.09774 0
M  V30 6794 H 646.124 3.45627 1.76532 0
M  V30 6795 H 644.225 1.58563 3.37177 0
M  V30 6796 H 644.338 3.46867 3.30485 0
M  V30 6797 H 642.702 1.77594 1.82572 0
M  V30 6798 H 643.485 3.26385 1.06431 0
M  V30 6799 N 645.93 -0.909495 1.28709 0
M  V30 6800 C 646.877 -2.01245 1.13 0
M  V30 6801 C 647.847 -1.6608 0.0259684 0
M  V30 6802 O 649.032 -1.89835 0.191687 0
M  V30 6803 C 646.172 -3.35644 0.802315 0
M  V30 6804 C 645.285 -3.83653 1.98582 0
M  V30 6805 C 644.42 -5.06582 1.59837 0
M  V30 6806 C 643.459 -5.46934 2.74827 0
M  V30 6807 N 642.596 -6.61053 2.36546 0
M  V30 6808 H 647.436 -2.14013 2.0737 0
M  V30 6809 H 644.973 -1.0482 1.03205 0
M  V30 6810 H 646.931 -4.12963 0.593057 0
M  V30 6811 H 645.561 -3.22631 -0.104457 0
M  V30 6812 H 644.613 -3.02454 2.30708 0
M  V30 6813 H 645.925 -4.09515 2.84779 0
M  V30 6814 H 645.079 -5.91457 1.35143 0
M  V30 6815 H 643.818 -4.82537 0.707753 0
M  V30 6816 H 642.823 -4.60599 3.00215 0
M  V30 6817 H 644.048 -5.72965 3.64538 0
M  V30 6818 H 641.994 -6.3863 1.49959 0
M  V30 6819 H 641.911 -6.86662 3.16277 0
M  V30 6820 H 643.179 -7.49221 2.15146 0
M  V30 6821 N 647.408 -1.11026 -1.11852 0
M  V30 6822 C 648.633 -0.879064 -1.87849 0
M  V30 6823 C 649.058 0.565406 -1.79401 0
M  V30 6824 O 648.416 1.39886 -1.15333 0
M  V30 6825 C 648.464 -1.33985 -3.34784 0
M  V30 6826 O 647.568 -0.508803 -4.09249 0
M  V30 6827 H 646.909 -0.316992 -0.583448 0
M  V30 6828 H 649.439 -1.47863 -1.41413 0
M  V30 6829 H 649.449 -1.33248 -3.85628 0
M  V30 6830 H 648.124 -2.39172 -3.40249 0
M  V30 6831 H 646.701 -0.581913 -3.68332 0
M  V30 6832 N 648.886 1.2938 -0.899927 0
M  V30 6833 C 650.134 1.95164 -0.524924 0
M  V30 6834 C 650.455 1.71292 0.931888 0
M  V30 6835 O 649.725 1.04481 1.65712 0
M  V30 6836 H 648.305 0.722133 -0.191135 0
M  V30 6837 H 650.967 1.57628 -1.14627 0
M  V30 6838 H 650.063 3.0397 -0.707711 0
M  V30 6839 N 650.364 0.662433 1.43002 0
M  V30 6840 C 651.612 0.179237 2.01304 0
M  V30 6841 C 651.933 -1.21428 1.52579 0
M  V30 6842 O 651.203 -1.81294 0.742252 0
M  V30 6843 H 649.783 0.0632725 0.744316 0
M  V30 6844 H 652.445 0.856169 1.75088 0
M  V30 6845 H 651.541 0.170957 3.11631 0
M  V30 6846 N 651.842 -1.52309 0.404946 0
M  V30 6847 C 653.258 -1.59503 0.0556255 0
M  V30 6848 C 653.458 -1.41805 -1.43156 0
M  V30 6849 O 652.514 -1.2429 -2.19792 0
M  V30 6850 C 653.827 -2.95687 0.546801 0
M  V30 6851 C 655.375 -3.08909 0.504413 0
M  V30 6852 C 655.85 -4.47566 0.97203 0
M  V30 6853 N 657.341 -4.53795 0.928679 0
M  V30 6854 C 658.076 -5.59346 1.26174 0
M  V30 6855 N 657.572 -6.72469 1.66604 0
M  V30 6856 N 659.365 -5.49532 1.18198 0
M  V30 6857 H 651.516 -1.6206 1.37296 0
M  V30 6858 H 653.779 -0.762161 0.563751 0
M  V30 6859 H 653.485 -3.13905 1.58609 0
M  V30 6860 H 653.359 -3.77172 -0.0457905 0
M  V30 6861 H 655.746 -2.90378 -0.525819 0
M  V30 6862 H 655.827 -2.2934 1.13301 0
M  V30 6863 H 655.471 -4.6684 2.00057 0
M  V30 6864 H 655.401 -5.25625 0.320292 0
M  V30 6865 H 657.892 -3.72588 0.631369 0
M  V30 6866 H 658.205 -7.48993 1.9034 0
M  V30 6867 H 656.55 -6.73761 1.70504 0
M  V30 6868 H 659.741 -4.60038 0.865011 0
M  V30 6869 H 659.914 -6.31687 1.44485 0
M  V30 6870 N 653.32 -0.135238 -1.57019 0
M  V30 6871 C 654.252 0.839675 -2.13265 0
M  V30 6872 C 655.265 1.21887 -1.07923 0
M  V30 6873 O 656.454 1.16499 -1.35241 0
M  V30 6874 C 653.554 2.13647 -2.63075 0
M  V30 6875 C 652.727 1.92646 -3.92691 0
M  V30 6876 C 651.786 3.06205 -4.27931 0
M  V30 6877 O 650.812 2.78409 -4.96465 0
M  V30 6878 N 652.014 4.33072 -3.86561 0
M  V30 6879 H 654.779 0.359026 -2.97542 0
M  V30 6880 H 652.34 0.0486979 -1.61827 0
M  V30 6881 H 654.332 2.88641 -2.8367 0
M  V30 6882 H 652.902 2.5301 -1.83588 0
M  V30 6883 H 652.122 1.01754 -3.80841 0
M  V30 6884 H 653.41 1.75939 -4.77413 0
M  V30 6885 H 652.808 4.58526 -3.31316 0
M  V30 6886 H 651.365 5.04885 -4.12231 0
M  V30 6887 N 654.798 1.5699 0.138552 0
M  V30 6888 C 655.731 1.94064 1.2006 0
M  V30 6889 C 656.709 0.807601 1.41126 0
M  V30 6890 O 657.893 1.06399 1.556 0
M  V30 6891 C 655.02 2.21999 2.55801 0
M  V30 6892 C 654.066 3.44617 2.5128 0
M  V30 6893 S 654.899 4.97888 1.97149 0
M  V30 6894 C 656.055 5.28954 3.34602 0
M  V30 6895 H 656.288 2.83843 0.884337 0
M  V30 6896 H 653.821 1.50507 0.344517 0
M  V30 6897 H 655.779 2.38772 3.33914 0
M  V30 6898 H 654.44 1.32869 2.84613 0
M  V30 6899 H 653.633 3.61466 3.51224 0
M  V30 6900 H 653.235 3.27129 1.8128 0
M  V30 6901 H 655.527 5.22938 4.30745 0
M  V30 6902 H 656.47 6.30346 3.22598 0
M  V30 6903 H 656.878 4.56455 3.32128 0
M  V30 6904 N 656.276 -0.40816 1.52223 0
M  V30 6905 C 657.239 -1.48 1.7501 0
M  V30 6906 C 658.239 -1.48367 0.619996 0
M  V30 6907 O 659.429 -1.49874 0.887881 0
M  V30 6908 C 656.561 -2.87403 1.83336 0
M  V30 6909 H 657.754 -1.29086 2.70697 0
M  V30 6910 H 655.307 -0.638715 1.42654 0
M  V30 6911 H 656.042 -3.11686 0.895677 0
M  V30 6912 H 655.827 -2.8854 2.65494 0
M  V30 6913 H 657.317 -3.65103 2.02705 0
M  V30 6914 N 657.755 -1.42862 -0.66545 0
M  V30 6915 C 659.171 -1.25993 -0.979687 0
M  V30 6916 C 659.371 -0.170831 -2.00775 0
M  V30 6917 O 658.427 0.454827 -2.4837 0
M  V30 6918 C 659.74 -2.62005 -1.47559 0
M  V30 6919 C 661.288 -2.69437 -1.59288 0
M  V30 6920 C 661.763 -4.05838 -2.12272 0
M  V30 6921 N 663.254 -4.0784 -2.19592 0
M  V30 6922 C 663.989 -5.10205 -2.61684 0
M  V30 6923 N 663.485 -6.22949 -3.03161 0
M  V30 6924 N 665.278 -4.9756 -2.61516 0
M  V30 6925 H 657.429 -2.12395 0.0150493 0
M  V30 6926 H 659.692 -0.946355 -0.0558187 0
M  V30 6927 H 659.398 -3.42605 -0.794654 0
M  V30 6928 H 659.272 -2.86566 -2.45275 0
M  V30 6929 H 661.659 -1.89178 -2.26486 0
M  V30 6930 H 661.74 -2.48655 -0.600374 0
M  V30 6931 H 661.384 -4.86559 -1.4568 0
M  V30 6932 H 661.314 -4.23977 -3.12331 0
M  V30 6933 H 663.805 -3.26452 -1.90361 0
M  V30 6934 H 664.118 -6.96899 -3.33993 0
M  V30 6935 H 662.463 -6.2644 -3.00995 0
M  V30 6936 H 665.654 -4.08551 -2.28481 0
M  V30 6937 H 665.827 -5.77468 -2.93999 0
M  V30 6938 N 659.233 0.902656 -1.29189 0
M  V30 6939 C 660.196 1.98797 -1.14071 0
M  V30 6940 C 661.196 1.60615 -0.0770549 0
M  V30 6941 O 662.386 1.71165 -0.323753 0
M  V30 6942 C 659.518 3.32688 -0.743739 0
M  V30 6943 H 660.711 2.13637 -2.10473 0
M  V30 6944 H 658.264 1.08678 -1.12334 0
M  V30 6945 H 658.999 3.23549 0.220554 0
M  V30 6946 H 658.784 3.61765 -1.51223 0
M  V30 6947 H 660.274 4.12337 -0.660935 0
M  V30 6948 N 660.711 1.11618 1.11262 0
M  V30 6949 C 661.957 0.867463 1.83311 0
M  V30 6950 C 662.29 -0.605366 1.84524 0
M  V30 6951 O 661.565 -1.44704 1.29965 0
M  V30 6952 C 661.848 1.43207 3.30399 0
M  V30 6953 C 661.701 2.97265 3.3757 0
M  V30 6954 C 663.02 1.08454 4.26528 0
M  V30 6955 H 660.139 0.316578 0.665543 0
M  V30 6956 H 662.781 1.38137 1.30454 0
M  V30 6957 H 660.931 0.994982 3.75543 0
M  V30 6958 H 662.603 3.49591 3.00971 0
M  V30 6959 H 660.846 3.33237 2.77733 0
M  V30 6960 H 661.517 3.31859 4.41105 0
M  V30 6961 H 663.993 1.4619 3.89574 0
M  V30 6962 H 662.869 1.50633 5.27826 0
M  V30 6963 H 663.13 -0.00444568 4.421 0
M  V30 6964 N 662.189 -1.289 0.906776 0
M  V30 6965 C 663.605 -1.47733 0.603902 0
M  V30 6966 C 663.805 -1.82568 -0.852702 0
M  V30 6967 O 662.861 -1.92642 -1.63234 0
M  V30 6968 C 664.174 -2.58522 1.53581 0
M  V30 6969 C 665.722 -2.72394 1.54177 0
M  V30 6970 C 666.197 -3.86318 2.46013 0
M  V30 6971 N 667.688 -3.93661 2.441 0
M  V30 6972 C 668.423 -4.81177 3.11859 0
M  V30 6973 N 667.919 -5.73333 3.88923 0
M  V30 6974 N 669.712 -4.74728 3.00981 0
M  V30 6975 H 661.863 -1.04567 1.84877 0
M  V30 6976 H 664.126 -0.520118 0.792579 0
M  V30 6977 H 663.832 -2.39667 2.57396 0
M  V30 6978 H 663.706 -3.55475 1.26165 0
M  V30 6979 H 666.093 -2.90641 0.511034 0
M  V30 6980 H 666.174 -1.75993 1.85634 0
M  V30 6981 H 665.818 -3.68826 3.49185 0
M  V30 6982 H 665.748 -4.82102 2.11862 0
M  V30 6983 H 668.239 -3.27751 1.88115 0
M  V30 6984 H 668.552 -6.36923 4.37663 0
M  V30 6985 H 666.897 -5.73196 3.93029 0
M  V30 6986 H 670.088 -4.01722 2.40286 0
M  V30 6987 H 670.261 -5.42719 3.54062 0
M  V30 6988 N 663.667 -0.670007 -1.42649 0
M  V30 6989 C 664.615 0.0230106 -2.32589 0
M  V30 6990 C 665.609 0.795585 -1.49555 0
M  V30 6991 O 666.815 0.70409 -1.65658 0
M  V30 6992 H 663.19 0.0262342 -0.751542 0
M  V30 6993 H 665.161 -0.753009 -2.88743 0
M  V30 6994 C 663.91 0.963872 -3.34073 0
M  V30 6995 H 663.233 0.378813 -3.98001 0
M  V30 6996 H 664.673 1.41755 -3.99602 0
M  V30 6997 C 663.132 2.06797 -2.65964 0
M  V30 6998 O 663.662 3.15383 -2.48789 0
M  V30 6999 N 661.868 1.83831 -2.25066 0
M  V30 7000 H 661.415 0.955235 -2.39234 0
M  V30 7001 H 661.373 2.57895 -1.79827 0
M  V30 7002 N 665.145 1.52092 -0.413018 0
M  V30 7003 C 666.392 2.01855 0.161497 0
M  V30 7004 C 666.72 1.29845 1.44812 0
M  V30 7005 O 665.975 0.394471 1.91683 0
M  V30 7006 C 666.274 3.54529 0.4521 0
M  V30 7007 C 665.94 4.4469 -0.745788 0
M  V30 7008 C 664.602 4.69053 -1.07435 0
M  V30 7009 C 666.954 4.97742 -1.54604 0
M  V30 7010 C 664.282 5.43717 -2.20429 0
M  V30 7011 C 666.634 5.73642 -2.66678 0
M  V30 7012 C 665.298 5.96277 -3.00016 0
M  V30 7013 H 664.568 0.73864 0.0590961 0
M  V30 7014 H 667.215 1.83274 -0.555234 0
M  V30 7015 H 665.52 3.7131 1.25045 0
M  V30 7016 H 667.217 3.90546 0.909647 0
M  V30 7017 H 663.807 4.25907 -0.479725 0
M  V30 7018 H 667.991 4.78824 -1.30543 0
M  V30 7019 H 663.247 5.59462 -2.46602 0
M  V30 7020 H 667.421 6.13746 -3.29072 0
M  V30 7021 H 665.048 6.53913 -3.87688 0
M  V30 7022 N 666.623 0.143563 1.56945 0
M  V30 7023 C 667.553 -0.7936 2.196 0
M  V30 7024 C 668.534 -1.25955 1.14321 0
M  V30 7025 O 669.719 -1.31773 1.42651 0
M  V30 7026 C 666.849 -2.03424 2.81489 0
M  V30 7027 C 665.803 -1.70519 3.92565 0
M  V30 7028 C 665.129 -3.01817 4.41373 0
M  V30 7029 C 666.429 -0.95449 5.13504 0
M  V30 7030 H 668.123 -0.271423 2.98167 0
M  V30 7031 H 665.669 -0.12911 1.4342 0
M  V30 7032 H 667.622 -2.69463 3.23987 0
M  V30 7033 H 666.346 -2.58008 2.00248 0
M  V30 7034 H 665.005 -1.06859 3.5068 0
M  V30 7035 H 664.653 -3.54386 3.56959 0
M  V30 7036 H 664.353 -2.80565 5.16292 0
M  V30 7037 H 665.877 -3.68934 4.86539 0
M  V30 7038 H 667.291 -1.5169 5.52868 0
M  V30 7039 H 665.688 -0.842035 5.94163 0
M  V30 7040 H 666.758 0.0544033 4.84869 0
M  V30 7041 N 668.101 -1.57061 -0.130224 0
M  V30 7042 C 669.048 -1.99517 -1.16024 0
M  V30 7043 C 670.018 -0.865452 -1.41771 0
M  V30 7044 O 671.203 -1.12882 -1.53826 0
M  V30 7045 C 668.343 -2.3951 -2.48453 0
M  V30 7046 C 667.456 -3.65848 -2.29737 0
M  V30 7047 C 666.591 -3.9487 -3.55318 0
M  V30 7048 C 665.63 -5.14426 -3.31711 0
M  V30 7049 N 664.767 -5.39375 -4.49466 0
M  V30 7050 H 669.607 -2.87305 -0.791194 0
M  V30 7051 H 667.144 -1.42129 -0.379195 0
M  V30 7052 H 669.102 -2.60731 -3.25692 0
M  V30 7053 H 667.732 -1.54779 -2.83272 0
M  V30 7054 H 666.784 -3.52307 -1.4347 0
M  V30 7055 H 668.096 -4.53241 -2.08263 0
M  V30 7056 H 667.25 -4.16679 -4.4098 0
M  V30 7057 H 665.989 -3.05931 -3.79813 0
M  V30 7058 H 664.994 -4.92473 -2.44439 0
M  V30 7059 H 666.219 -6.04933 -3.08598 0
M  V30 7060 H 664.165 -4.53391 -4.74102 0
M  V30 7061 H 664.082 -6.21069 -4.31055 0
M  V30 7062 H 665.35 -5.65694 -5.36293 0
M  V30 7063 N 669.579 0.400081 -1.52437 0
M  V30 7064 C 670.542 1.4707 -1.75793 0
M  V30 7065 C 671.542 1.48036 -0.627856 0
M  V30 7066 O 672.732 1.49401 -0.895817 0
M  V30 7067 C 669.864 2.86427 -1.84858 0
M  V30 7068 H 671.057 1.27649 -2.71377 0
M  V30 7069 H 668.61 0.631141 -1.42991 0
M  V30 7070 H 669.345 3.11207 -0.912194 0
M  V30 7071 H 669.13 2.87128 -2.6702 0
M  V30 7072 H 670.62 3.64023 -2.04638 0
M  V30 7073 N 671.057 1.43213 0.657864 0
M  V30 7074 C 671.989 1.43974 1.78337 0
M  V30 7075 C 673.002 0.336482 1.59285 0
M  V30 7076 O 674.191 0.600631 1.68091 0
M  V30 7077 C 671.291 1.23242 3.15697 0
M  V30 7078 C 670.464 2.46319 3.61449 0
M  V30 7079 C 669.523 2.2088 4.77597 0
M  V30 7080 O 668.549 2.942 4.87273 0
M  V30 7081 N 669.751 1.22251 5.67481 0
M  V30 7082 H 672.516 2.40993 1.78164 0
M  V30 7083 H 670.077 1.3831 0.841549 0
M  V30 7084 H 672.069 1.04113 3.91079 0
M  V30 7085 H 670.639 0.346849 3.1067 0
M  V30 7086 H 669.859 2.80904 2.76563 0
M  V30 7087 H 671.147 3.28239 3.88763 0
M  V30 7088 H 670.545 0.616433 5.62331 0
M  V30 7089 H 669.102 1.09107 6.42603 0
M  V30 7090 N 672.536 -0.895792 1.29666 0
M  V30 7091 C 673.468 -2.00563 1.10937 0
M  V30 7092 C 674.481 -1.62705 0.055734 0
M  V30 7093 O 675.67 -1.7595 0.300656 0
M  V30 7094 C 672.77 -3.32262 0.667448 0
M  V30 7095 C 671.943 -3.98625 1.80047 0
M  V30 7096 C 671.002 -5.08617 1.3489 0
M  V30 7097 O 670.028 -5.30837 2.05429 0
M  V30 7098 N 671.23 -5.80076 0.221937 0
M  V30 7099 H 673.995 -2.17184 2.06522 0
M  V30 7100 H 671.556 -1.06822 1.21658 0
M  V30 7101 H 673.548 -4.03196 0.348586 0
M  V30 7102 H 672.118 -3.11985 -0.196055 0
M  V30 7103 H 671.338 -3.21005 2.28801 0
M  V30 7104 H 672.626 -4.39704 2.56003 0
M  V30 7105 H 672.024 -5.64514 -0.366084 0
M  V30 7106 H 670.581 -6.51789 -0.0375346 0
M  V30 7107 N 674.014 -1.12206 -1.10668 0
M  V30 7108 C 675.26 -0.877172 -1.82848 0
M  V30 7109 C 675.593 0.595571 -1.84842 0
M  V30 7110 O 674.868 1.44013 -1.30731 0
M  V30 7111 C 675.151 -1.44957 -3.29635 0
M  V30 7112 C 675.004 -2.99051 -3.35989 0
M  V30 7113 C 676.323 -1.10714 -4.25946 0
M  V30 7114 H 673.442 -0.320103 -0.663854 0
M  V30 7115 H 676.084 -1.38827 -1.2972 0
M  V30 7116 H 674.234 -1.01488 -3.7501 0
M  V30 7117 H 675.906 -3.51182 -2.99113 0
M  V30 7118 H 674.149 -3.34705 -2.75962 0
M  V30 7119 H 674.82 -3.34194 -4.39339 0
M  V30 7120 H 677.296 -1.48254 -3.88793 0
M  V30 7121 H 676.172 -1.5343 -5.2702 0
M  V30 7122 H 676.433 -0.019 -4.42096 0
M  V30 7123 N 675.492 1.28418 -0.913599 0
M  V30 7124 C 676.424 2.26368 -0.359169 0
M  V30 7125 C 677.437 1.54858 0.502285 0
M  V30 7126 O 678.626 1.75659 0.31719 0
M  V30 7127 C 675.726 3.35112 0.50526 0
M  V30 7128 C 674.899 4.36126 -0.333648 0
M  V30 7129 C 673.958 5.24134 0.465845 0
M  V30 7130 O 672.984 5.6907 -0.121538 0
M  V30 7131 N 674.186 5.52892 1.76891 0
M  V30 7132 H 676.951 2.74579 -1.2011 0
M  V30 7133 H 674.512 1.41898 -0.779532 0
M  V30 7134 H 676.504 3.90926 1.04684 0
M  V30 7135 H 675.074 2.86611 1.2479 0
M  V30 7136 H 674.294 3.79776 -1.0566 0
M  V30 7137 H 675.582 5.00638 -0.907669 0
M  V30 7138 H 674.98 5.18217 2.26865 0
M  V30 7139 H 673.537 6.11464 2.25732 0
M  V30 7140 N 676.97 0.677563 1.42291 0
M  V30 7141 C 677.933 0.0101085 2.29198 0
M  V30 7142 C 678.933 -0.726219 1.43467 0
M  V30 7143 O 680.123 -0.563807 1.64824 0
M  V30 7144 C 677.255 -0.996316 3.26016 0
M  V30 7145 H 678.448 0.775071 2.89711 0
M  V30 7146 H 676.001 0.440065 1.49977 0
M  V30 7147 H 676.736 -1.78967 2.70446 0
M  V30 7148 H 676.521 -0.471687 3.89253 0
M  V30 7149 H 678.011 -1.46167 3.91184 0
M  V30 7150 N 678.448 -1.51871 0.421078 0
M  V30 7151 C 679.859 -1.86644 -0.0457991 0
M  V30 7152 C 680.21 -1.33919 -1.43388 0
M  V30 7153 O 679.335 -0.683316 -2.05328 0
M  V30 7154 C 679.93 -3.38681 -0.0898844 0
M  V30 7155 C 678.489 -3.73049 -0.501127 0
M  V30 7156 C 677.636 -2.75485 0.316723 0
M  V30 7157 H 680.587 -1.45327 0.637635 0
M  V30 7158 H 680.608 -3.69636 -0.902734 0
M  V30 7159 H 680.12 -3.77025 0.920513 0
M  V30 7160 H 678.221 -3.40288 -1.51773 0
M  V30 7161 H 678.334 -4.78512 -0.237217 0
M  V30 7162 H 676.698 -2.53725 -0.222663 0
M  V30 7163 H 677.481 -3.16671 1.32569 0
M  V30 7164 N 679.926 -0.151884 -1.56866 0
M  V30 7165 C 681.172 0.498742 -1.96572 0
M  V30 7166 C 681.505 1.64194 -1.03702 0
M  V30 7167 O 680.78 1.94334 -0.0803432 0
M  V30 7168 C 681.063 1.00027 -3.45929 0
M  V30 7169 C 680.916 -0.141767 -4.49577 0
M  V30 7170 C 682.235 1.88044 -3.97904 0
M  V30 7171 H 679.354 0.17982 -0.714726 0
M  V30 7172 H 681.996 -0.234097 -1.88552 0
M  V30 7173 H 680.146 1.62476 -3.52894 0
M  V30 7174 H 681.818 -0.778269 -4.54687 0
M  V30 7175 H 680.061 -0.80019 -4.26356 0
M  V30 7176 H 680.732 0.250947 -5.51429 0
M  V30 7177 H 683.208 1.35416 -3.93449 0
M  V30 7178 H 682.084 2.20043 -5.02864 0
M  V30 7179 H 682.345 2.81916 -3.40552 0
M  V30 7180 N 681.404 1.57128 0.121893 0
M  V30 7181 C 682.314 2.03425 1.16857 0
M  V30 7182 C 683.33 0.954108 1.45509 0
M  V30 7183 O 684.506 1.26541 1.56682 0
M  V30 7184 C 681.571 2.42685 2.47599 0
M  V30 7185 C 680.632 3.64767 2.2637 0
M  V30 7186 C 679.865 4.02145 3.50878 0
M  V30 7187 O 680.088 3.39897 4.58068 0
M  V30 7188 O 679.022 4.95262 3.42051 0
M  V30 7189 H 682.848 2.92825 0.80544 0
M  V30 7190 H 680.433 1.45654 0.332477 0
M  V30 7191 H 682.315 2.68684 3.24634 0
M  V30 7192 H 680.99 1.56432 2.83392 0
M  V30 7193 H 679.897 3.43922 1.47203 0
M  V30 7194 H 681.23 4.51716 1.95482 0
M  V30 7195 N 682.882 -0.391992 1.52647 0
M  V30 7196 C 683.812 -1.48517 1.8018 0
M  V30 7197 C 684.793 -1.57039 0.653667 0
M  V30 7198 O 685.978 -1.72036 0.900962 0
M  V30 7199 C 683.108 -2.86161 1.96797 0
M  V30 7200 C 682.062 -2.92481 3.12472 0
M  V30 7201 C 681.388 -4.32546 3.14338 0
M  V30 7202 C 682.688 -2.624 4.51601 0
M  V30 7203 H 684.382 -1.25726 2.71723 0
M  V30 7204 H 681.928 -0.603387 1.30749 0
M  V30 7205 H 683.881 -3.62639 2.14641 0
M  V30 7206 H 682.605 -3.10283 1.01941 0
M  V30 7207 H 681.264 -2.18451 2.94406 0
M  V30 7208 H 680.912 -4.53703 2.1717 0
M  V30 7209 H 680.612 -4.37695 3.92042 0
M  V30 7210 H 682.136 -5.10934 3.34333 0
M  V30 7211 H 683.55 -3.28596 4.69785 0
M  V30 7212 H 681.947 -2.78903 5.3135 0
M  V30 7213 H 683.017 -1.57754 4.58521 0
M  V30 7214 N 684.36 -1.4356 -0.65026 0
M  V30 7215 C 685.59 -1.48563 -1.4357 0
M  V30 7216 C 685.998 -0.103041 -1.88919 0
M  V30 7217 O 685.341 0.897602 -1.60277 0
M  V30 7218 C 685.403 -2.37181 -2.70158 0
M  V30 7219 C 685.067 -3.84673 -2.4673 0
M  V30 7220 C 686.064 -4.75704 -2.09765 0
M  V30 7221 C 683.749 -4.29189 -2.60963 0
M  V30 7222 C 685.743 -6.09249 -1.87334 0
M  V30 7223 C 683.43 -5.62787 -2.38147 0
M  V30 7224 C 684.428 -6.52634 -2.01389 0
M  V30 7225 O 684.116 -7.83761 -1.78813 0
M  V30 7226 H 683.848 -0.506743 -0.447423 0
M  V30 7227 H 686.402 -1.89001 -0.80423 0
M  V30 7228 H 684.632 -1.91636 -3.35876 0
M  V30 7229 H 686.321 -2.33354 -3.32116 0
M  V30 7230 H 687.087 -4.42589 -1.98343 0
M  V30 7231 H 682.966 -3.59529 -2.88548 0
M  V30 7232 H 686.51 -6.7934 -1.58567 0
M  V30 7233 H 682.407 -5.95469 -2.49173 0
M  V30 7234 H 683.175 -7.95368 -1.93214 0
M  V30 7235 N 685.838 0.888903 -1.30139 0
M  V30 7236 C 687.063 1.67884 -1.21777 0
M  V30 7237 C 687.488 1.86848 0.216689 0
M  V30 7238 O 686.846 1.39659 1.15608 0
M  V30 7239 C 686.894 3.03483 -1.94757 0
M  V30 7240 O 685.998 3.92294 -1.27198 0
M  V30 7241 H 685.339 0.513144 -0.421402 0
M  V30 7242 H 687.869 1.10968 -1.71893 0
M  V30 7243 H 687.879 3.53553 -2.03627 0
M  V30 7244 H 686.554 2.89 -2.99085 0
M  V30 7245 H 685.131 3.50732 -1.26655 0
M  V30 7246 N 687.317 1.12792 1.10072 0
M  V30 7247 C 688.594 0.796867 1.78632 0
M  V30 7248 C 688.974 -0.712739 1.98704 0
M  V30 7249 O 688.322 -1.64773 1.5831 0
M  V30 7250 C 688.532 1.57622 3.11378 0
M  V30 7251 C 689.88 1.76463 3.86194 0
M  V30 7252 O 690.904 1.54165 3.2111 0
M  V30 7253 O 689.763 2.13623 5.03018 0
M  V30 7254 H 686.857 0.290248 0.774394 0
M  V30 7255 H 689.403 1.23215 1.16688 0
M  V30 7256 H 688.175 2.60246 2.92212 0
M  V30 7257 H 687.798 1.13543 3.81043 0
M  V30 7258 N 688.795 -1.27931 0.920396 0
M  V30 7259 C 690.041 -1.95329 0.5673 0
M  V30 7260 C 690.396 -1.7107 -0.880506 0
M  V30 7261 O 689.689 -1.02497 -1.61879 0
M  V30 7262 C 689.883 -3.47853 0.820558 0
M  V30 7263 C 689.712 -3.86941 2.29143 0
M  V30 7264 C 688.482 -4.10766 2.94278 0
M  V30 7265 C 690.68 -3.97091 3.26838 0
M  V30 7266 N 688.662 -4.36578 4.31594 0
M  V30 7267 C 690.033 -4.27194 4.49339 0
M  V30 7268 C 692.088 -3.79639 3.22147 0
M  V30 7269 C 690.791 -4.41662 5.67739 0
M  V30 7270 C 692.817 -3.95328 4.39852 0
M  V30 7271 C 692.179 -4.2581 5.61128 0
M  V30 7272 H 688.278 -0.73836 0.257583 0
M  V30 7273 H 690.862 -1.54447 1.1855 0
M  V30 7274 H 689.033 -3.87709 0.231571 0
M  V30 7275 H 690.765 -4.024 0.430824 0
M  V30 7276 H 687.52 -4.05318 2.44979 0
M  V30 7277 H 687.944 -4.53555 5.0261 0
M  V30 7278 H 692.586 -3.55119 2.29457 0
M  V30 7279 H 690.304 -4.65011 6.60901 0
M  V30 7280 H 693.89 -3.83253 4.37731 0
M  V30 7281 H 692.77 -4.37691 6.50689 0
M  V30 7282 N 690.273 -0.685099 -1.4193 0
M  V30 7283 C 691.203 -0.0273506 -2.33484 0
M  V30 7284 C 692.184 0.778366 -1.51246 0
M  V30 7285 O 693.369 0.733449 -1.79817 0
M  V30 7286 C 690.499 0.917272 -3.34968 0
M  V30 7287 C 689.453 0.21941 -4.27437 0
M  V30 7288 C 688.779 1.27768 -5.1921 0
M  V30 7289 C 690.079 -0.907894 -5.14349 0
M  V30 7290 H 691.773 -0.791994 -2.88735 0
M  V30 7291 H 689.319 -0.382308 -1.38832 0
M  V30 7292 H 691.272 1.38657 -3.97935 0
M  V30 7293 H 689.996 1.71346 -2.78043 0
M  V30 7294 H 688.655 -0.229757 -3.65879 0
M  V30 7295 H 688.303 2.06612 -4.58607 0
M  V30 7296 H 688.003 0.815803 -5.81909 0
M  V30 7297 H 689.527 1.7477 -5.85054 0
M  V30 7298 H 690.941 -0.519348 -5.70943 0
M  V30 7299 H 689.338 -1.2962 -5.85934 0
M  V30 7300 H 690.408 -1.75218 -4.52136 0
M  V30 7301 N 691.751 1.51645 -0.429126 0
M  V30 7302 C 692.976 2.06917 0.141399 0
M  V30 7303 C 693.401 1.29527 1.36398 0
M  V30 7304 O 692.759 0.33094 1.78254 0
M  V30 7305 C 692.807 3.57776 0.4504 0
M  V30 7306 O 691.911 3.82639 1.53821 0
M  V30 7307 H 691.252 0.663978 0.0054647 0
M  V30 7308 H 693.782 1.95355 -0.608093 0
M  V30 7309 H 693.792 4.01894 0.703249 0
M  V30 7310 H 692.467 4.13532 -0.443213 0
M  V30 7311 H 691.044 3.5039 1.27597 0
M  V30 7312 N 693.229 0.160201 1.56784 0
M  V30 7313 C 694.475 -0.48831 1.96833 0
M  V30 7314 C 694.808 -1.63641 1.04571 0
M  V30 7315 O 694.083 -1.94289 0.0906481 0
M  V30 7316 C 694.366 -0.981908 3.46454 0
M  V30 7317 C 694.219 0.165607 4.49495 0
M  V30 7318 C 695.538 -1.85931 3.98896 0
M  V30 7319 H 692.657 -0.176027 0.71567 0
M  V30 7320 H 695.299 0.244093 1.88426 0
M  V30 7321 H 693.449 -1.60602 3.5375 0
M  V30 7322 H 695.121 0.802372 4.54268 0
M  V30 7323 H 693.364 0.822789 4.25926 0
M  V30 7324 H 694.035 -0.221699 5.51555 0
M  V30 7325 H 696.511 -1.33327 3.94161 0
M  V30 7326 H 695.387 -2.17373 5.04024 0
M  V30 7327 H 695.648 -2.80106 3.42042 0
M  V30 7328 N 694.707 -1.5719 -0.113559 0
M  V30 7329 C 695.955 -1.84772 -0.818761 0
M  V30 7330 C 696.276 -0.746196 -1.80158 0
M  V30 7331 O 695.546 0.229305 -1.94553 0
M  V30 7332 H 694.126 -0.681737 -0.305359 0
M  V30 7333 H 696.788 -1.94645 -0.0995845 0
M  V30 7334 H 695.884 -2.80878 -1.36067 0
M  V30 7335 N 696.185 0.383891 -1.52853 0
M  V30 7336 C 697.135 1.46892 -1.74375 0
M  V30 7337 C 698.119 1.49378 -0.597909 0
M  V30 7338 O 699.311 1.54929 -0.855929 0
M  V30 7339 C 696.44 2.84547 -1.92063 0
M  V30 7340 C 695.526 2.8661 -3.12594 0
M  V30 7341 N 695.917 2.58339 -4.3485 0
M  V30 7342 C 694.215 3.17777 -3.12944 0
M  V30 7343 C 694.916 2.67616 -5.16485 0
M  V30 7344 N 693.892 3.01561 -4.52285 0
M  V30 7345 H 697.694 1.23869 -2.66522 0
M  V30 7346 H 695.208 0.591895 -1.51229 0
M  V30 7347 H 697.205 3.62674 -2.05604 0
M  V30 7348 H 695.865 3.08549 -1.01133 0
M  V30 7349 H 696.876 2.32266 -4.62896 0
M  V30 7350 H 693.553 3.47211 -2.31842 0
M  V30 7351 H 694.943 2.4926 -6.23955 0
M  V30 7352 N 697.663 1.43903 0.642637 0
M  V30 7353 C 698.909 1.46296 1.40447 0
M  V30 7354 C 699.242 0.0908361 1.93987 0
M  V30 7355 O 698.517 -0.889884 1.72949 0
M  V30 7356 C 698.8 2.51399 2.57819 0
M  V30 7357 C 698.653 3.97926 2.09702 0
M  V30 7358 C 699.972 2.53125 3.60022 0
M  V30 7359 H 697.091 0.532676 0.509338 0
M  V30 7360 H 699.733 1.75515 0.727635 0
M  V30 7361 H 697.883 2.26614 3.1556 0
M  V30 7362 H 699.555 4.33804 1.5688 0
M  V30 7363 H 697.798 4.10252 1.40982 0
M  V30 7364 H 698.469 4.67096 2.94152 0
M  V30 7365 H 700.945 2.75242 3.12059 0
M  V30 7366 H 699.821 3.28589 4.39682 0
M  V30 7367 H 700.082 1.56895 4.13324 0
M  V30 7368 N 699.141 -0.881989 1.30609 0
M  V30 7369 C 700.418 -1.61563 1.10258 0
M  V30 7370 C 700.798 -2.08228 -0.347053 0
M  V30 7371 O 700.146 -1.85151 -1.33908 0
M  V30 7372 C 700.356 -2.78287 2.10612 0
M  V30 7373 C 701.704 -3.48545 2.4249 0
M  V30 7374 O 702.728 -2.88479 2.08945 0
M  V30 7375 O 701.587 -4.56873 2.99883 0
M  V30 7376 H 698.681 -0.710238 0.423663 0
M  V30 7377 H 701.227 -0.928503 1.42045 0
M  V30 7378 H 699.999 -2.41131 3.08174 0
M  V30 7379 H 699.622 -3.54695 1.79659 0
M  V30 7380 N 700.619 -1.13374 -1.09472 0
M  V30 7381 C 701.529 -0.824029 -2.19652 0
M  V30 7382 C 702.545 0.19118 -1.72947 0
M  V30 7383 O 703.721 0.0223464 -2.01388 0
M  V30 7384 C 700.786 -0.294009 -3.45451 0
M  V30 7385 C 699.847 -1.3704 -4.0684 0
M  V30 7386 C 699.08 -0.86558 -5.26634 0
M  V30 7387 O 699.303 0.29702 -5.69626 0
M  V30 7388 O 698.237 -1.63968 -5.79136 0
M  V30 7389 H 702.063 -1.74454 -2.48595 0
M  V30 7390 H 699.648 -0.911155 -1.18399 0
M  V30 7391 H 701.53 -0.00381039 -4.214 0
M  V30 7392 H 700.205 0.598921 -3.18111 0
M  V30 7393 H 699.112 -1.71391 -3.3253 0
M  V30 7394 H 700.445 -2.23746 -4.38405 0
M  V30 7395 N 702.098 1.27442 -0.927168 0
M  V30 7396 C 703.345 1.94391 -0.567324 0
M  V30 7397 C 703.673 1.72875 0.891321 0
M  V30 7398 O 702.928 1.05071 1.65102 0
M  V30 7399 C 703.227 3.47413 -0.838994 0
M  V30 7400 C 702.893 3.89049 -2.2793 0
M  V30 7401 C 701.555 4.00127 -2.67305 0
M  V30 7402 C 703.907 4.10154 -3.21595 0
M  V30 7403 C 701.235 4.29697 -3.99471 0
M  V30 7404 C 703.587 4.41208 -4.53341 0
M  V30 7405 C 702.251 4.50499 -4.92551 0
M  V30 7406 H 701.521 0.711325 -0.207598 0
M  V30 7407 H 704.168 1.51523 -1.17103 0
M  V30 7408 H 702.473 3.91503 -0.152609 0
M  V30 7409 H 704.17 3.97354 -0.53955 0
M  V30 7410 H 700.76 3.80962 -1.96381 0
M  V30 7411 H 704.944 4.01036 -2.92377 0
M  V30 7412 H 700.2 4.35099 -4.29533 0
M  V30 7413 H 704.374 4.56486 -5.25922 0
M  V30 7414 H 702.001 4.73167 -5.94994 0
M  V30 7415 N 703.576 0.692616 1.41565 0
M  V30 7416 C 704.506 0.0397325 2.33466 0
M  V30 7417 C 705.487 -0.770334 1.51657 0
M  V30 7418 O 706.672 -0.723903 1.80203 0
M  V30 7419 C 703.802 -0.899495 3.3545 0
M  V30 7420 C 702.756 -0.196738 4.27548 0
M  V30 7421 C 702.082 -1.25012 5.19881 0
M  V30 7422 C 703.382 0.935158 5.1386 0
M  V30 7423 H 705.076 0.807296 2.88311 0
M  V30 7424 H 702.622 0.389665 1.38628 0
M  V30 7425 H 704.575 -1.36545 3.98665 0
M  V30 7426 H 703.299 -1.69869 2.78948 0
M  V30 7427 H 701.958 0.249158 3.65752 0
M  V30 7428 H 701.606 -2.04177 4.59696 0
M  V30 7429 H 701.306 -0.784931 5.82334 0
M  V30 7430 H 702.83 -1.71665 5.85972 0
M  V30 7431 H 704.244 0.549619 5.70659 0
M  V30 7432 H 702.641 1.32726 5.85238 0
M  V30 7433 H 703.711 1.77613 4.512 0
M  V30 7434 N 705.054 -1.51416 0.437162 0
M  V30 7435 C 706.282 -2.06503 -0.128045 0
M  V30 7436 C 706.697 -1.30461 -1.36475 0
M  V30 7437 O 706.054 -0.364127 -1.78831 0
M  V30 7438 C 706.105 -3.58683 -0.450437 0
M  V30 7439 O 705.826 -4.31853 0.737186 0
M  V30 7440 C 707.327 -4.30284 -1.06633 0
M  V30 7441 H 704.547 -0.670952 -0.00800269 0
M  V30 7442 H 707.091 -1.94996 0.616193 0
M  V30 7443 H 705.246 -3.70106 -1.14457 0
M  V30 7444 H 705.66 -5.22467 0.461347 0
M  V30 7445 H 707.134 -5.37848 -1.24191 0
M  V30 7446 H 707.611 -3.88564 -2.0473 0
M  V30 7447 H 708.217 -4.23304 -0.411585 0
M  V30 7448 N 706.532 -0.168513 -1.56696 0
M  V30 7449 C 707.779 0.477158 -1.96798 0
M  V30 7450 C 708.107 1.63442 -1.05437 0
M  V30 7451 O 707.362 1.95503 -0.0878903 0
M  V30 7452 C 707.661 1.00441 -3.42996 0
M  V30 7453 C 707.327 -0.0366556 -4.50885 0
M  V30 7454 C 705.989 -0.322785 -4.80116 0
M  V30 7455 C 708.341 -0.743447 -5.1587 0
M  V30 7456 C 705.669 -1.32114 -5.71632 0
M  V30 7457 C 708.021 -1.73077 -6.08463 0
M  V30 7458 C 706.685 -2.02437 -6.36062 0
M  V30 7459 H 705.955 0.174604 -0.720135 0
M  V30 7460 H 708.602 -0.259884 -1.89728 0
M  V30 7461 H 706.907 1.81922 -3.47004 0
M  V30 7462 H 708.604 1.51294 -3.71364 0
M  V30 7463 H 705.194 0.196532 -4.28149 0
M  V30 7464 H 709.378 -0.535602 -4.93401 0
M  V30 7465 H 704.634 -1.55482 -5.913 0
M  V30 7466 H 708.808 -2.28382 -6.57886 0
M  V30 7467 H 706.435 -2.79946 -7.06777 0
M  V30 7468 N 708.01 1.57248 0.105221 0
M  V30 7469 C 709.256 1.85845 0.811753 0
M  V30 7470 C 709.589 0.756219 1.78871 0
M  V30 7471 O 708.864 -0.236736 1.93054 0
M  V30 7472 C 709.147 3.25059 1.54947 0
M  V30 7473 C 709 4.45898 0.591185 0
M  V30 7474 C 710.319 3.6203 2.50245 0
M  V30 7475 H 707.438 0.675973 0.293649 0
M  V30 7476 H 710.08 1.89849 0.0756269 0
M  V30 7477 H 708.23 3.21776 2.17698 0
M  V30 7478 H 709.902 4.61291 -0.0285352 0
M  V30 7479 H 708.145 4.33693 -0.0962343 0
M  V30 7480 H 708.816 5.40009 1.1443 0
M  V30 7481 H 711.292 3.66192 1.97593 0
M  V30 7482 H 710.168 4.60389 2.98886 0
M  V30 7483 H 710.429 2.90176 3.33542 0
M  V30 7484 N 709.488 -0.375779 1.53054 0
M  V30 7485 C 710.899 -0.95309 1.6054 0
M  V30 7486 C 711.25 -1.90575 0.466446 0
M  V30 7487 O 710.375 -2.12507 -0.408609 0
M  V30 7488 C 710.97 -1.73537 2.90982 0
M  V30 7489 C 709.529 -2.26218 3.00836 0
M  V30 7490 C 708.676 -1.07157 2.55759 0
M  V30 7491 H 711.627 -0.154895 1.57942 0
M  V30 7492 H 711.648 -2.59574 2.78211 0
M  V30 7493 H 711.16 -1.04176 3.73857 0
M  V30 7494 H 709.261 -2.98852 2.22527 0
M  V30 7495 H 709.374 -2.54799 4.05727 0
M  V30 7496 H 707.738 -1.43553 2.10391 0
M  V30 7497 H 708.521 -0.393099 3.41042 0
M  V30 7498 N 710.966 -1.44241 -0.634997 0
M  V30 7499 C 712.194 -1.50296 -1.42193 0
M  V30 7500 C 712.609 -0.12658 -1.88375 0
M  V30 7501 O 711.966 0.86678 -1.60603 0
M  V30 7502 C 712.017 -2.46437 -2.64482 0
M  V30 7503 O 711.738 -3.78724 -2.20226 0
M  V30 7504 C 713.239 -2.61918 -3.57651 0
M  V30 7505 H 710.459 -0.509865 -0.43621 0
M  V30 7506 H 713.003 -1.89167 -0.776921 0
M  V30 7507 H 711.158 -2.10712 -3.25083 0
M  V30 7508 H 711.572 -4.30595 -2.9948 0
M  V30 7509 H 713.046 -3.33225 -4.40074 0
M  V30 7510 H 713.523 -1.67017 -4.06204 0
M  V30 7511 H 714.129 -2.98528 -3.02921 0
M  V30 7512 N 712.444 0.87505 -1.31075 0
M  V30 7513 C 713.669 1.66583 -1.23551 0
M  V30 7514 C 714.094 1.87067 0.19686 0
M  V30 7515 O 713.452 1.40877 1.1412 0
M  V30 7516 C 713.5 3.01401 -1.97965 0
M  V30 7517 O 712.604 3.90923 -1.31351 0
M  V30 7518 H 711.945 0.508645 -0.426821 0
M  V30 7519 H 714.475 1.09139 -1.7306 0
M  V30 7520 H 714.485 3.51374 -2.07366 0
M  V30 7521 H 713.16 2.85812 -3.02133 0
M  V30 7522 H 711.737 3.49369 -1.30368 0
M  V30 7523 N 713.922 1.13953 1.08869 0
M  V30 7524 C 715.199 0.815768 1.77777 0
M  V30 7525 C 715.579 -0.691624 1.99449 0
M  V30 7526 O 714.927 -1.63085 1.60049 0
M  V30 7527 C 715.137 1.60916 3.09689 0
M  V30 7528 C 716.485 1.80549 3.84301 0
M  V30 7529 O 717.509 1.57562 3.19457 0
M  V30 7530 O 716.368 2.18946 5.00724 0
M  V30 7531 H 713.462 0.298445 0.771271 0
M  V30 7532 H 716.008 1.24446 1.15374 0
M  V30 7533 H 714.78 2.6333 2.89435 0
M  V30 7534 H 714.403 1.17578 3.79817 0
M  V30 7535 N 715.4 -1.26948 0.933913 0
M  V30 7536 C 716.332 -2.25768 0.395137 0
M  V30 7537 C 717.345 -1.55637 -0.477585 0
M  V30 7538 O 718.534 -1.76142 -0.289204 0
M  V30 7539 C 715.634 -3.35874 -0.451882 0
M  V30 7540 C 714.807 -4.3554 0.40299 0
M  V30 7541 C 713.866 -5.24809 -0.3824 0
M  V30 7542 O 712.892 -5.68805 0.212057 0
M  V30 7543 N 714.094 -5.55636 -1.68072 0
M  V30 7544 H 716.859 -2.72634 1.24463 0
M  V30 7545 H 714.42 -1.40639 0.802008 0
M  V30 7546 H 716.412 -3.92542 -0.984516 0
M  V30 7547 H 714.982 -2.8856 -1.20215 0
M  V30 7548 H 714.202 -3.78047 1.11688 0
M  V30 7549 H 715.49 -4.99131 0.987201 0
M  V30 7550 H 714.888 -5.2176 -2.18592 0
M  V30 7551 H 713.445 -6.14978 -2.15975 0
M  V30 7552 N 716.879 -0.700114 -1.41195 0
M  V30 7553 C 717.826 -0.0376652 -2.30769 0
M  V30 7554 C 718.796 0.766544 -1.47354 0
M  V30 7555 O 719.981 0.73365 -1.76131 0
M  V30 7556 C 717.121 0.889452 -3.33441 0
M  V30 7557 C 716.234 0.076373 -4.31932 0
M  V30 7558 C 715.369 1.00155 -5.21673 0
M  V30 7559 C 714.408 0.181644 -6.1183 0
M  V30 7560 N 713.545 1.06087 -6.94039 0
M  V30 7561 H 718.385 -0.80726 -2.86858 0
M  V30 7562 H 715.922 -0.409798 -1.41277 0
M  V30 7563 H 717.88 1.44107 -3.91522 0
M  V30 7564 H 716.51 1.6254 -2.78892 0
M  V30 7565 H 715.562 -0.592223 -3.75762 0
M  V30 7566 H 716.874 -0.559076 -4.95657 0
M  V30 7567 H 716.028 1.62223 -5.8461 0
M  V30 7568 H 714.767 1.67085 -4.58186 0
M  V30 7569 H 713.772 -0.452085 -5.47938 0
M  V30 7570 H 714.997 -0.483925 -6.77374 0
M  V30 7571 H 712.943 1.7161 -6.33156 0
M  V30 7572 H 712.86 0.481094 -7.54468 0
M  V30 7573 H 714.128 1.66822 -7.6144 0
M  V30 7574 N 718.357 1.51182 -0.445186 0
M  V30 7575 C 719.605 2.01753 0.11841 0
M  V30 7576 C 719.926 1.33087 1.42523 0
M  V30 7577 O 719.196 0.467891 1.9023 0
M  V30 7578 H 717.776 0.745536 0.0467492 0
M  V30 7579 H 720.438 1.85765 -0.589688 0
M  V30 7580 H 719.534 3.10762 0.288665 0
M  V30 7581 N 719.835 0.176821 1.56605 0
M  V30 7582 C 721.082 -0.466715 1.97048 0
M  V30 7583 C 721.41 -1.6288 1.06302 0
M  V30 7584 O 720.665 -1.95453 0.0982571 0
M  V30 7585 C 720.964 -0.986208 3.43524 0
M  V30 7586 C 720.63 0.0605667 4.50859 0
M  V30 7587 C 719.292 0.348242 4.79938 0
M  V30 7588 C 721.644 0.770794 5.15469 0
M  V30 7589 C 718.972 1.35144 5.70923 0
M  V30 7590 C 721.324 1.76301 6.07537 0
M  V30 7591 C 719.988 2.05808 6.3498 0
M  V30 7592 H 719.258 -0.170783 0.721051 0
M  V30 7593 H 721.905 0.269942 1.89588 0
M  V30 7594 H 720.21 -1.80079 3.47964 0
M  V30 7595 H 721.907 -1.49323 3.72161 0
M  V30 7596 H 718.497 -0.173823 4.28247 0
M  V30 7597 H 722.681 0.56176 4.9311 0
M  V30 7598 H 717.937 1.58616 5.90467 0
M  V30 7599 H 722.111 2.31868 6.56666 0
M  V30 7600 H 719.738 2.8369 7.05283 0
M  V30 7601 N 721.313 -1.57302 -0.09688 0
M  V30 7602 C 722.729 -1.53094 -0.451041 0
M  V30 7603 C 722.929 -0.893265 -1.80618 0
M  V30 7604 O 721.985 -0.485013 -2.47798 0
M  V30 7605 C 723.298 -2.9782 -0.415172 0
M  V30 7606 C 724.846 -3.09026 -0.497155 0
M  V30 7607 C 725.321 -4.55356 -0.491452 0
M  V30 7608 N 726.812 -4.59896 -0.552258 0
M  V30 7609 C 727.547 -5.70563 -0.569654 0
M  V30 7610 N 727.043 -6.90666 -0.543365 0
M  V30 7611 N 728.836 -5.58733 -0.614331 0
M  V30 7612 H 720.987 -1.97131 0.790771 0
M  V30 7613 H 723.25 -0.901211 0.294147 0
M  V30 7614 H 722.956 -3.47933 0.513362 0
M  V30 7615 H 722.83 -3.56416 -1.23481 0
M  V30 7616 H 725.217 -2.58902 -1.41611 0
M  V30 7617 H 725.298 -2.53386 0.35059 0
M  V30 7618 H 724.942 -5.06131 0.423549 0
M  V30 7619 H 724.872 -5.08832 -1.35639 0
M  V30 7620 H 727.363 -3.73456 -0.577842 0
M  V30 7621 H 727.676 -7.70769 -0.559873 0
M  V30 7622 H 726.021 -6.93123 -0.510441 0
M  V30 7623 H 729.212 -4.63809 -0.632387 0
M  V30 7624 H 729.385 -6.44984 -0.62442 0
M  V30 7625 N 722.791 0.367657 -1.53252 0
M  V30 7626 C 723.721 1.45632 -1.8252 0
M  V30 7627 C 724.702 1.55979 -0.678568 0
M  V30 7628 O 725.887 1.70581 -0.928217 0
M  V30 7629 C 723.017 2.82994 -2.01325 0
M  V30 7630 C 721.971 2.87473 -3.17086 0
M  V30 7631 C 721.297 4.2749 -3.21179 0
M  V30 7632 C 722.597 2.55182 -4.55719 0
M  V30 7633 H 724.291 1.21387 -2.73689 0
M  V30 7634 H 721.837 0.58251 -1.31692 0
M  V30 7635 H 723.79 3.59179 -2.20383 0
M  V30 7636 H 722.514 3.08622 -1.06864 0
M  V30 7637 H 721.173 2.13739 -2.97844 0
M  V30 7638 H 720.821 4.5019 -2.24361 0
M  V30 7639 H 720.521 4.31403 -3.98955 0
M  V30 7640 H 722.045 5.0555 -3.42419 0
M  V30 7641 H 723.459 3.21081 -4.74953 0
M  V30 7642 H 721.856 2.70414 -5.3572 0
M  V30 7643 H 722.926 1.5044 -4.60973 0
M  V30 7644 N 724.269 1.44576 0.627338 0
M  V30 7645 C 725.199 1.54562 1.75022 0
M  V30 7646 C 726.18 0.398378 1.65369 0
M  V30 7647 O 727.365 0.61899 1.84071 0
M  V30 7648 C 724.495 1.49309 3.13567 0
M  V30 7649 C 723.449 2.62549 3.38012 0
M  V30 7650 C 722.775 2.42348 4.76625 0
M  V30 7651 C 724.075 4.04678 3.30202 0
M  V30 7652 H 725.769 2.4855 1.66922 0
M  V30 7653 H 723.315 1.19624 0.801636 0
M  V30 7654 H 725.268 1.54895 3.919 0
M  V30 7655 H 723.992 0.518392 3.2246 0
M  V30 7656 H 722.651 2.56358 2.62061 0
M  V30 7657 H 722.299 1.43062 4.82226 0
M  V30 7658 H 721.999 3.18273 4.93939 0
M  V30 7659 H 723.523 2.49758 5.57183 0
M  V30 7660 H 724.937 4.12217 3.98435 0
M  V30 7661 H 723.334 4.80836 3.5905 0
M  V30 7662 H 724.404 4.2798 2.27949 0
M  V30 7663 N 725.747 -0.868086 1.31537 0
M  V30 7664 C 726.677 -1.99131 1.21939 0
M  V30 7665 C 727.658 -1.69768 0.106166 0
M  V30 7666 O 728.843 -1.92006 0.291081 0
M  V30 7667 C 725.973 -3.34676 0.927879 0
M  V30 7668 C 724.927 -3.7835 2.00088 0
M  V30 7669 C 724.253 -5.11375 1.56203 0
M  V30 7670 C 725.553 -3.95256 3.41424 0
M  V30 7671 H 727.247 -2.07419 2.15911 0
M  V30 7672 H 724.793 -0.996569 1.03945 0
M  V30 7673 H 726.746 -4.12793 0.847327 0
M  V30 7674 H 725.47 -3.26565 -0.0475042 0
M  V30 7675 H 724.129 -3.02474 2.07135 0
M  V30 7676 H 723.777 -4.99709 0.57445 0
M  V30 7677 H 723.477 -5.41568 2.27985 0
M  V30 7678 H 725.001 -5.92001 1.49558 0
M  V30 7679 H 726.415 -4.63764 3.3704 0
M  V30 7680 H 724.812 -4.36849 4.1144 0
M  V30 7681 H 725.882 -2.98579 3.82072 0
M  V30 7682 N 727.225 -1.14528 -1.08264 0
M  V30 7683 C 728.188 -0.83632 -2.13397 0
M  V30 7684 C 729.188 0.159715 -1.60005 0
M  V30 7685 O 730.378 -0.0688098 -1.74064 0
M  V30 7686 C 727.51 -0.246973 -3.40004 0
M  V30 7687 H 728.703 -1.76808 -2.42237 0
M  V30 7688 H 726.256 -0.951509 -1.24 0
M  V30 7689 H 726.991 0.693436 -3.168 0
M  V30 7690 H 726.776 -0.964412 -3.80055 0
M  V30 7691 H 728.266 -0.0480679 -4.17572 0
M  V30 7692 N 728.703 1.26451 -0.940633 0
M  V30 7693 C 729.928 1.98407 -0.60412 0
M  V30 7694 C 730.353 1.69584 0.81382 0
M  V30 7695 O 729.711 0.943553 1.54812 0
M  V30 7696 C 729.759 3.50387 -0.852136 0
M  V30 7697 O 728.863 4.1233 0.076013 0
M  V30 7698 H 728.204 0.622466 -0.231153 0
M  V30 7699 H 730.734 1.60932 -1.26342 0
M  V30 7700 H 730.744 4.00614 -0.772816 0
M  V30 7701 H 729.419 3.70696 -1.88566 0
M  V30 7702 H 727.996 3.7286 -0.0543187 0
M  V30 7703 N 730.181 0.707592 1.40822 0
M  V30 7704 C 731.592 0.317011 1.83989 0
M  V30 7705 C 731.943 -1.14697 1.59182 0
M  V30 7706 O 731.068 -1.8818 1.06852 0
M  V30 7707 C 731.663 0.568593 3.33995 0
M  V30 7708 C 730.222 0.231804 3.75686 0
M  V30 7709 C 729.369 0.844933 2.64114 0
M  V30 7710 H 732.32 0.907349 1.30203 0
M  V30 7711 H 732.341 -0.168798 3.80125 0
M  V30 7712 H 731.853 1.63417 3.52018 0
M  V30 7713 H 729.954 -0.82903 3.6326 0
M  V30 7714 H 730.067 0.695219 4.74029 0
M  V30 7715 H 728.431 0.273588 2.53226 0
M  V30 7716 H 729.214 1.91462 2.84951 0
M  V30 7717 N 731.66 -1.50943 0.453197 0
M  V30 7718 C 732.885 -2.07116 -0.108463 0
M  V30 7719 C 733.31 -1.31681 -1.3432 0
M  V30 7720 O 732.668 -0.359256 -1.77705 0
M  V30 7721 C 732.716 -3.58447 -0.393424 0
M  V30 7722 O 731.82 -3.85038 -1.47714 0
M  V30 7723 H 731.161 -0.66398 0.0050993 0
M  V30 7724 H 733.691 -1.94362 0.639095 0
M  V30 7725 H 733.701 -4.02961 -0.639222 0
M  V30 7726 H 732.376 -4.12774 0.508946 0
M  V30 7727 H 730.953 -3.52376 -1.22006 0
M  V30 7728 N 733.138 -0.185124 -1.56509 0
M  V30 7729 C 734.101 0.72591 -2.17401 0
M  V30 7730 C 735.101 1.14819 -1.12575 0
M  V30 7731 O 736.291 1.0629 -1.38015 0
M  V30 7732 C 733.423 1.98979 -2.76803 0
M  V30 7733 H 734.616 0.195588 -2.99262 0
M  V30 7734 H 732.169 0.0644772 -1.56167 0
M  V30 7735 H 732.904 2.56287 -1.98714 0
M  V30 7736 H 732.689 1.69583 -3.53531 0
M  V30 7737 H 734.179 2.63966 -3.23592 0
M  V30 7738 N 734.616 1.57351 0.0885366 0
M  V30 7739 C 735.856 1.88248 0.796362 0
M  V30 7740 C 736.22 0.776915 1.75579 0
M  V30 7741 O 737.421 0.968485 2.50747 0
M  V30 7742 C 735.692 3.24385 1.50031 0
M  V30 7743 S 737.251 3.76991 2.24551 0
M  V30 7744 H 734.069 0.659697 0.265181 0
M  V30 7745 H 736.671 1.95428 0.0531843 0
M  V30 7746 H 735.375 4.02764 0.788 0
M  V30 7747 H 734.906 3.20361 2.28325 0
M  V30 7748 H 736.921 3.50933 3.508 0
M  V30 7749 N 736.094 -0.359525 1.53444 0
M  V30 7750 C 737.024 -1.44662 1.8329 0
M  V30 7751 C 738.005 -1.55617 0.68683 0
M  V30 7752 O 739.19 -1.70086 0.93725 0
M  V30 7753 C 736.32 -2.81923 2.02822 0
M  V30 7754 C 735.274 -2.85787 3.18606 0
M  V30 7755 C 734.6 -4.25781 3.23442 0
M  V30 7756 C 735.9 -2.52762 4.57065 0
M  V30 7757 H 737.594 -1.19934 2.74329 0
M  V30 7758 H 735.14 -0.575517 1.31999 0
M  V30 7759 H 737.093 -3.58005 2.22285 0
M  V30 7760 H 735.817 -3.08051 1.085 0
M  V30 7761 H 734.476 -2.12157 2.98973 0
M  V30 7762 H 734.124 -4.48994 2.26745 0
M  V30 7763 H 733.824 -4.29281 4.01238 0
M  V30 7764 H 735.348 -5.03727 3.45096 0
M  V30 7765 H 736.762 -3.18557 4.76649 0
M  V30 7766 H 735.159 -2.67569 5.37147 0
M  V30 7767 H 736.229 -1.47993 4.61764 0
M  V30 7768 N 737.572 -1.44907 -0.619662 0
M  V30 7769 C 738.519 -1.52654 -1.73105 0
M  V30 7770 C 739.489 -0.373334 -1.6185 0
M  V30 7771 O 740.674 -0.585143 -1.81606 0
M  V30 7772 C 737.814 -1.48769 -3.11387 0
M  V30 7773 C 736.927 -2.74551 -3.33535 0
M  V30 7774 C 736.062 -2.62421 -4.61854 0
M  V30 7775 C 735.101 -3.83312 -4.77219 0
M  V30 7776 N 734.238 -3.69789 -5.96826 0
M  V30 7777 H 739.078 -2.47605 -1.65819 0
M  V30 7778 H 736.615 -1.22875 -0.808719 0
M  V30 7779 H 738.573 -1.44507 -3.91374 0
M  V30 7780 H 737.203 -0.573783 -3.1766 0
M  V30 7781 H 736.255 -2.88953 -2.47408 0
M  V30 7782 H 737.567 -3.64253 -3.40765 0
M  V30 7783 H 736.721 -2.56056 -5.50019 0
M  V30 7784 H 735.46 -1.70298 -4.57001 0
M  V30 7785 H 734.465 -3.90049 -3.87481 0
M  V30 7786 H 735.69 -4.76486 -4.83878 0
M  V30 7787 H 733.636 -2.80426 -5.93041 0
M  V30 7788 H 733.553 -4.53116 -6.05163 0
M  V30 7789 H 734.821 -3.67335 -6.87521 0
M  V30 7790 N 739.05 0.861098 -1.31996 0
M  V30 7791 C 739.98 1.98482 -1.22993 0
M  V30 7792 C 740.961 1.6971 -0.115168 0
M  V30 7793 O 742.146 1.91849 -0.30126 0
M  V30 7794 C 739.276 3.34179 -0.945615 0
M  V30 7795 C 738.23 3.77284 -2.02091 0
M  V30 7796 C 737.556 5.1054 -1.58912 0
M  V30 7797 C 738.856 3.93439 -3.43515 0
M  V30 7798 H 740.55 2.06271 -2.17008 0
M  V30 7799 H 738.096 0.991043 -1.04472 0
M  V30 7800 H 740.049 4.12338 -0.869206 0
M  V30 7801 H 738.773 3.26586 0.0301849 0
M  V30 7802 H 737.432 3.01371 -2.08737 0
M  V30 7803 H 737.08 4.99397 -0.600942 0
M  V30 7804 H 736.78 5.40352 -2.30854 0
M  V30 7805 H 738.304 5.91199 -1.52696 0
M  V30 7806 H 739.718 4.6197 -3.39495 0
M  V30 7807 H 738.115 4.34661 -4.13751 0
M  V30 7808 H 739.185 2.96548 -3.8365 0
M  V30 7809 N 740.528 1.15101 1.07655 0
M  V30 7810 C 741.775 0.923974 1.80191 0
M  V30 7811 C 742.103 -0.549065 1.86589 0
M  V30 7812 O 741.358 -1.42307 1.3434 0
M  V30 7813 C 741.657 1.47954 3.25337 0
M  V30 7814 C 741.323 2.97253 3.39044 0
M  V30 7815 C 739.985 3.38012 3.42493 0
M  V30 7816 C 742.337 3.93219 3.42094 0
M  V30 7817 C 739.665 4.73384 3.4659 0
M  V30 7818 C 742.017 5.28458 3.47728 0
M  V30 7819 C 740.681 5.68717 3.49453 0
M  V30 7820 H 739.951 0.338106 0.659367 0
M  V30 7821 H 742.598 1.43594 1.26701 0
M  V30 7822 H 740.903 0.888691 3.81588 0
M  V30 7823 H 742.6 1.27972 3.80032 0
M  V30 7824 H 739.19 2.64746 3.37057 0
M  V30 7825 H 743.374 3.62805 3.38654 0
M  V30 7826 H 738.63 5.03925 3.46222 0
M  V30 7827 H 742.804 6.02618 3.49034 0
M  V30 7828 H 740.431 6.73596 3.5238 0
M  V30 7829 N 742.006 -1.2595 0.947325 0
M  V30 7830 C 742.938 -2.25336 0.41906 0
M  V30 7831 C 743.951 -1.56135 -0.461051 0
M  V30 7832 O 745.14 -1.76438 -0.270505 0
M  V30 7833 C 742.24 -3.36334 -0.416233 0
M  V30 7834 C 741.413 -4.35088 0.449162 0
M  V30 7835 C 740.472 -5.25185 -0.326716 0
M  V30 7836 O 739.498 -5.68548 0.272374 0
M  V30 7837 N 740.7 -5.57388 -1.6217 0
M  V30 7838 H 743.465 -2.71298 1.27348 0
M  V30 7839 H 741.026 -1.39781 0.81688 0
M  V30 7840 H 743.018 -3.93564 -0.942826 0
M  V30 7841 H 741.588 -2.89819 -1.17148 0
M  V30 7842 H 740.808 -3.76841 1.15692 0
M  V30 7843 H 742.096 -4.98056 1.04008 0
M  V30 7844 H 741.494 -5.2405 -2.13046 0
M  V30 7845 H 740.051 -6.17234 -2.0944 0
M  V30 7846 N 743.484 -0.715051 -1.40445 0
M  V30 7847 C 744.394 -0.0631624 -2.34515 0
M  V30 7848 C 745.41 0.744397 -1.57273 0
M  V30 7849 O 746.586 0.677475 -1.89663 0
M  V30 7850 C 743.651 0.847915 -3.36172 0
M  V30 7851 C 742.712 0.0303655 -4.29289 0
M  V30 7852 C 741.945 0.898051 -5.2609 0
M  V30 7853 O 742.168 2.13729 -5.28844 0
M  V30 7854 O 741.102 0.337328 -6.00954 0
M  V30 7855 H 744.928 -0.839078 -2.91879 0
M  V30 7856 H 742.513 -0.475527 -1.4163 0
M  V30 7857 H 744.395 1.3698 -3.98515 0
M  V30 7858 H 743.07 1.60299 -2.81222 0
M  V30 7859 H 741.977 -0.536573 -3.70232 0
M  V30 7860 H 743.31 -0.686474 -4.87389 0
M  V30 7861 N 744.962 1.50701 -0.461195 0
M  V30 7862 C 745.909 2.2831 0.338094 0
M  V30 7863 C 746.879 1.32928 0.995957 0
M  V30 7864 O 748.064 1.61857 1.0103 0
M  V30 7865 C 745.204 3.14539 1.41983 0
M  V30 7866 C 744.317 4.24942 0.77773 0
M  V30 7867 C 743.452 4.98443 1.83652 0
M  V30 7868 C 742.491 6.00733 1.17413 0
M  V30 7869 N 741.628 6.6755 2.17533 0
M  V30 7870 H 746.468 2.96167 -0.330051 0
M  V30 7871 H 744.005 1.4606 -0.174611 0
M  V30 7872 H 745.963 3.62877 2.05855 0
M  V30 7873 H 744.593 2.48749 2.05727 0
M  V30 7874 H 743.645 3.80391 0.0266924 0
M  V30 7875 H 744.957 4.98151 0.254362 0
M  V30 7876 H 744.111 5.50449 2.55129 0
M  V30 7877 H 742.85 4.24917 2.39367 0
M  V30 7878 H 741.855 5.47997 0.444944 0
M  V30 7879 H 743.08 6.76227 0.624006 0
M  V30 7880 H 741.026 5.96823 2.72284 0
M  V30 7881 H 740.943 7.36603 1.70154 0
M  V30 7882 H 742.211 7.24178 2.88421 0
M  V30 7883 N 746.441 0.193421 1.56409 0
M  V30 7884 C 747.388 -0.728124 2.19014 0
M  V30 7885 C 748.358 -1.21098 1.13686 0
M  V30 7886 O 749.543 -1.27517 1.4193 0
M  V30 7887 C 746.683 -1.94277 2.8522 0
M  V30 7888 C 745.796 -1.50143 4.05069 0
M  V30 7889 C 744.931 -2.67145 4.59137 0
M  V30 7890 C 743.97 -2.19609 5.71348 0
M  V30 7891 N 743.107 -3.29782 6.19829 0
M  V30 7892 H 747.947 -0.187499 2.9741 0
M  V30 7893 H 745.484 -0.0808064 1.46878 0
M  V30 7894 H 747.442 -2.65551 3.21774 0
M  V30 7895 H 746.072 -2.45673 2.09391 0
M  V30 7896 H 745.124 -0.684624 3.74189 0
M  V30 7897 H 746.436 -1.11266 4.86232 0
M  V30 7898 H 745.59 -3.46544 4.97988 0
M  V30 7899 H 744.329 -3.09295 3.77078 0
M  V30 7900 H 743.334 -1.38664 5.32027 0
M  V30 7901 H 744.559 -1.78492 6.55223 0
M  V30 7902 H 742.505 -3.71466 5.40693 0
M  V30 7903 H 742.422 -2.95069 6.96039 0
M  V30 7904 H 743.69 -4.094 6.63334 0
M  V30 7905 N 747.919 -1.57396 -0.0801906 0
M  V30 7906 C 748.829 -2.06451 -1.11423 0
M  V30 7907 C 749.845 -0.992352 -1.42928 0
M  V30 7908 O 751.021 -1.30651 -1.53272 0
M  V30 7909 C 748.086 -2.49164 -2.41077 0
M  V30 7910 C 747.147 -3.70641 -2.16619 0
M  V30 7911 C 746.38 -4.11307 -3.40092 0
M  V30 7912 O 746.603 -3.51922 -4.48895 0
M  V30 7913 O 745.537 -5.04157 -3.288 0
M  V30 7914 H 749.363 -2.94857 -0.727519 0
M  V30 7915 H 746.948 -1.46484 -0.293743 0
M  V30 7916 H 748.83 -2.77196 -3.17396 0
M  V30 7917 H 747.505 -1.6389 -2.79145 0
M  V30 7918 H 746.412 -3.47703 -1.38033 0
M  V30 7919 H 747.745 -4.5674 -1.83437 0
M  V30 7920 N 749.397 0.351382 -1.53633 0
M  V30 7921 C 750.307 1.45471 -1.84052 0
M  V30 7922 C 751.323 1.57945 -0.730015 0
M  V30 7923 O 752.499 1.73571 -1.02153 0
M  V30 7924 C 749.564 2.80562 -2.03681 0
M  V30 7925 C 748.625 2.77497 -3.27558 0
M  V30 7926 C 747.858 4.06144 -3.46241 0
M  V30 7927 O 748.081 5.03028 -2.68922 0
M  V30 7928 O 747.015 4.11092 -4.39645 0
M  V30 7929 H 750.841 1.22684 -2.77817 0
M  V30 7930 H 748.426 0.542827 -1.3919 0
M  V30 7931 H 750.308 3.6058 -2.18082 0
M  V30 7932 H 748.983 3.03296 -1.13106 0
M  V30 7933 H 747.89 1.96126 -3.18568 0
M  V30 7934 H 749.223 2.59716 -4.18101 0
M  V30 7935 N 750.875 1.45233 0.611969 0
M  V30 7936 C 752.123 1.48727 1.36838 0
M  V30 7937 C 752.444 0.128616 1.94575 0
M  V30 7938 O 751.714 -0.84149 1.76906 0
M  V30 7939 H 750.294 0.547695 0.507976 0
M  V30 7940 H 752.956 1.81156 0.718925 0
M  V30 7941 H 752.052 2.2236 2.19003 0
M  V30 7942 N 752.353 -0.854086 1.3245 0
M  V30 7943 C 753.583 -1.63836 1.25862 0
M  V30 7944 C 753.991 -1.88383 -0.175588 0
M  V30 7945 O 753.334 -1.45353 -1.1233 0
M  V30 7946 C 753.396 -3.02068 1.94923 0
M  V30 7947 C 753.06 -3.0056 3.44257 0
M  V30 7948 C 754.057 -2.77368 4.39731 0
M  V30 7949 C 751.742 -3.21177 3.862 0
M  V30 7950 C 753.736 -2.74797 5.75122 0
M  V30 7951 C 751.423 -3.18234 5.217 0
M  V30 7952 C 752.421 -2.95072 6.15972 0
M  V30 7953 O 752.109 -2.92003 7.48992 0
M  V30 7954 H 751.841 -0.517007 0.435523 0
M  V30 7955 H 754.395 -1.07314 1.75137 0
M  V30 7956 H 752.625 -3.60382 1.40219 0
M  V30 7957 H 754.314 -3.62791 1.82037 0
M  V30 7958 H 755.08 -2.61205 4.08653 0
M  V30 7959 H 750.959 -3.38231 3.13243 0
M  V30 7960 H 754.503 -2.56638 6.48678 0
M  V30 7961 H 750.4 -3.33941 5.52407 0
M  V30 7962 H 751.168 -3.07953 7.58358 0
M  V30 7963 N 753.831 -1.1567 -1.07043 0
M  V30 7964 C 755.079 -0.931673 -1.79344 0
M  V30 7965 C 755.4 0.542421 -1.87304 0
M  V30 7966 O 754.67 1.39418 -1.37621 0
M  V30 7967 H 753.25 -0.34171 -0.664262 0
M  V30 7968 H 755.912 -1.45795 -1.29344 0
M  V30 7969 H 755.008 -1.34379 -2.81689 0
M  V30 7970 N 755.309 1.25446 -0.953992 0
M  V30 7971 C 756.219 2.29632 -0.480264 0
M  V30 7972 C 757.235 1.68025 0.452071 0
M  V30 7973 O 758.411 1.98703 0.328472 0
M  V30 7974 C 755.476 3.45903 0.234974 0
M  V30 7975 C 754.537 4.22953 -0.735495 0
M  V30 7976 C 753.77 5.33672 -0.0542957 0
M  V30 7977 O 753.993 5.58477 1.16018 0
M  V30 7978 O 752.927 5.9734 -0.739509 0
M  V30 7979 H 756.753 2.72242 -1.34602 0
M  V30 7980 H 754.338 1.30883 -0.720419 0
M  V30 7981 H 756.22 4.16552 0.637341 0
M  V30 7982 H 754.895 3.05296 1.07592 0
M  V30 7983 H 753.802 3.54734 -1.18806 0
M  V30 7984 H 755.135 4.67341 -1.54444 0
M  V30 7985 N 756.787 0.722489 1.40064 0
M  V30 7986 C 757.75 0.0830209 2.2905 0
M  V30 7987 C 758.75 -0.680208 1.45705 0
M  V30 7988 O 759.94 -0.511084 1.66534 0
M  V30 7989 C 757.072 -0.892092 3.29021 0
M  V30 7990 H 758.265 0.866848 2.87099 0
M  V30 7991 H 755.818 0.487556 1.48501 0
M  V30 7992 H 756.553 -1.70273 2.76003 0
M  V30 7993 H 756.338 -0.34761 3.90556 0
M  V30 7994 H 757.828 -1.33648 3.95636 0
M  V30 7995 N 758.265 -1.50454 0.469181 0
M  V30 7996 C 759.228 -2.2703 -0.314643 0
M  V30 7997 C 760.228 -1.31734 -0.922111 0
M  V30 7998 O 761.418 -1.55176 -0.791588 0
M  V30 7999 C 758.55 -3.08616 -1.44806 0
M  V30 8000 H 759.743 -2.97769 0.356892 0
M  V30 8001 H 757.296 -1.54698 0.223191 0
M  V30 8002 H 758.031 -2.42369 -2.1547 0
M  V30 8003 H 757.816 -3.78647 -1.01829 0
M  V30 8004 H 759.306 -3.66536 -2.00103 0
M  V30 8005 N 759.743 -0.201713 -1.56304 0
M  V30 8006 C 760.675 0.748466 -2.16635 0
M  V30 8007 C 761.688 1.172 -1.12996 0
M  V30 8008 O 762.877 1.10658 -1.40061 0
M  V30 8009 C 759.977 2.02296 -2.719 0
M  V30 8010 C 759.15 1.75818 -4.00508 0
M  V30 8011 C 758.209 2.87779 -4.40533 0
M  V30 8012 O 757.235 2.57101 -5.07826 0
M  V30 8013 N 758.437 4.16287 -4.04581 0
M  V30 8014 H 761.202 0.232505 -2.98797 0
M  V30 8015 H 758.763 -0.0199822 -1.61888 0
M  V30 8016 H 760.755 2.7635 -2.95657 0
M  V30 8017 H 759.325 2.44996 -1.94154 0
M  V30 8018 H 758.545 0.855095 -3.84814 0
M  V30 8019 H 759.833 1.55532 -4.84445 0
M  V30 8020 H 759.231 4.44061 -3.50466 0
M  V30 8021 H 757.788 4.86946 -4.33274 0
M  V30 8022 N 761.222 1.57436 0.0718424 0
M  V30 8023 C 762.469 1.87248 0.771007 0
M  V30 8024 C 762.797 0.793441 1.7758 0
M  V30 8025 O 762.052 -0.210565 1.94564 0
M  V30 8026 C 762.351 3.23723 1.51455 0
M  V30 8027 C 762.017 4.46194 0.649736 0
M  V30 8028 C 760.679 4.79438 0.411409 0
M  V30 8029 C 763.031 5.21176 0.05004 0
M  V30 8030 C 760.359 5.85077 -0.436096 0
M  V30 8031 C 762.711 6.27712 -0.784919 0
M  V30 8032 C 761.375 6.59457 -1.03312 0
M  V30 8033 H 760.645 0.685188 0.282132 0
M  V30 8034 H 763.292 1.91474 0.0317896 0
M  V30 8035 H 761.597 3.15287 2.32597 0
M  V30 8036 H 763.294 3.44023 2.06031 0
M  V30 8037 H 759.884 4.20175 0.84562 0
M  V30 8038 H 764.068 4.95806 0.221282 0
M  V30 8039 H 759.324 6.08071 -0.637136 0
M  V30 8040 H 763.498 6.84974 -1.25635 0
M  V30 8041 H 761.125 7.4114 -1.6916 0
M  V30 8042 N 762.7 -0.34323 1.53817 0
M  V30 8043 C 763.977 -1.10047 1.61706 0
M  V30 8044 C 764.357 -2.06495 0.438514 0
M  V30 8045 O 763.705 -2.21297 -0.569188 0
M  V30 8046 C 763.915 -1.81985 2.97796 0
M  V30 8047 C 765.263 -2.35717 3.53161 0
M  V30 8048 O 766.287 -1.9208 2.99973 0
M  V30 8049 O 765.146 -3.15551 4.46195 0
M  V30 8050 H 762.24 -0.506096 0.654061 0
M  V30 8051 H 764.786 -0.344697 1.66162 0
M  V30 8052 H 763.558 -1.11722 3.75012 0
M  V30 8053 H 763.181 -2.64419 2.96931 0
M  V30 8054 N 764.178 -1.45556 -0.604258 0
M  V30 8055 C 765.426 -1.4945 -1.36048 0
M  V30 8056 C 765.747 -0.138933 -1.94504 0
M  V30 8057 O 765.017 0.832097 -1.7735 0
M  V30 8058 H 763.597 -0.550381 -0.505064 0
M  V30 8059 H 766.259 -1.81535 -0.709308 0
M  V30 8060 H 765.355 -2.23519 -2.17821 0
M  V30 8061 N 765.656 0.84705 -1.32902 0
M  V30 8062 C 766.586 1.97166 -1.25091 0
M  V30 8063 C 767.567 1.69578 -0.133161 0
M  V30 8064 O 768.752 1.91519 -0.321591 0
M  V30 8065 C 765.882 3.33157 -0.981006 0
M  V30 8066 C 764.836 3.75119 -2.06082 0
M  V30 8067 C 764.162 5.08826 -1.64318 0
M  V30 8068 C 765.462 3.89774 -3.47669 0
M  V30 8069 H 767.156 2.03958 -2.19184 0
M  V30 8070 H 764.702 0.979907 -1.05517 0
M  V30 8071 H 766.655 4.11393 -0.912891 0
M  V30 8072 H 765.379 3.266 -0.00445559 0
M  V30 8073 H 764.038 2.9914 -2.11921 0
M  V30 8074 H 763.686 4.98732 -0.653876 0
M  V30 8075 H 763.386 5.37873 -2.36572 0
M  V30 8076 H 764.91 5.89546 -1.58958 0
M  V30 8077 H 766.324 4.58343 -3.44376 0
M  V30 8078 H 764.721 4.30248 -4.18338 0
M  V30 8079 H 765.791 2.92463 -3.86773 0
M  V30 8080 N 767.134 1.16236 1.06428 0
M  V30 8081 C 768.081 0.86769 2.13869 0
M  V30 8082 C 769.051 -0.183298 1.65086 0
M  V30 8083 O 770.236 -0.0488002 1.90738 0
M  V30 8084 C 767.376 0.373427 3.43074 0
M  V30 8085 C 766.489 1.48708 4.05598 0
M  V30 8086 C 765.624 0.947977 5.22673 0
M  V30 8087 C 764.663 2.03793 5.77178 0
M  V30 8088 N 763.8 1.51451 6.85571 0
M  V30 8089 H 768.64 1.78781 2.38414 0
M  V30 8090 H 766.177 0.891892 1.16977 0
M  V30 8091 H 768.135 0.0685035 4.17144 0
M  V30 8092 H 766.765 -0.509752 3.1875 0
M  V30 8093 H 765.817 1.908 3.29089 0
M  V30 8094 H 767.129 2.30964 4.42105 0
M  V30 8095 H 766.283 0.596154 6.03764 0
M  V30 8096 H 765.022 0.0947081 4.87608 0
M  V30 8097 H 764.027 2.39847 4.94726 0
M  V30 8098 H 765.252 2.89514 6.14295 0
M  V30 8099 H 763.198 0.683755 6.52427 0
M  V30 8100 H 763.115 2.27325 7.21013 0
M  V30 8101 H 764.383 1.19123 7.70344 0
M  V30 8102 N 768.612 -1.24939 0.960631 0
M  V30 8103 C 769.562 -2.23388 0.456266 0
M  V30 8104 C 770.546 -1.54249 -0.45782 0
M  V30 8105 O 771.738 -1.7461 -0.289894 0
M  V30 8106 C 768.867 -3.42321 -0.259024 0
M  V30 8107 C 767.953 -4.18718 0.673478 0
M  V30 8108 N 768.344 -4.72394 1.8077 0
M  V30 8109 C 766.642 -4.43378 0.482859 0
M  V30 8110 C 767.343 -5.30316 2.3904 0
M  V30 8111 N 766.319 -5.17109 1.67629 0
M  V30 8112 H 770.121 -2.62499 1.32179 0
M  V30 8113 H 767.635 -1.40245 0.818851 0
M  V30 8114 H 769.632 -4.11997 -0.637527 0
M  V30 8115 H 768.292 -3.04732 -1.12108 0
M  V30 8116 H 769.303 -4.69345 2.18942 0
M  V30 8117 H 765.98 -4.16147 -0.335821 0
M  V30 8118 H 767.37 -5.82594 3.34715 0
M  V30 8119 N 770.09 -0.729906 -1.39679 0
M  V30 8120 C 771.022 -0.0470588 -2.29152 0
M  V30 8121 C 772.035 0.708808 -1.4656 0
M  V30 8122 O 773.224 0.553815 -1.69691 0
M  V30 8123 C 770.324 0.957612 -3.25089 0
M  V30 8124 C 769.497 0.264321 -4.36601 0
M  V30 8125 C 768.556 1.17638 -5.12882 0
M  V30 8126 O 767.582 0.655777 -5.6541 0
M  V30 8127 N 768.784 2.50649 -5.23598 0
M  V30 8128 H 771.549 -0.815364 -2.88395 0
M  V30 8129 H 769.11 -0.578707 -1.51204 0
M  V30 8130 H 771.102 1.57026 -3.72995 0
M  V30 8131 H 769.672 1.62716 -2.66912 0
M  V30 8132 H 768.892 -0.528732 -3.90638 0
M  V30 8133 H 770.18 -0.216344 -5.0834 0
M  V30 8134 H 769.578 2.95427 -4.82431 0
M  V30 8135 H 768.135 3.07022 -5.74961 0
M  V30 8136 N 771.568 1.50203 -0.477153 0
M  V30 8137 C 772.531 2.27194 0.302599 0
M  V30 8138 C 773.531 1.32221 0.915112 0
M  V30 8139 O 774.721 1.55593 0.783348 0
M  V30 8140 C 771.853 3.0938 1.43167 0
M  V30 8141 H 773.046 2.97575 -0.372678 0
M  V30 8142 H 770.599 1.54578 -0.231392 0
M  V30 8143 H 771.334 2.43509 2.14182 0
M  V30 8144 H 771.119 3.79181 0.998197 0
M  V30 8145 H 772.609 3.67592 1.98157 0
M  V30 8146 N 773.046 0.209999 1.56195 0
M  V30 8147 C 773.993 -0.704854 2.19774 0
M  V30 8148 C 774.963 -1.19886 1.14964 0
M  V30 8149 O 776.148 -1.26005 1.43274 0
M  V30 8150 C 773.288 -1.91241 2.87265 0
M  V30 8151 C 772.401 -1.45838 4.06639 0
M  V30 8152 C 771.536 -2.6226 4.61945 0
M  V30 8153 C 770.575 -2.13537 5.73645 0
M  V30 8154 N 769.712 -3.2319 6.23292 0
M  V30 8155 H 774.552 -0.155944 2.97592 0
M  V30 8156 H 772.089 -0.0652235 1.46955 0
M  V30 8157 H 774.047 -2.62123 3.24573 0
M  V30 8158 H 772.677 -2.43439 2.11985 0
M  V30 8159 H 771.729 -0.644897 3.74894 0
M  V30 8160 H 773.041 -1.06103 4.87384 0
M  V30 8161 H 772.195 -3.41243 5.01636 0
M  V30 8162 H 770.934 -3.05278 3.80338 0
M  V30 8163 H 769.939 -1.33013 5.33468 0
M  V30 8164 H 771.164 -1.71533 6.57079 0
M  V30 8165 H 769.11 -3.65711 5.44602 0
M  V30 8166 H 769.027 -2.8767 6.99129 0
M  V30 8167 H 770.295 -4.02342 6.67639 0
M  V30 8168 N 774.524 -1.57472 -0.0634922 0
M  V30 8169 C 775.94 -1.54016 -0.418466 0
M  V30 8170 C 776.14 -0.931376 -1.78683 0
M  V30 8171 O 775.196 -0.537465 -2.46714 0
M  V30 8172 C 776.509 -2.98634 -0.351906 0
M  V30 8173 C 778.057 -3.10012 -0.431494 0
M  V30 8174 C 778.532 -4.56296 -0.394754 0
M  V30 8175 N 780.023 -4.60964 -0.454583 0
M  V30 8176 C 780.758 -5.71643 -0.448501 0
M  V30 8177 N 780.254 -6.91663 -0.396742 0
M  V30 8178 N 782.047 -5.5991 -0.495677 0
M  V30 8179 H 774.198 -1.95409 0.832408 0
M  V30 8180 H 776.461 -0.894769 0.313197 0
M  V30 8181 H 776.167 -3.46766 0.587048 0
M  V30 8182 H 776.041 -3.58955 -1.15893 0
M  V30 8183 H 778.428 -2.61848 -1.36087 0
M  V30 8184 H 778.509 -2.52585 0.404258 0
M  V30 8185 H 778.153 -5.05119 0.530811 0
M  V30 8186 H 778.083 -5.11594 -1.24815 0
M  V30 8187 H 780.574 -3.74598 -0.498496 0
M  V30 8188 H 780.887 -7.71783 -0.396256 0
M  V30 8189 H 779.232 -6.9405 -0.363304 0
M  V30 8190 H 782.423 -4.65046 -0.533864 0
M  V30 8191 H 782.596 -6.46164 -0.487469 0
M  V30 8192 N 776.003 0.335068 -1.53997 0
M  V30 8193 C 777.228 1.09859 -1.75914 0
M  V30 8194 C 777.653 1.81308 -0.500915 0
M  V30 8195 O 777.011 1.72854 0.54693 0
M  V30 8196 C 777.059 2.08122 -2.94478 0
M  V30 8197 O 776.163 3.15805 -2.65219 0
M  V30 8198 H 775.504 0.317313 -0.583274 0
M  V30 8199 H 778.034 0.382872 -2.00986 0
M  V30 8200 H 778.044 2.51195 -3.21504 0
M  V30 8201 H 776.719 1.55517 -3.8573 0
M  V30 8202 H 775.296 2.77489 -2.49107 0
M  V30 8203 N 777.481 1.45874 0.596531 0
M  V30 8204 C 778.73 1.49737 1.35135 0
M  V30 8205 C 779.043 0.147755 1.95041 0
M  V30 8206 O 780.249 0.0640984 2.71424 0
M  V30 8207 C 778.705 2.6378 2.44843 0
M  V30 8208 C 778.313 4.05102 1.91301 0
M  V30 8209 C 780.057 2.769 3.21755 0
M  V30 8210 C 777.964 5.10508 2.98557 0
M  V30 8211 H 776.894 0.557219 0.507959 0
M  V30 8212 H 779.545 1.72046 0.638147 0
M  V30 8213 H 777.927 2.34774 3.189 0
M  V30 8214 H 779.101 4.43836 1.2388 0
M  V30 8215 H 777.416 3.96528 1.271 0
M  V30 8216 H 780.013 3.52819 4.01775 0
M  V30 8217 H 780.356 1.83924 3.73467 0
M  V30 8218 H 780.889 3.05485 2.54802 0
M  V30 8219 H 777.628 6.0523 2.51749 0
M  V30 8220 H 777.148 4.76332 3.6451 0
M  V30 8221 H 778.827 5.35745 3.62748 0
M  V30 8222 N 778.959 -0.83999 1.33349 0
M  V30 8223 C 779.907 -1.97113 1.23488 0
M  V30 8224 C 780.901 -1.68849 0.136503 0
M  V30 8225 O 782.107 -1.77476 0.300389 0
M  V30 8226 H 778.482 -0.647049 0.383185 0
M  V30 8227 H 780.453 -2.02554 2.19122 0
M  V30 8228 C 779.202 -3.33314 0.989815 0
M  V30 8229 H 778.525 -3.556 1.82726 0
M  V30 8230 H 779.965 -4.12963 0.961123 0
M  V30 8231 C 778.424 -3.35496 -0.307272 0
M  V30 8232 O 778.954 -3.79589 -1.31434 0
M  V30 8233 N 777.16 -2.88669 -0.334414 0
M  V30 8234 H 776.707 -2.5298 0.485659 0
M  V30 8235 H 776.665 -2.90512 -1.20209 0
M  V30 8236 N 780.437 -1.16799 -1.0581 0
M  V30 8237 C 781.347 -0.893492 -2.16919 0
M  V30 8238 C 782.363 0.136061 -1.73467 0
M  V30 8239 O 783.539 -0.0417348 -2.01357 0
M  V30 8240 C 780.604 -0.403763 -3.44341 0
M  V30 8241 C 779.665 -1.49914 -4.02274 0
M  V30 8242 C 778.898 -1.03269 -5.23614 0
M  V30 8243 O 779.121 0.115647 -5.70283 0
M  V30 8244 O 778.055 -1.8231 -5.73626 0
M  V30 8245 H 781.881 -1.82274 -2.42919 0
M  V30 8246 H 779.466 -0.948361 -1.1544 0
M  V30 8247 H 781.348 -0.137874 -4.21174 0
M  V30 8248 H 780.023 0.497413 -3.19855 0
M  V30 8249 H 778.93 -1.81883 -3.26909 0
M  V30 8250 H 780.263 -2.3758 -4.31064 0
M  V30 8251 N 781.915 1.24427 -0.967243 0
M  V30 8252 C 782.848 2.23885 -0.441683 0
M  V30 8253 C 783.826 1.55231 0.483963 0
M  V30 8254 O 785.01 1.83865 0.415445 0
M  V30 8255 C 782.137 3.36755 0.362458 0
M  V30 8256 C 781.183 4.23495 -0.505407 0
M  V30 8257 S 782.016 4.98916 -1.94534 0
M  V30 8258 C 783.172 6.15245 -1.14997 0
M  V30 8259 H 783.405 2.68118 -1.28453 0
M  V30 8260 H 780.938 1.337 -0.772243 0
M  V30 8261 H 782.896 4.02218 0.820445 0
M  V30 8262 H 781.557 2.91081 1.18027 0
M  V30 8263 H 780.75 5.03876 0.111979 0
M  V30 8264 H 780.352 3.63032 -0.899104 0
M  V30 8265 H 782.644 6.7629 -0.404769 0
M  V30 8266 H 783.587 6.81343 -1.92814 0
M  V30 8267 H 783.995 5.60455 -0.674543 0
M  V30 8268 N 783.393 0.737304 1.3929 0
M  V30 8269 C 784.323 0.113988 2.33222 0
M  V30 8270 C 785.304 -0.721695 1.54031 0
M  V30 8271 O 786.489 -0.666206 1.82415 0
M  V30 8272 C 783.619 -0.792319 3.38141 0
M  V30 8273 C 782.573 -0.0606178 4.27957 0
M  V30 8274 C 781.899 -1.08409 5.23595 0
M  V30 8275 C 783.199 1.09817 5.10625 0
M  V30 8276 H 784.893 0.898611 2.85596 0
M  V30 8277 H 782.439 0.433571 1.37318 0
M  V30 8278 H 784.392 -1.23793 4.02807 0
M  V30 8279 H 783.116 -1.60908 2.84211 0
M  V30 8280 H 781.775 0.365393 3.64775 0
M  V30 8281 H 781.423 -1.89449 4.6596 0
M  V30 8282 H 781.123 -0.599269 5.84536 0
M  V30 8283 H 782.647 -1.52936 5.91137 0
M  V30 8284 H 784.061 0.730892 5.68622 0
M  V30 8285 H 782.458 1.51278 5.80719 0
M  V30 8286 H 783.528 1.91878 4.45321 0
M  V30 8287 N 784.871 -1.49948 0.485112 0
M  V30 8288 C 785.834 -2.27351 -0.290546 0
M  V30 8289 C 786.834 -1.32704 -0.908087 0
M  V30 8290 O 788.024 -1.56007 -0.775085 0
M  V30 8291 C 785.156 -3.10135 -1.41524 0
M  V30 8292 H 786.349 -2.97374 0.388454 0
M  V30 8293 H 783.902 -1.54453 0.239586 0
M  V30 8294 H 784.637 -2.44641 -2.12888 0
M  V30 8295 H 784.422 -3.79705 -0.978074 0
M  V30 8296 H 785.912 -3.68638 -1.96204 0
M  V30 8297 N 786.349 -0.21828 -1.56081 0
M  V30 8298 C 787.626 0.463143 -1.90038 0
M  V30 8299 C 788.006 1.77982 -1.13515 0
M  V30 8300 O 787.354 2.27199 -0.24345 0
M  V30 8301 C 787.564 0.659292 -3.42716 0
M  V30 8302 C 788.912 0.968203 -4.13414 0
M  V30 8303 O 789.936 0.746195 -3.48296 0
M  V30 8304 O 788.795 1.38936 -5.28544 0
M  V30 8305 H 785.889 0.244435 -0.790051 0
M  V30 8306 H 788.435 -0.260221 -1.67693 0
M  V30 8307 H 787.207 -0.269584 -3.9037 0
M  V30 8308 H 786.83 1.43426 -3.7083 0
M  V30 8309 N 787.827 1.57504 0.0551401 0
M  V30 8310 C 789.243 1.54236 0.410292 0
M  V30 8311 C 789.443 0.940839 1.78187 0
M  V30 8312 O 788.499 0.550541 2.46425 0
M  V30 8313 C 789.812 2.98816 0.336064 0
M  V30 8314 C 791.36 3.10236 0.415047 0
M  V30 8315 C 791.835 4.56499 0.37055 0
M  V30 8316 N 793.326 4.61199 0.43013 0
M  V30 8317 C 794.061 5.71873 0.418179 0
M  V30 8318 N 793.557 6.91864 0.360056 0
M  V30 8319 N 795.35 5.60165 0.465977 0
M  V30 8320 H 787.501 1.94965 -0.842759 0
M  V30 8321 H 789.764 0.893096 -0.317937 0
M  V30 8322 H 789.47 3.4645 -0.605429 0
M  V30 8323 H 789.344 3.59564 1.13988 0
M  V30 8324 H 791.731 2.62566 1.34697 0
M  V30 8325 H 791.812 2.52367 -0.417648 0
M  V30 8326 H 791.456 5.0483 -0.557592 0
M  V30 8327 H 791.386 5.12249 1.221 0
M  V30 8328 H 793.877 3.74857 0.478623 0
M  V30 8329 H 794.19 7.71983 0.35532 0
M  V30 8330 H 792.535 6.94233 0.326492 0
M  V30 8331 H 795.726 4.65322 0.509194 0
M  V30 8332 H 795.899 6.46413 0.453194 0
M  V30 8333 N 789.305 -0.326896 1.54172 0
M  V30 8334 C 790.255 -1.40319 1.79707 0
M  V30 8335 C 791.239 -1.47056 0.652938 0
M  V30 8336 O 792.431 -1.51645 0.91284 0
M  V30 8337 C 789.56 -2.77222 2.02491 0
M  V30 8338 C 788.646 -2.74811 3.23016 0
M  V30 8339 N 789.037 -2.42022 4.44138 0
M  V30 8340 C 787.335 -3.05943 3.24522 0
M  V30 8341 C 788.036 -2.48263 5.26061 0
M  V30 8342 N 787.012 -2.84567 4.63166 0
M  V30 8343 H 790.814 -1.13892 2.70935 0
M  V30 8344 H 788.328 -0.53536 1.53322 0
M  V30 8345 H 790.325 -3.54793 2.18923 0
M  V30 8346 H 788.985 -3.04582 1.12515 0
M  V30 8347 H 789.996 -2.14926 4.71197 0
M  V30 8348 H 786.673 -3.38367 2.44569 0
M  V30 8349 H 788.063 -2.2593 6.32776 0
M  V30 8350 N 790.784 -1.46188 -0.588786 0
M  V30 8351 C 791.714 -1.59148 -1.70863 0
M  V30 8352 C 792.695 -0.442083 -1.64255 0
M  V30 8353 O 793.88 -0.667575 -1.82365 0
M  V30 8354 C 791.01 -1.5757 -3.09498 0
M  V30 8355 C 789.964 -2.71418 -3.30932 0
M  V30 8356 C 789.29 -2.549 -4.70032 0
M  V30 8357 C 790.59 -4.1329 -3.19356 0
M  V30 8358 H 792.284 -2.52889 -1.60274 0
M  V30 8359 H 789.83 -1.21707 -0.769638 0
M  V30 8360 H 791.783 -1.65231 -3.87655 0
M  V30 8361 H 790.507 -0.603705 -3.20972 0
M  V30 8362 H 789.166 -2.63216 -2.55172 0
M  V30 8363 H 788.814 -1.55797 -4.78264 0
M  V30 8364 H 788.514 -3.31257 -4.85327 0
M  V30 8365 H 790.038 -2.64443 -5.50366 0
M  V30 8366 H 791.452 -4.22636 -3.87365 0
M  V30 8367 H 789.849 -4.90187 -3.46175 0
M  V30 8368 H 790.919 -4.33874 -2.16522 0
M  V30 8369 N 792.262 0.832906 -1.33792 0
M  V30 8370 C 793.194 1.95042 -1.2038 0
M  V30 8371 C 794.207 1.62253 -0.133299 0
M  V30 8372 O 795.396 1.74315 -0.384261 0
M  V30 8373 C 792.496 3.287 -0.825215 0
M  V30 8374 C 791.669 3.89581 -1.98861 0
M  V30 8375 C 790.728 5.01602 -1.59003 0
M  V30 8376 O 789.754 5.20431 -2.30522 0
M  V30 8377 N 790.956 5.78356 -0.498446 0
M  V30 8378 H 793.721 2.07083 -2.16649 0
M  V30 8379 H 791.282 1.00896 -1.26616 0
M  V30 8380 H 793.274 4.01074 -0.540559 0
M  V30 8381 H 791.844 3.12565 0.0469796 0
M  V30 8382 H 791.064 3.09723 -2.43856 0
M  V30 8383 H 792.352 4.26989 -2.76691 0
M  V30 8384 H 791.75 5.65618 0.0963297 0
M  V30 8385 H 790.307 6.51226 -0.273485 0
M  V30 8386 N 793.74 1.17359 1.05189 0
M  V30 8387 C 795.156 0.920861 1.30355 0
M  V30 8388 C 795.356 -0.419993 1.97074 0
M  V30 8389 O 794.412 -1.15696 2.24434 0
M  V30 8390 C 795.725 2.07818 2.1733 0
M  V30 8391 C 797.273 2.1152 2.30712 0
M  V30 8392 C 797.748 3.26637 3.21048 0
M  V30 8393 N 799.239 3.26426 3.28634 0
M  V30 8394 C 799.974 4.12141 3.98657 0
M  V30 8395 N 799.47 5.07966 4.71107 0
M  V30 8396 N 801.263 4.00091 3.94821 0
M  V30 8397 H 793.414 2.03666 0.602821 0
M  V30 8398 H 795.677 0.889294 0.328421 0
M  V30 8399 H 795.383 3.04727 1.75597 0
M  V30 8400 H 795.257 2.02922 3.17966 0
M  V30 8401 H 797.644 1.15196 2.71687 0
M  V30 8402 H 797.725 2.20477 1.29706 0
M  V30 8403 H 797.369 4.23227 2.80788 0
M  V30 8404 H 797.299 3.14917 4.2206 0
M  V30 8405 H 799.79 2.57045 2.77013 0
M  V30 8406 H 800.103 5.69766 5.22099 0
M  V30 8407 H 798.448 5.11936 4.7005 0
M  V30 8408 H 801.639 3.24523 3.37346 0
M  V30 8409 H 801.812 4.6711 4.49123 0
M  V30 8410 N 795.218 -1.23913 0.973828 0
M  V30 8411 C 796.495 -1.87539 0.555729 0
M  V30 8412 C 796.875 -1.87641 -0.967162 0
M  V30 8413 O 796.223 -1.35335 -1.84111 0
M  V30 8414 C 796.433 -3.29359 1.15427 0
M  V30 8415 C 797.781 -4.06 1.24294 0
M  V30 8416 O 798.805 -3.38554 1.10723 0
M  V30 8417 O 797.664 -5.26689 1.45813 0
M  V30 8418 H 794.758 -0.805769 0.186188 0
M  V30 8419 H 797.304 -1.31838 1.06849 0
M  V30 8420 H 796.076 -3.23817 2.19678 0
M  V30 8421 H 795.699 -3.92642 0.625925 0
M  V30 8422 N 796.696 -0.74468 -1.38897 0
M  V30 8423 C 797.644 -0.100312 -2.32384 0
M  V30 8424 C 798.638 0.715191 -1.53562 0
M  V30 8425 O 799.844 0.615288 -1.69157 0
M  V30 8426 H 796.219 -0.0136403 -0.751876 0
M  V30 8427 H 798.19 -0.905007 -2.84345 0
M  V30 8428 C 796.939 0.785432 -3.38713 0
M  V30 8429 H 796.262 0.167308 -3.9945 0
M  V30 8430 H 797.702 1.20374 -4.06554 0
M  V30 8431 C 796.161 1.92408 -2.76552 0
M  V30 8432 O 796.691 3.01752 -2.65157 0
M  V30 8433 N 794.897 1.71642 -2.34494 0
M  V30 8434 H 794.444 0.827079 -2.43961 0
M  V30 8435 H 794.402 2.48 -1.93244 0
M  V30 8436 N 798.174 1.49689 -0.493057 0
M  V30 8437 C 799.104 2.31826 0.279073 0
M  V30 8438 C 800.085 1.39733 0.969987 0
M  V30 8439 O 801.27 1.68646 0.962925 0
M  V30 8440 C 798.4 3.20046 1.34862 0
M  V30 8441 C 797.354 4.20869 0.77805 0
M  V30 8442 C 796.68 4.97971 1.94753 0
M  V30 8443 C 797.98 5.21813 -0.225543 0
M  V30 8444 H 799.674 2.96627 -0.406512 0
M  V30 8445 H 797.22 1.42647 -0.196943 0
M  V30 8446 H 799.173 3.76315 1.89645 0
M  V30 8447 H 797.897 2.53172 2.06328 0
M  V30 8448 H 796.556 3.65733 0.252036 0
M  V30 8449 H 796.204 4.27552 2.64969 0
M  V30 8450 H 795.904 5.66186 1.57187 0
M  V30 8451 H 797.428 5.57082 2.49984 0
M  V30 8452 H 798.842 5.72823 0.233864 0
M  V30 8453 H 797.239 5.97872 -0.516622 0
M  V30 8454 H 798.309 4.71209 -1.14412 0
M  V30 8455 N 799.652 0.226554 1.55963 0
M  V30 8456 C 800.602 -0.694986 2.1715 0
M  V30 8457 C 801.586 -1.15394 1.12129 0
M  V30 8458 O 802.778 -1.1071 1.38102 0
M  V30 8459 C 799.907 -1.9007 2.85882 0
M  V30 8460 C 798.993 -1.46119 3.98133 0
M  V30 8461 N 799.384 -0.734584 5.00437 0
M  V30 8462 C 797.682 -1.74809 4.10314 0
M  V30 8463 C 798.383 -0.509773 5.79462 0
M  V30 8464 N 797.359 -1.06796 5.33006 0
M  V30 8465 H 801.161 -0.131469 2.93606 0
M  V30 8466 H 798.675 0.0280165 1.62376 0
M  V30 8467 H 800.672 -2.57169 3.28131 0
M  V30 8468 H 799.332 -2.46864 2.10923 0
M  V30 8469 H 800.343 -0.386757 5.16454 0
M  V30 8470 H 797.02 -2.32887 3.46511 0
M  V30 8471 H 798.41 0.0688847 6.71865 0
M  V30 8472 N 801.13 -1.57531 -0.0467866 0
M  V30 8473 C 802.093 -2.04379 -1.03738 0
M  V30 8474 C 803.093 -0.944881 -1.3011 0
M  V30 8475 O 804.283 -1.20904 -1.25411 0
M  V30 8476 C 801.415 -2.44572 -2.37482 0
M  V30 8477 H 802.608 -2.93142 -0.633063 0
M  V30 8478 H 800.161 -1.53526 -0.293177 0
M  V30 8479 H 800.896 -1.58911 -2.82697 0
M  V30 8480 H 800.681 -3.24785 -2.19675 0
M  V30 8481 H 802.171 -2.81307 -3.08636 0
M  V30 8482 N 802.608 0.318715 -1.54344 0
M  V30 8483 C 803.54 1.41364 -1.80413 0
M  V30 8484 C 804.553 1.47627 -0.686294 0
M  V30 8485 O 805.742 1.50264 -0.963486 0
M  V30 8486 C 802.842 2.79867 -1.91123 0
M  V30 8487 C 802.015 2.96749 -3.21339 0
M  V30 8488 C 801.074 4.15642 -3.22689 0
M  V30 8489 O 800.1 4.08571 -3.96306 0
M  V30 8490 N 801.302 5.25416 -2.46817 0
M  V30 8491 H 804.067 1.19363 -2.74905 0
M  V30 8492 H 801.628 0.508722 -1.537 0
M  V30 8493 H 803.62 3.57619 -1.89448 0
M  V30 8494 H 802.19 2.94896 -1.03706 0
M  V30 8495 H 801.41 2.06257 -3.35934 0
M  V30 8496 H 802.698 3.04927 -4.07304 0
M  V30 8497 H 802.096 5.34037 -1.86605 0
M  V30 8498 H 800.653 6.01569 -2.50915 0
M  V30 8499 N 804.086 1.46499 0.581025 0
M  V30 8500 C 805.033 1.5719 1.68997 0
M  V30 8501 C 806.003 0.416114 1.60803 0
M  V30 8502 O 807.188 0.633086 1.79991 0
M  V30 8503 C 804.328 1.56973 3.07333 0
M  V30 8504 C 803.441 2.83298 3.26139 0
M  V30 8505 C 802.576 2.74574 4.54734 0
M  V30 8506 C 801.615 3.9583 4.66889 0
M  V30 8507 N 800.752 3.85482 5.86811 0
M  V30 8508 H 805.592 2.51914 1.59196 0
M  V30 8509 H 803.129 1.24975 0.775857 0
M  V30 8510 H 805.087 1.54832 3.87405 0
M  V30 8511 H 803.717 0.657803 3.16027 0
M  V30 8512 H 802.769 2.95411 2.3966 0
M  V30 8513 H 804.081 3.7316 3.30988 0
M  V30 8514 H 803.235 2.70548 5.43036 0
M  V30 8515 H 801.974 1.82354 4.52325 0
M  V30 8516 H 800.979 4.00186 3.77003 0
M  V30 8517 H 802.204 4.89148 4.71075 0
M  V30 8518 H 800.15 2.96051 5.85397 0
M  V30 8519 H 800.067 4.69002 5.92936 0
M  V30 8520 H 801.335 3.85434 6.7754 0
M  V30 8521 N 805.565 -0.825799 1.34232 0
M  V30 8522 C 806.805 -1.59541 1.27773 0
M  V30 8523 C 807.169 -1.91405 -0.150998 0
M  V30 8524 O 808.37 -2.66644 -0.339728 0
M  V30 8525 C 806.641 -2.86183 2.14089 0
M  V30 8526 S 808.2 -3.76751 2.24953 0
M  V30 8527 H 805.018 -0.546871 0.454371 0
M  V30 8528 H 807.62 -0.975677 1.69413 0
M  V30 8529 H 806.324 -2.60767 3.16905 0
M  V30 8530 H 805.855 -3.53155 1.73335 0
M  V30 8531 H 807.87 -4.75442 1.4202 0
M  V30 8532 N 807.043 -1.17915 -1.04565 0
M  V30 8533 C 808.292 -0.965816 -1.77073 0
M  V30 8534 C 808.605 0.506005 -1.88942 0
M  V30 8535 O 809.811 0.837717 -2.58253 0
M  V30 8536 C 808.267 -1.67894 -3.18339 0
M  V30 8537 C 807.875 -3.18972 -3.1458 0
M  V30 8538 C 809.619 -1.54823 -3.9526 0
M  V30 8539 C 807.526 -3.82946 -4.50674 0
M  V30 8540 H 806.456 -0.357729 -0.663736 0
M  V30 8541 H 809.107 -1.41235 -1.17153 0
M  V30 8542 H 807.489 -1.16016 -3.78624 0
M  V30 8543 H 808.663 -3.77835 -2.63776 0
M  V30 8544 H 806.978 -3.32127 -2.51159 0
M  V30 8545 H 809.575 -1.99984 -4.95894 0
M  V30 8546 H 809.918 -0.499727 -4.1329 0
M  V30 8547 H 810.451 -2.03953 -3.41538 0
M  V30 8548 H 807.19 -4.8782 -4.37849 0
M  V30 8549 H 806.71 -3.2887 -5.01602 0
M  V30 8550 H 808.389 -3.85518 -5.196 0
M  V30 8551 N 808.521 1.23394 -0.980386 0
M  V30 8552 C 809.798 1.87242 -0.565667 0
M  V30 8553 C 810.178 1.88151 0.957197 0
M  V30 8554 O 809.526 1.36309 1.8339 0
M  V30 8555 C 809.736 3.28743 -1.17172 0
M  V30 8556 C 811.084 4.05335 -1.26446 0
M  V30 8557 O 812.108 3.37962 -1.12517 0
M  V30 8558 O 810.967 5.25908 -1.48604 0
M  V30 8559 H 808.061 0.80477 -0.190459 0
M  V30 8560 H 810.607 1.3127 -1.07547 0
M  V30 8561 H 809.379 3.22647 -2.21392 0
M  V30 8562 H 809.002 3.92305 -0.646739 0
M  V30 8563 N 809.999 0.752036 1.385 0
M  V30 8564 C 811.245 0.316909 2.00916 0
M  V30 8565 C 811.6 -1.08884 1.58625 0
M  V30 8566 O 810.893 -1.73494 0.813047 0
M  V30 8567 C 811.087 0.376155 3.55415 0
M  V30 8568 C 810.916 1.78612 4.12708 0
M  V30 8569 C 809.686 2.4023 4.44542 0
M  V30 8570 C 811.884 2.74253 4.35075 0
M  V30 8571 N 809.866 3.73204 4.87434 0
M  V30 8572 C 811.237 3.9199 4.80358 0
M  V30 8573 C 813.292 2.71795 4.17171 0
M  V30 8574 C 811.995 5.07627 5.09615 0
M  V30 8575 C 814.021 3.86589 4.47552 0
M  V30 8576 C 813.383 5.03064 4.93058 0
M  V30 8577 H 809.482 0.16259 0.764911 0
M  V30 8578 H 812.066 0.981657 1.68142 0
M  V30 8579 H 810.237 -0.258317 3.8754 0
M  V30 8580 H 811.969 -0.0791421 4.04623 0
M  V30 8581 H 808.724 1.92009 4.32931 0
M  V30 8582 H 809.148 4.41519 5.13215 0
M  V30 8583 H 813.79 1.82929 3.81178 0
M  V30 8584 H 811.508 5.97109 5.44506 0
M  V30 8585 H 815.094 3.86005 4.35306 0
M  V30 8586 H 813.974 5.90417 5.16118 0
M  V30 8587 N 811.477 -1.49425 0.500989 0
M  V30 8588 C 812.425 -2.30771 -0.291149 0
M  V30 8589 C 813.419 -1.3938 -0.962787 0
M  V30 8590 O 814.625 -1.56431 -0.890477 0
M  V30 8591 H 811 -0.743499 -0.11275 0
M  V30 8592 H 812.971 -2.95501 0.414917 0
M  V30 8593 C 811.72 -3.20725 -1.34279 0
M  V30 8594 H 811.043 -3.90975 -0.83538 0
M  V30 8595 H 812.483 -3.80583 -1.86903 0
M  V30 8596 C 810.942 -2.40334 -2.36095 0
M  V30 8597 O 811.472 -2.10749 -3.41976 0
M  V30 8598 N 809.678 -2.02359 -2.08565 0
M  V30 8599 H 809.225 -2.26619 -1.22482 0
M  V30 8600 H 809.183 -1.48878 -2.76916 0
M  V30 8601 N 812.955 -0.234822 -1.55841 0
M  V30 8602 C 814.371 0.120295 -1.59146 0
M  V30 8603 C 814.571 1.57896 -1.25184 0
M  V30 8604 O 813.627 2.32138 -0.993393 0
M  V30 8605 C 814.94 -0.217984 -2.99909 0
M  V30 8606 C 816.488 -0.161298 -3.12584 0
M  V30 8607 C 816.963 -0.473438 -4.55546 0
M  V30 8608 N 818.454 -0.423494 -4.6126 0
M  V30 8609 C 819.189 -0.638334 -5.69836 0
M  V30 8610 N 818.685 -0.915659 -6.86722 0
M  V30 8611 N 820.478 -0.569864 -5.59204 0
M  V30 8612 H 812.629 -1.18622 -1.76189 0
M  V30 8613 H 814.892 -0.476426 -0.819587 0
M  V30 8614 H 814.598 -1.2309 -3.29457 0
M  V30 8615 H 814.472 0.460707 -3.74376 0
M  V30 8616 H 816.859 0.842274 -2.82825 0
M  V30 8617 H 816.94 -0.873661 -2.40418 0
M  V30 8618 H 816.584 -1.47451 -4.86025 0
M  V30 8619 H 816.514 0.260268 -5.25956 0
M  V30 8620 H 819.005 -0.217383 -3.77274 0
M  V30 8621 H 819.318 -1.06734 -7.65394 0
M  V30 8622 H 817.663 -0.953 -6.88435 0
M  V30 8623 H 820.854 -0.35334 -4.66765 0
M  V30 8624 H 821.027 -0.740698 -6.43753 0
M  V30 8625 N 814.433 1.57553 0.0384317 0
M  V30 8626 C 815.381 2.07021 1.06043 0
M  V30 8627 C 816.375 0.982078 1.38028 0
M  V30 8628 O 817.581 1.16702 1.37042 0
M  V30 8629 H 813.956 0.660522 0.359464 0
M  V30 8630 H 815.927 2.91944 0.617339 0
M  V30 8631 C 814.676 2.55734 2.35574 0
M  V30 8632 H 813.999 3.39074 2.11822 0
M  V30 8633 H 815.439 2.94066 3.05452 0
M  V30 8634 C 813.898 1.45449 3.03885 0
M  V30 8635 O 814.428 0.815402 3.93337 0
M  V30 8636 N 812.634 1.19134 2.65058 0
M  V30 8637 H 812.181 1.71288 1.92401 0
M  V30 8638 H 812.139 0.455554 3.11082 0
M  V30 8639 N 815.911 -0.310526 1.54511 0
M  V30 8640 C 817.157 -1.04846 1.73595 0
M  V30 8641 C 817.49 -1.87244 0.515118 0
M  V30 8642 O 816.765 -1.88282 -0.48786 0
M  V30 8643 C 817.048 -1.96237 3.01932 0
M  V30 8644 C 816.901 -1.17082 4.34295 0
M  V30 8645 C 818.22 -2.9556 3.26086 0
M  V30 8646 H 815.339 -0.37976 0.631626 0
M  V30 8647 H 817.981 -0.32394 1.87218 0
M  V30 8648 H 816.131 -2.58015 2.90449 0
M  V30 8649 H 817.803 -0.576643 4.57682 0
M  V30 8650 H 816.046 -0.473336 4.3121 0
M  V30 8651 H 816.717 -1.84257 5.20339 0
M  V30 8652 H 819.193 -2.43908 3.37117 0
M  V30 8653 H 818.069 -3.5668 4.17218 0
M  V30 8654 H 818.33 -3.68715 2.4393 0
M  V30 8655 N 817.389 -1.46805 -0.573248 0
M  V30 8656 C 818.319 -1.60951 -1.69165 0
M  V30 8657 C 819.3 -0.45948 -1.63777 0
M  V30 8658 O 820.485 -0.68688 -1.81647 0
M  V30 8659 C 817.615 -1.60844 -3.07809 0
M  V30 8660 C 816.569 -2.74913 -3.28035 0
M  V30 8661 C 815.895 -2.59871 -4.67302 0
M  V30 8662 C 817.195 -4.16654 -3.14955 0
M  V30 8663 H 818.889 -2.54574 -1.57582 0
M  V30 8664 H 816.435 -1.22516 -0.756686 0
M  V30 8665 H 818.388 -1.69334 -3.85881 0
M  V30 8666 H 817.112 -0.637714 -3.20314 0
M  V30 8667 H 815.771 -2.65908 -2.52366 0
M  V30 8668 H 815.419 -1.60861 -4.76585 0
M  V30 8669 H 815.119 -3.36386 -4.81786 0
M  V30 8670 H 816.643 -2.70265 -5.4753 0
M  V30 8671 H 818.057 -4.26721 -3.82861 0
M  V30 8672 H 816.454 -4.93831 -3.40956 0
M  V30 8673 H 817.524 -4.36146 -2.11908 0
M  V30 8674 N 818.867 0.818669 -1.34668 0
M  V30 8675 C 819.814 1.92983 -1.26595 0
M  V30 8676 C 820.784 1.65506 -0.140315 0
M  V30 8677 O 821.969 1.88063 -0.322005 0
M  V30 8678 C 819.109 3.2932 -1.03163 0
M  V30 8679 C 818.222 3.69061 -2.24539 0
M  V30 8680 C 817.357 4.94368 -1.94355 0
M  V30 8681 C 816.396 5.26702 -3.11851 0
M  V30 8682 N 815.533 6.43187 -2.81522 0
M  V30 8683 H 820.373 1.99219 -2.2162 0
M  V30 8684 H 817.91 0.974612 -1.1018 0
M  V30 8685 H 819.868 4.07897 -0.87613 0
M  V30 8686 H 818.498 3.22584 -0.118045 0
M  V30 8687 H 817.55 2.85842 -2.50995 0
M  V30 8688 H 818.862 3.88924 -3.12313 0
M  V30 8689 H 818.016 5.80742 -1.75566 0
M  V30 8690 H 816.755 4.76515 -1.03848 0
M  V30 8691 H 815.76 4.38823 -3.31231 0
M  V30 8692 H 816.985 5.46492 -4.03142 0
M  V30 8693 H 814.931 6.26783 -1.93596 0
M  V30 8694 H 814.848 6.63243 -3.62829 0
M  V30 8695 H 816.116 7.32621 -2.66247 0
M  V30 8696 N 820.346 1.18468 1.03938 0
M  V30 8697 C 821.762 0.934635 1.29371 0
M  V30 8698 C 821.962 -0.399067 1.97509 0
M  V30 8699 O 821.018 -1.13309 2.25648 0
M  V30 8700 C 822.331 2.10111 2.15114 0
M  V30 8701 C 823.879 2.13955 2.28456 0
M  V30 8702 C 824.354 3.30024 3.17566 0
M  V30 8703 N 825.845 3.29893 3.25153 0
M  V30 8704 C 826.58 4.16346 3.94263 0
M  V30 8705 N 826.076 5.12934 4.65693 0
M  V30 8706 N 827.869 4.04256 3.90556 0
M  V30 8707 H 820.02 2.04294 0.581185 0
M  V30 8708 H 822.283 0.892727 0.318971 0
M  V30 8709 H 821.989 3.06572 1.72355 0
M  V30 8710 H 821.863 2.06283 3.15796 0
M  V30 8711 H 824.25 1.18072 2.7045 0
M  V30 8712 H 824.331 2.2184 1.2736 0
M  V30 8713 H 823.975 4.26181 2.76283 0
M  V30 8714 H 823.905 3.19376 4.18697 0
M  V30 8715 H 826.396 2.59969 2.74271 0
M  V30 8716 H 826.709 5.75271 5.16026 0
M  V30 8717 H 825.054 5.16893 4.64593 0
M  V30 8718 H 828.245 3.28083 3.33885 0
M  V30 8719 H 828.418 4.71848 4.44144 0
M  V30 8720 N 821.824 -1.22873 0.986916 0
M  V30 8721 C 822.734 -2.28277 0.540978 0
M  V30 8722 C 823.75 -1.69164 -0.407363 0
M  V30 8723 O 824.926 -1.99504 -0.275674 0
M  V30 8724 C 821.991 -3.46404 -0.143181 0
M  V30 8725 C 821.052 -4.20854 0.847375 0
M  V30 8726 C 820.285 -5.33341 0.19577 0
M  V30 8727 O 820.508 -5.61356 -1.0117 0
M  V30 8728 O 819.442 -5.95169 0.897623 0
M  V30 8729 H 823.268 -2.68578 1.41773 0
M  V30 8730 H 820.853 -1.28927 0.754867 0
M  V30 8731 H 822.735 -4.18096 -0.526676 0
M  V30 8732 H 821.41 -3.08041 -0.994593 0
M  V30 8733 H 820.317 -3.51459 1.28169 0
M  V30 8734 H 821.65 -4.63082 1.6678 0
M  V30 8735 N 823.302 -0.75937 -1.38099 0
M  V30 8736 C 824.232 -0.151077 -2.33011 0
M  V30 8737 C 825.213 0.697099 -1.5516 0
M  V30 8738 O 826.398 0.637101 -1.83452 0
M  V30 8739 C 823.528 0.738423 -3.39359 0
M  V30 8740 C 822.482 -0.0074741 -4.27999 0
M  V30 8741 C 821.808 1.00066 -5.25253 0
M  V30 8742 C 823.108 -1.17926 -5.08813 0
M  V30 8743 H 824.802 -0.943933 -2.84131 0
M  V30 8744 H 822.348 -0.455362 -1.36611 0
M  V30 8745 H 824.301 1.17369 -4.04725 0
M  V30 8746 H 823.025 1.56366 -2.86735 0
M  V30 8747 H 821.684 -0.423379 -3.64147 0
M  V30 8748 H 821.332 1.82012 -4.68914 0
M  V30 8749 H 821.032 0.506199 -5.85416 0
M  V30 8750 H 822.556 1.43512 -5.93495 0
M  V30 8751 H 823.97 -0.821262 -5.67387 0
M  V30 8752 H 822.367 -1.60497 -5.78239 0
M  V30 8753 H 823.437 -1.98938 -4.42212 0
M  V30 8754 N 824.78 1.49157 -0.508906 0
M  V30 8755 C 826.028 2.02073 0.0327335 0
M  V30 8756 C 826.349 1.39012 1.3675 0
M  V30 8757 O 825.619 0.548153 1.88075 0
M  V30 8758 H 824.199 0.746848 0.0150864 0
M  V30 8759 H 826.861 1.83097 -0.667946 0
M  V30 8760 H 825.957 3.11707 0.1566 0
M  V30 8761 N 826.258 0.243083 1.55714 0
M  V30 8762 C 827.188 -0.652336 2.24203 0
M  V30 8763 C 828.169 -1.1843 1.221 0
M  V30 8764 O 829.354 -1.22435 1.50743 0
M  V30 8765 C 826.484 -1.85111 2.93856 0
M  V30 8766 C 825.438 -1.45208 4.02615 0
M  V30 8767 C 824.764 -2.73137 4.59674 0
M  V30 8768 C 826.064 -0.625988 5.18535 0
M  V30 8769 H 827.758 -0.0812504 2.9929 0
M  V30 8770 H 825.304 -0.0376388 1.43951 0
M  V30 8771 H 827.257 -2.48314 3.40468 0
M  V30 8772 H 825.981 -2.44751 2.16251 0
M  V30 8773 H 824.64 -0.843406 3.56766 0
M  V30 8774 H 824.288 -3.30967 3.78774 0
M  V30 8775 H 823.988 -2.47163 5.33089 0
M  V30 8776 H 825.512 -3.37245 5.09017 0
M  V30 8777 H 826.926 -1.16223 5.61396 0
M  V30 8778 H 825.323 -0.462465 5.98315 0
M  V30 8779 H 826.393 0.362652 4.83542 0
M  V30 8780 N 827.736 -1.57571 -0.0300757 0
M  V30 8781 C 828.699 -2.05468 -1.01565 0
M  V30 8782 C 829.699 -0.958628 -1.29101 0
M  V30 8783 O 830.889 -1.22228 -1.24121 0
M  V30 8784 C 828.021 -2.47077 -2.34874 0
M  V30 8785 H 829.214 -2.93797 -0.601936 0
M  V30 8786 H 826.767 -1.53828 -0.276878 0
M  V30 8787 H 827.502 -1.61901 -2.80996 0
M  V30 8788 H 827.287 -3.27097 -2.16218 0
M  V30 8789 H 828.777 -2.84564 -3.05635 0
M  V30 8790 N 829.214 0.302327 -1.54673 0
M  V30 8791 C 830.124 1.39542 -1.88587 0
M  V30 8792 C 831.14 1.55543 -0.779895 0
M  V30 8793 O 832.316 1.70233 -1.07623 0
M  V30 8794 C 829.381 2.7394 -2.12504 0
M  V30 8795 C 828.442 2.66935 -3.3622 0
M  V30 8796 C 827.675 3.94923 -3.58987 0
M  V30 8797 O 827.898 4.94218 -2.84789 0
M  V30 8798 O 826.832 3.96896 -4.52501 0
M  V30 8799 H 830.658 1.13784 -2.81579 0
M  V30 8800 H 828.243 0.49827 -1.40846 0
M  V30 8801 H 830.125 3.5346 -2.29443 0
M  V30 8802 H 828.8 2.99544 -1.22698 0
M  V30 8803 H 827.707 1.85892 -3.24646 0
M  V30 8804 H 829.04 2.46283 -4.26152 0
M  V30 8805 N 830.692 1.47107 0.565454 0
M  V30 8806 C 831.917 1.57153 1.35343 0
M  V30 8807 C 832.342 0.219247 1.86818 0
M  V30 8808 O 831.7 -0.803539 1.62521 0
M  V30 8809 C 831.748 2.59387 2.50501 0
M  V30 8810 O 830.852 2.14086 3.52478 0
M  V30 8811 H 830.193 0.528209 0.402357 0
M  V30 8812 H 832.723 1.92821 0.684189 0
M  V30 8813 H 832.733 2.79546 2.97184 0
M  V30 8814 H 831.408 3.57579 2.12391 0
M  V30 8815 H 829.985 2.03991 3.12157 0
M  V30 8816 N 832.17 -0.811516 1.35101 0
M  V30 8817 C 833.447 -1.55491 1.18667 0
M  V30 8818 C 833.827 -2.09775 -0.236189 0
M  V30 8819 O 833.175 -1.91989 -1.23905 0
M  V30 8820 C 833.385 -2.66732 2.25067 0
M  V30 8821 C 834.733 -3.35201 2.60625 0
M  V30 8822 O 835.757 -2.76998 2.23943 0
M  V30 8823 O 834.616 -4.40334 3.23679 0
M  V30 8824 H 831.71 -0.686783 0.460716 0
M  V30 8825 H 834.256 -0.851903 1.46768 0
M  V30 8826 H 833.028 -2.24457 3.20523 0
M  V30 8827 H 832.651 -3.44673 1.98208 0
M  V30 8828 N 833.648 -1.19017 -1.03309 0
M  V30 8829 C 834.897 -0.984542 -1.76039 0
M  V30 8830 C 835.21 0.485937 -1.89468 0
M  V30 8831 O 836.416 0.810278 -2.59127 0
M  V30 8832 C 834.872 -1.71261 -3.1654 0
M  V30 8833 C 834.48 -3.22291 -3.11179 0
M  V30 8834 C 836.224 -1.59007 -3.93595 0
M  V30 8835 C 834.131 -3.87704 -4.46587 0
M  V30 8836 H 833.061 -0.364749 -0.659905 0
M  V30 8837 H 835.712 -1.4247 -1.15649 0
M  V30 8838 H 834.094 -1.20025 -3.77373 0
M  V30 8839 H 835.268 -3.80611 -2.59753 0
M  V30 8840 H 833.583 -3.34772 -2.47622 0
M  V30 8841 H 836.18 -2.05232 -4.93745 0
M  V30 8842 H 836.523 -0.543534 -4.12736 0
M  V30 8843 H 837.056 -2.07564 -3.39355 0
M  V30 8844 H 833.795 -4.92437 -4.3265 0
M  V30 8845 H 833.315 -3.34172 -4.98085 0
M  V30 8846 H 834.994 -3.91008 -5.15482 0
M  V30 8847 N 835.127 1.22348 -0.993418 0
M  V30 8848 C 836.373 1.91393 -0.67056 0
M  V30 8849 C 836.706 1.77163 0.795428 0
M  V30 8850 O 835.981 1.14084 1.57528 0
M  V30 8851 C 836.264 3.43589 -1.0779 0
M  V30 8852 C 836.117 3.66867 -2.60248 0
M  V30 8853 C 837.436 4.35545 -0.631527 0
M  V30 8854 H 834.555 0.695057 -0.24508 0
M  V30 8855 H 837.197 1.44213 -1.23703 0
M  V30 8856 H 835.347 3.83903 -0.595902 0
M  V30 8857 H 837.019 3.35954 -3.16121 0
M  V30 8858 H 835.262 3.1113 -3.02293 0
M  V30 8859 H 835.933 4.73457 -2.838 0
M  V30 8860 H 838.409 4.0275 -1.04554 0
M  V30 8861 H 837.285 5.40707 -0.944831 0
M  V30 8862 H 837.546 4.39618 0.467779 0
M  V30 8863 N 836.605 0.766683 1.37694 0
M  V30 8864 C 837.882 0.25366 1.93948 0
M  V30 8865 C 838.262 -1.25041 1.70082 0
M  V30 8866 O 837.61 -2.03115 1.04674 0
M  V30 8867 C 837.82 0.621549 3.43421 0
M  V30 8868 C 839.168 0.588504 4.20502 0
M  V30 8869 O 840.192 0.560632 3.5176 0
M  V30 8870 O 839.051 0.61107 5.43073 0
M  V30 8871 H 836.145 0.0570586 0.825029 0
M  V30 8872 H 838.691 0.847693 1.47011 0
M  V30 8873 H 837.463 1.65979 3.54354 0
M  V30 8874 H 837.086 0.000197027 3.976 0
M  V30 8875 N 838.083 -1.48885 0.516809 0
M  V30 8876 C 839.332 -2.01686 -0.0239899 0
M  V30 8877 C 839.645 -1.40029 -1.3657 0
M  V30 8878 O 840.851 -1.84249 -1.9941 0
M  V30 8879 C 839.307 -3.59779 -0.0931825 0
M  V30 8880 C 838.915 -4.30416 1.24283 0
M  V30 8881 C 840.659 -4.20471 -0.583507 0
M  V30 8882 C 838.566 -5.80408 1.13494 0
M  V30 8883 H 837.496 -0.753892 -0.0127376 0
M  V30 8884 H 840.147 -1.71273 0.65861 0
M  V30 8885 H 838.529 -3.86976 -0.840577 0
M  V30 8886 H 839.703 -4.14905 2.00476 0
M  V30 8887 H 838.018 -3.81539 1.66785 0
M  V30 8888 H 840.615 -5.30333 -0.681987 0
M  V30 8889 H 840.958 -3.84898 -1.58617 0
M  V30 8890 H 841.491 -3.97654 0.107814 0
M  V30 8891 H 838.23 -6.20532 2.11235 0
M  V30 8892 H 837.75 -5.98368 0.414167 0
M  V30 8893 H 839.429 -6.41781 0.820162 0
M  V30 8894 N 839.561 -0.251338 -1.55583 0
M  V30 8895 C 840.972 0.25098 -1.85005 0
M  V30 8896 C 841.323 1.57259 -1.17321 0
M  V30 8897 O 840.448 2.11603 -0.453136 0
M  V30 8898 C 841.043 0.462161 -3.35633 0
M  V30 8899 C 839.602 0.908737 -3.65266 0
M  V30 8900 C 838.749 -0.0115418 -2.77298 0
M  V30 8901 H 841.7 -0.473782 -1.51463 0
M  V30 8902 H 841.721 1.30415 -3.57452 0
M  V30 8903 H 841.233 -0.499886 -3.84867 0
M  V30 8904 H 839.334 1.8831 -3.21512 0
M  V30 8905 H 839.447 0.762526 -4.72993 0
M  V30 8906 H 837.811 0.500612 -2.49732 0
M  V30 8907 H 838.594 -0.969042 -3.29339 0
M  V30 8908 N 841.039 1.57585 0.0217189 0
M  V30 8909 C 841.971 2.03849 1.04777 0
M  V30 8910 C 842.984 0.952558 1.32023 0
M  V30 8911 O 844.173 1.22974 1.29381 0
M  V30 8912 C 841.273 2.40504 2.3877 0
M  V30 8913 C 840.446 3.71566 2.30775 0
M  V30 8914 C 839.505 3.95329 3.47277 0
M  V30 8915 O 838.531 4.66289 3.26441 0
M  V30 8916 N 839.733 3.41536 4.69397 0
M  V30 8917 H 842.498 2.92491 0.653395 0
M  V30 8918 H 840.059 1.60538 0.209527 0
M  V30 8919 H 842.051 2.53532 3.15442 0
M  V30 8920 H 840.621 1.57494 2.70027 0
M  V30 8921 H 839.841 3.68822 1.39155 0
M  V30 8922 H 841.129 4.5753 2.22584 0
M  V30 8923 H 840.527 2.84033 4.89226 0
M  V30 8924 H 839.084 3.59932 5.43408 0
M  V30 8925 N 842.517 -0.29412 1.54831 0
M  V30 8926 C 843.447 -1.36757 1.89261 0
M  V30 8927 C 844.428 -1.52564 0.752214 0
M  V30 8928 O 845.613 -1.65958 1.00855 0
M  V30 8929 C 842.743 -2.73066 2.14597 0
M  V30 8930 C 841.697 -2.72017 3.3044 0
M  V30 8931 C 841.023 -4.11679 3.4121 0
M  V30 8932 C 842.323 -2.33149 4.67375 0
M  V30 8933 H 844.017 -1.08191 2.79169 0
M  V30 8934 H 841.563 -0.519014 1.34321 0
M  V30 8935 H 843.516 -3.48255 2.37269 0
M  V30 8936 H 842.24 -3.03172 1.21467 0
M  V30 8937 H 840.899 -1.99285 3.07703 0
M  V30 8938 H 840.547 -4.38973 2.45584 0
M  V30 8939 H 840.247 -4.11877 4.19084 0
M  V30 8940 H 841.771 -4.88637 3.6615 0
M  V30 8941 H 843.185 -2.98054 4.89731 0
M  V30 8942 H 841.582 -2.44546 5.48012 0
M  V30 8943 H 842.652 -1.28275 4.67626 0
M  V30 8944 N 843.995 -1.47404 -0.557645 0
M  V30 8945 C 845.242 -1.54007 -1.31484 0
M  V30 8946 C 845.57 -0.202162 -1.93447 0
M  V30 8947 O 844.825 0.804901 -1.78381 0
M  V30 8948 C 845.124 -2.6061 -2.44575 0
M  V30 8949 C 844.79 -4.03896 -2.00446 0
M  V30 8950 C 843.452 -4.42901 -1.88127 0
M  V30 8951 C 845.804 -4.93804 -1.66754 0
M  V30 8952 C 843.132 -5.6965 -1.40411 0
M  V30 8953 C 845.484 -6.21016 -1.20509 0
M  V30 8954 C 844.148 -6.58903 -1.06786 0
M  V30 8955 H 843.418 -0.563552 -0.481134 0
M  V30 8956 H 846.065 -1.81001 -0.625375 0
M  V30 8957 H 844.37 -2.27371 -3.19076 0
M  V30 8958 H 846.067 -2.62941 -3.02759 0
M  V30 8959 H 842.657 -3.73077 -2.10977 0
M  V30 8960 H 846.841 -4.64369 -1.75144 0
M  V30 8961 H 842.097 -5.97755 -1.2845 0
M  V30 8962 H 846.271 -6.90095 -0.935001 0
M  V30 8963 H 843.898 -7.57008 -0.695891 0
M  V30 8964 N 845.473 0.80434 -1.35529 0
M  V30 8965 C 846.72 1.56154 -1.28927 0
M  V30 8966 C 847.048 1.94026 0.135682 0
M  V30 8967 O 846.303 1.61759 1.10148 0
M  V30 8968 C 846.602 2.85988 -2.14349 0
M  V30 8969 C 846.268 2.67323 -3.6311 0
M  V30 8970 C 844.93 2.61941 -4.03659 0
M  V30 8971 C 847.282 2.49699 -4.57493 0
M  V30 8972 C 844.61 2.3688 -5.36754 0
M  V30 8973 C 846.962 2.26168 -5.90788 0
M  V30 8974 C 845.626 2.19209 -6.30479 0
M  V30 8975 H 844.896 0.571407 -0.471779 0
M  V30 8976 H 847.543 0.929193 -1.67446 0
M  V30 8977 H 845.848 3.53612 -1.68718 0
M  V30 8978 H 847.545 3.43697 -2.06576 0
M  V30 8979 H 844.135 2.72361 -3.30934 0
M  V30 8980 H 848.319 2.52869 -4.27049 0
M  V30 8981 H 843.575 2.29964 -5.66504 0
M  V30 8982 H 847.749 2.11522 -6.63499 0
M  V30 8983 H 845.376 1.99553 -7.33541 0
M  V30 8984 N 846.951 1.19563 1.02676 0
M  V30 8985 C 847.881 0.959024 2.12897 0
M  V30 8986 C 848.862 -0.108382 1.69754 0
M  V30 8987 O 850.047 0.0470698 1.94143 0
M  V30 8988 C 847.177 0.499211 3.43693 0
M  V30 8989 C 846.131 1.5087 4.00528 0
M  V30 8990 C 845.457 0.905884 5.2697 0
M  V30 8991 C 846.757 2.88954 4.3509 0
M  V30 8992 H 848.451 1.88084 2.32948 0
M  V30 8993 H 845.997 0.905731 1.11949 0
M  V30 8994 H 847.95 0.320965 4.20176 0
M  V30 8995 H 846.674 -0.458205 3.2337 0
M  V30 8996 H 845.333 1.67413 3.26142 0
M  V30 8997 H 844.981 -0.0591506 5.02965 0
M  V30 8998 H 844.681 1.58 5.65959 0
M  V30 8999 H 846.205 0.73848 6.06118 0
M  V30 9000 H 847.619 2.75981 5.02501 0
M  V30 9001 H 846.016 3.53177 4.85166 0
M  V30 9002 H 847.086 3.41447 3.44299 0
M  V30 9003 N 848.429 -1.21819 0.999893 0
M  V30 9004 C 849.376 -2.24003 0.556005 0
M  V30 9005 C 850.346 -1.60825 -0.415287 0
M  V30 9006 O 851.531 -1.88123 -0.318481 0
M  V30 9007 C 848.671 -3.44904 -0.116289 0
M  V30 9008 C 847.784 -4.22573 0.897574 0
M  V30 9009 C 846.919 -5.30831 0.198073 0
M  V30 9010 C 845.958 -6.00225 1.19983 0
M  V30 9011 N 845.095 -7.00111 0.528157 0
M  V30 9012 H 849.935 -2.61334 1.43208 0
M  V30 9013 H 847.472 -1.28431 0.717205 0
M  V30 9014 H 849.43 -4.13908 -0.523055 0
M  V30 9015 H 848.06 -3.08315 -0.956108 0
M  V30 9016 H 847.112 -3.52797 1.42262 0
M  V30 9017 H 848.424 -4.70363 1.66013 0
M  V30 9018 H 847.578 -6.06121 -0.265065 0
M  V30 9019 H 846.317 -4.84033 -0.596924 0
M  V30 9020 H 845.322 -5.23711 1.67353 0
M  V30 9021 H 846.547 -6.4911 1.99582 0
M  V30 9022 H 844.493 -6.55534 -0.247276 0
M  V30 9023 H 844.41 -7.45943 1.22904 0
M  V30 9024 H 845.678 -7.7945 0.0880543 0
M  V30 9025 N 849.908 -0.773975 -1.37286 0
M  V30 9026 C 850.856 -0.149581 -2.32119 0
M  V30 9027 C 851.85 0.682457 -1.55045 0
M  V30 9028 O 853.056 0.579269 -1.70424 0
M  V30 9029 H 849.431 -0.0295857 -0.751418 0
M  V30 9030 H 851.402 -0.965117 -2.82362 0
M  V30 9031 C 850.151 0.713409 -3.40302 0
M  V30 9032 H 849.474 0.0825416 -3.99715 0
M  V30 9033 H 850.914 1.11723 -4.09016 0
M  V30 9034 C 849.373 1.86498 -2.80571 0
M  V30 9035 O 849.903 2.9606 -2.71498 0
M  V30 9036 N 848.109 1.66629 -2.38082 0
M  V30 9037 H 847.656 0.775145 -2.45661 0
M  V30 9038 H 847.614 2.43845 -1.98461 0
M  V30 9039 N 851.386 1.48609 -0.524698 0
M  V30 9040 C 852.633 2.02497 0.0113214 0
M  V30 9041 C 852.961 1.40229 1.34781 0
M  V30 9042 O 852.216 0.53557 1.88229 0
M  V30 9043 C 852.515 3.56906 0.187873 0
M  V30 9044 C 852.181 4.37932 -1.07359 0
M  V30 9045 C 850.843 4.59792 -1.41933 0
M  V30 9046 C 853.195 4.84902 -1.911 0
M  V30 9047 C 850.523 5.25868 -2.60154 0
M  V30 9048 C 852.875 5.52281 -3.08495 0
M  V30 9049 C 851.539 5.7238 -3.4342 0
M  V30 9050 H 850.809 0.740988 0.0041428 0
M  V30 9051 H 853.456 1.78651 -0.689652 0
M  V30 9052 H 851.761 3.79563 0.971572 0
M  V30 9053 H 853.458 3.96218 0.617443 0
M  V30 9054 H 850.048 4.21175 -0.794331 0
M  V30 9055 H 854.232 4.67821 -1.65701 0
M  V30 9056 H 849.488 5.39628 -2.87422 0
M  V30 9057 H 853.662 5.87645 -3.73692 0
M  V30 9058 H 851.289 6.23354 -4.35126 0
M  V30 9059 N 852.864 0.259585 1.55447 0
M  V30 9060 C 854.094 -0.364863 2.03353 0
M  V30 9061 C 854.502 -1.5116 1.13786 0
M  V30 9062 O 853.845 -1.83109 0.147283 0
M  V30 9063 C 853.907 -0.922587 3.4746 0
M  V30 9064 C 853.571 0.0935207 4.56904 0
M  V30 9065 C 854.568 0.907571 5.11917 0
M  V30 9066 C 852.253 0.223276 5.01804 0
M  V30 9067 C 854.247 1.83771 6.10333 0
M  V30 9068 C 851.934 1.15691 6.00049 0
M  V30 9069 C 852.932 1.96264 6.54194 0
M  V30 9070 O 852.62 2.88052 7.50521 0
M  V30 9071 H 852.352 -0.0893313 0.670072 0
M  V30 9072 H 854.906 0.384821 2.01763 0
M  V30 9073 H 853.136 -1.72206 3.4624 0
M  V30 9074 H 854.825 -1.45846 3.78792 0
M  V30 9075 H 855.591 0.817979 4.78052 0
M  V30 9076 H 851.47 -0.393834 4.59315 0
M  V30 9077 H 855.014 2.46703 6.52521 0
M  V30 9078 H 850.911 1.24738 6.33333 0
M  V30 9079 H 851.679 2.82557 7.68182 0
M  V30 9080 N 854.342 -1.57594 -0.0133615 0
M  V30 9081 C 855.305 -2.06534 -0.993799 0
M  V30 9082 C 856.305 -0.972267 -1.28077 0
M  V30 9083 O 857.495 -1.23537 -1.22818 0
M  V30 9084 C 854.627 -2.49554 -2.3224 0
M  V30 9085 H 855.82 -2.94419 -0.570741 0
M  V30 9086 H 853.373 -1.54113 -0.260546 0
M  V30 9087 H 854.108 -1.64872 -2.79263 0
M  V30 9088 H 853.893 -3.29371 -2.12737 0
M  V30 9089 H 855.383 -2.8779 -3.026 0
M  V30 9090 N 855.82 0.285905 -1.54985 0
M  V30 9091 C 856.73 1.37534 -1.90057 0
M  V30 9092 C 857.746 1.54707 -0.796348 0
M  V30 9093 O 858.922 1.69082 -1.09423 0
M  V30 9094 C 855.987 2.7167 -2.15398 0
M  V30 9095 C 855.048 2.63354 -3.39033 0
M  V30 9096 C 854.281 3.91093 -3.63155 0
M  V30 9097 O 854.504 4.91169 -2.90015 0
M  V30 9098 O 853.438 3.92075 -4.56685 0
M  V30 9099 H 857.264 1.10791 -2.8277 0
M  V30 9100 H 854.849 0.483303 -1.41367 0
M  V30 9101 H 856.731 3.51006 -2.33179 0
M  V30 9102 H 855.406 2.98226 -1.25868 0
M  V30 9103 H 854.313 1.82438 -3.26599 0
M  V30 9104 H 855.646 2.41749 -4.2874 0
M  V30 9105 N 857.298 1.47698 0.54982 0
M  V30 9106 C 858.261 1.60282 1.63837 0
M  V30 9107 C 859.261 0.477394 1.5355 0
M  V30 9108 O 860.451 0.742665 1.57576 0
M  V30 9109 C 857.583 1.55431 3.03404 0
M  V30 9110 H 858.776 2.57325 1.54026 0
M  V30 9111 H 856.329 1.35999 0.770329 0
M  V30 9112 H 857.064 0.597912 3.1874 0
M  V30 9113 H 856.849 2.37116 3.12279 0
M  V30 9114 H 858.339 1.6739 3.82584 0
M  V30 9115 N 858.776 -0.797141 1.35954 0
M  V30 9116 C 860.023 -1.55468 1.29754 0
M  V30 9117 C 860.351 -1.94095 -0.125391 0
M  V30 9118 O 859.606 -1.62341 -1.09288 0
M  V30 9119 C 859.905 -2.84847 2.15863 0
M  V30 9120 C 859.571 -2.65394 3.64523 0
M  V30 9121 C 858.233 -2.59796 4.05042 0
M  V30 9122 C 860.585 -2.4727 4.58811 0
M  V30 9123 C 857.913 -2.3403 5.38002 0
M  V30 9124 C 860.265 -2.23032 5.91979 0
M  V30 9125 C 858.929 -2.15862 6.31633 0
M  V30 9126 H 858.199 -0.568897 0.474803 0
M  V30 9127 H 860.846 -0.920299 1.67937 0
M  V30 9128 H 859.151 -3.52712 1.70591 0
M  V30 9129 H 860.848 -3.42597 2.08395 0
M  V30 9130 H 857.438 -2.70602 3.32374 0
M  V30 9131 H 861.622 -2.506 4.28384 0
M  V30 9132 H 856.878 -2.26956 5.67715 0
M  V30 9133 H 861.052 -2.08001 6.64612 0
M  V30 9134 H 858.679 -1.9566 7.34589 0
M  V30 9135 N 860.254 -1.20106 -1.0204 0
M  V30 9136 C 861.501 -1.00889 -1.75578 0
M  V30 9137 C 861.829 0.459415 -1.88996 0
M  V30 9138 O 861.084 1.35735 -1.40977 0
M  V30 9139 C 861.383 -1.63308 -3.17908 0
M  V30 9140 C 861.049 -3.13091 -3.24476 0
M  V30 9141 C 859.711 -3.53968 -3.25976 0
M  V30 9142 C 862.063 -4.09093 -3.22944 0
M  V30 9143 C 859.391 -4.89381 -3.2361 0
M  V30 9144 C 861.743 -5.44447 -3.22119 0
M  V30 9145 C 860.407 -5.84742 -3.2192 0
M  V30 9146 H 859.677 -0.36918 -0.642485 0
M  V30 9147 H 862.324 -1.49475 -1.19706 0
M  V30 9148 H 860.629 -1.06974 -3.76914 0
M  V30 9149 H 862.326 -1.45958 -3.73493 0
M  V30 9150 H 858.916 -2.80526 -3.24042 0
M  V30 9151 H 863.1 -3.78549 -3.20958 0
M  V30 9152 H 858.356 -5.1987 -3.21785 0
M  V30 9153 H 862.53 -6.18584 -3.19885 0
M  V30 9154 H 860.157 -6.89642 -3.19841 0
M  V30 9155 N 861.732 1.21287 -1.00634 0
M  V30 9156 C 863.143 1.72136 -0.722914 0
M  V30 9157 C 863.494 1.8091 0.759338 0
M  V30 9158 O 862.619 1.46458 1.59308 0
M  V30 9159 C 863.214 3.12633 -1.30561 0
M  V30 9160 C 861.773 3.60833 -1.07127 0
M  V30 9161 C 860.92 2.38326 -1.4176 0
M  V30 9162 H 863.871 1.06445 -1.17708 0
M  V30 9163 H 863.892 3.74174 -0.690937 0
M  V30 9164 H 863.404 3.06215 -2.38441 0
M  V30 9165 H 861.505 3.72599 -0.00968671 0
M  V30 9166 H 861.618 4.46226 -1.74411 0
M  V30 9167 H 859.982 2.40575 -0.836412 0
M  V30 9168 H 860.765 2.34558 -2.50674 0
M  V30 9169 N 863.21 0.781244 1.36873 0
M  V30 9170 C 864.487 0.274217 1.93668 0
M  V30 9171 C 864.867 -1.2323 1.71399 0
M  V30 9172 O 864.215 -2.01993 1.06822 0
M  V30 9173 C 864.425 0.657939 3.42742 0
M  V30 9174 C 865.773 0.63307 4.19854 0
M  V30 9175 O 866.797 0.597909 3.51146 0
M  V30 9176 O 865.656 0.668636 5.42394 0
M  V30 9177 H 862.75 0.0658059 0.824378 0
M  V30 9178 H 865.296 0.863238 1.46104 0
M  V30 9179 H 864.068 1.69728 3.52573 0
M  V30 9180 H 863.691 0.0423678 3.97577 0
M  V30 9181 N 864.689 -1.48329 0.532571 0
M  V30 9182 C 865.622 -2.26524 -0.2761 0
M  V30 9183 C 866.6 -1.32498 -0.942496 0
M  V30 9184 O 867.784 -1.61844 -0.966376 0
M  V30 9185 C 864.911 -3.08808 -1.39124 0
M  V30 9186 C 863.957 -4.18227 -0.835984 0
M  V30 9187 S 864.79 -5.34669 0.298186 0
M  V30 9188 C 865.946 -6.20514 -0.81937 0
M  V30 9189 H 866.179 -2.94764 0.387502 0
M  V30 9190 H 863.712 -1.51081 0.318407 0
M  V30 9191 H 865.67 -3.56792 -2.03002 0
M  V30 9192 H 864.331 -2.39976 -2.02658 0
M  V30 9193 H 863.524 -4.75435 -1.67264 0
M  V30 9194 H 863.126 -3.72996 -0.27385 0
M  V30 9195 H 865.418 -6.55371 -1.7174 0
M  V30 9196 H 866.361 -7.07525 -0.285199 0
M  V30 9197 H 866.769 -5.5366 -1.10094 0
M  V30 9198 N 866.167 -0.267825 -1.55308 0
M  V30 9199 C 867.413 0.351556 -1.9973 0
M  V30 9200 C 867.746 1.56049 -1.15596 0
M  V30 9201 O 867.021 1.93203 -0.224274 0
M  V30 9202 C 867.304 0.74091 -3.52395 0
M  V30 9203 C 867.157 -0.474861 -4.47286 0
M  V30 9204 C 868.476 1.5801 -4.10756 0
M  V30 9205 H 865.595 0.126308 -0.726096 0
M  V30 9206 H 868.237 -0.373316 -1.86296 0
M  V30 9207 H 866.387 1.35851 -3.63973 0
M  V30 9208 H 868.059 -1.1134 -4.47662 0
M  V30 9209 H 866.302 -1.11425 -4.19246 0
M  V30 9210 H 866.973 -0.158782 -5.51772 0
M  V30 9211 H 869.449 1.05857 -4.0241 0
M  V30 9212 H 868.325 1.82135 -5.17801 0
M  V30 9213 H 868.586 2.55878 -3.60526 0
M  V30 9214 N 867.645 1.57599 0.00500368 0
M  V30 9215 C 868.593 2.09223 1.01628 0
M  V30 9216 C 869.587 1.01113 1.35913 0
M  V30 9217 O 870.793 1.19583 1.34536 0
M  V30 9218 H 867.168 0.667999 0.345372 0
M  V30 9219 H 869.139 2.93188 0.555274 0
M  V30 9220 C 867.888 2.60674 2.30097 0
M  V30 9221 H 867.211 3.43491 2.04582 0
M  V30 9222 H 868.651 3.00479 2.99146 0
M  V30 9223 C 867.11 1.51862 3.00731 0
M  V30 9224 O 867.64 0.898651 3.91519 0
M  V30 9225 N 865.846 1.24729 2.62471 0
M  V30 9226 H 865.393 1.7533 1.88725 0
M  V30 9227 H 865.351 0.521437 3.10046 0
M  V30 9228 N 869.123 -0.277682 1.55134 0
M  V30 9229 C 870.056 -1.3685 1.82612 0
M  V30 9230 C 871.034 -1.47752 0.678833 0
M  V30 9231 O 872.218 -1.6445 0.921329 0
M  V30 9232 C 869.345 -2.74539 1.98359 0
M  V30 9233 C 868.391 -2.80945 3.20893 0
M  V30 9234 S 869.224 -2.40666 4.78373 0
M  V30 9235 C 870.38 -3.80338 4.97085 0
M  V30 9236 H 870.613 -1.13338 2.74849 0
M  V30 9237 H 868.146 -0.477063 1.46845 0
M  V30 9238 H 870.104 -3.53834 2.08115 0
M  V30 9239 H 868.765 -2.95306 1.07019 0
M  V30 9240 H 867.958 -3.81992 3.28783 0
M  V30 9241 H 867.56 -2.09667 3.09703 0
M  V30 9242 H 869.852 -4.75565 4.8254 0
M  V30 9243 H 870.795 -3.77403 5.99143 0
M  V30 9244 H 871.203 -3.71424 4.25094 0
M  V30 9245 N 870.601 -1.47988 -0.541979 0
M  V30 9246 C 871.847 -1.55623 -1.30036 0
M  V30 9247 C 872.18 -0.224254 -1.92901 0
M  V30 9248 O 871.455 0.768629 -1.78668 0
M  V30 9249 C 871.738 -2.68562 -2.39888 0
M  V30 9250 C 871.591 -4.11426 -1.81792 0
M  V30 9251 C 872.91 -2.77325 -3.41729 0
M  V30 9252 H 870.029 -0.566498 -0.471433 0
M  V30 9253 H 872.671 -1.8011 -0.604998 0
M  V30 9254 H 870.821 -2.47814 -2.992 0
M  V30 9255 H 872.493 -4.43581 -1.26624 0
M  V30 9256 H 870.736 -4.18989 -1.12386 0
M  V30 9257 H 871.407 -4.8625 -2.61276 0
M  V30 9258 H 873.883 -2.96085 -2.92357 0
M  V30 9259 H 872.759 -3.58097 -4.16002 0
M  V30 9260 H 873.02 -1.84995 -4.01534 0
M  V30 9261 N 872.079 0.78992 -1.36375 0
M  V30 9262 C 873.325 1.55007 -1.3077 0
M  V30 9263 C 873.658 1.93871 0.112979 0
M  V30 9264 O 872.933 1.6267 1.06625 0
M  V30 9265 C 873.216 2.82748 -2.22993 0
M  V30 9266 C 873.069 2.50253 -3.73756 0
M  V30 9267 C 874.388 3.84569 -2.13998 0
M  V30 9268 H 871.507 0.562362 -0.476359 0
M  V30 9269 H 874.149 0.907582 -1.66922 0
M  V30 9270 H 872.299 3.37573 -1.92292 0
M  V30 9271 H 873.971 2.01482 -4.14973 0
M  V30 9272 H 872.214 1.83203 -3.93216 0
M  V30 9273 H 872.885 3.41487 -4.33694 0
M  V30 9274 H 875.361 3.39188 -2.4102 0
M  V30 9275 H 874.237 4.717 -2.80697 0
M  V30 9276 H 874.498 4.27491 -1.12711 0
M  V30 9277 N 873.557 1.20646 1.01402 0
M  V30 9278 C 874.487 0.98155 2.11867 0
M  V30 9279 C 875.468 -0.0903712 1.6986 0
M  V30 9280 O 876.653 0.0676586 1.94082 0
M  V30 9281 C 873.783 0.535636 3.43145 0
M  V30 9282 C 872.737 1.55109 3.98905 0
M  V30 9283 C 872.063 0.961725 5.2598 0
M  V30 9284 C 873.363 2.93552 4.32001 0
M  V30 9285 H 875.057 1.90544 2.3094 0
M  V30 9286 H 872.603 0.917554 1.10982 0
M  V30 9287 H 874.556 0.365512 4.19812 0
M  V30 9288 H 873.28 -0.423882 3.23838 0
M  V30 9289 H 871.939 1.70862 3.24348 0
M  V30 9290 H 871.587 -0.00580108 5.03 0
M  V30 9291 H 871.287 1.63993 5.64252 0
M  V30 9292 H 872.811 0.802726 6.053 0
M  V30 9293 H 874.225 2.81295 4.99546 0
M  V30 9294 H 872.622 3.58303 4.81393 0
M  V30 9295 H 873.692 3.4508 3.40658 0
M  V30 9296 N 875.035 -1.20752 1.01276 0
M  V30 9297 C 876.283 -1.89645 0.698505 0
M  V30 9298 C 876.604 -1.78986 -0.773883 0
M  V30 9299 O 875.874 -1.18977 -1.55632 0
M  V30 9300 H 874.454 -0.701992 0.255375 0
M  V30 9301 H 877.116 -1.46668 1.28353 0
M  V30 9302 H 876.212 -2.96364 0.978512 0
M  V30 9303 N 876.513 -0.788492 -1.36457 0
M  V30 9304 C 877.46 -0.18435 -2.30063 0
M  V30 9305 C 878.43 0.67128 -1.51931 0
M  V30 9306 O 879.615 0.620152 -1.8044 0
M  V30 9307 C 876.755 0.675596 -3.38422 0
M  V30 9308 C 875.868 -0.198475 -4.31544 0
M  V30 9309 C 875.003 0.667757 -5.26986 0
M  V30 9310 C 874.042 -0.207825 -6.11747 0
M  V30 9311 N 873.179 0.617335 -6.99381 0
M  V30 9312 H 878.019 -0.988056 -2.81143 0
M  V30 9313 H 875.556 -0.498815 -1.38384 0
M  V30 9314 H 877.514 1.18916 -3.99894 0
M  V30 9315 H 876.144 1.44474 -2.88664 0
M  V30 9316 H 875.196 -0.829995 -3.71235 0
M  V30 9317 H 876.508 -0.873163 -4.91098 0
M  V30 9318 H 875.662 1.24716 -5.93743 0
M  V30 9319 H 874.401 1.37607 -4.67884 0
M  V30 9320 H 873.406 -0.799638 -5.43954 0
M  V30 9321 H 874.631 -0.913729 -6.72925 0
M  V30 9322 H 872.577 1.30996 -6.42788 0
M  V30 9323 H 872.494 0.000307255 -7.56 0
M  V30 9324 H 873.762 1.1806 -7.70508 0
M  V30 9325 N 877.991 1.48044 -0.54043 0
M  V30 9326 C 879.221 2.06595 -0.0144943 0
M  V30 9327 C 879.629 1.39593 1.27713 0
M  V30 9328 O 878.972 0.480794 1.77297 0
M  V30 9329 C 879.034 3.5849 0.269316 0
M  V30 9330 C 878.698 4.47429 -0.930372 0
M  V30 9331 C 879.695 4.8657 -1.83155 0
M  V30 9332 C 877.38 4.89185 -1.14032 0
M  V30 9333 C 879.374 5.66246 -2.92649 0
M  V30 9334 C 877.061 5.6863 -2.23838 0
M  V30 9335 C 878.059 6.07069 -3.12979 0
M  V30 9336 O 877.747 6.84917 -4.20884 0
M  V30 9337 H 877.479 0.675086 -0.0351467 0
M  V30 9338 H 880.033 1.91275 -0.74853 0
M  V30 9339 H 878.263 3.71961 1.05745 0
M  V30 9340 H 879.952 3.99124 0.738595 0
M  V30 9341 H 880.718 4.54924 -1.68134 0
M  V30 9342 H 876.597 4.58742 -0.455717 0
M  V30 9343 H 880.141 5.96169 -3.62254 0
M  V30 9344 H 876.038 5.99688 -2.38839 0
M  V30 9345 H 876.806 7.03287 -4.18723 0
M  V30 9346 N 879.47 0.276058 1.55163 0
M  V30 9347 C 880.4 -0.604633 2.25536 0
M  V30 9348 C 881.381 -1.15813 1.24585 0
M  V30 9349 O 882.566 -1.1921 1.53306 0
M  V30 9350 C 879.696 -1.78836 2.97716 0
M  V30 9351 C 878.65 -1.36635 4.05604 0
M  V30 9352 C 877.976 -2.63325 4.65364 0
M  V30 9353 C 879.276 -0.515858 5.19746 0
M  V30 9354 H 880.97 -0.0177483 2.99395 0
M  V30 9355 H 878.516 -0.00709627 1.43998 0
M  V30 9356 H 880.469 -2.41036 3.45658 0
M  V30 9357 H 879.193 -2.40109 2.21394 0
M  V30 9358 H 877.852 -0.767541 3.58475 0
M  V30 9359 H 877.5 -3.22858 3.85709 0
M  V30 9360 H 877.2 -2.358 5.38212 0
M  V30 9361 H 878.724 -3.26372 5.16056 0
M  V30 9362 H 880.138 -1.04289 5.63735 0
M  V30 9363 H 878.535 -0.335449 5.99162 0
M  V30 9364 H 879.605 0.465137 4.82664 0
M  V30 9365 N 880.948 -1.576 0.00335426 0
M  V30 9366 C 882.196 -1.90336 -0.679446 0
M  V30 9367 C 882.517 -0.877777 -1.74127 0
M  V30 9368 O 881.787 0.0843585 -1.95718 0
M  V30 9369 H 880.367 -0.702509 -0.253948 0
M  V30 9370 H 883.029 -1.94848 0.0450731 0
M  V30 9371 H 882.125 -2.90197 -1.14857 0
M  V30 9372 N 882.426 0.269451 -1.5528 0
M  V30 9373 C 883.675 0.998381 -1.75258 0
M  V30 9374 C 883.988 1.87321 -0.563034 0
M  V30 9375 O 885.194 2.63719 -0.645313 0
M  V30 9376 C 883.65 1.82505 -3.10193 0
M  V30 9377 C 883.258 0.99871 -4.36726 0
M  V30 9378 C 885.002 2.54807 -3.3952 0
M  V30 9379 C 882.909 1.81997 -5.627 0
M  V30 9380 H 881.839 0.376488 -0.653278 0
M  V30 9381 H 884.49 0.253909 -1.81735 0
M  V30 9382 H 882.872 2.61061 -2.97763 0
M  V30 9383 H 884.046 0.257064 -4.60082 0
M  V30 9384 H 882.361 0.390074 -4.14569 0
M  V30 9385 H 884.958 3.16662 -4.30847 0
M  V30 9386 H 885.301 3.25273 -2.59813 0
M  V30 9387 H 885.834 1.83278 -3.53064 0
M  V30 9388 H 882.573 1.15945 -6.45164 0
M  V30 9389 H 882.093 2.53749 -5.43481 0
M  V30 9390 H 883.772 2.39274 -6.0113 0
M  V30 9391 N 883.904 1.48273 0.534124 0
M  V30 9392 C 885.315 1.49667 1.1161 0
M  V30 9393 C 885.666 0.264139 1.94414 0
M  V30 9394 O 884.791 -0.629084 2.07054 0
M  V30 9395 C 885.386 2.71191 2.03079 0
M  V30 9396 C 883.945 2.7547 2.56502 0
M  V30 9397 C 883.092 2.43119 1.33373 0
M  V30 9398 H 886.043 1.55449 0.319578 0
M  V30 9399 H 886.064 2.49473 2.87304 0
M  V30 9400 H 885.576 3.60879 1.42785 0
M  V30 9401 H 883.677 1.89979 3.20529 0
M  V30 9402 H 883.79 3.76787 2.95919 0
M  V30 9403 H 882.154 1.94187 1.64813 0
M  V30 9404 H 882.937 3.35044 0.748375 0
M  V30 9405 N 885.382 -0.782676 1.36792 0
M  V30 9406 C 886.329 -1.89558 1.31667 0
M  V30 9407 C 887.299 -1.65076 0.184147 0
M  V30 9408 O 888.484 -1.87143 0.371753 0
M  V30 9409 C 885.624 -3.26469 1.11858 0
M  V30 9410 C 884.737 -3.62978 2.34245 0
M  V30 9411 C 883.872 -4.89041 2.07394 0
M  V30 9412 C 882.911 -5.18249 3.25706 0
M  V30 9413 N 882.048 -6.35497 2.98476 0
M  V30 9414 H 886.888 -1.93274 2.26824 0
M  V30 9415 H 884.425 -0.945057 1.12726 0
M  V30 9416 H 886.383 -4.05431 0.983968 0
M  V30 9417 H 885.013 -3.22158 0.203531 0
M  V30 9418 H 884.065 -2.79087 2.58485 0
M  V30 9419 H 885.377 -3.80507 3.22514 0
M  V30 9420 H 884.531 -5.75883 1.90901 0
M  V30 9421 H 883.27 -4.73594 1.16446 0
M  V30 9422 H 882.275 -4.29887 3.4275 0
M  V30 9423 H 883.5 -5.35611 4.1749 0
M  V30 9424 H 881.446 -6.21429 2.10146 0
M  V30 9425 H 881.363 -6.5339 3.80286 0
M  V30 9426 H 882.631 -7.25304 2.85577 0
M  V30 9427 N 886.86 -1.21182 -1.00761 0
M  V30 9428 C 888.271 -1.02652 -1.55947 0
M  V30 9429 C 888.622 0.414466 -1.91772 0
M  V30 9430 O 887.747 1.29727 -1.73204 0
M  V30 9431 C 888.342 -1.85713 -2.83366 0
M  V30 9432 C 886.901 -1.71523 -3.35048 0
M  V30 9433 C 886.048 -1.83087 -2.08265 0
M  V30 9434 H 888.999 -1.35242 -0.830379 0
M  V30 9435 H 889.02 -1.36583 -3.55141 0
M  V30 9436 H 888.532 -2.90584 -2.5726 0
M  V30 9437 H 886.633 -0.693257 -3.66094 0
M  V30 9438 H 886.746 -2.53333 -4.06644 0
M  V30 9439 H 885.11 -1.26367 -2.21141 0
M  V30 9440 H 885.893 -2.8946 -1.84575 0
M  V30 9441 N 888.338 1.20213 -1.01915 0
M  V30 9442 C 889.568 1.93341 -0.728197 0
M  V30 9443 C 889.976 1.75151 0.715454 0
M  V30 9444 O 889.319 1.06437 1.49722 0
M  V30 9445 C 889.381 3.45677 -0.9873 0
M  V30 9446 C 889.045 3.8763 -2.42057 0
M  V30 9447 C 890.042 3.93184 -3.40151 0
M  V30 9448 C 887.727 4.19547 -2.76199 0
M  V30 9449 C 889.721 4.30069 -4.70446 0
M  V30 9450 C 887.408 4.56106 -4.06707 0
M  V30 9451 C 888.406 4.6134 -5.03641 0
M  V30 9452 O 888.094 4.97059 -6.31813 0
M  V30 9453 H 887.826 0.621258 -0.266485 0
M  V30 9454 H 890.38 1.53577 -1.36393 0
M  V30 9455 H 888.61 3.85578 -0.294405 0
M  V30 9456 H 890.299 4.00035 -0.687536 0
M  V30 9457 H 891.065 3.68687 -3.15111 0
M  V30 9458 H 886.944 4.14663 -2.01434 0
M  V30 9459 H 890.488 4.34069 -5.46105 0
M  V30 9460 H 886.385 4.80059 -4.31525 0
M  V30 9461 H 887.153 5.15043 -6.36139 0
M  V30 9462 N 889.816 0.795718 1.36037 0
M  V30 9463 C 891.064 0.370291 1.98679 0
M  V30 9464 C 891.385 -1.06332 1.63458 0
M  V30 9465 O 890.655 -1.73394 0.911671 0
M  V30 9466 H 889.235 0.133928 0.734896 0
M  V30 9467 H 891.897 1.01915 1.6613 0
M  V30 9468 H 890.993 0.467207 3.08583 0
M  V30 9469 N 891.294 -1.47756 0.548274 0
M  V30 9470 C 892.705 -1.8636 0.112547 0
M  V30 9471 C 893.056 -1.45589 -1.31523 0
M  V30 9472 O 892.181 -0.854874 -1.98799 0
M  V30 9473 C 892.776 -3.38224 0.197473 0
M  V30 9474 C 891.335 -3.75954 -0.183163 0
M  V30 9475 C 890.482 -2.7181 0.549059 0
M  V30 9476 H 893.433 -1.394 0.758506 0
M  V30 9477 H 893.454 -3.75957 -0.586217 0
M  V30 9478 H 892.966 -3.67868 1.23673 0
M  V30 9479 H 891.067 -3.51926 -1.22387 0
M  V30 9480 H 891.18 -4.78801 0.169178 0
M  V30 9481 H 889.544 -2.54699 -0.00682862 0
M  V30 9482 H 890.327 -3.04296 1.5893 0
M  V30 9483 N 892.772 -0.284283 -1.55015 0
M  V30 9484 C 894.021 0.33055 -1.98973 0
M  V30 9485 C 894.334 1.56284 -1.17621 0
M  V30 9486 O 895.54 2.2512 -1.51767 0
M  V30 9487 C 893.996 0.639457 -3.54174 0
M  V30 9488 C 893.604 -0.573543 -4.44313 0
M  V30 9489 C 895.348 1.21641 -4.06699 0
M  V30 9490 C 893.255 -0.238715 -5.90918 0
M  V30 9491 H 892.185 0.127285 -0.743179 0
M  V30 9492 H 894.836 -0.390372 -1.793 0
M  V30 9493 H 893.218 1.41953 -3.69683 0
M  V30 9494 H 894.392 -1.3502 -4.40575 0
M  V30 9495 H 892.707 -1.06797 -4.02472 0
M  V30 9496 H 895.304 1.48088 -5.13784 0
M  V30 9497 H 895.647 2.15328 -3.56286 0
M  V30 9498 H 896.18 0.498422 -3.94665 0
M  V30 9499 H 892.919 -1.1437 -6.45445 0
M  V30 9500 H 892.439 0.500997 -5.97704 0
M  V30 9501 H 894.118 0.165774 -6.46788 0
M  V30 9502 N 894.251 1.57596 -0.0117121 0
M  V30 9503 C 895.5 1.9025 0.669921 0
M  V30 9504 C 895.813 0.887986 1.74282 0
M  V30 9505 O 897.019 1.10516 2.47989 0
M  V30 9506 C 895.475 3.37762 1.24277 0
M  V30 9507 C 895.083 4.47535 0.204076 0
M  V30 9508 C 896.827 3.79509 1.90192 0
M  V30 9509 C 894.734 5.86132 0.787577 0
M  V30 9510 H 893.664 0.709935 0.253984 0
M  V30 9511 H 896.315 1.8335 -0.0741718 0
M  V30 9512 H 894.697 3.39537 2.03791 0
M  V30 9513 H 895.871 4.57294 -0.56733 0
M  V30 9514 H 894.186 4.14881 -0.355305 0
M  V30 9515 H 896.783 4.80402 2.34773 0
M  V30 9516 H 897.126 3.13643 2.7374 0
M  V30 9517 H 897.659 3.80084 1.17394 0
M  V30 9518 H 894.398 6.55499 -0.00938418 0
M  V30 9519 H 893.918 5.80014 1.52787 0
M  V30 9520 H 895.597 6.34158 1.28265 0
M  V30 9521 N 895.729 -0.261212 1.5542 0
M  V30 9522 C 896.677 -1.34298 1.89913 0
M  V30 9523 C 897.671 -1.50547 0.776665 0
M  V30 9524 O 898.877 -1.52191 0.961139 0
M  V30 9525 H 895.252 -0.4494 0.602946 0
M  V30 9526 H 897.223 -1.02464 2.80256 0
M  V30 9527 C 895.972 -2.69423 2.19788 0
M  V30 9528 H 895.295 -2.57715 3.05652 0
M  V30 9529 H 896.735 -3.44026 2.47835 0
M  V30 9530 C 895.194 -3.21423 1.00939 0
M  V30 9531 O 895.724 -4.00921 0.250034 0
M  V30 9532 N 893.93 -2.7926 0.803883 0
M  V30 9533 H 893.477 -2.14724 1.42308 0
M  V30 9534 H 893.435 -3.14398 0.0103257 0
M  V30 9535 N 897.207 -1.48554 -0.526253 0
M  V30 9536 C 898.455 -1.56452 -1.27935 0
M  V30 9537 C 898.776 -0.24184 -1.93495 0
M  V30 9538 O 898.046 0.736917 -1.81511 0
M  V30 9539 H 896.626 -0.576379 -0.47518 0
M  V30 9540 H 899.288 -1.85039 -0.612083 0
M  V30 9541 H 898.384 -2.34751 -2.05666 0
M  V30 9542 N 898.685 0.775411 -1.37205 0
M  V30 9543 C 900.101 1.07546 -1.17924 0
M  V30 9544 C 900.301 2.01496 -0.0128897 0
M  V30 9545 O 899.357 2.44039 0.64816 0
M  V30 9546 C 900.67 1.67647 -2.49629 0
M  V30 9547 C 902.218 1.79923 -2.56119 0
M  V30 9548 C 902.693 2.43438 -3.87946 0
M  V30 9549 N 904.184 2.50893 -3.89368 0
M  V30 9550 C 904.919 3.00881 -4.88117 0
M  V30 9551 N 904.415 3.5107 -5.97262 0
M  V30 9552 N 906.208 2.99722 -4.75524 0
M  V30 9553 H 898.359 0.151524 -2.11859 0
M  V30 9554 H 900.622 0.129845 -0.939066 0
M  V30 9555 H 900.328 1.06082 -3.3532 0
M  V30 9556 H 900.202 2.66988 -2.66453 0
M  V30 9557 H 902.589 2.40621 -1.70838 0
M  V30 9558 H 902.67 0.793482 -2.43182 0
M  V30 9559 H 902.314 1.8338 -4.73639 0
M  V30 9560 H 902.244 3.44611 -3.98184 0
M  V30 9561 H 904.735 2.1537 -3.10522 0
M  V30 9562 H 905.048 3.87604 -6.68568 0
M  V30 9563 H 903.393 3.49184 -6.00912 0
M  V30 9564 H 906.584 2.5981 -3.8938 0
M  V30 9565 H 906.757 3.38369 -5.52639 0
M  V30 9566 N 900.163 1.21714 1.00117 0
M  V30 9567 C 901.403 1.04818 1.75478 0
M  V30 9568 C 901.767 -0.410653 1.87557 0
M  V30 9569 O 902.968 -0.700241 2.59519 0
M  V30 9570 C 901.239 1.73055 3.12709 0
M  V30 9571 S 902.798 1.71464 4.03913 0
M  V30 9572 H 899.616 0.375534 0.603734 0
M  V30 9573 H 902.218 1.54522 1.19763 0
M  V30 9574 H 900.922 2.78376 3.01554 0
M  V30 9575 H 900.453 1.23546 3.73497 0
M  V30 9576 H 902.468 0.75845 4.90369 0
M  V30 9577 N 901.641 -1.19671 1.02551 0
M  V30 9578 C 902.881 -1.90971 0.728668 0
M  V30 9579 C 903.245 -1.7762 -0.729057 0
M  V30 9580 O 904.446 -2.43484 -1.13882 0
M  V30 9581 C 902.717 -3.3794 1.16323 0
M  V30 9582 S 904.276 -4.27493 0.989722 0
M  V30 9583 H 901.094 -0.659617 0.265381 0
M  V30 9584 H 903.696 -1.44698 1.31463 0
M  V30 9585 H 902.4 -3.45181 2.21986 0
M  V30 9586 H 901.931 -3.89243 0.570417 0
M  V30 9587 H 903.946 -4.96096 -0.101666 0
M  V30 9588 N 903.119 -0.802921 -1.35613 0
M  V30 9589 C 904.049 -0.225131 -2.32412 0
M  V30 9590 C 905.03 0.647383 -1.57299 0
M  V30 9591 O 906.215 0.578414 -1.85386 0
M  V30 9592 C 903.345 0.630085 -3.41537 0
M  V30 9593 C 902.299 -0.143635 -4.27759 0
M  V30 9594 C 901.625 0.833046 -5.28171 0
M  V30 9595 C 902.925 -1.34054 -5.04804 0
M  V30 9596 H 904.619 -1.03385 -2.80984 0
M  V30 9597 H 902.165 -0.498593 -1.35093 0
M  V30 9598 H 904.118 1.04433 -4.08254 0
M  V30 9599 H 902.842 1.47165 -2.91565 0
M  V30 9600 H 901.501 -0.539015 -3.62616 0
M  V30 9601 H 901.149 1.67001 -4.74468 0
M  V30 9602 H 900.849 0.319697 -5.8673 0
M  V30 9603 H 902.373 1.24558 -5.97761 0
M  V30 9604 H 903.787 -1.00136 -5.64487 0
M  V30 9605 H 902.184 -1.78812 -5.72841 0
M  V30 9606 H 903.254 -2.12906 -4.35659 0
M  V30 9607 N 904.597 1.47463 -0.556102 0
M  V30 9608 C 905.507 2.33785 0.195378 0
M  V30 9609 C 906.523 1.48123 0.913 0
M  V30 9610 O 907.699 1.81053 0.882141 0
M  V30 9611 C 904.764 3.24795 1.21282 0
M  V30 9612 C 903.825 4.26346 0.502747 0
M  V30 9613 C 903.058 5.13007 1.47172 0
M  V30 9614 O 903.281 5.02103 2.70646 0
M  V30 9615 O 902.215 5.93588 0.996814 0
M  V30 9616 H 906.041 2.99341 -0.512676 0
M  V30 9617 H 903.626 1.46004 -0.31673 0
M  V30 9618 H 905.508 3.81015 1.80016 0
M  V30 9619 H 904.183 2.61868 1.90282 0
M  V30 9620 H 903.09 3.73889 -0.125757 0
M  V30 9621 H 904.423 4.91984 -0.145779 0
M  V30 9622 N 906.075 0.2925 1.54862 0
M  V30 9623 C 906.985 -0.597036 2.26876 0
M  V30 9624 C 908.001 -1.15558 1.30086 0
M  V30 9625 O 909.177 -1.18217 1.63054 0
M  V30 9626 C 906.242 -1.75664 2.98903 0
M  V30 9627 C 905.303 -1.23303 4.11212 0
M  V30 9628 C 904.536 -2.33736 4.79795 0
M  V30 9629 O 904.759 -3.53459 4.47686 0
M  V30 9630 O 903.693 -2.00908 5.67379 0
M  V30 9631 H 907.519 -0.0131242 3.03697 0
M  V30 9632 H 905.104 0.0592642 1.49282 0
M  V30 9633 H 906.986 -2.43241 3.4411 0
M  V30 9634 H 905.661 -2.32731 2.24984 0
M  V30 9635 H 904.568 -0.523222 3.70423 0
M  V30 9636 H 905.901 -0.707887 4.87083 0
M  V30 9637 N 907.553 -1.57587 0.0200696 0
M  V30 9638 C 908.5 -2.09667 -0.964791 0
M  V30 9639 C 909.47 -0.99664 -1.32877 0
M  V30 9640 O 910.655 -1.2703 -1.42366 0
M  V30 9641 C 907.795 -2.62101 -2.24493 0
M  V30 9642 C 906.908 -3.8608 -1.93821 0
M  V30 9643 C 906.043 -4.26939 -3.16064 0
M  V30 9644 C 905.082 -5.43701 -2.81169 0
M  V30 9645 N 904.219 -5.79759 -3.9601 0
M  V30 9646 H 909.059 -2.93538 -0.513751 0
M  V30 9647 H 906.596 -1.45096 -0.242 0
M  V30 9648 H 908.554 -2.90587 -2.99358 0
M  V30 9649 H 907.184 -1.81074 -2.6723 0
M  V30 9650 H 906.236 -3.64378 -1.09237 0
M  V30 9651 H 907.548 -4.71028 -1.64115 0
M  V30 9652 H 906.702 -4.56814 -3.99257 0
M  V30 9653 H 905.441 -3.40739 -3.48924 0
M  V30 9654 H 904.446 -5.13529 -1.96387 0
M  V30 9655 H 905.671 -6.31593 -2.49535 0
M  V30 9656 H 903.617 -4.96516 -4.28729 0
M  V30 9657 H 903.534 -6.59327 -3.69896 0
M  V30 9658 H 904.802 -6.14235 -4.79933 0
M  V30 9659 N 909.032 0.252966 -1.55557 0
M  V30 9660 C 910.278 0.983306 -1.77367 0
M  V30 9661 C 910.611 1.85203 -0.584258 0
M  V30 9662 O 909.886 1.89963 0.417644 0
M  V30 9663 C 910.169 1.84896 -3.09007 0
M  V30 9664 C 910.022 1.00883 -4.38341 0
M  V30 9665 C 911.341 2.83254 -3.36831 0
M  V30 9666 H 908.46 0.356056 -0.645286 0
M  V30 9667 H 911.102 0.254232 -1.88291 0
M  V30 9668 H 909.252 2.47058 -2.99825 0
M  V30 9669 H 910.924 0.40638 -4.59507 0
M  V30 9670 H 909.167 0.31297 -4.3267 0
M  V30 9671 H 909.838 1.64818 -5.2682 0
M  V30 9672 H 912.314 2.31228 -3.45937 0
M  V30 9673 H 911.19 3.40949 -4.30169 0
M  V30 9674 H 911.451 3.59407 -2.57447 0
M  V30 9675 N 910.51 1.48831 0.518367 0
M  V30 9676 C 911.442 1.60317 1.63802 0
M  V30 9677 C 912.455 0.486771 1.55352 0
M  V30 9678 O 913.644 0.758111 1.61601 0
M  V30 9679 C 910.744 1.52771 3.02513 0
M  V30 9680 C 909.917 2.79649 3.36326 0
M  V30 9681 C 908.976 2.65396 4.54369 0
M  V30 9682 O 908.002 3.39304 4.57013 0
M  V30 9683 N 909.204 1.75784 5.53245 0
M  V30 9684 H 911.969 2.56878 1.54383 0
M  V30 9685 H 909.53 1.45701 0.705889 0
M  V30 9686 H 911.522 1.40914 3.79375 0
M  V30 9687 H 910.092 0.641381 3.05949 0
M  V30 9688 H 909.312 3.05985 2.48529 0
M  V30 9689 H 910.6 3.63799 3.55707 0
M  V30 9690 H 909.998 1.14961 5.53896 0
M  V30 9691 H 908.555 1.69859 6.29278 0
M  V30 9692 N 911.988 -0.768124 1.37614 0
M  V30 9693 C 913.213 -1.56239 1.36397 0
M  V30 9694 C 913.638 -1.8804 -0.0475839 0
M  V30 9695 O 912.996 -1.495 -1.02564 0
M  V30 9696 C 913.044 -2.84716 2.21289 0
M  V30 9697 O 912.148 -3.79249 1.62001 0
M  V30 9698 H 911.489 -0.473119 0.465891 0
M  V30 9699 H 914.019 -0.950415 1.81186 0
M  V30 9700 H 914.029 -3.33784 2.34632 0
M  V30 9701 H 912.704 -2.60899 3.2389 0
M  V30 9702 H 911.281 -3.37904 1.57719 0
M  V30 9703 N 913.466 -1.22244 -0.994698 0
M  V30 9704 C 914.396 -1.01513 -2.10279 0
M  V30 9705 C 915.377 0.0633365 -1.69982 0
M  V30 9706 O 916.562 -0.0985268 -1.9395 0
M  V30 9707 C 913.692 -0.59016 -3.42249 0
M  V30 9708 C 912.646 -1.61436 -3.96387 0
M  V30 9709 C 911.972 -1.04528 -5.24383 0
M  V30 9710 C 913.272 -3.00388 -4.27276 0
M  V30 9711 H 914.966 -1.94194 -2.2788 0
M  V30 9712 H 912.512 -0.935094 -1.09508 0
M  V30 9713 H 914.465 -0.432254 -4.19177 0
M  V30 9714 H 913.189 0.372308 -3.24471 0
M  V30 9715 H 911.848 -1.76001 -3.21589 0
M  V30 9716 H 911.496 -0.0742225 -5.02945 0
M  V30 9717 H 911.196 -1.72949 -5.61571 0
M  V30 9718 H 912.72 -0.898922 -6.03947 0
M  V30 9719 H 914.134 -2.89207 -4.95007 0
M  V30 9720 H 912.531 -3.65916 -4.75631 0
M  V30 9721 H 913.601 -3.50456 -3.35125 0
M  V30 9722 N 914.944 1.19125 -1.03184 0
M  V30 9723 C 915.874 2.24675 -0.635889 0
M  V30 9724 C 916.855 1.66321 0.356565 0
M  V30 9725 O 918.04 1.92728 0.238625 0
M  V30 9726 C 915.17 3.47298 0.011069 0
M  V30 9727 C 914.124 4.18345 -0.903979 0
M  V30 9728 C 913.45 5.34561 -0.12197 0
M  V30 9729 C 914.75 4.72816 -2.21907 0
M  V30 9730 H 916.444 2.5805 -1.51825 0
M  V30 9731 H 913.99 1.24039 -0.73146 0
M  V30 9732 H 915.943 4.20333 0.299729 0
M  V30 9733 H 914.667 3.13131 0.928245 0
M  V30 9734 H 913.326 3.47196 -1.17688 0
M  V30 9735 H 912.974 4.9664 0.797334 0
M  V30 9736 H 912.674 5.83029 -0.731498 0
M  V30 9737 H 914.198 6.10391 0.159881 0
M  V30 9738 H 915.612 5.3759 -1.99173 0
M  V30 9739 H 914.009 5.31782 -2.78078 0
M  V30 9740 H 915.079 3.9072 -2.87168 0
M  V30 9741 N 916.422 0.810101 1.35185 0
M  V30 9742 C 917.332 0.224565 2.33523 0
M  V30 9743 C 918.348 -0.634287 1.62027 0
M  V30 9744 O 919.524 -0.545211 1.9388 0
M  V30 9745 C 916.589 -0.614319 3.41214 0
M  V30 9746 C 915.65 0.265435 4.28479 0
M  V30 9747 C 914.883 -0.533506 5.31027 0
M  V30 9748 O 915.106 -1.7679 5.42311 0
M  V30 9749 O 914.04 0.0774573 6.0185 0
M  V30 9750 H 917.866 1.03815 2.85405 0
M  V30 9751 H 915.451 0.571964 1.38018 0
M  V30 9752 H 917.333 -1.09201 4.07005 0
M  V30 9753 H 916.008 -1.40545 2.91597 0
M  V30 9754 H 914.915 0.790343 3.65656 0
M  V30 9755 H 916.248 1.0206 4.81503 0
M  V30 9756 N 917.9 -1.47166 0.563914 0
M  V30 9757 C 919.311 -1.86231 0.132307 0
M  V30 9758 C 919.662 -1.46976 -1.29971 0
M  V30 9759 O 918.787 -0.875911 -1.97881 0
M  V30 9760 C 919.382 -3.37996 0.233335 0
M  V30 9761 C 917.941 -3.76127 -0.143278 0
M  V30 9762 C 917.088 -2.71212 0.577857 0
M  V30 9763 H 920.039 -1.38588 0.773249 0
M  V30 9764 H 920.06 -3.76558 -0.546309 0
M  V30 9765 H 919.572 -3.66535 1.27568 0
M  V30 9766 H 917.673 -3.53205 -1.18648 0
M  V30 9767 H 917.786 -4.78595 0.219952 0
M  V30 9768 H 916.15 -2.54692 0.020186 0
M  V30 9769 H 916.933 -3.02593 1.62149 0
M  V30 9770 N 919.378 -0.300708 -1.54705 0
M  V30 9771 C 920.308 0.568675 -2.26469 0
M  V30 9772 C 921.289 1.13817 -1.26411 0
M  V30 9773 O 922.474 1.16756 -1.55183 0
M  V30 9774 C 919.604 1.74077 -3.00524 0
M  V30 9775 C 918.558 1.30165 -4.07727 0
M  V30 9776 C 917.884 2.55888 -4.69495 0
M  V30 9777 C 919.184 0.433106 -5.20501 0
M  V30 9778 H 920.878 -0.0298851 -2.99385 0
M  V30 9779 H 918.424 -0.0158135 -1.43991 0
M  V30 9780 H 920.377 2.35506 -3.49449 0
M  V30 9781 H 919.101 2.36556 -2.25186 0
M  V30 9782 H 917.76 0.710414 -3.59651 0
M  V30 9783 H 917.408 3.16681 -3.90797 0
M  V30 9784 H 917.108 2.27207 -5.41895 0
M  V30 9785 H 918.632 3.18121 -5.21183 0
M  V30 9786 H 920.046 0.95307 -5.65322 0
M  V30 9787 H 918.443 0.240085 -5.9962 0
M  V30 9788 H 919.513 -0.541866 -4.81863 0
M  V30 9789 N 920.856 1.57574 -0.0284266 0
M  V30 9790 C 922.104 1.91393 0.649079 0
M  V30 9791 C 922.425 0.905368 1.72708 0
M  V30 9792 O 921.695 -0.0532107 1.95828 0
M  V30 9793 H 920.275 0.70646 0.24274 0
M  V30 9794 H 922.937 1.94752 -0.076066 0
M  V30 9795 H 922.033 2.91988 1.10226 0
M  V30 9796 N 922.334 -0.244713 1.55689 0
M  V30 9797 C 923.264 -1.30667 1.93516 0
M  V30 9798 C 924.245 -1.50094 0.800371 0
M  V30 9799 O 925.43 -1.62665 1.06083 0
M  V30 9800 C 922.56 -2.66101 2.23176 0
M  V30 9801 C 921.514 -2.61366 3.38927 0
M  V30 9802 C 920.84 -4.00616 3.54134 0
M  V30 9803 C 922.14 -2.18161 4.74555 0
M  V30 9804 H 923.834 -0.992546 2.82469 0
M  V30 9805 H 921.38 -0.476018 1.35905 0
M  V30 9806 H 923.333 -3.4053 2.48228 0
M  V30 9807 H 922.057 -2.99154 1.31051 0
M  V30 9808 H 920.716 -1.89395 3.13887 0
M  V30 9809 H 920.364 -4.30938 2.59426 0
M  V30 9810 H 920.064 -3.98335 4.31975 0
M  V30 9811 H 921.588 -4.76741 3.8151 0
M  V30 9812 H 923.002 -2.82323 4.98965 0
M  V30 9813 H 921.399 -2.26988 5.55515 0
M  V30 9814 H 922.469 -1.13333 4.7147 0
M  V30 9815 N 923.813 -1.49104 -0.510467 0
M  V30 9816 C 924.763 -1.6147 -1.6097 0
M  V30 9817 C 925.747 -0.470797 -1.53858 0
M  V30 9818 O 926.939 -0.723266 -1.61548 0
M  V30 9819 C 924.068 -1.67575 -2.99622 0
M  V30 9820 C 923.154 -2.87511 -3.11766 0
M  V30 9821 N 923.545 -4.11704 -2.93826 0
M  V30 9822 C 921.843 -2.85251 -3.42852 0
M  V30 9823 C 922.544 -4.92276 -3.09902 0
M  V30 9824 N 921.52 -4.2546 -3.38355 0
M  V30 9825 H 925.322 -2.5522 -1.45739 0
M  V30 9826 H 922.836 -1.45745 -0.716383 0
M  V30 9827 H 924.833 -1.74531 -3.78609 0
M  V30 9828 H 923.493 -0.749557 -3.1593 0
M  V30 9829 H 924.504 -4.41834 -2.70191 0
M  V30 9830 H 921.181 -2.0197 -3.65396 0
M  V30 9831 H 922.571 -6.00905 -3.00604 0
M  V30 9832 N 925.291 0.760815 -1.38019 0
M  V30 9833 C 926.531 1.53264 -1.35239 0
M  V30 9834 C 926.895 1.91908 0.0595038 0
M  V30 9835 O 928.096 2.67962 0.212122 0
M  V30 9836 C 926.367 2.75643 -2.27499 0
M  V30 9837 S 927.926 3.6559 -2.42672 0
M  V30 9838 H 924.744 0.52457 -0.479945 0
M  V30 9839 H 927.346 0.893737 -1.73875 0
M  V30 9840 H 926.05 2.4535 -3.28986 0
M  V30 9841 H 925.581 3.44483 -1.89987 0
M  V30 9842 H 927.596 4.68124 -1.64542 0
M  V30 9843 N 926.769 1.22769 0.988202 0
M  V30 9844 C 928.018 1.0492 1.72263 0
M  V30 9845 C 928.331 -0.415282 1.91141 0
M  V30 9846 O 929.537 -0.713547 2.61956 0
M  V30 9847 C 927.993 1.82891 3.09966 0
M  V30 9848 C 927.601 3.33618 2.99003 0
M  V30 9849 C 929.345 1.73505 3.87423 0
M  V30 9850 C 927.252 4.04012 4.3189 0
M  V30 9851 H 926.182 0.38899 0.645912 0
M  V30 9852 H 928.833 1.46664 1.10281 0
M  V30 9853 H 927.215 1.33948 3.72658 0
M  V30 9854 H 928.389 3.8999 2.45448 0
M  V30 9855 H 926.704 3.43732 2.35027 0
M  V30 9856 H 929.301 2.23416 4.85787 0
M  V30 9857 H 929.644 0.696344 4.10435 0
M  V30 9858 H 930.177 2.20016 3.31418 0
M  V30 9859 H 926.916 5.08155 4.14075 0
M  V30 9860 H 926.436 3.52428 4.8534 0
M  V30 9861 H 928.115 4.0987 5.00615 0
M  V30 9862 N 928.247 -1.18576 1.03814 0
M  V30 9863 C 929.494 -1.88493 0.740036 0
M  V30 9864 C 929.822 -1.80198 -0.732056 0
M  V30 9865 O 929.077 -1.19509 -1.54971 0
M  V30 9866 C 929.376 -3.38448 1.14837 0
M  V30 9867 C 929.042 -3.66947 2.62031 0
M  V30 9868 C 927.704 -3.74435 3.02244 0
M  V30 9869 C 930.056 -3.79534 3.57217 0
M  V30 9870 C 927.384 -3.91986 4.36536 0
M  V30 9871 C 929.736 -3.986 4.91223 0
M  V30 9872 C 928.4 -4.04323 5.31111 0
M  V30 9873 H 927.67 -0.689746 0.270798 0
M  V30 9874 H 930.317 -1.40364 1.3027 0
M  V30 9875 H 928.622 -3.88539 0.504472 0
M  V30 9876 H 930.319 -3.90882 0.89511 0
M  V30 9877 H 926.909 -3.61734 2.29883 0
M  V30 9878 H 931.093 -3.73083 3.27296 0
M  V30 9879 H 926.349 -3.9466 4.66962 0
M  V30 9880 H 930.523 -4.07281 5.64885 0
M  V30 9881 H 928.15 -4.17676 6.35178 0
M  V30 9882 N 929.725 -0.817259 -1.34754 0
M  V30 9883 C 930.974 -0.39908 -1.97713 0
M  V30 9884 C 931.287 1.04203 -1.65533 0
M  V30 9885 O 932.493 1.56384 -2.21937 0
M  V30 9886 C 930.949 -0.662634 -3.53747 0
M  V30 9887 C 930.557 -2.11699 -3.94826 0
M  V30 9888 C 932.301 -0.31034 -4.23364 0
M  V30 9889 C 930.208 -2.32573 -5.4375 0
M  V30 9890 H 929.138 -0.145488 -0.739831 0
M  V30 9891 H 931.789 -1.00282 -1.53674 0
M  V30 9892 H 930.171 0.0111972 -3.95998 0
M  V30 9893 H 931.345 -2.82951 -3.63697 0
M  V30 9894 H 929.66 -2.43017 -3.3813 0
M  V30 9895 H 932.257 -0.44421 -5.32852 0
M  V30 9896 H 932.6 0.744594 -4.09587 0
M  V30 9897 H 933.133 -0.938518 -3.8657 0
M  V30 9898 H 929.872 -3.36551 -5.62507 0
M  V30 9899 H 929.392 -1.65858 -5.76412 0
M  V30 9900 H 931.071 -2.14651 -6.10356 0
M  V30 9901 N 931.203 1.46865 -0.571711 0
M  V30 9902 C 932.48 1.95596 0.0132445 0
M  V30 9903 C 932.86 1.51438 1.47071 0
M  V30 9904 O 932.208 0.759917 2.15494 0
M  V30 9905 C 932.418 3.48689 -0.147335 0
M  V30 9906 C 933.766 4.24599 -0.00946329 0
M  V30 9907 O 934.79 3.5612 -0.0756112 0
M  V30 9908 O 933.649 5.46332 0.135361 0
M  V30 9909 H 930.743 0.825102 0.0560039 0
M  V30 9910 H 933.289 1.57199 -0.639256 0
M  V30 9911 H 932.061 3.73681 -1.16096 0
M  V30 9912 H 931.684 3.93887 0.542109 0
M  V30 9913 N 932.681 0.308908 1.54543 0
M  V30 9914 C 933.958 -0.351558 1.92415 0
M  V30 9915 C 934.338 -1.71061 1.23699 0
M  V30 9916 O 933.686 -2.25394 0.3755 0
M  V30 9917 C 933.896 -0.458357 3.45977 0
M  V30 9918 C 935.244 -0.725524 4.18355 0
M  V30 9919 O 936.268 -0.541859 3.52054 0
M  V30 9920 O 935.127 -1.07884 5.35745 0
M  V30 9921 H 932.221 -0.197957 0.802958 0
M  V30 9922 H 934.767 0.357548 1.65891 0
M  V30 9923 H 933.539 0.496723 3.88134 0
M  V30 9924 H 933.162 -1.21562 3.78561 0
M  V30 9925 N 934.159 -1.57557 0.0367827 0
M  V30 9926 C 935.389 -1.96134 -0.649225 0
M  V30 9927 C 935.797 -0.912279 -1.65753 0
M  V30 9928 O 935.14 0.113569 -1.83349 0
M  V30 9929 C 935.202 -3.30889 -1.40545 0
M  V30 9930 C 934.866 -4.53622 -0.554609 0
M  V30 9931 C 935.863 -5.19611 0.17331 0
M  V30 9932 C 933.548 -4.99907 -0.48976 0
M  V30 9933 C 935.542 -6.3021 0.95467 0
M  V30 9934 C 933.229 -6.10386 0.295299 0
M  V30 9935 C 934.227 -6.75398 1.01621 0
M  V30 9936 O 933.915 -7.83755 1.78839 0
M  V30 9937 H 933.647 -0.650662 -0.183344 0
M  V30 9938 H 936.201 -2.05179 0.0951512 0
M  V30 9939 H 934.431 -3.18356 -2.19513 0
M  V30 9940 H 936.12 -3.54315 -1.9803 0
M  V30 9941 H 936.886 -4.84819 0.132589 0
M  V30 9942 H 932.765 -4.49105 -1.04046 0
M  V30 9943 H 936.309 -6.80886 1.51789 0
M  V30 9944 H 932.206 -6.44616 0.33771 0
M  V30 9945 H 932.974 -8.0046 1.70898 0
M  V30 9946 N 935.637 0.236453 -1.55816 0
M  V30 9947 C 936.567 1.29639 -1.94206 0
M  V30 9948 C 937.548 1.49667 -0.808319 0
M  V30 9949 O 938.733 1.621 -1.06945 0
M  V30 9950 C 935.863 2.64914 -2.24584 0
M  V30 9951 C 934.817 2.59565 -3.40308 0
M  V30 9952 C 934.143 3.98732 -3.56254 0
M  V30 9953 C 935.443 2.15642 -4.75706 0
M  V30 9954 H 937.137 0.977552 -2.82992 0
M  V30 9955 H 934.683 0.468804 -1.36155 0
M  V30 9956 H 936.636 3.39209 -2.50031 0
M  V30 9957 H 935.36 2.98455 -1.32636 0
M  V30 9958 H 934.019 1.87728 -3.14887 0
M  V30 9959 H 933.667 4.29556 -2.61707 0
M  V30 9960 H 933.367 3.96039 -4.34082 0
M  V30 9961 H 934.891 4.74711 -3.84033 0
M  V30 9962 H 936.305 2.79673 -5.00456 0
M  V30 9963 H 934.702 2.24039 -5.56711 0
M  V30 9964 H 935.772 1.10831 -4.72064 0
M  V30 9965 N 937.115 1.49373 0.502552 0
M  V30 9966 C 938.34 1.62752 1.28556 0
M  V30 9967 C 938.765 0.298285 1.8572 0
M  V30 9968 O 938.123 -0.733885 1.65782 0
M  V30 9969 C 938.171 2.69778 2.39274 0
M  V30 9970 O 937.275 2.28843 3.43081 0
M  V30 9971 H 936.616 0.544799 0.379592 0
M  V30 9972 H 939.146 1.9555 0.601792 0
M  V30 9973 H 939.156 2.91899 2.8506 0
M  V30 9974 H 937.831 3.66266 1.97033 0
M  V30 9975 H 936.408 2.17047 3.03224 0
M  V30 9976 N 938.594 -0.753485 1.38421 0
M  V30 9977 C 939.824 -1.54049 1.37669 0
M  V30 9978 C 940.232 -1.89167 -0.0353656 0
M  V30 9979 O 939.575 -1.53285 -1.01239 0
M  V30 9980 C 939.637 -2.86777 2.16793 0
M  V30 9981 C 939.301 -2.74196 3.65603 0
M  V30 9982 C 940.298 -2.43985 4.59094 0
M  V30 9983 C 937.983 -2.91645 4.0896 0
M  V30 9984 C 939.977 -2.31379 5.93921 0
M  V30 9985 C 937.664 -2.78658 5.43868 0
M  V30 9986 C 938.662 -2.48568 6.36163 0
M  V30 9987 O 938.35 -2.3564 7.68589 0
M  V30 9988 H 938.082 -0.483276 0.472673 0
M  V30 9989 H 940.636 -0.940267 1.82615 0
M  V30 9990 H 938.866 -3.48988 1.66565 0
M  V30 9991 H 940.555 -3.48289 2.08446 0
M  V30 9992 H 941.321 -2.30172 4.26902 0
M  V30 9993 H 937.2 -3.14063 3.37469 0
M  V30 9994 H 940.744 -2.07813 6.65927 0
M  V30 9995 H 936.641 -2.92044 5.75656 0
M  V30 9996 H 937.409 -2.50851 7.79112 0
M  V30 9997 N 940.072 -1.23292 -0.981677 0
M  V30 9998 C 941.022 -0.980133 -2.05858 0
M  V30 9999 C 942.006 0.0734044 -1.60732 0
M  V30 10000 O 943.198 -0.138561 -1.76457 0
M  V30 10001 C 940.327 -0.571879 -3.38503 0
M  V30 10002 C 939.413 -1.66075 -3.90231 0
M  V30 10003 N 939.804 -2.89077 -4.15052 0
M  V30 10004 C 938.102 -1.53503 -4.18751 0
M  V30 10005 C 938.803 -3.59567 -4.5726 0
M  V30 10006 N 937.779 -2.87076 -4.61615 0
M  V30 10007 H 941.581 -1.91432 -2.23005 0
M  V30 10008 H 939.095 -1.13211 -1.16434 0
M  V30 10009 H 941.092 -0.372059 -4.15236 0
M  V30 10010 H 939.752 0.355278 -3.2275 0
M  V30 10011 H 940.763 -3.25395 -4.02912 0
M  V30 10012 H 937.44 -0.674891 -4.12009 0
M  V30 10013 H 938.83 -4.65007 -4.84993 0
M  V30 10014 N 941.55 1.18024 -1.04442 0
M  V30 10015 C 942.46 2.25436 -0.649276 0
M  V30 10016 C 943.476 1.70915 0.326189 0
M  V30 10017 O 944.652 2.00592 0.180174 0
M  V30 10018 C 941.717 3.46693 -0.0222558 0
M  V30 10019 C 940.778 4.16332 -1.0472 0
M  V30 10020 C 940.011 5.31799 -0.450011 0
M  V30 10021 O 940.234 5.65544 0.742717 0
M  V30 10022 O 939.168 5.90209 -1.18056 0
M  V30 10023 H 942.994 2.61508 -1.54426 0
M  V30 10024 H 940.579 1.25178 -0.81552 0
M  V30 10025 H 942.461 4.20132 0.326597 0
M  V30 10026 H 941.136 3.12436 0.84649 0
M  V30 10027 H 940.043 3.44944 -1.44792 0
M  V30 10028 H 941.376 4.54598 -1.88684 0
M  V30 10029 N 943.028 0.824394 1.34319 0
M  V30 10030 C 943.958 0.262077 2.32025 0
M  V30 10031 C 944.939 -0.622277 1.58309 0
M  V30 10032 O 946.124 -0.548848 1.86283 0
M  V30 10033 C 943.254 -0.57567 3.42496 0
M  V30 10034 C 942.208 0.21167 4.27476 0
M  V30 10035 C 941.534 -0.748913 5.29429 0
M  V30 10036 C 942.834 1.42068 5.02607 0
M  V30 10037 H 944.528 1.07842 2.79304 0
M  V30 10038 H 942.074 0.520022 1.34282 0
M  V30 10039 H 944.027 -0.979251 4.09864 0
M  V30 10040 H 942.751 -1.42508 2.93869 0
M  V30 10041 H 941.41 0.596636 3.61712 0
M  V30 10042 H 941.058 -1.59432 4.77064 0
M  V30 10043 H 940.758 -0.226313 5.87164 0
M  V30 10044 H 942.282 -1.15032 5.99667 0
M  V30 10045 H 943.696 1.09103 5.62823 0
M  V30 10046 H 942.093 1.87903 5.69923 0
M  V30 10047 H 943.163 2.1981 4.32217 0
M  V30 10048 N 944.506 -1.46559 0.579492 0
M  V30 10049 C 945.438 -2.28383 -0.19337 0
M  V30 10050 C 946.451 -1.38324 -0.858511 0
M  V30 10051 O 947.64 -1.62952 -0.728615 0
M  V30 10052 C 944.74 -3.13262 -1.29306 0
M  V30 10053 C 943.913 -4.31426 -0.720459 0
M  V30 10054 C 942.972 -4.97728 -1.70744 0
M  V30 10055 O 941.998 -5.55423 -1.24476 0
M  V30 10056 N 943.2 -4.94445 -3.04146 0
M  V30 10057 H 945.965 -2.95353 0.508611 0
M  V30 10058 H 943.526 -1.56436 0.417046 0
M  V30 10059 H 945.518 -3.54483 -1.95254 0
M  V30 10060 H 944.088 -2.48388 -1.89795 0
M  V30 10061 H 943.308 -3.94028 0.116398 0
M  V30 10062 H 944.596 -5.07808 -0.31763 0
M  V30 10063 H 943.994 -4.4881 -3.44363 0
M  V30 10064 H 942.551 -5.39616 -3.65592 0
M  V30 10065 N 945.984 -0.3171 -1.54377 0
M  V30 10066 C 947.232 0.286842 -2.00054 0
M  V30 10067 C 947.553 1.53161 -1.20692 0
M  V30 10068 O 946.823 1.93479 -0.307045 0
M  V30 10069 H 945.403 0.108979 -0.739008 0
M  V30 10070 H 948.065 -0.432152 -1.90049 0
M  V30 10071 H 947.161 0.547729 -3.07256 0
M  V30 10072 N 947.462 1.57535 -0.0451378 0
M  V30 10073 C 948.372 2.14653 0.946646 0
M  V30 10074 C 949.388 1.10279 1.3459 0
M  V30 10075 O 950.564 1.42417 1.42405 0
M  V30 10076 C 947.629 2.67533 2.20515 0
M  V30 10077 C 946.69 3.86682 1.86481 0
M  V30 10078 C 945.923 4.37031 3.06332 0
M  V30 10079 O 946.146 3.86481 4.1951 0
M  V30 10080 O 945.08 5.28691 2.87697 0
M  V30 10081 H 948.906 2.99706 0.49091 0
M  V30 10082 H 946.491 1.48355 0.17641 0
M  V30 10083 H 948.373 3.01542 2.94365 0
M  V30 10084 H 947.048 1.85554 2.65238 0
M  V30 10085 H 945.955 3.57573 1.09966 0
M  V30 10086 H 947.288 4.69873 1.46562 0
M  V30 10087 N 948.94 -0.228186 1.55939 0
M  V30 10088 C 950.189 -0.951563 1.77843 0
M  V30 10089 C 950.502 -1.85763 0.612501 0
M  V30 10090 O 951.708 -2.61916 0.715006 0
M  V30 10091 C 950.164 -1.74216 3.14923 0
M  V30 10092 C 949.772 -0.882569 4.39221 0
M  V30 10093 C 951.516 -2.45715 3.46156 0
M  V30 10094 C 949.423 -1.67014 5.67327 0
M  V30 10095 H 948.353 -0.359035 0.663031 0
M  V30 10096 H 951.004 -0.205636 1.82344 0
M  V30 10097 H 949.386 -2.53075 3.0458 0
M  V30 10098 H 950.56 -0.13499 4.60602 0
M  V30 10099 H 948.875 -0.280022 4.15457 0
M  V30 10100 H 951.472 -3.05127 4.39092 0
M  V30 10101 H 951.815 -3.1827 2.68346 0
M  V30 10102 H 952.348 -1.73852 3.57799 0
M  V30 10103 H 949.087 -0.987985 6.48012 0
M  V30 10104 H 948.607 -2.3925 5.50018 0
M  V30 10105 H 950.286 -2.23252 6.07262 0
M  V30 10106 N 950.418 -1.49637 -0.494624 0
M  V30 10107 C 951.368 -1.63168 -1.59249 0
M  V30 10108 C 952.352 -0.487089 -1.5335 0
M  V30 10109 O 953.544 -0.74036 -1.60772 0
M  V30 10110 C 950.673 -1.70744 -2.97828 0
M  V30 10111 C 949.759 -2.90802 -3.08699 0
M  V30 10112 N 950.15 -4.14797 -2.89442 0
M  V30 10113 C 948.448 -2.88871 -3.39808 0
M  V30 10114 C 949.149 -4.95535 -3.04663 0
M  V30 10115 N 948.125 -4.29025 -3.33824 0
M  V30 10116 H 951.927 -2.56751 -1.43024 0
M  V30 10117 H 949.441 -1.46497 -0.700885 0
M  V30 10118 H 951.438 -1.78537 -3.76736 0
M  V30 10119 H 950.098 -0.783024 -3.15117 0
M  V30 10120 H 951.109 -4.44675 -2.6549 0
M  V30 10121 H 947.786 -2.05834 -3.63233 0
M  V30 10122 H 949.176 -6.0406 -2.94214 0
M  V30 10123 N 951.896 0.746133 -1.38819 0
M  V30 10124 C 953.136 1.51821 -1.36857 0
M  V30 10125 C 953.5 1.9196 0.0391461 0
M  V30 10126 O 954.701 2.68172 0.183689 0
M  V30 10127 C 952.972 2.73214 -2.3041 0
M  V30 10128 S 954.531 3.62995 -2.46536 0
M  V30 10129 H 951.349 0.51945 -0.485482 0
M  V30 10130 H 953.951 0.875244 -1.74813 0
M  V30 10131 H 952.655 2.41847 -3.31569 0
M  V30 10132 H 952.186 3.42449 -1.9363 0
M  V30 10133 H 954.201 4.66353 -1.69498 0
M  V30 10134 N 953.375 1.23811 0.975125 0
M  V30 10135 C 954.623 1.07124 1.71373 0
M  V30 10136 C 954.944 -0.391864 1.91022 0
M  V30 10137 O 954.214 -1.28041 1.48265 0
M  V30 10138 H 952.794 0.393415 0.635007 0
M  V30 10139 H 955.456 1.55612 1.17349 0
M  V30 10140 H 954.552 1.56338 2.7012 0
M  V30 10141 N 954.853 -1.17469 1.05066 0
M  V30 10142 C 956.081 -1.9162 0.780334 0
M  V30 10143 C 956.496 -1.76745 -0.663817 0
M  V30 10144 O 955.853 -1.10377 -1.45338 0
M  V30 10145 C 955.904 -3.42723 1.14992 0
M  V30 10146 O 955.625 -3.57139 2.53739 0
M  V30 10147 C 957.126 -4.33952 0.905549 0
M  V30 10148 H 954.346 -0.608022 0.283814 0
M  V30 10149 H 956.89 -1.4897 1.401 0
M  V30 10150 H 955.045 -3.83124 0.57403 0
M  V30 10151 H 955.459 -4.5075 2.68189 0
M  V30 10152 H 956.933 -5.38487 1.21391 0
M  V30 10153 H 957.41 -4.38911 -0.159295 0
M  V30 10154 H 958.016 -3.99263 1.46522 0
M  V30 10155 N 956.331 -0.831506 -1.3388 0
M  V30 10156 C 957.279 -0.247896 -2.31275 0
M  V30 10157 C 958.273 0.616083 -1.578 0
M  V30 10158 O 959.479 0.506465 -1.72728 0
M  V30 10159 H 955.854 -0.0614293 -0.749487 0
M  V30 10160 H 957.825 -1.08401 -2.78014 0
M  V30 10161 C 956.574 0.568434 -3.43022 0
M  V30 10162 H 955.897 -0.0870654 -3.99705 0
M  V30 10163 H 957.337 0.942751 -4.13386 0
M  V30 10164 C 955.796 1.74431 -2.88228 0
M  V30 10165 O 956.326 2.84278 -2.83811 0
M  V30 10166 N 954.532 1.56382 -2.44935 0
M  V30 10167 H 954.079 0.670255 -2.48727 0
M  V30 10168 H 954.037 2.35208 -2.08625 0
M  V30 10169 N 957.809 1.4625 -0.587256 0
M  V30 10170 C 959.055 2.02662 -0.0746851 0
M  V30 10171 C 959.388 1.45723 1.28368 0
M  V30 10172 O 958.663 0.624062 1.84216 0
M  V30 10173 C 958.946 3.60097 -0.0138109 0
M  V30 10174 C 958.799 4.27412 -1.4014 0
M  V30 10175 C 960.118 4.34744 0.684491 0
M  V30 10176 H 957.237 0.736444 -0.0286144 0
M  V30 10177 H 959.879 1.74341 -0.755328 0
M  V30 10178 H 958.029 3.84357 0.56583 0
M  V30 10179 H 959.701 4.14401 -2.02656 0
M  V30 10180 H 957.944 3.86598 -1.96785 0
M  V30 10181 H 958.615 5.362 -1.31124 0
M  V30 10182 H 961.091 4.15657 0.192023 0
M  V30 10183 H 959.967 5.44468 0.696127 0
M  V30 10184 H 960.228 4.06132 1.74669 0
M  V30 10185 N 959.287 0.325282 1.54207 0
M  V30 10186 C 960.703 -0.0273036 1.59577 0
M  V30 10187 C 960.903 -1.50329 1.34177 0
M  V30 10188 O 959.959 -2.25951 1.12705 0
M  V30 10189 C 961.272 0.392468 2.98128 0
M  V30 10190 C 962.82 0.343269 3.11112 0
M  V30 10191 C 963.295 0.738229 4.52011 0
M  V30 10192 N 964.786 0.691701 4.58006 0
M  V30 10193 C 965.521 0.969479 5.65145 0
M  V30 10194 N 965.017 1.31448 6.80216 0
M  V30 10195 N 966.81 0.894926 5.5493 0
M  V30 10196 H 958.961 1.28692 1.68974 0
M  V30 10197 H 961.224 0.523399 0.790416 0
M  V30 10198 H 960.93 1.42089 3.2172 0
M  V30 10199 H 960.804 -0.241651 3.76425 0
M  V30 10200 H 963.191 -0.675946 2.87254 0
M  V30 10201 H 963.272 1.01235 2.34915 0
M  V30 10202 H 962.916 1.75537 4.76602 0
M  V30 10203 H 962.846 0.0468226 5.26579 0
M  V30 10204 H 965.337 0.436975 3.75365 0
M  V30 10205 H 965.65 1.51177 7.57869 0
M  V30 10206 H 963.995 1.35276 6.81708 0
M  V30 10207 H 967.186 0.624876 4.6391 0
M  V30 10208 H 967.359 1.11476 6.38339 0
M  V30 10209 N 960.765 -1.57509 0.0534917 0
M  V30 10210 C 962.181 -1.56696 -0.303067 0
M  V30 10211 C 962.381 -1.06135 -1.71282 0
M  V30 10212 O 961.437 -0.71899 -2.42047 0
M  V30 10213 C 962.75 -3.00421 -0.129418 0
M  V30 10214 C 964.298 -3.12358 -0.200346 0
M  V30 10215 C 964.773 -4.57967 -0.0551971 0
M  V30 10216 N 966.264 -4.63066 -0.111398 0
M  V30 10217 C 966.999 -5.73395 -0.0232344 0
M  V30 10218 N 966.495 -6.92701 0.11741 0
M  V30 10219 N 968.288 -5.62045 -0.078984 0
M  V30 10220 H 960.439 -1.88696 0.975064 0
M  V30 10221 H 962.702 -0.869072 0.378706 0
M  V30 10222 H 962.408 -3.41456 0.842653 0
M  V30 10223 H 962.282 -3.66563 -0.889476 0
M  V30 10224 H 964.669 -2.71221 -1.16289 0
M  V30 10225 H 964.75 -2.48891 0.590506 0
M  V30 10226 H 964.394 -4.9979 0.904034 0
M  V30 10227 H 964.324 -5.19443 -0.865223 0
M  V30 10228 H 966.815 -3.77263 -0.219256 0
M  V30 10229 H 967.128 -7.72597 0.177326 0
M  V30 10230 H 965.473 -6.94833 0.152526 0
M  V30 10231 H 968.664 -4.67725 -0.187434 0
M  V30 10232 H 968.837 -6.48 -0.00681731 0
M  V30 10233 N 962.243 0.219913 -1.56058 0
M  V30 10234 C 963.19 1.27254 -1.92549 0
M  V30 10235 C 964.16 1.46493 -0.782883 0
M  V30 10236 O 965.345 1.60035 -1.03892 0
M  V30 10237 C 962.485 2.61756 -2.24896 0
M  V30 10238 C 961.598 2.50302 -3.52098 0
M  V30 10239 C 960.733 3.77338 -3.73884 0
M  V30 10240 C 959.772 3.60613 -4.94595 0
M  V30 10241 N 958.909 4.79603 -5.12763 0
M  V30 10242 H 963.749 0.954352 -2.82305 0
M  V30 10243 H 961.286 0.459928 -1.39725 0
M  V30 10244 H 963.244 3.40082 -2.4166 0
M  V30 10245 H 961.874 2.91668 -1.38311 0
M  V30 10246 H 960.926 1.63401 -3.43517 0
M  V30 10247 H 962.238 2.33866 -4.40577 0
M  V30 10248 H 961.392 4.64108 -3.90754 0
M  V30 10249 H 960.131 3.96702 -2.83689 0
M  V30 10250 H 959.136 2.72228 -4.77674 0
M  V30 10251 H 960.361 3.42719 -5.86277 0
M  V30 10252 H 958.307 4.99277 -4.2551 0
M  V30 10253 H 958.224 4.65899 -5.95377 0
M  V30 10254 H 959.492 5.67794 -5.34069 0
M  V30 10255 N 963.721 1.49897 0.486681 0
M  V30 10256 C 965.132 1.53142 1.06792 0
M  V30 10257 C 965.483 0.325856 1.93475 0
M  V30 10258 O 964.608 -0.562893 2.08951 0
M  V30 10259 C 965.203 2.77514 1.94348 0
M  V30 10260 C 963.762 2.83491 2.47609 0
M  V30 10261 C 962.909 2.47239 1.2557 0
M  V30 10262 H 965.86 1.56387 0.269962 0
M  V30 10263 H 965.881 2.58487 2.79221 0
M  V30 10264 H 965.393 3.65239 1.31232 0
M  V30 10265 H 963.494 2.0008 3.14323 0
M  V30 10266 H 963.607 3.86011 2.83782 0
M  V30 10267 H 961.971 1.99332 1.58552 0
M  V30 10268 H 962.754 3.37255 0.641404 0
M  V30 10269 N 965.199 -0.738761 1.39212 0
M  V30 10270 C 966.446 -1.49824 1.36231 0
M  V30 10271 C 966.774 -1.94453 -0.0429552 0
M  V30 10272 O 966.029 -1.6683 -1.02304 0
M  V30 10273 C 966.328 -2.75435 2.2775 0
M  V30 10274 C 965.994 -2.49694 3.75451 0
M  V30 10275 C 964.656 -2.42383 4.15697 0
M  V30 10276 C 967.008 -2.27587 4.68885 0
M  V30 10277 C 964.336 -2.11001 5.47444 0
M  V30 10278 C 966.688 -1.97723 6.00906 0
M  V30 10279 C 965.352 -1.88879 6.4022 0
M  V30 10280 H 964.622 -0.548247 0.498504 0
M  V30 10281 H 967.269 -0.848244 1.71689 0
M  V30 10282 H 965.574 -3.45159 1.85398 0
M  V30 10283 H 967.271 -3.33449 2.22739 0
M  V30 10284 H 963.861 -2.56261 3.43552 0
M  V30 10285 H 968.045 -2.32206 4.38628 0
M  V30 10286 H 963.301 -2.02673 5.76831 0
M  V30 10287 H 967.475 -1.79625 6.72836 0
M  V30 10288 H 965.102 -1.64327 7.42227 0
M  V30 10289 N 966.677 -1.24326 -0.968545 0
M  V30 10290 C 968.088 -1.07561 -1.52603 0
M  V30 10291 C 968.439 0.353245 -1.92994 0
M  V30 10292 O 967.564 1.24151 -1.77244 0
M  V30 10293 C 968.159 -1.94634 -2.77314 0
M  V30 10294 C 966.718 -1.82095 -3.29421 0
M  V30 10295 C 965.865 -1.8962 -2.02335 0
M  V30 10296 H 968.816 -1.37815 -0.786932 0
M  V30 10297 H 968.837 -1.47812 -3.50616 0
M  V30 10298 H 968.349 -2.98621 -2.47885 0
M  V30 10299 H 966.45 -0.809376 -3.63703 0
M  V30 10300 H 966.563 -2.66142 -3.98378 0
M  V30 10301 H 964.927 -1.33339 -2.17009 0
M  V30 10302 H 965.71 -2.95185 -1.75273 0
M  V30 10303 N 968.156 1.1691 -1.05688 0
M  V30 10304 C 969.403 1.87292 -0.76993 0
M  V30 10305 C 969.731 1.81339 0.703295 0
M  V30 10306 O 968.986 1.21959 1.5305 0
M  V30 10307 C 969.285 3.36578 -1.20207 0
M  V30 10308 C 968.951 3.62732 -2.67836 0
M  V30 10309 C 967.613 3.69579 -3.08163 0
M  V30 10310 C 969.965 3.73803 -3.63209 0
M  V30 10311 C 967.293 3.84992 -4.42717 0
M  V30 10312 C 969.645 3.90735 -4.97503 0
M  V30 10313 C 968.309 3.95823 -5.37476 0
M  V30 10314 H 967.579 0.68535 -0.281737 0
M  V30 10315 H 970.226 1.38274 -1.32486 0
M  V30 10316 H 968.531 3.87687 -0.566222 0
M  V30 10317 H 970.228 3.89409 -0.957183 0
M  V30 10318 H 966.818 3.58031 -2.35609 0
M  V30 10319 H 971.002 3.67829 -3.3319 0
M  V30 10320 H 966.258 3.87181 -4.73182 0
M  V30 10321 H 970.432 3.98243 -5.71293 0
M  V30 10322 H 968.059 4.07518 -6.41742 0
M  V30 10323 N 969.634 0.838594 1.33437 0
M  V30 10324 C 970.581 0.269609 2.2922 0
M  V30 10325 C 971.551 -0.614429 1.54318 0
M  V30 10326 O 972.736 -0.552756 1.82618 0
M  V30 10327 C 969.876 -0.549527 3.40697 0
M  V30 10328 C 968.989 0.358502 4.3051 0
M  V30 10329 C 968.124 -0.471709 5.29101 0
M  V30 10330 C 967.163 0.434728 6.10554 0
M  V30 10331 N 966.3 -0.357339 7.0119 0
M  V30 10332 H 971.14 1.09172 2.77282 0
M  V30 10333 H 968.677 0.549832 1.36438 0
M  V30 10334 H 970.635 -1.03992 4.04032 0
M  V30 10335 H 969.265 -1.33661 2.93828 0
M  V30 10336 H 968.317 0.967204 3.67899 0
M  V30 10337 H 969.629 1.05483 4.87519 0
M  V30 10338 H 968.783 -1.02594 5.97963 0
M  V30 10339 H 967.522 -1.20147 4.72669 0
M  V30 10340 H 966.527 1.00097 5.40611 0
M  V30 10341 H 967.752 1.16285 6.6907 0
M  V30 10342 H 965.698 -1.07049 6.47207 0
M  V30 10343 H 965.615 0.280277 7.5548 0
M  V30 10344 H 966.883 -0.893814 7.74359 0
M  V30 10345 N 971.112 -1.45937 0.595003 0
M  V30 10346 C 972.358 -2.03184 0.0938125 0
M  V30 10347 C 972.713 -1.45675 -1.25684 0
M  V30 10348 O 972.006 -0.617122 -1.8139 0
M  V30 10349 C 972.2 -3.57396 -0.0173747 0
M  V30 10350 C 972.029 -4.29861 1.32096 0
M  V30 10351 C 970.799 -4.68285 1.89835 0
M  V30 10352 C 972.997 -4.6262 2.24693 0
M  V30 10353 N 970.979 -5.25554 3.17279 0
M  V30 10354 C 972.35 -5.20589 3.36729 0
M  V30 10355 C 974.405 -4.44555 2.24221 0
M  V30 10356 C 973.108 -5.62398 4.48443 0
M  V30 10357 C 975.134 -4.87388 3.34973 0
M  V30 10358 C 974.496 -5.45439 4.4573 0
M  V30 10359 H 970.595 -0.77816 0.0773994 0
M  V30 10360 H 973.179 -1.77926 0.790599 0
M  V30 10361 H 971.35 -3.82341 -0.683354 0
M  V30 10362 H 973.082 -4.01292 -0.524073 0
M  V30 10363 H 969.837 -4.51437 1.43185 0
M  V30 10364 H 970.261 -5.58699 3.8234 0
M  V30 10365 H 974.903 -3.98998 1.39857 0
M  V30 10366 H 972.621 -6.06927 5.3354 0
M  V30 10367 H 976.207 -4.75152 3.3574 0
M  V30 10368 H 975.087 -5.77975 5.30014 0
M  V30 10369 N 972.59 -0.333456 -1.54032 0
M  V30 10370 C 973.836 0.259248 -2.01741 0
M  V30 10371 C 974.191 1.48999 -1.21725 0
M  V30 10372 O 973.484 1.89333 -0.293882 0
M  V30 10373 C 973.678 0.63565 -3.51702 0
M  V30 10374 C 973.507 -0.55707 -4.46236 0
M  V30 10375 C 972.277 -1.05925 -4.94073 0
M  V30 10376 C 974.475 -1.41237 -4.94527 0
M  V30 10377 N 972.457 -2.21535 -5.72534 0
M  V30 10378 C 973.828 -2.41551 -5.71011 0
M  V30 10379 C 975.883 -1.43899 -4.76652 0
M  V30 10380 C 974.586 -3.44342 -6.31523 0
M  V30 10381 C 976.612 -2.45567 -5.38006 0
M  V30 10382 C 975.974 -3.44606 -6.1435 0
M  V30 10383 H 972.073 0.0584431 -0.779813 0
M  V30 10384 H 974.657 -0.470736 -1.88924 0
M  V30 10385 H 972.828 1.33475 -3.64745 0
M  V30 10386 H 974.56 1.21067 -3.86167 0
M  V30 10387 H 971.315 -0.628947 -4.69405 0
M  V30 10388 H 971.739 -2.79878 -6.16439 0
M  V30 10389 H 976.381 -0.686929 -4.17182 0
M  V30 10390 H 974.099 -4.20449 -6.90107 0
M  V30 10391 H 977.685 -2.4844 -5.26088 0
M  V30 10392 H 976.565 -4.21987 -6.60982 0
M  V30 10393 N 974.068 1.57479 -0.061844 0
M  V30 10394 C 975.016 2.13346 0.926629 0
M  V30 10395 C 976.01 1.06787 1.31502 0
M  V30 10396 O 977.216 1.25181 1.29343 0
M  V30 10397 H 973.591 0.682046 0.316729 0
M  V30 10398 H 975.562 2.95279 0.430424 0
M  V30 10399 C 974.311 2.70198 2.18834 0
M  V30 10400 H 973.634 3.51859 1.89829 0
M  V30 10401 H 975.074 3.12897 2.86132 0
M  V30 10402 C 973.533 1.64481 2.9402 0
M  V30 10403 O 974.063 1.0639 3.87355 0
M  V30 10404 N 972.269 1.35749 2.56944 0
M  V30 10405 H 971.816 1.83177 1.81119 0
M  V30 10406 H 971.774 0.652469 3.07555 0
M  V30 10407 N 975.546 -0.211634 1.56173 0
M  V30 10408 C 976.479 -1.28982 1.88252 0
M  V30 10409 C 977.457 -1.4474 0.740889 0
M  V30 10410 O 978.641 -1.60394 0.990249 0
M  V30 10411 C 975.768 -2.65879 2.09824 0
M  V30 10412 C 974.814 -2.67082 3.3252 0
M  V30 10413 S 975.647 -2.2016 4.8815 0
M  V30 10414 C 976.803 -3.58913 5.12769 0
M  V30 10415 H 977.036 -1.01578 2.79409 0
M  V30 10416 H 974.569 -0.414351 1.48736 0
M  V30 10417 H 976.527 -3.44688 2.22935 0
M  V30 10418 H 975.188 -2.90502 1.19447 0
M  V30 10419 H 974.381 -3.67703 3.44689 0
M  V30 10420 H 973.983 -1.96343 3.18317 0
M  V30 10421 H 976.275 -4.54671 5.02276 0
M  V30 10422 H 977.218 -3.51652 6.14611 0
M  V30 10423 H 977.626 -3.5306 4.40465 0
M  V30 10424 N 977.024 -1.50153 -0.478725 0
M  V30 10425 C 978.27 -1.60998 -1.23318 0
M  V30 10426 C 978.603 -0.305868 -1.91776 0
M  V30 10427 O 977.878 0.692158 -1.81767 0
M  V30 10428 C 978.161 -2.78495 -2.28282 0
M  V30 10429 C 978.014 -4.18767 -1.64178 0
M  V30 10430 C 979.333 -2.91569 -3.2966 0
M  V30 10431 H 976.452 -0.585983 -0.446982 0
M  V30 10432 H 979.094 -1.82514 -0.528063 0
M  V30 10433 H 977.244 -2.60281 -2.8842 0
M  V30 10434 H 978.916 -4.48552 -1.07696 0
M  V30 10435 H 977.159 -4.23379 -0.94514 0
M  V30 10436 H 977.83 -4.96894 -2.40417 0
M  V30 10437 H 980.306 -3.08219 -2.79536 0
M  V30 10438 H 979.182 -3.75419 -4.0044 0
M  V30 10439 H 979.443 -2.01859 -3.93326 0
M  V30 10440 N 978.502 0.731368 -1.39602 0
M  V30 10441 C 979.913 1.30981 -1.33045 0
M  V30 10442 C 980.264 1.962 0.00349918 0
M  V30 10443 O 979.389 1.96539 0.905615 0
M  V30 10444 C 979.984 2.3817 -2.40958 0
M  V30 10445 C 978.543 2.91678 -2.3791 0
M  V30 10446 C 977.69 1.65286 -2.22656 0
M  V30 10447 H 980.641 0.528615 -1.49637 0
M  V30 10448 H 980.662 3.18645 -2.07955 0
M  V30 10449 H 980.174 1.90673 -3.38032 0
M  V30 10450 H 978.275 3.43446 -1.44485 0
M  V30 10451 H 978.388 3.44545 -3.32904 0
M  V30 10452 H 976.752 1.89759 -1.69893 0
M  V30 10453 H 977.535 1.19836 -3.21705 0
M  V30 10454 O 980.019 1.35899 0.872571 0
M  V30 10455 H 980.71 1.21196 1.511 0
M  V30 END ATOM
M  V30 BEGIN BOND
M  V30 END BOND
M  V30 END CTAB
M  END
$$$$
