drugbank_target|Q9ULB1 Neurexin-1 (DB11093; DB11348; DB14481)
 OpenBabel12092121023D

  0  0  0     0  0            999 V3000
M  V30 BEGIN CTAB
M  V30 COUNTS 22498 22715 0 0 0
M  V30 BEGIN ATOM
M  V30 1 H -0.908 1.98254 -0.117106 0
M  V30 2 N 0 1.576 0 0
M  V30 3 C 0.933 2.03868 1.02534 0
M  V30 4 C 1.911 0.928543 1.3348 0
M  V30 5 O 3.095 1.19667 1.45644 0
M  V30 6 C 0.222 2.43627 2.35294 0
M  V30 7 C -0.732 3.65373 2.2001 0
M  V30 8 S 0.101 5.13292 1.52614 0
M  V30 9 C 1.257 5.56322 2.86805 0
M  V30 10 H 1.49 2.90518 0.631377 0
M  V30 11 H -0.977 1.52953 0.210867 0
M  V30 12 H 0.981 2.67203 3.11629 0
M  V30 13 H -0.358 1.57376 2.7183 0
M  V30 14 H -1.165 3.90944 3.18086 0
M  V30 15 H -1.563 3.418 1.51819 0
M  V30 16 H 0.729 5.58782 3.83104 0
M  V30 17 H 1.672 6.56266 2.65933 0
M  V30 18 H 2.08 4.83886 2.90714 0
M  V30 19 N 1.4781 -0.272755 1.55222 0
M  V30 20 C 2.7261 -1.00234 1.75492 0
M  V30 21 C 3.0471 -1.8681 0.5592 0
M  V30 22 O 2.3171 -1.91215 -0.425882 0
M  V30 23 H 0.8971 -0.373076 0.647166 0
M  V30 24 H 3.5591 -0.296926 1.92625 0
M  V30 25 H 2.6551 -1.63913 2.65592 0
M  V30 26 N 2.9562 -1.48159 -0.537278 0
M  V30 27 C 4.1842 -1.59454 -1.31841 0
M  V30 28 C 4.5992 -0.252065 -1.8711 0
M  V30 29 O 3.9562 0.757621 -1.66031 0
M  V30 30 C 4.0072 -2.63546 -2.47439 0
M  V30 31 O 3.7282 -3.92583 -1.94449 0
M  V30 32 C 5.2292 -2.85212 -3.39366 0
M  V30 33 H 2.4492 -0.53785 -0.401196 0
M  V30 34 H 4.9932 -1.93932 -0.648891 0
M  V30 35 H 3.1482 -2.31946 -3.1029 0
M  V30 36 H 3.5622 -4.49629 -2.70063 0
M  V30 37 H 5.0362 -3.61863 -4.16844 0
M  V30 38 H 5.5132 -1.93765 -3.94147 0
M  V30 39 H 6.1192 -3.18086 -2.82314 0
M  V30 40 N 4.4343 0.785586 -1.36625 0
M  V30 41 C 5.3973 1.87999 -1.31107 0
M  V30 42 C 6.3973 1.59316 -0.217959 0
M  V30 43 O 7.5873 1.67656 -0.472977 0
M  V30 44 C 4.7193 3.24861 -1.03334 0
M  V30 45 H 5.9123 1.94307 -2.2844 0
M  V30 46 H 3.4653 0.983813 -1.21453 0
M  V30 47 H 4.2003 3.24235 -0.0647432 0
M  V30 48 H 3.9853 3.4707 -1.82441 0
M  V30 49 H 5.4753 4.04929 -1.02088 0
M  V30 50 N 5.9124 1.20967 1.01018 0
M  V30 51 C 6.8424 0.988272 2.11555 0
M  V30 52 C 7.8234 -0.0849778 1.69888 0
M  V30 53 O 9.0084 0.0738202 1.9406 0
M  V30 54 C 6.1384 0.546528 3.42973 0
M  V30 55 C 5.0924 1.56375 3.9841 0
M  V30 56 C 4.4184 0.97842 5.25672 0
M  V30 57 C 5.7184 2.94922 4.31066 0
M  V30 58 H 7.4124 1.91276 2.30334 0
M  V30 59 H 4.9584 0.921073 1.1069 0
M  V30 60 H 6.9114 0.378839 4.19694 0
M  V30 61 H 5.6354 -0.413598 3.23971 0
M  V30 62 H 4.2944 1.71891 3.23804 0
M  V30 63 H 3.9424 0.0101688 5.02999 0
M  V30 64 H 3.6424 1.65784 5.63728 0
M  V30 65 H 5.1664 0.821939 6.05043 0
M  V30 66 H 6.5804 2.8288 4.9865 0
M  V30 67 H 4.9774 3.5983 4.80253 0
M  V30 68 H 6.0474 3.4616 3.39561 0
M  V30 69 N 7.3905 -1.2043 1.01659 0
M  V30 70 C 8.3205 -2.25466 0.607226 0
M  V30 71 C 9.3015 -1.65853 -0.377716 0
M  V30 72 O 10.4865 -1.92409 -0.263149 0
M  V30 73 C 7.6165 -3.47256 -0.0552949 0
M  V30 74 C 6.5705 -4.19462 0.850632 0
M  V30 75 C 5.8965 -5.34673 0.0538859 0
M  V30 76 C 7.1965 -4.75603 2.15868 0
M  V30 77 H 8.8905 -2.59962 1.48526 0
M  V30 78 H 6.4365 -1.2496 0.715605 0
M  V30 79 H 8.3895 -4.19917 -0.353233 0
M  V30 80 H 7.1135 -3.11924 -0.968045 0
M  V30 81 H 5.7725 -3.48667 1.13257 0
M  V30 82 H 5.4205 -4.95585 -0.860514 0
M  V30 83 H 5.1205 -5.83913 0.657192 0
M  V30 84 H 6.6445 -6.10138 -0.237598 0
M  V30 85 H 8.0585 -5.40083 1.92311 0
M  V30 86 H 6.4555 -5.3528 2.71284 0
M  V30 87 H 7.5255 -3.94346 2.82169 0
M  V30 88 N 8.8686 -0.792821 -1.36206 0
M  V30 89 C 9.8006 -0.151469 -2.28699 0
M  V30 90 C 10.8136 0.641262 -1.49638 0
M  V30 91 O 12.0026 0.475885 -1.72039 0
M  V30 92 C 9.1026 0.808424 -3.29117 0
M  V30 93 C 8.2756 0.0650202 -4.37352 0
M  V30 94 C 7.3346 0.941358 -5.17711 0
M  V30 95 O 6.3606 0.397352 -5.67811 0
M  V30 96 N 7.5626 2.2652 -5.3448 0
M  V30 97 H 10.3276 -0.945982 -2.84379 0
M  V30 98 H 7.8886 -0.647032 -1.48409 0
M  V30 99 H 9.8806 1.3986 -3.79765 0
M  V30 100 H 8.4506 1.5038 -2.74052 0
M  V30 101 H 7.6706 -0.706255 -3.87822 0
M  V30 102 H 8.9586 -0.447847 -5.06825 0
M  V30 103 H 8.3566 2.73128 -4.95396 0
M  V30 104 H 6.9136 2.80493 -5.88359 0
M  V30 105 N 10.3467 1.47872 -0.545128 0
M  V30 106 C 11.7627 1.5829 -0.204032 0
M  V30 107 C 11.9627 1.54529 1.29317 0
M  V30 108 O 11.0187 1.44232 2.07252 0
M  V30 109 C 12.3317 2.89304 -0.819987 0
M  V30 110 C 13.8797 3.02864 -0.790105 0
M  V30 111 C 14.3547 4.3656 -1.38491 0
M  V30 112 N 15.8457 4.43165 -1.34755 0
M  V30 113 C 16.5807 5.45153 -1.77753 0
M  V30 114 N 16.0767 6.54016 -2.2855 0
M  V30 115 N 17.8697 5.36125 -1.68897 0
M  V30 116 H 10.0207 1.4856 -1.51802 0
M  V30 117 H 12.2837 0.706305 -0.632327 0
M  V30 118 H 11.9897 2.97757 -1.87173 0
M  V30 119 H 11.8637 3.75957 -0.305915 0
M  V30 120 H 14.2507 2.94014 0.252913 0
M  V30 121 H 14.3317 2.17782 -1.34181 0
M  V30 122 H 13.9757 4.46164 -2.42693 0
M  V30 123 H 13.9057 5.20353 -0.808754 0
M  V30 124 H 16.3967 3.65083 -0.975855 0
M  V30 125 H 16.7097 7.27994 -2.59314 0
M  V30 126 H 15.0547 6.54938 -2.32553 0
M  V30 127 H 18.2457 4.49975 -1.28998 0
M  V30 128 H 18.4187 6.15472 -2.02726 0
M  V30 129 N 11.8248 0.280983 1.55075 0
M  V30 130 C 13.0728 -0.333455 1.9933 0
M  V30 131 C 13.3938 -1.55937 1.17085 0
M  V30 132 O 12.6638 -1.94143 0.261805 0
M  V30 133 H 11.2438 -0.126197 0.736263 0
M  V30 134 H 13.9058 0.387678 1.91005 0
M  V30 135 H 13.0018 -0.619292 3.05894 0
M  V30 136 N 13.3029 -1.57598 0.00835791 0
M  V30 137 C 14.5509 -1.90551 -0.6734 0
M  V30 138 C 14.8719 -0.883301 -1.73847 0
M  V30 139 O 14.1419 0.0781442 -1.95744 0
M  V30 140 H 12.7219 -0.703312 -0.251717 0
M  V30 141 H 15.3839 -1.94833 0.0512592 0
M  V30 142 H 14.4799 -2.9056 -1.13935 0
M  V30 143 N 14.781 0.264519 -1.55364 0
M  V30 144 C 16.021 1.00254 -1.78125 0
M  V30 145 C 16.385 1.83187 -0.575017 0
M  V30 146 O 17.586 2.60029 -0.681042 0
M  V30 147 C 15.857 1.85478 -3.05504 0
M  V30 148 S 17.416 2.6543 -3.49417 0
M  V30 149 H 14.234 0.337522 -0.625779 0
M  V30 150 H 16.836 0.272111 -1.93597 0
M  V30 151 H 15.54 1.23491 -3.9138 0
M  V30 152 H 15.071 2.62827 -2.92721 0
M  V30 153 H 17.086 3.87958 -3.09359 0
M  V30 154 N 16.2591 1.48442 0.529413 0
M  V30 155 C 17.5061 1.56488 1.28521 0
M  V30 156 C 17.8341 0.239042 1.93025 0
M  V30 157 O 17.0891 -0.770713 1.79885 0
M  V30 158 C 17.3881 2.6523 2.39558 0
M  V30 159 C 17.0541 4.07648 1.92702 0
M  V30 160 C 15.7161 4.46411 1.79641 0
M  V30 161 C 18.0681 4.96896 1.573 0
M  V30 162 C 15.3961 5.72226 1.29514 0
M  V30 163 C 17.7481 6.23202 1.08636 0
M  V30 164 C 16.4121 6.60821 0.941919 0
M  V30 165 H 15.6821 0.572631 0.470292 0
M  V30 166 H 18.3291 1.82161 0.59072 0
M  V30 167 H 16.6341 2.33419 3.14679 0
M  V30 168 H 18.3311 2.68671 2.97686 0
M  V30 169 H 14.9211 3.77036 2.03819 0
M  V30 170 H 19.1051 4.67626 1.66251 0
M  V30 171 H 14.3611 6.00097 1.17019 0
M  V30 172 H 18.5351 6.91753 0.803136 0
M  V30 173 H 16.1621 7.58198 0.5513 0
M  V30 174 N 17.7372 -0.778329 1.37039 0
M  V30 175 C 18.6672 -1.90546 1.34962 0
M  V30 176 C 19.6482 -1.68681 0.219274 0
M  V30 177 O 20.8332 -1.89634 0.418624 0
M  V30 178 C 17.9632 -3.27734 1.14925 0
M  V30 179 C 16.9172 -3.64147 2.24902 0
M  V30 180 C 16.2432 -4.99806 1.89996 0
M  V30 181 C 17.5432 -3.71579 3.67051 0
M  V30 182 H 19.2372 -1.92541 2.29277 0
M  V30 183 H 16.7832 -0.924948 1.10366 0
M  V30 184 H 18.7362 -4.06215 1.12104 0
M  V30 185 H 17.4602 -3.26154 0.170631 0
M  V30 186 H 16.1192 -2.8797 2.26868 0
M  V30 187 H 15.7672 -4.94759 0.906796 0
M  V30 188 H 15.4672 -5.25139 2.63634 0
M  V30 189 H 16.9912 -5.80694 1.88749 0
M  V30 190 H 18.4052 -4.40227 3.67251 0
M  V30 191 H 16.8022 -4.08405 4.39688 0
M  V30 192 H 17.8722 -2.72404 4.01154 0
M  V30 193 N 19.2153 -1.21501 -1.00376 0
M  V30 194 C 20.1453 -0.999478 -2.11028 0
M  V30 195 C 21.1263 0.0759671 -1.6993 0
M  V30 196 O 22.3113 -0.0841106 -1.94018 0
M  V30 197 C 19.4413 -0.564709 -3.42678 0
M  V30 198 C 18.3953 -1.58486 -3.97576 0
M  V30 199 C 17.7213 -1.00628 -5.25146 0
M  V30 200 C 19.0213 -2.97204 -4.29496 0
M  V30 201 H 20.7153 -1.92495 -2.29317 0
M  V30 202 H 18.2613 -0.92693 -1.102 0
M  V30 203 H 20.2143 -0.401091 -4.19487 0
M  V30 204 H 18.9383 0.396411 -3.24185 0
M  V30 205 H 17.5973 -1.73606 -3.22888 0
M  V30 206 H 17.2453 -0.0368439 -5.02987 0
M  V30 207 H 16.9453 -1.68771 -5.62841 0
M  V30 208 H 18.4693 -0.854015 -6.04598 0
M  V30 209 H 19.8833 -2.8552 -4.97143 0
M  V30 210 H 18.2803 -3.62372 -4.78338 0
M  V30 211 H 19.3503 -3.47956 -3.3772 0
M  V30 212 N 20.6934 1.19889 -1.02296 0
M  V30 213 C 21.9334 1.91125 -0.724602 0
M  V30 214 C 22.2974 1.77464 0.732835 0
M  V30 215 O 23.4984 2.43241 1.144 0
M  V30 216 C 21.7694 3.38187 -1.15604 0
M  V30 217 S 23.3284 4.27702 -0.980621 0
M  V30 218 H 20.1464 0.66018 -0.263976 0
M  V30 219 H 22.7484 1.44978 -1.31155 0
M  V30 220 H 21.4524 3.45653 -2.21251 0
M  V30 221 H 20.9834 3.89363 -0.562131 0
M  V30 222 H 22.9984 4.96073 0.112225 0
M  V30 223 N 22.1715 0.800033 1.35784 0
M  V30 224 C 23.1015 0.220184 2.3246 0
M  V30 225 C 24.0825 -0.65073 1.57161 0
M  V30 226 O 25.2675 -0.582359 1.85263 0
M  V30 227 C 22.3975 -0.637353 3.41402 0
M  V30 228 C 21.3515 0.134531 4.27789 0
M  V30 229 C 20.6775 -0.844285 5.27992 0
M  V30 230 C 21.9775 1.32979 5.05088 0
M  V30 231 H 23.6715 1.02787 2.81203 0
M  V30 232 H 21.2175 0.495717 1.35199 0
M  V30 233 H 23.1705 -1.05302 4.08031 0
M  V30 234 H 21.8945 -1.47785 2.91251 0
M  V30 235 H 20.5535 0.531296 3.6273 0
M  V30 236 H 20.2015 -1.68011 4.74111 0
M  V30 237 H 19.9015 -0.332184 5.8666 0
M  V30 238 H 21.4255 -1.2583 5.97494 0
M  V30 239 H 22.8395 0.98934 5.64699 0
M  V30 240 H 21.2365 1.77593 5.7322 0
M  V30 241 H 22.3065 2.11978 4.36111 0
M  V30 242 N 23.6496 -1.47581 0.552962 0
M  V30 243 C 24.8746 -2.07378 0.0300593 0
M  V30 244 C 25.2996 -1.40355 -1.25229 0
M  V30 245 O 24.6576 -0.477099 -1.7491 0
M  V30 246 C 24.7056 -3.60274 -0.153231 0
M  V30 247 O 23.8096 -3.94041 -1.21678 0
M  V30 248 H 23.1506 -0.662158 0.0494182 0
M  V30 249 H 25.6806 -1.89662 0.767434 0
M  V30 250 H 25.6906 -4.0633 -0.368761 0
M  V30 251 H 24.3656 -4.08455 0.783397 0
M  V30 252 H 22.9426 -3.59735 -0.982079 0
M  V30 253 N 25.1277 -0.289203 -1.54924 0
M  V30 254 C 26.0577 0.58549 -2.2604 0
M  V30 255 C 27.0387 1.14753 -1.25562 0
M  V30 256 O 28.2237 1.17906 -1.54311 0
M  V30 257 C 25.3537 1.76305 -2.99222 0
M  V30 258 C 24.3077 1.33191 -4.06748 0
M  V30 259 C 23.6337 2.5937 -4.6758 0
M  V30 260 C 24.9337 0.471775 -5.20165 0
M  V30 261 H 26.6277 -0.00763532 -2.99399 0
M  V30 262 H 24.1737 -0.00511229 -1.43999 0
M  V30 263 H 26.1267 2.38097 -3.47689 0
M  V30 264 H 24.8507 2.38223 -2.23422 0
M  V30 265 H 23.5097 0.737121 -3.59113 0
M  V30 266 H 23.1577 3.19576 -3.88433 0
M  V30 267 H 22.8577 2.31228 -5.40192 0
M  V30 268 H 24.3817 3.21985 -5.18804 0
M  V30 269 H 25.7957 0.995056 -5.64599 0
M  V30 270 H 24.1927 0.284639 -5.99425 0
M  V30 271 H 25.2627 -0.506041 -4.82252 0
M  V30 272 N 26.6058 1.57591 -0.0167156 0
M  V30 273 C 27.5358 2.12496 0.967858 0
M  V30 274 C 28.5168 1.03807 1.34752 0
M  V30 275 O 29.7018 1.31577 1.42833 0
M  V30 276 C 26.8318 2.64194 2.25431 0
M  V30 277 C 25.7858 3.77559 2.01576 0
M  V30 278 C 25.1118 4.15636 3.36379 0
M  V30 279 C 26.4118 5.04151 1.36489 0
M  V30 280 H 28.1058 2.95013 0.510643 0
M  V30 281 H 25.6518 1.41915 0.244181 0
M  V30 282 H 27.6048 3.01236 2.94678 0
M  V30 283 H 26.3288 1.78821 2.73296 0
M  V30 284 H 24.9878 3.40937 1.34751 0
M  V30 285 H 24.6358 3.27263 3.81979 0
M  V30 286 H 24.3358 4.92022 3.21229 0
M  V30 287 H 25.8598 4.5525 4.06915 0
M  V30 288 H 27.2738 5.38857 1.95718 0
M  V30 289 H 25.6708 5.85453 1.31776 0
M  V30 290 H 26.7408 4.83733 0.336219 0
M  V30 291 N 28.0839 -0.256276 1.55502 0
M  V30 292 C 29.0139 -1.32102 1.92539 0
M  V30 293 C 29.9949 -1.50684 0.789194 0
M  V30 294 O 31.1799 -1.63449 1.04872 0
M  V30 295 C 28.3099 -2.67752 2.21192 0
M  V30 296 C 27.2639 -2.63878 3.36975 0
M  V30 297 C 26.5899 -4.03236 3.51147 0
M  V30 298 C 27.8899 -2.21682 4.72921 0
M  V30 299 H 29.5839 -1.01351 2.81724 0
M  V30 300 H 27.1299 -0.486105 1.35547 0
M  V30 301 H 29.0829 -3.42365 2.45691 0
M  V30 302 H 27.8069 -3.0012 1.28824 0
M  V30 303 H 26.4659 -1.91722 3.12471 0
M  V30 304 H 26.1139 -4.32854 2.56216 0
M  V30 305 H 25.8139 -4.01535 4.29003 0
M  V30 306 H 27.3379 -4.79563 3.77957 0
M  V30 307 H 28.7519 -2.86023 4.96854 0
M  V30 308 H 27.1489 -2.3111 5.53812 0
M  V30 309 H 28.2189 -1.16833 4.70615 0
M  V30 310 N 29.562 -1.4872 -0.521534 0
M  V30 311 C 30.492 -1.66771 -1.63431 0
M  V30 312 C 31.473 -0.516499 -1.62069 0
M  V30 313 O 32.658 -0.750013 -1.79132 0
M  V30 314 C 29.788 -1.71515 -3.01993 0
M  V30 315 C 28.742 -2.86222 -3.18216 0
M  V30 316 C 28.068 -2.76061 -4.57924 0
M  V30 317 C 29.368 -4.27419 -3.00184 0
M  V30 318 H 31.062 -2.59932 -1.48579 0
M  V30 319 H 28.608 -1.25089 -0.713358 0
M  V30 320 H 30.561 -1.82731 -3.7972 0
M  V30 321 H 29.285 -0.749393 -3.17886 0
M  V30 322 H 27.944 -2.74575 -2.42908 0
M  V30 323 H 27.592 -1.77437 -4.70665 0
M  V30 324 H 27.292 -3.53037 -4.69722 0
M  V30 325 H 28.816 -2.89256 -5.37739 0
M  V30 326 H 30.23 -4.39855 -3.67697 0
M  V30 327 H 28.627 -5.05458 -3.2347 0
M  V30 328 H 29.697 -4.43293 -1.96518 0
M  V30 329 N 31.0401 0.771051 -1.3745 0
M  V30 330 C 32.2881 1.52661 -1.32435 0
M  V30 331 C 32.6091 1.9479 0.0905024 0
M  V30 332 O 31.8791 1.66348 1.03466 0
M  V30 333 H 30.4591 0.566218 -0.487244 0
M  V30 334 H 33.1211 0.917636 -1.71946 0
M  V30 335 H 32.2171 2.42568 -1.96385 0
M  V30 336 N 32.5182 1.22032 0.997298 0
M  V30 337 C 33.7582 1.05375 1.75144 0
M  V30 338 C 34.1222 -0.404696 1.87686 0
M  V30 339 O 35.3232 -0.691998 2.5974 0
M  V30 340 C 33.5942 1.74046 3.12158 0
M  V30 341 S 35.1532 1.72745 4.03366 0
M  V30 342 H 31.9712 0.377449 0.602539 0
M  V30 343 H 34.5732 1.54902 1.19272 0
M  V30 344 H 33.2772 2.79332 3.00669 0
M  V30 345 H 32.8082 1.24731 3.73103 0
M  V30 346 H 34.8232 0.774015 4.90126 0
M  V30 347 N 33.9963 -1.19345 1.0293 0
M  V30 348 C 35.2423 -1.89585 0.736824 0
M  V30 349 C 35.5973 -1.78148 -0.726703 0
M  V30 350 O 34.8903 -1.16332 -1.52242 0
M  V30 351 C 35.0843 -3.39292 1.12319 0
M  V30 352 C 34.9133 -3.65298 2.62273 0
M  V30 353 C 33.6833 -3.83304 3.29251 0
M  V30 354 C 35.8813 -3.6682 3.60482 0
M  V30 355 N 33.8633 -3.96944 4.68304 0
M  V30 356 C 35.2343 -3.86037 4.85155 0
M  V30 357 C 37.2893 -3.49848 3.54275 0
M  V30 358 C 35.9923 -3.9004 6.04369 0
M  V30 359 C 38.0183 -3.55129 4.72903 0
M  V30 360 C 37.3803 -3.74831 5.9639 0
M  V30 361 H 33.4793 -0.712856 0.321497 0
M  V30 362 H 36.0633 -1.43427 1.31669 0
M  V30 363 H 34.2343 -3.84172 0.571524 0
M  V30 364 H 35.9663 -3.97055 0.78292 0
M  V30 365 H 32.7213 -3.82211 2.79663 0
M  V30 366 H 33.1453 -4.07613 5.40538 0
M  V30 367 H 37.7873 -3.33572 2.59788 0
M  V30 368 H 35.5053 -4.05108 6.99223 0
M  V30 369 H 39.0913 -3.43287 4.69729 0
M  V30 370 H 37.9713 -3.78792 6.86649 0
M  V30 371 N 35.4744 -0.807222 -1.35358 0
M  V30 372 C 36.4374 -0.223665 -2.28106 0
M  V30 373 C 37.4374 0.589354 -1.4961 0
M  V30 374 O 38.6274 0.407745 -1.69361 0
M  V30 375 C 35.7594 0.688149 -3.33882 0
M  V30 376 H 36.9524 -1.04169 -2.81227 0
M  V30 377 H 34.5054 -0.577921 -1.45223 0
M  V30 378 H 35.2404 1.52984 -2.85948 0
M  V30 379 H 35.0254 0.10687 -3.91954 0
M  V30 380 H 36.5154 1.09075 -4.03104 0
M  V30 381 N 36.9525 1.47285 -0.560781 0
M  V30 382 C 37.8625 2.33846 0.187954 0
M  V30 383 C 38.8785 1.48412 0.908293 0
M  V30 384 O 40.0545 1.81332 0.876388 0
M  V30 385 C 37.1195 3.25178 1.2025 0
M  V30 386 C 36.1805 4.26504 0.489208 0
M  V30 387 C 35.4135 5.13472 1.45542 0
M  V30 388 O 35.6365 5.02959 2.6905 0
M  V30 389 O 34.5705 5.93902 0.977963 0
M  V30 390 H 38.3965 2.99177 -0.522177 0
M  V30 391 H 35.9815 1.45903 -0.321364 0
M  V30 392 H 37.8635 3.81584 1.78805 0
M  V30 393 H 36.5385 2.6247 1.89449 0
M  V30 394 H 35.4455 3.73847 -0.137627 0
M  V30 395 H 36.7785 4.91935 -0.161399 0
M  V30 396 N 38.4306 0.297415 1.54768 0
M  V30 397 C 39.3606 -0.573494 2.26348 0
M  V30 398 C 40.3416 -1.14085 1.26169 0
M  V30 399 O 41.5266 -1.17086 1.54934 0
M  V30 400 C 38.6566 -1.74716 3.00153 0
M  V30 401 C 37.6106 -1.31032 4.07449 0
M  V30 402 C 36.9366 -2.56887 4.68949 0
M  V30 403 C 38.2366 -0.444183 5.20408 0
M  V30 404 H 39.9306 0.0235131 2.99391 0
M  V30 405 H 37.4766 0.0127488 1.43994 0
M  V30 406 H 39.4296 -2.3625 3.48947 0
M  V30 407 H 38.1536 -2.37035 2.24682 0
M  V30 408 H 36.8126 -0.718066 3.59499 0
M  V30 409 H 36.4606 -3.17512 3.90122 0
M  V30 410 H 36.1606 -2.2836 5.41411 0
M  V30 411 H 37.6846 -3.19229 5.20505 0
M  V30 412 H 39.0986 -0.9651 5.65118 0
M  V30 413 H 37.4956 -0.252846 5.99567 0
M  V30 414 H 38.5656 0.531609 4.81977 0
M  V30 415 N 39.9087 -1.5758 0.0250728 0
M  V30 416 C 41.1567 -1.91255 -0.653151 0
M  V30 417 C 41.4777 -0.901691 -1.729 0
M  V30 418 O 40.7477 0.0573785 -1.95816 0
M  V30 419 H 39.3277 -0.705942 -0.244243 0
M  V30 420 H 41.9897 -1.94767 0.0719209 0
M  V30 421 H 41.0857 -2.91752 -1.10847 0
M  V30 422 N 41.3868 0.248026 -1.55636 0
M  V30 423 C 42.6118 0.998028 -1.81808 0
M  V30 424 C 43.0368 1.78207 -0.601979 0
M  V30 425 O 42.3948 1.75653 0.448961 0
M  V30 426 C 42.4428 1.9125 -3.05705 0
M  V30 427 O 41.5468 3.00406 -2.82542 0
M  V30 428 H 40.8878 0.284045 -0.600179 0
M  V30 429 H 43.4178 0.269357 -2.02819 0
M  V30 430 H 43.4278 2.32737 -3.35108 0
M  V30 431 H 42.1028 1.33602 -3.93857 0
M  V30 432 H 40.6798 2.63056 -2.64303 0
M  V30 433 N 42.8649 1.48995 0.513639 0
M  V30 434 C 44.1129 1.57531 1.26604 0
M  V30 435 C 44.4339 0.258236 1.93283 0
M  V30 436 O 43.7039 -0.721502 1.8213 0
M  V30 437 H 42.2839 0.580387 0.470276 0
M  V30 438 H 44.9459 1.85552 0.596373 0
M  V30 439 H 44.0419 2.36486 2.03669 0
M  V30 440 N 44.343 -0.763751 1.37857 0
M  V30 441 C 45.273 -1.89103 1.36975 0
M  V30 442 C 46.254 -1.68439 0.237152 0
M  V30 443 O 47.439 -1.8918 0.438713 0
M  V30 444 C 44.569 -3.26496 1.18395 0
M  V30 445 C 43.523 -3.61741 2.28751 0
M  V30 446 C 42.849 -4.97762 1.95286 0
M  V30 447 C 44.149 -3.67665 3.70972 0
M  V30 448 H 45.843 -1.90099 2.31307 0
M  V30 449 H 43.389 -0.91319 1.11341 0
M  V30 450 H 45.342 -4.05003 1.16406 0
M  V30 451 H 44.066 -3.25955 0.205215 0
M  V30 452 H 42.725 -2.85547 2.29909 0
M  V30 453 H 42.373 -4.93769 0.959221 0
M  V30 454 H 42.073 -5.22313 2.69189 0
M  V30 455 H 43.597 -5.7866 1.94898 0
M  V30 456 H 45.011 -4.36307 3.719 0
M  V30 457 H 43.408 -4.03718 4.43995 0
M  V30 458 H 44.478 -2.68134 4.0402 0
M  V30 459 N 45.8211 -1.22559 -0.990812 0
M  V30 460 C 46.7311 -1.01394 -2.11557 0
M  V30 461 C 47.7471 0.0383962 -1.73958 0
M  V30 462 O 48.9231 -0.154787 -2.00804 0
M  V30 463 C 45.9881 -0.596569 -3.41529 0
M  V30 464 C 45.0491 -1.72276 -3.93217 0
M  V30 465 C 44.2821 -1.32521 -5.16985 0
M  V30 466 O 44.5051 -0.204909 -5.70032 0
M  V30 467 O 43.4391 -2.14247 -5.62478 0
M  V30 468 H 47.2651 -1.95633 -2.32296 0
M  V30 469 H 44.8501 -1.01172 -1.0993 0
M  V30 470 H 46.7321 -0.374263 -4.19735 0
M  V30 471 H 45.4071 0.316939 -3.22145 0
M  V30 472 H 44.3141 -1.99961 -3.16174 0
M  V30 473 H 45.6471 -2.61421 -4.17037 0
M  V30 474 N 47.2992 1.18797 -1.03562 0
M  V30 475 C 48.5462 1.8865 -0.736023 0
M  V30 476 C 48.8742 1.80041 0.735889 0
M  V30 477 O 48.1292 1.19179 1.55225 0
M  V30 478 C 48.4282 3.38692 -1.14117 0
M  V30 479 C 48.0942 3.67504 -2.6125 0
M  V30 480 C 46.7562 3.75078 -3.01447 0
M  V30 481 C 49.1082 3.80293 -3.56408 0
M  V30 482 C 46.4362 3.92915 -4.35701 0
M  V30 483 C 48.7882 3.99645 -4.90374 0
M  V30 484 C 47.4522 4.05453 -5.30249 0
M  V30 485 H 46.7222 0.690321 -0.26933 0
M  V30 486 H 49.3692 1.40641 -1.29971 0
M  V30 487 H 47.6742 3.88645 -0.496202 0
M  V30 488 H 49.3712 3.91072 -0.886789 0
M  V30 489 H 45.9612 3.62223 -2.29113 0
M  V30 490 H 50.1452 3.73779 -3.26501 0
M  V30 491 H 45.4012 3.95653 -4.66121 0
M  V30 492 H 49.5752 4.08482 -5.64017 0
M  V30 493 H 47.2022 4.19027 -6.34288 0
M  V30 494 N 48.7773 0.814389 1.34928 0
M  V30 495 C 50.1883 0.458364 1.80986 0
M  V30 496 C 50.5393 -1.02042 1.67577 0
M  V30 497 O 49.6643 -1.79352 1.21086 0
M  V30 498 C 50.2593 0.825212 3.28597 0
M  V30 499 C 48.8183 0.521677 3.72767 0
M  V30 500 C 47.9653 1.04668 2.56788 0
M  V30 501 H 50.9163 1.00533 1.22795 0
M  V30 502 H 50.9373 0.12571 3.80292 0
M  V30 503 H 50.4493 1.90154 3.38324 0
M  V30 504 H 48.5503 -0.545589 3.68584 0
M  V30 505 H 48.6633 1.05977 4.67232 0
M  V30 506 H 47.0273 0.468622 2.50352 0
M  V30 507 H 47.8103 2.12927 2.6929 0
M  V30 508 N 50.2554 -1.46986 0.568584 0
M  V30 509 C 51.5034 -2.02041 0.0487022 0
M  V30 510 C 51.8244 -1.44408 -1.31039 0
M  V30 511 O 51.0944 -0.623477 -1.85714 0
M  V30 512 H 49.6744 -0.746849 0.015014 0
M  V30 513 H 52.3364 -1.80257 0.741168 0
M  V30 514 H 51.4324 -3.12085 -0.0308961 0
M  V30 515 N 51.7335 -0.305618 -1.54608 0
M  V30 516 C 52.6965 0.555591 -2.22364 0
M  V30 517 C 53.6965 1.05768 -1.21119 0
M  V30 518 O 54.8865 0.952972 -1.45822 0
M  V30 519 C 52.0185 1.76974 -2.91364 0
M  V30 520 H 53.2115 -0.0364572 -2.99878 0
M  V30 521 H 50.7645 -0.0565007 -1.56198 0
M  V30 522 H 51.4995 2.40151 -2.17941 0
M  V30 523 H 51.2845 1.41732 -3.65588 0
M  V30 524 H 52.7745 2.38148 -3.43038 0
M  V30 525 N 53.2116 1.57565 -0.0334293 0
M  V30 526 C 54.1216 2.13943 0.962572 0
M  V30 527 C 55.1376 1.09276 1.35406 0
M  V30 528 O 56.3136 1.41355 1.4346 0
M  V30 529 C 53.3786 2.65887 2.22497 0
M  V30 530 C 52.4396 3.85286 1.8935 0
M  V30 531 C 51.6726 4.34743 3.09571 0
M  V30 532 O 51.8956 3.83352 4.22371 0
M  V30 533 O 50.8296 5.26538 2.91618 0
M  V30 534 H 54.6556 2.99333 0.513169 0
M  V30 535 H 52.2406 1.4822 0.18743 0
M  V30 536 H 54.1226 2.99346 2.96598 0
M  V30 537 H 52.7976 1.83578 2.6661 0
M  V30 538 H 51.7046 3.56746 1.1262 0
M  V30 539 H 53.0376 4.68771 1.5005 0
M  V30 540 N 54.6897 -0.239769 1.55765 0
M  V30 541 C 55.9377 -0.964892 1.77579 0
M  V30 542 C 56.2587 -1.85582 0.598699 0
M  V30 543 O 55.5287 -1.92075 -0.385226 0
M  V30 544 H 54.1087 -0.359265 0.654933 0
M  V30 545 H 56.7707 -0.256001 1.93211 0
M  V30 546 H 55.8667 -1.58243 2.69009 0
M  V30 547 N 56.1678 -1.49265 -0.50573 0
M  V30 548 C 57.0998 -1.617 -1.62437 0
M  V30 549 C 58.1128 -0.499924 -1.54934 0
M  V30 550 O 59.3018 -0.771785 -1.60953 0
M  V30 551 C 56.4018 -1.5533 -3.01207 0
M  V30 552 C 55.5748 -2.8249 -3.33943 0
M  V30 553 C 54.6338 -2.69238 -4.52103 0
M  V30 554 O 53.6598 -3.43167 -4.5412 0
M  V30 555 N 54.8618 -1.80468 -5.51735 0
M  V30 556 H 57.6268 -2.58177 -1.52199 0
M  V30 557 H 55.1878 -1.46294 -0.693511 0
M  V30 558 H 57.1798 -1.44125 -3.78167 0
M  V30 559 H 55.7498 -0.667297 -3.05395 0
M  V30 560 H 54.9698 -3.08081 -2.45926 0
M  V30 561 H 56.2578 -3.66802 -3.5261 0
M  V30 562 H 55.6558 -1.19653 -5.52901 0
M  V30 563 H 54.2128 -1.75188 -6.27816 0
M  V30 564 N 57.6459 0.756429 -1.3826 0
M  V30 565 C 58.8919 1.5168 -1.35517 0
M  V30 566 C 59.2469 1.9232 0.0554451 0
M  V30 567 O 58.5399 1.62352 1.01746 0
M  V30 568 C 58.7339 2.78313 -2.24224 0
M  V30 569 C 58.5629 2.50053 -3.7377 0
M  V30 570 C 57.3329 2.43414 -4.42807 0
M  V30 571 C 59.5309 2.1702 -4.66269 0
M  V30 572 N 57.5129 2.07398 -5.77805 0
M  V30 573 C 58.8839 1.91271 -5.89759 0
M  V30 574 C 60.9389 2.03305 -4.54501 0
M  V30 575 C 59.6419 1.53192 -7.02798 0
M  V30 576 C 61.6679 1.66627 -5.67441 0
M  V30 577 C 61.0299 1.4175 -6.8999 0
M  V30 578 H 57.1289 0.554735 -0.551174 0
M  V30 579 H 59.7129 0.881106 -1.73622 0
M  V30 580 H 57.8839 3.39696 -1.88311 0
M  V30 581 H 59.6159 3.44343 -2.12627 0
M  V30 582 H 56.3709 2.59789 -3.95988 0
M  V30 583 H 56.7949 1.92044 -6.4919 0
M  V30 584 H 61.4369 2.21215 -3.60311 0
M  V30 585 H 59.1549 1.34022 -7.96909 0
M  V30 586 H 62.7409 1.56652 -5.60314 0
M  V30 587 H 61.6209 1.1379 -7.759 0
M  V30 588 N 59.124 1.23083 0.984299 0
M  V30 589 C 60.352 1.08714 1.76037 0
M  V30 590 C 60.767 -0.361691 1.85303 0
M  V30 591 O 60.124 -1.25034 1.32939 0
M  V30 592 C 60.175 1.70206 3.18923 0
M  V30 593 O 59.896 3.09423 3.10144 0
M  V30 594 C 61.397 1.61227 4.12941 0
M  V30 595 H 58.617 0.380664 0.552572 0
M  V30 596 H 61.161 1.62853 1.23689 0
M  V30 597 H 59.316 1.20109 3.6831 0
M  V30 598 H 59.73 3.39188 4.00065 0
M  V30 599 H 61.204 2.08962 5.10919 0
M  V30 600 H 61.681 0.570375 4.35481 0
M  V30 601 H 62.287 2.10671 3.69456 0
M  V30 602 N 60.6021 -1.18246 1.0419 0
M  V30 603 C 62.0181 -1.40269 0.761366 0
M  V30 604 C 62.2181 -1.90777 -0.648578 0
M  V30 605 O 61.2741 -2.0929 -1.41258 0
M  V30 606 C 62.5871 -2.40237 1.8085 0
M  V30 607 C 64.1351 -2.53961 1.82955 0
M  V30 608 C 64.6101 -3.57194 2.86664 0
M  V30 609 N 66.1011 -3.64702 2.85563 0
M  V30 610 C 66.8361 -4.44309 3.6246 0
M  V30 611 N 66.3321 -5.27514 4.49111 0
M  V30 612 N 68.1251 -4.39084 3.50944 0
M  V30 613 H 60.2761 -0.837882 1.95175 0
M  V30 614 H 62.5391 -0.430608 0.84456 0
M  V30 615 H 62.2451 -2.10176 2.81991 0
M  V30 616 H 62.1191 -3.39601 1.64168 0
M  V30 617 H 64.5061 -2.83338 0.824855 0
M  V30 618 H 64.5871 -1.54706 2.03715 0
M  V30 619 H 64.2311 -3.28558 3.87314 0
M  V30 620 H 64.1611 -4.5613 2.6316 0
M  V30 621 H 66.6521 -3.05289 2.22727 0
M  V30 622 H 66.9651 -5.85411 5.04493 0
M  V30 623 H 65.3101 -5.2693 4.53178 0
M  V30 624 H 68.5011 -3.7313 2.82651 0
M  V30 625 H 68.6741 -5.00883 4.11121 0
M  V30 626 N 62.0802 -0.821533 -1.34494 0
M  V30 627 C 63.3272 -0.408946 -1.98328 0
M  V30 628 C 63.6552 1.02764 -1.65136 0
M  V30 629 O 62.9102 1.73026 -0.914349 0
M  V30 630 C 63.2092 -0.556512 -3.53041 0
M  V30 631 C 62.8752 -1.95861 -4.0614 0
M  V30 632 C 61.5372 -2.34217 -4.20352 0
M  V30 633 C 63.8892 -2.87523 -4.34718 0
M  V30 634 C 61.2172 -3.63572 -4.6047 0
M  V30 635 C 63.5692 -4.1634 -4.76281 0
M  V30 636 C 62.2332 -4.54675 -4.88699 0
M  V30 637 H 61.5032 -0.149644 -0.725732 0
M  V30 638 H 64.1502 -1.04521 -1.6046 0
M  V30 639 H 62.4552 0.163148 -3.9146 0
M  V30 640 H 64.1522 -0.217826 -4.00408 0
M  V30 641 H 60.7422 -1.65066 -3.95539 0
M  V30 642 H 64.9262 -2.59133 -4.23277 0
M  V30 643 H 60.1822 -3.93101 -4.68275 0
M  V30 644 H 64.3562 -4.87455 -4.97354 0
M  V30 645 H 61.9832 -5.54959 -5.19542 0
M  V30 646 N 63.5583 1.46682 -0.576371 0
M  V30 647 C 64.9693 1.86112 -0.148091 0
M  V30 648 C 65.3203 1.48073 1.2872 0
M  V30 649 O 64.4453 0.892656 1.97131 0
M  V30 650 C 65.0403 3.37786 -0.261982 0
M  V30 651 C 63.5993 3.76235 0.111384 0
M  V30 652 C 62.7463 2.70713 -0.60083 0
M  V30 653 H 65.6973 1.37927 -0.78497 0
M  V30 654 H 65.7183 3.77007 0.514364 0
M  V30 655 H 65.2303 3.6544 -1.30671 0
M  V30 656 H 63.3313 3.54198 1.15649 0
M  V30 657 H 63.4443 4.78391 -0.26052 0
M  V30 658 H 61.8083 2.54666 -0.0417783 0
M  V30 659 H 62.5913 3.01208 -1.64708 0
M  V30 660 N 65.0364 0.313813 1.54444 0
M  V30 661 C 65.9834 -0.55655 2.23989 0
M  V30 662 C 66.9534 -1.11943 1.22711 0
M  V30 663 O 68.1384 -1.16158 1.51367 0
M  V30 664 C 65.2784 -1.71635 2.99392 0
M  V30 665 C 64.3914 -1.18364 4.15468 0
M  V30 666 C 63.5264 -2.30834 4.78424 0
M  V30 667 C 62.5654 -1.74762 5.86622 0
M  V30 668 N 61.7024 -2.80855 6.43479 0
M  V30 669 H 66.5424 0.0430893 2.97969 0
M  V30 670 H 64.0794 0.0330359 1.47063 0
M  V30 671 H 66.0374 -2.39868 3.41349 0
M  V30 672 H 64.6674 -2.28742 2.27765 0
M  V30 673 H 63.7194 -0.393163 3.78363 0
M  V30 674 H 65.0314 -0.733262 4.93381 0
M  V30 675 H 64.1854 -3.0699 5.23299 0
M  V30 676 H 62.9244 -2.79204 3.99871 0
M  V30 677 H 61.9294 -0.970995 5.41158 0
M  V30 678 H 63.1544 -1.2728 6.67066 0
M  V30 679 H 61.1004 -3.28535 5.67804 0
M  V30 680 H 61.0174 -2.40351 7.16776 0
M  V30 681 H 62.2854 -3.5687 6.93011 0
M  V30 682 N 66.5145 -1.57545 0.0417849 0
M  V30 683 C 67.7605 -1.93424 -0.629168 0
M  V30 684 C 68.1155 -0.919564 -1.69002 0
M  V30 685 O 67.4085 0.0626178 -1.91498 0
M  V30 686 C 67.6025 -3.33794 -1.27735 0
M  V30 687 C 67.4315 -4.48822 -0.280806 0
M  V30 688 C 66.2015 -5.05148 0.123869 0
M  V30 689 C 68.3995 -5.12148 0.470012 0
M  V30 690 N 66.3815 -6.03703 1.11426 0
M  V30 691 C 67.7525 -6.05921 1.31377 0
M  V30 692 C 69.8075 -4.95078 0.529343 0
M  V30 693 C 68.5105 -6.84459 2.21152 0
M  V30 694 C 70.5365 -5.74235 1.41448 0
M  V30 695 C 69.8985 -6.67634 2.24598 0
M  V30 696 H 65.9975 -0.755418 -0.202158 0
M  V30 697 H 68.5815 -1.94378 0.111923 0
M  V30 698 H 66.7525 -3.33635 -1.98852 0
M  V30 699 H 68.4845 -3.56988 -1.90635 0
M  V30 700 H 65.2395 -4.72923 -0.253178 0
M  V30 701 H 65.6635 -6.57674 1.60607 0
M  V30 702 H 70.3055 -4.22683 -0.0992798 0
M  V30 703 H 68.0235 -7.56151 2.85063 0
M  V30 704 H 71.6095 -5.63057 1.46484 0
M  V30 705 H 70.4895 -7.27817 2.9198 0
M  V30 706 N 67.9926 0.231505 -1.5589 0
M  V30 707 C 68.9406 1.30649 -1.92441 0
M  V30 708 C 69.9346 1.49037 -0.805254 0
M  V30 709 O 71.1406 1.50329 -0.990007 0
M  V30 710 H 67.5156 0.437812 -0.611412 0
M  V30 711 H 69.4866 0.970973 -2.82161 0
M  V30 712 C 68.2356 2.65179 -2.24889 0
M  V30 713 H 67.5586 2.51835 -3.10514 0
M  V30 714 H 68.9986 3.39234 -2.54355 0
M  V30 715 C 67.4576 3.19439 -1.07054 0
M  V30 716 O 67.9876 4.00371 -0.326499 0
M  V30 717 N 66.1936 2.77675 -0.85703 0
M  V30 718 H 65.7406 2.11969 -1.46379 0
M  V30 719 H 65.6986 3.14321 -0.0703223 0
M  V30 720 N 69.4707 1.49531 0.497807 0
M  V30 721 C 70.4337 1.65916 1.58128 0
M  V30 722 C 71.4337 0.530825 1.51786 0
M  V30 723 O 72.6237 0.797342 1.54881 0
M  V30 724 C 69.7557 1.65951 2.9778 0
M  V30 725 H 70.9487 2.62556 1.44929 0
M  V30 726 H 68.5017 1.38611 0.722275 0
M  V30 727 H 69.2367 0.709065 3.16453 0
M  V30 728 H 69.0217 2.47897 3.03792 0
M  V30 729 H 70.5117 1.80673 3.76493 0
M  V30 730 N 70.9488 -0.749086 1.3866 0
M  V30 731 C 72.1888 -1.52112 1.36534 0
M  V30 732 C 72.5528 -1.91951 -0.0432316 0
M  V30 733 O 73.7538 -2.68132 -0.189396 0
M  V30 734 C 72.0248 -2.73704 2.29828 0
M  V30 735 S 73.5838 -3.63519 2.45763 0
M  V30 736 H 70.4018 -0.520482 0.484375 0
M  V30 737 H 73.0038 -0.878963 1.74627 0
M  V30 738 H 71.7078 -2.42552 3.31054 0
M  V30 739 H 71.2388 -3.4286 1.929 0
M  V30 740 H 73.2538 -4.66712 1.68505 0
M  V30 741 N 72.4269 -1.23603 -0.977757 0
M  V30 742 C 73.6669 -1.08148 -1.73446 0
M  V30 743 C 74.0309 0.374785 -1.88307 0
M  V30 744 O 75.2319 0.650588 -2.60808 0
M  V30 745 C 73.5029 -1.78991 -3.0935 0
M  V30 746 S 75.0619 -1.79141 -4.00567 0
M  V30 747 H 71.8799 -0.386987 -0.596458 0
M  V30 748 H 74.4819 -1.5678 -1.16792 0
M  V30 749 H 73.1859 -2.8408 -2.96187 0
M  V30 750 H 72.7169 -1.30651 -3.71071 0
M  V30 751 H 74.7319 -0.851892 -4.88833 0
M  V30 752 N 73.905 1.17692 -1.04816 0
M  V30 753 C 74.815 2.25229 -0.65643 0
M  V30 754 C 75.831 1.71018 0.320761 0
M  V30 755 O 77.007 2.00649 0.173805 0
M  V30 756 C 74.072 3.46684 -0.0332629 0
M  V30 757 C 73.133 4.15997 -1.06042 0
M  V30 758 C 72.366 5.31654 -0.466893 0
M  V30 759 O 72.589 5.65777 0.724758 0
M  V30 760 O 71.523 5.89831 -1.1993 0
M  V30 761 H 75.349 2.61016 -1.55255 0
M  V30 762 H 72.934 1.24919 -0.81949 0
M  V30 763 H 74.816 4.20234 0.313256 0
M  V30 764 H 73.491 3.12703 0.836566 0
M  V30 765 H 72.398 3.44482 -1.45886 0
M  V30 766 H 73.731 4.53996 -1.90127 0
M  V30 767 N 75.3831 0.828654 1.34056 0
M  V30 768 C 76.6081 0.431637 2.02859 0
M  V30 769 C 77.0331 -0.956339 1.61975 0
M  V30 770 O 76.3911 -1.62338 0.807228 0
M  V30 771 C 76.4391 0.548323 3.56407 0
M  V30 772 O 75.5431 -0.429556 4.10157 0
M  V30 773 H 74.8841 0.176886 0.640006 0
M  V30 774 H 77.4141 1.12066 1.71179 0
M  V30 775 H 77.4241 0.426196 4.05768 0
M  V30 776 H 76.0991 1.5606 3.8551 0
M  V30 777 H 74.6761 -0.265836 3.71951 0
M  V30 778 N 76.8612 -1.46375 0.584142 0
M  V30 779 C 77.7712 -2.34115 -0.150728 0
M  V30 780 C 78.7872 -1.49838 -0.884567 0
M  V30 781 O 79.9632 -1.82704 -0.847429 0
M  V30 782 C 77.0282 -3.2705 -1.15062 0
M  V30 783 C 76.0892 -4.27228 -0.421293 0
M  V30 784 C 75.3222 -5.15722 -1.37355 0
M  V30 785 O 75.5452 -5.07176 -2.61014 0
M  V30 786 O 74.4792 -5.95383 -0.883355 0
M  V30 787 H 78.3052 -2.98309 0.569708 0
M  V30 788 H 75.8902 -1.45373 0.344535 0
M  V30 789 H 77.7722 -3.84381 -1.72712 0
M  V30 790 H 76.4472 -2.65451 -1.8525 0
M  V30 791 H 75.3542 -3.7358 0.197085 0
M  V30 792 H 76.6872 -4.91616 0.239641 0
M  V30 793 N 78.3393 -0.321999 -1.54275 0
M  V30 794 C 79.2723 0.58718 -2.20516 0
M  V30 795 C 80.2503 1.11693 -1.18167 0
M  V30 796 O 81.4343 1.18122 -1.46899 0
M  V30 797 C 78.5613 1.80554 -2.86562 0
M  V30 798 C 77.6073 1.40718 -4.02617 0
M  V30 799 S 78.4403 0.445218 -5.33646 0
M  V30 800 C 79.5963 1.6709 -6.03185 0
M  V30 801 H 79.8293 0.0244875 -2.9729 0
M  V30 802 H 77.3623 -0.106087 -1.54035 0
M  V30 803 H 79.3203 2.50462 -3.25237 0
M  V30 804 H 77.9813 2.33942 -2.09595 0
M  V30 805 H 77.1743 2.31501 -4.47687 0
M  V30 806 H 76.7763 0.78782 -3.65608 0
M  V30 807 H 79.0683 2.60856 -6.25268 0
M  V30 808 H 80.0113 1.26239 -6.96756 0
M  V30 809 H 80.4193 1.85716 -5.33076 0
M  V30 810 N 79.8174 1.5752 -0.0501392 0
M  V30 811 C 81.0424 1.97376 0.636997 0
M  V30 812 C 81.4674 0.927466 1.63645 0
M  V30 813 O 80.8254 -0.10941 1.8097 0
M  V30 814 C 80.8734 3.36304 1.30123 0
M  V30 815 O 79.9774 3.34156 2.41689 0
M  V30 816 H 79.3184 0.642998 0.165679 0
M  V30 817 H 81.8484 2.04258 -0.118233 0
M  V30 818 H 81.8584 3.73008 1.65315 0
M  V30 819 H 80.5334 4.11993 0.568746 0
M  V30 820 H 79.1104 3.09196 2.08451 0
M  V30 821 N 81.2955 -0.223234 1.56011 0
M  V30 822 C 82.5425 -0.947875 1.78946 0
M  V30 823 C 82.8705 -1.844 0.618608 0
M  V30 824 O 82.1255 -1.91629 -0.397093 0
M  V30 825 C 82.4245 -1.81948 3.0762 0
M  V30 826 C 82.0905 -1.07672 4.37856 0
M  V30 827 C 80.7525 -0.871544 4.73242 0
M  V30 828 C 83.1045 -0.552081 5.18268 0
M  V30 829 C 80.4325 -0.129791 5.86556 0
M  V30 830 C 82.7845 0.17632 6.32354 0
M  V30 831 C 81.4485 0.39277 6.66343 0
M  V30 832 H 80.7185 -0.346852 0.654809 0
M  V30 833 H 83.3655 -0.216171 1.90276 0
M  V30 834 H 81.6705 -2.61899 2.91404 0
M  V30 835 H 83.3675 -2.38227 3.22566 0
M  V30 836 H 79.9575 -1.24662 4.1007 0
M  V30 837 H 84.1415 -0.698076 4.91366 0
M  V30 838 H 79.3975 0.048153 6.11381 0
M  V30 839 H 83.5715 0.590367 6.93893 0
M  V30 840 H 81.1985 0.969466 7.53993 0
M  V30 841 N 82.7736 -1.49793 -0.48987 0
M  V30 842 C 83.7056 -1.63413 -1.60713 0
M  V30 843 C 84.7186 -0.516329 -1.54395 0
M  V30 844 O 85.9076 -0.788812 -1.60125 0
M  V30 845 C 83.0076 -1.58516 -2.99543 0
M  V30 846 C 82.1806 -2.86016 -3.30928 0
M  V30 847 C 81.2396 -2.74018 -4.49222 0
M  V30 848 O 80.2656 -3.47964 -4.50455 0
M  V30 849 N 81.4676 -1.86309 -5.4979 0
M  V30 850 H 84.2326 -2.59777 -1.49452 0
M  V30 851 H 81.7936 -1.47022 -0.677955 0
M  V30 852 H 83.7856 -1.48128 -3.76617 0
M  V30 853 H 82.3556 -0.69965 -3.0467 0
M  V30 854 H 81.5756 -3.10672 -2.42645 0
M  V30 855 H 82.8636 -3.70521 -3.487 0
M  V30 856 H 82.2616 -1.2551 -5.51601 0
M  V30 857 H 80.8186 -1.81837 -6.25922 0
M  V30 858 N 84.2517 0.741722 -1.39055 0
M  V30 859 C 85.1817 1.869 -1.39966 0
M  V30 860 C 86.1627 1.6804 -0.26392 0
M  V30 861 O 87.3477 1.88458 -0.468755 0
M  V30 862 C 84.4777 3.24572 -1.23574 0
M  V30 863 C 83.4317 3.58056 -2.34477 0
M  V30 864 C 82.7577 4.94593 -2.0318 0
M  V30 865 C 84.0577 3.61716 -3.76774 0
M  V30 866 H 85.7517 1.86395 -2.34302 0
M  V30 867 H 83.2977 0.895361 -1.1278 0
M  V30 868 H 85.2507 4.031 -1.22834 0
M  V30 869 H 83.9747 3.25587 -0.257045 0
M  V30 870 H 82.6337 2.81854 -2.34423 0
M  V30 871 H 82.2817 4.92181 -1.03765 0
M  V30 872 H 81.9817 5.17964 -2.77465 0
M  V30 873 H 83.5057 5.75486 -2.04079 0
M  V30 874 H 84.9197 4.30335 -3.78794 0
M  V30 875 H 83.3167 3.96603 -4.50362 0
M  V30 876 H 84.3867 2.61672 -4.08235 0
M  V30 877 N 85.7298 1.2412 0.971189 0
M  V30 878 C 86.6768 1.0305 2.06517 0
M  V30 879 C 87.6468 -0.0550666 1.66009 0
M  V30 880 O 88.8318 0.0988688 1.90544 0
M  V30 881 C 85.9718 0.637653 3.39158 0
M  V30 882 C 85.0848 1.79633 3.92882 0
M  V30 883 C 84.2198 1.34939 5.13775 0
M  V30 884 C 83.2588 2.47823 5.59687 0
M  V30 885 N 82.3958 2.04022 6.71803 0
M  V30 886 H 87.2358 1.96685 2.23873 0
M  V30 887 H 84.7728 0.979694 1.09729 0
M  V30 888 H 86.7308 0.390931 4.15364 0
M  V30 889 H 85.3608 -0.261693 3.21737 0
M  V30 890 H 84.4128 2.15681 3.13346 0
M  V30 891 H 85.7248 2.64466 4.22918 0
M  V30 892 H 84.8788 1.06134 5.97345 0
M  V30 893 H 83.6178 0.471557 4.85415 0
M  V30 894 H 82.6228 2.77392 4.74693 0
M  V30 895 H 83.8478 3.36158 5.90063 0
M  V30 896 H 81.7938 1.18632 6.45184 0
M  V30 897 H 81.7108 2.82409 7.01271 0
M  V30 898 H 82.9788 1.78347 7.58823 0
M  V30 899 N 87.2079 -1.17134 1.05439 0
M  V30 900 C 88.4359 -1.91372 0.786414 0
M  V30 901 C 88.8509 -1.76955 -0.658202 0
M  V30 902 O 88.2079 -1.10838 -1.44987 0
M  V30 903 C 88.2589 -3.42356 1.1608 0
M  V30 904 O 87.9799 -3.56332 2.54871 0
M  V30 905 C 89.4809 -4.33663 0.919322 0
M  V30 906 H 86.7009 -0.607118 0.285743 0
M  V30 907 H 89.2449 -1.48525 1.40572 0
M  V30 908 H 87.3999 -3.82939 0.586191 0
M  V30 909 H 87.8139 -4.49896 2.69618 0
M  V30 910 H 89.2879 -5.38099 1.231 0
M  V30 911 H 89.7649 -4.38959 -0.145359 0
M  V30 912 H 90.3709 -3.98796 1.47789 0
M  V30 913 N 88.686 -0.835752 -1.33615 0
M  V30 914 C 90.102 -0.523139 -1.50783 0
M  V30 915 C 90.302 0.950171 -1.77691 0
M  V30 916 O 89.358 1.73411 -1.83534 0
M  V30 917 C 90.671 -1.39378 -2.66448 0
M  V30 918 C 92.219 -1.39223 -2.80332 0
M  V30 919 C 92.694 -2.24765 -3.99055 0
M  V30 920 N 94.185 -2.22458 -4.06284 0
M  V30 921 C 94.92 -2.85386 -4.97336 0
M  V30 922 N 94.416 -3.57354 -5.93523 0
M  V30 923 N 96.209 -2.74872 -4.90308 0
M  V30 924 H 88.36 -1.78952 -1.14411 0
M  V30 925 H 90.623 -0.763297 -0.562212 0
M  V30 926 H 90.329 -2.44061 -2.53234 0
M  V30 927 H 90.203 -1.0676 -3.61776 0
M  V30 928 H 92.59 -0.353136 -2.92979 0
M  V30 929 H 92.671 -1.75846 -1.85773 0
M  V30 930 H 92.315 -3.28732 -3.87167 0
M  V30 931 H 92.245 -1.85485 -4.92852 0
M  V30 932 H 94.736 -1.70119 -3.37443 0
M  V30 933 H 95.049 -4.02584 -6.59656 0
M  V30 934 H 93.394 -3.61461 -5.93608 0
M  V30 935 H 96.585 -2.18213 -4.14126 0
M  V30 936 H 96.758 -3.24199 -5.61069 0
M  V30 937 N 90.1641 1.46063 -0.591896 0
M  V30 938 C 91.3891 2.07226 -0.0850314 0
M  V30 939 C 91.8141 1.43625 1.21463 0
M  V30 940 O 91.1721 0.523305 1.73583 0
M  V30 941 C 91.2201 3.60554 0.0576567 0
M  V30 942 O 90.3241 3.97128 1.11188 0
M  V30 943 H 89.6651 0.660615 -0.0669568 0
M  V30 944 H 92.1951 1.8756 -0.81745 0
M  V30 945 H 92.2051 4.07165 0.2609 0
M  V30 946 H 90.8801 4.06235 -0.891416 0
M  V30 947 H 89.4571 3.62213 0.886356 0
M  V30 948 N 91.6422 0.330177 1.54103 0
M  V30 949 C 92.6052 -0.520144 2.2322 0
M  V30 950 C 93.6052 -1.03828 1.22786 0
M  V30 951 O 94.7952 -0.929652 1.4732 0
M  V30 952 C 91.9272 -1.72317 2.94142 0
M  V30 953 H 93.1202 0.0841605 2.99782 0
M  V30 954 H 90.6732 0.0813433 1.56088 0
M  V30 955 H 91.4082 -2.36653 2.21734 0
M  V30 956 H 91.1932 -1.35898 3.67796 0
M  V30 957 H 92.6832 -2.3266 3.46784 0
M  V30 958 N 93.1203 -1.57491 0.0584922 0
M  V30 959 C 94.5363 -1.56792 -0.298091 0
M  V30 960 C 94.7363 -1.06679 -1.70944 0
M  V30 961 O 93.7923 -0.726672 -2.41818 0
M  V30 962 C 95.1053 -3.00461 -0.119879 0
M  V30 963 C 96.6533 -3.1242 -0.190428 0
M  V30 964 C 97.1283 -4.57982 -0.0406567 0
M  V30 965 N 98.6193 -4.63099 -0.0966958 0
M  V30 966 C 99.3543 -5.734 -0.00502943 0
M  V30 967 N 98.8503 -6.9266 0.139402 0
M  V30 968 N 100.643 -5.62067 -0.0611391 0
M  V30 969 H 92.7943 -1.88386 0.98105 0
M  V30 970 H 95.0573 -0.867865 0.381463 0
M  V30 971 H 94.7633 -3.41187 0.85349 0
M  V30 972 H 94.6373 -3.66843 -0.877833 0
M  V30 973 H 97.0243 -2.71589 -1.15427 0
M  V30 974 H 97.1053 -2.48702 0.598405 0
M  V30 975 H 96.7493 -4.995 0.919897 0
M  V30 976 H 96.6793 -5.19715 -0.848727 0
M  V30 977 H 99.1703 -3.77331 -0.207277 0
M  V30 978 H 99.4833 -7.72536 0.201855 0
M  V30 979 H 97.8283 -6.94781 0.174586 0
M  V30 980 H 101.019 -4.67782 -0.172583 0
M  V30 981 H 101.192 -6.47999 0.0137562 0
M  V30 982 N 94.5984 0.214957 -1.56127 0
M  V30 983 C 95.8464 0.936518 -1.79091 0
M  V30 984 C 96.1674 1.84606 -0.628148 0
M  V30 985 O 95.4374 1.92664 0.35462 0
M  V30 986 H 94.0174 0.3488 -0.660566 0
M  V30 987 H 96.6794 0.22523 -1.93594 0
M  V30 988 H 95.7754 1.53943 -2.71492 0
M  V30 989 N 96.0765 1.50051 0.48192 0
M  V30 990 C 97.0065 1.71046 1.58951 0
M  V30 991 C 97.9875 0.559288 1.60642 0
M  V30 992 O 99.1725 0.797243 1.77081 0
M  V30 993 C 96.3025 1.79462 2.97339 0
M  V30 994 C 95.2565 2.94558 3.10515 0
M  V30 995 C 94.5825 2.88105 4.50444 0
M  V30 996 C 95.8825 4.35227 2.88747 0
M  V30 997 H 97.5765 2.6378 1.41635 0
M  V30 998 H 95.1225 1.26936 0.679942 0
M  V30 999 H 97.0755 1.92734 3.74742 0
M  V30 1000 H 95.7995 0.833412 3.15788 0
M  V30 1001 H 94.4585 2.80918 2.35543 0
M  V30 1002 H 94.1065 1.89853 4.65795 0
M  V30 1003 H 93.8065 3.65366 4.60197 0
M  V30 1004 H 95.3305 3.03412 5.29881 0
M  V30 1005 H 96.7445 4.49449 3.55905 0
M  V30 1006 H 95.1415 5.13856 3.09955 0
M  V30 1007 H 96.2115 4.48347 1.84696 0
M  V30 1008 N 97.5546 -0.734337 1.39446 0
M  V30 1009 C 98.8006 -1.49613 1.36908 0
M  V30 1010 C 99.1336 -1.94169 -0.0347829 0
M  V30 1011 O 98.4086 -1.66833 -0.999847 0
M  V30 1012 C 98.6916 -2.73534 2.34203 0
M  V30 1013 C 98.5446 -2.34993 3.83534 0
M  V30 1014 C 99.8636 -3.75635 2.29317 0
M  V30 1015 H 96.9826 -0.542714 0.498629 0
M  V30 1016 H 99.6246 -0.839597 1.70443 0
M  V30 1017 H 97.7746 -3.29553 2.05736 0
M  V30 1018 H 99.4466 -1.84601 4.22753 0
M  V30 1019 H 97.6896 -1.67213 4.00278 0
M  V30 1020 H 98.3606 -3.23738 4.47099 0
M  V30 1021 H 100.837 -3.29203 2.54489 0
M  V30 1022 H 99.7126 -4.60008 2.99472 0
M  V30 1023 H 99.9736 -4.22603 1.29842 0
M  V30 1024 N 99.0327 -1.24633 -0.964593 0
M  V30 1025 C 99.9627 -1.06611 -2.07741 0
M  V30 1026 C 100.944 0.0218666 -1.70086 0
M  V30 1027 O 102.129 -0.145793 -1.93652 0
M  V30 1028 C 99.2587 -0.673444 -3.40708 0
M  V30 1029 C 98.2127 -1.71054 -3.92332 0
M  V30 1030 C 97.5387 -1.17285 -5.21678 0
M  V30 1031 C 98.8387 -3.10718 -4.19824 0
M  V30 1032 H 100.533 -1.99693 -2.23076 0
M  V30 1033 H 98.0787 -0.96152 -1.07195 0
M  V30 1034 H 100.032 -0.534345 -4.17998 0
M  V30 1035 H 98.7557 0.293073 -3.25282 0
M  V30 1036 H 97.4147 -1.83791 -3.17201 0
M  V30 1037 H 97.0627 -0.196847 -5.02615 0
M  V30 1038 H 96.7627 -1.86592 -5.57187 0
M  V30 1039 H 98.2867 -1.04593 -6.01575 0
M  V30 1040 H 99.7007 -3.01192 -4.87808 0
M  V30 1041 H 98.0977 -3.77406 -4.66567 0
M  V30 1042 H 99.1677 -3.58524 -3.26479 0
M  V30 1043 N 100.511 1.16574 -1.06058 0
M  V30 1044 C 101.741 1.90675 -0.795397 0
M  V30 1045 C 102.149 1.77547 0.653735 0
M  V30 1046 O 101.492 1.11611 1.45907 0
M  V30 1047 C 101.554 3.42011 -1.10764 0
M  V30 1048 C 101.218 3.78924 -2.55471 0
M  V30 1049 C 102.215 3.81042 -3.53699 0
M  V30 1050 C 99.8998 4.09626 -2.90708 0
M  V30 1051 C 101.894 4.13346 -4.85205 0
M  V30 1052 C 99.5808 4.41597 -4.22416 0
M  V30 1053 C 100.579 4.43436 -5.19474 0
M  V30 1054 O 100.267 4.74649 -6.48817 0
M  V30 1055 H 99.9988 0.611554 -0.288058 0
M  V30 1056 H 102.553 1.48711 -1.41683 0
M  V30 1057 H 100.783 3.84312 -0.429128 0
M  V30 1058 H 102.472 3.97384 -0.827077 0
M  V30 1059 H 103.238 3.57437 -3.27817 0
M  V30 1060 H 99.1168 4.07361 -2.15819 0
M  V30 1061 H 102.661 4.14696 -5.60957 0
M  V30 1062 H 98.5578 4.64667 -4.48056 0
M  V30 1063 H 99.3258 4.9247 -6.5377 0
M  V30 1064 N 101.989 0.842826 1.3317 0
M  V30 1065 C 103.236 0.440447 1.97652 0
M  V30 1066 C 103.564 -1.00123 1.6675 0
M  V30 1067 O 102.819 -1.7155 0.941761 0
M  V30 1068 C 103.118 0.612607 3.52111 0
M  V30 1069 C 102.784 2.02297 4.02972 0
M  V30 1070 C 101.446 2.40874 4.16573 0
M  V30 1071 C 103.798 2.94402 4.30089 0
M  V30 1072 C 101.126 3.70852 4.54627 0
M  V30 1073 C 103.478 4.23865 4.69597 0
M  V30 1074 C 102.142 4.62392 4.81404 0
M  V30 1075 H 101.412 0.161171 0.72326 0
M  V30 1076 H 104.059 1.07061 1.58777 0
M  V30 1077 H 102.364 -0.100849 3.9167 0
M  V30 1078 H 104.061 0.2815 4.00011 0
M  V30 1079 H 100.651 1.71338 3.92863 0
M  V30 1080 H 104.835 2.65835 4.19101 0
M  V30 1081 H 100.091 4.00501 4.61962 0
M  V30 1082 H 104.265 4.95306 4.89536 0
M  V30 1083 H 101.892 5.63154 5.10648 0
M  V30 1084 N 103.467 -1.45747 0.599634 0
M  V30 1085 C 104.744 -1.95585 0.0240846 0
M  V30 1086 C 105.124 -1.54217 -1.44154 0
M  V30 1087 O 104.472 -0.800903 -2.14004 0
M  V30 1088 C 104.682 -3.48344 0.21385 0
M  V30 1089 C 106.03 -4.24504 0.0904902 0
M  V30 1090 O 107.054 -3.55911 0.143558 0
M  V30 1091 O 105.913 -5.46491 -0.0310766 0
M  V30 1092 H 103.007 -0.82602 -0.0402478 0
M  V30 1093 H 105.553 -1.55951 0.669139 0
M  V30 1094 H 104.325 -3.71397 1.23206 0
M  V30 1095 H 103.948 -3.9485 -0.466842 0
M  V30 1096 N 104.945 -0.338344 -1.53925 0
M  V30 1097 C 106.222 0.314774 -1.93051 0
M  V30 1098 C 106.602 1.68669 -1.26941 0
M  V30 1099 O 105.95 2.24636 -0.418445 0
M  V30 1100 C 106.16 0.392249 -3.46789 0
M  V30 1101 C 107.508 0.645554 -4.19664 0
M  V30 1102 O 108.532 0.474575 -3.53024 0
M  V30 1103 O 107.391 0.976408 -5.37707 0
M  V30 1104 H 104.485 0.182598 -0.80659 0
M  V30 1105 H 107.031 -0.389141 -1.65178 0
M  V30 1106 H 105.803 -0.570702 -3.87116 0
M  V30 1107 H 105.426 1.14316 -3.80812 0
M  V30 1108 N 106.423 1.57458 -0.0668435 0
M  V30 1109 C 107.333 2.15937 0.916975 0
M  V30 1110 C 108.349 1.12123 1.33058 0
M  V30 1111 O 109.525 1.44366 1.40429 0
M  V30 1112 C 106.59 2.70547 2.16807 0
M  V30 1113 C 105.651 3.89215 1.81135 0
M  V30 1114 C 104.884 4.41211 3.0028 0
M  V30 1115 O 105.107 3.92225 4.14144 0
M  V30 1116 O 104.041 5.32605 2.80384 0
M  V30 1117 H 107.867 3.00354 0.449561 0
M  V30 1118 H 105.452 1.48584 0.155949 0
M  V30 1119 H 107.334 3.0557 2.90181 0
M  V30 1120 H 106.009 1.89192 2.62656 0
M  V30 1121 H 104.916 3.59054 1.05028 0
M  V30 1122 H 106.249 4.71848 1.40073 0
M  V30 1123 N 107.901 -0.206675 1.56239 0
M  V30 1124 C 109.149 -0.927007 1.79586 0
M  V30 1125 C 109.47 -1.8427 0.637929 0
M  V30 1126 O 108.74 -1.92849 -0.344398 0
M  V30 1127 H 107.32 -0.345292 0.662407 0
M  V30 1128 H 109.982 -0.21496 1.93711 0
M  V30 1129 H 109.078 -1.52501 2.72305 0
M  V30 1130 N 109.379 -1.50304 -0.473955 0
M  V30 1131 C 110.626 -1.6115 -1.22625 0
M  V30 1132 C 110.954 -0.310517 -1.92005 0
M  V30 1133 O 110.209 0.703419 -1.82621 0
M  V30 1134 C 110.508 -2.73938 -2.29549 0
M  V30 1135 C 110.174 -4.14519 -1.7744 0
M  V30 1136 C 108.836 -4.5277 -1.62949 0
M  V30 1137 C 111.188 -5.02392 -1.3875 0
M  V30 1138 C 108.516 -5.76639 -1.08187 0
M  V30 1139 C 110.868 -6.26805 -0.854309 0
M  V30 1140 C 109.532 -6.63861 -0.696011 0
M  V30 1141 H 108.802 -0.589691 -0.448715 0
M  V30 1142 H 111.449 -1.84228 -0.522705 0
M  V30 1143 H 109.754 -2.44937 -3.05799 0
M  V30 1144 H 111.451 -2.79534 -2.87509 0
M  V30 1145 H 108.041 -3.8434 -1.89685 0
M  V30 1146 H 112.225 -4.73474 -1.4878 0
M  V30 1147 H 107.481 -6.04027 -0.946666 0
M  V30 1148 H 111.655 -6.94258 -0.545843 0
M  V30 1149 H 109.282 -7.59722 -0.26952 0
M  V30 1150 N 110.857 0.726932 -1.39834 0
M  V30 1151 C 112.097 1.4992 -1.38936 0
M  V30 1152 C 112.461 1.91996 0.0126883 0
M  V30 1153 O 113.662 2.68399 0.146715 0
M  V30 1154 C 111.933 2.70013 -2.34153 0
M  V30 1155 S 113.492 3.59563 -2.51515 0
M  V30 1156 H 110.31 0.51271 -0.492595 0
M  V30 1157 H 112.912 0.85107 -1.76003 0
M  V30 1158 H 111.616 2.37254 -3.34871 0
M  V30 1159 H 111.147 3.39748 -1.98331 0
M  V30 1160 H 113.162 4.63973 -1.75909 0
M  V30 1161 N 112.336 1.25143 0.95797 0
M  V30 1162 C 113.613 1.00472 1.67823 0
M  V30 1163 C 113.993 -0.470056 2.058 0
M  V30 1164 O 113.341 -1.44663 1.76875 0
M  V30 1165 C 113.551 1.9372 2.90299 0
M  V30 1166 C 114.899 2.21371 3.62326 0
M  V30 1167 O 115.923 1.91451 3.00375 0
M  V30 1168 O 114.782 2.72231 4.7387 0
M  V30 1169 H 111.876 0.380752 0.734137 0
M  V30 1170 H 114.422 1.36283 1.01119 0
M  V30 1171 H 113.194 2.93316 2.59001 0
M  V30 1172 H 112.817 1.58286 3.64735 0
M  V30 1173 N 113.814 -1.1601 1.06675 0
M  V30 1174 C 115.061 -1.86633 0.785781 0
M  V30 1175 C 115.389 -1.81929 -0.687896 0
M  V30 1176 O 114.644 -1.23253 -1.52011 0
M  V30 1177 C 114.943 -3.35547 1.23057 0
M  V30 1178 C 114.609 -3.60448 2.70902 0
M  V30 1179 C 113.271 -3.66954 3.11285 0
M  V30 1180 C 115.623 -3.7071 3.66365 0
M  V30 1181 C 112.951 -3.81225 4.45965 0
M  V30 1182 C 115.303 -3.86503 5.00797 0
M  V30 1183 C 113.967 -3.91252 5.40813 0
M  V30 1184 H 113.237 -0.682937 0.287538 0
M  V30 1185 H 115.884 -1.37146 1.33654 0
M  V30 1186 H 114.189 -3.87193 0.59907 0
M  V30 1187 H 115.886 -3.88583 0.990163 0
M  V30 1188 H 112.476 -3.56021 2.38636 0
M  V30 1189 H 116.66 -3.64991 3.36296 0
M  V30 1190 H 111.916 -3.83155 4.76447 0
M  V30 1191 H 116.09 -3.93385 5.74649 0
M  V30 1192 H 113.717 -4.02062 6.45174 0
M  V30 1193 N 115.292 -0.849877 -1.32721 0
M  V30 1194 C 116.222 -0.306308 -2.31482 0
M  V30 1195 C 117.203 0.591952 -1.59468 0
M  V30 1196 O 118.388 0.513199 -1.87296 0
M  V30 1197 C 115.518 0.510204 -3.43532 0
M  V30 1198 C 114.472 -0.293209 -4.26994 0
M  V30 1199 C 113.798 0.647743 -5.30762 0
M  V30 1200 C 115.098 -1.51634 -4.99804 0
M  V30 1201 H 116.792 -1.13153 -2.77195 0
M  V30 1202 H 114.338 -0.545553 -1.33266 0
M  V30 1203 H 116.291 0.900856 -4.11658 0
M  V30 1204 H 115.015 1.36874 -2.96535 0
M  V30 1205 H 113.674 -0.665555 -3.60508 0
M  V30 1206 H 113.322 1.50299 -4.8002 0
M  V30 1207 H 113.022 0.11422 -5.87489 0
M  V30 1208 H 114.546 1.03567 -6.01753 0
M  V30 1209 H 115.96 -1.19824 -5.60638 0
M  V30 1210 H 114.357 -1.98745 -5.66234 0
M  V30 1211 H 115.427 -2.28018 -4.27943 0
M  V30 1212 N 116.77 1.45427 -0.607355 0
M  V30 1213 C 117.68 2.34325 0.113463 0
M  V30 1214 C 118.696 1.51226 0.860617 0
M  V30 1215 O 119.872 1.84029 0.818255 0
M  V30 1216 C 116.937 3.28839 1.09844 0
M  V30 1217 C 115.998 4.27844 0.353271 0
M  V30 1218 C 115.231 5.17842 1.29133 0
M  V30 1219 O 115.454 5.11264 2.52913 0
M  V30 1220 O 114.388 5.96713 0.788523 0
M  V30 1221 H 118.214 2.97364 -0.617094 0
M  V30 1222 H 115.799 1.44807 -0.367619 0
M  V30 1223 H 117.681 3.8708 1.66575 0
M  V30 1224 H 116.356 2.68365 1.81003 0
M  V30 1225 H 115.263 3.7322 -0.256494 0
M  V30 1226 H 116.596 4.91173 -0.317822 0
M  V30 1227 N 118.248 0.346503 1.53744 0
M  V30 1228 C 119.178 -0.501193 2.28058 0
M  V30 1229 C 120.159 -1.10014 1.29734 0
M  V30 1230 O 121.344 -1.12097 1.58581 0
M  V30 1231 C 118.474 -1.65078 3.05559 0
M  V30 1232 C 117.428 -1.18003 4.11411 0
M  V30 1233 C 116.754 -2.41837 4.76884 0
M  V30 1234 C 118.054 -0.278394 5.21558 0
M  V30 1235 H 119.748 0.11875 2.99164 0
M  V30 1236 H 117.294 0.0585531 1.43881 0
M  V30 1237 H 119.247 -2.25028 3.56287 0
M  V30 1238 H 117.971 -2.29767 2.32109 0
M  V30 1239 H 116.63 -0.603331 3.61601 0
M  V30 1240 H 116.278 -3.0494 4.00026 0
M  V30 1241 H 115.978 -2.1102 5.48402 0
M  V30 1242 H 117.502 -3.02508 5.30397 0
M  V30 1243 H 118.916 -0.784823 5.67903 0
M  V30 1244 H 117.313 -0.0619707 6.00068 0
M  V30 1245 H 118.383 0.684677 4.80042 0
M  V30 1246 N 119.726 -1.57421 0.075193 0
M  V30 1247 C 120.975 -1.92794 -0.592731 0
M  V30 1248 C 121.288 -0.957478 -1.70563 0
M  V30 1249 O 122.494 -1.20417 -2.43335 0
M  V30 1250 C 120.95 -3.42495 -1.10569 0
M  V30 1251 C 120.558 -4.47994 -0.0236121 0
M  V30 1252 C 122.302 -3.86864 -1.74748 0
M  V30 1253 C 120.209 -5.88829 -0.550803 0
M  V30 1254 H 119.139 -0.719591 -0.225177 0
M  V30 1255 H 121.79 -1.82902 0.147978 0
M  V30 1256 H 120.172 -3.47471 -1.89947 0
M  V30 1257 H 121.346 -4.54637 0.751099 0
M  V30 1258 H 119.661 -4.13113 0.522159 0
M  V30 1259 H 122.258 -4.8947 -2.15229 0
M  V30 1260 H 122.601 -3.24417 -2.60882 0
M  V30 1261 H 123.134 -3.84504 -1.01986 0
M  V30 1262 H 119.873 -6.54929 0.273457 0
M  V30 1263 H 119.393 -5.85698 -1.29296 0
M  V30 1264 H 121.072 -6.38811 -1.02613 0
M  V30 1265 N 121.204 0.198386 -1.56346 0
M  V30 1266 C 122.134 1.24865 -1.9731 0
M  V30 1267 C 123.115 1.47651 -0.844576 0
M  V30 1268 O 124.3 1.59444 -1.10866 0
M  V30 1269 C 121.43 2.59358 -2.30977 0
M  V30 1270 C 120.384 2.5119 -3.46537 0
M  V30 1271 C 119.71 3.89926 -3.65871 0
M  V30 1272 C 121.01 2.03977 -4.80823 0
M  V30 1273 H 122.704 0.908252 -2.85291 0
M  V30 1274 H 120.25 0.435462 -1.37258 0
M  V30 1275 H 122.203 3.33011 -2.58228 0
M  V30 1276 H 120.927 2.95132 -1.39874 0
M  V30 1277 H 119.586 1.79993 -3.19371 0
M  V30 1278 H 119.234 4.23046 -2.72105 0
M  V30 1279 H 118.934 3.85336 -4.4361 0
M  V30 1280 H 120.458 4.65205 -3.95495 0
M  V30 1281 H 121.872 2.67386 -5.07127 0
M  V30 1282 H 120.269 2.10397 -5.62008 0
M  V30 1283 H 121.339 0.992861 -4.74626 0
M  V30 1284 N 122.682 1.50554 0.465978 0
M  V30 1285 C 123.91 1.65563 1.24083 0
M  V30 1286 C 124.325 0.341051 1.85694 0
M  V30 1287 O 123.682 -0.677543 1.69457 0
M  V30 1288 C 123.733 2.75051 2.34583 0
M  V30 1289 O 123.454 4.01413 1.75497 0
M  V30 1290 C 124.955 3.01078 3.25372 0
M  V30 1291 H 122.175 0.55638 0.375077 0
M  V30 1292 H 124.719 1.96807 0.555624 0
M  V30 1293 H 122.874 2.46486 2.9887 0
M  V30 1294 H 123.288 4.62002 2.48303 0
M  V30 1295 H 124.762 3.81339 3.99105 0
M  V30 1296 H 125.239 2.12349 3.84453 0
M  V30 1297 H 125.845 3.31194 2.66816 0
M  V30 1298 N 124.16 -0.719506 1.40217 0
M  V30 1299 C 125.576 -1.02707 1.22161 0
M  V30 1300 C 125.776 -2.0128 0.0940557 0
M  V30 1301 O 124.832 -2.46452 -0.549318 0
M  V30 1302 C 126.145 -1.57454 2.56181 0
M  V30 1303 C 127.693 -1.69458 2.63159 0
M  V30 1304 C 128.168 -2.27611 3.97438 0
M  V30 1305 N 129.659 -2.35002 3.99159 0
M  V30 1306 C 130.394 -2.80972 4.99842 0
M  V30 1307 N 129.89 -3.26723 6.10921 0
M  V30 1308 N 131.683 -2.80321 4.87213 0
M  V30 1309 H 123.834 -0.0660492 2.12297 0
M  V30 1310 H 126.097 -0.0919077 0.943534 0
M  V30 1311 H 125.803 -0.924873 3.39321 0
M  V30 1312 H 125.677 -2.56036 2.76993 0
M  V30 1313 H 128.064 -2.33543 1.80393 0
M  V30 1314 H 128.145 -0.694867 2.46181 0
M  V30 1315 H 127.789 -1.6415 4.80643 0
M  V30 1316 H 127.719 -3.2829 4.11744 0
M  V30 1317 H 130.21 -2.02685 3.18947 0
M  V30 1318 H 130.523 -3.60355 6.8364 0
M  V30 1319 H 128.868 -3.24692 6.14492 0
M  V30 1320 H 132.059 -2.43912 3.9953 0
M  V30 1321 H 132.232 -3.15831 5.65822 0
M  V30 1322 N 125.638 -1.25649 -0.95132 0
M  V30 1323 C 126.886 -1.10375 -1.69298 0
M  V30 1324 C 127.207 0.355339 -1.91735 0
M  V30 1325 O 126.477 1.25188 -1.50681 0
M  V30 1326 H 125.057 -0.405461 -0.627384 0
M  V30 1327 H 127.719 -1.57823 -1.14358 0
M  V30 1328 H 126.815 -1.61465 -2.67087 0
M  V30 1329 N 127.117 1.15442 -1.07289 0
M  V30 1330 C 128.365 1.85845 -0.794096 0
M  V30 1331 C 128.686 1.82692 0.681809 0
M  V30 1332 O 127.956 1.26741 1.49377 0
M  V30 1333 H 126.536 0.688089 -0.290763 0
M  V30 1334 H 129.198 1.39947 -1.3565 0
M  V30 1335 H 128.294 2.91001 -1.12804 0
M  V30 1336 N 128.595 0.856903 1.32268 0
M  V30 1337 C 130.011 0.547061 1.49931 0
M  V30 1338 C 130.211 -0.921781 1.7918 0
M  V30 1339 O 129.267 -1.70469 1.8627 0
M  V30 1340 C 130.58 1.43599 2.64196 0
M  V30 1341 C 132.128 1.43665 2.78081 0
M  V30 1342 C 132.603 2.31085 3.95428 0
M  V30 1343 N 134.094 2.28893 4.02694 0
M  V30 1344 C 134.829 2.93262 4.92732 0
M  V30 1345 N 134.325 3.66751 5.87763 0
M  V30 1346 N 136.118 2.82638 4.85873 0
M  V30 1347 H 128.269 1.8075 1.11549 0
M  V30 1348 H 130.532 0.772144 0.549997 0
M  V30 1349 H 130.238 2.48058 2.49319 0
M  V30 1350 H 130.112 1.12502 3.60032 0
M  V30 1351 H 132.499 0.399701 2.92381 0
M  V30 1352 H 132.58 1.7878 1.82952 0
M  V30 1353 H 132.224 3.34849 3.81888 0
M  V30 1354 H 132.154 1.93302 4.89839 0
M  V30 1355 H 134.645 1.75466 3.34694 0
M  V30 1356 H 134.958 4.13027 6.53168 0
M  V30 1357 H 133.303 3.70859 5.87783 0
M  V30 1358 H 136.494 2.24774 4.10602 0
M  V30 1359 H 136.667 3.33084 5.55841 0
M  V30 1360 N 130.073 -1.45103 0.615059 0
M  V30 1361 C 131.003 -2.33339 -0.0865619 0
M  V30 1362 C 131.984 -1.4727 -0.851209 0
M  V30 1363 O 133.169 -1.76026 -0.820281 0
M  V30 1364 C 130.299 -3.30095 -1.07956 0
M  V30 1365 C 129.253 -4.25858 -0.427628 0
M  V30 1366 C 128.579 -5.12361 -1.5294 0
M  V30 1367 C 129.879 -5.18165 0.655944 0
M  V30 1368 H 131.573 -2.92254 0.650224 0
M  V30 1369 H 129.119 -1.40532 0.314138 0
M  V30 1370 H 131.072 -3.90698 -1.57901 0
M  V30 1371 H 129.796 -2.69355 -1.84703 0
M  V30 1372 H 128.455 -3.66564 0.0510292 0
M  V30 1373 H 128.103 -4.47984 -2.28734 0
M  V30 1374 H 127.803 -5.77238 -1.09865 0
M  V30 1375 H 129.327 -5.75833 -2.03098 0
M  V30 1376 H 130.741 -5.72796 0.240257 0
M  V30 1377 H 129.138 -5.91559 1.00888 0
M  V30 1378 H 130.208 -4.60144 1.52957 0
M  V30 1379 N 131.551 -0.354651 -1.53558 0
M  V30 1380 C 132.483 0.5315 -2.22952 0
M  V30 1381 C 133.496 1.05503 -1.23988 0
M  V30 1382 O 134.685 0.963279 -1.50277 0
M  V30 1383 C 131.785 1.74538 -2.90499 0
M  V30 1384 C 130.958 1.35524 -4.15875 0
M  V30 1385 C 130.017 2.42999 -4.66731 0
M  V30 1386 O 129.043 2.05844 -5.30676 0
M  V30 1387 N 130.245 3.74423 -4.43608 0
M  V30 1388 H 133.01 -0.0628615 -2.99634 0
M  V30 1389 H 130.571 -0.179302 -1.60904 0
M  V30 1390 H 132.563 2.45892 -3.21433 0
M  V30 1391 H 131.133 2.24686 -2.17336 0
M  V30 1392 H 130.353 0.471998 -3.91364 0
M  V30 1393 H 131.641 1.07071 -4.97406 0
M  V30 1394 H 131.039 4.07391 -3.92491 0
M  V30 1395 H 129.596 4.41913 -4.7912 0
M  V30 1396 N 133.029 1.57378 -0.0835403 0
M  V30 1397 C 133.959 2.1641 0.87686 0
M  V30 1398 C 134.94 1.09429 1.30228 0
M  V30 1399 O 136.125 1.37516 1.37124 0
M  V30 1400 C 133.255 2.73517 2.14022 0
M  V30 1401 C 132.209 3.85769 1.85381 0
M  V30 1402 C 131.535 4.29529 3.18448 0
M  V30 1403 C 132.835 5.09486 1.14984 0
M  V30 1404 H 134.529 2.96914 0.385059 0
M  V30 1405 H 132.075 1.42823 0.18377 0
M  V30 1406 H 134.028 3.13463 2.81636 0
M  V30 1407 H 132.752 1.90252 2.65465 0
M  V30 1408 H 131.411 3.46345 1.20169 0
M  V30 1409 H 131.059 3.43169 3.67755 0
M  V30 1410 H 130.759 5.05204 3.00071 0
M  V30 1411 H 132.283 4.72099 3.8724 0
M  V30 1412 H 133.697 5.46674 1.72687 0
M  V30 1413 H 132.094 5.90515 1.06826 0
M  V30 1414 H 133.164 4.84724 0.130749 0
M  V30 1415 N 134.507 -0.190092 1.56449 0
M  V30 1416 C 135.732 -0.929864 1.85387 0
M  V30 1417 C 136.157 -1.7585 0.667704 0
M  V30 1418 O 135.515 -1.77198 -0.383459 0
M  V30 1419 C 135.563 -1.79773 3.12593 0
M  V30 1420 O 134.667 -2.89713 2.93496 0
M  V30 1421 H 134.008 -0.261574 0.610307 0
M  V30 1422 H 136.538 -0.193896 2.03679 0
M  V30 1423 H 136.548 -2.20139 3.43515 0
M  V30 1424 H 135.223 -1.18892 3.98544 0
M  V30 1425 H 133.8 -2.53065 2.73884 0
M  V30 1426 N 135.985 -1.50799 -0.457987 0
M  V30 1427 C 137.232 -1.62442 -1.20908 0
M  V30 1428 C 137.56 -0.330865 -1.91665 0
M  V30 1429 O 136.815 0.68401 -1.83357 0
M  V30 1430 C 137.114 -2.76358 -2.2663 0
M  V30 1431 C 136.78 -4.16378 -1.73033 0
M  V30 1432 C 135.442 -4.54473 -1.58138 0
M  V30 1433 C 137.794 -5.03836 -1.33413 0
M  V30 1434 C 135.122 -5.77754 -1.02065 0
M  V30 1435 C 137.474 -6.27676 -0.78778 0
M  V30 1436 C 136.138 -6.64562 -0.625561 0
M  V30 1437 H 135.408 -0.594417 -0.442435 0
M  V30 1438 H 138.055 -1.84772 -0.503136 0
M  V30 1439 H 136.36 -2.48167 -3.03184 0
M  V30 1440 H 138.057 -2.82568 -2.84528 0
M  V30 1441 H 134.647 -3.86331 -1.85598 0
M  V30 1442 H 138.831 -4.75026 -1.4375 0
M  V30 1443 H 134.087 -6.04997 -0.882547 0
M  V30 1444 H 138.261 -6.94797 -0.472177 0
M  V30 1445 H 135.888 -7.59965 -0.188926 0
M  V30 1446 N 137.463 0.71206 -1.40597 0
M  V30 1447 C 138.688 1.50617 -1.42581 0
M  V30 1448 C 139.113 1.88079 -0.0282102 0
M  V30 1449 O 138.471 1.53511 0.964579 0
M  V30 1450 C 138.519 2.7557 -2.3258 0
M  V30 1451 O 137.623 3.72414 -1.77148 0
M  V30 1452 H 136.964 0.453966 -0.484573 0
M  V30 1453 H 139.494 0.876649 -1.84868 0
M  V30 1454 H 139.504 3.2406 -2.47889 0
M  V30 1455 H 138.179 2.47639 -3.34138 0
M  V30 1456 H 136.756 3.31276 -1.71204 0
M  V30 1457 N 138.941 1.26152 0.944643 0
M  V30 1458 C 140.19 1.10883 1.68487 0
M  V30 1459 C 140.503 -0.348153 1.92477 0
M  V30 1460 O 141.709 -0.621459 2.64292 0
M  V30 1461 C 140.165 1.93624 3.03377 0
M  V30 1462 C 139.773 3.43875 2.87148 0
M  V30 1463 C 141.517 1.86954 3.81115 0
M  V30 1464 C 139.424 4.18875 4.1749 0
M  V30 1465 H 138.354 0.41135 0.631907 0
M  V30 1466 H 141.005 1.50433 1.05082 0
M  V30 1467 H 139.387 1.46904 3.67743 0
M  V30 1468 H 140.561 3.98338 2.31653 0
M  V30 1469 H 138.876 3.51744 2.22856 0
M  V30 1470 H 141.473 2.40275 4.77673 0
M  V30 1471 H 141.816 0.839518 4.07747 0
M  V30 1472 H 142.349 2.31477 3.23517 0
M  V30 1473 H 139.088 5.22332 3.96043 0
M  V30 1474 H 138.608 3.69193 4.72712 0
M  V30 1475 H 140.287 4.27134 4.85968 0
M  V30 1476 N 140.419 -1.14872 1.07899 0
M  V30 1477 C 141.666 -1.85789 0.805532 0
M  V30 1478 C 141.994 -1.82649 -0.668561 0
M  V30 1479 O 141.249 -1.24858 -1.50695 0
M  V30 1480 C 141.548 -3.34223 1.26609 0
M  V30 1481 C 141.214 -3.57555 2.74709 0
M  V30 1482 C 139.876 -3.63631 3.1516 0
M  V30 1483 C 142.228 -3.66803 3.70277 0
M  V30 1484 C 139.556 -3.76473 4.49983 0
M  V30 1485 C 141.908 -3.8117 5.04869 0
M  V30 1486 C 140.572 -3.85494 5.44932 0
M  V30 1487 H 139.842 -0.679849 0.294765 0
M  V30 1488 H 142.489 -1.3572 1.35101 0
M  V30 1489 H 140.794 -3.86536 0.640103 0
M  V30 1490 H 142.491 -3.87511 1.03132 0
M  V30 1491 H 139.081 -3.5347 2.42398 0
M  V30 1492 H 143.265 -3.61404 3.40149 0
M  V30 1493 H 138.521 -3.7808 4.80484 0
M  V30 1494 H 142.695 -3.87268 5.78789 0
M  V30 1495 H 140.322 -3.95197 6.49403 0
M  V30 1496 N 141.898 -0.863906 -1.31812 0
M  V30 1497 C 143.138 -0.47825 -1.98726 0
M  V30 1498 C 143.502 0.950397 -1.66828 0
M  V30 1499 O 144.703 1.44109 -2.26905 0
M  V30 1500 C 142.974 -0.721134 -3.50049 0
M  V30 1501 S 144.533 -0.434432 -4.36644 0
M  V30 1502 H 141.351 -0.178773 -0.688158 0
M  V30 1503 H 143.953 -1.11862 -1.60334 0
M  V30 1504 H 142.657 -1.75981 -3.70755 0
M  V30 1505 H 142.188 -0.0675315 -3.93342 0
M  V30 1506 H 144.203 0.735786 -4.90714 0
M  V30 1507 N 143.376 1.44774 -0.622745 0
M  V30 1508 C 144.339 2.29069 0.0774015 0
M  V30 1509 C 145.339 1.4059 0.780461 0
M  V30 1510 O 146.529 1.62551 0.626322 0
M  V30 1511 C 143.661 3.21974 1.12006 0
M  V30 1512 H 144.854 2.92459 -0.663901 0
M  V30 1513 H 142.407 1.51548 -0.382486 0
M  V30 1514 H 143.142 2.63417 1.89162 0
M  V30 1515 H 142.927 3.87168 0.619951 0
M  V30 1516 H 144.417 3.85318 1.60995 0
M  V30 1517 N 144.854 0.36279 1.53368 0
M  V30 1518 C 145.764 -0.492994 2.29362 0
M  V30 1519 C 146.78 -1.09507 1.35219 0
M  V30 1520 O 147.956 -1.10662 1.68273 0
M  V30 1521 C 145.021 -1.61855 3.066 0
M  V30 1522 C 144.082 -1.04429 4.16405 0
M  V30 1523 C 143.315 -2.11621 4.89951 0
M  V30 1524 O 143.538 -3.32684 4.63333 0
M  V30 1525 O 142.472 -1.74835 5.75948 0
M  V30 1526 H 146.298 0.125331 3.03441 0
M  V30 1527 H 143.883 0.127253 1.48857 0
M  V30 1528 H 145.765 -2.27302 3.54841 0
M  V30 1529 H 144.44 -2.22233 2.3536 0
M  V30 1530 H 143.347 -0.353819 3.72423 0
M  V30 1531 H 144.68 -0.485113 4.89804 0
M  V30 1532 N 146.332 -1.57332 0.0918853 0
M  V30 1533 C 147.743 -1.81496 -0.437739 0
M  V30 1534 C 148.094 -1.00727 -1.6837 0
M  V30 1535 O 147.219 -0.235694 -2.15113 0
M  V30 1536 C 147.814 -3.29197 -0.800939 0
M  V30 1537 C 146.373 -3.54136 -1.27532 0
M  V30 1538 C 145.52 -2.75979 -0.270392 0
M  V30 1539 H 148.471 -1.55494 0.317366 0
M  V30 1540 H 148.492 -3.42344 -1.66074 0
M  V30 1541 H 148.004 -3.87955 0.106078 0
M  V30 1542 H 146.105 -3.00705 -2.20016 0
M  V30 1543 H 146.218 -4.62792 -1.23938 0
M  V30 1544 H 144.582 -2.43349 -0.751872 0
M  V30 1545 H 145.365 -3.37484 0.629248 0
M  V30 1546 N 147.81 0.181792 -1.56548 0
M  V30 1547 C 148.773 1.20894 -1.94724 0
M  V30 1548 C 149.773 1.37738 -0.829747 0
M  V30 1549 O 150.963 1.35323 -1.09697 0
M  V30 1550 C 148.095 2.57593 -2.23291 0
M  V30 1551 H 149.288 0.882275 -2.86629 0
M  V30 1552 H 146.841 0.423838 -1.50444 0
M  V30 1553 H 147.576 2.95291 -1.34067 0
M  V30 1554 H 147.361 2.46735 -3.04736 0
M  V30 1555 H 148.851 3.31637 -2.53785 0
M  V30 1556 N 149.288 1.51039 0.449983 0
M  V30 1557 C 150.516 1.66869 1.2232 0
M  V30 1558 C 150.931 0.360727 1.85322 0
M  V30 1559 O 150.288 -0.659531 1.70166 0
M  V30 1560 C 150.339 2.77524 2.31652 0
M  V30 1561 O 150.06 4.03252 1.7123 0
M  V30 1562 C 151.561 3.04512 3.2216 0
M  V30 1563 H 148.781 0.560326 0.369155 0
M  V30 1564 H 151.325 1.97385 0.534719 0
M  V30 1565 H 149.48 2.49642 2.96239 0
M  V30 1566 H 149.894 4.64609 2.43389 0
M  V30 1567 H 151.368 3.85551 3.95038 0
M  V30 1568 H 151.845 2.16415 3.8218 0
M  V30 1569 H 152.451 3.34005 2.63288 0
M  V30 1570 N 150.766 -0.704594 1.40972 0
M  V30 1571 C 151.696 -1.83124 1.44872 0
M  V30 1572 C 152.677 -1.67281 0.30838 0
M  V30 1573 O 153.862 -1.87149 0.518556 0
M  V30 1574 C 150.992 -3.21181 1.32136 0
M  V30 1575 C 149.946 -3.51714 2.43888 0
M  V30 1576 C 149.272 -4.89032 2.16222 0
M  V30 1577 C 150.572 -3.516 3.86232 0
M  V30 1578 H 152.266 -1.80117 2.39161 0
M  V30 1579 H 149.812 -0.865145 1.15114 0
M  V30 1580 H 151.765 -3.99702 1.33479 0
M  V30 1581 H 150.489 -3.24791 0.343279 0
M  V30 1582 H 149.148 -2.75539 2.41813 0
M  V30 1583 H 148.796 -4.89256 1.16778 0
M  V30 1584 H 148.496 -5.10426 2.911 0
M  V30 1585 H 150.02 -5.69873 2.19265 0
M  V30 1586 H 151.434 -4.2014 3.9007 0
M  V30 1587 H 149.831 -3.84523 4.60719 0
M  V30 1588 H 150.901 -2.50757 4.15029 0
M  V30 1589 N 152.244 -1.26651 -0.937939 0
M  V30 1590 C 153.174 -1.10993 -2.05433 0
M  V30 1591 C 154.155 -0.0142161 -1.70094 0
M  V30 1592 O 155.34 -0.186837 -1.93299 0
M  V30 1593 C 152.47 -0.745561 -3.39203 0
M  V30 1594 C 151.424 -1.79337 -3.88616 0
M  V30 1595 C 150.75 -1.28324 -5.19073 0
M  V30 1596 C 152.05 -3.19553 -4.13138 0
M  V30 1597 H 153.744 -2.0438 -2.1879 0
M  V30 1598 H 151.29 -0.984041 -1.05131 0
M  V30 1599 H 153.243 -0.622888 -4.16771 0
M  V30 1600 H 151.967 0.22401 -3.25831 0
M  V30 1601 H 150.626 -1.90477 -3.13231 0
M  V30 1602 H 150.274 -0.303414 -5.02084 0
M  V30 1603 H 149.974 -1.98369 -5.53103 0
M  V30 1604 H 151.498 -1.1733 -5.99221 0
M  V30 1605 H 152.912 -3.11471 -4.81309 0
M  V30 1606 H 151.309 -3.87218 -4.58457 0
M  V30 1607 H 152.379 -3.65368 -3.18801 0
M  V30 1608 N 153.722 1.14298 -1.08507 0
M  V30 1609 C 154.685 2.17607 -0.719711 0
M  V30 1610 C 155.685 1.58907 0.245997 0
M  V30 1611 O 156.875 1.74181 0.0254081 0
M  V30 1612 C 154.007 3.40842 -0.0627695 0
M  V30 1613 H 155.2 2.51443 -1.63452 0
M  V30 1614 H 152.753 1.28963 -0.88307 0
M  V30 1615 H 153.488 3.12587 0.863716 0
M  V30 1616 H 153.273 3.84713 -0.757504 0
M  V30 1617 H 154.763 4.17221 0.177786 0
M  V30 1618 N 155.201 0.870884 1.31352 0
M  V30 1619 C 156.478 0.402907 1.91405 0
M  V30 1620 C 156.858 -1.11512 1.79244 0
M  V30 1621 O 156.206 -1.94411 1.2007 0
M  V30 1622 C 156.416 0.885301 3.37585 0
M  V30 1623 C 157.764 0.911971 4.14691 0
M  V30 1624 O 158.788 0.831016 3.46371 0
M  V30 1625 O 157.647 1.02927 5.3672 0
M  V30 1626 H 154.741 0.120698 0.818145 0
M  V30 1627 H 157.287 0.958857 1.40014 0
M  V30 1628 H 156.059 1.92889 3.40455 0
M  V30 1629 H 155.682 0.307714 3.96407 0
M  V30 1630 N 156.679 -1.44442 0.630414 0
M  V30 1631 C 157.907 -2.06414 0.141671 0
M  V30 1632 C 158.322 -1.47105 -1.18345 0
M  V30 1633 O 157.679 -0.593662 -1.72574 0
M  V30 1634 C 157.73 -3.61494 0.0199784 0
M  V30 1635 O 157.451 -4.18594 1.29269 0
M  V30 1636 C 158.952 -4.40499 -0.497544 0
M  V30 1637 H 156.172 -0.666292 0.0793452 0
M  V30 1638 H 158.716 -1.85323 0.864614 0
M  V30 1639 H 156.871 -3.8185 -0.653402 0
M  V30 1640 H 157.285 -5.12026 1.13707 0
M  V30 1641 H 158.759 -5.49433 -0.531708 0
M  V30 1642 H 159.236 -4.11895 -1.52445 0
M  V30 1643 H 159.842 -4.25061 0.142562 0
M  V30 1644 N 158.157 -0.370918 -1.53173 0
M  V30 1645 C 159.568 0.107139 -1.86392 0
M  V30 1646 C 159.919 1.47714 -1.29132 0
M  V30 1647 O 159.044 2.07464 -0.615439 0
M  V30 1648 C 159.639 0.201187 -3.38202 0
M  V30 1649 C 158.198 0.623507 -3.712 0
M  V30 1650 C 157.345 -0.225978 -2.76378 0
M  V30 1651 H 160.296 -0.58951 -1.47345 0
M  V30 1652 H 160.317 1.02377 -3.66468 0
M  V30 1653 H 159.829 -0.796058 -3.79848 0
M  V30 1654 H 157.93 1.62879 -3.35114 0
M  V30 1655 H 158.043 0.394414 -4.77474 0
M  V30 1656 H 156.407 0.305962 -2.52856 0
M  V30 1657 H 157.19 -1.22086 -3.20858 0
M  V30 1658 N 159.635 1.57281 -0.100228 0
M  V30 1659 C 160.881 1.94826 0.563101 0
M  V30 1660 C 161.214 0.982475 1.67514 0
M  V30 1661 O 160.489 0.0164069 1.94493 0
M  V30 1662 C 160.772 3.42453 1.11346 0
M  V30 1663 C 160.625 4.498 0.00612081 0
M  V30 1664 C 161.944 3.91506 2.01024 0
M  V30 1665 H 159.063 0.708428 0.203221 0
M  V30 1666 H 161.705 1.8922 -0.171979 0
M  V30 1667 H 159.855 3.47361 1.7399 0
M  V30 1668 H 161.527 4.57 -0.628357 0
M  V30 1669 H 159.77 4.28756 -0.659581 0
M  V30 1670 H 160.441 5.50306 0.432109 0
M  V30 1671 H 162.917 3.88784 1.48278 0
M  V30 1672 H 161.793 4.95358 2.36457 0
M  V30 1673 H 162.054 3.31099 2.92961 0
M  V30 1674 N 161.113 -0.173488 1.56642 0
M  V30 1675 C 162.061 -1.23417 1.97157 0
M  V30 1676 C 163.055 -1.45946 0.860013 0
M  V30 1677 O 164.261 -1.46551 1.04512 0
M  V30 1678 H 160.636 -0.414818 0.62724 0
M  V30 1679 H 162.607 -0.865582 2.8557 0
M  V30 1680 C 161.356 -2.5665 2.34576 0
M  V30 1681 H 160.679 -2.40137 3.19647 0
M  V30 1682 H 162.119 -3.2956 2.6677 0
M  V30 1683 C 160.578 -3.15245 1.18836 0
M  V30 1684 O 161.108 -3.98883 0.474869 0
M  V30 1685 N 159.314 -2.74303 0.959497 0
M  V30 1686 H 158.861 -2.0639 1.54146 0
M  V30 1687 H 158.819 -3.13844 0.186932 0
M  V30 1688 N 162.591 -1.51276 -0.441967 0
M  V30 1689 C 163.868 -1.54252 -1.20273 0
M  V30 1690 C 164.248 -0.30408 -2.08898 0
M  V30 1691 O 163.596 0.711084 -2.17154 0
M  V30 1692 C 163.806 -2.85406 -2.00859 0
M  V30 1693 C 165.154 -3.37181 -2.58059 0
M  V30 1694 O 166.178 -2.86925 -2.11074 0
M  V30 1695 O 165.037 -4.24858 -3.43741 0
M  V30 1696 H 162.131 -0.619969 -0.547328 0
M  V30 1697 H 164.677 -1.63586 -0.451413 0
M  V30 1698 H 163.449 -3.67003 -1.35736 0
M  V30 1699 H 163.072 -2.79213 -2.83065 0
M  V30 1700 N 164.069 0.697108 -1.41344 0
M  V30 1701 C 165.317 1.45426 -1.40341 0
M  V30 1702 C 165.638 1.94996 -0.0128787 0
M  V30 1703 O 164.908 1.71599 0.945027 0
M  V30 1704 H 163.488 0.539594 -0.516573 0
M  V30 1705 H 166.15 0.825201 -1.76569 0
M  V30 1706 H 165.246 2.31817 -2.08967 0
M  V30 1707 N 165.547 1.27147 0.931209 0
M  V30 1708 C 166.51 1.09615 2.01289 0
M  V30 1709 C 167.51 0.0412581 1.60747 0
M  V30 1710 O 168.7 0.285545 1.71844 0
M  V30 1711 C 165.832 0.669447 3.34262 0
M  V30 1712 H 167.025 2.05662 2.18273 0
M  V30 1713 H 164.578 1.09885 1.11153 0
M  V30 1714 H 165.313 -0.292572 3.22978 0
M  V30 1715 H 165.098 1.43127 3.65044 0
M  V30 1716 H 166.588 0.568921 4.13706 0
M  V30 1717 N 167.025 -1.13721 1.09112 0
M  V30 1718 C 168.271 -1.85413 0.836283 0
M  V30 1719 C 168.626 -1.8175 -0.631249 0
M  V30 1720 O 167.919 -1.24238 -1.45861 0
M  V30 1721 C 168.113 -3.32861 1.30146 0
M  V30 1722 C 167.942 -3.50882 2.81268 0
M  V30 1723 C 166.712 -3.65312 3.49106 0
M  V30 1724 C 168.91 -3.47196 3.7942 0
M  V30 1725 N 166.892 -3.71563 4.88686 0
M  V30 1726 C 168.263 -3.59777 5.04936 0
M  V30 1727 C 170.318 -3.30577 3.72321 0
M  V30 1728 C 169.021 -3.57455 6.24194 0
M  V30 1729 C 171.047 -3.29562 4.91063 0
M  V30 1730 C 170.409 -3.42691 6.15421 0
M  V30 1731 H 166.508 -0.694812 0.358832 0
M  V30 1732 H 169.092 -1.36246 1.39087 0
M  V30 1733 H 167.263 -3.80602 0.774361 0
M  V30 1734 H 168.995 -3.92346 0.99229 0
M  V30 1735 H 165.75 -3.6685 2.9953 0
M  V30 1736 H 166.174 -3.78387 5.61384 0
M  V30 1737 H 170.816 -3.19332 2.77105 0
M  V30 1738 H 168.534 -3.67475 7.19714 0
M  V30 1739 H 172.12 -3.17905 4.87266 0
M  V30 1740 H 171 -3.41862 7.05762 0
M  V30 1741 N 168.503 -0.877838 -1.30888 0
M  V30 1742 C 169.453 -0.310872 -2.25871 0
M  V30 1743 C 170.437 0.556596 -1.50966 0
M  V30 1744 O 171.629 0.402187 -1.7237 0
M  V30 1745 C 168.758 0.479821 -3.3993 0
M  V30 1746 C 167.844 -0.401333 -4.22197 0
M  V30 1747 N 168.235 -1.49848 -4.83093 0
M  V30 1748 C 166.533 -0.195167 -4.45573 0
M  V30 1749 C 167.234 -2.0425 -5.44662 0
M  V30 1750 N 166.21 -1.33843 -5.26865 0
M  V30 1751 H 170.012 -1.1493 -2.70496 0
M  V30 1752 H 167.526 -0.726458 -1.45246 0
M  V30 1753 H 169.523 0.902582 -4.07012 0
M  V30 1754 H 168.183 1.31577 -2.96846 0
M  V30 1755 H 169.194 -1.88137 -4.82519 0
M  V30 1756 H 165.871 0.604192 -4.13105 0
M  V30 1757 H 167.261 -2.96345 -6.03017 0
M  V30 1758 N 169.982 1.44106 -0.638065 0
M  V30 1759 C 171.207 2.0685 -0.150916 0
M  V30 1760 C 171.632 1.47417 1.16833 0
M  V30 1761 O 170.99 0.578264 1.71831 0
M  V30 1762 C 171.038 3.60555 -0.05708 0
M  V30 1763 O 170.142 4.00465 0.984972 0
M  V30 1764 H 169.483 0.658151 -0.0879399 0
M  V30 1765 H 172.013 1.84865 -0.876707 0
M  V30 1766 H 172.023 4.07789 0.131232 0
M  V30 1767 H 170.698 4.03193 -1.02021 0
M  V30 1768 H 169.275 3.64849 0.770672 0
M  V30 1769 N 171.46 0.379036 1.52974 0
M  V30 1770 C 172.706 -0.206727 2.01744 0
M  V30 1771 C 173.039 -1.47314 1.26539 0
M  V30 1772 O 172.314 -1.91084 0.362903 0
M  V30 1773 C 172.597 -0.485066 3.56818 0
M  V30 1774 C 172.45 0.795919 4.42702 0
M  V30 1775 C 173.769 -1.28003 4.21074 0
M  V30 1776 H 170.888 -0.0736607 0.73331 0
M  V30 1777 H 173.53 0.506581 1.83122 0
M  V30 1778 H 171.68 -1.09272 3.72816 0
M  V30 1779 H 173.352 1.43307 4.38476 0
M  V30 1780 H 171.595 1.41344 4.10127 0
M  V30 1781 H 172.266 0.555947 5.49193 0
M  V30 1782 H 174.742 -0.765867 4.08991 0
M  V30 1783 H 173.618 -1.44352 5.29579 0
M  V30 1784 H 173.879 -2.29236 3.78026 0
M  V30 1785 N 172.938 -1.57226 0.108567 0
M  V30 1786 C 174.354 -1.5766 -0.248058 0
M  V30 1787 C 174.554 -1.12063 -1.67464 0
M  V30 1788 O 173.61 -0.803236 -2.39383 0
M  V30 1789 C 174.923 -3.0069 -0.0242287 0
M  V30 1790 C 176.471 -3.12868 -0.0909372 0
M  V30 1791 C 176.946 -4.57879 0.105067 0
M  V30 1792 N 178.437 -4.63172 0.0506846 0
M  V30 1793 C 179.172 -5.73126 0.177396 0
M  V30 1794 N 178.668 -6.91866 0.359696 0
M  V30 1795 N 180.461 -5.61977 0.117709 0
M  V30 1796 H 172.612 -1.85169 1.04049 0
M  V30 1797 H 174.875 -0.85529 0.40888 0
M  V30 1798 H 174.581 -3.38299 0.961604 0
M  V30 1799 H 174.455 -3.6945 -0.76068 0
M  V30 1800 H 176.842 -2.75124 -1.06729 0
M  V30 1801 H 176.923 -2.46672 0.677225 0
M  V30 1802 H 176.567 -4.96321 1.07834 0
M  V30 1803 H 176.497 -5.22153 -0.682954 0
M  V30 1804 H 178.988 -3.778 -0.0871266 0
M  V30 1805 H 179.301 -7.71503 0.447529 0
M  V30 1806 H 177.646 -6.93874 0.395536 0
M  V30 1807 H 180.837 -4.68094 -0.0236741 0
M  V30 1808 H 181.01 -6.47627 0.219905 0
M  V30 1809 N 174.416 0.165178 -1.56732 0
M  V30 1810 C 175.665 0.879143 -1.81532 0
M  V30 1811 C 175.978 1.83144 -0.686842 0
M  V30 1812 O 177.184 2.58823 -0.819944 0
M  V30 1813 C 175.64 1.61388 -3.21686 0
M  V30 1814 C 175.248 0.704904 -4.4242 0
M  V30 1815 C 176.992 2.3157 -3.55774 0
M  V30 1816 C 174.899 1.44022 -5.73595 0
M  V30 1817 H 173.829 0.332033 -0.676957 0
M  V30 1818 H 176.48 0.132008 -1.83025 0
M  V30 1819 H 174.862 2.40599 -3.14529 0
M  V30 1820 H 176.036 -0.0506815 -4.60772 0
M  V30 1821 H 174.351 0.112419 -4.16248 0
M  V30 1822 H 176.948 2.8719 -4.51028 0
M  V30 1823 H 177.291 3.07201 -2.8095 0
M  V30 1824 H 177.824 1.59297 -3.64513 0
M  V30 1825 H 174.563 0.72612 -6.51466 0
M  V30 1826 H 174.083 2.16898 -5.5921 0
M  V30 1827 H 175.762 1.98606 -6.15764 0
M  V30 1828 N 175.894 1.51508 0.433938 0
M  V30 1829 C 177.31 1.39759 0.770682 0
M  V30 1830 C 177.51 0.482594 1.95636 0
M  V30 1831 O 176.566 -0.0609691 2.52426 0
M  V30 1832 C 177.879 2.81851 1.04787 0
M  V30 1833 C 179.427 2.91025 1.1521 0
M  V30 1834 C 179.902 4.34032 1.46219 0
M  V30 1835 N 181.393 4.37154 1.53136 0
M  V30 1836 C 182.128 5.4484 1.78709 0
M  V30 1837 N 181.624 6.62682 2.02051 0
M  V30 1838 N 183.417 5.32324 1.80519 0
M  V30 1839 H 175.568 2.09548 -0.346892 0
M  V30 1840 H 177.831 0.943446 -0.0928074 0
M  V30 1841 H 177.537 3.50815 0.249304 0
M  V30 1842 H 177.411 3.21386 1.97461 0
M  V30 1843 H 179.798 2.22257 1.94128 0
M  V30 1844 H 179.879 2.54983 0.204281 0
M  V30 1845 H 179.523 5.03351 0.678274 0
M  V30 1846 H 179.453 4.6759 2.42212 0
M  V30 1847 H 181.944 3.52197 1.36987 0
M  V30 1848 H 182.257 7.40543 2.20943 0
M  V30 1849 H 180.602 6.65791 1.99366 0
M  V30 1850 H 183.793 4.39246 1.61805 0
M  V30 1851 H 183.966 6.16328 2.00111 0
M  V30 1852 N 177.372 -0.689602 1.41712 0
M  V30 1853 C 178.788 -1.00093 1.24312 0
M  V30 1854 C 178.988 -2.01036 0.136729 0
M  V30 1855 O 178.044 -2.47562 -0.496918 0
M  V30 1856 C 179.357 -1.51985 2.59463 0
M  V30 1857 C 180.905 -1.63838 2.66695 0
M  V30 1858 C 181.38 -2.1913 4.02177 0
M  V30 1859 N 182.871 -2.26483 4.04054 0
M  V30 1860 C 183.606 -2.70306 5.0569 0
M  V30 1861 N 183.102 -3.13691 6.17713 0
M  V30 1862 N 184.895 -2.69923 4.9305 0
M  V30 1863 H 177.046 -0.0210029 2.1239 0
M  V30 1864 H 179.309 -0.0718733 0.945272 0
M  V30 1865 H 179.015 -0.85269 3.41207 0
M  V30 1866 H 178.889 -2.50103 2.82362 0
M  V30 1867 H 181.276 -2.29664 1.85306 0
M  V30 1868 H 181.357 -0.642492 2.476 0
M  V30 1869 H 181.001 -1.53918 4.84016 0
M  V30 1870 H 180.931 -3.19482 4.18615 0
M  V30 1871 H 183.422 -1.95874 3.23174 0
M  V30 1872 H 183.735 -3.45773 6.9113 0
M  V30 1873 H 182.08 -3.11585 6.21241 0
M  V30 1874 H 185.271 -2.35382 4.04614 0
M  V30 1875 H 185.444 -3.03758 5.72394 0
M  V30 1876 N 178.85 -1.27639 -0.924453 0
M  V30 1877 C 179.782 -1.06442 -2.02985 0
M  V30 1878 C 180.795 -0.0194771 -1.62788 0
M  V30 1879 O 181.984 -0.261388 -1.76576 0
M  V30 1880 C 179.084 -0.59327 -3.33667 0
M  V30 1881 C 178.257 -1.71123 -4.02537 0
M  V30 1882 C 177.316 -1.23527 -5.11495 0
M  V30 1883 O 176.342 -1.93553 -5.35281 0
M  V30 1884 N 177.544 -0.0926678 -5.80426 0
M  V30 1885 H 180.309 -2.01633 -2.2173 0
M  V30 1886 H 177.87 -1.19248 -1.09505 0
M  V30 1887 H 179.862 -0.258686 -4.03872 0
M  V30 1888 H 178.432 0.265502 -3.1147 0
M  V30 1889 H 177.652 -2.21593 -3.26022 0
M  V30 1890 H 178.94 -2.46145 -4.45298 0
M  V30 1891 H 178.338 0.491741 -5.63559 0
M  V30 1892 H 176.895 0.182714 -6.51544 0
M  V30 1893 N 180.328 1.1314 -1.09713 0
M  V30 1894 C 181.575 1.84484 -0.834987 0
M  V30 1895 C 181.903 1.83689 0.639418 0
M  V30 1896 O 181.158 1.2724 1.4869 0
M  V30 1897 C 181.457 3.32167 -1.3191 0
M  V30 1898 C 181.123 3.53139 -2.80363 0
M  V30 1899 C 179.785 3.58571 -3.20905 0
M  V30 1900 C 182.137 3.60866 -3.76065 0
M  V30 1901 C 179.465 3.69267 -4.55916 0
M  V30 1902 C 181.817 3.73089 -5.10869 0
M  V30 1903 C 180.481 3.76775 -5.50996 0
M  V30 1904 H 179.751 0.675073 -0.305544 0
M  V30 1905 H 182.398 1.33554 -1.37243 0
M  V30 1906 H 180.703 3.85469 -0.701517 0
M  V30 1907 H 182.4 3.85821 -1.09284 0
M  V30 1908 H 178.99 3.49569 -2.47991 0
M  V30 1909 H 183.174 3.55946 -3.45855 0
M  V30 1910 H 178.43 3.70388 -4.86438 0
M  V30 1911 H 182.604 3.78011 -5.84877 0
M  V30 1912 H 180.231 3.84815 -6.55608 0
M  V30 1913 N 181.806 0.884767 1.30421 0
M  V30 1914 C 183.222 0.57874 1.48737 0
M  V30 1915 C 183.422 -0.883567 1.81095 0
M  V30 1916 O 182.478 -1.6648 1.89844 0
M  V30 1917 C 183.791 1.49171 2.61091 0
M  V30 1918 C 185.339 1.49532 2.74971 0
M  V30 1919 C 185.814 2.39421 3.90438 0
M  V30 1920 N 187.305 2.37383 3.97748 0
M  V30 1921 C 188.04 3.03647 4.86401 0
M  V30 1922 N 187.536 3.79136 5.79852 0
M  V30 1923 N 189.329 2.9288 4.79768 0
M  V30 1924 H 181.48 1.83075 1.0769 0
M  V30 1925 H 183.743 0.783637 0.533495 0
M  V30 1926 H 183.449 2.53291 2.44001 0
M  V30 1927 H 183.323 1.20113 3.57565 0
M  V30 1928 H 185.71 0.46163 2.91467 0
M  V30 1929 H 185.791 1.8262 1.79119 0
M  V30 1930 H 185.435 3.42874 3.74699 0
M  V30 1931 H 185.365 2.03649 4.85628 0
M  V30 1932 H 187.856 1.82525 3.30897 0
M  V30 1933 H 188.169 4.26789 6.4426 0
M  V30 1934 H 186.514 3.83243 5.79784 0
M  V30 1935 H 189.705 2.33433 4.05742 0
M  V30 1936 H 189.878 3.448 5.4865 0
M  V30 1937 N 183.284 -1.43765 0.645699 0
M  V30 1938 C 184.232 -2.32516 -0.0624849 0
M  V30 1939 C 185.226 -1.48183 -0.820855 0
M  V30 1940 O 186.432 -1.64439 -0.732106 0
M  V30 1941 H 182.807 -0.750989 -0.0389864 0
M  V30 1942 H 184.778 -2.89979 0.703892 0
M  V30 1943 C 183.527 -3.32389 -1.02044 0
M  V30 1944 H 182.85 -3.97301 -0.446312 0
M  V30 1945 H 184.29 -3.97138 -1.48517 0
M  V30 1946 C 182.749 -2.62416 -2.11281 0
M  V30 1947 O 183.279 -2.434 -3.19561 0
M  V30 1948 N 181.485 -2.21913 -1.87624 0
M  V30 1949 H 181.032 -2.37578 -0.995703 0
M  V30 1950 H 180.99 -1.75424 -2.6091 0
M  V30 1951 N 184.763 -0.387143 -1.52771 0
M  V30 1952 C 185.991 0.195869 -2.05971 0
M  V30 1953 C 186.406 1.40691 -1.25903 0
M  V30 1954 O 185.763 1.79931 -0.305134 0
M  V30 1955 C 185.814 0.56812 -3.57008 0
M  V30 1956 O 185.535 -0.594803 -4.34043 0
M  V30 1957 C 187.036 1.20723 -4.26545 0
M  V30 1958 H 184.256 0.0300578 -0.670326 0
M  V30 1959 H 186.8 -0.551749 -1.96916 0
M  V30 1960 H 184.955 1.26564 -3.66143 0
M  V30 1961 H 185.369 -0.289322 -5.23701 0
M  V30 1962 H 186.843 1.41807 -5.33474 0
M  V30 1963 H 187.32 2.17395 -3.81623 0
M  V30 1964 H 187.926 0.550535 -4.21722 0
M  V30 1965 N 186.241 1.57166 -0.116904 0
M  V30 1966 C 187.469 1.99473 0.549383 0
M  V30 1967 C 187.884 0.996541 1.60357 0
M  V30 1968 O 187.241 -0.0108731 1.82497 0
M  V30 1969 C 187.292 3.41788 1.17741 0
M  V30 1970 O 187.013 4.37788 0.165362 0
M  V30 1971 C 188.514 3.99216 1.92722 0
M  V30 1972 H 185.734 0.655009 0.145616 0
M  V30 1973 H 188.278 2.03494 -0.202625 0
M  V30 1974 H 186.433 3.38713 1.88021 0
M  V30 1975 H 186.847 5.20806 0.621403 0
M  V30 1976 H 188.321 5.00882 2.31995 0
M  V30 1977 H 188.798 3.3824 2.80161 0
M  V30 1978 H 189.404 4.0583 1.27209 0
M  V30 1979 N 187.719 -0.156864 1.56817 0
M  V30 1980 C 188.649 -1.19589 2.00551 0
M  V30 1981 C 189.63 -1.4536 0.883426 0
M  V30 1982 O 190.815 -1.56449 1.15054 0
M  V30 1983 C 187.945 -2.53143 2.37773 0
M  V30 1984 C 186.899 -2.41913 3.53075 0
M  V30 1985 C 186.225 -3.80088 3.76081 0
M  V30 1986 C 187.525 -1.91157 4.86062 0
M  V30 1987 H 189.219 -0.832293 2.87599 0
M  V30 1988 H 186.765 -0.398918 1.38364 0
M  V30 1989 H 188.718 -3.26047 2.66967 0
M  V30 1990 H 187.442 -2.91319 1.4765 0
M  V30 1991 H 186.101 -1.71462 3.24031 0
M  V30 1992 H 185.749 -4.15683 2.83225 0
M  V30 1993 H 185.449 -3.73439 4.53671 0
M  V30 1994 H 186.973 -4.54556 4.0769 0
M  V30 1995 H 188.387 -2.53846 5.14038 0
M  V30 1996 H 186.784 -1.95422 5.67389 0
M  V30 1997 H 187.854 -0.866673 4.77092 0
M  V30 1998 N 189.197 -1.51736 -0.425897 0
M  V30 1999 C 190.444 -1.6497 -1.17436 0
M  V30 2000 C 190.772 -0.371445 -1.9092 0
M  V30 2001 O 190.027 0.644963 -1.84767 0
M  V30 2002 C 190.326 -2.81103 -2.20717 0
M  V30 2003 C 189.992 -4.19954 -1.64162 0
M  V30 2004 C 188.654 -4.57725 -1.48462 0
M  V30 2005 C 191.006 -5.06552 -1.22696 0
M  V30 2006 C 188.334 -5.79789 -0.897873 0
M  V30 2007 C 190.686 -6.29205 -0.654464 0
M  V30 2008 C 189.35 -6.6574 -0.484456 0
M  V30 2009 H 188.62 -0.603668 -0.429727 0
M  V30 2010 H 191.267 -1.85798 -0.463829 0
M  V30 2011 H 189.572 -2.54542 -2.97852 0
M  V30 2012 H 191.269 -2.8854 -2.78471 0
M  V30 2013 H 187.859 -3.90181 -1.77361 0
M  V30 2014 H 192.043 -4.77968 -1.33642 0
M  V30 2015 H 187.299 -6.06733 -0.75402 0
M  V30 2016 H 191.473 -6.95643 -0.324694 0
M  V30 2017 H 189.1 -7.60195 -0.0276833 0
M  V30 2018 N 190.675 0.682077 -1.42076 0
M  V30 2019 C 191.924 1.43786 -1.41451 0
M  V30 2020 C 192.237 1.95574 -0.0317074 0
M  V30 2021 O 193.443 2.71326 0.0971462 0
M  V30 2022 C 191.899 2.60071 -2.48779 0
M  V30 2023 C 191.507 2.15013 -3.93031 0
M  V30 2024 C 193.251 3.37626 -2.57311 0
M  V30 2025 C 191.158 3.28336 -4.91883 0
M  V30 2026 H 190.088 0.540143 -0.526082 0
M  V30 2027 H 192.739 0.739157 -1.67955 0
M  V30 2028 H 191.121 3.32275 -2.15429 0
M  V30 2029 H 192.295 1.5001 -4.35699 0
M  V30 2030 H 190.61 1.50416 -3.88284 0
M  V30 2031 H 193.207 4.22012 -3.28345 0
M  V30 2032 H 193.55 3.83727 -1.61429 0
M  V30 2033 H 194.083 2.72488 -2.89819 0
M  V30 2034 H 190.822 2.87234 -5.89217 0
M  V30 2035 H 190.342 3.92145 -4.53853 0
M  V30 2036 H 192.021 3.93913 -5.13265 0
M  V30 2037 N 192.153 1.28127 0.917671 0
M  V30 2038 C 193.43 1.05761 1.64542 0
M  V30 2039 C 193.81 -0.404344 2.07191 0
M  V30 2040 O 193.158 -1.38963 1.81388 0
M  V30 2041 C 193.368 2.02857 2.83989 0
M  V30 2042 C 194.716 2.32786 3.551 0
M  V30 2043 O 195.74 2.0091 2.94132 0
M  V30 2044 O 194.599 2.87169 4.64969 0
M  V30 2045 H 191.693 0.403916 0.721652 0
M  V30 2046 H 194.239 1.39431 0.967322 0
M  V30 2047 H 193.011 3.01407 2.49538 0
M  V30 2048 H 192.634 1.69809 3.59514 0
M  V30 2049 N 193.631 -1.12557 1.10312 0
M  V30 2050 C 194.563 -2.17971 0.708625 0
M  V30 2051 C 195.576 -1.60806 -0.254027 0
M  V30 2052 O 196.765 -1.78458 -0.0386891 0
M  V30 2053 C 193.865 -3.38891 0.0248198 0
M  V30 2054 C 193.038 -4.25548 1.01132 0
M  V30 2055 C 192.097 -5.24972 0.35924 0
M  V30 2056 O 191.123 -5.60174 1.00965 0
M  V30 2057 N 192.325 -5.73747 -0.882847 0
M  V30 2058 H 195.09 -2.52427 1.61557 0
M  V30 2059 H 192.651 -1.27967 0.991771 0
M  V30 2060 H 194.643 -4.02485 -0.422852 0
M  V30 2061 H 193.213 -3.02596 -0.784514 0
M  V30 2062 H 192.433 -3.58589 1.6373 0
M  V30 2063 H 193.721 -4.80294 1.67914 0
M  V30 2064 H 193.119 -5.4731 -1.43065 0
M  V30 2065 H 191.676 -6.39234 -1.27369 0
M  V30 2066 N 195.109 -0.891671 -1.2995 0
M  V30 2067 C 196.355 -0.514261 -1.96171 0
M  V30 2068 C 196.688 0.935506 -1.70182 0
M  V30 2069 O 195.963 1.66204 -1.01028 0
M  V30 2070 C 196.246 -0.797719 -3.51153 0
M  V30 2071 C 196.099 -2.2986 -3.86632 0
M  V30 2072 C 197.418 -0.278749 -4.39216 0
M  V30 2073 H 194.537 -0.188314 -0.712535 0
M  V30 2074 H 197.179 -1.11689 -1.53706 0
M  V30 2075 H 195.329 -0.284826 -3.87455 0
M  V30 2076 H 197.001 -2.88042 -3.60319 0
M  V30 2077 H 195.244 -2.76257 -3.34462 0
M  V30 2078 H 195.915 -2.44753 -4.94773 0
M  V30 2079 H 198.391 -0.717825 -4.09862 0
M  V30 2080 H 197.267 -0.506353 -5.46559 0
M  V30 2081 H 197.528 0.820266 -4.34424 0
M  V30 2082 N 196.587 1.43421 -0.653314 0
M  V30 2083 C 197.497 2.34568 0.0388565 0
M  V30 2084 C 198.513 1.53888 0.81207 0
M  V30 2085 O 199.689 1.86539 0.759294 0
M  V30 2086 C 196.754 3.32167 0.993269 0
M  V30 2087 C 195.815 4.28751 0.216977 0
M  V30 2088 C 195.048 5.21688 1.12593 0
M  V30 2089 O 195.271 5.19052 2.36519 0
M  V30 2090 O 194.205 5.98919 0.598284 0
M  V30 2091 H 198.031 2.95251 -0.711386 0
M  V30 2092 H 195.616 1.43564 -0.413502 0
M  V30 2093 H 197.498 3.92183 1.54176 0
M  V30 2094 H 196.173 2.73987 1.72374 0
M  V30 2095 H 195.08 3.72215 -0.375101 0
M  V30 2096 H 196.413 4.89913 -0.473924 0
M  V30 2097 N 198.065 0.39524 1.52563 0
M  V30 2098 C 199.028 -0.425001 2.25225 0
M  V30 2099 C 200.028 -0.985266 1.27079 0
M  V30 2100 O 201.218 -0.866332 1.5113 0
M  V30 2101 C 198.35 -1.59686 3.01186 0
M  V30 2102 H 199.543 0.211233 2.99155 0
M  V30 2103 H 197.096 0.147472 1.55603 0
M  V30 2104 H 197.831 -2.27035 2.31572 0
M  V30 2105 H 197.616 -1.20176 3.73229 0
M  V30 2106 H 199.106 -2.17743 3.5634 0
M  V30 2107 N 199.544 -1.57102 0.125237 0
M  V30 2108 C 200.491 -2.15641 -0.822655 0
M  V30 2109 C 201.461 -1.08313 -1.25927 0
M  V30 2110 O 202.646 -1.36251 -1.33567 0
M  V30 2111 C 199.786 -2.76504 -2.06494 0
M  V30 2112 C 198.899 -3.98158 -1.67612 0
M  V30 2113 C 198.034 -4.47088 -2.86854 0
M  V30 2114 C 197.073 -5.6126 -2.44242 0
M  V30 2115 N 196.21 -6.04905 -3.56419 0
M  V30 2116 H 201.05 -2.96313 -0.316625 0
M  V30 2117 H 198.587 -1.46388 -0.144588 0
M  V30 2118 H 200.545 -3.09925 -2.79289 0
M  V30 2119 H 199.175 -1.98512 -2.54545 0
M  V30 2120 H 198.227 -3.70858 -0.846661 0
M  V30 2121 H 199.539 -4.80934 -1.32301 0
M  V30 2122 H 198.693 -4.82451 -3.67867 0
M  V30 2123 H 197.432 -3.63275 -3.25396 0
M  V30 2124 H 196.437 -5.25495 -1.61663 0
M  V30 2125 H 197.662 -6.46843 -2.0681 0
M  V30 2126 H 195.608 -5.24032 -3.94623 0
M  V30 2127 H 195.525 -6.82552 -3.25051 0
M  V30 2128 H 196.793 -6.44907 -4.37853 0
M  V30 2129 N 201.022 0.148545 -1.56898 0
M  V30 2130 C 202.268 0.857877 -1.84424 0
M  V30 2131 C 202.623 1.7886 -0.709006 0
M  V30 2132 O 201.916 1.89344 0.293139 0
M  V30 2133 C 202.11 1.67064 -3.1595 0
M  V30 2134 C 201.939 0.82011 -4.42159 0
M  V30 2135 C 200.709 0.486328 -5.02954 0
M  V30 2136 C 202.907 0.151155 -5.14078 0
M  V30 2137 N 200.889 -0.377956 -6.12735 0
M  V30 2138 C 202.26 -0.573333 -6.17343 0
M  V30 2139 C 204.315 0.0716685 -4.97848 0
M  V30 2140 C 203.018 -1.3698 -7.06137 0
M  V30 2141 C 205.044 -0.711532 -5.87104 0
M  V30 2142 C 204.406 -1.42431 -6.8985 0
M  V30 2143 H 200.505 0.291798 -0.725519 0
M  V30 2144 H 203.089 0.123347 -1.94309 0
M  V30 2145 H 201.26 2.37642 -3.07215 0
M  V30 2146 H 202.992 2.32302 -3.31388 0
M  V30 2147 H 199.747 0.821753 -4.66416 0
M  V30 2148 H 200.171 -0.801077 -6.72244 0
M  V30 2149 H 204.813 0.608381 -4.184 0
M  V30 2150 H 202.531 -1.91778 -7.85014 0
M  V30 2151 H 206.117 -0.775005 -5.76615 0
M  V30 2152 H 204.997 -2.02061 -7.57721 0
M  V30 2153 N 202.5 1.5196 0.417844 0
M  V30 2154 C 203.746 1.65836 1.16732 0
M  V30 2155 C 204.079 0.382881 1.90388 0
M  V30 2156 O 203.354 -0.618368 1.84408 0
M  V30 2157 C 203.637 2.87466 2.16876 0
M  V30 2158 C 203.49 4.25041 1.47174 0
M  V30 2159 C 204.809 3.04613 3.17646 0
M  V30 2160 H 201.928 0.603515 0.423011 0
M  V30 2161 H 204.57 1.84494 0.454105 0
M  V30 2162 H 202.72 2.71689 2.777 0
M  V30 2163 H 204.392 4.52527 0.895376 0
M  V30 2164 H 202.635 4.26843 0.773806 0
M  V30 2165 H 203.306 5.06176 2.20204 0
M  V30 2166 H 205.782 3.1923 2.66892 0
M  V30 2167 H 204.658 3.91247 3.8499 0
M  V30 2168 H 204.919 2.17541 3.84874 0
M  V30 2169 N 203.978 -0.674533 1.42435 0
M  V30 2170 C 204.888 -1.81751 1.48337 0
M  V30 2171 C 205.904 -1.69975 0.372099 0
M  V30 2172 O 207.08 -1.91521 0.62304 0
M  V30 2173 C 204.145 -3.17895 1.38361 0
M  V30 2174 C 203.206 -3.41625 2.59982 0
M  V30 2175 C 202.439 -4.71274 2.50473 0
M  V30 2176 O 202.662 -5.49197 1.54075 0
M  V30 2177 O 201.596 -4.96254 3.4061 0
M  V30 2178 H 205.422 -1.79728 2.44809 0
M  V30 2179 H 203.007 -0.830312 1.24202 0
M  V30 2180 H 204.889 -3.99136 1.35161 0
M  V30 2181 H 203.564 -3.20555 0.450144 0
M  V30 2182 H 202.471 -2.60231 2.68757 0
M  V30 2183 H 203.804 -3.43796 3.52229 0
M  V30 2184 N 205.456 -1.28612 -0.910864 0
M  V30 2185 C 206.702 -1.16106 -1.66274 0
M  V30 2186 C 207.035 0.289113 -1.92036 0
M  V30 2187 O 206.31 1.21 -1.52281 0
M  V30 2188 C 206.593 -1.96309 -3.01885 0
M  V30 2189 C 206.446 -3.49405 -2.8326 0
M  V30 2190 C 207.765 -1.78076 -4.02463 0
M  V30 2191 H 204.884 -0.423152 -0.603417 0
M  V30 2192 H 207.526 -1.57961 -1.05586 0
M  V30 2193 H 205.676 -1.60742 -3.53687 0
M  V30 2194 H 207.348 -3.94894 -2.38446 0
M  V30 2195 H 205.591 -3.74893 -2.18261 0
M  V30 2196 H 206.262 -4.00784 -3.79574 0
M  V30 2197 H 208.738 -2.0912 -3.59733 0
M  V30 2198 H 207.614 -2.36561 -4.95308 0
M  V30 2199 H 207.875 -0.733008 -4.35981 0
M  V30 2200 N 206.934 1.1197 -1.10907 0
M  V30 2201 C 207.881 2.17846 -0.762345 0
M  V30 2202 C 208.851 1.63995 0.263599 0
M  V30 2203 O 210.036 1.90273 0.141773 0
M  V30 2204 C 207.176 3.44487 -0.205651 0
M  V30 2205 C 206.289 4.12369 -1.28748 0
M  V30 2206 C 205.424 5.26674 -0.691919 0
M  V30 2207 C 204.463 5.86431 -1.75399 0
M  V30 2208 N 203.6 6.92142 -1.17833 0
M  V30 2209 H 208.44 2.46851 -1.6694 0
M  V30 2210 H 205.977 1.21188 -0.833776 0
M  V30 2211 H 207.935 4.16981 0.135037 0
M  V30 2212 H 206.565 3.15884 0.664613 0
M  V30 2213 H 205.617 3.38003 -1.74522 0
M  V30 2214 H 206.929 4.52844 -2.09125 0
M  V30 2215 H 206.083 6.05953 -0.300963 0
M  V30 2216 H 204.822 4.8749 0.143232 0
M  V30 2217 H 203.827 5.05835 -2.15432 0
M  V30 2218 H 205.052 6.27685 -2.59208 0
M  V30 2219 H 202.998 6.54985 -0.364725 0
M  V30 2220 H 202.915 7.31242 -1.91887 0
M  V30 2221 H 204.183 7.75237 -0.81408 0
M  V30 2222 N 208.412 0.89855 1.29475 0
M  V30 2223 C 209.637 0.538561 2.00285 0
M  V30 2224 C 210.062 -0.869135 1.66816 0
M  V30 2225 O 209.42 -1.57831 0.892145 0
M  V30 2226 C 209.468 0.736475 3.52999 0
M  V30 2227 O 208.572 -0.211537 4.11857 0
M  V30 2228 H 207.913 0.210563 0.62973 0
M  V30 2229 H 210.443 1.20982 1.64998 0
M  V30 2230 H 210.453 0.640685 4.02938 0
M  V30 2231 H 209.128 1.76276 3.76696 0
M  V30 2232 H 207.705 -0.0682991 3.72837 0
M  V30 2233 N 209.89 -1.43072 0.660911 0
M  V30 2234 C 210.837 -2.30785 -0.0259884 0
M  V30 2235 C 211.807 -1.45184 -0.806888 0
M  V30 2236 O 212.992 -1.74041 -0.781943 0
M  V30 2237 C 210.132 -3.30861 -0.981067 0
M  V30 2238 C 209.245 -4.31558 -0.195458 0
M  V30 2239 C 208.38 -5.18712 -1.14503 0
M  V30 2240 C 207.419 -6.11097 -0.350299 0
M  V30 2241 N 206.556 -6.90849 -1.25186 0
M  V30 2242 H 211.396 -2.88975 0.727846 0
M  V30 2243 H 208.933 -1.42353 0.370682 0
M  V30 2244 H 210.891 -3.87399 -1.54849 0
M  V30 2245 H 209.521 -2.74304 -1.70169 0
M  V30 2246 H 208.573 -3.77252 0.488374 0
M  V30 2247 H 209.885 -4.9701 0.422176 0
M  V30 2248 H 209.039 -5.79914 -1.78284 0
M  V30 2249 H 207.778 -4.53404 -1.79656 0
M  V30 2250 H 206.783 -5.48976 0.300808 0
M  V30 2251 H 208.008 -6.7845 0.296941 0
M  V30 2252 H 205.954 -6.28182 -1.89005 0
M  V30 2253 H 205.871 -7.52854 -0.688971 0
M  V30 2254 H 207.139 -7.5655 -1.87757 0
M  V30 2255 N 211.368 -0.403325 -1.52352 0
M  V30 2256 C 212.784 -0.0539281 -1.59509 0
M  V30 2257 C 212.984 1.43307 -1.41652 0
M  V30 2258 O 212.04 2.19924 -1.24056 0
M  V30 2259 C 213.353 -0.543654 -2.95745 0
M  V30 2260 C 214.901 -0.501125 -3.08962 0
M  V30 2261 C 215.376 -0.967267 -4.47669 0
M  V30 2262 N 216.867 -0.923849 -4.53893 0
M  V30 2263 C 217.602 -1.25578 -5.5948 0
M  V30 2264 N 217.098 -1.65889 -6.72646 0
M  V30 2265 N 218.891 -1.17613 -5.49658 0
M  V30 2266 H 211.042 -1.37123 -1.62206 0
M  V30 2267 H 213.305 -0.56294 -0.76276 0
M  V30 2268 H 213.011 -1.58275 -3.14073 0
M  V30 2269 H 212.885 0.0498042 -3.77167 0
M  V30 2270 H 215.272 0.528909 -2.90321 0
M  V30 2271 H 215.353 -1.13056 -2.2946 0
M  V30 2272 H 214.997 -1.9956 -4.67053 0
M  V30 2273 H 214.927 -0.314698 -5.25659 0
M  V30 2274 H 217.418 -0.627403 -3.72655 0
M  V30 2275 H 217.731 -1.89543 -7.49195 0
M  V30 2276 H 216.076 -1.69787 -6.73942 0
M  V30 2277 H 219.267 -0.860115 -4.6013 0
M  V30 2278 H 219.44 -1.43812 -6.3184 0
M  V30 2279 N 212.846 1.57033 -0.133567 0
M  V30 2280 C 214.262 1.58035 0.222944 0
M  V30 2281 C 214.462 1.14713 1.6566 0
M  V30 2282 O 213.518 0.841218 2.38075 0
M  V30 2283 C 214.831 3.00691 -0.0236116 0
M  V30 2284 C 216.379 3.12973 0.0411512 0
M  V30 2285 C 216.854 4.57654 -0.177899 0
M  V30 2286 N 218.345 4.63033 -0.124365 0
M  V30 2287 C 219.08 5.72771 -0.268553 0
M  V30 2288 N 218.576 6.91206 -0.46972 0
M  V30 2289 N 220.369 5.61718 -0.2071 0
M  V30 2290 H 212.52 1.8349 -1.06981 0
M  V30 2291 H 214.783 0.848677 -0.422436 0
M  V30 2292 H 214.489 3.36726 -1.0153 0
M  V30 2293 H 214.363 3.70614 0.701808 0
M  V30 2294 H 216.75 2.76787 1.02338 0
M  V30 2295 H 216.831 2.45564 -0.716383 0
M  V30 2296 H 216.475 4.94542 -1.15717 0
M  V30 2297 H 216.405 5.23173 0.599797 0
M  V30 2298 H 218.896 3.7789 0.027011 0
M  V30 2299 H 219.209 7.70693 -0.570212 0
M  V30 2300 H 217.554 6.93156 -0.505876 0
M  V30 2301 H 220.745 4.68072 -0.0507986 0
M  V30 2302 H 220.918 6.47195 -0.322909 0
M  V30 2303 N 214.325 -0.140222 1.56975 0
M  V30 2304 C 215.602 -0.880769 1.74648 0
M  V30 2305 C 215.982 -1.99036 0.703404 0
M  V30 2306 O 215.33 -2.26821 -0.27648 0
M  V30 2307 C 215.54 -1.417 3.18939 0
M  V30 2308 C 216.888 -1.87774 3.80823 0
M  V30 2309 O 217.912 -1.51427 3.2241 0
M  V30 2310 O 216.771 -2.54827 4.83452 0
M  V30 2311 H 213.865 -0.416713 0.714338 0
M  V30 2312 H 216.411 -0.125618 1.69234 0
M  V30 2313 H 215.183 -0.619902 3.86359 0
M  V30 2314 H 214.806 -2.23546 3.28805 0
M  V30 2315 N 215.803 -1.52179 -0.40978 0
M  V30 2316 C 216.736 -1.70196 -1.52015 0
M  V30 2317 C 217.714 -0.549542 -1.53032 0
M  V30 2318 O 218.898 -0.776815 -1.71749 0
M  V30 2319 C 216.025 -1.74069 -2.90547 0
M  V30 2320 C 215.071 -2.95601 -3.07445 0
M  V30 2321 S 215.904 -4.55956 -2.80827 0
M  V30 2322 C 217.06 -4.62614 -4.21591 0
M  V30 2323 H 217.293 -2.64109 -1.36504 0
M  V30 2324 H 214.826 -1.4221 -0.601312 0
M  V30 2325 H 216.784 -1.76985 -3.70387 0
M  V30 2326 H 215.445 -0.812835 -3.034 0
M  V30 2327 H 214.638 -2.94791 -4.08796 0
M  V30 2328 H 214.24 -2.90569 -2.35469 0
M  V30 2329 H 216.532 -4.39951 -5.15218 0
M  V30 2330 H 217.475 -5.64548 -4.27424 0
M  V30 2331 H 217.883 -3.91654 -4.06531 0
M  V30 2332 N 217.281 0.66697 -1.42791 0
M  V30 2333 C 218.509 1.45505 -1.47091 0
M  V30 2334 C 218.924 1.8861 -0.0845873 0
M  V30 2335 O 218.281 1.58632 0.90234 0
M  V30 2336 C 218.332 2.69906 -2.40485 0
M  V30 2337 O 218.053 2.28608 -3.73725 0
M  V30 2338 C 219.554 3.63396 -2.53886 0
M  V30 2339 H 216.774 0.447459 -0.500022 0
M  V30 2340 H 219.318 0.818866 -1.8739 0
M  V30 2341 H 217.473 3.29696 -2.03419 0
M  V30 2342 H 217.887 3.08997 -4.23817 0
M  V30 2343 H 219.361 4.47387 -3.2334 0
M  V30 2344 H 219.838 4.09824 -1.57927 0
M  V30 2345 H 220.444 3.09495 -2.91706 0
M  V30 2346 N 218.759 1.29093 0.90403 0
M  V30 2347 C 220.005 1.16986 1.65656 0
M  V30 2348 C 220.338 -0.278925 1.92186 0
M  V30 2349 O 219.613 -1.2019 1.5292 0
M  V30 2350 C 219.896 1.97908 3.0084 0
M  V30 2351 C 219.749 3.50903 2.81403 0
M  V30 2352 C 221.068 1.80208 4.01513 0
M  V30 2353 H 218.187 0.426346 0.601164 0
M  V30 2354 H 220.829 1.58518 1.04747 0
M  V30 2355 H 218.979 1.62616 3.52829 0
M  V30 2356 H 220.651 3.96153 2.36348 0
M  V30 2357 H 218.894 3.76045 2.1627 0
M  V30 2358 H 219.565 4.02791 3.77443 0
M  V30 2359 H 222.041 2.11025 3.58619 0
M  V30 2360 H 220.917 2.39184 4.94047 0
M  V30 2361 H 221.178 0.756119 4.35586 0
M  V30 2362 N 220.237 -1.11381 1.11499 0
M  V30 2363 C 221.484 -1.83132 0.864231 0
M  V30 2364 C 221.812 -1.84683 -0.610114 0
M  V30 2365 O 221.067 -1.29589 -1.46646 0
M  V30 2366 C 221.366 -3.30026 1.37177 0
M  V30 2367 C 221.032 -3.48634 2.85946 0
M  V30 2368 C 219.694 -3.53421 3.26569 0
M  V30 2369 C 222.046 -3.54837 3.81759 0
M  V30 2370 C 219.374 -3.61967 4.61733 0
M  V30 2371 C 221.726 -3.64915 5.1674 0
M  V30 2372 C 220.39 -3.67962 5.5692 0
M  V30 2373 H 219.66 -0.670127 0.316245 0
M  V30 2374 H 222.307 -1.31354 1.3935 0
M  V30 2375 H 220.612 -3.84304 0.762753 0
M  V30 2376 H 222.309 -3.84034 1.15408 0
M  V30 2377 H 218.899 -3.45579 2.53521 0
M  V30 2378 H 223.083 -3.50399 3.51474 0
M  V30 2379 H 218.339 -3.62603 4.92269 0
M  V30 2380 H 222.513 -3.68658 5.90816 0
M  V30 2381 H 220.14 -3.74336 6.61647 0
M  V30 2382 N 221.715 -0.905404 -1.28997 0
M  V30 2383 C 222.94 -0.549175 -1.99997 0
M  V30 2384 C 223.365 0.860276 -1.67275 0
M  V30 2385 O 222.723 1.57355 -0.900502 0
M  V30 2386 C 222.771 -0.755185 -3.52604 0
M  V30 2387 O 221.875 0.189692 -4.11964 0
M  V30 2388 H 221.216 -0.213899 -0.628604 0
M  V30 2389 H 223.746 -1.21856 -1.64354 0
M  V30 2390 H 223.756 -0.662045 -4.02593 0
M  V30 2391 H 222.431 -1.78271 -3.75755 0
M  V30 2392 H 221.008 0.0485257 -3.72868 0
M  V30 2393 N 223.193 1.4272 -0.668489 0
M  V30 2394 C 224.441 2.01226 -0.187769 0
M  V30 2395 C 224.762 1.53092 1.2078 0
M  V30 2396 O 224.032 0.74993 1.80977 0
M  V30 2397 H 222.612 0.744041 -0.0664272 0
M  V30 2398 H 225.274 1.74723 -0.863583 0
M  V30 2399 H 224.37 3.11556 -0.184166 0
M  V30 2400 N 224.671 0.411399 1.52136 0
M  V30 2401 C 225.601 -0.404015 2.29978 0
M  V30 2402 C 226.582 -1.04412 1.34284 0
M  V30 2403 O 227.767 -1.0527 1.63192 0
M  V30 2404 C 224.897 -1.5197 3.12286 0
M  V30 2405 C 223.851 -1.00448 4.16046 0
M  V30 2406 C 223.177 -2.21393 4.86712 0
M  V30 2407 C 224.477 -0.0569336 5.22269 0
M  V30 2408 H 226.171 0.245529 2.98392 0
M  V30 2409 H 223.717 0.119525 1.43503 0
M  V30 2410 H 225.67 -2.09715 3.6551 0
M  V30 2411 H 224.394 -2.19716 2.41646 0
M  V30 2412 H 223.053 -0.449421 3.63835 0
M  V30 2413 H 222.701 -2.87699 4.12599 0
M  V30 2414 H 222.401 -1.87571 5.56858 0
M  V30 2415 H 223.925 -2.7974 5.4275 0
M  V30 2416 H 225.339 -0.54325 5.7072 0
M  V30 2417 H 223.736 0.192594 5.99791 0
M  V30 2418 H 224.806 0.887663 4.76706 0
M  V30 2419 N 226.149 -1.5696 0.141893 0
M  V30 2420 C 227.396 -1.9596 -0.510492 0
M  V30 2421 C 227.724 -1.02648 -1.65208 0
M  V30 2422 O 226.979 -0.0546947 -1.95624 0
M  V30 2423 C 227.278 -3.41242 -1.06249 0
M  V30 2424 C 226.944 -4.50882 -0.0398791 0
M  V30 2425 C 225.606 -4.80595 0.241247 0
M  V30 2426 C 227.958 -5.17058 0.65578 0
M  V30 2427 C 225.286 -5.73792 1.22393 0
M  V30 2428 C 227.638 -6.11313 1.62724 0
M  V30 2429 C 226.302 -6.39407 1.91612 0
M  V30 2430 H 225.572 -0.717068 -0.186802 0
M  V30 2431 H 228.219 -1.90142 0.227643 0
M  V30 2432 H 226.524 -3.43866 -1.87785 0
M  V30 2433 H 228.221 -3.68742 -1.57576 0
M  V30 2434 H 224.811 -4.27754 -0.269174 0
M  V30 2435 H 228.995 -4.94239 0.451779 0
M  V30 2436 H 224.251 -5.93853 1.45424 0
M  V30 2437 H 228.425 -6.61668 2.17183 0
M  V30 2438 H 226.052 -7.11427 2.6791 0
M  V30 2439 N 227.627 0.131896 -1.57047 0
M  V30 2440 C 228.873 0.843179 -1.84441 0
M  V30 2441 C 229.206 1.80129 -0.725749 0
M  V30 2442 O 228.481 1.92624 0.269469 0
M  V30 2443 C 228.764 1.60442 -3.22382 0
M  V30 2444 C 228.617 0.666782 -4.4483 0
M  V30 2445 C 229.936 2.56354 -3.5773 0
M  V30 2446 H 227.055 0.305081 -0.670891 0
M  V30 2447 H 229.697 0.107839 -1.89694 0
M  V30 2448 H 227.847 2.23128 -3.18035 0
M  V30 2449 H 229.519 0.0497646 -4.61273 0
M  V30 2450 H 227.762 -0.022609 -4.33794 0
M  V30 2451 H 228.433 1.23579 -5.37989 0
M  V30 2452 H 230.909 2.0378 -3.62785 0
M  V30 2453 H 229.785 3.06657 -4.5525 0
M  V30 2454 H 230.046 3.38419 -2.84473 0
M  V30 2455 N 229.106 1.52395 0.401703 0
M  V30 2456 C 230.354 1.66488 1.14569 0
M  V30 2457 C 230.675 0.400897 1.90835 0
M  V30 2458 O 229.945 -0.584415 1.8698 0
M  V30 2459 H 228.525 0.613672 0.425929 0
M  V30 2460 H 231.187 1.89464 0.457093 0
M  V30 2461 H 230.283 2.50942 1.85566 0
M  V30 2462 N 230.584 -0.659388 1.43143 0
M  V30 2463 C 231.832 -1.41654 1.44147 0
M  V30 2464 C 232.153 -1.94893 0.0645739 0
M  V30 2465 O 231.423 -1.74044 -0.899198 0
M  V30 2466 H 230.003 -0.525708 0.530697 0
M  V30 2467 H 232.665 -0.778097 1.78694 0
M  V30 2468 H 231.761 -2.26195 2.1504 0
M  V30 2469 N 232.062 -1.29571 -0.897171 0
M  V30 2470 C 232.992 -1.17473 -2.01798 0
M  V30 2471 C 233.973 -0.068323 -1.69963 0
M  V30 2472 O 235.158 -0.248239 -1.92607 0
M  V30 2473 C 232.288 -0.853099 -3.36659 0
M  V30 2474 C 231.242 -1.9161 -3.82713 0
M  V30 2475 C 230.568 -1.44773 -5.14728 0
M  V30 2476 C 231.868 -3.32535 -4.02763 0
M  V30 2477 H 233.562 -2.11237 -2.12177 0
M  V30 2478 H 231.108 -1.01699 -1.01948 0
M  V30 2479 H 233.061 -0.755165 -4.14578 0
M  V30 2480 H 231.785 0.120236 -3.26379 0
M  V30 2481 H 230.444 -2.00346 -3.07013 0
M  V30 2482 H 230.092 -0.462995 -5.00865 0
M  V30 2483 H 229.792 -2.15865 -5.46513 0
M  V30 2484 H 231.316 -1.36334 -5.95185 0
M  V30 2485 H 232.73 -3.26626 -4.71156 0
M  V30 2486 H 231.127 -4.01607 -4.45905 0
M  V30 2487 H 232.197 -3.75326 -3.07016 0
M  V30 2488 N 233.54 1.10788 -1.12088 0
M  V30 2489 C 234.951 1.64181 -0.88891 0
M  V30 2490 C 235.302 1.87508 0.577498 0
M  V30 2491 O 234.427 1.61434 1.44112 0
M  V30 2492 C 235.022 2.98257 -1.60712 0
M  V30 2493 C 233.581 3.4853 -1.42139 0
M  V30 2494 C 232.728 2.23208 -1.6454 0
M  V30 2495 H 235.679 0.943368 -1.27618 0
M  V30 2496 H 235.7 3.65552 -1.05604 0
M  V30 2497 H 235.212 2.81246 -2.67436 0
M  V30 2498 H 233.313 3.70692 -0.376552 0
M  V30 2499 H 233.426 4.26882 -2.17505 0
M  V30 2500 H 231.79 2.31169 -1.06925 0
M  V30 2501 H 232.573 2.08733 -2.72554 0
M  V30 2502 N 235.018 0.912232 1.28515 0
M  V30 2503 C 236.429 0.591352 1.77087 0
M  V30 2504 C 236.78 -0.8933 1.74684 0
M  V30 2505 O 235.905 -1.69876 1.34056 0
M  V30 2506 C 236.5 1.06668 3.2157 0
M  V30 2507 C 235.059 0.79675 3.67871 0
M  V30 2508 C 234.206 1.23427 2.48316 0
M  V30 2509 H 237.157 1.09365 1.15 0
M  V30 2510 H 237.178 0.407455 3.78312 0
M  V30 2511 H 236.69 2.14726 3.23287 0
M  V30 2512 H 234.791 -0.270679 3.71616 0
M  V30 2513 H 234.904 1.40343 4.58084 0
M  V30 2514 H 233.268 0.653036 2.46186 0
M  V30 2515 H 234.051 2.32316 2.52753 0
M  V30 2516 N 236.496 -1.42363 0.676048 0
M  V30 2517 C 237.406 -2.346 -0.00153389 0
M  V30 2518 C 238.422 -1.5516 -0.787485 0
M  V30 2519 O 239.598 -1.87723 -0.729521 0
M  V30 2520 C 236.663 -3.33705 -0.940298 0
M  V30 2521 C 235.724 -4.29042 -0.148739 0
M  V30 2522 C 234.957 -5.23413 -1.04279 0
M  V30 2523 O 235.18 -5.22749 -2.28232 0
M  V30 2524 O 234.114 -5.99795 -0.502925 0
M  V30 2525 H 237.94 -2.94082 0.758268 0
M  V30 2526 H 235.525 -1.42888 0.436289 0
M  V30 2527 H 237.407 -3.94586 -1.47917 0
M  V30 2528 H 236.082 -2.76695 -1.67993 0
M  V30 2529 H 234.989 -3.71571 0.43427 0
M  V30 2530 H 236.322 -4.89097 0.551805 0
M  V30 2531 N 237.974 -0.419461 -1.51915 0
M  V30 2532 C 238.904 0.391813 -2.30189 0
M  V30 2533 C 239.885 1.03699 -1.34836 0
M  V30 2534 O 241.07 1.04403 -1.63748 0
M  V30 2535 C 238.2 1.50312 -3.13087 0
M  V30 2536 C 237.154 0.9824 -4.16573 0
M  V30 2537 C 236.48 2.18809 -4.8788 0
M  V30 2538 C 237.78 0.0292356 -5.22292 0
M  V30 2539 H 239.474 -0.26135 -2.98257 0
M  V30 2540 H 237.02 -0.127134 -1.43438 0
M  V30 2541 H 238.973 2.07773 -3.66617 0
M  V30 2542 H 237.697 2.18431 -2.42807 0
M  V30 2543 H 236.356 0.430119 -3.64068 0
M  V30 2544 H 236.004 2.85507 -4.14119 0
M  V30 2545 H 235.704 1.84615 -5.57845 0
M  V30 2546 H 237.228 2.76858 -5.44226 0
M  V30 2547 H 238.642 0.512976 -5.71 0
M  V30 2548 H 237.039 -0.2244 -5.9968 0
M  V30 2549 H 238.109 -0.912931 -4.76228 0
M  V30 2550 N 239.452 1.56882 -0.150215 0
M  V30 2551 C 240.868 1.58263 0.20617 0
M  V30 2552 C 241.068 1.16464 1.64434 0
M  V30 2553 O 240.124 0.866422 2.3717 0
M  V30 2554 C 241.437 3.00649 -0.0555025 0
M  V30 2555 C 242.985 3.12999 0.00795388 0
M  V30 2556 C 243.46 4.5744 -0.226429 0
M  V30 2557 N 244.951 4.62875 -0.173469 0
M  V30 2558 C 245.686 5.72454 -0.329288 0
M  V30 2559 N 245.182 6.90669 -0.543005 0
M  V30 2560 N 246.975 5.61467 -0.266666 0
M  V30 2561 H 239.126 1.82345 -1.08922 0
M  V30 2562 H 241.389 0.844149 -0.431413 0
M  V30 2563 H 241.095 3.3563 -1.05096 0
M  V30 2564 H 240.969 3.71337 0.66246 0
M  V30 2565 H 243.356 2.77857 0.993966 0
M  V30 2566 H 243.437 2.4479 -0.742388 0
M  V30 2567 H 243.081 4.93287 -1.20956 0
M  V30 2568 H 243.011 5.2378 0.544274 0
M  V30 2569 H 245.502 3.77898 -0.0130709 0
M  V30 2570 H 245.815 7.70045 -0.651922 0
M  V30 2571 H 244.16 6.92581 -0.579366 0
M  V30 2572 H 247.351 4.67992 -0.100441 0
M  V30 2573 H 247.524 6.46816 -0.391535 0
M  V30 2574 N 240.93 -0.123565 1.57115 0
M  V30 2575 C 241.893 -1.13583 1.99076 0
M  V30 2576 C 242.893 -1.34564 0.880296 0
M  V30 2577 O 244.083 -1.31158 1.14644 0
M  V30 2578 C 241.215 -2.49128 2.32698 0
M  V30 2579 H 242.408 -0.775287 2.89706 0
M  V30 2580 H 239.961 -0.36771 1.51913 0
M  V30 2581 H 240.696 -2.90111 1.44934 0
M  V30 2582 H 240.481 -2.35255 3.13684 0
M  V30 2583 H 241.971 -3.2199 2.65918 0
M  V30 2584 N 242.408 -1.52605 -0.393616 0
M  V30 2585 C 243.371 -1.76415 -1.46323 0
M  V30 2586 C 244.371 -0.634126 -1.47768 0
M  V30 2587 O 245.561 -0.902142 -1.4902 0
M  V30 2588 C 242.693 -1.8607 -2.85641 0
M  V30 2589 H 243.886 -2.71916 -1.26498 0
M  V30 2590 H 241.439 -1.43257 -0.625073 0
M  V30 2591 H 242.174 -0.925378 -3.10817 0
M  V30 2592 H 241.959 -2.68235 -2.85993 0
M  V30 2593 H 243.449 -2.06179 -3.63153 0
M  V30 2594 N 243.887 0.651787 -1.4349 0
M  V30 2595 C 244.85 1.74647 -1.48429 0
M  V30 2596 C 245.85 1.56513 -0.368817 0
M  V30 2597 O 247.04 1.62385 -0.630623 0
M  V30 2598 C 244.172 3.13533 -1.33827 0
M  V30 2599 H 245.365 1.71649 -2.4592 0
M  V30 2600 H 242.918 0.863573 -1.30277 0
M  V30 2601 H 243.653 3.22142 -0.37349 0
M  V30 2602 H 243.438 3.28101 -2.14691 0
M  V30 2603 H 244.928 3.93356 -1.40218 0
M  V30 2604 N 245.365 1.30045 0.890287 0
M  V30 2605 C 246.295 1.18541 2.01172 0
M  V30 2606 C 247.276 0.0773356 1.69924 0
M  V30 2607 O 248.461 0.25845 1.92473 0
M  V30 2608 C 245.591 0.870941 3.36202 0
M  V30 2609 C 244.545 1.93637 3.81692 0
M  V30 2610 C 243.871 1.475 5.13953 0
M  V30 2611 C 245.171 3.34666 4.00994 0
M  V30 2612 H 246.865 2.12359 2.11054 0
M  V30 2613 H 244.411 1.02238 1.01407 0
M  V30 2614 H 246.364 0.777141 4.14172 0
M  V30 2615 H 245.088 -0.102926 3.26438 0
M  V30 2616 H 243.747 2.01972 3.05946 0
M  V30 2617 H 243.395 0.489551 5.00612 0
M  V30 2618 H 243.095 2.1876 5.4536 0
M  V30 2619 H 244.619 1.39489 5.94454 0
M  V30 2620 H 246.033 3.2912 4.69417 0
M  V30 2621 H 244.43 4.03966 4.43769 0
M  V30 2622 H 245.5 3.76949 3.05021 0
M  V30 2623 N 246.843 -1.10192 1.12674 0
M  V30 2624 C 247.79 -2.16606 0.796906 0
M  V30 2625 C 248.76 -1.64394 -0.237476 0
M  V30 2626 O 249.945 -1.90474 -0.111484 0
M  V30 2627 C 247.085 -3.44116 0.26043 0
M  V30 2628 C 246.198 -4.10268 1.35293 0
M  V30 2629 C 245.333 -5.25507 0.775621 0
M  V30 2630 C 244.372 -5.83567 1.84706 0
M  V30 2631 N 243.509 -6.90179 1.28829 0
M  V30 2632 H 248.349 -2.44163 1.70846 0
M  V30 2633 H 245.886 -1.19846 0.85295 0
M  V30 2634 H 247.844 -4.17143 -0.0686814 0
M  V30 2635 H 246.474 -3.16901 -0.614274 0
M  V30 2636 H 245.526 -3.35184 1.79877 0
M  V30 2637 H 246.838 -4.4946 2.16303 0
M  V30 2638 H 245.992 -6.05398 0.397327 0
M  V30 2639 H 244.731 -4.87656 -0.0656581 0
M  V30 2640 H 243.736 -5.02344 2.23452 0
M  V30 2641 H 244.961 -6.23482 2.69161 0
M  V30 2642 H 242.907 -6.54322 0.468881 0
M  V30 2643 H 242.824 -7.28097 2.03497 0
M  V30 2644 H 244.092 -7.73844 0.937311 0
M  V30 2645 N 248.321 -0.919034 -1.28029 0
M  V30 2646 C 249.251 -0.428581 -2.29533 0
M  V30 2647 C 250.232 0.50659 -1.62381 0
M  V30 2648 O 251.417 0.413195 -1.89753 0
M  V30 2649 C 248.547 0.327388 -3.45753 0
M  V30 2650 C 247.501 -0.519137 -4.2484 0
M  V30 2651 C 246.827 0.365486 -5.33449 0
M  V30 2652 C 248.127 -1.77914 -4.91064 0
M  V30 2653 H 249.821 -1.27687 -2.70807 0
M  V30 2654 H 247.367 -0.615428 -1.30186 0
M  V30 2655 H 249.32 0.681378 -4.15855 0
M  V30 2656 H 248.044 1.20963 -3.03374 0
M  V30 2657 H 246.703 -0.855717 -3.56473 0
M  V30 2658 H 246.351 1.24642 -4.87312 0
M  V30 2659 H 246.051 -0.197356 -5.87268 0
M  V30 2660 H 247.575 0.715241 -6.06396 0
M  V30 2661 H 248.989 -1.49374 -5.53498 0
M  V30 2662 H 247.386 -2.2848 -5.54903 0
M  V30 2663 H 248.456 -2.50382 -4.15255 0
M  V30 2664 N 249.799 1.42003 -0.683588 0
M  V30 2665 C 251.027 2.05746 -0.218182 0
M  V30 2666 C 251.442 1.51396 1.12804 0
M  V30 2667 O 250.799 0.657303 1.70252 0
M  V30 2668 C 250.85 3.61171 -0.154131 0
M  V30 2669 O 250.571 4.13508 -1.44716 0
M  V30 2670 C 252.072 4.42042 0.333713 0
M  V30 2671 H 249.292 0.662888 -0.10402 0
M  V30 2672 H 251.836 1.81987 -0.9328 0
M  V30 2673 H 249.991 3.84012 0.511231 0
M  V30 2674 H 250.405 5.07453 -1.32632 0
M  V30 2675 H 251.879 5.51028 0.327423 0
M  V30 2676 H 252.356 4.17269 1.37053 0
M  V30 2677 H 252.962 4.24239 -0.300222 0
M  V30 2678 N 251.277 0.427512 1.51691 0
M  V30 2679 C 252.207 -0.3796 2.30394 0
M  V30 2680 C 253.188 -1.02982 1.35384 0
M  V30 2681 O 254.373 -1.03534 1.643 0
M  V30 2682 C 251.503 -1.48649 3.1388 0
M  V30 2683 C 250.457 -0.960294 4.17088 0
M  V30 2684 C 249.783 -2.16219 4.89033 0
M  V30 2685 C 251.083 -0.00153679 5.223 0
M  V30 2686 H 252.777 0.277164 2.98114 0
M  V30 2687 H 250.323 0.134739 1.43368 0
M  V30 2688 H 252.276 -2.05826 3.67714 0
M  V30 2689 H 251 -2.1714 2.43962 0
M  V30 2690 H 249.659 -0.410806 3.64291 0
M  V30 2691 H 249.307 -2.83307 4.15628 0
M  V30 2692 H 249.007 -1.81654 5.58816 0
M  V30 2693 H 250.531 -2.73968 5.45687 0
M  V30 2694 H 251.945 -0.482687 5.71264 0
M  V30 2695 H 250.342 0.256199 5.99553 0
M  V30 2696 H 251.412 0.938174 4.75738 0
M  V30 2697 N 252.755 -1.56801 0.158532 0
M  V30 2698 C 253.718 -2.16138 -0.762705 0
M  V30 2699 C 254.718 -1.1061 -1.16713 0
M  V30 2700 O 255.908 -1.36191 -1.08617 0
M  V30 2701 C 253.04 -2.73386 -2.03649 0
M  V30 2702 H 254.233 -2.98886 -0.246354 0
M  V30 2703 H 251.786 -1.56035 -0.0909744 0
M  V30 2704 H 252.521 -1.94335 -2.59623 0
M  V30 2705 H 252.306 -3.50601 -1.75559 0
M  V30 2706 H 253.796 -3.19065 -2.6942 0
M  V30 2707 N 254.233 0.115231 -1.57178 0
M  V30 2708 C 255.458 0.840354 -1.89612 0
M  V30 2709 C 255.883 1.72464 -0.750845 0
M  V30 2710 O 255.241 1.78826 0.298478 0
M  V30 2711 C 255.289 1.64654 -3.20814 0
M  V30 2712 O 254.393 2.7538 -3.06985 0
M  V30 2713 H 253.734 0.232158 -0.622092 0
M  V30 2714 H 256.264 0.0964977 -2.04372 0
M  V30 2715 H 256.274 2.03499 -3.53627 0
M  V30 2716 H 254.949 0.997416 -4.03763 0
M  V30 2717 H 253.526 2.3971 -2.85646 0
M  V30 2718 N 255.711 1.52812 0.385517 0
M  V30 2719 C 256.957 1.68275 1.13188 0
M  V30 2720 C 257.29 0.423179 1.89533 0
M  V30 2721 O 256.565 -0.579113 1.85679 0
M  V30 2722 C 256.848 2.92001 2.1073 0
M  V30 2723 C 256.701 4.28067 1.38125 0
M  V30 2724 C 258.02 3.11283 3.11113 0
M  V30 2725 H 255.139 0.612352 0.410115 0
M  V30 2726 H 257.781 1.85415 0.414869 0
M  V30 2727 H 255.931 2.77519 2.71874 0
M  V30 2728 H 257.603 4.54324 0.799187 0
M  V30 2729 H 255.846 4.28388 0.683092 0
M  V30 2730 H 256.517 5.10733 2.09417 0
M  V30 2731 H 258.993 3.2482 2.6006 0
M  V30 2732 H 257.869 3.99325 3.76605 0
M  V30 2733 H 258.13 2.25656 3.80173 0
M  V30 2734 N 257.189 -0.644168 1.43834 0
M  V30 2735 C 258.605 -0.960875 1.27434 0
M  V30 2736 C 258.805 -2.00499 0.200618 0
M  V30 2737 O 257.861 -2.49018 -0.417906 0
M  V30 2738 C 259.174 -1.43653 2.64167 0
M  V30 2739 C 260.722 -1.55271 2.71772 0
M  V30 2740 C 261.197 -2.06224 4.08944 0
M  V30 2741 N 262.688 -2.13513 4.11055 0
M  V30 2742 C 263.423 -2.54081 5.14033 0
M  V30 2743 N 262.919 -2.9388 6.27381 0
M  V30 2744 N 264.712 -2.54101 5.01387 0
M  V30 2745 H 256.863 0.0465779 2.12349 0
M  V30 2746 H 259.126 -0.0417638 0.94708 0
M  V30 2747 H 258.832 -0.743706 3.43747 0
M  V30 2748 H 258.706 -2.40993 2.90176 0
M  V30 2749 H 261.093 -2.23653 1.92519 0
M  V30 2750 H 261.174 -0.563395 2.49519 0
M  V30 2751 H 260.818 -1.38441 4.88668 0
M  V30 2752 H 260.748 -3.06003 4.28567 0
M  V30 2753 H 263.239 -1.85493 3.29242 0
M  V30 2754 H 263.552 -3.2361 7.01781 0
M  V30 2755 H 261.897 -2.91663 6.30839 0
M  V30 2756 H 265.088 -2.22391 4.11898 0
M  V30 2757 H 265.261 -2.85394 5.81768 0
M  V30 2758 N 258.668 -1.30515 -0.883378 0
M  V30 2759 C 259.578 -1.18959 -2.02203 0
M  V30 2760 C 260.594 -0.109172 -1.73657 0
M  V30 2761 O 261.77 -0.324413 -1.9877 0
M  V30 2762 C 258.835 -0.883871 -3.35244 0
M  V30 2763 C 257.896 -2.04982 -3.77201 0
M  V30 2764 C 257.129 -1.75859 -5.03894 0
M  V30 2765 O 257.352 -0.687276 -5.66244 0
M  V30 2766 O 256.286 -2.61146 -5.42297 0
M  V30 2767 H 260.112 -2.14616 -2.1488 0
M  V30 2768 H 257.697 -1.10124 -1.0096 0
M  V30 2769 H 259.579 -0.728644 -4.15053 0
M  V30 2770 H 258.254 0.0427798 -3.23672 0
M  V30 2771 H 257.161 -2.26038 -2.9809 0
M  V30 2772 H 258.494 -2.95825 -3.93381 0
M  V30 2773 N 260.146 1.09593 -1.13257 0
M  V30 2774 C 261.562 1.33775 -0.870423 0
M  V30 2775 C 261.762 1.95327 0.494926 0
M  V30 2776 O 260.818 2.19853 1.2418 0
M  V30 2777 C 262.131 2.25106 -1.99369 0
M  V30 2778 C 263.679 2.3862 -2.02558 0
M  V30 2779 C 264.154 3.33285 -3.14142 0
M  V30 2780 N 265.645 3.40857 -3.13641 0
M  V30 2781 C 266.38 4.14101 -3.96621 0
M  V30 2782 N 265.876 4.90157 -4.8961 0
M  V30 2783 N 267.669 4.09808 -3.84726 0
M  V30 2784 H 259.82 0.680136 -2.01216 0
M  V30 2785 H 262.083 0.362133 -0.876107 0
M  V30 2786 H 261.789 1.87103 -2.97801 0
M  V30 2787 H 261.663 3.25481 -1.90635 0
M  V30 2788 H 264.05 2.75887 -1.0474 0
M  V30 2789 H 264.131 1.38028 -2.15364 0
M  V30 2790 H 263.775 2.96741 -4.12198 0
M  V30 2791 H 263.705 4.33776 -2.98574 0
M  V30 2792 H 266.196 2.86624 -2.46282 0
M  V30 2793 H 266.509 5.4347 -5.49418 0
M  V30 2794 H 264.854 4.89251 -4.93617 0
M  V30 2795 H 268.045 3.4949 -3.11408 0
M  V30 2796 H 268.218 4.66629 -4.49623 0
M  V30 2797 N 261.624 0.925811 1.2754 0
M  V30 2798 C 262.534 0.428993 2.30644 0
M  V30 2799 C 263.55 -0.489387 1.66976 0
M  V30 2800 O 264.726 -0.372653 1.97922 0
M  V30 2801 C 261.791 -0.311967 3.45294 0
M  V30 2802 C 260.852 0.641098 4.24486 0
M  V30 2803 C 260.085 -0.0645955 5.33661 0
M  V30 2804 O 260.308 -1.28429 5.55754 0
M  V30 2805 O 259.242 0.606265 5.98839 0
M  V30 2806 H 263.068 1.28504 2.75173 0
M  V30 2807 H 260.653 0.691086 1.32455 0
M  V30 2808 H 262.535 -0.729972 4.15029 0
M  V30 2809 H 261.21 -1.14365 3.02824 0
M  V30 2810 H 260.117 1.10874 3.57292 0
M  V30 2811 H 261.45 1.43995 4.70666 0
M  V30 2812 N 263.102 -1.41638 0.69111 0
M  V30 2813 C 264.513 -1.84346 0.295517 0
M  V30 2814 C 264.864 -1.57833 -1.16547 0
M  V30 2815 O 263.989 -1.04648 -1.89414 0
M  V30 2816 C 264.584 -3.34636 0.529575 0
M  V30 2817 C 263.143 -3.7593 0.187944 0
M  V30 2818 C 262.29 -2.65082 0.814052 0
M  V30 2819 H 265.241 -1.31253 0.892092 0
M  V30 2820 H 265.262 -3.79903 -0.213148 0
M  V30 2821 H 264.774 -3.53901 1.59297 0
M  V30 2822 H 262.875 -3.62268 -0.871367 0
M  V30 2823 H 262.988 -4.74808 0.63985 0
M  V30 2824 H 261.352 -2.53528 0.244017 0
M  V30 2825 H 262.135 -2.87167 1.88123 0
M  V30 2826 N 264.58 -0.43555 -1.51462 0
M  V30 2827 C 265.827 0.131514 -2.02072 0
M  V30 2828 C 266.155 1.42868 -1.31981 0
M  V30 2829 O 265.41 1.91076 -0.422883 0
M  V30 2830 C 265.709 0.39942 -3.55161 0
M  V30 2831 C 265.375 -0.81172 -4.43533 0
M  V30 2832 C 264.037 -1.14387 -4.67407 0
M  V30 2833 C 266.389 -1.61976 -4.95392 0
M  V30 2834 C 263.717 -2.28477 -5.40384 0
M  V30 2835 C 266.069 -2.75164 -5.6962 0
M  V30 2836 C 264.733 -3.08835 -5.91758 0
M  V30 2837 H 264.003 0.0481244 -0.739436 0
M  V30 2838 H 266.65 -0.58238 -1.8243 0
M  V30 2839 H 264.955 1.19519 -3.73125 0
M  V30 2840 H 266.652 0.85157 -3.91854 0
M  V30 2841 H 263.242 -0.542898 -4.25148 0
M  V30 2842 H 267.426 -1.37637 -4.76833 0
M  V30 2843 H 262.682 -2.5488 -5.55739 0
M  V30 2844 H 266.856 -3.38147 -6.08793 0
M  V30 2845 H 264.483 -3.97353 -6.48086 0
M  V30 2846 N 266.058 1.56714 -0.166846 0
M  V30 2847 C 267.005 2.17746 0.765193 0
M  V30 2848 C 267.975 1.11614 1.23011 0
M  V30 2849 O 269.16 1.39745 1.29908 0
M  V30 2850 C 266.3 2.81882 1.9909 0
M  V30 2851 C 265.413 4.02462 1.56997 0
M  V30 2852 C 264.548 4.54537 2.749 0
M  V30 2853 C 263.587 5.67538 2.29275 0
M  V30 2854 N 262.724 6.14142 3.40255 0
M  V30 2855 H 267.564 2.97048 0.237952 0
M  V30 2856 H 265.101 1.4672 0.105725 0
M  V30 2857 H 267.059 3.17221 2.70974 0
M  V30 2858 H 265.689 2.05191 2.49192 0
M  V30 2859 H 264.741 3.72973 0.748037 0
M  V30 2860 H 266.053 4.84273 1.19503 0
M  V30 2861 H 265.207 4.92035 3.54946 0
M  V30 2862 H 263.946 3.71774 3.1565 0
M  V30 2863 H 262.951 5.29597 1.47674 0
M  V30 2864 H 264.176 6.52099 1.89588 0
M  V30 2865 H 262.122 5.3431 3.8059 0
M  V30 2866 H 262.039 6.9093 3.06841 0
M  V30 2867 H 263.307 6.56289 4.206 0
M  V30 2868 N 267.536 -0.106894 1.57237 0
M  V30 2869 C 268.784 -0.810921 1.85117 0
M  V30 2870 C 269.105 -1.7984 0.753827 0
M  V30 2871 O 268.375 -1.94649 -0.221056 0
M  V30 2872 H 266.955 -0.302466 0.683025 0
M  V30 2873 H 269.617 -0.0913324 1.94686 0
M  V30 2874 H 268.713 -1.34875 2.81452 0
M  V30 2875 N 269.014 -1.53014 -0.377408 0
M  V30 2876 C 270.26 -1.69821 -1.11948 0
M  V30 2877 C 270.615 -0.438581 -1.87335 0
M  V30 2878 O 269.908 0.568094 -1.82984 0
M  V30 2879 C 270.102 -2.87982 -2.11663 0
M  V30 2880 C 269.931 -4.25315 -1.46072 0
M  V30 2881 C 268.701 -4.90354 -1.21986 0
M  V30 2882 C 270.899 -5.06281 -0.904664 0
M  V30 2883 N 268.881 -6.11641 -0.526215 0
M  V30 2884 C 270.252 -6.19069 -0.339726 0
M  V30 2885 C 272.307 -4.91395 -0.8022 0
M  V30 2886 C 271.01 -7.18598 0.317669 0
M  V30 2887 C 273.036 -5.91187 -0.158606 0
M  V30 2888 C 272.398 -7.03289 0.39551 0
M  V30 2889 H 268.497 -0.674785 -0.395207 0
M  V30 2890 H 271.081 -1.90389 -0.407437 0
M  V30 2891 H 269.252 -2.68974 -2.80192 0
M  V30 2892 H 270.984 -2.93669 -2.78461 0
M  V30 2893 H 267.739 -4.49286 -1.49798 0
M  V30 2894 H 268.163 -6.76719 -0.195098 0
M  V30 2895 H 272.805 -4.04925 -1.21639 0
M  V30 2896 H 270.523 -8.04669 0.743836 0
M  V30 2897 H 274.109 -5.81744 -0.0804138 0
M  V30 2898 H 272.989 -7.79183 0.885648 0
M  V30 2899 N 270.492 0.636531 -1.44174 0
M  V30 2900 C 271.741 1.39213 -1.45954 0
M  V30 2901 C 272.054 1.95374 -0.0939119 0
M  V30 2902 O 273.26 2.71498 0.0107767 0
M  V30 2903 C 271.716 2.52025 -2.56927 0
M  V30 2904 C 271.324 2.024 -3.99673 0
M  V30 2905 C 273.068 3.29269 -2.67922 0
M  V30 2906 C 270.975 3.12521 -5.0208 0
M  V30 2907 H 269.905 0.523132 -0.542999 0
M  V30 2908 H 272.556 0.685349 -1.70221 0
M  V30 2909 H 270.938 3.25253 -2.25891 0
M  V30 2910 H 272.112 1.36073 -4.40251 0
M  V30 2911 H 270.427 1.37987 -3.92872 0
M  V30 2912 H 273.024 4.11352 -3.41605 0
M  V30 2913 H 273.367 3.78397 -1.73555 0
M  V30 2914 H 273.9 2.63129 -2.98342 0
M  V30 2915 H 270.639 2.68343 -5.98057 0
M  V30 2916 H 270.159 3.77507 -4.66099 0
M  V30 2917 H 271.838 3.77385 -5.25538 0
M  V30 2918 N 271.97 1.30982 0.876444 0
M  V30 2919 C 273.386 1.09498 1.16113 0
M  V30 2920 C 273.586 -0.13875 2.01022 0
M  V30 2921 O 272.642 -0.829935 2.38471 0
M  V30 2922 C 273.955 2.36308 1.85954 0
M  V30 2923 C 275.503 2.41856 1.98683 0
M  V30 2924 C 275.978 3.6853 2.71937 0
M  V30 2925 N 277.469 3.69387 2.79477 0
M  V30 2926 C 278.204 4.64096 3.36753 0
M  V30 2927 N 277.7 5.69155 3.95012 0
M  V30 2928 N 279.493 4.51626 3.3465 0
M  V30 2929 H 271.644 2.10118 0.310494 0
M  V30 2930 H 273.907 0.926634 0.200131 0
M  V30 2931 H 273.613 3.26388 1.31011 0
M  V30 2932 H 273.487 2.4561 2.86278 0
M  V30 2933 H 275.874 1.52249 2.52793 0
M  V30 2934 H 275.955 2.36523 0.9742 0
M  V30 2935 H 275.599 4.58499 2.18496 0
M  V30 2936 H 275.529 3.71127 3.73593 0
M  V30 2937 H 278.02 2.93438 2.38123 0
M  V30 2938 H 278.333 6.3751 4.36808 0
M  V30 2939 H 276.678 5.72937 3.93406 0
M  V30 2940 H 279.869 3.68728 2.8837 0
M  V30 2941 H 280.042 5.25614 3.7899 0
M  V30 2942 N 273.449 -1.08991 1.13837 0
M  V30 2943 C 274.726 -1.77863 0.813876 0
M  V30 2944 C 275.106 -1.99375 -0.693746 0
M  V30 2945 O 274.454 -1.59875 -1.63255 0
M  V30 2946 C 274.664 -3.0986 1.60586 0
M  V30 2947 C 276.012 -3.84493 1.8014 0
M  V30 2948 O 277.036 -3.19624 1.57222 0
M  V30 2949 O 275.895 -5.00957 2.18413 0
M  V30 2950 H 272.989 -0.771589 0.297624 0
M  V30 2951 H 275.535 -1.15507 1.24323 0
M  V30 2952 H 274.307 -2.89715 2.63022 0
M  V30 2953 H 273.93 -3.79942 1.17173 0
M  V30 2954 N 274.927 -0.932562 -1.27047 0
M  V30 2955 C 276.173 -0.576412 -1.94436 0
M  V30 2956 C 276.506 0.880891 -1.73072 0
M  V30 2957 O 275.781 1.62905 -1.06264 0
M  V30 2958 C 276.064 -0.909031 -3.48437 0
M  V30 2959 C 275.917 -2.42044 -3.79123 0
M  V30 2960 C 277.236 -0.418341 -4.38107 0
M  V30 2961 H 274.355 -0.210888 -0.706184 0
M  V30 2962 H 276.997 -1.16522 -1.50075 0
M  V30 2963 H 275.147 -0.407947 -3.86352 0
M  V30 2964 H 276.819 -2.99359 -3.50973 0
M  V30 2965 H 275.062 -2.86758 -3.25503 0
M  V30 2966 H 275.733 -2.6037 -4.86736 0
M  V30 2967 H 278.209 -0.847856 -4.0737 0
M  V30 2968 H 277.085 -0.679981 -5.44672 0
M  V30 2969 H 277.346 0.681642 -4.36814 0
M  V30 2970 N 276.405 1.4127 -0.698611 0
M  V30 2971 C 277.821 1.55241 -0.370462 0
M  V30 2972 C 278.021 1.67351 1.12231 0
M  V30 2973 O 277.077 1.65363 1.90818 0
M  V30 2974 C 278.39 2.78997 -1.12165 0
M  V30 2975 C 279.938 2.92797 -1.1063 0
M  V30 2976 C 280.413 4.19445 -1.8393 0
M  V30 2977 N 281.904 4.26409 -1.80914 0
M  V30 2978 C 282.639 5.23271 -2.34467 0
M  V30 2979 N 282.135 6.26145 -2.96504 0
M  V30 2980 N 283.928 5.15232 -2.24706 0
M  V30 2981 H 276.079 1.31654 -1.66676 0
M  V30 2982 H 278.342 0.635393 -0.703548 0
M  V30 2983 H 278.048 2.76268 -2.17644 0
M  V30 2984 H 277.922 3.70606 -0.702209 0
M  V30 2985 H 280.309 2.95039 -0.0597713 0
M  V30 2986 H 280.39 2.02353 -1.56483 0
M  V30 2987 H 280.034 4.17964 -2.88563 0
M  V30 2988 H 279.964 5.08866 -1.35509 0
M  V30 2989 H 282.455 3.527 -1.35687 0
M  V30 2990 H 282.768 6.96451 -3.34927 0
M  V30 2991 H 281.113 6.26638 -3.00583 0
M  V30 2992 H 284.304 4.33789 -1.7591 0
M  V30 2993 H 284.477 5.90552 -2.66745 0
M  V30 2994 N 277.883 0.443576 1.51229 0
M  V30 2995 C 279.129 -0.120975 2.02439 0
M  V30 2996 C 279.462 -1.41815 1.32674 0
M  V30 2997 O 278.737 -1.89373 0.443622 0
M  V30 2998 C 279.02 -0.333291 3.58554 0
M  V30 2999 C 278.873 0.982968 4.38928 0
M  V30 3000 C 280.192 -1.10028 4.26124 0
M  V30 3001 H 277.311 -0.0424923 0.735774 0
M  V30 3002 H 279.953 0.583794 1.80809 0
M  V30 3003 H 278.103 -0.933614 3.77115 0
M  V30 3004 H 279.775 1.61775 4.32003 0
M  V30 3005 H 278.018 1.58611 4.03763 0
M  V30 3006 H 278.689 0.788379 5.46341 0
M  V30 3007 H 281.165 -0.591711 4.11871 0
M  V30 3008 H 280.041 -1.21761 5.35225 0
M  V30 3009 H 280.302 -2.12996 3.87408 0
M  V30 3010 N 279.361 -1.56624 0.175154 0
M  V30 3011 C 280.309 -2.19468 -0.770495 0
M  V30 3012 C 281.303 -1.15985 -1.23466 0
M  V30 3013 O 282.509 -1.34176 -1.19987 0
M  V30 3014 H 278.884 -0.703095 -0.266761 0
M  V30 3015 H 280.855 -2.97613 -0.216542 0
M  V30 3016 C 279.604 -2.85264 -1.98796 0
M  V30 3017 H 278.927 -3.64623 -1.63983 0
M  V30 3018 H 280.367 -3.327 -2.62843 0
M  V30 3019 C 278.826 -1.85239 -2.81404 0
M  V30 3020 O 279.356 -1.34024 -3.78682 0
M  V30 3021 N 277.562 -1.53911 -2.46495 0
M  V30 3022 H 277.109 -1.95751 -1.67449 0
M  V30 3023 H 277.067 -0.872382 -3.02054 0
M  V30 3024 N 280.839 0.0985539 -1.57292 0
M  V30 3025 C 282.064 0.820196 -1.90493 0
M  V30 3026 C 282.489 1.71658 -0.769094 0
M  V30 3027 O 281.847 1.79133 0.279495 0
M  V30 3028 C 281.895 1.61242 -3.22542 0
M  V30 3029 O 280.999 2.72108 -3.09888 0
M  V30 3030 H 280.34 0.225547 -0.62452 0
M  V30 3031 H 282.87 0.0748159 -2.04463 0
M  V30 3032 H 282.88 1.99737 -3.55766 0
M  V30 3033 H 281.555 0.954535 -4.04798 0
M  V30 3034 H 280.132 2.36667 -2.88172 0
M  V30 3035 N 282.317 1.53212 0.369288 0
M  V30 3036 C 283.542 1.73423 1.1375 0
M  V30 3037 C 283.967 0.460404 1.82378 0
M  V30 3038 O 283.325 -0.585298 1.71592 0
M  V30 3039 C 283.373 2.89769 2.1463 0
M  V30 3040 O 282.477 2.58119 3.21634 0
M  V30 3041 H 281.818 0.576061 0.330227 0
M  V30 3042 H 284.348 2.00083 0.427547 0
M  V30 3043 H 284.358 3.15829 2.58294 0
M  V30 3044 H 283.033 3.8217 1.64071 0
M  V30 3045 H 281.61 2.42864 2.82969 0
M  V30 3046 N 283.795 -0.628877 1.44509 0
M  V30 3047 C 284.727 -1.754 1.47538 0
M  V30 3048 C 285.74 -1.58575 0.368506 0
M  V30 3049 O 286.929 -1.66847 0.634376 0
M  V30 3050 C 284.029 -3.1315 1.29577 0
M  V30 3051 C 283.202 -3.56413 2.53551 0
M  V30 3052 C 282.261 -4.7305 2.30457 0
M  V30 3053 O 281.287 -4.81247 3.03957 0
M  V30 3054 N 282.489 -5.64903 1.3366 0
M  V30 3055 H 285.254 -1.73272 2.44534 0
M  V30 3056 H 282.815 -0.813512 1.39977 0
M  V30 3057 H 284.807 -3.88902 1.11971 0
M  V30 3058 H 283.377 -3.09908 0.409371 0
M  V30 3059 H 282.597 -2.70847 2.86419 0
M  V30 3060 H 283.885 -3.82071 3.36005 0
M  V30 3061 H 283.283 -5.60975 0.729604 0
M  V30 3062 H 281.84 -6.40275 1.22032 0
M  V30 3063 N 285.273 -1.31445 -0.869486 0
M  V30 3064 C 286.519 -1.21337 -1.62496 0
M  V30 3065 C 286.852 0.227872 -1.92858 0
M  V30 3066 O 286.127 1.16094 -1.56053 0
M  V30 3067 C 286.41 -2.05814 -2.95487 0
M  V30 3068 C 286.263 -3.5824 -2.72 0
M  V30 3069 C 287.582 -1.9079 -3.96594 0
M  V30 3070 H 284.701 -0.442135 -0.589649 0
M  V30 3071 H 287.343 -1.6124 -1.00507 0
M  V30 3072 H 285.493 -1.71913 -3.48394 0
M  V30 3073 H 287.165 -4.0228 -2.25762 0
M  V30 3074 H 285.408 -3.81647 -2.06224 0
M  V30 3075 H 286.079 -4.12657 -3.66631 0
M  V30 3076 H 288.555 -2.20459 -3.52898 0
M  V30 3077 H 287.431 -2.52199 -4.87531 0
M  V30 3078 H 287.692 -0.871341 -4.33428 0
M  V30 3079 N 286.751 1.08385 -1.14413 0
M  V30 3080 C 287.681 2.17321 -0.854044 0
M  V30 3081 C 288.662 1.69024 0.191049 0
M  V30 3082 O 289.847 1.94141 0.0476779 0
M  V30 3083 C 286.977 3.45719 -0.330983 0
M  V30 3084 C 285.931 4.07409 -1.31155 0
M  V30 3085 C 285.257 5.30762 -0.64778 0
M  V30 3086 C 286.557 4.48665 -2.67388 0
M  V30 3087 H 288.251 2.41845 -1.76498 0
M  V30 3088 H 285.797 1.16233 -0.850051 0
M  V30 3089 H 287.75 4.21241 -0.115645 0
M  V30 3090 H 286.474 3.2075 0.615381 0
M  V30 3091 H 285.133 3.33919 -1.51306 0
M  V30 3092 H 284.781 5.02078 0.304398 0
M  V30 3093 H 284.481 5.72992 -1.30207 0
M  V30 3094 H 286.005 6.08998 -0.441972 0
M  V30 3095 H 287.419 5.15364 -2.51143 0
M  V30 3096 H 285.816 5.01814 -3.29093 0
M  V30 3097 H 286.886 3.60543 -3.24248 0
M  V30 3098 N 288.23 0.939286 1.26551 0
M  V30 3099 C 289.641 0.628782 1.75793 0
M  V30 3100 C 289.992 -0.856046 1.7654 0
M  V30 3101 O 289.117 -1.66994 1.3763 0
M  V30 3102 C 289.712 1.13465 3.19235 0
M  V30 3103 C 288.271 0.874601 3.66098 0
M  V30 3104 C 287.418 1.28667 2.45642 0
M  V30 3105 H 290.369 1.1178 1.12654 0
M  V30 3106 H 290.39 0.487609 3.77363 0
M  V30 3107 H 289.902 2.21535 3.1866 0
M  V30 3108 H 288.003 -0.191793 3.72106 0
M  V30 3109 H 288.116 1.50028 4.55004 0
M  V30 3110 H 286.48 0.705109 2.44745 0
M  V30 3111 H 287.263 2.37625 2.47769 0
M  V30 3112 N 289.708 -1.40897 0.706093 0
M  V30 3113 C 290.954 -2.01352 0.241889 0
M  V30 3114 C 291.287 -1.55832 -1.15888 0
M  V30 3115 O 290.562 -0.774145 -1.7843 0
M  V30 3116 C 290.845 -3.58752 0.311311 0
M  V30 3117 C 290.698 -4.1437 1.74978 0
M  V30 3118 C 292.017 -4.38914 -0.322922 0
M  V30 3119 H 289.136 -0.731562 0.0893687 0
M  V30 3120 H 291.778 -1.67504 0.896802 0
M  V30 3121 H 289.928 -3.87718 -0.246302 0
M  V30 3122 H 291.6 -3.96239 2.36205 0
M  V30 3123 H 289.843 -3.69016 2.28057 0
M  V30 3124 H 290.514 -5.23532 1.74981 0
M  V30 3125 H 292.99 -4.15822 0.152089 0
M  V30 3126 H 291.866 -5.48358 -0.243855 0
M  V30 3127 H 292.127 -4.19176 -1.40513 0
M  V30 3128 N 291.186 -0.45159 -1.50991 0
M  V30 3129 C 292.463 0.170707 -1.94854 0
M  V30 3130 C 292.843 1.58788 -1.39103 0
M  V30 3131 O 292.191 2.20913 -0.583921 0
M  V30 3132 C 292.401 0.133929 -3.48743 0
M  V30 3133 C 293.749 0.33248 -4.23296 0
M  V30 3134 O 294.773 0.211403 -3.55572 0
M  V30 3135 O 293.632 0.57486 -5.43468 0
M  V30 3136 H 290.726 0.122264 -0.817912 0
M  V30 3137 H 293.272 -0.510594 -1.61836 0
M  V30 3138 H 292.044 -0.856283 -3.81816 0
M  V30 3139 H 291.667 0.857529 -3.88242 0
M  V30 3140 N 292.664 1.56529 -0.183458 0
M  V30 3141 C 293.889 2.02064 0.467428 0
M  V30 3142 C 294.314 1.06282 1.55196 0
M  V30 3143 O 293.672 0.0443565 1.81246 0
M  V30 3144 C 293.72 3.46122 1.01153 0
M  V30 3145 O 292.824 3.53437 2.12499 0
M  V30 3146 H 292.165 0.654726 0.110588 0
M  V30 3147 H 294.695 2.02521 -0.290917 0
M  V30 3148 H 294.705 3.85676 1.33108 0
M  V30 3149 H 293.38 4.15331 0.217533 0
M  V30 3150 H 291.957 3.2575 1.81497 0
M  V30 3151 N 294.142 -0.090211 1.57342 0
M  V30 3152 C 295.39 -0.791241 1.85967 0
M  V30 3153 C 295.711 -1.7903 0.772859 0
M  V30 3154 O 294.981 -1.94872 -0.200398 0
M  V30 3155 H 293.561 -0.295205 0.686195 0
M  V30 3156 H 296.223 -0.0706782 1.94772 0
M  V30 3157 H 295.319 -1.31882 2.82867 0
M  V30 3158 N 295.62 -1.53406 -0.361157 0
M  V30 3159 C 296.53 -1.83122 -1.4664 0
M  V30 3160 C 297.546 -0.719943 -1.58407 0
M  V30 3161 O 298.722 -1.01046 -1.74218 0
M  V30 3162 C 295.787 -2.01891 -2.81853 0
M  V30 3163 C 294.848 -3.25784 -2.79577 0
M  V30 3164 C 294.081 -3.43648 -4.0834 0
M  V30 3165 O 294.304 -2.65714 -5.0473 0
M  V30 3166 O 293.238 -4.37018 -4.13883 0
M  V30 3167 H 297.064 -2.7703 -1.24451 0
M  V30 3168 H 294.649 -1.38841 -0.551678 0
M  V30 3169 H 296.531 -2.15782 -3.61962 0
M  V30 3170 H 295.206 -1.11173 -3.0401 0
M  V30 3171 H 294.113 -3.17312 -1.98151 0
M  V30 3172 H 295.446 -4.16439 -2.62373 0
M  V30 3173 N 297.098 0.621204 -1.44841 0
M  V30 3174 C 298.344 1.3826 -1.48365 0
M  V30 3175 C 298.677 1.93831 -0.119624 0
M  V30 3176 O 297.952 1.74251 0.864111 0
M  V30 3177 C 298.235 2.54058 -2.55199 0
M  V30 3178 C 298.088 2.03772 -4.00995 0
M  V30 3179 C 299.407 3.56225 -2.58442 0
M  V30 3180 H 296.526 0.501374 -0.540179 0
M  V30 3181 H 299.168 0.7015 -1.76576 0
M  V30 3182 H 297.318 3.12162 -2.31274 0
M  V30 3183 H 298.99 1.50423 -4.36086 0
M  V30 3184 H 297.233 1.34876 -4.12299 0
M  V30 3185 H 297.904 2.87185 -4.71411 0
M  V30 3186 H 300.38 3.07939 -2.79844 0
M  V30 3187 H 299.256 4.34756 -3.3508 0
M  V30 3188 H 299.517 4.10949 -1.63013 0
M  V30 3189 N 298.576 1.31904 0.862503 0
M  V30 3190 C 299.523 1.20182 1.9704 0
M  V30 3191 C 300.493 0.0858247 1.65878 0
M  V30 3192 O 301.678 0.26 1.8902 0
M  V30 3193 C 298.818 0.922797 3.32533 0
M  V30 3194 C 297.931 2.12284 3.76244 0
M  V30 3195 C 297.066 1.77996 5.00491 0
M  V30 3196 C 296.105 2.94366 5.36671 0
M  V30 3197 N 295.242 2.60223 6.52095 0
M  V30 3198 H 300.082 2.14951 2.06398 0
M  V30 3199 H 297.619 1.06917 1.01031 0
M  V30 3200 H 299.577 0.741548 4.10557 0
M  V30 3201 H 298.207 0.0119227 3.22798 0
M  V30 3202 H 297.259 2.41461 2.9394 0
M  V30 3203 H 298.571 2.99357 3.98982 0
M  V30 3204 H 297.725 1.56377 5.862 0
M  V30 3205 H 296.464 0.881252 4.79672 0
M  V30 3206 H 295.469 3.16625 4.49476 0
M  V30 3207 H 296.694 3.84957 5.59451 0
M  V30 3208 H 294.64 1.72884 6.32809 0
M  V30 3209 H 294.557 3.40827 6.74814 0
M  V30 3210 H 295.825 2.42016 7.40978 0
M  V30 3211 N 300.054 -1.07777 1.14986 0
M  V30 3212 C 300.984 -2.16865 0.865557 0
M  V30 3213 C 301.965 -1.69123 -0.182083 0
M  V30 3214 O 303.15 -1.94164 -0.0373815 0
M  V30 3215 C 300.28 -3.45539 0.349313 0
M  V30 3216 C 299.234 -4.06708 1.33313 0
M  V30 3217 C 298.56 -5.30411 0.675918 0
M  V30 3218 C 299.86 -4.47241 2.69764 0
M  V30 3219 H 301.554 -2.40905 1.77778 0
M  V30 3220 H 299.1 -1.15781 0.856203 0
M  V30 3221 H 301.053 -4.21174 0.137983 0
M  V30 3222 H 299.777 -3.21072 -0.598362 0
M  V30 3223 H 298.436 -3.33112 1.53075 0
M  V30 3224 H 298.084 -5.02232 -0.277767 0
M  V30 3225 H 297.784 -5.72293 1.33244 0
M  V30 3226 H 299.308 -6.08755 0.474262 0
M  V30 3227 H 300.722 -5.14025 2.53873 0
M  V30 3228 H 299.119 -5.00062 3.3175 0
M  V30 3229 H 300.189 -3.58818 3.26156 0
M  V30 3230 N 301.532 -0.945985 -1.26051 0
M  V30 3231 C 302.809 -0.513816 -1.88731 0
M  V30 3232 C 303.189 1.00872 -1.8544 0
M  V30 3233 O 302.537 1.8708 -1.312 0
M  V30 3234 C 302.747 -1.08062 -3.31849 0
M  V30 3235 C 304.095 -1.1522 -4.08668 0
M  V30 3236 O 305.119 -1.03155 -3.40936 0
M  V30 3237 O 303.978 -1.34044 -5.29806 0
M  V30 3238 H 301.072 -0.168193 -0.809716 0
M  V30 3239 H 303.618 -1.03886 -1.34186 0
M  V30 3240 H 302.39 -2.1241 -3.2863 0
M  V30 3241 H 302.013 -0.538307 -3.93939 0
M  V30 3242 N 303.011 1.40521 -0.713556 0
M  V30 3243 C 304.288 1.94775 -0.17943 0
M  V30 3244 C 304.668 1.65184 1.31444 0
M  V30 3245 O 304.016 0.968429 2.06963 0
M  V30 3246 C 304.226 3.45543 -0.489986 0
M  V30 3247 C 305.574 4.22442 -0.427536 0
M  V30 3248 O 306.598 3.53644 -0.425929 0
M  V30 3249 O 305.457 5.4501 -0.403292 0
M  V30 3250 H 302.551 0.826606 -0.0255192 0
M  V30 3251 H 305.097 1.5014 -0.790949 0
M  V30 3252 H 303.869 3.60432 -1.5233 0
M  V30 3253 H 303.492 3.97311 0.151598 0
M  V30 3254 N 304.489 0.459591 1.5075 0
M  V30 3255 C 305.399 -0.34613 2.32033 0
M  V30 3256 C 306.415 -1.00686 1.41909 0
M  V30 3257 O 307.591 -0.997361 1.7497 0
M  V30 3258 C 304.656 -1.42029 3.16273 0
M  V30 3259 C 303.717 -0.777362 4.22203 0
M  V30 3260 C 302.95 -1.80034 5.02418 0
M  V30 3261 O 303.173 -3.02544 4.83553 0
M  V30 3262 O 302.107 -1.37853 5.85901 0
M  V30 3263 H 305.933 0.318054 3.0203 0
M  V30 3264 H 303.518 0.221663 1.47746 0
M  V30 3265 H 305.4 -2.04275 3.68578 0
M  V30 3266 H 304.075 -2.06815 2.49016 0
M  V30 3267 H 302.982 -0.116256 3.73919 0
M  V30 3268 H 304.315 -0.172634 4.91897 0
M  V30 3269 N 305.967 -1.56429 0.191757 0
M  V30 3270 C 307.378 -1.83912 -0.321428 0
M  V30 3271 C 307.729 -1.11231 -1.61623 0
M  V30 3272 O 306.854 -0.37202 -2.13178 0
M  V30 3273 C 307.449 -3.33624 -0.589961 0
M  V30 3274 C 306.008 -3.6153 -1.04753 0
M  V30 3275 C 305.155 -2.7714 -0.0943327 0
M  V30 3276 H 308.106 -1.53161 0.415612 0
M  V30 3277 H 308.127 -3.52213 -1.43966 0
M  V30 3278 H 307.639 -3.86495 0.352588 0
M  V30 3279 H 305.74 -3.14089 -2.00447 0
M  V30 3280 H 305.853 -4.69737 -0.942549 0
M  V30 3281 H 304.217 -2.47638 -0.595589 0
M  V30 3282 H 305 -3.32799 0.842601 0
M  V30 3283 N 307.445 0.0818655 -1.57387 0
M  V30 3284 C 308.856 0.634871 -1.75574 0
M  V30 3285 C 309.207 1.78435 -0.815809 0
M  V30 3286 O 308.332 2.164 0.0025366 0
M  V30 3287 C 308.927 1.15845 -3.18379 0
M  V30 3288 C 307.486 1.65741 -3.37945 0
M  V30 3289 C 306.633 0.572549 -2.71325 0
M  V30 3290 H 309.584 -0.144268 -1.58043 0
M  V30 3291 H 309.605 2.02751 -3.21982 0
M  V30 3292 H 309.117 0.321631 -3.86765 0
M  V30 3293 H 307.218 2.51781 -2.74658 0
M  V30 3294 H 307.331 1.74129 -4.46336 0
M  V30 3295 H 305.695 1.01518 -2.33594 0
M  V30 3296 H 306.478 -0.253918 -3.4236 0
M  V30 3297 N 308.923 1.53595 0.353017 0
M  V30 3298 C 309.871 1.81605 1.45335 0
M  V30 3299 C 310.865 0.685923 1.54892 0
M  V30 3300 O 312.071 0.869095 1.57628 0
M  V30 3301 H 308.446 0.575204 0.484401 0
M  V30 3302 H 310.417 2.73679 1.18921 0
M  V30 3303 C 309.166 2.03406 2.81995 0
M  V30 3304 H 308.489 2.89814 2.75405 0
M  V30 3305 H 309.929 2.26975 3.58132 0
M  V30 3306 C 308.388 0.816794 3.26849 0
M  V30 3307 O 308.918 0.0115856 4.01698 0
M  V30 3308 N 307.124 0.636682 2.8354 0
M  V30 3309 H 306.671 1.2931 2.22793 0
M  V30 3310 H 306.629 -0.176336 3.13905 0
M  V30 3311 N 310.401 -0.613514 1.45168 0
M  V30 3312 C 311.626 -1.40437 1.52618 0
M  V30 3313 C 312.051 -1.87438 0.157707 0
M  V30 3314 O 311.409 -1.59791 -0.856537 0
M  V30 3315 C 311.457 -2.58894 2.51011 0
M  V30 3316 O 310.561 -3.59326 2.02382 0
M  V30 3317 H 309.902 -0.419506 0.514695 0
M  V30 3318 H 312.432 -0.747215 1.90467 0
M  V30 3319 H 312.442 -3.06214 2.69624 0
M  V30 3320 H 311.117 -2.24032 3.50403 0
M  V30 3321 H 309.694 -3.18695 1.93618 0
M  V30 3322 N 311.879 -1.3236 -0.855495 0
M  V30 3323 C 313.127 -1.22629 -1.60644 0
M  V30 3324 C 313.448 0.212136 -1.93843 0
M  V30 3325 O 312.718 1.13666 -1.59552 0
M  V30 3326 H 311.298 -0.450882 -0.595579 0
M  V30 3327 H 313.96 -1.65871 -1.02337 0
M  V30 3328 H 313.056 -1.80832 -2.54374 0
M  V30 3329 N 313.357 1.07166 -1.15556 0
M  V30 3330 C 314.605 1.79443 -0.929764 0
M  V30 3331 C 314.926 1.87246 0.544414 0
M  V30 3332 O 314.196 1.37473 1.39564 0
M  V30 3333 H 312.776 0.664625 -0.341003 0
M  V30 3334 H 315.438 1.29499 -1.45657 0
M  V30 3335 H 314.534 2.81832 -1.34079 0
M  V30 3336 N 314.835 0.952656 1.25548 0
M  V30 3337 C 316.083 0.605176 1.92826 0
M  V30 3338 C 316.404 -0.860261 1.74999 0
M  V30 3339 O 315.674 -1.6125 1.11244 0
M  V30 3340 H 314.254 0.220832 0.713612 0
M  V30 3341 H 316.916 1.21047 1.52754 0
M  V30 3342 H 316.012 0.832798 3.00784 0
M  V30 3343 N 316.313 -1.40141 0.720998 0
M  V30 3344 C 317.538 -2.05618 0.271258 0
M  V30 3345 C 317.963 -1.53978 -1.08039 0
M  V30 3346 O 317.321 -0.677463 -1.68167 0
M  V30 3347 C 317.369 -3.59609 0.267197 0
M  V30 3348 O 316.473 -4.05526 -0.749814 0
M  V30 3349 H 315.814 -0.651904 0.126162 0
M  V30 3350 H 318.344 -1.79439 0.982997 0
M  V30 3351 H 318.354 -4.0786 0.106744 0
M  V30 3352 H 317.029 -3.96559 1.25354 0
M  V30 3353 H 315.606 -3.68722 -0.556644 0
M  V30 3354 N 317.792 -0.46758 -1.50504 0
M  V30 3355 C 319.203 -0.0116166 -1.86696 0
M  V30 3356 C 319.554 1.39202 -1.38265 0
M  V30 3357 O 318.679 2.0313 -0.746132 0
M  V30 3358 C 319.274 -0.0143044 -3.38797 0
M  V30 3359 C 317.833 0.386175 -3.74414 0
M  V30 3360 C 316.98 -0.401287 -2.74381 0
M  V30 3361 H 319.931 -0.682022 -1.43297 0
M  V30 3362 H 319.952 0.788641 -3.72237 0
M  V30 3363 H 319.464 -1.03602 -3.74016 0
M  V30 3364 H 317.565 1.41237 -3.44794 0
M  V30 3365 H 317.678 0.0899596 -4.79016 0
M  V30 3366 H 316.042 0.144536 -2.5429 0
M  V30 3367 H 316.825 -1.42244 -3.12444 0
M  V30 3368 N 319.27 1.56325 -0.20005 0
M  V30 3369 C 320.51 1.99619 0.439519 0
M  V30 3370 C 320.874 1.08423 1.58456 0
M  V30 3371 O 322.075 1.40973 2.28867 0
M  V30 3372 C 320.346 3.46314 0.883258 0
M  V30 3373 S 321.905 4.11634 1.51997 0
M  V30 3374 H 318.723 0.697007 0.140363 0
M  V30 3375 H 321.325 1.93118 -0.304282 0
M  V30 3376 H 320.029 4.10381 0.0398967 0
M  V30 3377 H 319.56 3.56643 1.6604 0
M  V30 3378 H 321.575 4.09049 2.8088 0
M  V30 3379 N 320.748 -0.0735177 1.57428 0
M  V30 3380 C 321.658 -1.10547 2.06922 0
M  V30 3381 C 322.674 -1.42506 0.998402 0
M  V30 3382 O 323.85 -1.52717 1.31299 0
M  V30 3383 C 320.915 -2.40019 2.50184 0
M  V30 3384 C 319.976 -2.15046 3.71556 0
M  V30 3385 C 319.209 -3.38345 4.12745 0
M  V30 3386 O 319.432 -4.47399 3.53822 0
M  V30 3387 O 318.366 -3.2666 5.05546 0
M  V30 3388 H 322.192 -0.715013 2.95163 0
M  V30 3389 H 319.777 -0.287531 1.46607 0
M  V30 3390 H 321.659 -3.16218 2.78539 0
M  V30 3391 H 320.334 -2.78447 1.65072 0
M  V30 3392 H 319.241 -1.36558 3.48285 0
M  V30 3393 H 320.574 -1.81499 4.57514 0
M  V30 3394 N 322.226 -1.5378 -0.344866 0
M  V30 3395 C 323.189 -1.80981 -1.40637 0
M  V30 3396 C 324.189 -0.680816 -1.45676 0
M  V30 3397 O 325.379 -0.949095 -1.46075 0
M  V30 3398 C 322.511 -1.95063 -2.79577 0
M  V30 3399 H 323.704 -2.75803 -1.17783 0
M  V30 3400 H 321.257 -1.45173 -0.579181 0
M  V30 3401 H 321.992 -1.02379 -3.07716 0
M  V30 3402 H 321.777 -2.77198 -2.77315 0
M  V30 3403 H 323.267 -2.17629 -3.56409 0
M  V30 3404 N 323.704 0.605807 -1.45491 0
M  V30 3405 C 324.952 1.36207 -1.49305 0
M  V30 3406 C 325.273 1.94519 -0.136863 0
M  V30 3407 O 324.543 1.77261 0.833983 0
M  V30 3408 H 323.123 0.50565 -0.549843 0
M  V30 3409 H 325.785 0.711239 -1.81459 0
M  V30 3410 H 324.881 2.18058 -2.23287 0
M  V30 3411 N 325.182 1.32811 0.848464 0
M  V30 3412 C 326.092 1.24278 1.98978 0
M  V30 3413 C 327.108 0.155176 1.73307 0
M  V30 3414 O 328.284 0.376999 1.9784 0
M  V30 3415 C 325.349 0.972444 3.32783 0
M  V30 3416 C 324.41 2.14911 3.71634 0
M  V30 3417 C 323.643 1.89157 4.99054 0
M  V30 3418 O 323.866 0.837165 5.64223 0
M  V30 3419 O 322.8 2.75433 5.35183 0
M  V30 3420 H 326.626 2.20238 2.09115 0
M  V30 3421 H 324.211 1.12762 0.980052 0
M  V30 3422 H 326.093 0.838432 4.12975 0
M  V30 3423 H 324.768 0.043051 3.23671 0
M  V30 3424 H 323.675 2.33862 2.91992 0
M  V30 3425 H 325.008 3.06151 3.85399 0
M  V30 3426 N 326.66 -1.06551 1.16123 0
M  V30 3427 C 327.57 -2.17484 0.879662 0
M  V30 3428 C 328.586 -1.73377 -0.147104 0
M  V30 3429 O 329.762 -2.01379 0.0289128 0
M  V30 3430 C 326.827 -3.44591 0.381829 0
M  V30 3431 C 325.888 -4.0322 1.4735 0
M  V30 3432 C 325.121 -5.24261 0.999324 0
M  V30 3433 O 325.344 -5.70198 -0.151957 0
M  V30 3434 O 324.278 -5.74775 1.78653 0
M  V30 3435 H 328.104 -2.44075 1.80724 0
M  V30 3436 H 325.689 -1.16042 0.940992 0
M  V30 3437 H 327.571 -4.21254 0.111053 0
M  V30 3438 H 326.246 -3.19532 -0.51777 0
M  V30 3439 H 325.153 -3.2806 1.79798 0
M  V30 3440 H 326.486 -4.32568 2.34831 0
M  V30 3441 N 328.138 -0.959301 -1.25041 0
M  V30 3442 C 329.386 -0.615393 -1.92503 0
M  V30 3443 C 329.707 0.850969 -1.75452 0
M  V30 3444 O 328.977 1.60658 -1.12098 0
M  V30 3445 H 327.557 -0.224613 -0.712431 0
M  V30 3446 H 330.219 -1.21855 -1.5211 0
M  V30 3447 H 329.315 -0.848738 -3.00338 0
M  V30 3448 N 329.616 1.39756 -0.72842 0
M  V30 3449 C 330.526 2.34444 -0.0855374 0
M  V30 3450 C 331.542 1.57976 0.729356 0
M  V30 3451 O 332.718 1.90301 0.659346 0
M  V30 3452 C 329.783 3.36965 0.815798 0
M  V30 3453 C 328.844 4.29299 -0.0105996 0
M  V30 3454 C 328.077 5.26923 0.84781 0
M  V30 3455 O 328.3 5.30859 2.08673 0
M  V30 3456 O 327.234 6.01249 0.279969 0
M  V30 3457 H 331.06 2.91065 -0.866892 0
M  V30 3458 H 328.645 1.4117 -0.48902 0
M  V30 3459 H 330.527 3.99804 1.33171 0
M  V30 3460 H 329.202 2.82739 1.57608 0
M  V30 3461 H 328.109 3.69703 -0.571877 0
M  V30 3462 H 329.442 4.86712 -0.73295 0
M  V30 3463 N 331.094 0.475555 1.50254 0
M  V30 3464 C 332.342 -0.077738 2.0195 0
M  V30 3465 C 332.663 -1.39813 1.35931 0
M  V30 3466 O 331.933 -1.89249 0.506123 0
M  V30 3467 H 330.513 -0.031719 0.746326 0
M  V30 3468 H 333.175 0.626995 1.84539 0
M  V30 3469 H 332.271 -0.225995 3.11281 0
M  V30 3470 N 332.573 -1.56217 0.208337 0
M  V30 3471 C 333.821 -1.97558 -0.426076 0
M  V30 3472 C 334.142 -1.09683 -1.61229 0
M  V30 3473 O 333.412 -0.170956 -1.95153 0
M  V30 3474 H 331.992 -0.729575 -0.160405 0
M  V30 3475 H 334.654 -1.92606 0.298155 0
M  V30 3476 H 333.75 -3.02672 -0.761312 0
M  V30 3477 N 334.051 0.0651679 -1.57465 0
M  V30 3478 C 335.297 0.764193 -1.87851 0
M  V30 3479 C 335.63 1.76889 -0.801495 0
M  V30 3480 O 334.905 1.93594 0.187528 0
M  V30 3481 C 335.188 1.46625 -3.28897 0
M  V30 3482 C 335.041 0.477515 -4.47258 0
M  V30 3483 C 336.36 2.4095 -3.68281 0
M  V30 3484 H 333.479 0.276351 -0.683227 0
M  V30 3485 H 336.121 0.0272868 -1.8998 0
M  V30 3486 H 334.271 2.09438 -3.27212 0
M  V30 3487 H 335.943 -0.145922 -4.61069 0
M  V30 3488 H 334.186 -0.206576 -4.33308 0
M  V30 3489 H 334.857 1.0065 -5.42746 0
M  V30 3490 H 337.333 1.88209 -3.71102 0
M  V30 3491 H 336.209 2.87072 -4.67847 0
M  V30 3492 H 336.47 3.26049 -2.98571 0
M  V30 3493 N 335.529 1.53961 0.336706 0
M  V30 3494 C 336.769 1.73254 1.08454 0
M  V30 3495 C 337.133 0.488937 1.8567 0
M  V30 3496 O 338.334 0.559001 2.62923 0
M  V30 3497 C 336.605 2.96519 1.99528 0
M  V30 3498 S 338.164 3.36655 2.81441 0
M  V30 3499 H 334.982 0.609353 0.366347 0
M  V30 3500 H 337.584 1.92117 0.362124 0
M  V30 3501 H 336.288 3.85193 1.41614 0
M  V30 3502 H 335.819 2.80142 2.76196 0
M  V30 3503 H 337.834 2.90925 4.01967 0
M  V30 3504 N 337.007 -0.598083 1.45811 0
M  V30 3505 C 337.937 -1.71873 1.58057 0
M  V30 3506 C 338.918 -1.64533 0.431615 0
M  V30 3507 O 340.103 -1.82787 0.65595 0
M  V30 3508 C 337.233 -3.10495 1.55597 0
M  V30 3509 C 336.187 -3.32654 2.69305 0
M  V30 3510 C 335.513 -4.71646 2.51902 0
M  V30 3511 C 336.813 -3.21981 4.11248 0
M  V30 3512 H 338.507 -1.61881 2.51863 0
M  V30 3513 H 336.053 -0.777372 1.21214 0
M  V30 3514 H 338.006 -3.88699 1.6276 0
M  V30 3515 H 336.73 -3.2135 0.583255 0
M  V30 3516 H 335.389 -2.56843 2.61586 0
M  V30 3517 H 335.037 -4.79246 1.52748 0
M  V30 3518 H 334.737 -4.87426 3.2816 0
M  V30 3519 H 336.261 -5.52038 2.60933 0
M  V30 3520 H 337.675 -3.90049 4.20161 0
M  V30 3521 H 336.072 -3.49289 4.87972 0
M  V30 3522 H 337.142 -2.1928 4.32486 0
M  V30 3523 N 338.485 -1.33259 -0.841409 0
M  V30 3524 C 339.433 -1.23279 -1.97244 0
M  V30 3525 C 340.427 -0.134706 -1.68864 0
M  V30 3526 O 341.633 -0.298501 -1.77508 0
M  V30 3527 H 338.008 -0.382497 -0.647457 0
M  V30 3528 H 339.979 -2.18906 -2.02787 0
M  V30 3529 C 338.728 -0.986268 -3.33419 0
M  V30 3530 H 338.051 -1.82347 -3.55794 0
M  V30 3531 H 339.491 -0.956728 -4.13065 0
M  V30 3532 C 337.95 0.310842 -3.35463 0
M  V30 3533 O 338.48 1.31838 -3.79449 0
M  V30 3534 N 336.686 0.337485 -2.88634 0
M  V30 3535 H 336.233 -0.482967 -2.53032 0
M  V30 3536 H 336.191 1.20518 -2.90384 0
M  V30 3537 N 339.963 1.05934 -1.16686 0
M  V30 3538 C 341.211 1.78447 -0.948744 0
M  V30 3539 C 341.532 1.87813 0.524523 0
M  V30 3540 O 340.802 1.38945 1.38098 0
M  V30 3541 H 339.382 0.660971 -0.348033 0
M  V30 3542 H 342.044 1.27947 -1.47022 0
M  V30 3543 H 341.14 2.80394 -1.37061 0
M  V30 3544 N 341.441 0.965919 1.2453 0
M  V30 3545 C 342.689 0.625593 1.92174 0
M  V30 3546 C 343.01 -0.841652 1.75901 0
M  V30 3547 O 342.28 -1.60061 1.12948 0
M  V30 3548 H 340.86 0.228388 0.71123 0
M  V30 3549 H 343.522 1.2266 1.51461 0
M  V30 3550 H 342.618 0.864653 2.99884 0
M  V30 3551 N 342.919 -1.39368 0.735821 0
M  V30 3552 C 344.165 -2.00794 0.284544 0
M  V30 3553 C 344.498 -1.58255 -1.12557 0
M  V30 3554 O 343.773 -0.811819 -1.76748 0
M  V30 3555 C 344.056 -3.58011 0.387337 0
M  V30 3556 C 343.909 -4.10566 1.83728 0
M  V30 3557 C 345.228 -4.395 -0.22975 0
M  V30 3558 H 342.347 -0.729501 0.104866 0
M  V30 3559 H 344.989 -1.65564 0.93213 0
M  V30 3560 H 343.139 -3.88154 -0.164006 0
M  V30 3561 H 344.811 -3.91139 2.44556 0
M  V30 3562 H 343.054 -3.64095 2.35833 0
M  V30 3563 H 343.725 -5.19702 1.86047 0
M  V30 3564 H 346.201 -4.15406 0.240257 0
M  V30 3565 H 345.077 -5.48752 -0.127485 0
M  V30 3566 H 345.338 -4.22062 -1.3159 0
M  V30 3567 N 344.397 -0.483516 -1.5 0
M  V30 3568 C 345.637 0.0657469 -2.04294 0
M  V30 3569 C 346.001 1.35869 -1.35659 0
M  V30 3570 O 347.202 1.99111 -1.80578 0
M  V30 3571 C 345.473 0.232758 -3.56641 0
M  V30 3572 S 347.032 0.738788 -4.32536 0
M  V30 3573 H 343.85 0.0100755 -0.710929 0
M  V30 3574 H 346.452 -0.653494 -1.84254 0
M  V30 3575 H 345.156 -0.713847 -4.04144 0
M  V30 3576 H 344.687 0.977751 -3.81056 0
M  V30 3577 H 346.702 2.01048 -4.53645 0
M  V30 3578 N 345.875 1.56104 -0.216619 0
M  V30 3579 C 347.1 2.0301 0.424462 0
M  V30 3580 C 347.525 1.0955 1.52907 0
M  V30 3581 O 346.883 0.0827914 1.81111 0
M  V30 3582 C 346.931 3.4819 0.937883 0
M  V30 3583 O 346.035 3.57865 2.04955 0
M  V30 3584 H 345.376 0.656925 0.0966755 0
M  V30 3585 H 347.906 2.01859 -0.33381 0
M  V30 3586 H 347.916 3.88413 1.24897 0
M  V30 3587 H 346.591 4.15699 0.129387 0
M  V30 3588 H 345.168 3.29527 1.74546 0
M  V30 3589 N 347.353 -0.0568162 1.57498 0
M  V30 3590 C 348.599 -0.75422 1.88253 0
M  V30 3591 C 348.932 -1.76461 0.810865 0
M  V30 3592 O 348.207 -1.93691 -0.177259 0
M  V30 3593 C 348.49 -1.44878 3.2967 0
M  V30 3594 C 348.343 -0.453789 4.47505 0
M  V30 3595 C 349.662 -2.38994 3.69554 0
M  V30 3596 H 346.781 -0.272724 0.684683 0
M  V30 3597 H 349.423 -0.0172113 1.89992 0
M  V30 3598 H 347.573 -2.077 3.28318 0
M  V30 3599 H 349.245 0.170371 4.60985 0
M  V30 3600 H 347.488 0.229552 4.33192 0
M  V30 3601 H 348.159 -0.977699 5.43273 0
M  V30 3602 H 350.635 -1.86239 3.72095 0
M  V30 3603 H 349.511 -2.84587 4.69363 0
M  V30 3604 H 349.772 -3.24461 3.00296 0
M  V30 3605 N 348.832 -1.54138 -0.328536 0
M  V30 3606 C 350.078 -1.7236 -1.06865 0
M  V30 3607 C 350.411 -0.493231 -1.87832 0
M  V30 3608 O 349.686 0.5098 -1.877 0
M  V30 3609 C 349.969 -2.99621 -1.99747 0
M  V30 3610 C 349.822 -4.32899 -1.22143 0
M  V30 3611 C 351.141 -3.22615 -2.99345 0
M  V30 3612 H 348.26 -0.627151 -0.387105 0
M  V30 3613 H 350.902 -1.86827 -0.345767 0
M  V30 3614 H 349.052 -2.87418 -2.61387 0
M  V30 3615 H 350.724 -4.56978 -0.630017 0
M  V30 3616 H 348.967 -4.30628 -0.523628 0
M  V30 3617 H 349.638 -5.18154 -1.90318 0
M  V30 3618 H 352.114 -3.34248 -2.47826 0
M  V30 3619 H 350.99 -4.13027 -3.61524 0
M  V30 3620 H 351.251 -2.3961 -3.71536 0
M  V30 3621 N 350.31 0.590341 -1.46126 0
M  V30 3622 C 351.587 1.35029 -1.41515 0
M  V30 3623 C 351.967 2.10888 -0.0946472 0
M  V30 3624 O 351.315 2.08998 0.923693 0
M  V30 3625 C 351.525 2.28269 -2.63997 0
M  V30 3626 C 352.873 2.90338 -3.09821 0
M  V30 3627 O 353.897 2.38585 -2.64492 0
M  V30 3628 O 352.756 3.84321 -3.88535 0
M  V30 3629 H 349.85 0.606317 -0.562413 0
M  V30 3630 H 352.396 0.611994 -1.58281 0
M  V30 3631 H 351.168 1.71591 -3.51671 0
M  V30 3632 H 350.791 3.0945 -2.49652 0
M  V30 3633 N 351.788 1.33704 0.83433 0
M  V30 3634 C 353.065 1.16011 1.57483 0
M  V30 3635 C 353.445 -0.27176 2.09343 0
M  V30 3636 O 352.793 -1.27146 1.89858 0
M  V30 3637 C 353.003 2.20507 2.70514 0
M  V30 3638 C 354.351 2.54898 3.39577 0
M  V30 3639 O 355.375 2.19209 2.80759 0
M  V30 3640 O 354.234 3.16158 4.45765 0
M  V30 3641 H 351.328 0.448992 0.694503 0
M  V30 3642 H 353.874 1.453 0.876691 0
M  V30 3643 H 352.646 3.16667 2.29865 0
M  V30 3644 H 352.269 1.92329 3.47987 0
M  V30 3645 N 353.266 -1.05314 1.17247 0
M  V30 3646 C 354.198 -2.13023 0.845812 0
M  V30 3647 C 355.211 -1.62096 -0.151246 0
M  V30 3648 O 356.4 -1.78343 0.0748818 0
M  V30 3649 C 353.5 -3.38047 0.240292 0
M  V30 3650 C 352.673 -4.18255 1.27991 0
M  V30 3651 C 351.732 -5.21625 0.692375 0
M  V30 3652 O 350.758 -5.52619 1.36385 0
M  V30 3653 N 351.96 -5.78201 -0.516178 0
M  V30 3654 H 354.725 -2.41642 1.77283 0
M  V30 3655 H 352.286 -1.21401 1.07115 0
M  V30 3656 H 354.278 -4.04359 -0.16603 0
M  V30 3657 H 352.848 -3.06972 -0.590487 0
M  V30 3658 H 352.068 -3.47451 1.86203 0
M  V30 3659 H 353.356 -4.68643 1.98119 0
M  V30 3660 H 352.754 -5.55301 -1.07969 0
M  V30 3661 H 351.311 -6.4604 -0.86458 0
M  V30 3662 N 354.744 -0.972509 -1.24016 0
M  V30 3663 C 355.707 -0.511403 -2.23422 0
M  V30 3664 C 356.707 0.394679 -1.55881 0
M  V30 3665 O 357.897 0.189469 -1.73167 0
M  V30 3666 C 355.029 0.258769 -3.39916 0
M  V30 3667 H 356.222 -1.39024 -2.6573 0
M  V30 3668 H 353.775 -0.757585 -1.36713 0
M  V30 3669 H 354.51 1.1545 -3.03054 0
M  V30 3670 H 354.295 -0.391522 -3.9014 0
M  V30 3671 H 355.785 0.570244 -4.13688 0
M  V30 3672 N 356.222 1.38976 -0.743202 0
M  V30 3673 C 357.468 2.0064 -0.295189 0
M  V30 3674 C 357.801 1.5885 1.11716 0
M  V30 3675 O 357.076 0.821181 1.76315 0
M  V30 3676 C 357.359 3.578 -0.406318 0
M  V30 3677 C 357.212 4.09586 -1.85903 0
M  V30 3678 C 358.531 4.39616 0.206439 0
M  V30 3679 H 355.65 0.728935 -0.108733 0
M  V30 3680 H 358.292 1.65067 -0.940897 0
M  V30 3681 H 356.442 3.88235 0.143419 0
M  V30 3682 H 358.114 3.89837 -2.46627 0
M  V30 3683 H 356.357 3.6284 -2.3776 0
M  V30 3684 H 357.028 5.18708 -1.888 0
M  V30 3685 H 359.504 4.15273 -0.262283 0
M  V30 3686 H 358.38 5.48812 0.0983819 0
M  V30 3687 H 358.641 4.22754 1.2935 0
M  V30 3688 N 357.7 0.491464 1.49741 0
M  V30 3689 C 358.94 -0.0549118 2.04326 0
M  V30 3690 C 359.304 -1.35148 1.36378 0
M  V30 3691 O 360.505 -1.9815 1.81631 0
M  V30 3692 C 358.776 -0.213841 3.5676 0
M  V30 3693 S 360.335 -0.715839 4.32922 0
M  V30 3694 H 357.153 -0.00630513 0.710972 0
M  V30 3695 H 359.755 0.663257 1.83905 0
M  V30 3696 H 358.459 0.73527 4.0376 0
M  V30 3697 H 357.99 -0.957529 3.81569 0
M  V30 3698 H 360.005 -1.9864 4.54705 0
M  V30 3699 N 359.178 -1.55987 0.224894 0
M  V30 3700 C 360.455 -1.90232 -0.455083 0
M  V30 3701 C 360.835 -1.14269 -1.77499 0
M  V30 3702 O 360.183 -0.253079 -2.27094 0
M  V30 3703 C 360.393 -3.42993 -0.644758 0
M  V30 3704 C 361.741 -4.13821 -0.950669 0
M  V30 3705 O 362.765 -3.4861 -0.731423 0
M  V30 3706 O 361.624 -5.29128 -1.36695 0
M  V30 3707 H 358.718 -0.79108 -0.241084 0
M  V30 3708 H 361.264 -1.67581 0.267327 0
M  V30 3709 H 360.036 -3.90252 0.28613 0
M  V30 3710 H 359.659 -3.71434 -1.41853 0
M  V30 3711 N 360.656 0.0484629 -1.57525 0
M  V30 3712 C 361.896 0.748196 -1.90214 0
M  V30 3713 C 362.26 1.73545 -0.821347 0
M  V30 3714 O 363.461 2.48201 -1.03198 0
M  V30 3715 C 361.732 1.41727 -3.28098 0
M  V30 3716 S 363.291 2.14884 -3.82584 0
M  V30 3717 H 360.109 0.248307 -0.666232 0
M  V30 3718 H 362.711 0.00343188 -1.955 0
M  V30 3719 H 361.415 0.685244 -4.04639 0
M  V30 3720 H 360.946 2.20099 -3.26068 0
M  V30 3721 H 362.961 3.41755 -3.59747 0
M  V30 3722 N 362.134 1.5431 0.320358 0
M  V30 3723 C 363.359 1.76954 1.08175 0
M  V30 3724 C 363.784 0.518193 1.80821 0
M  V30 3725 O 363.142 -0.530411 1.73368 0
M  V30 3726 C 363.19 2.96451 2.05303 0
M  V30 3727 O 362.294 2.68221 3.13259 0
M  V30 3728 H 361.635 0.586275 0.311733 0
M  V30 3729 H 364.165 2.01342 0.363676 0
M  V30 3730 H 364.175 3.23887 2.48116 0
M  V30 3731 H 362.85 3.87196 1.51829 0
M  V30 3732 H 361.427 2.51744 2.75099 0
M  V30 3733 N 363.613 -0.582584 1.46437 0
M  V30 3734 C 365.029 -0.905962 1.31394 0
M  V30 3735 C 365.229 -1.99468 0.285476 0
M  V30 3736 O 364.285 -2.50566 -0.311914 0
M  V30 3737 C 365.598 -1.3232 2.70022 0
M  V30 3738 C 367.146 -1.43604 2.78113 0
M  V30 3739 C 367.621 -1.88694 4.17323 0
M  V30 3740 N 369.112 -1.95887 4.19741 0
M  V30 3741 C 369.847 -2.32051 5.24347 0
M  V30 3742 N 369.343 -2.67006 6.39281 0
M  V30 3743 N 371.136 -2.32606 5.11713 0
M  V30 3744 H 363.287 0.1366 2.1196 0
M  V30 3745 H 365.55 -0.00155736 0.947999 0
M  V30 3746 H 365.256 -0.597242 3.46592 0
M  V30 3747 H 365.13 -2.28469 3.00136 0
M  V30 3748 H 367.517 -2.15286 2.01832 0
M  V30 3749 H 367.598 -0.457059 2.51684 0
M  V30 3750 H 367.242 -1.1759 4.941 0
M  V30 3751 H 367.172 -2.8755 4.4116 0
M  V30 3752 H 369.663 -1.71362 3.36814 0
M  V30 3753 H 369.976 -2.93554 7.14875 0
M  V30 3754 H 368.321 -2.64644 6.42642 0
M  V30 3755 H 371.512 -2.04721 4.2096 0
M  V30 3756 H 371.685 -2.60462 5.93349 0
M  V30 3757 N 365.091 -1.34144 -0.827227 0
M  V30 3758 C 366.319 -1.29325 -1.61501 0
M  V30 3759 C 366.734 0.13354 -1.88327 0
M  V30 3760 O 366.091 1.0793 -1.47164 0
M  V30 3761 C 366.142 -2.07746 -2.95844 0
M  V30 3762 O 365.863 -3.4486 -2.70191 0
M  V30 3763 C 367.364 -2.10273 -3.90256 0
M  V30 3764 H 364.584 -0.445069 -0.50215 0
M  V30 3765 H 367.128 -1.76693 -1.02955 0
M  V30 3766 H 365.283 -1.6403 -3.5096 0
M  V30 3767 H 365.697 -3.85345 -3.55822 0
M  V30 3768 H 367.171 -2.69575 -4.81698 0
M  V30 3769 H 367.648 -1.096 -4.25305 0
M  V30 3770 H 368.254 -2.54059 -3.41078 0
M  V30 3771 N 366.569 1.04691 -1.17803 0
M  V30 3772 C 367.817 1.7743 -0.967617 0
M  V30 3773 C 368.138 1.88359 0.504574 0
M  V30 3774 O 367.408 1.40402 1.36617 0
M  V30 3775 H 365.988 0.657242 -0.355024 0
M  V30 3776 H 368.65 1.2638 -1.48371 0
M  V30 3777 H 367.746 2.78924 -1.40027 0
M  V30 3778 N 368.047 0.979072 1.23499 0
M  V30 3779 C 369.294 0.647219 1.91878 0
M  V30 3780 C 369.622 -0.819074 1.76413 0
M  V30 3781 O 368.877 -1.60616 1.11808 0
M  V30 3782 C 369.176 0.981932 3.43646 0
M  V30 3783 C 368.842 2.43822 3.79291 0
M  V30 3784 C 367.504 2.83622 3.88731 0
M  V30 3785 C 369.856 3.3828 3.96505 0
M  V30 3786 C 367.184 4.16897 4.12812 0
M  V30 3787 C 369.536 4.71197 4.22085 0
M  V30 3788 C 368.2 5.10758 4.29747 0
M  V30 3789 H 367.47 0.236834 0.702133 0
M  V30 3790 H 370.117 1.23268 1.46551 0
M  V30 3791 H 368.422 0.314365 3.90537 0
M  V30 3792 H 370.119 0.703395 3.94783 0
M  V30 3793 H 366.709 2.11966 3.72516 0
M  V30 3794 H 370.893 3.0871 3.88603 0
M  V30 3795 H 366.149 4.47157 4.16966 0
M  V30 3796 H 370.323 5.44348 4.34348 0
M  V30 3797 H 367.95 6.1405 4.48159 0
M  V30 3798 N 369.525 -1.3858 0.750561 0
M  V30 3799 C 370.941 -1.53759 0.427824 0
M  V30 3800 C 371.141 -1.71401 -1.05943 0
M  V30 3801 O 370.197 -1.72331 -1.84549 0
M  V30 3802 C 371.51 -2.74642 1.22443 0
M  V30 3803 C 373.058 -2.88489 1.2142 0
M  V30 3804 C 373.533 -4.12329 1.9937 0
M  V30 3805 N 375.024 -4.194 1.96616 0
M  V30 3806 C 375.759 -5.14209 2.53727 0
M  V30 3807 N 375.255 -6.14709 3.19539 0
M  V30 3808 N 377.048 -5.06537 2.43673 0
M  V30 3809 H 369.199 -1.25377 1.71447 0
M  V30 3810 H 371.462 -0.608844 0.726645 0
M  V30 3811 H 371.168 -2.68 2.27747 0
M  V30 3812 H 371.042 -3.67745 0.839273 0
M  V30 3813 H 373.429 -2.94614 0.169232 0
M  V30 3814 H 373.51 -1.96406 1.63885 0
M  V30 3815 H 373.154 -4.06966 3.03877 0
M  V30 3816 H 373.084 -5.03486 1.54302 0
M  V30 3817 H 375.575 -3.47421 1.48684 0
M  V30 3818 H 375.888 -6.8354 3.60545 0
M  V30 3819 H 374.233 -6.1505 3.23633 0
M  V30 3820 H 377.424 -4.26962 1.91889 0
M  V30 3821 H 377.597 -5.80245 2.88479 0
M  V30 3822 N 371.003 -0.499398 -1.49478 0
M  V30 3823 C 372.251 0.0455996 -2.02049 0
M  V30 3824 C 372.572 1.37633 -1.38138 0
M  V30 3825 O 371.842 1.8842 -0.536166 0
M  V30 3826 H 370.422 0.0198416 -0.746736 0
M  V30 3827 H 373.084 -0.656274 -1.83519 0
M  V30 3828 H 372.18 0.176445 -3.11601 0
M  V30 3829 N 372.481 1.55866 -0.233164 0
M  V30 3830 C 373.428 2.20796 0.67215 0
M  V30 3831 C 374.398 1.16731 1.18166 0
M  V30 3832 O 375.583 1.45129 1.23864 0
M  V30 3833 C 372.723 2.90072 1.86955 0
M  V30 3834 C 371.836 4.08759 1.39786 0
M  V30 3835 C 370.971 4.65787 2.55374 0
M  V30 3836 C 370.01 5.76752 2.04998 0
M  V30 3837 N 369.147 6.28021 3.13901 0
M  V30 3838 H 373.987 2.9779 0.111749 0
M  V30 3839 H 371.524 1.47036 0.0434007 0
M  V30 3840 H 373.482 3.28428 2.57276 0
M  V30 3841 H 372.112 2.15575 2.40265 0
M  V30 3842 H 371.164 3.7581 0.589173 0
M  V30 3843 H 372.476 4.88906 0.98856 0
M  V30 3844 H 371.63 5.06646 3.33758 0
M  V30 3845 H 370.369 3.84828 2.99598 0
M  V30 3846 H 369.374 5.35383 1.25079 0
M  V30 3847 H 370.599 6.59553 1.61759 0
M  V30 3848 H 368.545 5.49971 3.57586 0
M  V30 3849 H 368.462 7.03323 2.7726 0
M  V30 3850 H 369.73 6.73538 3.92386 0
M  V30 3851 N 373.959 -0.0401083 1.57549 0
M  V30 3852 C 375.236 -0.767917 1.79896 0
M  V30 3853 C 375.616 -1.9416 0.82856 0
M  V30 3854 O 374.964 -2.2812 -0.131671 0
M  V30 3855 C 375.174 -1.2113 3.27305 0
M  V30 3856 C 376.522 -1.63175 3.91994 0
M  V30 3857 O 377.546 -1.30616 3.31388 0
M  V30 3858 O 376.405 -2.23565 4.98679 0
M  V30 3859 H 373.499 -0.370441 0.739393 0
M  V30 3860 H 376.045 -0.017737 1.69691 0
M  V30 3861 H 374.817 -0.372937 3.89519 0
M  V30 3862 H 374.44 -2.02183 3.42356 0
M  V30 3863 N 375.437 -1.54477 -0.31217 0
M  V30 3864 C 376.677 -1.74958 -1.05684 0
M  V30 3865 C 377.041 -0.518414 -1.84869 0
M  V30 3866 O 378.242 -0.600759 -2.62001 0
M  V30 3867 C 376.513 -2.99656 -1.94785 0
M  V30 3868 S 378.072 -3.4109 -2.76049 0
M  V30 3869 H 374.89 -0.615104 -0.356606 0
M  V30 3870 H 377.492 -1.92669 -0.331514 0
M  V30 3871 H 376.196 -3.87397 -1.35468 0
M  V30 3872 H 375.727 -2.845 -2.71704 0
M  V30 3873 H 377.742 -2.97283 -3.97287 0
M  V30 3874 N 376.915 0.57481 -1.46744 0
M  V30 3875 C 378.14 1.36341 -1.56288 0
M  V30 3876 C 378.565 1.86954 -0.207347 0
M  V30 3877 O 377.923 1.62006 0.813871 0
M  V30 3878 C 377.971 2.52147 -2.57787 0
M  V30 3879 O 377.075 3.53834 -2.11838 0
M  V30 3880 H 376.416 0.405713 -0.525636 0
M  V30 3881 H 378.946 0.696453 -1.92382 0
M  V30 3882 H 378.956 2.98958 -2.77648 0
M  V30 3883 H 377.631 2.14663 -3.5622 0
M  V30 3884 H 376.208 3.1345 -2.01999 0
M  V30 3885 N 378.394 1.34581 0.820102 0
M  V30 3886 C 379.326 1.22236 1.93884 0
M  V30 3887 C 380.339 0.148776 1.62119 0
M  V30 3888 O 381.528 0.400877 1.7394 0
M  V30 3889 C 378.628 0.856542 3.27897 0
M  V30 3890 C 377.801 2.02569 3.87666 0
M  V30 3891 C 376.86 1.63782 5.00062 0
M  V30 3892 O 375.886 2.35477 5.18208 0
M  V30 3893 N 377.088 0.553611 5.77854 0
M  V30 3894 H 379.853 2.18615 2.05006 0
M  V30 3895 H 377.414 1.27573 0.99683 0
M  V30 3896 H 379.406 0.578806 4.0054 0
M  V30 3897 H 377.976 -0.0171518 3.12595 0
M  V30 3898 H 377.196 2.468 3.07382 0
M  V30 3899 H 378.484 2.80752 4.24329 0
M  V30 3900 H 377.882 -0.0423528 5.65684 0
M  V30 3901 H 376.439 0.335614 6.50935 0
M  V30 3902 N 379.872 -1.04064 1.18357 0
M  V30 3903 C 380.782 -2.15569 0.925596 0
M  V30 3904 C 381.798 -1.7365 -0.110295 0
M  V30 3905 O 382.974 -2.01273 0.0716218 0
M  V30 3906 C 380.039 -3.43704 0.454836 0
M  V30 3907 C 379.1 -4.00004 1.55869 0
M  V30 3908 C 378.333 -5.22023 1.1103 0
M  V30 3909 O 378.556 -5.70392 -0.0309756 0
M  V30 3910 O 377.49 -5.70856 1.90805 0
M  V30 3911 H 381.316 -2.40187 1.8586 0
M  V30 3912 H 378.901 -1.1402 0.965394 0
M  V30 3913 H 380.783 -4.20923 0.200382 0
M  V30 3914 H 379.458 -3.20559 -0.449876 0
M  V30 3915 H 378.365 -3.24172 1.86716 0
M  V30 3916 H 379.698 -4.2749 2.43953 0
M  V30 3917 N 381.35 -0.985608 -1.22978 0
M  V30 3918 C 382.627 -0.573599 -1.87001 0
M  V30 3919 C 383.007 0.949213 -1.88555 0
M  V30 3920 O 382.355 1.82811 -1.37086 0
M  V30 3921 C 382.565 -1.18564 -3.28243 0
M  V30 3922 C 383.913 -1.28163 -4.04796 0
M  V30 3923 O 384.937 -1.13949 -3.37482 0
M  V30 3924 O 383.796 -1.50832 -5.25273 0
M  V30 3925 H 380.89 -0.193868 -0.803955 0
M  V30 3926 H 383.436 -1.08102 -1.30813 0
M  V30 3927 H 382.208 -2.22758 -3.21706 0
M  V30 3928 H 381.831 -0.663363 -3.92027 0
M  V30 3929 N 382.828 1.3818 -0.7579 0
M  V30 3930 C 383.776 2.32277 -0.122482 0
M  V30 3931 C 384.77 1.54238 0.700505 0
M  V30 3932 O 385.976 1.69737 0.599119 0
M  V30 3933 H 382.351 0.751712 -0.0208143 0
M  V30 3934 H 384.322 2.83469 -0.932099 0
M  V30 3935 C 383.071 3.39447 0.753076 0
M  V30 3936 H 382.394 3.99591 0.129184 0
M  V30 3937 H 383.834 4.07684 1.16489 0
M  V30 3938 C 382.293 2.78375 1.8976 0
M  V30 3939 O 382.823 2.68025 2.99208 0
M  V30 3940 N 381.029 2.36121 1.69397 0
M  V30 3941 H 380.576 2.4474 0.803762 0
M  V30 3942 H 380.534 1.95602 2.46145 0
M  V30 3943 N 384.306 0.507319 1.49211 0
M  V30 3944 C 385.254 -0.281364 2.30892 0
M  V30 3945 C 386.248 -0.95687 1.39787 0
M  V30 3946 O 387.454 -0.883838 1.56807 0
M  V30 3947 H 383.829 -0.109597 0.743971 0
M  V30 3948 H 385.8 0.42744 2.95323 0
M  V30 3949 C 384.549 -1.32918 3.21291 0
M  V30 3950 H 383.872 -0.818799 3.91326 0
M  V30 3951 H 385.312 -1.85288 3.81372 0
M  V30 3952 C 383.771 -2.35074 2.41333 0
M  V30 3953 O 384.301 -3.4108 2.12197 0
M  V30 3954 N 382.507 -2.07705 2.03241 0
M  V30 3955 H 382.054 -1.2152 2.27136 0
M  V30 3956 H 382.012 -2.76283 1.50051 0
M  V30 3957 N 385.784 -1.5574 0.241426 0
M  V30 3958 C 387.03 -1.99104 -0.385406 0
M  V30 3959 C 387.363 -1.1293 -1.57988 0
M  V30 3960 O 386.638 -0.191449 -1.93555 0
M  V30 3961 C 386.921 -3.51087 -0.800616 0
M  V30 3962 C 386.774 -4.48028 0.398874 0
M  V30 3963 C 388.093 -4.08015 -1.64959 0
M  V30 3964 H 385.212 -0.723848 -0.138614 0
M  V30 3965 H 387.854 -1.86903 0.341642 0
M  V30 3966 H 386.004 -3.61615 -1.4201 0
M  V30 3967 H 387.676 -4.49487 1.03726 0
M  V30 3968 H 385.919 -4.21077 1.04293 0
M  V30 3969 H 386.59 -5.51962 0.0651056 0
M  V30 3970 H 389.066 -4.00555 -1.12672 0
M  V30 3971 H 387.942 -5.14635 -1.90898 0
M  V30 3972 H 388.203 -3.56131 -2.61961 0
M  V30 3973 N 387.262 0.0317525 -1.57568 0
M  V30 3974 C 388.172 1.05021 -2.0978 0
M  V30 3975 C 389.188 1.39809 -1.03583 0
M  V30 3976 O 390.364 1.49182 -1.35302 0
M  V30 3977 C 387.429 2.33301 -2.56459 0
M  V30 3978 C 386.49 2.0512 -3.77127 0
M  V30 3979 C 385.723 3.27283 -4.2157 0
M  V30 3980 O 385.946 4.37861 -3.65559 0
M  V30 3981 O 384.88 3.13141 -5.14029 0
M  V30 3982 H 388.706 0.636505 -2.96955 0
M  V30 3983 H 386.291 0.248559 -1.47318 0
M  V30 3984 H 388.173 3.08722 -2.86825 0
M  V30 3985 H 386.848 2.73973 -1.72397 0
M  V30 3986 H 385.755 1.27276 -3.51784 0
M  V30 3987 H 387.088 1.69305 -4.62165 0
M  V30 3988 N 388.74 1.54641 0.303973 0
M  V30 3989 C 389.988 1.73437 1.0375 0
M  V30 3990 C 390.309 0.521449 1.87899 0
M  V30 3991 O 389.579 -0.46432 1.90318 0
M  V30 3992 H 388.159 0.639518 0.386039 0
M  V30 3993 H 390.821 1.91988 0.335675 0
M  V30 3994 H 389.917 2.62235 1.69231 0
M  V30 3995 N 390.218 -0.567019 1.47046 0
M  V30 3996 C 391.148 -1.68482 1.61667 0
M  V30 3997 C 392.129 -1.6358 0.466418 0
M  V30 3998 O 393.314 -1.81354 0.694574 0
M  V30 3999 C 390.444 -3.07124 1.62148 0
M  V30 4000 C 389.398 -3.26867 2.76301 0
M  V30 4001 C 388.724 -4.66196 2.61849 0
M  V30 4002 C 390.024 -3.13186 4.17986 0
M  V30 4003 H 391.718 -1.56502 2.5524 0
M  V30 4004 H 389.264 -0.751486 1.22836 0
M  V30 4005 H 391.217 -3.8516 1.70968 0
M  V30 4006 H 389.941 -3.2004 0.651287 0
M  V30 4007 H 388.6 -2.51237 2.66975 0
M  V30 4008 H 388.248 -4.75898 1.62879 0
M  V30 4009 H 387.948 -4.80356 3.38425 0
M  V30 4010 H 389.472 -5.46379 2.72584 0
M  V30 4011 H 390.886 -3.81049 4.2834 0
M  V30 4012 H 389.283 -3.3886 4.95272 0
M  V30 4013 H 390.353 -2.10057 4.3704 0
M  V30 4014 N 391.696 -1.35014 -0.812953 0
M  V30 4015 C 392.659 -1.27292 -1.90602 0
M  V30 4016 C 393.659 -0.185817 -1.59723 0
M  V30 4017 O 394.849 -0.439102 -1.68575 0
M  V30 4018 C 391.981 -0.967676 -3.26877 0
M  V30 4019 H 393.174 -2.24479 -1.9887 0
M  V30 4020 H 390.727 -1.19446 -1.00808 0
M  V30 4021 H 391.462 0.0005954 -3.243 0
M  V30 4022 H 391.247 -1.75412 -3.50675 0
M  V30 4023 H 392.737 -0.939085 -4.06904 0
M  V30 4024 N 393.175 1.03435 -1.18907 0
M  V30 4025 C 394.125 2.09924 -0.889706 0
M  V30 4026 C 395.109 1.60261 0.143216 0
M  V30 4027 O 396.301 1.76892 -0.0617122 0
M  V30 4028 C 393.43 3.40669 -0.424168 0
M  V30 4029 C 392.516 3.97082 -1.48952 0
M  V30 4030 N 392.907 4.27227 -2.70759 0
M  V30 4031 C 391.205 4.25029 -1.35152 0
M  V30 4032 C 391.906 4.7246 -3.39347 0
M  V30 4033 N 390.882 4.7366 -2.66735 0
M  V30 4034 H 394.684 2.31116 -1.81555 0
M  V30 4035 H 392.198 1.21246 -1.08042 0
M  V30 4036 H 394.195 4.16461 -0.191176 0
M  V30 4037 H 392.855 3.20901 0.495263 0
M  V30 4038 H 393.866 4.16678 -3.0757 0
M  V30 4039 H 390.543 4.14554 -0.495126 0
M  V30 4040 H 391.933 5.04751 -4.43481 0
M  V30 4041 N 394.653 0.992116 1.22453 0
M  V30 4042 C 395.583 0.561677 2.26644 0
M  V30 4043 C 396.564 -0.411055 1.65059 0
M  V30 4044 O 397.749 -0.301861 1.9184 0
M  V30 4045 C 394.879 -0.125247 3.47074 0
M  V30 4046 C 393.833 0.765948 4.21091 0
M  V30 4047 C 393.159 -0.0538484 5.34673 0
M  V30 4048 C 394.459 2.06242 4.79856 0
M  V30 4049 H 396.153 1.43259 2.62902 0
M  V30 4050 H 393.699 0.690283 1.26377 0
M  V30 4051 H 395.652 -0.437764 4.1912 0
M  V30 4052 H 394.376 -1.03069 3.0991 0
M  V30 4053 H 393.035 1.0621 3.50878 0
M  V30 4054 H 392.683 -0.960188 4.9375 0
M  V30 4055 H 392.383 0.539415 5.85119 0
M  V30 4056 H 393.907 -0.360477 6.09535 0
M  V30 4057 H 395.321 1.8139 5.43848 0
M  V30 4058 H 393.718 2.60444 5.40638 0
M  V30 4059 H 394.788 2.74167 3.99951 0
M  V30 4060 N 396.131 -1.37776 0.765217 0
M  V30 4061 C 397.064 -2.28008 0.0935025 0
M  V30 4062 C 398.042 -1.45985 -0.716047 0
M  V30 4063 O 399.226 -1.75331 -0.692203 0
M  V30 4064 C 396.353 -3.27228 -0.874052 0
M  V30 4065 C 395.399 -4.26239 -0.149307 0
M  V30 4066 S 396.232 -5.22827 1.15809 0
M  V30 4067 C 397.388 -6.256 0.193906 0
M  V30 4068 H 397.621 -2.84631 0.858637 0
M  V30 4069 H 395.154 -1.43952 0.558313 0
M  V30 4070 H 397.112 -3.84902 -1.42691 0
M  V30 4071 H 395.773 -2.69565 -1.61225 0
M  V30 4072 H 394.966 -4.96213 -0.88254 0
M  V30 4073 H 394.568 -3.7252 0.332366 0
M  V30 4074 H 396.86 -6.74508 -0.636011 0
M  V30 4075 H 397.803 -7.02838 0.861638 0
M  V30 4076 H 398.211 -5.64173 -0.191975 0
M  V30 4077 N 397.609 -0.515225 -1.4894 0
M  V30 4078 C 398.542 0.302518 -2.26186 0
M  V30 4079 C 399.52 0.957895 -1.31389 0
M  V30 4080 O 400.704 0.985198 -1.60705 0
M  V30 4081 C 397.831 1.42719 -3.07163 0
M  V30 4082 C 396.877 0.884736 -4.17223 0
M  V30 4083 S 397.71 -0.235767 -5.34981 0
M  V30 4084 C 398.866 0.891731 -6.19515 0
M  V30 4085 H 399.099 -0.353076 -2.95196 0
M  V30 4086 H 396.632 -0.300753 -1.51443 0
M  V30 4087 H 398.59 2.07152 -3.54398 0
M  V30 4088 H 397.251 2.05445 -2.37595 0
M  V30 4089 H 396.444 1.72801 -4.73451 0
M  V30 4090 H 396.046 0.317362 -3.72651 0
M  V30 4091 H 398.338 1.79377 -6.53322 0
M  V30 4092 H 399.281 0.367751 -7.07144 0
M  V30 4093 H 399.689 1.16548 -5.52338 0
M  V30 4094 N 399.087 1.5561 -0.249682 0
M  V30 4095 C 400.335 1.98618 0.373548 0
M  V30 4096 C 400.656 1.13919 1.58264 0
M  V30 4097 O 399.926 0.222637 1.94631 0
M  V30 4098 H 398.506 0.733571 0.141006 0
M  V30 4099 H 401.168 1.91748 -0.349117 0
M  V30 4100 H 400.264 3.04584 0.680796 0
M  V30 4101 N 400.565 -0.0233959 1.57583 0
M  V30 4102 C 401.842 -0.748794 1.807 0
M  V30 4103 C 402.222 -1.9327 0.849106 0
M  V30 4104 O 401.57 -2.28247 -0.107468 0
M  V30 4105 C 401.78 -1.17651 3.28571 0
M  V30 4106 C 403.128 -1.59008 3.93702 0
M  V30 4107 O 404.152 -1.27094 3.32755 0
M  V30 4108 O 403.011 -2.18264 5.01022 0
M  V30 4109 H 400.105 -0.362578 0.743281 0
M  V30 4110 H 402.651 0.000261958 1.697 0
M  V30 4111 H 401.423 -0.331603 3.89892 0
M  V30 4112 H 401.046 -1.98541 3.44481 0
M  V30 4113 N 402.043 -1.548 -0.295768 0
M  V30 4114 C 402.975 -1.82492 -1.3867 0
M  V30 4115 C 403.988 -0.708134 -1.46592 0
M  V30 4116 O 405.177 -0.985686 -1.48817 0
M  V30 4117 C 402.277 -1.95256 -2.76999 0
M  V30 4118 C 401.45 -3.25709 -2.91946 0
M  V30 4119 C 400.509 -3.28824 -4.10806 0
M  V30 4120 O 399.535 -4.02328 -4.02643 0
M  V30 4121 N 400.737 -2.5459 -5.21694 0
M  V30 4122 H 403.502 -2.76646 -1.15269 0
M  V30 4123 H 401.063 -1.54438 -0.485849 0
M  V30 4124 H 403.055 -1.94736 -3.54768 0
M  V30 4125 H 401.625 -1.08072 -2.93324 0
M  V30 4126 H 400.845 -3.38959 -2.01247 0
M  V30 4127 H 402.133 -4.11786 -2.98847 0
M  V30 4128 H 401.531 -1.94512 -5.31208 0
M  V30 4129 H 400.088 -2.59818 -5.97778 0
M  V30 4130 N 403.521 0.559213 -1.47345 0
M  V30 4131 C 404.769 1.31388 -1.53563 0
M  V30 4132 C 405.09 1.93985 -0.198678 0
M  V30 4133 O 404.36 1.79825 0.777167 0
M  V30 4134 H 402.94 0.487901 -0.565652 0
M  V30 4135 H 405.602 0.65315 -1.8363 0
M  V30 4136 H 404.698 2.10844 -2.30111 0
M  V30 4137 N 404.999 1.35443 0.805782 0
M  V30 4138 C 405.946 1.28431 1.91766 0
M  V30 4139 C 406.916 0.156102 1.65365 0
M  V30 4140 O 408.101 0.339936 1.87747 0
M  V30 4141 C 405.241 1.06301 3.2832 0
M  V30 4142 C 404.354 2.2805 3.66902 0
M  V30 4143 C 403.489 1.99064 4.92491 0
M  V30 4144 C 402.528 3.16863 5.23703 0
M  V30 4145 N 401.665 2.87647 6.40471 0
M  V30 4146 H 406.505 2.23511 1.97096 0
M  V30 4147 H 404.042 1.11105 0.964054 0
M  V30 4148 H 406 0.915012 4.07042 0
M  V30 4149 H 404.63 0.148822 3.22457 0
M  V30 4150 H 403.682 2.53711 2.83434 0
M  V30 4151 H 404.994 3.1601 3.85927 0
M  V30 4152 H 404.148 1.81099 5.7904 0
M  V30 4153 H 402.887 1.0839 4.75503 0
M  V30 4154 H 401.892 3.35404 4.35642 0
M  V30 4155 H 403.117 4.08339 5.4262 0
M  V30 4156 H 401.063 1.99568 6.24907 0
M  V30 4157 H 400.98 3.69141 6.59751 0
M  V30 4158 H 402.248 2.73226 7.30047 0
M  V30 4159 N 406.477 -1.02803 1.19454 0
M  V30 4160 C 407.702 -1.80378 1.02364 0
M  V30 4161 C 408.127 -1.83282 -0.423007 0
M  V30 4162 O 407.485 -1.25945 -1.30413 0
M  V30 4163 C 407.533 -3.23248 1.59821 0
M  V30 4164 O 406.637 -4.04 0.828105 0
M  V30 4165 H 405.978 -0.556799 0.361761 0
M  V30 4166 H 408.508 -1.29385 1.58495 0
M  V30 4167 H 408.518 -3.73994 1.63073 0
M  V30 4168 H 407.193 -3.2045 2.65113 0
M  V30 4169 H 405.77 -3.62635 0.86891 0
M  V30 4170 N 407.956 -0.998596 -1.21925 0
M  V30 4171 C 408.903 -0.553621 -2.24062 0
M  V30 4172 C 409.873 0.416999 -1.6078 0
M  V30 4173 O 411.058 0.320482 -1.88089 0
M  V30 4174 C 408.198 0.119959 -3.44891 0
M  V30 4175 C 407.311 -0.893077 -4.22668 0
M  V30 4176 C 406.446 -0.192424 -5.30851 0
M  V30 4177 C 405.485 -1.19344 -6.00353 0
M  V30 4178 N 404.622 -0.520707 -7.00166 0
M  V30 4179 H 409.462 -1.4293 -2.61486 0
M  V30 4180 H 406.999 -0.715838 -1.28507 0
M  V30 4181 H 408.957 0.527459 -4.13852 0
M  V30 4182 H 407.587 0.959389 -3.08214 0
M  V30 4183 H 406.639 -1.41886 -3.52948 0
M  V30 4184 H 407.951 -1.65512 -4.70539 0
M  V30 4185 H 407.105 0.271515 -6.06092 0
M  V30 4186 H 405.844 0.602075 -4.83969 0
M  V30 4187 H 404.849 -1.66795 -5.23889 0
M  V30 4188 H 406.074 -1.98891 -6.49322 0
M  V30 4189 H 404.02 0.254252 -6.55507 0
M  V30 4190 H 403.937 -1.2211 -7.46073 0
M  V30 4191 H 405.205 -0.0797596 -7.79459 0
M  V30 4192 N 409.434 1.37368 -0.772513 0
M  V30 4193 C 410.682 1.99279 -0.336516 0
M  V30 4194 C 411.003 1.6163 1.09091 0
M  V30 4195 O 410.273 0.882109 1.74916 0
M  V30 4196 H 408.853 0.737063 -0.121435 0
M  V30 4197 H 411.515 1.67836 -0.990809 0
M  V30 4198 H 410.611 3.09332 -0.414763 0
M  V30 4199 N 410.912 0.523116 1.48665 0
M  V30 4200 C 411.859 -0.243398 2.29513 0
M  V30 4201 C 412.829 -0.940139 1.36933 0
M  V30 4202 O 414.014 -0.942503 1.65896 0
M  V30 4203 C 411.154 -1.28855 3.20141 0
M  V30 4204 C 410.267 -0.60135 4.27794 0
M  V30 4205 C 409.402 -1.62884 5.05611 0
M  V30 4206 C 408.441 -0.924726 6.05075 0
M  V30 4207 N 407.578 -1.89744 6.75975 0
M  V30 4208 H 412.418 0.452234 2.94549 0
M  V30 4209 H 409.955 0.234858 1.45213 0
M  V30 4210 H 411.913 -1.90674 3.71079 0
M  V30 4211 H 410.543 -1.95266 2.57043 0
M  V30 4212 H 409.595 0.130623 3.80176 0
M  V30 4213 H 410.907 -0.0481585 4.98777 0
M  V30 4214 H 410.061 -2.32149 5.60528 0
M  V30 4215 H 408.8 -2.21592 4.34452 0
M  V30 4216 H 407.805 -0.217966 5.49368 0
M  V30 4217 H 409.03 -0.343851 6.78229 0
M  V30 4218 H 406.976 -2.47373 6.07571 0
M  V30 4219 H 406.893 -1.3955 7.43009 0
M  V30 4220 H 408.161 -2.58229 7.35485 0
M  V30 4221 N 412.39 -1.55475 0.257931 0
M  V30 4222 C 413.3 -2.2549 -0.647425 0
M  V30 4223 C 414.316 -1.2748 -1.18427 0
M  V30 4224 O 415.492 -1.6038 -1.2182 0
M  V30 4225 C 412.557 -2.94916 -1.82278 0
M  V30 4226 C 411.618 -4.08363 -1.32432 0
M  V30 4227 C 410.851 -4.74469 -2.44366 0
M  V30 4228 O 411.074 -4.39701 -3.63344 0
M  V30 4229 O 410.008 -5.62763 -2.13497 0
M  V30 4230 H 413.834 -3.03593 -0.0807707 0
M  V30 4231 H 411.419 -1.49377 0.0259962 0
M  V30 4232 H 413.301 -3.38606 -2.50846 0
M  V30 4233 H 411.976 -2.19744 -2.37685 0
M  V30 4234 H 410.883 -3.69166 -0.605605 0
M  V30 4235 H 412.216 -4.85385 -0.816211 0
M  V30 4236 N 413.868 0.0150385 -1.57593 0
M  V30 4237 C 414.778 1.02791 -2.10882 0
M  V30 4238 C 415.794 1.38702 -1.0506 0
M  V30 4239 O 416.97 1.47739 -1.36877 0
M  V30 4240 C 414.035 2.30568 -2.58919 0
M  V30 4241 C 413.096 2.01108 -3.79281 0
M  V30 4242 C 412.329 3.22794 -4.25018 0
M  V30 4243 O 412.552 4.33959 -3.70183 0
M  V30 4244 O 411.486 3.07672 -5.17322 0
M  V30 4245 H 415.312 0.604973 -2.97613 0
M  V30 4246 H 412.897 0.23292 -1.47573 0
M  V30 4247 H 414.779 3.05662 -2.90084 0
M  V30 4248 H 413.454 2.72129 -1.75293 0
M  V30 4249 H 412.361 1.23537 -3.53114 0
M  V30 4250 H 413.694 1.64394 -4.63935 0
M  V30 4251 N 415.346 1.54954 0.287554 0
M  V30 4252 C 416.576 1.78622 1.03816 0
M  V30 4253 C 416.984 0.552451 1.80955 0
M  V30 4254 O 416.327 -0.487665 1.77109 0
M  V30 4255 C 416.389 2.94975 2.055 0
M  V30 4256 C 416.053 4.32565 1.47433 0
M  V30 4257 C 417.05 5.12096 0.897436 0
M  V30 4258 C 414.735 4.79195 1.50591 0
M  V30 4259 C 416.729 6.36383 0.359851 0
M  V30 4260 C 414.416 6.03441 0.964459 0
M  V30 4261 C 415.414 6.81872 0.392413 0
M  V30 4262 O 415.102 8.03777 -0.140788 0
M  V30 4263 H 414.834 0.599144 0.313053 0
M  V30 4264 H 417.388 2.02761 0.328225 0
M  V30 4265 H 415.618 2.66493 2.80211 0
M  V30 4266 H 417.307 3.06097 2.6657 0
M  V30 4267 H 418.073 4.77209 0.865841 0
M  V30 4268 H 413.952 4.18167 1.94055 0
M  V30 4269 H 417.496 6.97545 -0.0872951 0
M  V30 4270 H 413.393 6.37813 0.993246 0
M  V30 4271 H 414.161 8.18495 -0.0287617 0
M  V30 4272 N 416.824 -0.551391 1.4764 0
M  V30 4273 C 418.073 -1.30467 1.53822 0
M  V30 4274 C 418.386 -1.94495 0.207661 0
M  V30 4275 O 419.592 -2.71099 0.147533 0
M  V30 4276 C 418.048 -2.36616 2.71184 0
M  V30 4277 C 417.656 -1.78754 4.10793 0
M  V30 4278 C 419.4 -3.13088 2.86663 0
M  V30 4279 C 417.307 -2.82717 5.19447 0
M  V30 4280 H 416.237 -0.490584 0.572576 0
M  V30 4281 H 418.888 -0.58494 1.73927 0
M  V30 4282 H 417.27 -3.11529 2.4447 0
M  V30 4283 H 418.444 -1.10173 4.47435 0
M  V30 4284 H 416.759 -1.14846 4.00249 0
M  V30 4285 H 419.356 -3.90736 3.65007 0
M  V30 4286 H 419.699 -3.67635 1.95321 0
M  V30 4287 H 420.232 -2.45288 3.13175 0
M  V30 4288 H 416.971 -2.33018 6.12685 0
M  V30 4289 H 416.491 -3.4969 4.87316 0
M  V30 4290 H 418.17 -3.46102 5.46646 0
M  V30 4291 N 418.302 -1.35869 -0.798587 0
M  V30 4292 C 419.265 -1.29307 -1.89242 0
M  V30 4293 C 420.265 -0.202747 -1.59517 0
M  V30 4294 O 421.455 -0.456957 -1.681 0
M  V30 4295 C 418.587 -1.00229 -3.25833 0
M  V30 4296 H 419.78 -2.26576 -1.96478 0
M  V30 4297 H 417.333 -1.20509 -0.995358 0
M  V30 4298 H 418.068 -0.033801 -3.24282 0
M  V30 4299 H 417.853 -1.79121 -3.48795 0
M  V30 4300 H 419.343 -0.98219 -4.05885 0
M  V30 4301 N 419.78 1.02168 -1.19998 0
M  V30 4302 C 421.008 1.79296 -1.03249 0
M  V30 4303 C 421.423 1.84103 0.418502 0
M  V30 4304 O 420.78 1.29031 1.29063 0
M  V30 4305 C 420.831 3.24007 -1.60319 0
M  V30 4306 O 420.552 3.19512 -2.99739 0
M  V30 4307 C 422.053 4.17704 -1.48453 0
M  V30 4308 H 419.273 0.564016 -0.363493 0
M  V30 4309 H 421.817 1.28639 -1.58973 0
M  V30 4310 H 419.972 3.7183 -1.08727 0
M  V30 4311 H 420.386 4.10306 -3.26725 0
M  V30 4312 H 421.86 5.17104 -1.93153 0
M  V30 4313 H 422.337 4.37029 -0.436193 0
M  V30 4314 H 422.943 3.7576 -1.99211 0
M  V30 4315 N 421.258 1.00505 1.21394 0
M  V30 4316 C 422.505 0.687774 1.90462 0
M  V30 4317 C 422.833 -0.78147 1.7811 0
M  V30 4318 O 422.088 -1.58208 1.1519 0
M  V30 4319 C 422.387 1.0546 3.41486 0
M  V30 4320 C 422.053 2.51812 3.74034 0
M  V30 4321 C 420.715 2.91804 3.82628 0
M  V30 4322 C 423.067 3.46614 3.8924 0
M  V30 4323 C 420.395 4.2556 4.03876 0
M  V30 4324 C 422.747 4.80044 4.11995 0
M  V30 4325 C 421.411 5.19759 4.18816 0
M  V30 4326 H 420.681 0.251674 0.696951 0
M  V30 4327 H 423.328 1.26349 1.43903 0
M  V30 4328 H 421.633 0.397133 3.89782 0
M  V30 4329 H 423.33 0.786976 3.93202 0
M  V30 4330 H 419.92 2.1982 3.67936 0
M  V30 4331 H 424.104 3.16883 3.81967 0
M  V30 4332 H 419.36 4.55901 4.07387 0
M  V30 4333 H 423.534 5.53439 4.22704 0
M  V30 4334 H 421.161 6.23418 4.35033 0
M  V30 4335 N 422.737 -1.36956 0.779787 0
M  V30 4336 C 423.684 -2.30175 0.169697 0
M  V30 4337 C 424.654 -1.51501 -0.68094 0
M  V30 4338 O 425.839 -1.80042 -0.631629 0
M  V30 4339 C 422.979 -3.37985 -0.697131 0
M  V30 4340 C 422.092 -4.31661 0.170992 0
M  V30 4341 C 421.227 -5.2655 -0.701298 0
M  V30 4342 C 420.266 -6.11867 0.168869 0
M  V30 4343 N 419.403 -6.98973 -0.661855 0
M  V30 4344 H 424.243 -2.81767 0.970135 0
M  V30 4345 H 421.78 -1.38699 0.489994 0
M  V30 4346 H 423.738 -3.99128 -1.2146 0
M  V30 4347 H 422.368 -2.87739 -1.46309 0
M  V30 4348 H 421.42 -3.71756 0.80634 0
M  V30 4349 H 422.732 -4.91644 0.841875 0
M  V30 4350 H 421.886 -5.92937 -1.28494 0
M  V30 4351 H 420.625 -4.66998 -1.40584 0
M  V30 4352 H 419.63 -5.44452 0.764986 0
M  V30 4353 H 420.855 -6.73493 0.870863 0
M  V30 4354 H 418.801 -6.41941 -1.35086 0
M  V30 4355 H 418.718 -7.55984 -0.0484447 0
M  V30 4356 H 419.986 -7.6974 -1.22963 0
M  V30 4357 N 424.215 -0.530993 -1.48385 0
M  V30 4358 C 425.463 0.00273189 -2.021 0
M  V30 4359 C 425.784 1.34672 -1.41027 0
M  V30 4360 O 425.054 1.8724 -0.576012 0
M  V30 4361 H 423.634 0.00399774 -0.746989 0
M  V30 4362 H 426.296 -0.695054 -1.82085 0
M  V30 4363 H 425.392 0.11031 -3.11905 0
M  V30 4364 N 425.693 1.55336 -0.266172 0
M  V30 4365 C 426.918 2.04258 0.359661 0
M  V30 4366 C 427.343 1.14359 1.49344 0
M  V30 4367 O 426.701 0.140369 1.80756 0
M  V30 4368 C 426.749 3.50997 0.826635 0
M  V30 4369 O 425.853 3.64204 1.93466 0
M  V30 4370 H 425.194 0.659668 0.075727 0
M  V30 4371 H 427.724 2.00694 -0.39786 0
M  V30 4372 H 427.734 3.9219 1.12477 0
M  V30 4373 H 426.409 4.159 -0.00293032 0
M  V30 4374 H 424.986 3.34913 1.63974 0
M  V30 4375 N 427.171 -0.0066808 1.57599 0
M  V30 4376 C 428.081 -1.01671 2.11424 0
M  V30 4377 C 429.097 -1.38143 1.05795 0
M  V30 4378 O 430.273 -1.47011 1.37658 0
M  V30 4379 C 427.338 -2.29192 2.60139 0
M  V30 4380 C 426.399 -1.99094 3.80342 0
M  V30 4381 C 425.632 -3.20535 4.26724 0
M  V30 4382 O 425.855 -4.3199 3.72479 0
M  V30 4383 O 424.789 -3.04924 5.18946 0
M  V30 4384 H 428.615 -0.589181 2.9793 0
M  V30 4385 H 426.2 -0.225091 1.47695 0
M  V30 4386 H 428.082 -3.0412 2.917 0
M  V30 4387 H 426.757 -2.71195 1.76733 0
M  V30 4388 H 425.664 -1.21663 3.53764 0
M  V30 4389 H 426.997 -1.61931 4.648 0
M  V30 4390 N 428.649 -1.55105 -0.279332 0
M  V30 4391 C 429.879 -1.7917 -1.02867 0
M  V30 4392 C 430.287 -0.56204 -1.80659 0
M  V30 4393 O 429.63 0.478266 -1.77365 0
M  V30 4394 C 429.692 -2.96061 -2.03932 0
M  V30 4395 C 429.356 -4.33341 -1.45137 0
M  V30 4396 C 430.353 -5.12565 -0.870266 0
M  V30 4397 C 428.038 -4.79987 -1.48048 0
M  V30 4398 C 430.032 -6.36565 -0.326097 0
M  V30 4399 C 427.719 -6.03944 -0.932443 0
M  V30 4400 C 428.717 -6.8207 -0.356247 0
M  V30 4401 O 428.405 -8.03691 0.183412 0
M  V30 4402 H 428.137 -0.600796 -0.309872 0
M  V30 4403 H 430.691 -2.02932 -0.317468 0
M  V30 4404 H 428.921 -2.67975 -2.78794 0
M  V30 4405 H 430.61 -3.07506 -2.64943 0
M  V30 4406 H 431.376 -4.77661 -0.840521 0
M  V30 4407 H 427.255 -4.1919 -1.91835 0
M  V30 4408 H 430.799 -6.97489 0.124286 0
M  V30 4409 H 426.696 -6.3833 -0.959407 0
M  V30 4410 H 427.464 -8.18468 0.0721681 0
M  V30 4411 N 430.127 0.543554 -1.4793 0
M  V30 4412 C 431.374 1.30008 -1.55255 0
M  V30 4413 C 431.702 1.93245 -0.220612 0
M  V30 4414 O 430.957 1.79141 0.787843 0
M  V30 4415 C 431.256 2.42078 -2.62932 0
M  V30 4416 C 430.922 1.96583 -4.0579 0
M  V30 4417 C 429.584 1.83893 -4.44676 0
M  V30 4418 C 431.936 1.62034 -4.95373 0
M  V30 4419 C 429.264 1.34969 -5.70964 0
M  V30 4420 C 431.616 1.14577 -6.22137 0
M  V30 4421 C 430.28 1.00493 -6.59892 0
M  V30 4422 H 429.55 0.475735 -0.568117 0
M  V30 4423 H 432.197 0.608075 -1.81589 0
M  V30 4424 H 430.502 3.16892 -2.30406 0
M  V30 4425 H 432.199 3.00236 -2.65818 0
M  V30 4426 H 428.789 2.07407 -3.75074 0
M  V30 4427 H 432.973 1.70705 -4.66019 0
M  V30 4428 H 428.229 1.2274 -5.98953 0
M  V30 4429 H 432.403 0.869109 -6.90955 0
M  V30 4430 H 430.03 0.623624 -7.57638 0
M  V30 4431 N 431.605 1.3629 0.791371 0
M  V30 4432 C 432.845 1.31792 1.56238 0
M  V30 4433 C 433.209 -0.102237 1.91728 0
M  V30 4434 O 434.41 -0.271759 2.67423 0
M  V30 4435 C 432.681 2.21303 2.80642 0
M  V30 4436 S 434.24 2.34468 3.70904 0
M  V30 4437 H 431.058 0.468141 0.535131 0
M  V30 4438 H 433.66 1.71841 0.932246 0
M  V30 4439 H 432.364 3.23439 2.52617 0
M  V30 4440 H 431.895 1.82266 3.4863 0
M  V30 4441 H 433.91 1.54074 4.71673 0
M  V30 4442 N 433.083 -1.0153 1.20538 0
M  V30 4443 C 434.313 -1.78487 1.04048 0
M  V30 4444 C 434.721 -1.84631 -0.413292 0
M  V30 4445 O 434.064 -1.29919 -1.29872 0
M  V30 4446 C 434.126 -3.24367 1.55003 0
M  V30 4447 C 433.79 -3.41827 3.0332 0
M  V30 4448 C 434.787 -3.30941 4.00966 0
M  V30 4449 C 432.472 -3.67602 3.42307 0
M  V30 4450 C 434.466 -3.45577 5.35589 0
M  V30 4451 C 432.153 -3.81881 4.77085 0
M  V30 4452 C 433.151 -3.70874 5.73534 0
M  V30 4453 O 432.839 -3.84714 7.05868 0
M  V30 4454 H 432.571 -0.568108 0.366373 0
M  V30 4455 H 435.125 -1.28677 1.60098 0
M  V30 4456 H 433.355 -3.75266 0.933397 0
M  V30 4457 H 435.044 -3.82963 1.34514 0
M  V30 4458 H 435.81 -3.10964 3.72191 0
M  V30 4459 H 431.689 -3.75256 2.67776 0
M  V30 4460 H 435.233 -3.36902 6.10854 0
M  V30 4461 H 431.13 -4.01359 5.0555 0
M  V30 4462 H 431.898 -4.01724 7.13134 0
M  V30 4463 N 434.561 -1.01147 -1.20859 0
M  V30 4464 C 435.838 -0.613136 -1.85742 0
M  V30 4465 C 436.218 0.909004 -1.90526 0
M  V30 4466 O 435.566 1.79862 -1.40932 0
M  V30 4467 C 435.776 -1.255 -3.25654 0
M  V30 4468 C 437.124 -1.3672 -4.01986 0
M  V30 4469 O 438.148 -1.21082 -3.34989 0
M  V30 4470 O 437.007 -1.6194 -5.21956 0
M  V30 4471 H 434.101 -0.210878 -0.799662 0
M  V30 4472 H 436.647 -1.10853 -1.2849 0
M  V30 4473 H 435.419 -2.29532 -3.16908 0
M  V30 4474 H 435.042 -0.746369 -3.90532 0
M  V30 4475 N 436.039 1.36541 -0.78704 0
M  V30 4476 C 436.969 2.32659 -0.197992 0
M  V30 4477 C 437.95 1.56533 0.665697 0
M  V30 4478 O 439.135 1.84698 0.60001 0
M  V30 4479 C 436.265 3.40778 0.669901 0
M  V30 4480 C 435.219 4.27897 -0.0937039 0
M  V30 4481 C 434.545 5.27163 0.894629 0
M  V30 4482 C 435.845 5.06334 -1.28154 0
M  V30 4483 H 437.539 2.82171 -1.00099 0
M  V30 4484 H 435.085 1.35665 -0.482793 0
M  V30 4485 H 437.038 4.07008 1.09191 0
M  V30 4486 H 435.762 2.89827 1.50558 0
M  V30 4487 H 434.421 3.6322 -0.49666 0
M  V30 4488 H 434.069 4.72486 1.72527 0
M  V30 4489 H 433.769 5.86317 0.388149 0
M  V30 4490 H 435.293 5.96266 1.31525 0
M  V30 4491 H 436.707 5.65617 -0.93541 0
M  V30 4492 H 435.104 5.74888 -1.72115 0
M  V30 4493 H 436.174 4.38114 -2.07807 0
M  V30 4494 N 437.518 0.538854 1.48102 0
M  V30 4495 C 438.743 0.0102694 2.07397 0
M  V30 4496 C 439.168 -1.26562 1.39153 0
M  V30 4497 O 438.526 -1.75357 0.460387 0
M  V30 4498 C 438.574 -0.187602 3.60112 0
M  V30 4499 O 437.678 -1.25432 3.92862 0
M  V30 4500 H 437.019 0.0430975 0.6626 0
M  V30 4501 H 439.549 0.749301 1.90385 0
M  V30 4502 H 439.559 -0.407517 4.0596 0
M  V30 4503 H 438.234 0.744386 4.09184 0
M  V30 4504 H 436.811 -1.01636 3.58782 0
M  V30 4505 N 438.996 -1.55193 0.274407 0
M  V30 4506 C 439.928 -2.1989 -0.646595 0
M  V30 4507 C 440.941 -1.1834 -1.11801 0
M  V30 4508 O 442.13 -1.4507 -1.04004 0
M  V30 4509 C 439.23 -2.8104 -1.89393 0
M  V30 4510 C 438.403 -4.08274 -1.56943 0
M  V30 4511 C 437.462 -4.53478 -2.66916 0
M  V30 4512 O 436.488 -5.19267 -2.33132 0
M  V30 4513 N 437.69 -4.2356 -3.9696 0
M  V30 4514 H 440.455 -2.99556 -0.0928686 0
M  V30 4515 H 438.016 -1.61618 0.0954783 0
M  V30 4516 H 440.008 -3.08226 -2.62257 0
M  V30 4517 H 438.578 -2.05372 -2.35672 0
M  V30 4518 H 437.798 -3.88384 -0.674655 0
M  V30 4519 H 439.086 -4.91173 -1.32764 0
M  V30 4520 H 438.484 -3.70799 -4.27229 0
M  V30 4521 H 437.041 -4.55518 -4.66205 0
M  V30 4522 N 440.474 -0.00167713 -1.576 0
M  V30 4523 C 441.422 1.0074 -2.09652 0
M  V30 4524 C 442.416 1.35483 -1.01689 0
M  V30 4525 O 443.622 1.34028 -1.20152 0
M  V30 4526 H 439.997 0.342537 -0.669457 0
M  V30 4527 H 441.968 0.542841 -2.93421 0
M  V30 4528 C 440.717 2.2899 -2.61647 0
M  V30 4529 H 440.04 2.03124 -3.44355 0
M  V30 4530 H 441.48 2.9787 -3.01744 0
M  V30 4531 C 439.939 3.00085 -1.53136 0
M  V30 4532 O 440.469 3.91135 -0.91524 0
M  V30 4533 N 438.675 2.6194 -1.25841 0
M  V30 4534 H 438.222 1.8798 -1.76129 0
M  V30 4535 H 438.18 3.09822 -0.534576 0
M  V30 4536 N 441.952 1.55251 0.271103 0
M  V30 4537 C 443.363 1.66635 0.842007 0
M  V30 4538 C 443.714 0.594631 1.86972 0
M  V30 4539 O 442.839 -0.263532 2.14789 0
M  V30 4540 C 443.434 3.02082 1.53401 0
M  V30 4541 C 441.993 3.15487 2.05293 0
M  V30 4542 C 441.14 2.62438 0.895631 0
M  V30 4543 H 444.091 1.58629 0.0474117 0
M  V30 4544 H 444.112 2.95176 2.40107 0
M  V30 4545 H 443.624 3.80062 0.785786 0
M  V30 4546 H 441.725 2.42284 2.83071 0
M  V30 4547 H 441.838 4.22075 2.26693 0
M  V30 4548 H 440.202 2.19644 1.28953 0
M  V30 4549 H 440.985 3.42923 0.160878 0
M  V30 4550 N 443.43 -0.535701 1.48216 0
M  V30 4551 C 444.679 -1.28828 1.55197 0
M  V30 4552 C 444.992 -1.94263 0.228278 0
M  V30 4553 O 446.198 -2.70927 0.176278 0
M  V30 4554 C 444.654 -2.33727 2.73678 0
M  V30 4555 C 444.262 -1.74386 4.12666 0
M  V30 4556 C 446.006 -3.1003 2.89968 0
M  V30 4557 C 443.913 -2.77192 5.22416 0
M  V30 4558 H 442.843 -0.484484 0.577747 0
M  V30 4559 H 445.494 -0.56646 1.74538 0
M  V30 4560 H 443.876 -3.08919 2.4776 0
M  V30 4561 H 445.05 -1.05421 4.48579 0
M  V30 4562 H 443.365 -1.10595 4.01445 0
M  V30 4563 H 445.962 -3.86842 3.6913 0
M  V30 4564 H 446.305 -3.65542 1.9921 0
M  V30 4565 H 446.838 -2.41952 3.15759 0
M  V30 4566 H 443.577 -2.26507 6.15122 0
M  V30 4567 H 443.097 -3.44502 4.90998 0
M  V30 4568 H 444.776 -3.40285 5.50286 0
M  V30 4569 N 444.908 -1.36708 -0.784132 0
M  V30 4570 C 445.84 -1.27333 -1.90575 0
M  V30 4571 C 446.853 -0.191706 -1.61667 0
M  V30 4572 O 448.042 -0.446854 -1.72816 0
M  V30 4573 C 445.142 -0.943177 -3.25511 0
M  V30 4574 C 444.315 -2.12776 -3.82158 0
M  V30 4575 C 443.374 -1.76983 -4.95544 0
M  V30 4576 O 442.4 -2.49134 -5.11782 0
M  V30 4577 N 443.602 -0.706624 -5.76183 0
M  V30 4578 H 446.367 -2.23974 -1.99138 0
M  V30 4579 H 443.928 -1.30171 -0.962656 0
M  V30 4580 H 445.92 -0.684799 -3.98864 0
M  V30 4581 H 444.49 -0.0657333 -3.12531 0
M  V30 4582 H 443.71 -2.54863 -3.0073 0
M  V30 4583 H 444.998 -2.91904 -4.16737 0
M  V30 4584 H 444.396 -0.107643 -5.65598 0
M  V30 4585 H 442.953 -0.50808 -6.49817 0
M  V30 4586 N 446.386 1.0089 -1.21074 0
M  V30 4587 C 447.611 1.78727 -1.05221 0
M  V30 4588 C 448.036 1.83932 0.393795 0
M  V30 4589 O 447.394 1.28004 1.28393 0
M  V30 4590 C 447.442 3.20665 -1.64944 0
M  V30 4591 O 446.546 4.02632 -0.892273 0
M  V30 4592 H 445.887 0.550973 -0.370574 0
M  V30 4593 H 448.417 1.26847 -1.60534 0
M  V30 4594 H 448.427 3.71352 -1.69002 0
M  V30 4595 H 447.102 3.16191 -2.70177 0
M  V30 4596 H 445.679 3.61207 -0.926492 0
M  V30 4597 N 447.864 1.01787 1.20321 0
M  V30 4598 C 449.089 0.727009 1.9424 0
M  V30 4599 C 449.514 -0.706179 1.74341 0
M  V30 4600 O 448.872 -1.48609 1.03852 0
M  V30 4601 C 448.92 1.06958 3.44372 0
M  V30 4602 O 448.024 0.181983 4.11998 0
M  V30 4603 H 447.365 0.269626 0.606793 0
M  V30 4604 H 449.895 1.36158 1.52716 0
M  V30 4605 H 449.905 1.02182 3.94997 0
M  V30 4606 H 448.58 2.11378 3.58179 0
M  V30 4607 H 447.157 0.287378 3.71791 0
M  V30 4608 N 449.342 -1.36122 0.79427 0
M  V30 4609 C 450.567 -2.03891 0.379871 0
M  V30 4610 C 450.992 -1.59488 -0.997251 0
M  V30 4611 O 450.35 -0.765652 -1.64339 0
M  V30 4612 C 450.398 -3.57687 0.457442 0
M  V30 4613 O 449.502 -4.08931 -0.5338 0
M  V30 4614 H 448.843 -0.6443 0.160541 0
M  V30 4615 H 451.373 -1.73976 1.07673 0
M  V30 4616 H 451.383 -4.06721 0.322792 0
M  V30 4617 H 450.058 -3.89357 1.46199 0
M  V30 4618 H 448.635 -3.71154 -0.360409 0
M  V30 4619 N 450.82 -0.546701 -1.47814 0
M  V30 4620 C 452.097 0.0464413 -1.95545 0
M  V30 4621 C 452.477 1.4962 -1.48919 0
M  V30 4622 O 451.825 2.16752 -0.723232 0
M  V30 4623 C 452.035 -0.0881298 -3.48889 0
M  V30 4624 C 453.383 0.0626059 -4.24554 0
M  V30 4625 O 454.407 -0.0151555 -3.56197 0
M  V30 4626 O 453.266 0.228071 -5.46024 0
M  V30 4627 H 450.36 0.0700004 -0.824032 0
M  V30 4628 H 452.906 -0.612482 -1.58262 0
M  V30 4629 H 451.678 -1.09737 -3.75597 0
M  V30 4630 H 451.301 0.608886 -3.9291 0
M  V30 4631 N 452.299 1.55045 -0.282633 0
M  V30 4632 C 453.209 2.26491 0.61147 0
M  V30 4633 C 454.225 1.29348 1.16384 0
M  V30 4634 O 455.401 1.62298 1.19253 0
M  V30 4635 C 452.466 2.97779 1.77563 0
M  V30 4636 C 451.527 4.10418 1.25919 0
M  V30 4637 C 450.76 4.78297 2.36786 0
M  V30 4638 O 450.983 4.45426 3.56303 0
M  V30 4639 O 449.917 5.66089 2.04517 0
M  V30 4640 H 453.743 3.03683 0.0324615 0
M  V30 4641 H 451.328 1.49317 -0.0497576 0
M  V30 4642 H 453.21 3.42554 2.45427 0
M  V30 4643 H 451.885 2.23498 2.34159 0
M  V30 4644 H 450.792 3.70082 0.546797 0
M  V30 4645 H 452.125 4.86622 0.738887 0
M  V30 4646 N 453.777 0.010035 1.57597 0
M  V30 4647 C 455.026 -0.671945 1.90178 0
M  V30 4648 C 455.339 -1.74376 0.886131 0
M  V30 4649 O 456.545 -2.48107 1.10252 0
M  V30 4650 C 455.001 -1.24636 3.3763 0
M  V30 4651 C 454.609 -0.208838 4.47513 0
M  V30 4652 C 456.353 -1.90595 3.79307 0
M  V30 4653 C 454.26 -0.793814 5.86048 0
M  V30 4654 H 453.19 -0.25474 0.709665 0
M  V30 4655 H 455.841 0.0722206 1.83358 0
M  V30 4656 H 454.223 -2.04152 3.3932 0
M  V30 4657 H 455.397 0.562463 4.57354 0
M  V30 4658 H 453.712 0.350889 4.14919 0
M  V30 4659 H 456.309 -2.35284 4.80151 0
M  V30 4660 H 456.652 -2.74074 3.13352 0
M  V30 4661 H 457.185 -1.17798 3.79958 0
M  V30 4662 H 453.924 0.00240855 6.555 0
M  V30 4663 H 453.444 -1.53404 5.79851 0
M  V30 4664 H 455.123 -1.2894 6.34022 0
M  V30 4665 N 455.255 -1.55392 -0.262866 0
M  V30 4666 C 456.483 -1.80513 -1.01108 0
M  V30 4667 C 456.898 -0.583533 -1.79556 0
M  V30 4668 O 456.255 0.447585 -1.76926 0
M  V30 4669 C 456.306 -3.03648 -1.96164 0
M  V30 4670 O 456.027 -4.2109 -1.20893 0
M  V30 4671 C 457.528 -3.41448 -2.82715 0
M  V30 4672 H 454.748 -0.601079 -0.298236 0
M  V30 4673 H 457.292 -2.02425 -0.290582 0
M  V30 4674 H 455.447 -2.83832 -2.63663 0
M  V30 4675 H 455.861 -4.90771 -1.85051 0
M  V30 4676 H 457.335 -4.30751 -3.45192 0
M  V30 4677 H 457.812 -2.61308 -3.53008 0
M  V30 4678 H 458.418 -3.63559 -2.20693 0
M  V30 4679 N 456.733 0.527833 -1.48498 0
M  V30 4680 C 457.663 1.64136 -1.66077 0
M  V30 4681 C 458.644 1.62286 -0.509625 0
M  V30 4682 O 459.829 1.79449 -0.742413 0
M  V30 4683 C 456.959 3.02717 -1.70234 0
M  V30 4684 C 455.913 3.19426 -2.8487 0
M  V30 4685 C 455.239 4.5909 -2.74118 0
M  V30 4686 C 456.539 3.01993 -4.26142 0
M  V30 4687 H 458.233 1.4968 -2.593 0
M  V30 4688 H 455.779 0.718654 -1.24785 0
M  V30 4689 H 457.732 3.80491 -1.8112 0
M  V30 4690 H 456.456 3.18201 -0.735911 0
M  V30 4691 H 455.115 2.4407 -2.73542 0
M  V30 4692 H 454.763 4.71413 -1.7544 0
M  V30 4693 H 454.463 4.71214 -3.51042 0
M  V30 4694 H 455.987 5.3896 -2.86974 0
M  V30 4695 H 457.401 3.69558 -4.38292 0
M  V30 4696 H 455.798 3.2561 -5.04082 0
M  V30 4697 H 456.868 1.98396 -4.42456 0
M  V30 4698 N 458.211 1.37122 0.776871 0
M  V30 4699 C 459.436 1.354 1.57104 0
M  V30 4700 C 459.861 -0.0595562 1.88006 0
M  V30 4701 O 459.219 -1.03514 1.48844 0
M  V30 4702 C 459.267 2.19472 2.8612 0
M  V30 4703 O 458.371 1.59582 3.80273 0
M  V30 4704 H 457.712 0.462869 0.476076 0
M  V30 4705 H 460.242 1.80577 0.961932 0
M  V30 4706 H 460.252 2.32502 3.35271 0
M  V30 4707 H 458.927 3.22222 2.62956 0
M  V30 4708 H 457.504 1.55564 3.38902 0
M  V30 4709 N 459.689 -1.00246 1.21608 0
M  V30 4710 C 460.936 -1.74061 1.03485 0
M  V30 4711 C 461.264 -1.89658 -0.431308 0
M  V30 4712 O 460.519 -1.42976 -1.33627 0
M  V30 4713 C 460.818 -3.15448 1.68009 0
M  V30 4714 C 460.484 -3.19792 3.17874 0
M  V30 4715 C 459.146 -3.20685 3.58768 0
M  V30 4716 C 461.498 -3.16835 4.13842 0
M  V30 4717 C 458.826 -3.16309 4.94131 0
M  V30 4718 C 461.178 -3.14001 5.49169 0
M  V30 4719 C 459.842 -3.13204 5.89457 0
M  V30 4720 H 459.112 -0.636934 0.378677 0
M  V30 4721 H 461.759 -1.17473 1.51236 0
M  V30 4722 H 460.064 -3.75284 1.12557 0
M  V30 4723 H 461.761 -3.71285 1.51487 0
M  V30 4724 H 458.351 -3.19842 2.85305 0
M  V30 4725 H 462.535 -3.15303 3.83272 0
M  V30 4726 H 457.791 -3.14032 5.24589 0
M  V30 4727 H 461.965 -3.10667 6.23265 0
M  V30 4728 H 459.592 -3.09568 6.94314 0
M  V30 4729 N 461.167 -1.02423 -1.1978 0
M  V30 4730 C 462.114 -0.601023 -2.22837 0
M  V30 4731 C 463.084 0.382801 -1.61629 0
M  V30 4732 O 464.269 0.280514 -1.88727 0
M  V30 4733 C 461.409 0.0467755 -3.45068 0
M  V30 4734 C 460.522 -0.98253 -4.20678 0
M  V30 4735 C 459.657 -0.304982 -5.30324 0
M  V30 4736 C 458.696 -1.32052 -5.97686 0
M  V30 4737 N 457.833 -0.669105 -6.98904 0
M  V30 4738 H 462.673 -1.48444 -2.58396 0
M  V30 4739 H 460.21 -0.742936 -1.2696 0
M  V30 4740 H 462.168 0.439556 -4.14878 0
M  V30 4741 H 460.798 0.893796 -3.10179 0
M  V30 4742 H 459.85 -1.49341 -3.49859 0
M  V30 4743 H 461.162 -1.75455 -4.66923 0
M  V30 4744 H 460.316 0.142893 -6.06532 0
M  V30 4745 H 459.055 0.499283 -4.85138 0
M  V30 4746 H 458.06 -1.7787 -5.20233 0
M  V30 4747 H 459.285 -2.1262 -6.44957 0
M  V30 4748 H 457.231 0.115152 -6.55899 0
M  V30 4749 H 457.148 -1.37908 -7.43315 0
M  V30 4750 H 458.416 -0.245076 -7.79115 0
M  V30 4751 N 462.645 1.35699 -0.801477 0
M  V30 4752 C 463.873 2.03157 -0.391768 0
M  V30 4753 C 464.288 1.60412 0.995668 0
M  V30 4754 O 463.645 0.799228 1.64069 0
M  V30 4755 C 463.696 3.58566 -0.459671 0
M  V30 4756 O 463.417 3.99756 -1.7924 0
M  V30 4757 C 464.918 4.4328 -0.0421205 0
M  V30 4758 H 462.138 0.651688 -0.159825 0
M  V30 4759 H 464.682 1.73426 -1.08368 0
M  V30 4760 H 462.837 3.86963 0.183939 0
M  V30 4761 H 463.251 4.94387 -1.75162 0
M  V30 4762 H 464.725 5.51821 -0.140754 0
M  V30 4763 H 465.202 4.27383 1.01196 0
M  V30 4764 H 465.808 4.20168 -0.658687 0
M  V30 4765 N 464.123 0.554532 1.47522 0
M  V30 4766 C 465.053 -0.182974 2.32782 0
M  V30 4767 C 466.034 -0.911377 1.43624 0
M  V30 4768 O 467.219 -0.892366 1.72483 0
M  V30 4769 C 464.349 -1.21513 3.25349 0
M  V30 4770 C 463.303 -0.603355 4.23726 0
M  V30 4771 C 462.629 -1.73995 5.05598 0
M  V30 4772 C 463.929 0.441121 5.20434 0
M  V30 4773 H 465.623 0.52882 2.94693 0
M  V30 4774 H 463.169 0.255759 1.41711 0
M  V30 4775 H 465.122 -1.73922 3.83835 0
M  V30 4776 H 463.846 -1.95683 2.61487 0
M  V30 4777 H 462.505 -0.10059 3.66462 0
M  V30 4778 H 462.153 -2.47063 4.38143 0
M  V30 4779 H 461.853 -1.3364 5.72201 0
M  V30 4780 H 463.377 -2.26735 5.66942 0
M  V30 4781 H 464.791 0.00319931 5.733 0
M  V30 4782 H 463.188 0.763402 5.95224 0
M  V30 4783 H 464.258 1.33799 4.66075 0
M  V30 4784 N 465.601 -1.54893 0.290851 0
M  V30 4785 C 466.533 -2.20564 -0.623236 0
M  V30 4786 C 467.546 -1.19519 -1.1054 0
M  V30 4787 O 468.735 -1.46165 -1.02459 0
M  V30 4788 C 465.835 -2.83033 -1.86401 0
M  V30 4789 C 465.008 -4.09916 -1.52604 0
M  V30 4790 C 464.067 -4.56284 -2.62091 0
M  V30 4791 O 463.093 -5.2171 -2.27612 0
M  V30 4792 N 464.295 -4.27746 -3.92446 0
M  V30 4793 H 467.06 -2.99638 -0.0610915 0
M  V30 4794 H 464.621 -1.61508 0.112615 0
M  V30 4795 H 466.613 -3.1099 -2.58973 0
M  V30 4796 H 465.183 -2.0786 -2.33481 0
M  V30 4797 H 464.403 -3.89078 -0.633424 0
M  V30 4798 H 465.691 -4.92554 -1.27547 0
M  V30 4799 H 465.089 -3.7531 -4.23272 0
M  V30 4800 H 463.646 -4.60437 -4.61347 0
M  V30 4801 N 467.08 -0.0183926 -1.57589 0
M  V30 4802 C 468.496 0.337897 -1.55982 0
M  V30 4803 C 468.696 1.73604 -1.02294 0
M  V30 4804 O 467.752 2.43589 -0.664895 0
M  V30 4805 C 469.065 0.196305 -3.00059 0
M  V30 4806 C 470.613 0.269875 -3.11834 0
M  V30 4807 C 471.088 0.157197 -4.5773 0
M  V30 4808 N 472.579 0.214521 -4.62703 0
M  V30 4809 C 473.314 0.150955 -5.73201 0
M  V30 4810 N 472.81 0.0369212 -6.9279 0
M  V30 4811 N 474.603 0.204162 -5.61729 0
M  V30 4812 H 466.754 -0.93279 -1.90821 0
M  V30 4813 H 469.017 -0.359253 -0.877292 0
M  V30 4814 H 468.723 -0.766383 -3.43248 0
M  V30 4815 H 468.597 0.970908 -3.6449 0
M  V30 4816 H 470.984 1.22302 -2.68563 0
M  V30 4817 H 471.065 -0.534918 -2.50144 0
M  V30 4818 H 470.709 -0.792479 -5.01679 0
M  V30 4819 H 470.639 0.980717 -5.17387 0
M  V30 4820 H 473.13 0.303238 -3.76681 0
M  V30 4821 H 473.443 -0.00518321 -7.728 0
M  V30 4822 H 471.788 0.0022886 -6.95 0
M  V30 4823 H 474.979 0.291575 -4.67191 0
M  V30 4824 H 475.152 0.15116 -6.47824 0
M  V30 4825 N 468.558 1.5553 0.254621 0
M  V30 4826 C 469.506 1.9048 1.33492 0
M  V30 4827 C 470.5 0.78304 1.50216 0
M  V30 4828 O 471.706 0.967582 1.51782 0
M  V30 4829 H 468.081 0.604846 0.44684 0
M  V30 4830 H 470.052 2.80688 1.01275 0
M  V30 4831 C 468.801 2.20928 2.68489 0
M  V30 4832 H 468.124 3.06742 2.56417 0
M  V30 4833 H 469.564 2.49291 3.42972 0
M  V30 4834 C 468.023 1.023 3.20993 0
M  V30 4835 O 468.553 0.267027 4.00811 0
M  V30 4836 N 466.759 0.815714 2.78917 0
M  V30 4837 H 466.306 1.43217 2.14119 0
M  V30 4838 H 466.264 0.0236532 3.14391 0
M  V30 4839 N 470.036 -0.519951 1.48776 0
M  V30 4840 C 471.284 -1.2727 1.56993 0
M  V30 4841 C 471.605 -1.9339 0.25004 0
M  V30 4842 O 470.875 -1.81822 -0.729216 0
M  V30 4843 H 469.455 -0.472732 0.578389 0
M  V30 4844 H 472.117 -0.604234 1.85297 0
M  V30 4845 H 471.213 -2.04669 2.3562 0
M  V30 4846 N 471.514 -1.37532 -0.769588 0
M  V30 4847 C 472.444 -1.36172 -1.89682 0
M  V30 4848 C 473.425 -0.23001 -1.68538 0
M  V30 4849 O 474.61 -0.43069 -1.89364 0
M  V30 4850 C 471.74 -1.1701 -3.26995 0
M  V30 4851 C 470.694 -2.27216 -3.62708 0
M  V30 4852 C 470.02 -1.93174 -4.98586 0
M  V30 4853 C 471.32 -3.6941 -3.69234 0
M  V30 4854 H 473.014 -2.30499 -1.91078 0
M  V30 4855 H 470.56 -1.10953 -0.917902 0
M  V30 4856 H 472.513 -1.14688 -4.05493 0
M  V30 4857 H 471.237 -0.191395 -3.26039 0
M  V30 4858 H 469.896 -2.28697 -2.86519 0
M  V30 4859 H 469.544 -0.938281 -4.94171 0
M  V30 4860 H 469.244 -2.66973 -5.23449 0
M  V30 4861 H 470.768 -1.92443 -5.79481 0
M  V30 4862 H 472.182 -3.70047 -4.37879 0
M  V30 4863 H 470.579 -4.4228 -4.05597 0
M  V30 4864 H 471.649 -4.0288 -2.69844 0
M  V30 4865 N 472.992 0.995999 -1.22138 0
M  V30 4866 C 473.925 2.08302 -0.931952 0
M  V30 4867 C 474.903 1.62127 0.123956 0
M  V30 4868 O 476.087 1.88499 -0.00696004 0
M  V30 4869 C 473.214 3.36317 -0.401068 0
M  V30 4870 C 472.26 4.01413 -1.44117 0
M  V30 4871 S 473.093 4.42664 -3.01345 0
M  V30 4872 C 474.249 5.73853 -2.49887 0
M  V30 4873 H 474.482 2.32532 -1.85246 0
M  V30 4874 H 472.015 1.13005 -1.0521 0
M  V30 4875 H 473.973 4.10375 -0.101352 0
M  V30 4876 H 472.634 3.10123 0.498272 0
M  V30 4877 H 471.827 4.9358 -1.01952 0
M  V30 4878 H 471.429 3.33668 -1.68943 0
M  V30 4879 H 473.721 6.50039 -1.90934 0
M  V30 4880 H 474.664 6.20841 -3.40532 0
M  V30 4881 H 475.072 5.31105 -1.9128 0
M  V30 4882 N 474.47 1.03057 1.19235 0
M  V30 4883 C 475.4 0.633497 2.24742 0
M  V30 4884 C 476.381 -0.358335 1.66283 0
M  V30 4885 O 477.566 -0.240676 1.92703 0
M  V30 4886 C 474.696 -0.0147648 3.47297 0
M  V30 4887 C 473.65 0.899527 4.18441 0
M  V30 4888 C 472.976 0.116281 5.34574 0
M  V30 4889 C 474.276 2.21404 4.73051 0
M  V30 4890 H 475.97 1.5155 2.58211 0
M  V30 4891 H 473.516 0.73014 1.24117 0
M  V30 4892 H 475.469 -0.304202 4.20301 0
M  V30 4893 H 474.193 -0.931577 3.13032 0
M  V30 4894 H 472.852 1.17319 3.47321 0
M  V30 4895 H 472.5 -0.802619 4.96555 0
M  V30 4896 H 472.2 0.725293 5.83107 0
M  V30 4897 H 473.724 -0.166376 6.10373 0
M  V30 4898 H 475.138 1.98601 5.37802 0
M  V30 4899 H 473.535 2.77512 5.32078 0
M  V30 4900 H 474.605 2.86752 3.91026 0
M  V30 4901 N 475.948 -1.35272 0.808662 0
M  V30 4902 C 476.898 -2.27181 0.193124 0
M  V30 4903 C 477.882 -1.47871 -0.634265 0
M  V30 4904 O 479.074 -1.70048 -0.491182 0
M  V30 4905 C 476.203 -3.36979 -0.655751 0
M  V30 4906 C 475.289 -4.23712 0.181481 0
M  V30 4907 N 475.68 -4.90225 1.24551 0
M  V30 4908 C 473.978 -4.45985 -0.0365493 0
M  V30 4909 C 474.679 -5.54537 1.75682 0
M  V30 4910 N 473.655 -5.33107 1.06294 0
M  V30 4911 H 477.457 -2.76101 1.00724 0
M  V30 4912 H 474.971 -1.48823 0.650029 0
M  V30 4913 H 476.968 -4.01774 -1.11279 0
M  V30 4914 H 475.628 -2.89611 -1.46819 0
M  V30 4915 H 476.639 -4.91641 1.62818 0
M  V30 4916 H 473.316 -4.09409 -0.817964 0
M  V30 4917 H 474.706 -6.17597 2.64621 0
M  V30 4918 N 477.426 -0.562348 -1.47226 0
M  V30 4919 C 478.654 -0.0452275 -2.06851 0
M  V30 4920 C 479.069 1.25078 -1.41424 0
M  V30 4921 O 478.426 1.75156 -0.512513 0
M  V30 4922 C 478.477 0.148674 -3.61194 0
M  V30 4923 O 478.198 -1.09602 -4.24169 0
M  V30 4924 C 479.699 0.702488 -4.37699 0
M  V30 4925 H 476.919 -0.0481775 -0.669268 0
M  V30 4926 H 479.463 -0.777223 -1.89155 0
M  V30 4927 H 477.618 0.830817 -3.78386 0
M  V30 4928 H 478.032 -0.896982 -5.16773 0
M  V30 4929 H 479.506 0.78743 -5.46355 0
M  V30 4930 H 479.983 1.71493 -4.04335 0
M  V30 4931 H 480.589 0.0558772 -4.25263 0
M  V30 4932 N 478.904 1.54736 -0.299062 0
M  V30 4933 C 480.152 1.99706 0.31017 0
M  V30 4934 C 480.473 1.18896 1.54559 0
M  V30 4935 O 479.743 0.284445 1.93824 0
M  V30 4936 H 478.323 0.737686 0.117596 0
M  V30 4937 H 480.985 1.9054 -0.409943 0
M  V30 4938 H 480.081 3.06596 0.58355 0
M  V30 4939 N 480.382 0.0267497 1.57577 0
M  V30 4940 C 481.329 -0.955894 2.10075 0
M  V30 4941 C 482.299 -1.32453 1.00226 0
M  V30 4942 O 483.484 -1.41826 1.27632 0
M  V30 4943 C 480.624 -2.2338 2.6305 0
M  V30 4944 C 479.737 -1.92183 3.86898 0
M  V30 4945 C 478.872 -3.14251 4.28275 0
M  V30 4946 C 477.911 -2.78862 5.44888 0
M  V30 4947 N 477.048 -3.93548 5.81433 0
M  V30 4948 H 481.888 -0.501303 2.93753 0
M  V30 4949 H 479.425 -0.235847 1.45197 0
M  V30 4950 H 481.383 -2.98124 2.91853 0
M  V30 4951 H 480.013 -2.6646 1.82205 0
M  V30 4952 H 479.065 -1.07692 3.64838 0
M  V30 4953 H 480.377 -1.62117 4.7172 0
M  V30 4954 H 479.531 -3.97317 4.58502 0
M  V30 4955 H 478.27 -3.47476 3.42215 0
M  V30 4956 H 477.275 -1.94208 5.14357 0
M  V30 4957 H 478.5 -2.46855 6.32645 0
M  V30 4958 H 476.446 -4.2662 4.98328 0
M  V30 4959 H 476.363 -3.67098 6.6089 0
M  V30 4960 H 477.631 -4.77325 6.16264 0
M  V30 4961 N 481.861 -1.55662 -0.24637 0
M  V30 4962 C 483.086 -1.81914 -0.996093 0
M  V30 4963 C 483.511 -0.603875 -1.78143 0
M  V30 4964 O 482.869 0.447091 -1.75701 0
M  V30 4965 C 482.917 -3.05908 -1.90925 0
M  V30 4966 O 482.021 -2.82861 -3.00105 0
M  V30 4967 H 481.362 -0.600481 -0.283406 0
M  V30 4968 H 483.892 -2.02848 -0.267199 0
M  V30 4969 H 483.902 -3.35356 -2.3238 0
M  V30 4970 H 482.577 -3.93999 -1.33183 0
M  V30 4971 H 481.154 -2.64583 -2.62775 0
M  V30 4972 N 483.339 0.512053 -1.4905 0
M  V30 4973 C 484.302 1.59704 -1.64399 0
M  V30 4974 C 485.302 1.52285 -0.516317 0
M  V30 4975 O 486.492 1.55635 -0.782527 0
M  V30 4976 C 483.624 2.9935 -1.63102 0
M  V30 4977 H 484.817 1.47428 -2.61161 0
M  V30 4978 H 482.37 0.735469 -1.37915 0
M  V30 4979 H 483.105 3.17116 -0.678836 0
M  V30 4980 H 482.89 3.06144 -2.44986 0
M  V30 4981 H 484.38 3.782 -1.77072 0
M  V30 4982 N 484.817 1.37938 0.762283 0
M  V30 4983 C 486.094 1.24196 1.51112 0
M  V30 4984 C 486.474 -0.160409 2.1049 0
M  V30 4985 O 485.822 -1.16904 1.96331 0
M  V30 4986 C 486.032 2.34537 2.58445 0
M  V30 4987 C 487.38 2.7254 3.25588 0
M  V30 4988 O 488.404 2.33783 2.68745 0
M  V30 4989 O 487.263 3.39343 4.28379 0
M  V30 4990 H 484.357 0.485175 0.669727 0
M  V30 4991 H 486.903 1.49743 0.798438 0
M  V30 4992 H 485.675 3.28406 2.12756 0
M  V30 4993 H 485.298 2.10505 3.37303 0
M  V30 4994 N 486.295 -0.989507 1.22664 0
M  V30 4995 C 487.525 -1.7624 1.0781 0
M  V30 4996 C 487.933 -1.85466 -0.374036 0
M  V30 4997 O 487.276 -1.32645 -1.27087 0
M  V30 4998 C 487.338 -3.21007 1.61849 0
M  V30 4999 C 487.002 -3.35316 3.10503 0
M  V30 5000 C 487.999 -3.22362 4.07896 0
M  V30 5001 C 485.684 -3.60258 3.50028 0
M  V30 5002 C 487.678 -3.34139 5.42798 0
M  V30 5003 C 485.365 -3.71676 4.85078 0
M  V30 5004 C 486.363 -3.58625 5.81272 0
M  V30 5005 O 486.051 -3.69655 7.1387 0
M  V30 5006 H 485.783 -0.560209 0.378341 0
M  V30 5007 H 488.337 -1.25252 1.62792 0
M  V30 5008 H 486.567 -3.73202 1.01279 0
M  V30 5009 H 488.256 -3.80024 1.42606 0
M  V30 5010 H 489.022 -3.03 3.78703 0
M  V30 5011 H 484.901 -3.69492 2.75675 0
M  V30 5012 H 488.445 -3.23869 6.17863 0
M  V30 5013 H 484.342 -3.90545 5.1395 0
M  V30 5014 H 485.11 -3.86507 7.21495 0
M  V30 5015 N 487.773 -1.03688 -1.18687 0
M  V30 5016 C 489.019 -0.739123 -1.88851 0
M  V30 5017 C 489.352 0.731042 -1.79915 0
M  V30 5018 O 488.627 1.53313 -1.19688 0
M  V30 5019 C 488.91 -1.20106 -3.3948 0
M  V30 5020 C 488.763 -2.73304 -3.57246 0
M  V30 5021 C 490.082 -0.788134 -4.32986 0
M  V30 5022 H 487.201 -0.269978 -0.68577 0
M  V30 5023 H 489.843 -1.28822 -1.3966 0
M  V30 5024 H 487.993 -0.733915 -3.81505 0
M  V30 5025 H 489.665 -3.28027 -3.24339 0
M  V30 5026 H 487.908 -3.13313 -3.00029 0
M  V30 5027 H 488.579 -3.00684 -4.62918 0
M  V30 5028 H 491.055 -1.19005 -3.98719 0
M  V30 5029 H 489.931 -1.13915 -5.36949 0
M  V30 5030 H 490.192 0.308988 -4.41019 0
M  V30 5031 N 489.251 1.34841 -0.815825 0
M  V30 5032 C 490.199 2.31549 -0.220888 0
M  V30 5033 C 491.193 1.5707 0.634457 0
M  V30 5034 O 492.399 1.72125 0.526589 0
M  V30 5035 H 488.774 0.750153 -0.0526782 0
M  V30 5036 H 490.745 2.7926 -1.05149 0
M  V30 5037 C 489.494 3.42335 0.608427 0
M  V30 5038 H 488.817 3.9978 -0.0404121 0
M  V30 5039 H 490.257 4.12258 0.990931 0
M  V30 5040 C 488.716 2.86173 1.77782 0
M  V30 5041 O 489.246 2.80474 2.87571 0
M  V30 5042 N 487.452 2.43093 1.59229 0
M  V30 5043 H 486.999 2.47928 0.699237 0
M  V30 5044 H 486.957 2.05866 2.37627 0
M  V30 5045 N 490.729 0.570148 1.46925 0
M  V30 5046 C 491.659 -0.158274 2.32963 0
M  V30 5047 C 492.64 -0.896093 1.44583 0
M  V30 5048 O 493.825 -0.874022 1.7342 0
M  V30 5049 C 490.955 -1.18055 3.26619 0
M  V30 5050 C 489.909 -0.558379 4.24342 0
M  V30 5051 C 489.235 -1.68623 5.07415 0
M  V30 5052 C 490.535 0.496295 5.19937 0
M  V30 5053 H 492.229 0.560046 2.94115 0
M  V30 5054 H 489.775 0.270775 1.41431 0
M  V30 5055 H 491.728 -1.69841 3.85658 0
M  V30 5056 H 490.452 -1.92899 2.63548 0
M  V30 5057 H 489.111 -0.0617157 3.66548 0
M  V30 5058 H 488.759 -2.42402 4.40738 0
M  V30 5059 H 488.459 -1.27564 5.73586 0
M  V30 5060 H 489.983 -2.20709 5.69315 0
M  V30 5061 H 491.397 0.0640052 5.73264 0
M  V30 5062 H 489.794 0.82649 5.94381 0
M  V30 5063 H 490.864 1.38735 4.6463 0
M  V30 5064 N 492.207 -1.54576 0.307264 0
M  V30 5065 C 493.17 -2.22423 -0.553224 0
M  V30 5066 C 494.17 -1.21231 -1.05639 0
M  V30 5067 O 495.36 -1.45923 -0.951419 0
M  V30 5068 C 492.492 -2.91552 -1.76664 0
M  V30 5069 H 493.685 -2.99874 0.0396484 0
M  V30 5070 H 491.238 -1.56192 0.0581629 0
M  V30 5071 H 491.973 -2.18196 -2.39918 0
M  V30 5072 H 491.758 -3.65738 -1.41343 0
M  V30 5073 H 493.248 -3.43292 -2.37783 0
M  V30 5074 N 493.685 -0.035106 -1.57561 0
M  V30 5075 C 494.615 0.942993 -2.13612 0
M  V30 5076 C 495.596 1.33531 -1.05373 0
M  V30 5077 O 496.781 1.41287 -1.33235 0
M  V30 5078 C 493.911 2.22332 -2.66807 0
M  V30 5079 C 492.865 1.97156 -3.79886 0
M  V30 5080 C 492.191 3.31506 -4.19533 0
M  V30 5081 C 493.491 1.30596 -5.05709 0
M  V30 5082 H 495.185 0.476179 -2.95589 0
M  V30 5083 H 492.731 0.227602 -1.4219 0
M  V30 5084 H 494.684 2.91142 -3.04654 0
M  V30 5085 H 493.408 2.7119 -1.81999 0
M  V30 5086 H 492.067 1.30763 -3.42486 0
M  V30 5087 H 491.715 3.78134 -3.31698 0
M  V30 5088 H 491.415 3.15465 -4.95738 0
M  V30 5089 H 492.939 4.01574 -4.59968 0
M  V30 5090 H 494.353 1.89416 -5.41105 0
M  V30 5091 H 492.75 1.24934 -5.86951 0
M  V30 5092 H 493.82 0.279742 -4.84092 0
M  V30 5093 N 495.163 1.55791 0.238111 0
M  V30 5094 C 496.11 1.9105 1.29493 0
M  V30 5095 C 497.08 0.765733 1.47397 0
M  V30 5096 O 498.265 1.02017 1.61236 0
M  V30 5097 C 495.405 2.21826 2.64362 0
M  V30 5098 C 494.518 3.49153 2.54394 0
M  V30 5099 C 493.653 3.69455 3.81676 0
M  V30 5100 C 492.692 4.90353 3.66361 0
M  V30 5101 N 491.829 5.07131 4.85554 0
M  V30 5102 H 496.669 2.81172 0.987233 0
M  V30 5103 H 494.206 1.39179 0.476203 0
M  V30 5104 H 496.164 2.37675 3.4288 0
M  V30 5105 H 494.794 1.34897 2.93262 0
M  V30 5106 H 493.846 3.41587 1.67399 0
M  V30 5107 H 495.158 4.37818 2.38991 0
M  V30 5108 H 494.312 3.85311 4.68636 0
M  V30 5109 H 493.051 2.7904 3.99985 0
M  V30 5110 H 492.056 4.74464 2.77784 0
M  V30 5111 H 493.281 5.82237 3.49538 0
M  V30 5112 H 491.227 4.19654 5.04209 0
M  V30 5113 H 491.144 5.89899 4.72816 0
M  V30 5114 H 492.412 5.27407 5.73988 0
M  V30 5115 N 496.642 -0.504142 1.49319 0
M  V30 5116 C 497.59 -1.62689 1.66238 0
M  V30 5117 C 498.584 -1.6095 0.528349 0
M  V30 5118 O 499.79 -1.65496 0.707887 0
M  V30 5119 H 496.165 -0.539247 0.524134 0
M  V30 5120 H 498.136 -1.45571 2.60484 0
M  V30 5121 C 496.885 -3.00841 1.74328 0
M  V30 5122 H 496.208 -3.02884 2.60963 0
M  V30 5123 H 497.648 -3.78945 1.90202 0
M  V30 5124 C 496.107 -3.33355 0.487416 0
M  V30 5125 O 496.637 -3.99819 -0.388294 0
M  V30 5126 N 494.843 -2.88469 0.351306 0
M  V30 5127 H 494.39 -2.34557 1.06492 0
M  V30 5128 H 494.348 -3.10591 -0.487899 0
M  V30 5129 N 498.12 -1.38341 -0.754957 0
M  V30 5130 C 499.368 -1.34208 -1.51105 0
M  V30 5131 C 499.689 0.0677634 -1.94882 0
M  V30 5132 O 498.959 1.01517 -1.67544 0
M  V30 5133 H 497.539 -0.493819 -0.560493 0
M  V30 5134 H 500.201 -1.73005 -0.897507 0
M  V30 5135 H 499.297 -1.99203 -2.4026 0
M  V30 5136 N 499.598 0.982988 -1.23187 0
M  V30 5137 C 500.561 2.05649 -1.01198 0
M  V30 5138 C 501.561 1.6078 0.0252464 0
M  V30 5139 O 502.751 1.72878 -0.214243 0
M  V30 5140 C 499.883 3.36744 -0.530656 0
M  V30 5141 H 501.076 2.2659 -1.96461 0
M  V30 5142 H 498.629 1.15602 -1.05195 0
M  V30 5143 H 499.364 3.21492 0.425873 0
M  V30 5144 H 499.149 3.7065 -1.2791 0
M  V30 5145 H 500.639 4.15705 -0.397366 0
M  V30 5146 N 501.076 1.04316 1.18135 0
M  V30 5147 C 502.322 0.749128 1.88457 0
M  V30 5148 C 502.655 -0.72149 1.803 0
M  V30 5149 O 501.93 -1.52676 1.205 0
M  V30 5150 C 502.213 1.21905 3.38838 0
M  V30 5151 C 502.066 2.75195 3.55792 0
M  V30 5152 C 503.385 0.811085 4.32561 0
M  V30 5153 H 500.504 0.273611 0.684329 0
M  V30 5154 H 503.146 1.29561 1.38975 0
M  V30 5155 H 501.296 0.754137 3.8111 0
M  V30 5156 H 502.968 3.29743 3.22595 0
M  V30 5157 H 501.211 3.14899 2.98364 0
M  V30 5158 H 501.882 3.03135 4.61317 0
M  V30 5159 H 504.358 1.21118 3.98082 0
M  V30 5160 H 503.234 1.16761 5.36338 0
M  V30 5161 H 503.495 -0.285596 4.41177 0
M  V30 5162 N 502.554 -1.34406 0.822964 0
M  V30 5163 C 503.779 -2.0304 0.423034 0
M  V30 5164 C 504.204 -1.61568 -0.963196 0
M  V30 5165 O 503.562 -0.800339 -1.62678 0
M  V30 5166 C 503.61 -3.56636 0.53321 0
M  V30 5167 O 502.714 -4.09971 -0.446939 0
M  V30 5168 H 502.055 -0.64075 0.174171 0
M  V30 5169 H 504.585 -1.71653 1.11339 0
M  V30 5170 H 504.595 -4.05945 0.408991 0
M  V30 5171 H 503.27 -3.86168 1.54425 0
M  V30 5172 H 501.847 -3.71835 -0.281601 0
M  V30 5173 N 504.032 -0.577932 -1.46621 0
M  V30 5174 C 504.962 0.145917 -2.33044 0
M  V30 5175 C 505.943 0.888412 -1.45056 0
M  V30 5176 O 507.128 0.864812 -1.73881 0
M  V30 5177 C 504.258 1.16322 -3.27241 0
M  V30 5178 C 503.212 0.535868 -4.24632 0
M  V30 5179 C 502.538 1.65929 -5.08303 0
M  V30 5180 C 503.838 -0.523861 -5.19666 0
M  V30 5181 H 505.532 -0.575636 -2.93814 0
M  V30 5182 H 503.078 -0.278272 -1.41286 0
M  V30 5183 H 505.031 1.67793 -3.86553 0
M  V30 5184 H 503.755 1.91498 -2.64567 0
M  V30 5185 H 502.414 0.0422759 -3.66576 0
M  V30 5186 H 502.062 2.40061 -4.42018 0
M  V30 5187 H 501.762 1.2452 -5.74255 0
M  V30 5188 H 503.286 2.17686 -5.70478 0
M  V30 5189 H 504.7 -0.0944059 -5.73222 0
M  V30 5190 H 503.097 -0.858 -5.93935 0
M  V30 5191 H 504.167 -1.41197 -4.63887 0
M  V30 5192 N 505.51 1.54411 -0.315457 0
M  V30 5193 C 506.756 2.00716 0.289972 0
M  V30 5194 C 507.089 1.2034 1.5242 0
M  V30 5195 O 506.364 0.283579 1.92422 0
M  V30 5196 C 506.647 3.54507 0.632196 0
M  V30 5197 C 506.5 4.45615 -0.61218 0
M  V30 5198 C 507.819 4.15421 1.45305 0
M  V30 5199 H 504.938 0.729637 0.10392 0
M  V30 5200 H 507.58 1.8506 -0.430427 0
M  V30 5201 H 505.73 3.67979 1.24595 0
M  V30 5202 H 507.402 4.44026 -1.25053 0
M  V30 5203 H 505.645 4.15621 -1.24264 0
M  V30 5204 H 506.316 5.51022 -0.328379 0
M  V30 5205 H 508.792 4.05474 0.934331 0
M  V30 5206 H 507.668 5.23157 1.66127 0
M  V30 5207 H 507.929 3.68223 2.44671 0
M  V30 5208 N 506.988 0.0434614 1.5754 0
M  V30 5209 C 508.237 -0.631454 1.91561 0
M  V30 5210 C 508.55 -1.72457 0.92292 0
M  V30 5211 O 509.756 -2.45712 1.15489 0
M  V30 5212 C 508.212 -1.17447 3.40197 0
M  V30 5213 C 507.82 -0.113867 4.47855 0
M  V30 5214 C 509.564 -1.82507 3.83264 0
M  V30 5215 C 507.471 -0.669326 5.876 0
M  V30 5216 H 506.401 -0.239629 0.714908 0
M  V30 5217 H 509.052 0.111097 1.83163 0
M  V30 5218 H 507.434 -1.96909 3.43574 0
M  V30 5219 H 508.608 0.659348 4.56058 0
M  V30 5220 H 506.923 0.438821 4.14081 0
M  V30 5221 H 509.52 -2.25047 4.85034 0
M  V30 5222 H 509.863 -2.67365 3.19095 0
M  V30 5223 H 510.396 -1.09712 3.82372 0
M  V30 5224 H 507.135 0.141449 6.55347 0
M  V30 5225 H 506.655 -1.4107 5.82974 0
M  V30 5226 H 508.334 -1.15463 6.36614 0
M  V30 5227 N 508.466 -1.55915 -0.229846 0
M  V30 5228 C 509.414 -1.9258 -1.30444 0
M  V30 5229 C 510.408 -0.806839 -1.48951 0
M  V30 5230 O 511.614 -0.991606 -1.50224 0
M  V30 5231 H 507.989 -0.611878 -0.437161 0
M  V30 5232 H 509.96 -2.82264 -0.96797 0
M  V30 5233 C 508.709 -2.25171 -2.6494 0
M  V30 5234 H 508.032 -3.10782 -2.51504 0
M  V30 5235 H 509.472 -2.54716 -3.38963 0
M  V30 5236 C 507.931 -1.07394 -3.19324 0
M  V30 5237 O 508.461 -0.330759 -4.00336 0
M  V30 5238 N 506.667 -0.859984 -2.77584 0
M  V30 5239 H 506.214 -1.46605 -2.11813 0
M  V30 5240 H 506.172 -0.0736671 -3.14314 0
M  V30 5241 N 509.944 0.496216 -1.49584 0
M  V30 5242 C 510.874 1.60576 -1.69521 0
M  V30 5243 C 511.855 1.61169 -0.543933 0
M  V30 5244 O 513.04 1.77834 -0.78031 0
M  V30 5245 C 510.17 2.99038 -1.76616 0
M  V30 5246 C 509.124 3.13312 -2.91581 0
M  V30 5247 C 508.45 4.53172 -2.83794 0
M  V30 5248 C 509.75 2.92886 -4.32452 0
M  V30 5249 H 511.444 1.44146 -2.62416 0
M  V30 5250 H 508.99 0.692024 -1.26282 0
M  V30 5251 H 510.943 3.76564 -1.8915 0
M  V30 5252 H 509.667 3.16568 -0.80324 0
M  V30 5253 H 508.326 2.38213 -2.78658 0
M  V30 5254 H 507.974 4.67585 -1.854 0
M  V30 5255 H 507.674 4.63662 -3.60958 0
M  V30 5256 H 509.198 5.32752 -2.98342 0
M  V30 5257 H 510.612 3.60178 -4.46032 0
M  V30 5258 H 509.009 3.14844 -5.10875 0
M  V30 5259 H 510.079 1.88966 -4.46565 0
M  V30 5260 N 511.423 1.38739 0.74761 0
M  V30 5261 C 512.671 1.35007 1.50391 0
M  V30 5262 C 512.992 -0.0574274 1.94915 0
M  V30 5263 O 512.262 -1.00628 1.6808 0
M  V30 5264 H 510.842 0.496784 0.557866 0
M  V30 5265 H 513.504 1.73479 0.888319 0
M  V30 5266 H 512.6 2.00474 2.392 0
M  V30 5267 N 512.901 -0.976442 1.23707 0
M  V30 5268 C 514.126 -1.75875 1.09922 0
M  V30 5269 C 514.551 -1.84911 -0.34489 0
M  V30 5270 O 513.909 -1.31363 -1.24954 0
M  V30 5271 C 513.957 -3.16179 1.73388 0
M  V30 5272 O 513.061 -4.00124 0.99871 0
M  V30 5273 H 512.402 -0.540954 0.385052 0
M  V30 5274 H 514.932 -1.22546 1.6384 0
M  V30 5275 H 514.942 -3.66741 1.78788 0
M  V30 5276 H 513.617 -3.08917 2.78466 0
M  V30 5277 H 512.194 -3.58624 1.02193 0
M  V30 5278 N 514.379 -1.04941 -1.1758 0
M  V30 5279 C 515.627 -0.756492 -1.87408 0
M  V30 5280 C 515.948 0.718478 -1.81281 0
M  V30 5281 O 515.218 1.519 -1.23706 0
M  V30 5282 H 513.798 -0.276841 -0.693807 0
M  V30 5283 H 516.46 -1.32803 -1.42652 0
M  V30 5284 H 515.556 -1.06918 -2.93215 0
M  V30 5285 N 515.857 1.33968 -0.830081 0
M  V30 5286 C 516.82 2.27694 -0.26235 0
M  V30 5287 C 517.82 1.50589 0.563876 0
M  V30 5288 O 519.01 1.70028 0.378941 0
M  V30 5289 C 516.142 3.35002 0.63138 0
M  V30 5290 H 517.335 2.79419 -1.08928 0
M  V30 5291 H 514.888 1.44221 -0.602486 0
M  V30 5292 H 515.623 2.88504 1.48109 0
M  V30 5293 H 515.408 3.92079 0.0403276 0
M  V30 5294 H 516.898 4.04897 1.02217 0
M  V30 5295 N 517.335 0.585699 1.46312 0
M  V30 5296 C 518.582 0.0724211 2.0237 0
M  V30 5297 C 518.91 -1.28868 1.45683 0
M  V30 5298 O 518.165 -1.85853 0.612945 0
M  V30 5299 C 518.464 -0.0401312 3.57377 0
M  V30 5300 C 518.13 1.25376 4.33119 0
M  V30 5301 C 516.792 1.60824 4.5353 0
M  V30 5302 C 519.144 2.10987 4.76586 0
M  V30 5303 C 516.472 2.81676 5.14661 0
M  V30 5304 C 518.824 3.31068 5.39052 0
M  V30 5305 C 517.488 3.66794 5.5769 0
M  V30 5306 H 516.758 0.0265007 0.740526 0
M  V30 5307 H 519.405 0.762935 1.75646 0
M  V30 5308 H 517.71 -0.813791 3.83255 0
M  V30 5309 H 519.407 -0.453078 3.98432 0
M  V30 5310 H 515.997 0.967808 4.1753 0
M  V30 5311 H 520.181 1.84904 4.60569 0
M  V30 5312 H 515.437 3.0949 5.27282 0
M  V30 5313 H 519.611 3.97672 5.71691 0
M  V30 5314 H 517.238 4.60529 6.04828 0
M  V30 5315 N 518.813 -1.54241 0.323641 0
M  V30 5316 C 519.723 -2.28033 -0.551205 0
M  V30 5317 C 520.739 -1.32388 -1.12913 0
M  V30 5318 O 521.915 -1.65403 -1.14908 0
M  V30 5319 C 518.98 -3.02382 -1.69606 0
M  V30 5320 C 518.041 -4.13612 -1.14993 0
M  V30 5321 C 517.274 -4.84407 -2.24022 0
M  V30 5322 O 517.497 -4.54716 -3.44368 0
M  V30 5323 O 516.431 -5.71312 -1.89436 0
M  V30 5324 H 520.257 -3.03662 0.048066 0
M  V30 5325 H 517.842 -1.49133 0.0893289 0
M  V30 5326 H 519.724 -3.48941 -2.36259 0
M  V30 5327 H 518.399 -2.29628 -2.28151 0
M  V30 5328 H 517.306 -3.71402 -0.448484 0
M  V30 5329 H 518.639 -4.8841 -0.609608 0
M  V30 5330 N 520.291 -0.0518155 -1.57515 0
M  V30 5331 C 521.254 0.907547 -2.10467 0
M  V30 5332 C 522.254 1.23947 -1.02439 0
M  V30 5333 O 523.444 1.17604 -1.2851 0
M  V30 5334 C 520.576 2.21723 -2.58944 0
M  V30 5335 H 521.769 0.44851 -2.96527 0
M  V30 5336 H 519.322 0.196598 -1.55059 0
M  V30 5337 H 520.057 2.72206 -1.76279 0
M  V30 5338 H 519.842 1.98935 -3.37886 0
M  V30 5339 H 521.332 2.90441 -3.00056 0
M  V30 5340 N 521.769 1.56035 0.221574 0
M  V30 5341 C 522.699 1.95434 1.2778 0
M  V30 5342 C 523.68 0.822564 1.48889 0
M  V30 5343 O 524.865 1.08486 1.61072 0
M  V30 5344 C 521.995 2.27102 2.62759 0
M  V30 5345 C 520.949 3.4277 2.56306 0
M  V30 5346 C 520.275 3.60043 3.95314 0
M  V30 5347 C 521.575 4.77742 2.11093 0
M  V30 5348 H 523.269 2.83912 0.950504 0
M  V30 5349 H 520.815 1.36596 0.455791 0
M  V30 5350 H 522.768 2.53256 3.36807 0
M  V30 5351 H 521.492 1.35478 2.97176 0
M  V30 5352 H 520.151 3.16664 1.84715 0
M  V30 5353 H 519.799 2.65794 4.27039 0
M  V30 5354 H 519.499 4.37841 3.91879 0
M  V30 5355 H 521.023 3.88545 4.71025 0
M  V30 5356 H 522.437 5.03102 2.74885 0
M  V30 5357 H 520.834 5.58823 2.18716 0
M  V30 5358 H 521.904 4.731 1.06321 0
M  V30 5359 N 523.247 -0.488276 1.49845 0
M  V30 5360 C 524.493 -1.24341 1.6021 0
M  V30 5361 C 524.826 -1.91967 0.293651 0
M  V30 5362 O 524.101 -1.81323 -0.703718 0
M  V30 5363 C 524.384 -2.3005 2.77036 0
M  V30 5364 C 524.237 -1.66842 4.17713 0
M  V30 5365 C 525.556 -3.31509 2.89464 0
M  V30 5366 H 522.675 -0.450704 0.583125 0
M  V30 5367 H 525.317 -0.539673 1.82174 0
M  V30 5368 H 523.467 -2.90071 2.58439 0
M  V30 5369 H 525.139 -1.1055 4.47858 0
M  V30 5370 H 523.382 -0.972079 4.22768 0
M  V30 5371 H 524.053 -2.43576 4.95353 0
M  V30 5372 H 526.529 -2.81493 3.06433 0
M  V30 5373 H 525.405 -4.02822 3.72861 0
M  V30 5374 H 525.666 -3.94603 1.99351 0
M  V30 5375 N 524.725 -1.39134 -0.740242 0
M  V30 5376 C 525.635 -1.39697 -1.88473 0
M  V30 5377 C 526.651 -0.292403 -1.71526 0
M  V30 5378 O 527.827 -0.533021 -1.94219 0
M  V30 5379 C 524.892 -1.23382 -3.24003 0
M  V30 5380 C 523.953 -2.43763 -3.53381 0
M  V30 5381 C 523.186 -2.28216 -4.82445 0
M  V30 5382 O 523.409 -1.28288 -5.55786 0
M  V30 5383 O 522.343 -3.1709 -5.11603 0
M  V30 5384 H 526.169 -2.36159 -1.90952 0
M  V30 5385 H 523.754 -1.20194 -0.887346 0
M  V30 5386 H 525.636 -1.16395 -4.05006 0
M  V30 5387 H 524.311 -0.300121 -3.22306 0
M  V30 5388 H 523.218 -2.56325 -2.72485 0
M  V30 5389 H 524.551 -3.35808 -3.59852 0
M  V30 5390 N 526.204 0.969867 -1.24223 0
M  V30 5391 C 527.615 1.52717 -1.07399 0
M  V30 5392 C 527.966 1.92956 0.355298 0
M  V30 5393 O 527.091 1.77112 1.2434 0
M  V30 5394 C 527.686 2.77521 -1.94339 0
M  V30 5395 C 526.245 3.29615 -1.81744 0
M  V30 5396 C 525.392 2.02537 -1.89405 0
M  V30 5397 H 528.343 0.788399 -1.37732 0
M  V30 5398 H 528.364 3.50773 -1.47439 0
M  V30 5399 H 527.876 2.48203 -2.98357 0
M  V30 5400 H 525.977 3.63789 -0.805505 0
M  V30 5401 H 526.09 3.98661 -2.65718 0
M  V30 5402 H 524.454 2.17151 -1.33108 0
M  V30 5403 H 525.237 1.75587 -2.94999 0
M  V30 5404 N 527.682 1.05563 1.17022 0
M  V30 5405 C 528.928 0.769074 1.87652 0
M  V30 5406 C 529.261 -0.702326 1.81055 0
M  V30 5407 O 528.536 -1.5139 1.22112 0
M  V30 5408 C 528.819 1.25492 3.37526 0
M  V30 5409 C 528.672 2.78953 3.52853 0
M  V30 5410 C 529.991 0.856919 4.31677 0
M  V30 5411 H 527.11 0.280854 0.681388 0
M  V30 5412 H 529.752 1.31027 1.37593 0
M  V30 5413 H 527.902 0.794516 3.80289 0
M  V30 5414 H 529.574 3.33146 3.19079 0
M  V30 5415 H 527.817 3.18046 2.95007 0
M  V30 5416 H 528.488 3.08011 4.58076 0
M  V30 5417 H 530.964 1.25334 3.96775 0
M  V30 5418 H 529.84 1.22443 5.35069 0
M  V30 5419 H 530.101 -0.238787 4.41455 0
M  V30 5420 N 529.16 -1.33526 0.837174 0
M  V30 5421 C 530.108 -2.31168 0.257698 0
M  V30 5422 C 531.102 -1.5806 -0.609388 0
M  V30 5423 O 532.308 -1.72941 -0.499139 0
M  V30 5424 H 528.683 -0.74922 0.0646058 0
M  V30 5425 H 530.654 -2.77552 1.09578 0
M  V30 5426 C 529.403 -3.4326 -0.553887 0
M  V30 5427 H 528.726 -3.99665 0.104008 0
M  V30 5428 H 530.166 -4.13782 -0.925219 0
M  V30 5429 C 528.625 -2.88965 -1.73207 0
M  V30 5430 O 529.155 -2.85013 -2.83073 0
M  V30 5431 N 527.361 -2.45596 -1.55342 0
M  V30 5432 H 526.908 -2.49009 -0.659705 0
M  V30 5433 H 526.866 -2.0962 -2.34322 0
M  V30 5434 N 530.638 -0.59345 -1.46 0
M  V30 5435 C 531.886 -0.082988 -2.0193 0
M  V30 5436 C 532.207 1.28569 -1.46612 0
M  V30 5437 O 531.477 1.84629 -0.654909 0
M  V30 5438 H 530.057 -0.0276882 -0.746487 0
M  V30 5439 H 532.719 -0.771657 -1.78973 0
M  V30 5440 H 531.815 -0.022079 -3.12092 0
M  V30 5441 N 532.116 1.54067 -0.331816 0
M  V30 5442 C 533.063 2.24623 0.530372 0
M  V30 5443 C 534.033 1.24009 1.10503 0
M  V30 5444 O 535.218 1.52712 1.14384 0
M  V30 5445 C 532.358 3.01374 1.68129 0
M  V30 5446 C 531.471 4.16821 1.13507 0
M  V30 5447 C 530.606 4.81085 2.25234 0
M  V30 5448 C 529.645 5.88621 1.67903 0
M  V30 5449 N 528.782 6.46713 2.73326 0
M  V30 5450 H 533.622 2.97898 -0.0778607 0
M  V30 5451 H 531.159 1.47014 -0.0501965 0
M  V30 5452 H 533.117 3.44125 2.35868 0
M  V30 5453 H 531.747 2.30419 2.26069 0
M  V30 5454 H 530.799 3.78796 0.348979 0
M  V30 5455 H 532.111 4.94203 0.675633 0
M  V30 5456 H 531.265 5.26846 3.00862 0
M  V30 5457 H 530.004 4.03102 2.74518 0
M  V30 5458 H 529.009 5.42254 0.907773 0
M  V30 5459 H 530.234 6.68506 1.19487 0
M  V30 5460 H 528.18 5.71599 3.21886 0
M  V30 5461 H 528.097 7.19532 2.3197 0
M  V30 5462 H 529.365 6.97129 3.48758 0
M  V30 5463 N 533.594 0.0601682 1.57485 0
M  V30 5464 C 534.841 -0.611594 1.93043 0
M  V30 5465 C 535.169 -1.70317 0.939274 0
M  V30 5466 O 534.424 -1.95644 -0.046996 0
M  V30 5467 C 534.723 -1.23831 3.35262 0
M  V30 5468 C 534.389 -0.274037 4.50066 0
M  V30 5469 C 533.051 -0.00872394 4.81199 0
M  V30 5470 C 535.403 0.386308 5.19766 0
M  V30 5471 C 532.731 0.924218 5.79375 0
M  V30 5472 C 535.083 1.3075 6.1894 0
M  V30 5473 C 533.747 1.58139 6.48497 0
M  V30 5474 H 533.017 -0.223798 0.706396 0
M  V30 5475 H 535.664 0.128566 1.91068 0
M  V30 5476 H 533.969 -2.05394 3.33647 0
M  V30 5477 H 535.666 -1.76517 3.60059 0
M  V30 5478 H 532.256 -0.491008 4.25778 0
M  V30 5479 H 536.44 0.194436 4.95919 0
M  V30 5480 H 531.696 1.1438 6.00606 0
M  V30 5481 H 535.87 1.82519 6.72056 0
M  V30 5482 H 533.497 2.30593 7.24383 0
M  V30 5483 N 535.072 -1.5615 -0.213296 0
M  V30 5484 C 536.02 -1.93953 -1.28394 0
M  V30 5485 C 537.014 -0.822592 -1.48087 0
M  V30 5486 O 538.22 -1.00748 -1.49164 0
M  V30 5487 H 534.595 -0.61648 -0.430646 0
M  V30 5488 H 536.566 -2.83275 -0.937977 0
M  V30 5489 C 535.315 -2.27969 -2.62537 0
M  V30 5490 H 534.638 -3.13432 -2.48194 0
M  V30 5491 H 536.078 -2.58297 -3.36242 0
M  V30 5492 C 534.537 -1.10775 -3.18167 0
M  V30 5493 O 535.067 -0.373201 -3.99963 0
M  V30 5494 N 533.273 -0.889377 -2.76656 0
M  V30 5495 H 532.82 -1.48843 -2.10246 0
M  V30 5496 H 532.778 -0.107 -3.14218 0
M  V30 5497 N 536.55 0.480323 -1.50102 0
M  V30 5498 C 537.827 1.24159 -1.51142 0
M  V30 5499 C 538.207 2.09605 -0.250818 0
M  V30 5500 O 537.555 2.15274 0.766118 0
M  V30 5501 C 537.765 2.08057 -2.80202 0
M  V30 5502 C 539.113 2.66556 -3.30504 0
M  V30 5503 O 540.137 2.18308 -2.81461 0
M  V30 5504 O 538.996 3.54442 -4.15973 0
M  V30 5505 H 536.09 0.562928 -0.605839 0
M  V30 5506 H 538.636 0.492899 -1.62384 0
M  V30 5507 H 537.408 1.45032 -3.6343 0
M  V30 5508 H 537.031 2.90079 -2.71919 0
M  V30 5509 N 538.028 1.39524 0.732853 0
M  V30 5510 C 538.976 1.38563 1.86824 0
M  V30 5511 C 539.97 0.268467 1.67259 0
M  V30 5512 O 541.176 0.438613 1.74574 0
M  V30 5513 H 537.551 0.432737 0.615014 0
M  V30 5514 H 539.522 2.34328 1.84751 0
M  V30 5515 C 538.271 1.2481 3.24527 0
M  V30 5516 H 537.594 2.10044 3.40179 0
M  V30 5517 H 539.034 1.28194 4.04156 0
M  V30 5518 C 537.493 -0.0432825 3.36872 0
M  V30 5519 O 538.023 -1.01268 3.88726 0
M  V30 5520 N 536.229 -0.107055 2.90403 0
M  V30 5521 H 535.776 0.682512 2.48394 0
M  V30 5522 H 535.734 -0.970618 2.99042 0
M  V30 5523 N 539.506 -0.963266 1.24736 0
M  V30 5524 C 540.469 -2.04013 1.04457 0
M  V30 5525 C 541.469 -1.608 0.000335555 0
M  V30 5526 O 542.659 -1.72515 0.241719 0
M  V30 5527 C 539.791 -3.35858 0.584162 0
M  V30 5528 H 540.984 -2.23436 2.00041 0
M  V30 5529 H 538.537 -1.13914 1.07021 0
M  V30 5530 H 539.272 -3.22128 -0.374673 0
M  V30 5531 H 539.057 -3.68568 1.3379 0
M  V30 5532 H 540.547 -4.1502 0.463451 0
M  V30 5533 N 540.985 -1.06182 -1.16461 0
M  V30 5534 C 542.231 -0.788825 -1.87481 0
M  V30 5535 C 542.586 0.677298 -1.80085 0
M  V30 5536 O 541.879 1.48976 -1.20486 0
M  V30 5537 C 542.073 -1.21633 -3.36066 0
M  V30 5538 C 541.902 -2.72247 -3.57927 0
M  V30 5539 C 540.672 -3.39696 -3.74079 0
M  V30 5540 C 542.87 -3.70461 -3.56739 0
M  V30 5541 N 540.852 -4.79072 -3.83879 0
M  V30 5542 C 542.223 -4.95616 -3.72511 0
M  V30 5543 C 544.278 -3.63788 -3.39945 0
M  V30 5544 C 542.981 -6.14895 -3.73225 0
M  V30 5545 C 545.007 -4.82517 -3.41953 0
M  V30 5546 C 544.369 -6.065 -3.58242 0
M  V30 5547 H 540.468 -0.341034 -0.703719 0
M  V30 5548 H 543.052 -1.35575 -1.39741 0
M  V30 5549 H 541.223 -0.67725 -3.8245 0
M  V30 5550 H 542.955 -0.892119 -3.94745 0
M  V30 5551 H 539.71 -2.90097 -3.74354 0
M  V30 5552 H 540.134 -5.51573 -3.92551 0
M  V30 5553 H 544.776 -2.68888 -3.26281 0
M  V30 5554 H 542.494 -7.10129 -3.85672 0
M  V30 5555 H 546.08 -4.79017 -3.30203 0
M  V30 5556 H 544.96 -6.96833 -3.59712 0
M  V30 5557 N 542.463 1.3308 -0.844243 0
M  V30 5558 C 543.413 2.26589 -0.253289 0
M  V30 5559 C 544.397 1.49501 0.594836 0
M  V30 5560 O 545.589 1.71291 0.445924 0
M  V30 5561 C 542.718 3.38599 0.566176 0
M  V30 5562 C 541.804 4.23081 -0.293756 0
M  V30 5563 N 542.195 4.86751 -1.37505 0
M  V30 5564 C 540.493 4.45925 -0.0817086 0
M  V30 5565 C 541.194 5.49684 -1.90323 0
M  V30 5566 N 540.17 5.30101 -1.20391 0
M  V30 5567 H 543.972 2.73334 -1.08009 0
M  V30 5568 H 541.486 1.47048 -0.689258 0
M  V30 5569 H 543.483 4.04584 1.00587 0
M  V30 5570 H 542.143 2.93401 1.39089 0
M  V30 5571 H 543.154 4.87151 -1.75796 0
M  V30 5572 H 539.831 4.11434 0.709129 0
M  V30 5573 H 541.221 6.10363 -2.80902 0
M  V30 5574 N 543.941 0.601185 1.45683 0
M  V30 5575 C 545.218 0.0261659 1.95582 0
M  V30 5576 C 545.598 -1.4399 1.5437 0
M  V30 5577 O 544.946 -2.13919 0.80318 0
M  V30 5578 C 545.156 0.217557 3.48321 0
M  V30 5579 C 546.504 0.0950076 4.24494 0
M  V30 5580 O 547.528 0.147345 3.55895 0
M  V30 5581 O 546.387 -0.025261 5.46494 0
M  V30 5582 H 543.481 -0.0393688 0.826062 0
M  V30 5583 H 546.027 0.670798 1.55879 0
M  V30 5584 H 544.799 1.23601 3.71266 0
M  V30 5585 H 544.422 -0.46264 3.94899 0
M  V30 5586 N 545.419 -1.53889 0.339982 0
M  V30 5587 C 546.665 -2.01152 -0.258003 0
M  V30 5588 C 546.998 -1.22749 -1.50487 0
M  V30 5589 O 546.273 -0.314156 -1.91946 0
M  V30 5590 C 546.556 -3.55468 -0.575717 0
M  V30 5591 C 546.409 -4.44584 0.682996 0
M  V30 5592 C 547.728 -4.1768 -1.38677 0
M  V30 5593 H 544.847 -0.731198 -0.0922992 0
M  V30 5594 H 547.489 -1.84352 0.459814 0
M  V30 5595 H 545.639 -3.69914 -1.18725 0
M  V30 5596 H 547.311 -4.41981 1.32102 0
M  V30 5597 H 545.554 -4.13592 1.3086 0
M  V30 5598 H 546.225 -5.5043 0.416001 0
M  V30 5599 H 548.701 -4.0691 -0.869705 0
M  V30 5600 H 547.577 -5.25734 -1.57783 0
M  V30 5601 H 547.838 -3.72069 -2.38782 0
M  V30 5602 N 546.897 -0.0685191 -1.57451 0
M  V30 5603 C 547.844 0.899861 -2.12535 0
M  V30 5604 C 548.814 1.29749 -1.03703 0
M  V30 5605 O 549.999 1.38392 -1.31348 0
M  V30 5606 C 547.139 2.16328 -2.6888 0
M  V30 5607 C 546.252 1.81857 -3.91857 0
M  V30 5608 C 545.387 3.02786 -4.36457 0
M  V30 5609 C 544.426 2.64317 -5.5209 0
M  V30 5610 N 543.563 3.77994 -5.91663 0
M  V30 5611 H 548.403 0.423243 -2.94979 0
M  V30 5612 H 545.94 0.197268 -1.45771 0
M  V30 5613 H 547.898 2.90281 -2.99655 0
M  V30 5614 H 546.528 2.61536 -1.89206 0
M  V30 5615 H 545.58 0.979808 -3.67565 0
M  V30 5616 H 546.892 1.49553 -4.75852 0
M  V30 5617 H 546.046 3.85021 -4.68875 0
M  V30 5618 H 544.785 3.38281 -3.51308 0
M  V30 5619 H 543.79 1.80503 -5.19325 0
M  V30 5620 H 545.015 2.29995 -6.38967 0
M  V30 5621 H 542.961 4.13258 -5.09464 0
M  V30 5622 H 542.878 3.49447 -6.7039 0
M  V30 5623 H 544.146 4.60818 -6.28703 0
M  V30 5624 N 548.375 1.56261 0.205012 0
M  V30 5625 C 549.621 1.80306 0.9283 0
M  V30 5626 C 549.954 0.640932 1.83319 0
M  V30 5627 O 549.229 -0.359032 1.91158 0
M  V30 5628 C 549.512 3.14547 1.75306 0
M  V30 5629 C 549.365 4.41236 0.873562 0
M  V30 5630 C 550.684 3.45382 2.72762 0
M  V30 5631 H 547.803 0.655929 0.336044 0
M  V30 5632 H 550.445 1.88984 0.196211 0
M  V30 5633 H 548.595 3.0728 2.37721 0
M  V30 5634 H 550.267 4.60539 0.264887 0
M  V30 5635 H 548.51 4.33427 0.179773 0
M  V30 5636 H 549.181 5.31639 1.48541 0
M  V30 5637 H 551.657 3.52884 2.20481 0
M  V30 5638 H 550.533 4.40449 3.2756 0
M  V30 5639 H 550.794 2.68377 3.51321 0
M  V30 5640 N 549.853 -0.472356 1.50355 0
M  V30 5641 C 551.081 -1.24784 1.65035 0
M  V30 5642 C 551.496 -1.85837 0.333176 0
M  V30 5643 O 550.853 -1.69168 -0.68472 0
M  V30 5644 C 550.904 -2.35747 2.74054 0
M  V30 5645 O 550.625 -1.77197 4.00665 0
M  V30 5646 C 552.126 -3.26645 2.99696 0
M  V30 5647 H 549.346 -0.377432 0.554785 0
M  V30 5648 H 551.89 -0.563962 1.9657 0
M  V30 5649 H 550.045 -2.99912 2.45217 0
M  V30 5650 H 550.459 -2.5026 4.60945 0
M  V30 5651 H 551.933 -4.00718 3.79644 0
M  V30 5652 H 552.41 -3.8535 2.10718 0
M  V30 5653 H 553.016 -2.68218 3.3006 0
M  V30 5654 N 551.331 -1.39911 -0.725443 0
M  V30 5655 C 552.747 -1.21725 -1.03224 0
M  V30 5656 C 552.947 -0.0855224 -2.01318 0
M  V30 5657 O 552.003 0.55976 -2.46217 0
M  V30 5658 C 553.316 -2.55511 -1.58539 0
M  V30 5659 C 554.864 -2.62439 -1.70572 0
M  V30 5660 C 555.339 -3.9647 -2.29294 0
M  V30 5661 N 556.83 -3.98159 -2.36692 0
M  V30 5662 C 557.565 -4.98647 -2.83088 0
M  V30 5663 N 557.061 -6.0953 -3.2931 0
M  V30 5664 N 558.854 -4.8602 -2.82384 0
M  V30 5665 H 551.005 -2.12267 -0.075048 0
M  V30 5666 H 553.268 -0.943136 -0.0959066 0
M  V30 5667 H 552.974 -3.38926 -0.939249 0
M  V30 5668 H 552.848 -2.75905 -2.57208 0
M  V30 5669 H 555.235 -1.79401 -2.34306 0
M  V30 5670 H 555.316 -2.45885 -0.705297 0
M  V30 5671 H 554.96 -4.79942 -1.66186 0
M  V30 5672 H 554.89 -4.10349 -3.30032 0
M  V30 5673 H 557.381 -3.18085 -2.04035 0
M  V30 5674 H 557.694 -6.82106 -3.6325 0
M  V30 5675 H 556.039 -6.1311 -3.27294 0
M  V30 5676 H 559.23 -3.98493 -2.45603 0
M  V30 5677 H 559.403 -5.64478 -3.18226 0
M  V30 5678 N 552.809 0.956637 -1.25245 0
M  V30 5679 C 553.757 2.0743 -1.0524 0
M  V30 5680 C 554.751 1.69392 0.0160725 0
M  V30 5681 O 555.957 1.7946 -0.139382 0
M  V30 5682 H 552.332 0.678921 -0.323373 0
M  V30 5683 H 554.303 2.2146 -1.99995 0
M  V30 5684 C 553.052 3.40872 -0.685702 0
M  V30 5685 H 552.375 3.70607 -1.49968 0
M  V30 5686 H 553.815 4.19939 -0.585415 0
M  V30 5687 C 552.274 3.31367 0.608082 0
M  V30 5688 O 552.804 3.66214 1.65076 0
M  V30 5689 N 551.01 2.84486 0.592955 0
M  V30 5690 H 550.557 2.56326 -0.25592 0
M  V30 5691 H 550.515 2.78509 1.45877 0
M  V30 5692 N 554.287 1.06798 1.15896 0
M  V30 5693 C 555.217 0.704677 2.22613 0
M  V30 5694 C 556.198 -0.305252 1.67339 0
M  V30 5695 O 557.383 -0.179247 1.93371 0
M  V30 5696 C 554.513 0.0957325 3.47168 0
M  V30 5697 C 553.467 1.0322 4.15367 0
M  V30 5698 C 552.793 0.286293 5.33933 0
M  V30 5699 C 554.093 2.36341 4.65768 0
M  V30 5700 H 555.787 1.59688 2.53259 0
M  V30 5701 H 553.333 0.769257 1.21731 0
M  V30 5702 H 555.286 -0.170333 4.21056 0
M  V30 5703 H 554.01 -0.831516 3.15838 0
M  V30 5704 H 552.669 1.28309 3.43413 0
M  V30 5705 H 552.317 -0.644237 4.98857 0
M  V30 5706 H 552.017 0.910436 5.80504 0
M  V30 5707 H 553.541 0.0278938 6.10594 0
M  V30 5708 H 554.955 2.1561 5.31211 0
M  V30 5709 H 553.352 2.94299 5.2298 0
M  V30 5710 H 554.422 2.99047 3.81705 0
M  V30 5711 N 555.766 -1.3263 0.851289 0
M  V30 5712 C 557.182 -1.50162 0.5407 0
M  V30 5713 C 557.382 -1.78788 -0.929369 0
M  V30 5714 O 556.438 -1.85545 -1.71258 0
M  V30 5715 C 557.751 -2.64803 1.42478 0
M  V30 5716 C 559.299 -2.78688 1.42485 0
M  V30 5717 C 559.774 -3.96405 2.29407 0
M  V30 5718 N 561.265 -4.0366 2.27184 0
M  V30 5719 C 562 -4.93971 2.9117 0
M  V30 5720 N 561.496 -5.89313 3.64256 0
M  V30 5721 N 563.289 -4.87066 2.80576 0
M  V30 5722 H 555.44 -1.12315 1.80275 0
M  V30 5723 H 557.703 -0.553266 0.769806 0
M  V30 5724 H 557.409 -2.50368 2.46999 0
M  V30 5725 H 557.283 -3.60506 1.10974 0
M  V30 5726 H 559.67 -2.92547 0.387304 0
M  V30 5727 H 559.751 -1.83708 1.78002 0
M  V30 5728 H 559.395 -3.83304 3.33228 0
M  V30 5729 H 559.325 -4.90654 1.91224 0
M  V30 5730 H 561.816 -3.35435 1.74045 0
M  V30 5731 H 562.129 -6.54913 4.10255 0
M  V30 5732 H 560.474 -5.8935 3.68364 0
M  V30 5733 H 563.665 -4.11552 2.23031 0
M  V30 5734 H 563.838 -5.57248 3.30725 0
M  V30 5735 N 557.244 -0.608902 -1.45362 0
M  V30 5736 C 558.176 0.147318 -2.28726 0
M  V30 5737 C 559.189 0.830468 -1.40025 0
M  V30 5738 O 560.378 0.695636 -1.64387 0
M  V30 5739 C 557.478 1.22968 -3.15804 0
M  V30 5740 C 556.651 0.633391 -4.3279 0
M  V30 5741 C 555.71 1.60682 -5.01067 0
M  V30 5742 O 554.736 1.13261 -5.57818 0
M  V30 5743 N 555.938 2.94123 -5.00472 0
M  V30 5744 H 558.703 -0.568014 -2.94268 0
M  V30 5745 H 556.264 -0.448479 -1.55564 0
M  V30 5746 H 558.256 1.88072 -3.58345 0
M  V30 5747 H 556.826 1.84752 -2.52162 0
M  V30 5748 H 556.046 -0.195762 -3.93714 0
M  V30 5749 H 557.334 0.215255 -5.08344 0
M  V30 5750 H 556.732 3.3525 -4.55657 0
M  V30 5751 H 555.289 3.54646 -5.46872 0
M  V30 5752 N 558.722 1.53707 -0.348139 0
M  V30 5753 C 559.672 2.2193 0.522592 0
M  V30 5754 C 560.656 1.20831 1.06248 0
M  V30 5755 O 561.848 1.46357 0.995415 0
M  V30 5756 C 558.977 2.99904 1.6707 0
M  V30 5757 C 558.063 4.08364 1.14454 0
M  V30 5758 N 558.454 5.04656 0.339958 0
M  V30 5759 C 556.752 4.22757 1.421 0
M  V30 5760 C 557.453 5.81675 0.0538806 0
M  V30 5761 N 556.429 5.39739 0.646776 0
M  V30 5762 H 560.231 2.93733 -0.099135 0
M  V30 5763 H 557.745 1.61656 -0.15524 0
M  V30 5764 H 559.742 3.47284 2.30651 0
M  V30 5765 H 558.402 2.29629 2.29566 0
M  V30 5766 H 559.413 5.17896 -0.0193552 0
M  V30 5767 H 556.09 3.63704 2.05002 0
M  V30 5768 H 557.48 6.69256 -0.595443 0
M  V30 5769 N 560.2 0.0768682 1.57412 0
M  V30 5770 C 561.425 -0.603404 1.98428 0
M  V30 5771 C 561.85 -1.62047 0.955108 0
M  V30 5772 O 561.208 -1.81129 -0.0786778 0
M  V30 5773 C 561.256 -1.24396 3.38464 0
M  V30 5774 O 560.36 -2.35982 3.3821 0
M  V30 5775 H 559.701 -0.154741 0.645718 0
M  V30 5776 H 562.231 0.152885 2.04028 0
M  V30 5777 H 562.241 -1.5896 3.7576 0
M  V30 5778 H 560.916 -0.498735 4.12899 0
M  V30 5779 H 559.493 -2.03173 3.1269 0
M  V30 5780 N 561.678 -1.56367 -0.196722 0
M  V30 5781 C 562.926 -1.80172 -0.915554 0
M  V30 5782 C 563.247 -0.649649 -1.8386 0
M  V30 5783 O 562.517 0.332111 -1.93064 0
M  V30 5784 H 561.097 -0.664592 -0.341067 0
M  V30 5785 H 563.759 -1.93844 -0.202622 0
M  V30 5786 H 562.855 -2.7327 -1.50764 0
M  V30 5787 N 563.156 0.464375 -1.50603 0
M  V30 5788 C 564.405 1.21277 -1.61167 0
M  V30 5789 C 564.718 1.92953 -0.320704 0
M  V30 5790 O 565.924 2.69778 -0.30534 0
M  V30 5791 C 564.38 2.20403 -2.84518 0
M  V30 5792 C 563.988 1.54499 -4.20516 0
M  V30 5793 C 565.732 2.95843 -3.0443 0
M  V30 5794 C 563.639 2.51951 -5.35047 0
M  V30 5795 H 562.569 0.456367 -0.600204 0
M  V30 5796 H 565.22 0.48254 -1.77042 0
M  V30 5797 H 563.602 2.96746 -2.62217 0
M  V30 5798 H 564.776 0.83899 -4.53098 0
M  V30 5799 H 563.091 0.913152 -4.06264 0
M  V30 5800 H 565.688 3.6879 -3.87167 0
M  V30 5801 H 566.031 3.55622 -2.16423 0
M  V30 5802 H 566.564 2.26611 -3.26944 0
M  V30 5803 H 563.303 1.96901 -6.25228 0
M  V30 5804 H 562.823 3.20683 -5.06875 0
M  V30 5805 H 564.502 3.13643 -5.65895 0
M  V30 5806 N 564.634 1.40294 0.718013 0
M  V30 5807 C 565.882 1.38167 1.47494 0
M  V30 5808 C 566.203 -0.01607 1.94993 0
M  V30 5809 O 565.473 -0.970396 1.70177 0
M  V30 5810 H 564.053 0.508505 0.547203 0
M  V30 5811 H 566.715 1.75324 0.851322 0
M  V30 5812 H 565.811 2.05503 2.34894 0
M  V30 5813 N 566.112 -0.949982 1.2575 0
M  V30 5814 C 567.062 -2.03297 1.03221 0
M  V30 5815 C 568.046 -1.60867 -0.0324751 0
M  V30 5816 O 569.238 -1.76047 0.183423 0
M  V30 5817 C 566.367 -3.36938 0.657841 0
M  V30 5818 C 565.453 -3.85878 1.75952 0
M  V30 5819 N 565.844 -4.0756 2.99547 0
M  V30 5820 C 564.142 -4.14709 1.64111 0
M  V30 5821 C 564.843 -4.47961 3.71087 0
M  V30 5822 N 563.819 -4.5416 2.98731 0
M  V30 5823 H 567.621 -2.1806 1.97045 0
M  V30 5824 H 565.135 -1.13516 1.16138 0
M  V30 5825 H 567.132 -4.14155 0.477614 0
M  V30 5826 H 565.792 -3.2355 -0.273025 0
M  V30 5827 H 566.803 -3.94501 3.35544 0
M  V30 5828 H 563.48 -4.10158 0.779527 0
M  V30 5829 H 564.87 -4.73002 4.77199 0
M  V30 5830 N 567.59 -1.07411 -1.15328 0
M  V30 5831 C 568.553 -0.698914 -2.18284 0
M  V30 5832 C 569.553 0.261149 -1.58665 0
M  V30 5833 O 570.743 0.0420277 -1.74149 0
M  V30 5834 C 567.875 -0.0302427 -3.40887 0
M  V30 5835 H 569.068 -1.61045 -2.52991 0
M  V30 5836 H 566.621 -0.870724 -1.298 0
M  V30 5837 H 567.356 0.893505 -3.11748 0
M  V30 5838 H 567.141 -0.720759 -3.85419 0
M  V30 5839 H 568.631 0.21759 -4.17033 0
M  V30 5840 N 569.068 1.32177 -0.85831 0
M  V30 5841 C 570.001 2.26823 -0.25035 0
M  V30 5842 C 570.979 1.50571 0.61378 0
M  V30 5843 O 572.163 1.79682 0.569777 0
M  V30 5844 C 569.29 3.32472 0.646556 0
M  V30 5845 C 568.336 4.26255 -0.144675 0
M  V30 5846 S 569.169 5.13608 -1.5155 0
M  V30 5847 C 570.325 6.22778 -0.624408 0
M  V30 5848 H 570.558 2.7804 -1.05267 0
M  V30 5849 H 568.091 1.39764 -0.656152 0
M  V30 5850 H 570.049 3.93817 1.15837 0
M  V30 5851 H 568.71 2.80031 1.42272 0
M  V30 5852 H 567.903 5.01114 0.538613 0
M  V30 5853 H 567.505 3.69346 -0.588198 0
M  V30 5854 H 569.797 6.77287 0.169846 0
M  V30 5855 H 570.74 6.95233 -1.34376 0
M  V30 5856 H 571.148 5.64156 -0.197128 0
M  V30 5857 N 570.547 0.616602 1.45037 0
M  V30 5858 C 571.793 0.115501 2.02471 0
M  V30 5859 C 572.126 -1.25406 1.4828 0
M  V30 5860 O 571.401 -1.82922 0.661051 0
M  V30 5861 C 571.684 0.0863588 3.59996 0
M  V30 5862 C 571.537 1.48723 4.24501 0
M  V30 5863 C 572.856 -0.596762 4.36035 0
M  V30 5864 H 569.975 0.0434461 0.735718 0
M  V30 5865 H 572.617 0.7903 1.72784 0
M  V30 5866 H 570.767 -0.488277 3.85419 0
M  V30 5867 H 572.439 2.10964 4.10234 0
M  V30 5868 H 570.682 2.04534 3.82555 0
M  V30 5869 H 571.353 1.419 5.3345 0
M  V30 5870 H 573.829 -0.10824 4.15959 0
M  V30 5871 H 572.705 -0.586289 5.4576 0
M  V30 5872 H 572.966 -1.66451 4.09569 0
M  V30 5873 N 572.025 -1.5352 0.356285 0
M  V30 5874 C 573.253 -2.05534 -0.237328 0
M  V30 5875 C 573.668 -1.23043 -1.43199 0
M  V30 5876 O 573.025 -0.268821 -1.80509 0
M  V30 5877 C 573.076 -3.55791 -0.639933 0
M  V30 5878 O 572.797 -4.35154 0.507233 0
M  V30 5879 C 574.298 -4.24027 -1.29292 0
M  V30 5880 H 571.518 -0.669585 -0.0435572 0
M  V30 5881 H 574.062 -1.97988 0.511963 0
M  V30 5882 H 572.217 -3.63518 -1.33915 0
M  V30 5883 H 572.631 -5.24178 0.18375 0
M  V30 5884 H 574.105 -5.30509 -1.52527 0
M  V30 5885 H 574.582 -3.77166 -2.25039 0
M  V30 5886 H 575.188 -4.20527 -0.63539 0
M  V30 5887 N 573.503 -0.0852151 -1.57369 0
M  V30 5888 C 574.752 0.580443 -1.93168 0
M  V30 5889 C 575.065 1.6995 -0.968319 0
M  V30 5890 O 576.271 2.42564 -1.21963 0
M  V30 5891 C 574.727 1.08386 -3.43192 0
M  V30 5892 C 574.335 -0.00491388 -4.48 0
M  V30 5893 C 576.079 1.72281 -3.87968 0
M  V30 5894 C 573.986 0.513299 -5.89168 0
M  V30 5895 H 572.916 0.22059 -0.72101 0
M  V30 5896 H 575.567 -0.159621 -1.82804 0
M  V30 5897 H 573.949 1.8773 -3.48674 0
M  V30 5898 H 575.123 -0.780032 -4.5415 0
M  V30 5899 H 573.438 -0.548453 -4.12772 0
M  V30 5900 H 576.035 2.12108 -4.9083 0
M  V30 5901 H 576.378 2.58811 -3.26071 0
M  V30 5902 H 576.911 0.995359 -3.85146 0
M  V30 5903 H 573.65 -0.315153 -6.54742 0
M  V30 5904 H 573.17 1.25564 -5.8651 0
M  V30 5905 H 574.849 0.985433 -6.39451 0
M  V30 5906 N 574.981 1.5647 0.188427 0
M  V30 5907 C 576.206 1.85486 0.927891 0
M  V30 5908 C 576.631 0.669575 1.75779 0
M  V30 5909 O 575.989 -0.381573 1.77239 0
M  V30 5910 C 576.037 3.12784 1.7944 0
M  V30 5911 O 575.141 2.93805 2.894 0
M  V30 5912 H 574.482 0.610585 0.260925 0
M  V30 5913 H 577.012 2.037 0.191729 0
M  V30 5914 H 577.022 3.43749 2.19774 0
M  V30 5915 H 575.697 3.98671 1.18468 0
M  V30 5916 H 574.274 2.74153 2.52774 0
M  V30 5917 N 576.459 -0.456382 1.50847 0
M  V30 5918 C 577.705 -1.20914 1.62811 0
M  V30 5919 C 578.038 -1.91301 0.334304 0
M  V30 5920 O 577.313 -1.82775 -0.665098 0
M  V30 5921 C 577.596 -2.24122 2.81853 0
M  V30 5922 C 577.449 -1.57944 4.21158 0
M  V30 5923 C 578.768 -3.25295 2.96431 0
M  V30 5924 H 575.887 -0.438233 0.592554 0
M  V30 5925 H 578.529 -0.50091 1.83278 0
M  V30 5926 H 576.679 -2.84524 2.64534 0
M  V30 5927 H 578.351 -1.01025 4.50102 0
M  V30 5928 H 576.594 -0.882185 4.24735 0
M  V30 5929 H 577.265 -2.33014 5.00408 0
M  V30 5930 H 579.741 -2.7493 3.12335 0
M  V30 5931 H 578.617 -3.94822 3.81322 0
M  V30 5932 H 578.878 -3.90286 2.07676 0
M  V30 5933 N 577.937 -1.40673 -0.710563 0
M  V30 5934 C 579.214 -1.29718 -1.46398 0
M  V30 5935 C 579.594 0.082177 -2.1094 0
M  V30 5936 O 578.942 1.09536 -2.00534 0
M  V30 5937 C 579.152 -2.43967 -2.49562 0
M  V30 5938 C 580.5 -2.84436 -3.15248 0
M  V30 5939 O 581.524 -2.43597 -2.59883 0
M  V30 5940 O 580.383 -3.55008 -4.1549 0
M  V30 5941 H 577.477 -0.509697 -0.651258 0
M  V30 5942 H 580.023 -1.52603 -0.742312 0
M  V30 5943 H 578.795 -3.36076 -2.0042 0
M  V30 5944 H 578.418 -2.22879 -3.29258 0
M  V30 5945 N 579.415 0.9433 -1.26252 0
M  V30 5946 C 580.663 1.68592 -1.11451 0
M  V30 5947 C 580.984 1.91957 0.343123 0
M  V30 5948 O 580.254 1.51475 1.24226 0
M  V30 5949 H 578.834 0.624789 -0.409448 0
M  V30 5950 H 581.496 1.13351 -1.58548 0
M  V30 5951 H 580.592 2.66054 -1.63162 0
M  V30 5952 N 580.893 1.08022 1.14757 0
M  V30 5953 C 582.142 0.802468 1.8505 0
M  V30 5954 C 582.455 -0.674061 1.83619 0
M  V30 5955 O 583.661 -1.06683 2.49662 0
M  V30 5956 C 582.117 1.38551 3.32162 0
M  V30 5957 C 581.725 2.89354 3.42021 0
M  V30 5958 C 583.469 1.18608 4.07594 0
M  V30 5959 C 581.376 3.40815 4.83321 0
M  V30 5960 H 580.306 0.296518 0.693248 0
M  V30 5961 H 582.957 1.30114 1.29393 0
M  V30 5962 H 581.339 0.814556 3.87532 0
M  V30 5963 H 582.513 3.52552 2.96722 0
M  V30 5964 H 580.828 3.08165 2.80041 0
M  V30 5965 H 583.425 1.54525 5.11885 0
M  V30 5966 H 583.768 0.125599 4.1611 0
M  V30 5967 H 584.301 1.72375 3.58513 0
M  V30 5968 H 581.04 4.46418 4.79991 0
M  V30 5969 H 580.56 2.82374 5.29174 0
M  V30 5970 H 582.239 3.37171 5.522 0
M  V30 5971 N 582.371 -1.3172 0.865308 0
M  V30 5972 C 583.301 -2.31109 0.333302 0
M  V30 5973 C 584.282 -1.60148 -0.573301 0
M  V30 5974 O 585.467 -1.87882 -0.491305 0
M  V30 5975 C 582.597 -3.44104 -0.470078 0
M  V30 5976 C 581.551 -4.26623 0.343021 0
M  V30 5977 C 580.877 -5.31482 -0.585756 0
M  V30 5978 C 582.177 -4.98001 1.57456 0
M  V30 5979 H 583.871 -2.75855 1.1638 0
M  V30 5980 H 581.417 -1.3262 0.561069 0
M  V30 5981 H 583.37 -4.12682 -0.852752 0
M  V30 5982 H 582.094 -2.98112 -1.33404 0
M  V30 5983 H 580.753 -3.59707 0.707583 0
M  V30 5984 H 580.401 -4.81741 -1.44686 0
M  V30 5985 H 580.101 -5.87582 -0.0456494 0
M  V30 5986 H 581.625 -6.0292 -0.965375 0
M  V30 5987 H 583.039 -5.59201 1.26359 0
M  V30 5988 H 581.436 -5.63876 2.05339 0
M  V30 5989 H 582.506 -4.25253 2.32997 0
M  V30 5990 N 583.85 -0.624285 -1.44708 0
M  V30 5991 C 585.077 -0.132919 -2.06473 0
M  V30 5992 C 585.493 1.18967 -1.46602 0
M  V30 5993 O 584.85 1.72824 -0.586341 0
M  V30 5994 C 584.901 -0.00465418 -3.615 0
M  V30 5995 O 584.622 -1.27494 -4.19138 0
M  V30 5996 C 586.123 0.516213 -4.40284 0
M  V30 5997 H 583.343 -0.0765201 -0.666623 0
M  V30 5998 H 585.887 -0.856751 -1.85688 0
M  V30 5999 H 584.042 0.669583 -3.8157 0
M  V30 6000 H 584.456 -1.11536 -5.12504 0
M  V30 6001 H 585.93 0.554994 -5.49203 0
M  V30 6002 H 586.407 1.5419 -4.11245 0
M  V30 6003 H 587.013 -0.124542 -4.25118 0
M  V30 6004 N 585.328 1.53329 -0.364422 0
M  V30 6005 C 586.556 2.05657 0.226424 0
M  V30 6006 C 586.971 1.23801 1.42544 0
M  V30 6007 O 586.328 0.27839 1.80364 0
M  V30 6008 C 586.379 3.56125 0.621056 0
M  V30 6009 O 586.1 4.34879 -0.530304 0
M  V30 6010 C 587.601 4.24706 1.27041 0
M  V30 6011 H 584.821 0.669806 0.0400056 0
M  V30 6012 H 587.365 1.97714 -0.522456 0
M  V30 6013 H 585.52 3.64223 1.31985 0
M  V30 6014 H 585.934 5.24073 -0.211546 0
M  V30 6015 H 587.408 5.3131 1.49711 0
M  V30 6016 H 587.885 3.78354 2.23036 0
M  V30 6017 H 588.491 4.20858 0.613079 0
M  V30 6018 N 586.806 0.0935595 1.57322 0
M  V30 6019 C 588.034 -0.578934 1.98635 0
M  V30 6020 C 588.449 -1.61819 0.972626 0
M  V30 6021 O 587.806 -1.82461 -0.0379638 0
M  V30 6022 C 587.857 -1.22802 3.40003 0
M  V30 6023 O 587.578 -0.230334 4.37494 0
M  V30 6024 C 589.079 -1.98627 3.96311 0
M  V30 6025 H 586.299 -0.155324 0.652775 0
M  V30 6026 H 588.843 0.172393 2.03772 0
M  V30 6027 H 586.998 -1.93029 3.35885 0
M  V30 6028 H 587.412 -0.698649 5.19826 0
M  V30 6029 H 588.886 -2.39405 4.97382 0
M  V30 6030 H 589.363 -2.85151 3.34044 0
M  V30 6031 H 589.969 -1.3322 4.03897 0
M  V30 6032 N 588.284 -1.56567 -0.180126 0
M  V30 6033 C 589.532 -1.81133 -0.896392 0
M  V30 6034 C 589.853 -0.669114 -1.83161 0
M  V30 6035 O 589.123 0.311616 -1.93406 0
M  V30 6036 H 587.703 -0.668172 -0.333999 0
M  V30 6037 H 590.365 -1.94048 -0.182051 0
M  V30 6038 H 589.461 -2.74854 -1.47857 0
M  V30 6039 N 589.762 0.448376 -1.51087 0
M  V30 6040 C 590.992 1.21965 -1.66757 0
M  V30 6041 C 591.4 1.85748 -0.359753 0
M  V30 6042 O 590.743 1.71022 0.670604 0
M  V30 6043 C 590.805 2.35284 -2.71812 0
M  V30 6044 C 590.469 1.91957 -4.1473 0
M  V30 6045 C 591.466 1.42921 -4.9987 0
M  V30 6046 C 589.151 1.99985 -4.60772 0
M  V30 6047 C 591.145 1.02485 -6.29107 0
M  V30 6048 C 588.832 1.5916 -5.90009 0
M  V30 6049 C 589.83 1.10491 -6.74004 0
M  V30 6050 O 589.518 0.702413 -8.00825 0
M  V30 6051 H 589.25 0.374125 -0.563034 0
M  V30 6052 H 591.804 0.538927 -1.98204 0
M  V30 6053 H 590.034 3.06599 -2.35657 0
M  V30 6054 H 591.723 2.97184 -2.76472 0
M  V30 6055 H 592.489 1.36123 -4.65506 0
M  V30 6056 H 588.368 2.36814 -3.95525 0
M  V30 6057 H 591.912 0.644271 -6.94619 0
M  V30 6058 H 587.809 1.65626 -6.2389 0
M  V30 6059 H 588.577 0.829248 -8.14288 0
M  V30 6060 N 591.24 1.41047 0.703093 0
M  V30 6061 C 592.468 1.4334 1.49202 0
M  V30 6062 C 592.883 0.0365596 1.88765 0
M  V30 6063 O 592.24 -0.942419 1.56284 0
M  V30 6064 C 592.291 2.33538 2.75939 0
M  V30 6065 O 592.012 3.67786 2.38045 0
M  V30 6066 C 593.513 2.44555 3.6974 0
M  V30 6067 H 590.733 0.488472 0.460039 0
M  V30 6068 H 593.277 1.85245 0.86629 0
M  V30 6069 H 591.432 1.94962 3.34766 0
M  V30 6070 H 591.846 4.15816 3.19683 0
M  V30 6071 H 593.32 3.11849 4.55471 0
M  V30 6072 H 593.797 1.47447 4.1371 0
M  V30 6073 H 594.403 2.83735 3.16819 0
M  V30 6074 N 592.718 -0.936591 1.26751 0
M  V30 6075 C 593.65 -2.03991 1.045 0
M  V30 6076 C 594.663 -1.628 0.00394261 0
M  V30 6077 O 595.852 -1.76817 0.244526 0
M  V30 6078 C 592.952 -3.34218 0.561403 0
M  V30 6079 C 592.125 -4.04151 1.67274 0
M  V30 6080 C 591.184 -5.12651 1.1864 0
M  V30 6081 O 590.21 -5.37104 1.88437 0
M  V30 6082 N 591.412 -5.80488 0.037278 0
M  V30 6083 H 594.177 -2.23644 1.99508 0
M  V30 6084 H 591.738 -1.10638 1.18198 0
M  V30 6085 H 593.73 -4.04101 0.220136 0
M  V30 6086 H 592.3 -3.11203 -0.295211 0
M  V30 6087 H 591.52 -3.28121 2.18472 0
M  V30 6088 H 592.808 -4.47626 2.41885 0
M  V30 6089 H 592.206 -5.63064 -0.545494 0
M  V30 6090 H 590.763 -6.5134 -0.244877 0
M  V30 6091 N 594.196 -1.08629 -1.14182 0
M  V30 6092 C 595.106 -0.730126 -2.22949 0
M  V30 6093 C 596.122 0.26436 -1.7198 0
M  V30 6094 O 597.298 0.107742 -2.01112 0
M  V30 6095 C 594.363 -0.147227 -3.46387 0
M  V30 6096 C 593.424 -1.19662 -4.12286 0
M  V30 6097 C 592.657 -0.641437 -5.29831 0
M  V30 6098 O 592.88 0.538351 -5.67854 0
M  V30 6099 O 591.814 -1.39257 -5.85569 0
M  V30 6100 H 595.64 -1.63753 -2.55771 0
M  V30 6101 H 593.225 -0.860118 -1.22157 0
M  V30 6102 H 595.107 0.174923 -4.21037 0
M  V30 6103 H 593.782 0.733304 -3.15285 0
M  V30 6104 H 592.689 -1.57133 -3.395 0
M  V30 6105 H 594.022 -2.0495 -4.475 0
M  V30 6106 N 595.674 1.31259 -0.872281 0
M  V30 6107 C 596.951 1.91362 -0.404943 0
M  V30 6108 C 597.331 1.79362 1.11321 0
M  V30 6109 O 596.679 1.20277 1.94283 0
M  V30 6110 C 596.889 3.3749 -0.888893 0
M  V30 6111 C 598.237 4.14593 -0.916384 0
M  V30 6112 O 599.261 3.46282 -0.834701 0
M  V30 6113 O 598.12 5.3661 -1.03498 0
M  V30 6114 H 595.214 0.818016 -0.121569 0
M  V30 6115 H 597.76 1.39912 -0.960346 0
M  V30 6116 H 596.532 3.40249 -1.93251 0
M  V30 6117 H 596.155 3.96375 -0.311932 0
M  V30 6118 N 597.152 0.631951 1.44375 0
M  V30 6119 C 598.382 0.143658 2.061 0
M  V30 6120 C 598.79 -1.18733 1.47306 0
M  V30 6121 O 598.133 -1.73943 0.590724 0
M  V30 6122 C 598.195 -0.0446102 3.59472 0
M  V30 6123 C 597.859 1.20835 4.40736 0
M  V30 6124 C 598.856 2.13224 4.74164 0
M  V30 6125 C 596.541 1.44399 4.81097 0
M  V30 6126 C 598.535 3.27487 5.46838 0
M  V30 6127 C 596.222 2.58959 5.53519 0
M  V30 6128 C 597.22 3.50329 5.86309 0
M  V30 6129 O 596.908 4.62891 6.57257 0
M  V30 6130 H 596.64 0.0772939 0.671567 0
M  V30 6131 H 599.194 0.866677 1.8622 0
M  V30 6132 H 597.424 -0.822783 3.77845 0
M  V30 6133 H 599.113 -0.487561 4.02961 0
M  V30 6134 H 599.879 1.96253 4.4352 0
M  V30 6135 H 595.758 0.741696 4.54994 0
M  V30 6136 H 599.302 3.98826 5.72349 0
M  V30 6137 H 595.199 2.75873 5.83579 0
M  V30 6138 H 595.967 4.61883 6.75726 0
M  V30 6139 N 598.631 -1.53133 0.372548 0
M  V30 6140 C 599.859 -2.05774 -0.215515 0
M  V30 6141 C 600.274 -1.24555 -1.41886 0
M  V30 6142 O 599.631 -0.287951 -1.80214 0
M  V30 6143 C 599.682 -3.5645 -0.602161 0
M  V30 6144 O 599.403 -4.34591 0.553359 0
M  V30 6145 C 600.904 -4.25374 -1.24787 0
M  V30 6146 H 598.124 -0.670009 -0.0364529 0
M  V30 6147 H 600.668 -1.97434 0.532934 0
M  V30 6148 H 598.823 -3.64918 -1.30052 0
M  V30 6149 H 599.237 -5.23954 0.239336 0
M  V30 6150 H 600.711 -5.32097 -1.46891 0
M  V30 6151 H 601.188 -3.79531 -2.21026 0
M  V30 6152 H 601.794 -4.21177 -0.590752 0
M  V30 6153 N 600.109 -0.101901 -1.5727 0
M  V30 6154 C 601.042 0.891377 -2.10071 0
M  V30 6155 C 602.02 1.27197 -1.01291 0
M  V30 6156 O 603.204 1.37602 -1.28833 0
M  V30 6157 C 600.331 2.19049 -2.58331 0
M  V30 6158 C 599.377 1.95925 -3.78834 0
M  V30 6159 S 600.21 1.19106 -5.22086 0
M  V30 6160 C 601.366 2.50234 -5.73702 0
M  V30 6161 H 601.599 0.442212 -2.93993 0
M  V30 6162 H 599.132 0.111529 -1.53997 0
M  V30 6163 H 601.09 2.937 -2.86793 0
M  V30 6164 H 599.751 2.61086 -1.74622 0
M  V30 6165 H 598.944 2.92143 -4.10693 0
M  V30 6166 H 598.546 1.29401 -3.50901 0
M  V30 6167 H 600.838 3.46173 -5.82384 0
M  V30 6168 H 601.781 2.22944 -6.72088 0
M  V30 6169 H 602.189 2.58818 -5.01671 0
M  V30 6170 N 601.587 1.56661 0.17182 0
M  V30 6171 C 602.517 1.99401 1.21498 0
M  V30 6172 C 603.498 0.869516 1.46197 0
M  V30 6173 O 604.683 1.13556 1.57539 0
M  V30 6174 C 601.813 2.35346 2.55401 0
M  V30 6175 C 600.767 3.5075 2.45272 0
M  V30 6176 C 600.093 3.72437 3.8366 0
M  V30 6177 C 601.393 4.84216 1.95787 0
M  V30 6178 H 603.087 2.86792 0.859699 0
M  V30 6179 H 600.633 1.37977 0.412103 0
M  V30 6180 H 602.586 2.63843 3.2858 0
M  V30 6181 H 601.31 1.44864 2.92715 0
M  V30 6182 H 599.969 3.2238 1.74547 0
M  V30 6183 H 599.617 2.79246 4.18367 0
M  V30 6184 H 599.317 4.50087 3.77751 0
M  V30 6185 H 600.841 4.03334 4.58426 0
M  V30 6186 H 602.255 5.11592 2.5874 0
M  V30 6187 H 600.652 5.65498 2.00827 0
M  V30 6188 H 601.722 4.76243 0.912159 0
M  V30 6189 N 603.065 -0.440357 1.51323 0
M  V30 6190 C 604.313 -1.18769 1.63518 0
M  V30 6191 C 604.634 -1.91793 0.352201 0
M  V30 6192 O 603.904 -1.85432 -0.631811 0
M  V30 6193 H 602.484 -0.441408 0.602634 0
M  V30 6194 H 605.146 -0.505162 1.8824 0
M  V30 6195 H 604.242 -1.91892 2.46138 0
M  V30 6196 N 604.543 -1.41418 -0.695603 0
M  V30 6197 C 605.768 -1.44329 -1.48942 0
M  V30 6198 C 606.193 -0.0501579 -1.88033 0
M  V30 6199 O 605.551 0.946598 -1.54626 0
M  V30 6200 C 605.599 -2.3578 -2.72837 0
M  V30 6201 O 604.703 -1.81482 -3.70322 0
M  V30 6202 H 604.044 -0.489838 -0.44828 0
M  V30 6203 H 606.574 -1.85878 -0.855014 0
M  V30 6204 H 606.584 -2.51654 -3.21145 0
M  V30 6205 H 605.259 -3.37005 -2.43722 0
M  V30 6206 H 603.836 -1.75058 -3.29255 0
M  V30 6207 N 606.021 0.929856 -1.27246 0
M  V30 6208 C 607.298 1.65544 -1.04186 0
M  V30 6209 C 607.678 2.06796 0.424097 0
M  V30 6210 O 607.026 1.80053 1.40688 0
M  V30 6211 C 607.236 2.85912 -2.00138 0
M  V30 6212 C 608.584 3.57305 -2.29387 0
M  V30 6213 O 609.608 2.96036 -1.98094 0
M  V30 6214 O 608.467 4.67688 -2.82719 0
M  V30 6215 H 605.561 0.725473 -0.397011 0
M  V30 6216 H 608.107 0.980583 -1.38501 0
M  V30 6217 H 606.879 2.52403 -2.99013 0
M  V30 6218 H 606.502 3.61118 -1.66371 0
M  V30 6219 N 607.499 1.09233 1.13605 0
M  V30 6220 C 608.776 0.739633 1.81077 0
M  V30 6221 C 609.156 -0.775595 1.96336 0
M  V30 6222 O 608.504 -1.69726 1.52988 0
M  V30 6223 C 608.714 1.47636 3.16235 0
M  V30 6224 C 610.062 1.64087 3.91613 0
M  V30 6225 O 611.086 1.43871 3.25852 0
M  V30 6226 O 609.945 1.97511 5.0956 0
M  V30 6227 H 607.039 0.265464 0.783236 0
M  V30 6228 H 609.585 1.19441 1.20549 0
M  V30 6229 H 608.357 2.50818 3.00344 0
M  V30 6230 H 607.98 1.01362 3.84462 0
M  V30 6231 N 608.977 -1.30795 0.87923 0
M  V30 6232 C 610.224 -1.96362 0.494786 0
M  V30 6233 C 610.552 -1.69448 -0.954868 0
M  V30 6234 O 609.807 -0.988711 -1.68888 0
M  V30 6235 C 610.106 -3.50287 0.709476 0
M  V30 6236 C 609.772 -3.9724 2.13333 0
M  V30 6237 C 608.434 -4.09772 2.52271 0
M  V30 6238 C 610.786 -4.21807 3.06151 0
M  V30 6239 C 608.114 -4.44227 3.83248 0
M  V30 6240 C 610.466 -4.5773 4.36654 0
M  V30 6241 C 609.13 -4.68469 4.75492 0
M  V30 6242 H 608.4 -0.71854 0.181055 0
M  V30 6243 H 611.047 -1.55764 1.11399 0
M  V30 6244 H 609.352 -3.91799 0.0072 0
M  V30 6245 H 611.049 -3.99082 0.391703 0
M  V30 6246 H 607.639 -3.87988 1.82107 0
M  V30 6247 H 611.823 -4.11611 2.77291 0
M  V30 6248 H 607.079 -4.50741 4.13089 0
M  V30 6249 H 611.253 -4.7569 5.08617 0
M  V30 6250 H 608.88 -4.94923 5.77022 0
M  V30 6251 N 610.455 -0.639598 -1.44038 0
M  V30 6252 C 611.702 -0.14748 -2.01962 0
M  V30 6253 C 612.03 1.23372 -1.50365 0
M  V30 6254 O 611.285 1.8345 -0.681501 0
M  V30 6255 C 611.584 -0.0925348 -3.5728 0
M  V30 6256 C 611.25 -1.41365 -4.28167 0
M  V30 6257 C 609.912 -1.77545 -4.47248 0
M  V30 6258 C 612.264 -2.2853 -4.68427 0
M  V30 6259 C 609.592 -3.00583 -5.03852 0
M  V30 6260 C 611.944 -3.50846 -5.26393 0
M  V30 6261 C 610.608 -3.8724 -5.43692 0
M  V30 6262 H 609.878 -0.0539666 -0.739032 0
M  V30 6263 H 612.525 -0.827599 -1.72694 0
M  V30 6264 H 610.83 0.670987 -3.86012 0
M  V30 6265 H 612.527 0.304891 -3.99839 0
M  V30 6266 H 609.117 -1.1221 -4.13651 0
M  V30 6267 H 613.301 -2.0187 -4.5339 0
M  V30 6268 H 608.557 -3.28846 -5.15432 0
M  V30 6269 H 612.731 -4.18616 -5.56537 0
M  V30 6270 H 610.358 -4.8266 -5.87319 0
M  V30 6271 N 611.933 1.52934 -0.380664 0
M  V30 6272 C 613.163 2.05587 0.204302 0
M  V30 6273 C 613.571 1.25288 1.41773 0
M  V30 6274 O 612.914 0.290394 1.8139 0
M  V30 6275 C 612.976 3.53624 0.647324 0
M  V30 6276 C 612.64 4.54765 -0.451465 0
M  V30 6277 C 613.637 5.03226 -1.30614 0
M  V30 6278 C 611.322 4.98508 -0.616025 0
M  V30 6279 C 613.316 5.94046 -2.31058 0
M  V30 6280 C 611.003 5.89131 -1.62381 0
M  V30 6281 C 612.001 6.36792 -2.46952 0
M  V30 6282 O 611.689 7.25626 -3.46009 0
M  V30 6283 H 611.421 0.675013 0.0365198 0
M  V30 6284 H 613.975 1.98125 -0.541827 0
M  V30 6285 H 612.205 3.58676 1.44529 0
M  V30 6286 H 613.894 3.89061 1.15698 0
M  V30 6287 H 614.66 4.70167 -1.19027 0
M  V30 6288 H 610.539 4.60989 0.0324987 0
M  V30 6289 H 614.083 6.3117 -2.97104 0
M  V30 6290 H 609.98 6.21603 -1.7401 0
M  V30 6291 H 610.748 7.43664 -3.41916 0
M  V30 6292 N 613.412 0.11024 1.57214 0
M  V30 6293 C 614.658 -0.550684 1.9518 0
M  V30 6294 C 614.991 -1.66885 0.993122 0
M  V30 6295 O 614.266 -1.94479 0.0287907 0
M  V30 6296 C 614.549 -1.09163 3.43155 0
M  V30 6297 C 614.402 0.0225198 4.49794 0
M  V30 6298 C 615.721 -1.98527 3.92778 0
M  V30 6299 H 612.84 -0.198706 0.709708 0
M  V30 6300 H 615.482 0.184024 1.89107 0
M  V30 6301 H 613.632 -1.71775 3.48462 0
M  V30 6302 H 615.304 0.657443 4.56591 0
M  V30 6303 H 613.547 0.686868 4.28328 0
M  V30 6304 H 614.218 -0.39706 5.5057 0
M  V30 6305 H 616.694 -1.458 3.8972 0
M  V30 6306 H 615.57 -2.33298 4.96853 0
M  V30 6307 H 615.831 -2.90846 3.32958 0
M  V30 6308 N 614.89 -1.56749 -0.16351 0
M  V30 6309 C 616.138 -1.82074 -0.87713 0
M  V30 6310 C 616.459 -0.688503 -1.82441 0
M  V30 6311 O 615.729 0.291085 -1.93725 0
M  V30 6312 H 614.309 -0.671677 -0.326893 0
M  V30 6313 H 616.971 -1.9423 -0.161459 0
M  V30 6314 H 616.067 -2.76407 -1.44934 0
M  V30 6315 N 616.368 0.432326 -1.51554 0
M  V30 6316 C 617.616 1.17901 -1.64146 0
M  V30 6317 C 617.937 1.91604 -0.362367 0
M  V30 6318 O 617.207 1.85764 0.621968 0
M  V30 6319 H 615.787 0.438206 -0.604966 0
M  V30 6320 H 618.449 0.495172 -1.88505 0
M  V30 6321 H 617.545 1.90584 -2.47152 0
M  V30 6322 N 617.846 1.41785 0.688094 0
M  V30 6323 C 619.071 1.45117 1.48175 0
M  V30 6324 C 619.496 0.060129 1.88004 0
M  V30 6325 O 618.854 -0.938385 1.55126 0
M  V30 6326 C 618.902 2.37224 2.71583 0
M  V30 6327 O 618.006 1.83443 3.69354 0
M  V30 6328 H 617.347 0.492208 0.445676 0
M  V30 6329 H 619.877 1.86329 0.845145 0
M  V30 6330 H 619.887 2.53353 3.19806 0
M  V30 6331 H 618.562 3.38293 2.41931 0
M  V30 6332 H 617.139 1.76802 3.28322 0
M  V30 6333 N 619.324 -0.923095 1.27737 0
M  V30 6334 C 620.735 -1.48626 1.12993 0
M  V30 6335 C 621.086 -1.94142 -0.283439 0
M  V30 6336 O 620.211 -1.81605 -1.17681 0
M  V30 6337 C 620.806 -2.70117 2.04505 0
M  V30 6338 C 619.365 -3.22642 1.93853 0
M  V30 6339 C 618.512 -1.95368 1.96791 0
M  V30 6340 H 621.463 -0.736737 1.40563 0
M  V30 6341 H 621.484 -3.4506 1.60356 0
M  V30 6342 H 620.996 -2.36959 3.07363 0
M  V30 6343 H 619.097 -3.60549 0.939968 0
M  V30 6344 H 619.21 -3.88525 2.80331 0
M  V30 6345 H 617.574 -2.12061 1.41076 0
M  V30 6346 H 618.357 -1.64517 3.01312 0
M  V30 6347 N 620.802 -1.09834 -1.13024 0
M  V30 6348 C 622.027 -0.85909 -1.88771 0
M  V30 6349 C 622.452 0.584402 -1.78791 0
M  V30 6350 O 621.81 1.41101 -1.13842 0
M  V30 6351 C 621.858 -1.30427 -3.36186 0
M  V30 6352 O 620.962 -0.465368 -4.09766 0
M  V30 6353 H 620.303 -0.310786 -0.586778 0
M  V30 6354 H 622.833 -1.46355 -1.42973 0
M  V30 6355 H 622.843 -1.2915 -3.8702 0
M  V30 6356 H 621.518 -2.3555 -3.42767 0
M  V30 6357 H 620.095 -0.542814 -3.68928 0
M  V30 6358 N 622.28 1.30327 -0.886154 0
M  V30 6359 C 623.508 2.00254 -0.520176 0
M  V30 6360 C 623.923 1.66419 0.891637 0
M  V30 6361 O 623.28 0.901951 1.58654 0
M  V30 6362 C 623.331 3.54916 -0.686775 0
M  V30 6363 O 623.052 3.87547 -2.04301 0
M  V30 6364 C 624.553 4.42115 -0.323945 0
M  V30 6365 H 621.773 0.640204 -0.200947 0
M  V30 6366 H 624.317 1.66183 -1.19178 0
M  V30 6367 H 622.472 3.8735 -0.0625273 0
M  V30 6368 H 622.886 4.82247 -2.06249 0
M  V30 6369 H 624.36 5.49808 -0.491407 0
M  V30 6370 H 624.837 4.32953 0.73811 0
M  V30 6371 H 625.443 4.15129 -0.924565 0
M  V30 6372 N 623.758 0.647228 1.43697 0
M  V30 6373 C 624.721 -0.0385101 2.29168 0
M  V30 6374 C 625.721 -0.756487 1.41894 0
M  V30 6375 O 626.911 -0.598641 1.63591 0
M  V30 6376 C 624.043 -1.06524 3.23829 0
M  V30 6377 H 625.236 0.713445 2.9129 0
M  V30 6378 H 622.789 0.408153 1.50877 0
M  V30 6379 H 623.524 -1.84664 2.66589 0
M  V30 6380 H 623.309 -0.554147 3.88164 0
M  V30 6381 H 624.799 -1.54432 3.87996 0
M  V30 6382 N 625.236 -1.5273 0.388769 0
M  V30 6383 C 626.513 -1.93981 -0.251133 0
M  V30 6384 C 626.893 -1.32418 -1.64404 0
M  V30 6385 O 626.241 -0.492074 -2.23139 0
M  V30 6386 C 626.451 -3.47891 -0.27802 0
M  V30 6387 C 627.799 -4.21559 -0.507229 0
M  V30 6388 O 628.823 -3.54394 -0.358252 0
M  V30 6389 O 627.682 -5.40626 -0.799094 0
M  V30 6390 H 624.776 -0.812157 -0.15598 0
M  V30 6391 H 627.322 -1.63809 0.443237 0
M  V30 6392 H 626.094 -3.8503 0.697669 0
M  V30 6393 H 625.717 -3.84364 -1.01733 0
M  V30 6394 N 626.714 -0.118576 -1.57153 0
M  V30 6395 C 627.644 0.828436 -2.1831 0
M  V30 6396 C 628.625 1.27758 -1.12303 0
M  V30 6397 O 629.81 1.34026 -1.40537 0
M  V30 6398 C 626.94 2.07876 -2.78217 0
M  V30 6399 C 625.894 1.76742 -3.89803 0
M  V30 6400 C 625.22 3.08801 -4.36516 0
M  V30 6401 C 626.52 1.03606 -5.11921 0
M  V30 6402 H 628.214 0.318824 -2.97698 0
M  V30 6403 H 625.76 0.151911 -1.43196 0
M  V30 6404 H 627.713 2.74584 -3.19659 0
M  V30 6405 H 626.437 2.61161 -1.96118 0
M  V30 6406 H 625.096 1.12424 -3.48936 0
M  V30 6407 H 624.744 3.6002 -3.51276 0
M  V30 6408 H 624.444 2.88743 -5.11763 0
M  V30 6409 H 625.968 3.76627 -4.80608 0
M  V30 6410 H 627.382 1.60467 -5.50385 0
M  V30 6411 H 625.779 0.936454 -5.92748 0
M  V30 6412 H 626.849 0.0227421 -4.84895 0
M  V30 6413 N 628.193 1.56834 0.155195 0
M  V30 6414 C 629.604 1.72421 0.716082 0
M  V30 6415 C 629.955 0.731685 1.82046 0
M  V30 6416 O 629.08 -0.103481 2.16152 0
M  V30 6417 C 629.675 3.12629 1.30571 0
M  V30 6418 C 628.234 3.29846 1.81325 0
M  V30 6419 C 627.381 2.68359 0.698494 0
M  V30 6420 H 630.332 1.58544 -0.0703861 0
M  V30 6421 H 630.353 3.12174 2.1755 0
M  V30 6422 H 629.865 3.84844 0.501701 0
M  V30 6423 H 627.966 2.62614 2.64319 0
M  V30 6424 H 628.079 4.37727 1.9476 0
M  V30 6425 H 626.443 2.28604 1.12305 0
M  V30 6426 H 627.226 3.43171 -0.0939366 0
M  V30 6427 N 629.671 -0.424282 1.51781 0
M  V30 6428 C 630.919 -1.17028 1.64769 0
M  V30 6429 C 631.24 -1.91409 0.372523 0
M  V30 6430 O 630.51 -1.86091 -0.612108 0
M  V30 6431 H 629.09 -0.434992 0.607282 0
M  V30 6432 H 631.752 -0.485169 1.88765 0
M  V30 6433 H 630.848 -1.8927 2.4816 0
M  V30 6434 N 631.149 -1.42148 -0.680565 0
M  V30 6435 C 632.374 -1.45901 -1.47403 0
M  V30 6436 C 632.799 -0.0700985 -1.87969 0
M  V30 6437 O 632.157 0.930145 -1.55621 0
M  V30 6438 C 632.205 -2.38661 -2.70321 0
M  V30 6439 O 631.309 -1.85399 -3.68376 0
M  V30 6440 H 630.65 -0.494565 -0.443059 0
M  V30 6441 H 633.18 -1.86774 -0.835251 0
M  V30 6442 H 633.19 -2.55046 -3.18458 0
M  V30 6443 H 631.865 -3.39571 -2.40134 0
M  V30 6444 H 630.442 -1.78541 -3.2738 0
M  V30 6445 N 632.627 0.916307 -1.28225 0
M  V30 6446 C 634.038 1.48024 -1.13779 0
M  V30 6447 C 634.389 1.94289 0.273139 0
M  V30 6448 O 633.514 1.82226 1.16716 0
M  V30 6449 C 634.109 2.69029 -2.05935 0
M  V30 6450 C 632.668 3.2161 -1.95561 0
M  V30 6451 C 631.815 1.94321 -1.97825 0
M  V30 6452 H 634.766 0.729272 -1.40951 0
M  V30 6453 H 634.787 3.44204 -1.62184 0
M  V30 6454 H 634.299 2.35325 -3.08616 0
M  V30 6455 H 632.4 3.60045 -0.959076 0
M  V30 6456 H 632.513 3.87032 -2.82388 0
M  V30 6457 H 630.877 2.1131 -1.42198 0
M  V30 6458 H 631.66 1.62917 -3.0218 0
M  V30 6459 N 634.105 1.10431 1.1244 0
M  V30 6460 C 635.351 0.847972 1.84221 0
M  V30 6461 C 635.684 -0.624903 1.83871 0
M  V30 6462 O 634.959 -1.46074 1.28423 0
M  V30 6463 C 635.242 1.39695 3.319 0
M  V30 6464 C 635.095 2.93668 3.40704 0
M  V30 6465 C 636.414 1.03924 4.27654 0
M  V30 6466 H 633.533 0.309502 0.668863 0
M  V30 6467 H 636.175 1.36745 1.31912 0
M  V30 6468 H 634.325 0.955095 3.76577 0
M  V30 6469 H 635.997 3.46379 3.04662 0
M  V30 6470 H 634.24 3.30272 2.81252 0
M  V30 6471 H 634.911 3.27162 4.446 0
M  V30 6472 H 637.387 1.42049 3.91102 0
M  V30 6473 H 636.263 1.45027 5.29394 0
M  V30 6474 H 636.524 -0.051336 4.4207 0
M  V30 6475 N 635.583 -1.29855 0.893053 0
M  V30 6476 C 636.808 -2.00512 0.530066 0
M  V30 6477 C 637.233 -1.66446 -0.876199 0
M  V30 6478 O 636.591 -0.885446 -1.58207 0
M  V30 6479 C 636.639 -3.53308 0.721505 0
M  V30 6480 O 635.743 -4.11764 -0.228994 0
M  V30 6481 H 635.084 -0.630617 0.207891 0
M  V30 6482 H 637.614 -1.6551 1.20282 0
M  V30 6483 H 637.624 -4.03206 0.623599 0
M  V30 6484 H 636.299 -3.77439 1.74678 0
M  V30 6485 H 634.876 -3.72805 -0.0841034 0
M  V30 6486 N 637.061 -0.65484 -1.43351 0
M  V30 6487 C 638.009 0.0476784 -2.32551 0
M  V30 6488 C 639.003 0.811403 -1.48703 0
M  V30 6489 O 640.209 0.721621 -1.64902 0
M  V30 6490 H 636.584 0.0342038 -0.751222 0
M  V30 6491 H 638.555 -0.722342 -2.89525 0
M  V30 6492 C 637.304 0.999251 -3.33032 0
M  V30 6493 H 636.627 0.421005 -3.97577 0
M  V30 6494 H 638.067 1.45986 -3.98076 0
M  V30 6495 C 636.526 2.09606 -2.63756 0
M  V30 6496 O 637.056 3.18004 -2.4543 0
M  V30 6497 N 635.262 1.86207 -2.23103 0
M  V30 6498 H 634.809 0.980555 -2.38208 0
M  V30 6499 H 634.767 2.59787 -1.77081 0
M  V30 6500 N 638.539 1.52521 -0.396863 0
M  V30 6501 C 639.487 2.28217 0.44943 0
M  V30 6502 C 640.481 1.32416 1.05652 0
M  V30 6503 O 641.687 1.49925 0.996124 0
M  V30 6504 H 638.062 0.733966 0.1637 0
M  V30 6505 H 640.033 2.97658 -0.210367 0
M  V30 6506 C 638.782 3.10713 1.56054 0
M  V30 6507 H 638.105 3.84291 1.10273 0
M  V30 6508 H 639.545 3.66803 2.12677 0
M  V30 6509 C 638.004 2.23499 2.52091 0
M  V30 6510 O 638.534 1.8669 3.55682 0
M  V30 6511 N 636.74 1.8751 2.2201 0
M  V30 6512 H 636.287 2.17643 1.37802 0
M  V30 6513 H 636.245 1.29448 2.86514 0
M  V30 6514 N 640.017 0.126909 1.57088 0
M  V30 6515 C 641.264 -0.529168 1.95464 0
M  V30 6516 C 641.592 -1.6618 1.01067 0
M  V30 6517 O 640.847 -1.95667 0.0360254 0
M  V30 6518 C 641.146 -1.095 3.40212 0
M  V30 6519 C 640.812 -0.0829015 4.50824 0
M  V30 6520 C 639.474 0.195377 4.80803 0
M  V30 6521 C 641.826 0.606411 5.1766 0
M  V30 6522 C 639.154 1.16912 5.74933 0
M  V30 6523 C 641.506 1.56884 6.12838 0
M  V30 6524 C 640.17 1.85502 6.41206 0
M  V30 6525 H 639.44 -0.193636 0.715252 0
M  V30 6526 H 642.087 0.209489 1.90351 0
M  V30 6527 H 640.392 -1.91058 3.42059 0
M  V30 6528 H 642.089 -1.61087 3.67222 0
M  V30 6529 H 638.679 -0.309979 4.27478 0
M  V30 6530 H 642.863 0.404597 4.94648 0
M  V30 6531 H 638.119 1.3975 5.95214 0
M  V30 6532 H 642.293 2.10859 6.6371 0
M  V30 6533 H 639.92 2.61109 7.13951 0
M  V30 6534 N 641.495 -1.56914 -0.146875 0
M  V30 6535 C 642.428 -1.93425 -1.21087 0
M  V30 6536 C 643.406 -0.800106 -1.41552 0
M  V30 6537 O 644.59 -1.05572 -1.56162 0
M  V30 6538 C 641.717 -2.20639 -2.56975 0
M  V30 6539 C 640.763 -3.43279 -2.53104 0
M  V30 6540 S 641.596 -4.96836 -1.99786 0
M  V30 6541 C 642.752 -5.27172 -3.37403 0
M  V30 6542 H 642.985 -2.8337 -0.899378 0
M  V30 6543 H 640.518 -1.50322 -0.352494 0
M  V30 6544 H 642.476 -2.36998 -3.35175 0
M  V30 6545 H 641.137 -1.31357 -2.85314 0
M  V30 6546 H 640.33 -3.59599 -3.53136 0
M  V30 6547 H 639.932 -3.26163 -1.83012 0
M  V30 6548 H 642.224 -5.20647 -4.33513 0
M  V30 6549 H 643.167 -6.28626 -3.25937 0
M  V30 6550 H 643.575 -4.54687 -3.34544 0
M  V30 6551 N 642.974 0.416227 -1.52004 0
M  V30 6552 C 644.222 1.16153 -1.65387 0
M  V30 6553 C 644.543 1.91208 -0.382669 0
M  V30 6554 O 643.813 1.86413 0.602231 0
M  V30 6555 H 642.393 0.431765 -0.60958 0
M  V30 6556 H 645.055 0.475151 -1.89019 0
M  V30 6557 H 644.151 1.87952 -2.4916 0
M  V30 6558 N 644.452 1.42507 0.673017 0
M  V30 6559 C 645.692 1.44559 1.44507 0
M  V30 6560 C 646.056 0.0606206 1.91904 0
M  V30 6561 O 647.257 -0.044139 2.68764 0
M  V30 6562 C 645.528 2.44291 2.60877 0
M  V30 6563 S 647.087 2.65059 3.49699 0
M  V30 6564 H 643.905 0.51181 0.49353 0
M  V30 6565 H 646.507 1.79124 0.783256 0
M  V30 6566 H 645.211 3.43685 2.24297 0
M  V30 6567 H 644.742 2.11157 3.31928 0
M  V30 6568 H 646.757 1.93494 4.56919 0
M  V30 6569 N 645.93 -0.909495 1.28709 0
M  V30 6570 C 646.86 -2.0291 1.15542 0
M  V30 6571 C 647.841 -1.7002 0.0521017 0
M  V30 6572 O 649.026 -1.92835 0.229849 0
M  V30 6573 C 646.156 -3.37458 0.820935 0
M  V30 6574 C 645.11 -3.84524 1.87949 0
M  V30 6575 C 644.436 -5.16086 1.39854 0
M  V30 6576 C 645.736 -4.05918 3.28676 0
M  V30 6577 H 647.43 -2.14183 2.09203 0
M  V30 6578 H 644.976 -1.02913 1.00722 0
M  V30 6579 H 646.929 -4.1528 0.715571 0
M  V30 6580 H 645.653 -3.26249 -0.151374 0
M  V30 6581 H 644.312 -3.08911 1.97408 0
M  V30 6582 H 643.96 -5.01284 0.41518 0
M  V30 6583 H 643.66 -5.48547 2.1064 0
M  V30 6584 H 645.184 -5.96459 1.30649 0
M  V30 6585 H 646.598 -4.74252 3.22115 0
M  V30 6586 H 644.995 -4.49717 3.97334 0
M  V30 6587 H 646.065 -3.10583 3.72379 0
M  V30 6588 N 647.408 -1.11026 -1.11852 0
M  V30 6589 C 648.355 -0.764662 -2.17765 0
M  V30 6590 C 649.325 0.261854 -1.64023 0
M  V30 6591 O 650.51 0.139748 -1.90288 0
M  V30 6592 C 647.65 -0.209317 -3.44465 0
M  V30 6593 C 646.763 -1.29187 -4.12231 0
M  V30 6594 C 645.898 -0.697523 -5.266 0
M  V30 6595 C 644.937 -1.76023 -5.86244 0
M  V30 6596 N 644.074 -1.18569 -6.92016 0
M  V30 6597 H 648.914 -1.67202 -2.46673 0
M  V30 6598 H 646.451 -0.835065 -1.21099 0
M  V30 6599 H 648.409 0.130599 -4.16996 0
M  V30 6600 H 647.039 0.661251 -3.15955 0
M  V30 6601 H 646.091 -1.74881 -3.37818 0
M  V30 6602 H 647.403 -2.09607 -4.52622 0
M  V30 6603 H 646.557 -0.307412 -6.05921 0
M  V30 6604 H 645.296 0.138044 -4.87505 0
M  V30 6605 H 644.301 -2.1597 -5.05606 0
M  V30 6606 H 645.526 -2.59875 -6.27409 0
M  V30 6607 H 643.472 -0.371695 -6.54946 0
M  V30 6608 H 643.389 -1.92666 -7.31038 0
M  V30 6609 H 644.657 -0.82233 -7.7515 0
M  V30 6610 N 648.886 1.2938 -0.899927 0
M  V30 6611 C 649.796 2.31462 -0.382437 0
M  V30 6612 C 650.812 1.65956 0.522929 0
M  V30 6613 O 651.988 1.97131 0.412454 0
M  V30 6614 C 649.053 3.44595 0.381472 0
M  V30 6615 C 648.114 4.25692 -0.555444 0
M  V30 6616 C 647.347 5.33422 0.172102 0
M  V30 6617 O 647.57 5.53053 1.396 0
M  V30 6618 O 646.504 5.99939 -0.485491 0
M  V30 6619 H 650.33 2.77706 -1.22934 0
M  V30 6620 H 647.915 1.33821 -0.664259 0
M  V30 6621 H 649.797 4.13474 0.813442 0
M  V30 6622 H 648.472 3.00458 1.20443 0
M  V30 6623 H 647.379 3.59453 -1.03653 0
M  V30 6624 H 648.712 4.73471 -1.34483 0
M  V30 6625 N 650.364 0.662433 1.43002 0
M  V30 6626 C 651.61 0.179857 2.02001 0
M  V30 6627 C 651.943 -1.20625 1.52195 0
M  V30 6628 O 651.218 -1.80726 0.718911 0
M  V30 6629 C 651.501 0.200845 3.59539 0
M  V30 6630 C 651.354 1.62153 4.19555 0
M  V30 6631 C 652.673 -0.457738 4.37713 0
M  V30 6632 H 649.792 0.0668305 0.733964 0
M  V30 6633 H 652.434 0.84487 1.70182 0
M  V30 6634 H 650.584 -0.365411 3.86778 0
M  V30 6635 H 652.256 2.23908 4.03315 0
M  V30 6636 H 650.499 2.16601 3.75854 0
M  V30 6637 H 651.17 1.58799 5.28665 0
M  V30 6638 H 653.646 0.0241495 4.16093 0
M  V30 6639 H 652.522 -0.412363 5.47349 0
M  V30 6640 H 652.783 -1.53336 4.14657 0
M  V30 6641 N 651.842 -1.52309 0.404946 0
M  V30 6642 C 653.088 -2.02065 -0.172455 0
M  V30 6643 C 653.421 -1.29022 -1.45145 0
M  V30 6644 O 652.696 -0.395284 -1.90441 0
M  V30 6645 C 652.979 -3.5759 -0.424433 0
M  V30 6646 C 652.832 -4.41287 0.870945 0
M  V30 6647 C 654.151 -4.23186 -1.20837 0
M  V30 6648 H 651.27 -0.734454 -0.0612035 0
M  V30 6649 H 653.912 -1.82236 0.53759 0
M  V30 6650 H 652.062 -3.74617 -1.02929 0
M  V30 6651 H 653.734 -4.3598 1.50729 0
M  V30 6652 H 651.977 -4.07669 1.48284 0
M  V30 6653 H 652.648 -5.48171 0.649083 0
M  V30 6654 H 655.124 -4.10232 -0.696338 0
M  V30 6655 H 654 -5.31953 -1.35343 0
M  V30 6656 H 654.261 -3.81862 -2.22786 0
M  V30 6657 N 653.32 -0.135238 -1.57019 0
M  V30 6658 C 654.55 0.525303 -1.9981 0
M  V30 6659 C 654.958 1.59724 -1.01415 0
M  V30 6660 O 654.301 1.837 -0.00130938 0
M  V30 6661 C 654.363 1.19578 -3.3903 0
M  V30 6662 C 654.027 0.269855 -4.56203 0
M  V30 6663 C 655.024 -0.497905 -5.1751 0
M  V30 6664 C 652.709 0.176188 -5.01991 0
M  V30 6665 C 654.703 -1.3469 -6.23007 0
M  V30 6666 C 652.39 -0.676422 -6.07345 0
M  V30 6667 C 653.388 -1.43658 -6.67721 0
M  V30 6668 O 653.076 -2.27501 -7.71037 0
M  V30 6669 H 652.808 0.142296 -0.660854 0
M  V30 6670 H 655.362 -0.223272 -2.04183 0
M  V30 6671 H 653.592 1.99176 -3.3146 0
M  V30 6672 H 655.281 1.75486 -3.66005 0
M  V30 6673 H 656.047 -0.435507 -4.83041 0
M  V30 6674 H 651.926 0.757583 -4.54733 0
M  V30 6675 H 655.47 -1.9407 -6.70062 0
M  V30 6676 H 651.367 -0.740154 -6.41243 0
M  V30 6677 H 652.135 -2.20619 -7.88206 0
M  V30 6678 N 654.798 1.5699 0.138552 0
M  V30 6679 C 655.745 1.98899 1.17081 0
M  V30 6680 C 656.715 0.857922 1.42228 0
M  V30 6681 O 657.9 1.12065 1.54422 0
M  V30 6682 C 655.04 2.38189 2.4972 0
M  V30 6683 C 654.153 3.64624 2.31674 0
M  V30 6684 C 653.288 3.9298 3.57407 0
M  V30 6685 C 652.327 5.1266 3.34435 0
M  V30 6686 N 651.464 5.36983 4.5232 0
M  V30 6687 H 656.304 2.86881 0.80642 0
M  V30 6688 H 653.841 1.41925 0.386727 0
M  V30 6689 H 655.799 2.59 3.2707 0
M  V30 6690 H 654.429 1.53275 2.84089 0
M  V30 6691 H 653.481 3.51542 1.45337 0
M  V30 6692 H 654.793 4.52131 2.10664 0
M  V30 6693 H 653.947 4.14335 4.43183 0
M  V30 6694 H 652.686 3.03912 3.8143 0
M  V30 6695 H 651.691 4.9117 2.47048 0
M  V30 6696 H 652.916 6.03288 3.11802 0
M  V30 6697 H 650.862 4.50871 4.76499 0
M  V30 6698 H 650.779 6.18775 4.34343 0
M  V30 6699 H 652.047 5.62842 5.39285 0
M  V30 6700 N 656.276 -0.40816 1.52223 0
M  V30 6701 C 657.224 -1.51788 1.76248 0
M  V30 6702 C 658.218 -1.57264 0.629638 0
M  V30 6703 O 659.424 -1.60659 0.811704 0
M  V30 6704 H 655.799 -0.504823 0.557367 0
M  V30 6705 H 657.77 -1.2871 2.69214 0
M  V30 6706 C 656.519 -2.89145 1.93107 0
M  V30 6707 H 655.842 -2.85674 2.79697 0
M  V30 6708 H 657.282 -3.66082 2.13916 0
M  V30 6709 C 655.741 -3.29581 0.698431 0
M  V30 6710 O 656.271 -4.01479 -0.133238 0
M  V30 6711 N 654.477 -2.85651 0.53405 0
M  V30 6712 H 654.024 -2.2731 1.21194 0
M  V30 6713 H 653.982 -3.13065 -0.289387 0
M  V30 6714 N 657.755 -1.42862 -0.66545 0
M  V30 6715 C 658.703 -1.47319 -1.8 0
M  V30 6716 C 659.697 -0.347963 -1.65788 0
M  V30 6717 O 660.903 -0.521406 -1.72283 0
M  V30 6718 H 657.278 -0.461588 -0.593667 0
M  V30 6719 H 659.249 -2.42876 -1.7336 0
M  V30 6720 C 657.998 -1.40152 -3.18203 0
M  V30 6721 H 657.321 -2.26035 -3.2977 0
M  V30 6722 H 658.761 -1.47331 -3.9758 0
M  V30 6723 C 657.22 -0.117493 -3.36695 0
M  V30 6724 O 657.75 0.826058 -3.93115 0
M  V30 6725 N 655.956 -0.0316218 -2.90583 0
M  V30 6726 H 655.503 -0.800247 -2.44855 0
M  V30 6727 H 655.461 0.826835 -3.03333 0
M  V30 6728 N 659.233 0.902656 -1.29189 0
M  V30 6729 C 660.51 1.63296 -1.07674 0
M  V30 6730 C 660.89 2.07649 0.380137 0
M  V30 6731 O 660.238 1.82997 1.36837 0
M  V30 6732 C 660.448 2.81603 -2.06158 0
M  V30 6733 C 661.796 3.52359 -2.36914 0
M  V30 6734 O 662.82 2.91767 -2.04329 0
M  V30 6735 O 661.679 4.61586 -2.92576 0
M  V30 6736 H 658.773 0.716889 -0.41231 0
M  V30 6737 H 661.319 0.950984 -1.4055 0
M  V30 6738 H 660.091 2.46004 -3.04299 0
M  V30 6739 H 659.714 3.57508 -1.73993 0
M  V30 6740 N 660.711 1.11618 1.11262 0
M  V30 6741 C 661.957 0.867463 1.83311 0
M  V30 6742 C 662.29 -0.605366 1.84524 0
M  V30 6743 O 661.565 -1.44704 1.29965 0
M  V30 6744 C 661.848 1.43207 3.30399 0
M  V30 6745 C 661.701 2.97265 3.3757 0
M  V30 6746 C 663.02 1.08454 4.26528 0
M  V30 6747 H 660.139 0.316578 0.665543 0
M  V30 6748 H 662.781 1.38137 1.30454 0
M  V30 6749 H 660.931 0.994982 3.75543 0
M  V30 6750 H 662.603 3.49591 3.00971 0
M  V30 6751 H 660.846 3.33237 2.77733 0
M  V30 6752 H 661.517 3.31859 4.41105 0
M  V30 6753 H 663.993 1.4619 3.89574 0
M  V30 6754 H 662.869 1.50633 5.27826 0
M  V30 6755 H 663.13 -0.00444568 4.421 0
M  V30 6756 N 662.189 -1.289 0.906776 0
M  V30 6757 C 663.605 -1.47733 0.603902 0
M  V30 6758 C 663.805 -1.82568 -0.852702 0
M  V30 6759 O 662.861 -1.92642 -1.63234 0
M  V30 6760 C 664.174 -2.58522 1.53581 0
M  V30 6761 C 665.722 -2.72394 1.54177 0
M  V30 6762 C 666.197 -3.86318 2.46013 0
M  V30 6763 N 667.688 -3.93661 2.441 0
M  V30 6764 C 668.423 -4.81177 3.11859 0
M  V30 6765 N 667.919 -5.73333 3.88923 0
M  V30 6766 N 669.712 -4.74728 3.00981 0
M  V30 6767 H 661.863 -1.04567 1.84877 0
M  V30 6768 H 664.126 -0.520118 0.792579 0
M  V30 6769 H 663.832 -2.39667 2.57396 0
M  V30 6770 H 663.706 -3.55475 1.26165 0
M  V30 6771 H 666.093 -2.90641 0.511034 0
M  V30 6772 H 666.174 -1.75993 1.85634 0
M  V30 6773 H 665.818 -3.68826 3.49185 0
M  V30 6774 H 665.748 -4.82102 2.11862 0
M  V30 6775 H 668.239 -3.27751 1.88115 0
M  V30 6776 H 668.552 -6.36923 4.37663 0
M  V30 6777 H 666.897 -5.73196 3.93029 0
M  V30 6778 H 670.088 -4.01722 2.40286 0
M  V30 6779 H 670.261 -5.42719 3.54062 0
M  V30 6780 N 663.667 -0.670007 -1.42649 0
M  V30 6781 C 664.597 -0.00258501 -2.335 0
M  V30 6782 C 665.578 0.794364 -1.50412 0
M  V30 6783 O 666.763 0.75248 -1.79029 0
M  V30 6784 C 663.893 0.952748 -3.33976 0
M  V30 6785 C 662.847 0.264733 -4.2718 0
M  V30 6786 C 662.173 1.33267 -5.17826 0
M  V30 6787 C 663.473 -0.853289 -5.15283 0
M  V30 6788 H 665.167 -0.761326 -2.89559 0
M  V30 6789 H 662.713 -0.367561 -1.3923 0
M  V30 6790 H 664.666 1.4287 -3.96442 0
M  V30 6791 H 663.39 1.74285 -2.7621 0
M  V30 6792 H 662.049 -0.190938 -3.66102 0
M  V30 6793 H 661.697 2.11464 -4.5639 0
M  V30 6794 H 661.397 0.877476 -5.81011 0
M  V30 6795 H 662.921 1.80965 -5.83167 0
M  V30 6796 H 664.335 -0.458763 -5.71462 0
M  V30 6797 H 662.732 -1.23398 -5.87276 0
M  V30 6798 H 663.802 -1.70412 -4.53969 0
M  V30 6799 N 665.145 1.52092 -0.413018 0
M  V30 6800 C 666.055 2.30858 0.417318 0
M  V30 6801 C 667.071 1.38746 1.05003 0
M  V30 6802 O 668.247 1.71821 1.05069 0
M  V30 6803 C 665.312 3.11756 1.51687 0
M  V30 6804 C 664.373 4.19613 0.906825 0
M  V30 6805 C 663.606 4.96644 1.95399 0
M  V30 6806 O 663.829 4.7402 3.17271 0
M  V30 6807 O 662.763 5.81385 1.55805 0
M  V30 6808 H 666.589 3.02865 -0.225028 0
M  V30 6809 H 664.174 1.48358 -0.176126 0
M  V30 6810 H 666.056 3.62122 2.15512 0
M  V30 6811 H 664.731 2.42539 2.14375 0
M  V30 6812 H 663.638 3.73385 0.231183 0
M  V30 6813 H 664.971 4.91134 0.323814 0
M  V30 6814 N 666.623 0.143563 1.56945 0
M  V30 6815 C 667.553 -0.7936 2.196 0
M  V30 6816 C 668.534 -1.25955 1.14321 0
M  V30 6817 O 669.719 -1.31773 1.42651 0
M  V30 6818 C 666.849 -2.03424 2.81489 0
M  V30 6819 C 665.803 -1.70519 3.92565 0
M  V30 6820 C 665.129 -3.01817 4.41373 0
M  V30 6821 C 666.429 -0.95449 5.13504 0
M  V30 6822 H 668.123 -0.271423 2.98167 0
M  V30 6823 H 665.669 -0.12911 1.4342 0
M  V30 6824 H 667.622 -2.69463 3.23987 0
M  V30 6825 H 666.346 -2.58008 2.00248 0
M  V30 6826 H 665.005 -1.06859 3.5068 0
M  V30 6827 H 664.653 -3.54386 3.56959 0
M  V30 6828 H 664.353 -2.80565 5.16292 0
M  V30 6829 H 665.877 -3.68934 4.86539 0
M  V30 6830 H 667.291 -1.5169 5.52868 0
M  V30 6831 H 665.688 -0.842035 5.94163 0
M  V30 6832 H 666.758 0.0544033 4.84869 0
M  V30 6833 N 668.101 -1.57061 -0.130224 0
M  V30 6834 C 669.326 -1.88802 -0.858409 0
M  V30 6835 C 669.751 -0.734353 -1.73173 0
M  V30 6836 O 669.109 0.315529 -1.78533 0
M  V30 6837 C 669.157 -3.19228 -1.67708 0
M  V30 6838 O 668.261 -3.04343 -2.78297 0
M  V30 6839 H 667.602 -0.619849 -0.238083 0
M  V30 6840 H 670.132 -2.04271 -0.115995 0
M  V30 6841 H 670.142 -3.51669 -2.06864 0
M  V30 6842 H 668.817 -4.02793 -1.0359 0
M  V30 6843 H 667.394 -2.83346 -2.42425 0
M  V30 6844 N 669.579 0.400081 -1.52437 0
M  V30 6845 C 670.995 0.739359 -1.41441 0
M  V30 6846 C 671.195 1.94512 -0.526053 0
M  V30 6847 O 670.251 2.525 0.00472502 0
M  V30 6848 C 671.564 0.984824 -2.84116 0
M  V30 6849 C 673.112 1.08698 -2.93519 0
M  V30 6850 C 673.587 1.36515 -4.37181 0
M  V30 6851 N 675.078 1.43361 -4.40457 0
M  V30 6852 C 675.813 1.66528 -5.48686 0
M  V30 6853 N 675.309 1.87239 -6.67018 0
M  V30 6854 N 677.102 1.68617 -5.36213 0
M  V30 6855 H 669.253 -0.393484 -2.08723 0
M  V30 6856 H 671.516 -0.1138 -0.941145 0
M  V30 6857 H 671.222 0.171096 -3.51284 0
M  V30 6858 H 671.096 1.90253 -3.25705 0
M  V30 6859 H 673.483 1.89129 -2.26526 0
M  V30 6860 H 673.564 0.147432 -2.55375 0
M  V30 6861 H 673.208 0.565982 -5.04737 0
M  V30 6862 H 673.138 2.31737 -4.7287 0
M  V30 6863 H 675.629 1.29108 -3.55161 0
M  V30 6864 H 675.942 2.04392 -7.45281 0
M  V30 6865 H 674.287 1.84486 -6.70067 0
M  V30 6866 H 677.478 1.5198 -4.42741 0
M  V30 6867 H 677.651 1.86332 -6.20632 0
M  V30 6868 N 671.057 1.43213 0.657864 0
M  V30 6869 C 671.987 1.50815 1.78262 0
M  V30 6870 C 672.968 0.363211 1.66177 0
M  V30 6871 O 674.153 0.579806 1.85343 0
M  V30 6872 C 671.283 1.42625 3.16663 0
M  V30 6873 C 670.237 2.5532 3.43505 0
M  V30 6874 C 669.563 2.32184 4.81658 0
M  V30 6875 C 670.863 3.97583 3.38711 0
M  V30 6876 H 672.557 2.44954 1.72157 0
M  V30 6877 H 670.103 1.17896 0.82683 0
M  V30 6878 H 672.056 1.46548 3.95097 0
M  V30 6879 H 670.78 0.449877 3.23487 0
M  V30 6880 H 669.439 2.50742 2.6744 0
M  V30 6881 H 669.087 1.32801 4.85153 0
M  V30 6882 H 668.787 3.07724 5.00579 0
M  V30 6883 H 670.311 2.37883 5.62356 0
M  V30 6884 H 671.725 4.03673 4.07089 0
M  V30 6885 H 670.122 4.73112 3.69168 0
M  V30 6886 H 671.192 4.23049 2.36976 0
M  V30 6887 N 672.536 -0.895792 1.29666 0
M  V30 6888 C 673.499 -1.98189 1.15124 0
M  V30 6889 C 674.499 -1.60572 0.0855717 0
M  V30 6890 O 675.689 -1.70991 0.332826 0
M  V30 6891 C 672.821 -3.32289 0.761372 0
M  V30 6892 H 674.014 -2.12518 2.11603 0
M  V30 6893 H 671.567 -1.0808 1.12908 0
M  V30 6894 H 672.302 -3.23662 -0.203393 0
M  V30 6895 H 672.087 -3.60958 1.53139 0
M  V30 6896 H 673.577 -4.1198 0.682792 0
M  V30 6897 N 674.014 -1.12206 -1.10668 0
M  V30 6898 C 674.961 -0.787716 -2.16942 0
M  V30 6899 C 675.931 0.244442 -1.64291 0
M  V30 6900 O 677.116 0.119558 -1.90425 0
M  V30 6901 C 674.256 -0.24584 -3.44223 0
M  V30 6902 C 673.369 -1.33552 -4.10838 0
M  V30 6903 C 672.504 -0.753337 -5.25831 0
M  V30 6904 C 671.543 -1.82231 -5.84344 0
M  V30 6905 N 670.68 -1.25902 -6.90719 0
M  V30 6906 H 675.52 -1.69809 -2.44885 0
M  V30 6907 H 673.057 -0.847862 -1.20207 0
M  V30 6908 H 675.015 0.0863639 -4.17111 0
M  V30 6909 H 673.645 0.627702 -3.16638 0
M  V30 6910 H 672.697 -1.78454 -3.35944 0
M  V30 6911 H 674.009 -2.14396 -4.50373 0
M  V30 6912 H 673.163 -0.37166 -6.05561 0
M  V30 6913 H 671.902 0.0863297 -4.87624 0
M  V30 6914 H 670.907 -2.2132 -5.03287 0
M  V30 6915 H 672.132 -2.66515 -6.24617 0
M  V30 6916 H 670.078 -0.44114 -6.54515 0
M  V30 6917 H 669.995 -2.00408 -7.28953 0
M  V30 6918 H 671.263 -0.904498 -7.74235 0
M  V30 6919 N 675.492 1.28418 -0.913599 0
M  V30 6920 C 676.424 2.26368 -0.359169 0
M  V30 6921 C 677.437 1.54858 0.502285 0
M  V30 6922 O 678.626 1.75659 0.31719 0
M  V30 6923 C 675.726 3.35112 0.50526 0
M  V30 6924 C 674.899 4.36126 -0.333648 0
M  V30 6925 C 673.958 5.24134 0.465845 0
M  V30 6926 O 672.984 5.6907 -0.121538 0
M  V30 6927 N 674.186 5.52892 1.76891 0
M  V30 6928 H 676.951 2.74579 -1.2011 0
M  V30 6929 H 674.512 1.41898 -0.779532 0
M  V30 6930 H 676.504 3.90926 1.04684 0
M  V30 6931 H 675.074 2.86611 1.2479 0
M  V30 6932 H 674.294 3.79776 -1.0566 0
M  V30 6933 H 675.582 5.00638 -0.907669 0
M  V30 6934 H 674.98 5.18217 2.26865 0
M  V30 6935 H 673.537 6.11464 2.25732 0
M  V30 6936 N 676.97 0.677563 1.42291 0
M  V30 6937 C 678.218 0.200578 2.01102 0
M  V30 6938 C 678.539 -1.19803 1.53858 0
M  V30 6939 O 677.809 -1.80496 0.761439 0
M  V30 6940 H 676.389 0.0711634 0.743603 0
M  V30 6941 H 679.051 0.874691 1.7417 0
M  V30 6942 H 678.147 0.204 3.11433 0
M  V30 6943 N 678.448 -1.51871 0.421078 0
M  V30 6944 C 679.725 -1.9447 -0.20993 0
M  V30 6945 C 680.105 -1.35875 -1.61558 0
M  V30 6946 O 679.453 -0.539294 -2.22045 0
M  V30 6947 C 679.663 -3.48402 -0.204165 0
M  V30 6948 C 681.011 -4.2254 -0.417696 0
M  V30 6949 O 682.035 -3.55074 -0.282999 0
M  V30 6950 O 680.894 -5.422 -0.684239 0
M  V30 6951 H 677.988 -0.815283 -0.138718 0
M  V30 6952 H 680.534 -1.62832 0.477884 0
M  V30 6953 H 679.306 -3.83464 0.779183 0
M  V30 6954 H 678.929 -3.86436 -0.935576 0
M  V30 6955 N 679.926 -0.151884 -1.56866 0
M  V30 6956 C 681.337 0.368128 -1.83035 0
M  V30 6957 C 681.688 1.64402 -1.07082 0
M  V30 6958 O 680.813 2.14056 -0.317647 0
M  V30 6959 C 681.408 0.674676 -3.32014 0
M  V30 6960 C 679.967 1.13919 -3.58747 0
M  V30 6961 C 679.114 0.164833 -2.7681 0
M  V30 6962 H 682.065 -0.376499 -1.54169 0
M  V30 6963 H 682.086 1.52883 -3.48435 0
M  V30 6964 H 681.598 -0.254113 -3.87267 0
M  V30 6965 H 679.699 2.08375 -3.08886 0
M  V30 6966 H 679.812 1.06179 -4.67186 0
M  V30 6967 H 678.176 0.658419 -2.46043 0
M  V30 6968 H 678.959 -0.757633 -3.34836 0
M  V30 6969 N 681.404 1.57128 0.121893 0
M  V30 6970 C 682.351 2.0013 1.14964 0
M  V30 6971 C 683.321 0.872959 1.4131 0
M  V30 6972 O 684.506 1.13696 1.53225 0
M  V30 6973 C 681.646 2.40824 2.4718 0
M  V30 6974 C 680.759 3.67061 2.27794 0
M  V30 6975 C 679.894 3.96749 3.53219 0
M  V30 6976 C 678.933 5.16178 3.28978 0
M  V30 6977 N 678.07 5.41751 4.46599 0
M  V30 6978 H 682.91 2.8772 0.775947 0
M  V30 6979 H 680.447 1.42328 0.371652 0
M  V30 6980 H 682.405 2.62454 3.24305 0
M  V30 6981 H 681.035 1.56279 2.82448 0
M  V30 6982 H 680.087 3.53063 1.416 0
M  V30 6983 H 681.399 4.5434 2.05857 0
M  V30 6984 H 680.553 4.19012 4.38764 0
M  V30 6985 H 679.292 3.07941 3.78185 0
M  V30 6986 H 678.297 4.93762 2.41824 0
M  V30 6987 H 679.522 6.06561 3.05386 0
M  V30 6988 H 677.468 4.55899 4.71691 0
M  V30 6989 H 677.385 6.23347 4.27756 0
M  V30 6990 H 678.653 5.68531 5.33285 0
M  V30 6991 N 682.882 -0.391992 1.52647 0
M  V30 6992 C 683.815 -1.50019 1.71958 0
M  V30 6993 C 684.793 -1.5238 0.567365 0
M  V30 6994 O 685.977 -1.70831 0.796806 0
M  V30 6995 C 683.104 -2.88496 1.77447 0
M  V30 6996 C 682.15 -3.03974 2.99169 0
M  V30 6997 S 682.983 -2.75487 4.59203 0
M  V30 6998 C 684.139 -4.16163 4.67503 0
M  V30 6999 H 684.372 -1.33413 2.65685 0
M  V30 7000 H 681.905 -0.584674 1.42902 0
M  V30 7001 H 683.863 -3.68296 1.81296 0
M  V30 7002 H 682.524 -3.02431 0.848188 0
M  V30 7003 H 681.717 -4.05328 2.99542 0
M  V30 7004 H 681.319 -2.32062 2.93297 0
M  V30 7005 H 683.611 -5.10048 4.45934 0
M  V30 7006 H 684.554 -4.20806 5.69498 0
M  V30 7007 H 684.962 -4.01933 3.96371 0
M  V30 7008 N 684.36 -1.4356 -0.65026 0
M  V30 7009 C 685.307 -1.48948 -1.76304 0
M  V30 7010 C 686.277 -0.338919 -1.62605 0
M  V30 7011 O 687.462 -0.54649 -1.82806 0
M  V30 7012 C 684.602 -1.42131 -3.14472 0
M  V30 7013 C 683.715 -2.67415 -3.39284 0
M  V30 7014 C 682.85 -2.52565 -4.67316 0
M  V30 7015 C 681.889 -3.73103 -4.85243 0
M  V30 7016 N 681.026 -3.57046 -6.04535 0
M  V30 7017 H 685.866 -2.44032 -1.71034 0
M  V30 7018 H 683.403 -1.21131 -0.834601 0
M  V30 7019 H 685.361 -1.36172 -3.94351 0
M  V30 7020 H 683.991 -0.506273 -3.18805 0
M  V30 7021 H 683.043 -2.8364 -2.53481 0
M  V30 7022 H 684.355 -3.56943 -3.48415 0
M  V30 7023 H 683.509 -2.44331 -5.55326 0
M  V30 7024 H 682.248 -1.60566 -4.60511 0
M  V30 7025 H 681.253 -3.81743 -3.95667 0
M  V30 7026 H 682.478 -4.66115 -4.93876 0
M  V30 7027 H 680.424 -2.67783 -5.98856 0
M  V30 7028 H 680.341 -4.40178 -6.14638 0
M  V30 7029 H 681.609 -3.52669 -6.95158 0
M  V30 7030 N 685.838 0.888903 -1.30139 0
M  V30 7031 C 687.087 1.63507 -1.18103 0
M  V30 7032 C 687.4 1.93808 0.264141 0
M  V30 7033 O 688.606 2.66744 0.505966 0
M  V30 7034 C 687.062 2.94673 -2.0663 0
M  V30 7035 C 686.67 2.71926 -3.56034 0
M  V30 7036 C 688.414 3.72626 -2.03346 0
M  V30 7037 C 686.321 3.98884 -4.3663 0
M  V30 7038 H 685.251 0.613426 -0.438435 0
M  V30 7039 H 687.902 0.984427 -1.54859 0
M  V30 7040 H 686.284 3.61009 -1.62754 0
M  V30 7041 H 687.458 2.14116 -4.08033 0
M  V30 7042 H 685.773 2.07353 -3.61101 0
M  V30 7043 H 688.37 4.66775 -2.60816 0
M  V30 7044 H 688.713 4.03712 -1.016 0
M  V30 7045 H 689.246 3.13147 -2.45324 0
M  V30 7046 H 685.985 3.72959 -5.39056 0
M  V30 7047 H 685.505 4.56214 -3.89396 0
M  V30 7048 H 687.184 4.66938 -4.47859 0
M  V30 7049 N 687.317 1.12792 1.10072 0
M  V30 7050 C 688.267 0.768086 2.14673 0
M  V30 7051 C 689.251 -0.234716 1.59179 0
M  V30 7052 O 690.443 -0.039643 1.76956 0
M  V30 7053 C 687.572 0.228472 3.42539 0
M  V30 7054 C 686.658 1.25979 4.04957 0
M  V30 7055 N 687.049 2.4586 4.42025 0
M  V30 7056 C 685.347 1.10602 4.32069 0
M  V30 7057 C 686.048 3.11747 4.9111 0
M  V30 7058 N 685.024 2.39185 4.88151 0
M  V30 7059 H 688.826 1.68029 2.4113 0
M  V30 7060 H 686.34 1.00925 1.27232 0
M  V30 7061 H 688.337 -0.0475216 4.16873 0
M  V30 7062 H 686.997 -0.678136 3.1754 0
M  V30 7063 H 688.008 2.83215 4.33601 0
M  V30 7064 H 684.685 0.257021 4.16708 0
M  V30 7065 H 686.075 4.13862 5.29309 0
M  V30 7066 N 688.795 -1.27931 0.920396 0
M  V30 7067 C 690.043 -1.94304 0.555906 0
M  V30 7068 C 690.364 -1.72753 -0.904519 0
M  V30 7069 O 689.634 -1.07104 -1.64029 0
M  V30 7070 H 688.214 -0.719001 0.202599 0
M  V30 7071 H 690.876 -1.55785 1.1712 0
M  V30 7072 H 689.972 -3.02806 0.755981 0
M  V30 7073 N 690.273 -0.685099 -1.4193 0
M  V30 7074 C 691.519 -0.211971 -2.01689 0
M  V30 7075 C 691.852 1.18189 -1.54094 0
M  V30 7076 O 691.127 1.79559 -0.747572 0
M  V30 7077 C 691.41 -0.258019 -3.59174 0
M  V30 7078 C 691.263 -1.68807 -4.16922 0
M  V30 7079 C 692.582 0.388044 -4.38386 0
M  V30 7080 H 689.701 -0.0784987 -0.732808 0
M  V30 7081 H 692.343 -0.871837 -1.68816 0
M  V30 7082 H 690.493 0.303832 -3.8731 0
M  V30 7083 H 692.165 -2.30296 -3.99702 0
M  V30 7084 H 690.408 -2.22553 -3.72361 0
M  V30 7085 H 691.079 -1.6719 -5.26072 0
M  V30 7086 H 693.555 -0.0903432 -4.16002 0
M  V30 7087 H 692.431 0.325232 -5.47936 0
M  V30 7088 H 692.692 1.4672 -4.17044 0
M  V30 7089 N 691.751 1.51645 -0.429126 0
M  V30 7090 C 692.997 2.02314 0.140286 0
M  V30 7091 C 693.33 1.31314 1.43074 0
M  V30 7092 O 692.605 0.425531 1.89788 0
M  V30 7093 C 692.888 3.5822 0.36749 0
M  V30 7094 C 692.741 4.39846 -0.941039 0
M  V30 7095 C 694.06 4.25055 1.14089 0
M  V30 7096 H 691.179 0.735335 0.0495112 0
M  V30 7097 H 693.821 1.81358 -0.566514 0
M  V30 7098 H 691.971 3.76207 0.969556 0
M  V30 7099 H 693.643 4.33527 -1.57646 0
M  V30 7100 H 691.886 4.05259 -1.54751 0
M  V30 7101 H 692.557 5.47069 -0.73621 0
M  V30 7102 H 695.033 4.11288 0.630986 0
M  V30 7103 H 693.909 5.34038 1.26863 0
M  V30 7104 H 694.17 3.85358 2.16683 0
M  V30 7105 N 693.229 0.160201 1.56784 0
M  V30 7106 C 694.192 -0.760405 2.16219 0
M  V30 7107 C 695.192 -1.16595 1.10735 0
M  V30 7108 O 696.382 -1.08472 1.36306 0
M  V30 7109 C 693.514 -2.03358 2.73603 0
M  V30 7110 H 694.707 -0.243173 2.98912 0
M  V30 7111 H 692.26 -0.0893139 1.56045 0
M  V30 7112 H 692.995 -2.59416 1.94612 0
M  V30 7113 H 692.78 -1.75186 3.50788 0
M  V30 7114 H 694.27 -2.69081 3.19351 0
M  V30 7115 N 694.707 -1.5719 -0.113559 0
M  V30 7116 C 695.954 -1.85138 -0.820382 0
M  V30 7117 C 696.282 -0.74608 -1.79622 0
M  V30 7118 O 695.537 0.262077 -1.93937 0
M  V30 7119 C 695.836 -3.19593 -1.59984 0
M  V30 7120 C 695.502 -4.44315 -0.767809 0
M  V30 7121 C 694.164 -4.78179 -0.538379 0
M  V30 7122 C 696.516 -5.2086 -0.188203 0
M  V30 7123 C 693.844 -5.86028 0.28082 0
M  V30 7124 C 696.196 -6.29572 0.618217 0
M  V30 7125 C 694.86 -6.61964 0.857912 0
M  V30 7126 H 694.13 -0.677467 -0.300199 0
M  V30 7127 H 696.777 -1.91322 -0.0825443 0
M  V30 7128 H 695.082 -3.0901 -2.40874 0
M  V30 7129 H 696.779 -3.3844 -2.1508 0
M  V30 7130 H 693.369 -4.17786 -0.956724 0
M  V30 7131 H 697.553 -4.95045 -0.352658 0
M  V30 7132 H 692.809 -6.09547 0.475693 0
M  V30 7133 H 696.983 -6.88064 1.0743 0
M  V30 7134 H 694.61 -7.45365 1.49451 0
M  V30 7135 N 696.185 0.383891 -1.52853 0
M  V30 7136 C 697.132 1.46924 -1.77995 0
M  V30 7137 C 698.102 1.53958 -0.623396 0
M  V30 7138 O 699.287 1.70134 -0.863657 0
M  V30 7139 C 696.427 2.84093 -1.95921 0
M  V30 7140 C 695.54 2.86171 -3.23621 0
M  V30 7141 C 694.675 4.14799 -3.31836 0
M  V30 7142 C 693.714 4.10948 -4.53639 0
M  V30 7143 N 692.851 5.31192 -4.59107 0
M  V30 7144 H 697.691 1.24786 -2.70615 0
M  V30 7145 H 695.228 0.605265 -1.34071 0
M  V30 7146 H 697.186 3.63755 -2.04299 0
M  V30 7147 H 695.816 3.04671 -1.06656 0
M  V30 7148 H 694.868 1.9885 -3.24288 0
M  V30 7149 H 696.18 2.79194 -4.13343 0
M  V30 7150 H 695.334 5.02867 -3.39425 0
M  V30 7151 H 694.073 4.24505 -2.40097 0
M  V30 7152 H 693.078 3.21268 -4.46169 0
M  V30 7153 H 694.303 4.0286 -5.467 0
M  V30 7154 H 692.249 5.41518 -3.70262 0
M  V30 7155 H 692.166 5.26311 -5.42708 0
M  V30 7156 H 693.434 6.21143 -4.70958 0
M  V30 7157 N 697.663 1.43903 0.642637 0
M  V30 7158 C 698.903 1.47591 1.41408 0
M  V30 7159 C 699.267 0.101313 1.91733 0
M  V30 7160 O 700.468 0.0128797 2.68797 0
M  V30 7161 C 698.739 2.4977 2.55636 0
M  V30 7162 S 700.298 2.72417 3.43998 0
M  V30 7163 H 697.116 0.522163 0.482563 0
M  V30 7164 H 699.718 1.80745 0.745085 0
M  V30 7165 H 698.422 3.48365 2.16956 0
M  V30 7166 H 697.953 2.1815 3.27375 0
M  V30 7167 H 699.968 2.03142 4.52712 0
M  V30 7168 N 699.141 -0.881989 1.30609 0
M  V30 7169 C 700.051 -2.02076 1.19174 0
M  V30 7170 C 701.067 -1.73645 0.11102 0
M  V30 7171 O 702.243 -1.98735 0.326528 0
M  V30 7172 C 699.308 -3.3515 0.887438 0
M  V30 7173 C 698.369 -3.76983 2.05383 0
M  V30 7174 C 697.602 -5.03707 1.76395 0
M  V30 7175 O 697.825 -5.66171 0.693302 0
M  V30 7176 O 696.759 -5.42019 2.61723 0
M  V30 7177 H 700.585 -2.14652 2.14845 0
M  V30 7178 H 698.17 -1.00843 1.10232 0
M  V30 7179 H 700.052 -4.14975 0.73306 0
M  V30 7180 H 698.727 -3.23676 -0.0393354 0
M  V30 7181 H 697.634 -2.97849 2.26355 0
M  V30 7182 H 698.967 -3.93066 2.96243 0
M  V30 7183 N 700.619 -1.13374 -1.09472 0
M  V30 7184 C 701.567 -0.806105 -2.18185 0
M  V30 7185 C 702.561 0.21136 -1.68076 0
M  V30 7186 O 703.767 0.0685558 -1.79869 0
M  V30 7187 H 700.142 -0.242901 -0.71169 0
M  V30 7188 H 702.113 -1.73115 -2.43051 0
M  V30 7189 C 700.862 -0.287928 -3.46506 0
M  V30 7190 H 700.185 -1.06217 -3.85432 0
M  V30 7191 H 701.625 -0.0971054 -4.23889 0
M  V30 7192 C 700.084 0.986256 -3.22141 0
M  V30 7193 O 700.614 2.06217 -3.44728 0
M  V30 7194 N 698.82 0.917153 -2.75747 0
M  V30 7195 H 698.367 0.0414609 -2.57567 0
M  V30 7196 H 698.325 1.77029 -2.59823 0
M  V30 7197 N 702.098 1.27442 -0.927168 0
M  V30 7198 C 703.344 1.94679 -0.568164 0
M  V30 7199 C 703.677 1.72697 0.888219 0
M  V30 7200 O 702.952 1.05573 1.63354 0
M  V30 7201 C 703.235 3.4882 -0.894253 0
M  V30 7202 C 703.088 3.80146 -2.40435 0
M  V30 7203 C 704.407 4.38281 -0.399766 0
M  V30 7204 H 701.526 0.707071 -0.207892 0
M  V30 7205 H 704.168 1.50568 -1.15885 0
M  V30 7206 H 702.318 3.86522 -0.391566 0
M  V30 7207 H 703.99 3.52238 -2.97869 0
M  V30 7208 H 702.233 3.26716 -2.85375 0
M  V30 7209 H 702.904 4.87835 -2.58304 0
M  V30 7210 H 705.38 4.07726 -0.83058 0
M  V30 7211 H 704.256 5.44955 -0.656885 0
M  V30 7212 H 704.517 4.36521 0.700153 0
M  V30 7213 N 703.576 0.692616 1.41565 0
M  V30 7214 C 704.539 0.0344174 2.29174 0
M  V30 7215 C 705.539 -0.710961 1.44229 0
M  V30 7216 O 706.729 -0.546293 1.65412 0
M  V30 7217 C 703.861 -0.961682 3.27054 0
M  V30 7218 H 705.054 0.805755 2.88873 0
M  V30 7219 H 702.607 0.455947 1.49502 0
M  V30 7220 H 703.342 -1.76089 2.72329 0
M  V30 7221 H 703.127 -0.430375 3.89731 0
M  V30 7222 H 704.617 -1.4201 3.92712 0
M  V30 7223 N 705.054 -1.51416 0.437162 0
M  V30 7224 C 706.282 -2.06503 -0.128045 0
M  V30 7225 C 706.697 -1.30461 -1.36475 0
M  V30 7226 O 706.054 -0.364127 -1.78831 0
M  V30 7227 C 706.105 -3.58683 -0.450437 0
M  V30 7228 O 705.826 -4.31853 0.737186 0
M  V30 7229 C 707.327 -4.30284 -1.06633 0
M  V30 7230 H 704.547 -0.670952 -0.00800269 0
M  V30 7231 H 707.091 -1.94996 0.616193 0
M  V30 7232 H 705.246 -3.70106 -1.14457 0
M  V30 7233 H 705.66 -5.22467 0.461347 0
M  V30 7234 H 707.134 -5.37848 -1.24191 0
M  V30 7235 H 707.611 -3.88564 -2.0473 0
M  V30 7236 H 708.217 -4.23304 -0.411585 0
M  V30 7237 N 706.532 -0.168513 -1.56696 0
M  V30 7238 C 707.462 0.758563 -2.20835 0
M  V30 7239 C 708.443 1.24121 -1.1631 0
M  V30 7240 O 709.628 1.29487 -1.4473 0
M  V30 7241 C 706.758 1.9892 -2.8469 0
M  V30 7242 C 705.712 1.64252 -3.95228 0
M  V30 7243 C 705.038 2.94757 -4.46119 0
M  V30 7244 C 706.338 0.872675 -5.14958 0
M  V30 7245 H 708.032 0.223953 -2.98561 0
M  V30 7246 H 705.578 0.106277 -1.43607 0
M  V30 7247 H 707.531 2.64275 -3.28233 0
M  V30 7248 H 706.255 2.5479 -2.04327 0
M  V30 7249 H 704.914 1.01266 -3.52336 0
M  V30 7250 H 704.562 3.48662 -3.62552 0
M  V30 7251 H 704.262 2.72316 -5.2069 0
M  V30 7252 H 705.786 3.61147 -4.92347 0
M  V30 7253 H 707.2 1.42875 -5.55211 0
M  V30 7254 H 705.597 0.747402 -5.95428 0
M  V30 7255 H 706.667 -0.131535 -4.84722 0
M  V30 7256 N 708.01 1.57248 0.105221 0
M  V30 7257 C 709.287 1.76566 0.841647 0
M  V30 7258 C 709.667 0.747566 1.9742 0
M  V30 7259 O 709.015 -0.225886 2.27381 0
M  V30 7260 C 709.225 3.22016 1.3456 0
M  V30 7261 C 710.573 3.84911 1.79244 0
M  V30 7262 O 711.597 3.25703 1.44207 0
M  V30 7263 O 710.456 4.89008 2.43995 0
M  V30 7264 H 707.55 0.723443 0.400698 0
M  V30 7265 H 710.096 1.69472 0.0878893 0
M  V30 7266 H 708.868 3.87644 0.533685 0
M  V30 7267 H 708.491 3.33703 2.16167 0
M  V30 7268 N 709.488 -0.375779 1.53054 0
M  V30 7269 C 710.899 -0.95309 1.6054 0
M  V30 7270 C 711.25 -1.90575 0.466446 0
M  V30 7271 O 710.375 -2.12507 -0.408609 0
M  V30 7272 C 710.97 -1.73537 2.90982 0
M  V30 7273 C 709.529 -2.26218 3.00836 0
M  V30 7274 C 708.676 -1.07157 2.55759 0
M  V30 7275 H 711.627 -0.154895 1.57942 0
M  V30 7276 H 711.648 -2.59574 2.78211 0
M  V30 7277 H 711.16 -1.04176 3.73857 0
M  V30 7278 H 709.261 -2.98852 2.22527 0
M  V30 7279 H 709.374 -2.54799 4.05727 0
M  V30 7280 H 707.738 -1.43553 2.10391 0
M  V30 7281 H 708.521 -0.393099 3.41042 0
M  V30 7282 N 710.966 -1.44241 -0.634997 0
M  V30 7283 C 712.215 -1.46102 -1.39058 0
M  V30 7284 C 712.528 -0.0959909 -1.95364 0
M  V30 7285 O 713.734 0.00788751 -2.71499 0
M  V30 7286 C 712.19 -2.57195 -2.51751 0
M  V30 7287 C 711.798 -3.99888 -2.01974 0
M  V30 7288 C 713.542 -2.68272 -3.28984 0
M  V30 7289 C 711.449 -5.02412 -3.11987 0
M  V30 7290 H 710.379 -0.543556 -0.522554 0
M  V30 7291 H 713.03 -1.70294 -0.683538 0
M  V30 7292 H 711.412 -2.26237 -3.25012 0
M  V30 7293 H 712.586 -4.40396 -1.35604 0
M  V30 7294 H 710.901 -3.93019 -1.37568 0
M  V30 7295 H 713.498 -3.42042 -4.10988 0
M  V30 7296 H 713.841 -1.73957 -3.78212 0
M  V30 7297 H 714.374 -2.98622 -2.62812 0
M  V30 7298 H 711.113 -5.98342 -2.67707 0
M  V30 7299 H 710.633 -4.66501 -3.77011 0
M  V30 7300 H 712.312 -5.25939 -3.76825 0
M  V30 7301 N 712.444 0.87505 -1.31075 0
M  V30 7302 C 713.672 1.66058 -1.23419 0
M  V30 7303 C 714.087 1.87723 0.201347 0
M  V30 7304 O 713.444 1.43178 1.13165 0
M  V30 7305 C 713.495 3.03142 -1.96945 0
M  V30 7306 O 713.216 2.82448 -3.34895 0
M  V30 7307 C 714.717 3.97583 -1.96067 0
M  V30 7308 H 711.937 0.517868 -0.426677 0
M  V30 7309 H 714.481 1.09258 -1.72867 0
M  V30 7310 H 712.636 3.56645 -1.51271 0
M  V30 7311 H 713.05 3.69483 -3.72267 0
M  V30 7312 H 714.524 4.91104 -2.52034 0
M  V30 7313 H 715.001 4.2898 -0.941961 0
M  V30 7314 H 715.607 3.50015 -2.41597 0
M  V30 7315 N 713.922 1.13953 1.08869 0
M  V30 7316 C 715.169 0.90481 1.81161 0
M  V30 7317 C 715.497 -0.568824 1.85996 0
M  V30 7318 O 714.752 -1.43723 1.32823 0
M  V30 7319 C 715.051 1.44495 3.26888 0
M  V30 7320 C 714.717 2.93641 3.42178 0
M  V30 7321 C 713.379 3.34361 3.46059 0
M  V30 7322 C 715.731 3.89568 3.46246 0
M  V30 7323 C 713.059 4.69681 3.51592 0
M  V30 7324 C 715.411 5.2474 3.53314 0
M  V30 7325 C 714.075 5.64979 3.55465 0
M  V30 7326 H 713.345 0.331094 0.662916 0
M  V30 7327 H 715.992 1.42242 1.28217 0
M  V30 7328 H 714.297 0.848169 3.82509 0
M  V30 7329 H 715.994 1.23934 3.81368 0
M  V30 7330 H 712.584 2.61156 3.39846 0
M  V30 7331 H 716.768 3.59192 3.42483 0
M  V30 7332 H 712.024 5.00224 3.51547 0
M  V30 7333 H 716.198 5.98882 3.55406 0
M  V30 7334 H 713.825 6.69821 3.59505 0
M  V30 7335 N 715.4 -1.26948 0.933913 0
M  V30 7336 C 716.31 -2.30366 0.443671 0
M  V30 7337 C 717.326 -1.67284 -0.478745 0
M  V30 7338 O 718.502 -1.98156 -0.360043 0
M  V30 7339 C 715.567 -3.45485 -0.289974 0
M  V30 7340 C 714.628 -4.24069 0.668114 0
M  V30 7341 C 713.861 -5.33691 -0.0306138 0
M  V30 7342 O 714.084 -5.5656 -1.24888 0
M  V30 7343 O 713.018 -5.98441 0.644384 0
M  V30 7344 H 716.844 -2.74349 1.30254 0
M  V30 7345 H 714.429 -1.32012 0.699506 0
M  V30 7346 H 716.311 -4.15486 -0.70353 0
M  V30 7347 H 714.986 -3.03546 -1.12435 0
M  V30 7348 H 713.893 -3.56579 1.13147 0
M  V30 7349 H 715.226 -4.69739 1.46989 0
M  V30 7350 N 716.879 -0.700114 -1.41195 0
M  V30 7351 C 718.107 -0.242179 -2.05478 0
M  V30 7352 C 718.522 1.11029 -1.52702 0
M  V30 7353 O 717.879 1.69473 -0.677127 0
M  V30 7354 C 717.93 -0.196271 -3.60967 0
M  V30 7355 O 717.651 -1.49532 -4.11791 0
M  V30 7356 C 719.152 0.282102 -4.42401 0
M  V30 7357 H 716.372 -0.111749 -0.661629 0
M  V30 7358 H 718.916 -0.953975 -1.80885 0
M  V30 7359 H 717.071 0.46638 -3.84582 0
M  V30 7360 H 717.485 -1.38545 -5.05871 0
M  V30 7361 H 718.959 0.263093 -5.51373 0
M  V30 7362 H 719.436 1.32174 -4.1884 0
M  V30 7363 H 720.042 -0.349712 -4.2386 0
M  V30 7364 N 718.357 1.51182 -0.445186 0
M  V30 7365 C 719.768 1.86693 0.0160999 0
M  V30 7366 C 720.119 1.36183 1.4124 0
M  V30 7367 O 719.244 0.715895 2.04215 0
M  V30 7368 C 719.839 3.38781 0.0359918 0
M  V30 7369 C 718.398 3.73799 0.441715 0
M  V30 7370 C 717.545 2.74947 -0.360511 0
M  V30 7371 H 720.496 1.44294 -0.660674 0
M  V30 7372 H 720.517 3.71026 0.843813 0
M  V30 7373 H 720.029 3.75513 -0.980378 0
M  V30 7374 H 718.13 3.42659 1.4634 0
M  V30 7375 H 718.243 4.78829 0.16106 0
M  V30 7376 H 716.607 2.54047 0.182269 0
M  V30 7377 H 717.39 3.14521 -1.3759 0
M  V30 7378 N 719.835 0.176821 1.56605 0
M  V30 7379 C 720.745 -0.763682 2.21822 0
M  V30 7380 C 721.761 -1.24889 1.21156 0
M  V30 7381 O 722.937 -1.29987 1.53836 0
M  V30 7382 C 720.002 -1.97352 2.8505 0
M  V30 7383 C 719.063 -1.53466 4.00932 0
M  V30 7384 C 718.296 -2.68682 4.61135 0
M  V30 7385 O 718.519 -3.85694 4.20234 0
M  V30 7386 O 717.453 -2.42442 5.50913 0
M  V30 7387 H 721.279 -0.238363 3.02763 0
M  V30 7388 H 718.864 -0.0516331 1.49311 0
M  V30 7389 H 720.746 -2.68096 3.25119 0
M  V30 7390 H 719.421 -2.48779 2.07101 0
M  V30 7391 H 718.328 -0.796551 3.65521 0
M  V30 7392 H 719.661 -1.06724 4.8049 0
M  V30 7393 N 721.313 -1.57302 -0.09688 0
M  V30 7394 C 722.538 -1.9058 -0.818169 0
M  V30 7395 C 722.963 -0.770921 -1.71576 0
M  V30 7396 O 722.321 0.277588 -1.79162 0
M  V30 7397 C 722.369 -3.22714 -1.60898 0
M  V30 7398 O 721.473 -3.10178 -2.71779 0
M  V30 7399 H 720.814 -0.624759 -0.224882 0
M  V30 7400 H 723.344 -2.04471 -0.07264 0
M  V30 7401 H 723.354 -3.55978 -1.99358 0
M  V30 7402 H 722.029 -4.04899 -0.950227 0
M  V30 7403 H 720.606 -2.88424 -2.3636 0
M  V30 7404 N 722.791 0.367657 -1.53252 0
M  V30 7405 C 724.038 1.11052 -1.69333 0
M  V30 7406 C 724.366 1.89363 -0.444064 0
M  V30 7407 O 723.621 1.87094 0.573953 0
M  V30 7408 C 723.92 2.09825 -2.89324 0
M  V30 7409 C 723.586 1.4801 -4.25915 0
M  V30 7410 C 722.248 1.30879 -4.6306 0
M  V30 7411 C 724.6 1.03268 -5.10867 0
M  V30 7412 C 721.928 0.675868 -5.82794 0
M  V30 7413 C 724.28 0.41377 -6.31245 0
M  V30 7414 C 722.944 0.229939 -6.67104 0
M  V30 7415 H 722.214 0.406367 -0.619634 0
M  V30 7416 H 724.861 0.392558 -1.87433 0
M  V30 7417 H 723.166 2.87917 -2.65728 0
M  V30 7418 H 724.863 2.67252 -2.98961 0
M  V30 7419 H 721.453 1.62336 -3.96667 0
M  V30 7420 H 725.637 1.15297 -4.82722 0
M  V30 7421 H 720.893 0.521833 -6.09169 0
M  V30 7422 H 725.067 0.0588768 -6.96375 0
M  V30 7423 H 722.694 -0.262562 -7.59746 0
M  V30 7424 N 724.269 1.44576 0.627338 0
M  V30 7425 C 725.518 1.46837 1.38281 0
M  V30 7426 C 725.831 0.10635 1.95311 0
M  V30 7427 O 727.037 0.00651084 2.71499 0
M  V30 7428 C 725.493 2.58527 2.50384 0
M  V30 7429 C 725.101 4.00953 1.99851 0
M  V30 7430 C 726.845 2.70013 3.27557 0
M  V30 7431 C 724.752 5.0406 3.09318 0
M  V30 7432 H 723.682 0.546319 0.519664 0
M  V30 7433 H 726.333 1.70654 0.674497 0
M  V30 7434 H 724.715 2.27957 3.23808 0
M  V30 7435 H 725.889 4.41108 1.33267 0
M  V30 7436 H 724.204 3.93743 1.35482 0
M  V30 7437 H 726.801 3.44217 4.09168 0
M  V30 7438 H 727.144 1.75961 3.77284 0
M  V30 7439 H 727.677 3.00011 2.61224 0
M  V30 7440 H 724.416 5.99753 2.6453 0
M  V30 7441 H 723.936 4.68493 3.74532 0
M  V30 7442 H 725.615 5.2793 3.74031 0
M  V30 7443 N 725.747 -0.868086 1.31537 0
M  V30 7444 C 726.972 -1.65926 1.24432 0
M  V30 7445 C 727.397 -1.87169 -0.186936 0
M  V30 7446 O 726.755 -1.4148 -1.13371 0
M  V30 7447 C 726.803 -3.00347 1.9956 0
M  V30 7448 O 725.907 -3.90221 1.33422 0
M  V30 7449 H 725.248 -0.506375 0.429512 0
M  V30 7450 H 727.778 -1.0822 1.73637 0
M  V30 7451 H 727.788 -3.50269 2.09226 0
M  V30 7452 H 726.463 -2.84205 3.03645 0
M  V30 7453 H 725.04 -3.48672 1.32219 0
M  V30 7454 N 727.225 -1.14528 -1.08264 0
M  V30 7455 C 728.155 -0.856356 -2.1723 0
M  V30 7456 C 729.136 0.189251 -1.69044 0
M  V30 7457 O 730.321 0.0456119 -1.94146 0
M  V30 7458 C 727.451 -0.334662 -3.45684 0
M  V30 7459 C 726.405 -1.31588 -4.0727 0
M  V30 7460 C 725.731 -0.653428 -5.30692 0
M  V30 7461 C 727.031 -2.67866 -4.48381 0
M  V30 7462 H 728.725 -1.76755 -2.41657 0
M  V30 7463 H 726.271 -0.851287 -1.16143 0
M  V30 7464 H 728.224 -0.120128 -4.21229 0
M  V30 7465 H 726.948 0.611967 -3.20815 0
M  V30 7466 H 725.607 -1.51661 -3.33758 0
M  V30 7467 H 725.255 0.299054 -5.0211 0
M  V30 7468 H 724.955 -1.30817 -5.72853 0
M  V30 7469 H 726.479 -0.448453 -6.08951 0
M  V30 7470 H 727.893 -2.51692 -5.15096 0
M  V30 7471 H 726.29 -3.29627 -5.01464 0
M  V30 7472 H 727.36 -3.24632 -3.60198 0
M  V30 7473 N 728.703 1.26451 -0.940633 0
M  V30 7474 C 730.114 1.75726 -0.630653 0
M  V30 7475 C 730.465 1.76631 0.854167 0
M  V30 7476 O 729.59 1.37807 1.66848 0
M  V30 7477 C 730.185 3.19114 -1.13805 0
M  V30 7478 C 728.744 3.66005 -0.878497 0
M  V30 7479 C 727.891 2.45505 -1.28928 0
M  V30 7480 H 730.842 1.12535 -1.119 0
M  V30 7481 H 730.863 3.77311 -0.491625 0
M  V30 7482 H 730.375 3.18424 -2.21874 0
M  V30 7483 H 728.476 3.72126 0.187833 0
M  V30 7484 H 728.589 4.54844 -1.50512 0
M  V30 7485 H 726.953 2.4467 -0.707713 0
M  V30 7486 H 727.736 2.47516 -2.37888 0
M  V30 7487 N 730.181 0.707592 1.40822 0
M  V30 7488 C 731.128 0.0499029 2.30746 0
M  V30 7489 C 732.098 -0.758718 1.47759 0
M  V30 7490 O 733.283 -0.724299 1.76518 0
M  V30 7491 C 730.423 -0.871756 3.33908 0
M  V30 7492 C 729.536 -0.0534655 4.31967 0
M  V30 7493 C 728.671 -0.973869 5.22197 0
M  V30 7494 C 727.71 -0.149194 6.11918 0
M  V30 7495 N 726.847 -1.02404 6.94592 0
M  V30 7496 H 731.687 0.822461 2.86426 0
M  V30 7497 H 729.224 0.417285 1.41057 0
M  V30 7498 H 731.182 -1.42028 3.9228 0
M  V30 7499 H 729.812 -1.61058 2.7975 0
M  V30 7500 H 728.864 0.612142 3.75442 0
M  V30 7501 H 730.176 0.585354 4.95353 0
M  V30 7502 H 729.33 -1.59121 5.85462 0
M  V30 7503 H 728.069 -1.64652 4.59065 0
M  V30 7504 H 727.074 0.481137 5.47691 0
M  V30 7505 H 728.299 0.519841 6.77107 0
M  V30 7506 H 726.245 -1.6825 6.34057 0
M  V30 7507 H 726.162 -0.441076 7.54712 0
M  V30 7508 H 727.43 -1.62782 7.62314 0
M  V30 7509 N 731.66 -1.50943 0.453197 0
M  V30 7510 C 732.906 -2.03153 -0.100277 0
M  V30 7511 C 733.261 -1.33032 -1.38997 0
M  V30 7512 O 732.554 -0.441423 -1.86446 0
M  V30 7513 C 732.748 -3.55603 -0.357944 0
M  V30 7514 C 732.577 -4.40495 0.905223 0
M  V30 7515 C 731.347 -4.84247 1.44337 0
M  V30 7516 C 733.545 -4.81931 1.79575 0
M  V30 7517 N 731.527 -5.53403 2.65742 0
M  V30 7518 C 732.898 -5.50314 2.85577 0
M  V30 7519 C 734.953 -4.63903 1.80828 0
M  V30 7520 C 733.656 -6.02581 3.92797 0
M  V30 7521 C 735.682 -5.17097 2.86993 0
M  V30 7522 C 735.044 -5.8544 3.91713 0
M  V30 7523 H 731.143 -0.781995 0.00287755 0
M  V30 7524 H 733.727 -1.84651 0.617411 0
M  V30 7525 H 731.898 -3.74087 -1.04467 0
M  V30 7526 H 733.63 -3.9447 -0.904175 0
M  V30 7527 H 730.385 -4.63029 0.995045 0
M  V30 7528 H 730.809 -5.92598 3.27348 0
M  V30 7529 H 735.451 -4.10512 1.0119 0
M  V30 7530 H 733.169 -6.55018 4.73262 0
M  V30 7531 H 736.755 -5.0499 2.88923 0
M  V30 7532 H 735.635 -6.25861 4.72512 0
M  V30 7533 N 733.138 -0.185124 -1.56509 0
M  V30 7534 C 734.086 0.756505 -2.19954 0
M  V30 7535 C 735.08 1.22725 -1.16769 0
M  V30 7536 O 736.286 1.1913 -1.34937 0
M  V30 7537 H 732.661 0.262279 -0.704779 0
M  V30 7538 H 734.632 0.197587 -2.97745 0
M  V30 7539 C 733.381 1.96975 -2.86524 0
M  V30 7540 H 732.704 1.61658 -3.65659 0
M  V30 7541 H 734.144 2.60719 -3.34367 0
M  V30 7542 C 732.603 2.80219 -1.87027 0
M  V30 7543 O 733.133 3.77821 -1.36433 0
M  V30 7544 N 731.339 2.4551 -1.55477 0
M  V30 7545 H 730.886 1.66199 -1.96813 0
M  V30 7546 H 730.844 3.01493 -0.891597 0
M  V30 7547 N 734.616 1.57351 0.0885366 0
M  V30 7548 C 735.579 2.01557 1.09121 0
M  V30 7549 C 736.579 0.910052 1.3257 0
M  V30 7550 O 737.769 1.17537 1.28572 0
M  V30 7551 C 734.901 2.38189 2.43883 0
M  V30 7552 H 736.094 2.91361 0.710562 0
M  V30 7553 H 733.647 1.52694 0.333779 0
M  V30 7554 H 734.382 1.5136 2.86811 0
M  V30 7555 H 734.167 3.18846 2.28209 0
M  V30 7556 H 735.657 2.73025 3.15986 0
M  V30 7557 N 736.094 -0.359525 1.53444 0
M  V30 7558 C 737.041 -1.44073 1.8031 0
M  V30 7559 C 738.011 -1.52946 0.647811 0
M  V30 7560 O 739.196 -1.68739 0.890614 0
M  V30 7561 C 736.336 -2.80941 2.00416 0
M  V30 7562 C 735.449 -2.80986 3.28132 0
M  V30 7563 C 734.584 -4.09468 3.38393 0
M  V30 7564 C 733.623 -4.03679 4.60119 0
M  V30 7565 N 732.76 -5.23821 4.675 0
M  V30 7566 H 737.6 -1.20464 2.72566 0
M  V30 7567 H 735.137 -0.583859 1.35017 0
M  V30 7568 H 737.095 -3.60459 2.1006 0
M  V30 7569 H 735.725 -3.02936 1.11489 0
M  V30 7570 H 734.777 -1.93666 3.27411 0
M  V30 7571 H 736.089 -2.72583 4.17732 0
M  V30 7572 H 735.243 -4.97404 3.47382 0
M  V30 7573 H 733.982 -4.20632 2.4682 0
M  V30 7574 H 732.987 -3.14129 4.51224 0
M  V30 7575 H 734.212 -3.94112 5.5304 0
M  V30 7576 H 732.158 -5.35559 3.7883 0
M  V30 7577 H 732.075 -5.17611 5.51013 0
M  V30 7578 H 733.343 -6.13572 4.8078 0
M  V30 7579 N 737.572 -1.44907 -0.619662 0
M  V30 7580 C 738.519 -1.52654 -1.73105 0
M  V30 7581 C 739.489 -0.373334 -1.6185 0
M  V30 7582 O 740.674 -0.585143 -1.81606 0
M  V30 7583 C 737.814 -1.48769 -3.11387 0
M  V30 7584 C 736.927 -2.74551 -3.33535 0
M  V30 7585 C 736.062 -2.62421 -4.61854 0
M  V30 7586 C 735.101 -3.83312 -4.77219 0
M  V30 7587 N 734.238 -3.69789 -5.96826 0
M  V30 7588 H 739.078 -2.47605 -1.65819 0
M  V30 7589 H 736.615 -1.22875 -0.808719 0
M  V30 7590 H 738.573 -1.44507 -3.91374 0
M  V30 7591 H 737.203 -0.573783 -3.1766 0
M  V30 7592 H 736.255 -2.88953 -2.47408 0
M  V30 7593 H 737.567 -3.64253 -3.40765 0
M  V30 7594 H 736.721 -2.56056 -5.50019 0
M  V30 7595 H 735.46 -1.70298 -4.57001 0
M  V30 7596 H 734.465 -3.90049 -3.87481 0
M  V30 7597 H 735.69 -4.76486 -4.83878 0
M  V30 7598 H 733.636 -2.80426 -5.93041 0
M  V30 7599 H 733.553 -4.53116 -6.05163 0
M  V30 7600 H 734.821 -3.67335 -6.87521 0
M  V30 7601 N 739.05 0.861098 -1.31996 0
M  V30 7602 C 740.278 1.6474 -1.25173 0
M  V30 7603 C 740.693 1.87926 0.181425 0
M  V30 7604 O 740.05 1.4437 1.1164 0
M  V30 7605 C 740.101 3.01036 -2.0015 0
M  V30 7606 O 739.822 2.7888 -3.37872 0
M  V30 7607 C 741.323 3.95481 -2.00273 0
M  V30 7608 H 738.543 0.513314 -0.432146 0
M  V30 7609 H 741.087 1.07419 -1.74016 0
M  V30 7610 H 739.242 3.55021 -1.55046 0
M  V30 7611 H 739.656 3.65514 -3.76165 0
M  V30 7612 H 741.13 4.88403 -2.57229 0
M  V30 7613 H 741.607 4.27957 -0.987407 0
M  V30 7614 H 742.213 3.47433 -2.45296 0
M  V30 7615 N 740.528 1.15101 1.07655 0
M  V30 7616 C 741.776 0.922149 1.79836 0
M  V30 7617 C 742.097 -0.552346 1.87014 0
M  V30 7618 O 741.367 -1.40145 1.3688 0
M  V30 7619 H 739.947 0.338182 0.666064 0
M  V30 7620 H 742.609 1.45107 1.30115 0
M  V30 7621 H 741.705 1.32883 2.82398 0
M  V30 7622 N 742.006 -1.2595 0.947325 0
M  V30 7623 C 743.231 -1.98083 0.614633 0
M  V30 7624 C 743.656 -1.70013 -0.804815 0
M  V30 7625 O 743.014 -0.95175 -1.54309 0
M  V30 7626 C 743.062 -3.4993 0.870706 0
M  V30 7627 O 742.166 -4.12364 -0.0541451 0
M  V30 7628 H 741.507 -0.621232 0.234451 0
M  V30 7629 H 744.037 -1.60259 1.27193 0
M  V30 7630 H 744.047 -4.00198 0.794051 0
M  V30 7631 H 742.722 -3.69691 1.90529 0
M  V30 7632 H 741.299 -3.72826 0.0740917 0
M  V30 7633 N 743.484 -0.715051 -1.40445 0
M  V30 7634 C 744.733 -0.251322 -2.00128 0
M  V30 7635 C 745.046 1.16194 -1.57347 0
M  V30 7636 O 746.252 1.72416 -2.09726 0
M  V30 7637 C 744.708 -0.398407 -3.57688 0
M  V30 7638 C 744.316 -1.81828 -4.09442 0
M  V30 7639 C 746.06 0.00455625 -4.245 0
M  V30 7640 C 743.967 -1.91598 -5.59503 0
M  V30 7641 H 742.897 -0.0902081 -0.748584 0
M  V30 7642 H 745.548 -0.886062 -1.6069 0
M  V30 7643 H 743.93 0.304908 -3.94824 0
M  V30 7644 H 745.104 -2.55193 -3.83684 0
M  V30 7645 H 743.419 -2.17266 -3.55225 0
M  V30 7646 H 746.016 -0.0477303 -5.34679 0
M  V30 7647 H 746.359 1.04636 -4.02935 0
M  V30 7648 H 746.892 -0.649184 -3.92467 0
M  V30 7649 H 743.631 -2.93898 -5.85922 0
M  V30 7650 H 743.151 -1.22644 -5.87127 0
M  V30 7651 H 744.83 -1.68785 -6.24596 0
M  V30 7652 N 744.962 1.50701 -0.461195 0
M  V30 7653 C 746.187 2.07171 0.0974773 0
M  V30 7654 C 746.612 1.32391 1.3362 0
M  V30 7655 O 745.97 0.368676 1.77512 0
M  V30 7656 C 746.018 3.58651 0.374409 0
M  V30 7657 O 745.122 3.85816 1.4567 0
M  V30 7658 H 744.463 0.663944 -0.00862047 0
M  V30 7659 H 746.993 1.94021 -0.649394 0
M  V30 7660 H 747.003 4.03295 0.617843 0
M  V30 7661 H 745.678 4.12498 -0.530829 0
M  V30 7662 H 744.255 3.53018 1.20136 0
M  V30 7663 N 746.441 0.193421 1.56409 0
M  V30 7664 C 747.688 -0.445789 1.97532 0
M  V30 7665 C 748.016 -1.61744 1.08024 0
M  V30 7666 O 747.271 -1.95338 0.118982 0
M  V30 7667 C 747.57 -0.949718 3.44551 0
M  V30 7668 C 747.236 0.108383 4.5077 0
M  V30 7669 C 745.898 0.399126 4.79542 0
M  V30 7670 C 748.25 0.825423 5.14622 0
M  V30 7671 C 745.578 1.41192 5.69457 0
M  V30 7672 C 747.93 1.82735 6.05632 0
M  V30 7673 C 746.594 2.12531 6.32761 0
M  V30 7674 H 745.864 -0.163126 0.722822 0
M  V30 7675 H 748.511 0.290035 1.89291 0
M  V30 7676 H 746.816 -1.76378 3.49854 0
M  V30 7677 H 748.513 -1.45367 3.73724 0
M  V30 7678 H 745.103 -0.128392 4.28408 0
M  V30 7679 H 749.287 0.61403 4.92487 0
M  V30 7680 H 744.543 1.6487 5.88751 0
M  V30 7681 H 748.717 2.3882 6.5417 0
M  V30 7682 H 746.344 2.91155 7.02234 0
M  V30 7683 N 747.919 -1.57396 -0.0801906 0
M  V30 7684 C 749.196 -1.77883 -0.813451 0
M  V30 7685 C 749.576 -0.778879 -1.96206 0
M  V30 7686 O 748.924 0.189683 -2.27711 0
M  V30 7687 C 749.134 -3.24116 -1.2942 0
M  V30 7688 C 750.482 -3.87714 -1.73098 0
M  V30 7689 O 751.506 -3.27956 -1.39007 0
M  V30 7690 O 750.365 -4.92828 -2.36184 0
M  V30 7691 H 747.459 -0.729727 -0.389138 0
M  V30 7692 H 750.005 -1.69591 -0.0609166 0
M  V30 7693 H 748.777 -3.88443 -0.471947 0
M  V30 7694 H 748.4 -3.371 -2.1083 0
M  V30 7695 N 749.397 0.351382 -1.53633 0
M  V30 7696 C 750.644 1.0925 -1.70502 0
M  V30 7697 C 750.972 1.88881 -0.464123 0
M  V30 7698 O 750.227 1.87693 0.554077 0
M  V30 7699 C 750.526 2.06744 -2.91533 0
M  V30 7700 C 750.192 1.43484 -4.27461 0
M  V30 7701 C 748.854 1.2596 -4.64422 0
M  V30 7702 C 751.206 0.978436 -5.11934 0
M  V30 7703 C 748.534 0.614017 -5.83478 0
M  V30 7704 C 750.886 0.346795 -6.31649 0
M  V30 7705 C 749.55 0.15917 -6.6731 0
M  V30 7706 H 748.82 0.399773 -0.623909 0
M  V30 7707 H 751.467 0.372656 -1.87839 0
M  V30 7708 H 749.772 2.85082 -2.68767 0
M  V30 7709 H 751.469 2.64066 -3.01778 0
M  V30 7710 H 748.059 1.5812 -3.98367 0
M  V30 7711 H 752.243 1.1017 -4.83918 0
M  V30 7712 H 747.499 0.457194 -6.09688 0
M  V30 7713 H 751.673 -0.0149864 -6.96398 0
M  V30 7714 H 749.3 -0.343129 -7.59425 0
M  V30 7715 N 750.875 1.45233 0.611969 0
M  V30 7716 C 752.291 1.29542 0.932251 0
M  V30 7717 C 752.491 0.24523 2.00002 0
M  V30 7718 O 751.547 -0.362333 2.49887 0
M  V30 7719 C 752.86 2.67301 1.37733 0
M  V30 7720 C 754.408 2.75163 1.49178 0
M  V30 7721 C 754.883 4.13437 1.97064 0
M  V30 7722 N 756.374 4.15709 2.04304 0
M  V30 7723 C 757.109 5.19566 2.42568 0
M  V30 7724 N 756.605 6.33771 2.79832 0
M  V30 7725 N 758.398 5.06923 2.42869 0
M  V30 7726 H 750.549 2.12192 -0.0938679 0
M  V30 7727 H 752.812 0.947775 0.0206569 0
M  V30 7728 H 752.518 3.45318 0.666951 0
M  V30 7729 H 752.392 2.95472 2.3447 0
M  V30 7730 H 754.779 1.97453 2.19309 0
M  V30 7731 H 754.86 2.50712 0.507674 0
M  V30 7732 H 754.504 4.91631 1.27521 0
M  V30 7733 H 754.434 4.35277 2.9638 0
M  V30 7734 H 756.925 3.33293 1.78113 0
M  V30 7735 H 757.238 7.08815 3.07898 0
M  V30 7736 H 755.583 6.37179 2.77538 0
M  V30 7737 H 758.774 4.1675 2.1316 0
M  V30 7738 H 758.947 5.87981 2.72364 0
M  V30 7739 N 752.353 -0.854086 1.3245 0
M  V30 7740 C 753.581 -1.64074 1.26045 0
M  V30 7741 C 753.996 -1.8802 -0.171456 0
M  V30 7742 O 753.353 -1.4496 -1.10873 0
M  V30 7743 C 753.404 -2.9997 2.01743 0
M  V30 7744 O 753.125 -2.77084 3.39346 0
M  V30 7745 C 754.626 -3.94414 2.02368 0
M  V30 7746 H 751.846 -0.511015 0.434862 0
M  V30 7747 H 754.39 -1.06494 1.74583 0
M  V30 7748 H 752.545 -3.54193 1.56926 0
M  V30 7749 H 752.959 -3.63514 3.78098 0
M  V30 7750 H 754.433 -4.87032 2.59815 0
M  V30 7751 H 754.91 -4.27427 1.01009 0
M  V30 7752 H 755.516 -3.46127 2.47135 0
M  V30 7753 N 753.831 -1.1567 -1.07043 0
M  V30 7754 C 755.059 -0.957471 -1.83412 0
M  V30 7755 C 755.474 0.494271 -1.82215 0
M  V30 7756 O 754.831 1.34288 -1.23584 0
M  V30 7757 C 754.882 -1.46784 -3.30359 0
M  V30 7758 O 754.603 -2.86271 -3.31633 0
M  V30 7759 C 756.104 -1.31054 -4.23485 0
M  V30 7760 H 753.324 -0.33986 -0.578564 0
M  V30 7761 H 755.868 -1.53518 -1.35102 0
M  V30 7762 H 754.023 -0.932586 -3.76007 0
M  V30 7763 H 754.437 -3.0948 -4.23465 0
M  V30 7764 H 755.911 -1.71605 -5.24648 0
M  V30 7765 H 756.388 -0.255107 -4.38458 0
M  V30 7766 H 756.994 -1.83503 -3.83676 0
M  V30 7767 N 755.309 1.25446 -0.953992 0
M  V30 7768 C 756.219 2.29632 -0.480264 0
M  V30 7769 C 757.235 1.68025 0.452071 0
M  V30 7770 O 758.411 1.98703 0.328472 0
M  V30 7771 C 755.476 3.45903 0.234974 0
M  V30 7772 C 754.537 4.22953 -0.735495 0
M  V30 7773 C 753.77 5.33672 -0.0542957 0
M  V30 7774 O 753.993 5.58477 1.16018 0
M  V30 7775 O 752.927 5.9734 -0.739509 0
M  V30 7776 H 756.753 2.72242 -1.34602 0
M  V30 7777 H 754.338 1.30883 -0.720419 0
M  V30 7778 H 756.22 4.16552 0.637341 0
M  V30 7779 H 754.895 3.05296 1.07592 0
M  V30 7780 H 753.802 3.54734 -1.18806 0
M  V30 7781 H 755.135 4.67341 -1.54444 0
M  V30 7782 N 756.787 0.722489 1.40064 0
M  V30 7783 C 758.198 0.336507 1.83642 0
M  V30 7784 C 758.549 -1.13002 1.6039 0
M  V30 7785 O 757.674 -1.87036 1.08842 0
M  V30 7786 C 758.269 0.603985 3.33373 0
M  V30 7787 C 756.828 0.271637 3.75419 0
M  V30 7788 C 755.975 0.872898 2.63203 0
M  V30 7789 H 758.926 0.921108 1.29233 0
M  V30 7790 H 758.947 -0.128471 3.80283 0
M  V30 7791 H 758.459 1.67141 3.50265 0
M  V30 7792 H 756.56 -0.790455 3.64119 0
M  V30 7793 H 756.673 0.745457 4.73265 0
M  V30 7794 H 755.037 0.300431 2.52922 0
M  V30 7795 H 755.82 1.94473 2.82905 0
M  V30 7796 N 758.265 -1.50454 0.469181 0
M  V30 7797 C 759.213 -2.30101 -0.340033 0
M  V30 7798 C 760.207 -1.37306 -0.992135 0
M  V30 7799 O 761.413 -1.54506 -0.923458 0
M  V30 7800 H 757.788 -0.740941 -0.128495 0
M  V30 7801 H 759.759 -2.96315 0.352144 0
M  V30 7802 C 758.508 -3.17804 -1.41052 0
M  V30 7803 H 757.831 -3.89115 -0.918124 0
M  V30 7804 H 759.271 -3.76533 -1.94934 0
M  V30 7805 C 757.73 -2.35272 -2.4114 0
M  V30 7806 O 758.26 -2.03448 -3.4637 0
M  V30 7807 N 756.466 -1.97889 -2.1281 0
M  V30 7808 H 756.013 -2.2397 -1.27261 0
M  V30 7809 H 755.971 -1.42971 -2.80012 0
M  V30 7810 N 759.743 -0.201713 -1.56304 0
M  V30 7811 C 760.991 0.434447 -1.97375 0
M  V30 7812 C 761.312 1.61692 -1.08998 0
M  V30 7813 O 760.582 1.95223 -0.162682 0
M  V30 7814 H 759.162 0.163497 -0.728888 0
M  V30 7815 H 761.824 -0.289988 -1.92731 0
M  V30 7816 H 760.92 0.774136 -3.02347 0
M  V30 7817 N 761.222 1.57436 0.0718424 0
M  V30 7818 C 762.152 2.06724 1.08571 0
M  V30 7819 C 763.133 0.960731 1.40371 0
M  V30 7820 O 764.318 1.23345 1.49999 0
M  V30 7821 C 761.448 2.51112 2.39916 0
M  V30 7822 C 760.402 3.65639 2.22469 0
M  V30 7823 C 759.728 3.96082 3.59198 0
M  V30 7824 C 761.028 4.95687 1.64596 0
M  V30 7825 H 762.722 2.91679 0.675569 0
M  V30 7826 H 760.268 1.40319 0.32352 0
M  V30 7827 H 762.221 2.84206 3.11135 0
M  V30 7828 H 760.945 1.63186 2.8291 0
M  V30 7829 H 759.604 3.32828 1.53691 0
M  V30 7830 H 759.252 3.05287 3.99761 0
M  V30 7831 H 758.952 4.73199 3.48362 0
M  V30 7832 H 760.476 4.31672 4.31847 0
M  V30 7833 H 761.89 5.27011 2.25681 0
M  V30 7834 H 760.287 5.77126 1.64457 0
M  V30 7835 H 761.357 4.8108 0.60744 0
M  V30 7836 N 762.7 -0.34323 1.53817 0
M  V30 7837 C 763.949 -1.08086 1.70295 0
M  V30 7838 C 764.262 -1.89794 0.47302 0
M  V30 7839 O 765.468 -2.66498 0.518754 0
M  V30 7840 C 763.924 -1.97097 3.01133 0
M  V30 7841 C 763.532 -1.20594 4.31464 0
M  V30 7842 C 765.276 -2.70715 3.26976 0
M  V30 7843 C 763.183 -2.08636 5.53376 0
M  V30 7844 H 762.113 -0.407228 0.634572 0
M  V30 7845 H 764.764 -0.340328 1.80316 0
M  V30 7846 H 763.146 -2.74971 2.84969 0
M  V30 7847 H 764.32 -0.476282 4.58332 0
M  V30 7848 H 762.635 -0.587426 4.12236 0
M  V30 7849 H 765.232 -3.36857 4.15248 0
M  V30 7850 H 765.575 -3.37299 2.43998 0
M  V30 7851 H 766.108 -1.99914 3.43917 0
M  V30 7852 H 762.847 -1.46594 6.38898 0
M  V30 7853 H 762.367 -2.7939 5.30755 0
M  V30 7854 H 764.046 -2.67682 5.89029 0
M  V30 7855 N 764.178 -1.45556 -0.604258 0
M  V30 7856 C 765.108 -1.57327 -1.72541 0
M  V30 7857 C 766.089 -0.424637 -1.64714 0
M  V30 7858 O 767.274 -0.648196 -1.83063 0
M  V30 7859 C 764.404 -1.54279 -3.11152 0
M  V30 7860 C 763.358 -2.67893 -3.33792 0
M  V30 7861 C 762.684 -2.499 -4.72709 0
M  V30 7862 C 763.984 -4.0988 -3.23722 0
M  V30 7863 H 765.678 -2.51175 -1.62947 0
M  V30 7864 H 763.224 -1.20884 -0.782504 0
M  V30 7865 H 765.177 -1.6111 -3.89386 0
M  V30 7866 H 763.901 -0.569627 -3.21594 0
M  V30 7867 H 762.56 -2.60495 -2.57949 0
M  V30 7868 H 762.208 -1.50715 -4.79889 0
M  V30 7869 H 761.908 -3.26091 -4.88813 0
M  V30 7870 H 763.432 -2.5859 -5.5314 0
M  V30 7871 H 764.846 -4.18503 -3.91826 0
M  V30 7872 H 763.243 -4.86487 -3.51355 0
M  V30 7873 H 764.313 -4.31553 -2.21111 0
M  V30 7874 N 765.656 0.84705 -1.32902 0
M  V30 7875 C 766.903 1.60176 -1.23894 0
M  V30 7876 C 767.231 1.93496 0.197341 0
M  V30 7877 O 766.486 1.58173 1.15238 0
M  V30 7878 C 766.785 2.92663 -2.05142 0
M  V30 7879 C 766.451 2.7874 -3.54422 0
M  V30 7880 C 765.113 2.7465 -3.95121 0
M  V30 7881 C 767.465 2.64128 -4.49317 0
M  V30 7882 C 764.793 2.53837 -5.28946 0
M  V30 7883 C 767.145 2.44849 -5.83294 0
M  V30 7884 C 765.809 2.39156 -6.23186 0
M  V30 7885 H 765.079 0.586127 -0.453361 0
M  V30 7886 H 767.726 0.981994 -1.64405 0
M  V30 7887 H 766.031 3.588 -1.57383 0
M  V30 7888 H 767.728 3.50095 -1.95537 0
M  V30 7889 H 764.318 2.82751 -3.22102 0
M  V30 7890 H 768.502 2.66327 -4.18788 0
M  V30 7891 H 763.758 2.4787 -5.58901 0
M  V30 7892 H 767.932 2.32524 -6.56434 0
M  V30 7893 H 765.559 2.22789 -7.26821 0
M  V30 7894 N 767.134 1.16236 1.06428 0
M  V30 7895 C 768.359 0.967688 1.83441 0
M  V30 7896 C 768.784 -0.479167 1.81894 0
M  V30 7897 O 768.142 -1.34224 1.21875 0
M  V30 7898 C 768.19 1.49806 3.2801 0
M  V30 7899 O 767.294 0.703481 4.06356 0
M  V30 7900 H 766.635 0.344468 0.56766 0
M  V30 7901 H 769.165 1.54442 1.34197 0
M  V30 7902 H 769.175 1.51495 3.78831 0
M  V30 7903 H 767.85 2.55133 3.2845 0
M  V30 7904 H 766.427 0.756986 3.65136 0
M  V30 7905 N 768.612 -1.24939 0.960631 0
M  V30 7906 C 769.562 -2.23388 0.456266 0
M  V30 7907 C 770.546 -1.54249 -0.45782 0
M  V30 7908 O 771.738 -1.7461 -0.289894 0
M  V30 7909 C 768.867 -3.42321 -0.259024 0
M  V30 7910 C 767.953 -4.18718 0.673478 0
M  V30 7911 N 768.344 -4.72394 1.8077 0
M  V30 7912 C 766.642 -4.43378 0.482859 0
M  V30 7913 C 767.343 -5.30316 2.3904 0
M  V30 7914 N 766.319 -5.17109 1.67629 0
M  V30 7915 H 770.121 -2.62499 1.32179 0
M  V30 7916 H 767.635 -1.40245 0.818851 0
M  V30 7917 H 769.632 -4.11997 -0.637527 0
M  V30 7918 H 768.292 -3.04732 -1.12108 0
M  V30 7919 H 769.303 -4.69345 2.18942 0
M  V30 7920 H 765.98 -4.16147 -0.335821 0
M  V30 7921 H 767.37 -5.82594 3.34715 0
M  V30 7922 N 770.09 -0.729906 -1.39679 0
M  V30 7923 C 771.338 -0.275077 -2.00219 0
M  V30 7924 C 771.659 1.1401 -1.58199 0
M  V30 7925 O 770.929 1.77546 -0.827904 0
M  V30 7926 H 769.509 -0.0987127 -0.740449 0
M  V30 7927 H 772.171 -0.93873 -1.70804 0
M  V30 7928 H 771.267 -0.319446 -3.10461 0
M  V30 7929 N 771.568 1.50203 -0.477153 0
M  V30 7930 C 772.515 2.28656 0.31386 0
M  V30 7931 C 773.485 1.33977 0.981802 0
M  V30 7932 O 774.67 1.62919 0.993072 0
M  V30 7933 C 771.81 3.16027 1.38639 0
M  V30 7934 C 770.923 4.25743 0.732615 0
M  V30 7935 C 770.058 5.00363 1.78355 0
M  V30 7936 C 769.097 6.01945 1.11035 0
M  V30 7937 N 768.234 6.6982 2.10441 0
M  V30 7938 H 773.074 2.958 -0.361445 0
M  V30 7939 H 770.611 1.45867 -0.190093 0
M  V30 7940 H 772.569 3.6504 2.01994 0
M  V30 7941 H 771.199 2.50917 2.03077 0
M  V30 7942 H 770.251 3.80398 -0.0136546 0
M  V30 7943 H 771.563 4.98393 0.201513 0
M  V30 7944 H 770.717 5.53124 2.49276 0
M  V30 7945 H 769.456 4.27432 2.34847 0
M  V30 7946 H 768.461 5.48438 0.386797 0
M  V30 7947 H 769.686 6.76851 0.552248 0
M  V30 7948 H 767.632 5.99677 2.65939 0
M  V30 7949 H 767.549 7.38366 1.62332 0
M  V30 7950 H 768.817 7.27196 2.80724 0
M  V30 7951 N 773.046 0.209999 1.56195 0
M  V30 7952 C 774.457 -0.299943 1.84275 0
M  V30 7953 C 774.808 -1.60314 1.1311 0
M  V30 7954 O 773.933 -2.1273 0.396874 0
M  V30 7955 C 774.528 -0.550986 3.3429 0
M  V30 7956 C 773.087 -1.00526 3.62728 0
M  V30 7957 C 772.234 -0.0619828 2.77231 0
M  V30 7958 H 775.185 0.433458 1.52666 0
M  V30 7959 H 775.206 -1.39846 3.53869 0
M  V30 7960 H 774.718 0.397669 3.86057 0
M  V30 7961 H 772.819 -1.96768 3.16407 0
M  V30 7962 H 772.932 -0.887664 4.70805 0
M  V30 7963 H 771.296 -0.566648 2.48317 0
M  V30 7964 H 772.079 0.881383 3.31793 0
M  V30 7965 N 774.524 -1.57472 -0.0634922 0
M  V30 7966 C 775.94 -1.54016 -0.418466 0
M  V30 7967 C 776.14 -0.931376 -1.78683 0
M  V30 7968 O 775.196 -0.537465 -2.46714 0
M  V30 7969 C 776.509 -2.98634 -0.351906 0
M  V30 7970 C 778.057 -3.10012 -0.431494 0
M  V30 7971 C 778.532 -4.56296 -0.394754 0
M  V30 7972 N 780.023 -4.60964 -0.454583 0
M  V30 7973 C 780.758 -5.71643 -0.448501 0
M  V30 7974 N 780.254 -6.91663 -0.396742 0
M  V30 7975 N 782.047 -5.5991 -0.495677 0
M  V30 7976 H 774.198 -1.95409 0.832408 0
M  V30 7977 H 776.461 -0.894769 0.313197 0
M  V30 7978 H 776.167 -3.46766 0.587048 0
M  V30 7979 H 776.041 -3.58955 -1.15893 0
M  V30 7980 H 778.428 -2.61848 -1.36087 0
M  V30 7981 H 778.509 -2.52585 0.404258 0
M  V30 7982 H 778.153 -5.05119 0.530811 0
M  V30 7983 H 778.083 -5.11594 -1.24815 0
M  V30 7984 H 780.574 -3.74598 -0.498496 0
M  V30 7985 H 780.887 -7.71783 -0.396256 0
M  V30 7986 H 779.232 -6.9405 -0.363304 0
M  V30 7987 H 782.423 -4.65046 -0.533864 0
M  V30 7988 H 782.596 -6.46164 -0.487469 0
M  V30 7989 N 776.003 0.335068 -1.53997 0
M  V30 7990 C 776.953 1.4127 -1.7896 0
M  V30 7991 C 777.937 1.474 -0.64513 0
M  V30 7992 O 779.129 1.52127 -0.904785 0
M  V30 7993 C 776.258 2.78292 -2.01018 0
M  V30 7994 C 775.344 2.7652 -3.21555 0
M  V30 7995 N 775.735 2.44374 -4.42849 0
M  V30 7996 C 774.033 3.0766 -3.22895 0
M  V30 7997 C 774.734 2.51049 -5.24737 0
M  V30 7998 N 773.71 2.8702 -4.6165 0
M  V30 7999 H 777.512 1.15327 -2.70327 0
M  V30 8000 H 775.026 0.543483 -1.53036 0
M  V30 8001 H 777.023 3.55949 -2.17039 0
M  V30 8002 H 775.683 3.05175 -1.10898 0
M  V30 8003 H 776.694 2.17422 -4.70051 0
M  V30 8004 H 773.371 3.3966 -2.42771 0
M  V30 8005 H 774.761 2.29283 -6.31569 0
M  V30 8006 N 777.481 1.45874 0.596531 0
M  V30 8007 C 778.413 1.51408 1.7207 0
M  V30 8008 C 779.426 0.403738 1.57714 0
M  V30 8009 O 780.615 0.671384 1.65393 0
M  V30 8010 C 777.715 1.3652 3.10186 0
M  V30 8011 C 776.888 2.61428 3.50677 0
M  V30 8012 C 775.947 2.40937 4.67799 0
M  V30 8013 O 774.973 3.14602 4.74357 0
M  V30 8014 N 776.175 1.4621 5.61785 0
M  V30 8015 H 778.94 2.48333 1.67782 0
M  V30 8016 H 776.501 1.41755 0.782129 0
M  V30 8017 H 778.493 1.20606 3.86311 0
M  V30 8018 H 777.063 0.478302 3.08919 0
M  V30 8019 H 776.283 2.92381 2.644 0
M  V30 8020 H 777.571 3.44432 3.74491 0
M  V30 8021 H 776.969 0.854382 5.59211 0
M  V30 8022 H 775.526 1.36264 6.37397 0
M  V30 8023 N 778.959 -0.83999 1.33349 0
M  V30 8024 C 779.906 -1.94972 1.23509 0
M  V30 8025 C 780.876 -1.65709 0.113967 0
M  V30 8026 O 782.061 -1.88552 0.292045 0
M  V30 8027 C 779.201 -3.30919 0.979105 0
M  V30 8028 C 778.314 -3.72587 2.18639 0
M  V30 8029 C 777.449 -4.97397 1.86465 0
M  V30 8030 C 776.488 -5.31597 3.03432 0
M  V30 8031 N 775.625 -6.47584 2.71254 0
M  V30 8032 H 780.465 -2.0272 2.18423 0
M  V30 8033 H 778.002 -0.992017 1.08616 0
M  V30 8034 H 779.96 -4.09239 0.811126 0
M  V30 8035 H 778.59 -3.22731 0.0667099 0
M  V30 8036 H 777.642 -2.89799 2.46416 0
M  V30 8037 H 778.954 -3.93844 3.06086 0
M  V30 8038 H 778.108 -5.83462 1.66305 0
M  V30 8039 H 776.847 -4.78107 0.96254 0
M  V30 8040 H 775.852 -4.44037 3.24208 0
M  V30 8041 H 777.077 -5.52836 3.94397 0
M  V30 8042 H 775.023 -6.29783 1.836 0
M  V30 8043 H 774.94 -6.68931 3.52231 0
M  V30 8044 H 776.208 -7.36764 2.54558 0
M  V30 8045 N 780.437 -1.16799 -1.0581 0
M  V30 8046 C 781.714 -0.862616 -1.75551 0
M  V30 8047 C 782.094 0.6385 -2.01212 0
M  V30 8048 O 781.442 1.58784 -1.64317 0
M  V30 8049 C 781.652 -1.6907 -3.05314 0
M  V30 8050 C 783 -1.90675 -3.79379 0
M  V30 8051 O 784.024 -1.65976 -3.15167 0
M  V30 8052 O 782.883 -2.32145 -4.94743 0
M  V30 8053 H 779.977 -0.318789 -0.763088 0
M  V30 8054 H 782.523 -1.27461 -1.12034 0
M  V30 8055 H 781.295 -2.70912 -2.82352 0
M  V30 8056 H 780.918 -1.27606 -3.76567 0
M  V30 8057 N 781.915 1.24427 -0.967243 0
M  V30 8058 C 782.878 2.23637 -0.501927 0
M  V30 8059 C 783.878 1.55712 0.401283 0
M  V30 8060 O 785.068 1.73085 0.196808 0
M  V30 8061 C 782.2 3.39804 0.273176 0
M  V30 8062 H 783.393 2.66317 -1.37897 0
M  V30 8063 H 780.946 1.37033 -0.751783 0
M  V30 8064 H 781.681 3.02562 1.16733 0
M  V30 8065 H 781.466 3.90303 -0.37498 0
M  V30 8066 H 782.956 4.13443 0.587776 0
M  V30 8067 N 783.393 0.737304 1.3929 0
M  V30 8068 C 784.34 0.0988364 2.30588 0
M  V30 8069 C 785.31 -0.727206 1.49335 0
M  V30 8070 O 786.495 -0.686694 1.78014 0
M  V30 8071 C 783.635 -0.800734 3.35682 0
M  V30 8072 C 782.748 0.0381731 4.31983 0
M  V30 8073 C 781.883 -0.862884 5.24145 0
M  V30 8074 C 780.922 -0.0193639 6.12097 0
M  V30 8075 N 780.059 -0.87648 6.96608 0
M  V30 8076 H 784.899 0.883031 2.84617 0
M  V30 8077 H 782.436 0.447111 1.4014 0
M  V30 8078 H 784.394 -1.33676 3.95205 0
M  V30 8079 H 783.024 -1.55088 2.83103 0
M  V30 8080 H 782.076 0.691641 3.74059 0
M  V30 8081 H 783.388 0.690294 4.94 0
M  V30 8082 H 782.542 -1.46667 5.88705 0
M  V30 8083 H 781.281 -1.54878 4.62454 0
M  V30 8084 H 780.286 0.597202 5.46547 0
M  V30 8085 H 781.511 0.663348 6.75852 0
M  V30 8086 H 779.457 -1.54762 6.37483 0
M  V30 8087 H 779.374 -0.280892 7.55478 0
M  V30 8088 H 780.642 -1.46575 7.65595 0
M  V30 8089 N 784.871 -1.49948 0.485112 0
M  V30 8090 C 785.821 -2.25734 -0.320658 0
M  V30 8091 C 786.805 -1.29907 -0.949373 0
M  V30 8092 O 787.997 -1.54725 -0.859601 0
M  V30 8093 C 785.126 -3.13728 -1.39391 0
M  V30 8094 C 784.212 -4.1701 -0.772225 0
M  V30 8095 N 784.603 -5.05667 0.115782 0
M  V30 8096 C 782.901 -4.33834 -1.03461 0
M  V30 8097 C 783.602 -5.79798 0.47004 0
M  V30 8098 N 782.578 -5.4337 -0.158204 0
M  V30 8099 H 786.38 -2.91647 0.36319 0
M  V30 8100 H 783.894 -1.59602 0.300154 0
M  V30 8101 H 785.891 -3.66639 -1.98447 0
M  V30 8102 H 784.551 -2.49365 -2.0796 0
M  V30 8103 H 785.562 -5.15619 0.485557 0
M  V30 8104 H 782.239 -3.80684 -1.71424 0
M  V30 8105 H 783.629 -6.61177 1.19558 0
M  V30 8106 N 786.349 -0.21828 -1.56081 0
M  V30 8107 C 787.76 0.290166 -1.84431 0
M  V30 8108 C 788.111 1.59712 -1.13958 0
M  V30 8109 O 787.236 2.12516 -0.40815 0
M  V30 8110 C 787.831 0.53325 -3.34577 0
M  V30 8111 C 786.39 0.986011 -3.63256 0
M  V30 8112 C 785.537 0.0472798 -2.7726 0
M  V30 8113 H 788.488 -0.441548 -1.52434 0
M  V30 8114 H 788.509 1.37967 -3.54606 0
M  V30 8115 H 788.021 -0.418137 -3.85841 0
M  V30 8116 H 786.122 1.95087 -3.17446 0
M  V30 8117 H 786.235 0.862684 -4.71269 0
M  V30 8118 H 784.599 0.553471 -2.48614 0
M  V30 8119 H 785.382 -0.898966 -3.31321 0
M  V30 8120 N 787.827 1.57504 0.0551401 0
M  V30 8121 C 788.759 2.0158 1.09078 0
M  V30 8122 C 789.772 0.92434 1.34014 0
M  V30 8123 O 790.961 1.20202 1.31961 0
M  V30 8124 C 788.061 2.35385 2.43818 0
M  V30 8125 C 787.234 3.66588 2.38605 0
M  V30 8126 C 786.293 3.87874 3.55585 0
M  V30 8127 O 785.319 4.59259 3.36258 0
M  V30 8128 N 786.521 3.31503 4.76536 0
M  V30 8129 H 789.286 2.91039 0.71529 0
M  V30 8130 H 786.847 1.60058 0.243532 0
M  V30 8131 H 788.839 2.46784 3.20749 0
M  V30 8132 H 787.409 1.51731 2.73307 0
M  V30 8133 H 786.629 3.65787 1.46947 0
M  V30 8134 H 787.917 4.52706 2.32239 0
M  V30 8135 H 787.315 2.73592 4.9514 0
M  V30 8136 H 785.872 3.48324 5.50921 0
M  V30 8137 N 789.305 -0.326896 1.54172 0
M  V30 8138 C 790.238 -1.42591 1.78166 0
M  V30 8139 C 791.216 -1.49837 0.631484 0
M  V30 8140 O 792.4 -1.67298 0.868544 0
M  V30 8141 C 789.527 -2.8071 1.89524 0
M  V30 8142 C 788.573 -2.91012 3.11792 0
M  V30 8143 S 789.406 -2.55763 4.70474 0
M  V30 8144 C 790.562 -3.9596 4.84733 0
M  V30 8145 H 790.795 -1.22024 2.71104 0
M  V30 8146 H 788.328 -0.523539 1.45253 0
M  V30 8147 H 790.286 -3.60276 1.96753 0
M  V30 8148 H 788.947 -2.98562 0.975696 0
M  V30 8149 H 788.14 -3.92258 3.16464 0
M  V30 8150 H 787.742 -2.19414 3.02876 0
M  V30 8151 H 790.034 -4.90676 4.67166 0
M  V30 8152 H 790.977 -3.96273 5.86833 0
M  V30 8153 H 791.385 -3.8476 4.13062 0
M  V30 8154 N 790.784 -1.46188 -0.588786 0
M  V30 8155 C 792.033 -1.50452 -1.34339 0
M  V30 8156 C 792.346 -0.158096 -1.9496 0
M  V30 8157 O 793.552 -0.0784918 -2.71387 0
M  V30 8158 C 792.008 -2.65074 -2.43441 0
M  V30 8159 C 791.616 -4.06111 -1.8915 0
M  V30 8160 C 793.36 -2.78603 -3.20282 0
M  V30 8161 C 791.267 -5.12084 -2.95845 0
M  V30 8162 H 790.197 -0.559905 -0.504997 0
M  V30 8163 H 792.848 -1.72382 -0.629014 0
M  V30 8164 H 791.23 -2.36462 -3.1765 0
M  V30 8165 H 792.404 -4.44487 -1.21524 0
M  V30 8166 H 790.719 -3.97197 -1.24995 0
M  V30 8167 H 793.316 -3.54944 -3.99898 0
M  V30 8168 H 793.659 -1.85902 -3.72486 0
M  V30 8169 H 794.192 -3.06832 -2.53178 0
M  V30 8170 H 790.931 -6.06556 -2.48535 0
M  V30 8171 H 790.451 -4.78259 -3.61979 0
M  V30 8172 H 792.13 -5.37661 -3.59902 0
M  V30 8173 N 792.262 0.832906 -1.33792 0
M  V30 8174 C 793.209 1.94314 -1.24541 0
M  V30 8175 C 794.179 1.65646 -0.122753 0
M  V30 8176 O 795.364 1.88394 -0.30204 0
M  V30 8177 C 792.504 3.30395 -0.996641 0
M  V30 8178 C 791.617 3.71422 -2.20612 0
M  V30 8179 C 790.752 4.96401 -1.89101 0
M  V30 8180 C 789.791 5.2998 -3.06247 0
M  V30 8181 N 788.928 6.46137 -2.74685 0
M  V30 8182 H 793.768 2.01559 -2.19495 0
M  V30 8183 H 791.305 0.986243 -1.09141 0
M  V30 8184 H 793.263 4.08803 -0.832817 0
M  V30 8185 H 791.893 3.22691 -0.0838242 0
M  V30 8186 H 790.945 2.88488 -2.47949 0
M  V30 8187 H 792.257 3.92215 -3.0817 0
M  V30 8188 H 791.411 5.82572 -1.69396 0
M  V30 8189 H 790.15 4.7759 -0.987882 0
M  V30 8190 H 789.155 4.42312 -3.26559 0
M  V30 8191 H 790.38 5.50737 -3.97323 0
M  V30 8192 H 788.326 6.28801 -1.86938 0
M  V30 8193 H 788.243 6.67054 -3.55774 0
M  V30 8194 H 789.511 7.35403 -2.58461 0
M  V30 8195 N 793.74 1.17359 1.05189 0
M  V30 8196 C 794.986 0.963413 1.78455 0
M  V30 8197 C 795.319 -0.506703 1.87473 0
M  V30 8198 O 794.594 -1.37611 1.37453 0
M  V30 8199 C 794.877 1.60519 3.22344 0
M  V30 8200 C 794.73 3.14741 3.21338 0
M  V30 8201 C 796.049 1.3091 4.20179 0
M  V30 8202 H 793.168 0.351412 0.647826 0
M  V30 8203 H 795.81 1.44858 1.22948 0
M  V30 8204 H 793.96 1.19265 3.69741 0
M  V30 8205 H 795.632 3.65053 2.82017 0
M  V30 8206 H 793.875 3.4749 2.59679 0
M  V30 8207 H 794.546 3.54775 4.22894 0
M  V30 8208 H 797.022 1.66635 3.81277 0
M  V30 8209 H 795.898 1.784 5.191 0
M  V30 8210 H 796.159 0.229908 4.41502 0
M  V30 8211 N 795.218 -1.23913 0.973828 0
M  V30 8212 C 796.495 -1.87539 0.555729 0
M  V30 8213 C 796.875 -1.87641 -0.967162 0
M  V30 8214 O 796.223 -1.35335 -1.84111 0
M  V30 8215 C 796.433 -3.29359 1.15427 0
M  V30 8216 C 797.781 -4.06 1.24294 0
M  V30 8217 O 798.805 -3.38554 1.10723 0
M  V30 8218 O 797.664 -5.26689 1.45813 0
M  V30 8219 H 794.758 -0.805769 0.186188 0
M  V30 8220 H 797.304 -1.31838 1.06849 0
M  V30 8221 H 796.076 -3.23817 2.19678 0
M  V30 8222 H 795.699 -3.92642 0.625925 0
M  V30 8223 N 796.696 -0.74468 -1.38897 0
M  V30 8224 C 797.943 -0.296884 -2.00312 0
M  V30 8225 C 798.271 1.11878 -1.59102 0
M  V30 8226 O 797.526 1.7789 -0.815702 0
M  V30 8227 C 797.825 -0.357302 -3.55609 0
M  V30 8228 C 797.491 -1.72736 -4.16501 0
M  V30 8229 C 796.153 -2.10232 -4.32846 0
M  V30 8230 C 798.505 -2.62647 -4.50184 0
M  V30 8231 C 795.833 -3.3713 -4.80167 0
M  V30 8232 C 798.185 -3.88926 -4.98918 0
M  V30 8233 C 796.849 -4.26503 -5.1347 0
M  V30 8234 H 796.119 -0.108638 -0.732993 0
M  V30 8235 H 798.766 -0.953419 -1.66079 0
M  V30 8236 H 797.071 0.382805 -3.89925 0
M  V30 8237 H 798.768 0.0074596 -4.00999 0
M  V30 8238 H 795.358 -1.42585 -4.04187 0
M  V30 8239 H 799.542 -2.34945 -4.37166 0
M  V30 8240 H 794.798 -3.66174 -4.89619 0
M  V30 8241 H 798.972 -4.58745 -5.23952 0
M  V30 8242 H 796.599 -5.24896 -5.49898 0
M  V30 8243 N 798.174 1.49689 -0.493057 0
M  V30 8244 C 799.421 2.02427 0.0542714 0
M  V30 8245 C 799.749 1.37339 1.37725 0
M  V30 8246 O 799.004 0.495523 1.89323 0
M  V30 8247 C 799.303 3.56427 0.263536 0
M  V30 8248 C 798.969 4.40111 -0.98046 0
M  V30 8249 C 797.631 4.62699 -1.32148 0
M  V30 8250 C 799.983 4.88847 -1.80771 0
M  V30 8251 C 797.311 5.31268 -2.48941 0
M  V30 8252 C 799.663 5.587 -2.96711 0
M  V30 8253 C 798.327 5.79536 -3.31202 0
M  V30 8254 H 797.597 0.740734 0.0198593 0
M  V30 8255 H 800.244 1.80073 -0.651603 0
M  V30 8256 H 798.549 3.77416 1.05186 0
M  V30 8257 H 800.246 3.94819 0.701348 0
M  V30 8258 H 796.836 4.22765 -0.704814 0
M  V30 8259 H 801.02 4.71231 -1.55741 0
M  V30 8260 H 796.276 5.45603 -2.75911 0
M  V30 8261 H 800.45 5.9544 -3.61143 0
M  V30 8262 H 798.077 6.32443 -4.21805 0
M  V30 8263 N 799.652 0.226554 1.55963 0
M  V30 8264 C 800.615 -0.668015 2.19249 0
M  V30 8265 C 801.615 -1.11794 1.1558 0
M  V30 8266 O 802.805 -1.02593 1.40784 0
M  V30 8267 C 799.937 -1.91571 2.81981 0
M  V30 8268 H 801.13 -0.116175 2.99675 0
M  V30 8269 H 798.683 -0.0230497 1.56283 0
M  V30 8270 H 799.418 -2.50929 2.05439 0
M  V30 8271 H 799.203 -1.6015 3.57903 0
M  V30 8272 H 800.693 -2.55294 3.30477 0
M  V30 8273 N 801.13 -1.57531 -0.0467866 0
M  V30 8274 C 802.379 -1.87632 -0.740069 0
M  V30 8275 C 802.692 -0.822691 -1.77457 0
M  V30 8276 O 803.898 -1.01235 -2.5192 0
M  V30 8277 C 802.354 -3.32917 -1.36727 0
M  V30 8278 C 801.962 -4.46469 -0.370035 0
M  V30 8279 C 803.706 -3.72189 -2.04146 0
M  V30 8280 C 801.613 -5.82806 -1.00457 0
M  V30 8281 H 800.543 -0.70002 -0.280158 0
M  V30 8282 H 803.194 -1.83499 0.00607151 0
M  V30 8283 H 801.576 -3.31739 -2.16252 0
M  V30 8284 H 802.75 -4.59085 0.397217 0
M  V30 8285 H 801.065 -4.15914 0.201079 0
M  V30 8286 H 803.662 -4.71357 -2.52441 0
M  V30 8287 H 804.005 -3.03268 -2.85192 0
M  V30 8288 H 804.538 -3.75465 -1.3142 0
M  V30 8289 H 801.277 -6.55083 -0.233907 0
M  V30 8290 H 800.797 -5.73944 -1.74209 0
M  V30 8291 H 802.476 -6.28961 -1.51713 0
M  V30 8292 N 802.608 0.318715 -1.54344 0
M  V30 8293 C 803.518 1.41535 -1.87097 0
M  V30 8294 C 804.534 1.56361 -0.763353 0
M  V30 8295 O 805.71 1.71365 -1.05811 0
M  V30 8296 C 802.775 2.76178 -2.09587 0
M  V30 8297 C 801.836 2.70486 -3.3337 0
M  V30 8298 C 801.069 3.98708 -3.54778 0
M  V30 8299 O 801.292 4.9721 -2.79532 0
M  V30 8300 O 800.226 4.01674 -4.48266 0
M  V30 8301 H 804.052 1.16764 -2.80357 0
M  V30 8302 H 801.637 0.51318 -1.4031 0
M  V30 8303 H 803.519 3.55873 -2.25682 0
M  V30 8304 H 802.194 3.00829 -1.19514 0
M  V30 8305 H 801.101 1.89325 -3.22656 0
M  V30 8306 H 802.434 2.50789 -4.23516 0
M  V30 8307 N 804.086 1.46499 0.581025 0
M  V30 8308 C 805.019 1.51706 1.70472 0
M  V30 8309 C 805.997 0.371036 1.5831 0
M  V30 8310 O 807.181 0.575426 1.79502 0
M  V30 8311 C 804.308 1.3972 3.08538 0
M  V30 8312 C 803.354 2.58525 3.39215 0
M  V30 8313 S 804.187 4.20872 3.311 0
M  V30 8314 C 805.343 4.11398 4.71702 0
M  V30 8315 H 805.576 2.46777 1.65796 0
M  V30 8316 H 803.109 1.34405 0.759908 0
M  V30 8317 H 805.067 1.33492 3.88188 0
M  V30 8318 H 803.728 0.460742 3.10702 0
M  V30 8319 H 802.921 2.46137 4.3981 0
M  V30 8320 H 802.523 2.61752 2.67136 0
M  V30 8321 H 804.815 3.78182 5.62125 0
M  V30 8322 H 805.758 5.11997 4.89147 0
M  V30 8323 H 806.166 3.42624 4.48631 0
M  V30 8324 N 805.565 -0.825799 1.34232 0
M  V30 8325 C 806.495 -1.95151 1.28212 0
M  V30 8326 C 807.476 -1.69345 0.160123 0
M  V30 8327 O 808.661 -1.90983 0.352019 0
M  V30 8328 C 805.791 -3.31554 1.03388 0
M  V30 8329 C 804.745 -3.71793 2.12023 0
M  V30 8330 C 804.071 -5.06147 1.72392 0
M  V30 8331 C 805.371 -3.84193 3.53826 0
M  V30 8332 H 807.065 -2.00445 2.22401 0
M  V30 8333 H 804.611 -0.962996 1.07063 0
M  V30 8334 H 806.564 -4.09889 0.978225 0
M  V30 8335 H 805.288 -3.26551 0.0564142 0
M  V30 8336 H 803.947 -2.95731 2.16654 0
M  V30 8337 H 803.595 -4.97628 0.733137 0
M  V30 8338 H 803.295 -5.34041 2.451 0
M  V30 8339 H 804.819 -5.86943 1.68317 0
M  V30 8340 H 806.233 -4.52806 3.51624 0
M  V30 8341 H 804.63 -4.23538 4.2513 0
M  V30 8342 H 805.7 -2.86272 3.91377 0
M  V30 8343 N 807.043 -1.17915 -1.04565 0
M  V30 8344 C 808.32 -0.881187 -1.74627 0
M  V30 8345 C 808.7 0.617123 -2.01878 0
M  V30 8346 O 808.048 1.57032 -1.65991 0
M  V30 8347 C 808.258 -1.72299 -3.03503 0
M  V30 8348 C 809.606 -1.94688 -3.77335 0
M  V30 8349 O 810.63 -1.6931 -3.13389 0
M  V30 8350 O 809.489 -2.37379 -4.92253 0
M  V30 8351 H 806.583 -0.326864 -0.759664 0
M  V30 8352 H 809.129 -1.28642 -1.10676 0
M  V30 8353 H 807.901 -2.73891 -2.79462 0
M  V30 8354 H 807.524 -1.31593 -3.75192 0
M  V30 8355 N 808.521 1.23394 -0.980386 0
M  V30 8356 C 809.769 1.91431 -0.647978 0
M  V30 8357 C 810.09 1.76871 0.821066 0
M  V30 8358 O 809.36 1.14808 1.58732 0
M  V30 8359 H 807.94 0.708516 -0.236673 0
M  V30 8360 H 810.602 1.50019 -1.2442 0
M  V30 8361 H 809.698 2.98854 -0.899592 0
M  V30 8362 N 809.999 0.752036 1.385 0
M  V30 8363 C 810.949 0.0990189 2.27785 0
M  V30 8364 C 811.933 -0.694867 1.45122 0
M  V30 8365 O 813.125 -0.561077 1.67872 0
M  V30 8366 C 810.254 -0.794531 3.33979 0
M  V30 8367 C 809.34 0.00611984 4.241 0
M  V30 8368 N 809.731 1.04174 4.94956 0
M  V30 8369 C 808.029 -0.220934 4.45452 0
M  V30 8370 C 808.73 1.52601 5.61327 0
M  V30 8371 N 807.706 0.84159 5.37046 0
M  V30 8372 H 811.508 0.892208 2.8003 0
M  V30 8373 H 809.022 0.587934 1.51384 0
M  V30 8374 H 811.019 -1.27797 3.96829 0
M  V30 8375 H 809.679 -1.58669 2.83292 0
M  V30 8376 H 810.69 1.42349 4.97953 0
M  V30 8377 H 807.367 -0.986556 4.05676 0
M  V30 8378 H 808.757 2.38857 6.2801 0
M  V30 8379 N 811.477 -1.49425 0.500989 0
M  V30 8380 C 812.407 -2.31971 -0.266775 0
M  V30 8381 C 813.388 -1.40245 -0.962563 0
M  V30 8382 O 814.573 -1.69154 -0.953968 0
M  V30 8383 C 811.703 -3.20757 -1.33163 0
M  V30 8384 C 810.657 -4.21275 -0.75572 0
M  V30 8385 C 809.983 -4.98997 -1.92109 0
M  V30 8386 C 811.283 -5.21686 0.253213 0
M  V30 8387 H 812.977 -2.96408 0.422237 0
M  V30 8388 H 810.523 -1.4254 0.204505 0
M  V30 8389 H 812.476 -3.77315 -1.87646 0
M  V30 8390 H 811.2 -2.54263 -2.04983 0
M  V30 8391 H 809.859 -3.65861 -0.232637 0
M  V30 8392 H 809.507 -4.28951 -2.62698 0
M  V30 8393 H 809.207 -5.67011 -1.54182 0
M  V30 8394 H 810.731 -5.584 -2.47026 0
M  V30 8395 H 812.145 -5.72939 -0.203483 0
M  V30 8396 H 810.542 -5.9759 0.548322 0
M  V30 8397 H 811.612 -4.70596 1.16909 0
M  V30 8398 N 812.955 -0.234822 -1.55841 0
M  V30 8399 C 814.185 0.397168 -2.02746 0
M  V30 8400 C 814.593 1.52951 -1.11367 0
M  V30 8401 O 813.936 1.8332 -0.118133 0
M  V30 8402 C 813.998 0.977748 -3.45948 0
M  V30 8403 C 813.662 -0.0208193 -4.56995 0
M  V30 8404 C 814.659 -0.826015 -5.13296 0
M  V30 8405 C 812.344 -0.143416 -5.02095 0
M  V30 8406 C 814.338 -1.74038 -6.1318 0
M  V30 8407 C 812.025 -1.0613 -6.01814 0
M  V30 8408 C 813.023 -1.85832 -6.57233 0
M  V30 8409 O 812.711 -2.76075 -7.55008 0
M  V30 8410 H 812.443 0.0999802 -0.668566 0
M  V30 8411 H 814.997 -0.352673 -2.0235 0
M  V30 8412 H 813.227 1.77693 -3.43456 0
M  V30 8413 H 814.916 1.51854 -3.76424 0
M  V30 8414 H 815.682 -0.741822 -4.79293 0
M  V30 8415 H 811.561 0.466857 -4.5863 0
M  V30 8416 H 815.105 -2.36291 -6.56363 0
M  V30 8417 H 811.002 -1.14646 -6.35237 0
M  V30 8418 H 811.77 -2.703 -7.7258 0
M  V30 8419 N 814.433 1.57553 0.0384317 0
M  V30 8420 C 815.363 2.0898 1.04161 0
M  V30 8421 C 816.344 0.99029 1.38301 0
M  V30 8422 O 817.529 1.26499 1.47349 0
M  V30 8423 C 814.659 2.56145 2.34536 0
M  V30 8424 C 813.613 3.70275 2.14663 0
M  V30 8425 C 812.939 4.03612 3.50715 0
M  V30 8426 C 814.239 4.99067 1.54045 0
M  V30 8427 H 815.933 2.93046 0.613548 0
M  V30 8428 H 813.479 1.40973 0.293684 0
M  V30 8429 H 815.432 2.90741 3.05037 0
M  V30 8430 H 814.156 1.6915 2.79385 0
M  V30 8431 H 812.815 3.36013 1.46597 0
M  V30 8432 H 812.463 3.13698 3.93195 0
M  V30 8433 H 812.163 4.80482 3.38247 0
M  V30 8434 H 813.687 4.40735 4.22593 0
M  V30 8435 H 815.101 5.3168 2.14451 0
M  V30 8436 H 813.498 5.80484 1.52178 0
M  V30 8437 H 814.568 4.8226 0.505259 0
M  V30 8438 N 815.911 -0.310526 1.54511 0
M  V30 8439 C 816.841 -1.38757 1.878 0
M  V30 8440 C 817.822 -1.53353 0.735991 0
M  V30 8441 O 819.007 -1.67018 0.990887 0
M  V30 8442 C 816.137 -2.75327 2.11689 0
M  V30 8443 C 815.091 -2.75506 3.27537 0
M  V30 8444 C 814.417 -4.15275 3.36824 0
M  V30 8445 C 815.717 -2.38093 4.64875 0
M  V30 8446 H 817.411 -1.11146 2.78005 0
M  V30 8447 H 814.957 -0.533232 1.33763 0
M  V30 8448 H 816.91 -3.50752 2.33562 0
M  V30 8449 H 815.634 -3.04443 1.18245 0
M  V30 8450 H 814.293 -2.02538 3.05572 0
M  V30 8451 H 813.941 -4.41553 2.40915 0
M  V30 8452 H 813.641 -4.16299 4.14692 0
M  V30 8453 H 815.165 -4.92493 3.60947 0
M  V30 8454 H 816.579 -3.03232 4.86542 0
M  V30 8455 H 814.976 -2.50345 5.45387 0
M  V30 8456 H 816.046 -1.33227 4.66239 0
M  V30 8457 N 817.389 -1.46805 -0.573248 0
M  V30 8458 C 818.319 -1.60951 -1.69165 0
M  V30 8459 C 819.3 -0.45948 -1.63777 0
M  V30 8460 O 820.485 -0.68688 -1.81647 0
M  V30 8461 C 817.615 -1.60844 -3.07809 0
M  V30 8462 C 816.569 -2.74913 -3.28035 0
M  V30 8463 C 815.895 -2.59871 -4.67302 0
M  V30 8464 C 817.195 -4.16654 -3.14955 0
M  V30 8465 H 818.889 -2.54574 -1.57582 0
M  V30 8466 H 816.435 -1.22516 -0.756686 0
M  V30 8467 H 818.388 -1.69334 -3.85881 0
M  V30 8468 H 817.112 -0.637714 -3.20314 0
M  V30 8469 H 815.771 -2.65908 -2.52366 0
M  V30 8470 H 815.419 -1.60861 -4.76585 0
M  V30 8471 H 815.119 -3.36386 -4.81786 0
M  V30 8472 H 816.643 -2.70265 -5.4753 0
M  V30 8473 H 818.057 -4.26721 -3.82861 0
M  V30 8474 H 816.454 -4.93831 -3.40956 0
M  V30 8475 H 817.524 -4.36146 -2.11908 0
M  V30 8476 N 818.867 0.818669 -1.34668 0
M  V30 8477 C 820.144 1.56118 -1.17841 0
M  V30 8478 C 820.524 2.09646 0.24731 0
M  V30 8479 O 819.872 1.91329 1.24922 0
M  V30 8480 C 820.082 2.67922 -2.23649 0
M  V30 8481 C 821.43 3.36579 -2.58843 0
M  V30 8482 O 822.454 2.78182 -2.22471 0
M  V30 8483 O 821.313 4.42045 -3.21339 0
M  V30 8484 H 818.407 0.689216 -0.457067 0
M  V30 8485 H 820.953 0.859674 -1.46314 0
M  V30 8486 H 819.725 2.26153 -3.19328 0
M  V30 8487 H 819.348 3.45719 -1.96377 0
M  V30 8488 N 820.346 1.18468 1.03938 0
M  V30 8489 C 821.279 0.856251 2.11527 0
M  V30 8490 C 822.257 -0.182323 1.61575 0
M  V30 8491 O 823.441 -0.061 1.88401 0
M  V30 8492 C 820.568 0.279562 3.37544 0
M  V30 8493 C 819.614 1.29552 4.06348 0
M  V30 8494 S 820.447 2.85191 4.5324 0
M  V30 8495 C 821.603 2.29037 5.82489 0
M  V30 8496 H 821.836 1.76742 2.39059 0
M  V30 8497 H 819.369 1.01068 1.16725 0
M  V30 8498 H 821.327 -0.0466579 4.10473 0
M  V30 8499 H 819.988 -0.60975 3.08125 0
M  V30 8500 H 819.181 0.840922 4.96935 0
M  V30 8501 H 818.783 1.56804 3.39541 0
M  V30 8502 H 821.075 1.67376 6.565 0
M  V30 8503 H 822.018 3.17929 6.32714 0
M  V30 8504 H 822.426 1.72009 5.37655 0
M  V30 8505 N 821.824 -1.22873 0.986916 0
M  V30 8506 C 823.072 -1.91084 0.658121 0
M  V30 8507 C 823.393 -1.77304 -0.811675 0
M  V30 8508 O 822.663 -1.15649 -1.58121 0
M  V30 8509 H 821.243 -0.707251 0.240427 0
M  V30 8510 H 823.905 -1.49357 1.25213 0
M  V30 8511 H 823.001 -2.98373 0.915428 0
M  V30 8512 N 823.302 -0.75937 -1.38099 0
M  V30 8513 C 824.527 -0.327859 -2.04792 0
M  V30 8514 C 824.952 1.03752 -1.56899 0
M  V30 8515 O 824.31 1.66235 -0.723581 0
M  V30 8516 C 824.358 -0.366264 -3.58735 0
M  V30 8517 O 823.462 0.637697 -4.0744 0
M  V30 8518 H 822.803 -0.144092 -0.648177 0
M  V30 8519 H 825.333 -1.03211 -1.7666 0
M  V30 8520 H 825.343 -0.219179 -4.07411 0
M  V30 8521 H 824.018 -1.36243 -3.92951 0
M  V30 8522 H 822.595 0.454749 -3.70117 0
M  V30 8523 N 824.78 1.49157 -0.508906 0
M  V30 8524 C 826.028 2.02073 0.0327335 0
M  V30 8525 C 826.349 1.39012 1.3675 0
M  V30 8526 O 825.619 0.548153 1.88075 0
M  V30 8527 H 824.199 0.746848 0.0150864 0
M  V30 8528 H 826.861 1.83097 -0.667946 0
M  V30 8529 H 825.957 3.11707 0.1566 0
M  V30 8530 N 826.258 0.243083 1.55714 0
M  V30 8531 C 827.486 -0.386971 2.03249 0
M  V30 8532 C 827.901 -1.51812 1.12243 0
M  V30 8533 O 827.258 -1.81992 0.136119 0
M  V30 8534 C 827.309 -0.898361 3.5016 0
M  V30 8535 O 827.03 0.187708 4.37698 0
M  V30 8536 C 828.531 -1.59949 4.13438 0
M  V30 8537 H 825.751 -0.0923981 0.664608 0
M  V30 8538 H 828.295 0.365832 2.01201 0
M  V30 8539 H 826.45 -1.60136 3.52754 0
M  V30 8540 H 826.864 -0.200001 5.24119 0
M  V30 8541 H 828.338 -1.90907 5.17937 0
M  V30 8542 H 828.815 -2.52014 3.59702 0
M  V30 8543 H 829.421 -0.941163 4.14756 0
M  V30 8544 N 827.736 -1.57571 -0.0300757 0
M  V30 8545 C 828.985 -1.88407 -0.720126 0
M  V30 8546 C 829.298 -0.841466 -1.76575 0
M  V30 8547 O 830.504 -1.03902 -2.50832 0
M  V30 8548 C 828.96 -3.34348 -1.33188 0
M  V30 8549 C 828.568 -4.46837 -0.32266 0
M  V30 8550 C 830.312 -3.74333 -2.00187 0
M  V30 8551 C 828.219 -5.83838 -0.942703 0
M  V30 8552 H 827.149 -0.702952 -0.272718 0
M  V30 8553 H 829.8 -1.83482 0.0255337 0
M  V30 8554 H 828.182 -3.34014 -2.12721 0
M  V30 8555 H 829.356 -4.58638 0.445887 0
M  V30 8556 H 827.671 -4.15678 0.245181 0
M  V30 8557 H 830.268 -4.74008 -2.47428 0
M  V30 8558 H 830.611 -3.06275 -2.81959 0
M  V30 8559 H 831.144 -3.76837 -1.2743 0
M  V30 8560 H 827.883 -6.55294 -0.164413 0
M  V30 8561 H 827.403 -5.75759 -1.68111 0
M  V30 8562 H 829.082 -6.30535 -1.45034 0
M  V30 8563 N 829.214 0.302327 -1.54673 0
M  V30 8564 C 830.161 1.37282 -1.85532 0
M  V30 8565 C 831.131 1.50437 -0.704129 0
M  V30 8566 O 832.316 1.65317 -0.952627 0
M  V30 8567 C 829.456 2.73309 -2.10704 0
M  V30 8568 C 828.569 2.68614 -3.38335 0
M  V30 8569 C 827.704 3.96626 -3.53357 0
M  V30 8570 C 826.743 3.86324 -4.74784 0
M  V30 8571 N 825.88 5.06109 -4.86619 0
M  V30 8572 H 830.72 1.10265 -2.76849 0
M  V30 8573 H 828.257 0.533346 -1.37091 0
M  V30 8574 H 830.215 3.52414 -2.23294 0
M  V30 8575 H 828.845 2.98589 -1.22656 0
M  V30 8576 H 827.897 1.81381 -3.34373 0
M  V30 8577 H 829.209 2.56891 -4.27561 0
M  V30 8578 H 828.363 4.84168 -3.65604 0
M  V30 8579 H 827.102 4.11182 -2.62261 0
M  V30 8580 H 826.107 2.97166 -4.62572 0
M  V30 8581 H 827.332 3.73315 -5.67286 0
M  V30 8582 H 825.278 5.2113 -3.98446 0
M  V30 8583 H 825.195 4.96804 -5.69844 0
M  V30 8584 H 826.463 5.95306 -5.03221 0
M  V30 8585 N 830.692 1.47107 0.565454 0
M  V30 8586 C 831.941 1.5257 1.31929 0
M  V30 8587 C 832.254 0.189092 1.94684 0
M  V30 8588 O 833.46 0.121657 2.71227 0
M  V30 8589 C 831.916 2.68914 2.39193 0
M  V30 8590 C 831.524 4.09069 1.82665 0
M  V30 8591 C 833.268 2.83663 3.1581 0
M  V30 8592 C 831.175 5.16726 2.87661 0
M  V30 8593 H 830.105 0.567869 0.496025 0
M  V30 8594 H 832.756 1.73361 0.60151 0
M  V30 8595 H 831.138 2.41486 3.13848 0
M  V30 8596 H 832.312 4.46364 1.14438 0
M  V30 8597 H 830.627 3.99135 1.1866 0
M  V30 8598 H 833.224 3.61261 3.94201 0
M  V30 8599 H 833.567 1.91804 3.69482 0
M  V30 8600 H 834.1 3.10821 2.48265 0
M  V30 8601 H 830.839 6.10433 2.38854 0
M  V30 8602 H 830.359 4.83957 3.54324 0
M  V30 8603 H 832.038 5.43319 3.51303 0
M  V30 8604 N 832.17 -0.811516 1.35101 0
M  V30 8605 C 833.117 -1.92308 1.27617 0
M  V30 8606 C 834.087 -1.6543 0.149091 0
M  V30 8607 O 835.272 -1.8789 0.331974 0
M  V30 8608 C 832.412 -3.28768 1.04908 0
M  V30 8609 C 831.525 -3.67865 2.26493 0
M  V30 8610 C 830.66 -4.9333 1.96974 0
M  V30 8611 C 829.699 -5.25041 3.1464 0
M  V30 8612 N 828.836 -6.41685 2.84929 0
M  V30 8613 H 833.676 -1.98041 2.22674 0
M  V30 8614 H 831.213 -0.968755 1.10696 0
M  V30 8615 H 833.171 -4.07426 0.897749 0
M  V30 8616 H 831.801 -3.22517 0.135151 0
M  V30 8617 H 830.853 -2.84507 2.52507 0
M  V30 8618 H 832.165 -3.87263 3.14371 0
M  V30 8619 H 831.319 -5.79803 1.78643 0
M  V30 8620 H 830.058 -4.75958 1.06374 0
M  V30 8621 H 829.063 -4.3706 3.33554 0
M  V30 8622 H 830.288 -5.44346 4.06035 0
M  V30 8623 H 828.234 -6.25747 1.96918 0
M  V30 8624 H 828.151 -6.6131 3.66341 0
M  V30 8625 H 829.419 -7.31198 2.70128 0
M  V30 8626 N 833.648 -1.19017 -1.03309 0
M  V30 8627 C 834.611 -0.926076 -2.09658 0
M  V30 8628 C 835.611 0.0917077 -1.60538 0
M  V30 8629 O 836.801 -0.142574 -1.73616 0
M  V30 8630 C 833.933 -0.390958 -3.38651 0
M  V30 8631 H 835.126 -1.86923 -2.3452 0
M  V30 8632 H 832.679 -1.00325 -1.19853 0
M  V30 8633 H 833.414 0.558446 -3.19456 0
M  V30 8634 H 833.199 -1.12474 -3.75622 0
M  V30 8635 H 834.689 -0.225131 -4.16993 0
M  V30 8636 N 835.127 1.22348 -0.993418 0
M  V30 8637 C 836.057 2.26584 -0.564088 0
M  V30 8638 C 837.038 1.65102 0.409298 0
M  V30 8639 O 838.223 1.91872 0.299819 0
M  V30 8640 C 835.353 3.47087 0.121554 0
M  V30 8641 C 834.307 4.21009 -0.770429 0
M  V30 8642 C 833.633 5.34678 0.0481586 0
M  V30 8643 C 834.933 4.79636 -2.06752 0
M  V30 8644 H 836.627 2.62749 -1.43538 0
M  V30 8645 H 834.173 1.26303 -0.691628 0
M  V30 8646 H 836.126 4.19166 0.433303 0
M  V30 8647 H 834.85 3.1002 1.0274 0
M  V30 8648 H 833.509 3.50764 -1.06583 0
M  V30 8649 H 833.157 4.93852 0.954933 0
M  V30 8650 H 832.857 5.85061 -0.545641 0
M  V30 8651 H 834.381 6.09573 0.353991 0
M  V30 8652 H 835.795 5.43654 -1.81969 0
M  V30 8653 H 834.192 5.4036 -2.61019 0
M  V30 8654 H 835.262 3.99659 -2.74592 0
M  V30 8655 N 836.605 0.766683 1.37694 0
M  V30 8656 C 837.535 0.163432 2.32927 0
M  V30 8657 C 838.516 -0.688861 1.55527 0
M  V30 8658 O 839.701 -0.627363 1.83787 0
M  V30 8659 C 836.831 -0.720416 3.39746 0
M  V30 8660 C 835.785 0.0301718 4.27989 0
M  V30 8661 C 835.111 -0.972788 5.25776 0
M  V30 8662 C 836.411 1.20623 5.0818 0
M  V30 8663 H 838.105 0.958988 2.83626 0
M  V30 8664 H 835.651 0.462601 1.36367 0
M  V30 8665 H 837.604 -1.15221 4.05342 0
M  V30 8666 H 836.328 -1.54844 2.8756 0
M  V30 8667 H 834.987 0.442685 3.63917 0
M  V30 8668 H 834.635 -1.79522 4.69873 0
M  V30 8669 H 834.335 -0.475145 5.85676 0
M  V30 8670 H 835.859 -1.40362 5.94248 0
M  V30 8671 H 837.273 0.851341 5.66944 0
M  V30 8672 H 835.67 1.63561 5.7738 0
M  V30 8673 H 836.74 2.01281 4.41151 0
M  V30 8674 N 838.083 -1.48885 0.516809 0
M  V30 8675 C 839.03 -2.29408 -0.253125 0
M  V30 8676 C 840 -1.36533 -0.945935 0
M  V30 8677 O 841.185 -1.65495 -0.949527 0
M  V30 8678 C 838.325 -3.19592 -1.30211 0
M  V30 8679 C 837.438 -4.27535 -0.61948 0
M  V30 8680 C 836.573 -5.04916 -1.65026 0
M  V30 8681 C 835.612 -6.04677 -0.950368 0
M  V30 8682 N 834.749 -6.75164 -1.92608 0
M  V30 8683 H 839.589 -2.94738 0.439744 0
M  V30 8684 H 837.126 -1.45311 0.2287 0
M  V30 8685 H 839.084 -3.70267 -1.92245 0
M  V30 8686 H 837.714 -2.56213 -1.96353 0
M  V30 8687 H 836.766 -3.80228 0.114505 0
M  V30 8688 H 838.078 -4.98752 -0.0693016 0
M  V30 8689 H 837.232 -5.59539 -2.34523 0
M  V30 8690 H 835.971 -4.33508 -2.23432 0
M  V30 8691 H 834.976 -5.4927 -0.241252 0
M  V30 8692 H 836.201 -6.78077 -0.372599 0
M  V30 8693 H 834.147 -6.06517 -2.49946 0
M  V30 8694 H 834.064 -7.4241 -1.42699 0
M  V30 8695 H 835.332 -7.34384 -2.61345 0
M  V30 8696 N 839.561 -0.251338 -1.55583 0
M  V30 8697 C 840.508 0.646337 -2.21565 0
M  V30 8698 C 841.478 1.16796 -1.18102 0
M  V30 8699 O 842.663 1.22162 -1.46564 0
M  V30 8700 C 839.803 1.83557 -2.92234 0
M  V30 8701 C 838.916 1.35006 -4.10363 0
M  V30 8702 C 838.051 2.4992 -4.68736 0
M  V30 8703 C 837.09 1.98253 -5.79105 0
M  V30 8704 N 836.227 3.06551 -6.31642 0
M  V30 8705 H 841.067 0.0769881 -2.97901 0
M  V30 8706 H 838.604 0.026238 -1.47077 0
M  V30 8707 H 840.562 2.53425 -3.31408 0
M  V30 8708 H 839.192 2.37733 -2.18364 0
M  V30 8709 H 838.244 0.545274 -3.76472 0
M  V30 8710 H 839.556 0.931435 -4.90026 0
M  V30 8711 H 838.71 3.27823 -5.10507 0
M  V30 8712 H 837.449 2.95086 -3.88298 0
M  V30 8713 H 836.454 1.18822 -5.36807 0
M  V30 8714 H 837.679 1.54051 -6.61396 0
M  V30 8715 H 835.625 3.51143 -5.54107 0
M  V30 8716 H 835.542 2.69033 -7.06511 0
M  V30 8717 H 836.81 3.84499 -6.78071 0
M  V30 8718 N 841.039 1.57585 0.0217189 0
M  V30 8719 C 842.285 1.89887 0.712099 0
M  V30 8720 C 842.618 0.849971 1.74611 0
M  V30 8721 O 841.893 -0.13407 1.94037 0
M  V30 8722 C 842.176 3.32815 1.37499 0
M  V30 8723 C 842.029 4.48405 0.353993 0
M  V30 8724 C 843.348 3.74786 2.30703 0
M  V30 8725 H 840.467 0.690588 0.257405 0
M  V30 8726 H 843.109 1.89983 -0.0251145 0
M  V30 8727 H 841.259 3.32863 2.00335 0
M  V30 8728 H 842.931 4.60491 -0.273015 0
M  V30 8729 H 841.174 4.32573 -0.32599 0
M  V30 8730 H 841.845 5.45316 0.85644 0
M  V30 8731 H 844.321 3.76151 1.77904 0
M  V30 8732 H 843.197 4.75585 2.74061 0
M  V30 8733 H 843.458 3.07449 3.17691 0
M  V30 8734 N 842.517 -0.29412 1.54831 0
M  V30 8735 C 843.465 -1.38296 1.87021 0
M  V30 8736 C 844.459 -1.5216 0.744557 0
M  V30 8737 O 845.665 -1.54196 0.92864 0
M  V30 8738 H 842.04 -0.462088 0.593278 0
M  V30 8739 H 844.011 -1.08386 2.7802 0
M  V30 8740 C 842.76 -2.74024 2.14023 0
M  V30 8741 H 842.083 -2.6414 3.00117 0
M  V30 8742 H 843.523 -3.49205 2.40482 0
M  V30 8743 C 841.982 -3.23492 0.940982 0
M  V30 8744 O 842.512 -4.01361 0.164937 0
M  V30 8745 N 840.718 -2.80902 0.744467 0
M  V30 8746 H 840.265 -2.17694 1.37721 0
M  V30 8747 H 840.223 -3.14349 -0.0563652 0
M  V30 8748 N 843.995 -1.47404 -0.557645 0
M  V30 8749 C 845.272 -1.44488 -1.31843 0
M  V30 8750 C 845.652 -0.1416 -2.10625 0
M  V30 8751 O 845 0.876908 -2.11004 0
M  V30 8752 C 845.21 -2.69016 -2.22331 0
M  V30 8753 C 846.558 -3.16212 -2.83364 0
M  V30 8754 O 847.582 -2.69741 -2.32634 0
M  V30 8755 O 846.441 -3.96999 -3.75571 0
M  V30 8756 H 843.535 -0.57578 -0.593639 0
M  V30 8757 H 846.081 -1.59605 -0.576584 0
M  V30 8758 H 844.853 -3.55406 -1.63715 0
M  V30 8759 H 844.476 -2.56484 -3.03812 0
M  V30 8760 N 845.473 0.80434 -1.35529 0
M  V30 8761 C 846.721 1.55845 -1.28673 0
M  V30 8762 C 847.042 1.94511 0.137976 0
M  V30 8763 O 846.312 1.63775 1.07492 0
M  V30 8764 H 844.892 0.577931 -0.473291 0
M  V30 8765 H 847.554 0.959293 -1.69657 0
M  V30 8766 H 846.65 2.47285 -1.90411 0
M  V30 8767 N 846.951 1.19563 1.02676 0
M  V30 8768 C 847.861 0.950691 2.14474 0
M  V30 8769 C 848.877 -0.0900219 1.73767 0
M  V30 8770 O 850.053 0.0951063 2.01175 0
M  V30 8771 C 847.118 0.494917 3.43149 0
M  V30 8772 C 846.179 1.60527 3.98158 0
M  V30 8773 C 845.412 1.17115 5.20692 0
M  V30 8774 O 845.635 0.0355937 5.70389 0
M  V30 8775 O 844.569 1.97454 5.68591 0
M  V30 8776 H 848.395 1.88651 2.38001 0
M  V30 8777 H 845.98 0.978635 1.12885 0
M  V30 8778 H 847.862 0.249492 4.20661 0
M  V30 8779 H 846.537 -0.412434 3.21062 0
M  V30 8780 H 845.444 1.90487 3.21971 0
M  V30 8781 H 846.777 2.48925 4.24614 0
M  V30 8782 N 848.429 -1.21819 0.999893 0
M  V30 8783 C 849.675 -1.91325 0.690373 0
M  V30 8784 C 850.03 -1.76323 -0.769929 0
M  V30 8785 O 849.323 -1.12585 -1.55033 0
M  V30 8786 C 849.517 -3.4193 1.04012 0
M  V30 8787 C 849.346 -3.71585 2.53287 0
M  V30 8788 C 848.116 -3.91219 3.19806 0
M  V30 8789 C 850.314 -3.75502 3.5143 0
M  V30 8790 N 848.296 -4.08246 4.58485 0
M  V30 8791 C 849.667 -3.97753 4.75597 0
M  V30 8792 C 851.722 -3.58383 3.45638 0
M  V30 8793 C 850.425 -4.04662 5.94677 0
M  V30 8794 C 852.451 -3.66555 4.64103 0
M  V30 8795 C 851.813 -3.89263 5.87072 0
M  V30 8796 H 847.912 -0.720484 0.304018 0
M  V30 8797 H 850.496 -1.46595 1.28133 0
M  V30 8798 H 848.667 -3.85452 0.477671 0
M  V30 8799 H 850.399 -3.98846 0.685864 0
M  V30 8800 H 847.154 -3.88917 2.7026 0
M  V30 8801 H 847.578 -4.20673 5.30437 0
M  V30 8802 H 852.22 -3.39807 2.51576 0
M  V30 8803 H 849.938 -4.22039 6.89136 0
M  V30 8804 H 853.524 -3.54639 4.61218 0
M  V30 8805 H 852.404 -3.95424 6.77207 0
M  V30 8806 N 849.908 -0.773975 -1.37286 0
M  V30 8807 C 851.138 -0.350249 -2.03609 0
M  V30 8808 C 851.546 1.03313 -1.58502 0
M  V30 8809 O 850.889 1.67118 -0.7627 0
M  V30 8810 C 850.951 -0.317215 -3.58098 0
M  V30 8811 C 850.615 -1.64556 -4.26345 0
M  V30 8812 C 851.612 -2.59839 -4.50311 0
M  V30 8813 C 849.297 -1.92061 -4.64131 0
M  V30 8814 C 851.291 -3.80833 -5.11122 0
M  V30 8815 C 848.978 -3.13325 -5.24663 0
M  V30 8816 C 849.976 -4.0753 -5.48095 0
M  V30 8817 O 849.664 -5.26658 -6.0736 0
M  V30 8818 H 849.396 -0.144456 -0.660385 0
M  V30 8819 H 851.95 -1.0496 -1.76557 0
M  V30 8820 H 850.18 0.438528 -3.84205 0
M  V30 8821 H 851.869 0.0797428 -4.05822 0
M  V30 8822 H 852.635 -2.39872 -4.21529 0
M  V30 8823 H 848.514 -1.19562 -4.45226 0
M  V30 8824 H 852.058 -4.54377 -5.29327 0
M  V30 8825 H 847.955 -3.33177 -5.52869 0
M  V30 8826 H 848.723 -5.27513 -6.25837 0
M  V30 8827 N 851.386 1.48609 -0.524698 0
M  V30 8828 C 852.336 2.26505 0.260696 0
M  V30 8829 C 853.32 1.32378 0.914597 0
M  V30 8830 O 854.512 1.5695 0.818277 0
M  V30 8831 C 851.641 3.17313 1.31024 0
M  V30 8832 C 850.727 4.18911 0.661391 0
M  V30 8833 N 851.118 5.05183 -0.24981 0
M  V30 8834 C 849.416 4.36425 0.91922 0
M  V30 8835 C 850.117 5.78348 -0.623598 0
M  V30 8836 N 849.093 5.43598 0.0140839 0
M  V30 8837 H 852.895 2.90582 -0.440388 0
M  V30 8838 H 850.409 1.5875 -0.342364 0
M  V30 8839 H 852.406 3.71772 1.88656 0
M  V30 8840 H 851.066 2.54791 2.01275 0
M  V30 8841 H 852.077 5.1415 -0.622093 0
M  V30 8842 H 848.754 3.85095 1.6127 0
M  V30 8843 H 850.144 6.57775 -1.37046 0
M  V30 8844 N 852.864 0.259585 1.55447 0
M  V30 8845 C 854.11 -0.362143 1.9954 0
M  V30 8846 C 854.443 -1.5666 1.14767 0
M  V30 8847 O 853.718 -1.93319 0.214025 0
M  V30 8848 C 854.001 -0.759588 3.51998 0
M  V30 8849 C 853.854 0.451134 4.47532 0
M  V30 8850 C 855.173 -1.60186 4.09913 0
M  V30 8851 H 852.292 -0.130157 0.725416 0
M  V30 8852 H 854.934 0.363431 1.86492 0
M  V30 8853 H 853.084 -1.3778 3.63248 0
M  V30 8854 H 854.756 1.08965 4.48246 0
M  V30 8855 H 852.999 1.092 4.19831 0
M  V30 8856 H 853.67 0.129518 5.51848 0
M  V30 8857 H 856.146 -1.0799 4.01842 0
M  V30 8858 H 855.022 -1.84879 5.16828 0
M  V30 8859 H 855.283 -2.57787 3.59163 0
M  V30 8860 N 854.342 -1.57594 -0.0133615 0
M  V30 8861 C 855.619 -1.81173 -0.737273 0
M  V30 8862 C 855.999 -0.861395 -1.92726 0
M  V30 8863 O 855.347 0.0929324 -2.28311 0
M  V30 8864 C 855.557 -3.29314 -1.15557 0
M  V30 8865 C 856.905 -3.94707 -1.56498 0
M  V30 8866 O 857.929 -3.33557 -1.24973 0
M  V30 8867 O 856.788 -5.02402 -2.15069 0
M  V30 8868 H 853.882 -0.745575 -0.357837 0
M  V30 8869 H 856.428 -1.69696 0.0110674 0
M  V30 8870 H 855.2 -3.90096 -0.30677 0
M  V30 8871 H 854.823 -3.45739 -1.96343 0
M  V30 8872 N 855.82 0.285905 -1.54985 0
M  V30 8873 C 857.067 1.0192 -1.74982 0
M  V30 8874 C 857.395 1.86743 -0.543816 0
M  V30 8875 O 856.65 1.89874 0.473972 0
M  V30 8876 C 856.949 1.94193 -3.0004 0
M  V30 8877 C 856.615 1.25225 -4.33162 0
M  V30 8878 C 855.277 1.06149 -4.69346 0
M  V30 8879 C 857.629 0.760427 -5.15623 0
M  V30 8880 C 854.957 0.365991 -5.85557 0
M  V30 8881 C 857.309 0.0785787 -6.32551 0
M  V30 8882 C 855.973 -0.124002 -6.67385 0
M  V30 8883 H 855.243 0.372951 -0.640304 0
M  V30 8884 H 857.89 0.292652 -1.89251 0
M  V30 8885 H 856.195 2.73426 -2.80616 0
M  V30 8886 H 857.892 2.51029 -3.12707 0
M  V30 8887 H 854.482 1.41081 -4.04715 0
M  V30 8888 H 858.666 0.895466 -4.88155 0
M  V30 8889 H 853.922 0.198193 -6.11079 0
M  V30 8890 H 858.096 -0.310339 -6.95708 0
M  V30 8891 H 855.723 -0.664918 -7.57287 0
M  V30 8892 N 857.298 1.47698 0.54982 0
M  V30 8893 C 858.23 1.56806 1.67166 0
M  V30 8894 C 859.243 0.453709 1.5635 0
M  V30 8895 O 860.432 0.723663 1.63173 0
M  V30 8896 C 857.532 1.4632 3.05686 0
M  V30 8897 C 856.705 2.72452 3.42182 0
M  V30 8898 C 855.764 2.55698 4.59897 0
M  V30 8899 O 854.79 3.29534 4.64108 0
M  V30 8900 N 855.992 1.64009 5.56849 0
M  V30 8901 H 858.757 2.53545 1.59797 0
M  V30 8902 H 856.318 1.44171 0.736635 0
M  V30 8903 H 858.31 1.32835 3.82279 0
M  V30 8904 H 856.88 0.57634 3.07241 0
M  V30 8905 H 856.1 3.00644 2.54964 0
M  V30 8906 H 857.388 3.56172 3.63344 0
M  V30 8907 H 856.786 1.03186 5.5621 0
M  V30 8908 H 855.343 1.56473 6.3274 0
M  V30 8909 N 858.776 -0.797141 1.35954 0
M  V30 8910 C 860.192 -1.09408 1.16198 0
M  V30 8911 C 860.392 -2.01491 -0.0191682 0
M  V30 8912 O 859.448 -2.42977 -0.686902 0
M  V30 8913 C 860.761 -1.71597 2.46931 0
M  V30 8914 C 862.309 -1.83974 2.53224 0
M  V30 8915 C 862.784 -2.49579 3.84024 0
M  V30 8916 N 864.275 -2.57055 3.85327 0
M  V30 8917 C 865.01 -3.08608 4.83268 0
M  V30 8918 N 864.506 -3.60527 5.91601 0
M  V30 8919 N 866.299 -3.07249 4.70696 0
M  V30 8920 H 858.45 -0.185209 2.11591 0
M  V30 8921 H 860.713 -0.144768 0.936881 0
M  V30 8922 H 860.419 -1.11404 3.3359 0
M  V30 8923 H 860.293 -2.71193 2.62172 0
M  V30 8924 H 862.68 -2.43308 1.66988 0
M  V30 8925 H 862.761 -0.83207 2.41889 0
M  V30 8926 H 862.405 -1.90892 4.70662 0
M  V30 8927 H 862.335 -3.50902 3.92651 0
M  V30 8928 H 864.826 -2.20283 3.07057 0
M  V30 8929 H 865.139 -3.98192 6.62317 0
M  V30 8930 H 863.484 -3.587 5.95281 0
M  V30 8931 H 866.675 -2.65972 3.85197 0
M  V30 8932 H 866.848 -3.47119 5.47186 0
M  V30 8933 N 860.254 -1.20106 -1.0204 0
M  V30 8934 C 861.531 -0.918029 -1.72718 0
M  V30 8935 C 861.911 0.574163 -2.03142 0
M  V30 8936 O 861.259 1.53476 -1.69285 0
M  V30 8937 C 861.469 -1.78698 -2.9978 0
M  V30 8938 C 862.817 -2.02648 -3.7312 0
M  V30 8939 O 863.841 -1.75919 -3.09727 0
M  V30 8940 O 862.7 -2.47767 -4.87107 0
M  V30 8941 H 859.794 -0.342904 -0.752559 0
M  V30 8942 H 862.34 -1.30961 -1.07923 0
M  V30 8943 H 861.112 -2.79757 -2.7359 0
M  V30 8944 H 860.735 -1.39522 -3.72316 0
M  V30 8945 N 861.732 1.21287 -1.00634 0
M  V30 8946 C 862.98 1.90013 -0.688438 0
M  V30 8947 C 863.301 1.78573 0.783365 0
M  V30 8948 O 862.571 1.1815 1.56261 0
M  V30 8949 H 861.151 0.703336 -0.251648 0
M  V30 8950 H 863.813 1.47346 -1.27574 0
M  V30 8951 H 862.909 2.96879 -0.962781 0
M  V30 8952 N 863.21 0.781244 1.36873 0
M  V30 8953 C 864.626 0.461968 1.52768 0
M  V30 8954 C 864.826 -1.02099 1.73719 0
M  V30 8955 O 863.882 -1.80665 1.76399 0
M  V30 8956 C 865.195 1.2853 2.71846 0
M  V30 8957 C 866.743 1.27817 2.85713 0
M  V30 8958 C 867.218 2.08506 4.07786 0
M  V30 8959 N 868.709 2.05909 4.14917 0
M  V30 8960 C 869.444 2.65118 5.08429 0
M  V30 8961 N 868.94 3.33152 6.07438 0
M  V30 8962 N 870.733 2.54896 5.00983 0
M  V30 8963 H 862.884 1.74198 1.21527 0
M  V30 8964 H 865.147 0.740027 0.592506 0
M  V30 8965 H 864.853 2.3366 2.62861 0
M  V30 8966 H 864.727 0.920981 3.65784 0
M  V30 8967 H 867.114 0.234817 2.94164 0
M  V30 8968 H 867.195 1.68219 1.92707 0
M  V30 8969 H 866.839 3.12867 4.00096 0
M  V30 8970 H 866.769 1.65479 4.99924 0
M  V30 8971 H 869.26 1.56386 3.44023 0
M  V30 8972 H 869.573 3.75681 6.75339 0
M  V30 8973 H 867.918 3.37253 6.07689 0
M  V30 8974 H 871.109 2.01352 4.22581 0
M  V30 8975 H 871.282 3.01332 5.73675 0
M  V30 8976 N 864.689 -1.48329 0.532571 0
M  V30 8977 C 865.914 -2.074 0.00147755 0
M  V30 8978 C 866.339 -1.38615 -1.27151 0
M  V30 8979 O 865.697 -0.452949 -1.75551 0
M  V30 8980 C 865.745 -3.60029 -0.202866 0
M  V30 8981 O 864.849 -3.92327 -1.27097 0
M  V30 8982 H 864.19 -0.662777 0.0402883 0
M  V30 8983 H 866.72 -1.90701 0.741224 0
M  V30 8984 H 866.73 -4.05783 -0.424722 0
M  V30 8985 H 865.405 -4.09496 0.727033 0
M  V30 8986 H 863.982 -3.58348 -1.03156 0
M  V30 8987 N 866.167 -0.267825 -1.55308 0
M  V30 8988 C 867.415 0.350343 -1.9904 0
M  V30 8989 C 867.736 1.56924 -1.15758 0
M  V30 8990 O 867.006 1.94358 -0.245336 0
M  V30 8991 H 865.586 0.132435 -0.735167 0
M  V30 8992 H 868.248 -0.371471 -1.91327 0
M  V30 8993 H 867.344 0.645203 -3.05358 0
M  V30 8994 N 867.645 1.57599 0.00500368 0
M  V30 8995 C 868.873 1.94626 0.702016 0
M  V30 8996 C 869.288 0.86953 1.67585 0
M  V30 8997 O 868.645 -0.15199 1.81866 0
M  V30 8998 C 868.696 3.31658 1.43824 0
M  V30 8999 O 868.417 4.35197 0.503467 0
M  V30 9000 C 869.918 3.83114 2.23021 0
M  V30 9001 H 867.138 0.641785 0.195841 0
M  V30 9002 H 869.682 2.04451 -0.0446287 0
M  V30 9003 H 867.837 3.23156 2.13655 0
M  V30 9004 H 868.251 5.1444 1.02235 0
M  V30 9005 H 869.725 4.81438 2.7004 0
M  V30 9006 H 870.202 3.15559 3.05482 0
M  V30 9007 H 870.808 3.94775 1.58216 0
M  V30 9008 N 869.123 -0.277682 1.55134 0
M  V30 9009 C 870.372 -1.00766 1.74726 0
M  V30 9010 C 870.685 -1.87617 0.553092 0
M  V30 9011 O 871.891 -2.64058 0.631318 0
M  V30 9012 C 870.347 -1.84147 3.09221 0
M  V30 9013 C 869.955 -1.02186 4.3619 0
M  V30 9014 C 871.699 -2.56604 3.38164 0
M  V30 9015 C 869.606 -1.84978 5.61727 0
M  V30 9016 H 868.536 -0.379948 0.651273 0
M  V30 9017 H 871.187 -0.263543 1.81598 0
M  V30 9018 H 869.569 -2.62637 2.96375 0
M  V30 9019 H 870.743 -0.281459 4.5994 0
M  V30 9020 H 869.058 -0.412054 4.14356 0
M  V30 9021 H 871.655 -3.18942 4.29162 0
M  V30 9022 H 871.998 -3.26647 2.58085 0
M  V30 9023 H 872.531 -1.85147 3.52087 0
M  V30 9024 H 869.27 -1.19365 6.4454 0
M  V30 9025 H 868.79 -2.56628 5.42128 0
M  V30 9026 H 870.469 -2.42458 5.99853 0
M  V30 9027 N 870.601 -1.47988 -0.541979 0
M  V30 9028 C 871.826 -1.59286 -1.32826 0
M  V30 9029 C 872.251 -0.24894 -1.86445 0
M  V30 9030 O 871.609 0.777581 -1.63778 0
M  V30 9031 C 871.657 -2.6334 -2.46343 0
M  V30 9032 O 870.761 -2.19667 -3.49028 0
M  V30 9033 H 870.102 -0.534543 -0.393903 0
M  V30 9034 H 872.632 -1.93885 -0.653427 0
M  V30 9035 H 872.642 -2.84238 -2.92699 0
M  V30 9036 H 871.317 -3.60913 -2.06675 0
M  V30 9037 H 869.894 -2.08932 -3.08872 0
M  V30 9038 N 872.079 0.78992 -1.36375 0
M  V30 9039 C 873.325 1.55007 -1.3077 0
M  V30 9040 C 873.658 1.93871 0.112979 0
M  V30 9041 O 872.933 1.6267 1.06625 0
M  V30 9042 C 873.216 2.82748 -2.22993 0
M  V30 9043 C 873.069 2.50253 -3.73756 0
M  V30 9044 C 874.388 3.84569 -2.13998 0
M  V30 9045 H 871.507 0.562362 -0.476359 0
M  V30 9046 H 874.149 0.907582 -1.66922 0
M  V30 9047 H 872.299 3.37573 -1.92292 0
M  V30 9048 H 873.971 2.01482 -4.14973 0
M  V30 9049 H 872.214 1.83203 -3.93216 0
M  V30 9050 H 872.885 3.41487 -4.33694 0
M  V30 9051 H 875.361 3.39188 -2.4102 0
M  V30 9052 H 874.237 4.717 -2.80697 0
M  V30 9053 H 874.498 4.27491 -1.12711 0
M  V30 9054 N 873.557 1.20646 1.01402 0
M  V30 9055 C 874.505 0.954493 2.12114 0
M  V30 9056 C 875.499 -0.0950737 1.69133 0
M  V30 9057 O 876.705 0.0555153 1.79914 0
M  V30 9058 H 873.08 0.29135 0.693267 0
M  V30 9059 H 875.051 1.89447 2.30548 0
M  V30 9060 C 873.8 0.525944 3.43699 0
M  V30 9061 H 873.123 1.32516 3.772 0
M  V30 9062 H 874.563 0.388883 4.22213 0
M  V30 9063 C 873.022 -0.761997 3.28169 0
M  V30 9064 O 873.552 -1.81979 3.58115 0
M  V30 9065 N 871.758 -0.725017 2.8141 0
M  V30 9066 H 871.305 0.13607 2.5724 0
M  V30 9067 H 871.263 -1.5871 2.71401 0
M  V30 9068 N 875.035 -1.20752 1.01276 0
M  V30 9069 C 876.263 -1.94006 0.718976 0
M  V30 9070 C 876.678 -1.74544 -0.719711 0
M  V30 9071 O 876.035 -1.05697 -1.48776 0
M  V30 9072 C 876.086 -3.46208 1.04031 0
M  V30 9073 O 875.807 -3.65031 2.42248 0
M  V30 9074 C 877.308 -4.36614 0.767032 0
M  V30 9075 H 874.528 -0.616743 0.264327 0
M  V30 9076 H 877.072 -1.53352 1.3529 0
M  V30 9077 H 875.227 -3.84756 0.451852 0
M  V30 9078 H 875.641 -4.59054 2.53712 0
M  V30 9079 H 877.115 -5.42076 1.04198 0
M  V30 9080 H 877.592 -4.38182 -0.298851 0
M  V30 9081 H 878.198 -4.03723 1.33746 0
M  V30 9082 N 876.513 -0.788492 -1.36457 0
M  V30 9083 C 877.443 -0.200468 -2.32638 0
M  V30 9084 C 878.424 0.664031 -1.56603 0
M  V30 9085 O 879.609 0.598045 -1.84762 0
M  V30 9086 C 876.739 0.666274 -3.40849 0
M  V30 9087 C 875.693 -0.0982574 -4.27887 0
M  V30 9088 C 875.019 0.889018 -5.27258 0
M  V30 9089 C 876.319 -1.28692 -5.06197 0
M  V30 9090 H 878.013 -1.00399 -2.82065 0
M  V30 9091 H 875.559 -0.484237 -1.35614 0
M  V30 9092 H 877.512 1.08757 -4.07124 0
M  V30 9093 H 876.236 1.50249 -2.89987 0
M  V30 9094 H 874.895 -0.500525 -3.63167 0
M  V30 9095 H 874.543 1.72024 -4.7267 0
M  V30 9096 H 874.243 0.381909 -5.86358 0
M  V30 9097 H 875.767 1.30891 -5.96406 0
M  V30 9098 H 877.181 -0.941429 -5.65517 0
M  V30 9099 H 875.578 -1.72726 -5.74705 0
M  V30 9100 H 876.648 -2.08273 -4.37893 0
M  V30 9101 N 877.991 1.48044 -0.54043 0
M  V30 9102 C 879.407 1.58354 -0.199006 0
M  V30 9103 C 879.607 1.54118 1.29807 0
M  V30 9104 O 878.663 1.43573 2.07709 0
M  V30 9105 C 879.976 2.89563 -0.810797 0
M  V30 9106 C 881.524 3.03113 -0.780486 0
M  V30 9107 C 881.999 4.36997 -1.37104 0
M  V30 9108 N 883.49 4.43591 -1.33347 0
M  V30 9109 C 884.225 5.45714 -1.76021 0
M  V30 9110 N 883.721 6.54738 -2.26473 0
M  V30 9111 N 885.514 5.36659 -1.67194 0
M  V30 9112 H 877.665 1.49041 -1.51329 0
M  V30 9113 H 879.928 0.708309 -0.630081 0
M  V30 9114 H 879.634 2.9835 -1.86227 0
M  V30 9115 H 879.508 3.76053 -0.293977 0
M  V30 9116 H 881.895 2.93932 0.262246 0
M  V30 9117 H 881.976 2.18207 -1.33489 0
M  V30 9118 H 881.62 4.46932 -2.41276 0
M  V30 9119 H 881.55 5.20607 -0.792229 0
M  V30 9120 H 884.041 3.65391 -0.964259 0
M  V30 9121 H 884.354 7.28814 -2.57002 0
M  V30 9122 H 882.699 6.55673 -2.30473 0
M  V30 9123 H 885.89 4.50382 -1.27569 0
M  V30 9124 H 886.063 6.16113 -2.00771 0
M  V30 9125 N 879.47 0.276058 1.55163 0
M  V30 9126 C 880.698 -0.343772 2.04024 0
M  V30 9127 C 881.113 -1.49397 1.15438 0
M  V30 9128 O 880.47 -1.81662 0.174692 0
M  V30 9129 C 880.521 -0.823885 3.51986 0
M  V30 9130 O 880.242 0.280507 4.37201 0
M  V30 9131 C 881.743 -1.51143 4.16738 0
M  V30 9132 H 878.963 -0.07828 0.666418 0
M  V30 9133 H 881.507 0.408427 2.0038 0
M  V30 9134 H 879.662 -1.52617 3.56071 0
M  V30 9135 H 880.076 -0.0887831 5.24425 0
M  V30 9136 H 881.55 -1.79878 5.2187 0
M  V30 9137 H 882.027 -2.44327 3.64967 0
M  V30 9138 H 882.633 -0.852975 4.16659 0
M  V30 9139 N 880.948 -1.576 0.00335426 0
M  V30 9140 C 882.359 -1.7875 -0.539008 0
M  V30 9141 C 882.71 -0.911097 -1.73763 0
M  V30 9142 O 881.835 -0.114476 -2.16097 0
M  V30 9143 C 882.43 -3.24177 -0.984611 0
M  V30 9144 C 880.989 -3.46412 -1.47226 0
M  V30 9145 C 880.136 -2.74024 -0.425004 0
M  V30 9146 H 883.087 -1.57032 0.229511 0
M  V30 9147 H 883.108 -3.32474 -1.85044 0
M  V30 9148 H 882.62 -3.87938 -0.112035 0
M  V30 9149 H 880.721 -2.8787 -2.36562 0
M  V30 9150 H 880.834 -4.55098 -1.49741 0
M  V30 9151 H 879.198 -2.38741 -0.887394 0
M  V30 9152 H 879.981 -3.40486 0.438662 0
M  V30 9153 N 882.426 0.269451 -1.5528 0
M  V30 9154 C 883.656 1.01724 -1.79821 0
M  V30 9155 C 884.064 1.80298 -0.573532 0
M  V30 9156 O 883.407 1.77666 0.466963 0
M  V30 9157 C 883.469 2.02043 -2.97353 0
M  V30 9158 C 883.133 1.42375 -4.34256 0
M  V30 9159 C 884.13 0.837611 -5.13108 0
M  V30 9160 C 881.815 1.44988 -4.8092 0
M  V30 9161 C 883.809 0.285557 -6.3676 0
M  V30 9162 C 881.496 0.893969 -6.04526 0
M  V30 9163 C 882.494 0.312809 -6.82283 0
M  V30 9164 O 882.182 -0.234582 -8.03558 0
M  V30 9165 H 881.914 0.30604 -0.602757 0
M  V30 9166 H 884.468 0.30454 -2.0313 0
M  V30 9167 H 882.698 2.77082 -2.69745 0
M  V30 9168 H 884.387 2.6298 -3.09187 0
M  V30 9169 H 885.153 0.81009 -4.78187 0
M  V30 9170 H 881.032 1.89162 -4.20403 0
M  V30 9171 H 884.576 -0.168696 -6.97396 0
M  V30 9172 H 880.473 0.918742 -6.38928 0
M  V30 9173 H 881.241 -0.124282 -8.18406 0
M  V30 9174 N 883.904 1.48273 0.534124 0
M  V30 9175 C 885.132 1.59734 1.31501 0
M  V30 9176 C 885.547 0.256047 1.87056 0
M  V30 9177 O 884.904 -0.754086 1.66192 0
M  V30 9178 C 884.955 2.64072 2.46877 0
M  V30 9179 O 884.676 3.92995 1.93613 0
M  V30 9180 C 886.177 2.85933 3.38758 0
M  V30 9181 H 883.397 0.538703 0.40005 0
M  V30 9182 H 885.941 1.9407 0.644762 0
M  V30 9183 H 884.096 2.32606 3.09795 0
M  V30 9184 H 884.51 4.50203 2.69106 0
M  V30 9185 H 885.984 3.62749 4.16073 0
M  V30 9186 H 886.461 1.94603 3.93734 0
M  V30 9187 H 887.067 3.18687 2.81636 0
M  V30 9188 N 885.382 -0.782676 1.36792 0
M  V30 9189 C 886.345 -1.8772 1.31507 0
M  V30 9190 C 887.345 -1.59269 0.221349 0
M  V30 9191 O 888.535 -1.67555 0.476544 0
M  V30 9192 C 885.667 -3.24641 1.04025 0
M  V30 9193 H 886.86 -1.9382 2.28853 0
M  V30 9194 H 884.413 -0.981226 1.21662 0
M  V30 9195 H 885.148 -3.24221 0.0716439 0
M  V30 9196 H 884.933 -3.46681 1.8318 0
M  V30 9197 H 886.423 -4.04711 1.02949 0
M  V30 9198 N 886.86 -1.21182 -1.00761 0
M  V30 9199 C 888.271 -1.02652 -1.55947 0
M  V30 9200 C 888.622 0.414466 -1.91772 0
M  V30 9201 O 887.747 1.29727 -1.73204 0
M  V30 9202 C 888.342 -1.85713 -2.83366 0
M  V30 9203 C 886.901 -1.71523 -3.35048 0
M  V30 9204 C 886.048 -1.83087 -2.08265 0
M  V30 9205 H 888.999 -1.35242 -0.830379 0
M  V30 9206 H 889.02 -1.36583 -3.55141 0
M  V30 9207 H 888.532 -2.90584 -2.5726 0
M  V30 9208 H 886.633 -0.693257 -3.66094 0
M  V30 9209 H 886.746 -2.53333 -4.06644 0
M  V30 9210 H 885.11 -1.26367 -2.21141 0
M  V30 9211 H 885.893 -2.8946 -1.84575 0
M  V30 9212 N 888.338 1.20213 -1.01915 0
M  V30 9213 C 889.586 1.89272 -0.708552 0
M  V30 9214 C 889.907 1.79394 0.76438 0
M  V30 9215 O 889.177 1.198 1.54999 0
M  V30 9216 H 887.757 0.700628 -0.259094 0
M  V30 9217 H 890.419 1.45985 -1.29129 0
M  V30 9218 H 889.515 2.95841 -0.994215 0
M  V30 9219 N 889.816 0.795718 1.36037 0
M  V30 9220 C 890.726 0.199784 2.33748 0
M  V30 9221 C 891.742 -0.651436 1.61345 0
M  V30 9222 O 892.918 -0.565743 1.93291 0
M  V30 9223 C 889.983 -0.650475 3.40543 0
M  V30 9224 C 889.044 0.219974 4.28736 0
M  V30 9225 C 888.277 -0.589798 5.30431 0
M  V30 9226 O 888.5 -1.82532 5.40406 0
M  V30 9227 O 887.434 0.0136187 6.01898 0
M  V30 9228 H 891.26 1.00782 2.8649 0
M  V30 9229 H 888.845 0.557293 1.38617 0
M  V30 9230 H 890.727 -1.13512 4.05824 0
M  V30 9231 H 889.402 -1.4363 2.9009 0
M  V30 9232 H 888.309 0.751516 3.66474 0
M  V30 9233 H 889.642 0.969468 4.82558 0
M  V30 9234 N 891.294 -1.47756 0.548274 0
M  V30 9235 C 892.519 -2.07387 0.023475 0
M  V30 9236 C 892.944 -1.39956 -1.25674 0
M  V30 9237 O 892.302 -0.471543 -1.7506 0
M  V30 9238 C 892.35 -3.60224 -0.164669 0
M  V30 9239 O 891.454 -3.93653 -1.22928 0
M  V30 9240 H 890.795 -0.662312 0.0473156 0
M  V30 9241 H 893.325 -1.89905 0.761409 0
M  V30 9242 H 893.335 -4.06211 -0.38166 0
M  V30 9243 H 892.01 -4.08702 0.770425 0
M  V30 9244 H 890.587 -3.59422 -0.993495 0
M  V30 9245 N 892.772 -0.284283 -1.55015 0
M  V30 9246 C 893.682 0.60906 -2.26556 0
M  V30 9247 C 894.698 1.16246 -1.29472 0
M  V30 9248 O 895.874 1.1908 -1.62425 0
M  V30 9249 C 892.939 1.77246 -2.97968 0
M  V30 9250 C 892 1.25482 -4.10552 0
M  V30 9251 C 891.233 2.36277 -4.78549 0
M  V30 9252 O 891.456 3.55829 -4.45805 0
M  V30 9253 O 890.39 2.03914 -5.66306 0
M  V30 9254 H 894.216 0.0292298 -3.03686 0
M  V30 9255 H 891.801 -0.0513466 -1.49312 0
M  V30 9256 H 893.683 2.45062 -3.42815 0
M  V30 9257 H 892.358 2.33921 -2.23747 0
M  V30 9258 H 891.265 0.542859 -3.7014 0
M  V30 9259 H 892.598 0.733708 -4.86701 0
M  V30 9260 N 894.251 1.57596 -0.0117121 0
M  V30 9261 C 895.5 1.9025 0.669921 0
M  V30 9262 C 895.813 0.887986 1.74282 0
M  V30 9263 O 897.019 1.10516 2.47989 0
M  V30 9264 C 895.475 3.37762 1.24277 0
M  V30 9265 C 895.083 4.47535 0.204076 0
M  V30 9266 C 896.827 3.79509 1.90192 0
M  V30 9267 C 894.734 5.86132 0.787577 0
M  V30 9268 H 893.664 0.709935 0.253984 0
M  V30 9269 H 896.315 1.8335 -0.0741718 0
M  V30 9270 H 894.697 3.39537 2.03791 0
M  V30 9271 H 895.871 4.57294 -0.56733 0
M  V30 9272 H 894.186 4.14881 -0.355305 0
M  V30 9273 H 896.783 4.80402 2.34773 0
M  V30 9274 H 897.126 3.13643 2.7374 0
M  V30 9275 H 897.659 3.80084 1.17394 0
M  V30 9276 H 894.398 6.55499 -0.00938418 0
M  V30 9277 H 893.918 5.80014 1.52787 0
M  V30 9278 H 895.597 6.34158 1.28265 0
M  V30 9279 N 895.729 -0.261212 1.5542 0
M  V30 9280 C 896.659 -1.32712 1.92119 0
M  V30 9281 C 897.64 -1.50934 0.784406 0
M  V30 9282 O 898.825 -1.63781 1.04352 0
M  V30 9283 C 895.955 -2.68453 2.20341 0
M  V30 9284 C 894.909 -2.64947 3.36136 0
M  V30 9285 C 894.235 -4.04349 3.49865 0
M  V30 9286 C 895.535 -2.23182 4.72215 0
M  V30 9287 H 897.229 -1.02245 2.81401 0
M  V30 9288 H 894.775 -0.490406 1.35392 0
M  V30 9289 H 896.728 -3.43144 2.44603 0
M  V30 9290 H 895.452 -3.00527 1.27871 0
M  V30 9291 H 894.111 -1.92714 3.11861 0
M  V30 9292 H 893.759 -4.33665 2.5484 0
M  V30 9293 H 893.459 -4.02895 4.27726 0
M  V30 9294 H 894.983 -4.80761 3.76432 0
M  V30 9295 H 896.397 -2.87599 4.95943 0
M  V30 9296 H 894.794 -2.32867 5.53076 0
M  V30 9297 H 895.864 -1.18327 4.70241 0
M  V30 9298 N 897.207 -1.48554 -0.526253 0
M  V30 9299 C 898.484 -1.47252 -1.28748 0
M  V30 9300 C 898.864 -0.186245 -2.10277 0
M  V30 9301 O 898.212 0.831954 -2.12816 0
M  V30 9302 C 898.422 -2.73672 -2.16575 0
M  V30 9303 C 899.77 -3.22151 -2.76593 0
M  V30 9304 O 900.794 -2.74614 -2.2686 0
M  V30 9305 O 899.653 -4.04877 -3.67066 0
M  V30 9306 H 896.747 -0.588242 -0.581292 0
M  V30 9307 H 899.293 -1.60792 -0.5426 0
M  V30 9308 H 898.065 -3.58798 -1.56139 0
M  V30 9309 H 897.688 -2.6287 -2.98304 0
M  V30 9310 N 898.685 0.775411 -1.37205 0
M  V30 9311 C 899.615 1.90258 -1.35367 0
M  V30 9312 C 900.596 1.68634 -0.222864 0
M  V30 9313 O 901.781 1.89545 -0.422659 0
M  V30 9314 C 898.911 3.27488 -1.15623 0
M  V30 9315 C 897.865 3.63668 -2.25676 0
M  V30 9316 C 897.191 4.994 -1.91059 0
M  V30 9317 C 898.491 3.70797 -3.67841 0
M  V30 9318 H 900.185 1.92053 -2.29687 0
M  V30 9319 H 897.731 0.922597 -1.10563 0
M  V30 9320 H 899.684 4.05976 -1.12968 0
M  V30 9321 H 898.408 3.26117 -0.177573 0
M  V30 9322 H 897.067 2.87486 -2.2748 0
M  V30 9323 H 896.715 4.94565 -0.917324 0
M  V30 9324 H 896.415 5.24576 -2.64751 0
M  V30 9325 H 897.939 5.80291 -1.89985 0
M  V30 9326 H 899.353 4.39444 -3.68187 0
M  V30 9327 H 897.75 4.07468 -4.40556 0
M  V30 9328 H 898.82 2.71549 -4.01732 0
M  V30 9329 N 900.163 1.21714 1.00117 0
M  V30 9330 C 901.44 0.945391 1.71236 0
M  V30 9331 C 901.82 -0.541772 2.0403 0
M  V30 9332 O 901.168 -1.50763 1.71705 0
M  V30 9333 C 901.378 1.83444 2.96899 0
M  V30 9334 C 902.726 2.08558 3.69849 0
M  V30 9335 O 903.75 1.80824 3.06889 0
M  V30 9336 O 902.609 2.55485 4.83104 0
M  V30 9337 H 899.703 0.354834 0.747009 0
M  V30 9338 H 902.249 1.32661 1.05825 0
M  V30 9339 H 901.021 2.84075 2.69105 0
M  V30 9340 H 900.644 1.45428 3.70049 0
M  V30 9341 N 901.641 -1.19671 1.02551 0
M  V30 9342 C 902.918 -1.85014 0.634771 0
M  V30 9343 C 903.298 -1.91574 -0.886706 0
M  V30 9344 O 902.646 -1.43022 -1.78205 0
M  V30 9345 C 902.856 -3.24167 1.29292 0
M  V30 9346 C 904.204 -4.00363 1.41402 0
M  V30 9347 O 905.228 -3.33553 1.24983 0
M  V30 9348 O 904.087 -5.2003 1.6802 0
M  V30 9349 H 901.181 -0.797147 0.220196 0
M  V30 9350 H 903.727 -1.27188 1.12345 0
M  V30 9351 H 902.499 -3.14208 2.33215 0
M  V30 9352 H 902.122 -3.89634 0.791895 0
M  V30 9353 N 903.119 -0.802921 -1.35613 0
M  V30 9354 C 904.029 -0.212177 -2.33639 0
M  V30 9355 C 905.045 0.642871 -1.61689 0
M  V30 9356 O 906.221 0.555485 -1.93588 0
M  V30 9357 C 903.286 0.632406 -3.40883 0
M  V30 9358 C 902.347 -0.242708 -4.28613 0
M  V30 9359 C 901.58 0.56166 -5.30736 0
M  V30 9360 O 901.803 1.79664 -5.41366 0
M  V30 9361 O 900.737 -0.0455387 -6.01883 0
M  V30 9362 H 904.563 -1.023 -2.85952 0
M  V30 9363 H 902.148 -0.564636 -1.38319 0
M  V30 9364 H 904.03 1.11358 -4.0642 0
M  V30 9365 H 902.705 1.42089 -2.90848 0
M  V30 9366 H 901.612 -0.77094 -3.6607 0
M  V30 9367 H 902.945 -0.995046 -4.82037 0
M  V30 9368 N 904.597 1.47463 -0.556102 0
M  V30 9369 C 905.527 2.32801 0.180497 0
M  V30 9370 C 906.508 1.43721 0.909848 0
M  V30 9371 O 907.693 1.72578 0.89053 0
M  V30 9372 C 904.823 3.25478 1.21167 0
M  V30 9373 C 903.777 4.2379 0.598846 0
M  V30 9374 C 903.103 5.05783 1.73457 0
M  V30 9375 C 904.403 5.20387 -0.446659 0
M  V30 9376 H 906.097 2.94636 -0.531956 0
M  V30 9377 H 903.643 1.41683 -0.257267 0
M  V30 9378 H 905.596 3.8402 1.73513 0
M  V30 9379 H 904.32 2.61695 1.95405 0
M  V30 9380 H 902.979 3.66472 0.0966897 0
M  V30 9381 H 902.627 4.38405 2.46596 0
M  V30 9382 H 902.327 5.72343 1.33031 0
M  V30 9383 H 903.851 5.67183 2.26131 0
M  V30 9384 H 905.265 5.73299 -0.00930019 0
M  V30 9385 H 903.662 5.95143 -0.769735 0
M  V30 9386 H 904.732 4.65932 -1.34295 0
M  V30 9387 N 906.075 0.2925 1.54862 0
M  V30 9388 C 907.305 -0.321646 2.04081 0
M  V30 9389 C 907.713 -1.48712 1.16967 0
M  V30 9390 O 907.056 -1.82755 0.18609 0
M  V30 9391 C 907.118 -0.848678 3.49339 0
M  V30 9392 C 906.782 0.190416 4.56603 0
M  V30 9393 C 907.779 1.01595 5.09877 0
M  V30 9394 C 905.464 0.329666 5.01217 0
M  V30 9395 C 907.458 1.96676 6.06298 0
M  V30 9396 C 905.145 1.28393 5.9746 0
M  V30 9397 C 906.143 2.10097 6.49883 0
M  V30 9398 O 905.831 3.03907 7.44242 0
M  V30 9399 H 905.563 -0.075098 0.671816 0
M  V30 9400 H 908.117 0.427531 2.00901 0
M  V30 9401 H 906.347 -1.64823 3.49815 0
M  V30 9402 H 908.036 -1.37779 3.81801 0
M  V30 9403 H 908.802 0.919197 4.7621 0
M  V30 9404 H 904.681 -0.296317 4.60047 0
M  V30 9405 H 908.225 2.60488 6.47141 0
M  V30 9406 H 904.122 1.38144 6.30545 0
M  V30 9407 H 904.89 2.98787 7.62016 0
M  V30 9408 N 907.553 -1.57587 0.0200696 0
M  V30 9409 C 908.483 -2.12702 -0.963333 0
M  V30 9410 C 909.464 -1.04094 -1.34531 0
M  V30 9411 O 910.649 -1.31881 -1.42552 0
M  V30 9412 C 907.779 -2.64673 -2.24868 0
M  V30 9413 C 906.733 -3.77987 -2.00772 0
M  V30 9414 C 906.059 -4.16351 -3.35494 0
M  V30 9415 C 907.359 -5.0444 -1.35416 0
M  V30 9416 H 909.053 -2.95121 -0.504363 0
M  V30 9417 H 906.599 -1.41966 -0.24116 0
M  V30 9418 H 908.552 -3.01862 -2.94036 0
M  V30 9419 H 907.276 -1.79403 -2.72914 0
M  V30 9420 H 905.935 -3.41223 -1.34025 0
M  V30 9421 H 905.583 -3.28075 -3.81282 0
M  V30 9422 H 905.283 -4.92705 -3.20181 0
M  V30 9423 H 906.807 -4.56115 -4.05945 0
M  V30 9424 H 908.221 -5.39273 -1.94571 0
M  V30 9425 H 906.618 -5.85732 -1.30529 0
M  V30 9426 H 907.688 -4.83803 -0.325923 0
M  V30 9427 N 909.032 0.252966 -1.55557 0
M  V30 9428 C 910.28 0.979912 -1.76754 0
M  V30 9429 C 910.601 1.86083 -0.582944 0
M  V30 9430 O 909.871 1.91742 0.401497 0
M  V30 9431 H 908.451 0.364805 -0.651864 0
M  V30 9432 H 911.113 0.272372 -1.92987 0
M  V30 9433 H 910.209 1.60518 -2.67657 0
M  V30 9434 N 910.51 1.48831 0.518367 0
M  V30 9435 C 911.758 1.57128 1.27103 0
M  V30 9436 C 912.079 0.252098 1.93364 0
M  V30 9437 O 911.349 -0.727281 1.819 0
M  V30 9438 H 909.929 0.578891 0.472116 0
M  V30 9439 H 912.591 1.85361 0.602262 0
M  V30 9440 H 911.687 2.35838 2.04418 0
M  V30 9441 N 911.988 -0.768124 1.37614 0
M  V30 9442 C 912.918 -1.89537 1.36374 0
M  V30 9443 C 913.899 -1.68513 0.231803 0
M  V30 9444 O 915.084 -1.89318 0.432705 0
M  V30 9445 C 912.214 -3.26871 1.17358 0
M  V30 9446 C 911.168 -3.62466 2.27602 0
M  V30 9447 C 910.494 -4.9838 1.93705 0
M  V30 9448 C 911.794 -3.68841 3.69802 0
M  V30 9449 H 913.488 -1.90832 2.30702 0
M  V30 9450 H 911.034 -0.91672 1.11051 0
M  V30 9451 H 912.987 -4.05371 1.15119 0
M  V30 9452 H 911.711 -3.26018 0.194865 0
M  V30 9453 H 910.37 -2.86276 2.29002 0
M  V30 9454 H 910.018 -4.94071 0.943539 0
M  V30 9455 H 909.718 -5.23165 2.6753 0
M  V30 9456 H 911.242 -5.79276 1.93059 0
M  V30 9457 H 912.656 -4.37485 3.70513 0
M  V30 9458 H 911.053 -4.05126 4.42711 0
M  V30 9459 H 912.123 -2.69415 4.03167 0
M  V30 9460 N 913.466 -1.22244 -0.994698 0
M  V30 9461 C 914.877 -1.043 -1.5485 0
M  V30 9462 C 915.228 0.394102 -1.92201 0
M  V30 9463 O 914.353 1.27883 -1.74571 0
M  V30 9464 C 914.948 -1.88708 -2.8138 0
M  V30 9465 C 913.507 -1.75067 -3.3321 0
M  V30 9466 C 912.654 -1.85286 -2.06312 0
M  V30 9467 H 915.605 -1.36115 -0.815988 0
M  V30 9468 H 915.626 -1.40342 -3.53673 0
M  V30 9469 H 915.138 -2.93296 -2.54164 0
M  V30 9470 H 913.239 -0.732047 -3.65338 0
M  V30 9471 H 913.352 -2.57632 -4.03934 0
M  V30 9472 H 911.716 -1.28706 -2.19788 0
M  V30 9473 H 912.499 -2.91401 -1.81494 0
M  V30 9474 N 914.944 1.19125 -1.03184 0
M  V30 9475 C 915.854 2.26112 -0.625329 0
M  V30 9476 C 916.87 1.7056 0.344298 0
M  V30 9477 O 918.046 2.0039 0.20144 0
M  V30 9478 C 915.111 3.46697 0.0145169 0
M  V30 9479 C 914.172 4.17419 -1.00299 0
M  V30 9480 C 913.405 5.32247 -0.393581 0
M  V30 9481 O 913.628 5.64724 0.802659 0
M  V30 9482 O 912.562 5.91428 -1.1179 0
M  V30 9483 H 916.388 2.63131 -1.51643 0
M  V30 9484 H 913.973 1.26036 -0.802197 0
M  V30 9485 H 915.855 4.19762 0.371139 0
M  V30 9486 H 914.53 3.11521 0.879581 0
M  V30 9487 H 913.437 3.4646 -1.41125 0
M  V30 9488 H 914.77 4.56573 -1.83852 0
M  V30 9489 N 916.422 0.810101 1.35185 0
M  V30 9490 C 917.37 0.211071 2.3164 0
M  V30 9491 C 918.364 -0.641109 1.568 0
M  V30 9492 O 919.57 -0.533881 1.719 0
M  V30 9493 H 915.945 0.0494978 0.750369 0
M  V30 9494 H 917.916 1.03964 2.79703 0
M  V30 9495 C 916.665 -0.622933 3.42074 0
M  V30 9496 H 915.988 0.0234648 3.99793 0
M  V30 9497 H 917.428 -1.0084 4.11834 0
M  V30 9498 C 915.887 -1.78994 2.85417 0
M  V30 9499 O 916.417 -2.88758 2.79252 0
M  V30 9500 N 914.623 -1.60259 2.42416 0
M  V30 9501 H 914.17 -0.70974 2.4763 0
M  V30 9502 H 914.128 -2.38498 2.04857 0
M  V30 9503 N 917.9 -1.47166 0.563914 0
M  V30 9504 C 918.847 -2.30097 -0.180013 0
M  V30 9505 C 919.817 -1.39473 -0.902019 0
M  V30 9506 O 921.002 -1.68432 -0.896396 0
M  V30 9507 C 918.142 -3.23573 -1.19978 0
M  V30 9508 C 917.255 -4.2929 -0.483149 0
M  V30 9509 C 916.39 -5.0991 -1.48879 0
M  V30 9510 C 915.429 -6.07395 -0.757513 0
M  V30 9511 N 914.566 -6.8095 -1.71031 0
M  V30 9512 H 919.406 -2.93189 0.53329 0
M  V30 9513 H 916.943 -1.4451 0.274814 0
M  V30 9514 H 918.901 -3.76196 -1.80368 0
M  V30 9515 H 917.531 -2.6233 -1.88103 0
M  V30 9516 H 916.583 -3.79671 0.235414 0
M  V30 9517 H 917.895 -4.9872 0.0894075 0
M  V30 9518 H 917.049 -5.66717 -2.16603 0
M  V30 9519 H 915.788 -4.40397 -2.09527 0
M  V30 9520 H 914.793 -5.4976 -0.0663841 0
M  V30 9521 H 916.018 -6.78919 -0.156685 0
M  V30 9522 H 913.964 -6.14162 -2.30524 0
M  V30 9523 H 913.881 -7.46574 -1.19007 0
M  V30 9524 H 915.149 -7.42326 -2.37849 0
M  V30 9525 N 919.378 -0.300708 -1.54705 0
M  V30 9526 C 920.341 0.562648 -2.22187 0
M  V30 9527 C 921.341 1.06152 -1.20782 0
M  V30 9528 O 922.531 0.957596 -1.45519 0
M  V30 9529 C 919.663 1.77899 -2.908 0
M  V30 9530 H 920.856 -0.0269361 -2.99888 0
M  V30 9531 H 918.409 -0.0515412 -1.56215 0
M  V30 9532 H 919.144 2.40841 -2.17177 0
M  V30 9533 H 918.929 1.42892 -3.65136 0
M  V30 9534 H 920.419 2.39236 -3.42281 0
M  V30 9535 N 920.856 1.57574 -0.0284266 0
M  V30 9536 C 922.104 1.91393 0.649079 0
M  V30 9537 C 922.425 0.905368 1.72708 0
M  V30 9538 O 921.695 -0.0532107 1.95828 0
M  V30 9539 H 920.275 0.70646 0.24274 0
M  V30 9540 H 922.937 1.94752 -0.076066 0
M  V30 9541 H 922.033 2.91988 1.10226 0
M  V30 9542 N 922.334 -0.244713 1.55689 0
M  V30 9543 C 923.264 -1.30667 1.93516 0
M  V30 9544 C 924.245 -1.50094 0.800371 0
M  V30 9545 O 925.43 -1.62665 1.06083 0
M  V30 9546 C 922.56 -2.66101 2.23176 0
M  V30 9547 C 921.514 -2.61366 3.38927 0
M  V30 9548 C 920.84 -4.00616 3.54134 0
M  V30 9549 C 922.14 -2.18161 4.74555 0
M  V30 9550 H 923.834 -0.992546 2.82469 0
M  V30 9551 H 921.38 -0.476018 1.35905 0
M  V30 9552 H 923.333 -3.4053 2.48228 0
M  V30 9553 H 922.057 -2.99154 1.31051 0
M  V30 9554 H 920.716 -1.89395 3.13887 0
M  V30 9555 H 920.364 -4.30938 2.59426 0
M  V30 9556 H 920.064 -3.98335 4.31975 0
M  V30 9557 H 921.588 -4.76741 3.8151 0
M  V30 9558 H 923.002 -2.82323 4.98965 0
M  V30 9559 H 921.399 -2.26988 5.55515 0
M  V30 9560 H 922.469 -1.13333 4.7147 0
M  V30 9561 N 923.813 -1.49104 -0.510467 0
M  V30 9562 C 925.059 -1.58346 -1.26705 0
M  V30 9563 C 925.392 -0.265121 -1.92382 0
M  V30 9564 O 924.667 0.730558 -1.80258 0
M  V30 9565 C 924.95 -2.7359 -2.34137 0
M  V30 9566 C 924.803 -4.1519 -1.73024 0
M  V30 9567 C 926.122 -2.84511 -3.3577 0
M  V30 9568 H 923.241 -0.57637 -0.459311 0
M  V30 9569 H 925.883 -1.81353 -0.566658 0
M  V30 9570 H 924.033 -2.54105 -2.93876 0
M  V30 9571 H 925.705 -4.46167 -1.17186 0
M  V30 9572 H 923.948 -4.21279 -1.03473 0
M  V30 9573 H 924.619 -4.91683 -2.50903 0
M  V30 9574 H 927.095 -3.0222 -2.86011 0
M  V30 9575 H 925.971 -3.6684 -4.08313 0
M  V30 9576 H 926.232 -1.93471 -3.97519 0
M  V30 9577 N 925.291 0.760815 -1.38019 0
M  V30 9578 C 926.538 1.51973 -1.3383 0
M  V30 9579 C 926.866 1.9436 0.0738855 0
M  V30 9580 O 926.121 1.65181 1.04946 0
M  V30 9581 C 926.42 2.79024 -2.23339 0
M  V30 9582 C 926.086 2.55636 -3.71431 0
M  V30 9583 C 924.748 2.48966 -4.11788 0
M  V30 9584 C 927.1 2.35018 -4.65205 0
M  V30 9585 C 924.428 2.19684 -5.44018 0
M  V30 9586 C 926.78 2.07258 -5.97685 0
M  V30 9587 C 925.444 1.9904 -6.37134 0
M  V30 9588 H 924.714 0.556108 -0.489719 0
M  V30 9589 H 927.361 0.87545 -1.70318 0
M  V30 9590 H 925.666 3.48065 -1.79883 0
M  V30 9591 H 927.363 3.36951 -2.17405 0
M  V30 9592 H 923.953 2.61695 -3.39432 0
M  V30 9593 H 928.137 2.39154 -4.34878 0
M  V30 9594 H 923.393 2.11825 -5.73533 0
M  V30 9595 H 927.567 1.90307 -6.69893 0
M  V30 9596 H 925.194 1.76115 -7.39519 0
M  V30 9597 N 926.769 1.22769 0.988202 0
M  V30 9598 C 928.18 1.0512 1.54294 0
M  V30 9599 C 928.531 -0.383904 1.92407 0
M  V30 9600 O 927.656 -1.26955 1.75246 0
M  V30 9601 C 928.251 1.90198 2.80375 0
M  V30 9602 C 926.81 1.76831 3.32276 0
M  V30 9603 C 925.957 1.86377 2.05326 0
M  V30 9604 H 928.908 1.36546 0.808758 0
M  V30 9605 H 928.929 1.42216 3.52923 0
M  V30 9606 H 928.441 2.9464 2.52605 0
M  V30 9607 H 926.542 0.751412 3.64945 0
M  V30 9608 H 926.655 2.59771 4.02562 0
M  V30 9609 H 925.019 1.2987 2.19103 0
M  V30 9610 H 925.802 2.9236 1.79946 0
M  V30 9611 N 928.247 -1.18576 1.03814 0
M  V30 9612 C 929.475 -1.92437 0.759966 0
M  V30 9613 C 929.89 -1.76031 -0.682526 0
M  V30 9614 O 929.247 -1.08829 -1.46501 0
M  V30 9615 C 929.298 -3.43923 1.11351 0
M  V30 9616 O 929.019 -3.5981 2.49937 0
M  V30 9617 C 930.52 -4.34888 0.859472 0
M  V30 9618 H 927.74 -0.610998 0.277349 0
M  V30 9619 H 930.284 -1.50448 1.38512 0
M  V30 9620 H 928.439 -3.83711 0.533362 0
M  V30 9621 H 928.853 -4.53569 2.63393 0
M  V30 9622 H 930.327 -5.39744 1.15672 0
M  V30 9623 H 930.804 -4.38717 -0.205839 0
M  V30 9624 H 931.41 -4.00795 1.42279 0
M  V30 9625 N 929.725 -0.817259 -1.34754 0
M  V30 9626 C 930.635 -0.236946 -2.334 0
M  V30 9627 C 931.651 0.625685 -1.62361 0
M  V30 9628 O 932.827 0.534921 -1.94166 0
M  V30 9629 C 929.892 0.596215 -3.41535 0
M  V30 9630 C 928.953 -0.288154 -4.28332 0
M  V30 9631 C 928.186 0.505337 -5.31302 0
M  V30 9632 O 928.409 1.73912 -5.43241 0
M  V30 9633 O 927.343 -0.109374 -6.01801 0
M  V30 9634 H 931.169 -1.05327 -2.84851 0
M  V30 9635 H 928.754 -0.579275 -1.37713 0
M  V30 9636 H 930.636 1.07041 -4.07578 0
M  V30 9637 H 929.311 1.38997 -2.92338 0
M  V30 9638 H 928.218 -0.809724 -3.65232 0
M  V30 9639 H 929.551 -1.04612 -4.80955 0
M  V30 9640 N 931.203 1.46865 -0.571711 0
M  V30 9641 C 932.449 2.0273 -0.0531858 0
M  V30 9642 C 932.782 1.44353 1.29907 0
M  V30 9643 O 932.057 0.604488 1.84868 0
M  V30 9644 C 932.34 3.60092 0.0243831 0
M  V30 9645 C 932.193 4.28874 -1.35599 0
M  V30 9646 C 933.512 4.33994 0.730563 0
M  V30 9647 H 930.631 0.736706 -0.0208018 0
M  V30 9648 H 933.273 1.75132 -0.736794 0
M  V30 9649 H 931.423 3.83736 0.606565 0
M  V30 9650 H 933.095 4.16527 -1.98249 0
M  V30 9651 H 931.338 3.88664 -1.92674 0
M  V30 9652 H 932.009 5.37561 -1.25429 0
M  V30 9653 H 934.485 4.1543 0.236098 0
M  V30 9654 H 933.361 5.43699 0.753836 0
M  V30 9655 H 933.622 4.04257 1.78967 0
M  V30 9656 N 932.681 0.308908 1.54543 0
M  V30 9657 C 933.927 -0.291311 2.01303 0
M  V30 9658 C 934.282 -1.50917 1.19339 0
M  V30 9659 O 933.575 -1.89776 0.263724 0
M  V30 9660 C 933.769 -0.691522 3.50646 0
M  V30 9661 C 933.598 0.486007 4.47066 0
M  V30 9662 C 932.368 0.980515 4.95695 0
M  V30 9663 C 934.566 1.33352 4.96711 0
M  V30 9664 N 932.548 2.12398 5.75986 0
M  V30 9665 C 933.919 2.32436 5.74781 0
M  V30 9666 C 935.974 1.36298 4.78881 0
M  V30 9667 C 934.677 3.34252 6.36921 0
M  V30 9668 C 936.703 2.36976 5.41845 0
M  V30 9669 C 936.065 3.34789 6.19755 0
M  V30 9670 H 932.164 -0.0708418 0.778785 0
M  V30 9671 H 934.748 0.440621 1.89649 0
M  V30 9672 H 932.919 -1.39261 3.62575 0
M  V30 9673 H 934.651 -1.27196 3.84192 0
M  V30 9674 H 931.406 0.55419 4.70346 0
M  V30 9675 H 931.83 2.70036 6.20814 0
M  V30 9676 H 936.472 0.620472 4.18222 0
M  V30 9677 H 934.19 4.09417 6.96709 0
M  V30 9678 H 937.776 2.40039 5.29974 0
M  V30 9679 H 936.656 4.11418 6.67611 0
M  V30 9680 N 934.159 -1.57557 0.0367827 0
M  V30 9681 C 935.387 -1.96419 -0.650168 0
M  V30 9682 C 935.802 -0.913656 -1.6522 0
M  V30 9683 O 935.159 0.103718 -1.82205 0
M  V30 9684 C 935.21 -3.35355 -1.3498 0
M  V30 9685 O 934.931 -4.36379 -0.387905 0
M  V30 9686 C 936.432 -3.88892 -2.12786 0
M  V30 9687 H 933.652 -0.646751 -0.178756 0
M  V30 9688 H 936.196 -2.04261 0.0988197 0
M  V30 9689 H 934.351 -3.28708 -2.05012 0
M  V30 9690 H 934.765 -5.16969 -0.885596 0
M  V30 9691 H 936.239 -4.88428 -2.5718 0
M  V30 9692 H 936.716 -3.23547 -2.97008 0
M  V30 9693 H 937.322 -3.98831 -1.47694 0
M  V30 9694 N 935.637 0.236453 -1.55816 0
M  V30 9695 C 936.6 1.27633 -1.90375 0
M  V30 9696 C 937.6 1.40557 -0.781048 0
M  V30 9697 O 938.79 1.39078 -1.04895 0
M  V30 9698 C 935.922 2.65247 -2.14142 0
M  V30 9699 H 937.115 0.982019 -2.83366 0
M  V30 9700 H 934.668 0.476215 -1.48869 0
M  V30 9701 H 935.403 2.99801 -1.23653 0
M  V30 9702 H 935.188 2.57246 -2.95917 0
M  V30 9703 H 936.678 3.40313 -2.42026 0
M  V30 9704 N 937.115 1.49373 0.502552 0
M  V30 9705 C 938.045 1.68839 1.61294 0
M  V30 9706 C 939.026 0.537096 1.61398 0
M  V30 9707 O 940.211 0.772764 1.78163 0
M  V30 9708 C 937.341 1.75347 2.99784 0
M  V30 9709 C 936.295 2.90251 3.14545 0
M  V30 9710 C 935.621 2.8187 4.54371 0
M  V30 9711 C 936.921 4.31207 2.94717 0
M  V30 9712 H 938.615 2.61803 1.45257 0
M  V30 9713 H 936.161 1.25987 0.697371 0
M  V30 9714 H 938.114 1.87552 3.77362 0
M  V30 9715 H 936.838 0.789814 3.16906 0
M  V30 9716 H 935.497 2.77646 2.39392 0
M  V30 9717 H 935.145 1.83416 4.68367 0
M  V30 9718 H 934.845 3.5899 4.65188 0
M  V30 9719 H 936.369 2.96081 5.34012 0
M  V30 9720 H 937.783 4.44501 3.62065 0
M  V30 9721 H 936.18 5.09536 3.17007 0
M  V30 9722 H 937.25 4.45759 1.90857 0
M  V30 9723 N 938.594 -0.753485 1.38421 0
M  V30 9724 C 939.524 -1.8808 1.38377 0
M  V30 9725 C 940.505 -1.68258 0.249664 0
M  V30 9726 O 941.69 -1.88848 0.45276 0
M  V30 9727 C 938.82 -3.25608 1.20818 0
M  V30 9728 C 937.774 -3.60032 2.31433 0
M  V30 9729 C 937.1 -4.96297 1.9898 0
M  V30 9730 C 938.4 -3.64898 3.73694 0
M  V30 9731 H 940.094 -1.88375 2.32713 0
M  V30 9732 H 937.64 -0.90489 1.12017 0
M  V30 9733 H 939.593 -4.04127 1.19412 0
M  V30 9734 H 938.317 -3.25793 0.229433 0
M  V30 9735 H 936.976 -2.83831 2.32025 0
M  V30 9736 H 936.624 -4.93043 0.995889 0
M  V30 9737 H 936.324 -5.20298 2.73063 0
M  V30 9738 H 937.848 -5.77196 1.99193 0
M  V30 9739 H 939.262 -4.33531 3.75132 0
M  V30 9740 H 937.659 -4.00407 4.46983 0
M  V30 9741 H 938.729 -2.65124 4.06002 0
M  V30 9742 N 940.072 -1.23292 -0.981677 0
M  V30 9743 C 941.02 -1.0104 -2.09508 0
M  V30 9744 C 942.014 0.0501977 -1.69326 0
M  V30 9745 O 943.22 -0.103197 -1.79704 0
M  V30 9746 H 939.595 -0.309629 -0.685298 0
M  V30 9747 H 941.566 -1.95493 -2.25444 0
M  V30 9748 C 940.315 -0.616885 -3.42184 0
M  V30 9749 H 939.638 -1.4247 -3.73554 0
M  V30 9750 H 941.078 -0.500688 -4.21033 0
M  V30 9751 C 939.537 0.674721 -3.30074 0
M  V30 9752 O 940.067 1.72421 -3.62814 0
M  V30 9753 N 938.273 0.650151 -2.83234 0
M  V30 9754 H 937.82 -0.204225 -2.56789 0
M  V30 9755 H 937.778 1.51458 -2.75514 0
M  V30 9756 N 941.55 1.18024 -1.04442 0
M  V30 9757 C 942.78 1.91753 -0.769044 0
M  V30 9758 C 943.188 1.76629 0.678141 0
M  V30 9759 O 942.531 1.09589 1.47431 0
M  V30 9760 C 942.593 3.43505 -1.0604 0
M  V30 9761 C 942.257 3.82409 -2.50225 0
M  V30 9762 C 943.254 3.8588 -3.48414 0
M  V30 9763 C 940.939 4.13594 -2.85036 0
M  V30 9764 C 942.933 4.19993 -4.79463 0
M  V30 9765 C 940.62 4.47377 -4.1629 0
M  V30 9766 C 941.618 4.50553 -5.13314 0
M  V30 9767 O 941.306 4.83546 -6.42214 0
M  V30 9768 H 941.038 0.615466 -0.279603 0
M  V30 9769 H 943.592 1.5065 -1.3962 0
M  V30 9770 H 941.822 3.84866 -0.376125 0
M  V30 9771 H 943.511 3.98486 -0.772235 0
M  V30 9772 H 944.277 3.6192 -3.2286 0
M  V30 9773 H 940.156 4.10297 -2.10185 0
M  V30 9774 H 943.7 4.22387 -5.55189 0
M  V30 9775 H 939.597 4.70798 -4.4161 0
M  V30 9776 H 940.365 5.01433 -6.46921 0
M  V30 9777 N 943.028 0.824394 1.34319 0
M  V30 9778 C 944.276 0.41235 1.97849 0
M  V30 9779 C 944.597 -1.02841 1.65677 0
M  V30 9780 O 943.867 -1.71421 0.948245 0
M  V30 9781 H 942.447 0.149486 0.73189 0
M  V30 9782 H 945.109 1.05416 1.63931 0
M  V30 9783 H 944.205 0.532557 3.07523 0
M  V30 9784 N 944.506 -1.46559 0.579492 0
M  V30 9785 C 945.736 -2.06484 0.0692642 0
M  V30 9786 C 946.144 -1.4293 -1.23967 0
M  V30 9787 O 945.487 -0.527632 -1.75959 0
M  V30 9788 C 945.549 -3.59078 -0.174174 0
M  V30 9789 C 945.213 -4.44805 1.04867 0
M  V30 9790 C 946.21 -4.81543 1.95991 0
M  V30 9791 C 943.895 -4.8599 1.26961 0
M  V30 9792 C 945.889 -5.58288 3.0756 0
M  V30 9793 C 943.576 -5.62495 2.38836 0
M  V30 9794 C 944.574 -5.98558 3.28964 0
M  V30 9795 O 944.262 -6.73518 4.38896 0
M  V30 9796 H 943.994 -0.673917 0.0530331 0
M  V30 9797 H 946.548 -1.89223 0.79898 0
M  V30 9798 H 944.778 -3.74634 -0.958464 0
M  V30 9799 H 946.467 -4.00941 -0.632515 0
M  V30 9800 H 947.233 -4.50307 1.80136 0
M  V30 9801 H 943.112 -4.57372 0.577184 0
M  V30 9802 H 946.656 -5.86355 3.77933 0
M  V30 9803 H 942.553 -5.93145 2.54655 0
M  V30 9804 H 943.321 -6.91938 4.37223 0
M  V30 9805 N 945.984 -0.3171 -1.54377 0
M  V30 9806 C 947.23 0.287836 -2.00747 0
M  V30 9807 C 947.563 1.52292 -1.20502 0
M  V30 9808 O 946.838 1.92391 -0.285626 0
M  V30 9809 C 947.121 0.628423 -3.54574 0
M  V30 9810 C 946.974 -0.616922 -4.45549 0
M  V30 9811 C 948.293 1.44862 -4.15575 0
M  V30 9812 H 945.412 0.103144 -0.729747 0
M  V30 9813 H 948.054 -0.432396 -1.85014 0
M  V30 9814 H 946.204 1.24203 -3.68111 0
M  V30 9815 H 947.876 -1.25526 -4.43893 0
M  V30 9816 H 946.119 -1.24706 -4.15489 0
M  V30 9817 H 946.79 -0.334243 -5.50987 0
M  V30 9818 H 949.266 0.930015 -4.05574 0
M  V30 9819 H 948.142 1.6557 -5.23333 0
M  V30 9820 H 948.403 2.44279 -3.68484 0
M  V30 9821 N 947.462 1.57535 -0.0451378 0
M  V30 9822 C 948.71 1.92071 0.628743 0
M  V30 9823 C 949.031 0.923635 1.71738 0
M  V30 9824 O 948.301 -0.0324376 1.95873 0
M  V30 9825 H 946.881 0.708995 0.235233 0
M  V30 9826 H 949.543 1.9466 -0.0967177 0
M  V30 9827 H 948.639 2.9314 1.07123 0
M  V30 9828 N 948.94 -0.228186 1.55939 0
M  V30 9829 C 950.18 -0.960695 1.80416 0
M  V30 9830 C 950.544 -1.81795 0.617615 0
M  V30 9831 O 951.745 -2.58369 0.741545 0
M  V30 9832 C 950.016 -1.78298 3.09749 0
M  V30 9833 S 951.575 -2.57203 3.55517 0
M  V30 9834 H 948.393 -0.322825 0.633486 0
M  V30 9835 H 950.995 -0.226852 1.94179 0
M  V30 9836 H 949.699 -1.14323 3.94155 0
M  V30 9837 H 949.23 -2.55924 2.98775 0
M  V30 9838 H 951.245 -3.80632 3.1833 0
M  V30 9839 N 950.418 -1.49637 -0.494624 0
M  V30 9840 C 951.667 -1.58691 -1.24499 0
M  V30 9841 C 951.98 -0.281763 -1.9356 0
M  V30 9842 O 953.186 -0.250925 -2.70338 0
M  V30 9843 C 951.642 -2.8002 -2.26091 0
M  V30 9844 C 951.25 -4.17318 -1.6294 0
M  V30 9845 C 952.994 -2.98407 -3.01916 0
M  V30 9846 C 950.901 -5.29862 -2.62679 0
M  V30 9847 H 949.831 -0.590888 -0.468367 0
M  V30 9848 H 952.482 -1.76034 -0.518112 0
M  V30 9849 H 950.864 -2.56185 -3.01969 0
M  V30 9850 H 952.038 -4.51315 -0.930108 0
M  V30 9851 H 950.353 -4.04342 -0.994819 0
M  V30 9852 H 952.95 -3.79658 -3.76516 0
M  V30 9853 H 953.293 -2.09214 -3.5991 0
M  V30 9854 H 953.826 -3.22312 -2.33152 0
M  V30 9855 H 950.565 -6.21134 -2.09458 0
M  V30 9856 H 950.085 -5.00311 -3.3083 0
M  V30 9857 H 951.764 -5.59461 -3.2498 0
M  V30 9858 N 951.896 0.746133 -1.38819 0
M  V30 9859 C 953.312 1.0502 -1.20179 0
M  V30 9860 C 953.512 2.01423 -0.0556271 0
M  V30 9861 O 952.568 2.45359 0.59625 0
M  V30 9862 C 953.881 1.62315 -2.53129 0
M  V30 9863 C 955.429 1.74449 -2.59878 0
M  V30 9864 C 955.904 2.35155 -3.93022 0
M  V30 9865 N 957.395 2.42577 -3.94602 0
M  V30 9866 C 958.13 2.9046 -4.94389 0
M  V30 9867 N 957.626 3.38322 -6.04574 0
M  V30 9868 N 959.419 2.89568 -4.81775 0
M  V30 9869 H 951.57 0.106551 -2.12133 0
M  V30 9870 H 953.833 0.109897 -0.941609 0
M  V30 9871 H 953.539 0.98946 -3.37495 0
M  V30 9872 H 953.413 2.61276 -2.72057 0
M  V30 9873 H 955.8 2.36943 -1.75903 0
M  V30 9874 H 955.881 0.741721 -2.4481 0
M  V30 9875 H 955.525 1.73292 -4.77422 0
M  V30 9876 H 955.455 3.36088 -4.05404 0
M  V30 9877 H 957.946 2.08735 -3.15021 0
M  V30 9878 H 958.259 3.73336 -6.76639 0
M  V30 9879 H 956.604 3.3636 -6.08184 0
M  V30 9880 H 959.795 2.51492 -3.94803 0
M  V30 9881 H 959.968 3.26571 -5.59692 0
M  V30 9882 N 953.375 1.23811 0.975125 0
M  V30 9883 C 954.652 0.9815 1.69192 0
M  V30 9884 C 955.032 -0.498373 2.05133 0
M  V30 9885 O 954.38 -1.47087 1.74864 0
M  V30 9886 C 954.59 1.89701 2.92941 0
M  V30 9887 C 955.938 2.16357 3.65342 0
M  V30 9888 O 956.962 1.87293 3.02985 0
M  V30 9889 O 955.821 2.65675 4.77576 0
M  V30 9890 H 952.915 0.370599 0.739314 0
M  V30 9891 H 955.461 1.34876 1.02988 0
M  V30 9892 H 954.233 2.89719 2.63018 0
M  V30 9893 H 953.856 1.53244 3.66881 0
M  V30 9894 N 954.853 -1.17469 1.05066 0
M  V30 9895 C 955.783 -2.23635 0.671552 0
M  V30 9896 C 956.764 -1.66867 -0.33006 0
M  V30 9897 O 957.949 -1.93084 -0.207933 0
M  V30 9898 C 955.079 -3.47272 0.0441845 0
M  V30 9899 C 954.033 -4.16854 0.97042 0
M  V30 9900 C 953.359 -5.34299 0.206998 0
M  V30 9901 C 954.659 -4.69225 2.29401 0
M  V30 9902 H 956.353 -2.55602 1.55911 0
M  V30 9903 H 953.899 -1.2286 0.751101 0
M  V30 9904 H 955.852 -4.20756 -0.23282 0
M  V30 9905 H 954.576 -3.14568 -0.878311 0
M  V30 9906 H 953.235 -3.4528 1.23197 0
M  V30 9907 H 952.883 -4.97846 -0.718222 0
M  V30 9908 H 952.583 -5.81792 0.82416 0
M  V30 9909 H 954.107 -6.10568 -0.0627525 0
M  V30 9910 H 955.521 -5.34353 2.077 0
M  V30 9911 H 953.918 -5.27291 2.86503 0
M  V30 9912 H 954.988 -3.86102 2.93348 0
M  V30 9913 N 956.331 -0.831506 -1.3388 0
M  V30 9914 C 957.578 -0.423674 -1.98018 0
M  V30 9915 C 957.906 1.01533 -1.65895 0
M  V30 9916 O 957.161 1.72342 -0.927183 0
M  V30 9917 C 957.46 -0.582733 -3.52617 0
M  V30 9918 C 957.126 -1.98874 -4.04673 0
M  V30 9919 C 955.788 -2.37334 -4.186 0
M  V30 9920 C 958.14 -2.90745 -4.3257 0
M  V30 9921 C 955.468 -3.66984 -4.57755 0
M  V30 9922 C 957.82 -4.19868 -4.73174 0
M  V30 9923 C 956.484 -4.58294 -4.85307 0
M  V30 9924 H 955.754 -0.155033 -0.7246 0
M  V30 9925 H 958.401 -1.05711 -1.59679 0
M  V30 9926 H 956.706 0.134052 -3.91571 0
M  V30 9927 H 958.403 -0.247576 -4.00235 0
M  V30 9928 H 954.993 -1.68001 -3.94301 0
M  V30 9929 H 959.177 -2.62272 -4.2134 0
M  V30 9930 H 954.433 -3.9657 -4.65341 0
M  V30 9931 H 958.607 -4.91138 -4.93717 0
M  V30 9932 H 956.234 -5.58805 -5.15404 0
M  V30 9933 N 957.809 1.4625 -0.587256 0
M  V30 9934 C 959.058 2.01571 -0.0722643 0
M  V30 9935 C 959.371 1.46385 1.29733 0
M  V30 9936 O 960.577 1.93554 1.90392 0
M  V30 9937 C 959.033 3.59814 -0.078579 0
M  V30 9938 C 958.641 4.23996 -1.44678 0
M  V30 9939 C 960.385 4.22776 0.382231 0
M  V30 9940 C 958.292 5.74332 -1.41057 0
M  V30 9941 H 957.222 0.753642 -0.0232461 0
M  V30 9942 H 959.873 1.67936 -0.739577 0
M  V30 9943 H 958.255 3.90546 0.654988 0
M  V30 9944 H 959.429 4.04867 -2.20043 0
M  V30 9945 H 957.744 3.73147 -1.84799 0
M  V30 9946 H 960.341 5.32983 0.428182 0
M  V30 9947 H 960.684 3.92027 1.40072 0
M  V30 9948 H 961.217 3.96687 -0.297417 0
M  V30 9949 H 957.956 6.09747 -2.40601 0
M  V30 9950 H 957.476 5.95711 -0.699185 0
M  V30 9951 H 959.155 6.37137 -1.12543 0
M  V30 9952 N 959.287 0.325282 1.54207 0
M  V30 9953 C 960.564 -0.33113 1.92777 0
M  V30 9954 C 960.944 -1.69739 1.25506 0
M  V30 9955 O 960.292 -2.24983 0.399385 0
M  V30 9956 C 960.502 -0.421636 3.46444 0
M  V30 9957 C 961.85 -0.681111 4.19101 0
M  V30 9958 O 962.874 -0.504488 3.52609 0
M  V30 9959 O 961.733 -1.02196 5.3686 0
M  V30 9960 H 958.827 -0.18943 0.805013 0
M  V30 9961 H 961.373 0.375123 1.65502 0
M  V30 9962 H 960.145 0.537862 3.87586 0
M  V30 9963 H 959.768 -1.1754 3.79829 0
M  V30 9964 N 960.765 -1.57509 0.0534917 0
M  V30 9965 C 962.013 -1.92402 -0.618548 0
M  V30 9966 C 962.334 -0.93273 -1.71246 0
M  V30 9967 O 961.604 0.0220495 -1.95888 0
M  V30 9968 H 960.184 -0.710233 -0.23147 0
M  V30 9969 H 962.846 -1.94606 0.10704 0
M  V30 9970 H 961.942 -2.93704 -1.05566 0
M  V30 9971 N 962.243 0.219913 -1.56058 0
M  V30 9972 C 963.175 1.29604 -1.89038 0
M  V30 9973 C 964.188 1.42964 -0.778791 0
M  V30 9974 O 965.377 1.43832 -1.0571 0
M  V30 9975 C 962.477 2.67145 -2.08534 0
M  V30 9976 C 961.65 2.75712 -3.39561 0
M  V30 9977 C 960.709 3.94279 -3.48469 0
M  V30 9978 O 959.735 3.8254 -4.21487 0
M  V30 9979 N 960.937 5.08655 -2.79732 0
M  V30 9980 H 963.702 1.01638 -2.81939 0
M  V30 9981 H 961.263 0.409945 -1.56624 0
M  V30 9982 H 963.255 3.44847 -2.11808 0
M  V30 9983 H 961.825 2.87704 -1.2225 0
M  V30 9984 H 961.045 1.84475 -3.48371 0
M  V30 9985 H 962.333 2.78407 -4.25872 0
M  V30 9986 H 961.731 5.21088 -2.2019 0
M  V30 9987 H 960.288 5.84394 -2.88665 0
M  V30 9988 N 963.721 1.49897 0.486681 0
M  V30 9989 C 964.946 1.64106 1.26823 0
M  V30 9990 C 965.371 0.317967 1.85393 0
M  V30 9991 O 964.729 -0.71626 1.66551 0
M  V30 9992 C 964.777 2.72301 2.36399 0
M  V30 9993 O 963.881 2.32469 3.40634 0
M  V30 9994 H 963.222 0.548794 0.373793 0
M  V30 9995 H 965.752 1.96177 0.581017 0
M  V30 9996 H 965.762 2.94906 2.81948 0
M  V30 9997 H 964.437 3.68335 1.93137 0
M  V30 9998 H 963.014 2.20251 3.00905 0
M  V30 9999 N 965.199 -0.738761 1.39212 0
M  V30 10000 C 966.146 -1.85273 1.37631 0
M  V30 10001 C 967.116 -1.64407 0.236572 0
M  V30 10002 O 968.301 -1.85866 0.431104 0
M  V30 10003 C 965.441 -3.22745 1.22188 0
M  V30 10004 C 964.554 -3.55342 2.45674 0
M  V30 10005 C 963.689 -4.82195 2.22847 0
M  V30 10006 C 962.728 -5.07625 3.42029 0
M  V30 10007 N 961.865 -6.25679 3.18543 0
M  V30 10008 H 966.705 -1.85959 2.32859 0
M  V30 10009 H 964.242 -0.908716 1.15675 0
M  V30 10010 H 966.2 -4.02095 1.11245 0
M  V30 10011 H 964.83 -3.21347 0.30592 0
M  V30 10012 H 963.882 -2.70722 2.67233 0
M  V30 10013 H 965.194 -3.70054 3.34457 0
M  V30 10014 H 964.348 -5.69518 2.09126 0
M  V30 10015 H 963.087 -4.6965 1.31454 0
M  V30 10016 H 962.092 -4.18765 3.56253 0
M  V30 10017 H 963.317 -5.22058 4.34319 0
M  V30 10018 H 961.263 -6.14429 2.2981 0
M  V30 10019 H 961.18 -6.40961 4.0088 0
M  V30 10020 H 962.448 -7.15851 3.08508 0
M  V30 10021 N 966.677 -1.24326 -0.968545 0
M  V30 10022 C 967.954 -0.990459 -1.68669 0
M  V30 10023 C 968.334 0.487487 -2.05394 0
M  V30 10024 O 967.682 1.46158 -1.75642 0
M  V30 10025 C 967.892 -1.91251 -2.91931 0
M  V30 10026 C 969.24 -2.18291 -3.6419 0
M  V30 10027 O 970.264 -1.88897 -3.01987 0
M  V30 10028 O 969.123 -2.68204 -4.76161 0
M  V30 10029 H 966.217 -0.374515 -0.737338 0
M  V30 10030 H 968.763 -1.35421 -1.02271 0
M  V30 10031 H 967.535 -2.9111 -2.61478 0
M  V30 10032 H 967.158 -1.55188 -3.66064 0
M  V30 10033 N 968.156 1.1691 -1.05688 0
M  V30 10034 C 969.405 1.86629 -0.765022 0
M  V30 10035 C 969.718 1.82223 0.710918 0
M  V30 10036 O 970.924 2.47462 1.11691 0
M  V30 10037 C 969.38 3.34886 -1.3183 0
M  V30 10038 C 968.988 3.47781 -2.82404 0
M  V30 10039 C 970.732 4.099 -1.10372 0
M  V30 10040 C 968.639 4.9009 -3.31008 0
M  V30 10041 H 967.569 0.699082 -0.282491 0
M  V30 10042 H 970.22 1.31989 -1.27481 0
M  V30 10043 H 968.602 3.89094 -0.736312 0
M  V30 10044 H 969.776 3.03765 -3.46502 0
M  V30 10045 H 968.091 2.86193 -3.02461 0
M  V30 10046 H 970.688 5.14894 -1.4418 0
M  V30 10047 H 971.031 4.16279 -0.0417372 0
M  V30 10048 H 971.564 3.61913 -1.65117 0
M  V30 10049 H 968.303 4.88887 -4.36657 0
M  V30 10050 H 967.823 5.34756 -2.71655 0
M  V30 10051 H 969.502 5.58881 -3.25977 0
M  V30 10052 N 969.634 0.838594 1.33437 0
M  V30 10053 C 971.05 0.526347 1.50671 0
M  V30 10054 C 971.25 -0.946387 1.77893 0
M  V30 10055 O 970.306 -1.7302 1.83903 0
M  V30 10056 C 971.619 1.39945 2.6615 0
M  V30 10057 C 973.167 1.3982 2.80035 0
M  V30 10058 C 973.642 2.25614 3.98576 0
M  V30 10059 N 975.133 2.23322 4.0581 0
M  V30 10060 C 975.868 2.86443 4.96727 0
M  V30 10061 N 975.364 3.58616 5.92762 0
M  V30 10062 N 977.157 2.75915 4.89722 0
M  V30 10063 H 969.308 1.79195 1.1403 0
M  V30 10064 H 971.571 0.764491 0.560586 0
M  V30 10065 H 971.277 2.44599 2.52714 0
M  V30 10066 H 971.151 1.07529 3.61548 0
M  V30 10067 H 973.538 0.35937 2.92904 0
M  V30 10068 H 973.619 1.76241 1.85399 0
M  V30 10069 H 973.263 3.29555 3.86466 0
M  V30 10070 H 973.193 1.86533 4.92456 0
M  V30 10071 H 975.684 1.70836 3.37081 0
M  V30 10072 H 975.997 4.03987 6.58798 0
M  V30 10073 H 974.342 3.62724 5.92838 0
M  V30 10074 H 977.533 2.19094 4.13661 0
M  V30 10075 H 977.706 3.25393 5.60378 0
M  V30 10076 N 971.112 -1.45937 0.595003 0
M  V30 10077 C 972.044 -2.28575 -0.169137 0
M  V30 10078 C 973.057 -1.39226 -0.843792 0
M  V30 10079 O 974.246 -1.63716 -0.711291 0
M  V30 10080 C 971.346 -3.14616 -1.25976 0
M  V30 10081 C 970.519 -4.32166 -0.67466 0
M  V30 10082 C 969.578 -4.99511 -1.65456 0
M  V30 10083 O 968.604 -5.56712 -1.18578 0
M  V30 10084 N 969.806 -4.97643 -2.98885 0
M  V30 10085 H 972.571 -2.94797 0.539908 0
M  V30 10086 H 970.132 -1.55985 0.433614 0
M  V30 10087 H 972.124 -3.56534 -1.91483 0
M  V30 10088 H 970.694 -2.50387 -1.8715 0
M  V30 10089 H 969.914 -3.93882 0.158184 0
M  V30 10090 H 971.202 -5.08116 -0.263753 0
M  V30 10091 H 970.6 -4.52438 -3.39583 0
M  V30 10092 H 969.157 -5.43463 -3.59848 0
M  V30 10093 N 972.59 -0.333456 -1.54032 0
M  V30 10094 C 973.523 0.570776 -2.20947 0
M  V30 10095 C 974.501 1.10811 -1.18994 0
M  V30 10096 O 975.685 1.17027 -1.47773 0
M  V30 10097 C 972.812 1.7842 -2.87896 0
M  V30 10098 C 971.858 1.37722 -4.03652 0
M  V30 10099 S 972.691 0.405548 -5.33962 0
M  V30 10100 C 973.847 1.62603 -6.0441 0
M  V30 10101 H 974.08 0.0023936 -2.973 0
M  V30 10102 H 971.613 -0.117531 -1.53952 0
M  V30 10103 H 973.571 2.48038 -3.27089 0
M  V30 10104 H 972.232 2.32378 -2.11327 0
M  V30 10105 H 971.425 2.28167 -4.49395 0
M  V30 10106 H 971.027 0.760628 -3.66184 0
M  V30 10107 H 973.319 2.56202 -6.2719 0
M  V30 10108 H 974.262 1.21058 -6.97675 0
M  V30 10109 H 974.67 1.8175 -5.34441 0
M  V30 10110 N 974.068 1.57479 -0.061844 0
M  V30 10111 C 975.031 2.1104 0.894127 0
M  V30 10112 C 976.031 1.03227 1.23292 0
M  V30 10113 O 977.221 1.29256 1.16784 0
M  V30 10114 C 974.353 2.6035 2.20069 0
M  V30 10115 H 975.546 2.96807 0.429619 0
M  V30 10116 H 973.099 1.55181 0.18672 0
M  V30 10117 H 973.834 1.78008 2.71079 0
M  V30 10118 H 973.619 3.39146 1.9678 0
M  V30 10119 H 975.109 3.019 2.88525 0
M  V30 10120 N 975.546 -0.211634 1.56173 0
M  V30 10121 C 976.456 -1.2831 1.96402 0
M  V30 10122 C 977.472 -1.50731 0.869254 0
M  V30 10123 O 978.648 -1.63669 1.17365 0
M  V30 10124 C 975.713 -2.61084 2.28114 0
M  V30 10125 C 974.774 -2.46879 3.51211 0
M  V30 10126 C 974.007 -3.73321 3.81401 0
M  V30 10127 O 974.23 -4.76773 3.13119 0
M  V30 10128 O 973.164 -3.69839 4.74871 0
M  V30 10129 H 976.99 -0.971733 2.87734 0
M  V30 10130 H 974.575 -0.415305 1.43512 0
M  V30 10131 H 976.457 -3.39481 2.49661 0
M  V30 10132 H 975.132 -2.91881 1.39954 0
M  V30 10133 H 974.039 -1.66648 3.34932 0
M  V30 10134 H 975.372 -2.21018 4.39786 0
M  V30 10135 N 977.024 -1.50153 -0.478725 0
M  V30 10136 C 978.27 -1.60998 -1.23318 0
M  V30 10137 C 978.603 -0.305868 -1.91776 0
M  V30 10138 O 977.878 0.692158 -1.81767 0
M  V30 10139 C 978.161 -2.78495 -2.28282 0
M  V30 10140 C 978.014 -4.18767 -1.64178 0
M  V30 10141 C 979.333 -2.91569 -3.2966 0
M  V30 10142 H 976.452 -0.585983 -0.446982 0
M  V30 10143 H 979.094 -1.82514 -0.528063 0
M  V30 10144 H 977.244 -2.60281 -2.8842 0
M  V30 10145 H 978.916 -4.48552 -1.07696 0
M  V30 10146 H 977.159 -4.23379 -0.94514 0
M  V30 10147 H 977.83 -4.96894 -2.40417 0
M  V30 10148 H 980.306 -3.08219 -2.79536 0
M  V30 10149 H 979.182 -3.75419 -4.0044 0
M  V30 10150 H 979.443 -2.01859 -3.93326 0
M  V30 10151 N 978.502 0.731368 -1.39602 0
M  V30 10152 C 979.434 1.85575 -1.34516 0
M  V30 10153 C 980.447 1.60818 -0.253287 0
M  V30 10154 O 981.636 1.70984 -0.512505 0
M  V30 10155 C 978.736 3.21673 -1.06676 0
M  V30 10156 C 977.909 3.73757 -2.27211 0
M  V30 10157 C 976.968 4.88426 -1.95773 0
M  V30 10158 O 975.994 5.01898 -2.68491 0
M  V30 10159 N 977.196 5.73065 -0.926083 0
M  V30 10160 H 979.961 1.90442 -2.31413 0
M  V30 10161 H 977.522 0.912258 -1.33752 0
M  V30 10162 H 979.514 3.95959 -0.836577 0
M  V30 10163 H 978.084 3.12052 -0.185003 0
M  V30 10164 H 977.304 2.90781 -2.66158 0
M  V30 10165 H 978.592 4.05289 -3.07601 0
M  V30 10166 H 977.99 5.64774 -0.323497 0
M  V30 10167 H 976.547 6.47403 -0.755795 0
M  V30 10168 N 979.98 1.24838 0.961938 0
M  V30 10169 C 981.205 1.11967 1.7458 0
M  V30 10170 C 981.63 -0.323287 1.85301 0
M  V30 10171 O 980.988 -1.23412 1.32812 0
M  V30 10172 C 981.036 1.77066 3.14134 0
M  V30 10173 O 980.14 1.04534 3.98932 0
M  V30 10174 H 979.481 0.391338 0.536424 0
M  V30 10175 H 982.011 1.65259 1.20626 0
M  V30 10176 H 982.021 1.83056 3.64629 0
M  V30 10177 H 980.696 2.82052 3.05646 0
M  V30 10178 H 979.273 1.06372 3.57407 0
M  V30 10179 N 981.458 -1.16348 1.06306 0
M  V30 10180 C 982.686 -1.90782 0.800614 0
M  V30 10181 C 983.101 -1.77439 -0.645033 0
M  V30 10182 O 982.458 -1.11912 -1.4416 0
M  V30 10183 C 982.509 -3.41484 1.18621 0
M  V30 10184 O 982.23 -3.54428 2.57512 0
M  V30 10185 C 983.731 -4.32968 0.951525 0
M  V30 10186 H 980.951 -0.604977 0.290247 0
M  V30 10187 H 983.495 -1.47476 1.41672 0
M  V30 10188 H 981.65 -3.82493 0.614633 0
M  V30 10189 H 982.064 -4.4788 2.72954 0
M  V30 10190 H 983.538 -5.37169 1.27095 0
M  V30 10191 H 984.015 -4.39055 -0.112734 0
M  V30 10192 H 984.621 -3.97687 1.50749 0
M  V30 10193 N 982.937 -0.845659 -1.3299 0
M  V30 10194 C 983.9 -0.288905 -2.27372 0
M  V30 10195 C 984.9 0.546263 -1.51237 0
M  V30 10196 O 986.09 0.359072 -1.70459 0
M  V30 10197 C 983.222 0.59224 -3.35716 0
M  V30 10198 H 984.415 -1.12181 -2.78128 0
M  V30 10199 H 981.968 -0.619276 -1.43508 0
M  V30 10200 H 982.703 1.44732 -2.90212 0
M  V30 10201 H 982.488 -0.00543255 -3.921 0
M  V30 10202 H 983.978 0.974848 -4.06062 0
M  V30 10203 N 984.415 1.45619 -0.602734 0
M  V30 10204 C 985.663 2.01873 -0.095844 0
M  V30 10205 C 985.984 1.47427 1.27633 0
M  V30 10206 O 985.254 0.666652 1.84208 0
M  V30 10207 H 983.834 0.746295 -0.0324408 0
M  V30 10208 H 986.496 1.78478 -0.783037 0
M  V30 10209 H 985.592 3.12072 -0.0419507 0
M  V30 10210 N 985.893 0.34162 1.53853 0
M  V30 10211 C 987.139 -0.255862 2.01179 0
M  V30 10212 C 987.472 -1.50356 1.22909 0
M  V30 10213 O 986.747 -1.91913 0.316198 0
M  V30 10214 C 987.03 -0.571934 3.55529 0
M  V30 10215 C 986.883 0.687727 4.44511 0
M  V30 10216 C 988.202 -1.38233 4.17827 0
M  V30 10217 H 985.321 -0.091521 0.731295 0
M  V30 10218 H 987.963 0.461775 1.84303 0
M  V30 10219 H 986.113 -1.18331 3.70041 0
M  V30 10220 H 987.785 1.32572 4.4184 0
M  V30 10221 H 986.028 1.313 4.13452 0
M  V30 10222 H 986.699 0.421858 5.50386 0
M  V30 10223 H 989.175 -0.865374 4.07002 0
M  V30 10224 H 988.051 -1.57223 5.25901 0
M  V30 10225 H 988.312 -2.38386 3.72323 0
M  V30 10226 N 987.371 -1.57444 0.0701946 0
M  V30 10227 C 988.318 -2.12631 -0.897599 0
M  V30 10228 C 989.288 -1.03841 -1.29639 0
M  V30 10229 O 990.473 -1.31495 -1.38253 0
M  V30 10230 C 987.613 -2.6911 -2.16041 0
M  V30 10231 C 986.726 -3.9205 -1.8144 0
M  V30 10232 C 985.861 -4.36778 -3.02321 0
M  V30 10233 C 984.9 -5.52371 -2.63729 0
M  V30 10234 N 984.037 -5.92065 -3.77364 0
M  V30 10235 H 988.877 -2.95024 -0.420104 0
M  V30 10236 H 986.414 -1.45792 -0.195716 0
M  V30 10237 H 988.372 -2.99963 -2.89962 0
M  V30 10238 H 987.002 -1.89484 -2.61334 0
M  V30 10239 H 986.054 -3.67669 -0.975896 0
M  V30 10240 H 987.366 -4.76011 -1.49046 0
M  V30 10241 H 986.52 -4.69285 -3.84521 0
M  V30 10242 H 985.259 -3.51668 -3.37907 0
M  V30 10243 H 984.264 -5.19517 -1.7995 0
M  V30 10244 H 985.489 -6.39212 -2.29315 0
M  V30 10245 H 983.435 -5.09904 -4.12715 0
M  V30 10246 H 983.352 -6.70762 -3.48733 0
M  V30 10247 H 984.62 -6.29193 -4.60148 0
M  V30 10248 N 988.849 0.203349 -1.56283 0
M  V30 10249 C 990.26 0.768764 -1.70138 0
M  V30 10250 C 990.611 1.8421 -0.675358 0
M  V30 10251 O 989.736 2.15732 0.1699 0
M  V30 10252 C 990.331 1.40123 -3.08466 0
M  V30 10253 C 988.89 1.91382 -3.24114 0
M  V30 10254 C 988.037 0.780685 -2.66084 0
M  V30 10255 H 990.988 -0.0215997 -1.58685 0
M  V30 10256 H 991.009 2.27046 -3.05336 0
M  V30 10257 H 990.521 0.619805 -3.83119 0
M  V30 10258 H 988.622 2.7227 -2.54362 0
M  V30 10259 H 988.735 2.08128 -4.31531 0
M  V30 10260 H 987.099 1.19281 -2.25042 0
M  V30 10261 H 987.882 0.0116351 -3.43298 0
M  V30 10262 N 990.327 1.50405 0.470755 0
M  V30 10263 C 991.552 1.65442 1.25075 0
M  V30 10264 C 991.977 0.337612 1.85045 0
M  V30 10265 O 991.335 -0.698555 1.67302 0
M  V30 10266 C 991.383 2.74793 2.33498 0
M  V30 10267 O 990.487 2.36069 3.3815 0
M  V30 10268 H 989.828 0.552728 0.367951 0
M  V30 10269 H 992.358 1.96782 0.560177 0
M  V30 10270 H 992.368 2.97879 2.78804 0
M  V30 10271 H 991.043 3.70363 1.8922 0
M  V30 10272 H 989.62 2.2343 2.98552 0
M  V30 10273 N 991.805 -0.723954 1.39988 0
M  V30 10274 C 993.045 -1.49624 1.39255 0
M  V30 10275 C 993.409 -1.91998 -0.00860198 0
M  V30 10276 O 994.61 -2.6843 -0.141002 0
M  V30 10277 C 992.881 -2.69514 2.34728 0
M  V30 10278 S 994.44 -3.59027 2.5228 0
M  V30 10279 H 991.258 -0.511661 0.493685 0
M  V30 10280 H 993.86 -0.847322 1.76184 0
M  V30 10281 H 992.564 -2.36541 3.35375 0
M  V30 10282 H 992.095 -3.39325 1.99053 0
M  V30 10283 H 994.11 -4.63597 1.76896 0
M  V30 10284 N 993.283 -1.25346 -0.955304 0
M  V30 10285 C 994.508 -1.12892 -1.73983 0
M  V30 10286 C 994.933 0.313455 -1.8547 0
M  V30 10287 O 994.291 1.22706 -1.33465 0
M  V30 10288 C 994.339 -1.78729 -3.1319 0
M  V30 10289 O 993.443 -1.06648 -3.98372 0
M  V30 10290 H 992.784 -0.394178 -0.534341 0
M  V30 10291 H 995.314 -1.65897 -1.19747 0
M  V30 10292 H 995.324 -1.84987 -3.63653 0
M  V30 10293 H 993.999 -2.83669 -3.04146 0
M  V30 10294 H 992.576 -1.08266 -3.56837 0
M  V30 10295 N 994.761 1.15782 -1.06922 0
M  V30 10296 C 995.708 2.2038 -0.685659 0
M  V30 10297 C 996.678 1.62972 0.320816 0
M  V30 10298 O 997.863 1.8966 0.208258 0
M  V30 10299 C 995.003 3.44995 -0.084998 0
M  V30 10300 C 994.116 4.16621 -1.14242 0
M  V30 10301 C 993.251 5.28773 -0.507226 0
M  V30 10302 C 992.29 5.92209 -1.54774 0
M  V30 10303 N 991.427 6.9584 -0.935443 0
M  V30 10304 H 996.267 2.5254 -1.58201 0
M  V30 10305 H 993.804 1.24031 -0.790864 0
M  V30 10306 H 995.762 4.16254 0.280845 0
M  V30 10307 H 994.392 3.13365 0.774725 0
M  V30 10308 H 993.444 3.43903 -1.62589 0
M  V30 10309 H 994.756 4.59884 -1.93154 0
M  V30 10310 H 993.91 6.06635 -0.0887719 0
M  V30 10311 H 992.649 4.8669 0.313704 0
M  V30 10312 H 991.654 5.13063 -1.97602 0
M  V30 10313 H 992.879 6.3637 -2.37088 0
M  V30 10314 H 990.825 6.5586 -0.135339 0
M  V30 10315 H 990.742 7.37508 -1.66186 0
M  V30 10316 H 992.01 7.77611 -0.542346 0
M  V30 10317 N 996.239 0.8527 1.3254 0
M  V30 10318 C 997.149 0.298744 2.3269 0
M  V30 10319 C 998.165 -0.582418 1.63963 0
M  V30 10320 O 999.341 -0.483253 1.95516 0
M  V30 10321 C 996.406 -0.505453 3.42996 0
M  V30 10322 C 995.467 0.401618 4.27417 0
M  V30 10323 C 994.7 -0.364294 5.32455 0
M  V30 10324 O 994.923 -1.59448 5.47661 0
M  V30 10325 O 993.857 0.268892 6.01299 0
M  V30 10326 H 997.683 1.12843 2.81958 0
M  V30 10327 H 995.268 0.615584 1.36128 0
M  V30 10328 H 997.15 -0.961974 4.10273 0
M  V30 10329 H 995.825 -1.31197 2.95921 0
M  V30 10330 H 994.732 0.906274 3.62957 0
M  V30 10331 H 996.065 1.17327 4.78012 0
M  V30 10332 N 997.718 -1.45297 0.610449 0
M  V30 10333 C 998.946 -2.0659 0.113211 0
M  V30 10334 C 999.361 -1.4546 -1.20361 0
M  V30 10335 O 998.718 -0.569823 -1.73376 0
M  V30 10336 C 998.769 -3.61488 -0.0298411 0
M  V30 10337 O 998.49 -4.20336 1.23488 0
M  V30 10338 C 999.991 -4.39772 -0.558202 0
M  V30 10339 H 997.211 -0.667322 0.0701555 0
M  V30 10340 H 999.755 -1.86497 0.838993 0
M  V30 10341 H 997.91 -3.80913 -0.705963 0
M  V30 10342 H 998.324 -5.13545 1.0664 0
M  V30 10343 H 999.798 -5.48648 -0.607375 0
M  V30 10344 H 1000.27 -4.09755 -1.58107 0
M  V30 10345 H 1000.88 -4.25217 0.0839704 0
M  V30 10346 N 999.196 -0.349774 -1.5367 0
M  V30 10347 C 1000.16 0.491676 -2.23864 0
M  V30 10348 C 1001.16 1.02256 -1.24098 0
M  V30 10349 O 1002.35 0.910816 -1.48492 0
M  V30 10350 C 999.481 1.68557 -2.96313 0
M  V30 10351 H 1000.67 -0.12233 -2.9965 0
M  V30 10352 H 998.227 -0.101214 -1.55972 0
M  V30 10353 H 998.962 2.3381 -2.2473 0
M  V30 10354 H 998.747 1.31203 -3.69497 0
M  V30 10355 H 1000.24 2.28225 -3.49718 0
M  V30 10356 N 1000.67 1.57404 -0.0785433 0
M  V30 10357 C 1001.62 2.13104 0.88631 0
M  V30 10358 C 1002.59 1.04527 1.29086 0
M  V30 10359 O 1003.78 1.32226 1.37553 0
M  V30 10360 C 1000.92 2.70252 2.14611 0
M  V30 10361 C 1000.03 3.93007 1.79358 0
M  V30 10362 C 999.164 4.38376 3 0
M  V30 10363 C 998.203 5.53761 2.60796 0
M  V30 10364 N 997.34 5.94058 3.74219 0
M  V30 10365 H 1002.18 2.95243 0.404452 0
M  V30 10366 H 999.717 1.45894 0.187982 0
M  V30 10367 H 1001.67 3.01497 2.88367 0
M  V30 10368 H 1000.3 1.90868 2.60326 0
M  V30 10369 H 999.357 3.68181 0.956384 0
M  V30 10370 H 1000.67 4.76795 1.4652 0
M  V30 10371 H 999.823 4.71317 3.82027 0
M  V30 10372 H 998.562 3.53455 3.36037 0
M  V30 10373 H 997.567 5.20464 1.77192 0
M  V30 10374 H 998.792 6.40419 2.25922 0
M  V30 10375 H 996.738 5.12085 4.10005 0
M  V30 10376 H 996.655 6.72602 3.45171 0
M  V30 10377 H 997.923 6.31624 4.56805 0
M  V30 10378 N 1002.15 -0.195058 1.56388 0
M  V30 10379 C 1003.56 -0.75973 1.70543 0
M  V30 10380 C 1003.91 -1.83849 0.685118 0
M  V30 10381 O 1003.04 -2.15819 -0.158457 0
M  V30 10382 C 1003.63 -1.38485 3.09204 0
M  V30 10383 C 1002.19 -1.89661 3.25124 0
M  V30 10384 C 1001.34 -0.766563 2.66494 0
M  V30 10385 H 1004.29 0.0300148 1.58672 0
M  V30 10386 H 1004.31 -2.25424 3.06536 0
M  V30 10387 H 1003.82 -0.599479 3.83442 0
M  V30 10388 H 1001.92 -2.70917 2.55802 0
M  V30 10389 H 1002.04 -2.05837 4.32629 0
M  V30 10390 H 1000.4 -1.18086 2.25672 0
M  V30 10391 H 1001.18 0.00657102 3.43299 0
M  V30 10392 N 1003.63 -1.50653 -0.462772 0
M  V30 10393 C 1004.87 -1.637 -1.22399 0
M  V30 10394 C 1005.23 -0.333847 -1.89075 0
M  V30 10395 O 1006.43 -0.339837 -2.66643 0
M  V30 10396 C 1004.71 -2.79018 -2.23347 0
M  V30 10397 S 1006.26 -3.12248 -3.08296 0
M  V30 10398 H 1003.08 -0.576998 -0.415444 0
M  V30 10399 H 1005.68 -1.88468 -0.519631 0
M  V30 10400 H 1004.39 -3.72174 -1.72958 0
M  V30 10401 H 1003.92 -2.56362 -2.98399 0
M  V30 10402 H 1005.93 -2.56716 -4.24631 0
M  V30 10403 N 1005.11 0.71652 -1.4037 0
M  V30 10404 C 1006.04 1.84345 -1.43315 0
M  V30 10405 C 1007.02 1.67537 -0.294186 0
M  V30 10406 O 1008.2 1.87582 -0.502671 0
M  V30 10407 C 1005.33 3.2229 -1.29408 0
M  V30 10408 C 1004.29 3.53769 -2.40897 0
M  V30 10409 C 1003.61 4.90847 -2.12068 0
M  V30 10410 C 1004.91 3.54862 -3.83237 0
M  V30 10411 H 1006.61 1.82138 -2.37626 0
M  V30 10412 H 1004.15 0.874873 -1.14376 0
M  V30 10413 H 1006.11 4.00819 -1.30085 0
M  V30 10414 H 1004.83 3.2507 -0.31573 0
M  V30 10415 H 1003.49 2.77579 -2.39469 0
M  V30 10416 H 1003.14 4.90229 -1.12626 0
M  V30 10417 H 1002.84 5.12875 -2.86762 0
M  V30 10418 H 1004.36 5.71711 -2.14426 0
M  V30 10419 H 1005.78 4.23432 -3.86494 0
M  V30 10420 H 1004.17 3.88416 -4.57442 0
M  V30 10421 H 1005.24 2.54266 -4.12888 0
M  V30 10422 N 1006.59 1.25851 0.948643 0
M  V30 10423 C 1007.81 1.13813 1.73382 0
M  V30 10424 C 1008.24 -0.303615 1.85633 0
M  V30 10425 O 1007.59 -1.21997 1.34114 0
M  V30 10426 C 1007.64 1.80388 3.12238 0
M  V30 10427 O 1006.75 1.08759 3.978 0
M  V30 10428 H 1006.09 0.397006 0.532243 0
M  V30 10429 H 1008.62 1.66529 1.18866 0
M  V30 10430 H 1008.63 1.86913 3.62667 0
M  V30 10431 H 1007.3 2.85278 3.02637 0
M  V30 10432 H 1005.88 1.10157 3.56258 0
M  V30 10433 N 1008.06 -1.15214 1.07534 0
M  V30 10434 C 1009.01 -2.22078 0.69168 0
M  V30 10435 C 1010.01 -1.66751 -0.298382 0
M  V30 10436 O 1011.21 -1.7927 -0.161897 0
M  V30 10437 H 1007.59 -0.723347 0.205604 0
M  V30 10438 H 1009.56 -2.51716 1.60256 0
M  V30 10439 C 1008.31 -3.47534 0.107546 0
M  V30 10440 H 1007.63 -3.90429 0.860522 0
M  V30 10441 H 1009.07 -4.23821 -0.123215 0
M  V30 10442 C 1007.53 -3.16583 -1.15226 0
M  V30 10443 O 1008.06 -3.33551 -2.23845 0
M  V30 10444 N 1006.27 -2.70611 -1.05915 0
M  V30 10445 H 1005.81 -2.57004 -0.175198 0
M  V30 10446 H 1005.77 -2.50277 -1.90287 0
M  V30 10447 N 1009.54 -0.859717 -1.32086 0
M  V30 10448 C 1010.95 -0.519529 -1.79326 0
M  V30 10449 C 1011.3 0.96295 -1.70944 0
M  V30 10450 O 1010.43 1.75139 -1.27104 0
M  V30 10451 C 1011.02 -0.936267 -3.25606 0
M  V30 10452 C 1009.58 -0.647899 -3.70782 0
M  V30 10453 C 1008.73 -1.13323 -2.53087 0
M  V30 10454 H 1011.68 -1.04643 -1.19312 0
M  V30 10455 H 1011.7 -0.254714 -3.79646 0
M  V30 10456 H 1011.21 -2.01527 -3.31675 0
M  V30 10457 H 1009.32 0.420172 -3.70223 0
M  V30 10458 H 1009.43 -1.21774 -4.63366 0
M  V30 10459 H 1007.79 -0.553325 -2.48617 0
M  V30 10460 H 1008.58 -2.21945 -2.61907 0
M  V30 10461 N 1011.02 1.44971 -0.618145 0
M  V30 10462 C 1012.26 2.04044 -0.120625 0
M  V30 10463 C 1012.62 1.47472 1.22947 0
M  V30 10464 O 1013.83 1.97965 1.81834 0
M  V30 10465 C 1012.1 3.57279 -0.0930863 0
M  V30 10466 S 1013.66 4.37468 0.341705 0
M  V30 10467 H 1010.47 0.708891 -0.0547272 0
M  V30 10468 H 1013.08 1.77535 -0.818621 0
M  V30 10469 H 1011.78 3.95961 -1.07903 0
M  V30 10470 H 1011.31 3.88378 0.62657 0
M  V30 10471 H 1013.33 4.70073 1.58888 0
M  V30 10472 N 1012.5 0.357919 1.53482 0
M  V30 10473 C 1013.45 -0.49217 2.25491 0
M  V30 10474 C 1014.42 -1.08382 1.25867 0
M  V30 10475 O 1015.6 -1.11775 1.54632 0
M  V30 10476 C 1012.74 -1.6299 3.04185 0
M  V30 10477 C 1011.85 -1.06416 4.18688 0
M  V30 10478 C 1010.99 -2.17037 4.84839 0
M  V30 10479 C 1010.03 -1.57889 5.91386 0
M  V30 10480 N 1009.16 -2.6231 6.51259 0
M  V30 10481 H 1014 0.128412 2.97723 0
M  V30 10482 H 1011.54 0.0751423 1.46908 0
M  V30 10483 H 1013.5 -2.29993 3.48079 0
M  V30 10484 H 1012.13 -2.22125 2.34223 0
M  V30 10485 H 1011.18 -0.284635 3.79334 0
M  V30 10486 H 1012.49 -0.591654 4.95279 0
M  V30 10487 H 1011.65 -2.91876 5.31877 0
M  V30 10488 H 1010.39 -2.67636 4.07703 0
M  V30 10489 H 1009.39 -0.815605 5.43717 0
M  V30 10490 H 1010.62 -1.08123 6.70437 0
M  V30 10491 H 1008.56 -3.12137 5.7698 0
M  V30 10492 H 1008.48 -2.19724 7.23365 0
M  V30 10493 H 1009.75 -3.36875 7.02948 0
M  V30 10494 N 1013.98 -1.5736 0.0868897 0
M  V30 10495 C 1014.92 -2.14793 -0.892571 0
M  V30 10496 C 1015.92 -1.08866 -1.29787 0
M  V30 10497 O 1017.12 -1.27223 -1.27335 0
M  V30 10498 H 1013.5 -0.686998 -0.305838 0
M  V30 10499 H 1015.47 -2.95927 -0.383393 0
M  V30 10500 C 1014.22 -2.73646 -2.14507 0
M  V30 10501 H 1013.54 -3.54835 -1.84207 0
M  V30 10502 H 1014.98 -3.17409 -2.81118 0
M  V30 10503 C 1013.44 -1.69138 -2.91366 0
M  V30 10504 O 1013.97 -1.12539 -3.85614 0
M  V30 10505 N 1012.18 -1.3982 -2.54752 0
M  V30 10506 H 1011.72 -1.86035 -1.78182 0
M  V30 10507 H 1011.68 -0.701316 -3.06478 0
M  V30 10508 N 1015.45 0.186762 -1.56489 0
M  V30 10509 C 1016.4 1.25084 -1.96104 0
M  V30 10510 C 1017.4 1.4667 -0.847609 0
M  V30 10511 O 1018.6 1.47432 -1.03266 0
M  V30 10512 H 1014.98 0.420121 -0.623701 0
M  V30 10513 H 1016.95 0.889761 -2.84826 0
M  V30 10514 C 1015.7 2.5863 -2.32392 0
M  V30 10515 H 1015.02 2.42838 -3.176 0
M  V30 10516 H 1016.46 3.3181 -2.63967 0
M  V30 10517 C 1014.92 3.16241 -1.16159 0
M  V30 10518 O 1015.45 3.99272 -0.441034 0
M  V30 10519 N 1013.66 2.75106 -0.936206 0
M  V30 10520 H 1013.2 2.0769 -1.5239 0
M  V30 10521 H 1013.16 3.13991 -0.160317 0
M  V30 10522 N 1016.93 1.50896 0.454776 0
M  V30 10523 C 1018.18 1.62378 1.20324 0
M  V30 10524 C 1018.5 0.333883 1.9212 0
M  V30 10525 O 1017.77 -0.649477 1.8482 0
M  V30 10526 H 1016.35 0.598395 0.447139 0
M  V30 10527 H 1019.01 1.87749 0.523102 0
M  V30 10528 H 1018.11 2.44296 1.94232 0
M  V30 10529 N 1018.41 -0.709066 1.40748 0
M  V30 10530 C 1019.34 -1.83293 1.35937 0
M  V30 10531 C 1020.32 -1.60983 0.22871 0
M  V30 10532 O 1021.51 -1.8391 0.413435 0
M  V30 10533 C 1018.63 -3.19746 1.11714 0
M  V30 10534 C 1017.68 -3.60872 2.27319 0
M  V30 10535 S 1018.51 -3.67233 3.89743 0
M  V30 10536 C 1019.67 -5.06434 3.67797 0
M  V30 10537 H 1019.9 -1.87095 2.31047 0
M  V30 10538 H 1017.43 -0.876479 1.27111 0
M  V30 10539 H 1019.39 -3.98526 0.984245 0
M  V30 10540 H 1018.05 -3.1357 0.182472 0
M  V30 10541 H 1017.25 -4.59965 2.06029 0
M  V30 10542 H 1016.85 -2.89366 2.36946 0
M  V30 10543 H 1019.14 -5.93544 3.26668 0
M  V30 10544 H 1020.08 -5.32761 4.66445 0
M  V30 10545 H 1020.49 -4.77336 3.01348 0
M  V30 10546 N 1019.89 -1.26353 -0.941956 0
M  V30 10547 C 1021.13 -1.13071 -1.70277 0
M  V30 10548 C 1021.49 0.320699 -1.89303 0
M  V30 10549 O 1022.69 0.575624 -2.62564 0
M  V30 10550 C 1020.97 -1.87777 -3.04096 0
M  V30 10551 S 1022.52 -1.9054 -3.95272 0
M  V30 10552 H 1019.34 -0.403912 -0.585129 0
M  V30 10553 H 1021.94 -1.6006 -1.12254 0
M  V30 10554 H 1020.65 -2.92447 -2.87929 0
M  V30 10555 H 1020.18 -1.41226 -3.67177 0
M  V30 10556 H 1022.19 -0.991548 -4.86192 0
M  V30 10557 N 1021.37 1.14642 -1.08144 0
M  V30 10558 C 1022.78 1.37604 -0.808537 0
M  V30 10559 C 1022.98 1.92868 0.583452 0
M  V30 10560 O 1022.04 2.13964 1.34073 0
M  V30 10561 C 1023.35 2.3396 -1.889 0
M  V30 10562 C 1024.9 2.47605 -1.9147 0
M  V30 10563 C 1025.38 3.47258 -2.98623 0
M  V30 10564 N 1026.87 3.548 -2.97777 0
M  V30 10565 C 1027.6 4.31751 -3.77331 0
M  V30 10566 N 1027.1 5.11966 -4.66757 0
M  V30 10567 N 1028.89 4.2692 -3.65645 0
M  V30 10568 H 1021.04 0.771154 -1.97906 0
M  V30 10569 H 1023.3 0.401694 -0.858688 0
M  V30 10570 H 1023.01 2.00484 -2.88962 0
M  V30 10571 H 1022.88 3.33833 -1.756 0
M  V30 10572 H 1025.27 2.80375 -0.920548 0
M  V30 10573 H 1025.35 1.47702 -2.08848 0
M  V30 10574 H 1025 3.15223 -3.98243 0
M  V30 10575 H 1024.93 4.46935 -2.7849 0
M  V30 10576 H 1027.42 2.97553 -2.3296 0
M  V30 10577 H 1027.73 5.67951 -5.24072 0
M  V30 10578 H 1026.08 5.11245 -4.70801 0
M  V30 10579 H 1029.27 3.63322 -2.95152 0
M  V30 10580 H 1029.44 4.8664 -4.27885 0
M  V30 10581 N 1022.85 0.866709 1.31628 0
M  V30 10582 C 1024.12 0.396828 1.91532 0
M  V30 10583 C 1024.5 -1.12081 1.78889 0
M  V30 10584 O 1023.85 -1.94791 1.19452 0
M  V30 10585 C 1024.06 0.874578 3.37864 0
M  V30 10586 C 1025.41 0.8988 4.14978 0
M  V30 10587 O 1026.43 0.820014 3.46633 0
M  V30 10588 O 1025.29 1.01223 5.37044 0
M  V30 10589 H 1022.39 0.1181 0.818524 0
M  V30 10590 H 1024.93 0.954407 1.40318 0
M  V30 10591 H 1023.7 1.91807 3.41066 0
M  V30 10592 H 1023.33 0.295126 3.96503 0
M  V30 10593 N 1024.32 -1.44642 0.625825 0
M  V30 10594 C 1025.57 -2.01695 0.127948 0
M  V30 10595 C 1025.89 -1.49439 -1.25271 0
M  V30 10596 O 1025.16 -0.695873 -1.83124 0
M  V30 10597 H 1023.74 -0.745685 0.0443096 0
M  V30 10598 H 1026.4 -1.7721 0.811332 0
M  V30 10599 H 1025.5 -3.11966 0.0915933 0
M  V30 10600 N 1025.8 -0.366053 -1.5329 0
M  V30 10601 C 1027.05 0.216398 -2.02246 0
M  V30 10602 C 1027.4 1.46384 -1.24858 0
M  V30 10603 O 1026.7 1.88667 -0.333977 0
M  V30 10604 C 1026.89 0.560906 -3.52971 0
M  V30 10605 C 1026.72 -0.651598 -4.44954 0
M  V30 10606 C 1025.49 -1.16381 -4.91715 0
M  V30 10607 C 1027.69 -1.51695 -4.91419 0
M  V30 10608 N 1025.67 -2.33629 -5.67706 0
M  V30 10609 C 1027.04 -2.53608 -5.65759 0
M  V30 10610 C 1029.09 -1.53977 -4.73493 0
M  V30 10611 C 1027.8 -3.57661 -6.24076 0
M  V30 10612 C 1029.82 -2.56923 -5.32677 0
M  V30 10613 C 1029.19 -3.5756 -6.06902 0
M  V30 10614 H 1025.28 0.0418889 -0.780877 0
M  V30 10615 H 1027.87 -0.510704 -1.87883 0
M  V30 10616 H 1026.04 1.25708 -3.67494 0
M  V30 10617 H 1027.77 1.12849 -3.88648 0
M  V30 10618 H 1024.53 -0.728374 -4.67965 0
M  V30 10619 H 1024.95 -2.92891 -6.10364 0
M  V30 10620 H 1029.59 -0.775265 -4.15631 0
M  V30 10621 H 1027.31 -4.34993 -6.81034 0
M  V30 10622 H 1030.9 -2.59544 -5.207 0
M  V30 10623 H 1029.78 -4.35912 -6.51882 0
M  V30 10624 N 1027.28 1.57312 -0.0952337 0
M  V30 10625 C 1028.23 2.15263 0.881167 0
M  V30 10626 C 1029.22 1.09552 1.29208 0
M  V30 10627 O 1030.43 1.27897 1.26659 0
M  V30 10628 H 1026.8 0.688611 0.302191 0
M  V30 10629 H 1028.77 2.96126 0.367694 0
M  V30 10630 C 1027.52 2.74779 2.13053 0
M  V30 10631 H 1026.85 3.55807 1.82323 0
M  V30 10632 H 1028.29 3.18895 2.79431 0
M  V30 10633 C 1026.74 1.7068 2.90465 0
M  V30 10634 O 1027.27 1.14582 3.85011 0
M  V30 10635 N 1025.48 1.41169 2.54007 0
M  V30 10636 H 1025.03 1.86977 1.77193 0
M  V30 10637 H 1024.99 0.717559 3.06102 0
M  V30 10638 N 1028.76 -0.17846 1.56586 0
M  V30 10639 C 1030.17 -0.529957 1.50544 0
M  V30 10640 C 1030.37 -1.85015 0.798237 0
M  V30 10641 O 1029.43 -2.49983 0.355639 0
M  V30 10642 C 1030.74 -0.569314 2.95261 0
M  V30 10643 C 1032.29 -0.657008 3.06027 0
M  V30 10644 C 1032.77 -0.727323 4.52188 0
M  V30 10645 N 1034.26 -0.790406 4.56406 0
M  V30 10646 C 1034.99 -0.865265 5.66834 0
M  V30 10647 N 1034.49 -0.901398 6.86911 0
M  V30 10648 N 1036.28 -0.903736 5.54787 0
M  V30 10649 H 1028.43 0.687304 2.00972 0
M  V30 10650 H 1030.69 0.246936 0.915274 0
M  V30 10651 H 1030.4 0.331934 3.5013 0
M  V30 10652 H 1030.27 -1.41828 3.4952 0
M  V30 10653 H 1032.66 -1.54868 2.51197 0
M  V30 10654 H 1032.74 0.218495 2.54865 0
M  V30 10655 H 1032.39 0.160067 5.07648 0
M  V30 10656 H 1032.32 -1.61887 5.01099 0
M  V30 10657 H 1034.81 -0.771054 3.6995 0
M  V30 10658 H 1035.12 -0.959494 7.6682 0
M  V30 10659 H 1033.47 -0.869795 6.89536 0
M  V30 10660 H 1036.66 -0.872459 4.59898 0
M  V30 10661 H 1036.83 -0.958615 6.4087 0
M  V30 10662 N 1030.24 -1.51135 -0.446768 0
M  V30 10663 C 1031.47 -1.66887 -1.21788 0
M  V30 10664 C 1031.87 -0.361729 -1.8571 0
M  V30 10665 O 1031.22 0.668784 -1.71093 0
M  V30 10666 C 1031.28 -2.72062 -2.34994 0
M  V30 10667 C 1030.94 -4.14935 -1.91516 0
M  V30 10668 C 1031.94 -5.00021 -1.42389 0
M  V30 10669 C 1029.62 -4.60985 -1.99495 0
M  V30 10670 C 1031.62 -6.29216 -1.01816 0
M  V30 10671 C 1029.31 -5.90179 -1.58532 0
M  V30 10672 C 1030.3 -6.74121 -1.09774 0
M  V30 10673 O 1029.99 -8.009 -0.69389 0
M  V30 10674 H 1029.72 -0.563431 -0.373525 0
M  V30 10675 H 1032.28 -1.98261 -0.536818 0
M  V30 10676 H 1030.51 -2.35983 -3.06348 0
M  V30 10677 H 1032.2 -2.76788 -2.96889 0
M  V30 10678 H 1032.96 -4.6565 -1.35627 0
M  V30 10679 H 1028.84 -3.95777 -2.36393 0
M  V30 10680 H 1032.39 -6.94687 -0.636879 0
M  V30 10681 H 1028.28 -6.24066 -1.64962 0
M  V30 10682 H 1029.05 -8.14376 -0.820582 0
M  V30 10683 N 1031.71 0.701592 -1.41122 0
M  V30 10684 C 1032.96 1.46376 -1.40363 0
M  V30 10685 C 1033.29 1.94197 -0.0105442 0
M  V30 10686 O 1032.57 1.69121 0.960637 0
M  V30 10687 C 1032.85 2.67994 -2.40523 0
M  V30 10688 C 1032.7 2.25977 -3.88914 0
M  V30 10689 C 1034.02 3.70181 -2.38022 0
M  V30 10690 H 1031.14 0.530929 -0.511159 0
M  V30 10691 H 1033.78 0.799588 -1.72356 0
M  V30 10692 H 1031.93 3.24661 -2.13372 0
M  V30 10693 H 1033.61 1.74684 -4.26946 0
M  V30 10694 H 1031.85 1.57826 -4.04071 0
M  V30 10695 H 1032.52 3.13215 -4.54533 0
M  V30 10696 H 1035 3.23174 -2.62103 0
M  V30 10697 H 1033.87 4.52894 -3.10127 0
M  V30 10698 H 1034.13 4.19458 -1.3967 0
M  V30 10699 N 1033.19 1.2685 0.935242 0
M  V30 10700 C 1034.43 1.13972 1.69675 0
M  V30 10701 C 1034.8 -0.310655 1.8947 0
M  V30 10702 O 1036 -0.561692 2.62866 0
M  V30 10703 C 1034.27 1.89387 3.03096 0
M  V30 10704 S 1035.83 1.92633 3.94256 0
M  V30 10705 H 1032.64 0.407009 0.582979 0
M  V30 10706 H 1035.25 1.60653 1.11404 0
M  V30 10707 H 1033.95 2.9397 2.86374 0
M  V30 10708 H 1033.48 1.43171 3.66423 0
M  V30 10709 H 1035.5 1.01732 4.85659 0
M  V30 10710 N 1034.67 -1.14067 1.0875 0
M  V30 10711 C 1035.95 -1.81389 0.73195 0
M  V30 10712 C 1036.33 -1.96005 -0.78391 0
M  V30 10713 O 1035.68 -1.52267 -1.70373 0
M  V30 10714 C 1035.89 -3.16858 1.46294 0
M  V30 10715 C 1037.23 -3.92305 1.62426 0
M  V30 10716 O 1038.26 -3.26459 1.42488 0
M  V30 10717 O 1037.12 -5.10393 1.9535 0
M  V30 10718 H 1034.21 -0.784354 0.262141 0
M  V30 10719 H 1036.76 -1.21054 1.18929 0
M  V30 10720 H 1035.53 -3.01404 2.49542 0
M  V30 10721 H 1035.15 -3.84889 0.997318 0
M  V30 10722 N 1036.15 -0.873678 -1.31166 0
M  V30 10723 C 1037.39 -0.493006 -1.98365 0
M  V30 10724 C 1037.75 0.937973 -1.67529 0
M  V30 10725 O 1038.95 1.42419 -2.2797 0
M  V30 10726 C 1037.22 -0.747128 -3.49504 0
M  V30 10727 S 1038.78 -0.466869 -4.36309 0
M  V30 10728 H 1035.6 -0.183882 -0.68681 0
M  V30 10729 H 1038.2 -1.13051 -1.59499 0
M  V30 10730 H 1036.91 -1.78731 -3.69437 0
M  V30 10731 H 1036.44 -0.096761 -3.93281 0
M  V30 10732 H 1038.45 0.699298 -4.91248 0
M  V30 10733 N 1037.63 1.44308 -0.633487 0
M  V30 10734 C 1038.85 2.06897 -0.144347 0
M  V30 10735 C 1039.28 1.47045 1.173 0
M  V30 10736 O 1038.63 0.572806 1.72013 0
M  V30 10737 C 1038.68 3.60571 -0.0456324 0
M  V30 10738 O 1037.79 4.0015 0.997682 0
M  V30 10739 H 1037.13 0.658427 -0.0858499 0
M  V30 10740 H 1039.66 1.85142 -0.870833 0
M  V30 10741 H 1039.67 4.07745 0.144178 0
M  V30 10742 H 1038.34 4.03515 -1.0074 0
M  V30 10743 H 1036.92 3.64603 0.782252 0
M  V30 10744 N 1039.1 0.374177 1.53094 0
M  V30 10745 C 1040.35 -0.212396 2.00981 0
M  V30 10746 C 1040.67 -1.48576 1.26293 0
M  V30 10747 O 1039.94 -1.92206 0.378642 0
M  V30 10748 H 1038.52 -0.0814763 0.742543 0
M  V30 10749 H 1041.19 0.502389 1.88314 0
M  V30 10750 H 1040.28 -0.433316 3.09077 0
M  V30 10751 N 1040.58 -1.57259 0.103575 0
M  V30 10752 C 1041.81 -1.99 -0.566275 0
M  V30 10753 C 1042.23 -0.982909 -1.61197 0
M  V30 10754 O 1041.58 0.026345 -1.82481 0
M  V30 10755 C 1041.63 -3.40778 -1.20635 0
M  V30 10756 O 1041.35 -4.37632 -0.202472 0
M  V30 10757 C 1042.86 -3.97567 -1.961 0
M  V30 10758 H 1040.08 -0.653751 -0.151164 0
M  V30 10759 H 1042.62 -2.03658 0.185365 0
M  V30 10760 H 1040.77 -3.37107 -1.90886 0
M  V30 10761 H 1041.19 -5.2026 -0.665535 0
M  V30 10762 H 1042.66 -4.98897 -2.36233 0
M  V30 10763 H 1043.14 -3.35853 -2.83018 0
M  V30 10764 H 1043.75 -4.04737 -1.30645 0
M  V30 10765 N 1042.06 0.170153 -1.56679 0
M  V30 10766 C 1043.31 0.884841 -1.817 0
M  V30 10767 C 1043.63 1.82731 -0.680763 0
M  V30 10768 O 1042.9 1.936 0.299294 0
M  V30 10769 H 1041.48 0.329738 -0.670285 0
M  V30 10770 H 1044.14 0.169691 -1.9416 0
M  V30 10771 H 1043.24 1.46104 -2.7579 0
M  V30 10772 N 1043.54 1.5137 0.438746 0
M  V30 10773 C 1044.77 1.6753 1.20901 0
M  V30 10774 C 1045.18 0.371573 1.85515 0
M  V30 10775 O 1044.52 -0.659701 1.71446 0
M  V30 10776 C 1044.58 2.73305 2.33548 0
M  V30 10777 C 1044.25 4.15944 1.89313 0
M  V30 10778 C 1045.24 5.00769 1.39736 0
M  V30 10779 C 1042.93 4.62036 1.97047 0
M  V30 10780 C 1044.92 6.29747 0.984773 0
M  V30 10781 C 1042.61 5.91011 1.554 0
M  V30 10782 C 1043.61 6.74693 1.06197 0
M  V30 10783 O 1043.29 8.01256 0.651407 0
M  V30 10784 H 1043.03 0.565404 0.370532 0
M  V30 10785 H 1045.58 1.98543 0.526296 0
M  V30 10786 H 1043.81 2.37604 3.05092 0
M  V30 10787 H 1045.5 2.78359 2.95417 0
M  V30 10788 H 1046.27 4.66363 1.33156 0
M  V30 10789 H 1042.14 3.97025 2.34291 0
M  V30 10790 H 1045.69 6.95015 0.600029 0
M  V30 10791 H 1041.59 6.24932 1.6165 0
M  V30 10792 H 1042.35 8.148 0.777382 0
M  V30 10793 N 1045.02 -0.694098 1.41492 0
M  V30 10794 C 1045.95 -1.82042 1.46229 0
M  V30 10795 C 1046.93 -1.67047 0.320803 0
M  V30 10796 O 1048.11 -1.86758 0.53245 0
M  V30 10797 C 1045.24 -3.2019 1.34519 0
M  V30 10798 C 1044.2 -3.49892 2.46495 0
M  V30 10799 C 1043.52 -4.87411 2.1985 0
M  V30 10800 C 1044.82 -3.4872 3.88834 0
M  V30 10801 H 1046.52 -1.78335 2.40493 0
M  V30 10802 H 1044.06 -0.856566 1.15754 0
M  V30 10803 H 1046.02 -3.98699 1.36445 0
M  V30 10804 H 1044.74 -3.24527 0.367406 0
M  V30 10805 H 1043.4 -2.73734 2.43854 0
M  V30 10806 H 1043.05 -4.88375 1.20411 0
M  V30 10807 H 1042.75 -5.08248 2.94885 0
M  V30 10808 H 1044.27 -5.68228 2.23494 0
M  V30 10809 H 1045.68 -4.1723 3.93182 0
M  V30 10810 H 1044.08 -3.81089 4.63564 0
M  V30 10811 H 1045.15 -2.47665 4.16881 0
M  V30 10812 N 1046.49 -1.27344 -0.928501 0
M  V30 10813 C 1047.74 -1.13411 -1.67279 0
M  V30 10814 C 1048.06 0.320698 -1.92345 0
M  V30 10815 O 1047.33 1.2245 -1.52915 0
M  V30 10816 H 1045.91 -0.416712 -0.619968 0
M  V30 10817 H 1048.58 -1.5986 -1.11493 0
M  V30 10818 H 1047.67 -1.66256 -2.64131 0
M  V30 10819 N 1047.97 1.13488 -1.09353 0
M  V30 10820 C 1049.39 1.36739 -0.823086 0
M  V30 10821 C 1049.59 1.93476 0.562963 0
M  V30 10822 O 1048.64 2.15374 1.31796 0
M  V30 10823 C 1049.96 2.31943 -1.91371 0
M  V30 10824 C 1051.51 2.4556 -1.94085 0
M  V30 10825 C 1051.98 3.44072 -3.02289 0
M  V30 10826 N 1053.47 3.51622 -3.01524 0
M  V30 10827 C 1054.21 4.27724 -3.8189 0
M  V30 10828 N 1053.7 5.06987 -4.72161 0
M  V30 10829 N 1055.5 4.23018 -3.70152 0
M  V30 10830 H 1047.65 0.75012 -1.98713 0
M  V30 10831 H 1049.91 0.392564 -0.862901 0
M  V30 10832 H 1049.62 1.97408 -2.91072 0
M  V30 10833 H 1049.49 3.31952 -1.79131 0
M  V30 10834 H 1051.88 2.79382 -0.950234 0
M  V30 10835 H 1051.96 1.45479 -2.10403 0
M  V30 10836 H 1051.6 3.10981 -4.01564 0
M  V30 10837 H 1051.53 4.43956 -2.83214 0
M  V30 10838 H 1054.02 2.95066 -2.36103 0
M  V30 10839 H 1054.34 5.6236 -5.30067 0
M  V30 10840 H 1052.68 5.06222 -4.76197 0
M  V30 10841 H 1055.87 3.60171 -2.98989 0
M  V30 10842 H 1056.04 4.82075 -4.33022 0
M  V30 10843 N 1049.45 0.880621 1.30701 0
M  V30 10844 C 1050.68 0.510909 2.01009 0
M  V30 10845 C 1051.1 -0.892041 1.65603 0
M  V30 10846 O 1050.46 -1.59045 0.870309 0
M  V30 10847 C 1050.51 0.687759 3.53981 0
M  V30 10848 O 1049.61 -0.268275 4.11526 0
M  V30 10849 H 1048.95 0.201864 0.632572 0
M  V30 10850 H 1051.48 1.18697 1.6665 0
M  V30 10851 H 1051.49 0.585095 4.03783 0
M  V30 10852 H 1050.17 1.71068 3.79089 0
M  V30 10853 H 1048.74 -0.119673 3.72708 0
M  V30 10854 N 1050.93 -1.4397 0.641131 0
M  V30 10855 C 1052.17 -2.03826 0.153071 0
M  V30 10856 C 1052.53 -1.4941 -1.20585 0
M  V30 10857 O 1053.73 -2.00832 -1.78661 0
M  V30 10858 C 1052.01 -3.57085 0.149914 0
M  V30 10859 S 1053.56 -4.37956 -0.272065 0
M  V30 10860 H 1050.38 -0.70793 0.0659981 0
M  V30 10861 H 1052.98 -1.76211 0.846761 0
M  V30 10862 H 1051.69 -3.94194 1.14188 0
M  V30 10863 H 1051.22 -3.89326 -0.564703 0
M  V30 10864 H 1053.23 -4.72542 -1.5139 0
M  V30 10865 N 1052.41 -0.382291 -1.52893 0
M  V30 10866 C 1053.32 0.463745 -2.29971 0
M  V30 10867 C 1054.33 1.07777 -1.36602 0
M  V30 10868 O 1055.51 1.0851 -1.69669 0
M  V30 10869 C 1052.57 1.57938 -3.08637 0
M  V30 10870 C 1051.64 0.991182 -4.17701 0
M  V30 10871 C 1050.87 2.05365 -4.92606 0
M  V30 10872 O 1051.09 3.26757 -4.67532 0
M  V30 10873 O 1050.03 1.67487 -5.78128 0
M  V30 10874 H 1053.85 -0.163962 -3.03257 0
M  V30 10875 H 1051.44 -0.146199 -1.48683 0
M  V30 10876 H 1053.32 2.22765 -3.57706 0
M  V30 10877 H 1051.99 2.19218 -2.3817 0
M  V30 10878 H 1050.9 0.306364 -3.72843 0
M  V30 10879 H 1052.23 0.422699 -4.90382 0
M  V30 10880 N 1053.89 1.57202 -0.111913 0
M  V30 10881 C 1055.3 1.57713 0.244702 0
M  V30 10882 C 1055.5 1.12419 1.67225 0
M  V30 10883 O 1054.56 0.808329 2.39212 0
M  V30 10884 C 1055.87 3.00695 0.0178289 0
M  V30 10885 C 1057.42 3.12887 0.0842781 0
M  V30 10886 C 1057.89 4.57856 -0.114812 0
M  V30 10887 N 1059.38 4.6316 -0.0605423 0
M  V30 10888 C 1060.12 5.73086 -0.189594 0
M  V30 10889 N 1059.62 6.91787 -0.37442 0
M  V30 10890 N 1061.41 5.6195 -0.12967 0
M  V30 10891 H 1053.56 1.84947 -1.04443 0
M  V30 10892 H 1055.82 0.854418 -0.4107 0
M  V30 10893 H 1055.53 3.38093 -0.968802 0
M  V30 10894 H 1055.4 3.69611 0.752815 0
M  V30 10895 H 1057.79 2.7535 1.06143 0
M  V30 10896 H 1057.87 2.46528 -0.682474 0
M  V30 10897 H 1057.51 4.9609 -1.0889 0
M  V30 10898 H 1057.44 5.22297 0.671839 0
M  V30 10899 H 1059.94 3.77817 0.0790856 0
M  V30 10900 H 1060.25 7.71406 -0.463948 0
M  V30 10901 H 1058.59 6.93788 -0.410303 0
M  V30 10902 H 1061.78 4.68098 0.0137115 0
M  V30 10903 H 1061.96 6.47578 -0.233688 0
M  V30 10904 N 1055.36 -0.161842 1.56767 0
M  V30 10905 C 1056.27 -1.21996 2.00385 0
M  V30 10906 C 1057.29 -1.4789 0.916768 0
M  V30 10907 O 1058.47 -1.59852 1.22513 0
M  V30 10908 C 1055.53 -2.53695 2.36305 0
M  V30 10909 C 1054.59 -2.3558 3.58888 0
M  V30 10910 C 1053.82 -3.60998 3.93085 0
M  V30 10911 O 1054.05 -4.6657 3.28129 0
M  V30 10912 O 1052.98 -3.54544 4.86397 0
M  V30 10913 H 1056.81 -0.879701 2.9068 0
M  V30 10914 H 1054.39 -0.369437 1.4476 0
M  V30 10915 H 1056.27 -3.31366 2.60335 0
M  V30 10916 H 1054.95 -2.87281 1.49169 0
M  V30 10917 H 1053.86 -1.55908 3.40064 0
M  V30 10918 H 1055.19 -2.06915 4.46595 0
M  V30 10919 N 1056.84 -1.516 -0.430713 0
M  V30 10920 C 1057.8 -1.72794 -1.50582 0
M  V30 10921 C 1058.8 -0.597903 -1.49271 0
M  V30 10922 O 1059.99 -0.865535 -1.51176 0
M  V30 10923 C 1057.13 -1.79049 -2.90093 0
M  V30 10924 H 1058.32 -2.68751 -1.33091 0
M  V30 10925 H 1055.87 -1.4169 -0.659822 0
M  V30 10926 H 1056.61 -0.849309 -3.12981 0
M  V30 10927 H 1056.39 -2.61181 -2.92449 0
M  V30 10928 H 1057.88 -1.97262 -3.68072 0
M  V30 10929 N 1058.32 0.686584 -1.41858 0
M  V30 10930 C 1059.55 1.47519 -1.45072 0
M  V30 10931 C 1059.96 1.88709 -0.0585868 0
M  V30 10932 O 1059.32 1.57373 0.924116 0
M  V30 10933 C 1059.37 2.73195 -2.36742 0
M  V30 10934 O 1059.09 2.33736 -3.70539 0
M  V30 10935 C 1060.59 3.66861 -2.48854 0
M  V30 10936 H 1057.81 0.454307 -0.493808 0
M  V30 10937 H 1060.36 0.844612 -1.86243 0
M  V30 10938 H 1058.51 3.32468 -1.98856 0
M  V30 10939 H 1058.93 3.14809 -4.19518 0
M  V30 10940 H 1060.4 4.51801 -3.17143 0
M  V30 10941 H 1060.88 4.11961 -1.52265 0
M  V30 10942 H 1061.48 3.13486 -2.87414 0
M  V30 10943 N 1059.8 1.27835 0.921735 0
M  V30 10944 C 1061.04 1.14692 1.67253 0
M  V30 10945 C 1061.38 -0.305384 1.91784 0
M  V30 10946 O 1060.65 -1.22286 1.51249 0
M  V30 10947 C 1060.93 1.93743 3.03539 0
M  V30 10948 C 1060.79 3.46991 2.86212 0
M  V30 10949 C 1062.11 1.74658 4.03959 0
M  V30 10950 H 1059.23 0.418021 0.606983 0
M  V30 10951 H 1061.87 1.5706 1.06922 0
M  V30 10952 H 1060.02 1.57738 3.55037 0
M  V30 10953 H 1061.69 3.92858 2.41785 0
M  V30 10954 H 1059.93 3.73029 2.21432 0
M  V30 10955 H 1060.6 3.97551 3.82958 0
M  V30 10956 H 1063.08 2.06063 3.61493 0
M  V30 10957 H 1061.96 2.32353 4.97296 0
M  V30 10958 H 1062.22 0.696019 4.36587 0
M  V30 10959 N 1061.28 -1.12907 1.09954 0
M  V30 10960 C 1062.21 -2.20585 0.765799 0
M  V30 10961 C 1063.19 -1.68117 -0.258989 0
M  V30 10962 O 1064.37 -1.93792 -0.125853 0
M  V30 10963 C 1061.5 -3.46772 0.191435 0
M  V30 10964 C 1060.46 -4.12363 1.14635 0
M  V30 10965 C 1059.78 -5.3294 0.433426 0
M  V30 10966 C 1061.08 -4.59073 2.49096 0
M  V30 10967 H 1062.78 -2.48759 1.66612 0
M  V30 10968 H 1060.32 -1.19563 0.802534 0
M  V30 10969 H 1062.27 -4.21365 -0.0541535 0
M  V30 10970 H 1061 -3.18011 -0.744101 0
M  V30 10971 H 1059.66 -3.39744 1.37731 0
M  V30 10972 H 1059.31 -5.00444 -0.506422 0
M  V30 10973 H 1059.01 -5.77772 1.07018 0
M  V30 10974 H 1060.53 -6.10284 0.196267 0
M  V30 10975 H 1061.94 -5.25063 2.30177 0
M  V30 10976 H 1060.34 -5.14665 3.0861 0
M  V30 10977 H 1061.41 -3.73313 3.0946 0
M  V30 10978 N 1062.75 -0.88754 -1.30232 0
M  V30 10979 C 1063.98 -0.521562 -2.00735 0
M  V30 10980 C 1064.4 0.883247 -1.66073 0
M  V30 10981 O 1063.76 1.58581 -0.878731 0
M  V30 10982 C 1063.81 -0.706521 -3.53611 0
M  V30 10983 O 1062.91 0.246447 -4.11663 0
M  V30 10984 H 1062.25 -0.205216 -0.631492 0
M  V30 10985 H 1064.78 -1.19579 -1.66018 0
M  V30 10986 H 1064.79 -0.606501 -4.03467 0
M  V30 10987 H 1063.47 -1.73076 -3.78177 0
M  V30 10988 H 1062.05 0.0999062 -3.72766 0
M  V30 10989 N 1064.23 1.43628 -0.648757 0
M  V30 10990 C 1065.46 2.05918 -0.167701 0
M  V30 10991 C 1065.87 1.48681 1.17006 0
M  V30 10992 O 1065.21 0.610984 1.73242 0
M  V30 10993 C 1065.28 3.595 0.00265514 0
M  V30 10994 C 1064.94 4.39295 -1.2597 0
M  V30 10995 C 1065.94 4.71643 -2.18743 0
M  V30 10996 C 1063.62 4.79379 -1.50004 0
M  V30 10997 C 1065.62 5.42978 -3.33846 0
M  V30 10998 C 1063.3 5.50459 -2.65401 0
M  V30 10999 C 1064.3 5.82181 -3.57148 0
M  V30 11000 O 1063.99 6.5181 -4.7053 0
M  V30 11001 H 1063.72 0.670619 -0.0851261 0
M  V30 11002 H 1066.27 1.85196 -0.888351 0
M  V30 11003 H 1064.5 3.7878 0.77863 0
M  V30 11004 H 1066.19 4.03503 0.440501 0
M  V30 11005 H 1066.96 4.41199 -2.01416 0
M  V30 11006 H 1062.84 4.54098 -0.794745 0
M  V30 11007 H 1066.38 5.67656 -4.05479 0
M  V30 11008 H 1062.28 5.8032 -2.82664 0
M  V30 11009 H 1063.05 6.7029 -4.69738 0
M  V30 11010 N 1065.71 0.390394 1.52688 0
M  V30 11011 C 1066.99 -0.249068 1.94008 0
M  V30 11012 C 1067.37 -1.64263 1.32593 0
M  V30 11013 O 1066.72 -2.23086 0.494448 0
M  V30 11014 C 1066.93 -0.274318 3.4792 0
M  V30 11015 C 1068.27 -0.502743 4.21613 0
M  V30 11016 O 1069.3 -0.35448 3.54432 0
M  V30 11017 O 1068.16 -0.79334 5.40711 0
M  V30 11018 H 1065.25 -0.155116 0.812323 0
M  V30 11019 H 1067.8 0.44498 1.63762 0
M  V30 11020 H 1066.57 0.701766 3.84956 0
M  V30 11021 H 1066.19 -1.01324 3.84473 0
M  V30 11022 N 1067.19 -1.57141 0.120249 0
M  V30 11023 C 1068.44 -1.94852 -0.536387 0
M  V30 11024 C 1068.76 -1.00452 -1.67136 0
M  V30 11025 O 1068.03 -0.061053 -1.95805 0
M  V30 11026 H 1066.61 -0.719411 -0.201138 0
M  V30 11027 H 1069.27 -1.93977 0.189482 0
M  V30 11028 H 1068.37 -2.97917 -0.930145 0
M  V30 11029 N 1068.67 0.153526 -1.5685 0
M  V30 11030 C 1069.89 0.886343 -1.87507 0
M  V30 11031 C 1070.32 1.74244 -0.708565 0
M  V30 11032 O 1069.67 1.78045 0.341997 0
M  V30 11033 C 1069.72 1.72428 -3.16703 0
M  V30 11034 O 1068.83 2.82784 -3.00178 0
M  V30 11035 H 1068.17 0.247259 -0.616246 0
M  V30 11036 H 1070.7 0.146306 -2.04076 0
M  V30 11037 H 1070.71 2.12062 -3.4856 0
M  V30 11038 H 1069.38 1.09558 -4.01211 0
M  V30 11039 H 1067.96 2.46604 -2.79716 0
M  V30 11040 N 1070.14 1.51827 0.422667 0
M  V30 11041 C 1071.08 1.68901 1.53453 0
M  V30 11042 C 1072.06 0.536549 1.53492 0
M  V30 11043 O 1073.24 0.762226 1.72402 0
M  V30 11044 C 1070.37 1.71599 2.92013 0
M  V30 11045 C 1069.41 2.92984 3.0994 0
M  V30 11046 S 1070.25 4.53559 2.84683 0
M  V30 11047 C 1071.4 4.59024 4.25498 0
M  V30 11048 H 1071.63 2.62943 1.38739 0
M  V30 11049 H 1069.17 1.41695 0.613347 0
M  V30 11050 H 1071.13 1.73838 3.71874 0
M  V30 11051 H 1069.79 0.787083 3.04079 0
M  V30 11052 H 1068.98 2.91315 4.1128 0
M  V30 11053 H 1068.58 2.88562 2.37924 0
M  V30 11054 H 1070.87 4.35567 5.18929 0
M  V30 11055 H 1071.82 5.60904 4.32195 0
M  V30 11056 H 1072.22 3.88193 4.09837 0
M  V30 11057 N 1071.62 -0.679052 1.4222 0
M  V30 11058 C 1072.87 -1.43912 1.42463 0
M  V30 11059 C 1073.2 -1.9446 0.0395574 0
M  V30 11060 O 1072.45 -1.71019 -0.951365 0
M  V30 11061 C 1072.75 -2.65528 2.39227 0
M  V30 11062 C 1072.42 -2.33545 3.85704 0
M  V30 11063 C 1071.08 -2.24534 4.25603 0
M  V30 11064 C 1073.43 -2.07496 4.78116 0
M  V30 11065 C 1070.76 -1.87592 5.55901 0
M  V30 11066 C 1073.11 -1.72059 6.08752 0
M  V30 11067 C 1071.78 -1.61555 6.47654 0
M  V30 11068 H 1071.05 -0.52661 0.521309 0
M  V30 11069 H 1073.69 -0.774661 1.75132 0
M  V30 11070 H 1072 -3.36985 1.9987 0
M  V30 11071 H 1073.69 -3.23702 2.36681 0
M  V30 11072 H 1070.28 -2.4146 3.54112 0
M  V30 11073 H 1074.47 -2.13393 4.48082 0
M  V30 11074 H 1069.72 -1.78026 5.84908 0
M  V30 11075 H 1073.9 -1.50926 6.79849 0
M  V30 11076 H 1071.53 -1.32699 7.48529 0
M  V30 11077 N 1073.1 -1.28322 -0.914942 0
M  V30 11078 C 1074.03 -1.06469 -2.01841 0
M  V30 11079 C 1075.01 0.0188681 -1.62589 0
M  V30 11080 O 1076.2 -0.128825 -1.88059 0
M  V30 11081 C 1073.32 -0.617685 -3.3302 0
M  V30 11082 C 1072.37 -1.6977 -3.91255 0
M  V30 11083 S 1073.2 -3.29337 -4.22253 0
M  V30 11084 C 1074.36 -2.86468 -5.56495 0
M  V30 11085 H 1074.59 -1.99893 -2.20068 0
M  V30 11086 H 1072.12 -1.12297 -1.05966 0
M  V30 11087 H 1074.08 -0.366481 -4.08861 0
M  V30 11088 H 1072.74 0.296709 -3.12695 0
M  V30 11089 H 1071.94 -1.33653 -4.85956 0
M  V30 11090 H 1071.54 -1.90164 -3.22046 0
M  V30 11091 H 1073.83 -2.32565 -6.36333 0
M  V30 11092 H 1074.77 -3.79962 -5.97523 0
M  V30 11093 H 1075.18 -2.2522 -5.17626 0
M  V30 11094 N 1074.58 1.12322 -1.10551 0
M  V30 11095 C 1075.53 2.18087 -0.755424 0
M  V30 11096 C 1076.5 1.6391 0.268805 0
M  V30 11097 O 1077.68 1.90227 0.147813 0
M  V30 11098 C 1074.82 3.4455 -0.194713 0
M  V30 11099 C 1073.93 4.12775 -1.27439 0
M  V30 11100 C 1073.07 5.26891 -0.675194 0
M  V30 11101 C 1072.11 5.86985 -1.73536 0
M  V30 11102 N 1071.24 6.92512 -1.15635 0
M  V30 11103 H 1076.08 2.47379 -1.66155 0
M  V30 11104 H 1073.62 1.21452 -0.829924 0
M  V30 11105 H 1075.58 4.16936 0.148275 0
M  V30 11106 H 1074.21 3.15671 0.674638 0
M  V30 11107 H 1073.26 3.38556 -1.73448 0
M  V30 11108 H 1074.57 4.53506 -2.07687 0
M  V30 11109 H 1073.73 6.06046 -0.281723 0
M  V30 11110 H 1072.47 4.87442 0.158708 0
M  V30 11111 H 1071.47 5.06517 -2.13825 0
M  V30 11112 H 1072.7 6.28505 -2.57213 0
M  V30 11113 H 1070.64 6.55098 -0.343928 0
M  V30 11114 H 1070.56 7.31848 -1.89565 0
M  V30 11115 H 1071.83 7.75492 -0.789463 0
M  V30 11116 N 1076.06 0.894434 1.2976 0
M  V30 11117 C 1077.31 0.513673 1.95049 0
M  V30 11118 C 1077.62 -0.943744 1.71327 0
M  V30 11119 O 1078.82 -1.43179 2.30678 0
M  V30 11120 C 1077.28 0.867751 3.49282 0
M  V30 11121 C 1076.89 2.34358 3.81812 0
M  V30 11122 C 1078.63 0.556645 4.20835 0
M  V30 11123 C 1076.54 2.63879 5.29265 0
M  V30 11124 H 1075.47 0.188375 0.73009 0
M  V30 11125 H 1078.12 1.09071 1.47566 0
M  V30 11126 H 1076.5 0.2197 3.9539 0
M  V30 11127 H 1077.68 3.03674 3.46581 0
M  V30 11128 H 1075.99 2.62318 3.23386 0
M  V30 11129 H 1078.59 0.754123 5.29355 0
M  V30 11130 H 1078.93 -0.504526 4.13231 0
M  V30 11131 H 1079.46 1.1623 3.80441 0
M  V30 11132 H 1076.2 3.68774 5.41928 0
M  V30 11133 H 1075.72 1.99182 5.65762 0
M  V30 11134 H 1077.4 2.49871 5.96803 0
M  V30 11135 N 1077.53 -1.43282 0.656365 0
M  V30 11136 C 1078.47 -2.29087 -0.0720378 0
M  V30 11137 C 1079.48 -1.4268 -0.783982 0
M  V30 11138 O 1080.67 -1.66585 -0.641213 0
M  V30 11139 C 1077.77 -3.19676 -1.12519 0
M  V30 11140 C 1076.94 -4.34638 -0.490756 0
M  V30 11141 C 1076 -5.06079 -1.44121 0
M  V30 11142 O 1075.03 -5.6124 -0.948595 0
M  V30 11143 N 1076.23 -5.09872 -2.77509 0
M  V30 11144 H 1078.99 -2.92241 0.664456 0
M  V30 11145 H 1076.55 -1.54006 0.499383 0
M  V30 11146 H 1078.55 -3.64334 -1.76189 0
M  V30 11147 H 1077.12 -2.581 -1.76362 0
M  V30 11148 H 1076.34 -3.92857 0.3251 0
M  V30 11149 H 1077.62 -5.08777 -0.0480061 0
M  V30 11150 H 1077.02 -4.66433 -3.20088 0
M  V30 11151 H 1075.58 -5.58237 -3.36474 0
M  V30 11152 N 1079.01 -0.398486 -1.52479 0
M  V30 11153 C 1079.94 0.423498 -2.29627 0
M  V30 11154 C 1080.92 1.05547 -1.33394 0
M  V30 11155 O 1082.11 1.0665 -1.62294 0
M  V30 11156 C 1079.24 1.54612 -3.10986 0
M  V30 11157 C 1078.19 1.03971 -4.15179 0
M  V30 11158 C 1077.52 2.25512 -4.84818 0
M  V30 11159 C 1078.82 0.10121 -5.22202 0
M  V30 11160 H 1080.51 -0.220222 -2.98589 0
M  V30 11161 H 1078.06 -0.107355 -1.43599 0
M  V30 11162 H 1080.01 2.12806 -3.63719 0
M  V30 11163 H 1078.74 2.21756 -2.39774 0
M  V30 11164 H 1077.4 0.480251 -3.63441 0
M  V30 11165 H 1077.04 2.91187 -4.10145 0
M  V30 11166 H 1076.74 1.92285 -5.55248 0
M  V30 11167 H 1078.27 2.84331 -5.40359 0
M  V30 11168 H 1079.68 0.591617 -5.70239 0
M  V30 11169 H 1078.08 -0.141737 -5.99933 0
M  V30 11170 H 1079.15 -0.847216 -4.77441 0
M  V30 11171 N 1080.49 1.57075 -0.12858 0
M  V30 11172 C 1081.9 1.82468 0.39526 0
M  V30 11173 C 1082.25 1.0463 1.65973 0
M  V30 11174 O 1081.38 0.285835 2.14504 0
M  V30 11175 C 1081.97 3.30976 0.723889 0
M  V30 11176 C 1080.53 3.57016 1.19232 0
M  V30 11177 C 1079.68 2.76534 0.205907 0
M  V30 11178 H 1082.63 1.54711 -0.353571 0
M  V30 11179 H 1082.65 3.46127 1.58039 0
M  V30 11180 H 1082.16 3.87602 -0.196595 0
M  V30 11181 H 1080.26 3.05758 2.12938 0
M  V30 11182 H 1080.38 4.65558 1.13103 0
M  V30 11183 H 1078.74 2.45038 0.694872 0
M  V30 11184 H 1079.52 3.35923 -0.707842 0
M  V30 11185 N 1081.97 -0.145205 1.5693 0
M  V30 11186 C 1083.22 -0.858786 1.83719 0
M  V30 11187 C 1083.55 -1.80738 0.710452 0
M  V30 11188 O 1082.82 -1.92389 -0.285791 0
M  V30 11189 C 1083.11 -1.6317 3.2101 0
M  V30 11190 C 1082.96 -0.704472 4.44249 0
M  V30 11191 C 1084.28 -2.59377 3.55544 0
M  V30 11192 H 1081.4 -0.310757 0.66828 0
M  V30 11193 H 1084.04 -0.123918 1.89595 0
M  V30 11194 H 1082.19 -2.25816 3.16132 0
M  V30 11195 H 1083.86 -0.08887 4.61214 0
M  V30 11196 H 1082.1 -0.0141693 4.33798 0
M  V30 11197 H 1082.78 -1.28135 5.36922 0
M  V30 11198 H 1085.25 -2.06848 3.61044 0
M  V30 11199 H 1084.13 -3.10506 4.52634 0
M  V30 11200 H 1084.39 -3.40819 2.81594 0
M  V30 11201 N 1083.45 -1.52049 -0.414609 0
M  V30 11202 C 1084.69 -1.66084 -1.16379 0
M  V30 11203 C 1085.03 -0.386932 -1.90306 0
M  V30 11204 O 1084.3 0.614441 -1.8454 0
M  V30 11205 C 1084.58 -2.87927 -2.16264 0
M  V30 11206 C 1084.44 -4.25353 -1.46269 0
M  V30 11207 C 1085.76 -3.05289 -3.16996 0
M  V30 11208 H 1082.88 -0.604414 -0.421726 0
M  V30 11209 H 1085.52 -1.8459 -0.450177 0
M  V30 11210 H 1083.67 -2.7228 -2.77121 0
M  V30 11211 H 1085.34 -4.52717 -0.885743 0
M  V30 11212 H 1083.58 -4.27006 -0.76472 0
M  V30 11213 H 1084.25 -5.06644 -2.19126 0
M  V30 11214 H 1086.73 -3.19798 -2.66212 0
M  V30 11215 H 1085.61 -3.92065 -3.84156 0
M  V30 11216 H 1085.87 -2.1836 -3.84411 0
M  V30 11217 N 1084.93 0.6715 -1.42579 0
M  V30 11218 C 1085.86 1.79625 -1.40749 0
M  V30 11219 C 1086.84 1.6032 -0.271312 0
M  V30 11220 O 1088.02 1.82749 -0.46205 0
M  V30 11221 C 1085.15 3.16672 -1.20153 0
M  V30 11222 C 1084.19 3.54718 -2.36807 0
M  V30 11223 S 1085.03 3.56771 -3.99343 0
M  V30 11224 C 1086.18 4.96505 -3.81095 0
M  V30 11225 H 1086.42 1.80903 -2.35926 0
M  V30 11226 H 1083.95 0.842469 -1.2939 0
M  V30 11227 H 1085.91 3.95776 -1.08956 0
M  V30 11228 H 1084.57 3.12976 -0.265545 0
M  V30 11229 H 1083.76 4.54341 -2.18152 0
M  V30 11230 H 1083.36 2.82982 -2.44535 0
M  V30 11231 H 1085.65 5.84674 -3.4229 0
M  V30 11232 H 1086.6 5.20207 -4.80406 0
M  V30 11233 H 1087.01 4.69178 -3.13898 0
M  V30 11234 N 1086.4 1.28806 0.908124 0
M  V30 11235 C 1087.35 1.09849 1.99793 0
M  V30 11236 C 1088.34 0.0204321 1.60887 0
M  V30 11237 O 1089.53 0.241204 1.75349 0
M  V30 11238 C 1086.66 0.768263 3.34593 0
M  V30 11239 C 1085.74 1.88544 3.79884 0
M  V30 11240 N 1086.14 3.12784 3.97492 0
M  V30 11241 C 1084.43 1.77657 4.09089 0
M  V30 11242 C 1085.13 3.85615 4.35518 0
M  V30 11243 N 1084.11 3.13501 4.44092 0
M  V30 11244 H 1087.91 2.04108 2.11464 0
M  V30 11245 H 1085.43 1.19807 1.09636 0
M  V30 11246 H 1087.42 0.613521 4.12361 0
M  V30 11247 H 1086.08 -0.166501 3.24273 0
M  V30 11248 H 1087.09 3.48333 3.83255 0
M  V30 11249 H 1083.77 0.913956 4.07373 0
M  V30 11250 H 1085.16 4.92492 4.57057 0
M  V30 11251 N 1087.88 -1.11734 1.11145 0
M  V30 11252 C 1089.11 -1.87215 0.880811 0
M  V30 11253 C 1089.52 -1.80016 -0.569195 0
M  V30 11254 O 1088.88 -1.17926 -1.39283 0
M  V30 11255 C 1088.93 -3.36146 1.32998 0
M  V30 11256 O 1088.65 -3.43187 2.72313 0
M  V30 11257 C 1090.15 -4.28542 1.1343 0
M  V30 11258 H 1087.37 -0.592123 0.315645 0
M  V30 11259 H 1089.92 -1.41335 1.478 0
M  V30 11260 H 1088.07 -3.79542 0.776308 0
M  V30 11261 H 1088.49 -4.359 2.91705 0
M  V30 11262 H 1089.96 -5.31295 1.49764 0
M  V30 11263 H 1090.44 -4.39138 0.0735859 0
M  V30 11264 H 1091.04 -3.90935 1.67481 0
M  V30 11265 N 1089.36 -0.901303 -1.29284 0
M  V30 11266 C 1090.27 -0.3849 -2.31421 0
M  V30 11267 C 1091.29 0.521163 -1.66012 0
M  V30 11268 O 1092.46 0.410356 -1.97175 0
M  V30 11269 C 1089.53 0.377804 -3.44635 0
M  V30 11270 C 1088.59 -0.559974 -4.25632 0
M  V30 11271 C 1087.82 0.166425 -5.3344 0
M  V30 11272 O 1088.04 1.39012 -5.53202 0
M  V30 11273 O 1086.98 -0.491875 -5.99887 0
M  V30 11274 H 1090.8 -1.2323 -2.77575 0
M  V30 11275 H 1088.39 -0.665683 -1.3375 0
M  V30 11276 H 1090.27 0.809041 -4.13561 0
M  V30 11277 H 1088.95 1.20124 -3.00586 0
M  V30 11278 H 1087.85 -1.04036 -3.59343 0
M  V30 11279 H 1089.19 -1.34987 -4.73328 0
M  V30 11280 N 1090.84 1.42931 -0.663954 0
M  V30 11281 C 1091.8 2.29197 0.0117626 0
M  V30 11282 C 1092.8 1.42767 0.739875 0
M  V30 11283 O 1093.99 1.64278 0.579509 0
M  V30 11284 C 1091.12 3.2505 1.02738 0
M  V30 11285 H 1092.32 2.90438 -0.747391 0
M  V30 11286 H 1089.87 1.5039 -0.425733 0
M  V30 11287 H 1090.6 2.68726 1.8154 0
M  V30 11288 H 1090.39 3.88785 0.508809 0
M  V30 11289 H 1091.88 3.89771 1.49893 0
M  V30 11290 N 1092.32 0.406567 1.52266 0
M  V30 11291 C 1093.23 -0.4271 2.30679 0
M  V30 11292 C 1094.24 -1.0559 1.383 0
M  V30 11293 O 1095.42 -1.05797 1.71374 0
M  V30 11294 C 1092.48 -1.53008 3.1111 0
M  V30 11295 C 1091.54 -0.924604 4.19225 0
M  V30 11296 C 1090.78 -1.97502 4.95811 0
M  V30 11297 O 1091 -3.19277 4.72671 0
M  V30 11298 O 1089.93 -1.58268 5.80719 0
M  V30 11299 H 1093.76 0.212187 3.02958 0
M  V30 11300 H 1091.34 0.169835 1.48432 0
M  V30 11301 H 1093.23 -2.17046 3.61205 0
M  V30 11302 H 1091.9 -2.15401 2.41628 0
M  V30 11303 H 1090.81 -0.247009 3.73284 0
M  V30 11304 H 1092.14 -0.34463 4.90992 0
M  V30 11305 N 1093.79 -1.57004 0.136909 0
M  V30 11306 C 1095.07 -1.87375 -0.561233 0
M  V30 11307 C 1095.45 -1.04117 -1.83638 0
M  V30 11308 O 1094.8 -0.125103 -2.28157 0
M  V30 11309 C 1095.01 -3.38829 -0.836426 0
M  V30 11310 C 1096.36 -4.07826 -1.18164 0
M  V30 11311 O 1097.38 -3.4395 -0.92611 0
M  V30 11312 O 1096.24 -5.20614 -1.66204 0
M  V30 11313 H 1093.33 -0.776287 -0.285145 0
M  V30 11314 H 1095.88 -1.68818 0.172761 0
M  V30 11315 H 1094.65 -3.91244 0.066442 0
M  V30 11316 H 1094.28 -3.62879 -1.62496 0
M  V30 11317 N 1095.27 0.136881 -1.57004 0
M  V30 11318 C 1096.52 0.849031 -1.84172 0
M  V30 11319 C 1096.85 1.80359 -0.720027 0
M  V30 11320 O 1096.13 1.92538 0.275584 0
M  V30 11321 C 1096.41 1.61465 -3.21871 0
M  V30 11322 C 1096.26 0.680902 -4.44616 0
M  V30 11323 C 1097.58 2.57488 -3.56914 0
M  V30 11324 H 1094.7 0.307209 -0.669919 0
M  V30 11325 H 1097.34 0.113862 -1.89659 0
M  V30 11326 H 1095.49 2.24137 -3.17325 0
M  V30 11327 H 1097.16 0.0644094 -4.61255 0
M  V30 11328 H 1095.41 -0.00883629 -4.33799 0
M  V30 11329 H 1096.08 1.25286 -5.37594 0
M  V30 11330 H 1098.55 2.0493 -3.62136 0
M  V30 11331 H 1097.43 3.08101 -4.54274 0
M  V30 11332 H 1097.69 3.39321 -2.83397 0
M  V30 11333 N 1096.75 1.52266 0.40654 0
M  V30 11334 C 1097.98 1.70598 1.17945 0
M  V30 11335 C 1098.4 0.415793 1.83447 0
M  V30 11336 O 1097.76 -0.626968 1.70114 0
M  V30 11337 C 1097.81 2.84449 2.21633 0
M  V30 11338 O 1096.91 2.50199 3.27833 0
M  V30 11339 H 1096.25 0.567837 0.344177 0
M  V30 11340 H 1098.78 1.98981 0.476211 0
M  V30 11341 H 1098.79 3.09436 2.65919 0
M  V30 11342 H 1097.47 3.78055 1.73341 0
M  V30 11343 H 1096.04 2.35892 2.88807 0
M  V30 11344 N 1098.23 -0.663929 1.42933 0
M  V30 11345 C 1099.16 -1.78899 1.50058 0
M  V30 11346 C 1100.14 -1.66329 0.356164 0
M  V30 11347 O 1101.32 -1.85587 0.571944 0
M  V30 11348 C 1098.45 -3.17265 1.41281 0
M  V30 11349 C 1097.41 -3.44584 2.53861 0
M  V30 11350 C 1096.73 -4.82638 2.3014 0
M  V30 11351 C 1098.03 -3.40394 3.96143 0
M  V30 11352 H 1099.73 -1.73194 2.44222 0
M  V30 11353 H 1097.27 -0.83182 1.17545 0
M  V30 11354 H 1099.23 -3.95715 1.44872 0
M  V30 11355 H 1097.95 -3.23675 0.43616 0
M  V30 11356 H 1096.61 -2.685 2.49606 0
M  V30 11357 H 1096.26 -4.85711 1.30743 0
M  V30 11358 H 1095.96 -5.01879 3.056 0
M  V30 11359 H 1097.48 -5.63359 2.35497 0
M  V30 11360 H 1098.9 -4.08796 4.01943 0
M  V30 11361 H 1097.29 -3.7117 4.71543 0
M  V30 11362 H 1098.36 -2.38767 4.22041 0
M  V30 11363 N 1099.71 -1.29285 -0.901281 0
M  V30 11364 C 1101.12 -1.07263 -1.18182 0
M  V30 11365 C 1101.32 0.177087 -2.0072 0
M  V30 11366 O 1100.38 0.875292 -2.36844 0
M  V30 11367 C 1101.69 -2.32717 -1.9043 0
M  V30 11368 C 1103.24 -2.3802 -2.03262 0
M  V30 11369 C 1103.71 -3.63273 -2.7892 0
M  V30 11370 N 1105.21 -3.63986 -2.86475 0
M  V30 11371 C 1105.94 -4.57585 -3.45549 0
M  V30 11372 N 1105.44 -5.61513 -4.05801 0
M  V30 11373 N 1107.23 -4.45157 -3.43208 0
M  V30 11374 H 1099.38 -2.09487 -0.350536 0
M  V30 11375 H 1101.64 -0.922647 -0.217778 0
M  V30 11376 H 1101.35 -3.23828 -1.37216 0
M  V30 11377 H 1101.22 -2.40102 -2.90913 0
M  V30 11378 H 1103.61 -1.47398 -2.55652 0
M  V30 11379 H 1103.69 -2.3462 -1.01916 0
M  V30 11380 H 1103.34 -4.54246 -2.27206 0
M  V30 11381 H 1103.27 -3.6393 -3.80608 0
M  V30 11382 H 1105.76 -2.8884 -2.43679 0
M  V30 11383 H 1106.07 -6.29058 -4.48894 0
M  V30 11384 H 1104.41 -5.65325 -4.04268 0
M  V30 11385 H 1107.61 -3.63158 -2.95354 0
M  V30 11386 H 1107.78 -5.18286 -3.88952 0
M  V30 11387 N 1101.18 1.11143 -1.11736 0
M  V30 11388 C 1102.43 1.82948 -0.868127 0
M  V30 11389 C 1102.76 1.84813 0.606182 0
M  V30 11390 O 1102.01 1.29901 1.4637 0
M  V30 11391 C 1102.31 3.29733 -1.3788 0
M  V30 11392 C 1101.98 3.48025 -2.86687 0
M  V30 11393 C 1100.64 3.52725 -3.2732 0
M  V30 11394 C 1102.99 3.54024 -3.82513 0
M  V30 11395 C 1100.32 3.60983 -4.62502 0
M  V30 11396 C 1102.67 3.63814 -5.17515 0
M  V30 11397 C 1101.34 3.66776 -5.57702 0
M  V30 11398 H 1100.61 0.669452 -0.31767 0
M  V30 11399 H 1103.25 1.31057 -1.3963 0
M  V30 11400 H 1101.56 3.8414 -0.77093 0
M  V30 11401 H 1103.26 3.83787 -1.16225 0
M  V30 11402 H 1099.85 3.45039 -2.54256 0
M  V30 11403 H 1104.03 3.4965 -3.52219 0
M  V30 11404 H 1099.29 3.61554 -4.9304 0
M  V30 11405 H 1103.46 3.674 -5.916 0
M  V30 11406 H 1101.09 3.72927 -6.62442 0
M  V30 11407 N 1102.66 0.908147 1.28804 0
M  V30 11408 C 1104.08 0.605474 1.47669 0
M  V30 11409 C 1104.28 -0.850759 1.82659 0
M  V30 11410 O 1103.33 -1.63029 1.92816 0
M  V30 11411 C 1104.65 1.53856 2.58358 0
M  V30 11412 C 1106.2 1.54467 2.7223 0
M  V30 11413 C 1106.67 2.46424 3.86056 0
M  V30 11414 N 1108.16 2.44519 3.93402 0
M  V30 11415 C 1108.9 3.12371 4.80845 0
M  V30 11416 N 1108.39 3.89533 5.72919 0
M  V30 11417 N 1110.19 3.01486 4.74407 0
M  V30 11418 H 1102.34 1.84988 1.04371 0
M  V30 11419 H 1104.6 0.793132 0.519274 0
M  V30 11420 H 1104.31 2.57651 2.39393 0
M  V30 11421 H 1104.18 1.26543 3.5534 0
M  V30 11422 H 1106.57 0.514127 2.90587 0
M  V30 11423 H 1106.65 1.85821 1.75796 0
M  V30 11424 H 1106.29 3.49577 3.68454 0
M  V30 11425 H 1106.22 2.12375 4.81876 0
M  V30 11426 H 1108.71 1.88464 3.27551 0
M  V30 11427 H 1109.03 4.3834 6.36457 0
M  V30 11428 H 1107.37 3.93639 5.72777 0
M  V30 11429 H 1110.56 2.40713 4.01466 0
M  V30 11430 H 1110.73 3.5464 5.42342 0
M  V30 11431 N 1104.14 -1.42577 0.671525 0
M  V30 11432 C 1105.37 -2.06442 0.199152 0
M  V30 11433 C 1105.79 -1.50104 -1.1336 0
M  V30 11434 O 1105.15 -0.618211 -1.70434 0
M  V30 11435 C 1105.2 -3.60323 0.141215 0
M  V30 11436 O 1104.3 -4.02655 -0.891238 0
M  V30 11437 H 1103.64 -0.655919 0.103277 0
M  V30 11438 H 1106.17 -1.82768 0.919614 0
M  V30 11439 H 1106.18 -4.07984 -0.0360209 0
M  V30 11440 H 1104.86 -4.00702 1.11403 0
M  V30 11441 H 1103.43 -3.66549 -0.685309 0
M  V30 11442 N 1105.62 -0.414636 -1.52048 0
M  V30 11443 C 1106.55 0.443601 -2.24866 0
M  V30 11444 C 1107.56 1.00556 -1.28032 0
M  V30 11445 O 1108.75 0.903566 -1.53941 0
M  V30 11446 C 1105.85 1.63004 -2.97124 0
M  V30 11447 C 1105.03 1.191 -4.20873 0
M  V30 11448 C 1104.08 2.24497 -4.75907 0
M  V30 11449 O 1103.11 1.84861 -5.38345 0
M  V30 11450 N 1104.31 3.56727 -4.57959 0
M  V30 11451 H 1107.08 -0.180393 -2.99157 0
M  V30 11452 H 1104.64 -0.242305 -1.60077 0
M  V30 11453 H 1106.63 2.33089 -3.30835 0
M  V30 11454 H 1105.2 2.15984 -2.25986 0
M  V30 11455 H 1104.42 0.318059 -3.92915 0
M  V30 11456 H 1105.71 0.874699 -5.01225 0
M  V30 11457 H 1105.11 3.91675 -4.08175 0
M  V30 11458 H 1103.66 4.22772 -4.96092 0
M  V30 11459 N 1107.1 1.56929 -0.145233 0
M  V30 11460 C 1108.51 1.58196 0.211194 0
M  V30 11461 C 1108.71 1.15941 1.64803 0
M  V30 11462 O 1107.77 0.858888 2.37443 0
M  V30 11463 C 1109.08 3.00665 -0.0459569 0
M  V30 11464 C 1110.63 3.12995 0.0178913 0
M  V30 11465 C 1111.1 4.5751 -0.211905 0
M  V30 11466 N 1112.6 4.62928 -0.158772 0
M  V30 11467 C 1113.33 5.72555 -0.311111 0
M  V30 11468 N 1112.83 6.90838 -0.521074 0
M  V30 11469 N 1114.62 5.61549 -0.248838 0
M  V30 11470 H 1106.77 1.8269 -1.08342 0
M  V30 11471 H 1109.03 0.845514 -0.428731 0
M  V30 11472 H 1108.74 3.35962 -1.0403 0
M  V30 11473 H 1108.61 3.71125 0.674246 0
M  V30 11474 H 1111 2.7754 1.00278 0
M  V30 11475 H 1111.08 2.45025 -0.734612 0
M  V30 11476 H 1110.73 4.93669 -1.19389 0
M  V30 11477 H 1110.66 5.23604 0.560901 0
M  V30 11478 H 1113.15 3.779 -0.00107283 0
M  V30 11479 H 1113.46 7.70248 -0.62747 0
M  V30 11480 H 1111.8 6.92761 -0.557374 0
M  V30 11481 H 1115 4.68022 -0.0855821 0
M  V30 11482 H 1115.17 6.46937 -0.370997 0
M  V30 11483 N 1108.58 -0.128553 1.57075 0
M  V30 11484 C 1109.54 -1.14215 1.98715 0
M  V30 11485 C 1110.54 -1.34843 0.876019 0
M  V30 11486 O 1111.73 -1.31522 1.14227 0
M  V30 11487 C 1108.86 -2.49865 2.31905 0
M  V30 11488 H 1110.05 -0.784481 2.89458 0
M  V30 11489 H 1107.61 -0.372531 1.51796 0
M  V30 11490 H 1108.34 -2.9057 1.44012 0
M  V30 11491 H 1108.13 -2.3625 3.12935 0
M  V30 11492 H 1109.62 -3.22832 2.64895 0
M  V30 11493 N 1110.05 -1.5248 -0.398459 0
M  V30 11494 C 1111.28 -1.70677 -1.16417 0
M  V30 11495 C 1111.69 -0.420629 -1.84465 0
M  V30 11496 O 1111.03 0.614013 -1.73135 0
M  V30 11497 C 1111.1 -2.79401 -2.2622 0
M  V30 11498 C 1110.76 -4.20817 -1.78218 0
M  V30 11499 C 1111.76 -5.04298 -1.26409 0
M  V30 11500 C 1109.44 -4.67098 -1.84728 0
M  V30 11501 C 1111.44 -6.32136 -0.817461 0
M  V30 11502 C 1109.12 -5.94923 -1.39676 0
M  V30 11503 C 1110.12 -6.77272 -0.882716 0
M  V30 11504 O 1109.81 -8.02702 -0.438739 0
M  V30 11505 H 1109.54 -0.57503 -0.355411 0
M  V30 11506 H 1112.1 -1.99868 -0.473471 0
M  V30 11507 H 1110.33 -2.4561 -2.98685 0
M  V30 11508 H 1112.01 -2.86093 -2.87933 0
M  V30 11509 H 1112.78 -4.6973 -1.20744 0
M  V30 11510 H 1108.66 -4.03097 -2.23682 0
M  V30 11511 H 1112.2 -6.96361 -0.415548 0
M  V30 11512 H 1108.1 -6.28998 -1.45024 0
M  V30 11513 H 1108.87 -8.16575 -0.561079 0
M  V30 11514 N 1111.53 0.65634 -1.43283 0
M  V30 11515 C 1112.78 1.41347 -1.44449 0
M  V30 11516 C 1113.1 1.94879 -0.0687217 0
M  V30 11517 O 1112.37 1.74235 0.895492 0
M  V30 11518 H 1110.95 0.524578 -0.531815 0
M  V30 11519 H 1113.61 0.774292 -1.7886 0
M  V30 11520 H 1112.71 2.25737 -2.15521 0
M  V30 11521 N 1113.01 1.29761 0.894412 0
M  V30 11522 C 1114.26 1.17409 1.64006 0
M  V30 11523 C 1114.57 -0.272355 1.93695 0
M  V30 11524 O 1115.78 -0.517269 2.66527 0
M  V30 11525 C 1114.23 2.05379 2.95546 0
M  V30 11526 C 1113.84 3.54878 2.73433 0
M  V30 11527 C 1115.59 2.01765 3.73485 0
M  V30 11528 C 1113.49 4.34935 4.00731 0
M  V30 11529 H 1112.42 0.43583 0.615279 0
M  V30 11530 H 1115.07 1.5444 0.990983 0
M  V30 11531 H 1113.46 1.61222 3.61695 0
M  V30 11532 H 1114.63 4.07122 2.15844 0
M  V30 11533 H 1112.94 3.60218 2.08882 0
M  V30 11534 H 1115.54 2.58835 4.67877 0
M  V30 11535 H 1115.88 0.998876 4.04139 0
M  V30 11536 H 1116.42 2.43994 3.14184 0
M  V30 11537 H 1113.16 5.3747 3.75241 0
M  V30 11538 H 1112.68 3.87458 4.5786 0
M  V30 11539 H 1114.36 4.45875 4.68833 0
M  V30 11540 N 1114.49 -1.10549 1.12324 0
M  V30 11541 C 1115.42 -2.18911 0.812416 0
M  V30 11542 C 1116.4 -1.68628 -0.22327 0
M  V30 11543 O 1117.58 -1.94015 -0.0847184 0
M  V30 11544 C 1114.71 -3.46288 0.264947 0
M  V30 11545 C 1113.67 -4.09838 1.23356 0
M  V30 11546 C 1112.99 -5.31901 0.546374 0
M  V30 11547 C 1114.29 -4.53686 2.58778 0
M  V30 11548 H 1115.99 -2.45169 1.71851 0
M  V30 11549 H 1113.53 -1.17834 0.827715 0
M  V30 11550 H 1115.49 -4.21385 0.0352364 0
M  V30 11551 H 1114.21 -3.19517 -0.676479 0
M  V30 11552 H 1112.87 -3.36746 1.44906 0
M  V30 11553 H 1112.52 -5.01406 -0.400157 0
M  V30 11554 H 1112.22 -5.75372 1.19249 0
M  V30 11555 H 1113.74 -6.09731 0.325673 0
M  V30 11556 H 1115.16 -5.20063 2.41263 0
M  V30 11557 H 1113.55 -5.08003 3.19457 0
M  V30 11558 H 1114.62 -3.66665 3.17309 0
M  V30 11559 N 1115.97 -0.914965 -1.28321 0
M  V30 11560 C 1116.9 -0.348729 -2.2552 0
M  V30 11561 C 1117.88 0.547737 -1.53097 0
M  V30 11562 O 1119.06 0.491119 -1.8199 0
M  V30 11563 C 1116.19 0.501397 -3.34968 0
M  V30 11564 C 1115.23 -0.329859 -4.25223 0
M  V30 11565 S 1116.07 -1.73737 -5.06533 0
M  V30 11566 C 1117.22 -0.89458 -6.19474 0
M  V30 11567 H 1117.46 -1.17256 -2.732 0
M  V30 11568 H 1114.99 -0.716297 -1.36779 0
M  V30 11569 H 1116.95 0.986061 -3.98481 0
M  V30 11570 H 1115.61 1.29962 -2.85952 0
M  V30 11571 H 1114.8 0.320236 -5.02982 0
M  V30 11572 H 1114.4 -0.748221 -3.66439 0
M  V30 11573 H 1116.69 -0.124776 -6.77385 0
M  V30 11574 H 1117.64 -1.64475 -6.88733 0
M  V30 11575 H 1118.05 -0.442217 -5.62765 0
M  V30 11576 N 1117.44 1.42219 -0.679077 0
M  V30 11577 C 1118.41 2.29197 -0.0125475 0
M  V30 11578 C 1119.41 1.43544 0.724691 0
M  V30 11579 O 1120.6 1.64884 0.562052 0
M  V30 11580 C 1117.73 3.26122 0.992846 0
M  V30 11581 H 1118.92 2.89629 -0.778154 0
M  V30 11582 H 1116.47 1.4993 -0.44166 0
M  V30 11583 H 1117.21 2.70637 1.78679 0
M  V30 11584 H 1116.99 3.89302 0.467544 0
M  V30 11585 H 1118.48 3.91339 1.45751 0
M  V30 11586 N 1118.92 0.422693 1.51826 0
M  V30 11587 C 1120.15 -0.147744 2.06372 0
M  V30 11588 C 1120.56 -1.37714 1.29152 0
M  V30 11589 O 1119.92 -1.7917 0.347046 0
M  V30 11590 C 1119.97 -0.484642 3.58237 0
M  V30 11591 O 1119.69 0.695944 4.32537 0
M  V30 11592 C 1121.19 -1.10734 4.29247 0
M  V30 11593 H 1118.41 -0.0144047 0.670845 0
M  V30 11594 H 1120.96 0.597558 1.95575 0
M  V30 11595 H 1119.11 -1.17984 3.68997 0
M  V30 11596 H 1119.53 0.411471 5.22884 0
M  V30 11597 H 1121 -1.29318 5.36639 0
M  V30 11598 H 1121.48 -2.08429 3.86593 0
M  V30 11599 H 1122.08 -0.451958 4.22892 0
M  V30 11600 N 1120.4 -1.5685 0.153553 0
M  V30 11601 C 1121.63 -2.00701 -0.502678 0
M  V30 11602 C 1122.04 -1.0337 -1.57988 0
M  V30 11603 O 1121.4 -0.0317233 -1.82472 0
M  V30 11604 C 1121.45 -3.44443 -1.09732 0
M  V30 11605 O 1121.17 -4.38054 -0.0631405 0
M  V30 11606 C 1122.67 -4.03605 -1.83352 0
M  V30 11607 H 1119.89 -0.658229 -0.130289 0
M  V30 11608 H 1122.44 -2.02965 0.250063 0
M  V30 11609 H 1120.59 -3.43009 -1.80065 0
M  V30 11610 H 1121.01 -5.22114 -0.499681 0
M  V30 11611 H 1122.48 -5.0616 -2.20241 0
M  V30 11612 H 1122.96 -3.44687 -2.7219 0
M  V30 11613 H 1123.56 -4.08688 -1.17703 0
M  V30 11614 N 1121.88 0.120221 -1.57141 0
M  V30 11615 C 1123.1 0.84637 -1.89344 0
M  V30 11616 C 1123.53 1.72702 -0.745365 0
M  V30 11617 O 1122.89 1.7873 0.304155 0
M  V30 11618 C 1122.93 1.65671 -3.20289 0
M  V30 11619 O 1122.04 2.76353 -3.06109 0
M  V30 11620 H 1121.38 0.234132 -0.621352 0
M  V30 11621 H 1123.91 0.102986 -2.04341 0
M  V30 11622 H 1123.92 2.04621 -3.52979 0
M  V30 11623 H 1122.59 1.01023 -4.03444 0
M  V30 11624 H 1121.17 2.40615 -2.84884 0
M  V30 11625 N 1123.36 1.52689 0.390367 0
M  V30 11626 C 1124.77 1.41909 0.730338 0
M  V30 11627 C 1124.97 0.538427 1.94173 0
M  V30 11628 O 1124.03 0.0113527 2.52497 0
M  V30 11629 C 1125.34 2.84737 0.966714 0
M  V30 11630 C 1126.89 2.94206 1.06827 0
M  V30 11631 C 1127.36 4.38042 1.33728 0
M  V30 11632 N 1128.86 4.4136 1.40553 0
M  V30 11633 C 1129.59 5.49735 1.63031 0
M  V30 11634 N 1129.09 6.68197 1.82988 0
M  V30 11635 N 1130.88 5.37276 1.65199 0
M  V30 11636 H 1123.03 2.08469 -0.406766 0
M  V30 11637 H 1125.29 0.940401 -0.11979 0
M  V30 11638 H 1125 3.51385 0.148725 0
M  V30 11639 H 1124.87 3.26909 1.88176 0
M  V30 11640 H 1127.26 2.27726 1.87683 0
M  V30 11641 H 1127.34 2.55463 0.131168 0
M  V30 11642 H 1126.99 5.05087 0.533832 0
M  V30 11643 H 1126.92 4.74336 2.28721 0
M  V30 11644 H 1129.41 3.55976 1.26844 0
M  V30 11645 H 1129.72 7.46567 1.99643 0
M  V30 11646 H 1128.06 6.71228 1.80215 0
M  V30 11647 H 1131.26 4.437 1.49158 0
M  V30 11648 H 1131.43 6.21806 1.82377 0
M  V30 11649 N 1124.83 -0.648732 1.43629 0
M  V30 11650 C 1126.11 -1.4062 1.35961 0
M  V30 11651 C 1126.49 -2.11098 0.00961023 0
M  V30 11652 O 1125.84 -2.05107 -1.00714 0
M  V30 11653 C 1126.05 -2.38719 2.54586 0
M  V30 11654 C 1127.4 -3.02584 2.97873 0
M  V30 11655 O 1128.42 -2.49046 2.54665 0
M  V30 11656 O 1127.28 -3.99662 3.72736 0
M  V30 11657 H 1124.37 -0.628483 0.53753 0
M  V30 11658 H 1126.92 -0.675263 1.55687 0
M  V30 11659 H 1125.69 -1.85619 3.44472 0
M  V30 11660 H 1125.32 -3.19257 2.36983 0
M  V30 11661 N 1126.31 -1.30234 -0.887518 0
M  V30 11662 C 1127.54 -1.21955 -1.67755 0
M  V30 11663 C 1127.96 0.214701 -1.86871 0
M  V30 11664 O 1127.32 1.15459 -1.39782 0
M  V30 11665 C 1127.37 -1.95079 -3.03276 0
M  V30 11666 O 1126.47 -1.27615 -3.92158 0
M  V30 11667 H 1125.81 -0.421948 -0.512695 0
M  V30 11668 H 1128.34 -1.72011 -1.10785 0
M  V30 11669 H 1128.35 -2.04004 -3.53336 0
M  V30 11670 H 1127.03 -2.99392 -2.88682 0
M  V30 11671 H 1125.61 -1.27029 -3.50597 0
M  V30 11672 N 1127.79 1.09952 -1.12909 0
M  V30 11673 C 1128.75 2.14615 -0.804548 0
M  V30 11674 C 1129.75 1.5975 0.18345 0
M  V30 11675 O 1130.94 1.74147 -0.0429623 0
M  V30 11676 C 1128.08 3.40333 -0.196471 0
M  V30 11677 H 1129.27 2.44835 -1.73193 0
M  V30 11678 H 1126.82 1.25399 -0.932997 0
M  V30 11679 H 1127.56 3.15735 0.740388 0
M  V30 11680 H 1127.34 3.81444 -0.907886 0
M  V30 11681 H 1128.83 4.17598 0.0139264 0
M  V30 11682 N 1129.27 0.921757 1.27833 0
M  V30 11683 C 1130.55 0.477706 1.89677 0
M  V30 11684 C 1130.93 -1.04392 1.83481 0
M  V30 11685 O 1130.27 -1.89549 1.27606 0
M  V30 11686 C 1130.48 1.01709 3.33851 0
M  V30 11687 C 1131.83 1.074 4.10792 0
M  V30 11688 O 1132.86 0.966295 3.42843 0
M  V30 11689 O 1131.71 1.23909 5.32268 0
M  V30 11690 H 1128.81 0.15271 0.812778 0
M  V30 11691 H 1131.35 1.01306 1.36144 0
M  V30 11692 H 1130.13 2.061 3.32623 0
M  V30 11693 H 1129.75 0.463031 3.94895 0
M  V30 11694 N 1130.75 -1.41857 0.686609 0
M  V30 11695 C 1131.97 -2.05699 0.222561 0
M  V30 11696 C 1132.39 -1.51636 -1.12481 0
M  V30 11697 O 1131.75 -0.660925 -1.70112 0
M  V30 11698 C 1131.8 -3.61138 0.161818 0
M  V30 11699 O 1131.52 -4.13199 1.45596 0
M  V30 11700 C 1133.02 -4.42112 -0.324304 0
M  V30 11701 H 1130.24 -0.662665 0.10543 0
M  V30 11702 H 1132.78 -1.81788 0.936671 0
M  V30 11703 H 1130.94 -3.8412 -0.503056 0
M  V30 11704 H 1131.35 -5.0717 1.33712 0
M  V30 11705 H 1132.83 -5.51097 -0.315694 0
M  V30 11706 H 1133.3 -4.1756 -1.36164 0
M  V30 11707 H 1133.91 -4.24174 0.309251 0
M  V30 11708 N 1132.22 -0.430739 -1.51599 0
M  V30 11709 C 1133.15 0.374695 -2.30474 0
M  V30 11710 C 1134.14 1.02694 -1.35602 0
M  V30 11711 O 1135.32 1.03184 -1.6452 0
M  V30 11712 C 1132.45 1.47981 -3.14196 0
M  V30 11713 C 1131.4 0.951415 -4.17291 0
M  V30 11714 C 1130.73 2.15177 -4.89492 0
M  V30 11715 C 1132.03 -0.00957951 -5.22299 0
M  V30 11716 H 1133.72 -0.283508 -2.98055 0
M  V30 11717 H 1131.27 -0.13779 -1.43339 0
M  V30 11718 H 1133.22 2.05043 -3.68151 0
M  V30 11719 H 1131.95 2.16621 -2.44424 0
M  V30 11720 H 1130.61 0.403052 -3.64378 0
M  V30 11721 H 1130.25 2.82421 -4.1623 0
M  V30 11722 H 1129.95 1.80464 -5.59202 0
M  V30 11723 H 1131.48 2.72806 -5.46269 0
M  V30 11724 H 1132.89 0.470527 -5.71366 0
M  V30 11725 H 1131.29 -0.268959 -5.99497 0
M  V30 11726 H 1132.36 -0.948297 -4.75537 0
M  V30 11727 N 1133.7 1.56767 -0.161869 0
M  V30 11728 C 1135.12 1.58412 0.194403 0
M  V30 11729 C 1135.32 1.17682 1.63564 0
M  V30 11730 O 1134.37 0.884024 2.36519 0
M  V30 11731 C 1135.69 3.00599 -0.0778438 0
M  V30 11732 C 1137.24 3.12996 -0.015307 0
M  V30 11733 C 1137.71 4.57259 -0.260418 0
M  V30 11734 N 1139.2 4.62733 -0.207863 0
M  V30 11735 C 1139.94 5.72193 -0.371821 0
M  V30 11736 N 1139.43 6.90246 -0.594318 0
M  V30 11737 N 1141.23 5.61253 -0.308384 0
M  V30 11738 H 1133.38 1.81531 -1.10274 0
M  V30 11739 H 1135.64 0.840919 -0.437675 0
M  V30 11740 H 1135.35 3.3484 -1.07587 0
M  V30 11741 H 1135.22 3.71819 0.634845 0
M  V30 11742 H 1137.61 2.78588 0.97329 0
M  V30 11743 H 1137.69 2.44232 -0.760559 0
M  V30 11744 H 1137.33 4.92375 -1.24618 0
M  V30 11745 H 1137.26 5.2417 0.505334 0
M  V30 11746 H 1139.75 3.77878 -0.0411541 0
M  V30 11747 H 1140.07 7.6954 -0.70913 0
M  V30 11748 H 1138.41 6.92131 -0.630819 0
M  V30 11749 H 1141.6 4.67905 -0.135217 0
M  V30 11750 H 1141.77 6.46507 -0.439592 0
M  V30 11751 N 1135.18 -0.111886 1.57202 0
M  V30 11752 C 1136.11 -1.13796 2.03894 0
M  V30 11753 C 1137.09 -1.4277 0.924696 0
M  V30 11754 O 1138.28 -1.53089 1.19488 0
M  V30 11755 C 1135.41 -2.46229 2.44925 0
M  V30 11756 C 1134.36 -2.31702 3.59859 0
M  V30 11757 C 1133.69 -3.69161 3.86813 0
M  V30 11758 C 1134.99 -1.77158 4.91337 0
M  V30 11759 H 1136.68 -0.749581 2.89865 0
M  V30 11760 H 1134.23 -0.359126 1.3945 0
M  V30 11761 H 1136.18 -3.18267 2.76195 0
M  V30 11762 H 1134.9 -2.86971 1.55933 0
M  V30 11763 H 1133.56 -1.62112 3.28809 0
M  V30 11764 H 1133.21 -4.07401 2.95015 0
M  V30 11765 H 1132.91 -3.60292 4.6418 0
M  V30 11766 H 1134.43 -4.42693 4.20542 0
M  V30 11767 H 1135.85 -2.3902 5.21097 0
M  V30 11768 H 1134.25 -1.79091 5.72753 0
M  V30 11769 H 1135.32 -0.729675 4.79379 0
M  V30 11770 N 1136.66 -1.52894 -0.382264 0
M  V30 11771 C 1137.57 -1.81084 -1.4915 0
M  V30 11772 C 1138.58 -0.698045 -1.59384 0
M  V30 11773 O 1139.76 -0.98635 -1.75594 0
M  V30 11774 C 1136.83 -1.97987 -2.84608 0
M  V30 11775 C 1135.89 -3.219 -2.8404 0
M  V30 11776 C 1135.12 -3.37988 -4.13037 0
M  V30 11777 O 1135.34 -2.58733 -5.08344 0
M  V30 11778 O 1134.28 -4.31273 -4.19866 0
M  V30 11779 H 1138.1 -2.75289 -1.28257 0
M  V30 11780 H 1135.69 -1.38068 -0.57076 0
M  V30 11781 H 1137.57 -2.10773 -3.64901 0
M  V30 11782 H 1136.24 -1.06972 -3.05514 0
M  V30 11783 H 1135.15 -3.14551 -2.02505 0
M  V30 11784 H 1136.48 -4.12783 -2.68087 0
M  V30 11785 N 1138.14 0.641106 -1.43971 0
M  V30 11786 C 1139.07 1.76489 -1.52885 0
M  V30 11787 C 1140.05 1.65742 -0.38258 0
M  V30 11788 O 1141.23 1.84653 -0.601397 0
M  V30 11789 C 1138.36 3.14977 -1.4631 0
M  V30 11790 C 1137.32 3.40502 -2.59311 0
M  V30 11791 C 1136.64 4.78916 -2.37789 0
M  V30 11792 C 1137.94 3.34048 -4.01509 0
M  V30 11793 H 1139.64 1.69286 -2.46946 0
M  V30 11794 H 1137.18 0.813015 -1.18853 0
M  V30 11795 H 1139.14 3.9336 -1.51149 0
M  V30 11796 H 1137.86 3.2294 -0.487599 0
M  V30 11797 H 1136.52 2.64495 -2.53846 0
M  V30 11798 H 1136.17 4.8357 -1.38454 0
M  V30 11799 H 1135.87 4.96954 -3.13545 0
M  V30 11800 H 1137.39 5.59541 -2.4443 0
M  V30 11801 H 1138.81 4.0235 -4.08396 0
M  V30 11802 H 1137.2 3.63622 -4.77388 0
M  V30 11803 H 1138.27 2.32022 -4.25786 0
M  V30 11804 N 1139.62 1.30703 0.880598 0
M  V30 11805 C 1140.89 1.1043 1.61445 0
M  V30 11806 C 1141.27 -0.344837 2.08264 0
M  V30 11807 O 1140.62 -1.33711 1.85293 0
M  V30 11808 C 1140.83 2.10908 2.78063 0
M  V30 11809 C 1142.18 2.42861 3.48287 0
M  V30 11810 O 1143.2 2.09252 2.88257 0
M  V30 11811 O 1142.06 3.00369 4.56553 0
M  V30 11812 H 1139.16 0.424419 0.709787 0
M  V30 11813 H 1141.7 1.42144 0.926991 0
M  V30 11814 H 1140.47 3.08431 2.40803 0
M  V30 11815 H 1140.1 1.80036 3.54503 0
M  V30 11816 N 1141.09 -1.09351 1.1349 0
M  V30 11817 C 1142.06 -2.14185 0.815919 0
M  V30 11818 C 1143.06 -1.59845 -0.174976 0
M  V30 11819 O 1144.25 -1.74122 0.0521971 0
M  V30 11820 C 1141.38 -3.40224 0.214517 0
M  V30 11821 H 1142.57 -2.43913 1.74489 0
M  V30 11822 H 1140.12 -1.24902 0.939634 0
M  V30 11823 H 1140.86 -3.16123 -0.723634 0
M  V30 11824 H 1140.64 -3.80958 0.928102 0
M  V30 11825 H 1142.13 -4.17599 0.00821999 0
M  V30 11826 N 1142.57 -0.928524 -1.27343 0
M  V30 11827 C 1143.82 -0.568267 -1.93946 0
M  V30 11828 C 1144.14 0.893501 -1.73325 0
M  V30 11829 O 1143.41 1.63344 -1.08147 0
M  V30 11830 H 1141.99 -0.207173 -0.717696 0
M  V30 11831 H 1144.65 -1.1811 -1.55036 0
M  V30 11832 H 1143.75 -0.775246 -3.02318 0
M  V30 11833 N 1144.05 1.41491 -0.694123 0
M  V30 11834 C 1145.47 1.55358 -0.365532 0
M  V30 11835 C 1145.67 1.66994 1.12762 0
M  V30 11836 O 1144.72 1.64756 1.91342 0
M  V30 11837 C 1146.03 2.79352 -1.11279 0
M  V30 11838 C 1147.58 2.93147 -1.097 0
M  V30 11839 C 1148.06 4.20027 -1.82597 0
M  V30 11840 N 1149.55 4.26981 -1.7956 0
M  V30 11841 C 1150.28 5.24013 -2.32805 0
M  V30 11842 N 1149.78 6.27083 -2.94515 0
M  V30 11843 N 1151.57 5.15943 -2.23069 0
M  V30 11844 H 1143.72 1.32183 -1.66257 0
M  V30 11845 H 1145.99 0.637624 -0.701527 0
M  V30 11846 H 1145.69 2.76958 -2.16765 0
M  V30 11847 H 1145.57 3.70827 -0.690439 0
M  V30 11848 H 1147.95 2.95057 -0.0504037 0
M  V30 11849 H 1148.03 2.02849 -1.55839 0
M  V30 11850 H 1147.68 4.18878 -2.87235 0
M  V30 11851 H 1147.61 5.09294 -1.33893 0
M  V30 11852 H 1150.1 3.53129 -1.34567 0
M  V30 11853 H 1150.41 6.97511 -3.32714 0
M  V30 11854 H 1148.76 6.27589 -2.98592 0
M  V30 11855 H 1151.95 4.34346 -1.74532 0
M  V30 11856 H 1152.12 5.91396 -2.64868 0
M  V30 11857 N 1145.53 0.438773 1.51369 0
M  V30 11858 C 1146.77 -0.127401 2.02399 0
M  V30 11859 C 1147.11 -1.42235 1.32223 0
M  V30 11860 O 1146.38 -1.89513 0.437607 0
M  V30 11861 C 1146.66 -0.344673 3.58447 0
M  V30 11862 C 1146.52 0.969027 4.39238 0
M  V30 11863 C 1147.84 -1.11381 4.25773 0
M  V30 11864 H 1144.96 -0.0448281 0.735635 0
M  V30 11865 H 1147.6 0.57805 1.80993 0
M  V30 11866 H 1145.75 -0.945582 3.76817 0
M  V30 11867 H 1147.42 1.60403 4.32514 0
M  V30 11868 H 1145.66 1.57329 4.04265 0
M  V30 11869 H 1146.33 0.771029 5.46589 0
M  V30 11870 H 1148.81 -0.604785 4.11681 0
M  V30 11871 H 1147.69 -1.23459 5.34835 0
M  V30 11872 H 1147.95 -2.14225 3.8673 0
M  V30 11873 N 1147.01 -1.56678 0.170181 0
M  V30 11874 C 1147.95 -2.17909 -0.760556 0
M  V30 11875 C 1148.92 -1.11875 -1.22773 0
M  V30 11876 O 1150.11 -1.40021 -1.2961 0
M  V30 11877 C 1147.25 -2.82305 -1.9849 0
M  V30 11878 C 1146.36 -4.02796 -1.5614 0
M  V30 11879 C 1145.5 -4.55121 -2.73932 0
M  V30 11880 C 1144.53 -5.68025 -2.28067 0
M  V30 11881 N 1143.67 -6.14865 -3.38947 0
M  V30 11882 H 1148.51 -2.97098 -0.231629 0
M  V30 11883 H 1146.05 -1.46742 -0.102602 0
M  V30 11884 H 1148.01 -3.17797 -2.70298 0
M  V30 11885 H 1146.64 -2.05721 -2.48755 0
M  V30 11886 H 1145.69 -3.73131 -0.740097 0
M  V30 11887 H 1147 -4.84526 -1.18472 0
M  V30 11888 H 1146.15 -4.92789 -3.53898 0
M  V30 11889 H 1144.89 -3.72445 -3.14858 0
M  V30 11890 H 1143.9 -5.2991 -1.46546 0
M  V30 11891 H 1145.12 -6.52501 -1.88199 0
M  V30 11892 H 1143.07 -5.35119 -3.79452 0
M  V30 11893 H 1142.99 -6.91582 -3.05369 0
M  V30 11894 H 1144.25 -6.57183 -4.19203 0
M  V30 11895 N 1148.48 0.103547 -1.57259 0
M  V30 11896 C 1149.41 1.12714 -2.04494 0
M  V30 11897 C 1150.39 1.42278 -0.932255 0
M  V30 11898 O 1151.58 1.52453 -1.20298 0
M  V30 11899 C 1148.71 2.44927 -2.46228 0
M  V30 11900 C 1147.66 2.2979 -3.61082 0
M  V30 11901 C 1146.99 3.67105 -3.88765 0
M  V30 11902 C 1148.29 1.7455 -4.9227 0
M  V30 11903 H 1149.98 0.734198 -2.90258 0
M  V30 11904 H 1147.53 0.351725 -1.39638 0
M  V30 11905 H 1149.48 3.16798 -2.77879 0
M  V30 11906 H 1148.21 2.8614 -1.57453 0
M  V30 11907 H 1146.87 1.60366 -3.29664 0
M  V30 11908 H 1146.51 4.05831 -2.97171 0
M  V30 11909 H 1146.21 3.57825 -4.66084 0
M  V30 11910 H 1147.74 4.40456 -4.22884 0
M  V30 11911 H 1149.15 2.36253 -5.22358 0
M  V30 11912 H 1147.55 1.76051 -5.73695 0
M  V30 11913 H 1148.62 0.704242 -4.79759 0
M  V30 11914 N 1149.96 1.53094 0.37415 0
M  V30 11915 C 1151.19 1.72758 1.13852 0
M  V30 11916 C 1151.6 0.452638 1.83294 0
M  V30 11917 O 1150.96 -0.573906 1.73241 0
M  V30 11918 C 1151.01 2.88724 2.17534 0
M  V30 11919 O 1150.73 4.11284 1.5092 0
M  V30 11920 C 1152.23 3.2019 3.06584 0
M  V30 11921 H 1149.45 0.578028 0.340771 0
M  V30 11922 H 1152 1.99805 0.435683 0
M  V30 11923 H 1150.15 2.64096 2.83429 0
M  V30 11924 H 1150.57 4.76162 2.19932 0
M  V30 11925 H 1152.04 4.04759 3.75332 0
M  V30 11926 H 1152.52 2.35193 3.70919 0
M  V30 11927 H 1153.12 3.46712 2.46315 0
M  V30 11928 N 1151.44 -0.633461 1.44309 0
M  V30 11929 C 1152.69 -1.39513 1.47187 0
M  V30 11930 C 1153.02 -1.93926 0.103186 0
M  V30 11931 O 1152.29 -1.73512 -0.878853 0
M  V30 11932 C 1152.58 -2.56213 2.53036 0
M  V30 11933 C 1152.43 -2.07164 3.99253 0
M  V30 11934 C 1153.75 -3.58403 2.55412 0
M  V30 11935 H 1150.87 -0.505936 0.535908 0
M  V30 11936 H 1153.51 -0.716445 1.75975 0
M  V30 11937 H 1151.66 -3.14111 2.28619 0
M  V30 11938 H 1153.33 -1.54115 4.34795 0
M  V30 11939 H 1151.57 -1.38367 4.11141 0
M  V30 11940 H 1152.25 -2.91172 4.6896 0
M  V30 11941 H 1154.72 -3.103 2.77224 0
M  V30 11942 H 1153.6 -4.37581 3.31382 0
M  V30 11943 H 1153.86 -4.12316 1.59523 0
M  V30 11944 N 1152.92 -1.31168 -0.873655 0
M  V30 11945 C 1153.87 -1.18432 -2.00191 0
M  V30 11946 C 1154.86 -0.0934873 -1.69142 0
M  V30 11947 O 1156.07 -0.255126 -1.78183 0
M  V30 11948 H 1152.44 -0.366594 -0.656592 0
M  V30 11949 H 1154.41 -2.13896 -2.08065 0
M  V30 11950 C 1153.16 -0.904668 -3.35725 0
M  V30 11951 H 1152.48 -1.73617 -3.60135 0
M  V30 11952 H 1153.92 -0.855715 -4.15275 0
M  V30 11953 C 1152.38 0.392554 -3.34605 0
M  V30 11954 O 1152.91 1.41052 -3.76121 0
M  V30 11955 N 1151.12 0.40777 -2.87725 0
M  V30 11956 H 1150.67 -0.42112 -2.54134 0
M  V30 11957 H 1150.62 1.27564 -2.87358 0
M  V30 11958 N 1154.4 1.08748 -1.14068 0
M  V30 11959 C 1155.33 2.17591 -0.84714 0
M  V30 11960 C 1156.31 1.68962 0.196415 0
M  V30 11961 O 1157.49 1.94125 0.0538415 0
M  V30 11962 C 1154.62 3.45823 -0.320005 0
M  V30 11963 C 1153.58 4.07824 -1.2986 0
M  V30 11964 C 1152.9 5.30965 -0.630925 0
M  V30 11965 C 1154.2 4.49512 -2.65963 0
M  V30 11966 H 1155.9 2.42404 -1.75729 0
M  V30 11967 H 1153.44 1.16502 -0.846356 0
M  V30 11968 H 1155.4 4.21276 -0.102271 0
M  V30 11969 H 1154.12 3.20553 0.625561 0
M  V30 11970 H 1152.78 3.34398 -1.50245 0
M  V30 11971 H 1152.43 5.01979 0.320337 0
M  V30 11972 H 1152.13 5.73402 -1.28388 0
M  V30 11973 H 1153.65 6.09136 -0.422635 0
M  V30 11974 H 1155.06 5.16159 -2.49506 0
M  V30 11975 H 1153.46 5.02857 -3.27498 0
M  V30 11976 H 1154.53 3.6157 -3.23102 0
M  V30 11977 N 1155.87 0.935264 1.26849 0
M  V30 11978 C 1157.15 0.497797 1.8916 0
M  V30 11979 C 1157.53 -1.02441 1.84578 0
M  V30 11980 O 1156.88 -1.88185 1.29609 0
M  V30 11981 C 1157.09 1.05244 3.32753 0
M  V30 11982 C 1158.44 1.11751 4.0963 0
M  V30 11983 O 1159.46 1.0026 3.41799 0
M  V30 11984 O 1158.32 1.29548 5.30923 0
M  V30 11985 H 1155.41 0.161322 0.811113 0
M  V30 11986 H 1157.96 1.02744 1.35062 0
M  V30 11987 H 1156.73 2.09617 3.30419 0
M  V30 11988 H 1156.36 0.504889 3.94381 0
M  V30 11989 N 1157.35 -1.41121 0.701616 0
M  V30 11990 C 1158.59 -2.02993 0.239383 0
M  V30 11991 C 1158.96 -1.5439 -1.1414 0
M  V30 11992 O 1160.16 -2.08229 -1.69982 0
M  V30 11993 C 1158.43 -3.56128 0.301232 0
M  V30 11994 S 1159.99 -4.38716 -0.0860681 0
M  V30 11995 H 1156.81 -0.704494 0.0959645 0
M  V30 11996 H 1159.41 -1.72461 0.920736 0
M  V30 11997 H 1158.11 -3.88996 1.30805 0
M  V30 11998 H 1157.64 -3.91371 -0.399069 0
M  V30 11999 H 1159.66 -4.78537 -1.31212 0
M  V30 12000 N 1158.83 -0.446794 -1.51134 0
M  V30 12001 C 1160.08 0.118047 -2.01354 0
M  V30 12002 C 1160.39 1.42953 -1.33505 0
M  V30 12003 O 1161.6 2.07788 -1.74747 0
M  V30 12004 C 1160.05 0.260912 -3.58953 0
M  V30 12005 C 1159.66 -1.0407 -4.35745 0
M  V30 12006 C 1161.41 0.779014 -4.17291 0
M  V30 12007 C 1159.31 -0.862958 -5.8507 0
M  V30 12008 H 1158.24 0.0478915 -0.752478 0
M  V30 12009 H 1160.89 -0.577997 -1.74159 0
M  V30 12010 H 1159.28 1.02018 -3.82633 0
M  V30 12011 H 1160.45 -1.80903 -4.23805 0
M  V30 12012 H 1158.77 -1.48805 -3.88904 0
M  V30 12013 H 1161.36 0.928636 -5.26574 0
M  V30 12014 H 1161.71 1.76399 -3.7708 0
M  V30 12015 H 1162.24 0.0778022 -3.97724 0
M  V30 12016 H 1158.98 -1.82059 -6.2971 0
M  V30 12017 H 1158.5 -0.134588 -5.99649 0
M  V30 12018 H 1160.18 -0.51989 -6.44908 0
M  V30 12019 N 1160.31 1.56586 -0.178487 0
M  V30 12020 C 1161.72 1.58609 0.17759 0
M  V30 12021 C 1161.92 1.19411 1.62306 0
M  V30 12022 O 1160.98 0.90906 2.35568 0
M  V30 12023 C 1162.29 3.005 -0.109722 0
M  V30 12024 C 1163.84 3.12962 -0.0485036 0
M  V30 12025 C 1164.32 4.56957 -0.308901 0
M  V30 12026 N 1165.81 4.62487 -0.25693 0
M  V30 12027 C 1166.54 5.71767 -0.432488 0
M  V30 12028 N 1166.04 6.89577 -0.667494 0
M  V30 12029 N 1167.83 5.60895 -0.367895 0
M  V30 12030 H 1159.98 1.80351 -1.12193 0
M  V30 12031 H 1162.25 0.83623 -0.446569 0
M  V30 12032 H 1161.95 3.3368 -1.11133 0
M  V30 12033 H 1161.83 3.72472 0.595373 0
M  V30 12034 H 1164.21 2.79604 0.943687 0
M  V30 12035 H 1164.29 2.43411 -0.78642 0
M  V30 12036 H 1163.94 4.91025 -1.29833 0
M  V30 12037 H 1163.87 5.24676 0.449711 0
M  V30 12038 H 1166.36 3.77813 -0.0812308 0
M  V30 12039 H 1166.67 7.68744 -0.79071 0
M  V30 12040 H 1165.02 6.91423 -0.704193 0
M  V30 12041 H 1168.21 4.67735 -0.184837 0
M  V30 12042 H 1168.38 6.46005 -0.508138 0
M  V30 12043 N 1161.79 -0.095206 1.57312 0
M  V30 12044 C 1163.04 -0.797417 1.85268 0
M  V30 12045 C 1163.35 -1.79903 0.767733 0
M  V30 12046 O 1164.55 -2.54914 0.934409 0
M  V30 12047 C 1163.01 -1.469 3.28555 0
M  V30 12048 C 1162.62 -0.507152 4.4512 0
M  V30 12049 C 1164.36 -2.15494 3.65735 0
M  V30 12050 C 1162.27 -1.18331 5.79441 0
M  V30 12051 H 1161.2 -0.301552 0.691074 0
M  V30 12052 H 1163.85 -0.0503584 1.83431 0
M  V30 12053 H 1162.23 -2.26351 3.24933 0
M  V30 12054 H 1163.41 0.255858 4.60089 0
M  V30 12055 H 1161.72 0.0730882 4.16336 0
M  V30 12056 H 1164.32 -2.66816 4.63371 0
M  V30 12057 H 1164.66 -2.94383 2.94354 0
M  V30 12058 H 1165.19 -1.42903 3.71246 0
M  V30 12059 H 1161.93 -0.435238 6.54053 0
M  V30 12060 H 1161.45 -1.91775 5.68315 0
M  V30 12061 H 1163.13 -1.70983 6.23998 0
M  V30 12062 N 1163.26 -1.53291 -0.366026 0
M  V30 12063 C 1164.21 -1.80367 -1.4687 0
M  V30 12064 C 1165.21 -0.672767 -1.55468 0
M  V30 12065 O 1166.41 -0.8557 -1.5836 0
M  V30 12066 H 1162.79 -0.571076 -0.48926 0
M  V30 12067 H 1164.76 -2.72661 -1.21237 0
M  V30 12068 C 1163.51 -2.01008 -2.8371 0
M  V30 12069 H 1162.83 -2.87468 -2.77853 0
M  V30 12070 H 1164.27 -2.2393 -3.60043 0
M  V30 12071 C 1162.73 -0.789054 -3.27529 0
M  V30 12072 O 1163.26 0.0224712 -4.01694 0
M  V30 12073 N 1161.47 -0.612621 -2.84069 0
M  V30 12074 H 1161.01 -1.27416 -2.23881 0
M  V30 12075 H 1160.97 0.202943 -3.13744 0
M  V30 12076 N 1164.74 0.6258 -1.44643 0
M  V30 12077 C 1165.98 1.39676 -1.49232 0
M  V30 12078 C 1166.35 1.91601 -0.123682 0
M  V30 12079 O 1167.55 2.68764 -0.0442486 0
M  V30 12080 C 1165.82 2.52704 -2.52736 0
M  V30 12081 S 1167.38 3.40795 -2.76413 0
M  V30 12082 H 1164.2 0.476436 -0.527759 0
M  V30 12083 H 1166.8 0.72394 -1.81602 0
M  V30 12084 H 1165.5 2.12876 -3.50873 0
M  V30 12085 H 1165.03 3.24806 -2.21956 0
M  V30 12086 H 1167.05 4.5031 -2.08412 0
M  V30 12087 N 1166.22 1.31629 0.866686 0
M  V30 12088 C 1167.17 1.19492 1.99561 0
M  V30 12089 C 1168.16 0.102456 1.6909 0
M  V30 12090 O 1169.37 0.264571 1.78045 0
M  V30 12091 H 1165.74 0.370071 0.654638 0
M  V30 12092 H 1167.71 2.14996 2.06928 0
M  V30 12093 C 1166.46 0.92246 3.3524 0
M  V30 12094 H 1165.79 1.75524 3.59209 0
M  V30 12095 H 1167.23 0.877726 4.14816 0
M  V30 12096 C 1165.69 -0.374803 3.34809 0
M  V30 12097 O 1166.22 -1.39055 3.76864 0
M  V30 12098 N 1164.42 -0.392506 2.87937 0
M  V30 12099 H 1163.97 0.434591 2.53908 0
M  V30 12100 H 1163.93 -1.26038 2.88031 0
M  V30 12101 N 1167.7 -1.08142 1.14644 0
M  V30 12102 C 1168.92 -1.84857 0.940349 0
M  V30 12103 C 1169.35 -1.81163 -0.506117 0
M  V30 12104 O 1168.71 -1.19869 -1.36019 0
M  V30 12105 C 1168.76 -3.30198 1.4492 0
M  V30 12106 O 1167.86 -4.07355 0.64308 0
M  V30 12107 H 1167.2 -0.572711 0.336003 0
M  V30 12108 H 1169.73 -1.36475 1.52432 0
M  V30 12109 H 1169.74 -3.81039 1.45854 0
M  V30 12110 H 1168.42 -3.32202 2.50229 0
M  V30 12111 H 1166.99 -3.66219 0.702698 0
M  V30 12112 N 1169.18 -0.941978 -1.26351 0
M  V30 12113 C 1170.4 -0.606231 -1.98342 0
M  V30 12114 C 1170.83 0.812014 -1.6967 0
M  V30 12115 O 1170.19 1.54712 -0.9452 0
M  V30 12116 C 1170.23 -0.855864 -3.50296 0
M  V30 12117 O 1169.34 0.0716251 -4.12338 0
M  V30 12118 H 1168.68 -0.231815 -0.62222 0
M  V30 12119 H 1171.21 -1.26513 -1.60797 0
M  V30 12120 H 1171.22 -0.777079 -4.00531 0
M  V30 12121 H 1169.89 -1.8896 -3.70496 0
M  V30 12122 H 1168.47 -0.0582866 -3.72854 0
M  V30 12123 N 1170.66 1.40747 -0.709091 0
M  V30 12124 C 1171.6 2.30741 -0.0523584 0
M  V30 12125 C 1172.57 1.4784 0.757145 0
M  V30 12126 O 1173.76 1.76595 0.72242 0
M  V30 12127 C 1170.9 3.34 0.868203 0
M  V30 12128 C 1170.01 4.31972 0.0488686 0
M  V30 12129 C 1169.15 5.223 0.968311 0
M  V30 12130 C 1168.18 6.11934 0.142682 0
M  V30 12131 N 1167.32 6.947 1.01665 0
M  V30 12132 H 1172.16 2.86338 -0.825509 0
M  V30 12133 H 1169.7 1.41013 -0.418785 0
M  V30 12134 H 1171.66 3.92431 1.41611 0
M  V30 12135 H 1170.29 2.79921 1.6076 0
M  V30 12136 H 1169.34 3.75377 -0.616137 0
M  V30 12137 H 1170.65 4.95291 -0.590625 0
M  V30 12138 H 1169.8 5.85631 1.58498 0
M  V30 12139 H 1168.54 4.5924 1.64164 0
M  V30 12140 H 1167.55 5.47639 -0.486965 0
M  V30 12141 H 1168.77 6.77052 -0.527046 0
M  V30 12142 H 1166.72 6.34236 1.67575 0
M  V30 12143 H 1166.64 7.54759 0.433045 0
M  V30 12144 H 1167.9 7.62487 1.6197 0
M  V30 12145 N 1172.13 0.454803 1.50895 0
M  V30 12146 C 1173.38 -0.105562 2.01824 0
M  V30 12147 C 1173.7 -1.41673 1.33992 0
M  V30 12148 O 1172.97 -1.89929 0.479994 0
M  V30 12149 H 1171.55 -0.0420011 0.745818 0
M  V30 12150 H 1174.21 0.601504 1.85386 0
M  V30 12151 H 1173.31 -0.268872 3.1094 0
M  V30 12152 N 1173.61 -1.56489 0.186789 0
M  V30 12153 C 1175.02 -1.83809 -0.327265 0
M  V30 12154 C 1175.37 -1.10718 -1.61976 0
M  V30 12155 O 1174.5 -0.36525 -2.13295 0
M  V30 12156 C 1175.09 -3.33435 -0.600551 0
M  V30 12157 C 1173.65 -3.61195 -1.059 0
M  V30 12158 C 1172.8 -2.77108 -0.103131 0
M  V30 12159 H 1175.75 -1.53292 0.410747 0
M  V30 12160 H 1175.77 -3.51754 -1.45084 0
M  V30 12161 H 1175.28 -3.86605 0.340315 0
M  V30 12162 H 1173.38 -3.13451 -2.01443 0
M  V30 12163 H 1173.5 -4.69435 -0.957458 0
M  V30 12164 H 1171.86 -2.47448 -0.603449 0
M  V30 12165 H 1172.64 -3.33065 0.832031 0
M  V30 12166 N 1175.09 0.086862 -1.5736 0
M  V30 12167 C 1176 1.12297 -2.05977 0
M  V30 12168 C 1177.02 1.43347 -0.986284 0
M  V30 12169 O 1178.19 1.53825 -1.3 0
M  V30 12170 C 1175.26 2.42131 -2.4814 0
M  V30 12171 C 1174.32 2.18189 -3.69719 0
M  V30 12172 C 1173.55 3.41833 -4.09861 0
M  V30 12173 O 1173.77 4.50383 -3.50016 0
M  V30 12174 O 1172.71 3.30934 -5.02759 0
M  V30 12175 H 1176.53 0.740012 -2.94546 0
M  V30 12176 H 1174.12 0.29995 -1.46358 0
M  V30 12177 H 1176 3.18568 -2.75848 0
M  V30 12178 H 1174.68 2.79837 -1.62705 0
M  V30 12179 H 1173.58 1.39506 -3.47115 0
M  V30 12180 H 1174.92 1.85372 -4.55959 0
M  V30 12181 N 1176.57 1.53483 0.357892 0
M  V30 12182 C 1177.8 1.73956 1.12013 0
M  V30 12183 C 1178.21 0.472053 1.82803 0
M  V30 12184 O 1177.57 -0.555499 1.7384 0
M  V30 12185 C 1177.62 2.91015 2.14459 0
M  V30 12186 O 1177.34 4.12862 1.4655 0
M  V30 12187 C 1178.84 3.23423 3.0317 0
M  V30 12188 H 1176.06 0.58161 0.334621 0
M  V30 12189 H 1178.6 2.00256 0.414467 0
M  V30 12190 H 1176.76 2.67087 2.80612 0
M  V30 12191 H 1177.17 4.78468 2.14869 0
M  V30 12192 H 1178.65 4.08717 3.71018 0
M  V30 12193 H 1179.12 2.39114 3.68404 0
M  V30 12194 H 1179.73 3.49305 2.42624 0
M  V30 12195 N 1178.05 -0.61812 1.44973 0
M  V30 12196 C 1178.98 -1.74035 1.55673 0
M  V30 12197 C 1179.96 -1.65112 0.4089 0
M  V30 12198 O 1181.14 -1.83673 0.630698 0
M  V30 12199 C 1178.27 -3.1261 1.51303 0
M  V30 12200 C 1177.23 -3.36334 2.64696 0
M  V30 12201 C 1176.55 -4.75072 2.45378 0
M  V30 12202 C 1177.85 -3.27618 4.06772 0
M  V30 12203 H 1179.55 -1.65336 2.49608 0
M  V30 12204 H 1177.09 -0.794003 1.20132 0
M  V30 12205 H 1179.04 -3.90906 1.57388 0
M  V30 12206 H 1177.77 -3.22123 0.538914 0
M  V30 12207 H 1176.43 -2.60423 2.58022 0
M  V30 12208 H 1176.08 -4.81306 1.46129 0
M  V30 12209 H 1175.78 -4.91903 3.21412 0
M  V30 12210 H 1177.3 -5.55582 2.53301 0
M  V30 12211 H 1178.71 -3.95802 4.14746 0
M  V30 12212 H 1177.11 -3.55981 4.83113 0
M  V30 12213 H 1178.18 -2.25219 4.29423 0
M  V30 12214 N 1179.52 -1.32087 -0.859693 0
M  V30 12215 C 1180.77 -1.2236 -1.61351 0
M  V30 12216 C 1181.1 0.215796 -1.93299 0
M  V30 12217 O 1180.35 1.16742 -1.57066 0
M  V30 12218 C 1180.65 -2.0234 -2.94607 0
M  V30 12219 C 1180.32 -3.51746 -2.82109 0
M  V30 12220 C 1178.98 -3.92482 -2.78408 0
M  V30 12221 C 1181.33 -4.46776 -2.68403 0
M  V30 12222 C 1178.66 -5.265 -2.58873 0
M  V30 12223 C 1181.01 -5.80931 -2.50404 0
M  V30 12224 C 1179.68 -6.20875 -2.45092 0
M  V30 12225 H 1178.95 -0.447748 -0.590426 0
M  V30 12226 H 1181.59 -1.63461 -0.997637 0
M  V30 12227 H 1179.9 -1.53952 -3.60286 0
M  V30 12228 H 1181.6 -1.92187 -3.51945 0
M  V30 12229 H 1178.19 -3.19389 -2.85812 0
M  V30 12230 H 1182.37 -4.16228 -2.70311 0
M  V30 12231 H 1177.63 -5.5651 -2.53192 0
M  V30 12232 H 1181.8 -6.54185 -2.38777 0
M  V30 12233 H 1179.43 -7.24662 -2.29714 0
M  V30 12234 N 1181 1.07532 -1.15215 0
M  V30 12235 C 1181.96 2.1286 -0.84989 0
M  V30 12236 C 1182.96 1.60103 0.149524 0
M  V30 12237 O 1184.15 1.74017 -0.0798918 0
M  V30 12238 C 1181.29 3.3984 -0.268617 0
M  V30 12239 H 1182.48 2.41106 -1.78347 0
M  V30 12240 H 1180.03 1.23392 -0.959386 0
M  V30 12241 H 1180.77 3.17235 0.67325 0
M  V30 12242 H 1180.55 3.79433 -0.988592 0
M  V30 12243 H 1182.04 4.17533 -0.0746554 0
M  V30 12244 N 1182.48 0.948665 1.2585 0
M  V30 12245 C 1183.73 0.59905 1.93018 0
M  V30 12246 C 1184.05 -0.865813 1.74725 0
M  V30 12247 O 1183.32 -1.61602 1.10732 0
M  V30 12248 H 1181.9 0.218565 0.71431 0
M  V30 12249 H 1184.56 1.20561 1.53137 0
M  V30 12250 H 1183.66 0.823244 3.01047 0
M  V30 12251 N 1183.96 -1.40369 0.716545 0
M  V30 12252 C 1185.19 -2.04884 0.265757 0
M  V30 12253 C 1185.6 -1.54095 -1.09779 0
M  V30 12254 O 1184.94 -0.692944 -1.70129 0
M  V30 12255 C 1185 -3.59103 0.16887 0
M  V30 12256 C 1184.67 -4.32785 1.46786 0
M  V30 12257 C 1185.66 -4.6067 2.40997 0
M  V30 12258 C 1183.35 -4.71676 1.72705 0
M  V30 12259 C 1185.34 -5.26432 3.59372 0
M  V30 12260 C 1183.03 -5.3717 2.91362 0
M  V30 12261 C 1184.03 -5.64478 3.84517 0
M  V30 12262 O 1183.71 -6.28618 5.01093 0
M  V30 12263 H 1183.45 -0.665794 0.117025 0
M  V30 12264 H 1186 -1.80746 0.975698 0
M  V30 12265 H 1184.23 -3.82064 -0.597023 0
M  V30 12266 H 1185.92 -4.05145 -0.247483 0
M  V30 12267 H 1186.69 -4.31087 2.22236 0
M  V30 12268 H 1182.56 -4.49789 1.0105 0
M  V30 12269 H 1186.11 -5.47663 4.321 0
M  V30 12270 H 1182.01 -5.66173 3.1003 0
M  V30 12271 H 1182.77 -6.47115 5.01183 0
M  V30 12272 N 1185.44 -0.462799 -1.50652 0
M  V30 12273 C 1186.38 0.349784 -2.29955 0
M  V30 12274 C 1187.38 0.997947 -1.36885 0
M  V30 12275 O 1188.58 0.93 -1.54114 0
M  V30 12276 H 1184.96 0.131635 -0.740389 0
M  V30 12277 H 1186.93 -0.33958 -2.96461 0
M  V30 12278 C 1185.68 1.42398 -3.17204 0
M  V30 12279 H 1185 0.934611 -3.88722 0
M  V30 12280 H 1186.44 1.96528 -3.75703 0
M  V30 12281 C 1184.9 2.42135 -2.34248 0
M  V30 12282 O 1185.43 3.47229 -2.01978 0
M  V30 12283 N 1183.64 2.13647 -1.96985 0
M  V30 12284 H 1183.18 1.28209 -2.23428 0
M  V30 12285 H 1183.14 2.80615 -1.41783 0
M  V30 12286 N 1186.91 1.56388 -0.195085 0
M  V30 12287 C 1187.84 2.22091 0.720971 0
M  V30 12288 C 1188.83 1.184 1.22128 0
M  V30 12289 O 1190.01 1.46907 1.27012 0
M  V30 12290 C 1187.14 2.88025 1.94059 0
M  V30 12291 C 1186.09 3.97959 1.5752 0
M  V30 12292 C 1185.42 4.51058 2.87143 0
M  V30 12293 C 1186.72 5.16365 0.785145 0
M  V30 12294 H 1188.41 2.98898 0.173245 0
M  V30 12295 H 1185.96 1.43767 0.0818868 0
M  V30 12296 H 1187.91 3.32671 2.58666 0
M  V30 12297 H 1186.64 2.08623 2.51285 0
M  V30 12298 H 1185.3 3.54004 0.952715 0
M  V30 12299 H 1184.94 3.68418 3.42458 0
M  V30 12300 H 1184.64 5.25237 2.63439 0
M  V30 12301 H 1186.17 4.98406 3.52738 0
M  V30 12302 H 1187.58 5.57556 1.33431 0
M  V30 12303 H 1185.98 5.9661 0.646231 0
M  V30 12304 H 1187.05 4.84428 -0.213789 0
M  V30 12305 N 1188.39 -0.0785156 1.57404 0
M  V30 12306 C 1189.34 -1.11278 2.04255 0
M  V30 12307 C 1190.33 -1.40482 0.946633 0
M  V30 12308 O 1191.54 -1.39968 1.13177 0
M  V30 12309 H 1187.92 -0.376157 0.65116 0
M  V30 12310 H 1189.89 -0.691437 2.90279 0
M  V30 12311 C 1188.64 -2.42006 2.49656 0
M  V30 12312 H 1187.96 -2.20383 3.33574 0
M  V30 12313 H 1189.4 -3.12837 2.86197 0
M  V30 12314 C 1187.86 -3.07488 1.37669 0
M  V30 12315 O 1188.39 -3.95285 0.715036 0
M  V30 12316 N 1186.59 -2.68004 1.1235 0
M  V30 12317 H 1186.14 -1.96698 1.66336 0
M  V30 12318 H 1186.1 -3.12141 0.376238 0
M  V30 12319 N 1189.87 -1.5367 -0.349747 0
M  V30 12320 C 1191.15 -1.61238 -1.10732 0
M  V30 12321 C 1191.53 -0.429756 -2.06679 0
M  V30 12322 O 1190.88 0.578564 -2.21054 0
M  V30 12323 C 1191.09 -2.97022 -1.83245 0
M  V30 12324 C 1192.43 -3.52158 -2.37212 0
M  V30 12325 O 1193.46 -2.99156 -1.9335 0
M  V30 12326 O 1192.32 -4.44853 -3.1744 0
M  V30 12327 H 1189.41 -0.65191 -0.508864 0
M  V30 12328 H 1191.96 -1.66015 -0.351738 0
M  V30 12329 H 1190.73 -3.74535 -1.13311 0
M  V30 12330 H 1190.35 -2.95808 -2.65675 0
M  V30 12331 N 1191.35 0.610423 -1.45298 0
M  V30 12332 C 1192.3 1.74245 -1.54083 0
M  V30 12333 C 1193.29 1.64338 -0.411003 0
M  V30 12334 O 1194.5 1.70167 -0.586799 0
M  V30 12335 H 1190.87 0.575612 -0.483916 0
M  V30 12336 H 1192.84 1.63961 -2.49318 0
M  V30 12337 C 1191.59 3.1262 -1.52198 0
M  V30 12338 H 1190.91 3.209 -2.3846 0
M  V30 12339 H 1192.35 3.91665 -1.62403 0
M  V30 12340 C 1190.81 3.36001 -0.24595 0
M  V30 12341 O 1191.34 3.95982 0.675374 0
M  V30 12342 N 1189.55 2.9025 -0.142537 0
M  V30 12343 H 1189.1 2.41621 -0.893143 0
M  V30 12344 H 1189.05 3.06268 0.710427 0
M  V30 12345 N 1192.83 1.32541 0.852676 0
M  V30 12346 C 1193.74 1.23646 1.99371 0
M  V30 12347 C 1194.75 0.149673 1.73355 0
M  V30 12348 O 1195.93 0.370716 1.97959 0
M  V30 12349 C 1192.99 0.961873 3.3309 0
M  V30 12350 C 1192.05 2.1373 3.72315 0
M  V30 12351 C 1191.29 1.87572 4.99652 0
M  V30 12352 O 1191.51 0.819247 5.64486 0
M  V30 12353 O 1190.44 2.73732 5.36054 0
M  V30 12354 H 1194.27 2.19573 2.09813 0
M  V30 12355 H 1191.86 1.12451 0.983627 0
M  V30 12356 H 1193.74 0.825316 4.13239 0
M  V30 12357 H 1192.41 0.0327745 3.23683 0
M  V30 12358 H 1191.32 2.32933 2.92733 0
M  V30 12359 H 1192.65 3.04925 3.86369 0
M  V30 12360 N 1194.3 -1.0692 1.15784 0
M  V30 12361 C 1195.55 -1.8002 0.946795 0
M  V30 12362 C 1195.91 -1.85232 -0.520268 0
M  V30 12363 O 1195.2 -1.32825 -1.38087 0
M  V30 12364 C 1195.39 -3.24389 1.50022 0
M  V30 12365 C 1195.22 -3.33245 3.01957 0
M  V30 12366 C 1193.99 -3.43549 3.70543 0
M  V30 12367 C 1196.19 -3.23634 3.99707 0
M  V30 12368 N 1194.17 -3.41354 5.10246 0
M  V30 12369 C 1195.54 -3.28608 5.25754 0
M  V30 12370 C 1197.6 -3.07475 3.91617 0
M  V30 12371 C 1196.3 -3.19084 6.44653 0
M  V30 12372 C 1198.33 -2.99286 5.1008 0
M  V30 12373 C 1197.69 -3.04876 6.35004 0
M  V30 12374 H 1193.79 -0.671859 0.400162 0
M  V30 12375 H 1196.37 -1.27592 1.47066 0
M  V30 12376 H 1194.54 -3.75228 1.00293 0
M  V30 12377 H 1196.27 -3.85633 1.22756 0
M  V30 12378 H 1193.03 -3.48079 3.21151 0
M  V30 12379 H 1193.45 -3.43772 5.83223 0
M  V30 12380 H 1198.1 -3.02004 2.95895 0
M  V30 12381 H 1195.81 -3.23313 7.40604 0
M  V30 12382 H 1199.4 -2.8788 5.05585 0
M  V30 12383 H 1198.28 -2.9859 7.2513 0
M  V30 12384 N 1195.78 -0.955326 -1.25345 0
M  V30 12385 C 1196.73 -0.446792 -2.23579 0
M  V30 12386 C 1197.72 0.464354 -1.54054 0
M  V30 12387 O 1198.91 0.297293 -1.74485 0
M  V30 12388 C 1196.04 0.273533 -3.42209 0
M  V30 12389 C 1195.12 -0.655722 -4.19 0
M  V30 12390 N 1195.51 -1.78766 -4.73156 0
M  V30 12391 C 1193.81 -0.464059 -4.43579 0
M  V30 12392 C 1194.51 -2.36789 -5.31324 0
M  V30 12393 N 1193.49 -1.65435 -5.17815 0
M  V30 12394 H 1197.29 -1.31065 -2.63057 0
M  V30 12395 H 1194.81 -0.812899 -1.40591 0
M  V30 12396 H 1196.8 0.654986 -4.11723 0
M  V30 12397 H 1195.46 1.13399 -3.04254 0
M  V30 12398 H 1196.47 -2.1695 -4.70269 0
M  V30 12399 H 1193.15 0.353459 -4.16001 0
M  V30 12400 H 1194.54 -3.32242 -5.84008 0
M  V30 12401 N 1197.26 1.39987 -0.723979 0
M  V30 12402 C 1198.49 2.05037 -0.27702 0
M  V30 12403 C 1198.9 1.54565 1.08421 0
M  V30 12404 O 1198.26 0.705795 1.683 0
M  V30 12405 C 1198.31 3.60582 -0.25751 0
M  V30 12406 O 1198.03 4.09194 -1.565 0
M  V30 12407 C 1199.53 4.42817 0.206972 0
M  V30 12408 H 1196.75 0.659637 -0.122963 0
M  V30 12409 H 1199.3 1.7924 -0.98454 0
M  V30 12410 H 1197.45 3.85319 0.401037 0
M  V30 12411 H 1197.87 5.03447 -1.47112 0
M  V30 12412 H 1199.34 5.5174 0.16947 0
M  V30 12413 H 1199.82 4.21023 1.25045 0
M  V30 12414 H 1200.42 4.23205 -0.421604 0
M  V30 12415 N 1198.74 0.470782 1.50404 0
M  V30 12416 C 1199.99 -0.0844409 2.02624 0
M  V30 12417 C 1200.32 -1.39398 1.3521 0
M  V30 12418 O 1199.59 -1.88542 0.477707 0
M  V30 12419 C 1199.88 -0.268563 3.59097 0
M  V30 12420 C 1199.73 1.06198 4.37084 0
M  V30 12421 C 1201.05 -1.02324 4.28039 0
M  V30 12422 H 1198.17 -0.0292141 0.736421 0
M  V30 12423 H 1200.81 0.616312 1.79726 0
M  V30 12424 H 1198.96 -0.865441 3.78738 0
M  V30 12425 H 1200.63 1.69541 4.29015 0
M  V30 12426 H 1198.87 1.65868 4.00837 0
M  V30 12427 H 1199.55 0.886795 5.4483 0
M  V30 12428 H 1202.02 -0.517325 4.12872 0
M  V30 12429 H 1200.9 -1.12087 5.37334 0
M  V30 12430 H 1201.16 -2.05974 3.91187 0
M  V30 12431 N 1200.22 -1.56282 0.203376 0
M  V30 12432 C 1201.63 -1.58871 -0.152335 0
M  V30 12433 C 1201.83 -1.21978 -1.60386 0
M  V30 12434 O 1200.89 -0.946422 -2.34092 0
M  V30 12435 C 1202.2 -3.00287 0.157515 0
M  V30 12436 C 1203.75 -3.12846 0.098287 0
M  V30 12437 C 1204.23 -4.56408 0.38156 0
M  V30 12438 N 1205.72 -4.6202 0.330475 0
M  V30 12439 C 1206.45 -5.71006 0.523397 0
M  V30 12440 N 1205.95 -6.88428 0.777115 0
M  V30 12441 N 1207.74 -5.60238 0.457082 0
M  V30 12442 H 1199.89 -1.78543 1.15048 0
M  V30 12443 H 1202.15 -0.829019 0.459816 0
M  V30 12444 H 1201.86 -3.3187 1.16427 0
M  V30 12445 H 1201.73 -3.73372 -0.536041 0
M  V30 12446 H 1204.12 -2.8107 -0.899085 0
M  V30 12447 H 1204.2 -2.42129 0.825045 0
M  V30 12448 H 1203.85 -4.88897 1.37629 0
M  V30 12449 H 1203.78 -5.25325 -0.366182 0
M  V30 12450 H 1206.27 -3.77636 0.141327 0
M  V30 12451 H 1206.58 -7.67389 0.912911 0
M  V30 12452 H 1204.93 -6.90215 0.814104 0
M  V30 12453 H 1208.12 -4.67382 0.259226 0
M  V30 12454 H 1208.29 -6.45114 0.610848 0
M  V30 12455 N 1201.7 0.070167 -1.57444 0
M  V30 12456 C 1202.94 0.770153 -1.87607 0
M  V30 12457 C 1203.27 1.77143 -0.795875 0
M  V30 12458 O 1202.55 1.93533 0.193674 0
M  V30 12459 C 1202.83 1.47668 -3.2843 0
M  V30 12460 C 1202.69 0.491712 -4.47104 0
M  V30 12461 C 1204 2.42118 -3.67514 0
M  V30 12462 H 1201.12 0.278519 -0.682346 0
M  V30 12463 H 1203.77 0.0333184 -1.89971 0
M  V30 12464 H 1201.92 2.10476 -3.26546 0
M  V30 12465 H 1203.59 -0.131283 -4.61113 0
M  V30 12466 H 1201.83 -0.192817 -4.33371 0
M  V30 12467 H 1202.5 1.02372 -5.42424 0
M  V30 12468 H 1204.98 1.89387 -3.70502 0
M  V30 12469 H 1203.85 2.88556 -4.66933 0
M  V30 12470 H 1204.11 3.26995 -2.97534 0
M  V30 12471 N 1203.17 1.53854 0.341593 0
M  V30 12472 C 1204.42 1.71447 1.08322 0
M  V30 12473 C 1204.75 0.477289 1.88243 0
M  V30 12474 O 1204.03 -0.525695 1.87261 0
M  V30 12475 C 1204.31 2.97917 2.02281 0
M  V30 12476 C 1204.16 4.31847 1.25809 0
M  V30 12477 C 1205.48 3.20065 3.0207 0
M  V30 12478 H 1202.6 0.623847 0.392408 0
M  V30 12479 H 1205.24 1.86527 0.361594 0
M  V30 12480 H 1203.39 2.85191 2.63815 0
M  V30 12481 H 1205.07 4.56427 0.668737 0
M  V30 12482 H 1203.31 4.30169 0.560119 0
M  V30 12483 H 1203.98 5.16522 1.94704 0
M  V30 12484 H 1206.46 3.32135 2.50651 0
M  V30 12485 H 1205.33 4.09947 3.65013 0
M  V30 12486 H 1205.59 2.36452 3.73554 0
M  V30 12487 N 1204.65 -0.602709 1.4562 0
M  V30 12488 C 1206.07 -0.923983 1.30133 0
M  V30 12489 C 1206.27 -1.99842 0.25796 0
M  V30 12490 O 1205.32 -2.50112 -0.346414 0
M  V30 12491 C 1206.64 -1.36029 2.68173 0
M  V30 12492 C 1208.18 -1.47423 2.76108 0
M  V30 12493 C 1208.66 -1.94427 4.14683 0
M  V30 12494 N 1210.15 -2.01653 4.17002 0
M  V30 12495 C 1210.89 -2.39255 5.211 0
M  V30 12496 N 1210.38 -2.75791 6.3554 0
M  V30 12497 N 1212.17 -2.39636 5.08459 0
M  V30 12498 H 1204.33 0.107377 2.12128 0
M  V30 12499 H 1206.59 -0.0146216 0.947887 0
M  V30 12500 H 1206.29 -0.644949 3.45736 0
M  V30 12501 H 1206.17 -2.32584 2.96959 0
M  V30 12502 H 1208.56 -2.18047 1.98845 0
M  V30 12503 H 1208.64 -0.4917 2.5103 0
M  V30 12504 H 1208.28 -1.24389 4.92433 0
M  V30 12505 H 1208.21 -2.93603 4.37156 0
M  V30 12506 H 1210.7 -1.75988 3.3442 0
M  V30 12507 H 1211.01 -3.03378 7.10761 0
M  V30 12508 H 1209.36 -2.73475 6.38934 0
M  V30 12509 H 1212.55 -2.10502 4.18098 0
M  V30 12510 H 1212.72 -2.68614 5.89704 0
M  V30 12511 N 1206.13 -1.32992 -0.845635 0
M  V30 12512 C 1207.55 -1.12179 -1.13526 0
M  V30 12513 C 1207.75 0.091795 -2.01291 0
M  V30 12514 O 1206.8 0.774051 -2.40343 0
M  V30 12515 C 1208.11 -2.40584 -1.80388 0
M  V30 12516 C 1209.66 -2.46427 -1.92984 0
M  V30 12517 C 1210.14 -3.74776 -2.63261 0
M  V30 12518 N 1211.63 -3.75809 -2.7078 0
M  V30 12519 C 1212.36 -4.71829 -3.2583 0
M  V30 12520 N 1211.86 -5.78219 -3.81621 0
M  V30 12521 N 1213.65 -4.59313 -3.24018 0
M  V30 12522 H 1205.8 -2.10786 -0.261369 0
M  V30 12523 H 1208.07 -0.931053 -0.17845 0
M  V30 12524 H 1207.77 -3.29357 -1.23357 0
M  V30 12525 H 1207.65 -2.52225 -2.80468 0
M  V30 12526 H 1210.03 -1.58108 -2.4917 0
M  V30 12527 H 1210.11 -2.38732 -0.918732 0
M  V30 12528 H 1209.76 -4.63474 -2.07736 0
M  V30 12529 H 1209.69 -3.79746 -3.6483 0
M  V30 12530 H 1212.18 -2.98916 -2.31209 0
M  V30 12531 H 1212.49 -6.47531 -4.2181 0
M  V30 12532 H 1210.84 -5.81962 -3.79927 0
M  V30 12533 H 1214.03 -3.75358 -2.79685 0
M  V30 12534 H 1214.2 -5.34316 -3.6662 0
M  V30 12535 N 1207.61 1.06304 -1.1635 0
M  V30 12536 C 1208.86 1.78747 -0.943074 0
M  V30 12537 C 1209.18 1.87646 0.530483 0
M  V30 12538 O 1208.45 1.38506 1.38538 0
M  V30 12539 H 1207.03 0.662072 -0.345932 0
M  V30 12540 H 1209.69 1.28413 -1.46615 0
M  V30 12541 H 1208.78 2.80828 -1.3617 0
M  V30 12542 N 1209.09 0.96196 1.24836 0
M  V30 12543 C 1210.03 0.48686 2.25607 0
M  V30 12544 C 1211 -0.464546 1.59472 0
M  V30 12545 O 1212.19 -0.376179 1.87055 0
M  V30 12546 C 1209.33 -0.222294 3.44383 0
M  V30 12547 C 1208.44 0.767206 4.25133 0
M  V30 12548 C 1207.58 0.0347458 5.31189 0
M  V30 12549 C 1206.61 1.01469 6.03631 0
M  V30 12550 N 1205.75 0.312619 7.01404 0
M  V30 12551 H 1210.59 1.35104 2.65614 0
M  V30 12552 H 1208.13 0.677373 1.30576 0
M  V30 12553 H 1210.09 -0.650087 4.12104 0
M  V30 12554 H 1208.72 -1.05047 3.0523 0
M  V30 12555 H 1207.77 1.31346 3.57005 0
M  V30 12556 H 1209.08 1.5147 4.75245 0
M  V30 12557 H 1208.23 -0.451325 6.05019 0
M  V30 12558 H 1206.97 -0.745485 4.81969 0
M  V30 12559 H 1205.98 1.51169 5.28609 0
M  V30 12560 H 1207.2 1.79527 6.5494 0
M  V30 12561 H 1205.15 -0.44874 6.54463 0
M  V30 12562 H 1205.07 0.999079 7.49369 0
M  V30 12563 H 1206.33 -0.151673 7.79352 0
M  V30 12564 N 1210.56 -1.39601 0.731392 0
M  V30 12565 C 1211.79 -2.05411 0.286532 0
M  V30 12566 C 1212.21 -1.54777 -1.06892 0
M  V30 12567 O 1211.57 -0.689942 -1.67659 0
M  V30 12568 C 1211.62 -3.594 0.293914 0
M  V30 12569 O 1210.72 -4.06072 -0.719657 0
M  V30 12570 H 1210.06 -0.650949 0.131004 0
M  V30 12571 H 1212.59 -1.78703 0.996305 0
M  V30 12572 H 1212.6 -4.0777 0.137052 0
M  V30 12573 H 1211.28 -3.95617 1.28298 0
M  V30 12574 H 1209.86 -3.69125 -0.529226 0
M  V30 12575 N 1212.04 -0.478751 -1.50152 0
M  V30 12576 C 1212.97 0.301182 -2.31549 0
M  V30 12577 C 1213.95 0.983276 -1.38801 0
M  V30 12578 O 1215.14 0.978973 -1.67719 0
M  V30 12579 C 1212.27 1.3791 -3.18745 0
M  V30 12580 C 1211.22 0.818175 -4.20107 0
M  V30 12581 C 1210.55 1.99496 -4.9609 0
M  V30 12582 C 1211.85 -0.17574 -5.22004 0
M  V30 12583 H 1213.54 -0.378188 -2.97002 0
M  V30 12584 H 1211.09 -0.183323 -1.42828 0
M  V30 12585 H 1213.04 1.93227 -3.74488 0
M  V30 12586 H 1211.77 2.08735 -2.51192 0
M  V30 12587 H 1210.42 0.286924 -3.65475 0
M  V30 12588 H 1210.07 2.69036 -4.25004 0
M  V30 12589 H 1209.77 1.62582 -5.6466 0
M  V30 12590 H 1211.3 2.55288 -5.54671 0
M  V30 12591 H 1212.71 0.288513 -5.72574 0
M  V30 12592 H 1211.11 -0.459549 -5.98338 0
M  V30 12593 H 1212.18 -1.09911 -4.72279 0
M  V30 12594 N 1213.52 1.56172 -0.211661 0
M  V30 12595 C 1214.47 2.19849 0.702515 0
M  V30 12596 C 1215.44 1.15091 1.19763 0
M  V30 12597 O 1216.62 1.43408 1.25852 0
M  V30 12598 C 1213.76 2.87468 1.90935 0
M  V30 12599 C 1212.88 4.06794 1.45406 0
M  V30 12600 C 1212.01 4.62224 2.61769 0
M  V30 12601 C 1211.05 5.73872 2.12926 0
M  V30 12602 N 1210.19 6.23635 3.22526 0
M  V30 12603 H 1215.03 2.97608 0.152777 0
M  V30 12604 H 1212.56 1.46962 0.0636596 0
M  V30 12605 H 1214.52 3.24851 2.61777 0
M  V30 12606 H 1213.15 2.12244 2.43213 0
M  V30 12607 H 1212.2 3.74962 0.640907 0
M  V30 12608 H 1213.52 4.87497 1.05584 0
M  V30 12609 H 1212.67 5.01999 3.40709 0
M  V30 12610 H 1211.41 3.80662 3.04873 0
M  V30 12611 H 1210.41 5.33609 1.32445 0
M  V30 12612 H 1211.64 6.57262 1.70833 0
M  V30 12613 H 1209.58 5.44991 3.65131 0
M  V30 12614 H 1209.5 6.99435 2.86926 0
M  V30 12615 H 1210.77 6.68066 4.01631 0
M  V30 12616 N 1215 -0.0618163 1.57479 0
M  V30 12617 C 1215.93 -1.07252 2.07411 0
M  V30 12618 C 1216.91 -1.39756 0.969649 0
M  V30 12619 O 1218.09 -1.4921 1.24298 0
M  V30 12620 C 1215.22 -2.38313 2.52635 0
M  V30 12621 C 1214.18 -2.20136 3.67048 0
M  V30 12622 C 1213.5 -3.56668 3.98361 0
M  V30 12623 C 1214.8 -1.61437 4.96725 0
M  V30 12624 H 1216.5 -0.656983 2.92103 0
M  V30 12625 H 1214.04 -0.314579 1.40522 0
M  V30 12626 H 1216 -3.09319 2.86181 0
M  V30 12627 H 1214.72 -2.81865 1.64984 0
M  V30 12628 H 1213.38 -1.51569 3.338 0
M  V30 12629 H 1213.03 -3.97809 3.07826 0
M  V30 12630 H 1212.73 -3.45342 4.75408 0
M  V30 12631 H 1214.25 -4.2909 4.34413 0
M  V30 12632 H 1215.67 -2.2232 5.28438 0
M  V30 12633 H 1214.06 -1.60779 5.78161 0
M  V30 12634 H 1215.13 -0.576795 4.81457 0
M  V30 12635 N 1216.48 -1.54033 -0.333429 0
M  V30 12636 C 1217.7 -1.75716 -1.09232 0
M  V30 12637 C 1218.12 -0.501076 -1.82029 0
M  V30 12638 O 1217.48 0.527772 -1.74702 0
M  V30 12639 C 1217.53 -2.9439 -2.09802 0
M  V30 12640 O 1217.25 -4.15141 -1.39963 0
M  V30 12641 C 1218.75 -3.28206 -2.97987 0
M  V30 12642 H 1215.97 -0.586859 -0.325326 0
M  V30 12643 H 1218.51 -2.0089 -0.382555 0
M  V30 12644 H 1216.67 -2.71518 -2.76327 0
M  V30 12645 H 1217.08 -4.81826 -2.0723 0
M  V30 12646 H 1218.56 -4.14568 -3.64469 0
M  V30 12647 H 1219.03 -2.44944 -3.64553 0
M  V30 12648 H 1219.64 -3.5312 -2.37036 0
M  V30 12649 N 1217.95 0.594978 -1.45938 0
M  V30 12650 C 1219.2 1.35561 -1.50834 0
M  V30 12651 C 1219.53 1.93584 -0.154566 0
M  V30 12652 O 1218.81 1.75781 0.832541 0
M  V30 12653 C 1219.09 2.49414 -2.5974 0
M  V30 12654 C 1218.94 1.96506 -4.04605 0
M  V30 12655 C 1220.26 3.51505 -2.64825 0
M  V30 12656 H 1217.38 0.491549 -0.549134 0
M  V30 12657 H 1220.02 0.669536 -1.77812 0
M  V30 12658 H 1218.17 3.07939 -2.36866 0
M  V30 12659 H 1219.85 1.42533 -4.38728 0
M  V30 12660 H 1218.09 1.27418 -4.14665 0
M  V30 12661 H 1218.76 2.78636 -4.76515 0
M  V30 12662 H 1221.24 3.02841 -2.85353 0
M  V30 12663 H 1220.11 4.28641 -3.42867 0
M  V30 12664 H 1220.37 4.07942 -1.70399 0
M  V30 12665 N 1219.43 1.33438 0.838571 0
M  V30 12666 C 1220.71 1.1551 1.5785 0
M  V30 12667 C 1221.09 -0.278405 2.09256 0
M  V30 12668 O 1220.44 -1.27748 1.89453 0
M  V30 12669 C 1220.65 2.19647 2.71212 0
M  V30 12670 C 1222 2.53818 3.40384 0
M  V30 12671 O 1223.02 2.18317 2.81454 0
M  V30 12672 O 1221.88 3.14741 4.46766 0
M  V30 12673 H 1218.97 0.446785 0.695925 0
M  V30 12674 H 1221.52 1.45021 0.8813 0
M  V30 12675 H 1220.29 3.15936 2.30869 0
M  V30 12676 H 1219.91 1.91224 3.48596 0
M  V30 12677 N 1220.91 -1.05686 1.16912 0
M  V30 12678 C 1222.19 -1.7546 0.864483 0
M  V30 12679 C 1222.57 -2.0128 -0.636359 0
M  V30 12680 O 1221.92 -1.64485 -1.58609 0
M  V30 12681 C 1222.13 -3.05134 1.69395 0
M  V30 12682 C 1223.47 -3.79176 1.91079 0
M  V30 12683 O 1224.5 -3.1499 1.66312 0
M  V30 12684 O 1223.36 -4.94496 2.32671 0
M  V30 12685 H 1220.45 -0.762748 0.319601 0
M  V30 12686 H 1223 -1.11899 1.27581 0
M  V30 12687 H 1221.77 -2.82063 2.71212 0
M  V30 12688 H 1221.39 -3.76431 1.28007 0
M  V30 12689 N 1222.39 -0.968567 -1.24324 0
M  V30 12690 C 1223.32 -0.457247 -2.24593 0
M  V30 12691 C 1224.33 0.434483 -1.56895 0
M  V30 12692 O 1225.52 0.240519 -1.76872 0
M  V30 12693 C 1222.62 0.359086 -3.36992 0
M  V30 12694 C 1221.8 -0.522945 -4.34263 0
M  V30 12695 C 1220.85 0.237528 -5.25664 0
M  V30 12696 O 1219.88 -0.368835 -5.68004 0
M  V30 12697 N 1221.08 1.52686 -5.6006 0
M  V30 12698 H 1223.85 -1.31934 -2.69098 0
M  V30 12699 H 1221.41 -0.840488 -1.38374 0
M  V30 12700 H 1223.4 0.87589 -3.95108 0
M  V30 12701 H 1221.97 1.12212 -2.91766 0
M  V30 12702 H 1221.19 -1.22071 -3.74823 0
M  V30 12703 H 1222.48 -1.12447 -4.96219 0
M  V30 12704 H 1221.88 2.0412 -5.2759 0
M  V30 12705 H 1220.43 1.98934 -6.207 0
M  V30 12706 N 1223.87 1.39211 -0.738786 0
M  V30 12707 C 1224.8 2.29117 -0.0616489 0
M  V30 12708 C 1225.81 1.47008 0.699462 0
M  V30 12709 O 1227 1.70041 0.542998 0
M  V30 12710 C 1224.1 3.25692 0.936893 0
M  V30 12711 C 1223.27 4.3676 0.236515 0
M  V30 12712 C 1222.33 5.1362 1.1437 0
M  V30 12713 O 1221.36 5.65816 0.619762 0
M  V30 12714 N 1222.56 5.25184 2.4731 0
M  V30 12715 H 1225.33 2.8787 -0.833711 0
M  V30 12716 H 1222.89 1.50832 -0.588323 0
M  V30 12717 H 1224.88 3.73987 1.54648 0
M  V30 12718 H 1223.45 2.67943 1.61014 0
M  V30 12719 H 1222.67 3.90293 -0.553594 0
M  V30 12720 H 1223.96 5.08192 -0.248707 0
M  V30 12721 H 1223.35 4.84302 2.92349 0
M  V30 12722 H 1221.91 5.76905 3.03355 0
M  V30 12723 N 1225.34 0.486708 1.49896 0
M  V30 12724 C 1226.31 -0.288126 2.27382 0
M  V30 12725 C 1227.31 -0.906675 1.32801 0
M  V30 12726 O 1228.5 -0.773425 1.56089 0
M  V30 12727 C 1225.63 -1.41194 3.10285 0
M  V30 12728 H 1226.82 0.391618 2.97332 0
M  V30 12729 H 1224.38 0.24123 1.54427 0
M  V30 12730 H 1225.11 -2.12627 2.44868 0
M  V30 12731 H 1224.9 -0.974033 3.79809 0
M  V30 12732 H 1226.39 -1.95812 3.68846 0
M  V30 12733 N 1226.82 -1.56058 0.219941 0
M  V30 12734 C 1227.76 -2.16182 -0.730796 0
M  V30 12735 C 1228.73 -1.10574 -1.19215 0
M  V30 12736 O 1229.92 -1.38821 -1.27518 0
M  V30 12737 C 1227.05 -2.7408 -1.98992 0
M  V30 12738 C 1226.09 -3.92502 -1.66867 0
M  V30 12739 S 1226.92 -5.29568 -0.794875 0
M  V30 12740 C 1228.08 -5.90903 -2.0636 0
M  V30 12741 H 1228.31 -2.96487 -0.219762 0
M  V30 12742 H 1225.85 -1.54399 0.00465254 0
M  V30 12743 H 1227.8 -3.08078 -2.7129 0
M  V30 12744 H 1226.47 -1.93771 -2.47207 0
M  V30 12745 H 1225.66 -4.31509 -2.60414 0
M  V30 12746 H 1225.26 -3.59642 -1.02633 0
M  V30 12747 H 1227.55 -6.06778 -3.01374 0
M  V30 12748 H 1228.5 -6.86957 -1.71745 0
M  V30 12749 H 1228.9 -5.19722 -2.2034 0
M  V30 12750 N 1228.3 0.053464 -1.57509 0
M  V30 12751 C 1229.53 0.761533 -1.92375 0
M  V30 12752 C 1229.94 1.70179 -0.817585 0
M  V30 12753 O 1229.3 1.81313 0.207843 0
M  V30 12754 C 1229.35 1.53954 -3.27078 0
M  V30 12755 O 1229.07 0.637054 -4.33443 0
M  V30 12756 C 1230.57 2.34697 -3.76075 0
M  V30 12757 H 1227.79 0.215483 -0.635459 0
M  V30 12758 H 1230.34 0.0182624 -2.04492 0
M  V30 12759 H 1228.49 2.23492 -3.16434 0
M  V30 12760 H 1228.91 1.18006 -5.11053 0
M  V30 12761 H 1230.38 2.84716 -4.72906 0
M  V30 12762 H 1230.86 3.15041 -3.06016 0
M  V30 12763 H 1231.46 1.70281 -3.89724 0
M  V30 12764 N 1229.78 1.54207 0.325255 0
M  V30 12765 C 1231.03 1.71991 1.0613 0
M  V30 12766 C 1231.35 0.495505 1.88599 0
M  V30 12767 O 1230.62 -0.490504 1.8966 0
M  V30 12768 H 1229.2 0.634137 0.394816 0
M  V30 12769 H 1231.86 1.91507 0.362101 0
M  V30 12770 H 1230.96 2.59878 1.72829 0
M  V30 12771 N 1231.26 -0.58723 1.46251 0
M  V30 12772 C 1232.19 -1.71103 1.52501 0
M  V30 12773 C 1233.2 -1.57454 0.413772 0
M  V30 12774 O 1234.39 -1.64962 0.681902 0
M  V30 12775 C 1231.49 -3.0931 1.38493 0
M  V30 12776 C 1230.66 -3.49005 2.63655 0
M  V30 12777 C 1229.72 -4.66255 2.43911 0
M  V30 12778 O 1228.75 -4.72344 3.17616 0
M  V30 12779 N 1229.95 -5.60843 1.49784 0
M  V30 12780 H 1232.72 -1.66198 2.49396 0
M  V30 12781 H 1230.28 -0.773087 1.4225 0
M  V30 12782 H 1232.27 -3.85535 1.23064 0
M  V30 12783 H 1230.84 -3.08608 0.497963 0
M  V30 12784 H 1230.06 -2.62533 2.94058 0
M  V30 12785 H 1231.35 -3.72291 3.4681 0
M  V30 12786 H 1230.75 -5.58656 0.889972 0
M  V30 12787 H 1229.3 -6.36517 1.4032 0
M  V30 12788 N 1232.74 -1.33881 -0.831482 0
M  V30 12789 C 1233.67 -1.19089 -1.94661 0
M  V30 12790 C 1234.65 -0.0845706 -1.6238 0
M  V30 12791 O 1235.83 -0.248163 -1.86859 0
M  V30 12792 C 1232.96 -0.828223 -3.28418 0
M  V30 12793 C 1232 -1.94309 -3.79666 0
M  V30 12794 S 1232.84 -3.55524 -4.00454 0
M  V30 12795 C 1233.99 -3.21279 -5.3715 0
M  V30 12796 H 1234.23 -2.13484 -2.0691 0
M  V30 12797 H 1231.76 -1.18809 -0.986098 0
M  V30 12798 H 1233.72 -0.625759 -4.05702 0
M  V30 12799 H 1232.38 0.0972457 -3.13949 0
M  V30 12800 H 1231.57 -1.64288 -4.76472 0
M  V30 12801 H 1231.17 -2.1026 -3.093 0
M  V30 12802 H 1233.46 -2.72563 -6.20255 0
M  V30 12803 H 1234.41 -4.17193 -5.7215 0
M  V30 12804 H 1234.82 -2.57683 -5.02255 0
M  V30 12805 N 1234.21 1.05064 -1.1747 0
M  V30 12806 C 1235.18 2.1101 -0.89485 0
M  V30 12807 C 1236.18 1.60384 0.11553 0
M  V30 12808 O 1237.37 1.73808 -0.116785 0
M  V30 12809 C 1234.5 3.39194 -0.340642 0
M  V30 12810 H 1235.69 2.37269 -1.83421 0
M  V30 12811 H 1233.24 1.21329 -0.985343 0
M  V30 12812 H 1233.98 3.18591 0.605808 0
M  V30 12813 H 1233.76 3.77251 -1.06885 0
M  V30 12814 H 1235.25 4.17281 -0.163204 0
M  V30 12815 N 1235.69 0.975146 1.23809 0
M  V30 12816 C 1236.94 0.639858 1.91704 0
M  V30 12817 C 1237.26 -0.828557 1.76522 0
M  V30 12818 O 1236.53 -1.59217 1.14135 0
M  V30 12819 H 1235.11 0.233667 0.709513 0
M  V30 12820 H 1237.77 1.23782 1.50545 0
M  V30 12821 H 1236.87 0.886915 2.99233 0
M  V30 12822 N 1237.17 -1.38817 0.746158 0
M  V30 12823 C 1238.45 -1.94303 0.224841 0
M  V30 12824 C 1238.83 -1.68207 -1.27552 0
M  V30 12825 O 1238.17 -1.01647 -2.04646 0
M  V30 12826 C 1238.38 -3.44306 0.5705 0
M  V30 12827 C 1239.73 -4.21329 0.526015 0
M  V30 12828 O 1240.76 -3.52554 0.508351 0
M  V30 12829 O 1239.62 -5.4392 0.530383 0
M  V30 12830 H 1236.71 -0.825785 0.0448047 0
M  V30 12831 H 1239.26 -1.48253 0.825775 0
M  V30 12832 H 1238.03 -3.56779 1.60701 0
M  V30 12833 H 1237.65 -3.97556 -0.0588271 0
M  V30 12834 N 1238.65 -0.49465 -1.49636 0
M  V30 12835 C 1239.6 0.306278 -2.25933 0
M  V30 12836 C 1240.58 0.941082 -1.30508 0
M  V30 12837 O 1241.77 0.849732 -1.55269 0
M  V30 12838 C 1238.9 1.3739 -3.14609 0
M  V30 12839 C 1237.99 0.745657 -4.17493 0
M  V30 12840 N 1238.38 -0.147977 -5.05583 0
M  V30 12841 C 1236.68 1.00696 -4.34484 0
M  V30 12842 C 1237.38 -0.506949 -5.79487 0
M  V30 12843 N 1236.35 0.123603 -5.43459 0
M  V30 12844 H 1240.16 -0.381753 -2.9141 0
M  V30 12845 H 1237.67 -0.310311 -1.59408 0
M  V30 12846 H 1239.67 1.96108 -3.67896 0
M  V30 12847 H 1238.33 2.06368 -2.50684 0
M  V30 12848 H 1239.34 -0.518378 -5.15299 0
M  V30 12849 H 1236.02 1.68996 -3.81768 0
M  V30 12850 H 1237.41 -1.23766 -6.60403 0
M  V30 12851 N 1240.13 1.55939 -0.228214 0
M  V30 12852 C 1241.35 2.0287 0.406348 0
M  V30 12853 C 1241.77 1.1079 1.52876 0
M  V30 12854 O 1241.13 0.118747 1.82113 0
M  V30 12855 C 1241.18 3.49286 0.931734 0
M  V30 12856 O 1240.9 4.37857 -0.145933 0
M  V30 12857 C 1242.4 4.11893 1.63887 0
M  V30 12858 H 1239.62 0.663696 0.0987358 0
M  V30 12859 H 1242.16 2.01541 -0.346616 0
M  V30 12860 H 1240.32 3.5121 1.63494 0
M  V30 12861 H 1240.73 5.23904 0.250005 0
M  V30 12862 H 1242.21 5.16091 1.95841 0
M  V30 12863 H 1242.68 3.57281 2.55435 0
M  V30 12864 H 1243.29 4.13839 0.980697 0
M  V30 12865 N 1241.6 -0.0451101 1.57535 0
M  V30 12866 C 1243.02 -0.400463 1.54494 0
M  V30 12867 C 1243.22 -1.77584 0.952166 0
M  V30 12868 O 1242.28 -2.46069 0.566221 0
M  V30 12869 C 1243.59 -0.31703 2.99024 0
M  V30 12870 C 1245.14 -0.395284 3.10494 0
M  V30 12871 C 1245.61 -0.341475 4.56725 0
M  V30 12872 N 1247.1 -0.400755 4.61463 0
M  V30 12873 C 1247.84 -0.381757 5.72128 0
M  V30 12874 N 1247.33 -0.315995 6.92079 0
M  V30 12875 N 1249.13 -0.4303 5.60451 0
M  V30 12876 H 1241.28 0.855156 1.94424 0
M  V30 12877 H 1243.54 0.323618 0.891053 0
M  V30 12878 H 1243.25 0.627477 3.46057 0
M  V30 12879 H 1243.12 -1.11696 3.60283 0
M  V30 12880 H 1245.51 -1.33022 2.63418 0
M  V30 12881 H 1245.59 0.433709 2.52096 0
M  V30 12882 H 1245.23 0.589725 5.04465 0
M  V30 12883 H 1245.16 -1.18836 5.13016 0
M  V30 12884 H 1247.65 -0.454745 3.75154 0
M  V30 12885 H 1247.97 -0.306158 7.72193 0
M  V30 12886 H 1246.31 -0.282281 6.94427 0
M  V30 12887 H 1249.5 -0.479555 4.65637 0
M  V30 12888 H 1249.68 -0.412025 6.46689 0
M  V30 12889 N 1243.08 -1.54377 -0.317073 0
M  V30 12890 C 1244.01 -1.8721 -1.39552 0
M  V30 12891 C 1244.99 -0.729483 -1.53664 0
M  V30 12892 O 1246.18 -0.983799 -1.67437 0
M  V30 12893 C 1243.31 -2.1052 -2.76222 0
M  V30 12894 C 1242.26 -3.26366 -2.76892 0
M  V30 12895 C 1241.59 -3.35061 -4.16699 0
M  V30 12896 C 1242.89 -4.63862 -2.40061 0
M  V30 12897 H 1244.58 -2.77532 -1.12323 0
M  V30 12898 H 1242.13 -1.33536 -0.538897 0
M  V30 12899 H 1244.08 -2.32073 -3.51739 0
M  V30 12900 H 1242.81 -1.16953 -3.04942 0
M  V30 12901 H 1241.46 -3.0471 -2.03831 0
M  V30 12902 H 1241.11 -2.39041 -4.4257 0
M  V30 12903 H 1240.81 -4.12923 -4.18053 0
M  V30 12904 H 1242.34 -3.58856 -4.94019 0
M  V30 12905 H 1243.75 -4.85252 -3.05292 0
M  V30 12906 H 1242.15 -5.44321 -2.52655 0
M  V30 12907 H 1243.22 -4.6567 -1.35202 0
M  V30 12908 N 1244.56 0.579466 -1.4656 0
M  V30 12909 C 1245.47 1.71609 -1.59961 0
M  V30 12910 C 1246.49 1.67162 -0.483002 0
M  V30 12911 O 1247.66 1.87012 -0.747561 0
M  V30 12912 C 1244.73 3.08114 -1.58954 0
M  V30 12913 C 1243.79 3.238 -2.81872 0
M  V30 12914 C 1243.02 4.53794 -2.80904 0
M  V30 12915 O 1243.24 5.37884 -1.89835 0
M  V30 12916 O 1242.18 4.72796 -3.72488 0
M  V30 12917 H 1246 1.6325 -2.56092 0
M  V30 12918 H 1243.59 0.746891 -1.2939 0
M  V30 12919 H 1245.47 3.8939 -1.611 0
M  V30 12920 H 1244.15 3.16903 -0.65984 0
M  V30 12921 H 1243.05 2.42006 -2.85279 0
M  V30 12922 H 1244.39 3.19904 -3.74062 0
M  V30 12923 N 1246.04 1.3432 0.824371 0
M  V30 12924 C 1247.29 1.26595 1.5805 0
M  V30 12925 C 1247.61 -0.164471 1.93803 0
M  V30 12926 O 1246.87 -1.12537 1.60106 0
M  V30 12927 C 1247.17 2.1008 2.89139 0
M  V30 12928 C 1246.83 3.59102 2.72684 0
M  V30 12929 C 1245.5 3.99726 2.67904 0
M  V30 12930 C 1247.85 4.53736 2.56463 0
M  V30 12931 C 1245.18 5.33178 2.44822 0
M  V30 12932 C 1247.53 5.87366 2.34913 0
M  V30 12933 C 1246.19 6.27155 2.28544 0
M  V30 12934 H 1245.46 0.463245 0.578347 0
M  V30 12935 H 1248.11 1.66048 0.953948 0
M  V30 12936 H 1246.41 1.6345 3.56078 0
M  V30 12937 H 1248.11 2.01451 3.46726 0
M  V30 12938 H 1244.7 3.26855 2.77244 0
M  V30 12939 H 1248.88 4.23248 2.5918 0
M  V30 12940 H 1244.14 5.63028 2.38348 0
M  V30 12941 H 1248.31 6.60286 2.21349 0
M  V30 12942 H 1245.94 7.30498 2.1042 0
M  V30 12943 N 1247.52 -1.0444 1.18026 0
M  V30 12944 C 1248.47 -2.10671 0.871877 0
M  V30 12945 C 1249.45 -1.60134 -0.156798 0
M  V30 12946 O 1250.64 -1.76938 0.0467129 0
M  V30 12947 C 1247.77 -3.41017 0.395271 0
M  V30 12948 C 1246.86 -3.98331 1.4558 0
M  V30 12949 N 1247.25 -4.29508 2.67127 0
M  V30 12950 C 1245.55 -4.2616 1.31544 0
M  V30 12951 C 1246.25 -4.7532 3.35329 0
M  V30 12952 N 1245.22 -4.75904 2.6271 0
M  V30 12953 H 1249.03 -2.32647 1.79589 0
M  V30 12954 H 1246.54 -1.22158 1.0701 0
M  V30 12955 H 1248.54 -4.16609 0.155861 0
M  V30 12956 H 1247.2 -3.20469 -0.522452 0
M  V30 12957 H 1248.21 -4.19271 3.04027 0
M  V30 12958 H 1244.88 -4.14959 0.459962 0
M  V30 12959 H 1246.27 -5.08493 4.39186 0
M  V30 12960 N 1248.99 -0.981699 -1.2329 0
M  V30 12961 C 1249.94 -0.515432 -2.26817 0
M  V30 12962 C 1250.94 0.428204 -1.63899 0
M  V30 12963 O 1252.14 0.301954 -1.77449 0
M  V30 12964 H 1248.52 -0.148257 -0.737241 0
M  V30 12965 H 1250.49 -1.40027 -2.63505 0
M  V30 12966 C 1249.24 0.165266 -3.47307 0
M  V30 12967 H 1248.56 -0.55176 -3.95974 0
M  V30 12968 H 1250 0.45513 -4.2155 0
M  V30 12969 C 1248.46 1.39693 -3.06574 0
M  V30 12970 O 1248.99 2.49308 -3.14974 0
M  V30 12971 N 1247.2 1.26806 -2.61474 0
M  V30 12972 H 1246.74 0.376161 -2.54839 0
M  V30 12973 H 1246.7 2.09324 -2.34587 0
M  V30 12974 N 1250.47 1.3842 -0.753509 0
M  V30 12975 C 1251.72 1.99359 -0.306416 0
M  V30 12976 C 1252.03 1.60492 1.11811 0
M  V30 12977 O 1253.24 2.14401 1.66567 0
M  V30 12978 C 1251.7 3.56453 -0.496895 0
M  V30 12979 C 1251.3 4.04272 -1.9305 0
M  V30 12980 C 1253.05 4.24351 -0.11251 0
M  V30 12981 C 1250.96 5.54007 -2.06955 0
M  V30 12982 H 1249.89 0.745812 -0.110818 0
M  V30 12983 H 1252.54 1.58185 -0.930039 0
M  V30 12984 H 1250.92 3.95515 0.195912 0
M  V30 12985 H 1252.09 3.765 -2.65677 0
M  V30 12986 H 1250.41 3.49098 -2.26979 0
M  V30 12987 H 1253 5.34344 -0.195161 0
M  V30 12988 H 1253.35 4.05668 0.934849 0
M  V30 12989 H 1253.88 3.90528 -0.757168 0
M  V30 12990 H 1250.62 5.77594 -3.09944 0
M  V30 12991 H 1250.14 5.83522 -1.38788 0
M  V30 12992 H 1251.82 6.19704 -1.85945 0
M  V30 12993 N 1251.95 0.502579 1.49372 0
M  V30 12994 C 1252.86 -0.279532 2.32929 0
M  V30 12995 C 1253.88 -0.965806 1.44735 0
M  V30 12996 O 1255.05 -0.946839 1.77755 0
M  V30 12997 C 1252.12 -1.32913 3.20211 0
M  V30 12998 C 1251.18 -0.656121 4.24256 0
M  V30 12999 C 1250.41 -1.65571 5.07368 0
M  V30 13000 O 1250.63 -2.88571 4.92019 0
M  V30 13001 O 1249.57 -1.21016 5.89609 0
M  V30 13002 H 1253.39 0.404427 3.00995 0
M  V30 13003 H 1250.98 0.263888 1.47051 0
M  V30 13004 H 1252.86 -1.93635 3.74277 0
M  V30 13005 H 1251.54 -1.99598 2.54837 0
M  V30 13006 H 1250.44 -0.00911489 3.74099 0
M  V30 13007 H 1251.78 -0.0316802 4.9219 0
M  V30 13008 N 1253.43 -1.55816 0.23648 0
M  V30 13009 C 1254.66 -2.03083 -0.395584 0
M  V30 13010 C 1255.07 -1.11599 -1.52286 0
M  V30 13011 O 1254.43 -0.128403 -1.82048 0
M  V30 13012 C 1254.48 -3.49776 -0.913197 0
M  V30 13013 O 1254.2 -4.37773 0.169151 0
M  V30 13014 C 1255.7 -4.12756 -1.617 0
M  V30 13015 H 1252.92 -0.66421 -0.0952146 0
M  V30 13016 H 1255.47 -2.01354 0.357299 0
M  V30 13017 H 1253.62 -3.52072 -1.6163 0
M  V30 13018 H 1254.03 -5.24029 -0.222217 0
M  V30 13019 H 1255.51 -5.17123 -1.93101 0
M  V30 13020 H 1255.99 -3.58631 -2.53537 0
M  V30 13021 H 1256.59 -4.14353 -0.958736 0
M  V30 13022 N 1254.91 0.036755 -1.57557 0
M  V30 13023 C 1256.15 0.727665 -1.88546 0
M  V30 13024 C 1256.48 1.76304 -0.833179 0
M  V30 13025 O 1255.75 1.9544 0.13414 0
M  V30 13026 H 1254.33 0.271744 -0.695819 0
M  V30 13027 H 1256.99 0.00452915 -1.94899 0
M  V30 13028 H 1256.08 1.22205 -2.8718 0
M  V30 13029 N 1256.39 1.54543 0.308881 0
M  V30 13030 C 1257.63 1.7266 1.04266 0
M  V30 13031 C 1257.95 0.51518 1.88694 0
M  V30 13032 O 1259.15 0.577988 2.65276 0
M  V30 13033 C 1257.61 3.05448 1.9034 0
M  V30 13034 C 1257.22 4.34043 1.10953 0
M  V30 13035 C 1258.96 3.32925 2.63365 0
M  V30 13036 C 1256.87 5.57886 1.96258 0
M  V30 13037 H 1255.8 0.643485 0.392992 0
M  V30 13038 H 1258.45 1.8103 0.300077 0
M  V30 13039 H 1256.83 2.91023 2.68555 0
M  V30 13040 H 1258.01 4.59279 0.374069 0
M  V30 13041 H 1256.32 4.13442 0.495453 0
M  V30 13042 H 1258.92 4.22649 3.27524 0
M  V30 13043 H 1259.26 2.51451 3.3178 0
M  V30 13044 H 1259.79 3.48285 1.92204 0
M  V30 13045 H 1256.53 6.42005 1.32326 0
M  V30 13046 H 1256.05 5.36847 2.67498 0
M  V30 13047 H 1257.73 5.94846 2.54494 0
M  V30 13048 N 1257.86 -0.571685 1.46866 0
M  V30 13049 C 1259.11 -1.32574 1.5201 0
M  V30 13050 C 1259.43 -1.94762 0.180838 0
M  V30 13051 O 1260.63 -2.71276 0.110158 0
M  V30 13052 C 1259.09 -2.40331 2.67897 0
M  V30 13053 C 1258.7 -1.84398 4.08291 0
M  V30 13054 C 1260.44 -3.17009 2.82321 0
M  V30 13055 C 1258.35 -2.89849 5.15501 0
M  V30 13056 H 1257.28 -0.498428 0.565761 0
M  V30 13057 H 1259.93 -0.608853 1.73105 0
M  V30 13058 H 1258.31 -3.14869 2.40153 0
M  V30 13059 H 1259.48 -1.16329 4.45875 0
M  V30 13060 H 1257.8 -1.20351 3.98628 0
M  V30 13061 H 1260.4 -3.95729 3.59587 0
M  V30 13062 H 1260.74 -3.70292 1.90236 0
M  V30 13063 H 1261.27 -2.4958 3.09765 0
M  V30 13064 H 1258.01 -2.4144 6.09415 0
M  V30 13065 H 1257.53 -3.56372 4.82451 0
M  V30 13066 H 1259.21 -3.53603 5.41825 0
M  V30 13067 N 1259.34 -1.34755 -0.817236 0
M  V30 13068 C 1260.57 -1.30522 -1.60536 0
M  V30 13069 C 1260.98 0.119541 -1.88421 0
M  V30 13070 O 1260.34 1.06833 -1.47962 0
M  V30 13071 C 1260.39 -2.09939 -2.94292 0
M  V30 13072 O 1260.11 -3.46858 -2.67621 0
M  V30 13073 C 1261.61 -2.13168 -3.88683 0
M  V30 13074 H 1258.83 -0.448789 -0.498828 0
M  V30 13075 H 1261.38 -1.77453 -1.01639 0
M  V30 13076 H 1259.53 -1.66634 -3.49731 0
M  V30 13077 H 1259.95 -3.87979 -3.52949 0
M  V30 13078 H 1261.42 -2.73147 -4.79682 0
M  V30 13079 H 1261.9 -1.12758 -4.24479 0
M  V30 13080 H 1262.5 -2.56587 -3.39181 0
M  V30 13081 N 1260.82 1.03812 -1.18578 0
M  V30 13082 C 1261.73 2.15371 -0.930182 0
M  V30 13083 C 1262.75 1.73673 0.106599 0
M  V30 13084 O 1263.92 2.01257 -0.0759054 0
M  V30 13085 C 1260.99 3.43606 -0.462151 0
M  V30 13086 C 1260.05 3.99671 -1.5672 0
M  V30 13087 C 1259.28 5.21785 -1.12141 0
M  V30 13088 O 1259.5 5.70397 0.0188357 0
M  V30 13089 O 1258.44 5.70449 -1.9202 0
M  V30 13090 H 1262.26 2.39791 -1.86371 0
M  V30 13091 H 1259.85 1.13814 -0.967819 0
M  V30 13092 H 1261.73 4.2088 -0.20934 0
M  V30 13093 H 1260.41 3.20654 0.443052 0
M  V30 13094 H 1259.31 3.23774 -1.87406 0
M  V30 13095 H 1260.65 4.2697 -2.44862 0
M  V30 13096 N 1262.3 0.988223 1.22768 0
M  V30 13097 C 1263.71 0.69816 1.4352 0
M  V30 13098 C 1263.91 -0.732872 1.877 0
M  V30 13099 O 1262.97 -1.50436 2.02793 0
M  V30 13100 C 1264.28 1.69975 2.4805 0
M  V30 13101 C 1265.83 1.71467 2.61855 0
M  V30 13102 C 1266.31 2.70477 3.69603 0
M  V30 13103 N 1267.8 2.69043 3.77055 0
M  V30 13104 C 1268.53 3.42319 4.60006 0
M  V30 13105 N 1268.03 4.2518 5.46986 0
M  V30 13106 N 1269.82 3.31047 4.54274 0
M  V30 13107 H 1261.97 1.91251 0.923948 0
M  V30 13108 H 1264.23 0.82455 0.467783 0
M  V30 13109 H 1263.94 2.72354 2.22523 0
M  V30 13110 H 1263.81 1.48885 3.46573 0
M  V30 13111 H 1266.2 0.697889 2.86729 0
M  V30 13112 H 1266.28 1.96625 1.63622 0
M  V30 13113 H 1265.93 3.72302 3.45476 0
M  V30 13114 H 1265.86 2.42591 4.67394 0
M  V30 13115 H 1268.35 2.08914 3.14902 0
M  V30 13116 H 1268.66 4.77929 6.07292 0
M  V30 13117 H 1267.01 4.29268 5.46584 0
M  V30 13118 H 1270.2 2.65758 3.85345 0
M  V30 13119 H 1270.37 3.88413 5.1869 0
M  V30 13120 N 1263.78 -1.38018 0.760839 0
M  V30 13121 C 1265.19 -1.53437 0.439239 0
M  V30 13122 C 1265.39 -1.72184 -1.04666 0
M  V30 13123 O 1264.45 -1.73698 -1.83263 0
M  V30 13124 C 1265.76 -2.73724 1.24481 0
M  V30 13125 C 1267.31 -2.87579 1.23561 0
M  V30 13126 C 1267.78 -4.10836 2.02429 0
M  V30 13127 N 1269.27 -4.17928 1.99727 0
M  V30 13128 C 1270.01 -5.12309 2.57541 0
M  V30 13129 N 1269.51 -6.12317 3.24098 0
M  V30 13130 N 1271.3 -5.04712 2.47431 0
M  V30 13131 H 1263.45 -1.241 1.72375 0
M  V30 13132 H 1265.71 -0.603427 0.73115 0
M  V30 13133 H 1265.42 -2.663 2.29732 0
M  V30 13134 H 1265.29 -3.67111 0.866579 0
M  V30 13135 H 1267.68 -2.9448 0.191122 0
M  V30 13136 H 1267.76 -1.95183 1.6534 0
M  V30 13137 H 1267.4 -4.04696 3.06893 0
M  V30 13138 H 1267.33 -5.02326 1.58039 0
M  V30 13139 H 1269.83 -3.46307 1.51262 0
M  V30 13140 H 1270.14 -6.80842 3.65615 0
M  V30 13141 H 1268.48 -6.12628 3.28195 0
M  V30 13142 H 1271.67 -4.25524 1.95057 0
M  V30 13143 H 1271.85 -5.78085 2.92783 0
M  V30 13144 N 1265.25 -0.510493 -1.49103 0
M  V30 13145 C 1266.48 0.0271324 -2.06582 0
M  V30 13146 C 1266.89 1.30499 -1.36991 0
M  V30 13147 O 1266.23 1.78229 -0.444976 0
M  V30 13148 C 1266.3 0.341488 -3.57874 0
M  V30 13149 C 1265.96 -0.840037 -4.49213 0
M  V30 13150 C 1266.96 -1.73315 -4.90161 0
M  V30 13151 C 1264.64 -1.04153 -4.91383 0
M  V30 13152 C 1266.64 -2.81182 -5.72028 0
M  V30 13153 C 1264.32 -2.12336 -5.73024 0
M  V30 13154 C 1265.32 -3.00684 -6.13252 0
M  V30 13155 O 1265.01 -4.06999 -6.93258 0
M  V30 13156 H 1264.74 -0.0215383 -0.675657 0
M  V30 13157 H 1267.3 -0.709841 -1.92744 0
M  V30 13158 H 1265.53 1.13218 -3.69755 0
M  V30 13159 H 1267.21 0.818859 -3.97554 0
M  V30 13160 H 1267.98 -1.58934 -4.58219 0
M  V30 13161 H 1263.86 -0.363199 -4.59567 0
M  V30 13162 H 1267.4 -3.50169 -6.03347 0
M  V30 13163 H 1263.3 -2.26708 -6.04379 0
M  V30 13164 H 1264.07 -4.04469 -7.11581 0
M  V30 13165 N 1266.73 1.55688 -0.24474 0
M  V30 13166 C 1267.66 2.24272 0.64995 0
M  V30 13167 C 1268.64 1.22226 1.183 0
M  V30 13168 O 1269.83 1.50873 1.22274 0
M  V30 13169 C 1266.96 2.94053 1.84798 0
M  V30 13170 C 1265.91 4.02769 1.44779 0
M  V30 13171 C 1265.24 4.59965 2.72647 0
M  V30 13172 C 1266.54 5.18601 0.62047 0
M  V30 13173 H 1268.23 2.99298 0.0780654 0
M  V30 13174 H 1265.78 1.43955 0.0361069 0
M  V30 13175 H 1267.73 3.40732 2.47951 0
M  V30 13176 H 1266.45 2.16511 2.44521 0
M  V30 13177 H 1265.11 3.56856 0.839609 0
M  V30 13178 H 1264.76 3.79126 3.30564 0
M  V30 13179 H 1264.46 5.33352 2.46596 0
M  V30 13180 H 1265.99 5.09376 3.36703 0
M  V30 13181 H 1267.4 5.61519 1.15625 0
M  V30 13182 H 1265.8 5.98364 0.456097 0
M  V30 13183 H 1266.87 4.83503 -0.367798 0
M  V30 13184 N 1268.21 -0.0283989 1.57574 0
M  V30 13185 C 1269.43 -0.734537 1.93957 0
M  V30 13186 C 1269.86 -1.68062 0.844787 0
M  V30 13187 O 1269.22 -1.802 -0.199432 0
M  V30 13188 C 1269.27 -1.46716 3.29404 0
M  V30 13189 O 1268.37 -2.58036 3.217 0
M  V30 13190 H 1267.71 -0.197507 0.633946 0
M  V30 13191 H 1270.24 0.0163258 2.04593 0
M  V30 13192 H 1270.25 -1.83693 3.64309 0
M  V30 13193 H 1268.93 -0.773292 4.08648 0
M  V30 13194 H 1267.5 -2.23597 2.98427 0
M  V30 13195 N 1269.69 -1.54705 -0.300681 0
M  V30 13196 C 1270.91 -1.78318 -1.05913 0
M  V30 13197 C 1271.34 -0.541177 -1.80147 0
M  V30 13198 O 1270.7 0.508291 -1.74029 0
M  V30 13199 C 1270.74 -2.99041 -2.01511 0
M  V30 13200 O 1269.85 -2.72188 -3.09818 0
M  V30 13201 H 1269.19 -0.590197 -0.304242 0
M  V30 13202 H 1271.72 -2.01789 -0.338006 0
M  V30 13203 H 1271.73 -3.2702 -2.43971 0
M  V30 13204 H 1270.4 -3.89098 -1.46886 0
M  V30 13205 H 1268.98 -2.55227 -2.71871 0
M  V30 13206 N 1271.17 0.563888 -1.47167 0
M  V30 13207 C 1272.41 1.32331 -1.53676 0
M  V30 13208 C 1272.75 1.93213 -0.195593 0
M  V30 13209 O 1272.02 1.77508 0.795068 0
M  V30 13210 C 1272.3 2.43848 -2.64972 0
M  V30 13211 C 1272.16 1.8788 -4.08682 0
M  V30 13212 C 1273.48 3.45809 -2.72221 0
M  V30 13213 H 1270.59 0.479791 -0.559437 0
M  V30 13214 H 1273.24 0.631669 -1.79192 0
M  V30 13215 H 1271.39 3.02846 -2.43345 0
M  V30 13216 H 1273.06 1.33195 -4.41652 0
M  V30 13217 H 1271.3 1.18593 -4.17275 0
M  V30 13218 H 1271.97 2.68465 -4.82318 0
M  V30 13219 H 1274.45 2.9672 -2.91713 0
M  V30 13220 H 1273.32 4.21272 -3.51882 0
M  V30 13221 H 1273.59 4.04236 -1.79014 0
M  V30 13222 N 1272.64 1.35187 0.810078 0
M  V30 13223 C 1274.06 1.25329 1.38381 0
M  V30 13224 C 1274.41 -0.115799 1.95858 0
M  V30 13225 O 1273.53 -1.01663 1.91033 0
M  V30 13226 C 1274.13 2.2693 2.51572 0
M  V30 13227 C 1272.69 2.20824 3.04818 0
M  V30 13228 C 1271.83 2.1283 1.7776 0
M  V30 13229 H 1274.78 1.46366 0.613402 0
M  V30 13230 H 1274.8 1.89375 3.30026 0
M  V30 13231 H 1274.32 3.26563 2.09709 0
M  V30 13232 H 1272.42 1.24589 3.51153 0
M  V30 13233 H 1272.53 3.12637 3.63036 0
M  V30 13234 H 1270.89 1.58752 1.99173 0
M  V30 13235 H 1271.68 3.14318 1.38054 0
M  V30 13236 N 1274.12 -1.03182 1.19127 0
M  V30 13237 C 1275.35 -1.80703 1.01791 0
M  V30 13238 C 1275.77 -1.83147 -0.428824 0
M  V30 13239 O 1275.13 -1.2553 -1.30812 0
M  V30 13240 C 1275.18 -3.23754 1.58794 0
M  V30 13241 O 1274.28 -4.04261 0.815274 0
M  V30 13242 H 1273.62 -0.557944 0.359992 0
M  V30 13243 H 1276.15 -1.29887 1.58084 0
M  V30 13244 H 1276.16 -3.7451 1.61884 0
M  V30 13245 H 1274.84 -3.2129 2.64094 0
M  V30 13246 H 1273.42 -3.62909 0.857392 0
M  V30 13247 N 1275.6 -0.99472 -1.22242 0
M  V30 13248 C 1276.55 -0.53946 -2.26258 0
M  V30 13249 C 1277.54 0.410796 -1.64344 0
M  V30 13250 O 1278.75 0.283116 -1.7776 0
M  V30 13251 H 1275.12 -0.156069 -0.735627 0
M  V30 13252 H 1277.09 -1.42814 -2.62005 0
M  V30 13253 C 1275.84 0.12842 -3.47463 0
M  V30 13254 H 1275.17 -0.593727 -3.95367 0
M  V30 13255 H 1276.61 0.410393 -4.22009 0
M  V30 13256 C 1275.07 1.36433 -3.08038 0
M  V30 13257 O 1275.6 2.45953 -3.176 0
M  V30 13258 N 1273.8 1.24026 -2.62804 0
M  V30 13259 H 1273.35 0.349111 -2.55223 0
M  V30 13260 H 1273.31 2.06824 -2.36794 0
M  V30 13261 N 1277.08 1.37613 -0.768148 0
M  V30 13262 C 1278.33 1.99779 -0.330841 0
M  V30 13263 C 1278.65 1.60978 1.09162 0
M  V30 13264 O 1277.91 0.845778 1.7648 0
M  V30 13265 C 1278.21 3.54952 -0.417608 0
M  V30 13266 C 1277.87 4.13509 -1.7978 0
M  V30 13267 C 1276.54 4.29216 -2.17549 0
M  V30 13268 C 1278.89 4.45662 -2.7025 0
M  V30 13269 C 1276.22 4.74376 -3.45231 0
M  V30 13270 C 1278.57 4.92245 -3.97338 0
M  V30 13271 C 1277.23 5.06157 -4.35157 0
M  V30 13272 H 1276.5 0.731044 -0.121063 0
M  V30 13273 H 1279.15 1.64437 -0.98147 0
M  V30 13274 H 1277.45 3.90519 0.316567 0
M  V30 13275 H 1279.15 4.00954 -0.0606037 0
M  V30 13276 H 1275.74 4.01709 -1.49425 0
M  V30 13277 H 1279.92 4.33116 -2.42332 0
M  V30 13278 H 1275.18 4.83333 -3.74431 0
M  V30 13279 H 1279.35 5.16091 -4.67572 0
M  V30 13280 H 1276.98 5.4091 -5.34154 0
M  V30 13281 N 1278.56 0.518393 1.4883 0
M  V30 13282 C 1279.81 -0.0218436 2.01688 0
M  V30 13283 C 1280.12 -1.36421 1.40174 0
M  V30 13284 O 1281.32 -1.99214 1.84461 0
M  V30 13285 C 1279.78 -0.0893538 3.59789 0
M  V30 13286 C 1279.39 1.24741 4.30283 0
M  V30 13287 C 1281.13 -0.579032 4.20532 0
M  V30 13288 C 1279.04 1.14112 5.80286 0
M  V30 13289 H 1277.97 -0.0119353 0.753906 0
M  V30 13290 H 1280.62 0.660432 1.71203 0
M  V30 13291 H 1279 -0.836458 3.87065 0
M  V30 13292 H 1280.18 2.00917 4.14691 0
M  V30 13293 H 1278.49 1.67191 3.81361 0
M  V30 13294 H 1281.09 -0.676343 5.30405 0
M  V30 13295 H 1281.43 -1.58207 3.85067 0
M  V30 13296 H 1281.96 0.112046 3.97642 0
M  V30 13297 H 1278.7 2.11895 6.20307 0
M  V30 13298 H 1278.22 0.420535 5.98324 0
M  V30 13299 H 1279.9 0.826992 6.41693 0
M  V30 13300 N 1280.03 -1.55556 0.252993 0
M  V30 13301 C 1281.28 -1.98697 -0.369319 0
M  V30 13302 C 1281.6 -1.14256 -1.58021 0
M  V30 13303 O 1280.87 -0.226779 -1.94583 0
M  V30 13304 H 1279.45 -0.733869 -0.139444 0
M  V30 13305 H 1282.12 -1.91673 0.353197 0
M  V30 13306 H 1281.21 -3.04728 -0.674312 0
M  V30 13307 N 1281.51 0.0200419 -1.57587 0
M  V30 13308 C 1282.46 1.0259 -2.03615 0
M  V30 13309 C 1283.45 1.31504 -0.927116 0
M  V30 13310 O 1284.64 1.30938 -1.19098 0
M  V30 13311 C 1281.77 2.32424 -2.52654 0
M  V30 13312 C 1280.85 2.06561 -3.70396 0
M  V30 13313 N 1281.24 1.50787 -4.82801 0
M  V30 13314 C 1279.54 2.36802 -3.77943 0
M  V30 13315 C 1280.24 1.40935 -5.64369 0
M  V30 13316 N 1279.22 1.88806 -5.09758 0
M  V30 13317 H 1283.02 0.588835 -2.87941 0
M  V30 13318 H 1280.54 0.226163 -1.60817 0
M  V30 13319 H 1282.53 3.05303 -2.83894 0
M  V30 13320 H 1281.19 2.76801 -1.69738 0
M  V30 13321 H 1282.2 1.18935 -5.04058 0
M  V30 13322 H 1278.88 2.84192 -3.05845 0
M  V30 13323 H 1280.27 0.982261 -6.64681 0
M  V30 13324 N 1282.99 1.54862 0.292472 0
M  V30 13325 C 1283.92 1.89406 1.36556 0
M  V30 13326 C 1284.9 0.753838 1.52484 0
M  V30 13327 O 1286.09 1.01031 1.6585 0
M  V30 13328 C 1283.22 2.14888 2.72838 0
M  V30 13329 C 1282.17 3.3073 2.71665 0
M  V30 13330 C 1281.5 3.41648 4.11316 0
M  V30 13331 C 1282.8 4.67622 2.32651 0
M  V30 13332 H 1284.49 2.79284 1.07894 0
M  V30 13333 H 1282.04 1.34377 0.517585 0
M  V30 13334 H 1283.99 2.3764 3.48002 0
M  V30 13335 H 1282.71 1.2179 3.03042 0
M  V30 13336 H 1281.37 3.07915 1.98958 0
M  V30 13337 H 1281.02 2.46051 4.38711 0
M  V30 13338 H 1280.72 4.19522 4.11431 0
M  V30 13339 H 1282.24 3.6667 4.88248 0
M  V30 13340 H 1283.66 4.90048 2.97533 0
M  V30 13341 H 1282.06 5.48272 2.43963 0
M  V30 13342 H 1283.13 4.67762 1.27777 0
M  V30 13343 N 1284.47 -0.556076 1.47464 0
M  V30 13344 C 1285.4 -1.67829 1.56096 0
M  V30 13345 C 1286.41 -1.56541 0.447077 0
M  V30 13346 O 1287.6 -1.63478 0.716739 0
M  V30 13347 C 1284.7 -3.06303 1.45023 0
M  V30 13348 C 1283.88 -3.43334 2.70999 0
M  V30 13349 C 1282.93 -4.60976 2.53746 0
M  V30 13350 O 1281.96 -4.65501 3.27564 0
M  V30 13351 N 1283.16 -5.5754 1.61647 0
M  V30 13352 H 1285.93 -1.6087 2.52865 0
M  V30 13353 H 1283.49 -0.74274 1.43857 0
M  V30 13354 H 1285.48 -3.82838 1.31214 0
M  V30 13355 H 1284.05 -3.07483 0.563311 0
M  V30 13356 H 1283.27 -2.56236 2.99561 0
M  V30 13357 H 1284.56 -3.64851 3.54629 0
M  V30 13358 H 1283.96 -5.56642 1.00827 0
M  V30 13359 H 1282.51 -6.33397 1.53789 0
M  V30 13360 N 1285.95 -1.35615 -0.802897 0
M  V30 13361 C 1287.17 -1.32377 -1.59659 0
M  V30 13362 C 1287.6 0.0954235 -1.87858 0
M  V30 13363 O 1286.96 1.06336 -1.46842 0
M  V30 13364 C 1287 -2.13972 -2.90256 0
M  V30 13365 O 1286.11 -1.52296 -3.83249 0
M  V30 13366 H 1285.45 -0.453699 -0.484823 0
M  V30 13367 H 1287.98 -1.78708 -0.996217 0
M  V30 13368 H 1287.99 -2.26061 -3.39647 0
M  V30 13369 H 1286.66 -3.17145 -2.69057 0
M  V30 13370 H 1285.24 -1.49068 -3.41809 0
M  V30 13371 N 1287.43 1.02549 -1.19673 0
M  V30 13372 C 1288.36 2.12794 -0.961289 0
M  V30 13373 C 1289.34 1.69766 0.106575 0
M  V30 13374 O 1290.52 1.94138 -0.0491358 0
M  V30 13375 C 1287.65 3.4364 -0.502868 0
M  V30 13376 C 1286.61 4.00367 -1.51296 0
M  V30 13377 C 1285.93 5.26874 -0.911491 0
M  V30 13378 C 1287.23 4.34782 -2.89416 0
M  V30 13379 H 1288.93 2.32748 -1.88331 0
M  V30 13380 H 1286.47 1.11852 -0.906922 0
M  V30 13381 H 1288.42 4.20141 -0.325436 0
M  V30 13382 H 1287.15 3.23418 0.454764 0
M  V30 13383 H 1285.81 3.25964 -1.67759 0
M  V30 13384 H 1285.46 5.02971 0.0537982 0
M  V30 13385 H 1285.16 5.65791 -1.58602 0
M  V30 13386 H 1286.68 6.06039 -0.74493 0
M  V30 13387 H 1288.09 5.02207 -2.76516 0
M  V30 13388 H 1286.49 4.8479 -3.53693 0
M  V30 13389 H 1287.56 3.43935 -3.41814 0
M  V30 13390 N 1288.9 1.00119 1.21713 0
M  V30 13391 C 1290.13 0.700431 1.94683 0
M  V30 13392 C 1290.55 -0.736333 1.73849 0
M  V30 13393 O 1289.9 -1.49778 1.04272 0
M  V30 13394 C 1289.95 1.00722 3.47185 0
M  V30 13395 O 1289.68 2.38754 3.67326 0
M  V30 13396 C 1291.18 0.725335 4.37326 0
M  V30 13397 H 1288.4 0.25843 0.619238 0
M  V30 13398 H 1290.94 1.3382 1.54636 0
M  V30 13399 H 1289.1 0.415117 3.85169 0
M  V30 13400 H 1289.51 2.49321 4.61454 0
M  V30 13401 H 1290.98 0.990202 5.43046 0
M  V30 13402 H 1291.46 -0.340649 4.37877 0
M  V30 13403 H 1292.07 1.29888 4.04981 0
M  V30 13404 N 1290.38 -1.37203 0.775435 0
M  V30 13405 C 1291.63 -1.99601 0.341431 0
M  V30 13406 C 1291.96 -1.61555 -1.08306 0
M  V30 13407 O 1291.21 -0.855126 -1.76029 0
M  V30 13408 C 1291.51 -3.54725 0.436426 0
M  V30 13409 C 1291.18 -4.1255 1.8197 0
M  V30 13410 C 1289.84 -4.28056 2.19822 0
M  V30 13411 C 1292.19 -4.44222 2.7261 0
M  V30 13412 C 1289.52 -4.72538 3.47742 0
M  V30 13413 C 1291.87 -4.90131 3.99943 0
M  V30 13414 C 1290.53 -5.03842 4.37835 0
M  V30 13415 H 1289.8 -0.730391 0.124938 0
M  V30 13416 H 1292.45 -1.63914 0.990177 0
M  V30 13417 H 1290.76 -3.90681 -0.295852 0
M  V30 13418 H 1292.45 -4.00916 0.0818664 0
M  V30 13419 H 1289.04 -4.00911 1.51553 0
M  V30 13420 H 1293.23 -4.31824 2.44625 0
M  V30 13421 H 1288.48 -4.81341 3.76989 0
M  V30 13422 H 1292.66 -5.13604 4.70302 0
M  V30 13423 H 1290.28 -5.3807 5.37015 0
M  V30 13424 N 1291.86 -0.526279 -1.48553 0
M  V30 13425 C 1292.81 0.251938 -2.31232 0
M  V30 13426 C 1293.8 0.938991 -1.40994 0
M  V30 13427 O 1295.01 0.863798 -1.57919 0
M  V30 13428 H 1291.38 0.100114 -0.745306 0
M  V30 13429 H 1293.35 -0.465013 -2.94754 0
M  V30 13430 C 1292.1 1.28816 -3.22958 0
M  V30 13431 H 1291.43 0.768899 -3.92337 0
M  V30 13432 H 1292.87 1.80417 -3.837 0
M  V30 13433 C 1291.32 2.31982 -2.44307 0
M  V30 13434 O 1291.85 3.3835 -2.16523 0
M  V30 13435 N 1290.06 2.051 -2.05869 0
M  V30 13436 H 1289.61 1.18618 -2.28665 0
M  V30 13437 H 1289.57 2.74349 -1.53557 0
M  V30 13438 N 1293.34 1.5542 -0.261239 0
M  V30 13439 C 1294.59 1.9889 0.358777 0
M  V30 13440 C 1294.91 1.15092 1.57413 0
M  V30 13441 O 1294.18 0.237095 1.9446 0
M  V30 13442 H 1292.76 0.734599 0.13555 0
M  V30 13443 H 1295.42 1.91483 -0.363357 0
M  V30 13444 H 1294.51 3.05082 0.658142 0
M  V30 13445 N 1294.82 -0.0116844 1.57596 0
M  V30 13446 C 1295.75 -1.04043 2.03102 0
M  V30 13447 C 1296.73 -1.34164 0.918622 0
M  V30 13448 O 1297.91 -1.46527 1.18584 0
M  V30 13449 C 1295.04 -2.37094 2.41876 0
M  V30 13450 C 1294.08 -2.22713 3.63732 0
M  V30 13451 S 1294.92 -1.56416 5.12147 0
M  V30 13452 C 1296.07 -2.90921 5.5418 0
M  V30 13453 H 1296.31 -0.652899 2.90042 0
M  V30 13454 H 1293.84 -0.222201 1.52793 0
M  V30 13455 H 1295.8 -3.13602 2.64885 0
M  V30 13456 H 1294.46 -2.7299 1.55356 0
M  V30 13457 H 1293.65 -3.20976 3.88575 0
M  V30 13458 H 1293.25 -1.54349 3.40665 0
M  V30 13459 H 1295.54 -3.87237 5.55926 0
M  V30 13460 H 1296.49 -2.70792 6.54276 0
M  V30 13461 H 1296.9 -2.94293 4.81717 0
M  V30 13462 N 1296.29 -1.55015 -0.284256 0
M  V30 13463 C 1297.26 -1.8636 -1.33426 0
M  V30 13464 C 1298.26 -0.737457 -1.42892 0
M  V30 13465 O 1299.45 -1.00569 -1.42238 0
M  V30 13466 C 1296.58 -2.05884 -2.71707 0
M  V30 13467 H 1297.77 -2.80212 -1.06869 0
M  V30 13468 H 1295.32 -1.47334 -0.521767 0
M  V30 13469 H 1296.06 -1.14376 -3.03461 0
M  V30 13470 H 1295.84 -2.87867 -2.66224 0
M  V30 13471 H 1297.33 -2.31447 -3.47595 0
M  V30 13472 N 1297.77 0.548248 -1.47757 0
M  V30 13473 C 1299 1.32827 -1.58242 0
M  V30 13474 C 1299.41 1.87736 -0.234936 0
M  V30 13475 O 1298.75 1.66163 0.78329 0
M  V30 13476 C 1298.81 2.52906 -2.55497 0
M  V30 13477 C 1298.48 2.19218 -4.00989 0
M  V30 13478 C 1299.48 1.75976 -4.89212 0
M  V30 13479 C 1297.16 2.30302 -4.46392 0
M  V30 13480 C 1299.15 1.44258 -6.20861 0
M  V30 13481 C 1296.84 1.98197 -5.78067 0
M  V30 13482 C 1297.84 1.55244 -6.65123 0
M  V30 13483 O 1297.53 1.23551 -7.94349 0
M  V30 13484 H 1297.26 0.41088 -0.536799 0
M  V30 13485 H 1299.81 0.670055 -1.94163 0
M  V30 13486 H 1298.04 3.21648 -2.14661 0
M  V30 13487 H 1299.73 3.14979 -2.56014 0
M  V30 13488 H 1300.5 1.66898 -4.55379 0
M  V30 13489 H 1296.38 2.62693 -3.78832 0
M  V30 13490 H 1299.92 1.10659 -6.88767 0
M  V30 13491 H 1295.82 2.0691 -6.1144 0
M  V30 13492 H 1296.59 1.37105 -8.06935 0
M  V30 13493 N 1299.25 1.36039 0.795694 0
M  V30 13494 C 1300.5 1.29251 1.54845 0
M  V30 13495 C 1300.81 -0.127926 1.95181 0
M  V30 13496 O 1302.02 -0.318141 2.6963 0
M  V30 13497 C 1300.47 2.26736 2.79497 0
M  V30 13498 C 1300.08 3.74183 2.46355 0
M  V30 13499 C 1301.83 2.28913 3.5749 0
M  V30 13500 C 1299.73 4.63462 3.67365 0
M  V30 13501 H 1298.66 0.48027 0.581255 0
M  V30 13502 H 1301.31 1.61366 0.873693 0
M  V30 13503 H 1299.7 1.87608 3.4874 0
M  V30 13504 H 1300.87 4.22011 1.8505 0
M  V30 13505 H 1299.18 3.7472 1.81586 0
M  V30 13506 H 1301.78 2.92828 4.47388 0
M  V30 13507 H 1302.12 1.2959 3.95616 0
M  V30 13508 H 1302.66 2.66627 2.9522 0
M  V30 13509 H 1299.4 5.63824 3.34339 0
M  V30 13510 H 1298.92 4.20354 4.27858 0
M  V30 13511 H 1300.6 4.79424 4.34467 0
M  V30 13512 N 1300.73 -1.01913 1.20215 0
M  V30 13513 C 1302.01 -1.7262 0.919867 0
M  V30 13514 C 1302.39 -2.03203 -0.572001 0
M  V30 13515 O 1301.73 -1.69448 -1.53296 0
M  V30 13516 C 1301.94 -2.9959 1.79016 0
M  V30 13517 C 1303.29 -3.72905 2.03045 0
M  V30 13518 O 1304.32 -3.0954 1.76249 0
M  V30 13519 O 1303.17 -4.86844 2.48285 0
M  V30 13520 H 1300.27 -0.752194 0.343705 0
M  V30 13521 H 1302.81 -1.07783 1.31076 0
M  V30 13522 H 1301.59 -2.73292 2.80048 0
M  V30 13523 H 1301.21 -3.72168 1.39918 0
M  V30 13524 N 1302.21 -1.00763 -1.2118 0
M  V30 13525 C 1303.14 -0.590493 -2.2591 0
M  V30 13526 C 1304.12 0.390002 -1.65569 0
M  V30 13527 O 1305.3 0.277406 -1.92208 0
M  V30 13528 C 1302.43 0.0810388 -3.47205 0
M  V30 13529 C 1301.39 -0.81951 -4.20081 0
M  V30 13530 C 1300.71 -0.014244 -5.34698 0
M  V30 13531 C 1302.01 -2.12336 -4.7719 0
M  V30 13532 H 1303.71 -1.46595 -2.61056 0
M  V30 13533 H 1301.25 -0.706321 -1.25487 0
M  V30 13534 H 1303.21 0.384355 -4.19644 0
M  V30 13535 H 1301.93 0.991145 -3.11197 0
M  V30 13536 H 1300.59 -1.10669 -3.49497 0
M  V30 13537 H 1300.24 0.897233 -4.94933 0
M  V30 13538 H 1299.94 -0.613883 -5.84384 0
M  V30 13539 H 1301.46 0.282827 -6.09945 0
M  V30 13540 H 1302.87 -1.88301 -5.41494 0
M  V30 13541 H 1301.27 -2.67308 -5.37277 0
M  V30 13542 H 1302.34 -2.79238 -3.96427 0
M  V30 13543 N 1303.68 1.3679 -0.7827 0
M  V30 13544 C 1304.92 2.01252 -0.357327 0
M  V30 13545 C 1305.29 1.60782 1.04944 0
M  V30 13546 O 1306.49 2.17785 1.57553 0
M  V30 13547 C 1304.76 3.53766 -0.508352 0
M  V30 13548 S 1306.32 4.38471 -0.169862 0
M  V30 13549 H 1303.14 0.697701 -0.136875 0
M  V30 13550 H 1305.74 1.66799 -1.01972 0
M  V30 13551 H 1304.44 3.80708 -1.53262 0
M  V30 13552 H 1303.97 3.93032 0.170209 0
M  V30 13553 H 1305.99 4.85373 1.03088 0
M  V30 13554 N 1305.16 0.53415 1.48272 0
M  V30 13555 C 1306.11 -0.226335 2.29688 0
M  V30 13556 C 1307.08 -0.929937 1.37628 0
M  V30 13557 O 1308.26 -0.930149 1.66592 0
M  V30 13558 C 1305.4 -1.26472 3.2109 0
M  V30 13559 C 1304.52 -0.569542 4.28229 0
M  V30 13560 C 1303.65 -1.59122 5.06807 0
M  V30 13561 C 1302.69 -0.879734 6.05745 0
M  V30 13562 N 1301.83 -1.84715 6.77366 0
M  V30 13563 H 1306.67 0.474111 2.94204 0
M  V30 13564 H 1304.21 0.245643 1.45034 0
M  V30 13565 H 1306.16 -1.87911 3.72485 0
M  V30 13566 H 1304.79 -1.9335 2.58487 0
M  V30 13567 H 1303.85 0.158872 3.80068 0
M  V30 13568 H 1305.16 -0.0110904 4.98799 0
M  V30 13569 H 1304.31 -2.27977 5.62238 0
M  V30 13570 H 1303.05 -2.18357 4.36086 0
M  V30 13571 H 1302.06 -0.177134 5.49515 0
M  V30 13572 H 1303.28 -0.293439 6.78466 0
M  V30 13573 H 1301.23 -2.42851 6.09393 0
M  V30 13574 H 1301.14 -1.34025 7.44025 0
M  V30 13575 H 1302.41 -2.52756 7.37384 0
M  V30 13576 N 1306.64 -1.55279 0.269478 0
M  V30 13577 C 1307.59 -2.23723 -0.636468 0
M  V30 13578 C 1308.58 -1.23234 -1.16232 0
M  V30 13579 O 1309.79 -1.41181 -1.1166 0
M  V30 13580 H 1306.16 -0.71793 -0.223788 0
M  V30 13581 H 1308.13 -2.98378 -0.0363057 0
M  V30 13582 C 1306.88 -2.96755 -1.81195 0
M  V30 13583 H 1306.21 -3.73865 -1.4165 0
M  V30 13584 H 1307.65 -3.47975 -2.42258 0
M  V30 13585 C 1306.11 -2.01905 -2.69696 0
M  V30 13586 O 1306.64 -1.56662 -3.69892 0
M  V30 13587 N 1304.84 -1.68524 -2.36744 0
M  V30 13588 H 1304.39 -2.05512 -1.55314 0
M  V30 13589 H 1304.35 -1.05331 -2.96231 0
M  V30 13590 N 1308.12 0.00332656 -1.576 0
M  V30 13591 C 1309.37 0.687508 -1.90047 0
M  V30 13592 C 1309.69 1.74497 -0.870388 0
M  V30 13593 O 1308.96 1.95681 0.0926544 0
M  V30 13594 H 1307.54 0.256924 -0.701426 0
M  V30 13595 H 1310.2 -0.0368129 -1.94865 0
M  V30 13596 H 1309.3 1.16086 -2.89707 0
M  V30 13597 N 1309.6 1.55164 0.276031 0
M  V30 13598 C 1310.87 1.66338 1.02913 0
M  V30 13599 C 1311.25 0.527876 2.04393 0
M  V30 13600 O 1310.6 -0.472437 2.23563 0
M  V30 13601 C 1310.81 3.05427 1.68865 0
M  V30 13602 C 1312.16 3.63075 2.2014 0
M  V30 13603 O 1313.18 3.0804 1.78857 0
M  V30 13604 O 1312.04 4.59492 2.95854 0
M  V30 13605 H 1309.14 0.675446 0.477181 0
M  V30 13606 H 1311.68 1.67504 0.272129 0
M  V30 13607 H 1310.45 3.79514 0.953125 0
M  V30 13608 H 1310.08 3.08147 2.5126 0
M  V30 13609 N 1311.07 -0.540404 1.48045 0
M  V30 13610 C 1312.32 -1.2932 1.54787 0
M  V30 13611 C 1312.64 -1.94335 0.222109 0
M  V30 13612 O 1313.84 -2.70982 0.167675 0
M  V30 13613 C 1312.3 -2.34594 2.72935 0
M  V30 13614 C 1311.91 -1.75696 4.1211 0
M  V30 13615 C 1313.65 -3.10949 2.88982 0
M  V30 13616 C 1311.56 -2.78849 5.21534 0
M  V30 13617 H 1310.49 -0.486315 0.576206 0
M  V30 13618 H 1313.14 -0.571998 1.74357 0
M  V30 13619 H 1311.52 -3.09704 2.46778 0
M  V30 13620 H 1312.69 -1.06845 4.48242 0
M  V30 13621 H 1311.01 -1.11869 4.01091 0
M  V30 13622 H 1313.61 -3.88012 3.679 0
M  V30 13623 H 1313.95 -3.66173 1.98048 0
M  V30 13624 H 1314.48 -2.42953 3.1499 0
M  V30 13625 H 1311.22 -2.28459 6.144 0
M  V30 13626 H 1310.74 -3.46059 4.89901 0
M  V30 13627 H 1312.42 -3.4203 5.49203 0
M  V30 13628 N 1312.55 -1.36459 -0.788468 0
M  V30 13629 C 1313.83 -1.21289 -1.53455 0
M  V30 13630 C 1314.21 0.200549 -2.10145 0
M  V30 13631 O 1313.56 1.20629 -1.94064 0
M  V30 13632 C 1313.77 -2.29562 -2.62873 0
M  V30 13633 C 1315.12 -2.66277 -3.30729 0
M  V30 13634 O 1316.14 -2.28612 -2.73157 0
M  V30 13635 O 1315 -3.31106 -4.34777 0
M  V30 13636 H 1312.09 -0.472306 -0.678864 0
M  V30 13637 H 1314.64 -1.48192 -0.826869 0
M  V30 13638 H 1313.41 -3.24286 -2.18984 0
M  V30 13639 H 1313.03 -2.0403 -3.41259 0
M  V30 13640 N 1314.03 1.01274 -1.20754 0
M  V30 13641 C 1315.26 1.78265 -1.04427 0
M  V30 13642 C 1315.67 1.84718 0.409361 0
M  V30 13643 O 1315.01 1.30195 1.29595 0
M  V30 13644 C 1315.07 3.24037 -1.55693 0
M  V30 13645 C 1314.74 3.41181 -3.04047 0
M  V30 13646 C 1315.73 3.30087 -4.0167 0
M  V30 13647 C 1313.42 3.66872 -3.43089 0
M  V30 13648 C 1315.41 3.44436 -5.36323 0
M  V30 13649 C 1313.1 3.80865 -4.77896 0
M  V30 13650 C 1314.1 3.69652 -5.74322 0
M  V30 13651 O 1313.79 3.83211 -7.06686 0
M  V30 13652 H 1313.52 0.567327 -0.367582 0
M  V30 13653 H 1316.07 1.28336 -1.60372 0
M  V30 13654 H 1314.3 3.75067 -0.941382 0
M  V30 13655 H 1315.99 3.82676 -1.35328 0
M  V30 13656 H 1316.76 3.10172 -3.72852 0
M  V30 13657 H 1312.64 3.74685 -2.68574 0
M  V30 13658 H 1316.18 3.35601 -6.1157 0
M  V30 13659 H 1312.08 4.00282 -5.06403 0
M  V30 13660 H 1312.85 4.00205 -7.13987 0
M  V30 13661 N 1315.51 1.01404 1.20644 0
M  V30 13662 C 1316.75 0.710412 1.91657 0
M  V30 13663 C 1317.11 -0.745972 1.76916 0
M  V30 13664 O 1318.31 -1.162 2.42386 0
M  V30 13665 C 1316.59 1.13093 3.39035 0
M  V30 13666 S 1318.14 0.948885 4.28418 0
M  V30 13667 H 1314.96 0.259074 0.662119 0
M  V30 13668 H 1317.56 1.30077 1.45946 0
M  V30 13669 H 1316.27 2.18682 3.47284 0
M  V30 13670 H 1315.8 0.533248 3.89769 0
M  V30 13671 H 1317.81 -0.149 4.95976 0
M  V30 13672 N 1316.99 -1.36373 0.789944 0
M  V30 13673 C 1317.9 -2.3383 0.189873 0
M  V30 13674 C 1318.91 -1.61068 -0.65827 0
M  V30 13675 O 1320.09 -1.93049 -0.573932 0
M  V30 13676 C 1317.15 -3.40264 -0.664905 0
M  V30 13677 C 1316.22 -4.28825 0.201798 0
M  V30 13678 C 1315.45 -5.30176 -0.612278 0
M  V30 13679 O 1315.67 -5.39627 -1.84821 0
M  V30 13680 O 1314.61 -6.01899 -0.0118964 0
M  V30 13681 H 1318.43 -2.86915 0.995671 0
M  V30 13682 H 1316.02 -1.38852 0.551412 0
M  V30 13683 H 1317.9 -4.05339 -1.15231 0
M  V30 13684 H 1316.57 -2.89478 -1.44858 0
M  V30 13685 H 1315.48 -3.66789 0.735974 0
M  V30 13686 H 1316.81 -4.82965 0.949003 0
M  V30 13687 N 1318.47 -0.542005 -1.47987 0
M  V30 13688 C 1319.4 0.202703 -2.32618 0
M  V30 13689 C 1320.38 0.923521 -1.42846 0
M  V30 13690 O 1321.56 0.906957 -1.7172 0
M  V30 13691 C 1318.69 1.24267 -3.24307 0
M  V30 13692 C 1317.65 0.639257 -4.23199 0
M  V30 13693 C 1316.97 1.78275 -5.04105 0
M  V30 13694 C 1318.27 -0.396982 -5.20789 0
M  V30 13695 H 1319.97 -0.503817 -2.95131 0
M  V30 13696 H 1317.51 -0.243736 -1.41922 0
M  V30 13697 H 1319.46 1.7717 -3.82347 0
M  V30 13698 H 1318.19 1.97893 -2.59819 0
M  V30 13699 H 1316.85 0.131655 -3.66364 0
M  V30 13700 H 1316.5 2.50768 -4.36032 0
M  V30 13701 H 1316.2 1.38487 -5.71047 0
M  V30 13702 H 1317.72 2.31533 -5.65 0
M  V30 13703 H 1319.13 0.0454057 -5.73282 0
M  V30 13704 H 1317.53 -0.712911 -5.9585 0
M  V30 13705 H 1318.6 -1.29843 -4.67193 0
M  V30 13706 N 1319.94 1.55134 -0.277709 0
M  V30 13707 C 1320.89 2.24057 0.624594 0
M  V30 13708 C 1321.89 1.23848 1.15577 0
M  V30 13709 O 1323.09 1.41771 1.1091 0
M  V30 13710 H 1319.47 0.719106 0.219977 0
M  V30 13711 H 1321.44 2.98393 0.0204815 0
M  V30 13712 C 1320.19 2.97712 1.79618 0
M  V30 13713 H 1319.51 3.74611 1.39665 0
M  V30 13714 H 1320.95 3.49255 2.4041 0
M  V30 13715 C 1319.41 2.03332 2.68622 0
M  V30 13716 O 1319.94 1.58622 3.69056 0
M  V30 13717 N 1318.14 1.69778 2.35847 0
M  V30 13718 H 1317.69 2.06333 1.54222 0
M  V30 13719 H 1317.65 1.06901 2.95668 0
M  V30 13720 N 1321.42 0.00503138 1.57599 0
M  V30 13721 C 1322.38 -0.969628 2.0768 0
M  V30 13722 C 1323.38 -1.26933 0.987148 0
M  V30 13723 O 1324.57 -1.21368 1.24962 0
M  V30 13724 C 1321.71 -2.29312 2.52247 0
M  V30 13725 H 1322.9 -0.536342 2.95065 0
M  V30 13726 H 1320.45 -0.242543 1.54407 0
M  V30 13727 H 1321.19 -2.7732 1.6812 0
M  V30 13728 H 1320.97 -2.08878 3.31832 0
M  V30 13729 H 1322.46 -2.99221 2.91302 0
M  V30 13730 N 1322.9 -1.55308 -0.267798 0
M  V30 13731 C 1324.32 -1.47264 -0.61526 0
M  V30 13732 C 1324.52 -0.691025 -1.8928 0
M  V30 13733 O 1323.57 -0.211964 -2.51609 0
M  V30 13734 C 1324.88 -2.91519 -0.73739 0
M  V30 13735 C 1326.43 -3.01764 -0.831102 0
M  V30 13736 C 1326.91 -4.47283 -0.984965 0
M  V30 13737 N 1328.4 -4.51134 -1.05036 0
M  V30 13738 C 1329.13 -5.60952 -1.1883 0
M  V30 13739 N 1328.63 -6.80625 -1.29311 0
M  V30 13740 N 1330.42 -5.48705 -1.21982 0
M  V30 13741 H 1322.57 -2.04577 0.57114 0
M  V30 13742 H 1324.84 -0.927908 0.194141 0
M  V30 13743 H 1324.54 -3.51456 0.130974 0
M  V30 13744 H 1324.42 -3.40829 -1.61603 0
M  V30 13745 H 1326.8 -2.4192 -1.68993 0
M  V30 13746 H 1326.88 -2.55698 0.0722509 0
M  V30 13747 H 1326.53 -5.07732 -0.130776 0
M  V30 13748 H 1326.46 -4.91011 -1.90305 0
M  V30 13749 H 1328.95 -3.6493 -0.981551 0
M  V30 13750 H 1329.26 -7.60071 -1.39685 0
M  V30 13751 H 1327.61 -6.83426 -1.26306 0
M  V30 13752 H 1330.8 -4.5415 -1.13428 0
M  V30 13753 H 1330.97 -6.34332 -1.32388 0
M  V30 13754 N 1324.38 0.532545 -1.4833 0
M  V30 13755 C 1325.62 1.28851 -1.56217 0
M  V30 13756 C 1325.95 1.93076 -0.234967 0
M  V30 13757 O 1325.21 1.79722 0.774508 0
M  V30 13758 C 1325.51 2.40117 -2.64724 0
M  V30 13759 C 1325.17 1.93562 -4.0724 0
M  V30 13760 C 1323.83 1.80583 -4.46031 0
M  V30 13761 C 1326.19 1.58349 -4.96563 0
M  V30 13762 C 1323.51 1.30722 -5.71952 0
M  V30 13763 C 1325.87 1.09951 -6.22972 0
M  V30 13764 C 1324.53 0.955866 -6.60621 0
M  V30 13765 H 1323.8 0.4715 -0.571637 0
M  V30 13766 H 1326.45 0.594564 -1.82036 0
M  V30 13767 H 1324.75 3.15171 -2.32754 0
M  V30 13768 H 1326.45 2.98252 -2.68042 0
M  V30 13769 H 1323.04 2.04614 -3.76605 0
M  V30 13770 H 1327.22 1.67237 -4.67274 0
M  V30 13771 H 1322.48 1.18286 -5.99849 0
M  V30 13772 H 1326.65 0.817736 -6.91582 0
M  V30 13773 H 1324.28 0.567302 -7.5808 0
M  V30 13774 N 1325.86 1.36875 0.78122 0
M  V30 13775 C 1327.1 1.31299 1.53639 0
M  V30 13776 C 1327.42 -0.104942 1.94717 0
M  V30 13777 O 1326.69 -1.04696 1.65576 0
M  V30 13778 H 1325.27 0.483032 0.569815 0
M  V30 13779 H 1327.94 1.71261 0.930359 0
M  V30 13780 H 1327.03 1.94581 2.44018 0
M  V30 13781 N 1327.33 -1.00632 1.21289 0
M  V30 13782 C 1328.58 -1.74388 1.02932 0
M  V30 13783 C 1328.91 -1.8952 -0.437327 0
M  V30 13784 O 1328.16 -1.42551 -1.3408 0
M  V30 13785 C 1328.46 -3.1598 1.67007 0
M  V30 13786 C 1328.13 -3.208 3.16857 0
M  V30 13787 C 1326.79 -3.21823 3.57748 0
M  V30 13788 C 1329.14 -3.18147 4.12834 0
M  V30 13789 C 1326.47 -3.17877 4.93124 0
M  V30 13790 C 1328.82 -3.15743 5.48169 0
M  V30 13791 C 1327.49 -3.15074 5.88459 0
M  V30 13792 H 1326.76 -0.638133 0.376653 0
M  V30 13793 H 1329.4 -1.17953 1.50862 0
M  V30 13794 H 1327.71 -3.75639 1.11365 0
M  V30 13795 H 1329.41 -3.71764 1.50307 0
M  V30 13796 H 1326 -3.20746 2.84289 0
M  V30 13797 H 1330.18 -3.16519 3.82269 0
M  V30 13798 H 1325.44 -3.15696 5.2359 0
M  V30 13799 H 1329.61 -3.12644 6.22275 0
M  V30 13800 H 1327.24 -3.11771 6.93327 0
M  V30 13801 N 1328.81 -1.02043 -1.20104 0
M  V30 13802 C 1330.23 -0.735967 -1.41618 0
M  V30 13803 C 1330.43 0.68285 -1.89577 0
M  V30 13804 O 1329.48 1.45007 -2.06711 0
M  V30 13805 C 1330.8 -1.76492 -2.43457 0
M  V30 13806 C 1332.34 -1.78349 -2.57217 0
M  V30 13807 C 1332.82 -2.80181 -3.62302 0
M  V30 13808 N 1334.31 -2.78945 -3.69789 0
M  V30 13809 C 1335.05 -3.54395 -4.50768 0
M  V30 13810 N 1334.54 -4.39533 -5.35521 0
M  V30 13811 N 1336.33 -3.42974 -4.45337 0
M  V30 13812 H 1328.49 -1.93634 -0.872916 0
M  V30 13813 H 1330.75 -0.836663 -0.445757 0
M  V30 13814 H 1330.45 -2.78158 -2.15223 0
M  V30 13815 H 1330.33 -1.58022 -3.42504 0
M  V30 13816 H 1332.72 -0.773665 -2.84778 0
M  V30 13817 H 1332.8 -2.00894 -1.58352 0
M  V30 13818 H 1332.44 -3.81331 -3.35484 0
M  V30 13819 H 1332.37 -2.54898 -4.60798 0
M  V30 13820 H 1334.86 -2.17189 -3.09253 0
M  V30 13821 H 1335.17 -4.93863 -5.94407 0
M  V30 13822 H 1333.52 -4.43609 -5.3501 0
M  V30 13823 H 1336.71 -2.75881 -3.78163 0
M  V30 13824 H 1336.88 -4.02028 -5.0821 0
M  V30 13825 N 1330.29 1.35952 -0.797165 0
M  V30 13826 C 1331.24 2.31831 -0.188958 0
M  V30 13827 C 1332.23 1.56181 0.656042 0
M  V30 13828 O 1333.44 1.71383 0.550259 0
M  V30 13829 H 1329.81 0.750807 -0.0423354 0
M  V30 13830 H 1331.78 2.80683 -1.0129 0
M  V30 13831 C 1330.53 3.41464 0.655547 0
M  V30 13832 H 1329.86 3.99797 0.0146854 0
M  V30 13833 H 1331.3 4.10853 1.04765 0
M  V30 13834 C 1329.76 2.83696 1.81709 0
M  V30 13835 O 1330.29 2.76484 2.91409 0
M  V30 13836 N 1328.49 2.40876 1.62564 0
M  V30 13837 H 1328.04 2.46941 0.733337 0
M  V30 13838 H 1328 2.02572 2.40441 0
M  V30 13839 N 1331.77 0.549846 1.47697 0
M  V30 13840 C 1333.02 0.0209424 2.01689 0
M  V30 13841 C 1333.33 -1.33417 1.43036 0
M  V30 13842 O 1334.54 -1.95257 1.88646 0
M  V30 13843 C 1332.99 -0.0130171 3.59898 0
M  V30 13844 C 1332.6 1.3384 4.2754 0
M  V30 13845 C 1334.34 -0.489701 4.21666 0
M  V30 13846 C 1332.25 1.26395 5.77735 0
M  V30 13847 H 1331.18 0.00405885 0.753989 0
M  V30 13848 H 1333.83 0.696599 1.69764 0
M  V30 13849 H 1332.21 -0.754168 3.88752 0
M  V30 13850 H 1333.39 2.09668 4.10336 0
M  V30 13851 H 1331.7 1.75242 3.77729 0
M  V30 13852 H 1334.3 -0.563684 5.31721 0
M  V30 13853 H 1334.64 -1.50004 3.88336 0
M  V30 13854 H 1335.18 0.196366 3.97315 0
M  V30 13855 H 1331.92 2.25005 6.15673 0
M  V30 13856 H 1331.44 0.547353 5.97297 0
M  V30 13857 H 1333.11 0.962918 6.39794 0
M  V30 13858 N 1333.25 -1.54984 0.285932 0
M  V30 13859 C 1334.5 -1.99008 -0.328433 0
M  V30 13860 C 1334.81 -1.17787 -1.56158 0
M  V30 13861 O 1336.01 -1.52006 -2.24959 0
M  V30 13862 C 1334.47 -3.54241 -0.635688 0
M  V30 13863 C 1334.08 -4.44252 0.578271 0
M  V30 13864 C 1335.82 -4.06828 -1.21208 0
M  V30 13865 C 1333.73 -5.90892 0.245003 0
M  V30 13866 H 1332.66 -0.743314 -0.126494 0
M  V30 13867 H 1335.31 -1.79258 0.39228 0
M  V30 13868 H 1333.69 -3.69834 -1.41559 0
M  V30 13869 H 1334.87 -4.40431 1.35489 0
M  V30 13870 H 1333.18 -4.02358 1.07225 0
M  V30 13871 H 1335.78 -5.13941 -1.47542 0
M  V30 13872 H 1336.12 -3.56515 -2.14948 0
M  V30 13873 H 1336.65 -3.94718 -0.494222 0
M  V30 13874 H 1333.39 -6.45323 1.15057 0
M  V30 13875 H 1332.91 -5.97757 -0.494636 0
M  V30 13876 H 1334.59 -6.46805 -0.158891 0
M  V30 13877 N 1334.72 -0.0133892 -1.57594 0
M  V30 13878 C 1335.69 0.958601 -2.08191 0
M  V30 13879 C 1336.69 1.26408 -0.993865 0
M  V30 13880 O 1337.88 1.20703 -1.25604 0
M  V30 13881 C 1335.01 2.27971 -2.5346 0
M  V30 13882 H 1336.2 0.520686 -2.95345 0
M  V30 13883 H 1333.76 0.234351 -1.54533 0
M  V30 13884 H 1334.49 2.76424 -1.69588 0
M  V30 13885 H 1334.28 2.07116 -3.32935 0
M  V30 13886 H 1335.77 2.97672 -2.92884 0
M  V30 13887 N 1336.2 1.55448 0.259558 0
M  V30 13888 C 1337.48 1.6742 1.01143 0
M  V30 13889 C 1337.86 0.549525 2.03822 0
M  V30 13890 O 1337.21 -0.448699 2.24051 0
M  V30 13891 C 1337.42 3.07201 1.65616 0
M  V30 13892 C 1338.77 3.6539 2.16277 0
M  V30 13893 O 1339.79 3.0992 1.7558 0
M  V30 13894 O 1338.65 4.62604 2.90963 0
M  V30 13895 H 1335.74 0.680469 0.469991 0
M  V30 13896 H 1338.29 1.67783 0.254348 0
M  V30 13897 H 1337.06 3.80504 0.912819 0
M  V30 13898 H 1336.68 3.10794 2.47977 0
M  V30 13899 N 1337.68 -0.524672 1.4861 0
M  V30 13900 C 1339.09 -1.10655 1.50374 0
M  V30 13901 C 1339.44 -1.94242 0.276512 0
M  V30 13902 O 1338.57 -2.07451 -0.615887 0
M  V30 13903 C 1339.16 -2.01348 2.72478 0
M  V30 13904 C 1337.72 -2.54743 2.77097 0
M  V30 13905 C 1336.87 -1.31822 2.43964 0
M  V30 13906 H 1339.82 -0.309674 1.55649 0
M  V30 13907 H 1339.84 -2.85709 2.51297 0
M  V30 13908 H 1339.35 -1.40485 3.61781 0
M  V30 13909 H 1337.45 -3.19313 1.92016 0
M  V30 13910 H 1337.57 -2.93514 3.78664 0
M  V30 13911 H 1335.93 -1.63574 1.95233 0
M  V30 13912 H 1336.71 -0.727026 3.35513 0
M  V30 13913 N 1339.16 -1.37287 -0.77395 0
M  V30 13914 C 1340.4 -1.3257 -1.5347 0
M  V30 13915 C 1340.74 0.090346 -1.9399 0
M  V30 13916 O 1340.01 1.04719 -1.63903 0
M  V30 13917 C 1340.3 -2.26277 -2.80126 0
M  V30 13918 C 1340.15 -3.76651 -2.45874 0
M  V30 13919 C 1341.47 -2.18471 -3.82045 0
M  V30 13920 H 1338.59 -0.48289 -0.556764 0
M  V30 13921 H 1341.23 -1.6797 -0.888039 0
M  V30 13922 H 1339.38 -1.96219 -3.35306 0
M  V30 13923 H 1341.05 -4.17296 -1.96626 0
M  V30 13924 H 1339.29 -3.95327 -1.78602 0
M  V30 13925 H 1339.96 -4.3765 -3.36403 0
M  V30 13926 H 1342.44 -2.44962 -3.36352 0
M  V30 13927 H 1341.32 -2.86183 -4.68392 0
M  V30 13928 H 1341.58 -1.17692 -4.26147 0
M  V30 13929 N 1340.64 0.999871 -1.21821 0
M  V30 13930 C 1341.86 1.77405 -1.06467 0
M  V30 13931 C 1342.28 1.84828 0.385227 0
M  V30 13932 O 1341.64 1.31338 1.26714 0
M  V30 13933 C 1341.69 3.21062 -1.66137 0
M  V30 13934 O 1341.41 3.14054 -3.05454 0
M  V30 13935 C 1342.91 4.14958 -1.55963 0
M  V30 13936 H 1340.13 0.557368 -0.373607 0
M  V30 13937 H 1342.67 1.2575 -1.61267 0
M  V30 13938 H 1340.83 3.69808 -1.15416 0
M  V30 13939 H 1341.24 4.04346 -3.34073 0
M  V30 13940 H 1342.72 5.13536 -2.02448 0
M  V30 13941 H 1343.19 4.36171 -0.514949 0
M  V30 13942 H 1343.8 3.72105 -2.05956 0
M  V30 13943 N 1342.11 1.02678 1.19562 0
M  V30 13944 C 1343.36 0.722016 1.89191 0
M  V30 13945 C 1343.69 -0.749217 1.79491 0
M  V30 13946 O 1342.94 -1.56105 1.18025 0
M  V30 13947 C 1343.24 1.11603 3.39529 0
M  V30 13948 C 1342.91 2.58518 3.69431 0
M  V30 13949 C 1341.57 2.98658 3.77302 0
M  V30 13950 C 1343.92 3.53579 3.82925 0
M  V30 13951 C 1341.25 4.32776 3.96134 0
M  V30 13952 C 1343.6 4.87398 4.0327 0
M  V30 13953 C 1342.27 5.27229 4.09373 0
M  V30 13954 H 1341.54 0.264204 0.692298 0
M  V30 13955 H 1344.18 1.28924 1.41601 0
M  V30 13956 H 1342.49 0.467374 3.89002 0
M  V30 13957 H 1344.19 0.857771 3.91718 0
M  V30 13958 H 1340.78 2.26421 3.63911 0
M  V30 13959 H 1344.96 3.23721 3.76189 0
M  V30 13960 H 1340.22 4.63175 3.99098 0
M  V30 13961 H 1344.39 5.60973 4.12653 0
M  V30 13962 H 1342.02 6.31164 4.23718 0
M  V30 13963 N 1343.59 -1.35528 0.804364 0
M  V30 13964 C 1344.54 -2.29832 0.211186 0
M  V30 13965 C 1345.51 -1.52704 -0.653503 0
M  V30 13966 O 1346.69 -1.81152 -0.599052 0
M  V30 13967 C 1343.83 -3.39188 -0.636054 0
M  V30 13968 C 1342.95 -4.31283 0.248824 0
M  V30 13969 C 1342.08 -5.2773 -0.60621 0
M  V30 13970 C 1341.12 -6.11463 0.279205 0
M  V30 13971 N 1340.26 -7.00054 -0.535672 0
M  V30 13972 H 1345.1 -2.79971 1.0208 0
M  V30 13973 H 1342.64 -1.37793 0.514931 0
M  V30 13974 H 1344.59 -4.01254 -1.14241 0
M  V30 13975 H 1343.22 -2.90331 -1.41095 0
M  V30 13976 H 1342.28 -3.70241 0.873263 0
M  V30 13977 H 1343.59 -4.90046 0.930417 0
M  V30 13978 H 1342.74 -5.95158 -1.17778 0
M  V30 13979 H 1341.48 -4.69458 -1.32138 0
M  V30 13980 H 1340.49 -5.42984 0.863066 0
M  V30 13981 H 1341.71 -6.71813 0.9922 0
M  V30 13982 H 1339.66 -6.44273 -1.23486 0
M  V30 13983 H 1339.57 -7.55949 0.0879213 0
M  V30 13984 H 1340.84 -7.71833 -1.09059 0
M  V30 13985 N 1345.07 -0.557671 -1.47404 0
M  V30 13986 C 1346.3 -0.0386599 -2.06864 0
M  V30 13987 C 1346.71 1.25527 -1.41027 0
M  V30 13988 O 1346.07 1.75318 -0.506949 0
M  V30 13989 C 1346.12 0.160141 -3.61145 0
M  V30 13990 O 1345.84 -1.08255 -4.24515 0
M  V30 13991 C 1347.34 0.716381 -4.37473 0
M  V30 13992 H 1344.56 -0.0460523 -0.669418 0
M  V30 13993 H 1347.11 -0.771214 -1.894 0
M  V30 13994 H 1345.26 0.842826 -3.78121 0
M  V30 13995 H 1345.68 -0.88057 -5.17055 0
M  V30 13996 H 1347.15 0.804773 -5.46102 0
M  V30 13997 H 1347.63 1.72776 -4.03788 0
M  V30 13998 H 1348.23 0.0693787 -4.25243 0
M  V30 13999 N 1346.55 1.54831 -0.294147 0
M  V30 14000 C 1347.5 2.23263 0.58499 0
M  V30 14001 C 1348.47 1.21278 1.13494 0
M  V30 14002 O 1349.65 1.49878 1.18073 0
M  V30 14003 C 1346.79 2.97185 1.75429 0
M  V30 14004 C 1345.9 4.1393 1.23638 0
M  V30 14005 C 1345.04 4.7545 2.36899 0
M  V30 14006 C 1344.08 5.84352 1.82207 0
M  V30 14007 N 1343.22 6.39855 2.89015 0
M  V30 14008 H 1348.06 2.98 -0.00519329 0
M  V30 14009 H 1345.59 1.47093 -0.0143313 0
M  V30 14010 H 1347.55 3.38271 2.4419 0
M  V30 14011 H 1346.18 2.24837 2.3162 0
M  V30 14012 H 1345.23 3.77832 0.441247 0
M  V30 14013 H 1346.54 4.92409 0.795946 0
M  V30 14014 H 1345.7 5.19353 3.1362 0
M  V30 14015 H 1344.44 3.96288 2.84266 0
M  V30 14016 H 1343.44 5.39879 1.03974 0
M  V30 14017 H 1344.67 6.65393 1.35753 0
M  V30 14018 H 1342.61 5.6358 3.35729 0
M  V30 14019 H 1342.53 7.13661 2.49447 0
M  V30 14020 H 1343.8 6.88417 3.65654 0
M  V30 14021 N 1348.03 0.0217466 1.57585 0
M  V30 14022 C 1349.25 -0.67246 1.96196 0
M  V30 14023 C 1349.68 -1.6529 0.897827 0
M  V30 14024 O 1349.04 -1.80743 -0.142002 0
M  V30 14025 C 1349.08 -1.36162 3.33905 0
M  V30 14026 O 1348.19 -2.47671 3.29747 0
M  V30 14027 H 1347.53 -0.177238 0.639908 0
M  V30 14028 H 1350.06 0.0814073 2.04438 0
M  V30 14029 H 1350.07 -1.7201 3.69968 0
M  V30 14030 H 1348.74 -0.642893 4.10901 0
M  V30 14031 H 1347.32 -2.13989 3.0539 0
M  V30 14032 N 1349.51 -1.55583 -0.251311 0
M  V30 14033 C 1350.73 -1.81597 -1.00186 0
M  V30 14034 C 1351.16 -0.598216 -1.78334 0
M  V30 14035 O 1350.51 0.452667 -1.75558 0
M  V30 14036 C 1350.56 -3.05301 -1.91895 0
M  V30 14037 O 1349.67 -2.81907 -3.01002 0
M  V30 14038 H 1349.01 -0.599578 -0.285311 0
M  V30 14039 H 1351.54 -2.02762 -0.273638 0
M  V30 14040 H 1351.55 -3.34616 -2.33444 0
M  V30 14041 H 1350.22 -3.93574 -1.34433 0
M  V30 14042 H 1348.8 -2.63747 -2.63613 0
M  V30 14043 N 1350.98 0.516783 -1.48886 0
M  V30 14044 C 1352.21 1.2944 -1.61024 0
M  V30 14045 C 1352.62 1.87195 -0.274705 0
M  V30 14046 O 1351.96 1.67787 0.747868 0
M  V30 14047 C 1352.03 2.4743 -2.60804 0
M  V30 14048 C 1351.69 2.10663 -4.05549 0
M  V30 14049 C 1352.69 1.65559 -4.92835 0
M  V30 14050 C 1350.37 2.20782 -4.51177 0
M  V30 14051 C 1352.37 1.31057 -6.23781 0
M  V30 14052 C 1350.05 1.85891 -5.82141 0
M  V30 14053 C 1351.05 1.41101 -6.68266 0
M  V30 14054 O 1350.74 1.06674 -7.96791 0
M  V30 14055 H 1350.47 0.399402 -0.545394 0
M  V30 14056 H 1353.03 0.628719 -1.95541 0
M  V30 14057 H 1351.26 3.17023 -2.21435 0
M  V30 14058 H 1352.94 3.09478 -2.62637 0
M  V30 14059 H 1353.71 1.57201 -4.58817 0
M  V30 14060 H 1349.59 2.54598 -3.84319 0
M  V30 14061 H 1353.13 0.960245 -6.9096 0
M  V30 14062 H 1349.03 1.93894 -6.15691 0
M  V30 14063 H 1349.8 1.19958 -8.09662 0
M  V30 14064 N 1352.46 1.37696 0.766659 0
M  V30 14065 C 1353.71 1.33382 1.52765 0
M  V30 14066 C 1354.04 -0.0800569 1.94035 0
M  V30 14067 O 1353.32 -1.03848 1.64456 0
M  V30 14068 C 1353.6 2.2776 2.78922 0
M  V30 14069 C 1353.45 3.77949 2.43874 0
M  V30 14070 C 1354.77 2.20494 3.80881 0
M  V30 14071 H 1351.89 0.485836 0.554195 0
M  V30 14072 H 1354.53 1.68438 0.879119 0
M  V30 14073 H 1352.68 1.97994 3.34261 0
M  V30 14074 H 1354.35 4.18333 1.9441 0
M  V30 14075 H 1352.6 3.96269 1.76503 0
M  V30 14076 H 1353.27 4.39428 3.34077 0
M  V30 14077 H 1355.74 2.46742 3.35048 0
M  V30 14078 H 1354.62 2.88663 4.66867 0
M  V30 14079 H 1354.88 1.19951 4.25516 0
M  V30 14080 N 1353.94 -0.993397 1.22349 0
M  V30 14081 C 1354.9 -2.065 0.994506 0
M  V30 14082 C 1355.9 -1.60753 -0.0388766 0
M  V30 14083 O 1357.09 -1.73053 0.199578 0
M  V30 14084 C 1354.22 -3.37182 0.502088 0
M  V30 14085 H 1355.42 -2.28248 1.94533 0
M  V30 14086 H 1352.97 -1.16489 1.04211 0
M  V30 14087 H 1353.71 -3.21119 -0.453114 0
M  V30 14088 H 1353.49 -3.71721 1.24763 0
M  V30 14089 H 1354.98 -4.16027 0.362108 0
M  V30 14090 N 1355.42 -1.03311 -1.19015 0
M  V30 14091 C 1356.35 -0.638279 -2.24607 0
M  V30 14092 C 1357.33 0.354795 -1.66359 0
M  V30 14093 O 1358.51 0.236574 -1.92754 0
M  V30 14094 C 1355.64 0.00737316 -3.47299 0
M  V30 14095 C 1354.6 -0.908431 -4.18248 0
M  V30 14096 C 1353.92 -0.127658 -5.34548 0
M  V30 14097 C 1355.22 -2.2241 -4.72579 0
M  V30 14098 H 1356.92 -1.52099 -2.57888 0
M  V30 14099 H 1354.46 -0.732779 -1.23961 0
M  V30 14100 H 1356.42 0.295256 -4.20364 0
M  V30 14101 H 1355.14 0.924912 -3.1323 0
M  V30 14102 H 1353.8 -1.18058 -3.47071 0
M  V30 14103 H 1353.45 0.792048 -4.96725 0
M  V30 14104 H 1353.15 -0.737702 -5.82951 0
M  V30 14105 H 1354.67 0.153385 -6.10407 0
M  V30 14106 H 1356.09 -1.99745 -5.37378 0
M  V30 14107 H 1354.48 -2.78644 -5.31486 0
M  V30 14108 H 1355.55 -2.87584 -3.90415 0
M  V30 14109 N 1356.9 1.35099 -0.81154 0
M  V30 14110 C 1357.86 2.28033 -0.230947 0
M  V30 14111 C 1358.86 1.49798 0.584575 0
M  V30 14112 O 1360.05 1.6949 0.402336 0
M  V30 14113 C 1357.18 3.341 0.677486 0
M  V30 14114 H 1358.37 2.80893 -1.05067 0
M  V30 14115 H 1355.93 1.45038 -0.582554 0
M  V30 14116 H 1356.66 2.86435 1.5207 0
M  V30 14117 H 1356.45 3.91986 0.0943563 0
M  V30 14118 H 1357.94 4.0345 1.07787 0
M  V30 14119 N 1358.37 0.56548 1.47106 0
M  V30 14120 C 1359.6 0.0496298 2.0684 0
M  V30 14121 C 1360.02 -1.24777 1.4169 0
M  V30 14122 O 1359.37 -1.75046 0.516239 0
M  V30 14123 C 1359.42 -0.140987 3.61225 0
M  V30 14124 O 1359.15 1.10504 4.23934 0
M  V30 14125 C 1360.65 -0.693171 4.37847 0
M  V30 14126 H 1357.87 0.0496018 0.669164 0
M  V30 14127 H 1360.41 0.781247 1.88989 0
M  V30 14128 H 1358.57 -0.822762 3.78562 0
M  V30 14129 H 1358.98 0.907978 5.16581 0
M  V30 14130 H 1360.45 -0.7758 5.46521 0
M  V30 14131 H 1360.93 -1.70632 4.04699 0
M  V30 14132 H 1361.54 -0.046826 4.25274 0
M  V30 14133 N 1359.85 -1.54672 0.302354 0
M  V30 14134 C 1360.78 -2.2653 -0.566265 0
M  V30 14135 C 1361.76 -1.26532 -1.13682 0
M  V30 14136 O 1362.95 -1.55307 -1.1659 0
M  V30 14137 C 1360.08 -3.00709 -1.73757 0
M  V30 14138 C 1359.03 -4.07865 -1.29731 0
M  V30 14139 C 1358.36 -4.69767 -2.55388 0
M  V30 14140 C 1359.66 -5.20547 -0.427567 0
M  V30 14141 H 1361.35 -2.99382 0.033071 0
M  V30 14142 H 1358.9 -1.4399 0.0173458 0
M  V30 14143 H 1360.85 -3.497 -2.35134 0
M  V30 14144 H 1359.58 -2.25437 -2.36317 0
M  V30 14145 H 1358.23 -3.59726 -0.706586 0
M  V30 14146 H 1357.88 -3.91134 -3.16265 0
M  V30 14147 H 1357.58 -5.42137 -2.26631 0
M  V30 14148 H 1359.11 -5.21521 -3.17566 0
M  V30 14149 H 1360.52 -5.65424 -0.947053 0
M  V30 14150 H 1358.92 -5.99645 -0.233704 0
M  V30 14151 H 1359.99 -4.81805 0.546993 0
M  V30 14152 N 1361.33 -0.0301034 -1.57571 0
M  V30 14153 C 1362.26 0.980187 -2.07183 0
M  V30 14154 C 1363.28 1.2882 -0.995449 0
M  V30 14155 O 1364.46 1.25268 -1.27162 0
M  V30 14156 C 1361.56 2.30734 -2.48224 0
M  V30 14157 C 1360.74 2.18434 -3.78953 0
M  V30 14158 C 1359.8 3.34092 -4.06533 0
M  V30 14159 O 1358.82 3.10934 -4.76769 0
M  V30 14160 N 1360.02 4.57914 -3.56784 0
M  V30 14161 H 1362.79 0.556877 -2.94481 0
M  V30 14162 H 1360.35 0.156632 -1.61141 0
M  V30 14163 H 1362.34 3.06936 -2.63766 0
M  V30 14164 H 1360.91 2.64703 -1.66287 0
M  V30 14165 H 1360.13 1.26953 -3.73198 0
M  V30 14166 H 1361.42 2.07421 -4.64601 0
M  V30 14167 H 1360.82 4.79623 -2.99964 0
M  V30 14168 H 1359.38 5.31281 -3.77603 0
M  V30 14169 N 1362.81 1.55714 0.243056 0
M  V30 14170 C 1363.77 1.89832 1.28438 0
M  V30 14171 C 1364.77 0.775083 1.40887 0
M  V30 14172 O 1365.96 1.04304 1.39521 0
M  V30 14173 C 1363.09 2.13016 2.66153 0
M  V30 14174 H 1364.29 2.82947 0.994022 0
M  V30 14175 H 1361.84 1.48665 0.482521 0
M  V30 14176 H 1362.57 1.22381 3.00322 0
M  V30 14177 H 1362.36 2.94824 2.58498 0
M  V30 14178 H 1363.85 2.40581 3.41336 0
M  V30 14179 N 1364.29 -0.50888 1.49158 0
M  V30 14180 C 1365.52 -1.28585 1.61708 0
M  V30 14181 C 1365.92 -1.87047 0.284629 0
M  V30 14182 O 1365.27 -1.68182 -0.738959 0
M  V30 14183 C 1365.33 -2.46043 2.62113 0
M  V30 14184 C 1364.99 -2.0851 4.0666 0
M  V30 14185 C 1365.99 -1.62943 4.93706 0
M  V30 14186 C 1363.68 -2.18386 4.52342 0
M  V30 14187 C 1365.67 -1.27747 6.24467 0
M  V30 14188 C 1363.36 -1.82801 5.83118 0
M  V30 14189 C 1364.35 -1.37555 6.69005 0
M  V30 14190 O 1364.04 -1.02447 7.97345 0
M  V30 14191 H 1363.77 -0.396504 0.547504 0
M  V30 14192 H 1366.33 -0.61834 1.95872 0
M  V30 14193 H 1364.56 -3.15844 2.23113 0
M  V30 14194 H 1366.25 -3.08081 2.64275 0
M  V30 14195 H 1367.01 -1.54766 4.59644 0
M  V30 14196 H 1362.89 -2.52556 3.85664 0
M  V30 14197 H 1366.44 -0.923589 6.91459 0
M  V30 14198 H 1362.33 -1.90626 6.16711 0
M  V30 14199 H 1363.1 -1.15663 8.10287 0
M  V30 14200 N 1365.76 -1.381 -0.759346 0
M  V30 14201 C 1366.99 -1.37213 -1.54855 0
M  V30 14202 C 1367.41 0.0395175 -1.88759 0
M  V30 14203 O 1366.76 1.00462 -1.5236 0
M  V30 14204 C 1366.82 -2.22232 -2.85123 0
M  V30 14205 O 1366.54 -3.57897 -2.52668 0
M  V30 14206 C 1368.04 -2.29461 -3.79292 0
M  V30 14207 H 1365.26 -0.469542 -0.479345 0
M  V30 14208 H 1367.8 -1.81604 -0.940216 0
M  V30 14209 H 1365.96 -1.81317 -3.42349 0
M  V30 14210 H 1366.37 -4.02599 -3.36176 0
M  V30 14211 H 1367.84 -2.93246 -4.67665 0
M  V30 14212 H 1368.32 -1.3066 -4.19315 0
M  V30 14213 H 1368.93 -2.70741 -3.27993 0
M  V30 14214 N 1367.24 0.986894 -1.22875 0
M  V30 14215 C 1368.47 1.768 -1.08427 0
M  V30 14216 C 1368.89 1.84612 0.360555 0
M  V30 14217 O 1368.25 1.30299 1.26063 0
M  V30 14218 C 1368.3 3.17638 -1.70701 0
M  V30 14219 O 1367.4 4.00957 -0.964752 0
M  V30 14220 H 1366.74 0.544199 -0.380451 0
M  V30 14221 H 1369.27 1.23931 -1.62795 0
M  V30 14222 H 1369.28 3.68243 -1.75672 0
M  V30 14223 H 1367.96 3.11267 -2.75837 0
M  V30 14224 H 1366.54 3.59477 -0.991493 0
M  V30 14225 N 1368.72 1.0394 1.18466 0
M  V30 14226 C 1369.65 0.573814 2.20868 0
M  V30 14227 C 1370.63 -0.390956 1.5783 0
M  V30 14228 O 1371.82 -0.305561 1.86007 0
M  V30 14229 C 1368.94 -0.161904 3.38313 0
M  V30 14230 C 1367.99 0.755924 4.19748 0
M  V30 14231 S 1368.82 2.23809 4.86487 0
M  V30 14232 C 1369.98 1.51318 6.07333 0
M  V30 14233 H 1370.21 1.44143 2.60019 0
M  V30 14234 H 1367.74 0.850252 1.2888 0
M  V30 14235 H 1369.7 -0.58022 4.06379 0
M  V30 14236 H 1368.36 -1.00539 2.97575 0
M  V30 14237 H 1367.56 0.187345 5.03652 0
M  V30 14238 H 1367.16 1.11303 3.57054 0
M  V30 14239 H 1369.45 0.805536 6.72694 0
M  V30 14240 H 1370.39 2.32922 6.68695 0
M  V30 14241 H 1370.8 1.00607 5.55462 0
M  V30 14242 N 1370.2 -1.34667 0.818693 0
M  V30 14243 C 1371.15 -2.27031 0.210001 0
M  V30 14244 C 1372.13 -1.48338 -0.623258 0
M  V30 14245 O 1373.32 -1.70409 -0.478531 0
M  V30 14246 C 1370.45 -3.37457 -0.63069 0
M  V30 14247 C 1369.54 -4.23565 0.212964 0
M  V30 14248 N 1369.93 -4.89286 1.28191 0
M  V30 14249 C 1368.23 -4.46 -0.00340477 0
M  V30 14250 C 1368.93 -5.53216 1.79798 0
M  V30 14251 N 1367.91 -5.32302 1.10253 0
M  V30 14252 H 1371.71 -2.75345 1.02773 0
M  V30 14253 H 1369.22 -1.48336 0.661071 0
M  V30 14254 H 1371.22 -4.0259 -1.0829 0
M  V30 14255 H 1369.88 -2.90694 -1.44663 0
M  V30 14256 H 1370.89 -4.90417 1.66467 0
M  V30 14257 H 1367.57 -4.10005 -0.787516 0
M  V30 14258 H 1368.96 -6.15613 2.69203 0
M  V30 14259 N 1371.68 -0.573274 -1.46804 0
M  V30 14260 C 1372.61 0.153316 -2.32996 0
M  V30 14261 C 1373.59 0.893013 -1.44773 0
M  V30 14262 O 1374.77 0.870329 -1.73606 0
M  V30 14263 C 1371.9 1.1736 -3.2687 0
M  V30 14264 C 1370.86 0.549347 -4.2446 0
M  V30 14265 C 1370.18 1.67542 -5.07773 0
M  V30 14266 C 1371.48 -0.50736 -5.1983 0
M  V30 14267 H 1373.18 -0.566305 -2.93995 0
M  V30 14268 H 1370.72 -0.273785 -1.41373 0
M  V30 14269 H 1372.68 1.6902 -3.86019 0
M  V30 14270 H 1371.4 1.92337 -2.63958 0
M  V30 14271 H 1370.06 0.0539142 -3.6656 0
M  V30 14272 H 1369.71 2.41463 -4.41253 0
M  V30 14273 H 1369.41 1.26343 -5.73856 0
M  V30 14274 H 1370.93 2.19496 -5.69784 0
M  V30 14275 H 1372.34 -0.0762061 -5.73249 0
M  V30 14276 H 1370.74 -0.839139 -5.94204 0
M  V30 14277 H 1371.81 -1.39723 -4.64333 0
M  V30 14278 N 1373.15 1.5451 -0.310553 0
M  V30 14279 C 1374.4 2.00326 0.295904 0
M  V30 14280 C 1374.73 1.19887 1.53158 0
M  V30 14281 O 1373.98 0.265615 1.93889 0
M  V30 14282 C 1374.28 3.5072 0.68779 0
M  V30 14283 C 1373.95 4.48677 -0.447229 0
M  V30 14284 C 1372.61 4.7518 -0.758796 0
M  V30 14285 C 1374.96 5.06953 -1.21028 0
M  V30 14286 C 1372.29 5.5722 -1.83637 0
M  V30 14287 C 1374.64 5.90167 -2.27784 0
M  V30 14288 C 1373.31 6.14977 -2.59537 0
M  V30 14289 H 1372.58 0.733046 0.108279 0
M  V30 14290 H 1375.22 1.86572 -0.431633 0
M  V30 14291 H 1373.53 3.62133 1.49556 0
M  V30 14292 H 1375.23 3.83602 1.16836 0
M  V30 14293 H 1371.82 4.28159 -0.1943 0
M  V30 14294 H 1376 4.86471 -0.98283 0
M  V30 14295 H 1371.26 5.74678 -2.08699 0
M  V30 14296 H 1375.43 6.34347 -2.87362 0
M  V30 14297 H 1373.06 6.78338 -3.43165 0
M  V30 14298 N 1374.63 0.0384594 1.57553 0
M  V30 14299 C 1375.88 -0.63814 1.92182 0
M  V30 14300 C 1376.21 -1.71595 0.915714 0
M  V30 14301 O 1375.46 -1.9556 -0.0739533 0
M  V30 14302 C 1375.76 -1.28439 3.33524 0
M  V30 14303 C 1375.43 -0.336034 4.49646 0
M  V30 14304 C 1374.09 -0.0750373 4.81141 0
M  V30 14305 C 1376.44 0.314642 5.20249 0
M  V30 14306 C 1373.77 0.844286 5.80593 0
M  V30 14307 C 1376.12 1.22208 6.20684 0
M  V30 14308 C 1374.79 1.49187 6.50615 0
M  V30 14309 H 1374.06 -0.233512 0.703245 0
M  V30 14310 H 1376.7 0.102223 1.91227 0
M  V30 14311 H 1375.01 -2.09973 3.30785 0
M  V30 14312 H 1376.71 -1.81462 3.57593 0
M  V30 14313 H 1373.3 -0.549638 4.25061 0
M  V30 14314 H 1377.48 0.126074 4.9614 0
M  V30 14315 H 1372.74 1.06092 6.02125 0
M  V30 14316 H 1376.91 1.7324 6.74508 0
M  V30 14317 H 1374.54 2.20588 7.27492 0
M  V30 14318 N 1376.11 -1.55841 -0.234795 0
M  V30 14319 C 1377.04 -1.87793 -1.31402 0
M  V30 14320 C 1378.06 -0.765113 -1.43701 0
M  V30 14321 O 1379.25 -1.04332 -1.44834 0
M  V30 14322 C 1376.35 -2.05976 -2.69123 0
M  V30 14323 C 1375.52 -3.36914 -2.7894 0
M  V30 14324 C 1374.58 -3.44691 -3.97586 0
M  V30 14325 O 1373.6 -4.17818 -3.86545 0
M  V30 14326 N 1374.81 -2.74866 -5.11301 0
M  V30 14327 H 1377.57 -2.80957 -1.04324 0
M  V30 14328 H 1375.13 -1.56226 -0.424872 0
M  V30 14329 H 1377.12 -2.08507 -3.46853 0
M  V30 14330 H 1375.69 -1.195 -2.88857 0
M  V30 14331 H 1374.91 -3.46595 -1.87791 0
M  V30 14332 H 1376.2 -4.23196 -2.82458 0
M  V30 14333 H 1375.6 -2.15208 -5.23165 0
M  V30 14334 H 1374.16 -2.83075 -5.87122 0
M  V30 14335 N 1377.59 0.500963 -1.49426 0
M  V30 14336 C 1378.84 1.25509 -1.58915 0
M  V30 14337 C 1379.16 1.92534 -0.275868 0
M  V30 14338 O 1378.42 1.81324 0.736212 0
M  V30 14339 C 1378.72 2.34448 -2.69757 0
M  V30 14340 C 1378.38 1.8488 -4.11254 0
M  V30 14341 C 1377.05 1.71081 -4.49761 0
M  V30 14342 C 1379.4 1.4778 -4.9981 0
M  V30 14343 C 1376.73 1.18561 -5.74596 0
M  V30 14344 C 1379.08 0.967118 -6.25164 0
M  V30 14345 C 1377.74 0.815523 -6.62499 0
M  V30 14346 H 1377.01 0.459268 -0.58151 0
M  V30 14347 H 1379.66 0.555817 -1.83256 0
M  V30 14348 H 1377.96 3.10163 -2.39387 0
M  V30 14349 H 1379.66 2.925 -2.74308 0
M  V30 14350 H 1376.25 1.9658 -3.8086 0
M  V30 14351 H 1380.44 1.57288 -4.70717 0
M  V30 14352 H 1375.69 1.05536 -6.02223 0
M  V30 14353 H 1379.87 0.670857 -6.93161 0
M  V30 14354 H 1377.49 0.406375 -7.59113 0
M  V30 14355 N 1379.07 1.38501 0.752011 0
M  V30 14356 C 1380.01 1.35857 1.86578 0
M  V30 14357 C 1380.98 0.220873 1.64625 0
M  V30 14358 O 1382.17 0.413348 1.86269 0
M  V30 14359 C 1379.31 1.19102 3.23896 0
M  V30 14360 C 1378.42 2.42272 3.5767 0
M  V30 14361 C 1377.56 2.18236 4.843 0
M  V30 14362 C 1376.6 3.37169 5.10865 0
M  V30 14363 N 1375.73 3.12558 6.28691 0
M  V30 14364 H 1380.57 2.31073 1.88173 0
M  V30 14365 H 1378.11 1.14803 0.919712 0
M  V30 14366 H 1380.07 1.07404 4.03138 0
M  V30 14367 H 1378.7 0.275243 3.21624 0
M  V30 14368 H 1377.75 2.64638 2.7326 0
M  V30 14369 H 1379.06 3.3091 3.73229 0
M  V30 14370 H 1378.22 2.03682 5.71488 0
M  V30 14371 H 1376.96 1.26966 4.70883 0
M  V30 14372 H 1375.96 3.52241 4.22145 0
M  V30 14373 H 1377.19 4.29317 5.26178 0
M  V30 14374 H 1375.13 2.23937 6.16594 0
M  V30 14375 H 1375.05 3.94746 6.44757 0
M  V30 14376 H 1376.32 3.01663 7.18763 0
M  V30 14377 N 1380.55 -0.980364 1.23396 0
M  V30 14378 C 1381.77 -1.75689 1.09275 0
M  V30 14379 C 1382.19 -1.85418 -0.355773 0
M  V30 14380 O 1381.55 -1.33337 -1.24609 0
M  V30 14381 C 1381.6 -3.18378 1.71223 0
M  V30 14382 O 1381.32 -3.09154 3.10411 0
M  V30 14383 C 1382.82 -4.12425 1.62545 0
M  V30 14384 H 1380.04 -0.551354 0.382427 0
M  V30 14385 H 1382.58 -1.23169 1.63247 0
M  V30 14386 H 1380.74 -3.67925 1.21285 0
M  V30 14387 H 1381.15 -3.9898 3.40464 0
M  V30 14388 H 1382.63 -5.1025 2.10592 0
M  V30 14389 H 1383.1 -4.35296 0.584275 0
M  V30 14390 H 1383.71 -3.68782 2.1185 0
M  V30 14391 N 1382.02 -1.04567 -1.17913 0
M  V30 14392 C 1383.25 -0.772204 -1.9195 0
M  V30 14393 C 1383.67 0.671303 -1.76462 0
M  V30 14394 O 1383.02 1.45805 -1.0976 0
M  V30 14395 C 1383.07 -1.13539 -3.43207 0
M  V30 14396 O 1382.8 -2.52223 -3.58211 0
M  V30 14397 C 1384.3 -0.887146 -4.34332 0
M  V30 14398 H 1381.52 -0.281234 -0.609219 0
M  V30 14399 H 1384.06 -1.39467 -1.49563 0
M  V30 14400 H 1382.22 -0.557784 -3.83363 0
M  V30 14401 H 1382.63 -2.66275 -4.51882 0
M  V30 14402 H 1384.1 -1.19107 -5.38997 0
M  V30 14403 H 1384.58 0.1779 -4.3884 0
M  V30 14404 H 1385.19 -1.44829 -3.99881 0
M  V30 14405 N 1383.5 1.34231 -0.825823 0
M  V30 14406 C 1384.73 2.02949 -0.427354 0
M  V30 14407 C 1385.15 1.61772 0.959755 0
M  V30 14408 O 1384.51 0.803799 1.62508 0
M  V30 14409 C 1384.56 3.56522 -0.540799 0
M  V30 14410 O 1383.66 4.10065 0.438213 0
M  V30 14411 H 1383 0.640378 -0.175535 0
M  V30 14412 H 1385.53 1.71416 -1.11704 0
M  V30 14413 H 1385.54 4.05857 -0.41763 0
M  V30 14414 H 1384.22 3.85839 -1.55246 0
M  V30 14415 H 1382.79 3.71894 0.273687 0
M  V30 14416 N 1384.98 0.581051 1.46498 0
M  V30 14417 C 1385.91 -0.140957 2.33074 0
M  V30 14418 C 1386.89 -0.885323 1.45245 0
M  V30 14419 O 1388.08 -0.86111 1.74065 0
M  V30 14420 C 1385.21 -1.15625 3.27488 0
M  V30 14421 C 1384.16 -0.526829 4.24745 0
M  V30 14422 C 1383.49 -1.64847 5.08655 0
M  V30 14423 C 1384.79 0.53492 5.19554 0
M  V30 14424 H 1386.48 0.581888 2.93691 0
M  V30 14425 H 1384.03 0.281278 1.41226 0
M  V30 14426 H 1385.98 -1.6697 3.8691 0
M  V30 14427 H 1384.7 -1.90935 2.64974 0
M  V30 14428 H 1383.36 -0.0344738 3.66584 0
M  V30 14429 H 1383.01 -2.3912 4.42528 0
M  V30 14430 H 1382.71 -1.23298 5.74518 0
M  V30 14431 H 1384.23 -2.16472 5.7094 0
M  V30 14432 H 1385.65 0.106606 5.73201 0
M  V30 14433 H 1384.04 0.870639 5.93751 0
M  V30 14434 H 1385.11 1.42184 4.63586 0
M  V30 14435 N 1386.46 -1.54343 0.318742 0
M  V30 14436 C 1387.73 -1.92635 -0.339299 0
M  V30 14437 C 1388.11 -1.24786 -1.7027 0
M  V30 14438 O 1387.46 -0.389844 -2.2515 0
M  V30 14439 C 1387.67 -3.46262 -0.436318 0
M  V30 14440 C 1389.02 -4.18809 -0.698871 0
M  V30 14441 O 1390.04 -3.52392 -0.519431 0
M  V30 14442 O 1388.9 -5.36422 -1.04471 0
M  V30 14443 H 1386 -0.804202 -0.192841 0
M  V30 14444 H 1388.54 -1.6566 0.368104 0
M  V30 14445 H 1387.32 -3.8781 0.521427 0
M  V30 14446 H 1386.94 -3.79327 -1.19149 0
M  V30 14447 N 1387.94 -0.0468143 -1.5753 0
M  V30 14448 C 1389.18 0.626699 -1.92138 0
M  V30 14449 C 1389.5 1.7164 -0.925463 0
M  V30 14450 O 1388.77 1.95876 0.0303531 0
M  V30 14451 H 1387.35 0.234479 -0.709245 0
M  V30 14452 H 1390.02 -0.0987892 -1.94649 0
M  V30 14453 H 1389.11 1.06811 -2.93254 0
M  V30 14454 N 1389.41 1.55964 0.226527 0
M  V30 14455 C 1390.34 1.95028 1.284 0
M  V30 14456 C 1391.33 0.817833 1.49149 0
M  V30 14457 O 1392.51 1.07975 1.61416 0
M  V30 14458 C 1389.64 2.26266 2.63478 0
M  V30 14459 C 1388.59 3.41954 2.57393 0
M  V30 14460 C 1387.92 3.58786 3.96456 0
M  V30 14461 C 1389.22 4.77069 2.12608 0
M  V30 14462 H 1390.91 2.83608 0.959513 0
M  V30 14463 H 1388.46 1.36451 0.460125 0
M  V30 14464 H 1390.41 2.52186 3.3761 0
M  V30 14465 H 1389.14 1.34533 2.97604 0
M  V30 14466 H 1387.8 3.16076 1.85719 0
M  V30 14467 H 1387.44 2.64437 4.27881 0
M  V30 14468 H 1387.14 4.36595 3.93267 0
M  V30 14469 H 1388.67 3.87048 4.72256 0
M  V30 14470 H 1390.08 5.02226 2.76481 0
M  V30 14471 H 1388.48 5.58126 2.2049 0
M  V30 14472 H 1389.55 4.7276 1.07823 0
M  V30 14473 N 1390.89 -0.493031 1.4969 0
M  V30 14474 C 1392.14 -1.2433 1.58823 0
M  V30 14475 C 1392.45 -1.9353 0.283823 0
M  V30 14476 O 1393.66 -2.70311 0.253801 0
M  V30 14477 C 1392.12 -2.25792 2.8026 0
M  V30 14478 C 1391.72 -1.62496 4.17491 0
M  V30 14479 C 1393.47 -3.01598 2.98729 0
M  V30 14480 C 1391.38 -2.62115 5.30141 0
M  V30 14481 H 1390.31 -0.467738 0.591386 0
M  V30 14482 H 1392.96 -0.516238 1.76089 0
M  V30 14483 H 1391.34 -3.01696 2.56506 0
M  V30 14484 H 1392.51 -0.925305 4.51414 0
M  V30 14485 H 1390.83 -0.990516 4.04447 0
M  V30 14486 H 1393.42 -3.76111 3.80058 0
M  V30 14487 H 1393.77 -3.59687 2.09597 0
M  V30 14488 H 1394.3 -2.32809 3.2256 0
M  V30 14489 H 1391.04 -2.08797 6.21357 0
M  V30 14490 H 1390.56 -3.30298 5.00663 0
M  V30 14491 H 1392.24 -3.24385 5.59807 0
M  V30 14492 N 1392.37 -1.38898 -0.744656 0
M  V30 14493 C 1393.3 -1.39571 -1.87195 0
M  V30 14494 C 1394.28 -0.260372 -1.68095 0
M  V30 14495 O 1395.47 -0.464776 -1.88556 0
M  V30 14496 C 1392.6 -1.22889 -3.24832 0
M  V30 14497 C 1391.55 -2.33721 -3.58551 0
M  V30 14498 C 1390.88 -2.02136 -4.9502 0
M  V30 14499 C 1392.18 -3.7601 -3.62511 0
M  V30 14500 H 1393.87 -2.33908 -1.86889 0
M  V30 14501 H 1391.42 -1.12591 -0.897739 0
M  V30 14502 H 1393.37 -1.21983 -4.03359 0
M  V30 14503 H 1392.09 -0.250172 -3.2564 0
M  V30 14504 H 1390.75 -2.33828 -2.82348 0
M  V30 14505 H 1390.4 -1.02726 -4.92399 0
M  V30 14506 H 1390.1 -2.76371 -5.18549 0
M  V30 14507 H 1391.62 -2.02864 -5.75915 0
M  V30 14508 H 1393.04 -3.77885 -4.31133 0
M  V30 14509 H 1391.44 -4.49524 -3.97553 0
M  V30 14510 H 1392.51 -4.07682 -2.62533 0
M  V30 14511 N 1393.85 0.973806 -1.23914 0
M  V30 14512 C 1395.08 1.74853 -1.10046 0
M  V30 14513 C 1395.49 1.85927 0.350388 0
M  V30 14514 O 1394.83 1.34252 1.25388 0
M  V30 14515 C 1394.89 3.18919 -1.65924 0
M  V30 14516 C 1394.56 3.31335 -3.14748 0
M  V30 14517 C 1395.55 3.17141 -4.11968 0
M  V30 14518 C 1393.24 3.55772 -3.54587 0
M  V30 14519 C 1395.23 3.27199 -5.47009 0
M  V30 14520 C 1392.92 3.65468 -4.89771 0
M  V30 14521 C 1393.92 3.51193 -5.85792 0
M  V30 14522 O 1393.6 3.60534 -7.18519 0
M  V30 14523 H 1393.34 0.555345 -0.385445 0
M  V30 14524 H 1395.89 1.23168 -1.64374 0
M  V30 14525 H 1394.12 3.71882 -1.06023 0
M  V30 14526 H 1395.81 3.78177 -1.47434 0
M  V30 14527 H 1396.58 2.98153 -3.82531 0
M  V30 14528 H 1392.45 3.65951 -2.80358 0
M  V30 14529 H 1396 3.15974 -6.21937 0
M  V30 14530 H 1391.9 3.83969 -5.18882 0
M  V30 14531 H 1392.66 3.77288 -7.26358 0
M  V30 14532 N 1395.33 1.05191 1.17357 0
M  V30 14533 C 1396.27 0.646796 2.23426 0
M  V30 14534 C 1397.27 -0.331918 1.66116 0
M  V30 14535 O 1398.47 -0.197982 1.78908 0
M  V30 14536 H 1394.85 0.190988 0.727343 0
M  V30 14537 H 1396.82 1.55152 2.54893 0
M  V30 14538 C 1395.57 0.037505 3.4768 0
M  V30 14539 H 1394.89 0.781686 3.92084 0
M  V30 14540 H 1396.33 -0.20858 4.23487 0
M  V30 14541 C 1394.79 -1.21581 3.14197 0
M  V30 14542 O 1395.32 -2.3052 3.28973 0
M  V30 14543 N 1393.53 -1.11346 2.68422 0
M  V30 14544 H 1393.07 -0.226943 2.56598 0
M  V30 14545 H 1393.03 -1.95291 2.46392 0
M  V30 14546 N 1396.8 -1.33791 0.83293 0
M  V30 14547 C 1398.03 -2.0272 0.438111 0
M  V30 14548 C 1398.45 -1.62279 -0.951163 0
M  V30 14549 O 1397.81 -0.812406 -1.62079 0
M  V30 14550 C 1397.86 -3.5623 0.559698 0
M  V30 14551 O 1396.96 -4.10292 -0.41646 0
M  V30 14552 H 1396.31 -0.639438 0.178928 0
M  V30 14553 H 1398.84 -1.70821 1.12612 0
M  V30 14554 H 1398.85 -4.0563 0.439148 0
M  V30 14555 H 1397.52 -3.8501 1.5729 0
M  V30 14556 H 1396.1 -3.72034 -0.25396 0
M  V30 14557 N 1398.28 -0.588812 -1.46187 0
M  V30 14558 C 1399.53 -0.0765765 -2.01955 0
M  V30 14559 C 1399.85 1.29034 -1.46203 0
M  V30 14560 O 1399.12 1.84836 -0.649044 0
M  V30 14561 H 1397.7 -0.025318 -0.746571 0
M  V30 14562 H 1400.36 -0.765971 -1.79217 0
M  V30 14563 H 1399.46 -0.0121702 -3.12098 0
M  V30 14564 N 1399.76 1.54172 -0.326923 0
M  V30 14565 C 1401.04 1.92812 0.329078 0
M  V30 14566 C 1401.42 1.25687 1.69605 0
M  V30 14567 O 1400.77 0.401779 2.2494 0
M  V30 14568 C 1400.98 3.46488 0.417949 0
M  V30 14569 C 1402.32 4.19174 0.67665 0
M  V30 14570 O 1403.35 3.52663 0.500735 0
M  V30 14571 O 1402.21 5.36968 1.01625 0
M  V30 14572 H 1399.3 0.805214 0.188573 0
M  V30 14573 H 1401.85 1.65462 -0.376884 0
M  V30 14574 H 1400.62 3.87528 -0.541986 0
M  V30 14575 H 1400.24 3.79954 1.17136 0
M  V30 14576 N 1401.24 0.0551678 1.57503 0
M  V30 14577 C 1402.49 -0.6165 1.92467 0
M  V30 14578 C 1402.81 -1.71147 0.934552 0
M  V30 14579 O 1402.08 -1.9589 -0.0199649 0
M  V30 14580 H 1400.66 -0.230714 0.710479 0
M  V30 14581 H 1403.32 0.109111 1.94594 0
M  V30 14582 H 1402.42 -1.05254 2.93816 0
M  V30 14583 N 1402.72 -1.56081 -0.218252 0
M  V30 14584 C 1403.66 -1.93544 -1.2901 0
M  V30 14585 C 1404.66 -0.817886 -1.48348 0
M  V30 14586 O 1405.86 -1.00274 -1.49483 0
M  V30 14587 H 1402.24 -0.61511 -0.432601 0
M  V30 14588 H 1404.21 -2.82975 -0.946966 0
M  V30 14589 C 1402.96 -2.27134 -2.63259 0
M  V30 14590 H 1402.28 -3.12643 -2.49188 0
M  V30 14591 H 1403.72 -2.57228 -3.3706 0
M  V30 14592 C 1402.18 -1.09764 -3.18518 0
M  V30 14593 O 1402.71 -0.360501 -4.00079 0
M  V30 14594 N 1400.92 -0.880589 -2.76937 0
M  V30 14595 H 1400.46 -1.48175 -2.10718 0
M  V30 14596 H 1400.42 -0.0970234 -3.1425 0
M  V30 14597 N 1404.2 0.485086 -1.49949 0
M  V30 14598 C 1405.47 1.24639 -1.50747 0
M  V30 14599 C 1405.85 2.09683 -0.244162 0
M  V30 14600 O 1405.2 2.1503 0.772949 0
M  V30 14601 C 1405.41 2.08946 -2.7954 0
M  V30 14602 C 1406.76 2.67604 -3.29656 0
M  V30 14603 O 1407.78 2.192 -2.80766 0
M  V30 14604 O 1406.64 3.55761 -4.14845 0
M  V30 14605 H 1403.74 0.564849 -0.604049 0
M  V30 14606 H 1406.28 0.498052 -1.62227 0
M  V30 14607 H 1405.05 1.46185 -3.62968 0
M  V30 14608 H 1404.68 2.90941 -2.70997 0
M  V30 14609 N 1405.67 1.39291 0.737279 0
M  V30 14610 C 1406.92 1.3639 1.49679 0
M  V30 14611 C 1407.25 -0.0408859 1.94457 0
M  V30 14612 O 1406.5 -1.02127 1.66939 0
M  V30 14613 C 1406.8 2.28043 2.75193 0
M  V30 14614 C 1406.47 3.75717 2.49294 0
M  V30 14615 C 1405.13 4.15955 2.41941 0
M  V30 14616 C 1407.48 4.69127 2.27088 0
M  V30 14617 C 1404.81 5.47669 2.10419 0
M  V30 14618 C 1407.16 6.01116 1.97084 0
M  V30 14619 C 1405.83 6.4042 1.88197 0
M  V30 14620 H 1405.1 0.499088 0.547716 0
M  V30 14621 H 1407.74 1.71779 0.846416 0
M  V30 14622 H 1406.05 1.85765 3.44962 0
M  V30 14623 H 1407.75 2.23093 3.33212 0
M  V30 14624 H 1404.34 3.43825 2.55896 0
M  V30 14625 H 1408.52 4.38875 2.31739 0
M  V30 14626 H 1403.78 5.77046 2.02059 0
M  V30 14627 H 1407.95 6.73026 1.78909 0
M  V30 14628 H 1405.58 7.42401 1.63537 0
M  V30 14629 N 1407.15 -0.967221 1.24429 0
M  V30 14630 C 1408.4 -1.70458 1.07829 0
M  V30 14631 C 1408.71 -1.91818 -0.38278 0
M  V30 14632 O 1409.92 -2.63129 -0.668982 0
M  V30 14633 C 1408.38 -3.06817 1.88125 0
M  V30 14634 C 1407.98 -2.93298 3.38645 0
M  V30 14635 C 1409.73 -3.84422 1.80056 0
M  V30 14636 C 1407.63 -4.2497 4.11284 0
M  V30 14637 H 1406.56 -0.639217 0.399897 0
M  V30 14638 H 1409.22 -1.07776 1.48515 0
M  V30 14639 H 1407.6 -3.70331 1.40254 0
M  V30 14640 H 1408.77 -2.38793 3.94099 0
M  V30 14641 H 1407.09 -2.29159 3.47671 0
M  V30 14642 H 1409.68 -4.81925 2.31629 0
M  V30 14643 H 1410.03 -4.09194 0.765908 0
M  V30 14644 H 1410.56 -3.27636 2.2561 0
M  V30 14645 H 1407.3 -4.05391 5.1511 0
M  V30 14646 H 1406.82 -4.79288 3.60615 0
M  V30 14647 H 1408.5 -4.93586 4.18308 0
M  V30 14648 N 1408.63 -1.05812 -1.16797 0
M  V30 14649 C 1409.88 -0.773066 -1.87487 0
M  V30 14650 C 1410.21 0.698471 -1.81204 0
M  V30 14651 O 1409.48 1.51129 -1.22434 0
M  V30 14652 C 1409.77 -1.2621 -3.37258 0
M  V30 14653 C 1409.62 -2.79704 -3.52258 0
M  V30 14654 C 1410.94 -0.866104 -4.31494 0
M  V30 14655 H 1408.06 -0.282304 -0.680789 0
M  V30 14656 H 1410.7 -1.3132 -1.37314 0
M  V30 14657 H 1408.85 -0.802608 -3.80119 0
M  V30 14658 H 1410.52 -3.33824 -3.1837 0
M  V30 14659 H 1408.76 -3.18673 -2.94329 0
M  V30 14660 H 1409.44 -3.08985 -4.57419 0
M  V30 14661 H 1411.91 -1.26178 -3.96508 0
M  V30 14662 H 1410.79 -1.23581 -5.34807 0
M  V30 14663 H 1411.05 0.229391 -4.41504 0
M  V30 14664 N 1410.11 1.33347 -0.840014 0
M  V30 14665 C 1411.35 1.98037 -0.43692 0
M  V30 14666 C 1411.69 1.66382 1.00154 0
M  V30 14667 O 1410.96 0.944311 1.70038 0
M  V30 14668 C 1411.24 3.54012 -0.65937 0
M  V30 14669 C 1411.1 3.9535 -2.14518 0
M  V30 14670 C 1412.42 4.39972 -0.106258 0
M  V30 14671 H 1409.54 0.719373 -0.160221 0
M  V30 14672 H 1412.18 1.57969 -1.05574 0
M  V30 14673 H 1410.33 3.88274 -0.132633 0
M  V30 14674 H 1412 3.7134 -2.73687 0
M  V30 14675 H 1410.24 3.4504 -2.62926 0
M  V30 14676 H 1410.91 5.03992 -2.25158 0
M  V30 14677 H 1413.39 4.12362 -0.556511 0
M  V30 14678 H 1412.27 5.48125 -0.291583 0
M  V30 14679 H 1412.53 4.30872 0.990032 0
M  V30 14680 N 1411.59 0.596556 1.45873 0
M  V30 14681 C 1412.5 -0.130832 2.34235 0
M  V30 14682 C 1413.51 -0.871805 1.50584 0
M  V30 14683 O 1414.69 -0.831877 1.83417 0
M  V30 14684 C 1411.75 -1.12279 3.28016 0
M  V30 14685 C 1410.81 -0.384982 4.2757 0
M  V30 14686 C 1410.05 -1.32969 5.1687 0
M  V30 14687 O 1410.27 -2.56696 5.09375 0
M  V30 14688 O 1409.2 -0.832741 5.96112 0
M  V30 14689 H 1413.03 0.59503 2.97814 0
M  V30 14690 H 1410.61 0.356873 1.45075 0
M  V30 14691 H 1412.5 -1.6944 3.85834 0
M  V30 14692 H 1411.17 -1.82988 2.67015 0
M  V30 14693 H 1410.08 0.228816 3.734 0
M  V30 14694 H 1411.41 0.281398 4.91395 0
M  V30 14695 N 1413.06 -1.53996 0.335095 0
M  V30 14696 C 1413.99 -2.2768 -0.518087 0
M  V30 14697 C 1414.97 -1.28915 -1.10972 0
M  V30 14698 O 1416.16 -1.57745 -1.1327 0
M  V30 14699 C 1413.29 -3.04327 -1.67339 0
M  V30 14700 C 1412.24 -4.10525 -1.2105 0
M  V30 14701 C 1411.57 -4.75078 -2.45366 0
M  V30 14702 C 1412.87 -5.21337 -0.317055 0
M  V30 14703 H 1414.56 -2.99244 0.0965669 0
M  V30 14704 H 1412.11 -1.4392 0.0478842 0
M  V30 14705 H 1414.06 -3.54608 -2.27664 0
M  V30 14706 H 1412.79 -2.30399 -2.31481 0
M  V30 14707 H 1411.45 -3.61144 -0.630124 0
M  V30 14708 H 1411.09 -3.97754 -3.07897 0
M  V30 14709 H 1410.79 -5.46822 -2.1508 0
M  V30 14710 H 1412.32 -5.2814 -3.06432 0
M  V30 14711 H 1413.73 -5.67305 -0.826905 0
M  V30 14712 H 1412.13 -6.00006 -0.106458 0
M  V30 14713 H 1413.2 -4.80536 0.649068 0
M  V30 14714 N 1414.54 -0.0635198 -1.57472 0
M  V30 14715 C 1415.79 0.608384 -1.93459 0
M  V30 14716 C 1416.12 1.6976 -0.943141 0
M  V30 14717 O 1415.4 1.94478 0.0289567 0
M  V30 14718 C 1415.68 1.19302 -3.39763 0
M  V30 14719 C 1415.53 0.11102 -4.49663 0
M  V30 14720 C 1416.85 2.101 -3.86712 0
M  V30 14721 H 1413.97 0.219688 -0.703496 0
M  V30 14722 H 1416.61 -0.127803 -1.8957 0
M  V30 14723 H 1414.76 1.82044 -3.43209 0
M  V30 14724 H 1416.43 -0.521606 -4.58342 0
M  V30 14725 H 1414.68 -0.559408 -4.30178 0
M  V30 14726 H 1415.35 0.560332 -5.49149 0
M  V30 14727 H 1417.82 1.57305 -3.8522 0
M  V30 14728 H 1416.7 2.47945 -4.89708 0
M  V30 14729 H 1416.96 3.00603 -3.24177 0
M  V30 14730 N 1416.02 1.56195 0.209972 0
M  V30 14731 C 1416.97 1.93355 1.26026 0
M  V30 14732 C 1417.94 0.792195 1.45991 0
M  V30 14733 O 1419.12 1.04909 1.5937 0
M  V30 14734 C 1416.26 2.26558 2.60318 0
M  V30 14735 C 1415.37 3.53685 2.48055 0
M  V30 14736 C 1414.51 3.76279 3.7495 0
M  V30 14737 C 1413.55 4.96881 3.57457 0
M  V30 14738 N 1412.69 5.15806 4.76328 0
M  V30 14739 H 1417.53 2.82907 0.936357 0
M  V30 14740 H 1415.06 1.40015 0.451022 0
M  V30 14741 H 1417.02 2.43821 3.38537 0
M  V30 14742 H 1415.65 1.40165 2.90781 0
M  V30 14743 H 1414.7 3.44551 1.61211 0
M  V30 14744 H 1416.01 4.42057 2.31056 0
M  V30 14745 H 1415.17 3.93702 4.6161 0
M  V30 14746 H 1413.91 2.86209 3.94887 0
M  V30 14747 H 1412.91 4.79397 2.69181 0
M  V30 14748 H 1414.14 5.88447 3.38979 0
M  V30 14749 H 1412.08 4.28681 4.96557 0
M  V30 14750 H 1412 5.98332 4.62099 0
M  V30 14751 H 1413.27 5.37674 5.64382 0
M  V30 14752 N 1417.5 -0.477127 1.50204 0
M  V30 14753 C 1418.75 -1.22722 1.60573 0
M  V30 14754 C 1419.07 -1.92595 0.305326 0
M  V30 14755 O 1418.34 -1.83836 -0.676842 0
M  V30 14756 H 1416.92 -0.455973 0.591691 0
M  V30 14757 H 1419.58 -0.550915 1.86952 0
M  V30 14758 H 1418.67 -1.97837 2.41385 0
M  V30 14759 N 1418.98 -1.3968 -0.729882 0
M  V30 14760 C 1420.21 -1.40263 -1.5169 0
M  V30 14761 C 1420.61 0.00325293 -1.892 0
M  V30 14762 O 1419.96 0.986225 -1.54982 0
M  V30 14763 C 1420.02 -2.21629 -2.83056 0
M  V30 14764 C 1419.68 -3.70204 -2.67951 0
M  V30 14765 C 1420.68 -4.63169 -2.36158 0
M  V30 14766 C 1418.37 -4.13851 -2.84662 0
M  V30 14767 C 1420.36 -5.97763 -2.21265 0
M  V30 14768 C 1418.05 -5.4852 -2.69387 0
M  V30 14769 C 1419.04 -6.4029 -2.37734 0
M  V30 14770 O 1418.73 -7.72478 -2.22561 0
M  V30 14771 H 1418.46 -0.480808 -0.475184 0
M  V30 14772 H 1421.02 -1.84184 -0.909136 0
M  V30 14773 H 1419.25 -1.72465 -3.46111 0
M  V30 14774 H 1420.94 -2.14328 -3.447 0
M  V30 14775 H 1421.7 -4.30748 -2.22893 0
M  V30 14776 H 1417.58 -3.42751 -3.0829 0
M  V30 14777 H 1421.13 -6.69359 -1.96481 0
M  V30 14778 H 1417.02 -5.8053 -2.82232 0
M  V30 14779 H 1417.79 -7.83258 -2.37591 0
M  V30 14780 N 1420.45 0.960609 -1.2494 0
M  V30 14781 C 1421.38 2.074 -1.07274 0
M  V30 14782 C 1422.37 1.70092 0.0164365 0
M  V30 14783 O 1423.55 1.93604 -0.151975 0
M  V30 14784 C 1420.68 3.40491 -0.684317 0
M  V30 14785 C 1419.63 3.91784 -1.72306 0
M  V30 14786 C 1418.96 5.21301 -1.18949 0
M  V30 14787 C 1420.26 4.18829 -3.12056 0
M  V30 14788 H 1421.95 2.22438 -2.00404 0
M  V30 14789 H 1419.5 1.06888 -0.964937 0
M  V30 14790 H 1421.45 4.17826 -0.547686 0
M  V30 14791 H 1420.18 3.25374 0.282687 0
M  V30 14792 H 1418.84 3.16613 -1.84802 0
M  V30 14793 H 1418.48 5.02549 -0.212892 0
M  V30 14794 H 1418.18 5.56588 -1.8837 0
M  V30 14795 H 1419.71 6.01238 -1.06513 0
M  V30 14796 H 1421.12 4.86844 -3.02748 0
M  V30 14797 H 1419.52 4.6536 -3.78894 0
M  V30 14798 H 1420.59 3.25333 -3.59564 0
M  V30 14799 N 1421.93 1.0643 1.16234 0
M  V30 14800 C 1422.88 0.646274 2.18649 0
M  V30 14801 C 1423.87 -0.323768 1.57609 0
M  V30 14802 O 1425.06 -0.138991 1.76453 0
M  V30 14803 C 1422.19 0.0356797 3.43281 0
M  V30 14804 C 1421.27 1.0303 4.11395 0
M  V30 14805 N 1421.66 2.2064 4.55139 0
M  V30 14806 C 1419.96 0.861544 4.376 0
M  V30 14807 C 1420.66 2.83665 5.07848 0
M  V30 14808 N 1419.64 2.11384 5.00817 0
M  V30 14809 H 1423.44 1.54217 2.50189 0
M  V30 14810 H 1420.96 0.936176 1.32701 0
M  V30 14811 H 1422.95 -0.281637 4.15948 0
M  V30 14812 H 1421.61 -0.855453 3.13228 0
M  V30 14813 H 1422.62 2.58409 4.48826 0
M  V30 14814 H 1419.3 0.0225171 4.17494 0
M  V30 14815 H 1420.69 3.83473 5.51723 0
M  V30 14816 N 1423.41 -1.329 0.847073 0
M  V30 14817 C 1424.64 -2.01418 0.459829 0
M  V30 14818 C 1425.05 -1.63857 -0.945921 0
M  V30 14819 O 1424.39 -0.851946 -1.6275 0
M  V30 14820 C 1424.45 -3.55859 0.510376 0
M  V30 14821 C 1424.12 -4.16824 1.87368 0
M  V30 14822 C 1425.11 -4.35602 2.83808 0
M  V30 14823 C 1422.8 -4.53067 2.16876 0
M  V30 14824 C 1424.79 -4.89782 4.07912 0
M  V30 14825 C 1422.48 -5.06953 3.41235 0
M  V30 14826 C 1423.48 -5.25258 4.36569 0
M  V30 14827 O 1423.17 -5.77995 5.58728 0
M  V30 14828 H 1422.9 -0.651608 0.179952 0
M  V30 14829 H 1425.45 -1.70624 1.14353 0
M  V30 14830 H 1423.68 -3.86015 -0.230145 0
M  V30 14831 H 1425.37 -4.05659 0.139804 0
M  V30 14832 H 1426.14 -4.07942 2.62313 0
M  V30 14833 H 1422.02 -4.3811 1.43461 0
M  V30 14834 H 1425.56 -5.03985 4.82333 0
M  V30 14835 H 1421.46 -5.34045 3.62583 0
M  V30 14836 H 1422.23 -5.96399 5.60581 0
M  V30 14837 N 1424.89 -0.604284 -1.45555 0
M  V30 14838 C 1426.13 -0.0983316 -2.02561 0
M  V30 14839 C 1426.47 1.26659 -1.47211 0
M  V30 14840 O 1425.74 1.83476 -0.645519 0
M  V30 14841 C 1426.03 -0.0558349 -3.60057 0
M  V30 14842 C 1425.88 -1.45119 -4.25747 0
M  V30 14843 C 1427.2 0.633708 -4.35514 0
M  V30 14844 H 1424.32 -0.0372071 -0.73606 0
M  V30 14845 H 1426.96 -0.775623 -1.73448 0
M  V30 14846 H 1425.11 0.520935 -3.84992 0
M  V30 14847 H 1426.78 -2.07478 -4.12008 0
M  V30 14848 H 1425.02 -2.01283 -3.84275 0
M  V30 14849 H 1425.69 -1.37372 -5.34633 0
M  V30 14850 H 1428.17 0.143501 -4.15852 0
M  V30 14851 H 1427.05 0.632538 -5.45243 0
M  V30 14852 H 1427.31 1.69917 -4.08143 0
M  V30 14853 N 1426.37 1.53816 -0.343257 0
M  V30 14854 C 1427.61 2.00909 0.253346 0
M  V30 14855 C 1427.94 1.23109 1.5058 0
M  V30 14856 O 1427.2 0.306682 1.93282 0
M  V30 14857 C 1427.5 3.521 0.613243 0
M  V30 14858 C 1427.16 4.47627 -0.5423 0
M  V30 14859 C 1425.82 4.73463 -0.859418 0
M  V30 14860 C 1428.18 5.04272 -1.31754 0
M  V30 14861 C 1425.5 5.532 -1.95415 0
M  V30 14862 C 1427.86 5.85203 -2.40251 0
M  V30 14863 C 1426.52 6.09334 -2.72523 0
M  V30 14864 H 1425.79 0.735178 0.0927058 0
M  V30 14865 H 1428.44 1.85615 -0.471111 0
M  V30 14866 H 1426.74 3.65224 1.41841 0
M  V30 14867 H 1428.44 3.85994 1.08673 0
M  V30 14868 H 1425.03 4.27651 -0.285076 0
M  V30 14869 H 1429.21 4.84277 -1.0858 0
M  V30 14870 H 1424.47 5.70122 -2.20842 0
M  V30 14871 H 1428.64 6.28109 -3.00753 0
M  V30 14872 H 1426.27 6.70906 -3.57476 0
M  V30 14873 N 1427.84 0.0718701 1.57436 0
M  V30 14874 C 1429.12 -0.638233 1.84894 0
M  V30 14875 C 1429.5 -1.87786 0.964343 0
M  V30 14876 O 1428.85 -2.28479 0.0306523 0
M  V30 14877 C 1429.06 -0.975817 3.3508 0
M  V30 14878 C 1430.41 -1.34927 4.02591 0
M  V30 14879 O 1431.43 -1.06754 3.39826 0
M  V30 14880 O 1430.29 -1.87589 5.13296 0
M  V30 14881 H 1427.38 -0.317 0.763832 0
M  V30 14882 H 1429.93 0.102807 1.69388 0
M  V30 14883 H 1428.7 -0.0953948 3.91184 0
M  V30 14884 H 1428.33 -1.77362 3.55849 0
M  V30 14885 N 1429.32 -1.56304 -0.201686 0
M  V30 14886 C 1430.25 -1.97046 -1.25281 0
M  V30 14887 C 1431.23 -0.841458 -1.47829 0
M  V30 14888 O 1432.42 -1.10529 -1.59678 0
M  V30 14889 C 1429.55 -2.30429 -2.59845 0
M  V30 14890 C 1428.5 -3.46006 -2.5192 0
M  V30 14891 C 1427.83 -3.65047 -3.90697 0
M  V30 14892 C 1429.13 -4.80391 -2.04992 0
M  V30 14893 H 1430.82 -2.85099 -0.914272 0
M  V30 14894 H 1428.37 -1.37166 -0.438359 0
M  V30 14895 H 1430.32 -2.57525 -3.33555 0
M  V30 14896 H 1429.05 -1.39251 -2.95426 0
M  V30 14897 H 1427.7 -3.18991 -1.80667 0
M  V30 14898 H 1427.35 -2.71211 -4.2362 0
M  V30 14899 H 1427.05 -4.42796 -3.86271 0
M  V30 14900 H 1428.58 -3.94512 -4.66039 0
M  V30 14901 H 1429.99 -5.06561 -2.68456 0
M  V30 14902 H 1428.39 -5.61563 -2.11582 0
M  V30 14903 H 1429.46 -4.74416 -1.00288 0
M  V30 14904 N 1430.8 0.469154 -1.50455 0
M  V30 14905 C 1432.05 1.21868 -1.61222 0
M  V30 14906 C 1432.37 1.9243 -0.315535 0
M  V30 14907 O 1431.64 1.84192 0.667083 0
M  V30 14908 H 1430.22 0.452828 -0.594101 0
M  V30 14909 H 1432.88 0.540993 -1.87241 0
M  V30 14910 H 1431.98 1.96554 -2.42431 0
M  V30 14911 N 1432.28 1.40065 0.722464 0
M  V30 14912 C 1433.23 1.39947 1.85789 0
M  V30 14913 C 1434.22 0.28089 1.67055 0
M  V30 14914 O 1435.43 0.451575 1.74244 0
M  V30 14915 H 1431.8 0.437296 0.611781 0
M  V30 14916 H 1433.77 2.35695 1.83004 0
M  V30 14917 C 1432.52 1.27218 3.2359 0
M  V30 14918 H 1431.84 2.12566 3.38609 0
M  V30 14919 H 1433.28 1.31194 4.03192 0
M  V30 14920 C 1431.74 -0.0182466 3.36895 0
M  V30 14921 O 1432.27 -0.983761 3.89468 0
M  V30 14922 N 1430.48 -0.0854707 2.90474 0
M  V30 14923 H 1430.03 0.700953 2.4788 0
M  V30 14924 H 1429.98 -0.948367 2.99755 0
M  V30 14925 N 1433.76 -0.95397 1.25448 0
M  V30 14926 C 1435.01 -1.6953 1.10018 0
M  V30 14927 C 1435.33 -1.9166 -0.359385 0
M  V30 14928 O 1434.6 -1.50417 -1.25506 0
M  V30 14929 H 1433.18 -0.628238 0.404136 0
M  V30 14930 H 1435.84 -1.14691 1.57581 0
M  V30 14931 H 1434.93 -2.67427 1.60901 0
M  V30 14932 N 1435.24 -1.07045 -1.15668 0
M  V30 14933 C 1436.2 -0.69198 -2.18505 0
M  V30 14934 C 1437.2 0.266185 -1.58582 0
M  V30 14935 O 1438.39 0.0475566 -1.74135 0
M  V30 14936 C 1435.52 -0.0194196 -3.40894 0
M  V30 14937 H 1436.71 -1.60241 -2.53501 0
M  V30 14938 H 1434.27 -0.866598 -1.30076 0
M  V30 14939 H 1435 0.903398 -3.11463 0
M  V30 14940 H 1434.79 -0.708519 -3.85645 0
M  V30 14941 H 1436.28 0.230829 -4.16962 0
M  V30 14942 N 1436.71 1.32449 -0.85411 0
M  V30 14943 C 1437.66 2.30821 -0.287115 0
M  V30 14944 C 1438.66 1.58823 0.58921 0
M  V30 14945 O 1439.86 1.73563 0.477075 0
M  V30 14946 H 1436.24 0.748336 -0.0741416 0
M  V30 14947 H 1438.21 2.76134 -1.13104 0
M  V30 14948 C 1436.96 3.43937 0.51013 0
M  V30 14949 H 1436.28 3.995 -0.154895 0
M  V30 14950 H 1437.72 4.14927 0.872451 0
M  V30 14951 C 1436.18 2.91147 1.69513 0
M  V30 14952 O 1436.71 2.88595 2.7942 0
M  V30 14953 N 1434.91 2.47554 1.52202 0
M  V30 14954 H 1434.46 2.49829 0.627941 0
M  V30 14955 H 1434.42 2.12587 2.31633 0
M  V30 14956 N 1438.19 0.611994 1.45232 0
M  V30 14957 C 1439.12 -0.0914869 2.33321 0
M  V30 14958 C 1440.1 -0.854315 1.4709 0
M  V30 14959 O 1441.29 -0.823994 1.75852 0
M  V30 14960 C 1438.42 -1.08652 3.29867 0
M  V30 14961 C 1437.37 -0.436615 4.25767 0
M  V30 14962 C 1436.7 -1.54021 5.12037 0
M  V30 14963 C 1438 0.645005 5.18302 0
M  V30 14964 H 1439.69 0.644053 2.92391 0
M  V30 14965 H 1437.24 0.311171 1.40598 0
M  V30 14966 H 1439.19 -1.58726 3.90364 0
M  V30 14967 H 1437.91 -1.85271 2.68965 0
M  V30 14968 H 1436.57 0.0432918 3.66574 0
M  V30 14969 H 1436.22 -2.29679 4.475 0
M  V30 14970 H 1435.92 -1.11084 5.77005 0
M  V30 14971 H 1437.45 -2.04313 5.75403 0
M  V30 14972 H 1438.86 0.228166 5.72846 0
M  V30 14973 H 1437.26 0.996387 5.9177 0
M  V30 14974 H 1438.33 1.51985 4.60466 0
M  V30 14975 N 1439.67 -1.53632 0.351409 0
M  V30 14976 C 1440.92 -2.00222 -0.243731 0
M  V30 14977 C 1441.23 -1.24305 -1.51022 0
M  V30 14978 O 1442.44 -1.61411 -2.18309 0
M  V30 14979 C 1440.89 -3.56619 -0.48487 0
M  V30 14980 C 1440.5 -4.414 0.766173 0
M  V30 14981 C 1442.25 -4.11603 -1.03844 0
M  V30 14982 C 1440.15 -5.89321 0.4954 0
M  V30 14983 H 1439.08 -0.74801 -0.0948534 0
M  V30 14984 H 1441.73 -1.77433 0.467957 0
M  V30 14985 H 1440.12 -3.75505 -1.25746 0
M  V30 14986 H 1441.29 -4.34288 1.54047 0
M  V30 14987 H 1439.6 -3.97448 1.24194 0
M  V30 14988 H 1442.2 -5.19736 -1.25611 0
M  V30 14989 H 1442.54 -3.65311 -1.99634 0
M  V30 14990 H 1443.08 -3.96459 -0.326363 0
M  V30 14991 H 1439.82 -6.39863 1.42324 0
M  V30 14992 H 1439.34 -5.99317 -0.240662 0
M  V30 14993 H 1441.02 -6.46897 0.115584 0
M  V30 14994 N 1441.15 -0.0802183 -1.57396 0
M  V30 14995 C 1442.09 0.884041 -2.13198 0
M  V30 14996 C 1443.06 1.28975 -1.04664 0
M  V30 14997 O 1444.25 1.37413 -1.32372 0
M  V30 14998 C 1441.39 2.14323 -2.7048 0
M  V30 14999 C 1440.5 1.7894 -3.93198 0
M  V30 15000 C 1439.64 2.99534 -4.38695 0
M  V30 15001 C 1438.68 2.60207 -5.54039 0
M  V30 15002 N 1437.81 3.73587 -5.94455 0
M  V30 15003 H 1442.65 0.40131 -2.95285 0
M  V30 15004 H 1440.19 0.186429 -1.45914 0
M  V30 15005 H 1442.15 2.88046 -3.01804 0
M  V30 15006 H 1440.78 2.60122 -1.91144 0
M  V30 15007 H 1439.83 0.952465 -3.68283 0
M  V30 15008 H 1441.14 1.46012 -4.76951 0
M  V30 15009 H 1440.3 3.81526 -4.71724 0
M  V30 15010 H 1439.04 3.35661 -3.53812 0
M  V30 15011 H 1438.04 1.76638 -5.20652 0
M  V30 15012 H 1439.27 2.2524 -6.40659 0
M  V30 15013 H 1437.21 4.0946 -5.12521 0
M  V30 15014 H 1437.13 3.44455 -6.72969 0
M  V30 15015 H 1438.4 4.56133 -6.3211 0
M  V30 15016 N 1442.63 1.56409 0.193394 0
M  V30 15017 C 1443.87 1.80367 0.911717 0
M  V30 15018 C 1444.19 0.653561 1.83721 0
M  V30 15019 O 1443.46 -0.328001 1.93135 0
M  V30 15020 H 1442.04 0.665316 0.339652 0
M  V30 15021 H 1444.71 1.93887 0.198496 0
M  V30 15022 H 1443.8 2.7359 1.50182 0
M  V30 15023 N 1444.1 -0.461169 1.50702 0
M  V30 15024 C 1445.33 -1.24019 1.66235 0
M  V30 15025 C 1445.75 -1.84827 0.349388 0
M  V30 15026 O 1445.11 -1.67743 -0.687888 0
M  V30 15027 C 1445.16 -2.31743 2.76274 0
M  V30 15028 O 1444.26 -3.3664 2.38217 0
M  V30 15029 H 1443.6 -0.364424 0.55506 0
M  V30 15030 H 1446.13 -0.547636 1.97135 0
M  V30 15031 H 1446.14 -2.76902 2.99649 0
M  V30 15032 H 1444.82 -1.86858 3.7156 0
M  V30 15033 H 1443.4 -2.97123 2.25327 0
M  V30 15034 N 1445.58 -1.40446 -0.715026 0
M  V30 15035 C 1446.81 -1.42263 -1.50917 0
M  V30 15036 C 1447.23 -0.0242402 -1.88084 0
M  V30 15037 O 1446.59 0.967817 -1.53307 0
M  V30 15038 C 1446.64 -2.31998 -2.7606 0
M  V30 15039 O 1445.74 -1.76361 -3.72787 0
M  V30 15040 H 1445.08 -0.483614 -0.454988 0
M  V30 15041 H 1447.61 -1.84682 -0.880549 0
M  V30 15042 H 1447.62 -2.47204 -3.24583 0
M  V30 15043 H 1446.3 -3.33614 -2.48343 0
M  V30 15044 H 1444.87 -1.70504 -3.31636 0
M  V30 15045 N 1447.06 0.947303 -1.25952 0
M  V30 15046 C 1448.01 2.06642 -1.06779 0
M  V30 15047 C 1449 1.694 0.00348362 0
M  V30 15048 O 1450.21 1.79351 -0.152715 0
M  V30 15049 H 1446.58 0.676499 -0.32841 0
M  V30 15050 H 1448.55 2.19968 -2.01635 0
M  V30 15051 C 1447.3 3.40353 -0.711015 0
M  V30 15052 H 1446.63 3.69483 -1.52718 0
M  V30 15053 H 1448.07 4.19493 -0.616606 0
M  V30 15054 C 1446.52 3.3181 0.58344 0
M  V30 15055 O 1447.05 3.67431 1.6235 0
M  V30 15056 N 1445.26 2.84919 0.571797 0
M  V30 15057 H 1444.81 2.56128 -0.274962 0
M  V30 15058 H 1444.77 2.79586 1.43803 0
M  V30 15059 N 1448.54 1.07657 1.15099 0
M  V30 15060 C 1449.49 0.699678 2.19939 0
M  V30 15061 C 1450.46 -0.310432 1.63173 0
M  V30 15062 O 1451.64 -0.196177 1.89789 0
M  V30 15063 C 1448.78 0.106963 3.44934 0
M  V30 15064 C 1447.89 1.16892 4.15885 0
M  V30 15065 C 1447.03 0.540884 5.28439 0
M  V30 15066 C 1446.07 1.58542 5.91211 0
M  V30 15067 N 1445.2 0.979731 6.95231 0
M  V30 15068 H 1450.04 1.59805 2.51528 0
M  V30 15069 H 1447.58 0.798746 1.23525 0
M  V30 15070 H 1449.54 -0.254335 4.16424 0
M  V30 15071 H 1448.17 -0.754756 3.13852 0
M  V30 15072 H 1447.22 1.64775 3.4286 0
M  V30 15073 H 1448.53 1.96078 4.58645 0
M  V30 15074 H 1447.69 0.127397 6.06566 0
M  V30 15075 H 1446.43 -0.282708 4.8688 0
M  V30 15076 H 1445.43 2.00865 5.11794 0
M  V30 15077 H 1446.66 2.41135 6.34847 0
M  V30 15078 H 1444.6 0.177098 6.55761 0
M  V30 15079 H 1444.52 1.70878 7.36435 0
M  V30 15080 H 1445.79 0.591849 7.7725 0
M  V30 15081 N 1450.02 -1.31994 0.861122 0
M  V30 15082 C 1451.43 -1.79271 0.521437 0
M  V30 15083 C 1451.78 -1.71046 -0.96113 0
M  V30 15084 O 1450.9 -1.2729 -1.75003 0
M  V30 15085 C 1451.5 -3.25507 0.939731 0
M  V30 15086 C 1450.06 -3.70713 0.651845 0
M  V30 15087 C 1449.2 -2.52967 1.13592 0
M  V30 15088 H 1452.16 -1.19201 1.0477 0
M  V30 15089 H 1452.18 -3.79619 0.258754 0
M  V30 15090 H 1451.69 -3.3146 2.0188 0
M  V30 15091 H 1449.79 -3.70268 -0.416232 0
M  V30 15092 H 1449.9 -4.63236 1.22267 0
M  V30 15093 H 1448.27 -2.48558 0.555971 0
M  V30 15094 H 1449.05 -2.61671 2.22223 0
M  V30 15095 N 1451.49 -0.619688 -1.44906 0
M  V30 15096 C 1452.42 0.0791121 -2.33366 0
M  V30 15097 C 1453.41 0.846503 -1.47541 0
M  V30 15098 O 1454.59 0.814657 -1.76287 0
M  V30 15099 C 1451.72 1.06901 -3.30438 0
M  V30 15100 C 1450.67 0.41403 -4.25993 0
M  V30 15101 C 1450 1.51303 -5.12846 0
M  V30 15102 C 1451.3 -0.672483 -5.17953 0
M  V30 15103 H 1452.99 -0.659551 -2.92045 0
M  V30 15104 H 1450.54 -0.318623 -1.40431 0
M  V30 15105 H 1452.49 1.56653 -3.912 0
M  V30 15106 H 1451.22 1.83842 -2.69944 0
M  V30 15107 H 1449.88 -0.0627315 -3.66546 0
M  V30 15108 H 1449.52 2.27303 -4.48712 0
M  V30 15109 H 1449.22 1.08022 -5.77586 0
M  V30 15110 H 1450.75 2.01258 -5.76479 0
M  V30 15111 H 1452.16 -0.258542 -5.72717 0
M  V30 15112 H 1450.56 -1.02776 -5.91234 0
M  V30 15113 H 1451.63 -1.54425 -4.59653 0
M  V30 15114 N 1452.97 1.53444 -0.359552 0
M  V30 15115 C 1453.92 2.27053 0.504949 0
M  V30 15116 C 1454.91 1.29801 1.08849 0
M  V30 15117 O 1456.12 1.47451 1.03239 0
M  V30 15118 H 1452.5 0.729756 0.181549 0
M  V30 15119 H 1454.47 2.98082 -0.137719 0
M  V30 15120 C 1453.22 3.06815 1.63585 0
M  V30 15121 H 1452.54 3.81488 1.19611 0
M  V30 15122 H 1453.98 3.61508 2.21558 0
M  V30 15123 C 1452.44 2.17286 2.57466 0
M  V30 15124 O 1452.97 1.77961 3.60129 0
M  V30 15125 N 1451.17 1.82041 2.26516 0
M  V30 15126 H 1450.72 2.14218 1.43068 0
M  V30 15127 H 1450.68 1.22423 2.89586 0
M  V30 15128 N 1454.45 0.0885642 1.57351 0
M  V30 15129 C 1455.73 -0.618587 1.85561 0
M  V30 15130 C 1456.11 -1.86753 0.984206 0
M  V30 15131 O 1455.46 -2.28434 0.0548839 0
M  V30 15132 C 1455.67 -0.940222 3.36096 0
M  V30 15133 C 1457.01 -1.30649 4.04 0
M  V30 15134 O 1458.04 -1.03144 3.4094 0
M  V30 15135 O 1456.9 -1.82135 5.15256 0
M  V30 15136 H 1453.99 -0.308881 0.767152 0
M  V30 15137 H 1456.54 0.120767 1.6927 0
M  V30 15138 H 1455.31 -0.0538991 3.91263 0
M  V30 15139 H 1454.93 -1.73577 3.5771 0
M  V30 15140 N 1455.93 -1.56509 -0.185096 0
M  V30 15141 C 1456.88 -1.96237 -1.24875 0
M  V30 15142 C 1457.87 -0.849169 -1.46579 0
M  V30 15143 O 1459.08 -1.03422 -1.47322 0
M  V30 15144 H 1455.45 -0.624147 -0.419457 0
M  V30 15145 H 1457.42 -2.8492 -0.88673 0
M  V30 15146 C 1456.17 -2.32667 -2.58382 0
M  V30 15147 H 1455.49 -3.17858 -2.425 0
M  V30 15148 H 1456.93 -2.6432 -3.31528 0
M  V30 15149 C 1455.39 -1.16496 -3.16118 0
M  V30 15150 O 1455.92 -0.445283 -3.99224 0
M  V30 15151 N 1454.13 -0.939133 -2.75007 0
M  V30 15152 H 1453.68 -1.52611 -2.07527 0
M  V30 15153 H 1453.63 -0.163659 -3.13974 0
M  V30 15154 N 1457.41 0.45317 -1.50944 0
M  V30 15155 C 1458.34 1.56678 -1.67287 0
M  V30 15156 C 1459.35 1.53089 -0.553853 0
M  V30 15157 O 1460.54 1.58152 -0.827653 0
M  V30 15158 C 1457.64 2.95585 -1.65779 0
M  V30 15159 C 1456.81 3.2385 -2.94007 0
M  V30 15160 C 1455.87 4.42401 -2.84899 0
M  V30 15161 O 1454.9 4.4183 -3.58853 0
M  V30 15162 N 1456.1 5.4508 -1.99671 0
M  V30 15163 H 1458.87 1.43069 -2.63347 0
M  V30 15164 H 1456.43 0.641875 -1.48632 0
M  V30 15165 H 1458.42 3.7289 -1.57275 0
M  V30 15166 H 1456.99 3.02872 -0.773791 0
M  V30 15167 H 1456.21 2.34991 -3.16501 0
M  V30 15168 H 1457.5 3.39554 -3.7892 0
M  V30 15169 H 1456.89 5.48374 -1.38933 0
M  V30 15170 H 1455.45 6.21298 -1.97057 0
M  V30 15171 N 1458.88 1.40823 0.707568 0
M  V30 15172 C 1460.13 1.40743 1.46843 0
M  V30 15173 C 1460.49 0.0119104 1.92396 0
M  V30 15174 O 1459.78 -0.960008 1.65814 0
M  V30 15175 C 1459.97 2.33829 2.70294 0
M  V30 15176 C 1459.8 3.82294 2.36816 0
M  V30 15177 C 1458.57 4.51056 2.27764 0
M  V30 15178 C 1460.77 4.7358 2.00565 0
M  V30 15179 N 1458.75 5.84711 1.87045 0
M  V30 15180 C 1460.12 5.96093 1.7051 0
M  V30 15181 C 1462.18 4.6134 1.8727 0
M  V30 15182 C 1460.88 7.07729 1.28497 0
M  V30 15183 C 1462.91 5.72926 1.46662 0
M  V30 15184 C 1462.27 6.94529 1.1751 0
M  V30 15185 H 1458.37 0.570255 0.535101 0
M  V30 15186 H 1460.95 1.766 0.81979 0
M  V30 15187 H 1459.12 2.00087 3.32896 0
M  V30 15188 H 1460.85 2.2455 3.36689 0
M  V30 15189 H 1457.61 4.04839 2.45768 0
M  V30 15190 H 1458.03 6.55515 1.69201 0
M  V30 15191 H 1462.68 3.67834 2.08467 0
M  V30 15192 H 1460.39 8.01112 1.06044 0
M  V30 15193 H 1463.98 5.65454 1.36942 0
M  V30 15194 H 1462.86 7.79408 0.865604 0
M  V30 15195 N 1460.36 -0.94061 1.26453 0
M  V30 15196 C 1461.31 -2.02524 1.04728 0
M  V30 15197 C 1462.3 -1.60887 -0.0205193 0
M  V30 15198 O 1463.49 -1.75906 0.196501 0
M  V30 15199 C 1460.62 -3.3644 0.682862 0
M  V30 15200 C 1459.7 -3.84559 1.78815 0
M  V30 15201 N 1460.09 -4.05323 3.02567 0
M  V30 15202 C 1458.39 -4.13478 1.67188 0
M  V30 15203 C 1459.09 -4.45191 3.74406 0
M  V30 15204 N 1458.07 -4.51927 3.02098 0
M  V30 15205 H 1461.87 -2.1659 1.9866 0
M  V30 15206 H 1459.39 -1.12649 1.16978 0
M  V30 15207 H 1461.38 -4.13789 0.508379 0
M  V30 15208 H 1460.04 -3.23744 -0.248973 0
M  V30 15209 H 1461.05 -3.91996 3.38466 0
M  V30 15210 H 1457.73 -4.09567 0.809986 0
M  V30 15211 H 1459.12 -4.69442 4.80701 0
M  V30 15212 N 1461.84 -1.08266 -1.14527 0
M  V30 15213 C 1462.79 -0.705807 -2.21633 0
M  V30 15214 C 1463.78 0.287758 -1.66938 0
M  V30 15215 O 1464.99 0.150479 -1.7937 0
M  V30 15216 H 1461.36 -0.210206 -0.722023 0
M  V30 15217 H 1463.33 -1.61855 -2.5069 0
M  V30 15218 C 1462.08 -0.129673 -3.47458 0
M  V30 15219 H 1461.41 -0.885365 -3.89873 0
M  V30 15220 H 1462.85 0.0962264 -4.23891 0
M  V30 15221 C 1461.31 1.13208 -3.1731 0
M  V30 15222 O 1461.84 2.21717 -3.34969 0
M  V30 15223 N 1460.04 1.0419 -2.7128 0
M  V30 15224 H 1459.59 0.15883 -2.5711 0
M  V30 15225 H 1459.55 1.88689 -2.51483 0
M  V30 15226 N 1463.32 1.31536 -0.86811 0
M  V30 15227 C 1464.57 1.97066 -0.478829 0
M  V30 15228 C 1464.9 1.68469 0.966021 0
M  V30 15229 O 1464.17 0.980166 1.67997 0
M  V30 15230 C 1464.46 3.52533 -0.734313 0
M  V30 15231 C 1464.31 3.90711 -2.22856 0
M  V30 15232 C 1465.63 4.39647 -0.199559 0
M  V30 15233 H 1462.75 0.715813 -0.175444 0
M  V30 15234 H 1465.39 1.55694 -1.08901 0
M  V30 15235 H 1463.54 3.87905 -0.214962 0
M  V30 15236 H 1465.21 3.65451 -2.81502 0
M  V30 15237 H 1463.45 3.39385 -2.70185 0
M  V30 15238 H 1464.13 4.99103 -2.35797 0
M  V30 15239 H 1466.6 4.11088 -0.643853 0
M  V30 15240 H 1465.48 5.47383 -0.407783 0
M  V30 15241 H 1465.74 4.32875 0.898414 0
M  V30 15242 N 1464.8 0.627364 1.44575 0
M  V30 15243 C 1465.73 -0.129056 2.27835 0
M  V30 15244 C 1466.71 -0.854852 1.38315 0
M  V30 15245 O 1467.89 -0.859709 1.67754 0
M  V30 15246 C 1465.02 -1.18866 3.17157 0
M  V30 15247 C 1464.07 -0.563816 4.22757 0
M  V30 15248 S 1464.9 0.643269 5.31622 0
M  V30 15249 C 1466.05 -0.416443 6.24513 0
M  V30 15250 H 1466.29 0.577281 2.91641 0
M  V30 15251 H 1463.82 0.415427 1.48706 0
M  V30 15252 H 1465.78 -1.79508 3.69171 0
M  V30 15253 H 1464.44 -1.86717 2.52578 0
M  V30 15254 H 1463.63 -1.36173 4.85256 0
M  V30 15255 H 1463.23 -0.0321045 3.73986 0
M  V30 15256 H 1465.53 -1.29006 6.65104 0
M  V30 15257 H 1466.47 0.172871 7.07889 0
M  V30 15258 H 1466.88 -0.740651 5.5962 0
M  V30 15259 N 1466.28 -1.53251 0.367684 0
M  V30 15260 C 1467.52 -2.00469 -0.222481 0
M  V30 15261 C 1467.84 -1.259 -1.49695 0
M  V30 15262 O 1469.04 -1.63717 -2.16585 0
M  V30 15263 C 1467.5 -3.57113 -0.447018 0
M  V30 15264 C 1467.11 -4.40562 0.812946 0
M  V30 15265 C 1468.85 -4.12681 -0.994725 0
M  V30 15266 C 1466.76 -5.88763 0.557877 0
M  V30 15267 H 1465.69 -0.748974 -0.0869144 0
M  V30 15268 H 1468.34 -1.76927 0.48675 0
M  V30 15269 H 1466.72 -3.76818 -1.21756 0
M  V30 15270 H 1467.9 -4.3263 1.58644 0
M  V30 15271 H 1466.21 -3.96108 1.28403 0
M  V30 15272 H 1468.81 -5.2104 -1.20091 0
M  V30 15273 H 1469.15 -3.67408 -1.95748 0
M  V30 15274 H 1469.68 -3.96783 -0.284295 0
M  V30 15275 H 1466.42 -6.38317 1.49102 0
M  V30 15276 H 1465.94 -5.99539 -0.177082 0
M  V30 15277 H 1467.62 -6.46738 0.18419 0
M  V30 15278 N 1467.75 -0.0969077 -1.57302 0
M  V30 15279 C 1468.98 0.578086 -1.99181 0
M  V30 15280 C 1469.4 1.60818 -0.975667 0
M  V30 15281 O 1468.76 1.81215 0.0556054 0
M  V30 15282 C 1468.81 1.20076 -3.40021 0
M  V30 15283 O 1467.91 2.31656 -3.41188 0
M  V30 15284 H 1467.25 0.146506 -0.647636 0
M  V30 15285 H 1469.78 -0.178855 -2.03817 0
M  V30 15286 H 1469.79 1.54162 -3.77754 0
M  V30 15287 H 1468.47 0.446114 -4.135 0
M  V30 15288 H 1467.05 1.99175 -3.15252 0
M  V30 15289 N 1469.23 1.56605 0.176793 0
M  V30 15290 C 1470.65 1.50601 0.528354 0
M  V30 15291 C 1470.85 0.800205 1.8493 0
M  V30 15292 O 1469.9 0.358299 2.49945 0
M  V30 15293 C 1471.22 2.95322 0.566172 0
M  V30 15294 C 1472.76 3.06097 0.653751 0
M  V30 15295 C 1473.24 4.52265 0.722511 0
M  V30 15296 N 1474.73 4.5649 0.785548 0
M  V30 15297 C 1475.47 5.66926 0.859232 0
M  V30 15298 N 1474.96 6.87006 0.894088 0
M  V30 15299 N 1476.75 5.54883 0.897832 0
M  V30 15300 H 1468.91 2.00899 -0.689442 0
M  V30 15301 H 1471.17 0.915011 -0.24791 0
M  V30 15302 H 1470.87 3.50095 -0.33566 0
M  V30 15303 H 1470.75 3.49671 1.41456 0
M  V30 15304 H 1473.14 2.51361 1.54601 0
M  V30 15305 H 1473.22 2.54842 -0.221207 0
M  V30 15306 H 1472.86 5.0763 -0.165469 0
M  V30 15307 H 1472.79 5.01271 1.61353 0
M  V30 15308 H 1475.28 3.70032 0.767117 0
M  V30 15309 H 1475.59 7.66922 0.951333 0
M  V30 15310 H 1473.94 6.89628 0.862457 0
M  V30 15311 H 1477.13 4.5999 0.867564 0
M  V30 15312 H 1477.3 6.40972 0.951795 0
M  V30 15313 N 1470.71 -0.445159 1.51182 0
M  V30 15314 C 1471.99 -1.20598 1.53998 0
M  V30 15315 C 1472.37 -2.08962 0.29967 0
M  V30 15316 O 1471.71 -2.17003 -0.715666 0
M  V30 15317 C 1471.92 -2.01461 2.84982 0
M  V30 15318 C 1473.27 -2.5877 3.36635 0
M  V30 15319 O 1474.3 -2.11679 2.86479 0
M  V30 15320 O 1473.16 -3.44637 4.24132 0
M  V30 15321 H 1470.25 -0.548635 0.618812 0
M  V30 15322 H 1472.8 -0.454865 1.6349 0
M  V30 15323 H 1471.57 -1.36511 3.66716 0
M  V30 15324 H 1471.19 -2.83654 2.78615 0
M  V30 15325 N 1472.19 -1.41197 -0.700089 0
M  V30 15326 C 1473.42 -1.43658 -1.48896 0
M  V30 15327 C 1473.83 -0.0405771 -1.88756 0
M  V30 15328 O 1473.19 0.93909 -1.56484 0
M  V30 15329 C 1473.24 -2.34125 -2.75441 0
M  V30 15330 O 1472.96 -3.68291 -2.37261 0
M  V30 15331 C 1474.46 -2.45342 -3.69218 0
M  V30 15332 H 1471.68 -0.48945 -0.458999 0
M  V30 15333 H 1474.22 -1.85429 -0.862345 0
M  V30 15334 H 1472.38 -1.95674 -3.34351 0
M  V30 15335 H 1472.79 -4.16495 -3.18798 0
M  V30 15336 H 1474.27 -3.12818 -4.54807 0
M  V30 15337 H 1474.74 -1.48327 -4.13395 0
M  V30 15338 H 1475.35 -2.84409 -3.16214 0
M  V30 15339 N 1473.67 0.933891 -1.2695 0
M  V30 15340 C 1474.89 1.72042 -1.15828 0
M  V30 15341 C 1475.32 1.85975 0.28193 0
M  V30 15342 O 1474.67 1.35528 1.20423 0
M  V30 15343 C 1474.72 3.10112 -1.84019 0
M  V30 15344 O 1473.83 3.96504 -1.13394 0
M  V30 15345 H 1473.17 0.527573 -0.40319 0
M  V30 15346 H 1475.7 1.16914 -1.67905 0
M  V30 15347 H 1475.71 3.60461 -1.91133 0
M  V30 15348 H 1474.38 2.99287 -2.8879 0
M  V30 15349 H 1472.96 3.54948 -1.14307 0
M  V30 15350 N 1475.14 1.08871 1.13951 0
M  V30 15351 C 1476.09 0.71755 2.21255 0
M  V30 15352 C 1477.09 -0.278901 1.67088 0
M  V30 15353 O 1478.29 -0.140964 1.79447 0
M  V30 15354 H 1474.67 0.214032 0.720898 0
M  V30 15355 H 1476.64 1.63182 2.49828 0
M  V30 15356 C 1475.39 0.148098 3.47384 0
M  V30 15357 H 1474.71 0.906028 3.89398 0
M  V30 15358 H 1476.15 -0.0737451 4.23936 0
M  V30 15359 C 1474.61 -1.11524 3.17906 0
M  V30 15360 O 1475.14 -2.19937 3.3614 0
M  V30 15361 N 1473.34 -1.0275 2.71829 0
M  V30 15362 H 1472.89 -0.145193 2.5719 0
M  V30 15363 H 1472.85 -1.87353 2.5248 0
M  V30 15364 N 1476.62 -1.31073 0.875073 0
M  V30 15365 C 1477.55 -2.30855 0.350468 0
M  V30 15366 C 1478.53 -1.60569 -0.561384 0
M  V30 15367 O 1479.72 -1.88242 -0.477329 0
M  V30 15368 C 1476.85 -3.44444 -0.444493 0
M  V30 15369 C 1475.8 -4.26357 0.374716 0
M  V30 15370 C 1475.13 -5.31903 -0.546243 0
M  V30 15371 C 1476.43 -4.96817 1.61153 0
M  V30 15372 H 1478.12 -2.74983 1.18427 0
M  V30 15373 H 1475.67 -1.32199 0.570909 0
M  V30 15374 H 1477.62 -4.13304 -0.82206 0
M  V30 15375 H 1476.34 -2.99096 -1.31185 0
M  V30 15376 H 1475 -3.59171 0.734295 0
M  V30 15377 H 1474.65 -4.82803 -1.41102 0
M  V30 15378 H 1474.35 -5.876 -0.00198173 0
M  V30 15379 H 1475.88 -6.03621 -0.920542 0
M  V30 15380 H 1477.29 -5.58247 1.30511 0
M  V30 15381 H 1475.69 -5.62334 2.09524 0
M  V30 15382 H 1476.76 -4.2351 2.36151 0
M  V30 15383 N 1478.1 -0.635022 -1.4424 0
M  V30 15384 C 1479.05 0.0895375 -2.27824 0
M  V30 15385 C 1480.03 0.812405 -1.38884 0
M  V30 15386 O 1481.23 0.69787 -1.62662 0
M  V30 15387 C 1478.36 1.06778 -3.26272 0
M  V30 15388 C 1477.44 0.344333 -4.227 0
M  V30 15389 N 1477.83 -0.629195 -5.01871 0
M  V30 15390 C 1476.13 0.588254 -4.42104 0
M  V30 15391 C 1476.83 -1.05697 -5.72017 0
M  V30 15392 N 1475.81 -0.394953 -5.42163 0
M  V30 15393 H 1479.61 -0.65777 -2.86445 0
M  V30 15394 H 1477.12 -0.460836 -1.55724 0
M  V30 15395 H 1479.12 1.6015 -3.84913 0
M  V30 15396 H 1477.78 1.81535 -2.69212 0
M  V30 15397 H 1478.79 -1.00717 -5.08012 0
M  V30 15398 H 1475.47 1.31839 -3.96137 0
M  V30 15399 H 1476.86 -1.86148 -6.45599 0
M  V30 15400 N 1479.58 1.53054 -0.375806 0
M  V30 15401 C 1480.81 2.0582 0.211135 0
M  V30 15402 C 1481.22 1.24856 1.4162 0
M  V30 15403 O 1480.58 0.291786 1.80152 0
M  V30 15404 C 1480.63 3.56577 0.594573 0
M  V30 15405 O 1480.35 4.34472 -0.562607 0
M  V30 15406 C 1481.85 4.25639 1.23882 0
M  V30 15407 H 1479.07 0.670085 0.0350268 0
M  V30 15408 H 1481.62 1.9732 -0.537135 0
M  V30 15409 H 1479.77 3.65194 1.29275 0
M  V30 15410 H 1480.18 5.23902 -0.250487 0
M  V30 15411 H 1481.66 5.32408 1.45759 0
M  V30 15412 H 1482.14 3.80001 2.20218 0
M  V30 15413 H 1482.74 4.21302 0.581786 0
M  V30 15414 N 1481.06 0.105248 1.57248 0
M  V30 15415 C 1482.3 -0.556878 1.95004 0
M  V30 15416 C 1482.64 -1.672 0.987818 0
M  V30 15417 O 1481.91 -1.94487 0.022616 0
M  V30 15418 C 1482.19 -1.10252 3.42807 0
M  V30 15419 C 1482.05 0.00823908 4.49799 0
M  V30 15420 C 1483.37 -1.99774 3.92146 0
M  V30 15421 H 1480.48 -0.200959 0.709073 0
M  V30 15422 H 1483.13 0.178019 1.89164 0
M  V30 15423 H 1481.28 -1.7288 3.47915 0
M  V30 15424 H 1482.95 0.642944 4.56797 0
M  V30 15425 H 1481.19 0.673265 4.28544 0
M  V30 15426 H 1481.86 -0.414538 5.50441 0
M  V30 15427 H 1484.34 -1.47036 3.89255 0
M  V30 15428 H 1483.21 -2.34874 4.9611 0
M  V30 15429 H 1483.48 -2.91902 3.32033 0
M  V30 15430 N 1482.53 -1.56697 -0.168486 0
M  V30 15431 C 1483.48 -1.96628 -1.20855 0
M  V30 15432 C 1484.45 -0.830623 -1.4384 0
M  V30 15433 O 1485.64 -1.09097 -1.56533 0
M  V30 15434 C 1482.78 -2.3338 -2.5422 0
M  V30 15435 C 1481.89 -3.60137 -2.3859 0
M  V30 15436 C 1481.02 -3.86088 -3.64842 0
M  V30 15437 C 1480.06 -5.06184 -3.44157 0
M  V30 15438 N 1479.2 -5.28254 -4.62485 0
M  V30 15439 H 1484.04 -2.8529 -0.86102 0
M  V30 15440 H 1481.58 -1.41162 -0.413741 0
M  V30 15441 H 1483.54 -2.52711 -3.31953 0
M  V30 15442 H 1482.17 -1.47825 -2.86963 0
M  V30 15443 H 1481.22 -3.48704 -1.52019 0
M  V30 15444 H 1482.53 -4.48028 -2.19254 0
M  V30 15445 H 1481.68 -4.05802 -4.5101 0
M  V30 15446 H 1480.42 -2.96578 -3.8716 0
M  V30 15447 H 1479.43 -4.86366 -2.56376 0
M  V30 15448 H 1480.65 -5.97228 -3.23258 0
M  V30 15449 H 1478.6 -4.41695 -4.85017 0
M  V30 15450 H 1478.52 -6.10373 -4.46072 0
M  V30 15451 H 1479.78 -5.52448 -5.49928 0
M  V30 15452 N 1484.01 0.437135 -1.51416 0
M  V30 15453 C 1485.26 1.1835 -1.63328 0
M  V30 15454 C 1485.57 1.92343 -0.355455 0
M  V30 15455 O 1486.78 2.69183 -0.353951 0
M  V30 15456 C 1485.24 2.15235 -2.88447 0
M  V30 15457 C 1484.84 1.46889 -4.23235 0
M  V30 15458 C 1486.59 2.90303 -3.09716 0
M  V30 15459 C 1484.5 2.42259 -5.39504 0
M  V30 15460 H 1483.43 0.445467 -0.608338 0
M  V30 15461 H 1486.08 0.450528 -1.77883 0
M  V30 15462 H 1484.46 2.91968 -2.67527 0
M  V30 15463 H 1485.63 0.757128 -4.54537 0
M  V30 15464 H 1483.95 0.839725 -4.07845 0
M  V30 15465 H 1486.54 3.61747 -3.93756 0
M  V30 15466 H 1486.89 3.5166 -2.22802 0
M  V30 15467 H 1487.42 2.20677 -3.30978 0
M  V30 15468 H 1484.16 1.85591 -6.28678 0
M  V30 15469 H 1483.68 3.11488 -5.12577 0
M  V30 15470 H 1485.36 3.03384 -5.7146 0
M  V30 15471 N 1485.49 1.41566 0.692592 0
M  V30 15472 C 1486.77 1.31572 1.44735 0
M  V30 15473 C 1487.15 -0.0553081 2.11028 0
M  V30 15474 O 1486.5 -1.06974 2.01913 0
M  V30 15475 C 1486.71 2.47125 2.46435 0
M  V30 15476 C 1488.05 2.88427 3.11601 0
M  V30 15477 O 1489.08 2.46886 2.5676 0
M  V30 15478 O 1487.94 3.6027 4.10935 0
M  V30 15479 H 1485.03 0.517949 0.644715 0
M  V30 15480 H 1487.58 1.53536 0.722818 0
M  V30 15481 H 1486.35 3.38601 1.96124 0
M  V30 15482 H 1485.97 2.27054 3.26393 0
M  V30 15483 N 1486.97 -0.927146 1.27443 0
M  V30 15484 C 1488.2 -1.70896 1.16629 0
M  V30 15485 C 1488.61 -1.8676 -0.276811 0
M  V30 15486 O 1487.97 -1.38503 -1.18842 0
M  V30 15487 C 1488.02 -3.1083 1.84573 0
M  V30 15488 O 1487.74 -2.9571 3.23244 0
M  V30 15489 C 1489.24 -4.05159 1.79891 0
M  V30 15490 H 1486.46 -0.534638 0.405467 0
M  V30 15491 H 1489.01 -1.16134 1.68325 0
M  V30 15492 H 1487.16 -3.6245 1.3678 0
M  V30 15493 H 1487.57 -3.84181 3.57079 0
M  V30 15494 H 1489.05 -5.00859 2.32044 0
M  V30 15495 H 1489.53 -4.32426 0.768373 0
M  V30 15496 H 1490.13 -3.59464 2.273 0
M  V30 15497 N 1488.45 -1.09474 -1.13372 0
M  V30 15498 C 1489.39 -0.73458 -2.18798 0
M  V30 15499 C 1490.36 0.284433 -1.63647 0
M  V30 15500 O 1491.55 0.165958 -1.90077 0
M  V30 15501 C 1488.69 -0.161826 -3.4472 0
M  V30 15502 C 1487.8 -1.23494 -4.13973 0
M  V30 15503 C 1486.94 -0.624886 -5.27512 0
M  V30 15504 C 1485.98 -1.67927 -5.88614 0
M  V30 15505 N 1485.11 -1.09021 -6.93584 0
M  V30 15506 H 1489.95 -1.63787 -2.48954 0
M  V30 15507 H 1487.49 -0.818297 -1.22239 0
M  V30 15508 H 1489.45 0.188053 -4.16776 0
M  V30 15509 H 1488.08 0.70473 -3.15013 0
M  V30 15510 H 1487.13 -1.70209 -3.40196 0
M  V30 15511 H 1488.44 -2.0335 -4.55467 0
M  V30 15512 H 1487.6 -0.22388 -6.06287 0
M  V30 15513 H 1486.33 0.205214 -4.87268 0
M  V30 15514 H 1485.34 -2.08982 -5.08534 0
M  V30 15515 H 1486.56 -2.51204 -6.3093 0
M  V30 15516 H 1484.51 -0.281401 -6.55396 0
M  V30 15517 H 1484.43 -1.82573 -7.33623 0
M  V30 15518 H 1485.7 -0.715428 -7.7621 0
M  V30 15519 N 1489.92 1.30607 -0.882012 0
M  V30 15520 C 1491.17 1.95531 -0.495038 0
M  V30 15521 C 1491.49 1.70418 0.96005 0
M  V30 15522 O 1492.69 2.29301 1.45373 0
M  V30 15523 C 1491.15 3.50094 -0.834382 0
M  V30 15524 C 1490.76 3.84031 -2.30704 0
M  V30 15525 C 1492.5 4.21347 -0.516463 0
M  V30 15526 C 1490.41 5.31759 -2.58817 0
M  V30 15527 H 1489.34 0.731854 -0.181399 0
M  V30 15528 H 1491.99 1.486 -1.07658 0
M  V30 15529 H 1490.37 3.95582 -0.181961 0
M  V30 15530 H 1491.54 3.49463 -3.00353 0
M  V30 15531 H 1489.86 3.25874 -2.5922 0
M  V30 15532 H 1492.46 5.30051 -0.703576 0
M  V30 15533 H 1492.8 4.12731 0.543935 0
M  V30 15534 H 1493.33 3.81533 -1.12595 0
M  V30 15535 H 1490.07 5.45422 -3.63586 0
M  V30 15536 H 1489.59 5.67637 -1.93774 0
M  V30 15537 H 1491.27 5.9916 -2.44165 0
M  V30 15538 N 1491.4 0.642663 1.43901 0
M  V30 15539 C 1492.63 0.159202 2.06287 0
M  V30 15540 C 1493.05 -1.17091 1.48105 0
M  V30 15541 O 1492.4 -1.72064 0.608302 0
M  V30 15542 C 1492.45 0.0506891 3.61464 0
M  V30 15543 O 1492.17 1.32821 4.17481 0
M  V30 15544 C 1493.68 -0.460103 4.40906 0
M  V30 15545 H 1490.9 0.085003 0.665594 0
M  V30 15546 H 1493.44 0.880328 1.84582 0
M  V30 15547 H 1491.59 -0.620938 3.82391 0
M  V30 15548 H 1492.01 1.18053 5.11042 0
M  V30 15549 H 1493.48 -0.48501 5.49865 0
M  V30 15550 H 1493.96 -1.4894 4.13175 0
M  V30 15551 H 1494.57 0.178668 4.24925 0
M  V30 15552 N 1492.88 -1.52852 0.383918 0
M  V30 15553 C 1494.11 -2.05929 -0.200216 0
M  V30 15554 C 1494.52 -1.25606 -1.40956 0
M  V30 15555 O 1493.88 -0.301336 -1.79995 0
M  V30 15556 C 1493.93 -3.56887 -0.575655 0
M  V30 15557 O 1493.65 -4.34168 0.58564 0
M  V30 15558 C 1495.15 -4.2629 -1.21623 0
M  V30 15559 H 1492.37 -0.670261 -0.0314727 0
M  V30 15560 H 1494.92 -1.97032 0.547591 0
M  V30 15561 H 1493.07 -3.65875 -1.27336 0
M  V30 15562 H 1493.49 -5.23761 0.278267 0
M  V30 15563 H 1494.96 -5.33174 -1.42933 0
M  V30 15564 H 1495.44 -3.81163 -2.182 0
M  V30 15565 H 1496.04 -4.21605 -0.559435 0
M  V30 15566 N 1494.36 -0.113586 -1.5719 0
M  V30 15567 C 1495.29 0.868985 -2.12088 0
M  V30 15568 C 1496.3 1.23362 -1.06233 0
M  V30 15569 O 1497.49 1.18352 -1.33623 0
M  V30 15570 C 1494.59 2.17252 -2.60106 0
M  V30 15571 C 1493.77 1.9804 -3.89999 0
M  V30 15572 C 1492.83 3.12073 -4.23671 0
M  V30 15573 O 1491.85 2.85224 -4.92581 0
M  V30 15574 N 1493.05 4.38358 -3.80556 0
M  V30 15575 H 1495.82 0.399996 -2.97019 0
M  V30 15576 H 1493.38 0.0709947 -1.61744 0
M  V30 15577 H 1495.37 2.92523 -2.79665 0
M  V30 15578 H 1493.94 2.55516 -1.80084 0
M  V30 15579 H 1493.16 1.06993 -3.79402 0
M  V30 15580 H 1494.45 1.82502 -4.74943 0
M  V30 15581 H 1493.85 4.63048 -3.24966 0
M  V30 15582 H 1492.4 5.10518 -4.05234 0
M  V30 15583 N 1495.84 1.56784 0.160173 0
M  V30 15584 C 1497.09 1.81812 0.873344 0
M  V30 15585 C 1497.4 0.692686 1.82924 0
M  V30 15586 O 1498.61 0.828202 2.5856 0
M  V30 15587 C 1497.06 3.222 1.6036 0
M  V30 15588 C 1496.67 4.42642 0.690776 0
M  V30 15589 C 1498.41 3.56512 2.30433 0
M  V30 15590 C 1496.32 5.74052 1.4219 0
M  V30 15591 H 1495.25 0.678013 0.32987 0
M  V30 15592 H 1497.9 1.83066 0.126164 0
M  V30 15593 H 1496.28 3.15295 2.39593 0
M  V30 15594 H 1497.46 4.60754 -0.0653914 0
M  V30 15595 H 1495.77 4.16282 0.09913 0
M  V30 15596 H 1498.37 4.51942 2.85749 0
M  V30 15597 H 1498.71 2.8193 3.06303 0
M  V30 15598 H 1499.25 3.65019 1.58132 0
M  V30 15599 H 1495.98 6.51694 0.705318 0
M  V30 15600 H 1495.5 5.59899 2.15111 0
M  V30 15601 H 1497.18 6.16395 1.96639 0
M  V30 15602 N 1497.32 -0.429099 1.51646 0
M  V30 15603 C 1498.54 -1.20006 1.68541 0
M  V30 15604 C 1498.96 -1.84806 0.386264 0
M  V30 15605 O 1498.32 -1.7106 -0.635988 0
M  V30 15606 C 1498.37 -2.27801 2.80694 0
M  V30 15607 O 1498.09 -1.65649 4.05576 0
M  V30 15608 C 1499.59 -3.17927 3.08929 0
M  V30 15609 H 1496.81 -0.361388 0.565367 0
M  V30 15610 H 1499.35 -0.507432 1.98104 0
M  V30 15611 H 1497.51 -2.92766 2.53706 0
M  V30 15612 H 1497.92 -2.36955 4.67924 0
M  V30 15613 H 1499.4 -3.8968 3.90965 0
M  V30 15614 H 1499.87 -3.79157 2.21668 0
M  V30 15615 H 1500.48 -2.58654 3.37606 0
M  V30 15616 N 1498.79 -1.41931 -0.685074 0
M  V30 15617 C 1499.76 -1.44315 -1.78061 0
M  V30 15618 C 1500.76 -0.332215 -1.57331 0
M  V30 15619 O 1501.95 -0.59258 -1.63811 0
M  V30 15620 C 1499.08 -1.26479 -3.16569 0
M  V30 15621 H 1500.27 -2.4185 -1.77337 0
M  V30 15622 H 1497.82 -1.28228 -0.893721 0
M  V30 15623 H 1498.56 -0.298259 -3.22926 0
M  V30 15624 H 1498.34 -2.06981 -3.33018 0
M  V30 15625 H 1499.83 -1.31006 -3.96519 0
M  V30 15626 N 1500.27 0.920374 -1.27933 0
M  V30 15627 C 1501.52 1.66554 -1.14474 0
M  V30 15628 C 1501.84 1.92545 0.308444 0
M  V30 15629 O 1501.11 1.53691 1.21473 0
M  V30 15630 H 1499.69 0.617302 -0.420651 0
M  V30 15631 H 1502.35 1.10473 -1.60567 0
M  V30 15632 H 1501.45 2.63067 -1.67935 0
M  V30 15633 N 1501.75 1.10074 1.1279 0
M  V30 15634 C 1502.71 0.74967 2.16593 0
M  V30 15635 C 1503.71 -0.224046 1.59232 0
M  V30 15636 O 1504.9 -0.00137104 1.742 0
M  V30 15637 C 1502.03 0.109795 3.40723 0
M  V30 15638 H 1503.23 1.66906 2.49164 0
M  V30 15639 H 1500.78 0.900781 1.27733 0
M  V30 15640 H 1501.52 -0.820501 3.13749 0
M  V30 15641 H 1501.3 0.810517 3.83631 0
M  V30 15642 H 1502.79 -0.120198 4.17427 0
M  V30 15643 N 1503.23 -1.30138 0.888926 0
M  V30 15644 C 1504.64 -1.48552 0.583486 0
M  V30 15645 C 1504.84 -1.81376 -0.877781 0
M  V30 15646 O 1503.9 -1.90374 -1.65873 0
M  V30 15647 C 1505.21 -2.60613 1.50004 0
M  V30 15648 C 1506.76 -2.74493 1.50409 0
M  V30 15649 C 1507.24 -3.89672 2.40666 0
M  V30 15650 N 1508.73 -3.96988 2.38652 0
M  V30 15651 C 1509.46 -4.85429 3.05199 0
M  V30 15652 N 1508.96 -5.78638 3.80985 0
M  V30 15653 N 1510.75 -4.78831 2.9441 0
M  V30 15654 H 1502.9 -1.07105 1.83418 0
M  V30 15655 H 1505.16 -0.530991 0.785336 0
M  V30 15656 H 1504.87 -2.43191 2.54069 0
M  V30 15657 H 1504.74 -3.5718 1.21254 0
M  V30 15658 H 1507.13 -2.91318 0.470933 0
M  V30 15659 H 1507.21 -1.78535 1.83191 0
M  V30 15660 H 1506.86 -3.73603 3.44069 0
M  V30 15661 H 1506.79 -4.84975 2.05198 0
M  V30 15662 H 1509.28 -3.30313 1.83581 0
M  V30 15663 H 1509.59 -6.42894 4.28844 0
M  V30 15664 H 1507.94 -5.78558 3.85092 0
M  V30 15665 H 1511.13 -4.04995 2.34727 0
M  V30 15666 H 1511.3 -5.47547 3.46549 0
M  V30 15667 N 1504.71 -0.650285 -1.43559 0
M  V30 15668 C 1505.65 0.0550615 -2.32535 0
M  V30 15669 C 1506.65 0.81612 -1.48445 0
M  V30 15670 O 1507.85 0.726853 -1.64672 0
M  V30 15671 H 1504.23 0.0365887 -0.751109 0
M  V30 15672 H 1506.2 -0.713146 -2.89753 0
M  V30 15673 C 1504.95 1.00982 -3.32713 0
M  V30 15674 H 1504.27 0.433626 -3.97441 0
M  V30 15675 H 1505.71 1.47249 -3.9761 0
M  V30 15676 C 1504.17 2.10442 -2.63089 0
M  V30 15677 O 1504.7 3.18782 -2.44419 0
M  V30 15678 N 1502.91 1.86915 -2.22511 0
M  V30 15679 H 1502.45 0.988113 -2.37895 0
M  V30 15680 H 1502.41 2.60348 -1.76256 0
M  V30 15681 N 1506.18 1.52647 -0.392018 0
M  V30 15682 C 1507.11 2.29446 0.433228 0
M  V30 15683 C 1508.09 1.32945 1.06111 0
M  V30 15684 O 1509.28 1.61841 1.07337 0
M  V30 15685 C 1506.41 3.10328 1.55929 0
M  V30 15686 C 1505.36 4.14735 1.05731 0
M  V30 15687 C 1504.69 4.83858 2.27565 0
M  V30 15688 C 1505.99 5.22154 0.123346 0
M  V30 15689 H 1507.68 2.9868 -0.207563 0
M  V30 15690 H 1505.23 1.43643 -0.101266 0
M  V30 15691 H 1507.18 3.62814 2.14346 0
M  V30 15692 H 1505.91 2.38832 2.22771 0
M  V30 15693 H 1504.57 3.63234 0.495653 0
M  V30 15694 H 1504.21 4.08907 2.92923 0
M  V30 15695 H 1503.91 5.54428 1.94637 0
M  V30 15696 H 1505.44 5.39149 2.86619 0
M  V30 15697 H 1506.85 5.69983 0.615784 0
M  V30 15698 H 1505.25 5.99987 -0.116304 0
M  V30 15699 H 1506.32 4.77796 -0.826969 0
M  V30 15700 N 1507.66 0.121921 1.57128 0
M  V30 15701 C 1508.94 -0.579087 1.86831 0
M  V30 15702 C 1509.32 -1.84623 1.0236 0
M  V30 15703 O 1508.67 -2.28266 0.103326 0
M  V30 15704 C 1508.88 -0.86872 3.38015 0
M  V30 15705 C 1510.23 -1.22051 4.0668 0
M  V30 15706 O 1511.25 -0.958889 3.43051 0
M  V30 15707 O 1510.11 -1.71164 5.19004 0
M  V30 15708 H 1507.2 -0.292539 0.773531 0
M  V30 15709 H 1509.75 0.156644 1.68975 0
M  V30 15710 H 1508.52 0.0291056 3.91289 0
M  V30 15711 H 1508.14 -1.65951 3.61312 0
M  V30 15712 N 1509.14 -1.56867 -0.151857 0
M  V30 15713 C 1510.07 -2.00932 -1.18949 0
M  V30 15714 C 1511.05 -0.888062 -1.45077 0
M  V30 15715 O 1512.24 -1.15553 -1.56081 0
M  V30 15716 C 1509.37 -2.3858 -2.52383 0
M  V30 15717 C 1508.32 -3.53845 -2.40785 0
M  V30 15718 C 1507.65 -3.77292 -3.78886 0
M  V30 15719 C 1508.95 -4.8667 -1.89605 0
M  V30 15720 H 1510.64 -2.87863 -0.823107 0
M  V30 15721 H 1508.19 -1.38491 -0.394499 0
M  V30 15722 H 1510.14 -2.68006 -3.25193 0
M  V30 15723 H 1508.86 -1.48579 -2.90847 0
M  V30 15724 H 1507.52 -3.24577 -1.70427 0
M  V30 15725 H 1507.17 -2.84551 -4.14777 0
M  V30 15726 H 1506.87 -4.54861 -3.71989 0
M  V30 15727 H 1508.39 -4.09139 -4.53252 0
M  V30 15728 H 1509.81 -5.14846 -2.52204 0
M  V30 15729 H 1508.21 -5.6801 -1.93609 0
M  V30 15730 H 1509.28 -4.77366 -0.851438 0
M  V30 15731 N 1510.62 0.421051 -1.51871 0
M  V30 15732 C 1511.57 1.5122 -1.74359 0
M  V30 15733 C 1512.54 1.55432 -0.585667 0
M  V30 15734 O 1513.72 1.7219 -0.821912 0
M  V30 15735 C 1510.86 2.88787 -1.88935 0
M  V30 15736 C 1509.97 2.93977 -3.16546 0
M  V30 15737 C 1509.11 4.22768 -3.21622 0
M  V30 15738 C 1508.15 4.21888 -4.43483 0
M  V30 15739 N 1507.28 5.4223 -4.46017 0
M  V30 15740 H 1512.12 1.31348 -2.67492 0
M  V30 15741 H 1509.66 0.637779 -1.32555 0
M  V30 15742 H 1511.62 3.68629 -1.95368 0
M  V30 15743 H 1510.25 3.07181 -0.991942 0
M  V30 15744 H 1509.3 2.06699 -3.19343 0
M  V30 15745 H 1510.61 2.8919 -4.06412 0
M  V30 15746 H 1509.77 5.10995 -3.27061 0
M  V30 15747 H 1508.51 4.30234 -2.29674 0
M  V30 15748 H 1507.51 3.32052 -4.38202 0
M  V30 15749 H 1508.74 4.16072 -5.36713 0
M  V30 15750 H 1506.68 5.50386 -3.56947 0
M  V30 15751 H 1506.6 5.39389 -5.29713 0
M  V30 15752 H 1507.87 6.32443 -4.55671 0
M  V30 15753 N 1512.1 1.42293 0.677538 0
M  V30 15754 C 1513.32 1.46214 1.47092 0
M  V30 15755 C 1513.75 0.0740989 1.87954 0
M  V30 15756 O 1513.1 -0.926831 1.55819 0
M  V30 15757 C 1513.15 2.39236 2.69812 0
M  V30 15758 O 1512.26 1.86183 3.6798 0
M  V30 15759 H 1511.6 0.495507 0.442006 0
M  V30 15760 H 1514.13 1.86952 0.831274 0
M  V30 15761 H 1514.14 2.55723 3.17915 0
M  V30 15762 H 1512.81 3.40081 2.39411 0
M  V30 15763 H 1511.39 1.79237 3.26999 0
M  V30 15764 N 1513.57 -0.913576 1.28419 0
M  V30 15765 C 1514.85 -1.64203 1.06285 0
M  V30 15766 C 1515.23 -2.07319 -0.397728 0
M  V30 15767 O 1514.58 -1.8183 -1.38383 0
M  V30 15768 C 1514.79 -2.8334 2.03763 0
M  V30 15769 C 1516.14 -3.54355 2.33918 0
M  V30 15770 O 1517.16 -2.93489 2.01848 0
M  V30 15771 O 1516.02 -4.6405 2.88652 0
M  V30 15772 H 1513.11 -0.720359 0.406217 0
M  V30 15773 H 1515.66 -0.962866 1.39739 0
M  V30 15774 H 1514.43 -2.48575 3.02203 0
M  V30 15775 H 1514.06 -3.5897 1.70956 0
M  V30 15776 N 1515.05 -1.1067 -1.12204 0
M  V30 15777 C 1515.98 -0.779829 -2.20093 0
M  V30 15778 C 1516.96 0.248279 -1.68278 0
M  V30 15779 O 1518.15 0.113511 -1.93868 0
M  V30 15780 C 1515.28 -0.213511 -3.46643 0
M  V30 15781 C 1514.23 -1.17258 -4.11624 0
M  V30 15782 C 1513.56 -0.467352 -5.32654 0
M  V30 15783 C 1514.86 -2.52014 -4.57478 0
M  V30 15784 H 1516.55 -1.68192 -2.47693 0
M  V30 15785 H 1514.1 -0.810131 -1.1905 0
M  V30 15786 H 1516.05 0.0273225 -4.21391 0
M  V30 15787 H 1514.78 0.723837 -3.18478 0
M  V30 15788 H 1513.43 -1.39891 -3.3886 0
M  V30 15789 H 1513.08 0.474547 -5.00756 0
M  V30 15790 H 1512.78 -1.10694 -5.77079 0
M  V30 15791 H 1514.31 -0.235122 -6.10147 0
M  V30 15792 H 1515.72 -2.33516 -5.23587 0
M  V30 15793 H 1514.12 -3.1188 -5.1269 0
M  V30 15794 H 1515.19 -3.11831 -3.71335 0
M  V30 15795 N 1516.53 1.29665 -0.895815 0
M  V30 15796 C 1517.76 1.99572 -0.534267 0
M  V30 15797 C 1518.17 1.67254 0.884455 0
M  V30 15798 O 1517.51 0.911762 1.59476 0
M  V30 15799 C 1517.57 3.53719 -0.642099 0
M  V30 15800 C 1517.24 4.09583 -2.02709 0
M  V30 15801 C 1518.23 4.24769 -2.99779 0
M  V30 15802 C 1515.92 4.44706 -2.33542 0
M  V30 15803 C 1517.91 4.74305 -4.25809 0
M  V30 15804 C 1515.6 4.93939 -3.59815 0
M  V30 15805 C 1516.6 5.08693 -4.55763 0
M  V30 15806 O 1516.29 5.5686 -5.79795 0
M  V30 15807 H 1516.02 0.644481 -0.204012 0
M  V30 15808 H 1518.57 1.66262 -1.20607 0
M  V30 15809 H 1516.8 3.86603 0.0867197 0
M  V30 15810 H 1518.49 4.04861 -0.290265 0
M  V30 15811 H 1519.26 3.97925 -2.77273 0
M  V30 15812 H 1515.14 4.32483 -1.59622 0
M  V30 15813 H 1518.68 4.85736 -5.00706 0
M  V30 15814 H 1514.58 5.2022 -3.82154 0
M  V30 15815 H 1515.35 5.75182 -5.82329 0
M  V30 15816 N 1518.01 0.657889 1.43212 0
M  V30 15817 C 1519.26 0.170493 2.00978 0
M  V30 15818 C 1519.57 -1.22439 1.52539 0
M  V30 15819 O 1520.78 -1.80725 2.02609 0
M  V30 15820 C 1519.23 0.253982 3.59003 0
M  V30 15821 C 1518.84 1.65185 4.16435 0
M  V30 15822 C 1520.58 -0.17557 4.24137 0
M  V30 15823 C 1518.49 1.68902 5.66768 0
M  V30 15824 H 1517.42 0.0599767 0.751611 0
M  V30 15825 H 1520.07 0.820606 1.64129 0
M  V30 15826 H 1518.45 -0.463723 3.93275 0
M  V30 15827 H 1519.63 2.39529 3.93653 0
M  V30 15828 H 1517.94 2.02779 3.63689 0
M  V30 15829 H 1520.54 -0.167714 5.34437 0
M  V30 15830 H 1520.88 -1.20784 3.98393 0
M  V30 15831 H 1521.42 0.490544 3.94764 0
M  V30 15832 H 1518.16 2.70055 5.97286 0
M  V30 15833 H 1517.68 0.988906 5.91592 0
M  V30 15834 H 1519.35 1.43485 6.30889 0
M  V30 15835 N 1519.49 -1.52437 0.400108 0
M  V30 15836 C 1520.73 -2.01312 -0.178252 0
M  V30 15837 C 1521.06 -1.28797 -1.46411 0
M  V30 15838 O 1520.33 -0.411211 -1.91536 0
M  V30 15839 H 1518.91 -0.743819 -0.0688613 0
M  V30 15840 H 1521.57 -1.87434 0.53428 0
M  V30 15841 H 1520.66 -3.09768 -0.380793 0
M  V30 15842 N 1520.96 -0.130252 -1.57061 0
M  V30 15843 C 1522.21 0.523969 -1.9519 0
M  V30 15844 C 1522.53 1.66493 -1.01514 0
M  V30 15845 O 1521.8 1.95762 -0.0735194 0
M  V30 15846 H 1520.38 0.196553 -0.720677 0
M  V30 15847 H 1523.05 -0.20183 -1.93852 0
M  V30 15848 H 1522.14 0.911156 -2.98504 0
M  V30 15849 N 1522.44 1.56945 0.143535 0
M  V30 15850 C 1523.69 1.8381 0.856831 0
M  V30 15851 C 1524.02 0.712375 1.80662 0
M  V30 15852 O 1523.3 -0.283743 1.92419 0
M  V30 15853 C 1523.58 3.21184 1.62828 0
M  V30 15854 C 1523.43 4.44324 0.699744 0
M  V30 15855 C 1524.75 3.5582 2.58999 0
M  V30 15856 H 1521.87 0.668611 0.310046 0
M  V30 15857 H 1524.51 1.89609 0.1219 0
M  V30 15858 H 1522.66 3.16372 2.2548 0
M  V30 15859 H 1524.34 4.61224 0.0839619 0
M  V30 15860 H 1522.58 4.33799 0.0095529 0
M  V30 15861 H 1523.25 5.37058 1.27564 0
M  V30 15862 H 1525.73 3.61264 2.06464 0
M  V30 15863 H 1524.6 4.52964 3.10024 0
M  V30 15864 H 1524.86 2.81956 3.40519 0
M  V30 15865 N 1523.92 -0.412991 1.52093 0
M  V30 15866 C 1524.88 -1.48555 1.7454 0
M  V30 15867 C 1525.88 -1.48563 0.615283 0
M  V30 15868 O 1527.07 -1.50155 0.883119 0
M  V30 15869 C 1524.21 -2.87984 1.82423 0
M  V30 15870 H 1525.4 -1.29945 2.70285 0
M  V30 15871 H 1522.95 -0.643241 1.4245 0
M  V30 15872 H 1523.69 -3.11969 0.885777 0
M  V30 15873 H 1523.47 -2.89381 2.64577 0
M  V30 15874 H 1524.96 -3.65745 2.01545 0
M  V30 15875 N 1525.4 -1.4265 -0.669982 0
M  V30 15876 C 1526.35 -1.46504 -1.7834 0
M  V30 15877 C 1527.32 -0.316478 -1.63057 0
M  V30 15878 O 1528.5 -0.521245 -1.83542 0
M  V30 15879 C 1525.64 -1.37784 -3.16401 0
M  V30 15880 C 1524.75 -2.62714 -3.42937 0
M  V30 15881 C 1523.89 -2.46101 -4.70752 0
M  V30 15882 C 1522.93 -3.66381 -4.90338 0
M  V30 15883 N 1522.07 -3.48681 -6.09398 0
M  V30 15884 H 1526.91 -2.41651 -1.74381 0
M  V30 15885 H 1524.44 -1.1997 -0.851215 0
M  V30 15886 H 1526.4 -1.30725 -3.9619 0
M  V30 15887 H 1525.03 -0.462291 -3.19473 0
M  V30 15888 H 1524.08 -2.8012 -2.57366 0
M  V30 15889 H 1525.39 -3.52108 -3.53301 0
M  V30 15890 H 1524.55 -2.36655 -5.58641 0
M  V30 15891 H 1523.29 -1.54204 -4.6268 0
M  V30 15892 H 1522.29 -3.76254 -4.00891 0
M  V30 15893 H 1523.52 -4.59265 -5.00253 0
M  V30 15894 H 1521.46 -2.59505 -6.02489 0
M  V30 15895 H 1521.38 -4.31666 -6.20645 0
M  V30 15896 H 1522.65 -3.43056 -6.99952 0
M  V30 15897 N 1526.88 0.906753 -1.28902 0
M  V30 15898 C 1527.79 2.04313 -1.15296 0
M  V30 15899 C 1528.8 1.73826 -0.0778619 0
M  V30 15900 O 1529.98 1.99322 -0.288543 0
M  V30 15901 C 1527.04 3.36782 -0.823317 0
M  V30 15902 C 1526.11 3.80834 -1.98152 0
M  V30 15903 C 1525.34 5.06981 -1.66751 0
M  V30 15904 O 1525.56 5.67391 -0.58513 0
M  V30 15905 O 1524.5 5.46915 -2.51332 0
M  V30 15906 H 1528.32 2.18713 -2.10709 0
M  V30 15907 H 1525.91 1.02928 -1.08287 0
M  V30 15908 H 1527.79 4.16298 -0.653735 0
M  V30 15909 H 1526.46 3.23542 0.101097 0
M  V30 15910 H 1525.37 3.02115 -2.2063 0
M  V30 15911 H 1526.7 3.98648 -2.88688 0
M  V30 15912 N 1528.36 1.11264 1.11616 0
M  V30 15913 C 1529.58 0.882802 1.87121 0
M  V30 15914 C 1530 -0.567279 1.80076 0
M  V30 15915 O 1529.36 -1.39158 1.18074 0
M  V30 15916 C 1529.41 1.33355 3.36004 0
M  V30 15917 O 1529.13 2.72678 3.42897 0
M  V30 15918 C 1530.63 1.13886 4.28421 0
M  V30 15919 H 1527.85 0.316275 0.591786 0
M  V30 15920 H 1530.39 1.4795 1.41177 0
M  V30 15921 H 1528.55 0.780347 3.79459 0
M  V30 15922 H 1528.96 2.92168 4.35589 0
M  V30 15923 H 1530.44 1.50329 5.31136 0
M  V30 15924 H 1530.91 0.078259 4.3913 0
M  V30 15925 H 1531.52 1.67896 3.90757 0
M  V30 15926 N 1529.83 -1.29188 0.902679 0
M  V30 15927 C 1531.06 -1.99286 0.544844 0
M  V30 15928 C 1531.47 -1.67721 -0.875572 0
M  V30 15929 O 1530.81 -0.920207 -1.5899 0
M  V30 15930 C 1530.88 -3.53374 0.660849 0
M  V30 15931 C 1530.54 -4.08502 2.04878 0
M  V30 15932 C 1531.54 -4.23173 3.02028 0
M  V30 15933 C 1529.22 -4.43461 2.35897 0
M  V30 15934 C 1531.22 -4.7204 4.28318 0
M  V30 15935 C 1528.9 -4.92024 3.6243 0
M  V30 15936 C 1529.9 -5.06269 4.58455 0
M  V30 15937 O 1529.59 -5.53778 5.8274 0
M  V30 15938 H 1529.32 -0.64339 0.207427 0
M  V30 15939 H 1531.88 -1.6562 1.21487 0
M  V30 15940 H 1530.11 -3.86643 -0.066216 0
M  V30 15941 H 1531.79 -4.04701 0.311732 0
M  V30 15942 H 1532.56 -3.96449 2.79379 0
M  V30 15943 H 1528.44 -4.31631 1.61913 0
M  V30 15944 H 1531.98 -4.83074 5.03275 0
M  V30 15945 H 1527.88 -5.18186 3.84907 0
M  V30 15946 H 1528.65 -5.72086 5.85372 0
M  V30 15947 N 1531.31 -0.665475 -1.42861 0
M  V30 15948 C 1532.26 0.0186204 -2.30792 0
M  V30 15949 C 1533.23 0.802249 -1.45441 0
M  V30 15950 O 1534.41 0.776383 -1.7429 0
M  V30 15951 C 1531.55 0.970499 -3.31173 0
M  V30 15952 C 1530.67 0.18168 -4.31618 0
M  V30 15953 C 1529.8 1.12846 -5.19075 0
M  V30 15954 C 1528.84 0.330788 -6.11206 0
M  V30 15955 N 1527.98 1.2298 -6.91246 0
M  V30 15956 H 1532.82 -0.737068 -2.88741 0
M  V30 15957 H 1530.35 -0.375225 -1.42234 0
M  V30 15958 H 1532.31 1.53611 -3.87891 0
M  V30 15959 H 1530.94 1.69292 -2.74845 0
M  V30 15960 H 1529.99 -0.500415 -3.77094 0
M  V30 15961 H 1531.31 -0.438041 -4.96873 0
M  V30 15962 H 1530.46 1.76431 -5.8048 0
M  V30 15963 H 1529.2 1.78208 -4.53975 0
M  V30 15964 H 1528.2 -0.318333 -5.48878 0
M  V30 15965 H 1529.43 -0.318599 -6.78352 0
M  V30 15966 H 1527.38 1.86999 -6.28783 0
M  V30 15967 H 1527.29 0.664933 -7.5307 0
M  V30 15968 H 1528.56 1.85341 -7.57145 0
M  V30 15969 N 1532.79 1.52222 -0.408187 0
M  V30 15970 C 1534.01 2.06703 0.169901 0
M  V30 15971 C 1534.44 1.27635 1.3817 0
M  V30 15972 O 1533.8 0.306343 1.78693 0
M  V30 15973 C 1533.85 3.57121 0.499663 0
M  V30 15974 O 1532.95 3.80483 1.5908 0
M  V30 15975 H 1532.29 0.663839 0.0146145 0
M  V30 15976 H 1534.82 1.96174 -0.581113 0
M  V30 15977 H 1534.83 4.00886 0.758567 0
M  V30 15978 H 1533.51 4.14103 -0.386182 0
M  V30 15979 H 1532.08 3.48599 1.32413 0
M  V30 15980 N 1534.27 0.138579 1.5699 0
M  V30 15981 C 1535.2 -0.800568 2.19347 0
M  V30 15982 C 1536.18 -1.26318 1.13921 0
M  V30 15983 O 1537.36 -1.32226 1.42232 0
M  V30 15984 C 1534.49 -2.04317 2.80842 0
M  V30 15985 C 1533.45 -1.71764 3.92022 0
M  V30 15986 C 1532.77 -3.03217 4.40413 0
M  V30 15987 C 1534.07 -0.970789 5.13199 0
M  V30 15988 H 1535.77 -0.280888 2.98079 0
M  V30 15989 H 1533.31 -0.133663 1.43378 0
M  V30 15990 H 1535.27 -2.70491 3.2313 0
M  V30 15991 H 1533.99 -2.58643 1.99428 0
M  V30 15992 H 1532.65 -1.07972 3.50339 0
M  V30 15993 H 1532.3 -3.55517 3.55832 0
M  V30 15994 H 1532 -2.82203 5.15398 0
M  V30 15995 H 1533.52 -3.70477 4.85365 0
M  V30 15996 H 1534.94 -1.53445 5.52384 0
M  V30 15997 H 1533.33 -0.860895 5.93893 0
M  V30 15998 H 1534.4 0.0390088 4.84884 0
M  V30 15999 N 1535.75 -1.57019 -0.13521 0
M  V30 16000 C 1537.16 -1.73319 -0.694067 0
M  V30 16001 C 1537.51 -0.754808 -1.811 0
M  V30 16002 O 1536.63 0.0759463 -2.16267 0
M  V30 16003 C 1537.23 -3.14266 -1.26579 0
M  V30 16004 C 1535.79 -3.32128 -1.7711 0
M  V30 16005 C 1534.93 -2.69226 -0.664263 0
M  V30 16006 H 1537.88 -1.58441 0.0905702 0
M  V30 16007 H 1537.91 -3.14919 -2.13557 0
M  V30 16008 H 1537.42 -3.85451 -0.452652 0
M  V30 16009 H 1535.52 -2.65959 -2.60953 0
M  V30 16010 H 1535.63 -4.40172 -1.8917 0
M  V30 16011 H 1534 -2.30016 -1.09384 0
M  V30 16012 H 1534.78 -3.43024 0.13763 0
M  V30 16013 N 1537.22 0.404919 -1.52309 0
M  V30 16014 C 1538.17 1.49363 -1.75953 0
M  V30 16015 C 1539.14 1.54802 -0.60212 0
M  V30 16016 O 1540.33 1.71308 -0.840128 0
M  V30 16017 C 1537.47 2.86767 -1.91987 0
M  V30 16018 C 1536.58 2.90603 -3.19646 0
M  V30 16019 C 1535.71 4.19333 -3.26088 0
M  V30 16020 C 1534.75 4.17161 -4.47932 0
M  V30 16021 N 1533.89 5.37469 -4.51743 0
M  V30 16022 H 1538.73 1.28503 -2.6887 0
M  V30 16023 H 1536.27 0.623684 -1.33224 0
M  V30 16024 H 1538.23 3.66536 -1.99267 0
M  V30 16025 H 1536.86 3.06112 -1.02447 0
M  V30 16026 H 1535.91 2.033 -3.21517 0
M  V30 16027 H 1537.22 2.84864 -4.09456 0
M  V30 16028 H 1536.37 5.07497 -3.32463 0
M  V30 16029 H 1535.11 4.27774 -2.34224 0
M  V30 16030 H 1534.12 3.27386 -4.417 0
M  V30 16031 H 1535.34 4.10356 -5.41096 0
M  V30 16032 H 1533.29 5.46569 -3.62764 0
M  V30 16033 H 1533.21 5.3374 -5.35404 0
M  V30 16034 H 1534.47 6.27575 -4.62353 0
M  V30 16035 N 1538.7 1.43003 0.662408 0
M  V30 16036 C 1539.63 1.50248 1.78739 0
M  V30 16037 C 1540.61 0.357934 1.66291 0
M  V30 16038 O 1541.8 0.573919 1.85526 0
M  V30 16039 C 1538.93 1.41618 3.17114 0
M  V30 16040 C 1537.88 2.54228 3.44314 0
M  V30 16041 C 1537.21 2.30653 4.82393 0
M  V30 16042 C 1538.51 3.96505 3.39972 0
M  V30 16043 H 1540.2 2.44406 1.72934 0
M  V30 16044 H 1537.75 1.17633 0.830569 0
M  V30 16045 H 1539.7 1.45293 3.9556 0
M  V30 16046 H 1538.43 0.439605 3.23628 0
M  V30 16047 H 1537.08 2.49891 2.68235 0
M  V30 16048 H 1536.73 1.3126 4.85572 0
M  V30 16049 H 1536.43 3.06134 5.01554 0
M  V30 16050 H 1537.96 2.36096 5.63108 0
M  V30 16051 H 1539.37 4.02378 4.08368 0
M  V30 16052 H 1537.77 4.71937 3.70668 0
M  V30 16053 H 1538.84 4.22295 2.38318 0
M  V30 16054 N 1540.18 -0.899904 1.29381 0
M  V30 16055 C 1541.43 -1.65282 1.17515 0
M  V30 16056 C 1541.76 -1.92275 -0.272788 0
M  V30 16057 O 1541.03 -1.53303 -1.19701 0
M  V30 16058 C 1541.32 -3.00207 1.98867 0
M  V30 16059 C 1541.17 -2.80281 3.51799 0
M  V30 16060 C 1542.49 -4.00936 1.81489 0
M  V30 16061 H 1539.61 -0.5998 0.428263 0
M  V30 16062 H 1542.25 -1.04241 1.58852 0
M  V30 16063 H 1540.4 -3.52308 1.63741 0
M  V30 16064 H 1542.07 -2.35082 3.96905 0
M  V30 16065 H 1540.32 -2.15068 3.76733 0
M  V30 16066 H 1540.99 -3.76155 4.03994 0
M  V30 16067 H 1543.46 -3.57944 2.12169 0
M  V30 16068 H 1542.34 -4.9328 2.4076 0
M  V30 16069 H 1542.6 -4.35342 0.770021 0
M  V30 16070 N 1541.66 -1.11854 -1.11024 0
M  V30 16071 C 1542.61 -0.749858 -2.15316 0
M  V30 16072 C 1543.59 0.248202 -1.58974 0
M  V30 16073 O 1544.78 0.054644 -1.76916 0
M  V30 16074 C 1541.91 -0.199423 -3.4272 0
M  V30 16075 C 1541 -1.22541 -4.06011 0
M  V30 16076 N 1541.39 -2.42104 -4.44094 0
M  V30 16077 C 1539.69 -1.06935 -4.32991 0
M  V30 16078 C 1540.39 -3.07572 -4.93735 0
M  V30 16079 N 1539.37 -2.35038 -4.90161 0
M  V30 16080 H 1543.17 -1.65978 -2.42546 0
M  V30 16081 H 1540.68 -0.998423 -1.28083 0
M  V30 16082 H 1542.68 0.0828628 -4.16818 0
M  V30 16083 H 1541.34 0.705033 -3.16953 0
M  V30 16084 H 1542.35 -2.79529 -4.35986 0
M  V30 16085 H 1539.03 -0.221683 -4.16911 0
M  V30 16086 H 1540.42 -4.0936 -5.32799 0
M  V30 16087 N 1543.14 1.28707 -0.909517 0
M  V30 16088 C 1544.1 2.25692 -0.39946 0
M  V30 16089 C 1545.1 1.53721 0.471848 0
M  V30 16090 O 1546.29 1.72008 0.275504 0
M  V30 16091 C 1543.42 3.38205 0.427793 0
M  V30 16092 H 1544.61 2.72326 -1.25613 0
M  V30 16093 H 1542.17 1.40317 -0.688535 0
M  V30 16094 H 1542.9 2.96926 1.30404 0
M  V30 16095 H 1542.69 3.91606 -0.19667 0
M  V30 16096 H 1544.18 4.10334 0.775634 0
M  V30 16097 N 1544.61 0.673042 1.42506 0
M  V30 16098 C 1545.56 -0.00638067 2.30799 0
M  V30 16099 C 1546.53 -0.794524 1.45865 0
M  V30 16100 O 1547.72 -0.767129 1.74699 0
M  V30 16101 C 1544.86 -0.952923 3.31683 0
M  V30 16102 C 1543.97 -0.158787 4.31708 0
M  V30 16103 C 1543.1 -1.10092 5.19666 0
M  V30 16104 C 1542.14 -0.29837 6.11372 0
M  V30 16105 N 1541.28 -1.19312 6.91888 0
M  V30 16106 H 1546.12 0.75237 2.88346 0
M  V30 16107 H 1543.66 0.382763 1.42033 0
M  V30 16108 H 1545.62 -1.51552 3.887 0
M  V30 16109 H 1544.25 -1.67832 2.75739 0
M  V30 16110 H 1543.3 0.520406 3.76823 0
M  V30 16111 H 1544.61 0.464385 4.96634 0
M  V30 16112 H 1543.76 -1.7335 5.81407 0
M  V30 16113 H 1542.5 -1.75798 4.54914 0
M  V30 16114 H 1541.51 0.347437 5.48701 0
M  V30 16115 H 1542.73 0.354569 6.78174 0
M  V30 16116 H 1540.68 -1.83661 6.29765 0
M  V30 16117 H 1540.6 -0.624986 7.53412 0
M  V30 16118 H 1541.86 -1.81323 7.58118 0
M  V30 16119 N 1546.09 -1.52004 0.416254 0
M  V30 16120 C 1547 -2.30947 -0.412403 0
M  V30 16121 C 1548.02 -1.38969 -1.04707 0
M  V30 16122 O 1549.19 -1.72044 -1.04703 0
M  V30 16123 C 1546.26 -3.12078 -1.51024 0
M  V30 16124 C 1545.32 -4.19805 -0.897892 0
M  V30 16125 C 1544.55 -4.97059 -1.94341 0
M  V30 16126 O 1544.78 -4.74695 -3.16261 0
M  V30 16127 O 1543.71 -5.81715 -1.54567 0
M  V30 16128 H 1547.54 -3.02817 0.231473 0
M  V30 16129 H 1545.12 -1.4832 0.179283 0
M  V30 16130 H 1547 -3.6258 -2.14741 0
M  V30 16131 H 1545.68 -2.42995 -2.13858 0
M  V30 16132 H 1544.59 -3.73433 -0.223236 0
M  V30 16133 H 1545.92 -4.91201 -0.31336 0
M  V30 16134 N 1547.57 -0.146903 -1.56914 0
M  V30 16135 C 1548.82 0.503237 -1.95734 0
M  V30 16136 C 1549.14 1.65407 -1.03275 0
M  V30 16137 O 1548.41 1.95673 -0.0942784 0
M  V30 16138 H 1546.99 0.188899 -0.722721 0
M  V30 16139 H 1549.65 -0.222379 -1.93627 0
M  V30 16140 H 1548.75 0.879445 -2.99453 0
M  V30 16141 N 1549.05 1.57088 0.126881 0
M  V30 16142 C 1550.3 1.84436 0.836048 0
M  V30 16143 C 1550.62 0.730824 1.80248 0
M  V30 16144 O 1549.88 -0.278509 1.93708 0
M  V30 16145 C 1550.18 3.18225 1.62688 0
M  V30 16146 C 1549.84 4.43648 0.80545 0
M  V30 16147 C 1548.51 4.77705 0.578901 0
M  V30 16148 C 1550.86 5.20682 0.232355 0
M  V30 16149 C 1548.19 5.86245 -0.231126 0
M  V30 16150 C 1550.54 6.30073 -0.564819 0
M  V30 16151 C 1549.2 6.62667 -0.801759 0
M  V30 16152 H 1548.47 0.674898 0.305932 0
M  V30 16153 H 1551.12 1.91245 0.0987618 0
M  V30 16154 H 1549.42 3.06956 2.43485 0
M  V30 16155 H 1551.12 3.36604 2.17942 0
M  V30 16156 H 1547.71 4.16959 0.99211 0
M  V30 16157 H 1551.89 4.94729 0.394616 0
M  V30 16158 H 1547.15 6.09928 -0.423998 0
M  V30 16159 H 1551.32 6.8895 -1.01592 0
M  V30 16160 H 1548.95 7.46605 -1.43126 0
M  V30 16161 N 1550.53 -0.396836 1.52522 0
M  V30 16162 C 1551.46 -1.50361 1.72986 0
M  V30 16163 C 1552.47 -1.50928 0.610289 0
M  V30 16164 O 1553.66 -1.54972 0.88578 0
M  V30 16165 C 1550.76 -2.89229 1.76635 0
M  V30 16166 C 1549.93 -3.12715 3.05824 0
M  V30 16167 C 1548.99 -4.31523 3.01122 0
M  V30 16168 O 1548.02 -4.28207 3.75004 0
M  V30 16169 N 1549.22 -5.37294 2.19763 0
M  V30 16170 H 1551.99 -1.33196 2.68475 0
M  V30 16171 H 1549.55 -0.586269 1.50912 0
M  V30 16172 H 1551.54 -3.66796 1.71006 0
M  V30 16173 H 1550.11 -2.99791 0.885667 0
M  V30 16174 H 1549.33 -2.23083 3.25004 0
M  V30 16175 H 1550.62 -3.25257 3.91261 0
M  V30 16176 H 1550.01 -5.4284 1.5919 0
M  V30 16177 H 1548.57 -6.13557 2.19981 0
M  V30 16178 N 1552.01 -1.43353 -0.654814 0
M  V30 16179 C 1553.25 -1.44599 -1.41193 0
M  V30 16180 C 1553.57 -0.0707955 -1.94871 0
M  V30 16181 O 1552.84 0.893637 -1.7433 0
M  V30 16182 H 1551.42 -0.532373 -0.524011 0
M  V30 16183 H 1554.09 -1.78942 -0.772388 0
M  V30 16184 H 1553.18 -2.15761 -2.25508 0
M  V30 16185 N 1553.48 0.89303 -1.29857 0
M  V30 16186 C 1554.72 1.65836 -1.19489 0
M  V30 16187 C 1555.09 1.90389 0.248194 0
M  V30 16188 O 1556.29 2.6457 0.474963 0
M  V30 16189 C 1554.56 2.96706 -1.9925 0
M  V30 16190 S 1556.12 3.8771 -2.05492 0
M  V30 16191 H 1552.94 0.569282 -0.425956 0
M  V30 16192 H 1555.54 1.06061 -1.64229 0
M  V30 16193 H 1554.24 2.76554 -3.03226 0
M  V30 16194 H 1553.77 3.61518 -1.55141 0
M  V30 16195 H 1555.79 4.82052 -1.17644 0
M  V30 16196 N 1554.96 1.12442 1.10429 0
M  V30 16197 C 1555.89 0.814745 2.18824 0
M  V30 16198 C 1556.87 -0.221476 1.68652 0
M  V30 16199 O 1558.06 -0.0826537 1.94024 0
M  V30 16200 C 1555.19 0.268632 3.4626 0
M  V30 16201 C 1554.14 1.23792 4.09707 0
M  V30 16202 C 1553.47 0.552034 5.31843 0
M  V30 16203 C 1554.77 2.5926 4.53411 0
M  V30 16204 H 1556.46 1.72111 2.44986 0
M  V30 16205 H 1554.01 0.828968 1.17746 0
M  V30 16206 H 1555.96 0.0397207 4.21381 0
M  V30 16207 H 1554.68 -0.673079 3.19589 0
M  V30 16208 H 1553.34 1.45264 3.36592 0
M  V30 16209 H 1552.99 -0.394821 5.01448 0
M  V30 16210 H 1552.69 1.19861 5.75245 0
M  V30 16211 H 1554.22 0.332161 6.09696 0
M  V30 16212 H 1555.63 2.41816 5.19806 0
M  V30 16213 H 1554.03 3.19997 5.07663 0
M  V30 16214 H 1555.1 3.17699 3.66327 0
M  V30 16215 N 1556.44 -1.28223 0.91633 0
M  V30 16216 C 1557.4 -2.25477 0.411423 0
M  V30 16217 C 1558.4 -1.53969 -0.463689 0
M  V30 16218 O 1559.59 -1.72151 -0.266379 0
M  V30 16219 C 1556.72 -3.38427 -0.409851 0
M  V30 16220 H 1557.92 -2.71656 1.27056 0
M  V30 16221 H 1555.47 -1.3995 0.695966 0
M  V30 16222 H 1556.21 -2.97614 -1.28828 0
M  V30 16223 H 1555.99 -3.91497 0.217435 0
M  V30 16224 H 1557.48 -4.10739 -0.753862 0
M  V30 16225 N 1557.92 -0.68059 -1.42147 0
M  V30 16226 C 1559.14 -0.212293 -2.06311 0
M  V30 16227 C 1559.57 1.12402 -1.50822 0
M  V30 16228 O 1558.93 1.70037 -0.629051 0
M  V30 16229 C 1558.97 -0.164156 -3.60226 0
M  V30 16230 O 1558.08 0.865582 -4.03214 0
M  V30 16231 H 1557.42 -0.107451 -0.655248 0
M  V30 16232 H 1559.95 -0.931233 -1.82179 0
M  V30 16233 H 1559.96 0.0100422 -4.07999 0
M  V30 16234 H 1558.63 -1.13952 -3.99985 0
M  V30 16235 H 1557.21 0.661955 -3.66978 0
M  V30 16236 N 1559.4 1.51781 -0.424309 0
M  V30 16237 C 1560.64 2.02269 0.146709 0
M  V30 16238 C 1560.97 1.30859 1.4349 0
M  V30 16239 O 1560.25 0.419504 1.89922 0
M  V30 16240 C 1560.53 3.58101 0.378861 0
M  V30 16241 C 1560.39 4.40143 -0.92707 0
M  V30 16242 C 1561.7 4.2469 1.15438 0
M  V30 16243 H 1558.82 0.735174 0.0518456 0
M  V30 16244 H 1561.47 1.81537 -0.560753 0
M  V30 16245 H 1559.62 3.75897 0.981496 0
M  V30 16246 H 1561.29 4.34025 -1.56268 0
M  V30 16247 H 1559.53 4.05748 -1.53464 0
M  V30 16248 H 1560.2 5.47299 -0.718837 0
M  V30 16249 H 1562.68 4.11086 0.644041 0
M  V30 16250 H 1561.55 5.33633 1.28557 0
M  V30 16251 H 1561.81 3.84668 2.17905 0
M  V30 16252 N 1560.87 0.155222 1.56834 0
M  V30 16253 C 1562.15 -0.539327 1.88018 0
M  V30 16254 C 1562.53 -1.8241 1.06253 0
M  V30 16255 O 1561.88 -2.27996 0.151721 0
M  V30 16256 C 1562.09 -0.796826 3.39782 0
M  V30 16257 C 1563.44 -1.13397 4.09178 0
M  V30 16258 O 1564.46 -0.885907 3.45007 0
M  V30 16259 O 1563.32 -1.60117 5.22518 0
M  V30 16260 H 1560.41 -0.276066 0.779562 0
M  V30 16261 H 1562.96 0.192451 1.68605 0
M  V30 16262 H 1561.73 0.112097 3.91139 0
M  V30 16263 H 1561.35 -1.5825 3.6475 0
M  V30 16264 N 1562.35 -1.57153 -0.118549 0
M  V30 16265 C 1563.28 -2.03409 -1.1466 0
M  V30 16266 C 1564.26 -0.918636 -1.43161 0
M  V30 16267 O 1565.45 -1.18838 -1.53594 0
M  V30 16268 C 1562.58 -2.43879 -2.47265 0
M  V30 16269 C 1561.53 -3.58873 -2.33225 0
M  V30 16270 C 1560.86 -3.85244 -3.70798 0
M  V30 16271 C 1562.16 -4.90582 -1.79239 0
M  V30 16272 H 1563.85 -2.89545 -0.761862 0
M  V30 16273 H 1561.4 -1.39296 -0.365034 0
M  V30 16274 H 1563.35 -2.74844 -3.19435 0
M  V30 16275 H 1562.07 -1.54715 -2.8763 0
M  V30 16276 H 1560.73 -3.28119 -1.63504 0
M  V30 16277 H 1560.38 -2.93285 -4.08648 0
M  V30 16278 H 1560.08 -4.62649 -3.62257 0
M  V30 16279 H 1561.61 -4.18661 -4.44472 0
M  V30 16280 H 1563.02 -5.20079 -2.41227 0
M  V30 16281 H 1561.42 -5.71989 -1.81518 0
M  V30 16282 H 1562.49 -4.79065 -0.74999 0
M  V30 16283 N 1563.83 0.388742 -1.5273 0
M  V30 16284 C 1564.78 1.49531 -1.78166 0
M  V30 16285 C 1565.77 1.56449 -0.649613 0
M  V30 16286 O 1566.98 1.59612 -0.832097 0
M  V30 16287 H 1563.35 0.497684 -0.56375 0
M  V30 16288 H 1565.32 1.25271 -2.70831 0
M  V30 16289 C 1564.07 2.86663 -1.96774 0
M  V30 16290 H 1563.4 2.82089 -2.83312 0
M  V30 16291 H 1564.84 3.63328 -2.18561 0
M  V30 16292 C 1563.29 3.28665 -0.740345 0
M  V30 16293 O 1563.82 4.01616 0.0821005 0
M  V30 16294 N 1562.03 2.84947 -0.570383 0
M  V30 16295 H 1561.58 2.25748 -1.24078 0
M  V30 16296 H 1561.54 3.13408 0.249496 0
M  V30 16297 N 1565.31 1.43698 0.647203 0
M  V30 16298 C 1566.56 1.45346 1.40425 0
M  V30 16299 C 1566.88 0.081129 1.94831 0
M  V30 16300 O 1566.15 -0.884379 1.74801 0
M  V30 16301 H 1564.73 0.535145 0.521181 0
M  V30 16302 H 1567.39 1.79349 0.762887 0
M  V30 16303 H 1566.48 2.16954 2.2436 0
M  V30 16304 N 1566.79 -0.886131 1.30328 0
M  V30 16305 C 1568.2 -1.16922 1.08634 0
M  V30 16306 C 1568.4 -2.00913 -0.15365 0
M  V30 16307 O 1567.46 -2.37849 -0.847592 0
M  V30 16308 C 1568.77 -1.87701 2.34923 0
M  V30 16309 C 1570.32 -2.0047 2.40376 0
M  V30 16310 C 1570.79 -2.74662 3.66504 0
M  V30 16311 N 1572.29 -2.82208 3.67305 0
M  V30 16312 C 1573.02 -3.40185 4.61586 0
M  V30 16313 N 1572.52 -3.99221 5.66211 0
M  V30 16314 N 1574.31 -3.37989 4.49132 0
M  V30 16315 H 1566.46 -0.326064 2.09882 0
M  V30 16316 H 1568.72 -0.206996 0.925125 0
M  V30 16317 H 1568.43 -1.33427 3.25408 0
M  V30 16318 H 1568.3 -2.88092 2.43481 0
M  V30 16319 H 1570.69 -2.53914 1.50371 0
M  V30 16320 H 1570.77 -0.991709 2.35794 0
M  V30 16321 H 1570.42 -2.2189 4.56867 0
M  V30 16322 H 1570.35 -3.76335 3.68347 0
M  V30 16323 H 1572.84 -2.40292 2.91665 0
M  V30 16324 H 1573.15 -4.41522 6.34254 0
M  V30 16325 H 1571.49 -3.97643 5.70004 0
M  V30 16326 H 1574.69 -2.91096 3.6658 0
M  V30 16327 H 1574.86 -3.82877 5.2279 0
M  V30 16328 N 1568.26 -1.13026 -1.09832 0
M  V30 16329 C 1569.19 -0.826338 -2.18389 0
M  V30 16330 C 1570.18 0.212529 -1.68767 0
M  V30 16331 O 1571.36 0.072363 -1.94065 0
M  V30 16332 C 1568.49 -0.286991 -3.46112 0
M  V30 16333 C 1567.44 -1.25963 -4.09044 0
M  V30 16334 C 1566.77 -0.580231 -5.31542 0
M  V30 16335 C 1568.07 -2.61661 -4.5203 0
M  V30 16336 H 1569.76 -1.73408 -2.4407 0
M  V30 16337 H 1567.31 -0.835201 -1.17305 0
M  V30 16338 H 1569.26 -0.062067 -4.21354 0
M  V30 16339 H 1567.99 0.656121 -3.19942 0
M  V30 16340 H 1566.65 -1.47047 -3.35816 0
M  V30 16341 H 1566.29 0.368222 -5.0165 0
M  V30 16342 H 1565.99 -1.2291 -5.74601 0
M  V30 16343 H 1567.52 -0.36449 -6.09511 0
M  V30 16344 H 1568.93 -2.44569 -5.18516 0
M  V30 16345 H 1567.33 -3.22685 -5.05959 0
M  V30 16346 H 1568.4 -3.19637 -3.64637 0
M  V30 16347 N 1569.74 1.27735 -0.923117 0
M  V30 16348 C 1571.15 1.76579 -0.606376 0
M  V30 16349 C 1571.5 1.75437 0.878428 0
M  V30 16350 O 1570.63 1.35495 1.68731 0
M  V30 16351 C 1571.22 3.20652 -1.09396 0
M  V30 16352 C 1569.78 3.67181 -0.827974 0
M  V30 16353 C 1568.93 2.47259 -1.25532 0
M  V30 16354 H 1571.88 1.14067 -1.10338 0
M  V30 16355 H 1571.9 3.77952 -0.439581 0
M  V30 16356 H 1571.41 3.21451 -2.17465 0
M  V30 16357 H 1569.52 3.71832 0.239098 0
M  V30 16358 H 1569.63 4.56875 -1.44229 0
M  V30 16359 H 1567.99 2.45622 -0.673928 0
M  V30 16360 H 1568.78 2.50771 -2.34455 0
M  V30 16361 N 1571.22 0.688118 1.41784 0
M  V30 16362 C 1572.5 0.144304 1.95067 0
M  V30 16363 C 1572.88 -1.34399 1.62789 0
M  V30 16364 O 1572.23 -2.08675 0.930978 0
M  V30 16365 C 1572.44 0.427641 3.4637 0
M  V30 16366 C 1573.78 0.351345 4.23144 0
M  V30 16367 O 1574.81 0.362134 3.54354 0
M  V30 16368 O 1573.67 0.305018 5.45648 0
M  V30 16369 H 1570.76 0.01062 0.826932 0
M  V30 16370 H 1573.31 0.763766 1.51541 0
M  V30 16371 H 1572.08 1.4581 3.63119 0
M  V30 16372 H 1571.7 -0.223167 3.96973 0
M  V30 16373 N 1572.7 -1.51554 0.432352 0
M  V30 16374 C 1573.63 -2.30514 -0.372243 0
M  V30 16375 C 1574.61 -1.35712 -1.02549 0
M  V30 16376 O 1575.79 -1.6463 -1.03009 0
M  V30 16377 C 1572.92 -3.14353 -1.47646 0
M  V30 16378 C 1571.88 -4.17392 -0.946974 0
M  V30 16379 C 1571.2 -4.89721 -2.14656 0
M  V30 16380 C 1572.5 -5.22298 0.0151377 0
M  V30 16381 H 1574.2 -2.98024 0.28668 0
M  V30 16382 H 1571.74 -1.43325 0.139315 0
M  V30 16383 H 1573.7 -3.68369 -2.04651 0
M  V30 16384 H 1572.42 -2.44654 -2.1636 0
M  V30 16385 H 1571.08 -3.6442 -0.399174 0
M  V30 16386 H 1570.73 -4.1653 -2.81978 0
M  V30 16387 H 1570.43 -5.59393 -1.79869 0
M  V30 16388 H 1571.95 -5.46559 -2.72224 0
M  V30 16389 H 1573.37 -5.71416 -0.464447 0
M  V30 16390 H 1571.76 -5.99468 0.275339 0
M  V30 16391 H 1572.83 -4.75436 0.953357 0
M  V30 16392 N 1574.18 -0.163538 -1.56749 0
M  V30 16393 C 1575.43 0.483453 -1.9582 0
M  V30 16394 C 1575.74 1.64913 -1.05181 0
M  V30 16395 O 1576.94 2.36184 -1.33901 0
M  V30 16396 C 1575.4 0.911471 -3.48167 0
M  V30 16397 C 1575.01 -0.228178 -4.47419 0
M  V30 16398 C 1576.75 1.52732 -3.96072 0
M  V30 16399 C 1574.66 0.219036 -5.90994 0
M  V30 16400 H 1573.59 0.184383 -0.731108 0
M  V30 16401 H 1576.24 -0.250527 -1.81782 0
M  V30 16402 H 1574.62 1.7012 -3.57596 0
M  V30 16403 H 1575.8 -1.0054 -4.49698 0
M  V30 16404 H 1574.11 -0.753485 -4.09526 0
M  V30 16405 H 1576.71 1.87383 -5.00791 0
M  V30 16406 H 1577.05 2.42239 -3.38565 0
M  V30 16407 H 1577.58 0.802176 -3.89628 0
M  V30 16408 H 1574.32 -0.641066 -6.52358 0
M  V30 16409 H 1573.84 0.96178 -5.92039 0
M  V30 16410 H 1575.52 0.665524 -6.43568 0
M  V30 16411 N 1575.65 1.57214 0.110213 0
M  V30 16412 C 1576.88 1.8988 0.834297 0
M  V30 16413 C 1577.3 0.756347 1.72224 0
M  V30 16414 O 1576.66 -0.292768 1.78921 0
M  V30 16415 C 1576.71 3.21338 1.63629 0
M  V30 16416 O 1575.81 3.07862 2.74399 0
M  V30 16417 H 1575.16 0.62283 0.23017 0
M  V30 16418 H 1577.69 2.04402 0.0899726 0
M  V30 16419 H 1577.7 3.54275 2.02369 0
M  V30 16420 H 1576.37 4.04079 0.984521 0
M  V30 16421 H 1574.95 2.8641 2.38797 0
M  V30 16422 N 1577.13 -0.380637 1.52934 0
M  V30 16423 C 1578.41 -1.13958 1.58975 0
M  V30 16424 C 1578.79 -2.07503 0.388028 0
M  V30 16425 O 1578.14 -2.19844 -0.622984 0
M  V30 16426 C 1578.35 -1.89192 2.9327 0
M  V30 16427 C 1579.7 -2.44259 3.47308 0
M  V30 16428 O 1580.72 -1.99338 2.95199 0
M  V30 16429 O 1579.58 -3.26338 4.38367 0
M  V30 16430 H 1576.67 -0.521896 0.641525 0
M  V30 16431 H 1579.22 -0.385114 1.65272 0
M  V30 16432 H 1577.99 -1.20834 3.72176 0
M  V30 16433 H 1577.61 -2.71581 2.90395 0
M  V30 16434 N 1578.61 -1.44039 -0.639573 0
M  V30 16435 C 1579.57 -1.49907 -1.7338 0
M  V30 16436 C 1580.57 -0.382101 -1.56194 0
M  V30 16437 O 1581.76 -0.644396 -1.61843 0
M  V30 16438 C 1578.9 -1.36486 -3.12385 0
M  V30 16439 H 1580.09 -2.4737 -1.69553 0
M  V30 16440 H 1577.64 -1.31006 -0.852474 0
M  V30 16441 H 1578.38 -0.400845 -3.21813 0
M  V30 16442 H 1578.16 -2.17471 -3.26265 0
M  V30 16443 H 1579.65 -1.43555 -3.9215 0
M  V30 16444 N 1580.09 0.879207 -1.30796 0
M  V30 16445 C 1581.02 2.00158 -1.20246 0
M  V30 16446 C 1582 1.69852 -0.091769 0
M  V30 16447 O 1583.18 1.92246 -0.274792 0
M  V30 16448 C 1580.31 3.3545 -0.899472 0
M  V30 16449 C 1579.27 3.80033 -1.96873 0
M  V30 16450 C 1578.59 5.12681 -1.51861 0
M  V30 16451 C 1579.89 3.98136 -3.38061 0
M  V30 16452 H 1581.59 2.09242 -2.14145 0
M  V30 16453 H 1579.13 1.00535 -1.03096 0
M  V30 16454 H 1581.09 4.13497 -0.812299 0
M  V30 16455 H 1579.81 3.26513 0.075189 0
M  V30 16456 H 1578.47 3.04219 -2.04564 0
M  V30 16457 H 1578.12 5.00178 -0.532063 0
M  V30 16458 H 1577.82 5.43482 -2.23386 0
M  V30 16459 H 1579.34 5.93247 -1.44534 0
M  V30 16460 H 1580.76 4.66604 -3.33096 0
M  V30 16461 H 1579.15 4.40321 -4.07722 0
M  V30 16462 H 1580.22 3.01807 -3.79526 0
M  V30 16463 N 1581.57 1.13606 1.09231 0
M  V30 16464 C 1582.81 0.899054 1.81448 0
M  V30 16465 C 1583.14 -0.574726 1.85815 0
M  V30 16466 O 1582.4 -1.44144 1.32366 0
M  V30 16467 C 1582.7 1.43456 3.27345 0
M  V30 16468 C 1582.36 2.92553 3.43109 0
M  V30 16469 C 1581.02 3.3326 3.47118 0
M  V30 16470 C 1583.38 3.88467 3.47481 0
M  V30 16471 C 1580.7 4.68562 3.53081 0
M  V30 16472 C 1583.06 5.23616 3.54978 0
M  V30 16473 C 1581.72 5.63847 3.57257 0
M  V30 16474 H 1580.99 0.328987 0.663964 0
M  V30 16475 H 1583.64 1.41834 1.28668 0
M  V30 16476 H 1581.94 0.83602 3.82777 0
M  V30 16477 H 1583.64 1.22723 3.81759 0
M  V30 16478 H 1580.23 2.60076 3.40674 0
M  V30 16479 H 1584.41 3.58103 3.43622 0
M  V30 16480 H 1579.67 4.99106 3.53134 0
M  V30 16481 H 1583.84 5.9775 3.57306 0
M  V30 16482 H 1581.47 6.68676 3.6163 0
M  V30 16483 N 1583.05 -1.27244 0.929878 0
M  V30 16484 C 1584.29 -1.96034 0.578782 0
M  V30 16485 C 1584.65 -1.71449 -0.86425 0
M  V30 16486 O 1585.85 -2.33946 -1.32373 0
M  V30 16487 C 1584.12 -3.45925 0.898374 0
M  V30 16488 S 1585.68 -4.33867 0.65612 0
M  V30 16489 H 1582.5 -0.678166 0.213569 0
M  V30 16490 H 1585.1 -1.54433 1.19878 0
M  V30 16491 H 1583.8 -3.61317 1.94624 0
M  V30 16492 H 1583.34 -3.92488 0.267655 0
M  V30 16493 H 1585.35 -4.93823 -0.485059 0
M  V30 16494 N 1584.52 -0.695628 -1.41417 0
M  V30 16495 C 1585.47 -0.0189456 -2.32592 0
M  V30 16496 C 1586.47 0.76848 -1.50966 0
M  V30 16497 O 1587.67 0.674096 -1.66901 0
M  V30 16498 H 1584.05 0.0126742 -0.751893 0
M  V30 16499 H 1586.02 -0.804968 -2.87337 0
M  V30 16500 C 1584.77 0.903458 -3.35757 0
M  V30 16501 H 1584.09 0.306963 -3.9862 0
M  V30 16502 H 1585.53 1.34525 -4.02093 0
M  V30 16503 C 1583.99 2.01966 -2.69651 0
M  V30 16504 O 1584.52 3.10845 -2.54438 0
M  V30 16505 N 1582.72 1.79741 -2.28345 0
M  V30 16506 H 1582.27 0.911929 -2.40918 0
M  V30 16507 H 1582.23 2.54609 -1.84449 0
M  V30 16508 N 1586 1.51322 -0.440383 0
M  V30 16509 C 1587.25 2.01714 0.124815 0
M  V30 16510 C 1587.57 1.32634 1.42945 0
M  V30 16511 O 1586.84 0.461849 1.90378 0
M  V30 16512 H 1585.42 0.745384 0.049116 0
M  V30 16513 H 1588.08 1.85951 -0.583787 0
M  V30 16514 H 1587.18 3.10669 0.29853 0
M  V30 16515 N 1587.48 0.171848 1.5666 0
M  V30 16516 C 1588.41 -0.789671 2.15167 0
M  V30 16517 C 1589.42 -1.19335 1.10739 0
M  V30 16518 O 1590.61 -1.13311 1.37924 0
M  V30 16519 C 1587.71 -2.07448 2.6799 0
M  V30 16520 C 1586.89 -1.83429 3.9708 0
M  V30 16521 C 1585.95 -2.96134 4.34961 0
M  V30 16522 O 1584.97 -2.66746 5.02827 0
M  V30 16523 N 1586.17 -4.23932 3.96563 0
M  V30 16524 H 1588.94 -0.289484 2.98299 0
M  V30 16525 H 1586.5 -0.0109154 1.61896 0
M  V30 16526 H 1588.49 -2.81941 2.90329 0
M  V30 16527 H 1587.06 -2.48656 1.89444 0
M  V30 16528 H 1586.28 -0.928376 3.83112 0
M  V30 16529 H 1587.57 -1.64749 4.81389 0
M  V30 16530 H 1586.97 -4.50668 3.41928 0
M  V30 16531 H 1585.52 -4.95126 4.23903 0
M  V30 16532 N 1588.96 -1.5727 -0.101874 0
M  V30 16533 C 1590.21 -1.84928 -0.805263 0
M  V30 16534 C 1590.52 -0.760099 -1.80227 0
M  V30 16535 O 1591.73 -0.923594 -2.55308 0
M  V30 16536 C 1590.18 -3.27929 -1.48291 0
M  V30 16537 C 1589.79 -4.44901 -0.526016 0
M  V30 16538 C 1591.53 -3.64819 -2.17043 0
M  V30 16539 C 1589.44 -5.78934 -1.20787 0
M  V30 16540 H 1588.37 -0.689789 -0.304478 0
M  V30 16541 H 1591.02 -1.83408 -0.0581337 0
M  V30 16542 H 1589.4 -3.2397 -2.27726 0
M  V30 16543 H 1590.58 -4.60193 0.236352 0
M  V30 16544 H 1588.89 -4.16363 0.0554387 0
M  V30 16545 H 1591.49 -4.62236 -2.68778 0
M  V30 16546 H 1591.83 -2.93104 -2.95628 0
M  V30 16547 H 1592.37 -3.70637 -1.44476 0
M  V30 16548 H 1589.1 -6.53863 -0.46296 0
M  V30 16549 H 1588.62 -5.67497 -1.94183 0
M  V30 16550 H 1590.3 -6.23268 -1.73626 0
M  V30 16551 N 1590.44 0.372521 -1.53134 0
M  V30 16552 C 1591.35 1.47994 -1.8203 0
M  V30 16553 C 1592.36 1.58937 -0.708179 0
M  V30 16554 O 1593.54 1.74962 -0.997511 0
M  V30 16555 C 1590.6 2.83342 -1.99796 0
M  V30 16556 C 1589.66 2.81984 -3.23702 0
M  V30 16557 C 1588.9 4.10877 -3.40611 0
M  V30 16558 O 1589.12 5.06686 -2.61964 0
M  V30 16559 O 1588.05 4.17111 -4.33938 0
M  V30 16560 H 1591.88 1.26501 -2.761 0
M  V30 16561 H 1589.46 0.561957 -1.38428 0
M  V30 16562 H 1591.35 3.63551 -2.13092 0
M  V30 16563 H 1590.02 3.04826 -1.08916 0
M  V30 16564 H 1588.93 2.00498 -3.15834 0
M  V30 16565 H 1590.26 2.65453 -4.14482 0
M  V30 16566 N 1591.91 1.44376 0.631925 0
M  V30 16567 C 1593.33 1.28245 0.950014 0
M  V30 16568 C 1593.53 0.217644 2.00321 0
M  V30 16569 O 1592.59 -0.396736 2.49364 0
M  V30 16570 C 1593.9 2.65378 1.41404 0
M  V30 16571 C 1595.45 2.73081 1.52956 0
M  V30 16572 C 1595.92 4.10682 2.02742 0
M  V30 16573 N 1597.41 4.12854 2.10014 0
M  V30 16574 C 1598.15 5.16173 2.49705 0
M  V30 16575 N 1597.64 6.29855 2.88539 0
M  V30 16576 N 1599.44 5.03528 2.49832 0
M  V30 16577 H 1591.59 2.12302 -0.0646167 0
M  V30 16578 H 1593.85 0.9474 0.0337162 0
M  V30 16579 H 1593.56 3.44366 0.714476 0
M  V30 16580 H 1593.43 2.92213 2.3852 0
M  V30 16581 H 1595.82 1.94412 2.22009 0
M  V30 16582 H 1595.9 2.49988 0.542176 0
M  V30 16583 H 1595.54 4.89827 1.34285 0
M  V30 16584 H 1595.47 4.31152 3.02351 0
M  V30 16585 H 1597.96 3.30806 1.8269 0
M  V30 16586 H 1598.28 7.04505 3.17637 0
M  V30 16587 H 1596.62 6.33294 2.86293 0
M  V30 16588 H 1599.81 4.13773 2.18883 0
M  V30 16589 H 1599.99 5.84172 2.80441 0
M  V30 16590 N 1593.39 -0.872258 1.31261 0
M  V30 16591 C 1594.64 -1.6219 1.20576 0
M  V30 16592 C 1594.96 -1.93557 -0.236769 0
M  V30 16593 O 1594.23 -1.58094 -1.15686 0
M  V30 16594 H 1592.81 -0.601265 0.443272 0
M  V30 16595 H 1595.47 -1.04438 1.64556 0
M  V30 16596 H 1594.57 -2.56653 1.77582 0
M  V30 16597 N 1594.87 -1.14184 -1.08627 0
M  V30 16598 C 1596.11 -0.919016 -1.82575 0
M  V30 16599 C 1596.47 0.544729 -1.84111 0
M  V30 16600 O 1597.67 0.885417 -2.53799 0
M  V30 16601 C 1595.95 -1.50072 -3.24366 0
M  V30 16602 S 1597.5 -1.41914 -4.15218 0
M  V30 16603 H 1594.32 -0.331056 -0.629224 0
M  V30 16604 H 1596.92 -1.45491 -1.30586 0
M  V30 16605 H 1595.63 -2.55924 -3.20828 0
M  V30 16606 H 1595.16 -0.963129 -3.81428 0
M  V30 16607 H 1597.17 -0.403144 -4.9456 0
M  V30 16608 N 1596.35 1.26749 -0.936613 0
M  V30 16609 C 1597.26 2.30272 -0.448573 0
M  V30 16610 C 1598.27 1.67386 0.475184 0
M  V30 16611 O 1599.45 1.98232 0.355825 0
M  V30 16612 C 1596.52 3.45546 0.28262 0
M  V30 16613 C 1595.58 4.23926 -0.677138 0
M  V30 16614 C 1594.81 5.33697 0.019255 0
M  V30 16615 O 1595.03 5.56825 1.23703 0
M  V30 16616 O 1593.97 5.98302 -0.657119 0
M  V30 16617 H 1597.79 2.74072 -1.30838 0
M  V30 16618 H 1595.38 1.31863 -0.702314 0
M  V30 16619 H 1597.26 4.15635 0.694686 0
M  V30 16620 H 1595.93 3.03784 1.11789 0
M  V30 16621 H 1594.84 3.56337 -1.13906 0
M  V30 16622 H 1596.17 4.69425 -1.47988 0
M  V30 16623 N 1597.83 0.703118 1.41046 0
M  V30 16624 C 1599.07 0.236818 2.00708 0
M  V30 16625 C 1599.4 -1.17008 1.55994 0
M  V30 16626 O 1598.67 -1.79094 0.793871 0
M  V30 16627 H 1597.25 0.0845643 0.742198 0
M  V30 16628 H 1599.91 0.905964 1.72564 0
M  V30 16629 H 1599 0.260141 3.11014 0
M  V30 16630 N 1599.3 -1.51086 0.448402 0
M  V30 16631 C 1600.72 -1.86696 -0.0121264 0
M  V30 16632 C 1601.07 -1.36483 -1.40949 0
M  V30 16633 O 1600.19 -0.72024 -2.04062 0
M  V30 16634 C 1600.79 -3.38788 -0.0287814 0
M  V30 16635 C 1599.35 -3.73892 -0.433758 0
M  V30 16636 C 1598.49 -2.74869 0.366362 0
M  V30 16637 H 1601.44 -1.44153 0.663744 0
M  V30 16638 H 1601.46 -3.71204 -0.835915 0
M  V30 16639 H 1600.98 -3.75304 0.988368 0
M  V30 16640 H 1599.08 -3.4297 -1.4561 0
M  V30 16641 H 1599.19 -4.78862 -0.150869 0
M  V30 16642 H 1597.55 -2.54085 -0.176862 0
M  V30 16643 H 1598.34 -3.14228 1.3826 0
M  V30 16644 N 1600.78 -0.180154 -1.56567 0
M  V30 16645 C 1602.01 0.471692 -2.01965 0
M  V30 16646 C 1602.43 1.5542 -1.05954 0
M  V30 16647 O 1601.79 1.81255 -0.0405307 0
M  V30 16648 C 1601.84 1.01883 -3.45908 0
M  V30 16649 O 1600.94 2.13245 -3.52988 0
M  V30 16650 H 1600.28 0.11197 -0.654491 0
M  V30 16651 H 1602.81 -0.286642 -2.02582 0
M  V30 16652 H 1602.82 1.33922 -3.85395 0
M  V30 16653 H 1601.5 0.226299 -4.15284 0
M  V30 16654 H 1600.08 1.82184 -3.25367 0
M  V30 16655 N 1602.26 1.57322 0.0935319 0
M  V30 16656 C 1603.49 1.90375 0.810245 0
M  V30 16657 C 1603.9 0.774011 1.72205 0
M  V30 16658 O 1603.26 -0.253918 1.80725 0
M  V30 16659 C 1603.31 3.23054 1.62228 0
M  V30 16660 O 1603.03 4.31682 0.747157 0
M  V30 16661 C 1604.53 3.6998 2.44192 0
M  V30 16662 H 1601.75 0.629769 0.231586 0
M  V30 16663 H 1604.3 2.04379 0.0702984 0
M  V30 16664 H 1602.45 3.10643 2.31472 0
M  V30 16665 H 1602.87 5.07884 1.30974 0
M  V30 16666 H 1604.34 4.65507 2.96659 0
M  V30 16667 H 1604.82 2.97899 3.22727 0
M  V30 16668 H 1605.42 3.85264 1.80144 0
M  V30 16669 N 1603.74 -0.364395 1.53329 0
M  V30 16670 C 1604.97 -1.1275 1.7348 0
M  V30 16671 C 1605.38 -1.83002 0.4643 0
M  V30 16672 O 1604.74 -1.73603 -0.562864 0
M  V30 16673 C 1604.79 -2.15691 2.90103 0
M  V30 16674 O 1604.51 -1.48298 4.12237 0
M  V30 16675 C 1606.01 -3.04539 3.22135 0
M  V30 16676 H 1603.23 -0.337084 0.580186 0
M  V30 16677 H 1605.78 -0.422952 2.00078 0
M  V30 16678 H 1603.93 -2.81742 2.65895 0
M  V30 16679 H 1604.34 -2.16896 4.77553 0
M  V30 16680 H 1605.82 -3.72747 4.07141 0
M  V30 16681 H 1606.3 -3.69414 2.3755 0
M  V30 16682 H 1606.9 -2.44103 3.48273 0
M  V30 16683 N 1605.22 -1.44709 -0.62426 0
M  V30 16684 C 1606.46 -1.4938 -1.39517 0
M  V30 16685 C 1606.82 -0.125721 -1.91588 0
M  V30 16686 O 1608.02 -0.0471087 -2.68759 0
M  V30 16687 C 1606.29 -2.53005 -2.52435 0
M  V30 16688 S 1607.85 -2.76776 -3.40501 0
M  V30 16689 H 1604.67 -0.528266 -0.475874 0
M  V30 16690 H 1607.27 -1.81679 -0.722007 0
M  V30 16691 H 1605.98 -3.51099 -2.12502 0
M  V30 16692 H 1605.51 -2.22301 -3.2457 0
M  V30 16693 H 1607.52 -2.08891 -4.50088 0
M  V30 16694 N 1606.69 0.865285 -1.31722 0
M  V30 16695 C 1607.63 1.97919 -1.15588 0
M  V30 16696 C 1608.64 1.6253 -0.0936929 0
M  V30 16697 O 1609.83 1.752 -0.341639 0
M  V30 16698 C 1606.93 3.30614 -0.744814 0
M  V30 16699 C 1606.1 3.94314 -1.89301 0
M  V30 16700 C 1605.16 5.0533 -1.46724 0
M  V30 16701 O 1604.19 5.25898 -2.17762 0
M  V30 16702 N 1605.39 5.794 -0.357262 0
M  V30 16703 H 1608.15 2.12304 -2.11535 0
M  V30 16704 H 1605.71 1.03953 -1.24118 0
M  V30 16705 H 1607.71 4.02273 -0.442594 0
M  V30 16706 H 1606.28 3.12357 0.123186 0
M  V30 16707 H 1605.5 3.15577 -2.3623 0
M  V30 16708 H 1606.78 4.33609 -2.66196 0
M  V30 16709 H 1606.18 5.65215 0.23423 0
M  V30 16710 H 1604.74 6.51699 -0.114599 0
M  V30 16711 N 1608.17 1.14759 1.0802 0
M  V30 16712 C 1609.08 0.851934 2.18585 0
M  V30 16713 C 1610.1 -0.16914 1.73176 0
M  V30 16714 O 1611.27 0.00330114 2.014 0
M  V30 16715 C 1608.34 0.337977 3.45049 0
M  V30 16716 C 1607.4 1.4221 4.05061 0
M  V30 16717 C 1606.63 0.932574 5.25489 0
M  V30 16718 O 1606.86 -0.224457 5.69958 0
M  V30 16719 O 1605.79 1.7133 5.77001 0
M  V30 16720 H 1609.62 1.77605 2.46354 0
M  V30 16721 H 1607.2 0.926159 1.17229 0
M  V30 16722 H 1609.08 0.0574734 4.21361 0
M  V30 16723 H 1607.76 -0.558363 3.18848 0
M  V30 16724 H 1606.67 1.75612 3.3032 0
M  V30 16725 H 1608 2.29311 4.3552 0
M  V30 16726 N 1609.65 -1.26251 0.943322 0
M  V30 16727 C 1610.93 -1.88839 0.509831 0
M  V30 16728 C 1611.31 -1.85227 -1.01263 0
M  V30 16729 O 1610.66 -1.30805 -1.87356 0
M  V30 16730 C 1610.87 -3.32076 1.07361 0
M  V30 16731 C 1612.21 -4.0891 1.14357 0
M  V30 16732 O 1613.24 -3.41153 1.02435 0
M  V30 16733 O 1612.1 -5.30088 1.32926 0
M  V30 16734 H 1609.19 -0.810069 0.166484 0
M  V30 16735 H 1611.74 -1.34405 1.03602 0
M  V30 16736 H 1610.51 -3.29077 2.11716 0
M  V30 16737 H 1610.13 -3.94052 0.529991 0
M  V30 16738 N 1611.13 -0.710588 -1.40671 0
M  V30 16739 C 1612.35 -0.256007 -2.05814 0
M  V30 16740 C 1612.78 1.09178 -1.53173 0
M  V30 16741 O 1612.14 1.68665 -0.664977 0
M  V30 16742 C 1612.19 -0.240528 -3.59797 0
M  V30 16743 O 1611.29 0.779859 -4.04959 0
M  V30 16744 H 1610.63 -0.121326 -0.652822 0
M  V30 16745 H 1613.16 -0.969667 -1.80163 0
M  V30 16746 H 1613.17 -0.0765027 -4.07928 0
M  V30 16747 H 1611.85 -1.22411 -3.97478 0
M  V30 16748 H 1610.42 0.583965 -3.68299 0
M  V30 16749 N 1612.61 1.50847 -0.456408 0
M  V30 16750 C 1613.85 2.04143 0.102549 0
M  V30 16751 C 1614.21 1.33189 1.38292 0
M  V30 16752 O 1615.41 1.7696 2.02333 0
M  V30 16753 C 1613.68 3.56164 0.296985 0
M  V30 16754 S 1615.24 4.31134 0.816609 0
M  V30 16755 H 1612.06 0.710632 0.0228845 0
M  V30 16756 H 1614.66 1.85402 -0.620186 0
M  V30 16757 H 1613.37 4.05365 -0.640906 0
M  V30 16758 H 1612.9 3.79232 1.04626 0
M  V30 16759 H 1614.91 4.49949 2.0919 0
M  V30 16760 N 1614.09 0.188454 1.56469 0
M  V30 16761 C 1615.31 -0.460975 2.02212 0
M  V30 16762 C 1615.74 -1.54856 1.06777 0
M  V30 16763 O 1615.09 -1.81231 0.0501425 0
M  V30 16764 C 1615.14 -1.00047 3.46443 0
M  V30 16765 O 1614.25 -2.1137 3.54114 0
M  V30 16766 H 1613.59 -0.108497 0.655076 0
M  V30 16767 H 1616.12 0.297381 2.02427 0
M  V30 16768 H 1616.13 -1.31876 3.86099 0
M  V30 16769 H 1614.8 -0.204273 4.15398 0
M  V30 16770 H 1613.38 -1.80456 3.26328 0
M  V30 16771 N 1615.56 -1.5737 -0.0851874 0
M  V30 16772 C 1616.51 -2.03781 -1.12142 0
M  V30 16773 C 1617.51 -0.940669 -1.40882 0
M  V30 16774 O 1618.71 -1.12582 -1.40447 0
M  V30 16775 H 1615.09 -0.64956 -0.378914 0
M  V30 16776 H 1617.06 -2.89983 -0.703736 0
M  V30 16777 C 1615.81 -2.48628 -2.43062 0
M  V30 16778 H 1615.13 -3.32637 -2.21795 0
M  V30 16779 H 1616.57 -2.84869 -3.14048 0
M  V30 16780 C 1615.03 -1.36364 -3.08069 0
M  V30 16781 O 1615.56 -0.698273 -3.95584 0
M  V30 16782 N 1613.76 -1.11213 -2.68477 0
M  V30 16783 H 1613.31 -1.655 -1.97402 0
M  V30 16784 H 1613.27 -0.363003 -3.12297 0
M  V30 16785 N 1617.04 0.356258 -1.53521 0
M  V30 16786 C 1617.97 1.45722 -1.76912 0
M  V30 16787 C 1618.99 1.49257 -0.650091 0
M  V30 16788 O 1620.18 1.52569 -0.926557 0
M  V30 16789 C 1617.28 2.84444 -1.84241 0
M  V30 16790 C 1616.45 3.04497 -3.14007 0
M  V30 16791 C 1615.51 4.23387 -3.12458 0
M  V30 16792 O 1614.53 4.18113 -3.86225 0
M  V30 16793 N 1615.74 5.31278 -2.33931 0
M  V30 16794 H 1618.5 1.26031 -2.71912 0
M  V30 16795 H 1616.06 0.546052 -1.52414 0
M  V30 16796 H 1618.05 3.62133 -1.80671 0
M  V30 16797 H 1616.62 2.97338 -0.96484 0
M  V30 16798 H 1615.84 2.14387 -3.30805 0
M  V30 16799 H 1617.13 3.14769 -3.99747 0
M  V30 16800 H 1616.53 5.38428 -1.73527 0
M  V30 16801 H 1615.09 6.07508 -2.36171 0
M  V30 16802 N 1618.52 1.45038 0.616577 0
M  V30 16803 C 1619.77 1.48292 1.3731 0
M  V30 16804 C 1620.09 0.122437 1.94615 0
M  V30 16805 O 1619.36 -0.847103 1.76638 0
M  V30 16806 H 1617.94 0.546079 0.509712 0
M  V30 16807 H 1620.6 1.80927 0.724673 0
M  V30 16808 H 1619.7 2.21664 2.19708 0
M  V30 16809 N 1620 -0.858287 1.32179 0
M  V30 16810 C 1621.24 -1.6146 1.22713 0
M  V30 16811 C 1621.58 -1.93045 -0.211479 0
M  V30 16812 O 1620.85 -1.57034 -1.14764 0
M  V30 16813 C 1621.13 -2.93728 2.08317 0
M  V30 16814 C 1620.99 -2.68947 3.60538 0
M  V30 16815 C 1622.31 -3.94959 1.94153 0
M  V30 16816 H 1619.43 -0.585872 0.447128 0
M  V30 16817 H 1622.07 -0.99134 1.62088 0
M  V30 16818 H 1620.22 -3.4692 1.74867 0
M  V30 16819 H 1621.89 -2.22336 4.04183 0
M  V30 16820 H 1620.13 -2.02974 3.83385 0
M  V30 16821 H 1620.8 -3.63112 4.15756 0
M  V30 16822 H 1623.28 -3.51013 2.23449 0
M  V30 16823 H 1622.16 -4.85371 2.56332 0
M  V30 16824 H 1622.42 -4.32672 0.908132 0
M  V30 16825 N 1621.48 -1.1533 -1.07409 0
M  V30 16826 C 1622.72 -0.938329 -1.8159 0
M  V30 16827 C 1623.08 0.525171 -1.84678 0
M  V30 16828 O 1624.28 0.858449 -2.54724 0
M  V30 16829 C 1622.55 -1.53504 -3.22756 0
M  V30 16830 S 1624.11 -1.4631 -4.13689 0
M  V30 16831 H 1620.93 -0.337711 -0.625677 0
M  V30 16832 H 1623.53 -1.46868 -1.29035 0
M  V30 16833 H 1622.23 -2.59313 -3.18096 0
M  V30 16834 H 1621.77 -1.00353 -3.80385 0
M  V30 16835 H 1623.78 -0.455576 -4.94104 0
M  V30 16836 N 1622.95 1.25748 -0.950004 0
M  V30 16837 C 1623.88 2.28419 -0.484467 0
M  V30 16838 C 1624.86 1.63569 0.466813 0
M  V30 16839 O 1626.05 1.90705 0.366766 0
M  V30 16840 C 1623.18 3.46449 0.242916 0
M  V30 16841 C 1622.13 4.23447 -0.622657 0
M  V30 16842 C 1621.46 5.34182 0.235199 0
M  V30 16843 C 1622.76 4.86576 -1.89845 0
M  V30 16844 H 1624.45 2.6761 -1.34257 0
M  V30 16845 H 1622 1.28646 -0.647014 0
M  V30 16846 H 1623.95 4.17394 0.579693 0
M  V30 16847 H 1622.68 3.06235 1.13523 0
M  V30 16848 H 1621.34 3.54279 -0.942453 0
M  V30 16849 H 1620.98 4.90209 1.12713 0
M  V30 16850 H 1620.68 5.86612 -0.340609 0
M  V30 16851 H 1622.21 6.07961 0.567048 0
M  V30 16852 H 1623.62 5.49688 -1.62837 0
M  V30 16853 H 1622.02 5.49162 -2.41954 0
M  V30 16854 H 1623.09 4.09021 -2.60441 0
M  V30 16855 N 1624.43 0.718038 1.40292 0
M  V30 16856 C 1625.36 0.0276294 2.29183 0
M  V30 16857 C 1626.38 -0.721208 1.45954 0
M  V30 16858 O 1627.57 -0.568181 1.69216 0
M  V30 16859 C 1624.67 -0.985139 3.24266 0
M  V30 16860 C 1623.84 -0.301327 4.36361 0
M  V30 16861 C 1622.9 -1.21982 5.11866 0
M  V30 16862 O 1621.92 -0.70369 5.64833 0
M  V30 16863 N 1623.13 -2.55079 5.21455 0
M  V30 16864 H 1625.89 0.790884 2.89076 0
M  V30 16865 H 1623.45 0.565867 1.51689 0
M  V30 16866 H 1625.44 -1.60183 3.7165 0
M  V30 16867 H 1624.01 -1.64973 2.65523 0
M  V30 16868 H 1623.23 0.495594 3.91072 0
M  V30 16869 H 1624.52 0.173238 5.08505 0
M  V30 16870 H 1623.92 -2.99506 4.79909 0
M  V30 16871 H 1622.48 -3.11886 5.72338 0
M  V30 16872 N 1625.91 -1.50602 0.464402 0
M  V30 16873 C 1626.84 -2.26203 -0.36943 0
M  V30 16874 C 1627.86 -1.31269 -0.962924 0
M  V30 16875 O 1629.04 -1.56829 -0.852465 0
M  V30 16876 C 1626.14 -3.02323 -1.53147 0
M  V30 16877 C 1625.32 -4.24561 -1.05198 0
M  V30 16878 C 1624.38 -4.83031 -2.08729 0
M  V30 16879 O 1623.4 -5.44131 -1.67062 0
M  V30 16880 N 1624.6 -4.6944 -3.41477 0
M  V30 16881 H 1627.37 -2.98402 0.278652 0
M  V30 16882 H 1624.93 -1.59193 0.294803 0
M  V30 16883 H 1626.92 -3.38319 -2.22086 0
M  V30 16884 H 1625.49 -2.32965 -2.08438 0
M  V30 16885 H 1624.71 -3.93748 -0.188705 0
M  V30 16886 H 1626 -5.0383 -0.709434 0
M  V30 16887 H 1625.4 -4.20832 -3.78044 0
M  V30 16888 H 1623.96 -5.09724 -4.06233 0
M  V30 16889 N 1627.39 -0.19675 -1.56367 0
M  V30 16890 C 1628.63 0.435602 -1.98681 0
M  V30 16891 C 1628.99 1.59124 -1.08155 0
M  V30 16892 O 1628.28 1.91183 -0.126295 0
M  V30 16893 C 1628.48 0.942382 -3.44752 0
M  V30 16894 C 1628.31 -0.162611 -4.49406 0
M  V30 16895 C 1627.08 -0.620794 -5.01472 0
M  V30 16896 C 1629.27 -0.972148 -5.05028 0
M  V30 16897 N 1627.26 -1.70344 -5.89793 0
M  V30 16898 C 1628.63 -1.90416 -5.90035 0
M  V30 16899 C 1630.68 -1.01438 -4.87457 0
M  V30 16900 C 1629.38 -2.8749 -6.5935 0
M  V30 16901 C 1631.41 -1.97318 -5.57512 0
M  V30 16902 C 1630.77 -2.89262 -6.42267 0
M  V30 16903 H 1626.87 0.126773 -0.771656 0
M  V30 16904 H 1629.46 -0.302824 -1.92331 0
M  V30 16905 H 1627.63 1.65024 -3.51598 0
M  V30 16906 H 1629.36 1.54548 -3.74028 0
M  V30 16907 H 1626.11 -0.213841 -4.73117 0
M  V30 16908 H 1626.54 -2.24601 -6.38658 0
M  V30 16909 H 1631.18 -0.31751 -4.21606 0
M  V30 16910 H 1628.9 -3.58152 -7.24398 0
M  V30 16911 H 1632.48 -2.01228 -5.45892 0
M  V30 16912 H 1631.36 -3.62244 -6.95521 0
M  V30 16913 N 1628.87 1.57413 0.0768405 0
M  V30 16914 C 1630.14 1.78056 0.809663 0
M  V30 16915 C 1630.52 0.783053 1.9604 0
M  V30 16916 O 1629.87 -0.184836 2.27751 0
M  V30 16917 C 1630.08 3.24391 1.2873 0
M  V30 16918 C 1631.43 3.88082 1.72272 0
M  V30 16919 O 1632.45 3.28251 1.38309 0
M  V30 16920 O 1631.31 4.93329 2.35135 0
M  V30 16921 H 1628.41 0.730553 0.387584 0
M  V30 16922 H 1630.95 1.69603 0.057307 0
M  V30 16923 H 1629.72 3.88543 0.463678 0
M  V30 16924 H 1629.35 3.37548 2.10112 0
M  V30 16925 N 1630.34 -0.348112 1.53707 0
M  V30 16926 C 1631.59 -1.08671 1.70396 0
M  V30 16927 C 1631.91 -1.89314 0.467453 0
M  V30 16928 O 1631.18 -1.88911 -0.518605 0
M  V30 16929 H 1629.76 -0.404186 0.628206 0
M  V30 16930 H 1632.43 -0.390491 1.90948 0
M  V30 16931 H 1631.52 -1.76668 2.57284 0
M  V30 16932 N 1631.82 -1.45363 -0.608876 0
M  V30 16933 C 1633.07 -1.49313 -1.36792 0
M  V30 16934 C 1633.4 -0.134357 -1.94035 0
M  V30 16935 O 1632.65 0.866819 -1.75456 0
M  V30 16936 C 1632.95 -2.51893 -2.53544 0
M  V30 16937 C 1632.62 -3.96636 -2.14455 0
M  V30 16938 C 1631.28 -4.36048 -2.03508 0
M  V30 16939 C 1633.63 -4.87668 -1.83929 0
M  V30 16940 C 1630.96 -5.64389 -1.60256 0
M  V30 16941 C 1633.31 -6.16419 -1.42163 0
M  V30 16942 C 1631.98 -6.54763 -1.29774 0
M  V30 16943 H 1631.25 -0.546373 -0.500557 0
M  V30 16944 H 1633.89 -1.78702 -0.68832 0
M  V30 16945 H 1632.2 -2.16068 -3.26836 0
M  V30 16946 H 1633.89 -2.52187 -3.11773 0
M  V30 16947 H 1630.48 -3.65467 -2.23901 0
M  V30 16948 H 1634.67 -4.57956 -1.91284 0
M  V30 16949 H 1629.92 -5.92894 -1.49285 0
M  V30 16950 H 1634.1 -6.86401 -1.17588 0
M  V30 16951 H 1631.73 -7.5411 -0.960322 0
M  V30 16952 N 1633.3 0.851265 -1.32632 0
M  V30 16953 C 1634.53 1.64328 -1.26535 0
M  V30 16954 C 1634.95 1.87392 0.163086 0
M  V30 16955 O 1634.31 1.42913 1.1156 0
M  V30 16956 C 1634.36 2.97781 -2.03369 0
M  V30 16957 O 1633.46 3.8849 -1.38381 0
M  V30 16958 H 1632.8 0.500864 -0.435926 0
M  V30 16959 H 1635.33 1.06 -1.75001 0
M  V30 16960 H 1635.34 3.47576 -2.1367 0
M  V30 16961 H 1634.02 2.80316 -3.07239 0
M  V30 16962 H 1632.59 3.4696 -1.36649 0
M  V30 16963 N 1634.78 1.15898 1.06796 0
M  V30 16964 C 1636.02 0.947946 1.81089 0
M  V30 16965 C 1636.38 -0.51537 1.84954 0
M  V30 16966 O 1637.58 -0.844928 2.55175 0
M  V30 16967 C 1635.85 1.55214 3.21937 0
M  V30 16968 S 1637.41 1.48502 4.12907 0
M  V30 16969 H 1634.23 0.341025 0.623877 0
M  V30 16970 H 1636.83 1.4755 1.28254 0
M  V30 16971 H 1635.54 2.60996 3.16716 0
M  V30 16972 H 1635.07 1.02369 3.79848 0
M  V30 16973 H 1637.08 0.481773 4.93856 0
M  V30 16974 N 1636.26 -1.25243 0.956659 0
M  V30 16975 C 1637.53 -1.88287 0.529832 0
M  V30 16976 C 1637.91 -1.8629 -0.992929 0
M  V30 16977 O 1637.26 -1.32785 -1.85958 0
M  V30 16978 C 1637.47 -3.30919 1.10877 0
M  V30 16979 C 1638.82 -4.07674 1.18687 0
M  V30 16980 O 1639.84 -3.40048 1.06047 0
M  V30 16981 O 1638.7 -5.28648 1.38541 0
M  V30 16982 H 1635.8 -0.808258 0.175066 0
M  V30 16983 H 1638.34 -1.33298 1.05022 0
M  V30 16984 H 1637.11 -3.26813 2.15195 0
M  V30 16985 H 1636.74 -3.93468 0.571755 0
M  V30 16986 N 1637.73 -0.725468 -1.3991 0
M  V30 16987 C 1638.97 -0.273803 -2.02558 0
M  V30 16988 C 1639.34 1.11503 -1.56305 0
M  V30 16989 O 1640.54 1.66424 -2.11084 0
M  V30 16990 C 1638.81 -0.361635 -3.55566 0
M  V30 16991 S 1640.37 0.0115918 -4.38798 0
M  V30 16992 H 1637.19 -0.107908 -0.702764 0
M  V30 16993 H 1639.79 -0.949876 -1.70873 0
M  V30 16994 H 1638.49 -1.37389 -3.8672 0
M  V30 16995 H 1638.02 0.332583 -3.91992 0
M  V30 16996 H 1640.04 1.2307 -4.80695 0
M  V30 16997 N 1639.21 1.50354 -0.472382 0
M  V30 16998 C 1640.44 2.07238 0.0820787 0
M  V30 16999 C 1640.86 1.3338 1.32632 0
M  V30 17000 O 1640.22 0.381857 1.77233 0
M  V30 17001 C 1640.27 3.58919 0.347746 0
M  V30 17002 O 1639.37 3.86888 1.42799 0
M  V30 17003 H 1638.71 0.663862 -0.0135544 0
M  V30 17004 H 1641.24 1.93533 -0.663795 0
M  V30 17005 H 1641.25 4.03743 0.587855 0
M  V30 17006 H 1639.93 4.12093 -0.56147 0
M  V30 17007 H 1638.51 3.53901 1.17509 0
M  V30 17008 N 1640.69 0.205039 1.56261 0
M  V30 17009 C 1641.62 -0.751391 2.15475 0
M  V30 17010 C 1642.6 -1.20265 1.09431 0
M  V30 17011 O 1643.79 -1.28837 1.37598 0
M  V30 17012 C 1640.91 -2.01598 2.72169 0
M  V30 17013 C 1639.96 -1.70605 3.90892 0
M  V30 17014 S 1640.79 -0.845372 5.28785 0
M  V30 17015 C 1641.95 -2.11989 5.88907 0
M  V30 17016 H 1642.18 -0.248043 2.96263 0
M  V30 17017 H 1639.71 -0.0100808 1.54397 0
M  V30 17018 H 1641.67 -2.74217 3.05475 0
M  V30 17019 H 1640.33 -2.49045 1.91403 0
M  V30 17020 H 1639.53 -2.6452 4.29005 0
M  V30 17021 H 1639.13 -1.0606 3.58646 0
M  V30 17022 H 1641.42 -3.0715 6.03875 0
M  V30 17023 H 1642.36 -1.78292 6.85286 0
M  V30 17024 H 1642.77 -2.25289 5.17596 0
M  V30 17025 N 1642.17 -1.57451 -0.0684915 0
M  V30 17026 C 1643.4 -1.9164 -0.779855 0
M  V30 17027 C 1643.81 -0.801309 -1.70952 0
M  V30 17028 O 1643.17 0.225134 -1.81106 0
M  V30 17029 C 1643.22 -3.25594 -1.57068 0
M  V30 17030 O 1642.94 -4.32816 -0.678385 0
M  V30 17031 C 1644.44 -3.73818 -2.38275 0
M  V30 17032 H 1641.66 -0.633374 -0.221537 0
M  V30 17033 H 1644.21 -2.04465 -0.0377746 0
M  V30 17034 H 1642.36 -3.14287 -2.26501 0
M  V30 17035 H 1642.78 -5.09903 -1.22877 0
M  V30 17036 H 1644.25 -4.70168 -2.89216 0
M  V30 17037 H 1644.73 -3.02995 -3.17947 0
M  V30 17038 H 1645.33 -3.88081 -1.73992 0
M  V30 17039 N 1643.65 0.339955 -1.5389 0
M  V30 17040 C 1644.87 1.10417 -1.75564 0
M  V30 17041 C 1645.3 1.81466 -0.495156 0
M  V30 17042 O 1644.66 1.72679 0.552415 0
M  V30 17043 C 1644.7 2.09056 -2.93816 0
M  V30 17044 O 1643.81 3.16645 -2.64215 0
M  V30 17045 H 1643.15 0.319164 -0.582263 0
M  V30 17046 H 1645.68 0.389251 -2.00863 0
M  V30 17047 H 1645.69 2.52215 -3.20705 0
M  V30 17048 H 1644.36 1.56741 -3.85234 0
M  V30 17049 H 1642.94 2.78278 -2.48225 0
M  V30 17050 N 1645.13 1.45684 0.601159 0
M  V30 17051 C 1646.37 1.50036 1.35998 0
M  V30 17052 C 1646.7 0.144645 1.93961 0
M  V30 17053 O 1645.96 -0.857502 1.75913 0
M  V30 17054 C 1646.25 2.53235 2.52204 0
M  V30 17055 C 1645.92 3.97767 2.12348 0
M  V30 17056 C 1644.58 4.37121 2.01193 0
M  V30 17057 C 1646.93 4.88636 1.8134 0
M  V30 17058 C 1644.26 5.65231 1.5726 0
M  V30 17059 C 1646.61 6.17164 1.38892 0
M  V30 17060 C 1645.28 6.55442 1.26299 0
M  V30 17061 H 1644.55 0.54902 0.497652 0
M  V30 17062 H 1647.2 1.79065 0.678833 0
M  V30 17063 H 1645.5 2.17799 3.25685 0
M  V30 17064 H 1647.2 2.53837 3.10431 0
M  V30 17065 H 1643.79 3.6665 2.21959 0
M  V30 17066 H 1647.97 4.58964 1.88853 0
M  V30 17067 H 1643.23 5.93678 1.46139 0
M  V30 17068 H 1647.4 6.87015 1.13946 0
M  V30 17069 H 1645.03 7.54609 0.920316 0
M  V30 17070 N 1646.6 -0.84422 1.33082 0
M  V30 17071 C 1647.83 -1.63654 1.27405 0
M  V30 17072 C 1648.25 -1.87476 -0.153146 0
M  V30 17073 O 1647.61 -1.43502 -1.10801 0
M  V30 17074 C 1647.66 -2.96698 2.04945 0
M  V30 17075 O 1646.76 -3.87751 1.40439 0
M  V30 17076 H 1646.1 -0.498545 0.438576 0
M  V30 17077 H 1648.63 -1.0507 1.7556 0
M  V30 17078 H 1648.64 -3.46438 2.1551 0
M  V30 17079 H 1647.32 -2.78682 3.08722 0
M  V30 17080 H 1645.9 -3.46231 1.38487 0
M  V30 17081 N 1648.08 -1.16463 -1.0618 0
M  V30 17082 C 1649.33 -0.944975 -1.78647 0
M  V30 17083 C 1649.65 0.528486 -1.87702 0
M  V30 17084 O 1648.92 1.38391 -1.38653 0
M  V30 17085 H 1647.5 -0.346637 -0.661704 0
M  V30 17086 H 1650.16 -1.46752 -1.28257 0
M  V30 17087 H 1649.26 -1.36469 -2.80683 0
M  V30 17088 N 1649.56 1.24734 -0.963288 0
M  V30 17089 C 1650.97 1.7456 -0.662246 0
M  V30 17090 C 1651.32 1.78143 0.822169 0
M  V30 17091 O 1650.45 1.40794 1.64335 0
M  V30 17092 C 1651.04 3.1701 -1.19542 0
M  V30 17093 C 1649.6 3.64361 -0.944371 0
M  V30 17094 C 1648.75 2.4314 -1.33335 0
M  V30 17095 H 1651.7 1.10498 -1.13911 0
M  V30 17096 H 1651.72 3.76362 -0.559601 0
M  V30 17097 H 1651.23 3.1437 -2.27581 0
M  V30 17098 H 1649.33 3.72405 0.120682 0
M  V30 17099 H 1649.45 4.52055 -1.58692 0
M  V30 17100 H 1647.81 2.43354 -0.751729 0
M  V30 17101 H 1648.59 2.43185 -2.42314 0
M  V30 17102 N 1651.04 0.732878 1.39523 0
M  V30 17103 C 1651.97 0.106583 2.33257 0
M  V30 17104 C 1652.95 -0.726582 1.53801 0
M  V30 17105 O 1654.13 -0.671994 1.82203 0
M  V30 17106 C 1651.26 -0.803051 3.37888 0
M  V30 17107 C 1650.22 -0.0742048 4.27936 0
M  V30 17108 C 1649.54 -1.10071 5.23248 0
M  V30 17109 C 1650.84 1.08195 5.10971 0
M  V30 17110 H 1652.54 0.889539 2.8588 0
M  V30 17111 H 1650.08 0.429209 1.37455 0
M  V30 17112 H 1652.04 -1.25071 4.02412 0
M  V30 17113 H 1650.76 -1.6181 2.83699 0
M  V30 17114 H 1649.42 0.35381 3.64889 0
M  V30 17115 H 1649.07 -1.90927 4.65356 0
M  V30 17116 H 1648.77 -0.617825 5.84343 0
M  V30 17117 H 1650.29 -1.54812 5.90649 0
M  V30 17118 H 1651.71 0.712835 5.68851 0
M  V30 17119 H 1650.1 1.49433 5.81197 0
M  V30 17120 H 1651.17 1.90463 4.45928 0
M  V30 17121 N 1652.52 -1.50101 0.480349 0
M  V30 17122 C 1653.76 -2.0428 -0.0700589 0
M  V30 17123 C 1654.12 -1.35372 -1.36155 0
M  V30 17124 O 1655.32 -1.80157 -1.99492 0
M  V30 17125 C 1653.59 -3.56591 -0.240285 0
M  V30 17126 S 1655.15 -4.32379 -0.747916 0
M  V30 17127 H 1651.97 -0.710906 -0.0115761 0
M  V30 17128 H 1654.57 -1.84392 0.649604 0
M  V30 17129 H 1653.27 -4.04294 0.705315 0
M  V30 17130 H 1652.81 -3.80849 -0.985792 0
M  V30 17131 H 1654.82 -4.5322 -2.02005 0
M  V30 17132 N 1653.99 -0.213323 -1.5615 0
M  V30 17133 C 1654.94 0.716708 -2.21283 0
M  V30 17134 C 1655.94 1.20599 -1.18963 0
M  V30 17135 O 1657.14 1.16677 -1.37064 0
M  V30 17136 H 1653.52 0.249524 -0.709395 0
M  V30 17137 H 1655.49 0.14385 -2.98053 0
M  V30 17138 C 1654.24 1.91775 -2.9003 0
M  V30 17139 H 1653.56 1.55036 -3.68516 0
M  V30 17140 H 1655 2.54646 -3.39016 0
M  V30 17141 C 1653.46 2.768 -1.92051 0
M  V30 17142 O 1653.99 3.75299 -1.43225 0
M  V30 17143 N 1652.19 2.42666 -1.5988 0
M  V30 17144 H 1651.74 1.62622 -1.99779 0
M  V30 17145 H 1651.7 2.99836 -0.945833 0
M  V30 17146 N 1655.47 1.57485 0.0601405 0
M  V30 17147 C 1656.75 1.78904 0.790732 0
M  V30 17148 C 1657.13 0.803802 1.95198 0
M  V30 17149 O 1656.48 -0.16067 2.27934 0
M  V30 17150 C 1656.69 3.25738 1.25282 0
M  V30 17151 C 1658.04 3.89887 1.68147 0
M  V30 17152 O 1659.06 3.297 1.3482 0
M  V30 17153 O 1657.92 4.95796 2.29889 0
M  V30 17154 H 1655.01 0.734623 0.379814 0
M  V30 17155 H 1657.56 1.69654 0.0393151 0
M  V30 17156 H 1656.33 3.89013 0.422442 0
M  V30 17157 H 1655.95 3.39757 2.06521 0
M  V30 17158 N 1656.95 -0.331789 1.54068 0
M  V30 17159 C 1658.36 -0.906719 1.63204 0
M  V30 17160 C 1658.71 -1.89161 0.520837 0
M  V30 17161 O 1657.84 -2.1359 -0.347577 0
M  V30 17162 C 1658.43 -1.65132 2.95832 0
M  V30 17163 C 1656.99 -2.17509 3.07192 0
M  V30 17164 C 1656.14 -0.99788 2.58723 0
M  V30 17165 H 1659.09 -0.109595 1.58321 0
M  V30 17166 H 1659.11 -2.515 2.85531 0
M  V30 17167 H 1658.62 -0.934255 3.76687 0
M  V30 17168 H 1656.72 -2.92356 2.30995 0
M  V30 17169 H 1656.84 -2.43074 4.12858 0
M  V30 17170 H 1655.2 -1.37469 2.14417 0
M  V30 17171 H 1655.98 -0.295261 3.42028 0
M  V30 17172 N 1658.43 -1.46001 -0.593424 0
M  V30 17173 C 1659.68 -1.50457 -1.34933 0
M  V30 17174 C 1660 -0.153383 -1.94396 0
M  V30 17175 O 1659.27 0.818894 -1.77963 0
M  V30 17176 H 1657.85 -0.554119 -0.50096 0
M  V30 17177 H 1660.51 -1.82057 -0.695798 0
M  V30 17178 H 1659.61 -2.25131 -2.16154 0
M  V30 17179 N 1659.91 0.83715 -1.33527 0
M  V30 17180 C 1661.13 1.62456 -1.28124 0
M  V30 17181 C 1661.55 1.88223 0.147499 0
M  V30 17182 O 1660.91 1.4636 1.09018 0
M  V30 17183 C 1660.96 2.97376 -2.05547 0
M  V30 17184 O 1660.68 2.7274 -3.42847 0
M  V30 17185 C 1662.18 3.91805 -2.07374 0
M  V30 17186 H 1659.4 0.505436 -0.441334 0
M  V30 17187 H 1661.94 1.04263 -1.75925 0
M  V30 17188 H 1660.1 3.52166 -1.61424 0
M  V30 17189 H 1660.51 3.58669 -3.82696 0
M  V30 17190 H 1661.99 4.83684 -2.65996 0
M  V30 17191 H 1662.46 4.26106 -1.06444 0
M  V30 17192 H 1663.07 3.42952 -2.51523 0
M  V30 17193 N 1661.38 1.17024 1.05561 0
M  V30 17194 C 1662.61 0.98075 1.82178 0
M  V30 17195 C 1663.03 -0.471027 1.8283 0
M  V30 17196 O 1662.38 -1.32703 1.25284 0
M  V30 17197 C 1662.44 1.50979 3.28463 0
M  V30 17198 O 1662.16 2.90471 3.27961 0
M  V30 17199 C 1663.66 1.36436 4.21782 0
M  V30 17200 H 1660.88 0.3472 0.574189 0
M  V30 17201 H 1663.42 1.55226 1.33136 0
M  V30 17202 H 1661.58 0.980393 3.74789 0
M  V30 17203 H 1661.99 3.14847 4.19489 0
M  V30 17204 H 1663.46 1.78272 5.2242 0
M  V30 17205 H 1663.94 0.310922 4.38098 0
M  V30 17206 H 1664.55 1.88374 3.81308 0
M  V30 17207 N 1662.86 -1.24221 0.969889 0
M  V30 17208 C 1664.09 -1.96118 0.649715 0
M  V30 17209 C 1664.5 -1.72127 -0.785436 0
M  V30 17210 O 1663.84 -1.00319 -1.53889 0
M  V30 17211 C 1663.91 -3.49374 0.847236 0
M  V30 17212 C 1663.57 -3.97067 2.26244 0
M  V30 17213 C 1664.57 -4.06568 3.24034 0
M  V30 17214 C 1662.25 -4.30333 2.59072 0
M  V30 17215 C 1664.25 -4.48672 4.52738 0
M  V30 17216 C 1661.93 -4.72121 3.88001 0
M  V30 17217 C 1662.93 -4.81256 4.84646 0
M  V30 17218 O 1662.62 -5.22109 6.11275 0
M  V30 17219 H 1662.35 -0.63149 0.24124 0
M  V30 17220 H 1664.9 -1.58948 1.30095 0
M  V30 17221 H 1663.13 -3.86451 0.138828 0
M  V30 17222 H 1664.82 -4.0248 0.525817 0
M  V30 17223 H 1665.59 -3.81083 3.00002 0
M  V30 17224 H 1661.47 -4.22441 1.84565 0
M  V30 17225 H 1665.01 -4.55717 5.28174 0
M  V30 17226 H 1660.91 -4.97054 4.11834 0
M  V30 17227 H 1661.68 -5.40252 6.14874 0
M  V30 17228 N 1664.34 -0.740267 -1.39132 0
M  V30 17229 C 1665.59 -0.287379 -1.99642 0
M  V30 17230 C 1665.9 1.13337 -1.59418 0
M  V30 17231 O 1667.11 1.68605 -2.12802 0
M  V30 17232 C 1665.56 -0.462859 -3.56911 0
M  V30 17233 C 1665.17 -1.89184 -4.06095 0
M  V30 17234 C 1666.92 -0.0720122 -4.24439 0
M  V30 17235 C 1664.82 -2.01659 -5.55957 0
M  V30 17236 H 1663.75 -0.103696 -0.746835 0
M  V30 17237 H 1666.4 -0.914902 -1.59065 0
M  V30 17238 H 1664.79 0.233644 -3.9531 0
M  V30 17239 H 1665.96 -2.62072 -3.79018 0
M  V30 17240 H 1664.28 -2.23638 -3.51248 0
M  V30 17241 H 1666.87 -0.144163 -5.34506 0
M  V30 17242 H 1667.22 0.973516 -4.04757 0
M  V30 17243 H 1667.75 -0.719868 -3.91232 0
M  V30 17244 H 1664.49 -3.04419 -5.80525 0
M  V30 17245 H 1664.01 -1.33214 -5.8482 0
M  V30 17246 H 1665.69 -1.80023 -6.2145 0
M  V30 17247 N 1665.82 1.49844 -0.488302 0
M  V30 17248 C 1667.07 2.02409 0.0606981 0
M  V30 17249 C 1667.39 1.36901 1.38161 0
M  V30 17250 O 1666.65 0.48951 1.89479 0
M  V30 17251 C 1666.95 3.56342 0.274851 0
M  V30 17252 C 1666.61 4.4042 -0.966481 0
M  V30 17253 C 1665.28 4.63116 -1.30678 0
M  V30 17254 C 1667.63 4.89418 -1.79218 0
M  V30 17255 C 1664.96 5.32055 -2.47253 0
M  V30 17256 C 1667.31 5.59639 -2.94935 0
M  V30 17257 C 1665.97 5.80584 -3.2936 0
M  V30 17258 H 1665.24 0.740667 0.022211 0
M  V30 17259 H 1667.89 1.80279 -0.645882 0
M  V30 17260 H 1666.19 3.7708 1.06384 0
M  V30 17261 H 1667.89 3.94594 0.71388 0
M  V30 17262 H 1664.48 4.22987 -0.691388 0
M  V30 17263 H 1668.66 4.71723 -1.54244 0
M  V30 17264 H 1663.92 5.46477 -2.74177 0
M  V30 17265 H 1668.09 5.96583 -3.59251 0
M  V30 17266 H 1665.72 6.33779 -4.19795 0
M  V30 17267 N 1667.3 0.221601 1.56034 0
M  V30 17268 C 1668.52 -0.417979 2.03145 0
M  V30 17269 C 1668.95 -1.52556 1.10038 0
M  V30 17270 O 1668.3 -1.81084 0.0885729 0
M  V30 17271 C 1668.35 -0.926762 3.48487 0
M  V30 17272 O 1667.46 -2.03811 3.58518 0
M  V30 17273 H 1666.8 -0.0945778 0.65723 0
M  V30 17274 H 1669.33 0.340252 2.01751 0
M  V30 17275 H 1669.34 -1.23656 3.8881 0
M  V30 17276 H 1668.01 -0.116115 4.15738 0
M  V30 17277 H 1666.59 -1.73494 3.30082 0
M  V30 17278 N 1668.77 -1.57515 -0.0517878 0
M  V30 17279 C 1669.72 -2.05051 -1.05937 0
M  V30 17280 C 1670.69 -0.935032 -1.37282 0
M  V30 17281 O 1671.88 -1.20408 -1.48009 0
M  V30 17282 C 1669.02 -2.51594 -2.36208 0
M  V30 17283 C 1668.13 -3.76843 -2.11219 0
M  V30 17284 C 1667.26 -4.12088 -3.35197 0
M  V30 17285 C 1666.3 -5.30318 -3.05662 0
M  V30 17286 N 1665.44 -5.61104 -4.22026 0
M  V30 17287 H 1670.28 -2.90891 -0.647027 0
M  V30 17288 H 1667.82 -1.43842 -0.307891 0
M  V30 17289 H 1669.78 -2.76638 -3.12293 0
M  V30 17290 H 1668.41 -1.68704 -2.75207 0
M  V30 17291 H 1667.46 -3.5902 -1.25734 0
M  V30 17292 H 1668.77 -4.63057 -1.85416 0
M  V30 17293 H 1667.92 -4.38139 -4.19666 0
M  V30 17294 H 1666.66 -3.24479 -3.64094 0
M  V30 17295 H 1665.67 -5.04043 -2.19592 0
M  V30 17296 H 1666.89 -6.19561 -2.78067 0
M  V30 17297 H 1664.84 -4.76456 -4.50917 0
M  V30 17298 H 1664.76 -6.4178 -3.99568 0
M  V30 17299 H 1666.02 -5.91719 -5.07434 0
M  V30 17300 N 1670.25 0.323614 -1.54242 0
M  V30 17301 C 1671.5 1.05947 -1.72104 0
M  V30 17302 C 1671.82 1.88547 -0.497512 0
M  V30 17303 O 1671.09 1.89712 0.488485 0
M  V30 17304 H 1669.67 0.394141 -0.634557 0
M  V30 17305 H 1672.33 0.360063 -1.91545 0
M  V30 17306 H 1671.43 1.72552 -2.60062 0
M  V30 17307 N 1671.73 1.46313 0.585673 0
M  V30 17308 C 1672.98 1.51171 1.34134 0
M  V30 17309 C 1673.3 0.163691 1.94312 0
M  V30 17310 O 1672.57 -0.809444 1.78395 0
M  V30 17311 H 1671.15 0.556768 0.498014 0
M  V30 17312 H 1673.81 1.82423 0.686133 0
M  V30 17313 H 1672.91 2.26274 2.14957 0
M  V30 17314 N 1673.21 -0.830057 1.33969 0
M  V30 17315 C 1674.46 -1.58272 1.25675 0
M  V30 17316 C 1674.78 -1.94213 -0.175071 0
M  V30 17317 O 1674.05 -1.61694 -1.10597 0
M  V30 17318 H 1672.63 -0.586858 0.462176 0
M  V30 17319 H 1675.29 -0.991495 1.67796 0
M  V30 17320 H 1674.39 -2.50874 1.85658 0
M  V30 17321 N 1674.69 -1.17582 -1.04939 0
M  V30 17322 C 1675.62 -0.852608 -2.12752 0
M  V30 17323 C 1676.63 0.14607 -1.62143 0
M  V30 17324 O 1677.82 -0.0805751 -1.78318 0
M  V30 17325 C 1674.92 -0.251083 -3.37969 0
M  V30 17326 C 1674.09 -1.29325 -4.17844 0
M  V30 17327 C 1673.15 -0.709025 -5.21401 0
M  V30 17328 O 1672.18 -1.38149 -5.52181 0
M  V30 17329 N 1673.38 0.497716 -5.78362 0
M  V30 17330 H 1676.15 -1.78054 -2.41074 0
M  V30 17331 H 1673.71 -1.07502 -1.21058 0
M  V30 17332 H 1675.7 0.15312 -4.0441 0
M  V30 17333 H 1674.27 0.580684 -3.07159 0
M  V30 17334 H 1673.49 -1.87311 -3.46855 0
M  V30 17335 H 1674.78 -1.99614 -4.68008 0
M  V30 17336 H 1674.18 1.06196 -5.55643 0
M  V30 17337 H 1672.73 0.843951 -6.46313 0
M  V30 17338 N 1676.17 1.23705 -0.976463 0
M  V30 17339 C 1677.41 1.9132 -0.638714 0
M  V30 17340 C 1677.73 1.7707 0.830993 0
M  V30 17341 O 1678.93 2.39453 1.27964 0
M  V30 17342 C 1677.39 3.42941 -1.09178 0
M  V30 17343 C 1677 3.6586 -2.58555 0
M  V30 17344 C 1678.74 4.16355 -0.827585 0
M  V30 17345 C 1676.65 5.11096 -2.97549 0
M  V30 17346 H 1675.58 0.716382 -0.235187 0
M  V30 17347 H 1678.23 1.40205 -1.18384 0
M  V30 17348 H 1676.61 3.93142 -0.474893 0
M  V30 17349 H 1677.79 3.26221 -3.25448 0
M  V30 17350 H 1676.1 3.05748 -2.82678 0
M  V30 17351 H 1678.7 5.23372 -1.09482 0
M  V30 17352 H 1679.04 4.15629 0.236282 0
M  V30 17353 H 1679.57 3.7213 -1.40586 0
M  V30 17354 H 1676.31 5.1695 -4.03042 0
M  V30 17355 H 1675.83 5.51699 -2.35346 0
M  V30 17356 H 1677.51 5.79397 -2.87937 0
M  V30 17357 N 1677.64 0.747635 1.38738 0
M  V30 17358 C 1678.87 0.311781 2.04537 0
M  V30 17359 C 1679.29 -1.05782 1.56383 0
M  V30 17360 O 1678.64 -1.67077 0.734259 0
M  V30 17361 C 1678.69 0.318675 3.60093 0
M  V30 17362 O 1678.42 1.63423 4.06478 0
M  V30 17363 C 1679.92 -0.131782 4.43104 0
M  V30 17364 H 1677.14 0.134141 0.657455 0
M  V30 17365 H 1679.68 1.01482 1.77543 0
M  V30 17366 H 1677.84 -0.335578 3.85944 0
M  V30 17367 H 1678.25 1.55636 5.00877 0
M  V30 17368 H 1679.72 -0.0757978 5.51948 0
M  V30 17369 H 1680.2 -1.17881 4.23085 0
M  V30 17370 H 1680.81 0.493375 4.22429 0
M  V30 17371 N 1679.12 -1.49583 0.496242 0
M  V30 17372 C 1680.35 -2.06547 -0.0468437 0
M  V30 17373 C 1680.76 -1.3574 -1.31801 0
M  V30 17374 O 1680.1 -0.427948 -1.78646 0
M  V30 17375 C 1680.16 -3.57532 -0.375622 0
M  V30 17376 C 1679.83 -4.49994 0.797134 0
M  V30 17377 C 1680.83 -4.91793 1.6863 0
M  V30 17378 C 1678.51 -4.92355 0.99459 0
M  V30 17379 C 1680.5 -5.74685 2.7571 0
M  V30 17380 C 1678.19 -5.75024 2.06859 0
M  V30 17381 C 1679.19 -6.16093 2.94819 0
M  V30 17382 O 1678.88 -6.9711 4.00366 0
M  V30 17383 H 1678.61 -0.675832 0.0150901 0
M  V30 17384 H 1681.16 -1.93413 0.691416 0
M  V30 17385 H 1679.39 -3.68658 -1.16741 0
M  V30 17386 H 1681.08 -3.96755 -0.856757 0
M  V30 17387 H 1681.85 -4.59715 1.54554 0
M  V30 17388 H 1677.73 -4.59893 0.31933 0
M  V30 17389 H 1681.27 -6.06661 3.44396 0
M  V30 17390 H 1677.17 -6.06514 2.20931 0
M  V30 17391 H 1677.94 -7.15408 3.9766 0
M  V30 17392 N 1680.6 -0.229873 -1.55915 0
M  V30 17393 C 1681.55 0.676809 -2.20653 0
M  V30 17394 C 1682.52 1.18412 -1.16481 0
M  V30 17395 O 1683.7 1.2417 -1.44867 0
M  V30 17396 C 1680.84 1.87567 -2.89677 0
M  V30 17397 C 1679.95 1.40648 -4.08463 0
M  V30 17398 C 1679.09 2.56356 -4.65247 0
M  V30 17399 C 1678.13 2.06215 -5.76318 0
M  V30 17400 N 1677.27 3.15226 -6.27357 0
M  V30 17401 H 1682.11 0.118035 -2.97766 0
M  V30 17402 H 1679.64 0.0465042 -1.47026 0
M  V30 17403 H 1681.6 2.57968 -3.27884 0
M  V30 17404 H 1680.23 2.40719 -2.15067 0
M  V30 17405 H 1679.28 0.597104 -3.75684 0
M  V30 17406 H 1680.59 0.998877 -4.88696 0
M  V30 17407 H 1679.75 3.34827 -5.05941 0
M  V30 17408 H 1678.49 3.0041 -3.84194 0
M  V30 17409 H 1677.49 1.26209 -5.35118 0
M  V30 17410 H 1678.72 1.63151 -6.59211 0
M  V30 17411 H 1676.66 3.58746 -5.49215 0
M  V30 17412 H 1676.58 2.78744 -7.02736 0
M  V30 17413 H 1677.85 3.93807 -6.72708 0
M  V30 17414 N 1682.08 1.5754 0.0434337 0
M  V30 17415 C 1683.32 1.89741 0.7328 0
M  V30 17416 C 1683.68 0.826869 1.73726 0
M  V30 17417 O 1682.97 -0.166036 1.90879 0
M  V30 17418 C 1683.17 3.26402 1.45591 0
M  V30 17419 C 1682.99 4.46648 0.522997 0
M  V30 17420 C 1681.76 5.05079 0.14936 0
M  V30 17421 C 1683.96 5.1394 -0.192494 0
M  V30 17422 N 1681.94 6.08843 -0.786309 0
M  V30 17423 C 1683.32 6.12136 -0.984327 0
M  V30 17424 C 1685.37 4.97216 -0.260965 0
M  V30 17425 C 1684.07 6.95412 -1.83831 0
M  V30 17426 C 1686.1 5.81042 -1.10202 0
M  V30 17427 C 1685.46 6.78798 -1.88182 0
M  V30 17428 H 1681.56 0.743386 0.242695 0
M  V30 17429 H 1684.14 1.94699 -0.00669196 0
M  V30 17430 H 1682.32 3.22399 2.16595 0
M  V30 17431 H 1684.05 3.46162 2.09653 0
M  V30 17432 H 1680.8 4.70863 0.508436 0
M  V30 17433 H 1681.23 6.65393 -1.24823 0
M  V30 17434 H 1685.87 4.21529 0.327607 0
M  V30 17435 H 1683.59 7.70454 -2.43774 0
M  V30 17436 H 1687.17 5.70152 -1.15835 0
M  V30 17437 H 1686.05 7.42535 -2.52212 0
M  V30 17438 N 1683.56 -0.31543 1.54411 0
M  V30 17439 C 1684.97 -0.889358 1.64156 0
M  V30 17440 C 1685.32 -1.88598 0.54087 0
M  V30 17441 O 1684.44 -2.13947 -0.324904 0
M  V30 17442 C 1685.04 -1.61985 2.97567 0
M  V30 17443 C 1683.6 -2.14239 3.09481 0
M  V30 17444 C 1682.74 -0.970382 2.59767 0
M  V30 17445 H 1685.69 -0.092797 1.58428 0
M  V30 17446 H 1685.72 -2.48457 2.88183 0
M  V30 17447 H 1685.23 -0.89425 3.77657 0
M  V30 17448 H 1683.33 -2.8989 2.34082 0
M  V30 17449 H 1683.44 -2.38681 4.15413 0
M  V30 17450 H 1681.81 -1.35187 2.15863 0
M  V30 17451 H 1682.59 -0.258968 3.42322 0
M  V30 17452 N 1685.03 -1.46622 -0.577906 0
M  V30 17453 C 1686.45 -1.46287 -1.16004 0
M  V30 17454 C 1686.8 -0.206307 -1.95112 0
M  V30 17455 O 1685.92 0.690275 -2.05096 0
M  V30 17456 C 1686.52 -2.65042 -2.1104 0
M  V30 17457 C 1685.08 -2.67733 -2.64567 0
M  V30 17458 C 1684.22 -2.39053 -1.40531 0
M  V30 17459 H 1687.17 -1.54432 -0.365585 0
M  V30 17460 H 1687.19 -2.40834 -2.94583 0
M  V30 17461 H 1686.71 -3.56481 -1.53436 0
M  V30 17462 H 1684.81 -1.80379 -3.26028 0
M  V30 17463 H 1684.92 -3.67836 -3.06974 0
M  V30 17464 H 1683.28 -1.89209 -1.70506 0
M  V30 17465 H 1684.07 -3.32674 -0.847509 0
M  V30 17466 N 1686.51 0.822941 -1.34408 0
M  V30 17467 C 1687.46 1.95524 -1.25988 0
M  V30 17468 C 1688.45 1.68662 -0.157994 0
M  V30 17469 O 1689.66 1.77079 -0.322966 0
M  V30 17470 H 1686.04 0.642117 -0.391394 0
M  V30 17471 H 1688.01 1.99747 -2.21683 0
M  V30 17472 C 1686.76 3.32026 -1.03218 0
M  V30 17473 H 1686.08 3.53244 -1.87239 0
M  V30 17474 H 1687.52 4.11706 -1.01363 0
M  V30 17475 C 1685.98 3.3586 0.264523 0
M  V30 17476 O 1686.51 3.81232 1.26589 0
M  V30 17477 N 1684.71 2.89072 0.297626 0
M  V30 17478 H 1684.26 2.52341 -0.517836 0
M  V30 17479 H 1684.22 2.92019 1.165 0
M  V30 17480 N 1687.99 1.18137 1.04314 0
M  V30 17481 C 1689.27 0.884901 1.74439 0
M  V30 17482 C 1689.65 -0.612825 2.02009 0
M  V30 17483 O 1689 -1.56679 1.66325 0
M  V30 17484 C 1689.21 1.72944 3.03136 0
M  V30 17485 C 1690.55 1.95491 3.7692 0
M  V30 17486 O 1691.58 1.69976 3.13028 0
M  V30 17487 O 1690.44 2.38426 4.91747 0
M  V30 17488 H 1687.53 0.328481 0.758966 0
M  V30 17489 H 1690.08 1.28878 1.10402 0
M  V30 17490 H 1688.85 2.74485 2.78879 0
M  V30 17491 H 1688.47 1.32392 3.74911 0
M  V30 17492 N 1689.47 -1.23186 0.98301 0
M  V30 17493 C 1690.88 -1.43814 0.69207 0
M  V30 17494 C 1691.08 -1.87387 -0.740823 0
M  V30 17495 O 1690.14 -2.02154 -1.51295 0
M  V30 17496 C 1691.45 -2.48769 1.68922 0
M  V30 17497 C 1693 -2.62579 1.70356 0
M  V30 17498 C 1693.48 -3.70746 2.68908 0
M  V30 17499 N 1694.97 -3.78192 2.67442 0
M  V30 17500 C 1695.7 -4.61453 3.40366 0
M  V30 17501 N 1695.2 -5.48784 4.22857 0
M  V30 17502 N 1696.99 -4.55673 3.29118 0
M  V30 17503 H 1689.14 -0.932046 1.90858 0
M  V30 17504 H 1691.41 -0.471274 0.82256 0
M  V30 17505 H 1691.11 -2.23675 2.71408 0
M  V30 17506 H 1690.99 -3.47201 1.47415 0
M  V30 17507 H 1693.37 -2.87022 0.685728 0
M  V30 17508 H 1693.45 -1.64454 1.9593 0
M  V30 17509 H 1693.1 -3.47051 3.70834 0
M  V30 17510 H 1693.03 -4.68418 2.40607 0
M  V30 17511 H 1695.52 -3.15785 2.07577 0
M  V30 17512 H 1695.83 -6.09312 4.75351 0
M  V30 17513 H 1694.18 -5.48398 4.26948 0
M  V30 17514 H 1697.37 -3.86468 2.64122 0
M  V30 17515 H 1697.54 -5.20332 3.8621 0
M  V30 17516 N 1690.95 -0.754982 -1.38339 0
M  V30 17517 C 1692.36 -0.379276 -1.82807 0
M  V30 17518 C 1692.71 1.09228 -1.62984 0
M  V30 17519 O 1691.83 1.84445 -1.13177 0
M  V30 17520 C 1692.43 -0.681628 -3.31872 0
M  V30 17521 C 1690.99 -0.359183 -3.74682 0
M  V30 17522 C 1690.13 -0.93409 -2.61094 0
M  V30 17523 H 1693.09 -0.951019 -1.27048 0
M  V30 17524 H 1693.11 0.0396803 -3.80479 0
M  V30 17525 H 1692.62 -1.75271 -3.46268 0
M  V30 17526 H 1690.72 0.705257 -3.65865 0
M  V30 17527 H 1690.83 -0.85571 -4.71396 0
M  V30 17528 H 1689.2 -0.359379 -2.52152 0
M  V30 17529 H 1689.98 -2.01023 -2.78289 0
M  V30 17530 N 1692.42 1.49318 -0.504168 0
M  V30 17531 C 1693.65 2.07365 0.038102 0
M  V30 17532 C 1694.07 1.36164 1.29773 0
M  V30 17533 O 1693.43 0.419365 1.76383 0
M  V30 17534 C 1693.48 3.59576 0.271535 0
M  V30 17535 O 1692.58 3.8983 1.34561 0
M  V30 17536 H 1691.93 0.663425 -0.0276328 0
M  V30 17537 H 1694.46 1.92081 -0.704696 0
M  V30 17538 H 1694.47 4.04899 0.502083 0
M  V30 17539 H 1693.14 4.10809 -0.648754 0
M  V30 17540 H 1691.72 3.56314 1.09976 0
M  V30 17541 N 1693.9 0.238138 1.5579 0
M  V30 17542 C 1695.13 -0.393422 2.03125 0
M  V30 17543 C 1695.55 -1.52168 1.11761 0
M  V30 17544 O 1694.9 -1.82034 0.130341 0
M  V30 17545 C 1694.95 -0.909474 3.49873 0
M  V30 17546 O 1694.67 0.17381 4.37755 0
M  V30 17547 C 1696.18 -1.61261 4.12928 0
M  V30 17548 H 1693.4 -0.0945077 0.664311 0
M  V30 17549 H 1695.94 0.359442 2.01316 0
M  V30 17550 H 1694.09 -1.61255 3.52244 0
M  V30 17551 H 1694.51 -0.216641 5.24052 0
M  V30 17552 H 1695.98 -1.92551 5.17328 0
M  V30 17553 H 1696.46 -2.53155 3.589 0
M  V30 17554 H 1697.07 -0.954326 4.14455 0
M  V30 17555 N 1695.38 -1.57561 -0.0350783 0
M  V30 17556 C 1696.8 -1.54746 -0.390618 0
M  V30 17557 C 1697 -0.963454 -1.76974 0
M  V30 17558 O 1696.05 -0.581878 -2.45704 0
M  V30 17559 C 1697.37 -2.9922 -0.297984 0
M  V30 17560 C 1698.91 -3.10739 -0.375506 0
M  V30 17561 C 1699.39 -4.56933 -0.312387 0
M  V30 17562 N 1700.88 -4.61709 -0.371364 0
M  V30 17563 C 1701.61 -5.72359 -0.34532 0
M  V30 17564 N 1701.11 -6.92266 -0.271921 0
M  V30 17565 N 1702.9 -5.60713 -0.394605 0
M  V30 17566 H 1695.05 -1.93876 0.867519 0
M  V30 17567 H 1697.32 -0.888974 0.329285 0
M  V30 17568 H 1697.02 -3.45651 0.649499 0
M  V30 17569 H 1696.9 -3.60987 -1.094 0
M  V30 17570 H 1699.28 -2.6426 -1.31342 0
M  V30 17571 H 1699.37 -2.51815 0.449752 0
M  V30 17572 H 1699.01 -5.04079 0.621834 0
M  V30 17573 H 1698.94 -5.13762 -1.15567 0
M  V30 17574 H 1701.43 -3.75436 -0.430848 0
M  V30 17575 H 1701.74 -7.72373 -0.256983 0
M  V30 17576 H 1700.09 -6.94592 -0.238058 0
M  V30 17577 H 1703.28 -4.65933 -0.449896 0
M  V30 17578 H 1703.45 -6.46938 -0.37084 0
M  V30 17579 N 1696.86 0.307236 -1.54576 0
M  V30 17580 C 1697.82 1.36178 -1.84359 0
M  V30 17581 C 1698.82 1.43971 -0.716163 0
M  V30 17582 O 1700.01 1.43715 -0.98446 0
M  V30 17583 C 1697.14 2.74733 -2.01828 0
M  V30 17584 H 1698.34 1.11017 -2.78595 0
M  V30 17585 H 1695.89 0.543582 -1.46543 0
M  V30 17586 H 1696.62 3.05126 -1.09858 0
M  V30 17587 H 1696.41 2.70468 -2.83883 0
M  V30 17588 H 1697.9 3.50992 -2.26261 0
M  V30 17589 N 1698.34 1.46926 0.570122 0
M  V30 17590 C 1699.61 1.43365 1.33063 0
M  V30 17591 C 1699.99 0.123738 2.10737 0
M  V30 17592 O 1699.34 -0.894766 2.10253 0
M  V30 17593 C 1699.55 2.67122 2.24604 0
M  V30 17594 C 1700.9 3.13798 2.86035 0
M  V30 17595 O 1701.92 2.67759 2.34912 0
M  V30 17596 O 1700.78 3.93801 3.78923 0
M  V30 17597 H 1697.88 0.570726 0.598499 0
M  V30 17598 H 1700.42 1.5911 0.590095 0
M  V30 17599 H 1699.19 3.54005 1.66722 0
M  V30 17600 H 1698.82 2.53899 3.05976 0
M  V30 17601 N 1699.82 -0.815801 1.34842 0
M  V30 17602 C 1701.23 -1.10999 1.1468 0
M  V30 17603 C 1701.43 -2.01445 -0.0469339 0
M  V30 17604 O 1700.49 -2.42007 -0.720322 0
M  V30 17605 C 1701.8 -1.74984 2.44543 0
M  V30 17606 C 1703.35 -1.87447 2.50665 0
M  V30 17607 C 1703.82 -2.54848 3.80548 0
M  V30 17608 N 1705.31 -2.62341 3.81748 0
M  V30 17609 C 1706.05 -3.15239 4.7897 0
M  V30 17610 N 1705.55 -3.68646 5.86577 0
M  V30 17611 N 1707.34 -3.13706 4.66417 0
M  V30 17612 H 1699.49 -0.214351 2.11316 0
M  V30 17613 H 1701.75 -0.157666 0.934797 0
M  V30 17614 H 1701.46 -1.1599 3.32023 0
M  V30 17615 H 1701.33 -2.7478 2.5841 0
M  V30 17616 H 1703.72 -2.45587 1.63619 0
M  V30 17617 H 1703.8 -0.865325 2.40719 0
M  V30 17618 H 1703.44 -1.9736 4.67987 0
M  V30 17619 H 1703.37 -3.5628 3.87778 0
M  V30 17620 H 1705.87 -2.24493 3.03992 0
M  V30 17621 H 1706.18 -4.07281 6.56766 0
M  V30 17622 H 1704.52 -3.6687 5.90281 0
M  V30 17623 H 1707.71 -2.71255 3.81495 0
M  V30 17624 H 1707.89 -3.54626 5.4235 0
M  V30 17625 N 1701.29 -1.18689 -1.03686 0
M  V30 17626 C 1702.22 -0.94094 -2.13702 0
M  V30 17627 C 1703.2 0.12277 -1.69656 0
M  V30 17628 O 1704.39 -0.0306085 -1.94176 0
M  V30 17629 C 1701.52 -0.470054 -3.44104 0
M  V30 17630 C 1700.47 -1.47468 -4.01792 0
M  V30 17631 C 1699.8 -0.861174 -5.2772 0
M  V30 17632 C 1701.1 -2.85254 -4.37524 0
M  V30 17633 H 1702.79 -1.86102 -2.34534 0
M  V30 17634 H 1700.34 -0.896207 -1.12713 0
M  V30 17635 H 1702.29 -0.28533 -4.20433 0
M  V30 17636 H 1701.02 0.485604 -3.2297 0
M  V30 17637 H 1699.68 -1.64641 -3.2755 0
M  V30 17638 H 1699.32 0.10179 -5.02897 0
M  V30 17639 H 1699.02 -1.53196 -5.67278 0
M  V30 17640 H 1700.55 -0.687066 -6.06722 0
M  V30 17641 H 1701.96 -2.71711 -5.04823 0
M  V30 17642 H 1700.36 -3.49051 -4.88143 0
M  V30 17643 H 1701.43 -3.38516 -3.47181 0
M  V30 17644 N 1702.77 1.22662 -0.989529 0
M  V30 17645 C 1703.73 2.22695 -0.542183 0
M  V30 17646 C 1704.73 1.56411 0.373132 0
M  V30 17647 O 1705.92 1.73412 0.165556 0
M  V30 17648 C 1703.06 3.40241 0.211841 0
M  V30 17649 H 1704.25 2.63786 -1.42678 0
M  V30 17650 H 1701.8 1.35654 -0.776377 0
M  V30 17651 H 1702.54 3.04618 1.11257 0
M  V30 17652 H 1702.32 3.89563 -0.445319 0
M  V30 17653 H 1703.81 4.14436 0.513107 0
M  V30 17654 N 1704.25 0.762308 1.37937 0
M  V30 17655 C 1705.5 0.319104 1.9916 0
M  V30 17656 C 1705.81 -1.10787 1.61201 0
M  V30 17657 O 1707.02 -1.65198 2.15457 0
M  V30 17658 C 1705.47 0.519582 3.5613 0
M  V30 17659 C 1705.08 1.9562 4.03034 0
M  V30 17660 C 1706.83 0.139528 4.24271 0
M  V30 17661 C 1704.73 2.10478 5.52678 0
M  V30 17662 H 1703.66 0.115564 0.745091 0
M  V30 17663 H 1706.31 0.940092 1.5759 0
M  V30 17664 H 1704.7 -0.170724 3.95632 0
M  V30 17665 H 1705.87 2.68069 3.74801 0
M  V30 17666 H 1704.18 2.29197 3.47646 0
M  V30 17667 H 1706.78 0.22918 5.34209 0
M  V30 17668 H 1707.12 -0.908999 4.06255 0
M  V30 17669 H 1707.66 0.782019 3.90038 0
M  V30 17670 H 1704.4 3.13616 5.75609 0
M  V30 17671 H 1703.92 1.42501 5.82626 0
M  V30 17672 H 1705.6 1.89887 6.18508 0
M  V30 17673 N 1705.73 -1.49049 0.51208 0
M  V30 17674 C 1706.98 -2.0208 -0.0284326 0
M  V30 17675 C 1707.3 -1.39303 -1.36454 0
M  V30 17676 O 1706.57 -0.552155 -1.87958 0
M  V30 17677 H 1705.15 -0.746878 -0.0134968 0
M  V30 17678 H 1707.81 -1.82954 0.671842 0
M  V30 17679 H 1706.9 -3.11739 -0.149966 0
M  V30 17680 N 1707.21 -0.246397 -1.55662 0
M  V30 17681 C 1708.45 0.378487 -1.98931 0
M  V30 17682 C 1708.78 1.57984 -1.13452 0
M  V30 17683 O 1708.04 1.94822 -0.185214 0
M  V30 17684 C 1708.33 0.832225 -3.47576 0
M  V30 17685 C 1708 -0.261318 -4.50142 0
M  V30 17686 C 1706.66 -0.56166 -4.77911 0
M  V30 17687 C 1709.01 -0.999618 -5.11524 0
M  V30 17688 C 1706.34 -1.60438 -5.64337 0
M  V30 17689 C 1708.69 -2.03186 -5.99081 0
M  V30 17690 C 1707.36 -2.33885 -6.25183 0
M  V30 17691 H 1706.63 0.138498 -0.727942 0
M  V30 17692 H 1709.28 -0.354116 -1.88197 0
M  V30 17693 H 1707.58 1.64402 -3.55639 0
M  V30 17694 H 1709.28 1.32598 -3.78442 0
M  V30 17695 H 1705.87 -0.0170894 -4.28597 0
M  V30 17696 H 1710.05 -0.780833 -4.90119 0
M  V30 17697 H 1705.31 -1.84758 -5.82816 0
M  V30 17698 H 1709.48 -2.60886 -6.45687 0
M  V30 17699 H 1707.11 -3.14822 -6.91947 0
M  V30 17700 N 1708.68 1.57577 0.026722 0
M  V30 17701 C 1709.91 1.94035 0.732473 0
M  V30 17702 C 1710.33 0.846575 1.67972 0
M  V30 17703 O 1709.69 -0.197514 1.80221 0
M  V30 17704 C 1709.74 3.2956 1.46365 0
M  V30 17705 O 1708.84 3.21975 2.57694 0
M  V30 17706 H 1708.18 0.634155 0.196832 0
M  V30 17707 H 1710.71 2.04592 -0.018503 0
M  V30 17708 H 1710.72 3.64504 1.83305 0
M  V30 17709 H 1709.4 4.0873 0.768943 0
M  V30 17710 H 1707.98 2.98665 2.23279 0
M  V30 17711 N 1710.16 -0.299034 1.54737 0
M  V30 17712 C 1711.39 -1.0529 1.78105 0
M  V30 17713 C 1711.8 -1.80868 0.541499 0
M  V30 17714 O 1711.16 -1.75834 -0.488726 0
M  V30 17715 C 1711.21 -2.03192 2.9899 0
M  V30 17716 O 1710.93 -1.30681 4.18156 0
M  V30 17717 C 1712.43 -2.90602 3.34762 0
M  V30 17718 H 1709.65 -0.312173 0.593961 0
M  V30 17719 H 1712.2 -0.337712 2.01692 0
M  V30 17720 H 1710.35 -2.70211 2.77606 0
M  V30 17721 H 1710.77 -1.96446 4.86322 0
M  V30 17722 H 1712.24 -3.55144 4.22584 0
M  V30 17723 H 1712.72 -3.59006 2.53004 0
M  V30 17724 H 1713.32 -2.29112 3.58313 0
M  V30 17725 N 1711.64 -1.47227 -0.562322 0
M  V30 17726 C 1712.89 -1.53816 -1.32168 0
M  V30 17727 C 1713.22 -0.197649 -1.93192 0
M  V30 17728 O 1712.49 0.793178 -1.77592 0
M  V30 17729 C 1712.78 -2.65231 -2.43566 0
M  V30 17730 C 1712.63 -4.08882 -1.87445 0
M  V30 17731 C 1713.95 -2.72589 -3.45519 0
M  V30 17732 H 1711.07 -0.559947 -0.479195 0
M  V30 17733 H 1713.71 -1.7926 -0.629762 0
M  V30 17734 H 1711.86 -2.43667 -3.02587 0
M  V30 17735 H 1713.53 -4.41794 -1.32725 0
M  V30 17736 H 1711.77 -4.17401 -1.18149 0
M  V30 17737 H 1712.45 -4.82603 -2.67952 0
M  V30 17738 H 1714.92 -2.92028 -2.9641 0
M  V30 17739 H 1713.8 -3.5233 -4.20898 0
M  V30 17740 H 1714.06 -1.79444 -4.04045 0
M  V30 17741 N 1713.12 0.808639 -1.35273 0
M  V30 17742 C 1714.05 1.92839 -1.23878 0
M  V30 17743 C 1715.06 1.61987 -0.162543 0
M  V30 17744 O 1716.25 1.73593 -0.41564 0
M  V30 17745 C 1713.35 3.27158 -0.884369 0
M  V30 17746 C 1712.52 3.85931 -2.05855 0
M  V30 17747 C 1711.58 4.98652 -1.68025 0
M  V30 17748 O 1710.61 5.16188 -2.39871 0
M  V30 17749 N 1711.81 5.77363 -0.602684 0
M  V30 17750 H 1714.58 2.03141 -2.20349 0
M  V30 17751 H 1712.14 0.985956 -1.28415 0
M  V30 17752 H 1714.13 4.00033 -0.612814 0
M  V30 17753 H 1712.7 3.12599 -0.00940584 0
M  V30 17754 H 1711.92 3.05274 -2.49402 0
M  V30 17755 H 1713.21 4.21929 -2.84347 0
M  V30 17756 H 1712.61 5.657 -0.00570741 0
M  V30 17757 H 1711.16 6.50627 -0.390903 0
M  V30 17758 N 1714.6 1.19237 1.03055 0
M  V30 17759 C 1715.54 0.928588 2.11296 0
M  V30 17760 C 1716.51 -0.135941 1.65543 0
M  V30 17761 O 1717.7 0.00584847 1.90799 0
M  V30 17762 C 1714.84 0.471532 3.41863 0
M  V30 17763 C 1713.95 1.60264 4.01173 0
M  V30 17764 C 1713.09 1.09729 5.19743 0
M  V30 17765 C 1712.13 2.2024 5.71105 0
M  V30 17766 N 1711.26 1.71024 6.80952 0
M  V30 17767 H 1716.1 1.85536 2.33196 0
M  V30 17768 H 1713.64 0.925029 1.14375 0
M  V30 17769 H 1715.6 0.187949 4.16776 0
M  V30 17770 H 1714.23 -0.41825 3.20079 0
M  V30 17771 H 1713.28 2.00147 3.23489 0
M  V30 17772 H 1714.59 2.43531 4.35309 0
M  V30 17773 H 1713.75 0.768832 6.01809 0
M  V30 17774 H 1712.48 0.234324 4.87137 0
M  V30 17775 H 1711.49 2.53918 4.87653 0
M  V30 17776 H 1712.71 3.06989 6.05751 0
M  V30 17777 H 1710.66 0.870334 6.50201 0
M  V30 17778 H 1710.58 2.47882 7.14206 0
M  V30 17779 H 1711.85 1.41137 7.66616 0
M  V30 17780 N 1716.07 -1.22136 0.99602 0
M  V30 17781 C 1716.98 -2.27869 0.557927 0
M  V30 17782 C 1718 -1.69462 -0.394781 0
M  V30 17783 O 1719.18 -1.99704 -0.26084 0
M  V30 17784 C 1716.24 -3.46501 -0.117434 0
M  V30 17785 C 1715.3 -4.20213 0.878627 0
M  V30 17786 C 1714.54 -5.33181 0.2354 0
M  V30 17787 O 1714.76 -5.62093 -0.969954 0
M  V30 17788 O 1713.69 -5.94486 0.941828 0
M  V30 17789 H 1717.52 -2.67517 1.43765 0
M  V30 17790 H 1715.1 -1.28362 0.764428 0
M  V30 17791 H 1716.99 -4.18476 -0.49559 0
M  V30 17792 H 1715.66 -3.08772 -0.971674 0
M  V30 17793 H 1714.57 -3.50497 1.30777 0
M  V30 17794 H 1715.9 -4.6183 1.70217 0
M  V30 17795 N 1717.55 -0.769612 -1.37531 0
M  V30 17796 C 1718.52 -0.160716 -2.28636 0
M  V30 17797 C 1719.52 0.630362 -1.47929 0
M  V30 17798 O 1720.71 0.454265 -1.68173 0
M  V30 17799 C 1717.84 0.779904 -3.31859 0
M  V30 17800 H 1719.03 -0.963794 -2.83991 0
M  V30 17801 H 1716.58 -0.537678 -1.46761 0
M  V30 17802 H 1717.32 1.60807 -2.81623 0
M  V30 17803 H 1717.1 0.21485 -3.91511 0
M  V30 17804 H 1718.59 1.20143 -3.99944 0
M  V30 17805 N 1719.03 1.48775 -0.519977 0
M  V30 17806 C 1720.28 2.02792 0.0177768 0
M  V30 17807 C 1720.61 1.3972 1.34878 0
M  V30 17808 O 1719.88 0.539438 1.8687 0
M  V30 17809 C 1720.17 3.59786 0.150355 0
M  V30 17810 C 1720.02 4.33356 -1.20511 0
M  V30 17811 C 1721.34 4.31172 0.881959 0
M  V30 17812 H 1718.46 0.736983 0.00498634 0
M  V30 17813 H 1721.1 1.77603 -0.675069 0
M  V30 17814 H 1719.25 3.81378 0.740452 0
M  V30 17815 H 1720.92 4.23209 -1.83554 0
M  V30 17816 H 1719.17 3.95167 -1.78957 0
M  V30 17817 H 1719.84 5.4162 -1.06544 0
M  V30 17818 H 1722.31 4.14349 0.381302 0
M  V30 17819 H 1721.19 5.40729 0.943601 0
M  V30 17820 H 1721.45 3.97747 1.93001 0
M  V30 17821 N 1720.51 0.254649 1.55529 0
M  V30 17822 C 1721.44 -0.635656 2.24681 0
M  V30 17823 C 1722.42 -1.17519 1.22977 0
M  V30 17824 O 1723.6 -1.21311 1.51649 0
M  V30 17825 C 1720.73 -1.82922 2.95224 0
M  V30 17826 C 1719.69 -1.42212 4.03683 0
M  V30 17827 C 1719.01 -2.69713 4.61691 0
M  V30 17828 C 1720.31 -0.587436 5.18986 0
M  V30 17829 H 1722.01 -0.0590063 2.99342 0
M  V30 17830 H 1719.55 -0.02694 1.43975 0
M  V30 17831 H 1721.51 -2.45777 3.42304 0
M  V30 17832 H 1720.23 -2.43137 2.18064 0
M  V30 17833 H 1718.89 -0.81687 3.57383 0
M  V30 17834 H 1718.54 -3.28143 3.81223 0
M  V30 17835 H 1718.24 -2.43194 5.34911 0
M  V30 17836 H 1719.76 -3.33453 5.11509 0
M  V30 17837 H 1721.18 -1.12048 5.62244 0
M  V30 17838 H 1719.57 -0.417988 5.98643 0
M  V30 17839 H 1720.64 0.398577 4.83259 0
M  V30 17840 N 1721.99 -1.57589 -0.0183649 0
M  V30 17841 C 1723.23 -1.90038 -0.708056 0
M  V30 17842 C 1723.57 -0.853686 -1.7443 0
M  V30 17843 O 1722.84 0.12994 -1.94065 0
M  V30 17844 C 1723.12 -3.33107 -1.3679 0
M  V30 17845 C 1722.98 -4.48479 -0.344448 0
M  V30 17846 C 1724.3 -3.75276 -2.29904 0
M  V30 17847 H 1721.41 -0.691134 -0.255934 0
M  V30 17848 H 1724.06 -1.89978 0.0291579 0
M  V30 17849 H 1722.21 -3.33289 -1.99626 0
M  V30 17850 H 1723.88 -4.60432 0.282816 0
M  V30 17851 H 1722.12 -4.32503 0.335196 0
M  V30 17852 H 1722.79 -5.45497 -0.844832 0
M  V30 17853 H 1725.27 -3.76529 -1.77103 0
M  V30 17854 H 1724.14 -4.76168 -2.73049 0
M  V30 17855 H 1724.41 -3.08124 -3.17036 0
M  V30 17856 N 1723.46 0.290824 -1.54893 0
M  V30 17857 C 1724.88 0.637054 -1.46334 0
M  V30 17858 C 1725.08 1.90285 -0.66285 0
M  V30 17859 O 1724.14 2.51896 -0.174589 0
M  V30 17860 C 1725.45 0.780585 -2.90392 0
M  V30 17861 C 1727 0.875807 -3.00497 0
M  V30 17862 C 1727.47 1.05126 -4.45772 0
M  V30 17863 N 1728.96 1.11721 -4.49525 0
M  V30 17864 C 1729.7 1.27145 -5.59126 0
M  V30 17865 N 1729.19 1.39401 -6.7863 0
M  V30 17866 N 1730.99 1.30114 -5.46833 0
M  V30 17867 H 1723.14 -0.540707 -2.05402 0
M  V30 17868 H 1725.4 -0.180344 -0.930688 0
M  V30 17869 H 1725.11 -0.0787855 -3.51612 0
M  V30 17870 H 1724.98 1.66644 -3.38392 0
M  V30 17871 H 1727.37 1.72566 -2.39385 0
M  V30 17872 H 1727.45 -0.0342844 -2.55777 0
M  V30 17873 H 1727.09 0.206135 -5.07482 0
M  V30 17874 H 1727.02 1.97573 -4.88132 0
M  V30 17875 H 1729.51 1.03562 -3.63433 0
M  V30 17876 H 1729.83 1.50953 -7.57914 0
M  V30 17877 H 1728.17 1.36438 -6.81476 0
M  V30 17878 H 1731.36 1.20157 -4.52416 0
M  V30 17879 H 1731.54 1.4179 -6.32297 0
M  V30 17880 N 1724.94 1.47523 0.554506 0
M  V30 17881 C 1726.19 1.54515 1.3135 0
M  V30 17882 C 1726.52 0.207892 1.93084 0
M  V30 17883 O 1725.8 -0.783749 1.7801 0
M  V30 17884 C 1726.08 2.66519 2.42156 0
M  V30 17885 C 1725.93 4.0987 1.85274 0
M  V30 17886 C 1727.25 2.74418 3.44068 0
M  V30 17887 H 1724.37 0.562481 0.476219 0
M  V30 17888 H 1727.01 1.79591 0.620246 0
M  V30 17889 H 1725.16 2.45268 3.0129 0
M  V30 17890 H 1726.83 4.42492 1.3038 0
M  V30 17891 H 1725.08 4.18021 1.15934 0
M  V30 17892 H 1725.75 4.84017 2.65389 0
M  V30 17893 H 1728.22 2.93596 2.94857 0
M  V30 17894 H 1727.1 3.54557 4.19023 0
M  V30 17895 H 1727.36 1.81584 4.03088 0
M  V30 17896 N 1726.42 -0.801453 1.357 0
M  V30 17897 C 1727.7 -1.54605 1.19819 0
M  V30 17898 C 1728.08 -2.09944 -0.220593 0
M  V30 17899 O 1727.43 -1.92904 -1.22475 0
M  V30 17900 C 1727.64 -2.65052 2.27043 0
M  V30 17901 C 1728.98 -3.33255 2.63109 0
M  V30 17902 O 1730.01 -2.75326 2.25995 0
M  V30 17903 O 1728.87 -4.37917 3.26942 0
M  V30 17904 H 1725.96 -0.68334 0.465807 0
M  V30 17905 H 1728.51 -0.840972 1.47397 0
M  V30 17906 H 1727.28 -2.22068 3.22182 0
M  V30 17907 H 1726.9 -3.4319 2.00764 0
M  V30 17908 N 1727.9 -1.19782 -1.02421 0
M  V30 17909 C 1729.12 -1.02939 -1.80051 0
M  V30 17910 C 1729.55 0.417153 -1.83416 0
M  V30 17911 O 1728.91 1.3001 -1.26361 0
M  V30 17912 C 1728.95 -1.60853 -3.22736 0
M  V30 17913 O 1728.06 -0.840999 -4.03734 0
M  V30 17914 H 1727.4 -0.363537 -0.555641 0
M  V30 17915 H 1729.93 -1.58908 -1.28878 0
M  V30 17916 H 1729.94 -1.64266 -3.73471 0
M  V30 17917 H 1728.61 -2.66135 -3.19602 0
M  V30 17918 H 1727.19 -0.880482 -3.62356 0
M  V30 17919 N 1729.38 1.21606 -1.00248 0
M  V30 17920 C 1730.6 1.95149 -0.702249 0
M  V30 17921 C 1731.03 1.73429 0.728293 0
M  V30 17922 O 1730.39 1.01953 1.49917 0
M  V30 17923 C 1730.43 3.45705 -1.0257 0
M  V30 17924 O 1729.54 4.12196 -0.129575 0
M  V30 17925 H 1728.88 0.610173 -0.261888 0
M  V30 17926 H 1731.41 1.54435 -1.34205 0
M  V30 17927 H 1731.42 3.96265 -0.97151 0
M  V30 17928 H 1730.09 3.60838 -2.06806 0
M  V30 17929 H 1728.67 3.72126 -0.240074 0
M  V30 17930 N 1730.86 0.776895 1.37121 0
M  V30 17931 C 1732.08 0.353911 2.04358 0
M  V30 17932 C 1732.51 -1.01745 1.58207 0
M  V30 17933 O 1731.86 -1.653 0.744691 0
M  V30 17934 C 1731.91 0.411918 3.5824 0
M  V30 17935 O 1731.02 -0.58576 4.08219 0
M  V30 17936 H 1730.36 0.152335 0.64629 0
M  V30 17937 H 1732.89 1.05452 1.75331 0
M  V30 17938 H 1732.9 0.271043 4.07099 0
M  V30 17939 H 1731.57 1.41236 3.91185 0
M  V30 17940 H 1730.15 -0.40758 3.70666 0
M  V30 17941 N 1732.33 -1.48497 0.527859 0
M  V30 17942 C 1733.58 -2.02099 -0.00699772 0
M  V30 17943 C 1733.9 -1.40742 -1.34969 0
M  V30 17944 O 1733.17 -0.572059 -1.87361 0
M  V30 17945 H 1731.75 -0.746979 -0.00557445 0
M  V30 17946 H 1734.41 -1.82231 0.691209 0
M  V30 17947 H 1733.51 -3.11881 -0.116893 0
M  V30 17948 N 1733.81 -0.262893 -1.55392 0
M  V30 17949 C 1734.74 0.623732 -2.25015 0
M  V30 17950 C 1735.72 1.16865 -1.23598 0
M  V30 17951 O 1736.91 1.20505 -1.5229 0
M  V30 17952 C 1734.04 1.81353 -2.9619 0
M  V30 17953 C 1732.99 1.40069 -4.04431 0
M  V30 17954 C 1732.32 2.67261 -4.63115 0
M  V30 17955 C 1733.62 0.559905 -5.1929 0
M  V30 17956 H 1735.31 0.0431306 -2.99369 0
M  V30 17957 H 1732.86 0.0193043 -1.43987 0
M  V30 17958 H 1734.81 2.43958 -3.43602 0
M  V30 17959 H 1733.53 2.41977 -2.1935 0
M  V30 17960 H 1732.19 0.797905 -3.57811 0
M  V30 17961 H 1731.84 3.26117 -3.82958 0
M  V30 17962 H 1731.54 2.40354 -5.36194 0
M  V30 17963 H 1733.07 3.30735 -5.1327 0
M  V30 17964 H 1734.48 1.09064 -5.6283 0
M  V30 17965 H 1732.88 0.386234 -5.98856 0
M  V30 17966 H 1733.95 -0.424199 -4.83041 0
M  V30 17967 N 1735.29 1.57597 0.0100073 0
M  V30 17968 C 1736.54 1.89754 0.695559 0
M  V30 17969 C 1736.86 0.862983 1.74865 0
M  V30 17970 O 1736.13 -0.100949 1.9564 0
M  V30 17971 H 1734.71 0.700331 0.259895 0
M  V30 17972 H 1737.37 1.94879 -0.0285521 0
M  V30 17973 H 1736.47 2.89213 1.17313 0
M  V30 17974 N 1736.77 -0.282606 1.55045 0
M  V30 17975 C 1738.04 -1.03617 1.659 0
M  V30 17976 C 1738.42 -2.04615 0.519207 0
M  V30 17977 O 1737.77 -2.2336 -0.48191 0
M  V30 17978 C 1737.98 -1.70159 3.04708 0
M  V30 17979 C 1739.33 -2.21677 3.62139 0
M  V30 17980 O 1740.35 -1.80161 3.07279 0
M  V30 17981 O 1739.21 -2.97799 4.58234 0
M  V30 17982 H 1736.31 -0.48004 0.673417 0
M  V30 17983 H 1738.85 -0.279228 1.67387 0
M  V30 17984 H 1737.63 -0.969205 3.79107 0
M  V30 17985 H 1737.25 -2.52564 3.07079 0
M  V30 17986 N 1738.25 -1.47815 -0.546675 0
M  V30 17987 C 1739.48 -1.58384 -1.32658 0
M  V30 17988 C 1739.88 -0.236934 -1.87711 0
M  V30 17989 O 1739.23 0.781521 -1.66247 0
M  V30 17990 C 1739.29 -2.55766 -2.52634 0
M  V30 17991 C 1738.95 -4.01222 -2.18791 0
M  V30 17992 C 1739.95 -4.89399 -1.75455 0
M  V30 17993 C 1737.63 -4.46637 -2.29827 0
M  V30 17994 C 1739.63 -6.21014 -1.43598 0
M  V30 17995 C 1737.32 -5.78277 -1.97582 0
M  V30 17996 C 1738.31 -6.65288 -1.54536 0
M  V30 17997 O 1738 -7.9448 -1.22706 0
M  V30 17998 H 1737.73 -0.537236 -0.410309 0
M  V30 17999 H 1740.29 -1.94235 -0.667988 0
M  V30 18000 H 1738.52 -2.15003 -3.2142 0
M  V30 18001 H 1740.21 -2.56349 -3.14706 0
M  V30 18002 H 1740.97 -4.55556 -1.66414 0
M  V30 18003 H 1736.85 -3.79111 -2.62289 0
M  V30 18004 H 1740.4 -6.88885 -1.09926 0
M  V30 18005 H 1736.29 -6.1166 -2.06259 0
M  V30 18006 H 1737.06 -8.07081 -1.36246 0
M  V30 18007 N 1739.72 0.794246 -1.36123 0
M  V30 18008 C 1740.65 1.92105 -1.32732 0
M  V30 18009 C 1741.63 1.68925 -0.199603 0
M  V30 18010 O 1742.82 1.90109 -0.396498 0
M  V30 18011 C 1739.95 3.29051 -1.11098 0
M  V30 18012 C 1738.9 3.66743 -2.20643 0
M  V30 18013 C 1738.23 5.01986 -1.84159 0
M  V30 18014 C 1739.53 3.75831 -3.62696 0
M  V30 18015 H 1741.22 1.952 -2.27018 0
M  V30 18016 H 1738.77 0.937746 -1.09281 0
M  V30 18017 H 1740.72 4.07494 -1.07362 0
M  V30 18018 H 1739.45 3.26331 -0.132614 0
M  V30 18019 H 1738.11 2.90594 -2.23497 0
M  V30 18020 H 1737.75 4.95782 -0.849081 0
M  V30 18021 H 1737.45 5.28175 -2.57497 0
M  V30 18022 H 1738.98 5.82855 -1.8197 0
M  V30 18023 H 1740.39 4.44476 -3.62096 0
M  V30 18024 H 1738.79 4.135 -4.34899 0
M  V30 18025 H 1739.86 2.7706 -3.97952 0
M  V30 18026 N 1741.2 1.20323 1.01785 0
M  V30 18027 C 1742.11 0.966603 2.13761 0
M  V30 18028 C 1743.13 -0.0771059 1.73829 0
M  V30 18029 O 1744.3 0.110054 2.01099 0
M  V30 18030 C 1741.37 0.520405 3.42772 0
M  V30 18031 C 1740.43 1.63482 3.96954 0
M  V30 18032 C 1739.66 1.20981 5.19807 0
M  V30 18033 O 1739.89 0.0779814 5.70347 0
M  V30 18034 O 1738.82 2.01674 5.67108 0
M  V30 18035 H 1742.65 1.90414 2.36593 0
M  V30 18036 H 1740.23 0.986997 1.12155 0
M  V30 18037 H 1742.11 0.280747 4.20464 0
M  V30 18038 H 1740.79 -0.388563 3.21359 0
M  V30 18039 H 1739.69 1.92874 3.20547 0
M  V30 18040 H 1741.03 2.52074 4.22752 0
M  V30 18041 N 1742.68 -1.21073 1.00892 0
M  V30 18042 C 1743.61 -2.25847 0.592897 0
M  V30 18043 C 1744.59 -1.6561 -0.38824 0
M  V30 18044 O 1745.78 -1.92238 -0.275361 0
M  V30 18045 C 1742.91 -3.47214 -0.0773439 0
M  V30 18046 C 1741.86 -4.19994 0.82398 0
M  V30 18047 C 1741.19 -5.34696 0.0199341 0
M  V30 18048 C 1742.49 -4.76964 2.12844 0
M  V30 18049 H 1744.18 -2.609 1.46873 0
M  V30 18050 H 1741.73 -1.25412 0.707656 0
M  V30 18051 H 1743.68 -4.19684 -0.379889 0
M  V30 18052 H 1742.4 -3.11303 -0.987833 0
M  V30 18053 H 1741.06 -3.49379 1.11041 0
M  V30 18054 H 1740.71 -4.95028 -0.891966 0
M  V30 18055 H 1740.41 -5.84319 0.620102 0
M  V30 18056 H 1741.93 -6.09974 -0.276336 0
M  V30 18057 H 1743.35 -5.41293 1.88878 0
M  V30 18058 H 1741.74 -5.36992 2.67879 0
M  V30 18059 H 1742.81 -3.96129 2.79659 0
M  V30 18060 N 1744.16 -0.784156 -1.36707 0
M  V30 18061 C 1745.11 -0.152155 -2.27492 0
M  V30 18062 C 1746.09 0.660807 -1.46704 0
M  V30 18063 O 1747.28 0.521744 -1.69136 0
M  V30 18064 C 1744.41 0.716367 -3.35743 0
M  V30 18065 C 1743.5 -0.1051 -4.2397 0
M  V30 18066 N 1743.89 -1.15697 -4.9239 0
M  V30 18067 C 1742.19 0.116908 -4.45847 0
M  V30 18068 C 1742.89 -1.65661 -5.57612 0
M  V30 18069 N 1741.87 -0.966703 -5.34935 0
M  V30 18070 H 1745.67 -0.957322 -2.77871 0
M  V30 18071 H 1743.18 -0.623106 -1.4997 0
M  V30 18072 H 1745.18 1.185 -3.99704 0
M  V30 18073 H 1743.84 1.52014 -2.86918 0
M  V30 18074 H 1744.85 -1.53933 -4.94495 0
M  V30 18075 H 1741.53 0.891605 -4.07868 0
M  V30 18076 H 1742.92 -2.53449 -6.22265 0
M  V30 18077 N 1745.64 1.48215 -0.535727 0
M  V30 18078 C 1746.89 2.017 -0.0016958 0
M  V30 18079 C 1747.2 1.41756 1.34776 0
M  V30 18080 O 1748.4 1.86774 1.97048 0
M  V30 18081 C 1746.86 3.59869 0.0473588 0
M  V30 18082 C 1746.47 4.28798 -1.29754 0
M  V30 18083 C 1748.21 4.21179 0.529915 0
M  V30 18084 C 1746.12 5.78915 -1.20876 0
M  V30 18085 H 1745.05 0.753993 0.00313606 0
M  V30 18086 H 1747.7 1.70421 -0.680368 0
M  V30 18087 H 1746.08 3.88015 0.791229 0
M  V30 18088 H 1747.26 4.12318 -2.05743 0
M  V30 18089 H 1745.57 3.79384 -1.7163 0
M  V30 18090 H 1748.17 5.31158 0.614396 0
M  V30 18091 H 1748.51 3.86887 1.53702 0
M  V30 18092 H 1749.04 3.97484 -0.158445 0
M  V30 18093 H 1745.78 6.17792 -2.1912 0
M  V30 18094 H 1745.3 5.97792 -0.490333 0
M  V30 18095 H 1746.98 6.40684 -0.901824 0
M  V30 18096 N 1747.11 0.27113 1.5525 0
M  V30 18097 C 1748.06 -0.632507 2.19051 0
M  V30 18098 C 1749.05 -1.12135 1.15388 0
M  V30 18099 O 1750.24 -1.06709 1.41217 0
M  V30 18100 C 1747.37 -1.81804 2.91208 0
M  V30 18101 C 1746.46 -1.34656 4.02155 0
M  V30 18102 N 1746.85 -0.590954 5.02336 0
M  V30 18103 C 1745.14 -1.62985 4.15153 0
M  V30 18104 C 1745.85 -0.343602 5.80684 0
M  V30 18105 N 1744.82 -0.914869 5.35846 0
M  V30 18106 H 1748.62 -0.0473244 2.93862 0
M  V30 18107 H 1746.14 0.0745107 1.62229 0
M  V30 18108 H 1748.13 -2.47666 3.35361 0
M  V30 18109 H 1746.79 -2.40721 2.17907 0
M  V30 18110 H 1747.81 -0.238682 5.1735 0
M  V30 18111 H 1744.48 -2.22867 3.53039 0
M  V30 18112 H 1745.87 0.261284 6.71392 0
M  V30 18113 N 1748.59 -1.576 -0.00164943 0
M  V30 18114 C 1749.52 -2.05167 -1.02173 0
M  V30 18115 C 1750.54 -0.969293 -1.308 0
M  V30 18116 O 1751.73 -1.24612 -1.27805 0
M  V30 18117 C 1748.83 -2.43525 -2.35688 0
M  V30 18118 C 1748 -3.74475 -2.26025 0
M  V30 18119 C 1747.06 -3.99719 -3.42215 0
M  V30 18120 O 1746.08 -4.70408 -3.20476 0
M  V30 18121 N 1747.29 -3.47486 -4.65009 0
M  V30 18122 H 1750.05 -2.93299 -0.616095 0
M  V30 18123 H 1747.61 -1.60792 -0.189066 0
M  V30 18124 H 1749.6 -2.57528 -3.12188 0
M  V30 18125 H 1748.17 -1.6092 -2.67999 0
M  V30 18126 H 1747.39 -3.70564 -1.34447 0
M  V30 18127 H 1748.68 -4.60328 -2.16739 0
M  V30 18128 H 1748.08 -2.9024 -4.85569 0
M  V30 18129 H 1746.64 -3.66822 -5.38781 0
M  V30 18130 N 1750.07 0.274379 -1.55193 0
M  V30 18131 C 1751.32 1.00418 -1.75387 0
M  V30 18132 C 1751.64 1.86868 -0.557244 0
M  V30 18133 O 1750.91 1.9117 0.427883 0
M  V30 18134 H 1749.49 0.373753 -0.646775 0
M  V30 18135 H 1752.15 0.298942 -1.92594 0
M  V30 18136 H 1751.25 1.64191 -2.6542 0
M  V30 18137 N 1751.55 1.48103 0.538828 0
M  V30 18138 C 1752.5 1.61966 1.64425 0
M  V30 18139 C 1753.47 0.461999 1.59546 0
M  V30 18140 O 1754.65 0.684377 1.78104 0
M  V30 18141 C 1751.79 1.65711 3.02711 0
M  V30 18142 C 1750.9 2.92522 3.17891 0
M  V30 18143 C 1750.04 2.87485 4.46683 0
M  V30 18144 C 1749.08 4.0904 4.5536 0
M  V30 18145 N 1748.21 4.02131 5.7553 0
M  V30 18146 H 1753.05 2.5637 1.51916 0
M  V30 18147 H 1750.59 1.27146 0.739745 0
M  V30 18148 H 1752.55 1.65864 3.82812 0
M  V30 18149 H 1751.18 0.748045 3.14013 0
M  V30 18150 H 1750.23 3.02154 2.311 0
M  V30 18151 H 1751.54 3.82487 3.20165 0
M  V30 18152 H 1750.7 2.8599 5.35065 0
M  V30 18153 H 1749.44 1.95234 4.46917 0
M  V30 18154 H 1748.44 4.10819 3.65387 0
M  V30 18155 H 1749.67 5.02439 4.56872 0
M  V30 18156 H 1747.61 3.12695 5.76678 0
M  V30 18157 H 1747.53 4.85791 5.7926 0
M  V30 18158 H 1748.8 4.04682 6.66223 0
M  V30 18159 N 1753.03 -0.787016 1.36542 0
M  V30 18160 C 1754.28 -1.54019 1.30234 0
M  V30 18161 C 1754.59 -1.95259 -0.115496 0
M  V30 18162 O 1755.79 -2.69827 -0.300966 0
M  V30 18163 C 1754.25 -2.78048 2.28512 0
M  V30 18164 C 1753.86 -2.43968 3.75744 0
M  V30 18165 C 1755.6 -3.56025 2.31185 0
M  V30 18166 C 1753.51 -3.64406 4.65792 0
M  V30 18167 H 1752.44 -0.578185 0.483961 0
M  V30 18168 H 1755.09 -0.8634 1.61919 0
M  V30 18169 H 1753.47 -3.47538 1.89824 0
M  V30 18170 H 1754.65 -1.82359 4.23181 0
M  V30 18171 H 1752.96 -1.79197 3.75869 0
M  V30 18172 H 1755.56 -4.45514 2.9567 0
M  V30 18173 H 1755.9 -3.94783 1.32107 0
M  V30 18174 H 1756.43 -2.93516 2.68502 0
M  V30 18175 H 1753.17 -3.30742 5.65942 0
M  V30 18176 H 1752.69 -4.25173 4.2307 0
M  V30 18177 H 1754.37 -4.31406 4.82181 0
M  V30 18178 N 1754.5 -1.20861 -1.01145 0
M  V30 18179 C 1755.75 -1.0199 -1.74478 0
M  V30 18180 C 1756.07 0.4484 -1.89775 0
M  V30 18181 O 1755.34 1.32386 -1.44398 0
M  V30 18182 H 1753.92 -0.37439 -0.646406 0
M  V30 18183 H 1756.59 -1.5206 -1.21917 0
M  V30 18184 H 1755.68 -1.48251 -2.74642 0
M  V30 18185 N 1755.98 1.20536 -1.01532 0
M  V30 18186 C 1757.23 1.90152 -0.704973 0
M  V30 18187 C 1757.56 1.78569 0.763343 0
M  V30 18188 O 1756.84 1.16906 1.55445 0
M  V30 18189 C 1757.12 3.41589 -1.1397 0
M  V30 18190 C 1756.97 3.62113 -2.66823 0
M  V30 18191 C 1758.29 4.34335 -0.709984 0
M  V30 18192 H 1755.41 0.690524 -0.257577 0
M  V30 18193 H 1758.05 1.41959 -1.26284 0
M  V30 18194 H 1756.2 3.82765 -0.66505 0
M  V30 18195 H 1757.87 3.30197 -3.2213 0
M  V30 18196 H 1756.12 3.05626 -3.07855 0
M  V30 18197 H 1756.79 4.68261 -2.92294 0
M  V30 18198 H 1759.26 4.00799 -1.11801 0
M  V30 18199 H 1758.14 5.38915 -1.04221 0
M  V30 18200 H 1758.4 4.40391 0.388408 0
M  V30 18201 N 1757.46 0.791395 1.36289 0
M  V30 18202 C 1758.41 0.189246 2.30023 0
M  V30 18203 C 1759.38 -0.668045 1.52074 0
M  V30 18204 O 1760.56 -0.61631 1.80572 0
M  V30 18205 C 1757.7 -0.668391 3.38565 0
M  V30 18206 C 1756.82 0.207659 4.31501 0
M  V30 18207 C 1755.95 -0.656539 5.27127 0
M  V30 18208 C 1754.99 0.220845 6.11701 0
M  V30 18209 N 1754.13 -0.602449 6.99511 0
M  V30 18210 H 1758.97 0.994038 2.80932 0
M  V30 18211 H 1756.5 0.501759 1.38278 0
M  V30 18212 H 1758.46 -1.18064 4.00146 0
M  V30 18213 H 1757.09 -1.43859 2.88971 0
M  V30 18214 H 1756.14 0.837894 3.71057 0
M  V30 18215 H 1757.46 0.883613 4.90911 0
M  V30 18216 H 1756.61 -1.23452 5.94007 0
M  V30 18217 H 1755.35 -1.36611 4.68176 0
M  V30 18218 H 1754.35 0.811214 5.43782 0
M  V30 18219 H 1755.58 0.928049 6.72729 0
M  V30 18220 H 1753.52 -1.29628 6.43065 0
M  V30 18221 H 1753.44 0.015783 7.55998 0
M  V30 18222 H 1754.71 -1.16419 7.70757 0
M  V30 18223 N 1758.94 -1.47929 0.54358 0
M  V30 18224 C 1760.19 -2.02495 0.0144665 0
M  V30 18225 C 1760.51 -1.41934 -1.32985 0
M  V30 18226 O 1759.77 -0.559497 -1.87532 0
M  V30 18227 C 1760.07 -3.57116 -0.142408 0
M  V30 18228 C 1759.73 -4.3653 1.12927 0
M  V30 18229 C 1758.4 -4.57947 1.47776 0
M  V30 18230 C 1760.75 -4.8243 1.97259 0
M  V30 18231 C 1758.08 -5.22512 2.66829 0
M  V30 18232 C 1760.43 -5.48307 3.15503 0
M  V30 18233 C 1759.09 -5.6796 3.50681 0
M  V30 18234 H 1758.36 -0.740981 0.00529368 0
M  V30 18235 H 1761.01 -1.77758 0.712347 0
M  V30 18236 H 1759.31 -3.80769 -0.923157 0
M  V30 18237 H 1761.01 -3.96972 -0.566937 0
M  V30 18238 H 1757.6 -4.20129 0.847901 0
M  V30 18239 H 1761.79 -4.65673 1.71645 0
M  V30 18240 H 1757.04 -5.35924 2.9427 0
M  V30 18241 H 1761.22 -5.82839 3.81145 0
M  V30 18242 H 1758.84 -6.17762 4.43028 0
M  V30 18243 N 1760.42 -0.27936 -1.55104 0
M  V30 18244 C 1761.37 0.62221 -2.24123 0
M  V30 18245 C 1762.36 1.15445 -1.23971 0
M  V30 18246 O 1763.57 1.10759 -1.41889 0
M  V30 18247 H 1759.94 0.219212 -0.71934 0
M  V30 18248 H 1761.91 0.0173061 -2.98395 0
M  V30 18249 C 1760.66 1.79301 -2.97903 0
M  V30 18250 H 1759.98 1.39266 -3.7476 0
M  V30 18251 H 1761.42 2.40038 -3.49511 0
M  V30 18252 C 1759.88 2.68405 -2.03618 0
M  V30 18253 O 1760.41 3.68887 -1.59014 0
M  V30 18254 N 1758.62 2.35666 -1.70028 0
M  V30 18255 H 1758.17 1.54003 -2.06497 0
M  V30 18256 H 1758.12 2.95554 -1.07215 0
M  V30 18257 N 1761.9 1.57599 -0.0067085 0
M  V30 18258 C 1763.14 1.9114 0.677733 0
M  V30 18259 C 1763.47 0.881328 1.7305 0
M  V30 18260 O 1762.75 -0.099049 1.94248 0
M  V30 18261 C 1763.03 3.35241 1.31474 0
M  V30 18262 C 1762.89 4.4897 0.273055 0
M  V30 18263 C 1764.2 3.78886 2.23905 0
M  V30 18264 H 1761.32 0.695119 0.244907 0
M  V30 18265 H 1763.97 1.89907 -0.059378 0
M  V30 18266 H 1762.12 3.36423 1.94299 0
M  V30 18267 H 1763.79 4.59924 -0.356031 0
M  V30 18268 H 1762.03 4.31915 -0.403961 0
M  V30 18269 H 1762.7 5.46772 0.757941 0
M  V30 18270 H 1765.18 3.79299 1.7109 0
M  V30 18271 H 1764.05 4.80451 2.65439 0
M  V30 18272 H 1764.31 3.13129 3.12094 0
M  V30 18273 N 1763.37 -0.266145 1.55336 0
M  V30 18274 C 1764.62 -0.994862 1.75917 0
M  V30 18275 C 1764.94 -1.8657 0.567147 0
M  V30 18276 O 1764.21 -1.91394 -0.417738 0
M  V30 18277 H 1762.79 -0.370318 0.648748 0
M  V30 18278 H 1765.45 -0.288724 1.9275 0
M  V30 18279 H 1764.55 -1.62781 2.66287 0
M  V30 18280 N 1764.85 -1.48386 -0.530967 0
M  V30 18281 C 1766.08 -1.60014 -1.31161 0
M  V30 18282 C 1766.49 -0.260028 -1.87001 0
M  V30 18283 O 1765.85 0.750547 -1.66352 0
M  V30 18284 C 1765.9 -2.64597 -2.46315 0
M  V30 18285 O 1765.62 -3.93407 -1.92777 0
M  V30 18286 C 1767.12 -2.86654 -3.38149 0
M  V30 18287 H 1764.34 -0.539553 -0.398902 0
M  V30 18288 H 1766.89 -1.94207 -0.64063 0
M  V30 18289 H 1765.04 -2.33265 -3.093 0
M  V30 18290 H 1765.46 -4.50774 -2.68147 0
M  V30 18291 H 1766.93 -3.63634 -4.153 0
M  V30 18292 H 1767.41 -1.95441 -3.93319 0
M  V30 18293 H 1768.01 -3.19285 -2.80957 0
M  V30 18294 N 1766.33 0.779763 -1.36958 0
M  V30 18295 C 1767.61 1.52679 -1.22264 0
M  V30 18296 C 1767.99 2.10269 0.187164 0
M  V30 18297 O 1767.33 1.94828 1.19391 0
M  V30 18298 C 1767.54 2.61406 -2.31231 0
M  V30 18299 C 1768.89 3.29027 -2.68377 0
M  V30 18300 O 1769.92 2.71696 -2.30347 0
M  V30 18301 O 1768.78 4.3266 -3.33868 0
M  V30 18302 H 1765.87 0.675843 -0.476619 0
M  V30 18303 H 1768.42 0.817416 -1.48716 0
M  V30 18304 H 1767.19 2.16915 -3.25674 0
M  V30 18305 H 1766.81 3.39953 -2.06199 0
M  V30 18306 N 1767.81 1.21396 1.00503 0
M  V30 18307 C 1769.08 0.93995 1.71535 0
M  V30 18308 C 1769.46 -0.548247 2.03856 0
M  V30 18309 O 1768.81 -1.51308 1.71226 0
M  V30 18310 C 1769.02 1.82501 2.9748 0
M  V30 18311 C 1770.37 2.07383 3.7051 0
M  V30 18312 O 1771.39 1.79849 3.07462 0
M  V30 18313 O 1770.25 2.5395 4.83913 0
M  V30 18314 H 1767.35 0.35246 0.748132 0
M  V30 18315 H 1769.89 1.32325 1.06246 0
M  V30 18316 H 1768.67 2.83219 2.70005 0
M  V30 18317 H 1768.29 1.44252 3.70509 0
M  V30 18318 N 1769.29 -1.19996 1.0217 0
M  V30 18319 C 1770.53 -1.88818 0.709281 0
M  V30 18320 C 1770.85 -1.80032 -0.764702 0
M  V30 18321 O 1772.05 -2.44037 -1.18988 0
M  V30 18322 C 1770.51 -3.38652 1.2183 0
M  V30 18323 C 1770.12 -3.56012 2.71955 0
M  V30 18324 C 1771.86 -4.12996 0.981542 0
M  V30 18325 C 1769.77 -4.997 3.16313 0
M  V30 18326 H 1768.7 -0.70716 0.261613 0
M  V30 18327 H 1771.35 -1.35715 1.23506 0
M  V30 18328 H 1769.73 -3.91109 0.620478 0
M  V30 18329 H 1770.91 -3.13918 3.37331 0
M  V30 18330 H 1769.22 -2.95046 2.93831 0
M  V30 18331 H 1771.82 -5.18948 1.28831 0
M  V30 18332 H 1772.16 -4.1622 -0.0818616 0
M  V30 18333 H 1772.69 -3.66656 1.543 0
M  V30 18334 H 1769.43 -5.01635 4.21951 0
M  V30 18335 H 1768.95 -5.42585 2.5566 0
M  V30 18336 H 1770.63 -5.68312 3.09242 0
M  V30 18337 N 1770.76 -0.798611 -1.35867 0
M  V30 18338 C 1771.73 -0.209177 -2.28243 0
M  V30 18339 C 1772.73 0.598842 -1.49233 0
M  V30 18340 O 1773.92 0.418491 -1.69098 0
M  V30 18341 C 1771.05 0.709336 -3.33438 0
M  V30 18342 H 1772.24 -1.02382 -2.81883 0
M  V30 18343 H 1769.79 -0.568687 -1.45587 0
M  V30 18344 H 1770.53 1.54797 -2.84971 0
M  V30 18345 H 1770.31 0.131756 -3.91879 0
M  V30 18346 H 1771.8 1.11632 -4.02403 0
M  V30 18347 N 1772.24 1.47639 -0.551417 0
M  V30 18348 C 1773.49 2.01687 -0.0230887 0
M  V30 18349 C 1773.8 1.43178 1.33265 0
M  V30 18350 O 1775.01 1.88853 1.95056 0
M  V30 18351 C 1773.47 3.59899 0.00918719 0
M  V30 18352 C 1773.07 4.27398 -1.34295 0
M  V30 18353 C 1774.82 4.21718 0.485213 0
M  V30 18354 C 1772.72 5.77601 -1.2701 0
M  V30 18355 H 1771.65 0.753984 -0.00486122 0
M  V30 18356 H 1774.31 1.6969 -0.698405 0
M  V30 18357 H 1772.69 3.88832 0.75003 0
M  V30 18358 H 1773.86 4.10113 -2.10105 0
M  V30 18359 H 1772.18 3.77542 -1.75644 0
M  V30 18360 H 1774.77 5.3178 0.558025 0
M  V30 18361 H 1775.12 3.88495 1.4959 0
M  V30 18362 H 1775.65 3.97294 -0.200594 0
M  V30 18363 H 1772.39 6.15433 -2.2566 0
M  V30 18364 H 1771.91 5.97239 -0.553709 0
M  V30 18365 H 1773.59 6.39692 -0.969726 0
M  V30 18366 N 1773.72 0.287581 1.54954 0
M  V30 18367 C 1774.63 -0.604236 2.26685 0
M  V30 18368 C 1775.65 -1.1597 1.29719 0
M  V30 18369 O 1776.82 -1.18735 1.62678 0
M  V30 18370 C 1773.89 -1.76612 2.98344 0
M  V30 18371 C 1772.95 -1.24608 4.10818 0
M  V30 18372 C 1772.18 -2.35258 4.7905 0
M  V30 18373 O 1772.4 -3.54879 4.46561 0
M  V30 18374 O 1771.34 -2.02709 5.66739 0
M  V30 18375 H 1775.16 -0.0227663 3.03691 0
M  V30 18376 H 1772.75 0.0545243 1.493 0
M  V30 18377 H 1774.63 -2.44332 3.43336 0
M  V30 18378 H 1773.31 -2.33444 2.24244 0
M  V30 18379 H 1772.21 -0.53498 3.70255 0
M  V30 18380 H 1773.55 -0.723348 4.86856 0
M  V30 18381 N 1775.2 -1.57593 0.0150662 0
M  V30 18382 C 1776.11 -2.12807 -0.987437 0
M  V30 18383 C 1777.12 -1.07691 -1.3667 0
M  V30 18384 O 1778.3 -1.39674 -1.45097 0
M  V30 18385 C 1775.37 -2.63276 -2.2558 0
M  V30 18386 C 1774.43 -3.83053 -1.93827 0
M  V30 18387 C 1773.66 -4.31106 -3.14616 0
M  V30 18388 O 1773.88 -3.78405 -4.26809 0
M  V30 18389 O 1772.82 -5.23104 -2.97734 0
M  V30 18390 H 1776.64 -2.98715 -0.548015 0
M  V30 18391 H 1774.23 -1.47991 -0.20469 0
M  V30 18392 H 1776.11 -2.95869 -3.00066 0
M  V30 18393 H 1774.78 -1.80459 -2.68731 0
M  V30 18394 H 1773.69 -3.55409 -1.1677 0
M  V30 18395 H 1775.02 -4.6699 -1.55502 0
M  V30 18396 N 1776.68 0.257904 -1.55475 0
M  V30 18397 C 1777.9 1.00955 -1.81171 0
M  V30 18398 C 1778.33 1.78586 -0.590651 0
M  V30 18399 O 1777.68 1.75365 0.460105 0
M  V30 18400 C 1777.73 1.93188 -3.04485 0
M  V30 18401 O 1776.84 3.02194 -2.80628 0
M  V30 18402 H 1776.18 0.28785 -0.598363 0
M  V30 18403 H 1778.71 0.28223 -2.02644 0
M  V30 18404 H 1778.72 2.3486 -3.33624 0
M  V30 18405 H 1777.39 1.361 -3.93001 0
M  V30 18406 H 1775.97 2.64729 -2.62627 0
M  V30 18407 N 1778.15 1.48666 0.52309 0
M  V30 18408 C 1779.1 1.64155 1.6479 0
M  V30 18409 C 1780.1 0.507838 1.61609 0
M  V30 18410 O 1781.3 0.686784 1.66383 0
M  V30 18411 H 1777.68 0.517234 0.545869 0
M  V30 18412 H 1779.65 2.58611 1.48871 0
M  V30 18413 C 1778.4 1.70488 3.03033 0
M  V30 18414 H 1777.72 2.5709 3.06178 0
M  V30 18415 H 1779.16 1.85367 3.81333 0
M  V30 18416 C 1777.62 0.444984 3.33948 0
M  V30 18417 O 1778.15 -0.439107 3.99293 0
M  V30 18418 N 1776.36 0.314593 2.88892 0
M  V30 18419 H 1775.9 1.03501 2.35893 0
M  V30 18420 H 1775.86 -0.527357 3.09946 0
M  V30 18421 N 1779.63 -0.772489 1.37369 0
M  V30 18422 C 1780.6 -1.86737 1.32898 0
M  V30 18423 C 1781.6 -1.591 0.23318 0
M  V30 18424 O 1782.79 -1.67196 0.488983 0
M  V30 18425 C 1779.92 -3.23859 1.06435 0
M  V30 18426 H 1781.11 -1.92114 2.30287 0
M  V30 18427 H 1778.66 -0.972158 1.22388 0
M  V30 18428 H 1779.4 -3.24159 0.0957365 0
M  V30 18429 H 1779.18 -3.4531 1.85751 0
M  V30 18430 H 1780.67 -4.03935 1.05954 0
M  V30 18431 N 1781.11 -1.21927 -0.998575 0
M  V30 18432 C 1782.36 -1.03456 -1.73147 0
M  V30 18433 C 1782.67 0.431472 -1.90782 0
M  V30 18434 O 1783.88 0.73573 -2.61341 0
M  V30 18435 C 1782.33 -1.80256 -3.11506 0
M  V30 18436 C 1781.94 -3.31071 -3.01821 0
M  V30 18437 C 1783.69 -1.70214 -3.8888 0
M  V30 18438 C 1781.59 -4.00335 -4.35299 0
M  V30 18439 H 1780.52 -0.3835 -0.649187 0
M  V30 18440 H 1783.17 -1.45724 -1.11521 0
M  V30 18441 H 1781.56 -1.30784 -3.7378 0
M  V30 18442 H 1782.73 -3.87895 -2.48746 0
M  V30 18443 H 1781.05 -3.41727 -2.37932 0
M  V30 18444 H 1783.64 -2.19289 -4.87664 0
M  V30 18445 H 1783.99 -0.661522 -4.1101 0
M  V30 18446 H 1784.52 -2.17199 -3.33271 0
M  V30 18447 H 1781.26 -5.04626 -4.18369 0
M  V30 18448 H 1780.78 -3.48301 -4.8831 0
M  V30 18449 H 1782.46 -4.05611 -5.04072 0
M  V30 18450 N 1782.59 1.19452 -1.02805 0
M  V30 18451 C 1783.84 1.88439 -0.719284 0
M  V30 18452 C 1784.15 1.80435 0.755143 0
M  V30 18453 O 1785.36 2.44664 1.17693 0
M  V30 18454 C 1783.81 3.38001 -1.23625 0
M  V30 18455 C 1783.42 3.54564 -2.7384 0
M  V30 18456 C 1785.16 4.1247 -1.00343 0
M  V30 18457 C 1783.07 4.98016 -3.18958 0
M  V30 18458 H 1782 0.705762 -0.265359 0
M  V30 18459 H 1784.65 1.35058 -1.24224 0
M  V30 18460 H 1783.03 3.90774 -0.641211 0
M  V30 18461 H 1784.21 3.12124 -3.38991 0
M  V30 18462 H 1782.52 2.93484 -2.95392 0
M  V30 18463 H 1785.12 5.18257 -1.31581 0
M  V30 18464 H 1785.46 4.16257 0.0597873 0
M  V30 18465 H 1786 3.65832 -1.56243 0
M  V30 18466 H 1782.74 4.9939 -4.24605 0
M  V30 18467 H 1782.26 5.41221 -2.58534 0
M  V30 18468 H 1783.93 5.66664 -3.12252 0
M  V30 18469 N 1784.07 0.805805 1.35442 0
M  V30 18470 C 1785.01 0.203715 2.31706 0
M  V30 18471 C 1786.01 -0.646084 1.56595 0
M  V30 18472 O 1787.21 -0.539336 1.7173 0
M  V30 18473 H 1783.59 0.0471152 0.750523 0
M  V30 18474 H 1785.56 1.03076 2.80032 0
M  V30 18475 C 1784.31 -0.633791 3.41875 0
M  V30 18476 H 1783.63 0.0107715 3.99799 0
M  V30 18477 H 1785.07 -1.02147 4.11512 0
M  V30 18478 C 1783.53 -1.79899 2.84847 0
M  V30 18479 O 1784.06 -2.89643 2.78334 0
M  V30 18480 N 1782.27 -1.61027 2.41906 0
M  V30 18481 H 1781.81 -0.717599 2.47403 0
M  V30 18482 H 1781.77 -2.39147 2.04099 0
M  V30 18483 N 1785.54 -1.47344 0.559239 0
M  V30 18484 C 1786.82 -1.95577 -0.0298268 0
M  V30 18485 C 1787.2 -1.50185 -1.4835 0
M  V30 18486 O 1786.55 -0.74162 -2.1613 0
M  V30 18487 C 1786.76 -3.48801 0.117767 0
M  V30 18488 C 1788.11 -4.24592 -0.026535 0
M  V30 18489 O 1789.13 -3.56171 0.0454163 0
M  V30 18490 O 1787.99 -5.46198 -0.181675 0
M  V30 18491 H 1785.08 -0.824597 -0.0629972 0
M  V30 18492 H 1787.63 -1.57736 0.625905 0
M  V30 18493 H 1786.4 -3.74652 1.12924 0
M  V30 18494 H 1786.03 -3.93413 -0.575483 0
M  V30 18495 N 1787.02 -0.295795 -1.54799 0
M  V30 18496 C 1788.27 0.314384 -1.9964 0
M  V30 18497 C 1788.59 1.5481 -1.1857 0
M  V30 18498 O 1787.86 1.93884 -0.280353 0
M  V30 18499 H 1786.44 0.119153 -0.737436 0
M  V30 18500 H 1789.1 -0.40592 -1.90626 0
M  V30 18501 H 1788.2 0.59002 -3.06472 0
M  V30 18502 N 1788.5 1.57583 -0.0234236 0
M  V30 18503 C 1789.45 2.09872 0.960327 0
M  V30 18504 C 1790.42 0.999466 1.32665 0
M  V30 18505 O 1791.6 1.27332 1.42095 0
M  V30 18506 C 1788.74 2.62578 2.23935 0
M  V30 18507 C 1787.86 3.86491 1.92999 0
M  V30 18508 C 1786.99 4.27611 3.15154 0
M  V30 18509 C 1786.03 5.44298 2.80011 0
M  V30 18510 N 1785.17 5.80601 3.94775 0
M  V30 18511 H 1790.01 2.93647 0.507502 0
M  V30 18512 H 1787.54 1.45147 0.238911 0
M  V30 18513 H 1789.5 2.91223 2.98739 0
M  V30 18514 H 1788.13 1.81643 2.66844 0
M  V30 18515 H 1787.18 3.6461 1.08462 0
M  V30 18516 H 1788.5 4.71377 1.63112 0
M  V30 18517 H 1787.65 4.57663 3.98284 0
M  V30 18518 H 1786.39 3.41481 3.48198 0
M  V30 18519 H 1785.39 5.13946 1.95293 0
M  V30 18520 H 1786.62 6.32122 2.4819 0
M  V30 18521 H 1784.57 4.97427 4.27671 0
M  V30 18522 H 1784.48 6.60113 3.68492 0
M  V30 18523 H 1785.75 6.15255 4.78624 0
M  V30 18524 N 1789.98 -0.249655 1.5561 0
M  V30 18525 C 1791.21 -0.994263 1.81102 0
M  V30 18526 C 1791.62 -1.79553 0.596445 0
M  V30 18527 O 1790.96 -1.78246 -0.4443 0
M  V30 18528 C 1791.02 -1.9824 2.99902 0
M  V30 18529 C 1790.69 -1.36833 4.36034 0
M  V30 18530 C 1791.68 -0.772202 5.14133 0
M  V30 18531 C 1789.37 -1.38852 4.82727 0
M  V30 18532 C 1791.36 -0.204446 6.37072 0
M  V30 18533 C 1789.05 -0.816913 6.05615 0
M  V30 18534 C 1790.05 -0.225898 6.82626 0
M  V30 18535 O 1789.74 0.336892 8.03194 0
M  V30 18536 H 1789.47 -0.298339 0.606605 0
M  V30 18537 H 1792.02 -0.278647 2.03501 0
M  V30 18538 H 1790.25 -2.73625 2.73252 0
M  V30 18539 H 1791.94 -2.59021 3.12511 0
M  V30 18540 H 1792.71 -0.749129 4.7918 0
M  V30 18541 H 1788.59 -1.83793 4.22778 0
M  V30 18542 H 1792.13 0.257492 6.97125 0
M  V30 18543 H 1788.03 -0.837303 6.40046 0
M  V30 18544 H 1788.79 0.228492 8.18181 0
M  V30 18545 N 1791.46 -1.48941 -0.515198 0
M  V30 18546 C 1792.41 -1.60958 -1.61482 0
M  V30 18547 C 1793.39 -0.46591 -1.54007 0
M  V30 18548 O 1794.58 -0.718134 -1.61777 0
M  V30 18549 C 1791.71 -1.66623 -3.00153 0
M  V30 18550 C 1790.8 -2.8652 -3.12677 0
M  V30 18551 N 1791.19 -4.10769 -2.95131 0
M  V30 18552 C 1789.49 -2.84161 -3.43756 0
M  V30 18553 C 1790.19 -4.9129 -3.11463 0
M  V30 18554 N 1789.16 -4.24384 -3.39704 0
M  V30 18555 H 1792.97 -2.54756 -1.46549 0
M  V30 18556 H 1790.48 -1.45517 -0.721007 0
M  V30 18557 H 1792.48 -1.73328 -3.79161 0
M  V30 18558 H 1791.14 -0.739523 -3.16166 0
M  V30 18559 H 1792.15 -4.40974 -2.71593 0
M  V30 18560 H 1788.83 -2.00809 -3.66035 0
M  V30 18561 H 1790.22 -5.99948 -3.0251 0
M  V30 18562 N 1792.94 0.765193 -1.37777 0
M  V30 18563 C 1794.18 1.52623 -1.33545 0
M  V30 18564 C 1794.51 1.94043 0.077992 0
M  V30 18565 O 1793.79 1.64566 1.03673 0
M  V30 18566 C 1794.07 2.78679 -2.28057 0
M  V30 18567 C 1793.93 2.43471 -3.78209 0
M  V30 18568 C 1795.24 3.80646 -2.20899 0
M  V30 18569 H 1792.36 0.553678 -0.486425 0
M  V30 18570 H 1795.01 0.877326 -1.68532 0
M  V30 18571 H 1793.16 3.3405 -1.9835 0
M  V30 18572 H 1794.83 1.93965 -4.1854 0
M  V30 18573 H 1793.07 1.76081 -3.96457 0
M  V30 18574 H 1793.74 3.33609 -4.39783 0
M  V30 18575 H 1796.22 3.34786 -2.47099 0
M  V30 18576 H 1795.09 4.6656 -2.89159 0
M  V30 18577 H 1795.35 4.25389 -1.20403 0
M  V30 18578 N 1794.41 1.22455 0.992094 0
M  V30 18579 C 1795.66 1.05115 1.73432 0
M  V30 18580 C 1795.99 -0.412642 1.89765 0
M  V30 18581 O 1795.27 -1.3059 1.44141 0
M  V30 18582 C 1795.55 1.76385 3.13943 0
M  V30 18583 C 1795.4 3.30364 3.05253 0
M  V30 18584 C 1796.72 1.51688 4.13133 0
M  V30 18585 H 1793.84 0.383261 0.629508 0
M  V30 18586 H 1796.48 1.50805 1.15576 0
M  V30 18587 H 1794.63 1.37544 3.63337 0
M  V30 18588 H 1796.31 3.78655 2.63474 0
M  V30 18589 H 1794.55 3.6 2.42038 0
M  V30 18590 H 1795.22 3.75409 4.04687 0
M  V30 18591 H 1797.7 1.85429 3.72499 0
M  V30 18592 H 1796.57 2.04049 5.09564 0
M  V30 18593 H 1796.83 0.449654 4.39807 0
M  V30 18594 N 1795.89 -1.18905 1.03437 0
M  V30 18595 C 1797.31 -1.4075 0.752444 0
M  V30 18596 C 1797.51 -1.90361 -0.660679 0
M  V30 18597 O 1796.56 -2.08389 -1.42584 0
M  V30 18598 C 1797.88 -2.4138 1.79321 0
M  V30 18599 C 1799.42 -2.55118 1.81339 0
M  V30 18600 C 1799.9 -3.59007 2.8439 0
M  V30 18601 N 1801.39 -3.66508 2.83242 0
M  V30 18602 C 1802.13 -4.46602 3.59631 0
M  V30 18603 N 1801.62 -5.30355 4.45753 0
M  V30 18604 N 1803.41 -4.41304 3.48148 0
M  V30 18605 H 1795.57 -0.850259 1.94639 0
M  V30 18606 H 1797.83 -0.435962 0.841808 0
M  V30 18607 H 1797.53 -2.11963 2.80651 0
M  V30 18608 H 1797.41 -3.40636 1.62008 0
M  V30 18609 H 1799.8 -2.83856 0.806847 0
M  V30 18610 H 1799.88 -1.55996 2.02728 0
M  V30 18611 H 1799.52 -3.31011 3.8522 0
M  V30 18612 H 1799.45 -4.57792 2.60258 0
M  V30 18613 H 1801.94 -3.06697 2.20784 0
M  V30 18614 H 1802.25 -5.88603 5.00766 0
M  V30 18615 H 1800.6 -5.29797 4.49823 0
M  V30 18616 H 1803.79 -3.74918 2.80275 0
M  V30 18617 H 1803.96 -5.03483 4.07932 0
M  V30 18618 N 1797.37 -0.812977 -1.35013 0
M  V30 18619 C 1798.62 -0.396345 -1.98583 0
M  V30 18620 C 1798.94 1.0381 -1.6448 0
M  V30 18621 O 1798.2 1.73604 -0.903344 0
M  V30 18622 C 1798.5 -0.534083 -3.53387 0
M  V30 18623 C 1798.16 -1.93278 -4.07375 0
M  V30 18624 C 1796.83 -2.31543 -4.21831 0
M  V30 18625 C 1799.18 -2.84756 -4.36535 0
M  V30 18626 C 1796.51 -3.60641 -4.62769 0
M  V30 18627 C 1798.86 -4.13308 -4.78915 0
M  V30 18628 C 1797.52 -4.51563 -4.91576 0
M  V30 18629 H 1796.79 -0.145033 -0.726668 0
M  V30 18630 H 1799.44 -1.035 -1.61121 0
M  V30 18631 H 1797.74 0.188002 -3.91349 0
M  V30 18632 H 1799.44 -0.192396 -4.00538 0
M  V30 18633 H 1796.03 -1.62551 -3.96579 0
M  V30 18634 H 1800.22 -2.56441 -4.24914 0
M  V30 18635 H 1795.47 -3.9012 -4.70761 0
M  V30 18636 H 1799.65 -4.84287 -5.00439 0
M  V30 18637 H 1797.27 -5.51649 -5.23056 0
M  V30 18638 N 1798.85 1.47045 -0.567045 0
M  V30 18639 C 1800.08 2.06835 -0.0518309 0
M  V30 18640 C 1800.49 1.41823 1.24626 0
M  V30 18641 O 1799.85 0.518102 1.74991 0
M  V30 18642 C 1799.9 3.6124 0.137142 0
M  V30 18643 O 1799.62 4.23817 -1.10955 0
M  V30 18644 C 1801.12 4.37921 0.688511 0
M  V30 18645 H 1798.34 0.669111 -0.0503138 0
M  V30 18646 H 1800.88 1.88906 -0.783258 0
M  V30 18647 H 1799.04 3.7865 0.818733 0
M  V30 18648 H 1799.45 5.16484 -0.913475 0
M  V30 18649 H 1800.93 5.46603 0.769984 0
M  V30 18650 H 1801.4 4.0488 1.70201 0
M  V30 18651 H 1802.01 4.25279 0.0423004 0
M  V30 18652 N 1800.33 0.304 1.5464 0
M  V30 18653 C 1801.74 -0.0492924 1.59524 0
M  V30 18654 C 1801.94 -1.52164 1.32093 0
M  V30 18655 O 1801 -2.27483 1.0958 0
M  V30 18656 C 1802.31 0.351346 2.9864 0
M  V30 18657 C 1803.86 0.300362 3.11555 0
M  V30 18658 C 1804.33 0.675867 4.52986 0
M  V30 18659 N 1805.82 0.628517 4.58916 0
M  V30 18660 C 1806.56 0.891504 5.66427 0
M  V30 18661 N 1806.06 1.22061 6.81962 0
M  V30 18662 N 1807.85 0.818366 5.56111 0
M  V30 18663 H 1800 1.26351 1.70731 0
M  V30 18664 H 1802.26 0.512457 0.797554 0
M  V30 18665 H 1801.97 1.37642 3.23647 0
M  V30 18666 H 1801.84 -0.293504 3.76056 0
M  V30 18667 H 1804.23 -0.715468 2.86295 0
M  V30 18668 H 1804.31 0.979876 2.36288 0
M  V30 18669 H 1803.95 1.68952 4.78976 0
M  V30 18670 H 1803.88 -0.0257498 5.26594 0
M  V30 18671 H 1806.38 0.385204 3.75932 0
M  V30 18672 H 1806.69 1.40718 7.5988 0
M  V30 18673 H 1805.03 1.25868 6.83507 0
M  V30 18674 H 1808.22 0.560885 4.64728 0
M  V30 18675 H 1808.4 1.02669 6.39815 0
M  V30 18676 N 1801.8 -1.57568 0.0317802 0
M  V30 18677 C 1803.03 -1.9662 -0.659953 0
M  V30 18678 C 1803.45 -0.908334 -1.64715 0
M  V30 18679 O 1802.81 0.130491 -1.8083 0
M  V30 18680 C 1802.86 -3.34765 -1.34033 0
M  V30 18681 O 1801.96 -3.31317 -2.45566 0
M  V30 18682 H 1801.3 -0.641024 -0.17316 0
M  V30 18683 H 1803.83 -2.04382 0.0944231 0
M  V30 18684 H 1803.84 -3.71056 -1.69651 0
M  V30 18685 H 1802.52 -4.11302 -0.616716 0
M  V30 18686 H 1801.1 -3.06746 -2.1204 0
M  V30 18687 N 1803.28 0.241399 -1.5574 0
M  V30 18688 C 1804.53 0.96675 -1.77478 0
M  V30 18689 C 1804.85 1.85644 -0.596757 0
M  V30 18690 O 1804.12 1.92035 0.387236 0
M  V30 18691 H 1802.7 0.35995 -0.654557 0
M  V30 18692 H 1805.36 0.258023 -1.93185 0
M  V30 18693 H 1804.46 1.58524 -2.68843 0
M  V30 18694 N 1804.76 1.49212 0.507292 0
M  V30 18695 C 1806.01 1.58068 1.25932 0
M  V30 18696 C 1806.33 0.266461 1.93171 0
M  V30 18697 O 1805.6 -0.713743 1.82435 0
M  V30 18698 H 1804.18 0.582384 0.467801 0
M  V30 18699 H 1806.84 1.85804 0.58847 0
M  V30 18700 H 1805.94 2.37351 2.0266 0
M  V30 18701 N 1806.24 -0.757876 1.38181 0
M  V30 18702 C 1807.19 -1.8929 1.35174 0
M  V30 18703 C 1808.18 -1.67716 0.238284 0
M  V30 18704 O 1809.39 -1.75336 0.407085 0
M  V30 18705 H 1805.76 -0.622712 0.421585 0
M  V30 18706 H 1807.73 -1.88943 2.30961 0
M  V30 18707 C 1806.48 -3.26723 1.18942 0
M  V30 18708 H 1805.8 -3.43909 2.0388 0
M  V30 18709 H 1807.24 -4.06401 1.20891 0
M  V30 18710 C 1805.7 -3.3674 -0.103978 0
M  V30 18711 O 1806.23 -3.86838 -1.08256 0
M  V30 18712 N 1804.44 -2.90163 -0.159367 0
M  V30 18713 H 1803.99 -2.49583 0.637642 0
M  V30 18714 H 1803.94 -2.97245 -1.02435 0
M  V30 18715 N 1807.72 -1.22979 -0.985586 0
M  V30 18716 C 1808.68 -1.00763 -2.05862 0
M  V30 18717 C 1809.68 0.02864 -1.60774 0
M  V30 18718 O 1810.87 -0.210593 -1.72922 0
M  V30 18719 C 1808 -0.523547 -3.36856 0
M  V30 18720 H 1809.19 -1.95982 -2.27004 0
M  V30 18721 H 1806.75 -1.0495 -1.15824 0
M  V30 18722 H 1807.48 0.432658 -3.21401 0
M  V30 18723 H 1807.27 -1.27127 -3.70919 0
M  V30 18724 H 1808.76 -0.388591 -4.15788 0
M  V30 18725 N 1809.19 1.18355 -1.04066 0
M  V30 18726 C 1810.42 1.92275 -0.76406 0
M  V30 18727 C 1810.84 1.76176 0.678777 0
M  V30 18728 O 1810.19 1.0914 1.46269 0
M  V30 18729 C 1810.25 3.43686 -1.12083 0
M  V30 18730 O 1809.97 3.59277 -2.50702 0
M  V30 18731 C 1811.47 4.34705 -0.868726 0
M  V30 18732 H 1808.69 0.610406 -0.278649 0
M  V30 18733 H 1811.23 1.50153 -1.38832 0
M  V30 18734 H 1809.39 3.83596 -0.541528 0
M  V30 18735 H 1809.8 4.53007 -2.64357 0
M  V30 18736 H 1811.27 5.39497 -1.16821 0
M  V30 18737 H 1811.75 4.3876 0.196501 0
M  V30 18738 H 1812.36 4.00491 -1.43132 0
M  V30 18739 N 1810.67 0.820125 1.3458 0
M  V30 18740 C 1811.6 0.254709 2.32107 0
M  V30 18741 C 1812.58 -0.6273 1.58111 0
M  V30 18742 O 1813.77 -0.554759 1.86108 0
M  V30 18743 C 1810.9 -0.586541 3.42311 0
M  V30 18744 C 1809.85 0.198096 4.27541 0
M  V30 18745 C 1809.18 -0.765718 5.29189 0
M  V30 18746 C 1810.48 1.40472 5.03056 0
M  V30 18747 H 1812.17 1.06955 2.79644 0
M  V30 18748 H 1809.72 0.515756 1.34447 0
M  V30 18749 H 1811.67 -0.992259 4.09551 0
M  V30 18750 H 1810.4 -1.4344 2.93415 0
M  V30 18751 H 1809.05 0.585149 3.619 0
M  V30 18752 H 1808.7 -1.60946 4.76556 0
M  V30 18753 H 1808.4 -0.244954 5.87089 0
M  V30 18754 H 1809.93 -1.16935 5.99298 0
M  V30 18755 H 1811.34 1.07316 5.63166 0
M  V30 18756 H 1809.74 1.86092 5.70517 0
M  V30 18757 H 1810.81 2.18437 4.32913 0
M  V30 18758 N 1812.15 -1.46743 0.574835 0
M  V30 18759 C 1813.08 -2.2832 -0.20062 0
M  V30 18760 C 1814.1 -1.3805 -0.862898 0
M  V30 18761 O 1815.28 -1.6272 -0.733785 0
M  V30 18762 C 1812.38 -3.1285 -1.303 0
M  V30 18763 C 1811.56 -4.31195 -0.734153 0
M  V30 18764 C 1810.62 -4.97183 -1.72324 0
M  V30 18765 O 1809.64 -5.55025 -1.26239 0
M  V30 18766 N 1810.84 -4.93476 -3.05714 0
M  V30 18767 H 1813.61 -2.95513 0.499231 0
M  V30 18768 H 1811.17 -1.56568 0.412077 0
M  V30 18769 H 1813.16 -3.53861 -1.96378 0
M  V30 18770 H 1811.73 -2.47784 -1.90583 0
M  V30 18771 H 1810.95 -3.94063 0.103888 0
M  V30 18772 H 1812.24 -5.07704 -0.333751 0
M  V30 18773 H 1811.64 -4.47715 -3.45786 0
M  V30 18774 H 1810.2 -5.38453 -3.67304 0
M  V30 18775 N 1813.63 -0.312197 -1.54477 0
M  V30 18776 C 1814.87 0.294208 -2.00655 0
M  V30 18777 C 1815.21 1.52674 -1.20018 0
M  V30 18778 O 1814.48 1.92481 -0.279517 0
M  V30 18779 C 1814.77 0.639677 -3.54373 0
M  V30 18780 C 1814.62 -0.602773 -4.45743 0
M  V30 18781 C 1815.94 1.46181 -4.15113 0
M  V30 18782 H 1813.06 0.10546 -0.729416 0
M  V30 18783 H 1815.7 -0.426519 -1.85151 0
M  V30 18784 H 1813.85 1.25371 -3.67715 0
M  V30 18785 H 1815.52 -1.24116 -4.44289 0
M  V30 18786 H 1813.76 -1.23386 -4.15882 0
M  V30 18787 H 1814.43 -0.316748 -5.5109 0
M  V30 18788 H 1816.91 0.942887 -4.05276 0
M  V30 18789 H 1815.79 1.67231 -5.22805 0
M  V30 18790 H 1816.05 2.45448 -3.67706 0
M  V30 18791 N 1815.11 1.57549 -0.040136 0
M  V30 18792 C 1816.38 1.83571 0.675355 0
M  V30 18793 C 1816.76 0.926313 1.89691 0
M  V30 18794 O 1816.11 -0.0153869 2.28495 0
M  V30 18795 C 1816.32 3.33046 1.04313 0
M  V30 18796 C 1817.67 3.99791 1.43011 0
M  V30 18797 O 1818.69 3.37607 1.13579 0
M  V30 18798 O 1817.55 5.09412 1.97893 0
M  V30 18799 H 1814.65 0.75729 0.332325 0
M  V30 18800 H 1817.19 1.69561 -0.0686584 0
M  V30 18801 H 1815.96 3.90912 0.174189 0
M  V30 18802 H 1815.59 3.52203 1.84495 0
M  V30 18803 N 1816.58 -0.233136 1.55866 0
M  V30 18804 C 1817.81 -0.980602 1.82754 0
M  V30 18805 C 1818.23 -1.77624 0.618988 0
M  V30 18806 O 1817.59 -1.76074 -0.432148 0
M  V30 18807 C 1817.64 -1.88319 3.07519 0
M  V30 18808 O 1816.74 -2.97692 2.85401 0
M  V30 18809 H 1816.09 -0.278295 0.602867 0
M  V30 18810 H 1818.62 -0.249956 2.03067 0
M  V30 18811 H 1818.63 -2.29523 3.37318 0
M  V30 18812 H 1817.3 -1.29831 3.95116 0
M  V30 18813 H 1815.88 -2.60517 2.66805 0
M  V30 18814 N 1818.06 -1.49479 -0.499372 0
M  V30 18815 C 1819.31 -1.60257 -1.25256 0
M  V30 18816 C 1819.66 -0.286337 -1.90257 0
M  V30 18817 O 1818.96 0.713567 -1.77817 0
M  V30 18818 C 1819.15 -2.70007 -2.3416 0
M  V30 18819 C 1818.98 -4.12175 -1.79839 0
M  V30 18820 C 1817.75 -4.78942 -1.61068 0
M  V30 18821 C 1819.95 -4.97354 -1.30933 0
M  V30 18822 N 1817.93 -6.05419 -1.01693 0
M  V30 18823 C 1819.3 -6.14324 -0.837025 0
M  V30 18824 C 1821.36 -4.83342 -1.19521 0
M  V30 18825 C 1820.06 -7.18823 -0.261894 0
M  V30 18826 C 1822.09 -5.87991 -0.634047 0
M  V30 18827 C 1821.45 -7.0419 -0.17198 0
M  V30 18828 H 1817.55 -0.640778 -0.44825 0
M  V30 18829 H 1820.13 -1.86491 -0.559393 0
M  V30 18830 H 1818.3 -2.45543 -3.00937 0
M  V30 18831 H 1820.03 -2.70298 -3.012 0
M  V30 18832 H 1816.79 -4.35767 -1.85483 0
M  V30 18833 H 1817.21 -6.72951 -0.73928 0
M  V30 18834 H 1821.85 -3.93817 -1.53844 0
M  V30 18835 H 1819.57 -8.08046 0.0935953 0
M  V30 18836 H 1823.16 -5.79209 -0.548506 0
M  V30 18837 H 1822.04 -7.83784 0.255466 0
M  V30 18838 N 1819.54 0.750537 -1.38581 0
M  V30 18839 C 1820.95 1.32802 -1.31227 0
M  V30 18840 C 1821.3 1.96176 0.0305372 0
M  V30 18841 O 1820.43 1.95272 0.932614 0
M  V30 18842 C 1821.02 2.41468 -2.37652 0
M  V30 18843 C 1819.58 2.94929 -2.33867 0
M  V30 18844 C 1818.73 1.68339 -2.20357 0
M  V30 18845 H 1821.68 0.549187 -1.48895 0
M  V30 18846 H 1821.7 3.21481 -2.03544 0
M  V30 18847 H 1821.21 1.95313 -3.35372 0
M  V30 18848 H 1819.31 3.45404 -1.39738 0
M  V30 18849 H 1819.43 3.491 -3.28125 0
M  V30 18850 H 1817.79 1.92082 -1.67262 0
M  V30 18851 H 1818.57 1.24258 -3.20023 0
M  V30 18852 N 1821.02 1.235 0.979051 0
M  V30 18853 C 1822.27 1.06949 1.72307 0
M  V30 18854 C 1822.6 -0.392491 1.90192 0
M  V30 18855 O 1821.87 -1.29054 1.45518 0
M  V30 18856 C 1822.16 1.79705 3.12055 0
M  V30 18857 C 1822.01 3.33583 3.01732 0
M  V30 18858 C 1823.33 1.56062 4.11501 0
M  V30 18859 H 1820.45 0.389917 0.625407 0
M  V30 18860 H 1823.09 1.52022 1.1397 0
M  V30 18861 H 1821.24 1.4139 3.61858 0
M  V30 18862 H 1822.91 3.81428 2.59443 0
M  V30 18863 H 1821.15 3.62547 2.38206 0
M  V30 18864 H 1821.83 3.79681 4.00683 0
M  V30 18865 H 1824.3 1.8937 3.70511 0
M  V30 18866 H 1823.18 2.09442 5.07371 0
M  V30 18867 H 1823.44 0.496276 4.39306 0
M  V30 18868 N 1822.5 -1.17802 1.04693 0
M  V30 18869 C 1823.75 -1.87271 0.749172 0
M  V30 18870 C 1824.06 -1.81614 -0.726342 0
M  V30 18871 O 1825.27 -2.46506 -1.13785 0
M  V30 18872 C 1823.72 -3.35992 1.28986 0
M  V30 18873 C 1823.33 -3.50163 2.79446 0
M  V30 18874 C 1825.07 -4.10821 1.06892 0
M  V30 18875 C 1822.98 -4.92878 3.26841 0
M  V30 18876 H 1821.91 -0.701451 0.276554 0
M  V30 18877 H 1824.56 -1.33065 1.26357 0
M  V30 18878 H 1822.94 -3.89705 0.703298 0
M  V30 18879 H 1824.12 -3.06692 3.43914 0
M  V30 18880 H 1822.43 -2.88747 3.00023 0
M  V30 18881 H 1825.03 -5.16098 1.39809 0
M  V30 18882 H 1825.37 -4.163 0.00644311 0
M  V30 18883 H 1825.91 -3.633 1.62043 0
M  V30 18884 H 1822.64 -4.92572 4.32497 0
M  V30 18885 H 1822.16 -5.3704 2.67112 0
M  V30 18886 H 1823.84 -5.61624 3.21227 0
M  V30 18887 N 1823.98 -0.827251 -1.34143 0
M  V30 18888 C 1824.89 -0.254285 -2.33218 0
M  V30 18889 C 1825.9 0.613602 -1.62822 0
M  V30 18890 O 1827.08 0.520477 -1.94558 0
M  V30 18891 C 1824.14 0.570817 -3.41969 0
M  V30 18892 C 1823.2 -0.319978 -4.28106 0
M  V30 18893 C 1822.44 0.465839 -5.31663 0
M  V30 18894 O 1822.66 1.6987 -5.44518 0
M  V30 18895 O 1821.59 -0.154094 -6.01703 0
M  V30 18896 H 1825.42 -1.07441 -2.8406 0
M  V30 18897 H 1823 -0.589493 -1.37278 0
M  V30 18898 H 1824.89 1.04009 -4.08363 0
M  V30 18899 H 1823.56 1.3682 -2.93363 0
M  V30 18900 H 1822.47 -0.836843 -3.6462 0
M  V30 18901 H 1823.8 -1.08183 -4.80164 0
M  V30 18902 N 1825.45 1.46436 -0.582609 0
M  V30 18903 C 1826.87 1.5772 -0.244278 0
M  V30 18904 C 1827.07 1.57772 1.2534 0
M  V30 18905 O 1826.13 1.49463 2.03512 0
M  V30 18906 C 1827.44 2.87122 -0.893398 0
M  V30 18907 C 1828.99 3.00753 -0.866979 0
M  V30 18908 C 1829.46 4.32891 -1.49564 0
M  V30 18909 N 1830.95 4.3959 -1.45998 0
M  V30 18910 C 1831.69 5.40449 -1.91578 0
M  V30 18911 N 1831.18 6.47983 -2.45132 0
M  V30 18912 N 1832.98 5.3165 -1.82496 0
M  V30 18913 H 1825.13 1.44646 -1.55536 0
M  V30 18914 H 1827.39 0.689972 -0.650109 0
M  V30 18915 H 1827.1 2.92894 -1.94695 0
M  V30 18916 H 1826.97 3.75056 -0.40156 0
M  V30 18917 H 1829.36 2.94563 0.177954 0
M  V30 18918 H 1829.44 2.14295 -1.39684 0
M  V30 18919 H 1829.08 4.39839 -2.53977 0
M  V30 18920 H 1829.01 5.18124 -0.94101 0
M  V30 18921 H 1831.5 3.62479 -1.06851 0
M  V30 18922 H 1831.82 7.21154 -2.7777 0
M  V30 18923 H 1830.16 6.48803 -2.49157 0
M  V30 18924 H 1833.35 4.46543 -1.40416 0
M  V30 18925 H 1833.53 6.1011 -2.18334 0
M  V30 18926 N 1826.93 0.320385 1.54309 0
M  V30 18927 C 1828.16 -0.284784 2.04628 0
M  V30 18928 C 1828.57 -1.46578 1.1963 0
M  V30 18929 O 1827.91 -1.8239 0.219023 0
M  V30 18930 C 1827.97 -0.785529 3.50813 0
M  V30 18931 C 1827.64 0.272743 4.56185 0
M  V30 18932 C 1828.64 1.10775 5.07961 0
M  V30 18933 C 1826.32 0.420018 5.00541 0
M  V30 18934 C 1828.31 2.0758 6.02652 0
M  V30 18935 C 1826 1.39148 5.95047 0
M  V30 18936 C 1827 2.21784 6.45988 0
M  V30 18937 O 1826.69 3.17281 7.38639 0
M  V30 18938 H 1826.42 -0.0629681 0.673061 0
M  V30 18939 H 1828.97 0.463698 2.00097 0
M  V30 18940 H 1827.2 -1.58487 3.52731 0
M  V30 18941 H 1828.89 -1.3087 3.84224 0
M  V30 18942 H 1829.66 1.00494 4.74474 0
M  V30 18943 H 1825.54 -0.21329 4.60506 0
M  V30 18944 H 1829.08 2.72119 6.42337 0
M  V30 18945 H 1824.98 1.49494 6.2795 0
M  V30 18946 H 1825.75 3.12483 7.56503 0
M  V30 18947 N 1828.41 -1.57525 0.0484906 0
M  V30 18948 C 1829.82 -1.80221 -0.487592 0
M  V30 18949 C 1830.17 -0.96049 -1.71082 0
M  V30 18950 O 1829.3 -0.17632 -2.1568 0
M  V30 18951 C 1829.89 -3.26864 -0.89136 0
M  V30 18952 C 1828.45 -3.50487 -1.37244 0
M  V30 18953 C 1827.6 -2.75129 -0.346348 0
M  V30 18954 H 1830.55 -1.5631 0.274392 0
M  V30 18955 H 1830.57 -3.37637 -1.75446 0
M  V30 18956 H 1830.08 -3.881 -0.000880924 0
M  V30 18957 H 1828.18 -2.94528 -2.2822 0
M  V30 18958 H 1828.3 -4.592 -1.36645 0
M  V30 18959 H 1826.66 -2.41185 -0.818653 0
M  V30 18960 H 1827.44 -3.3909 0.536 0
M  V30 18961 N 1829.89 0.224867 -1.55988 0
M  V30 18962 C 1830.85 1.26214 -1.91318 0
M  V30 18963 C 1831.85 1.39973 -0.791472 0
M  V30 18964 O 1833.04 1.38295 -1.05926 0
M  V30 18965 C 1830.17 2.63648 -2.16107 0
M  V30 18966 H 1831.37 0.960933 -2.84088 0
M  V30 18967 H 1828.92 0.465138 -1.49218 0
M  V30 18968 H 1829.65 2.98873 -1.25878 0
M  V30 18969 H 1829.44 2.5504 -2.97821 0
M  V30 18970 H 1830.93 3.38505 -2.44548 0
M  V30 18971 N 1831.37 1.49742 0.491438 0
M  V30 18972 C 1832.61 1.59395 1.24248 0
M  V30 18973 C 1832.93 0.286934 1.92877 0
M  V30 18974 O 1832.2 -0.694353 1.83182 0
M  V30 18975 H 1830.78 0.587313 0.461598 0
M  V30 18976 H 1833.45 1.86417 0.56873 0
M  V30 18977 H 1832.54 2.39487 2.00131 0
M  V30 18978 N 1832.84 -0.743177 1.38977 0
M  V30 18979 C 1834.26 -1.04764 1.20402 0
M  V30 18980 C 1834.46 -2.01411 0.0599139 0
M  V30 18981 O 1833.52 -2.45485 -0.591026 0
M  V30 18982 C 1834.83 -1.61775 2.53474 0
M  V30 18983 C 1836.38 -1.73896 2.60248 0
M  V30 18984 C 1836.85 -2.34318 3.93522 0
M  V30 18985 N 1838.34 -2.41737 3.95117 0
M  V30 18986 C 1839.08 -2.89407 4.95006 0
M  V30 18987 N 1838.57 -3.37034 6.05293 0
M  V30 18988 N 1840.37 -2.88542 4.8239 0
M  V30 18989 H 1832.52 -0.102036 2.12155 0
M  V30 18990 H 1834.78 -0.107893 0.94184 0
M  V30 18991 H 1834.49 -0.982274 3.37704 0
M  V30 18992 H 1834.36 -2.60696 2.72612 0
M  V30 18993 H 1836.75 -2.36568 1.76407 0
M  V30 18994 H 1836.83 -0.736509 2.44968 0
M  V30 18995 H 1836.47 -1.72276 4.7779 0
M  V30 18996 H 1836.4 -3.35224 4.06119 0
M  V30 18997 H 1838.89 -2.08064 3.15464 0
M  V30 18998 H 1839.21 -3.71895 6.77432 0
M  V30 18999 H 1837.55 -3.35064 6.08898 0
M  V30 19000 H 1840.74 -2.50651 3.95337 0
M  V30 19001 H 1840.92 -3.25379 5.60386 0
M  V30 19002 N 1834.32 -1.24018 -0.972487 0
M  V30 19003 C 1835.25 -0.986185 -2.06899 0
M  V30 19004 C 1836.27 0.0426574 -1.62744 0
M  V30 19005 O 1837.46 -0.193816 -1.77445 0
M  V30 19006 C 1834.56 -0.46551 -3.35688 0
M  V30 19007 C 1833.73 -1.55637 -4.08774 0
M  V30 19008 C 1832.79 -1.03918 -5.15837 0
M  V30 19009 O 1831.81 -1.72986 -5.42277 0
M  V30 19010 N 1833.02 0.128891 -5.80357 0
M  V30 19011 H 1835.78 -1.93025 -2.29263 0
M  V30 19012 H 1833.34 -1.14983 -1.13976 0
M  V30 19013 H 1835.33 -0.104379 -4.04565 0
M  V30 19014 H 1833.9 0.384166 -3.1023 0
M  V30 19015 H 1833.12 -2.08991 -3.3424 0
M  V30 19016 H 1834.41 -2.28973 -4.54366 0
M  V30 19017 H 1833.81 0.706438 -5.61272 0
M  V30 19018 H 1832.37 0.431211 -6.50372 0
M  V30 19019 N 1835.8 1.17245 -1.05316 0
M  V30 19020 C 1836.73 2.23491 -0.67631 0
M  V30 19021 C 1837.71 1.66937 0.326507 0
M  V30 19022 O 1838.9 1.93127 0.203823 0
M  V30 19023 C 1836.03 3.47262 -0.0515755 0
M  V30 19024 C 1834.98 4.16646 -0.97929 0
M  V30 19025 C 1834.31 5.34254 -0.218369 0
M  V30 19026 C 1835.61 4.68736 -2.30399 0
M  V30 19027 H 1837.3 2.55269 -1.56455 0
M  V30 19028 H 1834.85 1.22699 -0.753714 0
M  V30 19029 H 1836.8 4.20805 0.223865 0
M  V30 19030 H 1835.52 3.14755 0.871614 0
M  V30 19031 H 1834.18 3.45017 -1.23931 0
M  V30 19032 H 1833.83 4.97998 0.707624 0
M  V30 19033 H 1833.53 5.81615 -0.83654 0
M  V30 19034 H 1835.05 6.1058 0.0497574 0
M  V30 19035 H 1836.47 5.3391 -2.08837 0
M  V30 19036 H 1834.87 5.2668 -2.87625 0
M  V30 19037 H 1835.94 3.85477 -2.94169 0
M  V30 19038 N 1837.28 0.834353 1.33702 0
M  V30 19039 C 1838.51 0.441228 2.02141 0
M  V30 19040 C 1838.92 -0.956226 1.62794 0
M  V30 19041 O 1838.28 -1.6207 0.839027 0
M  V30 19042 C 1838.33 0.547035 3.57337 0
M  V30 19043 O 1838.05 1.88942 3.95262 0
M  V30 19044 C 1839.55 0.150282 4.43045 0
M  V30 19045 H 1836.77 0.175681 0.647593 0
M  V30 19046 H 1839.32 1.12568 1.7073 0
M  V30 19047 H 1837.47 -0.0894532 3.87297 0
M  V30 19048 H 1837.88 1.87174 4.89965 0
M  V30 19049 H 1839.36 0.275374 5.51313 0
M  V30 19050 H 1839.84 -0.907361 4.29725 0
M  V30 19051 H 1840.44 0.761025 4.18436 0
M  V30 19052 N 1838.76 -1.46125 0.590367 0
M  V30 19053 C 1840.01 -2.01555 0.0765543 0
M  V30 19054 C 1840.32 -1.46661 -1.29422 0
M  V30 19055 O 1841.52 -1.93958 -1.8998 0
M  V30 19056 C 1839.98 -3.59797 0.0862369 0
M  V30 19057 C 1839.59 -4.23687 1.4558 0
M  V30 19058 C 1841.33 -4.22856 -0.373232 0
M  V30 19059 C 1839.24 -5.7403 1.42279 0
M  V30 19060 H 1838.17 -0.75359 0.0248501 0
M  V30 19061 H 1840.82 -1.67778 0.743149 0
M  V30 19062 H 1839.2 -3.90684 -0.646675 0
M  V30 19063 H 1840.38 -4.04398 2.20905 0
M  V30 19064 H 1838.69 -3.72753 1.85592 0
M  V30 19065 H 1841.29 -5.33073 -0.416837 0
M  V30 19066 H 1841.63 -3.92325 -1.39237 0
M  V30 19067 H 1842.16 -3.96622 0.305859 0
M  V30 19068 H 1838.9 -6.09234 2.41898 0
M  V30 19069 H 1838.42 -5.95561 0.711862 0
M  V30 19070 H 1840.1 -6.36896 1.13899 0
M  V30 19071 N 1840.23 -0.328564 -1.54137 0
M  V30 19072 C 1841.48 0.272505 -2.00658 0
M  V30 19073 C 1841.81 1.51748 -1.21666 0
M  V30 19074 O 1841.06 1.93566 -0.288224 0
M  V30 19075 C 1841.36 0.646813 -3.51498 0
M  V30 19076 C 1841.03 -0.499561 -4.48124 0
M  V30 19077 C 1839.69 -0.8142 -4.74262 0
M  V30 19078 C 1842.04 -1.26936 -5.05506 0
M  V30 19079 C 1839.37 -1.90127 -5.55039 0
M  V30 19080 C 1841.72 -2.34656 -5.87469 0
M  V30 19081 C 1840.39 -2.66696 -6.11906 0
M  V30 19082 H 1839.66 0.0997168 -0.73426 0
M  V30 19083 H 1842.3 -0.453377 -1.86056 0
M  V30 19084 H 1840.61 1.45319 -3.63854 0
M  V30 19085 H 1842.31 1.12352 -3.84939 0
M  V30 19086 H 1838.9 -0.244255 -4.27903 0
M  V30 19087 H 1843.08 -1.03954 -4.85291 0
M  V30 19088 H 1838.34 -2.15392 -5.72203 0
M  V30 19089 H 1842.51 -2.94745 -6.3095 0
M  V30 19090 H 1840.14 -3.51058 -6.74287 0
M  V30 19091 N 1841.71 1.57497 -0.0568439 0
M  V30 19092 C 1842.66 2.1305 0.933398 0
M  V30 19093 C 1843.65 1.06369 1.31841 0
M  V30 19094 O 1844.86 1.2477 1.2974 0
M  V30 19095 H 1841.24 0.681037 0.318893 0
M  V30 19096 H 1843.21 2.95141 0.439796 0
M  V30 19097 C 1841.96 2.69502 2.1969 0
M  V30 19098 H 1841.28 3.51255 1.90945 0
M  V30 19099 H 1842.72 3.11986 2.87124 0
M  V30 19100 C 1841.18 1.63547 2.94541 0
M  V30 19101 O 1841.71 1.0516 3.87691 0
M  V30 19102 N 1839.91 1.34933 2.57374 0
M  V30 19103 H 1839.46 1.82601 1.81699 0
M  V30 19104 H 1839.42 0.642701 3.07761 0
M  V30 19105 N 1843.19 -0.216591 1.56105 0
M  V30 19106 C 1844.42 -0.961164 1.83784 0
M  V30 19107 C 1844.84 -1.76957 0.637792 0
M  V30 19108 O 1844.2 -1.76523 -0.413449 0
M  V30 19109 C 1844.25 -1.85047 3.095 0
M  V30 19110 O 1843.35 -2.94648 2.88542 0
M  V30 19111 H 1842.69 -0.271885 0.605784 0
M  V30 19112 H 1845.22 -0.228404 2.03321 0
M  V30 19113 H 1845.23 -2.25932 3.39733 0
M  V30 19114 H 1843.91 -1.25633 3.96471 0
M  V30 19115 H 1842.48 -2.57673 2.69554 0
M  V30 19116 N 1844.67 -1.5 -0.48349 0
M  V30 19117 C 1845.6 -1.64096 -1.60016 0
M  V30 19118 C 1846.61 -0.522896 -1.54174 0
M  V30 19119 O 1847.8 -0.795621 -1.59788 0
M  V30 19120 C 1844.9 -1.5979 -2.98865 0
M  V30 19121 C 1844.08 -2.87422 -3.29708 0
M  V30 19122 C 1843.13 -2.75928 -4.48051 0
M  V30 19123 O 1842.16 -3.49878 -4.4897 0
M  V30 19124 N 1843.36 -1.88648 -5.48992 0
M  V30 19125 H 1846.13 -2.60411 -1.48345 0
M  V30 19126 H 1843.69 -1.47309 -0.671691 0
M  V30 19127 H 1845.68 -1.4973 -3.75983 0
M  V30 19128 H 1844.25 -0.712613 -3.04369 0
M  V30 19129 H 1843.47 -3.11702 -2.4132 0
M  V30 19130 H 1844.76 -3.72002 -3.4712 0
M  V30 19131 H 1844.16 -1.27857 -5.51062 0
M  V30 19132 H 1842.71 -1.845 -6.25142 0
M  V30 19133 N 1846.15 0.735796 -1.39369 0
M  V30 19134 C 1847.11 1.83148 -1.37802 0
M  V30 19135 C 1848.11 1.58426 -0.27528 0
M  V30 19136 O 1849.3 1.65841 -0.53314 0
M  V30 19137 C 1846.43 3.20923 -1.14984 0
M  V30 19138 H 1847.62 1.85941 -2.353 0
M  V30 19139 H 1845.18 0.939367 -1.24922 0
M  V30 19140 H 1845.91 3.23791 -0.181648 0
M  V30 19141 H 1845.7 3.40264 -1.94841 0
M  V30 19142 H 1847.19 4.00984 -1.16626 0
M  V30 19143 N 1847.63 1.24532 0.965897 0
M  V30 19144 C 1848.85 1.11318 1.74401 0
M  V30 19145 C 1849.27 -0.33411 1.8582 0
M  V30 19146 O 1848.63 -1.23044 1.34783 0
M  V30 19147 C 1848.68 1.74927 3.16358 0
M  V30 19148 O 1848.4 3.13998 3.05511 0
M  V30 19149 C 1849.9 1.67347 4.105 0
M  V30 19150 H 1847.12 0.388835 0.546853 0
M  V30 19151 H 1849.66 1.64674 1.21255 0
M  V30 19152 H 1847.82 1.2557 3.66485 0
M  V30 19153 H 1848.23 3.45097 3.94979 0
M  V30 19154 H 1849.71 2.16533 5.07757 0
M  V30 19155 H 1850.18 0.635036 4.34585 0
M  V30 19156 H 1850.79 2.16139 3.66284 0
M  V30 19157 N 1849.1 -1.16685 1.05936 0
M  V30 19158 C 1850.35 -1.86466 0.768993 0
M  V30 19159 C 1850.67 -1.82374 -0.707038 0
M  V30 19160 O 1851.87 -2.47699 -1.11164 0
M  V30 19161 C 1850.33 -3.34605 1.32543 0
M  V30 19162 C 1849.94 -3.47179 2.83144 0
M  V30 19163 C 1851.68 -4.09665 1.11244 0
M  V30 19164 C 1849.59 -4.89384 3.3205 0
M  V30 19165 H 1848.52 -0.698479 0.283978 0
M  V30 19166 H 1851.17 -1.31717 1.27761 0
M  V30 19167 H 1849.55 -3.88937 0.744592 0
M  V30 19168 H 1850.72 -3.03027 3.47148 0
M  V30 19169 H 1849.04 -2.85549 3.03069 0
M  V30 19170 H 1851.64 -5.14586 1.45276 0
M  V30 19171 H 1851.98 -4.16269 0.0505969 0
M  V30 19172 H 1852.51 -3.61561 1.65887 0
M  V30 19173 H 1849.25 -4.87957 4.37697 0
M  V30 19174 H 1848.77 -5.34176 2.72793 0
M  V30 19175 H 1850.45 -5.58186 3.27166 0
M  V30 19176 N 1850.58 -0.841432 -1.33258 0
M  V30 19177 C 1851.83 -0.434677 -1.96961 0
M  V30 19178 C 1852.14 1.012 -1.67386 0
M  V30 19179 O 1853.35 1.52356 -2.24722 0
M  V30 19180 C 1851.81 -0.726332 -3.52495 0
M  V30 19181 C 1851.41 -2.18786 -3.90943 0
M  V30 19182 C 1853.16 -0.386652 -4.22735 0
M  V30 19183 C 1851.06 -2.42343 -5.39466 0
M  V30 19184 H 1849.99 -0.158809 -0.737086 0
M  V30 19185 H 1852.65 -1.03037 -1.51841 0
M  V30 19186 H 1851.03 -0.0602315 -3.95954 0
M  V30 19187 H 1852.2 -2.89465 -3.58534 0
M  V30 19188 H 1850.52 -2.49076 -3.33691 0
M  V30 19189 H 1853.11 -0.540249 -5.31964 0
M  V30 19190 H 1853.46 0.670595 -4.10863 0
M  V30 19191 H 1853.99 -1.00809 -3.84815 0
M  V30 19192 H 1850.73 -3.46642 -5.56345 0
M  V30 19193 H 1850.25 -1.76227 -5.73327 0
M  V30 19194 H 1851.93 -2.25625 -6.06385 0
M  V30 19195 N 1852.06 1.4581 -0.598108 0
M  V30 19196 C 1853.31 2.01511 -0.0872421 0
M  V30 19197 C 1853.62 1.47345 1.28642 0
M  V30 19198 O 1854.83 1.94963 1.88949 0
M  V30 19199 C 1853.28 3.59746 -0.105317 0
M  V30 19200 C 1852.89 4.22909 -1.47824 0
M  V30 19201 C 1854.64 4.23048 0.350802 0
M  V30 19202 C 1852.54 5.73268 -1.45321 0
M  V30 19203 H 1851.47 0.753448 -0.0288462 0
M  V30 19204 H 1854.12 1.67382 -0.752037 0
M  V30 19205 H 1852.51 3.91022 0.625947 0
M  V30 19206 H 1853.68 4.03221 -2.23046 0
M  V30 19207 H 1851.99 3.71763 -1.87566 0
M  V30 19208 H 1854.59 5.33286 0.388561 0
M  V30 19209 H 1854.93 3.93058 1.37155 0
M  V30 19210 H 1855.47 3.96455 -0.326889 0
M  V30 19211 H 1852.21 6.07942 -2.45126 0
M  V30 19212 H 1851.73 5.95175 -0.743436 0
M  V30 19213 H 1853.41 6.36283 -1.17275 0
M  V30 19214 N 1853.54 0.336733 1.53961 0
M  V30 19215 C 1854.79 -0.261343 2.00403 0
M  V30 19216 C 1855.11 -1.51612 1.22633 0
M  V30 19217 O 1854.38 -1.93072 0.331659 0
M  V30 19218 H 1852.96 -0.0995594 0.740336 0
M  V30 19219 H 1855.62 0.456319 1.89483 0
M  V30 19220 H 1854.71 -0.508557 3.07929 0
M  V30 19221 N 1855.02 -1.57465 0.0651956 0
M  V30 19222 C 1856.26 -1.92856 -0.604233 0
M  V30 19223 C 1856.58 -0.945431 -1.70548 0
M  V30 19224 O 1855.85 0.00749144 -1.95899 0
M  V30 19225 H 1854.43 -0.711933 -0.226185 0
M  V30 19226 H 1857.1 -1.94521 0.121499 0
M  V30 19227 H 1856.19 -2.94481 -1.03381 0
M  V30 19228 N 1856.49 0.20831 -1.56217 0
M  V30 19229 C 1857.44 1.2582 -1.93489 0
M  V30 19230 C 1858.41 1.45907 -0.793748 0
M  V30 19231 O 1859.6 1.59258 -1.05078 0
M  V30 19232 C 1856.74 2.60077 -2.26835 0
M  V30 19233 C 1855.85 2.47678 -3.53948 0
M  V30 19234 C 1854.98 3.74549 -3.76678 0
M  V30 19235 C 1854.02 3.56928 -4.97261 0
M  V30 19236 N 1853.16 4.75779 -5.16313 0
M  V30 19237 H 1858 0.933346 -2.83006 0
M  V30 19238 H 1855.54 0.449531 -1.40063 0
M  V30 19239 H 1857.49 3.38277 -2.44181 0
M  V30 19240 H 1856.12 2.90632 -1.40474 0
M  V30 19241 H 1855.18 1.60844 -3.44722 0
M  V30 19242 H 1856.49 2.30585 -4.42303 0
M  V30 19243 H 1855.64 4.61191 -3.94193 0
M  V30 19244 H 1854.38 3.94582 -2.86629 0
M  V30 19245 H 1853.39 2.6867 -4.79683 0
M  V30 19246 H 1854.61 3.38353 -5.88808 0
M  V30 19247 H 1852.56 4.96101 -4.29209 0
M  V30 19248 H 1852.47 4.61462 -5.98823 0
M  V30 19249 H 1853.74 5.6381 -5.38274 0
M  V30 19250 N 1857.97 1.50255 0.475528 0
M  V30 19251 C 1858.88 1.71573 1.6 0
M  V30 19252 C 1859.9 0.598748 1.63374 0
M  V30 19253 O 1861.07 0.876544 1.81325 0
M  V30 19254 C 1858.14 1.80117 2.96241 0
M  V30 19255 C 1857.2 3.03831 3.03291 0
M  V30 19256 C 1856.43 3.11958 4.33033 0
M  V30 19257 O 1856.66 2.26995 5.23287 0
M  V30 19258 O 1855.59 4.04647 4.45583 0
M  V30 19259 H 1859.42 2.66884 1.44937 0
M  V30 19260 H 1857 1.34298 0.654553 0
M  V30 19261 H 1858.88 1.87943 3.77167 0
M  V30 19262 H 1857.56 0.879896 3.11512 0
M  V30 19263 H 1856.46 3.01508 2.21458 0
M  V30 19264 H 1857.8 3.95523 2.92955 0
M  V30 19265 N 1859.45 -0.728395 1.39758 0
M  V30 19266 C 1860.38 -1.85288 1.34911 0
M  V30 19267 C 1861.39 -1.60763 0.25671 0
M  V30 19268 O 1862.58 -1.70875 0.516143 0
M  V30 19269 C 1859.68 -3.21445 1.07361 0
M  V30 19270 C 1858.86 -3.73272 2.28006 0
M  V30 19271 C 1857.92 -4.88008 1.96812 0
M  V30 19272 O 1856.94 -5.01325 2.69559 0
M  V30 19273 N 1858.14 -5.72867 0.938278 0
M  V30 19274 H 1860.91 -1.89949 2.31818 0
M  V30 19275 H 1858.47 -0.909409 1.33945 0
M  V30 19276 H 1860.46 -3.9578 0.845002 0
M  V30 19277 H 1859.03 -3.12012 0.191644 0
M  V30 19278 H 1858.25 -2.90214 2.66777 0
M  V30 19279 H 1859.54 -4.04633 3.08463 0
M  V30 19280 H 1858.94 -5.64704 0.335517 0
M  V30 19281 H 1857.49 -6.47241 0.769572 0
M  V30 19282 N 1860.93 -1.25042 -0.959279 0
M  V30 19283 C 1862.18 -1.09298 -1.69995 0
M  V30 19284 C 1862.5 0.367507 -1.91506 0
M  V30 19285 O 1861.77 1.26142 -1.49883 0
M  V30 19286 H 1860.35 -0.401469 -0.629945 0
M  V30 19287 H 1863.01 -1.57094 -1.15358 0
M  V30 19288 H 1862.1 -1.59766 -2.68107 0
M  V30 19289 N 1862.41 1.16121 -1.06553 0
M  V30 19290 C 1863.34 2.20181 -0.636617 0
M  V30 19291 C 1864.35 1.59884 0.306731 0
M  V30 19292 O 1865.54 1.78235 0.0973101 0
M  V30 19293 C 1862.64 3.38789 0.0865541 0
M  V30 19294 C 1861.81 4.28641 -0.870941 0
M  V30 19295 C 1860.87 5.25869 -0.186538 0
M  V30 19296 O 1859.9 5.63189 -0.825028 0
M  V30 19297 N 1861.1 5.70536 1.0709 0
M  V30 19298 H 1863.87 2.576 -1.53175 0
M  V30 19299 H 1861.43 1.31157 -0.949185 0
M  V30 19300 H 1863.42 4.00878 0.554881 0
M  V30 19301 H 1861.99 2.99854 0.883524 0
M  V30 19302 H 1861.21 3.63776 -1.51858 0
M  V30 19303 H 1862.5 4.85552 -1.5204 0
M  V30 19304 H 1861.89 5.42314 1.60973 0
M  V30 19305 H 1860.45 6.34704 1.48305 0
M  V30 19306 N 1863.88 0.848487 1.3281 0
M  V30 19307 C 1865.3 0.504307 1.7976 0
M  V30 19308 C 1865.65 -0.977408 1.70121 0
M  V30 19309 O 1864.77 -1.7621 1.25614 0
M  V30 19310 C 1865.37 0.908628 3.26388 0
M  V30 19311 C 1863.93 0.616441 3.71318 0
M  V30 19312 C 1863.07 1.11173 2.54039 0
M  V30 19313 H 1866.02 1.03628 1.20195 0
M  V30 19314 H 1866.04 0.222518 3.79849 0
M  V30 19315 H 1865.56 1.98708 3.33372 0
M  V30 19316 H 1863.66 -0.451545 3.69854 0
M  V30 19317 H 1863.77 1.17841 4.64382 0
M  V30 19318 H 1862.13 0.532227 2.49077 0
M  V30 19319 H 1862.92 2.19716 2.6378 0
M  V30 19320 N 1865.36 -1.4549 0.605832 0
M  V30 19321 C 1866.61 -2.02251 0.100338 0
M  V30 19322 C 1866.94 -1.47447 -1.26845 0
M  V30 19323 O 1866.19 -0.638532 -1.8499 0
M  V30 19324 C 1866.49 -3.57399 0.00918576 0
M  V30 19325 C 1866.16 -4.31347 1.31341 0
M  V30 19326 C 1864.82 -4.51267 1.67067 0
M  V30 19327 C 1867.17 -4.73629 2.17543 0
M  V30 19328 C 1864.5 -5.10725 2.88751 0
M  V30 19329 C 1866.85 -5.34432 3.38474 0
M  V30 19330 C 1865.52 -5.52576 3.74455 0
M  V30 19331 H 1864.79 -0.74009 0.0367165 0
M  V30 19332 H 1867.43 -1.74577 0.787099 0
M  V30 19333 H 1865.74 -3.84342 -0.760829 0
M  V30 19334 H 1867.43 -3.99019 -0.398057 0
M  V30 19335 H 1864.02 -4.16155 1.02533 0
M  V30 19336 H 1868.21 -4.57974 1.91241 0
M  V30 19337 H 1863.46 -5.22961 3.16736 0
M  V30 19338 H 1867.64 -5.66149 4.05522 0
M  V30 19339 H 1865.27 -5.98416 4.68831 0
M  V30 19340 N 1866.84 -0.344893 -1.5378 0
M  V30 19341 C 1867.77 0.545646 -2.2261 0
M  V30 19342 C 1868.79 1.06288 -1.23315 0
M  V30 19343 O 1869.97 0.972802 -1.49662 0
M  V30 19344 C 1867.07 1.76379 -2.89385 0
M  V30 19345 C 1866.25 1.38162 -4.15006 0
M  V30 19346 C 1865.31 2.45958 -4.65179 0
M  V30 19347 O 1864.33 2.0921 -5.29358 0
M  V30 19348 N 1865.53 3.77232 -4.41221 0
M  V30 19349 H 1868.3 -0.043834 -2.99668 0
M  V30 19350 H 1865.86 -0.169081 -1.61015 0
M  V30 19351 H 1867.85 2.47928 -3.19865 0
M  V30 19352 H 1866.42 2.26061 -2.15905 0
M  V30 19353 H 1865.64 0.496839 -3.91056 0
M  V30 19354 H 1866.93 1.10227 -4.96717 0
M  V30 19355 H 1866.33 4.09875 -3.89896 0
M  V30 19356 H 1864.89 4.44947 -4.76304 0
M  V30 19357 N 1868.32 1.57428 -0.0735454 0
M  V30 19358 C 1869.57 1.93174 0.593996 0
M  V30 19359 C 1869.89 0.954462 1.70044 0
M  V30 19360 O 1869.16 0.00289765 1.959 0
M  V30 19361 H 1867.74 0.713123 0.222407 0
M  V30 19362 H 1870.4 1.94454 -0.131813 0
M  V30 19363 H 1869.5 2.95025 1.01818 0
M  V30 19364 N 1869.8 -0.200022 1.56326 0
M  V30 19365 C 1870.73 -1.27187 1.90673 0
M  V30 19366 C 1871.74 -1.41961 0.796933 0
M  V30 19367 O 1872.93 -1.42474 1.07533 0
M  V30 19368 C 1870.03 -2.64468 2.11919 0
M  V30 19369 C 1869.2 -2.71366 3.43044 0
M  V30 19370 C 1868.26 -3.89809 3.53462 0
M  V30 19371 O 1867.29 -3.77142 4.26325 0
M  V30 19372 N 1868.49 -5.05052 2.86187 0
M  V30 19373 H 1871.26 -0.980397 2.83211 0
M  V30 19374 H 1868.82 -0.389967 1.57133 0
M  V30 19375 H 1870.81 -3.42122 2.16182 0
M  V30 19376 H 1869.38 -2.86124 1.25904 0
M  V30 19377 H 1868.6 -1.80024 3.50692 0
M  V30 19378 H 1869.89 -2.72961 4.29383 0
M  V30 19379 H 1869.28 -5.18242 2.26808 0
M  V30 19380 H 1867.84 -5.8067 2.96083 0
M  V30 19381 N 1871.27 -1.50505 -0.467553 0
M  V30 19382 C 1872.2 -1.72558 -1.57309 0
M  V30 19383 C 1873.19 -0.574619 -1.601 0
M  V30 19384 O 1874.37 -0.814135 -1.76311 0
M  V30 19385 C 1871.5 -1.82296 -2.9561 0
M  V30 19386 C 1870.45 -2.97513 -3.07685 0
M  V30 19387 C 1869.78 -2.92398 -4.47669 0
M  V30 19388 C 1871.08 -4.37968 -2.84573 0
M  V30 19389 H 1872.77 -2.65122 -1.39107 0
M  V30 19390 H 1870.32 -1.2758 -0.667776 0
M  V30 19391 H 1872.27 -1.96308 -3.72882 0
M  V30 19392 H 1871 -0.863562 -3.14976 0
M  V30 19393 H 1869.66 -2.83157 -2.32847 0
M  V30 19394 H 1869.3 -1.94297 -4.63959 0
M  V30 19395 H 1869 -3.69749 -4.56683 0
M  V30 19396 H 1870.53 -3.08464 -5.26956 0
M  V30 19397 H 1871.94 -4.52831 -3.51593 0
M  V30 19398 H 1870.34 -5.16796 -3.05028 0
M  V30 19399 H 1871.41 -4.50093 -1.80402 0
M  V30 19400 N 1872.75 0.720973 -1.40142 0
M  V30 19401 C 1873.98 1.51519 -1.41622 0
M  V30 19402 C 1874.4 1.88093 -0.0162669 0
M  V30 19403 O 1873.76 1.52895 0.974307 0
M  V30 19404 C 1873.81 2.77041 -2.30826 0
M  V30 19405 O 1872.91 3.73532 -1.74779 0
M  V30 19406 H 1872.25 0.457034 -0.481681 0
M  V30 19407 H 1874.78 0.88837 -1.84307 0
M  V30 19408 H 1874.79 3.25628 -2.45826 0
M  V30 19409 H 1873.47 2.49755 -3.32558 0
M  V30 19410 H 1872.05 3.32356 -1.69097 0
M  V30 19411 N 1874.23 1.25549 0.952634 0
M  V30 19412 C 1875.48 1.10198 1.69413 0
M  V30 19413 C 1875.8 -0.357345 1.91698 0
M  V30 19414 O 1875.07 -1.25345 1.5055 0
M  V30 19415 H 1873.65 0.404804 0.627808 0
M  V30 19416 H 1876.31 1.57703 1.14524 0
M  V30 19417 H 1875.41 1.61185 2.67256 0
M  V30 19418 N 1875.71 -1.15554 1.07168 0
M  V30 19419 C 1876.64 -2.22387 0.71178 0
M  V30 19420 C 1877.62 -1.67435 -0.299908 0
M  V30 19421 O 1878.8 -1.93427 -0.173073 0
M  V30 19422 C 1875.93 -3.47136 0.106815 0
M  V30 19423 C 1874.89 -4.15035 1.04545 0
M  V30 19424 C 1874.21 -5.33839 0.303337 0
M  V30 19425 C 1875.51 -4.65011 2.37827 0
M  V30 19426 H 1877.21 -2.52748 1.60496 0
M  V30 19427 H 1874.75 -1.21485 0.773139 0
M  V30 19428 H 1876.71 -4.21108 -0.15689 0
M  V30 19429 H 1875.43 -3.16101 -0.821429 0
M  V30 19430 H 1874.09 -3.43001 1.29405 0
M  V30 19431 H 1873.74 -4.9906 -0.628308 0
M  V30 19432 H 1873.44 -5.8021 0.928964 0
M  V30 19433 H 1874.96 -6.10582 0.0473869 0
M  V30 19434 H 1876.38 -5.3052 2.17305 0
M  V30 19435 H 1874.77 -5.22038 2.95967 0
M  V30 19436 H 1875.84 -3.80748 3.00264 0
M  V30 19437 N 1877.19 -0.855519 -1.32358 0
M  V30 19438 C 1878.42 -0.472645 -2.01121 0
M  V30 19439 C 1878.83 0.935468 -1.64456 0
M  V30 19440 O 1878.17 1.62204 -0.862292 0
M  V30 19441 C 1878.23 -0.533025 -3.55527 0
M  V30 19442 C 1877.89 -1.90018 -4.15622 0
M  V30 19443 C 1878.89 -2.86576 -4.33786 0
M  V30 19444 C 1876.58 -2.19756 -4.51677 0
M  V30 19445 C 1878.57 -4.11023 -4.87175 0
M  V30 19446 C 1876.26 -3.44456 -5.0477 0
M  V30 19447 C 1877.26 -4.39905 -5.22468 0
M  V30 19448 O 1876.94 -5.62397 -5.74426 0
M  V30 19449 H 1876.68 -0.184097 -0.650449 0
M  V30 19450 H 1879.23 -1.15437 -1.69892 0
M  V30 19451 H 1877.46 0.205561 -3.86153 0
M  V30 19452 H 1879.15 -0.165631 -4.05562 0
M  V30 19453 H 1879.91 -2.64905 -4.06264 0
M  V30 19454 H 1875.79 -1.46247 -4.37187 0
M  V30 19455 H 1879.34 -4.85532 -5.00903 0
M  V30 19456 H 1875.23 -3.65976 -5.31725 0
M  V30 19457 H 1876 -5.64367 -5.92817 0
M  V30 19458 N 1878.67 1.45167 -0.61354 0
M  V30 19459 C 1879.9 2.06266 -0.117437 0
M  V30 19460 C 1880.3 1.45784 1.20597 0
M  V30 19461 O 1879.65 0.568556 1.7468 0
M  V30 19462 C 1879.71 3.59387 0.0903205 0
M  V30 19463 C 1879.37 4.42237 -1.1522 0
M  V30 19464 C 1880.37 4.76837 -2.07177 0
M  V30 19465 C 1878.05 4.82894 -1.3827 0
M  V30 19466 C 1880.05 5.50958 -3.20506 0
M  V30 19467 C 1877.74 5.56768 -2.51899 0
M  V30 19468 C 1878.73 5.90717 -3.42845 0
M  V30 19469 O 1878.42 6.63091 -4.54495 0
M  V30 19470 H 1878.15 0.672495 -0.0687474 0
M  V30 19471 H 1880.71 1.87307 -0.842926 0
M  V30 19472 H 1878.94 3.76769 0.870766 0
M  V30 19473 H 1880.63 4.02308 0.538766 0
M  V30 19474 H 1881.39 4.4598 -1.90597 0
M  V30 19475 H 1877.27 4.55901 -0.683774 0
M  V30 19476 H 1880.82 5.77375 -3.91515 0
M  V30 19477 H 1876.71 5.8704 -2.68429 0
M  V30 19478 H 1877.48 6.81545 -4.53253 0
M  V30 19479 N 1880.14 0.353044 1.53595 0
M  V30 19480 C 1881.09 -0.514569 2.26837 0
M  V30 19481 C 1882.09 -1.09398 1.29338 0
M  V30 19482 O 1883.29 -1.03863 1.47012 0
M  V30 19483 H 1879.67 -0.184641 0.72898 0
M  V30 19484 H 1881.64 0.125082 2.98138 0
M  V30 19485 C 1880.39 -1.64884 3.06119 0
M  V30 19486 H 1879.71 -1.21227 3.80978 0
M  V30 19487 H 1881.15 -2.23089 3.60565 0
M  V30 19488 C 1879.61 -2.58385 2.16192 0
M  V30 19489 O 1880.14 -3.6088 1.76433 0
M  V30 19490 N 1878.34 -2.27286 1.81079 0
M  V30 19491 H 1877.89 -1.43975 2.13609 0
M  V30 19492 H 1877.85 -2.90102 1.21194 0
M  V30 19493 N 1881.62 -1.57387 0.0818932 0
M  V30 19494 C 1882.87 -1.93486 -0.583744 0
M  V30 19495 C 1883.19 -0.963466 -1.69536 0
M  V30 19496 O 1882.46 -0.0132866 -1.95895 0
M  V30 19497 H 1881.04 -0.714292 -0.218622 0
M  V30 19498 H 1883.7 -1.94381 0.142124 0
M  V30 19499 H 1882.8 -2.9556 -1.00252 0
M  V30 19500 N 1883.1 0.191729 -1.56429 0
M  V30 19501 C 1884.03 1.24024 -1.97839 0
M  V30 19502 C 1885.01 1.47291 -0.850853 0
M  V30 19503 O 1886.2 1.58971 -1.11543 0
M  V30 19504 C 1883.33 2.58373 -2.32079 0
M  V30 19505 C 1882.28 2.49712 -3.47603 0
M  V30 19506 C 1881.61 3.88365 -3.67528 0
M  V30 19507 C 1882.91 2.01929 -4.81687 0
M  V30 19508 H 1884.6 0.8961 -2.85675 0
M  V30 19509 H 1882.15 0.429616 -1.37442 0
M  V30 19510 H 1884.1 3.31908 -2.59643 0
M  V30 19511 H 1882.82 2.94534 -1.41129 0
M  V30 19512 H 1881.48 1.78632 -3.20135 0
M  V30 19513 H 1881.13 4.21884 -2.73903 0
M  V30 19514 H 1880.83 3.83444 -4.45246 0
M  V30 19515 H 1882.35 4.63518 -3.97472 0
M  V30 19516 H 1883.77 2.65225 -5.0826 0
M  V30 19517 H 1882.16 2.08002 -5.62899 0
M  V30 19518 H 1883.23 0.972649 -4.75045 0
M  V30 19519 N 1884.58 1.50751 0.459565 0
M  V30 19520 C 1885.52 1.70454 1.55609 0
M  V30 19521 C 1886.49 0.545921 1.56872 0
M  V30 19522 O 1887.68 0.777824 1.74226 0
M  V30 19523 C 1884.82 1.81524 2.93501 0
M  V30 19524 C 1883.93 3.08962 3.01938 0
M  V30 19525 C 1883.07 3.10758 4.30816 0
M  V30 19526 C 1882.11 4.32602 4.33038 0
M  V30 19527 N 1881.24 4.32073 5.53405 0
M  V30 19528 H 1886.08 2.64062 1.38112 0
M  V30 19529 H 1883.62 1.30889 0.671307 0
M  V30 19530 H 1885.58 1.85923 3.73481 0
M  V30 19531 H 1884.21 0.913445 3.09606 0
M  V30 19532 H 1883.26 3.13979 2.14759 0
M  V30 19533 H 1884.57 3.9892 2.9944 0
M  V30 19534 H 1883.73 3.13951 5.19153 0
M  V30 19535 H 1882.47 2.1865 4.3594 0
M  V30 19536 H 1881.47 4.2961 3.43097 0
M  V30 19537 H 1882.7 5.2595 4.29596 0
M  V30 19538 H 1880.64 3.42824 5.59292 0
M  V30 19539 H 1880.56 5.15814 5.52695 0
M  V30 19540 H 1881.83 4.39428 6.43835 0
M  V30 19541 N 1886.06 -0.713531 1.40522 0
M  V30 19542 C 1887.3 -1.47561 1.39117 0
M  V30 19543 C 1887.63 -1.94199 -0.00592038 0
M  V30 19544 O 1886.91 -1.68301 -0.974941 0
M  V30 19545 C 1887.19 -2.70023 2.38242 0
M  V30 19546 C 1887.05 -2.29266 3.86984 0
M  V30 19547 C 1888.36 -3.72185 2.34875 0
M  V30 19548 H 1885.48 -0.535243 0.50664 0
M  V30 19549 H 1888.13 -0.814172 1.71672 0
M  V30 19550 H 1886.28 -3.26458 2.10611 0
M  V30 19551 H 1887.95 -1.78297 4.2545 0
M  V30 19552 H 1886.19 -1.61246 4.02719 0
M  V30 19553 H 1886.86 -3.17057 4.51862 0
M  V30 19554 H 1889.34 -3.25384 2.59354 0
M  V30 19555 H 1888.21 -4.55507 3.06276 0
M  V30 19556 H 1888.47 -4.20627 1.36108 0
M  V30 19557 N 1887.53 -1.26053 -0.945962 0
M  V30 19558 C 1888.46 -1.09687 -2.06134 0
M  V30 19559 C 1889.44 -0.00341513 -1.701 0
M  V30 19560 O 1890.63 -0.174559 -1.93414 0
M  V30 19561 C 1887.76 -0.724007 -3.3967 0
M  V30 19562 C 1886.71 -1.76866 -3.89747 0
M  V30 19563 C 1886.04 -1.25025 -5.19878 0
M  V30 19564 C 1887.34 -3.16923 -4.15159 0
M  V30 19565 H 1889.03 -2.02986 -2.20084 0
M  V30 19566 H 1886.58 -0.977346 -1.05754 0
M  V30 19567 H 1888.53 -0.596411 -4.17158 0
M  V30 19568 H 1887.26 0.244695 -3.25682 0
M  V30 19569 H 1885.92 -1.88485 -3.14435 0
M  V30 19570 H 1885.56 -0.271527 -5.02267 0
M  V30 19571 H 1885.26 -1.94853 -5.54352 0
M  V30 19572 H 1886.79 -1.13523 -5.99954 0
M  V30 19573 H 1888.2 -3.08409 -4.83277 0
M  V30 19574 H 1886.6 -3.84299 -4.60906 0
M  V30 19575 H 1887.67 -3.63337 -3.21114 0
M  V30 19576 N 1889.01 1.14984 -1.07779 0
M  V30 19577 C 1889.96 2.2193 -0.696405 0
M  V30 19578 C 1890.95 1.66815 0.294832 0
M  V30 19579 O 1892.16 1.79305 0.158081 0
M  V30 19580 H 1888.53 0.722908 -0.207143 0
M  V30 19581 H 1890.51 2.51374 -1.60791 0
M  V30 19582 C 1889.25 3.4751 -0.114943 0
M  V30 19583 H 1888.58 3.90245 -0.86883 0
M  V30 19584 H 1890.02 4.23846 0.114195 0
M  V30 19585 C 1888.48 3.16827 1.14552 0
M  V30 19586 O 1889.01 3.34026 2.23135 0
M  V30 19587 N 1887.21 2.70836 1.05339 0
M  V30 19588 H 1886.76 2.5704 0.169728 0
M  V30 19589 H 1886.72 2.50681 1.89754 0
M  V30 19590 N 1890.49 0.862526 1.31902 0
M  V30 19591 C 1891.42 0.257591 2.26742 0
M  V30 19592 C 1892.4 -0.60897 1.50766 0
M  V30 19593 O 1893.58 -0.564038 1.79863 0
M  V30 19594 C 1890.71 -0.635938 3.32676 0
M  V30 19595 C 1889.76 0.158282 4.26206 0
M  V30 19596 S 1890.59 1.53189 5.13121 0
M  V30 19597 C 1891.75 0.644287 6.22575 0
M  V30 19598 H 1891.98 1.06154 2.77702 0
M  V30 19599 H 1889.51 0.660611 1.39554 0
M  V30 19600 H 1891.47 -1.1458 3.94185 0
M  V30 19601 H 1890.13 -1.41377 2.80484 0
M  V30 19602 H 1889.32 -0.522612 5.01283 0
M  V30 19603 H 1888.93 0.599986 3.69156 0
M  V30 19604 H 1891.22 -0.148223 6.77338 0
M  V30 19605 H 1892.16 1.36595 6.948 0
M  V30 19606 H 1892.57 0.215137 5.6409 0
M  V30 19607 N 1891.97 -1.4484 0.62123 0
M  V30 19608 C 1892.93 -2.29061 -0.0797989 0
M  V30 19609 C 1893.93 -1.40508 -0.781932 0
M  V30 19610 O 1895.12 -1.62485 -0.628023 0
M  V30 19611 C 1892.25 -3.21857 -1.12342 0
M  V30 19612 H 1893.45 -2.92528 0.66084 0
M  V30 19613 H 1891 -1.51588 0.3809 0
M  V30 19614 H 1891.73 -2.63218 -1.89437 0
M  V30 19615 H 1891.52 -3.87103 -0.624003 0
M  V30 19616 H 1893.01 -3.8515 -1.61398 0
M  V30 19617 N 1893.45 -0.361184 -1.53405 0
M  V30 19618 C 1894.41 0.475026 -2.24223 0
M  V30 19619 C 1895.41 1.01331 -1.24855 0
M  V30 19620 O 1896.6 0.899756 -1.49164 0
M  V30 19621 C 1893.73 1.6635 -2.97557 0
M  V30 19622 H 1894.92 -0.144595 -2.99551 0
M  V30 19623 H 1892.48 -0.112802 -1.55892 0
M  V30 19624 H 1893.21 2.32133 -2.26461 0
M  V30 19625 H 1893 1.28454 -3.70462 0
M  V30 19626 H 1894.49 2.2562 -3.51405 0
M  V30 19627 N 1894.92 1.57341 -0.0902386 0
M  V30 19628 C 1895.83 2.17276 0.88478 0
M  V30 19629 C 1896.85 1.14089 1.31376 0
M  V30 19630 O 1898.03 1.46438 1.38268 0
M  V30 19631 C 1895.09 2.73739 2.12762 0
M  V30 19632 C 1894.15 3.91865 1.7533 0
M  V30 19633 C 1893.39 4.45626 2.93689 0
M  V30 19634 O 1893.61 3.98337 4.08269 0
M  V30 19635 O 1892.54 5.36714 2.72437 0
M  V30 19636 H 1896.37 3.00989 0.40487 0
M  V30 19637 H 1893.95 1.48799 0.133848 0
M  V30 19638 H 1895.84 3.09849 2.85608 0
M  V30 19639 H 1894.51 1.93075 2.59815 0
M  V30 19640 H 1893.42 3.60576 0.996799 0
M  V30 19641 H 1894.75 4.73878 1.33045 0
M  V30 19642 N 1896.4 -0.183431 1.56529 0
M  V30 19643 C 1897.35 -1.24666 1.9637 0
M  V30 19644 C 1898.34 -1.46489 0.850728 0
M  V30 19645 O 1899.55 -1.47212 1.03579 0
M  V30 19646 H 1895.93 -0.418792 0.624594 0
M  V30 19647 H 1897.9 -0.883697 2.85015 0
M  V30 19648 C 1896.65 -2.58135 2.32942 0
M  V30 19649 H 1895.97 -2.42162 3.18116 0
M  V30 19650 H 1897.41 -3.31247 2.64672 0
M  V30 19651 C 1895.87 -3.15993 1.16832 0
M  V30 19652 O 1896.4 -3.99177 0.449531 0
M  V30 19653 N 1894.6 -2.74907 0.942059 0
M  V30 19654 H 1894.15 -2.07365 1.52832 0
M  V30 19655 H 1894.11 -3.13956 0.167 0
M  V30 19656 N 1897.88 -1.50992 -0.451564 0
M  V30 19657 C 1899.16 -1.53486 -1.2125 0
M  V30 19658 C 1899.54 -0.290809 -2.09087 0
M  V30 19659 O 1898.89 0.724859 -2.16698 0
M  V30 19660 C 1899.1 -2.84125 -2.02667 0
M  V30 19661 C 1900.44 -3.35535 -2.60195 0
M  V30 19662 O 1901.47 -2.85579 -2.12892 0
M  V30 19663 O 1900.33 -4.22667 -3.46432 0
M  V30 19664 H 1897.42 -0.616481 -0.551253 0
M  V30 19665 H 1899.97 -1.63296 -0.461792 0
M  V30 19666 H 1898.74 -3.66134 -1.38064 0
M  V30 19667 H 1898.36 -2.7741 -2.84832 0
M  V30 19668 N 1899.36 0.706069 -1.40899 0
M  V30 19669 C 1900.32 1.80184 -1.41656 0
M  V30 19670 C 1901.32 1.57807 -0.308823 0
M  V30 19671 O 1902.51 1.64673 -0.568197 0
M  V30 19672 C 1899.64 3.18412 -1.21765 0
M  V30 19673 H 1900.84 1.80908 -2.39191 0
M  V30 19674 H 1898.39 0.912658 -1.26887 0
M  V30 19675 H 1899.12 3.23333 -0.250288 0
M  V30 19676 H 1898.91 3.36054 -2.02015 0
M  V30 19677 H 1900.4 3.9842 -1.25106 0
M  V30 19678 N 1900.84 1.26553 0.939264 0
M  V30 19679 C 1901.78 1.08092 2.05958 0
M  V30 19680 C 1902.78 0.00730279 1.69398 0
M  V30 19681 O 1903.98 0.164131 1.7925 0
M  V30 19682 H 1900.36 0.33271 0.674394 0
M  V30 19683 H 1902.33 2.03032 2.18679 0
M  V30 19684 C 1901.08 0.732672 3.39893 0
M  V30 19685 H 1900.4 1.55067 3.68503 0
M  V30 19686 H 1901.84 0.643305 4.19091 0
M  V30 19687 C 1900.3 -0.5623 3.32174 0
M  V30 19688 O 1900.83 -1.60007 3.68457 0
M  V30 19689 N 1899.04 -0.553643 2.85277 0
M  V30 19690 H 1898.58 0.291265 2.55948 0
M  V30 19691 H 1898.54 -1.4202 2.80495 0
M  V30 19692 N 1902.31 -1.14411 1.08387 0
M  V30 19693 C 1903.56 -1.84792 0.808372 0
M  V30 19694 C 1903.88 -1.83833 -0.668195 0
M  V30 19695 O 1905.08 -2.50001 -1.05885 0
M  V30 19696 C 1903.54 -3.31718 1.3961 0
M  V30 19697 C 1903.15 -3.41095 2.90444 0
M  V30 19698 C 1904.89 -4.07213 1.19908 0
M  V30 19699 C 1902.8 -4.82231 3.42356 0
M  V30 19700 H 1901.73 -0.692298 0.29873 0
M  V30 19701 H 1904.38 -1.28977 1.30526 0
M  V30 19702 H 1902.76 -3.8727 0.826924 0
M  V30 19703 H 1903.93 -2.95595 3.53497 0
M  V30 19704 H 1902.25 -2.79056 3.09058 0
M  V30 19705 H 1904.85 -5.11389 1.56158 0
M  V30 19706 H 1905.19 -4.16068 0.138882 0
M  V30 19707 H 1905.72 -3.57961 1.73519 0
M  V30 19708 H 1902.46 -4.78563 4.47948 0
M  V30 19709 H 1901.98 -5.2827 2.84062 0
M  V30 19710 H 1903.66 -5.5112 3.38933 0
M  V30 19711 N 1903.79 -0.869509 -1.31443 0
M  V30 19712 C 1904.76 -0.329869 -2.26814 0
M  V30 19713 C 1905.76 0.518895 -1.52198 0
M  V30 19714 O 1906.95 0.328267 -1.71079 0
M  V30 19715 C 1904.08 0.53159 -3.3673 0
M  V30 19716 H 1905.27 -1.1718 -2.7606 0
M  V30 19717 H 1902.82 -0.645061 -1.42368 0
M  V30 19718 H 1903.56 1.39473 -2.92776 0
M  V30 19719 H 1903.34 -0.0761553 -3.92026 0
M  V30 19720 H 1904.83 0.901447 -4.07754 0
M  V30 19721 N 1905.27 1.44508 -0.628902 0
M  V30 19722 C 1906.52 2.01281 -0.129966 0
M  V30 19723 C 1906.83 1.50041 1.25488 0
M  V30 19724 O 1908.04 1.98927 1.84771 0
M  V30 19725 C 1906.49 3.59442 -0.1816 0
M  V30 19726 C 1906.1 4.19678 -1.56762 0
M  V30 19727 C 1907.85 4.23697 0.260988 0
M  V30 19728 C 1905.75 5.70056 -1.57449 0
M  V30 19729 H 1904.68 0.752667 -0.0448215 0
M  V30 19730 H 1907.33 1.65749 -0.787372 0
M  V30 19731 H 1905.72 3.92261 0.542864 0
M  V30 19732 H 1906.89 3.98399 -2.31549 0
M  V30 19733 H 1905.21 3.67701 -1.9541 0
M  V30 19734 H 1907.8 5.33991 0.275356 0
M  V30 19735 H 1908.15 3.95878 1.28787 0
M  V30 19736 H 1908.68 3.95672 -0.410909 0
M  V30 19737 H 1905.42 6.02606 -2.57966 0
M  V30 19738 H 1904.94 5.93464 -0.869514 0
M  V30 19739 H 1906.62 6.33652 -1.30745 0
M  V30 19740 N 1906.75 0.369315 1.53212 0
M  V30 19741 C 1908 -0.219533 2.01608 0
M  V30 19742 C 1908.33 -1.48115 1.25601 0
M  V30 19743 O 1907.6 -1.91311 0.350762 0
M  V30 19744 C 1907.89 -0.507713 3.56503 0
M  V30 19745 C 1907.74 0.767792 4.43199 0
M  V30 19746 C 1909.06 -1.30674 4.20253 0
M  V30 19747 H 1906.18 -0.0783156 0.732827 0
M  V30 19748 H 1908.82 0.494943 1.8344 0
M  V30 19749 H 1906.97 -1.11637 3.72115 0
M  V30 19750 H 1908.64 1.4052 4.39377 0
M  V30 19751 H 1906.88 1.38737 4.11017 0
M  V30 19752 H 1907.56 0.521063 5.49535 0
M  V30 19753 H 1910.03 -0.791822 4.08497 0
M  V30 19754 H 1908.91 -1.47712 5.28652 0
M  V30 19755 H 1909.17 -2.31631 3.76562 0
M  V30 19756 N 1908.23 -1.57291 0.0985816 0
M  V30 19757 C 1909.48 -1.94094 -0.563189 0
M  V30 19758 C 1909.8 -0.981394 -1.68504 0
M  V30 19759 O 1909.07 -0.0340632 -1.9587 0
M  V30 19760 H 1907.65 -0.716571 -0.211033 0
M  V30 19761 H 1910.31 -1.94219 0.162732 0
M  V30 19762 H 1909.4 -2.96607 -0.971113 0
M  V30 19763 N 1909.71 0.175127 -1.56624 0
M  V30 19764 C 1910.65 1.23623 -1.97028 0
M  V30 19765 C 1911.65 1.46036 -0.858485 0
M  V30 19766 O 1912.85 1.46661 -1.04358 0
M  V30 19767 H 1909.23 0.415474 -0.626806 0
M  V30 19768 H 1911.2 0.86857 -2.85479 0
M  V30 19769 C 1909.95 2.56896 -2.34307 0
M  V30 19770 H 1909.27 2.40471 -3.19396 0
M  V30 19771 H 1910.71 3.29839 -2.66425 0
M  V30 19772 C 1909.17 3.15369 -1.18506 0
M  V30 19773 O 1909.7 3.98933 -0.470694 0
M  V30 19774 N 1907.91 2.74403 -0.956625 0
M  V30 19775 H 1907.45 2.06551 -1.5393 0
M  V30 19776 H 1907.41 3.13863 -0.183647 0
M  V30 19777 N 1911.18 1.5123 0.44355 0
M  V30 19778 C 1912.43 1.63833 1.19527 0
M  V30 19779 C 1912.76 0.350544 1.9101 0
M  V30 19780 O 1912.04 -0.649546 1.83333 0
M  V30 19781 C 1912.32 2.83747 2.21719 0
M  V30 19782 C 1912.17 4.22484 1.5436 0
M  V30 19783 C 1913.49 2.99184 3.22765 0
M  V30 19784 H 1910.61 0.596256 0.433184 0
M  V30 19785 H 1913.25 1.83697 0.485321 0
M  V30 19786 H 1911.4 2.66942 2.82267 0
M  V30 19787 H 1913.08 4.50944 0.971976 0
M  V30 19788 H 1911.32 4.25469 0.846069 0
M  V30 19789 H 1911.99 5.0237 2.28754 0
M  V30 19790 H 1914.47 3.14659 2.72266 0
M  V30 19791 H 1913.34 3.84663 3.91569 0
M  V30 19792 H 1913.6 2.10984 3.88508 0
M  V30 19793 N 1912.66 -0.698586 1.41271 0
M  V30 19794 C 1914.08 -1.0088 1.23674 0
M  V30 19795 C 1914.28 -2.01118 0.123961 0
M  V30 19796 O 1913.33 -2.47242 -0.512628 0
M  V30 19797 C 1914.65 -1.53629 2.58493 0
M  V30 19798 C 1916.19 -1.65528 2.65649 0
M  V30 19799 C 1916.67 -2.21679 4.00777 0
M  V30 19800 N 1918.16 -2.29044 4.02608 0
M  V30 19801 C 1918.9 -2.73512 5.03963 0
M  V30 19802 N 1918.39 -3.17607 6.15709 0
M  V30 19803 N 1920.18 -2.73049 4.91326 0
M  V30 19804 H 1912.34 -0.0344888 2.12372 0
M  V30 19805 H 1914.6 -0.0778742 0.944796 0
M  V30 19806 H 1914.3 -0.874339 3.40658 0
M  V30 19807 H 1914.18 -2.51891 2.80768 0
M  V30 19808 H 1916.57 -2.30836 1.83844 0
M  V30 19809 H 1916.65 -0.658201 2.47187 0
M  V30 19810 H 1916.29 -1.56988 4.83029 0
M  V30 19811 H 1916.22 -3.22134 4.16578 0
M  V30 19812 H 1918.71 -1.97922 3.21924 0
M  V30 19813 H 1919.02 -3.50155 6.88921 0
M  V30 19814 H 1917.37 -3.15523 6.1925 0
M  V30 19815 H 1920.56 -2.37947 4.03112 0
M  V30 19816 H 1920.73 -3.07386 5.70454 0
M  V30 19817 N 1914.14 -1.27049 -0.93254 0
M  V30 19818 C 1915.07 -1.11867 -2.04959 0
M  V30 19819 C 1916.05 -0.0214563 -1.70086 0
M  V30 19820 O 1917.24 -0.195063 -1.93218 0
M  V30 19821 C 1914.37 -0.759993 -3.38883 0
M  V30 19822 C 1913.32 -1.8099 -3.87849 0
M  V30 19823 C 1912.65 -1.30532 -5.18522 0
M  V30 19824 C 1913.95 -3.21309 -4.11774 0
M  V30 19825 H 1915.64 -2.05309 -2.17918 0
M  V30 19826 H 1913.19 -0.988507 -1.04712 0
M  V30 19827 H 1915.14 -0.640623 -4.16502 0
M  V30 19828 H 1913.86 0.210139 -3.25923 0
M  V30 19829 H 1912.52 -1.91809 -3.12418 0
M  V30 19830 H 1912.17 -0.324784 -5.0195 0
M  V30 19831 H 1911.87 -2.00722 -5.52254 0
M  V30 19832 H 1913.39 -1.19879 -5.98716 0
M  V30 19833 H 1914.81 -3.13517 -4.79979 0
M  V30 19834 H 1913.2 -3.89166 -4.56804 0
M  V30 19835 H 1914.27 -3.66722 -3.17243 0
M  V30 19836 N 1915.62 1.13835 -1.08993 0
M  V30 19837 C 1916.86 1.85284 -0.824476 0
M  V30 19838 C 1917.2 1.83062 0.648235 0
M  V30 19839 O 1916.47 1.26555 1.47696 0
M  V30 19840 C 1916.75 3.33649 -1.35463 0
M  V30 19841 C 1916.61 3.44411 -2.89312 0
M  V30 19842 C 1917.93 4.28941 -0.984768 0
M  V30 19843 H 1915.05 0.672745 -0.300971 0
M  V30 19844 H 1917.69 1.3364 -1.35057 0
M  V30 19845 H 1915.84 3.77761 -0.907128 0
M  V30 19846 H 1917.51 3.09043 -3.42477 0
M  V30 19847 H 1915.75 2.85429 -3.26669 0
M  V30 19848 H 1916.42 4.48724 -3.21481 0
M  V30 19849 H 1918.9 3.92877 -1.37064 0
M  V30 19850 H 1917.78 5.31196 -1.38283 0
M  V30 19851 H 1918.04 4.41969 0.10755 0
M  V30 19852 N 1917.1 0.876467 1.3098 0
M  V30 19853 C 1918.34 0.489671 1.96078 0
M  V30 19854 C 1918.66 -0.962603 1.69585 0
M  V30 19855 O 1917.93 -1.67568 1.01478 0
M  V30 19856 H 1916.51 0.178091 0.72546 0
M  V30 19857 H 1919.18 1.11768 1.59668 0
M  V30 19858 H 1918.27 0.652822 3.05196 0
M  V30 19859 N 1918.57 -1.44173 0.636557 0
M  V30 19860 C 1919.48 -2.34507 -0.0661877 0
M  V30 19861 C 1920.5 -1.52931 -0.829947 0
M  V30 19862 O 1921.68 -1.85641 -0.780979 0
M  V30 19863 C 1918.74 -3.30987 -1.03191 0
M  V30 19864 C 1917.8 -4.28469 -0.266924 0
M  V30 19865 C 1917.03 -5.20341 -1.18664 0
M  V30 19866 O 1917.26 -5.1626 -2.42552 0
M  V30 19867 O 1916.19 -5.98181 -0.668035 0
M  V30 19868 H 1920.02 -2.9606 0.676932 0
M  V30 19869 H 1917.6 -1.44036 0.396744 0
M  V30 19870 H 1919.48 -3.9036 -1.58736 0
M  V30 19871 H 1918.16 -2.7196 -1.75555 0
M  V30 19872 H 1917.07 -3.72627 0.331702 0
M  V30 19873 H 1918.4 -4.90432 0.416803 0
M  V30 19874 N 1920.05 -0.377435 -1.53014 0
M  V30 19875 C 1921.3 0.208838 -2.01722 0
M  V30 19876 C 1921.63 1.47446 -1.26385 0
M  V30 19877 O 1920.91 1.91122 -0.360903 0
M  V30 19878 C 1921.19 0.4888 -3.56767 0
M  V30 19879 C 1921.04 -0.791285 -4.42785 0
M  V30 19880 C 1922.36 1.28443 -4.2094 0
M  V30 19881 H 1919.48 0.0744281 -0.733232 0
M  V30 19882 H 1922.12 -0.504664 -1.83175 0
M  V30 19883 H 1920.27 1.09662 -3.72702 0
M  V30 19884 H 1921.94 -1.42848 -4.38625 0
M  V30 19885 H 1920.19 -1.40914 -4.10275 0
M  V30 19886 H 1920.86 -0.550199 -5.49251 0
M  V30 19887 H 1923.33 0.770147 -4.08911 0
M  V30 19888 H 1922.21 1.44906 -5.29427 0
M  V30 19889 H 1922.47 2.29631 -3.77786 0
M  V30 19890 N 1921.53 1.57237 -0.106922 0
M  V30 19891 C 1922.94 1.81906 0.420368 0
M  V30 19892 C 1923.29 1.02332 1.67399 0
M  V30 19893 O 1922.42 0.256247 2.14877 0
M  V30 19894 C 1923.01 3.29947 0.769432 0
M  V30 19895 C 1921.57 3.55339 1.24141 0
M  V30 19896 C 1920.72 2.76224 0.243997 0
M  V30 19897 H 1923.67 1.55184 -0.332216 0
M  V30 19898 H 1923.69 3.43916 1.62794 0
M  V30 19899 H 1923.2 3.87836 -0.14316 0
M  V30 19900 H 1921.3 3.02795 2.17131 0
M  V30 19901 H 1921.42 4.63956 1.19508 0
M  V30 19902 H 1919.78 2.44057 0.728574 0
M  V30 19903 H 1920.56 3.36867 -0.661482 0
M  V30 19904 N 1923.01 -0.166818 1.56715 0
M  V30 19905 C 1924.23 -0.902208 1.86748 0
M  V30 19906 C 1924.66 -1.74838 0.693767 0
M  V30 19907 O 1924.02 -1.77749 -0.35708 0
M  V30 19908 C 1924.06 -1.75107 3.1523 0
M  V30 19909 O 1923.17 -2.85319 2.9777 0
M  V30 19910 H 1922.51 -0.252474 0.614128 0
M  V30 19911 H 1925.04 -0.163603 2.03945 0
M  V30 19912 H 1925.05 -2.15009 3.46749 0
M  V30 19913 H 1923.72 -1.12955 4.00267 0
M  V30 19914 H 1922.3 -2.48967 2.77615 0
M  V30 19915 N 1924.49 -1.51463 -0.435524 0
M  V30 19916 C 1925.71 -1.68316 -1.21179 0
M  V30 19917 C 1926.14 -0.380709 -1.84207 0
M  V30 19918 O 1925.49 0.659318 -1.68887 0
M  V30 19919 C 1925.54 -2.80168 -2.27021 0
M  V30 19920 O 1924.65 -2.43897 -3.32548 0
M  V30 19921 H 1923.99 -0.561165 -0.35495 0
M  V30 19922 H 1926.52 -1.98036 -0.514097 0
M  V30 19923 H 1926.53 -3.04305 -2.71776 0
M  V30 19924 H 1925.2 -3.74678 -1.80524 0
M  V30 19925 H 1923.78 -2.30337 -2.93256 0
M  V30 19926 N 1925.96 0.691085 -1.4164 0
M  V30 19927 C 1926.9 1.81547 -1.3826 0
M  V30 19928 C 1927.88 1.60679 -0.249192 0
M  V30 19929 O 1929.06 1.83369 -0.436821 0
M  V30 19930 C 1926.19 3.18298 -1.15777 0
M  V30 19931 C 1925.23 3.57948 -2.31896 0
M  V30 19932 S 1926.07 3.6224 -3.94388 0
M  V30 19933 C 1927.22 5.0171 -3.74217 0
M  V30 19934 H 1927.45 1.84138 -2.33411 0
M  V30 19935 H 1924.99 0.860221 -1.28217 0
M  V30 19936 H 1926.95 3.9724 -1.03492 0
M  V30 19937 H 1925.61 3.13312 -0.222389 0
M  V30 19938 H 1924.8 4.57304 -2.1187 0
M  V30 19939 H 1924.4 2.86325 -2.40612 0
M  V30 19940 H 1926.69 5.89336 -3.342 0
M  V30 19941 H 1927.64 5.26778 -4.73192 0
M  V30 19942 H 1928.04 4.73459 -3.07403 0
M  V30 19943 N 1927.44 1.27542 0.925789 0
M  V30 19944 C 1928.67 1.1681 1.70772 0
M  V30 19945 C 1929.09 -0.274824 1.86789 0
M  V30 19946 O 1928.44 -1.18694 1.38629 0
M  V30 19947 C 1928.49 1.84904 3.10633 0
M  V30 19948 O 1928.21 3.23559 2.95366 0
M  V30 19949 C 1929.72 1.80322 4.04968 0
M  V30 19950 H 1926.94 0.406036 0.534206 0
M  V30 19951 H 1929.48 1.68448 1.15955 0
M  V30 19952 H 1927.63 1.37166 3.62304 0
M  V30 19953 H 1928.05 3.57488 3.838 0
M  V30 19954 H 1929.52 2.32577 5.00611 0
M  V30 19955 H 1930 0.772975 4.32344 0
M  V30 19956 H 1930.61 2.27683 3.59222 0
M  V30 19957 N 1928.92 -1.13255 1.09595 0
M  V30 19958 C 1930.15 -1.88411 0.854927 0
M  V30 19959 C 1930.56 -1.79214 -0.593949 0
M  V30 19960 O 1929.92 -1.15995 -1.40895 0
M  V30 19961 C 1929.97 -3.37946 1.28353 0
M  V30 19962 O 1929.69 -3.46907 2.67558 0
M  V30 19963 C 1931.19 -4.30065 1.07514 0
M  V30 19964 H 1928.41 -0.596416 0.307455 0
M  V30 19965 H 1930.96 -1.43358 1.45838 0
M  V30 19966 H 1929.11 -3.80576 0.72393 0
M  V30 19967 H 1929.53 -4.39878 2.8567 0
M  V30 19968 H 1931 -5.33309 1.42428 0
M  V30 19969 H 1931.48 -4.39198 0.0130611 0
M  V30 19970 H 1932.08 -3.93206 1.62077 0
M  V30 19971 N 1930.4 -0.883401 -1.30514 0
M  V30 19972 C 1931.31 -0.352971 -2.31929 0
M  V30 19973 C 1932.32 0.543992 -1.65278 0
M  V30 19974 O 1933.5 0.437489 -1.96591 0
M  V30 19975 C 1930.57 0.425263 -3.44082 0
M  V30 19976 C 1929.63 -0.501265 -4.26363 0
M  V30 19977 C 1928.86 0.239923 -5.3316 0
M  V30 19978 O 1929.08 1.46622 -5.51233 0
M  V30 19979 O 1928.02 -0.409158 -6.00508 0
M  V30 19980 H 1931.84 -1.19393 -2.79247 0
M  V30 19981 H 1929.43 -0.647187 -1.34655 0
M  V30 19982 H 1931.31 0.865957 -4.12407 0
M  V30 19983 H 1929.98 1.24255 -2.98902 0
M  V30 19984 H 1928.89 -0.990738 -3.60743 0
M  V30 19985 H 1930.22 -1.28451 -4.75143 0
M  V30 19986 N 1931.88 1.43833 -0.644194 0
M  V30 19987 C 1933.1 2.06784 -0.159719 0
M  V30 19988 C 1933.53 1.47913 1.16204 0
M  V30 19989 O 1932.88 0.585574 1.71583 0
M  V30 19990 C 1932.93 3.60527 -0.0724271 0
M  V30 19991 O 1932.04 4.0088 0.967917 0
M  V30 19992 H 1931.38 0.657771 -0.0907406 0
M  V30 19993 H 1933.91 1.8449 -0.884568 0
M  V30 19994 H 1933.92 4.07841 0.113872 0
M  V30 19995 H 1932.59 4.02755 -1.03736 0
M  V30 19996 H 1931.17 3.65174 0.755135 0
M  V30 19997 N 1933.35 0.385544 1.52811 0
M  V30 19998 C 1934.58 -0.198025 2.0595 0
M  V30 19999 C 1935 -1.40822 1.25756 0
M  V30 20000 O 1934.35 -1.79963 0.303251 0
M  V30 20001 C 1934.41 -0.571856 3.56948 0
M  V30 20002 O 1934.13 0.59026 4.34105 0
M  V30 20003 C 1935.63 -1.21169 4.26419 0
M  V30 20004 H 1932.85 -0.0307594 0.670295 0
M  V30 20005 H 1935.39 0.549688 1.96974 0
M  V30 20006 H 1933.55 -1.26947 3.6601 0
M  V30 20007 H 1933.96 0.28384 5.23731 0
M  V30 20008 H 1935.43 -1.42366 5.33325 0
M  V30 20009 H 1935.91 -2.17794 3.81395 0
M  V30 20010 H 1936.52 -0.554949 4.21664 0
M  V30 20011 N 1934.83 -1.57178 0.115259 0
M  V30 20012 C 1935.8 -2.13953 -0.821982 0
M  V30 20013 C 1936.8 -1.07352 -1.19717 0
M  V30 20014 O 1937.99 -1.33146 -1.12329 0
M  V30 20015 C 1935.12 -2.6767 -2.11106 0
M  V30 20016 H 1936.31 -2.98094 -0.328631 0
M  V30 20017 H 1933.86 -1.55725 -0.133942 0
M  V30 20018 H 1934.6 -1.87106 -2.6488 0
M  V30 20019 H 1934.38 -3.4563 -1.85155 0
M  V30 20020 H 1935.87 -3.11519 -2.78111 0
M  V30 20021 N 1936.31 0.158505 -1.56801 0
M  V30 20022 C 1937.54 0.888272 -1.86862 0
M  V30 20023 C 1937.95 1.75258 -0.702142 0
M  V30 20024 O 1937.31 1.7952 0.328431 0
M  V30 20025 C 1937.36 1.75448 -3.1607 0
M  V30 20026 O 1937.08 0.925019 -4.28223 0
M  V30 20027 C 1938.58 2.59282 -3.59566 0
M  V30 20028 H 1935.8 0.257429 -0.619654 0
M  V30 20029 H 1938.35 0.154749 -2.03914 0
M  V30 20030 H 1936.5 2.4412 -3.00806 0
M  V30 20031 H 1936.92 1.51863 -5.02034 0
M  V30 20032 H 1938.39 3.15655 -4.52842 0
M  V30 20033 H 1938.87 3.3477 -2.84299 0
M  V30 20034 H 1939.47 1.95921 -3.77485 0
M  V30 20035 N 1937.79 1.51692 0.427485 0
M  V30 20036 C 1938.75 1.73114 1.50214 0
M  V30 20037 C 1939.75 0.601079 1.49143 0
M  V30 20038 O 1940.94 0.86875 1.50991 0
M  V30 20039 C 1938.07 1.79666 2.89712 0
M  V30 20040 H 1939.27 2.69033 1.32518 0
M  V30 20041 H 1936.82 1.4183 0.656804 0
M  V30 20042 H 1937.56 0.855968 3.128 0
M  V30 20043 H 1937.34 2.61803 2.91893 0
M  V30 20044 H 1938.83 1.98045 3.67652 0
M  V30 20045 N 1939.27 -0.683564 1.42004 0
M  V30 20046 C 1940.2 -1.80812 1.39221 0
M  V30 20047 C 1941.18 -1.60545 0.25771 0
M  V30 20048 O 1942.36 -1.83135 0.446539 0
M  V30 20049 C 1939.49 -3.17679 1.17463 0
M  V30 20050 C 1938.54 -3.56713 2.33791 0
M  V30 20051 S 1939.37 -3.60144 3.96304 0
M  V30 20052 C 1940.52 -4.99718 3.76872 0
M  V30 20053 H 1940.76 -1.82897 2.34384 0
M  V30 20054 H 1938.29 -0.853409 1.28671 0
M  V30 20055 H 1940.25 -3.96686 1.05597 0
M  V30 20056 H 1938.91 -3.13189 0.239001 0
M  V30 20057 H 1938.1 -4.56174 2.14292 0
M  V30 20058 H 1937.7 -2.85045 2.42127 0
M  V30 20059 H 1940 -5.87555 3.37321 0
M  V30 20060 H 1940.94 -5.24261 4.75979 0
M  V30 20061 H 1941.35 -4.71823 3.09909 0
M  V30 20062 N 1940.75 -1.28031 -0.919012 0
M  V30 20063 C 1941.68 -1.07305 -2.0253 0
M  V30 20064 C 1942.69 -0.0264063 -1.62779 0
M  V30 20065 O 1943.88 -0.268902 -1.76463 0
M  V30 20066 C 1940.98 -0.607467 -3.33411 0
M  V30 20067 C 1940.15 -1.72834 -4.01805 0
M  V30 20068 C 1939.21 -1.25703 -5.10965 0
M  V30 20069 O 1938.24 -1.9583 -5.34452 0
M  V30 20070 N 1939.44 -0.117374 -5.80381 0
M  V30 20071 H 1942.2 -2.02575 -2.2087 0
M  V30 20072 H 1939.77 -1.19713 -1.08997 0
M  V30 20073 H 1941.76 -0.275875 -4.03759 0
M  V30 20074 H 1940.33 0.252241 -3.11581 0
M  V30 20075 H 1939.55 -2.22979 -3.25075 0
M  V30 20076 H 1940.84 -2.48038 -4.44246 0
M  V30 20077 H 1940.23 0.467747 -5.63763 0
M  V30 20078 H 1938.79 0.154978 -6.51616 0
M  V30 20079 N 1942.22 1.12672 -1.10194 0
M  V30 20080 C 1943.45 1.88496 -0.865112 0
M  V30 20081 C 1943.87 1.78977 0.578691 0
M  V30 20082 O 1943.23 1.14292 1.40737 0
M  V30 20083 C 1943.28 3.35768 -1.315 0
M  V30 20084 O 1942.38 4.09615 -0.478447 0
M  V30 20085 H 1941.72 0.585782 -0.312658 0
M  V30 20086 H 1944.25 1.42506 -1.46811 0
M  V30 20087 H 1944.26 3.86605 -1.30385 0
M  V30 20088 H 1942.94 3.42013 -2.36643 0
M  V30 20089 H 1941.52 3.68753 -0.554589 0
M  V30 20090 N 1943.7 0.89031 1.30043 0
M  V30 20091 C 1944.61 0.365266 2.31739 0
M  V30 20092 C 1945.63 -0.535219 1.65564 0
M  V30 20093 O 1946.8 -0.427058 1.9682 0
M  V30 20094 C 1943.87 -0.407009 3.44303 0
M  V30 20095 C 1942.93 0.523869 4.26092 0
M  V30 20096 C 1942.16 -0.211645 5.3328 0
M  V30 20097 O 1942.39 -1.43697 5.52003 0
M  V30 20098 O 1941.32 0.440999 6.00282 0
M  V30 20099 H 1945.15 1.20872 2.7861 0
M  V30 20100 H 1942.73 0.654319 1.34309 0
M  V30 20101 H 1944.61 -0.844074 4.1286 0
M  V30 20102 H 1943.29 -1.22668 2.99557 0
M  V30 20103 H 1942.19 1.00986 3.60212 0
M  V30 20104 H 1943.53 1.30969 4.74455 0
M  V30 20105 N 1945.18 -1.43489 0.651812 0
M  V30 20106 C 1946.11 -2.28021 -0.0903669 0
M  V30 20107 C 1947.09 -1.39746 -0.831253 0
M  V30 20108 O 1948.27 -1.69189 -0.831112 0
M  V30 20109 C 1945.4 -3.19129 -1.13466 0
M  V30 20110 C 1944.45 -4.23653 -0.49198 0
M  V30 20111 S 1945.28 -5.30454 0.73341 0
M  V30 20112 C 1946.44 -6.2513 -0.310383 0
M  V30 20113 H 1946.67 -2.9062 0.626698 0
M  V30 20114 H 1944.2 -1.4798 0.440607 0
M  V30 20115 H 1946.16 -3.72165 -1.73216 0
M  V30 20116 H 1944.82 -2.5571 -1.82403 0
M  V30 20117 H 1944.01 -4.87497 -1.27917 0
M  V30 20118 H 1943.62 -3.73987 0.0313774 0
M  V30 20119 H 1945.91 -6.67198 -1.17698 0
M  V30 20120 H 1946.85 -7.07494 0.292997 0
M  V30 20121 H 1947.26 -5.60797 -0.645559 0
M  V30 20122 N 1946.66 -0.393643 -1.52605 0
M  V30 20123 C 1947.88 0.189618 -2.06531 0
M  V30 20124 C 1948.31 1.39382 -1.26311 0
M  V30 20125 O 1947.67 1.78977 -0.289278 0
M  V30 20126 C 1947.71 0.533717 -3.56628 0
M  V30 20127 O 1946.82 1.62703 -3.78948 0
M  V30 20128 H 1946.16 0.0209483 -0.663669 0
M  V30 20129 H 1948.69 -0.562368 -1.9672 0
M  V30 20130 H 1948.7 0.796786 -4.00144 0
M  V30 20131 H 1947.37 -0.34665 -4.14453 0
M  V30 20132 H 1945.95 1.35734 -3.47319 0
M  V30 20133 N 1948.14 1.57115 -0.123593 0
M  V30 20134 C 1949.36 1.99705 0.540887 0
M  V30 20135 C 1949.78 1.00336 1.59932 0
M  V30 20136 O 1949.14 -0.00310477 1.825 0
M  V30 20137 C 1949.19 3.42286 1.16285 0
M  V30 20138 O 1948.91 4.37854 0.146725 0
M  V30 20139 C 1950.41 4.00032 1.91021 0
M  V30 20140 H 1947.63 0.655623 0.142827 0
M  V30 20141 H 1950.17 2.03406 -0.211285 0
M  V30 20142 H 1948.33 3.39511 1.86578 0
M  V30 20143 H 1948.74 5.21066 0.599228 0
M  V30 20144 H 1950.22 5.01865 2.29861 0
M  V30 20145 H 1950.69 3.3943 2.78719 0
M  V30 20146 H 1951.3 4.06368 1.25481 0
M  V30 20147 N 1949.61 -0.150187 1.56883 0
M  V30 20148 C 1950.84 -0.88235 1.87695 0
M  V30 20149 C 1951.26 -1.74093 0.712272 0
M  V30 20150 O 1950.62 -1.78118 -0.338207 0
M  V30 20151 C 1950.67 -1.71754 3.1707 0
M  V30 20152 O 1949.77 -2.82145 3.00779 0
M  V30 20153 H 1949.11 -0.245947 0.616771 0
M  V30 20154 H 1951.64 -0.141963 2.04107 0
M  V30 20155 H 1951.65 -2.1132 3.4901 0
M  V30 20156 H 1950.33 -1.08704 4.01443 0
M  V30 20157 H 1948.91 -2.46008 2.8024 0
M  V30 20158 N 1951.09 -1.51916 -0.419434 0
M  V30 20159 C 1952.34 -1.64698 -1.16436 0
M  V30 20160 C 1952.65 -0.377878 -1.91915 0
M  V30 20161 O 1953.86 -0.385341 -2.68752 0
M  V30 20162 C 1952.32 -2.90939 -2.11854 0
M  V30 20163 C 1951.92 -4.2492 -1.4194 0
M  V30 20164 C 1953.67 -3.13083 -2.86669 0
M  V30 20165 C 1951.58 -5.42294 -2.35946 0
M  V30 20166 H 1950.51 -0.613496 -0.438337 0
M  V30 20167 H 1953.16 -1.78397 -0.429738 0
M  V30 20168 H 1951.54 -2.70916 -2.88826 0
M  V30 20169 H 1952.71 -4.5539 -0.70403 0
M  V30 20170 H 1951.03 -4.08797 -0.792071 0
M  V30 20171 H 1953.62 -3.97951 -3.57127 0
M  V30 20172 H 1953.97 -2.26891 -3.49036 0
M  V30 20173 H 1954.5 -3.33531 -2.168 0
M  V30 20174 H 1951.24 -6.30801 -1.78242 0
M  V30 20175 H 1950.76 -5.16177 -3.05485 0
M  V30 20176 H 1952.44 -5.74962 -2.96695 0
M  V30 20177 N 1952.57 0.676023 -1.42365 0
M  V30 20178 C 1953.5 1.80071 -1.40178 0
M  V30 20179 C 1954.48 1.60406 -0.266221 0
M  V30 20180 O 1955.67 1.82895 -0.456245 0
M  V30 20181 C 1952.79 3.17052 -1.19147 0
M  V30 20182 C 1951.84 3.55468 -2.35679 0
M  V30 20183 S 1952.67 3.58037 -3.98208 0
M  V30 20184 C 1953.83 4.97712 -3.79517 0
M  V30 20185 H 1954.06 1.81652 -2.35351 0
M  V30 20186 H 1951.59 0.846573 -1.29122 0
M  V30 20187 H 1953.55 3.9612 -1.07699 0
M  V30 20188 H 1952.21 3.13058 -0.255607 0
M  V30 20189 H 1951.41 4.55031 -2.16709 0
M  V30 20190 H 1951.01 2.83757 -2.43635 0
M  V30 20191 H 1953.3 5.85758 -3.40432 0
M  V30 20192 H 1954.24 5.2173 -4.78752 0
M  V30 20193 H 1954.65 4.70172 -3.12407 0
M  V30 20194 N 1954.05 1.28517 0.912209 0
M  V30 20195 C 1954.96 1.14429 2.048 0
M  V30 20196 C 1955.97 0.0704926 1.73857 0
M  V30 20197 O 1957.15 0.280091 1.99443 0
M  V30 20198 C 1954.22 0.809034 3.37128 0
M  V30 20199 C 1953.28 1.96535 3.8167 0
M  V30 20200 C 1952.51 1.646 5.07684 0
M  V30 20201 O 1952.73 0.561072 5.67634 0
M  V30 20202 O 1951.67 2.49011 5.47975 0
M  V30 20203 H 1955.49 2.0978 2.19604 0
M  V30 20204 H 1953.08 1.0785 1.03387 0
M  V30 20205 H 1954.96 0.636082 4.16572 0
M  V30 20206 H 1953.63 -0.114812 3.23496 0
M  V30 20207 H 1952.54 2.19347 3.03047 0
M  V30 20208 H 1953.87 2.86996 3.99868 0
M  V30 20209 N 1955.53 -1.12086 1.1079 0
M  V30 20210 C 1956.75 -1.87493 0.874862 0
M  V30 20211 C 1957.17 -1.79834 -0.574907 0
M  V30 20212 O 1956.53 -1.17483 -1.39657 0
M  V30 20213 C 1956.58 -3.36566 1.3193 0
M  V30 20214 O 1956.3 -3.4405 2.71222 0
M  V30 20215 C 1957.8 -4.289 1.12069 0
M  V30 20216 H 1955.02 -0.593122 0.313764 0
M  V30 20217 H 1957.56 -1.41803 1.4735 0
M  V30 20218 H 1955.72 -3.79787 0.764254 0
M  V30 20219 H 1956.13 -4.36824 2.90319 0
M  V30 20220 H 1957.61 -5.31768 1.48076 0
M  V30 20221 H 1958.08 -4.3916 0.0596432 0
M  V30 20222 H 1958.69 -3.91465 1.66238 0
M  V30 20223 N 1957 -0.897194 -1.29569 0
M  V30 20224 C 1958.23 -0.53717 -1.99805 0
M  V30 20225 C 1958.65 0.877466 -1.6717 0
M  V30 20226 O 1958 1.57882 -0.915398 0
M  V30 20227 C 1958.06 -0.716902 -3.5432 0
M  V30 20228 O 1957.78 -2.07586 -3.85798 0
M  V30 20229 C 1959.28 -0.361494 -4.41824 0
M  V30 20230 H 1956.5 -0.206379 -0.638474 0
M  V30 20231 H 1959.04 -1.20585 -1.65165 0
M  V30 20232 H 1957.2 -0.095433 -3.87282 0
M  V30 20233 H 1957.61 -2.10338 -4.80477 0
M  V30 20234 H 1959.08 -0.538099 -5.49371 0
M  V30 20235 H 1959.56 0.701301 -4.33565 0
M  V30 20236 H 1960.17 -0.959799 -4.14328 0
M  V30 20237 N 1958.48 1.43142 -0.659413 0
M  V30 20238 C 1959.71 2.06087 -0.183265 0
M  V30 20239 C 1960.13 1.49462 1.15354 0
M  V30 20240 O 1959.48 0.628341 1.71342 0
M  V30 20241 C 1959.53 3.61381 -0.0928701 0
M  V30 20242 O 1959.25 4.15902 -1.37684 0
M  V30 20243 C 1960.76 4.41413 0.408616 0
M  V30 20244 H 1957.98 0.664557 -0.092765 0
M  V30 20245 H 1960.52 1.83542 -0.901809 0
M  V30 20246 H 1958.67 3.8309 0.576268 0
M  V30 20247 H 1959.09 5.09629 -1.24009 0
M  V30 20248 H 1960.56 5.50394 0.420806 0
M  V30 20249 H 1961.04 4.14885 1.44108 0
M  V30 20250 H 1961.65 4.24687 -0.228247 0
M  V30 20251 N 1959.96 0.40173 1.52394 0
M  V30 20252 C 1961.19 -0.17617 2.06149 0
M  V30 20253 C 1961.6 -1.39481 1.27242 0
M  V30 20254 O 1960.96 -1.79631 0.322321 0
M  V30 20255 C 1961.01 -0.533965 3.57535 0
M  V30 20256 O 1960.73 0.63627 4.33455 0
M  V30 20257 C 1962.23 -1.16639 4.2768 0
M  V30 20258 H 1959.45 -0.0236483 0.670583 0
M  V30 20259 H 1962 0.570549 1.9638 0
M  V30 20260 H 1960.15 -1.23058 3.67336 0
M  V30 20261 H 1960.57 0.339373 5.23401 0
M  V30 20262 H 1962.04 -1.36701 5.34805 0
M  V30 20263 H 1962.52 -2.13737 3.83684 0
M  V30 20264 H 1963.12 -0.510194 4.22229 0
M  V30 20265 N 1961.44 -1.57047 0.131923 0
M  V30 20266 C 1962.37 -2.19006 -0.809859 0
M  V30 20267 C 1963.35 -1.13384 -1.26799 0
M  V30 20268 O 1964.53 -1.4167 -1.32827 0
M  V30 20269 C 1961.66 -2.79973 -2.05505 0
M  V30 20270 C 1960.62 -3.9129 -1.73424 0
M  V30 20271 C 1959.94 -4.39123 -3.05081 0
M  V30 20272 C 1961.24 -5.12783 -0.992535 0
M  V30 20273 H 1962.94 -2.97958 -0.293522 0
M  V30 20274 H 1960.48 -1.4332 -0.13974 0
M  V30 20275 H 1962.44 -3.2198 -2.71858 0
M  V30 20276 H 1961.16 -1.9833 -2.59486 0
M  V30 20277 H 1959.82 -3.49879 -1.09456 0
M  V30 20278 H 1959.47 -3.54322 -3.57022 0
M  V30 20279 H 1959.17 -5.14197 -2.84385 0
M  V30 20280 H 1960.69 -4.8379 -3.72531 0
M  V30 20281 H 1962.11 -5.51728 -1.55785 0
M  V30 20282 H 1960.5 -5.93522 -0.886062 0
M  V30 20283 H 1961.57 -4.84896 0.0184538 0
M  V30 20284 N 1962.92 0.141865 -1.5696 0
M  V30 20285 C 1963.88 1.15896 -1.97739 0
M  V30 20286 C 1964.88 1.3558 -0.864556 0
M  V30 20287 O 1966.07 1.32485 -1.13107 0
M  V30 20288 C 1963.2 2.51822 -2.29779 0
M  V30 20289 H 1964.39 0.808993 -2.88782 0
M  V30 20290 H 1961.95 0.385387 -1.51474 0
M  V30 20291 H 1962.68 2.91781 -1.41543 0
M  V30 20292 H 1962.47 2.38894 -3.10921 0
M  V30 20293 H 1963.96 3.25066 -2.62148 0
M  V30 20294 N 1964.39 1.52136 0.411372 0
M  V30 20295 C 1965.62 1.6993 1.18031 0
M  V30 20296 C 1966.04 0.407806 1.84343 0
M  V30 20297 O 1965.39 -0.615981 1.7179 0
M  V30 20298 C 1965.45 2.83333 2.2451 0
M  V30 20299 O 1965.17 4.07482 1.60905 0
M  V30 20300 C 1966.67 3.12618 3.143 0
M  V30 20301 H 1963.89 0.569546 0.354765 0
M  V30 20302 H 1966.43 1.98683 0.484277 0
M  V30 20303 H 1964.59 2.57106 2.89785 0
M  V30 20304 H 1965 4.70657 2.31478 0
M  V30 20305 H 1966.47 3.95486 3.85091 0
M  V30 20306 H 1966.95 2.26078 3.76544 0
M  V30 20307 H 1967.56 3.40602 2.54697 0
M  V30 20308 N 1965.87 -0.668464 1.42721 0
M  V30 20309 C 1967.1 -1.46158 1.47148 0
M  V30 20310 C 1967.52 -1.87903 0.0860652 0
M  V30 20311 O 1966.88 -1.56406 -0.91689 0
M  V30 20312 C 1966.93 -2.68284 2.40949 0
M  V30 20313 O 1966.03 -3.66787 1.88522 0
M  V30 20314 H 1965.37 -0.438842 0.498311 0
M  V30 20315 H 1967.9 -0.819353 1.87477 0
M  V30 20316 H 1967.91 -3.1628 2.57742 0
M  V30 20317 H 1966.59 -2.3724 3.41599 0
M  V30 20318 H 1965.17 -3.25851 1.81315 0
M  V30 20319 N 1967.35 -1.28999 -0.905381 0
M  V30 20320 C 1968.58 -1.19512 -1.68892 0
M  V30 20321 C 1968.99 0.245073 -1.87203 0
M  V30 20322 O 1968.35 1.16474 -1.405 0
M  V30 20323 C 1968.4 -1.89822 -3.07652 0
M  V30 20324 O 1968.12 -3.28217 -2.90181 0
M  V30 20325 C 1969.62 -1.86742 -4.02048 0
M  V30 20326 H 1966.84 -0.414483 -0.527678 0
M  V30 20327 H 1969.39 -1.70271 -1.1326 0
M  V30 20328 H 1967.54 -1.42913 -3.60076 0
M  V30 20329 H 1967.96 -3.63549 -3.78064 0
M  V30 20330 H 1969.43 -2.40512 -4.96848 0
M  V30 20331 H 1969.91 -0.841659 -4.3106 0
M  V30 20332 H 1970.51 -2.33369 -3.55555 0
M  V30 20333 N 1968.83 1.11497 -1.11383 0
M  V30 20334 C 1969.79 2.15704 -0.774896 0
M  V30 20335 C 1970.79 1.59482 0.205448 0
M  V30 20336 O 1971.98 1.7419 -0.018959 0
M  V30 20337 C 1969.11 3.40572 -0.149551 0
M  V30 20338 H 1970.31 2.47199 -1.69802 0
M  V30 20339 H 1967.86 1.26673 -0.915627 0
M  V30 20340 H 1968.6 3.14685 0.78383 0
M  V30 20341 H 1968.38 3.82659 -0.855233 0
M  V30 20342 H 1969.87 4.17539 0.0714744 0
M  V30 20343 N 1970.31 0.904053 1.29092 0
M  V30 20344 C 1971.72 0.600783 1.47861 0
M  V30 20345 C 1971.92 -0.856554 1.82388 0
M  V30 20346 O 1970.98 -1.6364 1.92297 0
M  V30 20347 C 1972.29 1.53035 2.58845 0
M  V30 20348 C 1973.84 1.53602 2.72719 0
M  V30 20349 C 1974.32 2.45197 3.86836 0
M  V30 20350 N 1975.81 2.43269 3.94176 0
M  V30 20351 C 1976.54 3.10843 4.81834 0
M  V30 20352 N 1976.04 3.87712 5.74153 0
M  V30 20353 N 1977.83 2.99979 4.75362 0
M  V30 20354 H 1969.98 1.84656 1.04957 0
M  V30 20355 H 1972.24 0.791479 0.52179 0
M  V30 20356 H 1971.95 2.5689 2.4021 0
M  V30 20357 H 1971.82 1.25414 3.5574 0
M  V30 20358 H 1974.21 0.504899 2.90749 0
M  V30 20359 H 1974.29 1.85262 1.76385 0
M  V30 20360 H 1973.94 3.48406 3.69562 0
M  V30 20361 H 1973.87 2.10844 4.82548 0
M  V30 20362 H 1976.36 1.87423 3.28148 0
M  V30 20363 H 1976.67 4.36317 6.37846 0
M  V30 20364 H 1975.02 3.91818 5.74024 0
M  V30 20365 H 1978.21 2.39437 4.02228 0
M  V30 20366 H 1978.38 3.52916 5.43465 0
M  V30 20367 N 1971.79 -1.4279 0.666995 0
M  V30 20368 C 1973.2 -1.56027 0.335817 0
M  V30 20369 C 1973.4 -1.64812 -1.15928 0
M  V30 20370 O 1972.46 -1.61074 -1.94451 0
M  V30 20371 C 1973.77 -2.81425 1.05928 0
M  V30 20372 C 1975.32 -2.95187 1.04085 0
M  V30 20373 C 1975.79 -4.23435 1.74548 0
M  V30 20374 N 1977.28 -4.3033 1.71379 0
M  V30 20375 C 1978.02 -5.2836 2.22762 0
M  V30 20376 N 1977.52 -6.32589 2.82494 0
M  V30 20377 N 1979.31 -5.20106 2.13182 0
M  V30 20378 H 1971.46 -1.35332 1.63704 0
M  V30 20379 H 1973.72 -0.650895 0.689231 0
M  V30 20380 H 1973.43 -2.81044 2.1144 0
M  V30 20381 H 1973.3 -3.72077 0.619546 0
M  V30 20382 H 1975.69 -2.95099 -0.00591289 0
M  V30 20383 H 1975.77 -2.05786 1.5194 0
M  V30 20384 H 1975.41 -4.24283 2.79189 0
M  V30 20385 H 1975.34 -5.11756 1.24149 0
M  V30 20386 H 1977.84 -3.55633 1.27803 0
M  V30 20387 H 1978.15 -7.03733 3.19343 0
M  V30 20388 H 1976.49 -6.33173 2.86561 0
M  V30 20389 H 1979.68 -4.37597 1.66211 0
M  V30 20390 H 1979.86 -5.96343 2.53534 0
M  V30 20391 N 1973.26 -0.409806 -1.52179 0
M  V30 20392 C 1974.51 0.16543 -2.01422 0
M  V30 20393 C 1974.83 1.45588 -1.29727 0
M  V30 20394 O 1974.1 1.9127 -0.423399 0
M  V30 20395 H 1972.68 0.0641237 -0.744243 0
M  V30 20396 H 1975.34 -0.546204 -1.8709 0
M  V30 20397 H 1974.44 0.361061 -3.10004 0
M  V30 20398 N 1974.74 1.56975 -0.14025 0
M  V30 20399 C 1975.69 2.16418 0.802003 0
M  V30 20400 C 1976.66 1.09512 1.24885 0
M  V30 20401 O 1977.84 1.37522 1.32259 0
M  V30 20402 C 1974.98 2.78465 2.03841 0
M  V30 20403 C 1974.1 3.99743 1.63798 0
M  V30 20404 C 1973.23 4.4981 2.82567 0
M  V30 20405 C 1972.27 5.63569 2.38865 0
M  V30 20406 N 1971.41 6.08285 3.5062 0
M  V30 20407 H 1976.25 2.96602 0.288284 0
M  V30 20408 H 1973.78 1.46519 0.130587 0
M  V30 20409 H 1975.74 3.12581 2.76314 0
M  V30 20410 H 1974.37 2.00936 2.52635 0
M  V30 20411 H 1973.42 3.71651 0.811169 0
M  V30 20412 H 1974.74 4.82177 1.27697 0
M  V30 20413 H 1973.89 4.85945 3.63238 0
M  V30 20414 H 1972.63 3.66369 3.21908 0
M  V30 20415 H 1971.63 5.27017 1.56632 0
M  V30 20416 H 1972.86 6.48791 2.00617 0
M  V30 20417 H 1970.81 5.2778 3.89595 0
M  V30 20418 H 1970.72 6.85628 3.18512 0
M  V30 20419 H 1971.99 6.49063 4.31668 0
M  V30 20420 N 1976.22 -0.133539 1.57033 0
M  V30 20421 C 1977.63 -0.692222 1.73393 0
M  V30 20422 C 1977.98 -1.81019 0.756735 0
M  V30 20423 O 1977.11 -2.16275 -0.0736448 0
M  V30 20424 C 1977.7 -1.26245 3.144 0
M  V30 20425 C 1976.26 -1.76756 3.32316 0
M  V30 20426 C 1975.41 -0.661397 2.69297 0
M  V30 20427 H 1978.36 0.0922563 1.58432 0
M  V30 20428 H 1978.38 -2.13221 3.15146 0
M  V30 20429 H 1977.89 -0.44855 3.85499 0
M  V30 20430 H 1975.99 -2.6067 2.66236 0
M  V30 20431 H 1976.11 -1.88702 4.40373 0
M  V30 20432 H 1974.47 -1.0914 2.30132 0
M  V30 20433 H 1975.25 0.141281 3.43009 0
M  V30 20434 N 1977.7 -1.52352 -0.403298 0
M  V30 20435 C 1979.11 -1.58796 -0.981864 0
M  V30 20436 C 1979.46 -0.432029 -1.91384 0
M  V30 20437 O 1978.58 0.446835 -2.11736 0
M  V30 20438 C 1979.18 -2.87807 -1.78752 0
M  V30 20439 C 1977.74 -2.96711 -2.31602 0
M  V30 20440 C 1976.89 -2.53787 -1.11748 0
M  V30 20441 H 1979.84 -1.57638 -0.18333 0
M  V30 20442 H 1979.86 -2.73488 -2.64546 0
M  V30 20443 H 1979.37 -3.71919 -1.10896 0
M  V30 20444 H 1977.47 -2.17105 -3.02814 0
M  V30 20445 H 1977.58 -4.0107 -2.62069 0
M  V30 20446 H 1975.95 -2.07771 -1.47321 0
M  V30 20447 H 1976.73 -3.40278 -0.45449 0
M  V30 20448 N 1979.18 0.660885 -1.43074 0
M  V30 20449 C 1980.4 1.44878 -1.47709 0
M  V30 20450 C 1980.82 1.88573 -0.092615 0
M  V30 20451 O 1980.18 1.59015 0.89558 0
M  V30 20452 C 1980.23 2.6888 -2.41632 0
M  V30 20453 O 1979.95 2.27015 -3.74694 0
M  V30 20454 C 1981.45 3.62312 -2.5543 0
M  V30 20455 H 1978.67 0.445326 -0.501922 0
M  V30 20456 H 1981.21 0.810882 -1.87736 0
M  V30 20457 H 1979.37 3.28827 -2.0482 0
M  V30 20458 H 1979.78 3.07191 -4.25128 0
M  V30 20459 H 1981.26 4.46007 -3.25241 0
M  V30 20460 H 1981.73 4.09148 -1.59671 0
M  V30 20461 H 1982.34 3.08251 -2.93021 0
M  V30 20462 N 1980.65 1.29477 0.898527 0
M  V30 20463 C 1981.6 1.14706 2.00278 0
M  V30 20464 C 1982.57 0.040077 1.66052 0
M  V30 20465 O 1983.76 0.207808 1.89665 0
M  V30 20466 C 1980.9 0.830802 3.3495 0
M  V30 20467 C 1980.01 2.01834 3.81952 0
M  V30 20468 C 1979.14 1.64135 5.05206 0
M  V30 20469 C 1978.18 2.79464 5.44579 0
M  V30 20470 N 1977.32 2.42153 6.59019 0
M  V30 20471 H 1982.16 2.09181 2.12244 0
M  V30 20472 H 1979.7 1.04092 1.03939 0
M  V30 20473 H 1981.66 0.628119 4.12445 0
M  V30 20474 H 1980.29 -0.0770431 3.22708 0
M  V30 20475 H 1979.34 2.33269 3.00483 0
M  V30 20476 H 1980.65 2.88247 4.07081 0
M  V30 20477 H 1979.8 1.40163 5.90288 0
M  V30 20478 H 1978.54 0.748722 4.81918 0
M  V30 20479 H 1977.55 3.04117 4.58031 0
M  V30 20480 H 1978.77 3.69393 5.69847 0
M  V30 20481 H 1976.72 1.55379 6.37333 0
M  V30 20482 H 1976.64 3.221 6.8395 0
M  V30 20483 H 1977.9 2.21503 7.47366 0
M  V30 20484 N 1982.13 -1.10905 1.11972 0
M  V30 20485 C 1983.04 -2.20682 0.796029 0
M  V30 20486 C 1984.06 -1.72689 -0.213158 0
M  V30 20487 O 1985.23 -2.01343 -0.047955 0
M  V30 20488 C 1982.3 -3.45797 0.250055 0
M  V30 20489 C 1981.36 -4.08549 1.31855 0
M  V30 20490 C 1980.59 -5.27692 0.798538 0
M  V30 20491 O 1980.82 -5.69202 -0.369435 0
M  V30 20492 O 1979.75 -5.81174 1.5659 0
M  V30 20493 H 1983.58 -2.50794 1.71278 0
M  V30 20494 H 1981.16 -1.19548 0.896024 0
M  V30 20495 H 1983.04 -4.21371 -0.0497791 0
M  V30 20496 H 1981.72 -3.17324 -0.639327 0
M  V30 20497 H 1980.63 -3.34682 1.67148 0
M  V30 20498 H 1981.96 -4.41215 2.18153 0
M  V30 20499 N 1983.61 -0.910886 -1.2861 0
M  V30 20500 C 1985.02 -0.589499 -1.77149 0
M  V30 20501 C 1985.37 0.895128 -1.74591 0
M  V30 20502 O 1984.5 1.70016 -1.33879 0
M  V30 20503 C 1985.09 -1.06332 -3.21682 0
M  V30 20504 C 1983.65 -0.792899 -3.67954 0
M  V30 20505 C 1982.8 -1.23167 -2.48445 0
M  V30 20506 H 1985.75 -1.09245 -1.15114 0
M  V30 20507 H 1985.77 -0.403495 -3.78355 0
M  V30 20508 H 1985.28 -2.14387 -3.23512 0
M  V30 20509 H 1983.38 0.274569 -3.71587 0
M  V30 20510 H 1983.5 -1.39863 -4.5823 0
M  V30 20511 H 1981.86 -0.650459 -2.46254 0
M  V30 20512 H 1982.64 -2.32051 -2.52996 0
M  V30 20513 N 1985.09 1.42434 -0.674558 0
M  V30 20514 C 1986.34 2.00765 -0.193936 0
M  V30 20515 C 1986.65 1.53957 1.20651 0
M  V30 20516 O 1987.86 2.04705 1.78348 0
M  V30 20517 C 1986.31 3.58682 -0.295862 0
M  V30 20518 C 1985.92 4.14478 -1.70034 0
M  V30 20519 C 1987.66 4.24313 0.12606 0
M  V30 20520 C 1985.57 5.64758 -1.75505 0
M  V30 20521 H 1984.5 0.75086 -0.0687443 0
M  V30 20522 H 1987.15 1.6316 -0.839705 0
M  V30 20523 H 1985.53 3.9379 0.417795 0
M  V30 20524 H 1986.71 3.90831 -2.44106 0
M  V30 20525 H 1985.02 3.61298 -2.07009 0
M  V30 20526 H 1987.62 5.34596 0.105331 0
M  V30 20527 H 1987.96 3.99775 1.16127 0
M  V30 20528 H 1988.5 3.94164 -0.536581 0
M  V30 20529 H 1985.24 5.94094 -2.77007 0
M  V30 20530 H 1984.76 5.90397 -1.05788 0
M  V30 20531 H 1986.43 6.29172 -1.50838 0
M  V30 20532 N 1986.57 0.417871 1.51959 0
M  V30 20533 C 1987.79 -0.156736 2.06807 0
M  V30 20534 C 1988.22 -1.37354 1.28512 0
M  V30 20535 O 1987.57 -1.78494 0.317715 0
M  V30 20536 C 1987.62 -0.476913 3.57432 0
M  V30 20537 O 1986.73 -1.56654 3.81488 0
M  V30 20538 H 1986.07 -0.0103873 0.663919 0
M  V30 20539 H 1988.6 0.593593 1.958 0
M  V30 20540 H 1988.61 -0.733026 4.01361 0
M  V30 20541 H 1987.28 0.412542 4.13849 0
M  V30 20542 H 1985.86 -1.30191 3.49435 0
M  V30 20543 N 1988.04 -1.56898 0.148573 0
M  V30 20544 C 1988.98 -2.13971 -0.821526 0
M  V30 20545 C 1989.99 -1.08955 -1.20965 0
M  V30 20546 O 1991.18 -1.36226 -1.15346 0
M  V30 20547 C 1988.28 -2.6488 -2.11404 0
M  V30 20548 C 1987.45 -3.94313 -1.89303 0
M  V30 20549 C 1986.51 -4.30517 -3.02558 0
M  V30 20550 O 1985.54 -4.98812 -2.74181 0
M  V30 20551 N 1986.74 -3.90226 -4.29772 0
M  V30 20552 H 1989.5 -2.97836 -0.333735 0
M  V30 20553 H 1987.06 -1.61862 -0.0349479 0
M  V30 20554 H 1989.06 -2.86112 -2.8622 0
M  V30 20555 H 1987.63 -1.85731 -2.51441 0
M  V30 20556 H 1986.85 -3.81692 -0.985147 0
M  V30 20557 H 1988.13 -4.7889 -1.71877 0
M  V30 20558 H 1987.53 -3.352 -4.55694 0
M  V30 20559 H 1986.09 -4.16506 -5.01364 0
M  V30 20560 N 1989.52 0.125209 -1.57102 0
M  V30 20561 C 1990.75 0.848436 -1.88704 0
M  V30 20562 C 1991.17 1.73729 -0.739158 0
M  V30 20563 O 1990.52 1.80177 0.290278 0
M  V30 20564 C 1990.57 1.68704 -3.1972 0
M  V30 20565 O 1990.29 0.833978 -4.30089 0
M  V30 20566 C 1991.8 2.51596 -3.64985 0
M  V30 20567 H 1989.02 0.244227 -0.624975 0
M  V30 20568 H 1991.56 0.111462 -2.04196 0
M  V30 20569 H 1989.71 2.37684 -3.05917 0
M  V30 20570 H 1990.13 1.4118 -5.05142 0
M  V30 20571 H 1991.6 3.05978 -4.59436 0
M  V30 20572 H 1992.08 3.28664 -2.91336 0
M  V30 20573 H 1992.69 1.8787 -3.81556 0
M  V30 20574 N 1991 1.52564 0.395213 0
M  V30 20575 C 1992.23 1.71173 1.16222 0
M  V30 20576 C 1992.64 0.427335 1.839 0
M  V30 20577 O 1992 -0.597726 1.72434 0
M  V30 20578 C 1992.05 2.85698 2.21492 0
M  V30 20579 O 1991.77 4.09165 1.56574 0
M  V30 20580 C 1993.27 3.15934 3.10967 0
M  V30 20581 H 1990.49 0.573277 0.348705 0
M  V30 20582 H 1993.04 1.99186 0.463177 0
M  V30 20583 H 1991.19 2.60165 2.87042 0
M  V30 20584 H 1991.61 4.73086 2.26473 0
M  V30 20585 H 1993.08 3.99548 3.80874 0
M  V30 20586 H 1993.56 2.30059 3.74125 0
M  V30 20587 H 1994.16 3.43284 2.5107 0
M  V30 20588 N 1992.48 -0.653289 1.43422 0
M  V30 20589 C 1993.76 -1.41051 1.35513 0
M  V30 20590 C 1994.14 -2.111 0.00290798 0
M  V30 20591 O 1993.48 -2.04786 -1.01365 0
M  V30 20592 C 1993.69 -2.39526 2.53827 0
M  V30 20593 C 1995.04 -3.03528 2.96911 0
M  V30 20594 O 1996.07 -2.49854 2.53873 0
M  V30 20595 O 1994.92 -4.00843 3.71466 0
M  V30 20596 H 1992.02 -0.630186 0.535532 0
M  V30 20597 H 1994.56 -0.680203 1.55471 0
M  V30 20598 H 1993.34 -1.86712 3.43881 0
M  V30 20599 H 1992.96 -3.20007 2.35968 0
M  V30 20600 N 1993.96 -1.29952 -0.891648 0
M  V30 20601 C 1995.23 -1.09057 -1.62376 0
M  V30 20602 C 1995.61 0.362482 -2.07965 0
M  V30 20603 O 1994.96 1.35277 -1.84153 0
M  V30 20604 C 1995.17 -2.08543 -2.79841 0
M  V30 20605 C 1996.52 -2.39899 -3.50333 0
M  V30 20606 O 1997.54 -2.06801 -2.90021 0
M  V30 20607 O 1996.4 -2.96487 -4.59083 0
M  V30 20608 H 1993.5 -0.418386 -0.71336 0
M  V30 20609 H 1996.04 -1.41353 -0.939009 0
M  V30 20610 H 1994.81 -3.06378 -2.43409 0
M  V30 20611 H 1994.44 -1.77024 -3.56017 0
M  V30 20612 N 1995.44 1.1031 -1.12559 0
M  V30 20613 C 1996.68 1.81665 -0.876399 0
M  V30 20614 C 1997 1.86186 0.599506 0
M  V30 20615 O 1998.2 2.53759 0.965337 0
M  V30 20616 C 1996.66 3.26308 -1.51826 0
M  V30 20617 C 1996.27 3.30081 -3.02904 0
M  V30 20618 C 1998.01 4.02482 -1.34939 0
M  V30 20619 C 1995.92 4.69192 -3.60018 0
M  V30 20620 H 1994.85 0.680734 -0.324218 0
M  V30 20621 H 1997.5 1.24044 -1.35223 0
M  V30 20622 H 1995.88 3.83934 -0.970087 0
M  V30 20623 H 1997.06 2.82272 -3.64224 0
M  V30 20624 H 1995.37 2.67393 -3.19202 0
M  V30 20625 H 1997.97 5.05241 -1.7503 0
M  V30 20626 H 1998.31 4.15266 -0.293208 0
M  V30 20627 H 1998.84 3.51274 -1.86685 0
M  V30 20628 H 1995.58 4.61608 -4.65401 0
M  V30 20629 H 1995.1 5.17363 -3.03473 0
M  V30 20630 H 1996.78 5.38161 -3.59153 0
M  V30 20631 N 1996.91 0.917694 1.28125 0
M  V30 20632 C 1997.84 0.426179 2.29578 0
M  V30 20633 C 1998.82 -0.508289 1.62328 0
M  V30 20634 O 2000.01 -0.415181 1.8971 0
M  V30 20635 C 1997.14 -0.331007 3.45719 0
M  V30 20636 C 1996.09 0.51469 4.24894 0
M  V30 20637 C 1995.42 -0.371069 5.33411 0
M  V30 20638 C 1996.72 1.774 4.9125 0
M  V30 20639 H 1998.41 1.27403 2.7094 0
M  V30 20640 H 1995.96 0.614065 1.30251 0
M  V30 20641 H 1997.91 -0.68573 4.15783 0
M  V30 20642 H 1996.64 -1.2128 3.03247 0
M  V30 20643 H 1995.3 0.851986 3.56562 0
M  V30 20644 H 1994.94 -1.25152 4.87182 0
M  V30 20645 H 1994.64 0.19121 5.87289 0
M  V30 20646 H 1996.17 -0.721587 6.06321 0
M  V30 20647 H 1997.58 1.48795 5.53654 0
M  V30 20648 H 1995.98 2.27899 5.55141 0
M  V30 20649 H 1997.05 2.49947 4.15517 0
M  V30 20650 N 1998.39 -1.42074 0.682102 0
M  V30 20651 C 1999.64 -2.01733 0.207714 0
M  V30 20652 C 1999.97 -1.53844 -1.18514 0
M  V30 20653 O 1999.25 -0.74378 -1.79717 0
M  V30 20654 C 1999.53 -3.59228 0.250438 0
M  V30 20655 C 1999.38 -4.17278 1.67927 0
M  V30 20656 C 2000.7 -4.38303 -0.397296 0
M  V30 20657 H 1997.82 -0.732972 0.0769518 0
M  V30 20658 H 2000.46 -1.69 0.868272 0
M  V30 20659 H 1998.61 -3.87245 -0.312007 0
M  V30 20660 H 2000.28 -4.00187 2.29452 0
M  V30 20661 H 1998.53 -3.7283 2.21767 0
M  V30 20662 H 1999.2 -5.26423 1.66079 0
M  V30 20663 H 2001.67 -4.1602 0.0815622 0
M  V30 20664 H 2000.55 -5.47866 -0.336797 0
M  V30 20665 H 2000.81 -4.16733 -1.476 0
M  V30 20666 N 1999.87 -0.425924 -1.51735 0
M  V30 20667 C 2000.83 0.379497 -2.26036 0
M  V30 20668 C 2001.83 0.95944 -1.2904 0
M  V30 20669 O 2003.02 0.83568 -1.52846 0
M  V30 20670 C 2000.15 1.5358 -3.04345 0
M  V30 20671 H 2001.35 -0.271515 -2.98668 0
M  V30 20672 H 1998.9 -0.17882 -1.55274 0
M  V30 20673 H 1999.64 2.2232 -2.36103 0
M  V30 20674 H 1999.42 1.12626 -3.75577 0
M  V30 20675 H 2000.91 2.10513 -3.60658 0
M  V30 20676 N 2001.35 1.56817 -0.156891 0
M  V30 20677 C 2002.57 2.01242 0.501622 0
M  V30 20678 C 2003 1.03635 1.56976 0
M  V30 20679 O 2002.36 0.0136188 1.81295 0
M  V30 20680 C 2002.4 3.44357 1.07007 0
M  V30 20681 O 2001.51 3.49783 2.18461 0
M  V30 20682 H 2000.85 0.652757 0.121673 0
M  V30 20683 H 2003.38 2.02985 -0.256537 0
M  V30 20684 H 2003.39 3.83364 1.39628 0
M  V30 20685 H 2002.06 4.14902 0.287924 0
M  V30 20686 H 2000.64 3.22626 1.86994 0
M  V30 20687 N 2002.83 -0.116876 1.57166 0
M  V30 20688 C 2003.79 -1.12735 1.99558 0
M  V30 20689 C 2004.79 -1.34188 0.886016 0
M  V30 20690 O 2005.98 -1.30669 1.15201 0
M  V30 20691 C 2003.11 -2.48135 2.33756 0
M  V30 20692 H 2004.3 -0.762948 2.90033 0
M  V30 20693 H 2001.86 -0.36124 1.52068 0
M  V30 20694 H 2002.59 -2.89492 1.46167 0
M  V30 20695 H 2002.38 -2.33918 3.14682 0
M  V30 20696 H 2003.87 -3.20855 2.67286 0
M  V30 20697 N 2004.3 -1.52772 -0.387116 0
M  V30 20698 C 2005.21 -1.8061 -1.49724 0
M  V30 20699 C 2006.23 -0.692981 -1.59605 0
M  V30 20700 O 2007.41 -0.98077 -1.75906 0
M  V30 20701 C 2004.47 -1.97083 -2.85236 0
M  V30 20702 C 2003.53 -3.20997 -2.8506 0
M  V30 20703 C 2002.76 -3.36675 -4.14108 0
M  V30 20704 O 2002.99 -2.57118 -5.09163 0
M  V30 20705 O 2001.92 -4.29938 -4.21233 0
M  V30 20706 H 2005.75 -2.7488 -1.2913 0
M  V30 20707 H 2003.33 -1.37886 -0.57514 0
M  V30 20708 H 2005.21 -2.09614 -3.65568 0
M  V30 20709 H 2003.89 -1.06002 -3.05852 0
M  V30 20710 H 2002.8 -3.13907 -2.03503 0
M  V30 20711 H 2004.13 -4.1193 -2.69396 0
M  V30 20712 N 2005.78 0.645673 -1.43767 0
M  V30 20713 C 2007.02 1.41719 -1.47293 0
M  V30 20714 C 2007.39 1.91753 -0.0972655 0
M  V30 20715 O 2008.59 2.68799 -0.007206 0
M  V30 20716 C 2006.86 2.56163 -2.4923 0
M  V30 20717 S 2008.42 3.44572 -2.7169 0
M  V30 20718 H 2005.23 0.483664 -0.521143 0
M  V30 20719 H 2007.84 0.748898 -1.80587 0
M  V30 20720 H 2006.54 2.17691 -3.47906 0
M  V30 20721 H 2006.07 3.27834 -2.17458 0
M  V30 20722 H 2008.09 4.53139 -2.02186 0
M  V30 20723 N 2007.26 1.30423 0.884744 0
M  V30 20724 C 2008.67 1.17357 1.45204 0
M  V30 20725 C 2009.02 -0.225645 1.94898 0
M  V30 20726 O 2008.15 -1.12234 1.8502 0
M  V30 20727 C 2008.74 2.12438 2.63923 0
M  V30 20728 C 2007.3 2.03351 3.16742 0
M  V30 20729 C 2006.45 2.02508 1.89436 0
M  V30 20730 H 2009.4 1.42689 0.694659 0
M  V30 20731 H 2009.42 1.70535 3.40144 0
M  V30 20732 H 2008.93 3.14267 2.27724 0
M  V30 20733 H 2007.03 1.04665 3.57597 0
M  V30 20734 H 2007.15 2.91748 3.80026 0
M  V30 20735 H 2005.51 1.47312 2.07777 0
M  V30 20736 H 2006.29 3.06066 1.55494 0
M  V30 20737 N 2008.74 -1.09711 1.13142 0
M  V30 20738 C 2009.96 -1.86136 0.914785 0
M  V30 20739 C 2010.39 -1.80448 -0.531035 0
M  V30 20740 O 2009.75 -1.17983 -1.37658 0
M  V30 20741 C 2009.79 -3.32164 1.40356 0
M  V30 20742 O 2008.9 -4.08203 0.586881 0
M  V30 20743 H 2008.24 -0.577287 0.328079 0
M  V30 20744 H 2010.77 -1.38563 1.50537 0
M  V30 20745 H 2010.78 -3.83013 1.40589 0
M  V30 20746 H 2009.45 -3.35619 2.45628 0
M  V30 20747 H 2008.03 -3.67153 0.652163 0
M  V30 20748 N 2010.22 -0.924476 -1.27637 0
M  V30 20749 C 2011.49 -0.481742 -1.89575 0
M  V30 20750 C 2011.87 1.04002 -1.83703 0
M  V30 20751 O 2011.22 1.89277 -1.28009 0
M  V30 20752 C 2011.43 -1.02419 -3.33633 0
M  V30 20753 C 2012.78 -1.08274 -4.10563 0
M  V30 20754 O 2013.8 -0.97359 -3.42636 0
M  V30 20755 O 2012.66 -1.25042 -5.32003 0
M  V30 20756 H 2009.76 -0.15444 -0.812451 0
M  V30 20757 H 2012.3 -1.01596 -1.35928 0
M  V30 20758 H 2011.07 -2.06808 -3.32184 0
M  V30 20759 H 2010.7 -0.471435 -3.94795 0
M  V30 20760 N 2011.69 1.41711 -0.689627 0
M  V30 20761 C 2012.97 1.95052 -0.146379 0
M  V30 20762 C 2013.35 1.62932 1.34225 0
M  V30 20763 O 2012.7 0.933198 2.08575 0
M  V30 20764 C 2012.91 3.46324 -0.431327 0
M  V30 20765 C 2014.26 4.23106 -0.355847 0
M  V30 20766 O 2015.28 3.54316 -0.365905 0
M  V30 20767 O 2014.14 5.45615 -0.310824 0
M  V30 20768 H 2011.23 0.82692 -0.0115 0
M  V30 20769 H 2013.78 1.5146 -0.765378 0
M  V30 20770 H 2012.55 3.62963 -1.46197 0
M  V30 20771 H 2012.18 3.96997 0.218942 0
M  V30 20772 N 2013.17 0.433965 1.51507 0
M  V30 20773 C 2014.08 -0.385423 2.31412 0
M  V30 20774 C 2015.1 -1.03078 1.40182 0
M  V30 20775 O 2016.27 -1.02688 1.73254 0
M  V30 20776 C 2013.34 -1.47371 3.13819 0
M  V30 20777 C 2012.4 -0.848838 4.20824 0
M  V30 20778 C 2011.63 -1.88527 4.99293 0
M  V30 20779 O 2011.86 -3.107 4.78353 0
M  V30 20780 O 2010.79 -1.47768 5.83479 0
M  V30 20781 H 2014.62 0.266798 3.02526 0
M  V30 20782 H 2012.2 0.19658 1.48101 0
M  V30 20783 H 2014.08 -2.10495 3.65061 0
M  V30 20784 H 2012.76 -2.11008 2.45474 0
M  V30 20785 H 2011.67 -0.179639 3.73668 0
M  V30 20786 H 2013 -0.256013 4.91534 0
M  V30 20787 N 2014.65 -1.56732 0.165206 0
M  V30 20788 C 2015.93 -1.88357 -0.527344 0
M  V30 20789 C 2016.31 -1.07412 -1.8173 0
M  V30 20790 O 2015.66 -0.166236 -2.27895 0
M  V30 20791 C 2015.87 -3.40282 -0.775175 0
M  V30 20792 C 2017.21 -4.09891 -1.10789 0
M  V30 20793 O 2018.24 -3.45565 -0.863921 0
M  V30 20794 O 2017.1 -5.23527 -1.56787 0
M  V30 20795 H 2014.19 -0.781304 -0.271096 0
M  V30 20796 H 2016.74 -1.68479 0.203183 0
M  V30 20797 H 2015.51 -3.9106 0.137 0
M  V30 20798 H 2015.13 -3.65751 -1.55924 0
M  V30 20799 N 2016.13 0.10854 -1.57226 0
M  V30 20800 C 2017.38 0.813095 -1.84585 0
M  V30 20801 C 2017.69 1.80548 -0.752453 0
M  V30 20802 O 2018.9 2.55697 -0.912763 0
M  V30 20803 C 2017.35 1.4968 -3.27298 0
M  V30 20804 C 2016.96 0.544871 -4.44674 0
M  V30 20805 C 2018.7 2.18587 -3.63895 0
M  V30 20806 C 2016.61 1.2324 -5.78417 0
M  V30 20807 H 2015.54 0.3074 -0.688492 0
M  V30 20808 H 2018.19 0.065908 -1.83382 0
M  V30 20809 H 2016.57 2.29098 -3.23002 0
M  V30 20810 H 2017.75 -0.216842 -4.6029 0
M  V30 20811 H 2016.06 -0.0377882 -4.16383 0
M  V30 20812 H 2018.66 2.70735 -4.61093 0
M  V30 20813 H 2019 2.96868 -2.91848 0
M  V30 20814 H 2019.54 1.46046 -3.70021 0
M  V30 20815 H 2016.28 0.490673 -6.53661 0
M  V30 20816 H 2015.8 1.96587 -5.66669 0
M  V30 20817 H 2017.47 1.76267 -6.22526 0
M  V30 20818 N 2017.61 1.52975 0.379009 0
M  V30 20819 C 2018.88 1.59096 1.13789 0
M  V30 20820 C 2019.26 0.390236 2.07462 0
M  V30 20821 O 2018.61 -0.620644 2.1991 0
M  V30 20822 C 2018.82 2.93471 1.8888 0
M  V30 20823 C 2020.17 3.47567 2.43889 0
M  V30 20824 O 2021.19 2.95411 1.99024 0
M  V30 20825 O 2020.05 4.38714 3.25871 0
M  V30 20826 H 2017.15 0.64208 0.521213 0
M  V30 20827 H 2019.69 1.65313 0.383355 0
M  V30 20828 H 2018.46 3.72304 1.20438 0
M  V30 20829 H 2018.09 2.90684 2.71272 0
M  V30 20830 N 2019.08 -0.63804 1.44107 0
M  V30 20831 C 2020.5 -1.21954 1.41365 0
M  V30 20832 C 2020.85 -1.95799 0.125451 0
M  V30 20833 O 2019.97 -2.02066 -0.774492 0
M  V30 20834 C 2020.57 -2.21819 2.56089 0
M  V30 20835 C 2019.13 -2.75412 2.56564 0
M  V30 20836 C 2018.27 -1.50296 2.33037 0
M  V30 20837 H 2021.22 -0.429131 1.52788 0
M  V30 20838 H 2021.24 -3.0429 2.28447 0
M  V30 20839 H 2020.76 -1.68045 3.49832 0
M  V30 20840 H 2018.86 -3.33207 1.66744 0
M  V30 20841 H 2018.97 -3.21922 3.54828 0
M  V30 20842 H 2017.33 -1.78184 1.81996 0
M  V30 20843 H 2018.12 -0.984346 3.28885 0
M  V30 20844 N 2020.56 -1.3089 -0.877815 0
M  V30 20845 C 2021.8 -1.21417 -1.6443 0
M  V30 20846 C 2022.17 0.225958 -1.90666 0
M  V30 20847 O 2023.37 0.444054 -2.65107 0
M  V30 20848 C 2021.64 -2.02699 -2.9436 0
M  V30 20849 S 2023.2 -2.10002 -3.85285 0
M  V30 20850 H 2020.02 -0.432571 -0.564272 0
M  V30 20851 H 2022.62 -1.65456 -1.04138 0
M  V30 20852 H 2021.32 -3.06433 -2.72996 0
M  V30 20853 H 2020.85 -1.59349 -3.59682 0
M  V30 20854 H 2022.87 -1.23262 -4.80646 0
M  V30 20855 N 2022.04 1.0911 -1.13723 0
M  V30 20856 C 2022.95 2.19388 -0.831037 0
M  V30 20857 C 2023.97 1.73007 0.185658 0
M  V30 20858 O 2025.14 2.01394 0.015917 0
M  V30 20859 C 2022.21 3.45355 -0.305036 0
M  V30 20860 C 2021.27 4.064 -1.38338 0
M  V30 20861 C 2020.5 5.26355 -0.882388 0
M  V30 20862 O 2020.72 5.69718 0.278833 0
M  V30 20863 O 2019.66 5.78609 -1.65816 0
M  V30 20864 H 2023.48 2.48037 -1.75246 0
M  V30 20865 H 2021.07 1.18108 -0.91493 0
M  V30 20866 H 2022.95 4.21396 -0.0172636 0
M  V30 20867 H 2021.63 3.18301 0.588762 0
M  V30 20868 H 2020.53 3.31981 -1.72452 0
M  V30 20869 H 2021.87 4.37688 -2.25144 0
M  V30 20870 N 2023.52 0.931232 1.27145 0
M  V30 20871 C 2024.93 0.617607 1.76189 0
M  V30 20872 C 2025.28 -0.867239 1.75993 0
M  V30 20873 O 2024.41 -1.67865 1.36567 0
M  V30 20874 C 2025 1.11436 3.19949 0
M  V30 20875 C 2023.56 0.851337 3.66646 0
M  V30 20876 C 2022.71 1.27104 2.46454 0
M  V30 20877 H 2025.66 1.11062 1.13362 0
M  V30 20878 H 2025.68 0.463637 3.77665 0
M  V30 20879 H 2025.19 2.19507 3.2006 0
M  V30 20880 H 2023.29 -0.215418 3.71977 0
M  V30 20881 H 2023.4 1.47136 4.55947 0
M  V30 20882 H 2021.77 0.689554 2.45188 0
M  V30 20883 H 2022.55 2.36047 2.49273 0
M  V30 20884 N 2025 -1.41343 0.697132 0
M  V30 20885 C 2026.22 -2.06049 0.236356 0
M  V30 20886 C 2026.65 -1.52124 -1.10634 0
M  V30 20887 O 2026.01 -0.648852 -1.69291 0
M  V30 20888 C 2026.05 -3.6001 0.206185 0
M  V30 20889 O 2025.16 -4.04197 -0.818466 0
M  V30 20890 H 2024.5 -0.65395 0.115091 0
M  V30 20891 H 2027.03 -1.8108 0.952431 0
M  V30 20892 H 2027.04 -4.07983 0.0375737 0
M  V30 20893 H 2025.71 -3.98628 1.18612 0
M  V30 20894 H 2024.29 -3.67725 -0.619082 0
M  V30 20895 N 2026.48 -0.441993 -1.51275 0
M  V30 20896 C 2027.7 0.123815 -2.0703 0
M  V30 20897 C 2028.13 1.35293 -1.30681 0
M  V30 20898 O 2027.48 1.77966 -0.346072 0
M  V30 20899 C 2027.53 0.419988 -3.58146 0
M  V30 20900 O 2026.64 1.50565 -3.83932 0
M  V30 20901 H 2025.98 -0.00017643 -0.664 0
M  V30 20902 H 2028.51 -0.624668 -1.94831 0
M  V30 20903 H 2028.52 0.66908 -4.02476 0
M  V30 20904 H 2027.19 -0.478329 -4.1314 0
M  V30 20905 H 2025.77 1.24615 -3.51462 0
M  V30 20906 N 2027.95 1.56642 -0.173515 0
M  V30 20907 C 2029.2 1.9656 0.469943 0
M  V30 20908 C 2029.52 1.06067 1.6363 0
M  V30 20909 O 2028.79 0.127477 1.95485 0
M  V30 20910 H 2027.37 0.725824 0.176604 0
M  V30 20911 H 2030.03 1.93222 -0.255212 0
M  V30 20912 H 2029.13 3.00903 0.828491 0
M  V30 20913 N 2029.43 -0.1002 1.57281 0
M  V30 20914 C 2030.68 -0.803034 1.85461 0
M  V30 20915 C 2031 -1.79518 0.761475 0
M  V30 20916 O 2030.27 -1.94741 -0.212768 0
M  V30 20917 H 2028.85 -0.299556 0.684306 0
M  V30 20918 H 2031.51 -0.0830444 1.94723 0
M  V30 20919 H 2030.61 -1.33676 2.82024 0
M  V30 20920 N 2030.91 -1.53174 -0.370891 0
M  V30 20921 C 2031.84 -1.82213 -1.46017 0
M  V30 20922 C 2032.82 -0.675274 -1.56122 0
M  V30 20923 O 2034.01 -0.924614 -1.70776 0
M  V30 20924 C 2031.14 -2.00727 -2.83419 0
M  V30 20925 C 2030.09 -3.16478 -2.88141 0
M  V30 20926 C 2029.42 -3.20276 -4.28167 0
M  V30 20927 C 2030.72 -4.55179 -2.56143 0
M  V30 20928 H 2032.41 -2.73432 -1.21965 0
M  V30 20929 H 2029.96 -1.31569 -0.585288 0
M  V30 20930 H 2031.91 -2.19625 -3.59643 0
M  V30 20931 H 2030.63 -1.06213 -3.08847 0
M  V30 20932 H 2029.29 -2.97392 -2.14367 0
M  V30 20933 H 2028.94 -2.2341 -4.50663 0
M  V30 20934 H 2028.64 -3.98044 -4.32244 0
M  V30 20935 H 2030.16 -3.41352 -5.06272 0
M  V30 20936 H 2031.58 -4.74274 -3.22082 0
M  V30 20937 H 2029.97 -5.35148 -2.71544 0
M  V30 20938 H 2031.04 -4.60654 -1.51412 0
M  V30 20939 N 2032.39 0.630389 -1.44443 0
M  V30 20940 C 2033.35 1.72422 -1.51008 0
M  V30 20941 C 2034.35 1.55948 -0.392038 0
M  V30 20942 O 2035.54 1.61429 -0.654688 0
M  V30 20943 C 2032.67 3.1151 -1.38472 0
M  V30 20944 H 2033.87 1.67975 -2.48444 0
M  V30 20945 H 2031.42 0.844115 -1.31546 0
M  V30 20946 H 2032.15 3.21551 -0.421327 0
M  V30 20947 H 2031.94 3.24874 -2.19544 0
M  V30 20948 H 2033.43 3.91228 -1.46049 0
M  V30 20949 N 2033.87 1.31354 0.870861 0
M  V30 20950 C 2034.81 1.18858 1.99939 0
M  V30 20951 C 2035.81 0.0970869 1.69122 0
M  V30 20952 O 2037.01 0.258917 1.78128 0
M  V30 20953 H 2033.39 0.367991 0.65581 0
M  V30 20954 H 2035.36 2.14338 2.07609 0
M  V30 20955 C 2034.11 0.911812 3.35531 0
M  V30 20956 H 2033.43 1.74383 3.59765 0
M  V30 20957 H 2034.87 0.864551 4.15092 0
M  V30 20958 C 2033.33 -0.385431 3.34688 0
M  V30 20959 O 2033.86 -1.40251 3.76421 0
M  V30 20960 N 2032.07 -0.401645 2.87811 0
M  V30 20961 H 2031.61 0.426528 2.54044 0
M  V30 20962 H 2031.57 -1.26952 2.87629 0
M  V30 20963 N 2035.34 -1.08505 1.143 0
M  V30 20964 C 2036.75 -1.62355 0.921836 0
M  V30 20965 C 2037.11 -1.88635 -0.539569 0
M  V30 20966 O 2036.23 -1.64307 -1.40827 0
M  V30 20967 C 2036.83 -2.94955 1.66694 0
M  V30 20968 C 2035.38 -3.45593 1.49139 0
M  V30 20969 C 2034.53 -2.19845 1.69008 0
M  V30 20970 H 2037.48 -0.917442 1.29494 0
M  V30 20971 H 2037.5 -3.63348 1.12954 0
M  V30 20972 H 2037.02 -2.75796 2.73053 0
M  V30 20973 H 2035.12 -3.69858 0.451226 0
M  V30 20974 H 2035.23 -4.2241 2.26068 0
M  V30 20975 H 2033.59 -2.28966 1.11565 0
M  V30 20976 H 2034.38 -2.03194 2.76707 0
M  V30 20977 N 2036.82 -0.937962 -1.26649 0
M  V30 20978 C 2038.05 -0.600464 -1.97995 0
M  V30 20979 C 2038.46 0.823838 -1.69877 0
M  V30 20980 O 2037.82 1.5489 -0.965163 0
M  V30 20981 C 2037.87 -0.829264 -3.5186 0
M  V30 20982 O 2037.59 -2.19754 -3.78998 0
M  V30 20983 C 2039.09 -0.501874 -4.4045 0
M  V30 20984 H 2036.31 -0.226587 -0.631585 0
M  V30 20985 H 2038.86 -1.25779 -1.61245 0
M  V30 20986 H 2037.01 -0.218596 -3.86783 0
M  V30 20987 H 2037.43 -2.25518 -4.73542 0
M  V30 20988 H 2038.9 -0.712605 -5.47381 0
M  V30 20989 H 2039.38 0.56301 -4.35576 0
M  V30 20990 H 2039.98 -1.09113 -4.11065 0
M  V30 20991 N 2038.3 1.40971 -0.704618 0
M  V30 20992 C 2039.72 1.55082 -0.377067 0
M  V30 20993 C 2039.92 1.67827 1.11518 0
M  V30 20994 O 2038.97 1.66173 1.90112 0
M  V30 20995 C 2040.28 2.78517 -1.13352 0
M  V30 20996 C 2041.83 2.92323 -1.11875 0
M  V30 20997 C 2042.31 4.18658 -1.85714 0
M  V30 20998 N 2043.8 4.25635 -1.82728 0
M  V30 20999 C 2044.53 5.22268 -2.36693 0
M  V30 21000 N 2044.03 6.24877 -2.99167 0
M  V30 21001 N 2045.82 5.14271 -2.26897 0
M  V30 21002 H 2037.97 1.30944 -1.67235 0
M  V30 21003 H 2040.24 0.632393 -0.706246 0
M  V30 21004 H 2039.94 2.75339 -2.18818 0
M  V30 21005 H 2039.82 3.70304 -0.717978 0
M  V30 21006 H 2042.2 2.95011 -0.0723296 0
M  V30 21007 H 2042.28 2.01685 -1.57343 0
M  V30 21008 H 2041.93 4.16732 -2.9034 0
M  V30 21009 H 2041.86 5.08285 -1.37674 0
M  V30 21010 H 2044.35 3.52119 -1.37187 0
M  V30 21011 H 2044.66 6.95019 -3.37889 0
M  V30 21012 H 2043.01 6.25353 -3.03247 0
M  V30 21013 H 2046.2 4.33037 -1.77755 0
M  V30 21014 H 2046.37 5.89411 -2.69256 0
M  V30 21015 N 2039.78 0.45001 1.51039 0
M  V30 21016 C 2040.74 -0.343489 2.26612 0
M  V30 21017 C 2041.74 -0.938789 1.3055 0
M  V30 21018 O 2042.93 -0.811258 1.54157 0
M  V30 21019 C 2040.06 -1.48719 3.0675 0
M  V30 21020 H 2041.26 0.318996 2.98199 0
M  V30 21021 H 2038.81 0.2035 1.5497 0
M  V30 21022 H 2039.54 -2.18535 2.3961 0
M  V30 21023 H 2039.33 -1.06636 3.77321 0
M  V30 21024 H 2040.82 -2.04748 3.63961 0
M  V30 21025 N 2041.26 -1.56548 0.18182 0
M  V30 21026 C 2042.5 -1.96807 -0.459512 0
M  V30 21027 C 2042.83 -1.06933 -1.63065 0
M  V30 21028 O 2042.1 -0.137842 -1.95414 0
M  V30 21029 H 2040.68 -0.72675 -0.172753 0
M  V30 21030 H 2043.34 -1.93084 0.265455 0
M  V30 21031 H 2042.43 -3.01338 -0.812522 0
M  V30 21032 N 2042.73 0.0918577 -1.57332 0
M  V30 21033 C 2043.98 0.793187 -1.85884 0
M  V30 21034 C 2044.3 1.79111 -0.770985 0
M  V30 21035 O 2043.57 1.94851 0.202438 0
M  V30 21036 H 2042.15 0.295923 -0.685885 0
M  V30 21037 H 2044.82 0.0727166 -1.94764 0
M  V30 21038 H 2043.91 1.32178 -2.82728 0
M  V30 21039 N 2044.21 1.53368 0.362763 0
M  V30 21040 C 2045.63 1.43203 0.704623 0
M  V30 21041 C 2045.83 0.573363 1.9317 0
M  V30 21042 O 2044.88 0.0568943 2.52436 0
M  V30 21043 C 2046.2 2.86434 0.915198 0
M  V30 21044 C 2047.75 2.96085 1.01503 0
M  V30 21045 C 2048.22 4.40383 1.25806 0
M  V30 21046 N 2049.71 4.43824 1.32569 0
M  V30 21047 C 2050.45 5.52586 1.53089 0
M  V30 21048 N 2049.94 6.71389 1.70906 0
M  V30 21049 N 2051.74 5.40169 1.55481 0
M  V30 21050 H 2043.89 2.07701 -0.444302 0
M  V30 21051 H 2046.15 0.938087 -0.136733 0
M  V30 21052 H 2045.86 3.51596 0.0853212 0
M  V30 21053 H 2045.73 3.3025 1.82249 0
M  V30 21054 H 2048.12 2.31074 1.83545 0
M  V30 21055 H 2048.2 2.55659 0.0850686 0
M  V30 21056 H 2047.84 5.05967 0.442642 0
M  V30 21057 H 2047.77 4.78384 2.20128 0
M  V30 21058 H 2050.26 3.58206 1.20402 0
M  V30 21059 H 2050.58 7.50047 1.86144 0
M  V30 21060 H 2048.92 6.7437 1.68079 0
M  V30 21061 H 2052.11 4.46318 1.41131 0
M  V30 21062 H 2052.28 6.24994 1.71131 0
M  V30 21063 N 2045.69 -0.62272 1.44776 0
M  V30 21064 C 2046.6 -1.76282 1.54796 0
M  V30 21065 C 2047.62 -1.68522 0.433164 0
M  V30 21066 O 2048.79 -1.89149 0.691713 0
M  V30 21067 C 2045.86 -3.12697 1.49737 0
M  V30 21068 C 2044.92 -3.32026 2.72135 0
M  V30 21069 C 2044.15 -4.61933 2.67308 0
M  V30 21070 O 2044.37 -5.43282 1.73783 0
M  V30 21071 O 2043.31 -4.83646 3.58288 0
M  V30 21072 H 2047.13 -1.70781 2.51133 0
M  V30 21073 H 2044.72 -0.784974 1.27116 0
M  V30 21074 H 2046.6 -3.94001 1.4947 0
M  V30 21075 H 2045.28 -3.18723 0.565471 0
M  V30 21076 H 2044.18 -2.50368 2.77969 0
M  V30 21077 H 2045.52 -3.30868 3.644 0
M  V30 21078 N 2047.17 -1.31814 -0.863883 0
M  V30 21079 C 2048.58 -1.19653 -1.43318 0
M  V30 21080 C 2048.93 0.19461 -1.95232 0
M  V30 21081 O 2048.06 1.09277 -1.86782 0
M  V30 21082 C 2048.65 -2.1661 -2.6051 0
M  V30 21083 C 2047.21 -2.08364 -3.13466 0
M  V30 21084 C 2046.36 -2.05496 -1.8619 0
M  V30 21085 H 2049.31 -1.43776 -0.67187 0
M  V30 21086 H 2049.33 -1.75925 -3.37388 0
M  V30 21087 H 2048.84 -3.1785 -2.22695 0
M  V30 21088 H 2046.94 -1.10341 -3.55887 0
M  V30 21089 H 2047.05 -2.97757 -3.75336 0
M  V30 21090 H 2045.42 -1.50599 -2.05407 0
M  V30 21091 H 2046.2 -3.08501 -1.50605 0
M  V30 21092 N 2048.65 1.07897 -1.14873 0
M  V30 21093 C 2049.88 1.8385 -0.942478 0
M  V30 21094 C 2050.28 1.82127 0.512486 0
M  V30 21095 O 2049.63 1.22709 1.36705 0
M  V30 21096 C 2049.69 3.32272 -1.37244 0
M  V30 21097 C 2049.35 3.57723 -2.844 0
M  V30 21098 C 2050.35 3.52131 -3.82492 0
M  V30 21099 C 2048.04 3.85567 -3.21937 0
M  V30 21100 C 2050.03 3.74022 -5.16126 0
M  V30 21101 C 2047.72 4.07111 -4.55745 0
M  V30 21102 C 2048.71 4.01333 -5.52649 0
M  V30 21103 O 2048.4 4.22306 -6.84042 0
M  V30 21104 H 2048.13 0.587081 -0.33513 0
M  V30 21105 H 2050.69 1.37142 -1.52909 0
M  V30 21106 H 2048.92 3.79763 -0.72919 0
M  V30 21107 H 2050.61 3.89674 -1.13617 0
M  V30 21108 H 2051.37 3.30628 -3.54838 0
M  V30 21109 H 2047.25 3.89182 -2.471 0
M  V30 21110 H 2050.8 3.69428 -5.91751 0
M  V30 21111 H 2046.69 4.28099 -4.83117 0
M  V30 21112 H 2047.46 4.39684 -6.90377 0
M  V30 21113 N 2050.12 0.944665 1.2615 0
M  V30 21114 C 2051.54 0.636259 1.75524 0
M  V30 21115 C 2051.89 -0.848524 1.76903 0
M  V30 21116 O 2051.01 -1.66407 1.38339 0
M  V30 21117 C 2051.61 1.14823 3.18749 0
M  V30 21118 C 2050.17 0.890177 3.65722 0
M  V30 21119 C 2049.31 1.29711 2.45093 0
M  V30 21120 H 2052.26 1.12258 1.12177 0
M  V30 21121 H 2052.28 0.503668 3.77152 0
M  V30 21122 H 2051.8 2.22889 3.17714 0
M  V30 21123 H 2049.9 -0.175952 3.72184 0
M  V30 21124 H 2050.01 1.51963 4.54361 0
M  V30 21125 H 2048.37 0.71552 2.44443 0
M  V30 21126 H 2049.16 2.38677 2.46755 0
M  V30 21127 N 2051.6 -1.40596 0.712085 0
M  V30 21128 C 2052.85 -2.00553 0.249593 0
M  V30 21129 C 2053.17 -1.56736 -1.16012 0
M  V30 21130 O 2052.44 -0.805259 -1.78584 0
M  V30 21131 H 2051.02 -0.741644 0.0892885 0
M  V30 21132 H 2053.68 -1.71984 0.916933 0
M  V30 21133 H 2052.78 -3.10842 0.279939 0
M  V30 21134 N 2053.08 -0.458013 -1.50798 0
M  V30 21135 C 2054.31 0.10185 -2.0715 0
M  V30 21136 C 2054.73 1.33899 -1.32109 0
M  V30 21137 O 2054.09 1.77589 -0.364928 0
M  V30 21138 C 2054.14 0.381979 -3.58571 0
M  V30 21139 O 2053.24 1.46484 -3.85508 0
M  V30 21140 H 2052.58 -0.00721903 -0.663961 0
M  V30 21141 H 2055.11 -0.645297 -1.94157 0
M  V30 21142 H 2055.12 0.626354 -4.03163 0
M  V30 21143 H 2053.8 -0.522121 -4.1261 0
M  V30 21144 H 2052.37 1.20881 -3.52764 0
M  V30 21145 N 2054.56 1.56449 -0.190119 0
M  V30 21146 C 2055.52 2.17632 0.718966 0
M  V30 21147 C 2056.52 1.12941 1.14459 0
M  V30 21148 O 2057.71 1.38353 1.05849 0
M  V30 21149 C 2054.84 2.77437 1.98095 0
M  V30 21150 H 2056.04 2.99322 0.186033 0
M  V30 21151 H 2053.59 1.56187 0.0594913 0
M  V30 21152 H 2054.33 1.99531 2.55652 0
M  V30 21153 H 2054.11 3.5407 1.68454 0
M  V30 21154 H 2055.6 3.24433 2.62932 0
M  V30 21155 N 2056.04 -0.0835127 1.57379 0
M  V30 21156 C 2056.95 -1.11858 2.06216 0
M  V30 21157 C 2057.96 -1.43137 0.989333 0
M  V30 21158 O 2059.14 -1.53548 1.30327 0
M  V30 21159 C 2056.2 -2.41603 2.48655 0
M  V30 21160 C 2055.27 -2.17401 3.70183 0
M  V30 21161 C 2054.5 -3.40959 4.10588 0
M  V30 21162 O 2054.72 -4.49637 3.50974 0
M  V30 21163 O 2053.66 -3.29863 5.03462 0
M  V30 21164 H 2057.48 -0.733741 2.94703 0
M  V30 21165 H 2055.07 -0.296834 1.46421 0
M  V30 21166 H 2056.95 -3.1798 2.76526 0
M  V30 21167 H 2055.62 -2.7949 1.63301 0
M  V30 21168 H 2054.53 -1.38767 3.47411 0
M  V30 21169 H 2055.86 -1.84401 4.56352 0
M  V30 21170 N 2057.52 -1.53558 -0.354624 0
M  V30 21171 C 2058.76 -1.70523 -1.09772 0
M  V30 21172 C 2059.09 -0.461312 -1.88641 0
M  V30 21173 O 2058.37 0.541553 -1.86809 0
M  V30 21174 C 2058.65 -2.96191 -2.04799 0
M  V30 21175 C 2058.51 -4.30765 -1.29465 0
M  V30 21176 C 2059.82 -3.17493 -3.04772 0
M  V30 21177 H 2056.94 -0.620497 -0.397683 0
M  V30 21178 H 2059.59 -1.86214 -0.377395 0
M  V30 21179 H 2057.74 -2.82944 -2.66223 0
M  V30 21180 H 2059.41 -4.55844 -0.707409 0
M  V30 21181 H 2057.65 -4.29678 -0.596569 0
M  V30 21182 H 2058.32 -5.14852 -1.99076 0
M  V30 21183 H 2060.8 -3.29998 -2.53458 0
M  V30 21184 H 2059.67 -4.06838 -3.68476 0
M  V30 21185 H 2059.93 -2.33276 -3.75546 0
M  V30 21186 N 2058.99 0.615033 -1.45104 0
M  V30 21187 C 2060.24 1.37029 -1.48007 0
M  V30 21188 C 2060.56 1.95213 -0.122939 0
M  V30 21189 O 2061.76 2.71484 -0.0295763 0
M  V30 21190 C 2060.22 2.48178 -2.60645 0
M  V30 21191 C 2059.83 1.96437 -4.02637 0
M  V30 21192 C 2061.57 3.25251 -2.72786 0
M  V30 21193 C 2059.48 3.05024 -5.0667 0
M  V30 21194 H 2058.41 0.515004 -0.550715 0
M  V30 21195 H 2061.06 0.659974 -1.71221 0
M  V30 21196 H 2059.44 3.2186 -2.307 0
M  V30 21197 H 2060.61 1.29514 -4.42225 0
M  V30 21198 H 2058.93 1.32132 -3.9488 0
M  V30 21199 H 2061.53 4.06229 -3.47681 0
M  V30 21200 H 2061.87 3.75776 -1.7916 0
M  V30 21201 H 2062.4 2.58666 -3.0222 0
M  V30 21202 H 2059.14 2.59425 -6.01979 0
M  V30 21203 H 2058.66 3.70538 -4.71658 0
M  V30 21204 H 2060.34 3.69532 -5.31089 0
M  V30 21205 N 2060.47 1.3227 0.85688 0
M  V30 21206 C 2061.89 1.11212 1.14473 0
M  V30 21207 C 2062.09 -0.108857 2.01206 0
M  V30 21208 O 2061.14 -0.7944 2.39678 0
M  V30 21209 C 2062.46 2.39046 1.82421 0
M  V30 21210 C 2064 2.44782 1.95066 0
M  V30 21211 C 2064.48 3.72531 2.66429 0
M  V30 21212 N 2065.97 3.735 2.73956 0
M  V30 21213 C 2066.71 4.69049 3.29819 0
M  V30 21214 N 2066.2 5.74963 3.86509 0
M  V30 21215 N 2067.99 4.5655 3.27901 0
M  V30 21216 H 2060.15 2.10557 0.279231 0
M  V30 21217 H 2062.41 0.929507 0.186337 0
M  V30 21218 H 2062.11 3.28299 1.26145 0
M  V30 21219 H 2061.99 2.49838 2.82596 0
M  V30 21220 H 2064.38 1.5599 2.50502 0
M  V30 21221 H 2064.46 2.37944 0.938939 0
M  V30 21222 H 2064.1 4.61696 2.11658 0
M  V30 21223 H 2064.03 3.76639 3.68036 0
M  V30 21224 H 2066.52 2.96945 2.33735 0
M  V30 21225 H 2066.83 6.43931 4.27285 0
M  V30 21226 H 2065.18 5.7872 3.84848 0
M  V30 21227 H 2068.37 3.72973 2.82858 0
M  V30 21228 H 2068.54 5.31189 3.71136 0
M  V30 21229 N 2061.95 -1.07287 1.15444 0
M  V30 21230 C 2062.86 -2.18038 0.865835 0
M  V30 21231 C 2063.88 -1.7328 -0.15811 0
M  V30 21232 O 2065.05 -2.01394 0.016125 0
M  V30 21233 C 2062.12 -3.44827 0.359941 0
M  V30 21234 C 2061.18 -4.04148 1.44786 0
M  V30 21235 C 2060.41 -5.24885 0.966015 0
M  V30 21236 O 2060.63 -5.7009 -0.188161 0
M  V30 21237 O 2059.57 -5.75898 1.75 0
M  V30 21238 H 2063.39 -2.45218 1.7917 0
M  V30 21239 H 2060.98 -1.16637 0.933604 0
M  V30 21240 H 2062.86 -4.21316 0.0843019 0
M  V30 21241 H 2061.54 -3.19197 -0.538049 0
M  V30 21242 H 2060.44 -3.29195 1.77711 0
M  V30 21243 H 2061.78 -4.34051 2.32079 0
M  V30 21244 N 2063.43 -0.951342 -1.25647 0
M  V30 21245 C 2064.65 -0.620954 -1.97886 0
M  V30 21246 C 2065.08 0.799383 -1.70269 0
M  V30 21247 O 2064.44 1.54005 -0.956672 0
M  V30 21248 C 2064.48 -0.881873 -3.4965 0
M  V30 21249 O 2063.59 0.0409801 -4.1238 0
M  V30 21250 H 2062.93 -0.236433 -0.62048 0
M  V30 21251 H 2065.46 -1.27704 -1.59852 0
M  V30 21252 H 2065.47 -0.806823 -3.99943 0
M  V30 21253 H 2064.14 -1.91708 -3.69081 0
M  V30 21254 H 2062.72 -0.0859938 -3.72801 0
M  V30 21255 N 2064.91 1.40216 -0.719531 0
M  V30 21256 C 2066.13 2.05647 -0.269106 0
M  V30 21257 C 2066.56 1.53865 1.082 0
M  V30 21258 O 2065.91 0.675703 1.68238 0
M  V30 21259 C 2065.96 3.59636 -0.263433 0
M  V30 21260 O 2065.07 4.05448 0.754058 0
M  V30 21261 H 2064.41 0.652036 -0.12548 0
M  V30 21262 H 2066.94 1.79542 -0.981119 0
M  V30 21263 H 2066.95 4.07871 -0.102475 0
M  V30 21264 H 2065.62 3.9669 -1.24939 0
M  V30 21265 H 2064.2 3.68664 0.560502 0
M  V30 21266 N 2066.38 0.466004 1.50553 0
M  V30 21267 C 2067.61 -0.0908629 2.07201 0
M  V30 21268 C 2068.03 -1.33196 1.32817 0
M  V30 21269 O 2067.39 -1.77393 0.374341 0
M  V30 21270 C 2067.44 -0.362957 3.58769 0
M  V30 21271 O 2066.54 -1.44438 3.86279 0
M  V30 21272 H 2065.88 0.0107401 0.663913 0
M  V30 21273 H 2068.41 0.655585 1.93812 0
M  V30 21274 H 2068.42 -0.604965 4.0349 0
M  V30 21275 H 2067.1 0.543996 4.12327 0
M  V30 21276 H 2065.68 -1.19008 3.534 0
M  V30 21277 N 2067.86 -1.56346 0.198413 0
M  V30 21278 C 2069.09 -2.02058 -0.444989 0
M  V30 21279 C 2069.5 -1.07852 -1.54963 0
M  V30 21280 O 2068.86 -0.0839717 -1.82307 0
M  V30 21281 C 2068.91 -3.47445 -0.99822 0
M  V30 21282 O 2068.63 -4.38056 0.0623476 0
M  V30 21283 C 2070.13 -4.08691 -1.71717 0
M  V30 21284 H 2067.35 -0.661691 -0.111383 0
M  V30 21285 H 2069.9 -2.02166 0.308092 0
M  V30 21286 H 2068.05 -3.48026 -1.70167 0
M  V30 21287 H 2068.47 -5.23331 -0.349939 0
M  V30 21288 H 2069.94 -5.1226 -2.05654 0
M  V30 21289 H 2070.42 -3.52341 -2.62207 0
M  V30 21290 H 2071.02 -4.11892 -1.05949 0
M  V30 21291 N 2069.34 0.0751653 -1.57421 0
M  V30 21292 C 2070.57 0.787972 -1.91308 0
M  V30 21293 C 2070.98 1.7129 -0.794055 0
M  V30 21294 O 2070.34 1.81009 0.23281 0
M  V30 21295 C 2070.39 1.58447 -3.24926 0
M  V30 21296 O 2070.11 0.696727 -4.32524 0
M  V30 21297 C 2071.61 2.39857 -3.72805 0
M  V30 21298 H 2068.83 0.22422 -0.632429 0
M  V30 21299 H 2071.38 0.0464417 -2.04447 0
M  V30 21300 H 2069.53 2.27831 -3.13324 0
M  V30 21301 H 2069.95 1.25038 -5.09378 0
M  V30 21302 H 2071.42 2.91207 -4.68938 0
M  V30 21303 H 2071.9 3.19229 -3.01645 0
M  V30 21304 H 2072.5 1.75636 -3.8734 0
M  V30 21305 N 2070.82 1.53744 0.346476 0
M  V30 21306 C 2072.07 1.70512 1.0849 0
M  V30 21307 C 2072.39 0.469467 1.89264 0
M  V30 21308 O 2071.66 -0.516594 1.88966 0
M  V30 21309 H 2070.24 0.628636 0.403517 0
M  V30 21310 H 2072.9 1.9099 0.388459 0
M  V30 21311 H 2072 2.57472 1.76394 0
M  V30 21312 N 2072.3 -0.607329 1.45428 0
M  V30 21313 C 2073.23 -1.73178 1.48609 0
M  V30 21314 C 2074.21 -1.58953 0.342449 0
M  V30 21315 O 2075.39 -1.8051 0.542987 0
M  V30 21316 C 2072.52 -3.11006 1.34138 0
M  V30 21317 C 2071.56 -3.43819 2.52371 0
M  V30 21318 S 2072.4 -3.3863 4.14837 0
M  V30 21319 C 2073.55 -4.79038 4.02831 0
M  V30 21320 H 2073.79 -1.70216 2.4375 0
M  V30 21321 H 2071.32 -0.784003 1.33014 0
M  V30 21322 H 2073.28 -3.90531 1.26476 0
M  V30 21323 H 2071.94 -3.11482 0.40468 0
M  V30 21324 H 2071.13 -4.44174 2.38172 0
M  V30 21325 H 2070.73 -2.7181 2.56896 0
M  V30 21326 H 2073.03 -5.68848 3.67991 0
M  V30 21327 H 2073.97 -4.98294 5.03099 0
M  V30 21328 H 2074.38 -4.54732 3.34484 0
M  V30 21329 N 2073.77 -1.32722 -0.849853 0
M  V30 21330 C 2075.02 -1.23739 -1.60675 0
M  V30 21331 C 2075.35 0.199183 -1.93176 0
M  V30 21332 O 2074.63 1.13761 -1.57761 0
M  V30 21333 C 2074.91 -2.10183 -2.92395 0
M  V30 21334 C 2074.76 -3.62243 -2.66646 0
M  V30 21335 C 2076.08 -1.96664 -3.93715 0
M  V30 21336 H 2073.2 -0.45085 -0.583013 0
M  V30 21337 H 2075.84 -1.62716 -0.980999 0
M  V30 21338 H 2073.99 -1.77072 -3.458 0
M  V30 21339 H 2075.67 -4.05591 -2.19758 0
M  V30 21340 H 2073.91 -3.8467 -2.00529 0
M  V30 21341 H 2074.58 -4.1806 -3.60458 0
M  V30 21342 H 2077.06 -2.25679 -3.49583 0
M  V30 21343 H 2075.93 -2.59417 -4.83729 0
M  V30 21344 H 2076.19 -0.935664 -4.32085 0
M  V30 21345 N 2075.25 1.06673 -1.16011 0
M  V30 21346 C 2076.5 1.79666 -0.940641 0
M  V30 21347 C 2076.83 1.86814 0.530502 0
M  V30 21348 O 2076.11 1.35692 1.39348 0
M  V30 21349 C 2076.39 3.24359 -1.56407 0
M  V30 21350 C 2076.24 3.25315 -3.10629 0
M  V30 21351 C 2077.56 4.2181 -1.25556 0
M  V30 21352 H 2074.68 0.652242 -0.343145 0
M  V30 21353 H 2077.32 1.2478 -1.43282 0
M  V30 21354 H 2075.47 3.71227 -1.14553 0
M  V30 21355 H 2077.14 2.86637 -3.61438 0
M  V30 21356 H 2075.39 2.64077 -3.4416 0
M  V30 21357 H 2076.06 4.27371 -3.49368 0
M  V30 21358 H 2078.53 3.83365 -1.61772 0
M  V30 21359 H 2077.41 5.21326 -1.71785 0
M  V30 21360 H 2077.67 4.41758 -0.173744 0
M  V30 21361 N 2076.73 0.957992 1.25141 0
M  V30 21362 C 2077.98 0.613378 1.92567 0
M  V30 21363 C 2078.3 -0.852805 1.75363 0
M  V30 21364 O 2077.57 -1.60775 1.11929 0
M  V30 21365 H 2076.15 0.223867 0.712666 0
M  V30 21366 H 2078.81 1.21696 1.52237 0
M  V30 21367 H 2077.91 0.845594 3.00427 0
M  V30 21368 N 2078.21 -1.39832 0.726957 0
M  V30 21369 C 2079.46 -1.99907 0.268315 0
M  V30 21370 C 2079.77 -1.58329 -1.14854 0
M  V30 21371 O 2080.98 -2.11183 -1.70628 0
M  V30 21372 C 2079.43 -3.57337 0.428781 0
M  V30 21373 C 2079.04 -4.07882 1.853 0
M  V30 21374 C 2080.78 -4.24488 0.031508 0
M  V30 21375 C 2078.69 -5.57856 1.96344 0
M  V30 21376 H 2077.62 -0.747791 0.0965646 0
M  V30 21377 H 2080.27 -1.59931 0.899682 0
M  V30 21378 H 2078.65 -3.95069 -0.271354 0
M  V30 21379 H 2079.83 -3.81502 2.58444 0
M  V30 21380 H 2078.14 -3.53366 2.20276 0
M  V30 21381 H 2080.74 -5.34619 0.0931531 0
M  V30 21382 H 2081.08 -4.0381 -1.01209 0
M  V30 21383 H 2081.62 -3.91901 0.682503 0
M  V30 21384 H 2078.36 -5.83404 2.98865 0
M  V30 21385 H 2077.88 -5.86064 1.27627 0
M  V30 21386 H 2079.55 -6.2314 1.74085 0
M  V30 21387 N 2079.69 -0.473982 -1.50304 0
M  V30 21388 C 2080.93 0.0801282 -2.02642 0
M  V30 21389 C 2081.27 1.3911 -1.35506 0
M  V30 21390 O 2080.54 1.8844 -0.481719 0
M  V30 21391 C 2080.82 0.26092 -3.59153 0
M  V30 21392 C 2080.68 -1.07128 -4.36857 0
M  V30 21393 C 2082 1.01413 -4.28256 0
M  V30 21394 H 2079.11 0.0276467 -0.736481 0
M  V30 21395 H 2081.76 -0.620135 -1.79595 0
M  V30 21396 H 2079.91 0.857378 -3.78921 0
M  V30 21397 H 2081.58 -1.70454 -4.28653 0
M  V30 21398 H 2079.82 -1.66721 -4.00483 0
M  V30 21399 H 2080.49 -0.898389 -5.4464 0
M  V30 21400 H 2082.97 0.508536 -4.12981 0
M  V30 21401 H 2081.84 1.10943 -5.37571 0
M  V30 21402 H 2082.11 2.05141 -3.91624 0
M  V30 21403 N 2081.16 1.56239 -0.206702 0
M  V30 21404 C 2082.13 2.18382 0.695843 0
M  V30 21405 C 2083.13 1.14149 1.13255 0
M  V30 21406 O 2084.32 1.39468 1.04376 0
M  V30 21407 C 2081.45 2.79522 1.95141 0
M  V30 21408 H 2082.64 2.99503 0.154275 0
M  V30 21409 H 2080.2 1.56241 0.0429222 0
M  V30 21410 H 2080.93 2.02231 2.53521 0
M  V30 21411 H 2080.72 3.55837 1.64689 0
M  V30 21412 H 2082.21 3.27203 2.59476 0
M  V30 21413 N 2082.64 -0.0668159 1.57458 0
M  V30 21414 C 2083.61 -1.06329 2.03044 0
M  V30 21415 C 2084.61 -1.31301 0.928259 0
M  V30 21416 O 2085.8 -1.26938 1.193 0
M  V30 21417 C 2082.93 -2.40573 2.41532 0
M  V30 21418 H 2084.12 -0.67029 2.92313 0
M  V30 21419 H 2081.67 -0.312678 1.53141 0
M  V30 21420 H 2082.41 -2.84695 1.55303 0
M  V30 21421 H 2082.19 -2.23788 3.21965 0
M  V30 21422 H 2083.68 -3.12189 2.77359 0
M  V30 21423 N 2084.12 -1.53926 -0.338317 0
M  V30 21424 C 2085.08 -1.81578 -1.39865 0
M  V30 21425 C 2086.08 -0.687011 -1.45385 0
M  V30 21426 O 2087.27 -0.955305 -1.45669 0
M  V30 21427 C 2084.41 -1.96252 -2.78744 0
M  V30 21428 H 2085.6 -2.76302 -1.16608 0
M  V30 21429 H 2083.15 -1.45418 -0.572996 0
M  V30 21430 H 2083.89 -1.03688 -3.07277 0
M  V30 21431 H 2083.67 -2.78376 -2.76133 0
M  V30 21432 H 2085.16 -2.19144 -3.5548 0
M  V30 21433 N 2085.6 0.599608 -1.45748 0
M  V30 21434 C 2086.56 1.6918 -1.54631 0
M  V30 21435 C 2087.56 1.55081 -0.425029 0
M  V30 21436 O 2088.75 1.60004 -0.688782 0
M  V30 21437 C 2085.88 3.08502 -1.45049 0
M  V30 21438 H 2087.08 1.62667 -2.51951 0
M  V30 21439 H 2084.63 0.816022 -1.33307 0
M  V30 21440 H 2085.37 3.20585 -0.489439 0
M  V30 21441 H 2085.15 3.20144 -2.26386 0
M  V30 21442 H 2086.64 3.88042 -1.54315 0
M  V30 21443 N 2087.08 1.33171 0.842803 0
M  V30 21444 C 2088.01 1.2572 1.96766 0
M  V30 21445 C 2088.99 0.138574 1.69535 0
M  V30 21446 O 2090.17 0.327704 1.91415 0
M  V30 21447 C 2087.3 0.991637 3.32842 0
M  V30 21448 C 2086.26 2.07278 3.74459 0
M  V30 21449 C 2085.58 1.65942 5.08299 0
M  V30 21450 C 2086.88 3.48911 3.88662 0
M  V30 21451 H 2088.58 2.19834 2.03257 0
M  V30 21452 H 2086.12 1.05829 0.976533 0
M  V30 21453 H 2088.08 0.926021 4.111 0
M  V30 21454 H 2086.8 0.0148823 3.26597 0
M  V30 21455 H 2085.46 2.12875 2.98462 0
M  V30 21456 H 2085.11 0.669795 4.98521 0
M  V30 21457 H 2084.81 2.38288 5.37115 0
M  V30 21458 H 2086.33 1.60839 5.89036 0
M  V30 21459 H 2087.75 3.45837 4.57241 0
M  V30 21460 H 2086.14 4.1971 4.2891 0
M  V30 21461 H 2087.21 3.87705 2.91226 0
M  V30 21462 N 2088.56 -1.06056 1.16576 0
M  V30 21463 C 2089.8 -1.80482 0.959457 0
M  V30 21464 C 2090.16 -1.85278 -0.503583 0
M  V30 21465 O 2091.36 -2.55708 -0.828663 0
M  V30 21466 C 2089.63 -3.20942 1.57261 0
M  V30 21467 S 2091.19 -4.11954 1.51128 0
M  V30 21468 H 2088.01 -0.621693 0.34499 0
M  V30 21469 H 2090.61 -1.27312 1.48364 0
M  V30 21470 H 2089.31 -3.15048 2.63007 0
M  V30 21471 H 2088.85 -3.79188 1.04785 0
M  V30 21472 H 2090.86 -4.93539 0.513209 0
M  V30 21473 N 2090.03 -0.964615 -1.24631 0
M  V30 21474 C 2091.28 -0.620429 -1.91921 0
M  V30 21475 C 2091.6 0.847851 -1.76269 0
M  V30 21476 O 2092.8 1.30243 -2.38221 0
M  V30 21477 C 2091.26 -1.059 -3.43967 0
M  V30 21478 C 2090.87 -2.55052 -3.6831 0
M  V30 21479 C 2092.61 -0.787818 -4.17126 0
M  V30 21480 C 2090.52 -2.92658 -5.13912 0
M  V30 21481 H 2089.45 -0.22834 -0.718594 0
M  V30 21482 H 2092.1 -1.17041 -1.41328 0
M  V30 21483 H 2090.48 -0.437357 -3.93577 0
M  V30 21484 H 2091.65 -3.2232 -3.29312 0
M  V30 21485 H 2089.97 -2.79748 -3.08432 0
M  V30 21486 H 2092.57 -1.04483 -5.24392 0
M  V30 21487 H 2092.91 0.275932 -4.15385 0
M  V30 21488 H 2093.44 -1.37028 -3.73454 0
M  V30 21489 H 2090.18 -3.98091 -5.20772 0
M  V30 21490 H 2089.7 -2.30071 -5.5392 0
M  V30 21491 H 2091.38 -2.82395 -5.82119 0
M  V30 21492 N 2091.51 1.39445 -0.734362 0
M  V30 21493 C 2092.44 2.33245 -0.109065 0
M  V30 21494 C 2093.42 1.53878 0.724945 0
M  V30 21495 O 2094.61 1.82274 0.670055 0
M  V30 21496 C 2091.74 3.37973 0.799454 0
M  V30 21497 C 2090.69 4.27943 0.0696508 0
M  V30 21498 C 2090.02 5.23365 1.09514 0
M  V30 21499 C 2091.32 5.10855 -1.08738 0
M  V30 21500 H 2093.01 2.85786 -0.892581 0
M  V30 21501 H 2090.56 1.37409 -0.430672 0
M  V30 21502 H 2092.51 4.02545 1.24643 0
M  V30 21503 H 2091.23 2.83871 1.61508 0
M  V30 21504 H 2089.89 3.64851 -0.357693 0
M  V30 21505 H 2089.54 4.65559 1.90432 0
M  V30 21506 H 2089.24 5.84408 0.611606 0
M  V30 21507 H 2090.77 5.90813 1.54183 0
M  V30 21508 H 2092.18 5.68775 -0.718888 0
M  V30 21509 H 2090.58 5.81038 -1.50051 0
M  V30 21510 H 2091.65 4.45725 -1.90937 0
M  V30 21511 N 2092.99 0.481946 1.5005 0
M  V30 21512 C 2094.24 -0.0710199 2.01575 0
M  V30 21513 C 2094.55 -1.39798 1.36806 0
M  V30 21514 O 2095.76 -2.03653 1.79549 0
M  V30 21515 C 2094.21 -0.177064 3.59464 0
M  V30 21516 C 2093.82 1.14212 4.33197 0
M  V30 21517 C 2095.57 -0.681409 4.18995 0
M  V30 21518 C 2093.47 0.999274 5.82897 0
M  V30 21519 H 2092.4 -0.0303162 0.75339 0
M  V30 21520 H 2095.05 0.618487 1.72763 0
M  V30 21521 H 2093.44 -0.930598 3.8491 0
M  V30 21522 H 2094.61 1.90745 4.19467 0
M  V30 21523 H 2092.92 1.57841 3.85325 0
M  V30 21524 H 2095.52 -0.805484 5.28598 0
M  V30 21525 H 2095.86 -1.6755 3.81094 0
M  V30 21526 H 2096.4 0.015045 3.97797 0
M  V30 21527 H 2093.14 1.96706 6.2529 0
M  V30 21528 H 2092.66 0.274505 5.99172 0
M  V30 21529 H 2094.34 0.670265 6.43519 0
M  V30 21530 N 2094.47 -1.56127 0.214985 0
M  V30 21531 C 2095.4 -2.22991 -0.69263 0
M  V30 21532 C 2096.38 -1.19946 -1.20611 0
M  V30 21533 O 2097.56 -1.48512 -1.25131 0
M  V30 21534 C 2094.69 -2.90473 -1.90376 0
M  V30 21535 C 2093.65 -3.99933 -1.52439 0
M  V30 21536 C 2092.97 -4.54678 -2.81375 0
M  V30 21537 C 2094.27 -5.17323 -0.719325 0
M  V30 21538 H 2095.97 -2.99095 -0.135168 0
M  V30 21539 H 2093.51 -1.4386 -0.0635721 0
M  V30 21540 H 2095.47 -3.35938 -2.54408 0
M  V30 21541 H 2094.19 -2.11806 -2.48608 0
M  V30 21542 H 2092.85 -3.55189 -0.907557 0
M  V30 21543 H 2092.5 -3.72749 -3.37739 0
M  V30 21544 H 2092.2 -5.28549 -2.56729 0
M  V30 21545 H 2093.72 -5.02857 -3.46362 0
M  V30 21546 H 2095.14 -5.5921 -1.2632 0
M  V30 21547 H 2093.53 -5.97385 -0.570203 0
M  V30 21548 H 2094.6 -4.84117 0.275461 0
M  V30 21549 N 2095.95 0.0584645 -1.57492 0
M  V30 21550 C 2096.88 1.0681 -2.07639 0
M  V30 21551 C 2097.86 1.3955 -0.972622 0
M  V30 21552 O 2099.04 1.48946 -1.24615 0
M  V30 21553 C 2096.17 2.37774 -2.53142 0
M  V30 21554 C 2095.13 2.19354 -3.67516 0
M  V30 21555 C 2094.45 3.5582 -3.9912 0
M  V30 21556 C 2095.75 1.60379 -4.97067 0
M  V30 21557 H 2097.45 0.650765 -2.92242 0
M  V30 21558 H 2094.99 0.311587 -1.40589 0
M  V30 21559 H 2096.94 3.08709 -2.86839 0
M  V30 21560 H 2095.67 2.81513 -1.65583 0
M  V30 21561 H 2094.33 1.50858 -3.34122 0
M  V30 21562 H 2093.98 3.97153 -3.08672 0
M  V30 21563 H 2093.68 3.4433 -4.76142 0
M  V30 21564 H 2095.2 4.28164 -4.35325 0
M  V30 21565 H 2096.61 2.21195 -5.2891 0
M  V30 21566 H 2095.01 1.59548 -5.78502 0
M  V30 21567 H 2096.08 0.566547 -4.81579 0
M  V30 21568 N 2097.42 1.54103 0.330149 0
M  V30 21569 C 2098.65 1.75693 1.08699 0
M  V30 21570 C 2099.06 0.502371 1.82409 0
M  V30 21571 O 2098.4 -0.53629 1.75698 0
M  V30 21572 C 2098.47 2.89199 2.13551 0
M  V30 21573 C 2098.13 4.28338 1.59298 0
M  V30 21574 C 2099.13 5.09428 1.03823 0
M  V30 21575 C 2096.81 4.74863 1.6374 0
M  V30 21576 C 2098.81 6.3515 0.535098 0
M  V30 21577 C 2096.49 6.00554 1.1304 0
M  V30 21578 C 2097.49 6.80531 0.580184 0
M  V30 21579 O 2097.18 8.03859 0.0807823 0
M  V30 21580 H 2096.91 0.590289 0.329447 0
M  V30 21581 H 2099.47 2.01779 0.38398 0
M  V30 21582 H 2097.7 2.58669 2.87449 0
M  V30 21583 H 2099.38 2.98634 2.74905 0
M  V30 21584 H 2100.15 4.74641 0.997028 0
M  V30 21585 H 2096.03 4.1266 2.05506 0
M  V30 21586 H 2099.57 6.97521 0.104978 0
M  V30 21587 H 2095.47 6.34833 1.16865 0
M  V30 21588 H 2096.24 8.18263 0.196822 0
M  V30 21589 N 2098.9 -0.59187 1.46064 0
M  V30 21590 C 2099.87 -1.68357 1.55526 0
M  V30 21591 C 2100.87 -1.54854 0.433247 0
M  V30 21592 O 2102.06 -1.59637 0.697258 0
M  V30 21593 C 2099.19 -3.07729 1.46683 0
M  V30 21594 H 2100.38 -1.61328 2.5281 0
M  V30 21595 H 2097.93 -0.808941 1.33738 0
M  V30 21596 H 2098.67 -3.20321 0.506433 0
M  V30 21597 H 2098.45 -3.18939 2.2808 0
M  V30 21598 H 2099.94 -3.87218 1.5637 0
M  V30 21599 N 2100.38 -1.33616 -0.835729 0
M  V30 21600 C 2101.31 -1.18471 -1.95038 0
M  V30 21601 C 2102.29 -0.0794148 -1.62406 0
M  V30 21602 O 2103.48 -0.242229 -1.86937 0
M  V30 21603 C 2100.6 -0.817792 -3.28679 0
M  V30 21604 C 2099.65 -1.93103 -3.80281 0
M  V30 21605 S 2100.48 -3.5425 -4.0158 0
M  V30 21606 C 2101.64 -3.19572 -5.38167 0
M  V30 21607 H 2101.87 -2.12826 -2.07587 0
M  V30 21608 H 2099.4 -1.18495 -0.989865 0
M  V30 21609 H 2101.36 -0.612875 -4.05899 0
M  V30 21610 H 2100.02 0.107213 -3.13917 0
M  V30 21611 H 2099.22 -1.62774 -4.76991 0
M  V30 21612 H 2098.82 -2.09277 -3.09966 0
M  V30 21613 H 2101.11 -2.70592 -6.21117 0
M  V30 21614 H 2102.05 -4.15375 -5.73471 0
M  V30 21615 H 2102.46 -2.56087 -5.0307 0
M  V30 21616 N 2101.86 1.05436 -1.17136 0
M  V30 21617 C 2103.09 1.8181 -0.981263 0
M  V30 21618 C 2103.5 1.83173 0.473739 0
M  V30 21619 O 2102.84 1.25581 1.34071 0
M  V30 21620 C 2102.9 3.29286 -1.44261 0
M  V30 21621 C 2102.57 3.5161 -2.91924 0
M  V30 21622 C 2103.56 3.43938 -3.89875 0
M  V30 21623 C 2101.25 3.78652 -3.30043 0
M  V30 21624 C 2103.24 3.6299 -5.23944 0
M  V30 21625 C 2100.93 3.97352 -4.64278 0
M  V30 21626 C 2101.93 3.8952 -5.61038 0
M  V30 21627 O 2101.61 4.07702 -6.92845 0
M  V30 21628 H 2101.35 0.57984 -0.347507 0
M  V30 21629 H 2103.9 1.33868 -1.55784 0
M  V30 21630 H 2102.13 3.78131 -0.80958 0
M  V30 21631 H 2103.82 3.87177 -1.21857 0
M  V30 21632 H 2104.59 3.23027 -3.61772 0
M  V30 21633 H 2100.46 3.83853 -2.553 0
M  V30 21634 H 2104.01 3.56793 -5.99454 0
M  V30 21635 H 2099.91 4.17755 -4.92088 0
M  V30 21636 H 2100.67 4.24941 -6.99548 0
M  V30 21637 N 2103.34 0.971211 1.24118 0
M  V30 21638 C 2104.28 0.503612 2.25239 0
M  V30 21639 C 2105.25 -0.452682 1.59812 0
M  V30 21640 O 2106.44 -0.362267 1.87329 0
M  V30 21641 C 2103.58 -0.196695 3.44539 0
M  V30 21642 C 2102.69 0.798779 4.24551 0
M  V30 21643 C 2101.83 0.0742204 5.31148 0
M  V30 21644 C 2100.87 1.05952 6.0286 0
M  V30 21645 N 2100 0.364736 7.01152 0
M  V30 21646 H 2104.84 1.37074 2.64603 0
M  V30 21647 H 2102.38 0.687058 1.30069 0
M  V30 21648 H 2104.34 -0.619443 4.12576 0
M  V30 21649 H 2102.97 -1.02775 3.06002 0
M  V30 21650 H 2102.02 1.33995 3.56019 0
M  V30 21651 H 2103.33 1.54998 4.74107 0
M  V30 21652 H 2102.49 -0.40635 6.05338 0
M  V30 21653 H 2101.22 -0.709647 4.82509 0
M  V30 21654 H 2100.23 1.55093 5.27471 0
M  V30 21655 H 2101.45 1.8439 6.53588 0
M  V30 21656 H 2099.4 -0.400091 6.54779 0
M  V30 21657 H 2099.32 1.05474 7.48606 0
M  V30 21658 H 2100.59 -0.0937508 7.79444 0
M  V30 21659 N 2104.81 -1.39054 0.741747 0
M  V30 21660 C 2106.04 -2.04371 0.302669 0
M  V30 21661 C 2106.45 -1.5605 -1.06982 0
M  V30 21662 O 2105.8 -0.723518 -1.68852 0
M  V30 21663 C 2105.86 -3.5874 0.233614 0
M  V30 21664 C 2105.52 -4.30067 1.54568 0
M  V30 21665 C 2106.52 -4.56248 2.49267 0
M  V30 21666 C 2104.2 -4.68484 1.81185 0
M  V30 21667 C 2106.2 -5.19864 3.68809 0
M  V30 21668 C 2103.88 -5.31827 3.01003 0
M  V30 21669 C 2104.88 -5.5745 3.94636 0
M  V30 21670 O 2104.57 -6.19478 5.1235 0
M  V30 21671 H 2104.3 -0.663574 0.129015 0
M  V30 21672 H 2106.86 -1.78957 1.00814 0
M  V30 21673 H 2105.09 -3.83078 -0.528012 0
M  V30 21674 H 2106.78 -4.05525 -0.174366 0
M  V30 21675 H 2107.54 -4.27008 2.29976 0
M  V30 21676 H 2103.42 -4.47893 1.09146 0
M  V30 21677 H 2106.96 -5.3978 4.41908 0
M  V30 21678 H 2102.86 -5.60488 3.20192 0
M  V30 21679 H 2103.63 -6.3797 5.12774 0
M  V30 21680 N 2106.29 -0.489897 -1.49792 0
M  V30 21681 C 2107.71 -0.145171 -1.58938 0
M  V30 21682 C 2107.91 1.34961 -1.49625 0
M  V30 21683 O 2106.96 2.1246 -1.36444 0
M  V30 21684 C 2108.28 -0.7121 -2.92147 0
M  V30 21685 C 2109.83 -0.677209 -3.05586 0
M  V30 21686 C 2110.3 -1.22201 -4.41397 0
M  V30 21687 N 2111.79 -1.18222 -4.47859 0
M  V30 21688 C 2112.53 -1.57407 -5.51372 0
M  V30 21689 N 2112.02 -2.04131 -6.62044 0
M  V30 21690 N 2113.82 -1.48892 -5.42022 0
M  V30 21691 H 2105.97 -1.46186 -1.54089 0
M  V30 21692 H 2108.23 -0.60569 -0.729276 0
M  V30 21693 H 2107.94 -1.75998 -3.04496 0
M  V30 21694 H 2107.81 -0.166236 -3.76834 0
M  V30 21695 H 2110.2 0.361809 -2.92874 0
M  V30 21696 H 2110.28 -1.26009 -2.2261 0
M  V30 21697 H 2109.92 -2.25975 -4.5486 0
M  V30 21698 H 2109.85 -0.615163 -5.22995 0
M  V30 21699 H 2112.34 -0.839749 -3.68452 0
M  V30 21700 H 2112.66 -2.32129 -7.37113 0
M  V30 21701 H 2111 -2.08097 -6.63114 0
M  V30 21702 H 2114.19 -1.12217 -4.5445 0
M  V30 21703 H 2114.36 -1.79754 -6.22569 0
M  V30 21704 N 2107.77 1.56011 -0.223262 0
M  V30 21705 C 2108.72 2.21735 0.702604 0
M  V30 21706 C 2109.71 1.19729 1.19839 0
M  V30 21707 O 2110.92 1.37804 1.15802 0
M  V30 21708 H 2107.29 0.71097 0.245002 0
M  V30 21709 H 2109.26 2.98139 0.124869 0
M  V30 21710 C 2108.01 2.91245 1.89925 0
M  V30 21711 H 2107.34 3.69496 1.52686 0
M  V30 21712 H 2108.78 3.4063 2.52482 0
M  V30 21713 C 2107.24 1.9381 2.75571 0
M  V30 21714 O 2107.77 1.45612 3.74379 0
M  V30 21715 N 2105.97 1.61422 2.41643 0
M  V30 21716 H 2105.52 2.00811 1.61347 0
M  V30 21717 H 2105.48 0.964905 2.99227 0
M  V30 21718 N 2109.25 -0.0501116 1.5752 0
M  V30 21719 C 2110.66 -0.405366 1.54366 0
M  V30 21720 C 2110.86 -1.77885 0.946523 0
M  V30 21721 O 2109.92 -2.46248 0.558406 0
M  V30 21722 C 2111.23 -0.326523 2.98922 0
M  V30 21723 C 2112.78 -0.40514 3.10367 0
M  V30 21724 C 2113.26 -0.355974 4.56615 0
M  V30 21725 N 2114.75 -0.415404 4.61334 0
M  V30 21726 C 2115.48 -0.39992 5.72004 0
M  V30 21727 N 2114.98 -0.337966 6.91975 0
M  V30 21728 N 2116.77 -0.448091 5.60311 0
M  V30 21729 H 2108.92 0.848979 1.94695 0
M  V30 21730 H 2111.19 0.320787 0.892076 0
M  V30 21731 H 2110.89 0.616487 3.46255 0
M  V30 21732 H 2110.77 -1.12839 3.59927 0
M  V30 21733 H 2113.15 -1.33858 2.62995 0
M  V30 21734 H 2113.23 0.425702 2.52233 0
M  V30 21735 H 2112.88 0.573705 5.04649 0
M  V30 21736 H 2112.81 -1.20464 5.12636 0
M  V30 21737 H 2115.3 -0.466654 3.75008 0
M  V30 21738 H 2115.61 -0.330673 7.72092 0
M  V30 21739 H 2113.96 -0.304327 6.94333 0
M  V30 21740 H 2117.15 -0.494336 4.65482 0
M  V30 21741 H 2117.32 -0.432555 6.46555 0
M  V30 21742 N 2110.73 -1.54276 -0.321972 0
M  V30 21743 C 2112 -1.63209 -1.07806 0
M  V30 21744 C 2112.38 -0.466965 -2.0587 0
M  V30 21745 O 2111.73 0.538598 -2.22062 0
M  V30 21746 C 2111.94 -3.00279 -1.77858 0
M  V30 21747 C 2113.29 -3.5638 -2.30822 0
M  V30 21748 O 2114.31 -3.02594 -1.87923 0
M  V30 21749 O 2113.17 -4.50507 -3.09364 0
M  V30 21750 H 2110.27 -0.660982 -0.497023 0
M  V30 21751 H 2112.81 -1.66622 -0.321736 0
M  V30 21752 H 2111.58 -3.76518 -1.06537 0
M  V30 21753 H 2111.21 -3.00552 -2.60297 0
M  V30 21754 N 2112.2 0.584116 -1.46376 0
M  V30 21755 C 2113.11 1.72116 -1.59415 0
M  V30 21756 C 2114.13 1.67314 -0.477692 0
M  V30 21757 O 2115.31 1.87248 -0.74162 0
M  V30 21758 C 2112.37 3.08617 -1.57975 0
M  V30 21759 C 2111.43 3.24694 -2.80842 0
M  V30 21760 C 2110.67 4.54683 -2.79462 0
M  V30 21761 O 2110.89 5.38484 -1.88126 0
M  V30 21762 O 2109.82 4.73977 -3.70985 0
M  V30 21763 H 2113.65 1.64062 -2.55572 0
M  V30 21764 H 2111.23 0.750995 -1.29153 0
M  V30 21765 H 2113.12 3.899 -1.59863 0
M  V30 21766 H 2111.79 3.17111 -0.649775 0
M  V30 21767 H 2110.7 2.4291 -2.84509 0
M  V30 21768 H 2112.03 3.2109 -3.73044 0
M  V30 21769 N 2113.68 1.34058 0.828631 0
M  V30 21770 C 2114.93 1.25844 1.58138 0
M  V30 21771 C 2115.25 -0.173004 1.94231 0
M  V30 21772 O 2114.52 -1.10425 1.61812 0
M  V30 21773 H 2113.1 0.4628 0.586366 0
M  V30 21774 H 2115.76 1.67901 0.989709 0
M  V30 21775 H 2114.86 1.85925 2.50676 0
M  V30 21776 N 2115.16 -1.04814 1.17694 0
M  V30 21777 C 2116.39 -1.82088 0.992908 0
M  V30 21778 C 2116.81 -1.82538 -0.454023 0
M  V30 21779 O 2116.17 -1.23716 -1.3253 0
M  V30 21780 C 2116.22 -3.25912 1.54318 0
M  V30 21781 O 2115.32 -4.05346 0.759486 0
M  V30 21782 H 2114.66 -0.562852 0.352268 0
M  V30 21783 H 2117.19 -1.32054 1.56279 0
M  V30 21784 H 2117.2 -3.76705 1.56708 0
M  V30 21785 H 2115.88 -3.24899 2.59641 0
M  V30 21786 H 2114.45 -3.64056 0.807298 0
M  V30 21787 N 2116.64 -0.977779 -1.23601 0
M  V30 21788 C 2117.87 -0.662189 -1.957 0
M  V30 21789 C 2118.28 0.77446 -1.72623 0
M  V30 21790 O 2117.62 1.53247 -1.01297 0
M  V30 21791 C 2117.68 -0.869464 -3.48827 0
M  V30 21792 C 2117.35 -2.28768 -3.95619 0
M  V30 21793 C 2118.34 -3.26617 -4.04497 0
M  V30 21794 C 2116.03 -2.61807 -4.28675 0
M  V30 21795 C 2118.02 -4.55586 -4.45781 0
M  V30 21796 C 2115.71 -3.91 -4.69641 0
M  V30 21797 C 2116.71 -4.87701 -4.7816 0
M  V30 21798 O 2116.4 -6.14587 -5.18206 0
M  V30 21799 H 2116.13 -0.245256 -0.629941 0
M  V30 21800 H 2118.68 -1.31105 -1.58116 0
M  V30 21801 H 2116.91 -0.163432 -3.86354 0
M  V30 21802 H 2118.6 -0.551434 -4.02137 0
M  V30 21803 H 2119.37 -3.02422 -3.79165 0
M  V30 21804 H 2115.25 -1.87252 -4.21257 0
M  V30 21805 H 2118.79 -5.31065 -4.52345 0
M  V30 21806 H 2114.69 -4.14991 -4.94422 0
M  V30 21807 H 2115.45 -6.18301 -5.36326 0
M  V30 21808 N 2118.12 1.38658 -0.749111 0
M  V30 21809 C 2119.07 2.27805 -0.0942107 0
M  V30 21810 C 2120.05 1.44975 0.697929 0
M  V30 21811 O 2121.24 1.67753 0.564619 0
M  V30 21812 C 2118.37 3.33811 0.801579 0
M  V30 21813 C 2117.46 4.241 0.0028319 0
M  V30 21814 N 2117.85 4.95175 -1.03129 0
M  V30 21815 C 2116.15 4.45405 0.230336 0
M  V30 21816 C 2116.85 5.61648 -1.51416 0
M  V30 21817 N 2115.82 5.37222 -0.830252 0
M  V30 21818 H 2119.63 2.80218 -0.886296 0
M  V30 21819 H 2117.14 1.51508 -0.584738 0
M  V30 21820 H 2119.14 3.96559 1.28634 0
M  V30 21821 H 2117.8 2.82956 1.59267 0
M  V30 21822 H 2118.81 4.98252 -1.41298 0
M  V30 21823 H 2115.49 4.05467 0.995116 0
M  V30 21824 H 2116.88 6.28513 -2.37531 0
M  V30 21825 N 2119.6 0.497834 1.49531 0
M  V30 21826 C 2120.84 -0.0478795 2.02743 0
M  V30 21827 C 2121.17 -1.36937 1.37702 0
M  V30 21828 O 2120.45 -1.8765 0.511637 0
M  V30 21829 C 2120.73 -0.203749 3.59523 0
M  V30 21830 C 2120.59 1.14064 4.35097 0
M  V30 21831 C 2121.9 -0.945869 4.29815 0
M  V30 21832 H 2119.02 -0.0159264 0.736828 0
M  V30 21833 H 2121.67 0.648629 1.78586 0
M  V30 21834 H 2119.82 -0.796987 3.80237 0
M  V30 21835 H 2121.49 1.77252 4.25887 0
M  V30 21836 H 2119.73 1.73071 3.9778 0
M  V30 21837 H 2120.4 0.984923 5.43142 0
M  V30 21838 H 2122.88 -0.44277 4.13738 0
M  V30 21839 H 2121.75 -1.02377 5.39268 0
M  V30 21840 H 2122.01 -1.98884 3.94839 0
M  V30 21841 N 2121.07 -1.5589 0.231532 0
M  V30 21842 C 2122.35 -1.90424 -0.446981 0
M  V30 21843 C 2122.73 -1.15023 -1.77011 0
M  V30 21844 O 2122.08 -0.262744 -2.26984 0
M  V30 21845 C 2122.29 -3.43264 -0.630152 0
M  V30 21846 C 2123.64 -4.14221 -0.933046 0
M  V30 21847 O 2124.66 -3.48918 -0.716578 0
M  V30 21848 O 2123.52 -5.29705 -1.34441 0
M  V30 21849 H 2120.61 -0.792099 -0.237715 0
M  V30 21850 H 2123.16 -1.67466 0.274458 0
M  V30 21851 H 2121.93 -3.90127 0.302739 0
M  V30 21852 H 2121.55 -3.72035 -1.40271 0
M  V30 21853 N 2122.55 0.0417572 -1.57545 0
M  V30 21854 C 2123.46 1.06351 -2.09109 0
M  V30 21855 C 2124.48 1.40464 -1.02694 0
M  V30 21856 O 2125.65 1.50038 -1.34352 0
M  V30 21857 C 2122.72 2.34925 -2.54973 0
M  V30 21858 C 2121.78 2.0751 -3.75816 0
M  V30 21859 C 2121.01 3.29954 -4.19483 0
M  V30 21860 O 2121.24 4.40174 -3.62772 0
M  V30 21861 O 2120.17 3.16399 -5.12031 0
M  V30 21862 H 2124 0.655348 -2.96545 0
M  V30 21863 H 2121.58 0.257909 -1.47157 0
M  V30 21864 H 2123.46 3.10537 -2.84859 0
M  V30 21865 H 2122.14 2.75062 -1.70653 0
M  V30 21866 H 2121.04 1.29507 -3.50968 0
M  V30 21867 H 2122.38 1.72237 -4.61081 0
M  V30 21868 N 2124.03 1.54445 0.313786 0
M  V30 21869 C 2125.25 1.77413 1.07421 0
M  V30 21870 C 2125.68 0.525885 1.80599 0
M  V30 21871 O 2125.04 -0.523027 1.73592 0
M  V30 21872 C 2125.09 2.97322 2.04039 0
M  V30 21873 O 2124.19 2.69552 3.12115 0
M  V30 21874 H 2123.53 0.587597 0.309235 0
M  V30 21875 H 2126.06 2.01495 0.355102 0
M  V30 21876 H 2126.07 3.2494 2.46735 0
M  V30 21877 H 2124.75 3.87839 1.5018 0
M  V30 21878 H 2123.32 2.52913 2.74025 0
M  V30 21879 N 2125.51 -0.576345 1.46683 0
M  V30 21880 C 2126.92 -0.900361 1.31779 0
M  V30 21881 C 2127.12 -1.99344 0.293964 0
M  V30 21882 O 2126.18 -2.50697 -0.301245 0
M  V30 21883 C 2127.49 -1.31169 2.70583 0
M  V30 21884 C 2129.04 -1.42419 2.78722 0
M  V30 21885 C 2129.52 -1.86916 4.18123 0
M  V30 21886 N 2131.01 -1.94099 4.20571 0
M  V30 21887 C 2131.74 -2.29817 5.2533 0
M  V30 21888 N 2131.24 -2.64282 6.40411 0
M  V30 21889 N 2133.03 -2.30426 5.12699 0
M  V30 21890 H 2125.18 0.145622 2.119 0
M  V30 21891 H 2127.44 0.00247797 0.947997 0
M  V30 21892 H 2127.15 -0.582484 3.46843 0
M  V30 21893 H 2127.02 -2.2719 3.01106 0
M  V30 21894 H 2129.41 -2.14425 2.02746 0
M  V30 21895 H 2129.49 -0.446341 2.51876 0
M  V30 21896 H 2129.14 -1.15486 4.94596 0
M  V30 21897 H 2129.07 -2.8567 4.4238 0
M  V30 21898 H 2131.56 -1.69927 3.3754 0
M  V30 21899 H 2131.87 -2.90509 7.16118 0
M  V30 21900 H 2130.22 -2.61906 6.43762 0
M  V30 21901 H 2133.41 -2.02927 4.21827 0
M  V30 21902 H 2133.58 -2.57934 5.94453 0
M  V30 21903 N 2126.99 -1.34495 -0.82151 0
M  V30 21904 C 2127.93 -1.26196 -1.9539 0
M  V30 21905 C 2128.93 -0.159788 -1.68645 0
M  V30 21906 O 2130.13 -0.32485 -1.77044 0
M  V30 21907 H 2126.51 -0.392077 -0.6417 0
M  V30 21908 H 2128.48 -2.21896 -1.99511 0
M  V30 21909 C 2127.23 -1.03571 -3.31916 0
M  V30 21910 H 2126.55 -1.87615 -3.53045 0
M  V30 21911 H 2127.99 -1.01801 -4.11597 0
M  V30 21912 C 2126.45 0.260949 -3.35888 0
M  V30 21913 O 2126.98 1.26183 -3.81367 0
M  V30 21914 N 2125.19 0.29455 -2.89103 0
M  V30 21915 H 2124.73 -0.520521 -2.52286 0
M  V30 21916 H 2124.69 1.16189 -2.92143 0
M  V30 21917 N 2128.46 1.04188 -1.18248 0
M  V30 21918 C 2129.69 1.80759 -1.00049 0
M  V30 21919 C 2130.1 1.83665 0.454284 0
M  V30 21920 O 2129.45 1.26996 1.32732 0
M  V30 21921 C 2129.51 3.27737 -1.47745 0
M  V30 21922 C 2129.17 3.48494 -2.95637 0
M  V30 21923 C 2130.17 3.39784 -3.93501 0
M  V30 21924 C 2127.85 3.7513 -3.3404 0
M  V30 21925 C 2129.85 3.57413 -5.27764 0
M  V30 21926 C 2127.53 3.92406 -4.68467 0
M  V30 21927 C 2128.53 3.83547 -5.65137 0
M  V30 21928 O 2128.22 4.0033 -6.97131 0
M  V30 21929 H 2127.95 0.576122 -0.353638 0
M  V30 21930 H 2130.51 1.32208 -1.57195 0
M  V30 21931 H 2128.74 3.77251 -0.84964 0
M  V30 21932 H 2130.43 3.85862 -1.25956 0
M  V30 21933 H 2131.19 3.19172 -3.65177 0
M  V30 21934 H 2127.07 3.81123 -2.59357 0
M  V30 21935 H 2130.61 3.50415 -6.03204 0
M  V30 21936 H 2126.51 4.12512 -4.96492 0
M  V30 21937 H 2127.28 4.17497 -7.04016 0
M  V30 21938 N 2129.94 0.98432 1.23081 0
M  V30 21939 C 2131.19 0.650883 1.90909 0
M  V30 21940 C 2131.5 -0.819701 1.77596 0
M  V30 21941 O 2132.71 -1.26436 2.40263 0
M  V30 21942 C 2131.17 1.11359 3.42239 0
M  V30 21943 C 2130.77 2.60879 3.64206 0
M  V30 21944 C 2132.52 0.854079 4.15819 0
M  V30 21945 C 2130.43 3.00797 5.09191 0
M  V30 21946 H 2129.36 0.239743 0.71487 0
M  V30 21947 H 2132.01 1.19274 1.39449 0
M  V30 21948 H 2130.39 0.499916 3.92832 0
M  V30 21949 H 2131.56 3.27519 3.24142 0
M  V30 21950 H 2129.88 2.84619 3.03942 0
M  V30 21951 H 2132.47 1.12812 5.22664 0
M  V30 21952 H 2132.82 -0.209813 4.15771 0
M  V30 21953 H 2133.35 1.42952 3.71227 0
M  V30 21954 H 2130.09 4.06326 5.14373 0
M  V30 21955 H 2129.61 2.38854 5.5019 0
M  V30 21956 H 2131.29 2.9162 5.77552 0
M  V30 21957 N 2131.42 -1.38259 0.756453 0
M  V30 21958 C 2132.65 -2.04861 0.323535 0
M  V30 21959 C 2133.07 -1.56679 -1.04083 0
M  V30 21960 O 2132.43 -0.72007 -1.66387 0
M  V30 21961 C 2132.48 -3.58812 0.358692 0
M  V30 21962 O 2131.58 -4.07304 -0.646296 0
M  V30 21963 H 2130.92 -0.64848 0.142723 0
M  V30 21964 H 2133.45 -1.76877 1.02838 0
M  V30 21965 H 2133.46 -4.07456 0.210579 0
M  V30 21966 H 2132.14 -3.93238 1.35413 0
M  V30 21967 H 2130.71 -3.7002 -0.462561 0
M  V30 21968 N 2132.9 -0.505757 -1.49264 0
M  V30 21969 C 2133.85 0.28378 -2.30862 0
M  V30 21970 C 2134.84 0.958332 -1.39687 0
M  V30 21971 O 2136.05 0.885479 -1.56714 0
M  V30 21972 H 2132.42 0.110376 -0.743856 0
M  V30 21973 H 2134.39 -0.424349 -2.95367 0
M  V30 21974 C 2133.14 1.33255 -3.21152 0
M  V30 21975 H 2132.46 0.822894 -3.9124 0
M  V30 21976 H 2133.9 1.85687 -3.81177 0
M  V30 21977 C 2132.36 2.35327 -2.41087 0
M  V30 21978 O 2132.89 3.41302 -2.1184 0
M  V30 21979 N 2131.1 2.07918 -2.03023 0
M  V30 21980 H 2130.65 1.21758 -2.27009 0
M  V30 21981 H 2130.6 2.7644 -1.49762 0
M  V30 21982 N 2134.38 1.55765 -0.239796 0
M  V30 21983 C 2135.6 2.03618 0.394243 0
M  V30 21984 C 2136.03 1.1181 1.51261 0
M  V30 21985 O 2135.38 0.1097 1.80968 0
M  V30 21986 C 2135.43 3.49545 0.886029 0
M  V30 21987 O 2134.54 3.60872 1.99613 0
M  V30 21988 H 2133.88 0.658289 0.0869012 0
M  V30 21989 H 2136.41 2.0134 -0.363774 0
M  V30 21990 H 2136.42 3.90226 1.1911 0
M  V30 21991 H 2135.09 4.15845 0.0675883 0
M  V30 21992 H 2133.67 3.32085 1.6963 0
M  V30 21993 N 2135.85 -0.0334016 1.57565 0
M  V30 21994 C 2136.82 -1.01998 2.05253 0
M  V30 21995 C 2137.82 -1.29303 0.955901 0
M  V30 21996 O 2139.01 -1.24379 1.21965 0
M  V30 21997 C 2136.14 -2.35395 2.4658 0
M  V30 21998 H 2137.33 -0.608136 2.93669 0
M  V30 21999 H 2134.89 -0.280124 1.53769 0
M  V30 22000 H 2135.62 -2.81337 1.61307 0
M  V30 22001 H 2135.41 -2.16908 3.26639 0
M  V30 22002 H 2136.9 -3.06235 2.83918 0
M  V30 22003 N 2137.33 -1.54609 -0.305591 0
M  V30 22004 C 2138.26 -1.81607 -1.39826 0
M  V30 22005 C 2139.28 -0.698812 -1.47039 0
M  V30 22006 O 2140.47 -0.976217 -1.4944 0
M  V30 22007 C 2137.57 -1.93493 -2.78233 0
M  V30 22008 C 2136.74 -3.23849 -2.94008 0
M  V30 22009 C 2135.8 -3.26209 -4.12885 0
M  V30 22010 O 2134.82 -3.99763 -4.05189 0
M  V30 22011 N 2136.03 -2.51272 -5.233 0
M  V30 22012 H 2138.79 -2.75909 -1.17023 0
M  V30 22013 H 2136.35 -1.54126 -0.495646 0
M  V30 22014 H 2138.34 -1.92479 -3.55997 0
M  V30 22015 H 2136.91 -1.06208 -2.94005 0
M  V30 22016 H 2136.13 -3.37674 -2.03395 0
M  V30 22017 H 2137.42 -4.0988 -3.01456 0
M  V30 22018 H 2136.82 -1.91135 -5.32432 0
M  V30 22019 H 2135.38 -2.56017 -5.99415 0
M  V30 22020 N 2138.81 0.568558 -1.46987 0
M  V30 22021 C 2140.04 1.35675 -1.56867 0
M  V30 22022 C 2140.46 1.86864 -0.215303 0
M  V30 22023 O 2139.82 1.62351 0.806967 0
M  V30 22024 C 2139.87 2.51048 -2.58858 0
M  V30 22025 O 2138.97 3.52929 -2.13342 0
M  V30 22026 H 2138.31 0.403471 -0.527358 0
M  V30 22027 H 2140.84 0.688258 -1.92676 0
M  V30 22028 H 2140.85 2.97773 -2.78918 0
M  V30 22029 H 2139.53 2.13145 -3.5713 0
M  V30 22030 H 2138.1 3.12587 -2.03332 0
M  V30 22031 N 2140.29 1.34929 0.814366 0
M  V30 22032 C 2141.24 1.27231 1.94718 0
M  V30 22033 C 2142.23 0.16873 1.68558 0
M  V30 22034 O 2143.44 0.334235 1.7687 0
M  V30 22035 H 2139.81 0.395475 0.639612 0
M  V30 22036 H 2141.78 2.22951 1.98332 0
M  V30 22037 C 2140.53 1.0533 3.31362 0
M  V30 22038 H 2139.85 1.89485 3.52045 0
M  V30 22039 H 2141.29 1.03983 4.11052 0
M  V30 22040 C 2139.75 -0.243132 3.36022 0
M  V30 22041 O 2140.28 -1.24159 3.82031 0
M  V30 22042 N 2138.49 -0.279214 2.89256 0
M  V30 22043 H 2138.04 0.533893 2.52007 0
M  V30 22044 H 2137.99 -1.14638 2.92755 0
M  V30 22045 N 2141.77 -1.0356 1.18799 0
M  V30 22046 C 2143.01 -1.76497 0.984535 0
M  V30 22047 C 2143.34 -1.88833 -0.486544 0
M  V30 22048 O 2142.61 -1.41702 -1.35268 0
M  V30 22049 H 2141.19 -0.653818 0.36129 0
M  V30 22050 H 2143.85 -1.24956 1.49573 0
M  V30 22051 H 2142.94 -2.77573 1.42687 0
M  V30 22052 N 2143.25 -0.990834 -1.22557 0
M  V30 22053 C 2144.21 -0.544553 -2.22637 0
M  V30 22054 C 2145.21 0.371467 -1.56451 0
M  V30 22055 O 2146.4 0.163711 -1.73429 0
M  V30 22056 C 2143.53 0.20822 -3.40264 0
M  V30 22057 H 2144.72 -1.42959 -2.63634 0
M  V30 22058 H 2142.28 -0.77782 -1.35572 0
M  V30 22059 H 2143.01 1.10933 -3.04737 0
M  V30 22060 H 2142.8 -0.449464 -3.89515 0
M  V30 22061 H 2144.29 0.508696 -4.1449 0
M  V30 22062 N 2144.72 1.37856 -0.763775 0
M  V30 22063 C 2145.97 2.00179 -0.324977 0
M  V30 22064 C 2146.3 1.60492 1.09343 0
M  V30 22065 O 2145.58 0.847295 1.75075 0
M  V30 22066 C 2145.86 3.57157 -0.459452 0
M  V30 22067 C 2145.71 4.06777 -1.9197 0
M  V30 22068 C 2147.03 4.39874 0.141077 0
M  V30 22069 H 2144.15 0.727238 -0.119555 0
M  V30 22070 H 2146.79 1.6365 -0.965327 0
M  V30 22071 H 2144.94 3.88405 0.0857008 0
M  V30 22072 H 2146.62 3.86128 -2.52394 0
M  V30 22073 H 2144.86 3.59266 -2.43127 0
M  V30 22074 H 2145.53 5.15845 -1.96489 0
M  V30 22075 H 2148.01 4.14837 -0.323975 0
M  V30 22076 H 2146.88 5.48897 0.0168029 0
M  V30 22077 H 2147.14 4.2463 1.23052 0
M  V30 22078 N 2146.2 0.513665 1.48994 0
M  V30 22079 C 2147.45 -0.0263732 2.02783 0
M  V30 22080 C 2147.78 -1.35469 1.39147 0
M  V30 22081 O 2147.06 -1.87097 0.531511 0
M  V30 22082 C 2147.34 -0.165605 3.59719 0
M  V30 22083 C 2147.19 1.18673 4.33863 0
M  V30 22084 C 2148.51 -0.900228 4.30794 0
M  V30 22085 H 2145.63 -0.00811043 0.736955 0
M  V30 22086 H 2148.27 0.667534 1.77888 0
M  V30 22087 H 2146.42 -0.756613 3.81061 0
M  V30 22088 H 2148.09 1.81759 4.23983 0
M  V30 22089 H 2146.34 1.77281 3.95922 0
M  V30 22090 H 2147.01 1.04247 5.42067 0
M  V30 22091 H 2149.48 -0.398863 4.14184 0
M  V30 22092 H 2148.36 -0.966514 5.40324 0
M  V30 22093 H 2148.62 -1.94685 3.96926 0
M  V30 22094 N 2147.68 -1.55636 0.248053 0
M  V30 22095 C 2148.63 -2.21428 -0.651012 0
M  V30 22096 C 2149.6 -1.17855 -1.17045 0
M  V30 22097 O 2150.78 -1.46306 -1.22471 0
M  V30 22098 C 2147.92 -2.91846 -1.84174 0
M  V30 22099 C 2147.03 -4.10077 -1.35872 0
M  V30 22100 C 2146.17 -4.68207 -2.50909 0
M  V30 22101 C 2145.21 -5.78685 -1.99475 0
M  V30 22102 N 2144.35 -6.30993 -3.07883 0
M  V30 22103 H 2149.19 -2.97884 -0.0832758 0
M  V30 22104 H 2146.72 -1.47071 -0.0293424 0
M  V30 22105 H 2148.68 -3.30873 -2.54124 0
M  V30 22106 H 2147.31 -2.17862 -2.38193 0
M  V30 22107 H 2146.36 -3.76356 -0.553219 0
M  V30 22108 H 2147.67 -4.89829 -0.941776 0
M  V30 22109 H 2146.83 -5.09814 -3.28899 0
M  V30 22110 H 2145.57 -3.87674 -2.95905 0
M  V30 22111 H 2144.57 -5.36555 -1.19955 0
M  V30 22112 H 2145.8 -6.6107 -1.55447 0
M  V30 22113 H 2143.74 -5.53365 -3.52312 0
M  V30 22114 H 2143.66 -7.05941 -2.70523 0
M  V30 22115 H 2144.93 -6.77258 -3.8593 0
M  V30 22116 N 2149.16 0.0250451 -1.5758 0
M  V30 22117 C 2150.07 1.04128 -2.10225 0
M  V30 22118 C 2151.08 1.39367 -1.04178 0
M  V30 22119 O 2152.26 1.48605 -1.35936 0
M  V30 22120 C 2149.32 2.32208 -2.5745 0
M  V30 22121 C 2148.39 2.03512 -3.77996 0
M  V30 22122 C 2147.62 3.25486 -4.22959 0
M  V30 22123 O 2147.84 4.36301 -3.6742 0
M  V30 22124 O 2146.78 3.1095 -5.15358 0
M  V30 22125 H 2150.6 0.623859 -2.97223 0
M  V30 22126 H 2148.19 0.242286 -1.47422 0
M  V30 22127 H 2150.07 3.07498 -2.88137 0
M  V30 22128 H 2148.74 2.73237 -1.73561 0
M  V30 22129 H 2147.65 1.25777 -3.52322 0
M  V30 22130 H 2148.98 1.67337 -4.62882 0
M  V30 22131 N 2150.64 1.54769 0.297388 0
M  V30 22132 C 2151.58 1.8597 1.36689 0
M  V30 22133 C 2152.55 0.708928 1.50211 0
M  V30 22134 O 2153.74 0.9579 1.65012 0
M  V30 22135 C 2150.88 2.11576 2.72635 0
M  V30 22136 C 2149.99 3.39191 2.67533 0
M  V30 22137 C 2149.13 3.54621 3.95496 0
M  V30 22138 C 2148.16 4.76015 3.84806 0
M  V30 22139 N 2147.3 4.88232 5.04553 0
M  V30 22140 H 2152.14 2.772 1.09381 0
M  V30 22141 H 2149.68 1.3726 0.528967 0
M  V30 22142 H 2151.64 2.24418 3.517 0
M  V30 22143 H 2150.27 1.23608 2.98196 0
M  V30 22144 H 2149.32 3.3495 1.80312 0
M  V30 22145 H 2150.63 4.28379 2.55525 0
M  V30 22146 H 2149.78 3.67147 4.82999 0
M  V30 22147 H 2148.52 2.63573 4.10342 0
M  V30 22148 H 2147.53 4.63518 2.95687 0
M  V30 22149 H 2148.75 5.68475 3.71502 0
M  V30 22150 H 2146.7 4.00108 5.19855 0
M  V30 22151 H 2146.62 5.71427 4.94982 0
M  V30 22152 H 2147.88 5.05119 5.93696 0
M  V30 22153 N 2152.11 -0.560755 1.47286 0
M  V30 22154 C 2153.05 -1.68324 1.55562 0
M  V30 22155 C 2154.06 -1.56682 0.442105 0
M  V30 22156 O 2155.25 -1.63705 0.711545 0
M  V30 22157 C 2152.35 -3.06762 1.44049 0
M  V30 22158 C 2151.52 -3.44193 2.69907 0
M  V30 22159 C 2150.58 -4.6178 2.52281 0
M  V30 22160 O 2149.61 -4.66538 3.26084 0
M  V30 22161 N 2150.81 -5.5805 1.59876 0
M  V30 22162 H 2153.57 -1.61672 2.52353 0
M  V30 22163 H 2151.13 -0.747304 1.43621 0
M  V30 22164 H 2153.13 -3.83253 1.29997 0
M  V30 22165 H 2151.7 -3.0766 0.553546 0
M  V30 22166 H 2150.92 -2.57186 2.98746 0
M  V30 22167 H 2152.2 -3.65975 3.53468 0
M  V30 22168 H 2151.6 -5.56959 0.990593 0
M  V30 22169 H 2150.16 -6.33882 1.51778 0
M  V30 22170 N 2153.59 -1.35359 -0.807199 0
M  V30 22171 C 2155 -1.25624 -1.38114 0
M  V30 22172 C 2155.35 0.11163 -1.95882 0
M  V30 22173 O 2154.48 1.01256 -1.91249 0
M  V30 22174 C 2155.07 -2.27464 -2.51088 0
M  V30 22175 C 2153.63 -2.21472 -3.04347 0
M  V30 22176 C 2152.78 -2.13208 -1.77307 0
M  V30 22177 H 2155.73 -1.46496 -0.610285 0
M  V30 22178 H 2155.75 -1.90077 -3.29623 0
M  V30 22179 H 2155.26 -3.27009 -2.09014 0
M  V30 22180 H 2153.36 -1.25336 -3.50887 0
M  V30 22181 H 2153.48 -3.13409 -3.6237 0
M  V30 22182 H 2151.84 -1.59176 -1.98834 0
M  V30 22183 H 2152.62 -3.14611 -1.37385 0
M  V30 22184 N 2155.07 1.02928 -1.19346 0
M  V30 22185 C 2156.29 1.80485 -1.02175 0
M  V30 22186 C 2156.72 1.83238 0.424925 0
M  V30 22187 O 2156.08 1.25809 1.30545 0
M  V30 22188 C 2156.13 3.23415 -1.59483 0
M  V30 22189 O 2155.23 4.04087 -0.823877 0
M  V30 22190 H 2154.57 0.557177 -0.361178 0
M  V30 22191 H 2157.1 1.29551 -1.5836 0
M  V30 22192 H 2157.11 3.74164 -1.62681 0
M  V30 22193 H 2155.79 3.20727 -2.64777 0
M  V30 22194 H 2154.36 3.62726 -0.865114 0
M  V30 22195 N 2156.55 0.997319 1.2203 0
M  V30 22196 C 2157.77 0.69397 1.95445 0
M  V30 22197 C 2158.2 -0.735638 1.73118 0
M  V30 22198 O 2157.56 -1.50348 1.01317 0
M  V30 22199 C 2157.6 1.01104 3.46136 0
M  V30 22200 O 2156.71 0.1121 4.12248 0
M  V30 22201 H 2156.05 0.259299 0.611277 0
M  V30 22202 H 2158.58 1.33549 1.55003 0
M  V30 22203 H 2158.59 0.954704 3.96673 0
M  V30 22204 H 2157.26 2.05274 3.61712 0
M  V30 22205 H 2155.84 0.224297 3.72225 0
M  V30 22206 N 2158.03 -1.37449 0.771075 0
M  V30 22207 C 2158.99 -2.28619 0.163149 0
M  V30 22208 C 2159.99 -1.47996 -0.628787 0
M  V30 22209 O 2161.18 -1.68221 -0.452475 0
M  V30 22210 C 2158.31 -3.31942 -0.776372 0
M  V30 22211 H 2159.5 -2.83888 0.966816 0
M  V30 22212 H 2157.06 -1.46703 0.53924 0
M  V30 22213 H 2157.79 -2.81794 -1.60507 0
M  V30 22214 H 2157.58 -3.91534 -0.210683 0
M  V30 22215 H 2159.07 -4.00072 -1.19717 0
M  V30 22216 N 2159.5 -0.52156 -1.4872 0
M  V30 22217 C 2160.45 0.2458 -2.29487 0
M  V30 22218 C 2161.42 0.941571 -1.36834 0
M  V30 22219 O 2162.61 0.944239 -1.65797 0
M  V30 22220 C 2159.75 1.2919 -3.20006 0
M  V30 22221 C 2158.86 0.605827 -4.27731 0
M  V30 22222 C 2157.99 1.63413 -5.0544 0
M  V30 22223 C 2157.03 0.931058 -6.04977 0
M  V30 22224 N 2156.17 1.90451 -6.75776 0
M  V30 22225 H 2161.01 -0.449151 -2.94596 0
M  V30 22226 H 2158.55 -0.233338 -1.45238 0
M  V30 22227 H 2160.51 1.91062 -3.70879 0
M  V30 22228 H 2159.14 1.95534 -2.56839 0
M  V30 22229 H 2158.19 -0.126644 -3.80189 0
M  V30 22230 H 2159.5 0.0533786 -4.98771 0
M  V30 22231 H 2158.65 2.32736 -5.60285 0
M  V30 22232 H 2157.39 2.22047 -4.3422 0
M  V30 22233 H 2156.4 0.223716 -5.49345 0
M  V30 22234 H 2157.62 0.350949 -6.78193 0
M  V30 22235 H 2155.57 2.48008 -6.07312 0
M  V30 22236 H 2155.49 1.40328 -7.42862 0
M  V30 22237 H 2156.75 2.58999 -7.35214 0
M  V30 22238 N 2160.98 1.55502 -0.256304 0
M  V30 22239 C 2162.21 2.04025 0.372624 0
M  V30 22240 C 2162.63 1.13408 1.50067 0
M  V30 22241 O 2161.99 0.128888 1.80841 0
M  V30 22242 C 2162.04 3.50465 0.848906 0
M  V30 22243 O 2161.14 3.62969 1.95774 0
M  V30 22244 H 2160.48 0.659174 0.0799143 0
M  V30 22245 H 2163.01 2.00943 -0.385109 0
M  V30 22246 H 2163.02 3.91468 1.14965 0
M  V30 22247 H 2161.7 4.15893 0.0234786 0
M  V30 22248 H 2160.28 3.33865 1.66098 0
M  V30 22249 N 2162.46 -0.0166879 1.57591 0
M  V30 22250 C 2163.69 -0.720103 1.94497 0
M  V30 22251 C 2164.11 -1.6743 0.857254 0
M  V30 22252 O 2163.47 -1.80343 -0.186035 0
M  V30 22253 C 2163.52 -1.44264 3.30485 0
M  V30 22254 O 2162.62 -2.55638 3.23609 0
M  V30 22255 H 2161.96 -0.19279 0.635396 0
M  V30 22256 H 2164.49 0.0315297 2.04576 0
M  V30 22257 H 2164.5 -1.80981 3.65664 0
M  V30 22258 H 2163.18 -0.742902 4.09211 0
M  V30 22259 H 2161.75 -2.21373 3.00081 0
M  V30 22260 N 2163.94 -1.54924 -0.289176 0
M  V30 22261 C 2164.89 -1.87462 -1.37698 0
M  V30 22262 C 2165.88 -0.749411 -1.51922 0
M  V30 22263 O 2167.09 -0.933558 -1.53898 0
M  V30 22264 H 2163.46 -0.59475 -0.460192 0
M  V30 22265 H 2165.43 -2.78365 -1.07498 0
M  V30 22266 C 2164.18 -2.14897 -2.7334 0
M  V30 22267 H 2163.5 -3.00958 -2.63181 0
M  V30 22268 H 2164.94 -2.41596 -3.48436 0
M  V30 22269 C 2163.4 -0.951304 -3.2319 0
M  V30 22270 O 2163.93 -0.177749 -4.01307 0
M  V30 22271 N 2162.14 -0.753431 -2.80663 0
M  V30 22272 H 2161.69 -1.38415 -2.17253 0
M  V30 22273 H 2161.64 0.0463293 -3.14366 0
M  V30 22274 N 2165.42 0.552936 -1.47582 0
M  V30 22275 C 2166.36 1.65963 -1.60389 0
M  V30 22276 C 2167.33 1.59979 -0.446754 0
M  V30 22277 O 2168.52 1.78749 -0.667351 0
M  V30 22278 C 2165.66 3.04278 -1.62815 0
M  V30 22279 C 2164.77 3.20668 -2.89476 0
M  V30 22280 C 2163.91 4.49406 -2.8321 0
M  V30 22281 C 2162.95 4.59243 -4.04676 0
M  V30 22282 N 2162.08 5.79341 -3.96621 0
M  V30 22283 H 2166.92 1.54355 -2.54909 0
M  V30 22284 H 2164.46 0.751844 -1.26435 0
M  V30 22285 H 2166.42 3.84377 -1.62204 0
M  V30 22286 H 2165.05 3.14712 -0.718048 0
M  V30 22287 H 2164.1 2.33973 -2.99935 0
M  V30 22288 H 2165.41 3.238 -3.79414 0
M  V30 22289 H 2164.57 5.3777 -2.80872 0
M  V30 22290 H 2163.3 4.4876 -1.90961 0
M  V30 22291 H 2162.31 3.69291 -4.07314 0
M  V30 22292 H 2163.53 4.61645 -4.98057 0
M  V30 22293 H 2161.48 5.79636 -3.07178 0
M  V30 22294 H 2161.4 5.8387 -4.80242 0
M  V30 22295 H 2162.67 6.70054 -3.98306 0
M  V30 22296 N 2166.89 1.35785 0.800009 0
M  V30 22297 C 2167.84 1.29289 1.93357 0
M  V30 22298 C 2168.84 0.186598 1.68369 0
M  V30 22299 O 2170.04 0.352975 1.76505 0
M  V30 22300 H 2166.42 0.402237 0.635382 0
M  V30 22301 H 2168.39 2.25042 1.95956 0
M  V30 22302 C 2167.14 1.08839 3.30226 0
M  V30 22303 H 2166.46 1.93208 3.50015 0
M  V30 22304 H 2167.9 1.08337 4.09926 0
M  V30 22305 C 2166.36 -0.207479 3.36261 0
M  V30 22306 O 2166.89 -1.201 3.83326 0
M  V30 22307 N 2165.1 -0.248518 2.89535 0
M  V30 22308 H 2164.64 0.560592 2.51426 0
M  V30 22309 H 2164.6 -1.11527 2.93954 0
M  V30 22310 N 2168.37 -1.02294 1.19891 0
M  V30 22311 C 2169.32 -2.107 0.942023 0
M  V30 22312 C 2170.29 -1.65626 -0.125398 0
M  V30 22313 O 2171.47 -1.90792 0.0179973 0
M  V30 22314 C 2168.61 -3.41556 0.493291 0
M  V30 22315 C 2167.73 -4.00144 1.62815 0
M  V30 22316 C 2166.86 -5.19034 1.13036 0
M  V30 22317 C 2165.9 -5.69691 2.23872 0
M  V30 22318 N 2165.04 -6.79849 1.75357 0
M  V30 22319 H 2169.88 -2.3201 1.87017 0
M  V30 22320 H 2167.42 -1.13784 0.932293 0
M  V30 22321 H 2169.37 -4.16648 0.214483 0
M  V30 22322 H 2168 -3.20339 -0.397861 0
M  V30 22323 H 2167.06 -3.22208 2.02203 0
M  V30 22324 H 2168.37 -4.3375 2.46298 0
M  V30 22325 H 2167.52 -6.01307 0.807136 0
M  V30 22326 H 2166.26 -4.86978 0.265337 0
M  V30 22327 H 2165.27 -4.86027 2.57018 0
M  V30 22328 H 2166.49 -6.03784 3.1084 0
M  V30 22329 H 2164.44 -6.49634 0.911717 0
M  V30 22330 H 2164.35 -7.12613 2.52425 0
M  V30 22331 H 2165.62 -7.65702 1.46016 0
M  V30 22332 N 2169.85 -1.00378 -1.21499 0
M  V30 22333 C 2170.8 -0.563153 -2.23824 0
M  V30 22334 C 2171.77 0.410151 -1.60956 0
M  V30 22335 O 2172.95 0.312473 -1.88224 0
M  V30 22336 C 2170.09 0.105277 -3.44939 0
M  V30 22337 C 2169.21 -0.91106 -4.22284 0
M  V30 22338 C 2168.34 -0.215019 -5.30765 0
M  V30 22339 C 2167.38 -1.21899 -5.99839 0
M  V30 22340 N 2166.52 -0.550506 -6.99938 0
M  V30 22341 H 2171.36 -1.44041 -2.60876 0
M  V30 22342 H 2168.89 -0.721302 -1.28202 0
M  V30 22343 H 2170.85 0.509838 -4.14073 0
M  V30 22344 H 2169.48 0.946261 -3.08619 0
M  V30 22345 H 2168.53 -1.43387 -3.52341 0
M  V30 22346 H 2169.85 -1.67513 -4.69831 0
M  V30 22347 H 2169 0.245713 -6.06202 0
M  V30 22348 H 2167.74 0.581469 -4.84221 0
M  V30 22349 H 2166.74 -1.69024 -5.23174 0
M  V30 22350 H 2167.97 -2.01654 -6.48469 0
M  V30 22351 H 2165.91 0.226347 -6.55609 0
M  V30 22352 H 2165.83 -1.25285 -7.45547 0
M  V30 22353 H 2167.1 -0.112938 -7.79418 0
M  V30 22354 N 2171.33 1.37038 -0.778354 0
M  V30 22355 C 2172.28 2.3207 -0.156991 0
M  V30 22356 C 2173.27 1.55262 0.677503 0
M  V30 22357 O 2174.48 1.70608 0.573826 0
M  V30 22358 H 2170.85 0.75132 -0.0319844 0
M  V30 22359 H 2172.82 2.82052 -0.974127 0
M  V30 22360 C 2171.57 3.40528 0.702542 0
M  V30 22361 H 2170.89 3.99739 0.0697802 0
M  V30 22362 H 2172.33 4.0937 1.10417 0
M  V30 22363 C 2170.79 2.81165 1.85602 0
M  V30 22364 O 2171.32 2.72442 2.95192 0
M  V30 22365 N 2169.53 2.38613 1.65868 0
M  V30 22366 H 2169.08 2.45907 0.767299 0
M  V30 22367 H 2169.03 1.99239 2.4321 0
M  V30 22368 N 2172.81 0.529439 1.48441 0
M  V30 22369 C 2173.75 -0.233627 2.29615 0
M  V30 22370 C 2174.72 -0.934301 1.37332 0
M  V30 22371 O 2175.91 -0.935433 1.66296 0
M  V30 22372 C 2173.05 -1.27491 3.20687 0
M  V30 22373 C 2172.16 -0.583135 4.28046 0
M  V30 22374 C 2171.3 -1.6073 5.06299 0
M  V30 22375 C 2170.34 -0.898962 6.05463 0
M  V30 22376 N 2169.47 -1.86865 6.76776 0
M  V30 22377 H 2174.31 0.464768 2.94353 0
M  V30 22378 H 2171.85 0.241037 1.45112 0
M  V30 22379 H 2173.81 -1.89092 3.71887 0
M  V30 22380 H 2172.44 -1.9417 2.57872 0
M  V30 22381 H 2171.49 0.146804 3.80117 0
M  V30 22382 H 2172.8 -0.0269268 4.98793 0
M  V30 22383 H 2171.96 -2.29761 5.61511 0
M  V30 22384 H 2170.7 -2.19741 4.35391 0
M  V30 22385 H 2169.7 -0.194579 5.49456 0
M  V30 22386 H 2170.93 -0.314978 6.78369 0
M  V30 22387 H 2168.87 -2.44784 6.08619 0
M  V30 22388 H 2168.79 -1.36386 7.43596 0
M  V30 22389 H 2170.06 -2.55096 7.36577 0
M  V30 22390 N 2174.29 -1.55364 0.264547 0
M  V30 22391 C 2175.56 -1.9133 -0.406489 0
M  V30 22392 C 2175.94 -1.18752 -1.74531 0
M  V30 22393 O 2175.29 -0.310831 -2.26376 0
M  V30 22394 C 2175.5 -3.44523 -0.557199 0
M  V30 22395 C 2176.85 -4.16107 -0.844973 0
M  V30 22396 O 2177.87 -3.50359 -0.642406 0
M  V30 22397 O 2176.73 -5.32438 -1.23175 0
M  V30 22398 H 2173.83 -0.796963 -0.220859 0
M  V30 22399 H 2176.37 -1.66846 0.309918 0
M  V30 22400 H 2175.14 -3.89397 0.385423 0
M  V30 22401 H 2174.77 -3.74926 -1.32348 0
M  V30 22402 N 2175.76 0.00833021 -1.57598 0
M  V30 22403 C 2176.71 1.00242 -2.07895 0
M  V30 22404 C 2177.68 1.34651 -0.972534 0
M  V30 22405 O 2178.87 1.44632 -1.24444 0
M  V30 22406 C 2176.01 2.2918 -2.58013 0
M  V30 22407 C 2175.12 2.00747 -3.82524 0
M  V30 22408 C 2174.25 3.23706 -4.21175 0
M  V30 22409 C 2173.29 2.90921 -5.38546 0
M  V30 22410 N 2172.43 4.06392 -5.72529 0
M  V30 22411 H 2177.27 0.566561 -2.92565 0
M  V30 22412 H 2174.81 0.268106 -1.44636 0
M  V30 22413 H 2176.76 3.04546 -2.85145 0
M  V30 22414 H 2175.39 2.7045 -1.76229 0
M  V30 22415 H 2174.45 1.15786 -3.6235 0
M  V30 22416 H 2175.76 1.72576 -4.67995 0
M  V30 22417 H 2174.91 4.07424 -4.49545 0
M  V30 22418 H 2173.65 3.55007 -3.34397 0
M  V30 22419 H 2172.66 2.05609 -5.09907 0
M  V30 22420 H 2173.88 2.60875 -6.26993 0
M  V30 22421 H 2171.83 4.37606 -4.88709 0
M  V30 22422 H 2171.74 3.81717 -6.52555 0
M  V30 22423 H 2173.01 4.90923 -6.05487 0
M  V30 22424 N 2177.24 1.55075 0.280956 0
M  V30 22425 C 2178.15 1.90495 1.36927 0
M  V30 22426 C 2179.17 0.801283 1.54452 0
M  V30 22427 O 2180.34 1.09962 1.68732 0
M  V30 22428 C 2177.41 2.16264 2.70981 0
M  V30 22429 C 2176.47 3.39872 2.6227 0
M  V30 22430 C 2175.7 3.64402 3.89932 0
M  V30 22431 O 2175.93 2.91582 4.90241 0
M  V30 22432 O 2174.86 4.57934 3.90615 0
M  V30 22433 H 2178.69 2.83123 1.09888 0
M  V30 22434 H 2176.27 1.4152 0.478787 0
M  V30 22435 H 2178.15 2.34299 3.5026 0
M  V30 22436 H 2176.83 1.2682 2.97823 0
M  V30 22437 H 2175.73 3.2718 1.81395 0
M  V30 22438 H 2177.07 4.2951 2.40379 0
M  V30 22439 N 2178.72 -0.545102 1.47873 0
M  V30 22440 C 2179.95 -1.3249 1.58525 0
M  V30 22441 C 2180.36 -1.87685 0.238932 0
M  V30 22442 O 2179.7 -1.6633 -0.779752 0
M  V30 22443 C 2179.76 -2.52362 2.56035 0
M  V30 22444 C 2179.43 -2.18364 4.01455 0
M  V30 22445 C 2180.42 -1.74934 4.89586 0
M  V30 22446 C 2178.11 -2.29352 4.46882 0
M  V30 22447 C 2180.1 -1.42937 6.21167 0
M  V30 22448 C 2177.79 -1.96966 5.78487 0
M  V30 22449 C 2178.79 -1.53828 6.65452 0
M  V30 22450 O 2178.48 -1.2186 7.9461 0
M  V30 22451 H 2178.21 -0.409737 0.537672 0
M  V30 22452 H 2180.76 -0.665921 1.94306 0
M  V30 22453 H 2178.99 -3.21191 2.15345 0
M  V30 22454 H 2180.68 -3.14433 2.56684 0
M  V30 22455 H 2181.45 -1.65929 4.55733 0
M  V30 22456 H 2177.33 -2.61886 3.7939 0
M  V30 22457 H 2180.87 -1.09193 6.89001 0
M  V30 22458 H 2176.77 -2.05608 6.11879 0
M  V30 22459 H 2177.53 -1.35388 8.07225 0
M  V30 22460 N 2180.2 -1.36208 -0.792797 0
M  V30 22461 C 2181.43 -1.33203 -1.57926 0
M  V30 22462 C 2181.84 0.0894968 -1.88988 0
M  V30 22463 O 2181.18 1.05585 -1.50325 0
M  V30 22464 C 2181.24 -2.08496 -2.92865 0
M  V30 22465 C 2180.9 -3.57605 -2.84548 0
M  V30 22466 C 2181.9 -4.51922 -2.57026 0
M  V30 22467 C 2179.59 -4.00445 -3.03232 0
M  V30 22468 C 2181.58 -5.87055 -2.48284 0
M  V30 22469 C 2179.27 -5.35669 -2.94111 0
M  V30 22470 C 2180.27 -6.28787 -2.66675 0
M  V30 22471 O 2179.95 -7.61529 -2.57543 0
M  V30 22472 H 2179.69 -0.458647 -0.496608 0
M  V30 22473 H 2182.24 -1.79849 -0.992152 0
M  V30 22474 H 2180.47 -1.56508 -3.53613 0
M  V30 22475 H 2182.16 -1.98392 -3.54112 0
M  V30 22476 H 2182.92 -4.20139 -2.42297 0
M  V30 22477 H 2178.8 -3.28341 -3.23594 0
M  V30 22478 H 2182.35 -6.59706 -2.26789 0
M  V30 22479 H 2178.24 -5.67061 -3.08402 0
M  V30 22480 H 2179.01 -7.71613 -2.73049 0
M  V30 22481 N 2181.68 1.01656 -1.20431 0
M  V30 22482 C 2182.92 1.75515 -1.016 0
M  V30 22483 C 2183.25 1.88896 0.450791 0
M  V30 22484 O 2182.53 1.4148 1.33468 0
M  V30 22485 C 2182.81 3.17433 -1.70024 0
M  V30 22486 C 2182.67 3.11847 -3.24147 0
M  V30 22487 C 2183.98 4.16105 -1.43334 0
M  V30 22488 H 2181.1 0.637102 -0.370501 0
M  V30 22489 H 2183.75 1.18591 -1.48446 0
M  V30 22490 H 2181.9 3.66035 -1.30195 0
M  V30 22491 H 2183.57 2.71049 -3.7327 0
M  V30 22492 H 2181.81 2.49242 -3.55051 0
M  V30 22493 H 2182.48 4.12169 -3.6718 0
M  V30 22494 H 2184.96 3.76159 -1.77887 0
M  V30 22495 H 2183.83 5.13571 -1.93741 0
M  V30 22496 H 2184.09 4.40624 -0.360952 0
M  V30 22497 O 2183.19 1.13755 1.14638 0
M  V30 22498 H 2183.88 0.855642 1.73777 0
M  V30 END ATOM
M  V30 BEGIN BOND
M  V30 END BOND
M  V30 END CTAB
M  END
$$$$
